drugbank_target|P54716 Maltose-6'-phosphate glucosidase (DB02007)
 OpenBabel12092119523D

  0  0  0     0  0            999 V3000
M  V30 BEGIN CTAB
M  V30 COUNTS 7050 7125 0 0 0
M  V30 BEGIN ATOM
M  V30 1 H -0.908 1.98254 -0.117106 0
M  V30 2 N 0 1.576 0 0
M  V30 3 C 0.933 2.03868 1.02534 0
M  V30 4 C 1.911 0.928543 1.3348 0
M  V30 5 O 3.095 1.19667 1.45644 0
M  V30 6 C 0.222 2.43627 2.35294 0
M  V30 7 C -0.732 3.65373 2.2001 0
M  V30 8 S 0.101 5.13292 1.52614 0
M  V30 9 C 1.257 5.56322 2.86805 0
M  V30 10 H 1.49 2.90518 0.631377 0
M  V30 11 H -0.977 1.52953 0.210867 0
M  V30 12 H 0.981 2.67203 3.11629 0
M  V30 13 H -0.358 1.57376 2.7183 0
M  V30 14 H -1.165 3.90944 3.18086 0
M  V30 15 H -1.563 3.418 1.51819 0
M  V30 16 H 0.729 5.58782 3.83104 0
M  V30 17 H 1.672 6.56266 2.65933 0
M  V30 18 H 2.08 4.83886 2.90714 0
M  V30 19 N 1.4781 -0.272755 1.55222 0
M  V30 20 C 2.4251 -1.33716 1.88119 0
M  V30 21 C 3.3951 -1.49066 0.73271 0
M  V30 22 O 4.5801 -1.63469 0.984002 0
M  V30 23 C 1.7201 -2.69238 2.15882 0
M  V30 24 C 0.8331 -2.62108 3.43399 0
M  V30 25 C -0.0319 -3.89811 3.60861 0
M  V30 26 C -0.9929 -3.77193 4.8207 0
M  V30 27 N -1.8559 -4.9673 4.96189 0
M  V30 28 H 2.9841 -1.04962 2.78903 0
M  V30 29 H 0.5211 -0.507088 1.38083 0
M  V30 30 H 2.4791 -3.48089 2.29978 0
M  V30 31 H 1.1091 -2.96194 1.28331 0
M  V30 32 H 0.1611 -1.74967 3.37773 0
M  V30 33 H 1.4731 -2.48685 4.32386 0
M  V30 34 H 0.6271 -4.77103 3.74777 0
M  V30 35 H -0.6339 -4.06102 2.7006 0
M  V30 36 H -1.6289 -2.88284 4.68159 0
M  V30 37 H -0.4039 -3.62421 5.74307 0
M  V30 38 H -2.4579 -5.13431 4.08319 0
M  V30 39 H -2.5409 -4.85839 5.79221 0
M  V30 40 H -1.2729 -5.85594 5.1449 0
M  V30 41 N 2.9562 -1.48159 -0.537278 0
M  V30 42 C 3.9032 -1.62138 -1.64256 0
M  V30 43 C 4.8732 -0.463668 -1.59497 0
M  V30 44 O 6.0582 -0.686241 -1.78032 0
M  V30 45 C 3.1982 -1.66028 -3.02537 0
M  V30 46 C 2.3112 -2.92855 -3.17585 0
M  V30 47 C 1.4462 -2.87952 -4.46382 0
M  V30 48 C 0.4852 -4.09516 -4.54932 0
M  V30 49 N -0.3778 -4.02733 -5.75109 0
M  V30 50 H 4.4622 -2.56529 -1.51647 0
M  V30 51 H 1.9992 -1.27224 -0.738414 0
M  V30 52 H 3.9572 -1.66265 -3.82638 0
M  V30 53 H 2.5872 -0.751331 -3.13934 0
M  V30 54 H 1.6392 -3.02395 -2.30784 0
M  V30 55 H 2.9512 -3.82822 -3.19764 0
M  V30 56 H 2.1052 -2.8655 -5.34765 0
M  V30 57 H 0.8442 -1.95702 -4.46712 0
M  V30 58 H -0.1508 -4.11201 -3.64957 0
M  V30 59 H 1.0742 -5.02917 -4.56346 0
M  V30 60 H -0.9798 -3.13299 -5.76351 0
M  V30 61 H -1.0628 -4.86397 -5.78752 0
M  V30 62 H 0.2052 -4.05379 -6.65799 0
M  V30 63 N 4.4343 0.785586 -1.36625 0
M  V30 64 C 5.3813 1.89838 -1.31264 0
M  V30 65 C 6.3513 1.65115 -0.180633 0
M  V30 66 O 7.5363 1.87222 -0.36777 0
M  V30 67 C 4.6763 3.26706 -1.11163 0
M  V30 68 C 3.7893 3.63476 -2.33472 0
M  V30 69 C 2.9243 4.89481 -2.06353 0
M  V30 70 C 1.9633 5.18941 -3.24602 0
M  V30 71 N 1.1003 6.36131 -2.97123 0
M  V30 72 H 5.9403 1.93756 -2.26413 0
M  V30 73 H 3.4773 0.947454 -1.12524 0
M  V30 74 H 5.4353 4.05639 -0.975337 0
M  V30 75 H 4.0653 3.222 -0.196674 0
M  V30 76 H 3.1173 2.79636 -2.57891 0
M  V30 77 H 4.4293 3.81193 -3.21704 0
M  V30 78 H 3.5833 5.76288 -1.89675 0
M  V30 79 H 2.3223 4.73841 -1.15437 0
M  V30 80 H 1.3273 4.30615 -3.41834 0
M  V30 81 H 2.5523 5.36498 -4.16349 0
M  V30 82 H 0.4983 6.21875 -2.08823 0
M  V30 83 H 0.4153 6.54198 -3.78894 0
M  V30 84 H 1.6833 7.2591 -2.84033 0
M  V30 85 N 5.9124 1.20967 1.01018 0
M  V30 86 C 7.1374 1.0503 1.78839 0
M  V30 87 C 7.5624 -0.395752 1.8389 0
M  V30 88 O 6.9204 -1.28529 1.27867 0
M  V30 89 C 6.9684 1.64602 3.2084 0
M  V30 90 O 6.0724 0.887988 4.02726 0
M  V30 91 H 5.4134 0.369987 0.551367 0
M  V30 92 H 7.9434 1.60399 1.27018 0
M  V30 93 H 7.9534 1.68607 3.71532 0
M  V30 94 H 6.6284 2.69841 3.16479 0
M  V30 95 H 5.2054 0.922648 3.61305 0
M  V30 96 N 7.3905 -1.2043 1.01659 0
M  V30 97 C 8.6375 -1.89797 0.705917 0
M  V30 98 C 8.9655 -1.78848 -0.764439 0
M  V30 99 O 8.2205 -1.16694 -1.57102 0
M  V30 100 C 8.5195 -3.40464 1.08714 0
M  V30 101 C 8.1855 -3.71614 2.5537 0
M  V30 102 C 6.8475 -3.79826 2.95441 0
M  V30 103 C 9.1995 -3.85915 3.50313 0
M  V30 104 C 6.5275 -3.99797 4.29394 0
M  V30 105 C 8.8795 -4.07396 4.83954 0
M  V30 106 C 7.5435 -4.13837 5.23732 0
M  V30 107 H 6.8135 -0.694518 0.258313 0
M  V30 108 H 9.4605 -1.42691 1.27717 0
M  V30 109 H 7.7655 -3.89385 0.434309 0
M  V30 110 H 9.4625 -3.92433 0.824461 0
M  V30 111 H 6.0525 -3.65822 2.23321 0
M  V30 112 H 10.2365 -3.78926 3.20513 0
M  V30 113 H 5.4925 -4.03018 4.59768 0
M  V30 114 H 9.6665 -4.17404 5.57447 0
M  V30 115 H 7.2935 -4.29064 6.27541 0
M  V30 116 N 8.8686 -0.792821 -1.36206 0
M  V30 117 C 10.0936 -0.377701 -2.03932 0
M  V30 118 C 10.5186 0.998947 -1.59382 0
M  V30 119 O 9.8766 1.64421 -0.763903 0
M  V30 120 C 9.9246 -0.453635 -3.57735 0
M  V30 121 O 9.0286 0.538151 -4.08874 0
M  V30 122 H 8.3696 -0.159855 -0.644471 0
M  V30 123 H 10.8996 -1.07488 -1.7409 0
M  V30 124 H 10.9096 -0.318464 -4.06755 0
M  V30 125 H 9.5846 -1.45784 -3.89512 0
M  V30 126 H 8.1616 0.364359 -3.71116 0
M  V30 127 N 10.3467 1.47872 -0.545128 0
M  V30 128 C 11.5957 2.01695 -0.0145033 0
M  V30 129 C 11.9087 1.42609 1.33873 0
M  V30 130 O 13.1147 1.88021 1.95858 0
M  V30 131 C 11.5707 3.59892 0.0245068 0
M  V30 132 C 11.1787 4.27966 -1.32475 0
M  V30 133 C 12.9227 4.21507 0.50316 0
M  V30 134 C 10.8297 5.78136 -1.2455 0
M  V30 135 H 9.7597 0.753998 -0.00165172 0
M  V30 136 H 12.4107 1.69985 -0.691175 0
M  V30 137 H 10.7927 3.88509 0.766575 0
M  V30 138 H 11.9667 4.11003 -2.08357 0
M  V30 139 H 10.2817 3.78286 -1.74036 0
M  V30 140 H 12.8787 5.31538 0.580656 0
M  V30 141 H 13.2217 3.87855 1.51243 0
M  V30 142 H 13.7547 3.97376 -0.183681 0
M  V30 143 H 10.4937 6.16388 -2.23039 0
M  V30 144 H 10.0137 5.97469 -0.528282 0
M  V30 145 H 11.6927 6.40099 -0.942488 0
M  V30 146 N 11.8248 0.280983 1.55075 0
M  V30 147 C 13.0708 -0.33461 2.00021 0
M  V30 148 C 13.4038 -1.55063 1.16915 0
M  V30 149 O 12.6788 -1.93006 0.240646 0
M  V30 150 C 12.9618 -0.711007 3.53011 0
M  V30 151 C 12.8148 0.512766 4.46868 0
M  V30 152 C 14.1338 -1.54522 4.12081 0
M  V30 153 H 11.2528 -0.120147 0.727141 0
M  V30 154 H 13.8948 0.389097 1.85973 0
M  V30 155 H 12.0448 -1.32761 3.65112 0
M  V30 156 H 13.7168 1.15131 4.46702 0
M  V30 157 H 11.9598 1.14975 4.18286 0
M  V30 158 H 12.6308 0.205556 5.51617 0
M  V30 159 H 15.1068 -1.02442 4.03293 0
M  V30 160 H 13.9828 -1.77739 5.19327 0
M  V30 161 H 14.2438 -2.52813 3.62682 0
M  V30 162 N 13.3029 -1.57598 0.00835791 0
M  V30 163 C 14.5519 -1.90107 -0.673968 0
M  V30 164 C 14.8649 -0.884275 -1.7447 0
M  V30 165 O 16.0709 -1.09987 -2.48224 0
M  V30 166 C 14.5269 -3.37497 -1.24995 0
M  V30 167 C 14.1349 -4.47491 -0.2136 0
M  V30 168 C 15.8789 -3.79104 -1.90999 0
M  V30 169 C 13.7859 -5.85963 -0.80005 0
M  V30 170 H 12.7159 -0.709393 -0.255495 0
M  V30 171 H 15.3669 -1.83365 0.0702693 0
M  V30 172 H 13.7489 -3.39102 -2.04513 0
M  V30 173 H 14.9229 -4.57414 0.557596 0
M  V30 174 H 13.2379 -4.14956 0.346474 0
M  V30 175 H 15.8349 -4.79901 -2.35795 0
M  V30 176 H 16.1779 -3.1306 -2.74407 0
M  V30 177 H 16.7109 -3.79833 -1.18203 0
M  V30 178 H 13.4499 -6.555 -0.00456708 0
M  V30 179 H 12.9699 -5.79687 -1.54021 0
M  V30 180 H 14.6489 -6.33884 -1.29615 0
M  V30 181 N 14.781 0.264519 -1.55364 0
M  V30 182 C 15.744 1.31046 -1.88042 0
M  V30 183 C 16.744 1.41943 -0.755569 0
M  V30 184 O 17.934 1.40947 -1.02369 0
M  V30 185 C 15.066 2.69067 -2.09323 0
M  V30 186 H 16.259 1.03297 -2.81549 0
M  V30 187 H 13.812 0.502989 -1.47986 0
M  V30 188 H 14.547 3.01982 -1.18226 0
M  V30 189 H 14.332 2.62542 -2.91229 0
M  V30 190 H 15.822 3.44623 -2.35848 0
M  V30 191 N 16.2591 1.48442 0.529413 0
M  V30 192 C 17.5071 1.56179 1.28267 0
M  V30 193 C 17.8281 0.237721 1.93546 0
M  V30 194 O 17.0981 -0.740779 1.81354 0
M  V30 195 H 15.6781 0.575367 0.476405 0
M  V30 196 H 18.3401 1.84909 0.61602 0
M  V30 197 H 17.4361 2.34312 2.06165 0
M  V30 198 N 17.7372 -0.778329 1.37039 0
M  V30 199 C 18.9852 -1.53361 1.31623 0
M  V30 200 C 19.3062 -1.94739 -0.100831 0
M  V30 201 O 18.5762 -1.65797 -1.04347 0
M  V30 202 H 17.1562 -0.568794 0.484234 0
M  V30 203 H 19.8182 -0.926742 1.71457 0
M  V30 204 H 18.9142 -2.43606 1.95096 0
M  V30 205 N 19.2153 -1.21501 -1.00376 0
M  V30 206 C 20.4633 -1.03095 -1.73827 0
M  V30 207 C 20.7843 0.436341 -1.90055 0
M  V30 208 O 20.0543 1.31466 -1.45236 0
M  V30 209 H 18.6343 -0.378487 -0.644016 0
M  V30 210 H 21.2963 -1.52831 -1.20949 0
M  V30 211 H 20.3923 -1.49991 -2.73695 0
M  V30 212 N 20.6934 1.19889 -1.02296 0
M  V30 213 C 21.9184 1.9393 -0.735237 0
M  V30 214 C 22.3434 1.74639 0.698782 0
M  V30 215 O 21.7014 1.04481 1.48167 0
M  V30 216 C 21.7494 3.43916 -1.08417 0
M  V30 217 O 20.8534 4.11917 -0.199446 0
M  V30 218 H 20.1944 0.605645 -0.272196 0
M  V30 219 H 22.7244 1.52137 -1.36804 0
M  V30 220 H 22.7344 3.9456 -1.03856 0
M  V30 221 H 21.4094 3.5728 -2.12894 0
M  V30 222 H 19.9864 3.71666 -0.303136 0
M  V30 223 N 22.1715 0.800033 1.35784 0
M  V30 224 C 23.3995 0.389606 2.03199 0
M  V30 225 C 23.8145 -0.997375 1.60306 0
M  V30 226 O 23.1715 -1.64154 0.797481 0
M  V30 227 C 23.2225 0.455855 3.58614 0
M  V30 228 O 22.9435 1.78815 3.99946 0
M  V30 229 C 24.4445 0.0374032 4.43284 0
M  V30 230 H 21.6645 0.159132 0.651857 0
M  V30 231 H 24.2085 1.08183 1.73541 0
M  V30 232 H 22.3635 -0.188057 3.86943 0
M  V30 233 H 22.7775 1.74636 4.94573 0
M  V30 234 H 24.2515 0.134882 5.51835 0
M  V30 235 H 24.7285 -1.01651 4.27275 0
M  V30 236 H 25.3345 0.654215 4.20238 0
M  V30 237 N 23.6496 -1.47581 0.552962 0
M  V30 238 C 24.8966 -2.02482 0.0273243 0
M  V30 239 C 25.2246 -1.42776 -1.32081 0
M  V30 240 O 24.4796 -0.571393 -1.87173 0
M  V30 241 C 24.7786 -3.57199 -0.119728 0
M  V30 242 C 24.4446 -4.35804 1.15697 0
M  V30 243 C 23.1066 -4.57 1.50681 0
M  V30 244 C 25.4586 -4.81167 2.00319 0
M  V30 245 C 22.7866 -5.20807 2.70142 0
M  V30 246 C 25.1386 -5.46293 3.18978 0
M  V30 247 C 23.8026 -5.65722 3.54281 0
M  V30 248 H 23.0726 -0.740933 0.00999866 0
M  V30 249 H 25.7196 -1.77302 0.72362 0
M  V30 250 H 24.0246 -3.81348 -0.89896 0
M  V30 251 H 25.7216 -3.97324 -0.541718 0
M  V30 252 H 22.3116 -4.19582 0.874561 0
M  V30 253 H 26.4956 -4.64574 1.74599 0
M  V30 254 H 21.7516 -5.34045 2.97668 0
M  V30 255 H 25.9256 -5.80407 3.84838 0
M  V30 256 H 23.5526 -6.14936 4.46942 0
M  V30 257 N 25.1277 -0.289203 -1.54924 0
M  V30 258 C 26.3557 0.326463 -2.04308 0
M  V30 259 C 26.7707 1.48413 -1.16701 0
M  V30 260 O 26.1277 1.81507 -0.190087 0
M  V30 261 C 26.1787 0.794014 -3.52672 0
M  V30 262 O 25.8997 -0.317564 -4.36948 0
M  V30 263 C 27.4007 1.47605 -4.18004 0
M  V30 264 H 24.6207 0.0726272 -0.667058 0
M  V30 265 H 27.1647 -0.425401 -2.00026 0
M  V30 266 H 25.3197 1.49593 -3.57352 0
M  V30 267 H 25.7337 0.0443186 -5.24481 0
M  V30 268 H 27.2077 1.75447 -5.23376 0
M  V30 269 H 27.6847 2.41224 -3.67025 0
M  V30 270 H 28.2907 0.81762 -4.17367 0
M  V30 271 N 26.6058 1.57591 -0.0167156 0
M  V30 272 C 28.0168 1.79201 0.523834 0
M  V30 273 C 28.3678 0.925796 1.72984 0
M  V30 274 O 27.4928 0.132792 2.15992 0
M  V30 275 C 28.0878 3.25 0.957091 0
M  V30 276 C 26.6468 3.47648 1.44283 0
M  V30 277 C 25.7938 2.74374 0.401757 0
M  V30 278 H 28.7448 1.56831 -0.242816 0
M  V30 279 H 28.7658 3.34031 1.82219 0
M  V30 280 H 28.2778 3.88019 0.0791415 0
M  V30 281 H 26.3788 2.89866 2.34113 0
M  V30 282 H 26.4918 4.56352 1.45877 0
M  V30 283 H 24.8558 2.39485 0.867121 0
M  V30 284 H 25.6388 3.40102 -0.467513 0
M  V30 285 N 28.0839 -0.256276 1.55502 0
M  V30 286 C 29.3319 -0.983672 1.76545 0
M  V30 287 C 29.6529 -1.86206 0.578982 0
M  V30 288 O 28.9229 -1.91656 -0.405577 0
M  V30 289 H 27.5029 -0.366191 0.651086 0
M  V30 290 H 30.1649 -0.276479 1.92929 0
M  V30 291 H 29.2609 -1.61087 2.67315 0
M  V30 292 N 29.562 -1.4872 -0.521534 0
M  V30 293 C 30.811 -1.56419 -1.27341 0
M  V30 294 C 31.124 -0.246805 -1.94037 0
M  V30 295 O 32.33 -0.202122 -2.70747 0
M  V30 296 C 30.786 -2.75896 -2.31105 0
M  V30 297 C 30.394 -4.14311 -1.70441 0
M  V30 298 C 32.138 -2.92913 -3.07249 0
M  V30 299 C 30.045 -5.25038 -2.72194 0
M  V30 300 H 28.975 -0.582344 -0.478949 0
M  V30 301 H 31.626 -1.75071 -0.549779 0
M  V30 302 H 30.008 -2.50697 -3.06541 0
M  V30 303 H 31.182 -4.49564 -1.01136 0
M  V30 304 H 29.497 -4.02482 -1.06759 0
M  V30 305 H 32.094 -3.72805 -3.83302 0
M  V30 306 H 32.437 -2.02689 -3.63625 0
M  V30 307 H 32.97 -3.18054 -2.38928 0
M  V30 308 H 29.709 -6.17255 -2.20627 0
M  V30 309 H 29.229 -4.94263 -3.39801 0
M  V30 310 H 30.908 -5.53508 -3.35019 0
M  V30 311 N 31.0401 0.771051 -1.3745 0
M  V30 312 C 32.2861 1.5319 -1.32894 0
M  V30 313 C 32.6191 1.94008 0.0862511 0
M  V30 314 O 31.8941 1.64124 1.04373 0
M  V30 315 C 32.1771 2.79648 -2.26868 0
M  V30 316 C 32.0301 2.45079 -3.77169 0
M  V30 317 C 33.3491 3.81583 -2.19277 0
M  V30 318 H 30.4681 0.555744 -0.484064 0
M  V30 319 H 33.1101 0.884492 -1.68157 0
M  V30 320 H 31.2601 3.34891 -1.96926 0
M  V30 321 H 32.9321 1.95745 -4.1771 0
M  V30 322 H 31.1751 1.77767 -3.95704 0
M  V30 323 H 31.8461 3.35478 -4.38359 0
M  V30 324 H 34.3221 3.35835 -2.45671 0
M  V30 325 H 33.1981 4.67787 -2.87171 0
M  V30 326 H 33.4591 4.25897 -1.18592 0
M  V30 327 N 32.5182 1.22032 0.997298 0
M  V30 328 C 33.4482 1.01065 2.10495 0
M  V30 329 C 34.4292 -0.0669542 1.69968 0
M  V30 330 O 35.6142 0.0943987 1.9397 0
M  V30 331 C 32.7442 0.582874 3.42374 0
M  V30 332 C 31.6982 1.60592 3.96729 0
M  V30 333 C 31.0242 1.03412 5.24605 0
M  V30 334 C 32.3242 2.99478 4.27914 0
M  V30 335 H 34.0182 1.93708 2.28292 0
M  V30 336 H 31.5642 0.932761 1.09707 0
M  V30 337 H 33.5172 0.423332 4.19268 0
M  V30 338 H 32.2412 -0.379213 3.24391 0
M  V30 339 H 30.9002 1.75316 3.21963 0
M  V30 340 H 30.5482 0.063518 5.0296 0
M  V30 341 H 30.2482 1.71754 5.61938 0
M  V30 342 H 31.7722 0.886066 6.04137 0
M  V30 343 H 33.1862 2.88153 4.95622 0
M  V30 344 H 31.5832 3.64903 4.76409 0
M  V30 345 H 32.6532 3.49742 3.3587 0
M  V30 346 N 33.9963 -1.19345 1.0293 0
M  V30 347 C 34.9293 -2.21347 0.555029 0
M  V30 348 C 35.9073 -1.57492 -0.404351 0
M  V30 349 O 37.0913 -1.85741 -0.321352 0
M  V30 350 C 34.2183 -3.38163 -0.19064 0
M  V30 351 C 33.2643 -4.20375 0.720236 0
M  V30 352 S 34.0973 -4.88371 2.19668 0
M  V30 353 C 35.2533 -6.08597 1.46153 0
M  V30 354 H 35.4863 -2.61235 1.41929 0
M  V30 355 H 33.0193 -1.29598 0.839272 0
M  V30 356 H 34.9773 -4.05871 -0.614724 0
M  V30 357 H 33.6383 -2.9671 -1.03063 0
M  V30 358 H 32.8313 -5.03793 0.14455 0
M  V30 359 H 32.4333 -3.57987 1.08266 0
M  V30 360 H 34.7253 -6.73354 0.748357 0
M  V30 361 H 35.6683 -6.7065 2.27233 0
M  V30 362 H 36.0763 -5.56297 0.958842 0
M  V30 363 N 35.4744 -0.807222 -1.35358 0
M  V30 364 C 36.4044 -0.232509 -2.3234 0
M  V30 365 C 37.3854 0.642386 -1.57504 0
M  V30 366 O 38.5704 0.572526 -1.85569 0
M  V30 367 C 35.7004 0.619238 -3.41735 0
M  V30 368 C 34.6544 -0.157215 -4.27711 0
M  V30 369 C 33.9804 0.816273 -5.28433 0
M  V30 370 C 35.2804 -1.35656 -5.04376 0
M  V30 371 H 36.9744 -1.04276 -2.80654 0
M  V30 372 H 34.5204 -0.50288 -1.34934 0
M  V30 373 H 36.4734 1.03137 -4.08584 0
M  V30 374 H 35.1974 1.46239 -2.92031 0
M  V30 375 H 33.8564 -0.550525 -3.62443 0
M  V30 376 H 33.5044 1.65494 -4.74996 0
M  V30 377 H 33.2044 0.301067 -5.86828 0
M  V30 378 H 34.7284 1.22659 -5.98153 0
M  V30 379 H 36.1424 -1.01927 -5.64166 0
M  V30 380 H 34.5394 -1.8063 -5.7227 0
M  V30 381 H 35.6094 -2.14288 -4.34981 0
M  V30 382 N 36.9525 1.47285 -0.560781 0
M  V30 383 C 37.8825 2.32857 0.173105 0
M  V30 384 C 38.8635 1.44009 0.905281 0
M  V30 385 O 40.0485 1.7286 0.885046 0
M  V30 386 C 37.1785 3.25861 1.20133 0
M  V30 387 C 36.1325 4.23978 0.585388 0
M  V30 388 C 35.4585 5.06332 1.7185 0
M  V30 389 C 36.7585 5.20242 -0.463178 0
M  V30 390 H 38.4525 2.94466 -0.541307 0
M  V30 391 H 35.9985 1.41601 -0.261764 0
M  V30 392 H 37.9515 3.84569 1.72293 0
M  V30 393 H 36.6755 2.62315 1.94573 0
M  V30 394 H 35.3345 3.66501 0.085054 0
M  V30 395 H 34.9825 4.39186 2.45203 0
M  V30 396 H 34.6825 5.72762 1.31213 0
M  V30 397 H 36.2065 5.67899 2.24329 0
M  V30 398 H 37.6205 5.73293 -0.027502 0
M  V30 399 H 36.0175 5.94896 -0.788627 0
M  V30 400 H 37.0875 4.65504 -1.35773 0
M  V30 401 N 38.4306 0.297415 1.54768 0
M  V30 402 C 39.7076 -0.365847 1.92148 0
M  V30 403 C 40.0876 -1.71975 1.22424 0
M  V30 404 O 39.4356 -2.25666 0.358739 0
M  V30 405 C 39.6456 -0.484056 3.45627 0
M  V30 406 C 40.9936 -0.756594 4.17805 0
M  V30 407 O 42.0176 -0.568007 3.51642 0
M  V30 408 O 40.8766 -1.11863 5.34929 0
M  V30 409 H 37.9706 -0.203919 0.801465 0
M  V30 410 H 40.5166 0.34521 1.66152 0
M  V30 411 H 39.2886 0.467865 3.88493 0
M  V30 412 H 38.9116 -1.24372 3.77647 0
M  V30 413 N 39.9087 -1.5758 0.0250728 0
M  V30 414 C 40.8587 -2.06468 -0.967201 0
M  V30 415 C 41.8427 -0.964376 -1.28797 0
M  V30 416 O 43.0347 -1.22797 -1.27475 0
M  V30 417 C 40.1637 -2.59203 -2.25097 0
M  V30 418 C 39.2497 -3.76157 -1.95874 0
M  V30 419 N 39.6407 -4.86919 -1.36905 0
M  V30 420 C 37.9387 -3.84566 -2.25887 0
M  V30 421 C 38.6397 -5.68172 -1.24724 0
M  V30 422 N 37.6157 -5.14953 -1.74138 0
M  V30 423 H 41.4177 -2.89508 -0.506176 0
M  V30 424 H 38.9317 -1.61399 -0.18004 0
M  V30 425 H 40.9287 -2.92517 -2.97052 0
M  V30 426 H 39.5887 -1.77592 -2.71829 0
M  V30 427 H 40.5997 -5.07256 -1.04459 0
M  V30 428 H 37.2767 -3.13854 -2.75321 0
M  V30 429 H 38.6667 -6.67221 -0.791605 0
M  V30 430 N 41.3868 0.248026 -1.55636 0
M  V30 431 C 42.3168 1.31079 -1.93237 0
M  V30 432 C 43.2978 1.50264 -0.797174 0
M  V30 433 O 44.4828 1.62891 -1.05737 0
M  V30 434 C 41.6128 2.66575 -2.22609 0
M  V30 435 C 40.5668 2.62087 -3.3837 0
M  V30 436 C 39.8928 4.01369 -3.53281 0
M  V30 437 C 41.1928 2.19171 -4.7409 0
M  V30 438 H 42.8868 0.998556 -2.82257 0
M  V30 439 H 40.4328 0.47891 -1.35803 0
M  V30 440 H 42.3858 3.41057 -2.47503 0
M  V30 441 H 41.1098 2.99432 -1.30414 0
M  V30 442 H 39.7688 1.90063 -3.13483 0
M  V30 443 H 39.4168 4.31489 -2.58508 0
M  V30 444 H 39.1168 3.99254 -4.31127 0
M  V30 445 H 40.6408 4.77552 -3.80495 0
M  V30 446 H 42.0548 2.83384 -4.98363 0
M  V30 447 H 40.4518 2.2817 -5.5503 0
M  V30 448 H 41.5218 1.14336 -4.71227 0
M  V30 449 N 42.8649 1.48995 0.513639 0
M  V30 450 C 43.7749 1.67443 1.64317 0
M  V30 451 C 44.7909 0.556947 1.64846 0
M  V30 452 O 45.9669 0.830082 1.83498 0
M  V30 453 C 43.0319 1.72515 3.00732 0
M  V30 454 C 42.0929 2.96009 3.1093 0
M  V30 455 C 41.3259 3.00829 4.40837 0
M  V30 456 O 41.5489 2.13594 5.28898 0
M  V30 457 O 40.4829 3.93168 4.55744 0
M  V30 458 H 44.3089 2.63106 1.51687 0
M  V30 459 H 41.8939 1.32588 0.688543 0
M  V30 460 H 43.7759 1.78277 3.81831 0
M  V30 461 H 42.4509 0.800278 3.13651 0
M  V30 462 H 41.3579 2.9577 2.29065 0
M  V30 463 H 42.6909 3.87934 3.02933 0
M  V30 464 N 44.343 -0.763751 1.37857 0
M  V30 465 C 45.253 -1.90817 1.36478 0
M  V30 466 C 46.269 -1.71997 0.263248 0
M  V30 467 O 47.445 -1.95095 0.499979 0
M  V30 468 C 44.51 -3.2605 1.17864 0
M  V30 469 C 43.571 -3.57467 2.3773 0
M  V30 470 C 42.804 -4.86249 2.19995 0
M  V30 471 O 43.027 -5.57884 1.18836 0
M  V30 472 O 41.961 -5.16911 3.08361 0
M  V30 473 H 45.787 -1.94933 2.32884 0
M  V30 474 H 43.372 -0.907619 1.1867 0
M  V30 475 H 45.254 -4.06924 1.09504 0
M  V30 476 H 43.929 -3.22769 0.245372 0
M  V30 477 H 42.836 -2.76796 2.51664 0
M  V30 478 H 44.169 -3.655 3.29652 0
M  V30 479 N 45.8211 -1.22559 -0.990812 0
M  V30 480 C 47.0681 -1.05141 -1.73065 0
M  V30 481 C 47.3961 0.413191 -1.9006 0
M  V30 482 O 46.6511 1.32257 -1.44245 0
M  V30 483 C 46.9501 -1.71011 -3.13831 0
M  V30 484 C 46.6161 -3.20911 -3.16745 0
M  V30 485 C 45.2781 -3.61812 -3.17247 0
M  V30 486 C 47.6301 -4.16846 -3.12872 0
M  V30 487 C 44.9581 -4.97127 -3.1158 0
M  V30 488 C 47.3101 -5.5214 -3.08746 0
M  V30 489 C 45.9741 -5.92419 -3.07565 0
M  V30 490 H 45.2441 -0.384738 -0.633291 0
M  V30 491 H 47.8911 -1.5235 -1.16025 0
M  V30 492 H 46.1961 -1.16133 -3.74193 0
M  V30 493 H 47.8931 -1.55023 -3.69823 0
M  V30 494 H 44.4831 -2.88344 -3.17105 0
M  V30 495 H 48.6671 -3.86263 -3.11632 0
M  V30 496 H 43.9231 -5.27562 -3.09012 0
M  V30 497 H 48.0971 -6.26201 -3.04705 0
M  V30 498 H 45.7241 -6.97236 -3.02929 0
M  V30 499 N 47.2992 1.18797 -1.03562 0
M  V30 500 C 48.7102 1.70322 -0.764676 0
M  V30 501 C 49.0612 1.82708 0.714996 0
M  V30 502 O 48.1862 1.50299 1.55689 0
M  V30 503 C 48.7812 3.09356 -1.38145 0
M  V30 504 C 47.3402 3.58114 -1.15895 0
M  V30 505 C 46.4872 2.34798 -1.4753 0
M  V30 506 H 49.4382 1.03543 -1.20268 0
M  V30 507 H 49.4592 3.72378 -0.781977 0
M  V30 508 H 48.9712 3.00309 -2.45837 0
M  V30 509 H 47.0722 3.72464 -0.100544 0
M  V30 510 H 47.1852 4.4184 -1.8524 0
M  V30 511 H 45.5492 2.38464 -0.894829 0
M  V30 512 H 46.3322 2.28375 -2.56319 0
M  V30 513 N 48.7773 0.814389 1.34928 0
M  V30 514 C 50.0263 0.394871 1.97797 0
M  V30 515 C 50.3393 -1.04555 1.65311 0
M  V30 516 O 51.5453 -1.56856 2.21604 0
M  V30 517 C 50.0013 0.655103 3.53888 0
M  V30 518 C 49.6093 2.10858 3.95276 0
M  V30 519 C 51.3533 0.301329 4.23429 0
M  V30 520 C 49.2603 2.31415 5.44244 0
M  V30 521 H 48.1903 0.143913 0.740139 0
M  V30 522 H 50.8413 0.999544 1.53888 0
M  V30 523 H 49.2233 -0.0196253 3.95995 0
M  V30 524 H 50.3973 2.82176 3.64298 0
M  V30 525 H 48.7123 2.42297 3.38646 0
M  V30 526 H 51.3093 0.432869 5.32945 0
M  V30 527 H 51.6523 -0.75331 4.09428 0
M  V30 528 H 52.1853 0.930288 3.86769 0
M  V30 529 H 48.9243 3.35353 5.63222 0
M  V30 530 H 48.4443 1.6463 5.76764 0
M  V30 531 H 50.1233 2.13352 6.10811 0
M  V30 532 N 50.2554 -1.46986 0.568584 0
M  V30 533 C 51.6714 -1.57946 0.229189 0
M  V30 534 C 51.8714 -1.56567 -1.26843 0
M  V30 535 O 50.9274 -1.47511 -2.04931 0
M  V30 536 C 52.2404 -2.87963 0.865909 0
M  V30 537 C 53.7884 -3.01568 0.838188 0
M  V30 538 C 54.2634 -4.34301 1.45419 0
M  V30 539 N 55.7544 -4.40965 1.41788 0
M  V30 540 C 56.4894 -5.42256 1.86403 0
M  V30 541 N 55.9854 -6.50297 2.38926 0
M  V30 542 N 57.7784 -5.3337 1.77405 0
M  V30 543 H 49.9294 -1.46126 1.54146 0
M  V30 544 H 52.1924 -0.696156 0.643484 0
M  V30 545 H 51.8984 -2.94742 1.91886 0
M  V30 546 H 51.7724 -3.75423 0.365687 0
M  V30 547 H 54.1594 -2.94379 -0.206106 0
M  V30 548 H 54.2404 -2.1562 1.37629 0
M  V30 549 H 53.8844 -4.42247 2.49761 0
M  V30 550 H 53.8144 -5.19 0.891435 0
M  V30 551 H 56.3054 -3.63484 1.03381 0
M  V30 552 H 56.6184 -7.23777 2.70863 0
M  V30 553 H 54.9634 -6.51155 2.42944 0
M  V30 554 H 58.1544 -4.47865 1.3614 0
M  V30 555 H 58.3274 -6.12169 2.12492 0
M  V30 556 N 51.7335 -0.305618 -1.54608 0
M  V30 557 C 52.6805 0.568421 -2.23691 0
M  V30 558 C 53.6505 1.12592 -1.22116 0
M  V30 559 O 54.8355 1.16959 -1.50749 0
M  V30 560 C 51.9755 1.7322 -2.98477 0
M  V30 561 C 51.0885 1.20566 -4.14835 0
M  V30 562 C 50.2235 2.33368 -4.77193 0
M  V30 563 C 49.2625 1.7787 -5.85686 0
M  V30 564 N 48.3995 2.84263 -6.4198 0
M  V30 565 H 53.2395 -0.0272867 -2.97988 0
M  V30 566 H 50.7765 -0.0252363 -1.47078 0
M  V30 567 H 52.7345 2.41675 -3.40072 0
M  V30 568 H 51.3645 2.29947 -2.26548 0
M  V30 569 H 50.4165 0.413223 -3.78149 0
M  V30 570 H 51.7285 0.759417 -4.92985 0
M  V30 571 H 50.8825 3.09761 -5.21664 0
M  V30 572 H 49.6215 2.8132 -3.98385 0
M  V30 573 H 48.6265 0.99968 -5.40635 0
M  V30 574 H 49.8515 1.30816 -6.66381 0
M  V30 575 H 47.7975 3.31541 -5.66053 0
M  V30 576 H 47.7145 2.44149 -7.15491 0
M  V30 577 H 48.9825 3.6054 -6.91109 0
M  V30 578 N 53.2116 1.57565 -0.0334293 0
M  V30 579 C 54.1416 2.13511 0.945265 0
M  V30 580 C 55.1226 1.05231 1.33643 0
M  V30 581 O 56.3076 1.33084 1.41429 0
M  V30 582 C 53.4376 2.6657 2.22616 0
M  V30 583 C 52.3916 3.79676 1.97561 0
M  V30 584 C 51.7176 4.1918 3.31952 0
M  V30 585 C 53.0176 5.0557 1.31135 0
M  V30 586 H 54.7116 2.95538 0.479325 0
M  V30 587 H 52.2576 1.42166 0.229115 0
M  V30 588 H 54.2106 3.04344 2.91466 0
M  V30 589 H 52.9346 1.8171 2.71384 0
M  V30 590 H 51.5936 3.42347 1.31127 0
M  V30 591 H 51.2416 3.31296 3.78487 0
M  V30 592 H 50.9416 4.95402 3.15992 0
M  V30 593 H 52.4656 4.59541 4.02063 0
M  V30 594 H 53.8796 5.40903 1.89992 0
M  V30 595 H 52.2766 5.86818 1.25559 0
M  V30 596 H 53.3466 4.84062 0.284894 0
M  V30 597 N 54.6897 -0.239769 1.55765 0
M  V30 598 C 55.6367 -1.29696 1.90913 0
M  V30 599 C 56.6067 -1.47478 0.764164 0
M  V30 600 O 57.7917 -1.61345 1.01845 0
M  V30 601 C 54.9317 -2.64598 2.21544 0
M  V30 602 C 54.0447 -2.54765 3.48882 0
M  V30 603 C 53.1797 -3.82069 3.69049 0
M  V30 604 C 52.2187 -3.66883 4.89963 0
M  V30 605 N 51.3557 -4.86094 5.06614 0
M  V30 606 H 56.1957 -0.990224 2.81067 0
M  V30 607 H 53.7327 -0.477684 1.39128 0
M  V30 608 H 55.6907 -3.43132 2.3731 0
M  V30 609 H 54.3207 -2.93405 1.34585 0
M  V30 610 H 53.3727 -1.67763 3.41409 0
M  V30 611 H 54.6847 -2.39457 4.37563 0
M  V30 612 H 53.8387 -4.69046 3.84812 0
M  V30 613 H 52.5777 -4.00282 2.78614 0
M  V30 614 H 51.5827 -2.78289 4.74168 0
M  V30 615 H 52.8077 -3.50157 5.81865 0
M  V30 616 H 50.7537 -5.04655 4.19117 0
M  V30 617 H 50.6707 -4.73443 5.89396 0
M  V30 618 H 51.9387 -5.74549 5.26795 0
M  V30 619 N 56.1678 -1.49265 -0.50573 0
M  V30 620 C 57.0978 -1.68495 -1.61653 0
M  V30 621 C 58.0788 -0.53366 -1.61512 0
M  V30 622 O 59.2638 -0.76897 -1.78327 0
M  V30 623 C 56.3938 -1.74709 -3.00157 0
M  V30 624 C 55.3478 -2.89581 -3.15162 0
M  V30 625 C 54.6738 -2.80903 -4.5497 0
M  V30 626 C 55.9738 -4.30578 -2.95634 0
M  V30 627 H 57.6678 -2.61493 -1.45814 0
M  V30 628 H 55.2138 -1.25838 -0.70005 0
M  V30 629 H 57.1668 -1.86748 -3.77761 0
M  V30 630 H 55.8908 -0.783067 -3.17074 0
M  V30 631 H 54.5498 -2.77136 -2.39982 0
M  V30 632 H 54.1978 -1.82419 -4.68756 0
M  V30 633 H 53.8978 -3.57999 -4.65951 0
M  V30 634 H 55.4218 -2.94944 -5.34641 0
M  V30 635 H 56.8358 -4.4373 -3.63011 0
M  V30 636 H 55.2328 -5.0886 -3.18091 0
M  V30 637 H 56.3028 -4.45352 -1.91806 0
M  V30 638 N 57.6459 0.756429 -1.3826 0
M  V30 639 C 58.8759 1.54341 -1.3734 0
M  V30 640 C 59.2839 1.89159 0.0393917 0
M  V30 641 O 58.6269 1.5307 1.01565 0
M  V30 642 C 58.6889 2.87238 -2.16182 0
M  V30 643 C 58.3529 2.74973 -3.65019 0
M  V30 644 C 59.3499 2.44962 -4.58574 0
M  V30 645 C 57.0349 2.92515 -4.08338 0
M  V30 646 C 59.0289 2.32642 -5.93428 0
M  V30 647 C 56.7159 2.79815 -5.43274 0
M  V30 648 C 57.7139 2.49921 -6.35632 0
M  V30 649 O 57.4019 2.37275 -7.68086 0
M  V30 650 H 57.1339 0.484281 -0.471643 0
M  V30 651 H 59.6879 0.944152 -1.82414 0
M  V30 652 H 57.9179 3.49342 -1.65822 0
M  V30 653 H 59.6069 3.48731 -2.07705 0
M  V30 654 H 60.3729 2.31081 -4.26412 0
M  V30 655 H 56.2519 3.14781 -3.368 0
M  V30 656 H 59.7959 2.0923 -6.65484 0
M  V30 657 H 55.6929 2.93269 -5.75034 0
M  V30 658 H 56.4609 2.52509 -7.78577 0
M  V30 659 N 59.124 1.23083 0.984299 0
M  V30 660 C 60.401 0.9689 1.69917 0
M  V30 661 C 60.781 -0.513604 2.04757 0
M  V30 662 O 60.129 -1.48383 1.73767 0
M  V30 663 C 60.339 1.87518 2.94343 0
M  V30 664 C 61.687 2.13636 3.6694 0
M  V30 665 O 62.711 1.85036 3.04368 0
M  V30 666 O 61.57 2.62119 4.79537 0
M  V30 667 H 58.664 0.365095 0.742048 0
M  V30 668 H 61.21 1.34107 1.03987 0
M  V30 669 H 59.982 2.87756 2.65164 0
M  V30 670 H 59.605 1.50514 3.6801 0
M  V30 671 N 60.6021 -1.18246 1.0419 0
M  V30 672 C 61.5501 -2.23968 0.627792 0
M  V30 673 C 62.5441 -1.65828 -0.346019 0
M  V30 674 O 63.7501 -1.78733 -0.213175 0
M  V30 675 H 60.1251 -0.728939 0.184802 0
M  V30 676 H 62.0961 -2.56202 1.52981 0
M  V30 677 C 60.8451 -3.47699 0.00796591 0
M  V30 678 H 60.1681 -3.92734 0.748347 0
M  V30 679 H 61.6081 -4.23294 -0.24455 0
M  V30 680 C 60.0671 -3.13153 -1.24246 0
M  V30 681 O 60.5971 -3.27003 -2.33307 0
M  V30 682 N 58.8031 -2.67467 -1.13622 0
M  V30 683 H 58.3501 -2.56396 -0.248734 0
M  V30 684 H 58.3081 -2.44724 -1.97377 0
M  V30 685 N 62.0802 -0.821533 -1.34494 0
M  V30 686 C 63.3572 -0.33159 -1.92769 0
M  V30 687 C 63.7372 1.18088 -1.74981 0
M  V30 688 O 63.0852 1.98733 -1.12772 0
M  V30 689 C 63.2952 -0.759398 -3.40638 0
M  V30 690 C 64.6432 -0.757433 -4.1779 0
M  V30 691 O 65.6672 -0.70189 -3.49216 0
M  V30 692 O 64.5262 -0.829361 -5.4017 0
M  V30 693 H 61.6202 -0.0902502 -0.822061 0
M  V30 694 H 64.1662 -0.906231 -1.43477 0
M  V30 695 H 62.9382 -1.8012 -3.47379 0
M  V30 696 H 62.5612 -0.160378 -3.97276 0
M  V30 697 N 63.5583 1.46682 -0.576371 0
M  V30 698 C 64.5053 2.30241 0.160499 0
M  V30 699 C 65.4753 1.40233 0.890162 0
M  V30 700 O 66.6603 1.69186 0.882084 0
M  V30 701 C 63.8003 3.24578 1.1723 0
M  V30 702 C 62.9133 4.29684 0.446736 0
M  V30 703 C 62.0483 5.11154 1.44551 0
M  V30 704 C 61.0873 6.08015 0.70599 0
M  V30 705 N 60.2243 6.82376 1.65251 0
M  V30 706 H 65.0643 2.92727 -0.558127 0
M  V30 707 H 62.6013 1.44272 -0.287056 0
M  V30 708 H 64.5593 3.77711 1.77172 0
M  V30 709 H 63.1893 2.63916 1.85872 0
M  V30 710 H 62.2413 3.79458 -0.267594 0
M  V30 711 H 63.5533 4.98626 -0.131686 0
M  V30 712 H 62.7073 5.68533 2.11791 0
M  V30 713 H 61.4463 4.42158 2.05786 0
M  V30 714 H 60.4513 5.49796 0.0197725 0
M  V30 715 H 61.6763 6.79028 0.09912 0
M  V30 716 H 59.6223 6.16094 2.25308 0
M  V30 717 H 59.5393 7.47556 1.12673 0
M  V30 718 H 60.8073 7.44316 2.31546 0
M  V30 719 N 65.0364 0.313813 1.54444 0
M  V30 720 C 65.9464 -0.565714 2.27677 0
M  V30 721 C 66.9624 -1.13754 1.31666 0
M  V30 722 O 68.1384 -1.15959 1.64668 0
M  V30 723 C 65.2034 -1.71528 3.01296 0
M  V30 724 C 64.2644 -1.17624 4.12872 0
M  V30 725 C 63.4974 -2.27102 4.8297 0
M  V30 726 O 63.7204 -3.47256 4.52514 0
M  V30 727 O 62.6544 -1.9307 5.70094 0
M  V30 728 H 66.4804 0.0287296 3.03686 0
M  V30 729 H 64.0654 0.0798312 1.49187 0
M  V30 730 H 65.9474 -2.38476 3.4743 0
M  V30 731 H 64.6224 -2.29608 2.2817 0
M  V30 732 H 63.5294 -0.472124 3.71109 0
M  V30 733 H 64.8624 -0.640695 4.88012 0
M  V30 734 N 66.5145 -1.57545 0.0417849 0
M  V30 735 C 67.9305 -1.56467 -0.314704 0
M  V30 736 C 68.1305 -1.04859 -1.72066 0
M  V30 737 O 67.1865 -0.700983 -2.42575 0
M  V30 738 C 68.4995 -3.00317 -0.15174 0
M  V30 739 C 70.0475 -3.12201 -0.223553 0
M  V30 740 C 70.5225 -4.57913 -0.0892295 0
M  V30 741 N 72.0135 -4.6297 -0.145808 0
M  V30 742 C 72.7485 -5.73362 -0.0658459 0
M  V30 743 N 72.2445 -6.92769 0.0659282 0
M  V30 744 N 74.0375 -5.6197 -0.12075 0
M  V30 745 H 66.1885 -1.89416 0.961014 0
M  V30 746 H 68.4515 -0.871862 0.372237 0
M  V30 747 H 68.1575 -3.42073 0.817254 0
M  V30 748 H 68.0315 -3.65892 -0.916692 0
M  V30 749 H 70.4185 -2.70349 -1.18301 0
M  V30 750 H 70.4995 -2.49323 0.571994 0
M  V30 751 H 70.1435 -5.00448 0.866867 0
M  V30 752 H 70.0735 -5.18786 -0.903802 0
M  V30 753 H 72.5645 -3.7709 -0.247286 0
M  V30 754 H 72.8775 -7.72707 0.119905 0
M  V30 755 H 71.2225 -6.94927 0.100885 0
M  V30 756 H 74.4135 -4.67572 -0.222187 0
M  V30 757 H 74.5865 -6.47977 -0.0549735 0
M  V30 758 N 67.9926 0.231505 -1.5589 0
M  V30 759 C 68.9246 1.31006 -1.8807 0
M  V30 760 C 69.9376 1.43539 -0.768145 0
M  V30 761 O 71.1266 1.44614 -1.04638 0
M  V30 762 C 68.2266 2.68688 -2.06543 0
M  V30 763 C 67.3996 2.78228 -3.37502 0
M  V30 764 C 66.4586 3.96857 -3.4553 0
M  V30 765 O 65.4846 3.85662 -4.18633 0
M  V30 766 N 66.6866 5.1072 -2.75944 0
M  V30 767 H 69.4516 1.03731 -2.81176 0
M  V30 768 H 67.0126 0.421573 -1.56315 0
M  V30 769 H 69.0046 3.46412 -2.09239 0
M  V30 770 H 67.5746 2.88605 -1.20109 0
M  V30 771 H 66.7946 1.87059 -3.46991 0
M  V30 772 H 68.0826 2.81564 -4.23791 0
M  V30 773 H 67.4806 5.2271 -2.16311 0
M  V30 774 H 66.0376 5.86523 -2.84314 0
M  V30 775 N 69.4707 1.49531 0.497807 0
M  V30 776 C 70.7477 1.49682 1.25915 0
M  V30 777 C 71.1277 0.226339 2.09883 0
M  V30 778 O 70.4757 -0.791189 2.14365 0
M  V30 779 C 70.6857 2.77755 2.11313 0
M  V30 780 C 72.0337 3.27371 2.70395 0
M  V30 781 O 73.0577 2.78894 2.21578 0
M  V30 782 O 71.9167 4.11808 3.59272 0
M  V30 783 H 69.0107 0.599228 0.56996 0
M  V30 784 H 71.5567 1.61798 0.511816 0
M  V30 785 H 70.3287 3.61713 1.49264 0
M  V30 786 H 69.9517 2.68515 2.93233 0
M  V30 787 N 70.9488 -0.749086 1.3866 0
M  V30 788 C 72.3648 -1.05276 1.19955 0
M  V30 789 C 72.5648 -2.01435 0.05134 0
M  V30 790 O 71.6208 -2.45232 -0.60147 0
M  V30 791 C 72.9338 -1.62853 2.52783 0
M  V30 792 C 74.4818 -1.75002 2.59506 0
M  V30 793 C 74.9568 -2.35991 3.92521 0
M  V30 794 N 76.4478 -2.43416 3.94085 0
M  V30 795 C 77.1828 -2.91511 4.9377 0
M  V30 796 N 76.6788 -3.39608 6.03853 0
M  V30 797 N 78.4718 -2.90592 4.81157 0
M  V30 798 H 70.6228 -0.111066 2.12109 0
M  V30 799 H 72.8858 -0.111901 0.941373 0
M  V30 800 H 72.5918 -0.99664 3.37283 0
M  V30 801 H 72.4658 -2.61854 2.715 0
M  V30 802 H 74.8528 -2.37317 1.75398 0
M  V30 803 H 74.9338 -0.74693 2.44652 0
M  V30 804 H 74.5778 -1.74308 4.77053 0
M  V30 805 H 74.5078 -3.3695 4.04688 0
M  V30 806 H 76.9988 -2.09405 3.14576 0
M  V30 807 H 77.3118 -3.74775 6.75843 0
M  V30 808 H 75.6568 -3.37653 6.07466 0
M  V30 809 H 78.8478 -2.52332 3.94267 0
M  V30 810 H 79.0208 -3.27762 5.58996 0
M  V30 811 N 72.4269 -1.23603 -0.977757 0
M  V30 812 C 73.6759 -1.06377 -1.71368 0
M  V30 813 C 73.9889 0.399062 -1.91486 0
M  V30 814 O 75.1949 0.691312 -2.62551 0
M  V30 815 C 73.6509 -1.85512 -3.08404 0
M  V30 816 C 73.2589 -3.36141 -2.96164 0
M  V30 817 C 75.0029 -1.76783 -3.85938 0
M  V30 818 C 72.9099 -4.07659 -4.28449 0
M  V30 819 H 71.8399 -0.394452 -0.642591 0
M  V30 820 H 74.4909 -1.47594 -1.09034 0
M  V30 821 H 72.8729 -1.37103 -3.71509 0
M  V30 822 H 74.0469 -3.92056 -2.42133 0
M  V30 823 H 72.3619 -3.45712 -2.32104 0
M  V30 824 H 74.9589 -2.27526 -4.83876 0
M  V30 825 H 75.3019 -0.731116 -4.0983 0
M  V30 826 H 75.8349 -2.22818 -3.2954 0
M  V30 827 H 72.5739 -5.11648 -4.09752 0
M  V30 828 H 72.0939 -3.5653 -4.82334 0
M  V30 829 H 73.7729 -4.141 -4.97122 0
M  V30 830 N 73.905 1.17692 -1.04816 0
M  V30 831 C 74.868 2.19787 -0.650117 0
M  V30 832 C 75.868 1.58044 0.296427 0
M  V30 833 O 77.058 1.74012 0.0808097 0
M  V30 834 C 74.19 3.40869 0.0456987 0
M  V30 835 H 75.383 2.56516 -1.5537 0
M  V30 836 H 72.936 1.31708 -0.841594 0
M  V30 837 H 73.671 3.09681 0.962726 0
M  V30 838 H 73.456 3.86928 -0.634727 0
M  V30 839 H 74.946 4.16445 0.310432 0
M  V30 840 N 75.3831 0.828654 1.34056 0
M  V30 841 C 76.6311 0.41863 1.97717 0
M  V30 842 C 76.9521 -1.02314 1.66002 0
M  V30 843 O 76.2221 -1.71119 0.953683 0
M  V30 844 H 74.8021 0.151809 0.731412 0
M  V30 845 H 77.4641 1.05936 1.63596 0
M  V30 846 H 76.5601 0.542318 3.07352 0
M  V30 847 N 76.8612 -1.46375 0.584142 0
M  V30 848 C 77.8242 -2.28784 -0.138108 0
M  V30 849 C 78.8242 -1.38471 -0.817462 0
M  V30 850 O 80.0142 -1.60833 -0.669199 0
M  V30 851 C 77.1462 -3.18892 -1.20503 0
M  V30 852 H 78.3392 -2.94117 0.586127 0
M  V30 853 H 75.8922 -1.52509 0.342171 0
M  V30 854 H 76.6272 -2.58309 -1.96079 0
M  V30 855 H 76.4122 -3.85388 -0.722384 0
M  V30 856 H 77.9022 -3.80914 -1.71155 0
M  V30 857 N 78.3393 -0.321999 -1.54275 0
M  V30 858 C 79.5793 0.281657 -2.0245 0
M  V30 859 C 79.9433 1.49468 -1.20513 0
M  V30 860 O 81.1443 2.17109 -1.58484 0
M  V30 861 C 79.4153 0.609014 -3.52173 0
M  V30 862 S 80.9743 1.19255 -4.22284 0
M  V30 863 H 77.7923 0.0852825 -0.705867 0
M  V30 864 H 80.3943 -0.454758 -1.90137 0
M  V30 865 H 79.0983 -0.281982 -4.0943 0
M  V30 866 H 78.6293 1.37567 -3.68563 0
M  V30 867 H 80.6443 2.47944 -4.29812 0
M  V30 868 N 79.8174 1.5752 -0.0501392 0
M  V30 869 C 81.0944 1.83996 0.663685 0
M  V30 870 C 81.4744 0.938339 1.89099 0
M  V30 871 O 80.8224 -0.00087759 2.285 0
M  V30 872 C 81.0324 3.33702 1.02196 0
M  V30 873 C 82.3804 4.00691 1.40469 0
M  V30 874 O 83.4044 3.38321 1.11433 0
M  V30 875 O 82.2634 5.10658 1.94654 0
M  V30 876 H 79.3574 0.759385 0.32751 0
M  V30 877 H 81.9034 1.69514 -0.0794238 0
M  V30 878 H 80.6754 3.91015 0.149364 0
M  V30 879 H 80.2984 3.53368 1.82255 0
M  V30 880 N 81.2955 -0.223234 1.56011 0
M  V30 881 C 82.5415 -0.949279 1.79211 0
M  V30 882 C 82.8745 -1.84054 0.619494 0
M  V30 883 O 82.1495 -1.90726 -0.381317 0
M  V30 884 C 82.4325 -1.78965 3.12479 0
M  V30 885 C 82.2855 -0.924997 4.40186 0
M  V30 886 C 83.6045 -2.76774 3.42175 0
M  V30 887 H 80.7235 -0.343676 0.651963 0
M  V30 888 H 83.3655 -0.218253 1.88742 0
M  V30 889 H 81.5155 -2.41291 3.04485 0
M  V30 890 H 83.1875 -0.318615 4.60198 0
M  V30 891 H 81.4305 -0.230344 4.33188 0
M  V30 892 H 82.1015 -1.54735 5.29869 0
M  V30 893 H 84.5775 -2.24584 3.50287 0
M  V30 894 H 83.4535 -3.32678 4.36597 0
M  V30 895 H 83.7145 -3.54429 2.64258 0
M  V30 896 N 82.7736 -1.49793 -0.48987 0
M  V30 897 C 84.0206 -1.59841 -1.24327 0
M  V30 898 C 84.3486 -0.290135 -1.92324 0
M  V30 899 O 83.6036 0.722749 -1.81865 0
M  V30 900 C 83.9026 -2.71488 -2.32441 0
M  V30 901 C 83.5686 -4.12614 -1.81826 0
M  V30 902 C 82.2306 -4.51017 -1.67742 0
M  V30 903 C 84.5826 -5.00892 -1.4407 0
M  V30 904 C 81.9106 -5.75459 -1.14297 0
M  V30 905 C 84.2626 -6.25863 -0.920742 0
M  V30 906 C 82.9266 -6.63086 -0.766383 0
M  V30 907 H 82.1966 -0.584899 -0.454944 0
M  V30 908 H 84.8436 -1.83663 -0.542215 0
M  V30 909 H 83.1486 -2.4168 -3.0838 0
M  V30 910 H 84.8456 -2.76469 -2.90458 0
M  V30 911 H 81.4356 -3.82307 -1.93751 0
M  V30 912 H 85.6196 -4.7187 -1.53794 0
M  V30 913 H 80.8756 -6.02989 -1.01068 0
M  V30 914 H 85.0496 -6.9364 -0.619448 0
M  V30 915 H 82.6766 -7.59393 -0.350083 0
M  V30 916 N 84.2517 0.741722 -1.39055 0
M  V30 917 C 85.5007 1.49656 -1.35225 0
M  V30 918 C 85.8137 1.95533 0.0512708 0
M  V30 919 O 87.0197 2.7067 0.212138 0
M  V30 920 C 85.4757 2.70389 -2.37525 0
M  V30 921 C 85.0837 2.31489 -3.83558 0
M  V30 922 C 86.8277 3.48236 -2.42759 0
M  V30 923 C 84.7347 3.48903 -4.77515 0
M  V30 924 H 83.6647 0.56197 -0.502699 0
M  V30 925 H 86.3157 0.809727 -1.64668 0
M  V30 926 H 84.6977 3.41113 -2.01142 0
M  V30 927 H 85.8717 1.68354 -4.28945 0
M  V30 928 H 84.1867 1.66749 -3.81554 0
M  V30 929 H 86.7837 4.35558 -3.1015 0
M  V30 930 H 87.1267 3.90229 -1.45008 0
M  V30 931 H 87.6597 2.84535 -2.78002 0
M  V30 932 H 84.3987 3.11966 -5.76504 0
M  V30 933 H 83.9187 4.11041 -4.36813 0
M  V30 934 H 85.5977 4.15328 -4.96096 0
M  V30 935 N 85.7298 1.2412 0.971189 0
M  V30 936 C 87.1458 1.00584 1.23916 0
M  V30 937 C 87.3458 -0.287481 1.99439 0
M  V30 938 O 86.4018 -1.00454 2.31658 0
M  V30 939 C 87.7148 2.21864 2.0297 0
M  V30 940 C 89.2628 2.26452 2.16076 0
M  V30 941 C 89.7378 3.47343 2.98524 0
M  V30 942 N 91.2288 3.47639 3.06107 0
M  V30 943 C 91.9638 4.37837 3.70251 0
M  V30 944 N 91.4598 5.38286 4.36142 0
M  V30 945 N 93.2528 4.25558 3.67228 0
M  V30 946 H 85.4038 2.07236 0.465499 0
M  V30 947 H 87.6668 0.909236 0.268315 0
M  V30 948 H 87.3728 3.15771 1.54861 0
M  V30 949 H 87.2468 2.23698 3.03709 0
M  V30 950 H 89.6338 1.33078 2.6339 0
M  V30 951 H 89.7148 2.28645 1.14696 0
M  V30 952 H 89.3588 4.41029 2.51905 0
M  V30 953 H 89.2888 3.42393 4.00093 0
M  V30 954 H 91.7798 2.74966 2.59233 0
M  V30 955 H 92.0928 6.03352 4.82894 0
M  V30 956 H 90.4378 5.42176 4.34822 0
M  V30 957 H 93.6288 3.46322 3.14927 0
M  V30 958 H 93.8018 4.96054 4.16935 0
M  V30 959 N 87.2079 -1.17134 1.05439 0
M  V30 960 C 88.1179 -2.24878 0.668365 0
M  V30 961 C 89.1339 -1.71186 -0.311687 0
M  V30 962 O 90.3099 -2.00738 -0.163161 0
M  V30 963 C 87.3749 -3.46662 0.051648 0
M  V30 964 C 86.4359 -4.15429 1.08246 0
M  V30 965 C 85.6689 -5.31399 0.495082 0
M  V30 966 O 85.8919 -5.66153 -0.694743 0
M  V30 967 O 84.8259 -5.89187 1.23056 0
M  V30 968 H 88.6519 -2.60189 1.56637 0
M  V30 969 H 86.2369 -1.24482 0.826104 0
M  V30 970 H 88.1189 -4.20394 -0.290966 0
M  V30 971 H 86.7939 -3.13142 -0.819971 0
M  V30 972 H 85.7009 -3.43704 1.47711 0
M  V30 973 H 87.0339 -4.52982 1.92532 0
M  V30 974 N 88.686 -0.835752 -1.33615 0
M  V30 975 C 89.633 -0.26473 -2.29277 0
M  V30 976 C 90.603 0.617712 -1.54187 0
M  V30 977 O 91.788 0.556641 -1.825 0
M  V30 978 C 88.928 0.556777 -3.40579 0
M  V30 979 C 88.041 -0.349339 -4.30585 0
M  V30 980 C 87.176 0.482969 -5.29 0
M  V30 981 C 86.215 -0.421732 -6.10645 0
M  V30 982 N 85.352 0.372262 -7.01112 0
M  V30 983 H 90.192 -1.08582 -2.77514 0
M  V30 984 H 87.729 -0.546927 -1.36554 0
M  V30 985 H 89.687 1.04852 -4.03809 0
M  V30 986 H 88.317 1.34286 -2.93542 0
M  V30 987 H 87.369 -0.959372 -3.68104 0
M  V30 988 H 88.681 -1.04445 -4.87742 0
M  V30 989 H 87.835 1.03866 -5.97743 0
M  V30 990 H 86.574 1.21153 -4.72412 0
M  V30 991 H 85.579 -0.989464 -5.40823 0
M  V30 992 H 86.804 -1.14861 -6.69316 0
M  V30 993 H 84.75 1.08426 -6.46977 0
M  V30 994 H 84.667 -0.264198 -7.55538 0
M  V30 995 H 85.935 0.910293 -7.74167 0
M  V30 996 N 90.1641 1.46063 -0.591896 0
M  V30 997 C 91.1271 2.28854 0.125973 0
M  V30 998 C 92.1271 1.38903 0.810107 0
M  V30 999 O 93.3171 1.61186 0.66066 0
M  V30 1000 C 90.4491 3.19526 1.1881 0
M  V30 1001 H 91.6421 2.93802 -0.601717 0
M  V30 1002 H 89.1951 1.52325 -0.350254 0
M  V30 1003 H 89.9301 2.59345 1.94707 0
M  V30 1004 H 89.7151 3.85766 0.701936 0
M  V30 1005 H 91.2051 3.81817 1.69132 0
M  V30 1006 N 91.6422 0.330177 1.54103 0
M  V30 1007 C 93.0532 -0.15652 1.86043 0
M  V30 1008 C 93.4042 -1.51086 1.2517 0
M  V30 1009 O 92.5292 -2.09023 0.560217 0
M  V30 1010 C 93.1242 -0.290784 3.3755 0
M  V30 1011 C 91.6832 -0.721705 3.69416 0
M  V30 1012 C 90.8302 0.152622 2.7688 0
M  V30 1013 H 93.7812 0.550237 1.48856 0
M  V30 1014 H 93.8022 -1.12058 3.63625 0
M  V30 1015 H 93.3142 0.695068 3.81825 0
M  V30 1016 H 91.4152 -1.71706 3.30678 0
M  V30 1017 H 91.5282 -0.520869 4.7626 0
M  V30 1018 H 89.8922 -0.372894 2.51956 0
M  V30 1019 H 90.6752 1.13536 3.23982 0
M  V30 1020 N 93.1203 -1.57491 0.0584922 0
M  V30 1021 C 94.3973 -1.84346 -0.653918 0
M  V30 1022 C 94.7773 -0.948355 -1.88599 0
M  V30 1023 O 94.1253 -0.0112403 -2.28497 0
M  V30 1024 C 94.3353 -3.34239 -1.00425 0
M  V30 1025 C 95.6833 -4.01431 -1.38342 0
M  V30 1026 O 96.7073 -3.38907 -1.09637 0
M  V30 1027 O 95.5663 -5.11683 -1.91943 0
M  V30 1028 H 92.6603 -0.761112 -0.323478 0
M  V30 1029 H 95.2063 -1.6947 0.0884125 0
M  V30 1030 H 93.9783 -3.91089 -0.128625 0
M  V30 1031 H 93.6013 -3.54329 -1.80378 0
M  V30 1032 N 94.5984 0.214957 -1.56127 0
M  V30 1033 C 95.8474 0.936451 -1.78643 0
M  V30 1034 C 96.1604 1.85237 -0.628229 0
M  V30 1035 O 97.3664 2.613 -0.737186 0
M  V30 1036 C 95.8224 1.7154 -3.16389 0
M  V30 1037 C 95.4304 0.845299 -4.39953 0
M  V30 1038 C 97.1744 2.42772 -3.48227 0
M  V30 1039 C 95.0814 1.62198 -5.68723 0
M  V30 1040 H 94.0114 0.353401 -0.666051 0
M  V30 1041 H 96.6624 0.190169 -1.82512 0
M  V30 1042 H 95.0444 2.50484 -3.06715 0
M  V30 1043 H 96.2184 0.0959353 -4.607 0
M  V30 1044 H 94.5334 0.244789 -4.1568 0
M  V30 1045 H 97.1304 3.01394 -4.41663 0
M  V30 1046 H 97.4734 3.15984 -2.71035 0
M  V30 1047 H 98.0064 1.70813 -3.5926 0
M  V30 1048 H 94.7454 0.933011 -6.48826 0
M  V30 1049 H 94.2654 2.34579 -5.52026 0
M  V30 1050 H 95.9444 2.18095 -6.09133 0
M  V30 1051 N 96.0765 1.50051 0.48192 0
M  V30 1052 C 96.9865 1.7089 1.60728 0
M  V30 1053 C 98.0025 0.591788 1.63627 0
M  V30 1054 O 99.1785 0.868817 1.81696 0
M  V30 1055 C 96.2435 1.78855 2.97005 0
M  V30 1056 C 95.3045 3.02537 3.04581 0
M  V30 1057 C 94.5375 3.10112 4.34357 0
M  V30 1058 O 94.7605 2.24765 5.24249 0
M  V30 1059 O 93.6945 4.02747 4.47301 0
M  V30 1060 H 97.5205 2.66264 1.46072 0
M  V30 1061 H 95.1055 1.34018 0.660264 0
M  V30 1062 H 96.9875 1.86336 3.77964 0
M  V30 1063 H 95.6625 0.866628 3.11883 0
M  V30 1064 H 94.5695 3.00563 2.22739 0
M  V30 1065 H 95.9025 3.94272 2.94636 0
M  V30 1066 N 97.5546 -0.734337 1.39446 0
M  V30 1067 C 98.8016 -1.49391 1.36706 0
M  V30 1068 C 99.1296 -1.94465 -0.0367813 0
M  V30 1069 O 98.3846 -1.67154 -1.01774 0
M  V30 1070 C 98.6836 -2.74711 2.28623 0
M  V30 1071 C 98.3496 -2.48501 3.76242 0
M  V30 1072 C 97.0116 -2.41062 4.16464 0
M  V30 1073 C 99.3636 -2.26098 4.69606 0
M  V30 1074 C 96.6916 -2.09262 5.48112 0
M  V30 1075 C 99.0436 -1.95814 6.01531 0
M  V30 1076 C 97.7076 -1.86845 6.40816 0
M  V30 1077 H 96.9776 -0.546661 0.500243 0
M  V30 1078 H 99.6246 -0.842788 1.71957 0
M  V30 1079 H 97.9296 -3.44569 1.86492 0
M  V30 1080 H 99.6266 -3.32741 2.23796 0
M  V30 1081 H 96.2166 -2.55169 3.44364 0
M  V30 1082 H 100.401 -2.30812 4.39363 0
M  V30 1083 H 95.6566 -2.00841 5.77471 0
M  V30 1084 H 99.8306 -1.77488 6.73403 0
M  V30 1085 H 97.4576 -1.6197 7.42745 0
M  V30 1086 N 99.0327 -1.24633 -0.964593 0
M  V30 1087 C 99.9957 -1.0424 -2.04124 0
M  V30 1088 C 100.996 0.00137563 -1.608 0
M  V30 1089 O 102.186 -0.239883 -1.7254 0
M  V30 1090 C 99.3177 -0.580588 -3.3592 0
M  V30 1091 H 100.511 -1.99803 -2.23649 0
M  V30 1092 H 98.0637 -1.06899 -1.14027 0
M  V30 1093 H 98.7987 0.3781 -3.22088 0
M  V30 1094 H 98.5837 -1.33398 -3.6871 0
M  V30 1095 H 100.074 -0.459034 -4.15069 0
M  V30 1096 N 100.511 1.16574 -1.06058 0
M  V30 1097 C 101.474 2.19085 -0.673392 0
M  V30 1098 C 102.474 1.5835 0.279648 0
M  V30 1099 O 103.664 1.74088 0.0623488 0
M  V30 1100 C 100.796 3.40899 0.00954234 0
M  V30 1101 H 101.989 2.54853 -1.58081 0
M  V30 1102 H 99.5418 1.30808 -0.855516 0
M  V30 1103 H 100.277 3.10684 0.929826 0
M  V30 1104 H 100.062 3.86233 -0.67573 0
M  V30 1105 H 101.552 4.1675 0.266245 0
M  V30 1106 N 101.989 0.842826 1.3317 0
M  V30 1107 C 103.217 0.454055 2.01856 0
M  V30 1108 C 103.632 -0.94587 1.63397 0
M  V30 1109 O 102.989 -1.61534 0.849302 0
M  V30 1110 C 103.04 0.569715 3.56982 0
M  V30 1111 O 102.761 1.91448 3.94055 0
M  V30 1112 C 104.262 0.178412 4.42941 0
M  V30 1113 H 101.482 0.17979 0.646465 0
M  V30 1114 H 104.026 1.1365 1.70012 0
M  V30 1115 H 102.181 -0.0648587 3.87346 0
M  V30 1116 H 102.595 1.90282 4.88767 0
M  V30 1117 H 104.069 0.310376 5.51127 0
M  V30 1118 H 104.546 -0.880056 4.30293 0
M  V30 1119 H 105.152 0.787579 4.17944 0
M  V30 1120 N 103.467 -1.45747 0.599634 0
M  V30 1121 C 104.695 -2.06668 0.0978551 0
M  V30 1122 C 105.11 -1.44562 -1.21439 0
M  V30 1123 O 104.467 -0.556923 -1.73795 0
M  V30 1124 C 104.518 -3.61456 -0.0567044 0
M  V30 1125 O 104.239 -4.21242 1.20361 0
M  V30 1126 C 105.74 -4.39345 -0.590869 0
M  V30 1127 H 102.96 -0.667825 0.0651943 0
M  V30 1128 H 105.504 -1.87115 0.82511 0
M  V30 1129 H 103.659 -3.80378 -0.734251 0
M  V30 1130 H 104.073 -5.14323 1.02821 0
M  V30 1131 H 105.547 -5.48182 -0.648131 0
M  V30 1132 H 106.024 -4.08568 -1.61147 0
M  V30 1133 H 106.63 -4.25268 0.0523679 0
M  V30 1134 N 104.945 -0.338344 -1.53925 0
M  V30 1135 C 106.222 0.314774 -1.93051 0
M  V30 1136 C 106.602 1.68669 -1.26941 0
M  V30 1137 O 105.95 2.24636 -0.418445 0
M  V30 1138 C 106.16 0.392249 -3.46789 0
M  V30 1139 C 107.508 0.645554 -4.19664 0
M  V30 1140 O 108.532 0.474575 -3.53024 0
M  V30 1141 O 107.391 0.976408 -5.37707 0
M  V30 1142 H 104.485 0.182598 -0.80659 0
M  V30 1143 H 107.031 -0.389141 -1.65178 0
M  V30 1144 H 105.803 -0.570702 -3.87116 0
M  V30 1145 H 105.426 1.14316 -3.80812 0
M  V30 1146 N 106.423 1.57458 -0.0668435 0
M  V30 1147 C 107.834 1.80776 0.466558 0
M  V30 1148 C 108.185 0.980361 1.69951 0
M  V30 1149 O 107.31 0.201441 2.1546 0
M  V30 1150 C 107.905 3.27881 0.85321 0
M  V30 1151 C 106.464 3.52062 1.3315 0
M  V30 1152 C 105.611 2.75513 0.314264 0
M  V30 1153 H 108.562 1.5598 -0.292588 0
M  V30 1154 H 108.583 3.39659 1.715 0
M  V30 1155 H 108.095 3.88075 -0.0443439 0
M  V30 1156 H 106.196 2.97167 2.24772 0
M  V30 1157 H 106.309 4.60762 1.31285 0
M  V30 1158 H 104.673 2.42123 0.790492 0
M  V30 1159 H 105.456 3.38442 -0.575477 0
M  V30 1160 N 107.901 -0.206675 1.56239 0
M  V30 1161 C 108.811 -1.27686 1.96808 0
M  V30 1162 C 109.827 -1.50455 0.874035 0
M  V30 1163 O 111.003 -1.63295 1.17884 0
M  V30 1164 C 108.068 -2.60358 2.28942 0
M  V30 1165 C 107.129 -2.45762 3.51994 0
M  V30 1166 C 106.362 -3.72108 3.82585 0
M  V30 1167 O 106.585 -4.75776 3.14631 0
M  V30 1168 O 105.519 -3.6833 4.76043 0
M  V30 1169 H 109.345 -0.962593 2.88041 0
M  V30 1170 H 106.93 -0.410746 1.43643 0
M  V30 1171 H 108.812 -3.38687 2.50737 0
M  V30 1172 H 107.487 -2.91435 1.4088 0
M  V30 1173 H 106.394 -1.65584 3.35459 0
M  V30 1174 H 107.727 -2.19621 4.40486 0
M  V30 1175 N 109.379 -1.50304 -0.473955 0
M  V30 1176 C 110.289 -1.7174 -1.5982 0
M  V30 1177 C 111.305 -0.600457 -1.63311 0
M  V30 1178 O 112.481 -0.878441 -1.81233 0
M  V30 1179 C 109.546 -1.80427 -2.96052 0
M  V30 1180 C 108.607 -3.04148 -3.02972 0
M  V30 1181 C 107.84 -3.12411 -4.32706 0
M  V30 1182 O 108.063 -2.27542 -5.23049 0
M  V30 1183 O 106.997 -4.05113 -4.45159 0
M  V30 1184 H 110.823 -2.67035 -1.44657 0
M  V30 1185 H 108.408 -1.34366 -0.653148 0
M  V30 1186 H 110.29 -1.88338 -3.7697 0
M  V30 1187 H 108.965 -0.883156 -3.11419 0
M  V30 1188 H 107.872 -3.0174 -2.21142 0
M  V30 1189 H 109.205 -3.95829 -2.92541 0
M  V30 1190 N 110.857 0.726932 -1.39834 0
M  V30 1191 C 111.82 1.82269 -1.38962 0
M  V30 1192 C 112.82 1.58248 -0.285334 0
M  V30 1193 O 114.01 1.65499 -0.54366 0
M  V30 1194 C 111.142 3.20186 -1.17019 0
M  V30 1195 H 112.335 1.84443 -2.36476 0
M  V30 1196 H 109.888 0.931416 -1.25516 0
M  V30 1197 H 110.623 3.23669 -0.202204 0
M  V30 1198 H 110.408 3.3902 -1.96998 0
M  V30 1199 H 111.898 4.00235 -1.1917 0
M  V30 1200 N 112.336 1.25143 0.95797 0
M  V30 1201 C 113.583 1.09692 1.70217 0
M  V30 1202 C 113.911 -0.362654 1.91089 0
M  V30 1203 O 113.166 -1.28386 1.47701 0
M  V30 1204 C 113.465 1.79272 3.09187 0
M  V30 1205 C 113.131 3.29196 3.08125 0
M  V30 1206 C 111.793 3.70096 3.07543 0
M  V30 1207 C 114.145 4.24995 3.0171 0
M  V30 1208 C 111.473 5.05213 2.9829 0
M  V30 1209 C 113.825 5.60132 2.93999 0
M  V30 1210 C 112.489 6.00365 2.9175 0
M  V30 1211 H 111.759 0.401393 0.622868 0
M  V30 1212 H 114.406 1.55372 1.11945 0
M  V30 1213 H 112.711 1.26014 3.70982 0
M  V30 1214 H 114.408 1.64773 3.65583 0
M  V30 1215 H 110.998 2.96651 3.09348 0
M  V30 1216 H 115.182 3.9439 3.01281 0
M  V30 1217 H 110.438 5.35569 2.94916 0
M  V30 1218 H 114.612 6.3406 2.87996 0
M  V30 1219 H 112.239 7.05023 2.84336 0
M  V30 1220 N 113.814 -1.1601 1.06675 0
M  V30 1221 C 115.042 -1.90527 0.806667 0
M  V30 1222 C 115.457 -1.77643 -0.639396 0
M  V30 1223 O 114.814 -1.12369 -1.43803 0
M  V30 1224 C 114.865 -3.41106 1.19705 0
M  V30 1225 O 114.586 -3.53608 2.58636 0
M  V30 1226 C 116.087 -4.32663 0.965266 0
M  V30 1227 H 113.307 -0.604053 0.292166 0
M  V30 1228 H 115.851 -1.47026 1.4214 0
M  V30 1229 H 114.006 -3.82296 0.626774 0
M  V30 1230 H 114.42 -4.47011 2.74375 0
M  V30 1231 H 115.894 -5.36763 1.288 0
M  V30 1232 H 116.371 -4.39089 -0.0987936 0
M  V30 1233 H 116.977 -3.97206 1.52011 0
M  V30 1234 N 115.292 -0.849877 -1.32721 0
M  V30 1235 C 116.569 -0.372405 -1.92022 0
M  V30 1236 C 116.949 1.1435 -1.77447 0
M  V30 1237 O 116.297 1.96296 -1.16962 0
M  V30 1238 C 116.507 -0.831482 -3.3895 0
M  V30 1239 C 117.855 -0.845882 -4.16089 0
M  V30 1240 O 118.879 -0.775806 -3.47649 0
M  V30 1241 O 117.738 -0.943753 -5.38289 0
M  V30 1242 H 114.832 -0.107667 -0.819961 0
M  V30 1243 H 117.378 -0.93646 -1.41522 0
M  V30 1244 H 116.15 -1.87448 -3.4348 0
M  V30 1245 H 115.773 -0.24461 -3.96847 0
M  V30 1246 N 116.77 1.45427 -0.607355 0
M  V30 1247 C 118.016 2.0254 -0.102607 0
M  V30 1248 C 118.349 1.47478 1.26348 0
M  V30 1249 O 117.624 0.64939 1.83339 0
M  V30 1250 C 117.907 3.60044 -0.0634347 0
M  V30 1251 C 117.76 4.2544 -1.46017 0
M  V30 1252 C 119.079 4.35646 0.624514 0
M  V30 1253 H 116.198 0.73598 -0.0387607 0
M  V30 1254 H 118.84 1.73284 -0.779282 0
M  V30 1255 H 116.99 3.85101 0.512808 0
M  V30 1256 H 118.662 4.11569 -2.08347 0
M  V30 1257 H 116.905 3.83849 -2.02094 0
M  V30 1258 H 117.576 5.34342 -1.385 0
M  V30 1259 H 120.052 4.15882 0.134723 0
M  V30 1260 H 118.928 5.45376 0.621028 0
M  V30 1261 H 119.189 4.08501 1.69055 0
M  V30 1262 N 118.248 0.346503 1.53744 0
M  V30 1263 C 119.525 -0.304532 1.93215 0
M  V30 1264 C 119.905 -1.67993 1.27834 0
M  V30 1265 O 119.253 -2.24411 0.430352 0
M  V30 1266 C 119.463 -0.373852 3.46992 0
M  V30 1267 C 120.811 -0.62329 4.2 0
M  V30 1268 O 121.835 -0.455847 3.53271 0
M  V30 1269 O 120.694 -0.947879 5.38217 0
M  V30 1270 H 117.788 -0.178318 0.807547 0
M  V30 1271 H 120.334 0.397895 1.64969 0
M  V30 1272 H 119.106 0.591224 3.86808 0
M  V30 1273 H 118.729 -1.12294 3.81413 0
M  V30 1274 N 119.726 -1.57421 0.075193 0
M  V30 1275 C 120.973 -1.93618 -0.593146 0
M  V30 1276 C 121.301 -0.955484 -1.69413 0
M  V30 1277 O 120.556 0.0283251 -1.9568 0
M  V30 1278 C 120.855 -3.36428 -1.20626 0
M  V30 1279 C 120.521 -4.50307 -0.231078 0
M  V30 1280 C 119.183 -4.81186 0.0371936 0
M  V30 1281 C 121.535 -5.19374 0.435888 0
M  V30 1282 C 118.863 -5.78466 0.979461 0
M  V30 1283 C 121.215 -6.17665 1.3665 0
M  V30 1284 C 119.879 -6.46958 1.6432 0
M  V30 1285 H 119.149 -0.708499 -0.217047 0
M  V30 1286 H 121.796 -1.90937 0.146793 0
M  V30 1287 H 120.101 -3.35592 -2.02201 0
M  V30 1288 H 121.798 -3.61727 -1.73073 0
M  V30 1289 H 118.388 -4.26227 -0.450357 0
M  V30 1290 H 122.572 -4.95711 0.241748 0
M  V30 1291 H 117.828 -5.99487 1.20106 0
M  V30 1292 H 122.002 -6.70284 1.88924 0
M  V30 1293 H 119.629 -7.2215 2.37494 0
M  V30 1294 N 121.204 0.198386 -1.56346 0
M  V30 1295 C 122.45 0.920648 -1.80698 0
M  V30 1296 C 122.783 1.83045 -0.648697 0
M  V30 1297 O 122.058 1.91308 0.350925 0
M  V30 1298 C 122.341 1.73971 -3.15287 0
M  V30 1299 C 122.194 0.85485 -4.41602 0
M  V30 1300 C 123.513 2.71296 -3.46535 0
M  V30 1301 H 120.632 0.333261 -0.657348 0
M  V30 1302 H 123.274 0.188198 -1.89066 0
M  V30 1303 H 121.424 2.36416 -3.08285 0
M  V30 1304 H 123.096 0.245362 -4.60647 0
M  V30 1305 H 121.339 0.161398 -4.335 0
M  V30 1306 H 122.01 1.46286 -5.32264 0
M  V30 1307 H 124.486 2.18983 -3.53816 0
M  V30 1308 H 123.362 3.2569 -4.41834 0
M  V30 1309 H 123.623 3.5018 -2.69864 0
M  V30 1310 N 122.682 1.50554 0.465978 0
M  V30 1311 C 123.615 1.64436 1.58227 0
M  V30 1312 C 124.593 0.492367 1.54966 0
M  V30 1313 O 125.777 0.712536 1.74514 0
M  V30 1314 C 122.904 1.63165 2.96808 0
M  V30 1315 C 121.95 2.83987 3.18204 0
M  V30 1316 S 122.783 4.45219 2.97557 0
M  V30 1317 C 123.939 4.46649 4.3847 0
M  V30 1318 H 124.172 2.58861 1.46213 0
M  V30 1319 H 121.705 1.3988 0.653678 0
M  V30 1320 H 123.663 1.63116 3.76701 0
M  V30 1321 H 122.324 0.69967 3.06208 0
M  V30 1322 H 121.517 2.79416 4.19455 0
M  V30 1323 H 121.119 2.81629 2.46092 0
M  V30 1324 H 123.411 4.20526 5.31191 0
M  V30 1325 H 124.354 5.48295 4.48082 0
M  V30 1326 H 124.762 3.76296 4.20787 0
M  V30 1327 N 124.16 -0.719506 1.40217 0
M  V30 1328 C 125.123 -1.8153 1.39927 0
M  V30 1329 C 126.123 -1.58095 0.293723 0
M  V30 1330 O 127.313 -1.65209 0.552429 0
M  V30 1331 C 124.445 -3.19561 1.18716 0
M  V30 1332 H 125.638 -1.83186 2.37451 0
M  V30 1333 H 123.191 -0.924746 1.26008 0
M  V30 1334 H 123.926 -3.23557 0.219366 0
M  V30 1335 H 123.711 -3.3797 1.98793 0
M  V30 1336 H 125.201 -3.99598 1.21291 0
M  V30 1337 N 125.638 -1.25649 -0.95132 0
M  V30 1338 C 126.588 -1.03004 -2.03406 0
M  V30 1339 C 127.572 0.034187 -1.60864 0
M  V30 1340 O 128.764 -0.181549 -1.76066 0
M  V30 1341 C 125.893 -0.654255 -3.37008 0
M  V30 1342 C 124.979 -1.75542 -3.86065 0
M  V30 1343 N 125.37 -2.99113 -4.07879 0
M  V30 1344 C 123.668 -1.63669 -4.14884 0
M  V30 1345 C 124.369 -3.70611 -4.48356 0
M  V30 1346 N 123.345 -2.98247 -4.54477 0
M  V30 1347 H 127.147 -1.96813 -2.1827 0
M  V30 1348 H 124.661 -1.16017 -1.13639 0
M  V30 1349 H 126.658 -0.473206 -4.14206 0
M  V30 1350 H 125.318 0.276468 -3.23521 0
M  V30 1351 H 126.329 -3.35124 -3.94857 0
M  V30 1352 H 123.006 -0.775161 -4.10241 0
M  V30 1353 H 124.396 -4.76695 -4.73509 0
M  V30 1354 N 127.117 1.15442 -1.07289 0
M  V30 1355 C 128.366 1.85557 -0.790669 0
M  V30 1356 C 128.679 1.83186 0.685739 0
M  V30 1357 O 129.885 2.48977 1.0827 0
M  V30 1358 C 128.341 3.33038 -1.36433 0
M  V30 1359 C 127.949 3.43856 -2.8717 0
M  V30 1360 C 129.693 4.0834 -1.1601 0
M  V30 1361 C 127.6 4.85482 -3.3773 0
M  V30 1362 H 126.53 0.695122 -0.292098 0
M  V30 1363 H 129.181 1.30219 -1.29287 0
M  V30 1364 H 127.563 3.88043 -0.789864 0
M  V30 1365 H 128.737 2.98961 -3.50655 0
M  V30 1366 H 127.052 2.81998 -3.06376 0
M  V30 1367 H 129.649 5.12859 -1.51262 0
M  V30 1368 H 129.992 4.16182 -0.0991007 0
M  V30 1369 H 130.525 3.59603 -1.70089 0
M  V30 1370 H 127.264 4.82823 -4.43353 0
M  V30 1371 H 126.784 5.30961 -2.78999 0
M  V30 1372 H 128.463 5.54335 -3.33648 0
M  V30 1373 N 128.595 0.856903 1.32268 0
M  V30 1374 C 130.011 0.547061 1.49931 0
M  V30 1375 C 130.211 -0.921781 1.7918 0
M  V30 1376 O 129.267 -1.70469 1.8627 0
M  V30 1377 C 130.58 1.43599 2.64196 0
M  V30 1378 C 132.128 1.43665 2.78081 0
M  V30 1379 C 132.603 2.31085 3.95428 0
M  V30 1380 N 134.094 2.28893 4.02694 0
M  V30 1381 C 134.829 2.93262 4.92732 0
M  V30 1382 N 134.325 3.66751 5.87763 0
M  V30 1383 N 136.118 2.82638 4.85873 0
M  V30 1384 H 128.269 1.8075 1.11549 0
M  V30 1385 H 130.532 0.772144 0.549997 0
M  V30 1386 H 130.238 2.48058 2.49319 0
M  V30 1387 H 130.112 1.12502 3.60032 0
M  V30 1388 H 132.499 0.399701 2.92381 0
M  V30 1389 H 132.58 1.7878 1.82952 0
M  V30 1390 H 132.224 3.34849 3.81888 0
M  V30 1391 H 132.154 1.93302 4.89839 0
M  V30 1392 H 134.645 1.75466 3.34694 0
M  V30 1393 H 134.958 4.13027 6.53168 0
M  V30 1394 H 133.303 3.70859 5.87783 0
M  V30 1395 H 136.494 2.24774 4.10602 0
M  V30 1396 H 136.667 3.33084 5.55841 0
M  V30 1397 N 130.073 -1.45103 0.615059 0
M  V30 1398 C 131.319 -2.02483 0.113347 0
M  V30 1399 C 131.652 -1.48146 -1.25564 0
M  V30 1400 O 130.927 -0.659104 -1.82992 0
M  V30 1401 C 131.21 -3.60005 0.0825278 0
M  V30 1402 C 131.063 -4.2466 1.48271 0
M  V30 1403 C 132.382 -4.35972 -0.601401 0
M  V30 1404 H 129.501 -0.735764 0.0426632 0
M  V30 1405 H 132.143 -1.72868 0.788461 0
M  V30 1406 H 130.293 -3.85367 -0.492378 0
M  V30 1407 H 131.965 -4.10458 2.10527 0
M  V30 1408 H 130.208 -3.82772 2.04127 0
M  V30 1409 H 130.879 -5.336 1.41332 0
M  V30 1410 H 133.355 -4.15947 -0.112666 0
M  V30 1411 H 132.231 -5.45697 -0.592097 0
M  V30 1412 H 132.492 -4.09391 -1.66887 0
M  V30 1413 N 131.551 -0.354651 -1.53558 0
M  V30 1414 C 132.799 0.237972 -2.00694 0
M  V30 1415 C 133.12 1.50173 -1.24391 0
M  V30 1416 O 132.39 1.92673 -0.354135 0
M  V30 1417 H 130.97 0.0909256 -0.741446 0
M  V30 1418 H 133.632 -0.478368 -1.88938 0
M  V30 1419 H 132.728 0.47264 -3.085 0
M  V30 1420 N 133.029 1.57378 -0.0835403 0
M  V30 1421 C 133.976 2.13384 0.879539 0
M  V30 1422 C 134.946 1.04936 1.28754 0
M  V30 1423 O 136.131 1.32662 1.37133 0
M  V30 1424 C 133.271 2.70932 2.13752 0
M  V30 1425 C 132.384 3.93575 1.7811 0
M  V30 1426 C 131.519 4.39326 2.98607 0
M  V30 1427 C 130.558 5.54587 2.59037 0
M  V30 1428 N 129.695 5.95243 3.72331 0
M  V30 1429 H 134.535 2.9537 0.395076 0
M  V30 1430 H 132.072 1.45953 0.183349 0
M  V30 1431 H 134.03 3.02411 2.87408 0
M  V30 1432 H 132.66 1.91693 2.59718 0
M  V30 1433 H 131.712 3.68483 0.94469 0
M  V30 1434 H 133.024 4.77258 1.45005 0
M  V30 1435 H 132.178 4.72528 3.80529 0
M  V30 1436 H 130.917 3.5452 3.34913 0
M  V30 1437 H 129.922 5.21024 1.75539 0
M  V30 1438 H 131.147 6.41133 2.23887 0
M  V30 1439 H 129.093 5.13385 4.08378 0
M  V30 1440 H 129.01 6.73694 3.43034 0
M  V30 1441 H 130.278 6.33072 4.54797 0
M  V30 1442 N 134.507 -0.190092 1.56449 0
M  V30 1443 C 135.737 -0.92443 1.84764 0
M  V30 1444 C 136.145 -1.77146 0.664529 0
M  V30 1445 O 135.488 -1.79812 -0.375957 0
M  V30 1446 C 135.55 -1.86651 3.07248 0
M  V30 1447 C 135.214 -1.20094 4.40938 0
M  V30 1448 C 136.211 -0.575445 5.16706 0
M  V30 1449 C 133.896 -1.2033 4.87674 0
M  V30 1450 C 135.89 0.0388111 6.37388 0
M  V30 1451 C 133.577 -0.585214 6.08291 0
M  V30 1452 C 134.575 0.0347578 6.82991 0
M  V30 1453 O 134.263 0.643147 8.01323 0
M  V30 1454 H 133.995 -0.274974 0.617548 0
M  V30 1455 H 136.549 -0.200788 2.04416 0
M  V30 1456 H 134.779 -2.62998 2.83494 0
M  V30 1457 H 136.468 -2.46907 3.22167 0
M  V30 1458 H 137.234 -0.565728 4.81689 0
M  V30 1459 H 133.113 -1.67526 4.29484 0
M  V30 1460 H 136.657 0.523329 6.95634 0
M  V30 1461 H 132.554 -0.592451 6.42775 0
M  V30 1462 H 133.322 0.540545 8.16713 0
M  V30 1463 N 135.985 -1.50799 -0.457987 0
M  V30 1464 C 136.948 -1.7005 -1.53674 0
M  V30 1465 C 137.948 -0.570881 -1.50325 0
M  V30 1466 O 139.138 -0.838126 -1.52712 0
M  V30 1467 C 136.27 -1.73788 -2.93276 0
M  V30 1468 H 137.463 -2.66306 -1.37917 0
M  V30 1469 H 135.016 -1.40477 -0.685271 0
M  V30 1470 H 135.751 -0.792717 -3.14462 0
M  V30 1471 H 135.536 -2.55864 -2.97113 0
M  V30 1472 H 137.026 -1.90591 -3.71571 0
M  V30 1473 N 137.463 0.71206 -1.40597 0
M  V30 1474 C 138.396 1.83582 -1.35546 0
M  V30 1475 C 139.374 1.61032 -0.225284 0
M  V30 1476 O 140.558 1.83998 -0.409519 0
M  V30 1477 C 137.685 3.19983 -1.11034 0
M  V30 1478 C 136.731 3.61355 -2.2655 0
M  V30 1479 S 137.564 3.68062 -3.88961 0
M  V30 1480 C 138.72 5.07216 -3.66719 0
M  V30 1481 H 138.953 1.87586 -2.30648 0
M  V30 1482 H 136.486 0.879182 -1.26924 0
M  V30 1483 H 138.444 3.98734 -0.975761 0
M  V30 1484 H 137.105 3.13608 -0.175798 0
M  V30 1485 H 136.298 4.60403 -2.0505 0
M  V30 1486 H 135.9 2.8987 -2.36329 0
M  V30 1487 H 138.192 5.94238 -3.25404 0
M  V30 1488 H 139.135 5.33753 -4.6531 0
M  V30 1489 H 139.543 4.77976 -3.00332 0
M  V30 1490 N 138.941 1.26152 0.944643 0
M  V30 1491 C 140.357 1.03189 1.21754 0
M  V30 1492 C 140.557 -0.245112 2.00004 0
M  V30 1493 O 139.613 -0.955176 2.33736 0
M  V30 1494 C 140.926 2.26119 1.98219 0
M  V30 1495 C 142.474 2.30984 2.11224 0
M  V30 1496 C 142.949 3.53597 2.91089 0
M  V30 1497 N 144.44 3.54053 2.98664 0
M  V30 1498 C 145.175 4.45593 3.60881 0
M  V30 1499 N 144.671 5.47416 4.24626 0
M  V30 1500 N 146.464 4.33252 3.58119 0
M  V30 1501 H 138.615 2.08177 0.421437 0
M  V30 1502 H 140.878 0.914723 0.248969 0
M  V30 1503 H 140.584 3.18984 1.48128 0
M  V30 1504 H 140.458 2.3009 2.98895 0
M  V30 1505 H 142.845 1.38635 2.60508 0
M  V30 1506 H 142.926 2.31026 1.09821 0
M  V30 1507 H 142.57 4.46273 2.42493 0
M  V30 1508 H 142.5 3.50802 3.92741 0
M  V30 1509 H 144.991 2.80403 2.53343 0
M  V30 1510 H 145.304 6.13459 4.69987 0
M  V30 1511 H 143.649 5.51278 4.23223 0
M  V30 1512 H 146.84 3.52924 3.0751 0
M  V30 1513 H 147.013 5.04786 4.06319 0
M  V30 1514 N 140.419 -1.14872 1.07899 0
M  V30 1515 C 141.382 -2.17986 0.708161 0
M  V30 1516 C 142.382 -1.58775 -0.25442 0
M  V30 1517 O 143.572 -1.74166 -0.034645 0
M  V30 1518 C 140.704 -3.40871 0.0446929 0
M  V30 1519 H 141.897 -2.52306 1.62116 0
M  V30 1520 H 139.45 -1.2943 0.876218 0
M  V30 1521 H 140.185 -3.12124 -0.880281 0
M  V30 1522 H 139.97 -3.8511 0.737091 0
M  V30 1523 H 141.46 -4.17121 -0.19991 0
M  V30 1524 N 141.898 -0.863906 -1.31812 0
M  V30 1525 C 142.828 -0.330843 -2.31144 0
M  V30 1526 C 143.809 0.575005 -1.60087 0
M  V30 1527 O 144.994 0.493304 -1.8783 0
M  V30 1528 C 142.124 0.47374 -3.44054 0
M  V30 1529 C 141.078 -0.338481 -4.26659 0
M  V30 1530 C 140.404 0.591412 -5.31419 0
M  V30 1531 C 141.704 -1.56926 -4.98168 0
M  V30 1532 H 143.398 -1.16086 -2.75979 0
M  V30 1533 H 140.944 -0.559657 -1.32679 0
M  V30 1534 H 142.897 0.857143 -4.12591 0
M  V30 1535 H 141.621 1.33721 -2.9797 0
M  V30 1536 H 140.28 -0.703754 -3.59782 0
M  V30 1537 H 139.928 1.45199 -4.81587 0
M  V30 1538 H 139.628 0.0519022 -5.87577 0
M  V30 1539 H 141.152 0.97179 -6.02817 0
M  V30 1540 H 142.566 -1.25764 -5.59336 0
M  V30 1541 H 140.963 -2.04739 -5.64094 0
M  V30 1542 H 142.033 -2.32544 -4.25501 0
M  V30 1543 N 143.376 1.44774 -0.622745 0
M  V30 1544 C 144.653 1.95522 -0.0551974 0
M  V30 1545 C 145.033 1.5649 1.41683 0
M  V30 1546 O 144.381 0.834848 2.12703 0
M  V30 1547 C 144.591 3.4796 -0.269242 0
M  V30 1548 C 145.939 4.24306 -0.158014 0
M  V30 1549 O 146.963 3.55637 -0.200162 0
M  V30 1550 O 145.822 5.46471 -0.0558693 0
M  V30 1551 H 142.916 0.826556 0.0271015 0
M  V30 1552 H 145.462 1.54866 -0.693864 0
M  V30 1553 H 144.234 3.6939 -1.29099 0
M  V30 1554 H 143.857 3.95543 0.403966 0
M  V30 1555 N 144.854 0.36279 1.53368 0
M  V30 1556 C 145.764 -0.492994 2.29362 0
M  V30 1557 C 146.78 -1.09507 1.35219 0
M  V30 1558 O 147.956 -1.10662 1.68273 0
M  V30 1559 C 145.021 -1.61855 3.066 0
M  V30 1560 C 144.082 -1.04429 4.16405 0
M  V30 1561 C 143.315 -2.11621 4.89951 0
M  V30 1562 O 143.538 -3.32684 4.63333 0
M  V30 1563 O 142.472 -1.74835 5.75948 0
M  V30 1564 H 146.298 0.125331 3.03441 0
M  V30 1565 H 143.883 0.127253 1.48857 0
M  V30 1566 H 145.765 -2.27302 3.54841 0
M  V30 1567 H 144.44 -2.22233 2.3536 0
M  V30 1568 H 143.347 -0.353819 3.72423 0
M  V30 1569 H 144.68 -0.485113 4.89804 0
M  V30 1570 N 146.332 -1.57332 0.0918853 0
M  V30 1571 C 147.264 -2.10869 -0.898168 0
M  V30 1572 C 148.277 -1.04521 -1.24817 0
M  V30 1573 O 149.466 -1.31977 -1.20184 0
M  V30 1574 C 146.566 -2.57083 -2.2082 0
M  V30 1575 C 145.739 -3.87229 -2.03402 0
M  V30 1576 C 144.798 -4.19324 -3.17889 0
M  V30 1577 O 143.824 -4.88598 -2.91994 0
M  V30 1578 N 145.026 -3.74471 -4.43567 0
M  V30 1579 H 147.791 -2.96439 -0.440943 0
M  V30 1580 H 145.352 -1.61631 -0.0933064 0
M  V30 1581 H 147.344 -2.75602 -2.96354 0
M  V30 1582 H 145.914 -1.76541 -2.57977 0
M  V30 1583 H 145.134 -3.7789 -1.12218 0
M  V30 1584 H 146.422 -4.72379 -1.89038 0
M  V30 1585 H 145.82 -3.18546 -4.67488 0
M  V30 1586 H 144.377 -3.98151 -5.16061 0
M  V30 1587 N 147.81 0.181792 -1.56548 0
M  V30 1588 C 149.059 0.898348 -1.8059 0
M  V30 1589 C 149.372 1.83862 -0.667379 0
M  V30 1590 O 150.578 2.59678 -0.792446 0
M  V30 1591 C 149.034 1.64791 -3.19956 0
M  V30 1592 C 148.642 0.751789 -4.41647 0
M  V30 1593 C 150.386 2.35331 -3.53298 0
M  V30 1594 C 148.293 1.50098 -5.72035 0
M  V30 1595 H 147.223 0.339194 -0.673397 0
M  V30 1596 H 149.874 0.151413 -1.82874 0
M  V30 1597 H 148.256 2.43921 -3.11959 0
M  V30 1598 H 149.43 -0.0018076 -4.608 0
M  V30 1599 H 147.745 0.156562 -4.16106 0
M  V30 1600 H 150.342 2.91958 -4.47956 0
M  V30 1601 H 150.685 3.10164 -2.77676 0
M  V30 1602 H 151.218 1.63154 -3.62803 0
M  V30 1603 H 147.957 0.795175 -6.50659 0
M  V30 1604 H 147.477 2.22817 -5.56878 0
M  V30 1605 H 149.156 2.05125 -6.13622 0
M  V30 1606 N 149.288 1.51039 0.449983 0
M  V30 1607 C 150.699 1.557 1.03026 0
M  V30 1608 C 151.05 0.372939 1.92623 0
M  V30 1609 O 150.175 -0.511771 2.10261 0
M  V30 1610 C 150.77 2.82171 1.87523 0
M  V30 1611 C 149.329 2.89444 2.40622 0
M  V30 1612 C 148.476 2.50228 1.19504 0
M  V30 1613 H 151.427 1.56999 0.231745 0
M  V30 1614 H 151.448 2.65219 2.72835 0
M  V30 1615 H 150.96 3.68331 1.22286 0
M  V30 1616 H 149.061 2.07685 3.0935 0
M  V30 1617 H 149.174 3.92816 2.74285 0
M  V30 1618 H 147.538 2.03139 1.53644 0
M  V30 1619 H 148.321 3.38719 0.558972 0
M  V30 1620 N 150.766 -0.704594 1.40972 0
M  V30 1621 C 151.696 -1.83124 1.44872 0
M  V30 1622 C 152.677 -1.67281 0.30838 0
M  V30 1623 O 153.862 -1.87149 0.518556 0
M  V30 1624 C 150.992 -3.21181 1.32136 0
M  V30 1625 C 149.946 -3.51714 2.43888 0
M  V30 1626 C 149.272 -4.89032 2.16222 0
M  V30 1627 C 150.572 -3.516 3.86232 0
M  V30 1628 H 152.266 -1.80117 2.39161 0
M  V30 1629 H 149.812 -0.865145 1.15114 0
M  V30 1630 H 151.765 -3.99702 1.33479 0
M  V30 1631 H 150.489 -3.24791 0.343279 0
M  V30 1632 H 149.148 -2.75539 2.41813 0
M  V30 1633 H 148.796 -4.89256 1.16778 0
M  V30 1634 H 148.496 -5.10426 2.911 0
M  V30 1635 H 150.02 -5.69873 2.19265 0
M  V30 1636 H 151.434 -4.2014 3.9007 0
M  V30 1637 H 149.831 -3.84523 4.60719 0
M  V30 1638 H 150.901 -2.50757 4.15029 0
M  V30 1639 N 152.244 -1.26651 -0.937939 0
M  V30 1640 C 153.191 -1.0849 -2.03712 0
M  V30 1641 C 154.161 0.011033 -1.66096 0
M  V30 1642 O 155.346 -0.149353 -1.90215 0
M  V30 1643 C 152.486 -0.72735 -3.37348 0
M  V30 1644 C 151.599 -1.89986 -3.87981 0
M  V30 1645 C 150.734 -1.48513 -5.10017 0
M  V30 1646 C 149.773 -2.62575 -5.5292 0
M  V30 1647 N 148.91 -2.21762 -6.66158 0
M  V30 1648 H 153.75 -2.02551 -2.18579 0
M  V30 1649 H 151.287 -1.00844 -1.07093 0
M  V30 1650 H 153.245 -0.50092 -4.14182 0
M  V30 1651 H 151.875 0.176298 -3.22318 0
M  V30 1652 H 150.927 -2.23913 -3.07518 0
M  V30 1653 H 152.239 -2.75586 -4.15757 0
M  V30 1654 H 151.393 -1.21934 -5.94321 0
M  V30 1655 H 150.132 -0.60009 -4.83994 0
M  V30 1656 H 149.137 -2.8988 -4.67172 0
M  V30 1657 H 150.362 -3.51685 -5.80943 0
M  V30 1658 H 148.308 -1.35696 -6.41812 0
M  V30 1659 H 148.225 -3.00903 -6.93537 0
M  V30 1660 H 149.493 -1.98403 -7.53828 0
M  V30 1661 N 153.722 1.14298 -1.08507 0
M  V30 1662 C 154.952 1.88945 -0.835663 0
M  V30 1663 C 155.36 1.78894 0.615928 0
M  V30 1664 O 154.703 1.1468 1.43506 0
M  V30 1665 C 154.765 3.39585 -1.17994 0
M  V30 1666 C 154.429 3.7342 -2.63451 0
M  V30 1667 C 155.426 3.73454 -3.61702 0
M  V30 1668 C 153.111 4.03368 -2.99332 0
M  V30 1669 C 155.105 4.02961 -4.93864 0
M  V30 1670 C 152.792 4.32538 -4.31687 0
M  V30 1671 C 153.79 4.32318 -5.28763 0
M  V30 1672 O 153.478 4.6078 -6.58739 0
M  V30 1673 H 153.21 0.605307 -0.300965 0
M  V30 1674 H 155.764 1.45673 -1.44806 0
M  V30 1675 H 153.994 3.83315 -0.51055 0
M  V30 1676 H 155.683 3.9554 -0.911182 0
M  V30 1677 H 156.449 3.50403 -3.35325 0
M  V30 1678 H 152.328 4.02692 -2.24411 0
M  V30 1679 H 155.872 4.02704 -5.69627 0
M  V30 1680 H 151.769 4.55059 -4.57812 0
M  V30 1681 H 152.537 4.78492 -6.64069 0
M  V30 1682 N 155.201 0.870884 1.31352 0
M  V30 1683 C 156.449 0.48132 1.96285 0
M  V30 1684 C 156.77 -0.969813 1.69173 0
M  V30 1685 O 156.04 -1.67998 1.00764 0
M  V30 1686 H 154.62 0.175002 0.726212 0
M  V30 1687 H 157.282 1.11087 1.60143 0
M  V30 1688 H 156.378 0.639825 3.05471 0
M  V30 1689 N 156.679 -1.44442 0.630414 0
M  V30 1690 C 157.925 -2.02351 0.134816 0
M  V30 1691 C 158.258 -1.4947 -1.23986 0
M  V30 1692 O 157.533 -0.678475 -1.82283 0
M  V30 1693 C 157.816 -3.59898 0.120707 0
M  V30 1694 C 157.669 -4.23063 1.52767 0
M  V30 1695 C 158.988 -4.36585 -0.555127 0
M  V30 1696 H 156.107 -0.73527 0.0504646 0
M  V30 1697 H 158.749 -1.72022 0.806751 0
M  V30 1698 H 156.899 -3.85868 -0.451477 0
M  V30 1699 H 158.571 -4.08202 2.14869 0
M  V30 1700 H 156.814 -3.80586 2.08175 0
M  V30 1701 H 157.485 -5.32071 1.46984 0
M  V30 1702 H 159.961 -4.16044 -0.0685429 0
M  V30 1703 H 158.837 -5.46294 -0.534185 0
M  V30 1704 H 159.098 -4.11138 -1.62535 0
M  V30 1705 N 158.157 -0.370918 -1.53173 0
M  V30 1706 C 159.403 0.217423 -2.01631 0
M  V30 1707 C 159.736 1.47983 -1.25756 0
M  V30 1708 O 159.011 1.91274 -0.352764 0
M  V30 1709 C 159.294 0.503982 -3.56556 0
M  V30 1710 C 159.147 -0.77243 -4.43118 0
M  V30 1711 C 160.466 1.30234 -4.20389 0
M  V30 1712 H 157.585 0.0775486 -0.732909 0
M  V30 1713 H 160.227 -0.496863 -1.83388 0
M  V30 1714 H 158.377 1.11248 -3.72231 0
M  V30 1715 H 160.049 -1.4098 -4.39229 0
M  V30 1716 H 158.292 -1.39167 -4.10871 0
M  V30 1717 H 158.963 -0.526815 -5.4948 0
M  V30 1718 H 161.439 0.787546 -4.08579 0
M  V30 1719 H 160.315 1.47158 -5.28806 0
M  V30 1720 H 160.576 2.31237 -3.76805 0
M  V30 1721 N 159.635 1.57281 -0.100228 0
M  V30 1722 C 160.883 1.94153 0.561157 0
M  V30 1723 C 161.204 0.983157 1.68401 0
M  V30 1724 O 160.474 0.0361132 1.95867 0
M  V30 1725 H 159.054 0.716791 0.210283 0
M  V30 1726 H 161.716 1.94202 -0.164765 0
M  V30 1727 H 160.812 2.96709 0.968008 0
M  V30 1728 N 161.113 -0.173488 1.56642 0
M  V30 1729 C 162.045 -1.23935 1.92802 0
M  V30 1730 C 163.058 -1.40589 0.820889 0
M  V30 1731 O 164.247 -1.40631 1.09933 0
M  V30 1732 C 161.347 -2.60837 2.16373 0
M  V30 1733 C 160.52 -2.6551 3.47596 0
M  V30 1734 C 159.579 -3.8376 3.60021 0
M  V30 1735 O 158.605 -3.69859 4.32658 0
M  V30 1736 N 159.807 -5.00127 2.94709 0
M  V30 1737 H 162.572 -0.932236 2.84832 0
M  V30 1738 H 160.133 -0.363268 1.57772 0
M  V30 1739 H 162.125 -3.38407 2.21952 0
M  V30 1740 H 160.695 -2.83948 1.30738 0
M  V30 1741 H 159.915 -1.74052 3.53694 0
M  V30 1742 H 161.203 -2.65641 4.33949 0
M  V30 1743 H 160.601 -5.14322 2.35563 0
M  V30 1744 H 159.158 -5.75567 3.05886 0
M  V30 1745 N 162.591 -1.51276 -0.441967 0
M  V30 1746 C 163.501 -1.75092 -1.56141 0
M  V30 1747 C 164.517 -0.634963 -1.62001 0
M  V30 1748 O 165.693 -0.916686 -1.79329 0
M  V30 1749 C 162.758 -1.86666 -2.92158 0
M  V30 1750 C 161.819 -3.10506 -2.96453 0
M  V30 1751 C 161.052 -3.21519 -4.25982 0
M  V30 1752 O 161.275 -2.38586 -5.18105 0
M  V30 1753 O 160.209 -4.14465 -4.36466 0
M  V30 1754 H 164.035 -2.70044 -1.38961 0
M  V30 1755 H 161.62 -1.35722 -0.624499 0
M  V30 1756 H 163.502 -1.96292 -3.72891 0
M  V30 1757 H 162.177 -0.949014 -3.09476 0
M  V30 1758 H 161.084 -3.06363 -2.14692 0
M  V30 1759 H 162.417 -4.01945 -2.84079 0
M  V30 1760 N 164.069 0.697108 -1.41344 0
M  V30 1761 C 165.297 1.48593 -1.43972 0
M  V30 1762 C 165.712 1.88747 -0.0445612 0
M  V30 1763 O 165.069 1.56682 0.935785 0
M  V30 1764 C 165.12 2.74946 -2.34706 0
M  V30 1765 O 164.841 2.36484 -3.68791 0
M  V30 1766 C 166.342 3.687 -2.46121 0
M  V30 1767 H 163.562 0.457964 -0.490418 0
M  V30 1768 H 166.106 0.858429 -1.8561 0
M  V30 1769 H 164.261 3.33937 -1.9638 0
M  V30 1770 H 164.675 3.17918 -4.17167 0
M  V30 1771 H 166.149 4.54145 -3.13777 0
M  V30 1772 H 166.626 4.13081 -1.49199 0
M  V30 1773 H 167.232 3.15613 -2.85076 0
M  V30 1774 N 165.547 1.27147 0.931209 0
M  V30 1775 C 166.787 1.14511 1.69312 0
M  V30 1776 C 167.151 -0.304638 1.89568 0
M  V30 1777 O 168.352 -0.553343 2.63043 0
M  V30 1778 C 166.623 1.90349 3.02493 0
M  V30 1779 S 168.182 1.93884 3.93642 0
M  V30 1780 H 165 0.408858 0.581684 0
M  V30 1781 H 167.602 1.61006 1.10893 0
M  V30 1782 H 166.306 2.94877 2.85439 0
M  V30 1783 H 165.837 1.44333 3.65966 0
M  V30 1784 H 167.852 1.03273 4.85334 0
M  V30 1785 N 167.025 -1.13721 1.09112 0
M  V30 1786 C 168.273 -1.84559 0.823562 0
M  V30 1787 C 168.594 -1.83754 -0.652658 0
M  V30 1788 O 167.864 -1.29102 -1.47342 0
M  V30 1789 H 166.444 -0.683376 0.301673 0
M  V30 1790 H 169.106 -1.37771 1.37859 0
M  V30 1791 H 168.202 -2.8917 1.17419 0
M  V30 1792 N 168.503 -0.877838 -1.30888 0
M  V30 1793 C 169.914 -0.544193 -1.78593 0
M  V30 1794 C 170.265 0.939301 -1.72254 0
M  V30 1795 O 169.39 1.7337 -1.29505 0
M  V30 1796 C 169.985 -0.98105 -3.24285 0
M  V30 1797 C 168.544 -0.698935 -3.69854 0
M  V30 1798 C 167.691 -1.168 -2.51502 0
M  V30 1799 H 170.642 -1.06278 -1.17859 0
M  V30 1800 H 170.663 -0.307009 -3.79259 0
M  V30 1801 H 170.175 -2.06079 -3.28866 0
M  V30 1802 H 168.276 0.369112 -3.70767 0
M  V30 1803 H 168.389 -1.28148 -4.61644 0
M  V30 1804 H 166.753 -0.587535 -2.47831 0
M  V30 1805 H 167.536 -2.25533 -2.58824 0
M  V30 1806 N 169.982 1.44106 -0.638065 0
M  V30 1807 C 171.23 2.01579 -0.145043 0
M  V30 1808 C 171.551 1.50496 1.24 0
M  V30 1809 O 170.821 0.711374 1.82527 0
M  V30 1810 H 169.401 0.745282 -0.05063 0
M  V30 1811 H 172.063 1.76516 -0.826327 0
M  V30 1812 H 171.159 3.11877 -0.118039 0
M  V30 1813 N 171.46 0.379036 1.52974 0
M  V30 1814 C 172.708 -0.206014 2.01047 0
M  V30 1815 C 173.029 -1.48175 1.26765 0
M  V30 1816 O 172.299 -1.92085 0.384743 0
M  V30 1817 H 170.879 -0.0791184 0.742798 0
M  V30 1818 H 173.541 0.508366 1.88153 0
M  V30 1819 H 172.637 -0.423501 3.09213 0
M  V30 1820 N 172.938 -1.57226 0.108567 0
M  V30 1821 C 174.187 -1.94008 -0.551703 0
M  V30 1822 C 174.5 -0.993442 -1.68494 0
M  V30 1823 O 175.706 -1.25551 -2.40726 0
M  V30 1824 C 174.162 -3.44763 -1.03279 0
M  V30 1825 C 173.77 -4.47943 0.0714193 0
M  V30 1826 C 175.514 -3.90483 -1.66503 0
M  V30 1827 C 173.421 -5.89865 -0.425779 0
M  V30 1828 H 172.351 -0.724206 -0.209863 0
M  V30 1829 H 175.002 -1.82547 0.186741 0
M  V30 1830 H 173.384 -3.51422 -1.82533 0
M  V30 1831 H 174.558 -4.52942 0.847365 0
M  V30 1832 H 172.873 -4.11913 0.609669 0
M  V30 1833 H 175.47 -4.93925 -2.04798 0
M  V30 1834 H 175.813 -3.29877 -2.53942 0
M  V30 1835 H 176.346 -3.86581 -0.938074 0
M  V30 1836 H 173.085 -6.54202 0.412316 0
M  V30 1837 H 172.605 -5.88309 -1.16843 0
M  V30 1838 H 174.284 -6.40844 -0.890397 0
M  V30 1839 N 174.416 0.165178 -1.56732 0
M  V30 1840 C 175.379 1.18822 -1.95995 0
M  V30 1841 C 176.379 1.3685 -0.84431 0
M  V30 1842 O 177.569 1.34152 -1.11126 0
M  V30 1843 C 174.701 2.5521 -2.26011 0
M  V30 1844 H 175.894 0.851825 -2.87548 0
M  V30 1845 H 173.447 0.407857 -1.50885 0
M  V30 1846 H 174.182 2.93852 -1.37191 0
M  V30 1847 H 173.967 2.43489 -3.07336 0
M  V30 1848 H 175.457 3.28927 -2.57288 0
M  V30 1849 N 175.894 1.51508 0.433938 0
M  V30 1850 C 177.124 1.67914 1.20369 0
M  V30 1851 C 177.532 0.377461 1.85397 0
M  V30 1852 O 176.875 -0.654255 1.71654 0
M  V30 1853 C 176.937 2.74045 2.32679 0
M  V30 1854 C 176.601 4.16543 1.87991 0
M  V30 1855 C 177.598 5.01211 1.38145 0
M  V30 1856 C 175.283 4.6266 1.95579 0
M  V30 1857 C 177.277 6.30056 0.964774 0
M  V30 1858 C 174.964 5.91501 1.53523 0
M  V30 1859 C 175.962 6.75027 1.04055 0
M  V30 1860 O 175.65 8.01459 0.625964 0
M  V30 1861 H 175.382 0.566578 0.368735 0
M  V30 1862 H 177.936 1.98709 0.51999 0
M  V30 1863 H 176.166 2.38572 3.04336 0
M  V30 1864 H 177.855 2.79295 2.94532 0
M  V30 1865 H 178.621 4.66783 1.31675 0
M  V30 1866 H 174.5 3.97767 2.33029 0
M  V30 1867 H 178.044 6.95202 0.57796 0
M  V30 1868 H 173.941 6.25442 1.59665 0
M  V30 1869 H 174.709 8.15043 0.751509 0
M  V30 1870 N 177.372 -0.689602 1.41712 0
M  V30 1871 C 178.62 -1.4468 1.4111 0
M  V30 1872 C 178.941 -1.94986 0.0232196 0
M  V30 1873 O 178.211 -1.72097 -0.935913 0
M  V30 1874 H 176.791 -0.536847 0.519427 0
M  V30 1875 H 179.453 -0.815825 1.77004 0
M  V30 1876 H 178.549 -2.30706 2.10193 0
M  V30 1877 N 178.85 -1.27639 -0.924453 0
M  V30 1878 C 179.783 -1.04966 -2.02626 0
M  V30 1879 C 180.761 0.0309505 -1.62571 0
M  V30 1880 O 181.945 -0.114846 -1.8815 0
M  V30 1881 C 179.072 -0.59292 -3.3347 0
M  V30 1882 C 178.118 -1.66858 -3.92506 0
M  V30 1883 S 178.951 -3.2619 -4.24689 0
M  V30 1884 C 180.107 -2.82325 -5.58609 0
M  V30 1885 H 180.34 -1.98252 -2.21547 0
M  V30 1886 H 177.873 -1.11506 -1.06798 0
M  V30 1887 H 179.831 -0.336086 -4.09122 0
M  V30 1888 H 178.492 0.319939 -3.12466 0
M  V30 1889 H 177.685 -1.30038 -4.86935 0
M  V30 1890 H 177.287 -1.87766 -3.2345 0
M  V30 1891 H 179.579 -2.2783 -6.38044 0
M  V30 1892 H 180.522 -3.75511 -6.00331 0
M  V30 1893 H 180.93 -2.21367 -5.19285 0
M  V30 1894 N 180.328 1.1314 -1.09713 0
M  V30 1895 C 181.744 1.36477 -0.827423 0
M  V30 1896 C 181.944 1.93654 0.556817 0
M  V30 1897 O 181 2.15791 1.31112 0
M  V30 1898 C 182.313 2.31334 -1.92106 0
M  V30 1899 C 183.861 2.44943 -1.94864 0
M  V30 1900 C 184.336 3.4311 -3.0338 0
M  V30 1901 N 185.827 3.50662 -3.02639 0
M  V30 1902 C 186.562 4.2651 -3.83246 0
M  V30 1903 N 186.058 5.05485 -4.73768 0
M  V30 1904 N 187.851 4.2184 -3.71493 0
M  V30 1905 H 180.002 0.743807 -1.9895 0
M  V30 1906 H 182.265 0.389823 -0.864143 0
M  V30 1907 H 181.971 1.96483 -2.91698 0
M  V30 1908 H 181.845 3.31381 -1.80184 0
M  V30 1909 H 184.232 2.79079 -0.959099 0
M  V30 1910 H 184.313 1.4481 -2.10864 0
M  V30 1911 H 183.957 3.09704 -4.02549 0
M  V30 1912 H 183.887 4.43055 -2.84622 0
M  V30 1913 H 186.378 2.94315 -2.37039 0
M  V30 1914 H 186.691 5.60675 -5.3185 0
M  V30 1915 H 185.036 5.04708 -4.77802 0
M  V30 1916 H 188.227 3.5922 -3.00131 0
M  V30 1917 H 188.4 4.80697 -4.3455 0
M  V30 1918 N 181.806 0.884767 1.30421 0
M  V30 1919 C 183.031 0.517288 2.00845 0
M  V30 1920 C 183.456 -0.886779 1.65885 0
M  V30 1921 O 182.814 -1.58768 0.875354 0
M  V30 1922 C 182.862 0.698994 3.5376 0
M  V30 1923 O 181.966 -0.255208 4.1161 0
M  V30 1924 H 181.307 0.203872 0.631927 0
M  V30 1925 H 183.837 1.19225 1.66272 0
M  V30 1926 H 183.847 0.597912 4.03595 0
M  V30 1927 H 182.522 1.72271 3.78544 0
M  V30 1928 H 181.099 -0.10784 3.72744 0
M  V30 1929 N 183.284 -1.43765 0.645699 0
M  V30 1930 C 184.533 -2.01116 0.153412 0
M  V30 1931 C 184.846 -1.51493 -1.23731 0
M  V30 1932 O 186.052 -2.01067 -1.8244 0
M  V30 1933 C 184.508 -3.59206 0.223473 0
M  V30 1934 C 184.116 -4.17823 1.61642 0
M  V30 1935 C 185.86 -4.23972 -0.211597 0
M  V30 1936 C 183.767 -5.68183 1.64081 0
M  V30 1937 H 182.697 -0.752093 0.0535891 0
M  V30 1938 H 185.348 -1.6482 0.806633 0
M  V30 1939 H 183.73 -3.92867 -0.497118 0
M  V30 1940 H 184.904 -3.95674 2.36176 0
M  V30 1941 H 183.219 -3.65399 1.99681 0
M  V30 1942 H 185.816 -5.34275 -0.213112 0
M  V30 1943 H 186.159 -3.97352 -1.24165 0
M  V30 1944 H 186.692 -3.95166 0.456988 0
M  V30 1945 H 183.431 -5.99559 2.64971 0
M  V30 1946 H 182.951 -5.9241 0.938611 0
M  V30 1947 H 184.63 -6.32085 1.3812 0
M  V30 1948 N 184.763 -0.387143 -1.52771 0
M  V30 1949 C 186.011 0.195349 -2.01154 0
M  V30 1950 C 186.332 1.475 -1.27549 0
M  V30 1951 O 185.602 1.91878 -0.394924 0
M  V30 1952 H 184.182 0.075178 -0.743207 0
M  V30 1953 H 186.844 -0.518337 -1.87881 0
M  V30 1954 H 185.94 0.407096 -3.09434 0
M  V30 1955 N 186.241 1.57166 -0.116904 0
M  V30 1956 C 187.489 1.94737 0.540533 0
M  V30 1957 C 187.81 1.00096 1.67349 0
M  V30 1958 O 187.08 0.0568854 1.95817 0
M  V30 1959 H 185.66 0.718981 0.202669 0
M  V30 1960 H 188.322 1.94017 -0.185353 0
M  V30 1961 H 187.418 2.97719 0.936483 0
M  V30 1962 N 187.719 -0.156864 1.56817 0
M  V30 1963 C 188.965 -0.872416 1.83076 0
M  V30 1964 C 189.298 -1.81261 0.697001 0
M  V30 1965 O 188.573 -1.92171 -0.30008 0
M  V30 1966 C 188.856 -1.65551 3.19789 0
M  V30 1967 C 188.709 -0.737467 4.43713 0
M  V30 1968 C 190.028 -2.62012 3.53606 0
M  V30 1969 H 187.147 -0.315715 0.665953 0
M  V30 1970 H 189.789 -0.138004 1.89498 0
M  V30 1971 H 187.939 -2.28159 3.14445 0
M  V30 1972 H 189.611 -0.123143 4.61136 0
M  V30 1973 H 187.854 -0.0464067 4.33775 0
M  V30 1974 H 188.525 -1.32122 5.35955 0
M  V30 1975 H 191.001 -2.09525 3.59497 0
M  V30 1976 H 189.877 -3.13861 4.50314 0
M  V30 1977 H 190.138 -3.42902 2.79053 0
M  V30 1978 N 189.197 -1.51736 -0.425897 0
M  V30 1979 C 190.127 -1.76827 -1.52494 0
M  V30 1980 C 191.108 -0.618524 -1.58456 0
M  V30 1981 O 192.293 -0.862416 -1.74 0
M  V30 1982 C 189.423 -1.90374 -2.90474 0
M  V30 1983 C 188.377 -3.0588 -2.99369 0
M  V30 1984 C 187.703 -3.04625 -4.3944 0
M  V30 1985 C 189.003 -4.45644 -2.72394 0
M  V30 1986 H 190.697 -2.68855 -1.31748 0
M  V30 1987 H 188.243 -1.29372 -0.632362 0
M  V30 1988 H 190.196 -2.0651 -3.6733 0
M  V30 1989 H 188.92 -0.95004 -3.12477 0
M  V30 1990 H 187.579 -2.89467 -2.24954 0
M  V30 1991 H 187.227 -2.0701 -4.58428 0
M  V30 1992 H 186.927 -3.82195 -4.46319 0
M  V30 1993 H 188.451 -3.22869 -5.18255 0
M  V30 1994 H 189.865 -4.62348 -3.38979 0
M  V30 1995 H 188.262 -5.25006 -2.9067 0
M  V30 1996 H 189.332 -4.54893 -1.67929 0
M  V30 1997 N 190.675 0.682077 -1.42076 0
M  V30 1998 C 191.585 1.82535 -1.47371 0
M  V30 1999 C 192.601 1.7017 -0.363079 0
M  V30 2000 O 193.777 1.91848 -0.612875 0
M  V30 2001 C 190.842 3.18624 -1.36674 0
M  V30 2002 C 189.903 3.42999 -2.58167 0
M  V30 2003 C 189.136 4.72595 -2.4797 0
M  V30 2004 O 189.359 5.50006 -1.5116 0
M  V30 2005 O 188.293 4.98054 -3.37974 0
M  V30 2006 H 192.119 1.81023 -2.43853 0
M  V30 2007 H 189.704 0.836887 -1.2376 0
M  V30 2008 H 191.586 3.99847 -1.33043 0
M  V30 2009 H 190.261 3.20789 -0.433138 0
M  V30 2010 H 189.168 2.61653 -2.67373 0
M  V30 2011 H 190.501 3.45659 -3.50401 0
M  V30 2012 N 192.153 1.28127 0.917671 0
M  V30 2013 C 193.402 1.14432 1.66097 0
M  V30 2014 C 193.715 -0.307247 1.93172 0
M  V30 2015 O 194.921 -0.565259 2.65551 0
M  V30 2016 C 193.377 2.00015 2.99202 0
M  V30 2017 C 192.985 3.49889 2.79789 0
M  V30 2018 C 194.729 1.94996 3.77064 0
M  V30 2019 C 192.636 4.27636 4.08511 0
M  V30 2020 H 191.566 0.424662 0.62304 0
M  V30 2021 H 194.217 1.52628 1.01868 0
M  V30 2022 H 192.599 1.54672 3.64544 0
M  V30 2023 H 193.773 4.03162 2.23152 0
M  V30 2024 H 192.088 3.56392 2.15345 0
M  V30 2025 H 194.685 2.50354 4.72469 0
M  V30 2026 H 195.028 0.925819 4.05875 0
M  V30 2027 H 195.561 2.38287 3.18534 0
M  V30 2028 H 192.3 5.30615 3.84874 0
M  V30 2029 H 191.82 3.79137 4.64774 0
M  V30 2030 H 193.499 4.37346 4.76799 0
M  V30 2031 N 193.631 -1.12557 1.10312 0
M  V30 2032 C 194.561 -2.20341 0.772798 0
M  V30 2033 C 195.542 -1.68198 -0.25365 0
M  V30 2034 O 196.727 -1.93831 -0.119699 0
M  V30 2035 C 193.857 -3.46709 0.202443 0
M  V30 2036 C 192.811 -4.11996 1.15943 0
M  V30 2037 C 192.137 -5.328 0.450345 0
M  V30 2038 C 193.437 -4.5828 2.50552 0
M  V30 2039 H 195.131 -2.48229 1.674 0
M  V30 2040 H 192.677 -1.19308 0.806326 0
M  V30 2041 H 194.63 -4.2138 -0.0407752 0
M  V30 2042 H 193.354 -3.18245 -0.734001 0
M  V30 2043 H 192.013 -3.39305 1.38808 0
M  V30 2044 H 191.661 -5.00602 -0.490531 0
M  V30 2045 H 191.361 -5.7743 1.08851 0
M  V30 2046 H 192.885 -6.10219 0.215642 0
M  V30 2047 H 194.299 -5.2433 2.31843 0
M  V30 2048 H 192.696 -5.13683 3.10242 0
M  V30 2049 H 193.766 -3.72329 3.10643 0
M  V30 2050 N 195.109 -0.891671 -1.2995 0
M  V30 2051 C 196.386 -0.433307 -1.9074 0
M  V30 2052 C 196.766 1.08646 -1.80995 0
M  V30 2053 O 196.114 1.92476 -1.23147 0
M  V30 2054 C 196.324 -0.938895 -3.36134 0
M  V30 2055 C 197.672 -0.977829 -4.13187 0
M  V30 2056 O 198.696 -0.886015 -3.45005 0
M  V30 2057 O 197.555 -1.11453 -5.35015 0
M  V30 2058 H 194.649 -0.133699 -0.816121 0
M  V30 2059 H 197.195 -0.981011 -1.38471 0
M  V30 2060 H 195.967 -1.98281 -3.37343 0
M  V30 2061 H 195.59 -0.37074 -3.95868 0
M  V30 2062 N 196.587 1.43421 -0.653314 0
M  V30 2063 C 197.817 2.05864 -0.174238 0
M  V30 2064 C 198.225 1.49052 1.16534 0
M  V30 2065 O 197.568 0.616481 1.73047 0
M  V30 2066 C 197.63 3.59499 -0.00875873 0
M  V30 2067 C 197.294 4.38893 -1.27364 0
M  V30 2068 C 198.291 4.70947 -2.20239 0
M  V30 2069 C 195.976 4.789 -1.51525 0
M  V30 2070 C 197.97 5.41916 -3.35568 0
M  V30 2071 C 195.657 5.49614 -2.67147 0
M  V30 2072 C 196.655 5.81044 -3.58994 0
M  V30 2073 O 196.343 6.50313 -4.72597 0
M  V30 2074 H 196.075 0.670345 -0.0872549 0
M  V30 2075 H 198.629 1.84913 -0.894226 0
M  V30 2076 H 196.859 3.79025 0.7666 0
M  V30 2077 H 198.548 4.0364 0.427687 0
M  V30 2078 H 199.314 4.40558 -2.02815 0
M  V30 2079 H 195.193 4.53843 -0.809158 0
M  V30 2080 H 198.737 5.66365 -4.07279 0
M  V30 2081 H 194.634 5.79419 -2.84505 0
M  V30 2082 H 195.402 6.68795 -4.71864 0
M  V30 2083 N 198.065 0.39524 1.52563 0
M  V30 2084 C 198.998 -0.4813 2.23067 0
M  V30 2085 C 199.976 -1.05927 1.23362 0
M  V30 2086 O 201.16 -1.10979 1.52368 0
M  V30 2087 C 198.287 -1.66676 2.9485 0
M  V30 2088 C 197.333 -1.21348 4.08873 0
M  V30 2089 S 198.166 -0.190102 5.35162 0
M  V30 2090 C 199.322 -1.38121 6.1047 0
M  V30 2091 H 199.555 0.117381 2.97068 0
M  V30 2092 H 197.088 0.179458 1.53354 0
M  V30 2093 H 199.046 -2.3466 3.36816 0
M  V30 2094 H 197.707 -2.23676 2.20518 0
M  V30 2095 H 196.9 -2.09877 4.58222 0
M  V30 2096 H 196.502 -0.612486 3.68951 0
M  V30 2097 H 198.794 -2.30726 6.37002 0
M  V30 2098 H 199.737 -0.928521 7.01986 0
M  V30 2099 H 200.145 -1.60071 5.41329 0
M  V30 2100 N 199.544 -1.57102 0.125237 0
M  V30 2101 C 200.454 -2.19191 -0.8362 0
M  V30 2102 C 201.47 -1.16985 -1.28805 0
M  V30 2103 O 202.646 -1.49479 -1.34974 0
M  V30 2104 C 199.711 -2.78407 -2.06617 0
M  V30 2105 C 198.772 -3.9567 -1.66565 0
M  V30 2106 C 198.005 -4.52052 -2.83698 0
M  V30 2107 O 198.228 -4.07326 -3.99302 0
M  V30 2108 O 197.162 -5.42645 -2.60423 0
M  V30 2109 H 200.988 -3.01816 -0.337776 0
M  V30 2110 H 198.573 -1.4906 -0.100695 0
M  V30 2111 H 200.455 -3.16129 -2.7864 0
M  V30 2112 H 199.13 -1.9881 -2.55453 0
M  V30 2113 H 198.037 -3.62705 -0.916296 0
M  V30 2114 H 199.37 -4.76722 -1.22464 0
M  V30 2115 N 201.022 0.148545 -1.56898 0
M  V30 2116 C 201.969 1.18345 -1.98149 0
M  V30 2117 C 202.939 1.42772 -0.848848 0
M  V30 2118 O 204.124 1.55132 -1.11079 0
M  V30 2119 C 201.264 2.51231 -2.36594 0
M  V30 2120 C 200.377 2.33991 -3.63142 0
M  V30 2121 C 199.512 3.59902 -3.90697 0
M  V30 2122 C 198.551 3.37692 -5.1052 0
M  V30 2123 N 197.688 4.5573 -5.34092 0
M  V30 2124 H 202.528 0.82467 -2.86362 0
M  V30 2125 H 200.065 0.395756 -1.41676 0
M  V30 2126 H 202.023 3.28713 -2.56912 0
M  V30 2127 H 200.653 2.85059 -1.51463 0
M  V30 2128 H 199.705 1.47572 -3.50609 0
M  V30 2129 H 201.017 2.13539 -4.5078 0
M  V30 2130 H 200.171 4.45813 -4.11505 0
M  V30 2131 H 198.91 3.83357 -3.01477 0
M  V30 2132 H 197.915 2.5017 -4.89587 0
M  V30 2133 H 199.14 3.15637 -6.0129 0
M  V30 2134 H 197.086 4.79361 -4.47827 0
M  V30 2135 H 197.003 4.38274 -6.15996 0
M  V30 2136 H 198.271 5.42858 -5.59397 0
M  V30 2137 N 202.5 1.5196 0.417844 0
M  V30 2138 C 203.73 1.69181 1.18581 0
M  V30 2139 C 204.138 0.397104 1.84986 0
M  V30 2140 O 203.481 -0.636011 1.72339 0
M  V30 2141 C 203.543 2.76497 2.29759 0
M  V30 2142 C 203.207 4.18514 1.83563 0
M  V30 2143 C 204.204 5.02648 1.32821 0
M  V30 2144 C 201.889 4.64708 1.90661 0
M  V30 2145 C 203.883 6.31044 0.897894 0
M  V30 2146 C 201.57 5.93096 1.47241 0
M  V30 2147 C 202.568 6.76093 0.968891 0
M  V30 2148 O 202.256 8.02078 0.540924 0
M  V30 2149 H 201.988 0.570457 0.362705 0
M  V30 2150 H 204.542 1.99249 0.498885 0
M  V30 2151 H 202.772 2.41786 3.01789 0
M  V30 2152 H 204.461 2.82403 2.91553 0
M  V30 2153 H 205.227 4.68154 1.26716 0
M  V30 2154 H 201.106 4.00216 2.28797 0
M  V30 2155 H 204.65 6.95776 0.504192 0
M  V30 2156 H 200.547 6.271 1.53022 0
M  V30 2157 H 201.315 8.15794 0.66502 0
M  V30 2158 N 203.978 -0.674533 1.42435 0
M  V30 2159 C 205.203 -1.46784 1.46524 0
M  V30 2160 C 205.628 -1.87938 0.078066 0
M  V30 2161 O 204.986 -1.56014 -0.92354 0
M  V30 2162 C 205.034 -2.69307 2.39805 0
M  V30 2163 O 204.138 -3.67587 1.86959 0
M  V30 2164 H 203.479 -0.440959 0.496439 0
M  V30 2165 H 206.009 -0.827326 1.87127 0
M  V30 2166 H 206.019 -3.17374 2.56393 0
M  V30 2167 H 204.694 -2.38692 3.40586 0
M  V30 2168 H 203.271 -3.2662 1.79927 0
M  V30 2169 N 205.456 -1.28612 -0.910864 0
M  V30 2170 C 206.867 -1.14406 -1.47541 0
M  V30 2171 C 207.218 0.264901 -1.94403 0
M  V30 2172 O 206.343 1.15942 -1.82719 0
M  V30 2173 C 206.938 -2.07073 -2.68153 0
M  V30 2174 C 205.497 -1.96923 -3.20778 0
M  V30 2175 C 204.644 -1.98646 -1.93481 0
M  V30 2176 H 207.595 -1.41259 -0.723291 0
M  V30 2177 H 207.616 -1.63642 -3.43514 0
M  V30 2178 H 207.128 -3.09611 -2.34015 0
M  V30 2179 H 205.229 -0.97433 -3.59635 0
M  V30 2180 H 205.342 -2.84026 -3.85832 0
M  V30 2181 H 203.706 -1.43093 -2.10705 0
M  V30 2182 H 204.489 -3.02868 -1.61634 0
M  V30 2183 N 206.934 1.1197 -1.10907 0
M  V30 2184 C 208.211 1.79959 -0.766432 0
M  V30 2185 C 208.591 1.97466 0.746363 0
M  V30 2186 O 207.939 1.55491 1.67436 0
M  V30 2187 C 208.149 3.14009 -1.52314 0
M  V30 2188 C 209.497 3.89134 -1.69883 0
M  V30 2189 O 210.521 3.2368 -1.48692 0
M  V30 2190 O 209.38 5.06572 -2.05054 0
M  V30 2191 H 206.474 0.779208 -0.277062 0
M  V30 2192 H 209.02 1.18762 -1.21217 0
M  V30 2193 H 207.792 2.96587 -2.55249 0
M  V30 2194 H 207.415 3.82915 -1.07059 0
M  V30 2195 N 208.412 0.89855 1.29475 0
M  V30 2196 C 209.375 0.380272 2.26023 0
M  V30 2197 C 210.375 -0.484891 1.53315 0
M  V30 2198 O 211.565 -0.290108 1.71767 0
M  V30 2199 C 208.697 -0.45651 3.3783 0
M  V30 2200 H 209.89 1.23295 2.73383 0
M  V30 2201 H 207.443 0.676589 1.40897 0
M  V30 2202 H 208.178 -1.32922 2.95808 0
M  V30 2203 H 207.963 0.163393 3.91759 0
M  V30 2204 H 209.453 -0.810466 4.0966 0
M  V30 2205 N 209.89 -1.43072 0.660911 0
M  V30 2206 C 211.136 -2.02545 0.186337 0
M  V30 2207 C 211.491 -1.51253 -1.18913 0
M  V30 2208 O 210.784 -0.699167 -1.78388 0
M  V30 2209 C 210.978 -3.57103 0.145563 0
M  V30 2210 C 210.807 -4.23393 1.51554 0
M  V30 2211 C 209.577 -4.59144 2.10984 0
M  V30 2212 C 211.775 -4.51897 2.45548 0
M  V30 2213 N 209.757 -5.10545 3.40907 0
M  V30 2214 C 211.128 -5.04698 3.6011 0
M  V30 2215 C 213.183 -4.33872 2.44253 0
M  V30 2216 C 211.886 -5.41371 4.73613 0
M  V30 2217 C 213.912 -4.71612 3.56842 0
M  V30 2218 C 213.274 -5.24553 4.70131 0
M  V30 2219 H 209.373 -0.773823 0.112792 0
M  V30 2220 H 211.957 -1.74137 0.870885 0
M  V30 2221 H 210.128 -3.85059 -0.508353 0
M  V30 2222 H 211.86 -4.03264 -0.340598 0
M  V30 2223 H 208.615 -4.4444 1.63615 0
M  V30 2224 H 209.039 -5.40689 4.07411 0
M  V30 2225 H 213.681 -3.92208 1.579 0
M  V30 2226 H 211.399 -5.81975 5.60652 0
M  V30 2227 H 214.985 -4.59354 3.57051 0
M  V30 2228 H 213.865 -5.53213 5.5581 0
M  V30 2229 N 211.368 -0.403325 -1.52352 0
M  V30 2230 C 212.301 0.469463 -2.23319 0
M  V30 2231 C 213.279 1.05272 -1.23922 0
M  V30 2232 O 214.463 1.10169 -1.52954 0
M  V30 2233 C 211.59 1.6511 -2.9573 0
M  V30 2234 C 210.636 1.19178 -4.0951 0
M  V30 2235 S 211.469 0.161718 -5.35256 0
M  V30 2236 C 212.625 1.34882 -6.11194 0
M  V30 2237 H 212.858 -0.133134 -2.97002 0
M  V30 2238 H 210.391 -0.187588 -1.53256 0
M  V30 2239 H 212.349 2.3287 -3.38056 0
M  V30 2240 H 211.01 2.22503 -2.21701 0
M  V30 2241 H 210.203 2.07444 -4.59329 0
M  V30 2242 H 209.805 0.592911 -3.6927 0
M  V30 2243 H 212.097 2.27345 -6.38217 0
M  V30 2244 H 213.04 0.89128 -7.02468 0
M  V30 2245 H 213.448 1.57198 -5.42171 0
M  V30 2246 N 212.846 1.57033 -0.133567 0
M  V30 2247 C 213.776 2.1909 0.807567 0
M  V30 2248 C 214.757 1.13517 1.26681 0
M  V30 2249 O 215.942 1.41809 1.32679 0
M  V30 2250 C 213.072 2.80188 2.05212 0
M  V30 2251 C 212.026 3.91471 1.73015 0
M  V30 2252 C 211.352 4.39443 3.04622 0
M  V30 2253 C 212.652 5.12886 0.987168 0
M  V30 2254 H 214.346 2.97988 0.290403 0
M  V30 2255 H 211.892 1.43335 0.138239 0
M  V30 2256 H 213.845 3.22264 2.71521 0
M  V30 2257 H 212.569 1.98601 2.59278 0
M  V30 2258 H 211.228 3.49993 1.0909 0
M  V30 2259 H 210.876 3.54695 3.56651 0
M  V30 2260 H 210.576 5.14495 2.83847 0
M  V30 2261 H 212.1 4.8418 3.72024 0
M  V30 2262 H 213.514 5.51891 1.55208 0
M  V30 2263 H 211.911 5.93615 0.87985 0
M  V30 2264 H 212.981 4.84894 -0.0235286 0
M  V30 2265 N 214.325 -0.140222 1.56975 0
M  V30 2266 C 215.273 -1.19207 1.99731 0
M  V30 2267 C 216.267 -1.44089 0.890777 0
M  V30 2268 O 217.473 -1.44301 1.07597 0
M  V30 2269 H 213.848 -0.40142 0.635898 0
M  V30 2270 H 215.819 -0.804813 2.87342 0
M  V30 2271 C 214.568 -2.51617 2.39967 0
M  V30 2272 H 213.891 -2.33303 3.24669 0
M  V30 2273 H 215.331 -3.23827 2.73701 0
M  V30 2274 C 213.79 -3.12654 1.25496 0
M  V30 2275 O 214.32 -3.97786 0.559371 0
M  V30 2276 N 212.526 -2.72206 1.01746 0
M  V30 2277 H 212.073 -2.03074 1.58489 0
M  V30 2278 H 212.031 -3.13377 0.253461 0
M  V30 2279 N 215.803 -1.52179 -0.40978 0
M  V30 2280 C 217.033 -1.69807 -1.17682 0
M  V30 2281 C 217.441 -0.406908 -1.84773 0
M  V30 2282 O 216.784 0.626863 -1.72673 0
M  V30 2283 C 216.846 -2.77712 -2.2829 0
M  V30 2284 C 216.51 -4.19481 -1.81341 0
M  V30 2285 C 217.507 -5.03345 -1.30154 0
M  V30 2286 C 215.192 -4.65713 -1.88194 0
M  V30 2287 C 217.186 -6.31511 -0.864416 0
M  V30 2288 C 214.873 -5.93869 -1.44093 0
M  V30 2289 C 215.871 -6.76597 -0.933023 0
M  V30 2290 O 215.559 -8.02354 -0.49838 0
M  V30 2291 H 215.291 -0.572372 -0.359675 0
M  V30 2292 H 217.845 -1.99511 -0.488311 0
M  V30 2293 H 216.075 -2.43383 -3.00502 0
M  V30 2294 H 217.764 -2.83946 -2.90051 0
M  V30 2295 H 218.53 -4.68819 -1.24232 0
M  V30 2296 H 214.409 -4.01424 -2.26671 0
M  V30 2297 H 217.953 -6.96033 -0.467286 0
M  V30 2298 H 213.85 -6.27903 -1.49694 0
M  V30 2299 H 214.618 -8.16135 -0.621747 0
M  V30 2300 N 217.281 0.66697 -1.42791 0
M  V30 2301 C 218.506 1.46004 -1.47301 0
M  V30 2302 C 218.931 1.87894 -0.0880317 0
M  V30 2303 O 218.289 1.56502 0.915253 0
M  V30 2304 C 218.337 2.68031 -2.41229 0
M  V30 2305 O 217.441 3.6659 -1.88906 0
M  V30 2306 H 216.782 0.43832 -0.49877 0
M  V30 2307 H 219.312 0.817391 -1.87563 0
M  V30 2308 H 219.322 3.1601 -2.58073 0
M  V30 2309 H 217.997 2.36883 -3.41847 0
M  V30 2310 H 216.574 3.25661 -1.81656 0
M  V30 2311 N 218.759 1.29093 0.90403 0
M  V30 2312 C 219.707 1.13727 2.02901 0
M  V30 2313 C 220.701 0.0539853 1.69314 0
M  V30 2314 O 221.907 0.213469 1.7873 0
M  V30 2315 H 218.282 0.35117 0.664969 0
M  V30 2316 H 220.253 2.08982 2.13001 0
M  V30 2317 C 219.002 0.826066 3.37745 0
M  V30 2318 H 218.325 1.65164 3.64089 0
M  V30 2319 H 219.765 0.758559 4.17159 0
M  V30 2320 C 218.224 -0.470541 3.33598 0
M  V30 2321 O 218.754 -1.49792 3.72727 0
M  V30 2322 N 216.96 -0.474812 2.86695 0
M  V30 2323 H 216.507 0.361692 2.55048 0
M  V30 2324 H 216.465 -1.34236 2.84303 0
M  V30 2325 N 220.237 -1.11381 1.11499 0
M  V30 2326 C 221.648 -1.6465 0.880191 0
M  V30 2327 C 221.999 -1.87199 -0.587434 0
M  V30 2328 O 221.124 -1.60667 -1.44966 0
M  V30 2329 C 221.719 -2.99105 1.59128 0
M  V30 2330 C 220.278 -3.49279 1.40289 0
M  V30 2331 C 219.425 -2.24077 1.63354 0
M  V30 2332 H 222.376 -0.950123 1.27116 0
M  V30 2333 H 222.397 -3.66107 1.03664 0
M  V30 2334 H 221.909 -2.82661 2.65941 0
M  V30 2335 H 220.01 -3.70887 0.356888 0
M  V30 2336 H 220.123 -4.2803 2.15238 0
M  V30 2337 H 218.487 -2.31733 1.05698 0
M  V30 2338 H 219.27 -2.10175 2.71443 0
M  V30 2339 N 221.715 -0.905404 -1.28997 0
M  V30 2340 C 222.678 -0.392253 -2.25819 0
M  V30 2341 C 223.678 0.476753 -1.5357 0
M  V30 2342 O 224.868 0.280994 -1.71919 0
M  V30 2343 C 222 0.438588 -3.38067 0
M  V30 2344 H 223.193 -1.24743 -2.72725 0
M  V30 2345 H 220.746 -0.684051 -1.40536 0
M  V30 2346 H 221.481 1.31352 -2.96508 0
M  V30 2347 H 221.266 -0.184167 -3.91667 0
M  V30 2348 H 222.756 0.78873 -4.10084 0
M  V30 2349 N 223.193 1.4272 -0.668489 0
M  V30 2350 C 224.156 2.292 0.00448567 0
M  V30 2351 C 225.156 1.43001 0.735339 0
M  V30 2352 O 226.346 1.64461 0.57429 0
M  V30 2353 C 223.478 3.25375 1.01705 0
M  V30 2354 H 224.671 2.90199 -0.756608 0
M  V30 2355 H 222.224 1.50254 -0.430506 0
M  V30 2356 H 222.959 2.69301 1.80686 0
M  V30 2357 H 222.744 3.88944 0.496463 0
M  V30 2358 H 224.234 3.90245 1.48655 0
M  V30 2359 N 224.671 0.411399 1.52136 0
M  V30 2360 C 225.92 -0.165009 2.01024 0
M  V30 2361 C 226.233 -1.4603 1.30133 0
M  V30 2362 O 227.439 -2.1181 1.69849 0
M  V30 2363 C 225.895 -0.344618 3.58246 0
M  V30 2364 C 225.503 0.938716 4.38055 0
M  V30 2365 C 227.247 -0.876195 4.15359 0
M  V30 2366 C 225.154 0.726172 5.86925 0
M  V30 2367 H 224.084 -0.0654407 0.751155 0
M  V30 2368 H 226.735 0.537192 1.75461 0
M  V30 2369 H 225.117 -1.10921 3.80148 0
M  V30 2370 H 226.291 1.70963 4.27912 0
M  V30 2371 H 224.606 1.39688 3.92271 0
M  V30 2372 H 227.203 -1.05128 5.24263 0
M  V30 2373 H 227.546 -1.85152 3.7286 0
M  V30 2374 H 228.079 -0.170607 3.97434 0
M  V30 2375 H 224.818 1.67312 6.33788 0
M  V30 2376 H 224.338 -0.00540283 5.998 0
M  V30 2377 H 226.017 0.369231 6.45946 0
M  V30 2378 N 226.149 -1.5696 0.141893 0
M  V30 2379 C 227.395 -1.9625 -0.511248 0
M  V30 2380 C 227.728 -1.02654 -1.64851 0
M  V30 2381 O 227.003 -0.0679676 -1.94381 0
M  V30 2382 C 227.286 -3.45285 -1.02227 0
M  V30 2383 C 227.139 -4.49658 0.113138 0
M  V30 2384 C 228.458 -3.96698 -1.90574 0
M  V30 2385 H 225.577 -0.713567 -0.184367 0
M  V30 2386 H 228.219 -1.88698 0.222087 0
M  V30 2387 H 226.369 -3.51852 -1.64719 0
M  V30 2388 H 228.041 -4.55174 0.749302 0
M  V30 2389 H 226.284 -4.26857 0.773026 0
M  V30 2390 H 226.955 -5.51258 -0.286053 0
M  V30 2391 H 229.431 -3.92578 -1.37918 0
M  V30 2392 H 228.307 -5.01453 -2.2324 0
M  V30 2393 H 228.568 -3.3875 -2.84079 0
M  V30 2394 N 227.627 0.131896 -1.57047 0
M  V30 2395 C 228.59 1.14638 -1.98471 0
M  V30 2396 C 229.59 1.35029 -0.873148 0
M  V30 2397 O 230.78 1.31764 -1.13946 0
M  V30 2398 C 227.912 2.50358 -2.31373 0
M  V30 2399 H 229.105 0.79064 -2.8929 0
M  V30 2400 H 226.658 0.375761 -1.51716 0
M  V30 2401 H 227.393 2.90876 -1.43393 0
M  V30 2402 H 227.178 2.36915 -3.12432 0
M  V30 2403 H 228.668 3.23395 -2.64207 0
M  V30 2404 N 229.106 1.52395 0.401703 0
M  V30 2405 C 230.016 1.7917 1.51444 0
M  V30 2406 C 231.032 0.677691 1.6026 0
M  V30 2407 O 232.208 0.963909 1.76835 0
M  V30 2408 C 229.273 1.94347 2.87107 0
M  V30 2409 C 228.334 3.18257 2.88116 0
M  V30 2410 C 227.567 3.32701 4.17308 0
M  V30 2411 O 227.79 2.52238 5.11598 0
M  V30 2412 O 226.724 4.25891 4.25324 0
M  V30 2413 H 230.55 2.73633 1.31752 0
M  V30 2414 H 228.135 1.3733 0.588296 0
M  V30 2415 H 230.017 2.06109 3.67555 0
M  V30 2416 H 228.692 1.03073 3.06851 0
M  V30 2417 H 227.599 3.11947 2.06494 0
M  V30 2418 H 228.932 4.09336 2.73322 0
M  V30 2419 N 230.584 -0.659388 1.43143 0
M  V30 2420 C 231.547 -1.75432 1.47501 0
M  V30 2421 C 232.547 -1.56707 0.360512 0
M  V30 2422 O 233.737 -1.62717 0.622002 0
M  V30 2423 C 230.869 -3.14239 1.32162 0
M  V30 2424 H 232.062 -1.7295 2.45006 0
M  V30 2425 H 229.615 -0.870469 1.29817 0
M  V30 2426 H 230.35 -3.22336 0.356401 0
M  V30 2427 H 230.135 -3.29235 2.12948 0
M  V30 2428 H 231.625 -3.94094 1.3813 0
M  V30 2429 N 232.062 -1.29571 -0.897171 0
M  V30 2430 C 233.29 -1.20583 -1.68129 0
M  V30 2431 C 233.705 0.233181 -1.87354 0
M  V30 2432 O 233.062 1.15579 -1.41236 0
M  V30 2433 C 233.113 -1.91772 -3.06441 0
M  V30 2434 O 232.834 -3.30053 -2.88091 0
M  V30 2435 C 234.335 -1.89291 -4.00854 0
M  V30 2436 H 231.555 -0.417826 -0.525036 0
M  V30 2437 H 234.099 -1.70987 -1.12177 0
M  V30 2438 H 232.254 -1.45196 -3.59161 0
M  V30 2439 H 232.668 -3.65942 -3.75748 0
M  V30 2440 H 234.142 -2.43662 -4.95311 0
M  V30 2441 H 234.619 -0.869014 -4.30517 0
M  V30 2442 H 235.225 -2.35622 -3.54066 0
M  V30 2443 N 233.54 1.10788 -1.12088 0
M  V30 2444 C 234.956 1.34691 -0.856186 0
M  V30 2445 C 235.156 1.94791 0.515615 0
M  V30 2446 O 234.212 2.18524 1.26505 0
M  V30 2447 C 235.525 2.27208 -1.9697 0
M  V30 2448 C 237.073 2.40755 -2.00016 0
M  V30 2449 C 237.548 3.36598 -3.1059 0
M  V30 2450 N 239.039 3.44164 -3.10008 0
M  V30 2451 C 239.774 4.18284 -3.92206 0
M  V30 2452 N 239.27 4.95322 -4.84384 0
M  V30 2453 N 241.063 4.13865 -3.80357 0
M  V30 2454 H 233.214 0.70144 -2.00483 0
M  V30 2455 H 235.477 0.371405 -0.872217 0
M  V30 2456 H 235.183 1.90251 -2.958 0
M  V30 2457 H 235.057 3.27485 -1.87172 0
M  V30 2458 H 237.444 2.76982 -1.01808 0
M  V30 2459 H 237.525 1.40305 -2.13888 0
M  V30 2460 H 237.169 3.01096 -4.09028 0
M  V30 2461 H 237.099 4.36918 -2.93956 0
M  V30 2462 H 239.59 2.8922 -2.43228 0
M  V30 2463 H 239.903 5.49267 -5.43623 0
M  V30 2464 H 238.248 4.94459 -4.884 0
M  V30 2465 H 241.439 3.52773 -3.07683 0
M  V30 2466 H 241.612 4.71372 -4.44649 0
M  V30 2467 N 235.018 0.912232 1.28515 0
M  V30 2468 C 236.434 0.610159 1.47476 0
M  V30 2469 C 236.634 -0.844955 1.82928 0
M  V30 2470 O 235.69 -1.62416 1.93332 0
M  V30 2471 C 237.003 1.54675 2.57868 0
M  V30 2472 C 238.551 1.55331 2.71738 0
M  V30 2473 C 239.026 2.47649 3.85272 0
M  V30 2474 N 240.517 2.45767 3.92623 0
M  V30 2475 C 241.252 3.13896 4.79851 0
M  V30 2476 N 240.748 3.9135 5.71679 0
M  V30 2477 N 242.541 3.02991 4.73448 0
M  V30 2478 H 234.692 1.85318 1.03783 0
M  V30 2479 H 236.955 0.794777 0.516753 0
M  V30 2480 H 236.661 2.5841 2.38574 0
M  V30 2481 H 236.535 1.27671 3.54937 0
M  V30 2482 H 238.922 0.52335 2.90422 0
M  V30 2483 H 239.003 1.86378 1.75205 0
M  V30 2484 H 238.647 3.50745 3.67342 0
M  V30 2485 H 238.577 2.13904 4.81199 0
M  V30 2486 H 241.068 1.89503 3.26951 0
M  V30 2487 H 241.381 4.40359 6.35062 0
M  V30 2488 H 239.726 3.95455 5.71524 0
M  V30 2489 H 242.917 2.41987 4.007 0
M  V30 2490 H 243.09 3.5636 5.41213 0
M  V30 2491 N 236.496 -1.42363 0.676048 0
M  V30 2492 C 237.426 -2.33497 0.0124832 0
M  V30 2493 C 238.407 -1.50748 -0.787981 0
M  V30 2494 O 239.592 -1.79346 -0.744884 0
M  V30 2495 C 236.722 -3.34377 -0.938582 0
M  V30 2496 C 235.676 -4.27289 -0.246622 0
M  V30 2497 C 235.002 -5.18386 -1.31071 0
M  V30 2498 C 236.302 -5.14916 0.875125 0
M  V30 2499 H 237.996 -2.89233 0.773593 0
M  V30 2500 H 235.542 -1.39073 0.37346 0
M  V30 2501 H 237.495 -3.97044 -1.41188 0
M  V30 2502 H 236.219 -2.76947 -1.73113 0
M  V30 2503 H 234.878 -3.66018 0.206456 0
M  V30 2504 H 234.526 -4.57282 -2.09528 0
M  V30 2505 H 234.226 -5.81378 -0.852839 0
M  V30 2506 H 235.75 -5.83929 -1.78492 0
M  V30 2507 H 237.164 -5.71262 0.482983 0
M  V30 2508 H 235.561 -5.86747 1.25887 0
M  V30 2509 H 236.631 -4.53242 1.72335 0
M  V30 2510 N 237.974 -0.419461 -1.51915 0
M  V30 2511 C 239.39 -0.0708431 -1.59443 0
M  V30 2512 C 239.59 1.41796 -1.43164 0
M  V30 2513 O 238.646 2.18596 -1.26381 0
M  V30 2514 C 239.959 -0.574991 -2.95151 0
M  V30 2515 C 241.507 -0.533867 -3.08413 0
M  V30 2516 C 241.982 -1.01469 -4.46618 0
M  V30 2517 N 243.473 -0.971939 -4.52888 0
M  V30 2518 C 244.208 -1.31505 -5.58116 0
M  V30 2519 N 243.704 -1.73014 -6.70849 0
M  V30 2520 N 245.497 -1.23436 -5.48379 0
M  V30 2521 H 237.648 -1.38836 -1.60743 0
M  V30 2522 H 239.911 -0.570998 -0.756747 0
M  V30 2523 H 239.617 -1.61597 -3.12377 0
M  V30 2524 H 239.491 0.00979777 -3.77199 0
M  V30 2525 H 241.878 0.498086 -2.90866 0
M  V30 2526 H 241.959 -1.15484 -2.28248 0
M  V30 2527 H 241.603 -2.04502 -4.6491 0
M  V30 2528 H 241.533 -0.370433 -5.25295 0
M  V30 2529 H 244.024 -0.666893 -3.71969 0
M  V30 2530 H 244.337 -1.97479 -7.47143 0
M  V30 2531 H 242.682 -1.76926 -6.72103 0
M  V30 2532 H 245.873 -0.908869 -4.59192 0
M  V30 2533 H 246.046 -1.50506 -6.30279 0
M  V30 2534 N 239.452 1.56882 -0.150215 0
M  V30 2535 C 240.863 1.82995 0.370076 0
M  V30 2536 C 241.214 1.06907 1.64515 0
M  V30 2537 O 240.339 0.315369 2.1409 0
M  V30 2538 C 240.934 3.31942 0.678208 0
M  V30 2539 C 239.493 3.58625 1.14301 0
M  V30 2540 C 238.64 2.76792 0.167778 0
M  V30 2541 H 241.591 1.54209 -0.374858 0
M  V30 2542 H 241.612 3.48272 1.53254 0
M  V30 2543 H 241.124 3.87294 -0.249991 0
M  V30 2544 H 239.225 3.08664 2.08704 0
M  V30 2545 H 239.338 4.67073 1.06676 0
M  V30 2546 H 237.702 2.45972 0.661037 0
M  V30 2547 H 238.485 3.34916 -0.754069 0
M  V30 2548 N 240.93 -0.123565 1.57115 0
M  V30 2549 C 241.878 -1.17082 2.00984 0
M  V30 2550 C 242.872 -1.43136 0.906009 0
M  V30 2551 O 244.078 -1.43152 1.09121 0
M  V30 2552 H 240.453 -0.394653 0.64012 0
M  V30 2553 H 242.424 -0.774292 2.88179 0
M  V30 2554 C 241.173 -2.49057 2.42623 0
M  V30 2555 H 240.496 -2.29846 3.27125 0
M  V30 2556 H 241.936 -3.20906 2.7712 0
M  V30 2557 C 240.395 -3.11305 1.28805 0
M  V30 2558 O 240.925 -3.97171 0.60153 0
M  V30 2559 N 239.131 -2.71111 1.04628 0
M  V30 2560 H 238.678 -2.01382 1.60634 0
M  V30 2561 H 238.636 -3.1309 0.286685 0
M  V30 2562 N 242.408 -1.52605 -0.393616 0
M  V30 2563 C 243.633 -1.71592 -1.16495 0
M  V30 2564 C 244.058 -0.43133 -1.83088 0
M  V30 2565 O 243.416 0.612523 -1.7064 0
M  V30 2566 C 243.464 -2.86318 -2.19213 0
M  V30 2567 O 242.568 -2.52969 -3.257 0
M  V30 2568 H 241.909 -0.570734 -0.33935 0
M  V30 2569 H 244.439 -1.99377 -0.459324 0
M  V30 2570 H 244.449 -3.1168 -2.63286 0
M  V30 2571 H 243.124 -3.79511 -1.7013 0
M  V30 2572 H 241.701 -2.38332 -2.86797 0
M  V30 2573 N 243.887 0.651787 -1.4349 0
M  V30 2574 C 244.834 1.76462 -1.4876 0
M  V30 2575 C 245.804 1.62641 -0.337189 0
M  V30 2576 O 246.989 1.82864 -0.544544 0
M  V30 2577 C 244.129 3.14623 -1.41796 0
M  V30 2578 C 243.242 3.39568 -2.67053 0
M  V30 2579 C 242.377 4.67585 -2.52068 0
M  V30 2580 C 241.416 4.85639 -3.72587 0
M  V30 2581 N 240.553 6.04915 -3.56402 0
M  V30 2582 H 245.393 1.71293 -2.43849 0
M  V30 2583 H 242.93 0.835889 -1.21043 0
M  V30 2584 H 244.888 3.94496 -1.35753 0
M  V30 2585 H 243.518 3.18859 -0.50288 0
M  V30 2586 H 242.57 2.53783 -2.8337 0
M  V30 2587 H 243.882 3.48795 -3.56572 0
M  V30 2588 H 243.036 5.55586 -2.4374 0
M  V30 2589 H 241.775 4.60681 -1.60075 0
M  V30 2590 H 240.78 3.96073 -3.81321 0
M  V30 2591 H 242.005 4.94372 -4.65589 0
M  V30 2592 H 239.951 5.9914 -2.67146 0
M  V30 2593 H 239.868 6.15106 -4.39524 0
M  V30 2594 H 241.136 6.95533 -3.51929 0
M  V30 2595 N 245.365 1.30045 0.890287 0
M  V30 2596 C 246.614 1.17929 1.63633 0
M  V30 2597 C 246.927 -0.266204 1.9378 0
M  V30 2598 O 248.133 -0.508804 2.6669 0
M  V30 2599 C 246.589 2.06317 2.94892 0
M  V30 2600 C 246.197 3.55745 2.72305 0
M  V30 2601 C 247.941 2.0295 3.72843 0
M  V30 2602 C 245.848 4.36205 3.99348 0
M  V30 2603 H 244.778 0.437782 0.613892 0
M  V30 2604 H 247.429 1.54754 0.986075 0
M  V30 2605 H 245.811 1.6237 3.61182 0
M  V30 2606 H 246.985 4.07805 2.1455 0
M  V30 2607 H 245.3 3.6088 2.07737 0
M  V30 2608 H 247.897 2.60319 4.67053 0
M  V30 2609 H 248.24 1.0117 4.0382 0
M  V30 2610 H 248.773 2.4499 3.13408 0
M  V30 2611 H 245.512 5.38659 3.73533 0
M  V30 2612 H 245.032 3.8891 4.56628 0
M  V30 2613 H 246.711 4.47362 4.67415 0
M  V30 2614 N 246.843 -1.10192 1.12674 0
M  V30 2615 C 247.773 -2.18652 0.819362 0
M  V30 2616 C 248.754 -1.68698 -0.217915 0
M  V30 2617 O 249.939 -1.94041 -0.0785581 0
M  V30 2618 C 247.069 -3.46202 0.27594 0
M  V30 2619 C 246.023 -4.09444 1.24656 0
M  V30 2620 C 245.349 -5.31725 0.563258 0
M  V30 2621 C 246.649 -4.52863 2.60217 0
M  V30 2622 H 248.343 -2.44622 1.72628 0
M  V30 2623 H 245.889 -1.17571 0.831451 0
M  V30 2624 H 247.842 -4.21372 0.0486149 0
M  V30 2625 H 246.566 -3.1973 -0.666331 0
M  V30 2626 H 245.225 -3.36284 1.45974 0
M  V30 2627 H 244.873 -5.0153 -0.384235 0
M  V30 2628 H 244.573 -5.74991 1.21075 0
M  V30 2629 H 246.097 -6.09624 0.34503 0
M  V30 2630 H 247.511 -5.19294 2.42913 0
M  V30 2631 H 245.908 -5.06986 3.21068 0
M  V30 2632 H 246.978 -3.65656 3.18471 0
M  V30 2633 N 248.321 -0.919034 -1.28029 0
M  V30 2634 C 249.269 -0.401753 -2.29104 0
M  V30 2635 C 250.263 0.509354 -1.61561 0
M  V30 2636 O 251.469 0.390014 -1.75724 0
M  V30 2637 H 247.844 -0.111331 -0.743713 0
M  V30 2638 H 249.815 -1.2672 -2.70156 0
M  V30 2639 C 248.564 0.338148 -3.46052 0
M  V30 2640 H 247.887 -0.353732 -3.98232 0
M  V30 2641 H 249.327 0.664653 -4.18758 0
M  V30 2642 C 247.786 1.54798 -2.99231 0
M  V30 2643 O 248.316 2.64696 -3.02157 0
M  V30 2644 N 246.522 1.3968 -2.54829 0
M  V30 2645 H 246.069 0.502698 -2.52647 0
M  V30 2646 H 246.027 2.20755 -2.23863 0
M  V30 2647 N 249.799 1.42003 -0.683588 0
M  V30 2648 C 251.048 2.00638 -0.206681 0
M  V30 2649 C 251.361 1.5472 1.19671 0
M  V30 2650 O 252.567 2.05833 1.77045 0
M  V30 2651 C 251.023 3.58487 -0.318632 0
M  V30 2652 C 250.631 4.1339 -1.72663 0
M  V30 2653 C 252.375 4.24384 0.0991141 0
M  V30 2654 C 250.282 5.63633 -1.79087 0
M  V30 2655 H 249.212 0.750408 -0.0735107 0
M  V30 2656 H 251.863 1.62624 -0.850048 0
M  V30 2657 H 250.245 3.94047 0.392781 0
M  V30 2658 H 251.419 3.89273 -2.46583 0
M  V30 2659 H 249.734 3.59976 -2.09299 0
M  V30 2660 H 252.331 5.34652 0.0713833 0
M  V30 2661 H 252.674 4.00505 1.13586 0
M  V30 2662 H 253.207 3.93816 -0.561599 0
M  V30 2663 H 249.946 5.92323 -2.80774 0
M  V30 2664 H 249.466 5.89714 -1.09535 0
M  V30 2665 H 251.145 6.28201 -1.5483 0
M  V30 2666 N 251.277 0.427512 1.51691 0
M  V30 2667 C 252.517 -0.141524 2.03909 0
M  V30 2668 C 252.881 -1.40811 1.30523 0
M  V30 2669 O 254.082 -2.05676 1.73063 0
M  V30 2670 C 252.353 -0.364962 3.55532 0
M  V30 2671 S 253.912 -0.898812 4.29496 0
M  V30 2672 H 250.73 -0.0364542 0.710065 0
M  V30 2673 H 253.332 0.584659 1.86553 0
M  V30 2674 H 252.036 0.56336 4.06515 0
M  V30 2675 H 251.567 -1.1185 3.77164 0
M  V30 2676 H 253.582 -2.17747 4.45871 0
M  V30 2677 N 252.755 -1.56801 0.158532 0
M  V30 2678 C 254.032 -1.88131 -0.535357 0
M  V30 2679 C 254.412 -1.06638 -1.82186 0
M  V30 2680 O 253.76 -0.156533 -2.27963 0
M  V30 2681 C 253.97 -3.39949 -0.789653 0
M  V30 2682 C 255.318 -4.09416 -1.12533 0
M  V30 2683 O 256.342 -3.45194 -0.878622 0
M  V30 2684 O 255.201 -5.22855 -1.59014 0
M  V30 2685 H 252.295 -0.780143 -0.27442 0
M  V30 2686 H 254.841 -1.68564 0.19601 0
M  V30 2687 H 253.613 -3.91115 0.120353 0
M  V30 2688 H 253.236 -3.65084 -1.57479 0
M  V30 2689 N 254.233 0.115231 -1.57178 0
M  V30 2690 C 255.166 1.17166 -1.95825 0
M  V30 2691 C 256.144 1.39912 -0.828463 0
M  V30 2692 O 257.328 1.54004 -1.08697 0
M  V30 2693 C 254.455 2.52478 -2.25771 0
M  V30 2694 C 253.501 2.46136 -3.48309 0
M  V30 2695 S 254.334 1.89736 -5.0076 0
M  V30 2696 C 255.49 3.26713 -5.33863 0
M  V30 2697 H 255.723 0.842103 -2.85124 0
M  V30 2698 H 253.256 0.322136 -1.51002 0
M  V30 2699 H 255.214 3.30332 -2.43702 0
M  V30 2700 H 253.875 2.82609 -1.37079 0
M  V30 2701 H 253.068 3.45819 -3.66641 0
M  V30 2702 H 252.67 1.76404 -3.29784 0
M  V30 2703 H 254.962 4.22935 -5.29275 0
M  V30 2704 H 255.905 3.13205 -6.35065 0
M  V30 2705 H 256.313 3.25316 -4.61335 0
M  V30 2706 N 255.711 1.52812 0.385517 0
M  V30 2707 C 257.122 1.5993 0.963293 0
M  V30 2708 C 257.473 0.454302 1.90868 0
M  V30 2709 O 256.598 -0.422132 2.12243 0
M  V30 2710 C 257.193 2.89871 1.75387 0
M  V30 2711 C 255.752 2.99389 2.28129 0
M  V30 2712 C 254.899 2.55071 1.08783 0
M  V30 2713 H 257.85 1.5784 0.164948 0
M  V30 2714 H 257.871 2.76553 2.61341 0
M  V30 2715 H 257.383 3.73186 1.06554 0
M  V30 2716 H 255.484 2.20619 3.00263 0
M  V30 2717 H 255.597 4.04096 2.57377 0
M  V30 2718 H 253.961 2.09473 1.4489 0
M  V30 2719 H 254.744 3.40785 0.414807 0
M  V30 2720 N 257.189 -0.644168 1.43834 0
M  V30 2721 C 258.435 -1.40603 1.46146 0
M  V30 2722 C 258.768 -1.93997 0.0887717 0
M  V30 2723 O 258.043 -1.72854 -0.891724 0
M  V30 2724 C 258.326 -2.58086 2.51124 0
M  V30 2725 C 258.179 -2.10126 3.97702 0
M  V30 2726 C 259.498 -3.60291 2.52742 0
M  V30 2727 H 256.617 -0.509905 0.532134 0
M  V30 2728 H 259.259 -0.729502 1.75437 0
M  V30 2729 H 257.409 -3.15801 2.26278 0
M  V30 2730 H 259.081 -1.57342 4.33637 0
M  V30 2731 H 257.324 -1.41419 4.10101 0
M  V30 2732 H 257.995 -2.94649 4.66783 0
M  V30 2733 H 260.471 -3.12352 2.7491 0
M  V30 2734 H 259.347 -4.40032 3.28121 0
M  V30 2735 H 259.608 -4.1349 1.56455 0
M  V30 2736 N 258.668 -1.30515 -0.883378 0
M  V30 2737 C 259.916 -1.19194 -1.63209 0
M  V30 2738 C 260.237 0.253205 -1.93349 0
M  V30 2739 O 259.507 1.17025 -1.57105 0
M  V30 2740 H 258.087 -0.438148 -0.605009 0
M  V30 2741 H 260.749 -1.63663 -1.05832 0
M  V30 2742 H 259.845 -1.75396 -2.58153 0
M  V30 2743 N 260.146 1.09593 -1.13257 0
M  V30 2744 C 261.395 1.81105 -0.887917 0
M  V30 2745 C 261.708 1.86563 0.587672 0
M  V30 2746 O 262.914 2.54367 0.949204 0
M  V30 2747 C 261.37 3.25338 -1.53895 0
M  V30 2748 C 260.978 3.28151 -3.04994 0
M  V30 2749 C 262.722 4.01617 -1.37492 0
M  V30 2750 C 260.629 4.66897 -3.6299 0
M  V30 2751 H 259.559 0.678661 -0.328534 0
M  V30 2752 H 262.21 1.23183 -1.36008 0
M  V30 2753 H 260.592 3.8331 -0.994446 0
M  V30 2754 H 261.766 2.79953 -3.66009 0
M  V30 2755 H 260.081 2.65361 -3.20893 0
M  V30 2756 H 262.678 5.04119 -1.78235 0
M  V30 2757 H 263.021 4.15072 -0.31957 0
M  V30 2758 H 263.554 3.50082 -1.88912 0
M  V30 2759 H 260.293 4.58643 -4.68323 0
M  V30 2760 H 259.813 5.15426 -3.06752 0
M  V30 2761 H 261.492 5.3587 -3.62563 0
M  V30 2762 N 261.624 0.925811 1.2754 0
M  V30 2763 C 262.534 0.428993 2.30644 0
M  V30 2764 C 263.55 -0.489387 1.66976 0
M  V30 2765 O 264.726 -0.372653 1.97922 0
M  V30 2766 C 261.791 -0.311967 3.45294 0
M  V30 2767 C 260.852 0.641098 4.24486 0
M  V30 2768 C 260.085 -0.0645955 5.33661 0
M  V30 2769 O 260.308 -1.28429 5.55754 0
M  V30 2770 O 259.242 0.606265 5.98839 0
M  V30 2771 H 263.068 1.28504 2.75173 0
M  V30 2772 H 260.653 0.691086 1.32455 0
M  V30 2773 H 262.535 -0.729972 4.15029 0
M  V30 2774 H 261.21 -1.14365 3.02824 0
M  V30 2775 H 260.117 1.10874 3.57292 0
M  V30 2776 H 261.45 1.43995 4.70666 0
M  V30 2777 N 263.102 -1.41638 0.69111 0
M  V30 2778 C 264.379 -1.95036 0.148421 0
M  V30 2779 C 264.759 -1.63072 -1.34055 0
M  V30 2780 O 264.107 -0.93538 -2.08478 0
M  V30 2781 C 264.317 -3.46279 0.434951 0
M  V30 2782 C 265.665 -4.23069 0.360275 0
M  V30 2783 O 266.689 -3.54277 0.369613 0
M  V30 2784 O 265.548 -5.45583 0.316534 0
M  V30 2785 H 262.642 -0.826908 0.0123654 0
M  V30 2786 H 265.188 -1.5138 0.766963 0
M  V30 2787 H 263.96 -3.6281 1.46576 0
M  V30 2788 H 263.583 -3.97019 -0.214787 0
M  V30 2789 N 264.58 -0.43555 -1.51462 0
M  V30 2790 C 265.996 -0.0877501 -1.59359 0
M  V30 2791 C 266.196 1.4027 -1.4466 0
M  V30 2792 O 265.252 2.17243 -1.28693 0
M  V30 2793 C 266.565 -0.606264 -2.94525 0
M  V30 2794 C 268.113 -0.566548 -3.0783 0
M  V30 2795 C 268.588 -1.06201 -4.45517 0
M  V30 2796 N 270.079 -1.01992 -4.51832 0
M  V30 2797 C 270.814 -1.37417 -5.5669 0
M  V30 2798 N 270.31 -1.80119 -6.68976 0
M  V30 2799 N 272.103 -1.29245 -5.47039 0
M  V30 2800 H 264.254 -1.40533 -1.59261 0
M  V30 2801 H 266.517 -0.578992 -0.750648 0
M  V30 2802 H 266.223 -1.64901 -3.10645 0
M  V30 2803 H 266.097 -0.0302097 -3.77188 0
M  V30 2804 H 268.484 0.467208 -2.91378 0
M  V30 2805 H 268.565 -1.17898 -2.2701 0
M  V30 2806 H 268.209 -2.09422 -4.62715 0
M  V30 2807 H 268.139 -0.426127 -5.24873 0
M  V30 2808 H 270.63 -0.706308 -3.71241 0
M  V30 2809 H 270.943 -2.05392 -7.45006 0
M  V30 2810 H 269.288 -1.84044 -6.70189 0
M  V30 2811 H 272.479 -0.957522 -4.58202 0
M  V30 2812 H 272.652 -1.57182 -6.28648 0
M  V30 2813 N 266.058 1.56714 -0.166846 0
M  V30 2814 C 266.991 2.13577 0.80375 0
M  V30 2815 C 267.969 1.06464 1.22899 0
M  V30 2816 O 269.153 1.34413 1.32157 0
M  V30 2817 C 266.28 2.67168 2.0818 0
M  V30 2818 C 265.326 3.86612 1.80093 0
M  V30 2819 S 266.159 5.26565 0.97416 0
M  V30 2820 C 267.315 5.83558 2.26297 0
M  V30 2821 H 267.548 2.9557 0.320267 0
M  V30 2822 H 265.081 1.54326 0.0477555 0
M  V30 2823 H 267.039 2.98692 2.8159 0
M  V30 2824 H 265.7 1.85269 2.53642 0
M  V30 2825 H 264.893 4.22422 2.7491 0
M  V30 2826 H 264.495 3.55951 1.14781 0
M  V30 2827 H 266.787 5.962 3.21795 0
M  V30 2828 H 267.73 6.80731 1.94962 0
M  V30 2829 H 268.138 5.11944 2.37853 0
M  V30 2830 N 267.536 -0.106894 1.57237 0
M  V30 2831 C 268.499 -1.11466 2.0027 0
M  V30 2832 C 269.499 -1.33623 0.894519 0
M  V30 2833 O 270.689 -1.29935 1.16028 0
M  V30 2834 C 267.821 -2.46646 2.35327 0
M  V30 2835 H 269.014 -0.744516 2.90512 0
M  V30 2836 H 266.567 -0.351576 1.52295 0
M  V30 2837 H 267.302 -2.88558 1.48003 0
M  V30 2838 H 267.087 -2.31915 3.16161 0
M  V30 2839 H 268.577 -3.19151 2.69318 0
M  V30 2840 N 269.014 -1.53014 -0.377408 0
M  V30 2841 C 269.946 -1.74884 -1.48149 0
M  V30 2842 C 270.959 -0.629433 -1.5014 0
M  V30 2843 O 272.148 -0.905416 -1.53833 0
M  V30 2844 C 269.248 -1.80299 -2.86959 0
M  V30 2845 C 268.421 -3.09776 -3.08801 0
M  V30 2846 C 267.48 -3.06586 -4.27658 0
M  V30 2847 O 266.506 -3.80419 -4.23403 0
M  V30 2848 N 267.708 -2.26578 -5.34455 0
M  V30 2849 H 270.473 -2.70147 -1.29771 0
M  V30 2850 H 268.034 -1.51646 -0.56703 0
M  V30 2851 H 270.026 -1.75657 -3.64591 0
M  V30 2852 H 268.596 -0.92372 -2.98641 0
M  V30 2853 H 267.816 -3.27815 -2.18931 0
M  V30 2854 H 269.104 -3.95366 -3.20255 0
M  V30 2855 H 268.502 -1.66081 -5.40771 0
M  V30 2856 H 267.059 -2.27766 -6.10709 0
M  V30 2857 N 270.492 0.636531 -1.44174 0
M  V30 2858 C 271.741 1.39213 -1.45954 0
M  V30 2859 C 272.054 1.95374 -0.0939119 0
M  V30 2860 O 273.26 2.71498 0.0107767 0
M  V30 2861 C 271.716 2.52025 -2.56927 0
M  V30 2862 C 271.324 2.024 -3.99673 0
M  V30 2863 C 273.068 3.29269 -2.67922 0
M  V30 2864 C 270.975 3.12521 -5.0208 0
M  V30 2865 H 269.905 0.523132 -0.542999 0
M  V30 2866 H 272.556 0.685349 -1.70221 0
M  V30 2867 H 270.938 3.25253 -2.25891 0
M  V30 2868 H 272.112 1.36073 -4.40251 0
M  V30 2869 H 270.427 1.37987 -3.92872 0
M  V30 2870 H 273.024 4.11352 -3.41605 0
M  V30 2871 H 273.367 3.78397 -1.73555 0
M  V30 2872 H 273.9 2.63129 -2.98342 0
M  V30 2873 H 270.639 2.68343 -5.98057 0
M  V30 2874 H 270.159 3.77507 -4.66099 0
M  V30 2875 H 271.838 3.77385 -5.25538 0
M  V30 2876 N 271.97 1.30982 0.876444 0
M  V30 2877 C 272.9 1.20668 1.99903 0
M  V30 2878 C 273.881 0.095354 1.69833 0
M  V30 2879 O 275.066 0.27885 1.92188 0
M  V30 2880 C 272.196 0.90655 3.3526 0
M  V30 2881 C 271.15 1.97675 3.79617 0
M  V30 2882 C 270.476 1.52943 5.1236 0
M  V30 2883 C 271.776 3.389 3.97422 0
M  V30 2884 H 273.47 2.14586 2.0879 0
M  V30 2885 H 271.016 1.03308 1.00317 0
M  V30 2886 H 272.969 0.821025 4.13324 0
M  V30 2887 H 271.693 -0.0682969 3.26529 0
M  V30 2888 H 270.352 2.05205 3.03787 0
M  V30 2889 H 270 0.54262 5.00065 0
M  V30 2890 H 269.7 2.24532 5.43009 0
M  V30 2891 H 271.224 1.45786 5.92941 0
M  V30 2892 H 272.638 3.34081 4.659 0
M  V30 2893 H 271.035 4.0865 4.3946 0
M  V30 2894 H 272.105 3.80163 3.01006 0
M  V30 2895 N 273.449 -1.08991 1.13837 0
M  V30 2896 C 274.697 -1.80899 0.901098 0
M  V30 2897 C 275.018 -1.86356 -0.574134 0
M  V30 2898 O 274.288 -1.35235 -1.41733 0
M  V30 2899 H 272.868 -0.669966 0.330386 0
M  V30 2900 H 275.53 -1.318 1.43578 0
M  V30 2901 H 274.626 -2.83929 1.29578 0
M  V30 2902 N 274.927 -0.932562 -1.27047 0
M  V30 2903 C 275.857 -0.452902 -2.29066 0
M  V30 2904 C 276.838 0.489338 -1.62909 0
M  V30 2905 O 278.023 0.393046 -1.90181 0
M  V30 2906 C 275.153 0.290698 -3.46081 0
M  V30 2907 C 274.107 -0.564168 -4.24265 0
M  V30 2908 C 273.433 0.308886 -5.33807 0
M  V30 2909 C 274.733 -1.83112 -4.89149 0
M  V30 2910 H 276.427 -1.30552 -2.69437 0
M  V30 2911 H 273.973 -0.629201 -1.29526 0
M  V30 2912 H 275.926 0.637233 -4.16554 0
M  V30 2913 H 274.65 1.17738 -3.0464 0
M  V30 2914 H 273.309 -0.893477 -3.55545 0
M  V30 2915 H 272.957 1.19467 -4.88607 0
M  V30 2916 H 272.657 -0.259633 -5.87026 0
M  V30 2917 H 274.181 0.650884 -6.07121 0
M  V30 2918 H 275.595 -1.55236 -5.51883 0
M  V30 2919 H 273.992 -2.34353 -5.52448 0
M  V30 2920 H 275.062 -2.54772 -4.12576 0
M  V30 2921 N 276.405 1.4127 -0.698611 0
M  V30 2922 C 277.63 2.06024 -0.238512 0
M  V30 2923 C 278.055 1.5224 1.10475 0
M  V30 2924 O 277.413 0.650623 1.69223 0
M  V30 2925 C 277.461 3.59988 -0.209952 0
M  V30 2926 O 276.565 4.04282 0.814235 0
M  V30 2927 H 275.906 0.653829 -0.115775 0
M  V30 2928 H 278.436 1.8098 -0.954326 0
M  V30 2929 H 278.446 4.07979 -0.0418436 0
M  V30 2930 H 277.121 3.98503 -1.1903 0
M  V30 2931 H 275.698 3.6779 0.615234 0
M  V30 2932 N 277.883 0.443576 1.51229 0
M  V30 2933 C 279.108 -0.121648 2.07043 0
M  V30 2934 C 279.533 -1.35156 1.30823 0
M  V30 2935 O 278.891 -1.7793 0.347934 0
M  V30 2936 C 278.939 -0.41624 3.5819 0
M  V30 2937 O 278.043 -1.50163 3.8409 0
M  V30 2938 H 277.384 0.000871367 0.663999 0
M  V30 2939 H 279.914 0.626706 1.94765 0
M  V30 2940 H 279.924 -0.664867 4.02546 0
M  V30 2941 H 278.599 0.482653 4.1309 0
M  V30 2942 H 277.176 -1.24248 3.51592 0
M  V30 2943 N 279.361 -1.56624 0.175154 0
M  V30 2944 C 280.777 -1.58571 -0.180966 0
M  V30 2945 C 280.977 -1.19065 -1.6256 0
M  V30 2946 O 280.033 -0.904044 -2.35761 0
M  V30 2947 C 281.346 -3.00522 0.103326 0
M  V30 2948 C 282.894 -3.12972 0.0418426 0
M  V30 2949 C 283.369 -4.57022 0.299175 0
M  V30 2950 N 284.86 -4.62541 0.247086 0
M  V30 2951 C 285.595 -5.71857 0.420318 0
M  V30 2952 N 285.091 -6.89717 0.652816 0
M  V30 2953 N 286.884 -5.60972 0.355957 0
M  V30 2954 H 279.035 -1.80589 1.11809 0
M  V30 2955 H 281.298 -0.837178 0.444788 0
M  V30 2956 H 281.004 -3.33916 1.10422 0
M  V30 2957 H 280.878 -3.72344 -0.603299 0
M  V30 2958 H 283.265 -2.79403 -0.949636 0
M  V30 2959 H 283.346 -2.43578 0.781238 0
M  V30 2960 H 282.99 -4.913 1.28788 0
M  V30 2961 H 282.92 -5.24579 -0.460876 0
M  V30 2962 H 285.411 -3.77829 0.0731895 0
M  V30 2963 H 285.724 -7.68911 0.774347 0
M  V30 2964 H 284.069 -6.91572 0.689476 0
M  V30 2965 H 287.26 -4.67773 0.174882 0
M  V30 2966 H 287.433 -6.46111 0.494388 0
M  V30 2967 N 280.839 0.0985539 -1.57292 0
M  V30 2968 C 281.786 1.11981 -2.01814 0
M  V30 2969 C 282.756 1.39999 -0.89384 0
M  V30 2970 O 283.941 1.5152 -1.15958 0
M  V30 2971 C 281.081 2.43577 -2.44467 0
M  V30 2972 C 280.194 2.2232 -3.70402 0
M  V30 2973 C 279.329 3.4729 -4.01949 0
M  V30 2974 C 278.368 3.2128 -5.21005 0
M  V30 2975 N 277.505 4.38507 -5.48321 0
M  V30 2976 H 282.345 0.733149 -2.88841 0
M  V30 2977 H 279.882 0.350482 -1.42864 0
M  V30 2978 H 281.84 3.20373 -2.6724 0
M  V30 2979 H 280.47 2.80097 -1.60455 0
M  V30 2980 H 279.522 1.36343 -3.55126 0
M  V30 2981 H 280.834 1.99089 -4.57345 0
M  V30 2982 H 279.988 4.32495 -4.25479 0
M  V30 2983 H 278.727 3.73572 -3.13521 0
M  V30 2984 H 277.732 2.34468 -4.97298 0
M  V30 2985 H 278.957 2.96348 -6.11028 0
M  V30 2986 H 276.903 4.64871 -4.62851 0
M  V30 2987 H 276.82 4.18455 -6.29628 0
M  V30 2988 H 278.088 5.24787 -5.76385 0
M  V30 2989 N 282.317 1.53212 0.369288 0
M  V30 2990 C 283.227 1.82342 1.47609 0
M  V30 2991 C 284.243 0.711532 1.58787 0
M  V30 2992 O 285.419 1.0012 1.74751 0
M  V30 2993 C 282.484 2.00393 2.8292 0
M  V30 2994 C 281.545 3.24297 2.81301 0
M  V30 2995 C 280.778 3.41478 4.10157 0
M  V30 2996 O 281.001 2.63033 5.06132 0
M  V30 2997 O 279.935 4.34817 4.16194 0
M  V30 2998 H 283.761 2.76366 1.25918 0
M  V30 2999 H 281.346 1.38547 0.559034 0
M  V30 3000 H 283.228 2.13859 3.63101 0
M  V30 3001 H 281.903 1.09559 3.04596 0
M  V30 3002 H 280.81 3.16257 1.99831 0
M  V30 3003 H 282.143 4.15041 2.64578 0
M  V30 3004 N 283.795 -0.628877 1.44509 0
M  V30 3005 C 284.728 -1.75367 1.46019 0
M  V30 3006 C 285.706 -1.59444 0.318787 0
M  V30 3007 O 286.89 -1.81297 0.516099 0
M  V30 3008 C 284.017 -3.12965 1.29501 0
M  V30 3009 C 283.063 -3.47532 2.47233 0
M  V30 3010 S 283.896 -3.44758 4.09758 0
M  V30 3011 C 285.052 -4.84973 3.95667 0
M  V30 3012 H 285.285 -1.7382 2.41193 0
M  V30 3013 H 282.818 -0.803686 1.31834 0
M  V30 3014 H 284.776 -3.92367 1.20658 0
M  V30 3015 H 283.437 -3.12049 0.358341 0
M  V30 3016 H 282.63 -4.47664 2.31544 0
M  V30 3017 H 282.232 -2.75598 2.52828 0
M  V30 3018 H 284.524 -5.74255 3.59496 0
M  V30 3019 H 285.467 -5.05716 4.95638 0
M  V30 3020 H 285.875 -4.59653 3.27688 0
M  V30 3021 N 285.273 -1.31445 -0.869486 0
M  V30 3022 C 286.22 -1.19135 -1.97675 0
M  V30 3023 C 287.19 -0.0770266 -1.65921 0
M  V30 3024 O 288.375 -0.249972 -1.89155 0
M  V30 3025 C 285.515 -0.905149 -3.33018 0
M  V30 3026 C 284.628 -2.10285 -3.77365 0
M  V30 3027 C 283.763 -1.75339 -5.01427 0
M  V30 3028 C 282.802 -2.91515 -5.38224 0
M  V30 3029 N 281.939 -2.56762 -6.53466 0
M  V30 3030 H 286.779 -2.13853 -2.07535 0
M  V30 3031 H 284.316 -1.06379 -1.01597 0
M  V30 3032 H 286.274 -0.719765 -4.10944 0
M  V30 3033 H 284.904 0.00519624 -3.228 0
M  V30 3034 H 283.956 -2.39899 -2.95216 0
M  V30 3035 H 285.268 -2.97237 -4.00564 0
M  V30 3036 H 284.422 -1.53266 -5.87022 0
M  V30 3037 H 283.161 -0.855801 -4.80133 0
M  V30 3038 H 282.166 -3.14237 -4.51149 0
M  V30 3039 H 283.391 -3.81985 -5.61484 0
M  V30 3040 H 281.337 -1.69526 -6.33717 0
M  V30 3041 H 281.254 -3.37243 -6.76612 0
M  V30 3042 H 282.522 -2.38083 -7.42251 0
M  V30 3043 N 286.751 1.08385 -1.14413 0
M  V30 3044 C 287.997 1.81044 -0.913834 0
M  V30 3045 C 288.33 1.86004 0.558209 0
M  V30 3046 O 287.605 1.33606 1.4135 0
M  V30 3047 C 287.888 3.26648 -1.51569 0
M  V30 3048 C 287.741 3.29895 -3.0576 0
M  V30 3049 C 289.06 4.23629 -1.19273 0
M  V30 3050 H 286.179 0.65727 -0.333414 0
M  V30 3051 H 288.821 1.26896 -1.41412 0
M  V30 3052 H 286.971 3.72889 -1.09023 0
M  V30 3053 H 288.643 2.91977 -3.57137 0
M  V30 3054 H 286.886 2.69163 -3.40197 0
M  V30 3055 H 287.557 4.32516 -3.42977 0
M  V30 3056 H 290.033 3.85727 -1.56057 0
M  V30 3057 H 288.909 5.23822 -1.64017 0
M  V30 3058 H 289.17 4.41968 -0.108068 0
M  V30 3059 N 288.23 0.939286 1.26551 0
M  V30 3060 C 289.646 0.641304 1.46149 0
M  V30 3061 C 289.846 -0.805964 1.84679 0
M  V30 3062 O 288.902 -1.58278 1.96734 0
M  V30 3063 C 290.215 1.6011 2.54529 0
M  V30 3064 C 291.763 1.6106 2.68382 0
M  V30 3065 C 292.238 2.55765 3.79932 0
M  V30 3066 N 293.729 2.5404 3.87322 0
M  V30 3067 C 294.464 3.24004 4.73085 0
M  V30 3068 N 293.96 4.03388 5.63249 0
M  V30 3069 N 295.753 3.12965 4.66914 0
M  V30 3070 H 287.904 1.87478 0.998285 0
M  V30 3071 H 290.167 0.805559 0.499779 0
M  V30 3072 H 289.873 2.63412 2.33039 0
M  V30 3073 H 289.747 1.35171 3.52149 0
M  V30 3074 H 292.134 0.584835 2.89247 0
M  V30 3075 H 292.215 1.90053 1.71212 0
M  V30 3076 H 291.859 3.58458 3.5982 0
M  V30 3077 H 291.789 2.24063 4.76554 0
M  V30 3078 H 294.28 1.96396 3.22858 0
M  V30 3079 H 294.593 4.5373 6.25579 0
M  V30 3080 H 292.938 4.07489 5.63008 0
M  V30 3081 H 296.129 2.50432 3.95476 0
M  V30 3082 H 296.302 3.67759 5.33533 0
M  V30 3083 N 289.708 -1.40897 0.706093 0
M  V30 3084 C 290.938 -2.05075 0.250523 0
M  V30 3085 C 291.346 -1.53275 -1.10921 0
M  V30 3086 O 290.689 -0.680281 -1.7064 0
M  V30 3087 C 290.751 -3.59219 0.142178 0
M  V30 3088 C 290.415 -4.33864 1.43566 0
M  V30 3089 C 291.412 -4.62448 2.37566 0
M  V30 3090 C 289.097 -4.72946 1.69195 0
M  V30 3091 C 291.091 -5.29088 3.5545 0
M  V30 3092 C 288.778 -5.3932 2.87362 0
M  V30 3093 C 289.776 -5.6732 3.80312 0
M  V30 3094 O 289.464 -6.32325 4.96408 0
M  V30 3095 H 289.196 -0.666645 0.112074 0
M  V30 3096 H 291.75 -1.81467 0.962239 0
M  V30 3097 H 289.98 -3.81609 -0.6254 0
M  V30 3098 H 291.669 -4.0495 -0.277584 0
M  V30 3099 H 292.435 -4.32727 2.19027 0
M  V30 3100 H 288.314 -4.50527 0.977042 0
M  V30 3101 H 291.858 -5.50859 4.28018 0
M  V30 3102 H 287.755 -5.68461 3.05814 0
M  V30 3103 H 288.523 -6.50821 4.9636 0
M  V30 3104 N 291.186 -0.45159 -1.50991 0
M  V30 3105 C 292.416 0.108177 -2.06317 0
M  V30 3106 C 292.824 1.35774 -1.31765 0
M  V30 3107 O 292.167 1.79838 -0.374694 0
M  V30 3108 C 292.229 0.481659 -3.56259 0
M  V30 3109 C 291.893 -0.663114 -4.52163 0
M  V30 3110 C 292.89 -1.53947 -4.96585 0
M  V30 3111 C 290.575 -0.8479 -4.95092 0
M  V30 3112 C 292.569 -2.58518 -5.82621 0
M  V30 3113 C 290.256 -1.89686 -5.80915 0
M  V30 3114 C 291.254 -2.76388 -6.24579 0
M  V30 3115 O 290.942 -3.79482 -7.08695 0
M  V30 3116 H 290.674 0.00499183 -0.675982 0
M  V30 3117 H 293.228 -0.633659 -1.95381 0
M  V30 3118 H 291.458 1.27641 -3.65027 0
M  V30 3119 H 293.147 0.974233 -3.94035 0
M  V30 3120 H 293.913 -1.4083 -4.64103 0
M  V30 3121 H 289.792 -0.18258 -4.60638 0
M  V30 3122 H 293.336 -3.26224 -6.16623 0
M  V30 3123 H 289.233 -2.02817 -6.12809 0
M  V30 3124 H 290.001 -3.76234 -7.26905 0
M  V30 3125 N 292.664 1.56529 -0.183458 0
M  V30 3126 C 293.912 1.96855 0.457452 0
M  V30 3127 C 294.233 1.07104 1.62953 0
M  V30 3128 O 293.503 0.139887 1.954 0
M  V30 3129 H 292.083 0.72693 0.171992 0
M  V30 3130 H 294.745 1.93056 -0.267476 0
M  V30 3131 H 293.841 3.01423 0.809368 0
M  V30 3132 N 294.142 -0.090211 1.57342 0
M  V30 3133 C 295.072 -1.10976 2.05443 0
M  V30 3134 C 296.053 -1.41482 0.944284 0
M  V30 3135 O 297.238 -1.51428 1.21586 0
M  V30 3136 C 294.368 -2.42831 2.48295 0
M  V30 3137 C 293.322 -2.26721 3.63018 0
M  V30 3138 C 292.648 -3.63796 3.91863 0
M  V30 3139 C 293.948 -1.7037 4.93732 0
M  V30 3140 H 295.642 -0.709564 2.9087 0
M  V30 3141 H 293.188 -0.339874 1.39932 0
M  V30 3142 H 295.141 -3.14431 2.80555 0
M  V30 3143 H 293.865 -2.84795 1.59873 0
M  V30 3144 H 292.524 -1.57565 3.31012 0
M  V30 3145 H 292.172 -4.03297 3.00601 0
M  V30 3146 H 291.872 -3.53861 4.69101 0
M  V30 3147 H 293.396 -4.36855 4.26603 0
M  V30 3148 H 294.81 -2.31816 5.24342 0
M  V30 3149 H 293.207 -1.71181 5.75167 0
M  V30 3150 H 294.277 -0.663542 4.80339 0
M  V30 3151 N 295.62 -1.53406 -0.361157 0
M  V30 3152 C 296.568 -1.80832 -1.46296 0
M  V30 3153 C 297.562 -0.677699 -1.55253 0
M  V30 3154 O 298.768 -0.860723 -1.58087 0
M  V30 3155 H 295.143 -0.572627 -0.487445 0
M  V30 3156 H 297.114 -2.73045 -1.20371 0
M  V30 3157 C 295.863 -2.01907 -2.8307 0
M  V30 3158 H 295.186 -2.88349 -2.76938 0
M  V30 3159 H 296.626 -2.25072 -3.59331 0
M  V30 3160 C 295.085 -0.799449 -3.27277 0
M  V30 3161 O 295.615 0.00971761 -4.01699 0
M  V30 3162 N 293.821 -0.621637 -2.83873 0
M  V30 3163 H 293.368 -1.28126 -2.23476 0
M  V30 3164 H 293.326 0.19298 -3.13807 0
M  V30 3165 N 297.098 0.621204 -1.44841 0
M  V30 3166 C 298.048 1.72663 -1.48901 0
M  V30 3167 C 299.032 1.56964 -0.353702 0
M  V30 3168 O 300.224 1.66532 -0.599669 0
M  V30 3169 C 297.353 3.11381 -1.44557 0
M  V30 3170 C 296.439 3.32514 -2.6324 0
M  V30 3171 N 296.83 3.23969 -3.8843 0
M  V30 3172 C 295.128 3.63343 -2.58647 0
M  V30 3173 C 295.829 3.46062 -4.67564 0
M  V30 3174 N 294.805 3.69407 -3.98797 0
M  V30 3175 H 298.607 1.64529 -2.43531 0
M  V30 3176 H 296.121 0.82401 -1.39942 0
M  V30 3177 H 298.118 3.90667 -1.4555 0
M  V30 3178 H 296.778 3.20674 -0.509731 0
M  V30 3179 H 297.789 3.02669 -4.20252 0
M  V30 3180 H 294.466 3.79556 -1.73906 0
M  V30 3181 H 295.856 3.44963 -5.76585 0
M  V30 3182 N 298.576 1.31904 0.862503 0
M  V30 3183 C 299.823 1.22017 1.61611 0
M  V30 3184 C 300.151 -0.21991 1.93253 0
M  V30 3185 O 299.406 -1.17076 1.56817 0
M  V30 3186 C 299.705 2.01713 2.95037 0
M  V30 3187 C 299.371 3.51145 2.82857 0
M  V30 3188 C 298.033 3.91889 2.79243 0
M  V30 3189 C 300.385 4.46204 2.69353 0
M  V30 3190 C 297.713 5.25947 2.59993 0
M  V30 3191 C 300.065 5.80397 2.5164 0
M  V30 3192 C 298.729 6.20352 2.46413 0
M  V30 3193 H 297.999 0.44649 0.591378 0
M  V30 3194 H 300.646 1.63248 1.00111 0
M  V30 3195 H 298.951 1.53185 3.60613 0
M  V30 3196 H 300.648 1.91437 3.52353 0
M  V30 3197 H 297.238 3.1878 2.86491 0
M  V30 3198 H 301.422 4.15652 2.71196 0
M  V30 3199 H 296.678 5.5597 2.54376 0
M  V30 3200 H 300.852 6.53676 2.40169 0
M  V30 3201 H 298.479 7.24172 2.31256 0
M  V30 3202 N 300.054 -1.07777 1.14986 0
M  V30 3203 C 301.302 -1.79934 0.920235 0
M  V30 3204 C 301.623 -1.86955 -0.554336 0
M  V30 3205 O 300.893 -1.36731 -1.40291 0
M  V30 3206 H 299.473 -0.666424 0.337473 0
M  V30 3207 H 302.135 -1.3027 1.44968 0
M  V30 3208 H 301.231 -2.82539 1.32583 0
M  V30 3209 N 301.532 -0.945985 -1.26051 0
M  V30 3210 C 302.778 -0.606539 -1.94146 0
M  V30 3211 C 303.133 0.84586 -1.72809 0
M  V30 3212 O 302.426 1.59781 -1.05738 0
M  V30 3213 C 302.62 -0.890475 -3.46129 0
M  V30 3214 C 302.449 -2.36892 -3.82246 0
M  V30 3215 C 301.219 -3.02494 -4.04753 0
M  V30 3216 C 303.417 -3.34772 -3.90425 0
M  V30 3217 N 301.399 -4.40302 -4.27794 0
M  V30 3218 C 302.77 -4.57855 -4.18054 0
M  V30 3219 C 304.825 -3.2973 -3.73072 0
M  V30 3220 C 303.528 -5.76522 -4.30134 0
M  V30 3221 C 305.554 -4.47727 -3.86386 0
M  V30 3222 C 304.916 -5.69593 -4.14419 0
M  V30 3223 H 301.015 -0.272407 -0.73302 0
M  V30 3224 H 303.599 -1.21638 -1.52027 0
M  V30 3225 H 301.77 -0.309638 -3.87164 0
M  V30 3226 H 303.502 -0.51181 -4.01451 0
M  V30 3227 H 300.257 -2.53095 -4.003 0
M  V30 3228 H 300.681 -5.11646 -4.43337 0
M  V30 3229 H 305.323 -2.36565 -3.50424 0
M  V30 3230 H 303.041 -6.70136 -4.51601 0
M  V30 3231 H 306.627 -4.45363 -3.74356 0
M  V30 3232 H 305.507 -6.59375 -4.24493 0
M  V30 3233 N 303.011 1.40521 -0.713556 0
M  V30 3234 C 304.257 2.01714 -0.261382 0
M  V30 3235 C 304.612 1.55562 1.13217 0
M  V30 3236 O 303.905 0.764893 1.7567 0
M  V30 3237 C 304.099 3.56317 -0.278 0
M  V30 3238 C 303.928 4.17476 -1.67163 0
M  V30 3239 C 302.698 4.50998 -2.2788 0
M  V30 3240 C 304.896 4.42472 -2.6215 0
M  V30 3241 N 302.878 4.9754 -3.5962 0
M  V30 3242 C 304.249 4.90985 -3.78594 0
M  V30 3243 C 306.304 4.24508 -2.60188 0
M  V30 3244 C 305.007 5.2342 -4.9338 0
M  V30 3245 C 307.033 4.58043 -3.741 0
M  V30 3246 C 306.395 5.06743 -4.89276 0
M  V30 3247 H 302.494 0.769104 -0.141434 0
M  V30 3248 H 305.078 1.70785 -0.934915 0
M  V30 3249 H 303.249 3.8668 0.36509 0
M  V30 3250 H 304.981 4.0425 0.190695 0
M  V30 3251 H 301.736 4.38062 -1.79997 0
M  V30 3252 H 302.16 5.25196 -4.27198 0
M  V30 3253 H 306.802 3.86078 -1.72348 0
M  V30 3254 H 304.52 5.60765 -5.81866 0
M  V30 3255 H 308.106 4.45785 -3.73854 0
M  V30 3256 H 306.986 5.32204 -5.75959 0
M  V30 3257 N 304.489 0.459591 1.5075 0
M  V30 3258 C 305.717 -0.0973749 2.06671 0
M  V30 3259 C 306.132 -1.34524 1.32472 0
M  V30 3260 O 305.489 -1.7827 0.390634 0
M  V30 3261 C 305.54 -0.39714 3.59312 0
M  V30 3262 O 305.261 0.801214 4.30711 0
M  V30 3263 C 306.762 -1.00234 4.31819 0
M  V30 3264 H 303.982 0.00195854 0.670997 0
M  V30 3265 H 306.526 0.645072 1.94059 0
M  V30 3266 H 304.681 -1.08951 3.71764 0
M  V30 3267 H 305.095 0.538857 5.21725 0
M  V30 3268 H 306.569 -1.16193 5.39632 0
M  V30 3269 H 307.046 -1.98939 3.91561 0
M  V30 3270 H 307.652 -0.348699 4.23868 0
M  V30 3271 N 305.967 -1.56429 0.191757 0
M  V30 3272 C 307.192 -2.02309 -0.456706 0
M  V30 3273 C 307.617 -1.07103 -1.5463 0
M  V30 3274 O 306.975 -0.0539677 -1.8122 0
M  V30 3275 C 307.023 -3.46654 -0.993159 0
M  V30 3276 O 306.127 -3.54559 -2.10622 0
M  V30 3277 H 305.468 -0.655303 -0.107114 0
M  V30 3278 H 307.998 -2.02364 0.301653 0
M  V30 3279 H 308.008 -3.86377 -1.31061 0
M  V30 3280 H 306.683 -4.1544 -0.195504 0
M  V30 3281 H 305.26 -3.26708 -1.79767 0
M  V30 3282 N 307.445 0.0818655 -1.57387 0
M  V30 3283 C 308.694 0.781681 -1.85937 0
M  V30 3284 C 309.007 1.79246 -0.782957 0
M  V30 3285 O 310.213 2.54112 -0.955987 0
M  V30 3286 C 308.669 1.44109 -3.29789 0
M  V30 3287 C 308.277 0.469396 -4.45534 0
M  V30 3288 C 310.021 2.12386 -3.67549 0
M  V30 3289 C 307.928 1.13415 -5.80423 0
M  V30 3290 H 306.858 0.295682 -0.693605 0
M  V30 3291 H 309.509 0.0348051 -1.83467 0
M  V30 3292 H 307.891 2.23588 -3.2684 0
M  V30 3293 H 309.065 -0.294856 -4.59856 0
M  V30 3294 H 307.38 -0.108383 -4.16259 0
M  V30 3295 H 309.977 2.62878 -4.65617 0
M  V30 3296 H 310.32 2.91877 -2.96839 0
M  V30 3297 H 310.853 1.39751 -3.72444 0
M  V30 3298 H 307.592 0.379771 -6.54399 0
M  V30 3299 H 307.112 1.8695 -5.69921 0
M  V30 3300 H 308.791 1.65686 -6.25426 0
M  V30 3301 N 308.923 1.53595 0.353017 0
M  V30 3302 C 309.855 1.77219 1.45348 0
M  V30 3303 C 310.868 0.65324 1.49119 0
M  V30 3304 O 312.057 0.929775 1.52373 0
M  V30 3305 C 309.157 1.84841 2.84055 0
M  V30 3306 C 308.33 3.14649 3.03833 0
M  V30 3307 C 307.389 3.13351 4.22727 0
M  V30 3308 O 306.415 3.87107 4.17297 0
M  V30 3309 N 307.617 2.35052 5.30783 0
M  V30 3310 H 310.382 2.72178 1.25457 0
M  V30 3311 H 307.943 1.52528 0.542833 0
M  V30 3312 H 309.935 1.81435 3.61751 0
M  V30 3313 H 308.505 0.971114 2.97133 0
M  V30 3314 H 307.725 3.31256 2.13689 0
M  V30 3315 H 309.013 4.00411 3.13925 0
M  V30 3316 H 308.411 1.74663 5.38061 0
M  V30 3317 H 306.968 2.37453 6.07009 0
M  V30 3318 N 310.401 -0.613514 1.45168 0
M  V30 3319 C 311.678 -1.37263 1.39349 0
M  V30 3320 C 312.058 -2.11012 0.0610848 0
M  V30 3321 O 311.406 -2.07502 -0.956825 0
M  V30 3322 C 311.616 -2.3244 2.60332 0
M  V30 3323 C 312.964 -2.9523 3.05163 0
M  V30 3324 O 313.988 -2.42762 2.60663 0
M  V30 3325 O 312.847 -3.90454 3.82372 0
M  V30 3326 H 309.941 -0.615188 0.552696 0
M  V30 3327 H 312.487 -0.637097 1.57287 0
M  V30 3328 H 311.259 -1.77164 3.48896 0
M  V30 3329 H 310.882 -3.13383 2.44698 0
M  V30 3330 N 311.879 -1.3236 -0.855495 0
M  V30 3331 C 312.811 -1.17052 -1.97057 0
M  V30 3332 C 313.824 -0.10574 -1.62456 0
M  V30 3333 O 315.013 -0.354619 -1.74942 0
M  V30 3334 C 312.113 -0.769305 -3.30053 0
M  V30 3335 C 311.286 -1.9222 -3.929 0
M  V30 3336 C 310.345 -1.50466 -5.04228 0
M  V30 3337 O 309.371 -2.21655 -5.24269 0
M  V30 3338 N 310.573 -0.400209 -5.79119 0
M  V30 3339 H 313.338 -2.13103 -2.1073 0
M  V30 3340 H 310.899 -1.24885 -1.0303 0
M  V30 3341 H 312.891 -0.472407 -4.01933 0
M  V30 3342 H 311.461 0.100025 -3.1244 0
M  V30 3343 H 310.681 -2.38563 -3.13817 0
M  V30 3344 H 311.969 -2.69403 -4.31624 0
M  V30 3345 H 311.367 0.192319 -5.65373 0
M  V30 3346 H 309.924 -0.162912 -6.51596 0
M  V30 3347 N 313.357 1.07166 -1.15556 0
M  V30 3348 C 314.267 2.17947 -0.868116 0
M  V30 3349 C 315.283 1.73297 0.156297 0
M  V30 3350 O 316.459 2.01392 -0.0182327 0
M  V30 3351 C 313.524 3.44789 -0.36355 0
M  V30 3352 C 312.585 4.03996 -1.45209 0
M  V30 3353 C 311.818 5.24783 -0.971508 0
M  V30 3354 O 312.041 5.70109 0.182194 0
M  V30 3355 O 310.975 5.75715 -1.75603 0
M  V30 3356 H 314.801 2.4503 -1.79427 0
M  V30 3357 H 312.386 1.16539 -0.934824 0
M  V30 3358 H 314.268 4.21307 -0.0887113 0
M  V30 3359 H 312.943 3.19253 0.534708 0
M  V30 3360 H 311.85 3.29009 -1.78056 0
M  V30 3361 H 313.183 4.33808 -2.32533 0
M  V30 3362 N 314.835 0.952656 1.25548 0
M  V30 3363 C 316.083 0.605176 1.92826 0
M  V30 3364 C 316.404 -0.860261 1.74999 0
M  V30 3365 O 315.674 -1.6125 1.11244 0
M  V30 3366 H 314.254 0.220832 0.713612 0
M  V30 3367 H 316.916 1.21047 1.52754 0
M  V30 3368 H 316.012 0.832798 3.00784 0
M  V30 3369 N 316.313 -1.40141 0.720998 0
M  V30 3370 C 317.261 -2.3252 0.0608547 0
M  V30 3371 C 318.255 -1.52326 -0.741152 0
M  V30 3372 O 319.461 -1.68089 -0.643911 0
M  V30 3373 H 315.836 -0.751999 0.000876664 0
M  V30 3374 H 317.807 -2.8584 0.856614 0
M  V30 3375 C 316.556 -3.37331 -0.842809 0
M  V30 3376 H 315.879 -3.99108 -0.235084 0
M  V30 3377 H 317.319 -4.04452 -1.27257 0
M  V30 3378 C 315.778 -2.73246 -1.97074 0
M  V30 3379 O 316.308 -2.59998 -3.06209 0
M  V30 3380 N 314.514 -2.31547 -1.75597 0
M  V30 3381 H 314.061 -2.42522 -0.868368 0
M  V30 3382 H 314.019 -1.89007 -2.51244 0
M  V30 3383 N 317.792 -0.46758 -1.50504 0
M  V30 3384 C 319.069 0.15003 -1.95024 0
M  V30 3385 C 319.449 1.57304 -1.40779 0
M  V30 3386 O 318.797 2.20281 -0.607319 0
M  V30 3387 C 319.007 0.0969324 -3.48865 0
M  V30 3388 C 320.355 0.287565 -4.23625 0
M  V30 3389 O 321.379 0.173678 -3.55776 0
M  V30 3390 O 320.238 0.517186 -5.44047 0
M  V30 3391 H 317.332 0.113582 -0.819163 0
M  V30 3392 H 319.878 -0.52773 -1.61286 0
M  V30 3393 H 318.65 -0.896732 -3.80886 0
M  V30 3394 H 318.273 0.816303 -3.8913 0
M  V30 3395 N 319.27 1.56325 -0.20005 0
M  V30 3396 C 320.2 2.22318 0.713916 0
M  V30 3397 C 321.181 1.18788 1.21752 0
M  V30 3398 O 322.366 1.47309 1.26545 0
M  V30 3399 C 319.496 2.88639 1.93144 0
M  V30 3400 C 318.45 3.98457 1.56255 0
M  V30 3401 C 317.776 4.51967 2.85709 0
M  V30 3402 C 319.076 5.16612 0.768747 0
M  V30 3403 H 320.77 2.98952 0.163755 0
M  V30 3404 H 318.316 1.43792 0.0773219 0
M  V30 3405 H 320.269 3.33491 2.57608 0
M  V30 3406 H 318.993 2.09419 2.50621 0
M  V30 3407 H 317.652 3.54305 0.941471 0
M  V30 3408 H 317.3 3.69503 3.41287 0
M  V30 3409 H 317 5.26071 2.6177 0
M  V30 3410 H 318.524 4.99523 3.51154 0
M  V30 3411 H 319.938 5.57977 1.3166 0
M  V30 3412 H 318.335 5.96812 0.627286 0
M  V30 3413 H 319.405 4.84358 -0.229168 0
M  V30 3414 N 320.748 -0.0735177 1.57428 0
M  V30 3415 C 321.681 -1.11932 1.98863 0
M  V30 3416 C 322.659 -1.37666 0.865266 0
M  V30 3417 O 323.843 -1.51068 1.12742 0
M  V30 3418 C 320.97 -2.46403 2.32386 0
M  V30 3419 C 320.016 -2.36815 3.54713 0
M  V30 3420 S 320.849 -1.76392 5.05614 0
M  V30 3421 C 322.005 -3.12444 5.42337 0
M  V30 3422 H 322.238 -0.766212 2.87257 0
M  V30 3423 H 319.771 -0.281987 1.51803 0
M  V30 3424 H 321.729 -3.23755 2.52375 0
M  V30 3425 H 320.39 -2.78876 1.44524 0
M  V30 3426 H 319.583 -3.35977 3.7568 0
M  V30 3427 H 319.185 -1.67598 3.34345 0
M  V30 3428 H 321.477 -4.08753 5.40303 0
M  V30 3429 H 322.42 -2.96258 6.43146 0
M  V30 3430 H 322.828 -3.1297 4.69798 0
M  V30 3431 N 322.226 -1.5378 -0.344866 0
M  V30 3432 C 323.637 -1.62428 -0.920552 0
M  V30 3433 C 323.988 -0.504747 -1.89596 0
M  V30 3434 O 323.113 0.365711 -2.13287 0
M  V30 3435 C 323.708 -2.94419 -1.67639 0
M  V30 3436 C 322.267 -3.05333 -2.20111 0
M  V30 3437 C 321.414 -2.57866 -1.01982 0
M  V30 3438 H 324.365 -1.58222 -0.123042 0
M  V30 3439 H 324.386 -2.83384 -2.53917 0
M  V30 3440 H 323.898 -3.7588 -0.966224 0
M  V30 3441 H 321.999 -2.28502 -2.94308 0
M  V30 3442 H 322.112 -4.10778 -2.46573 0
M  V30 3443 H 320.476 -2.13241 -1.39285 0
M  V30 3444 H 321.259 -3.41765 -0.324308 0
M  V30 3445 N 323.704 0.605807 -1.45491 0
M  V30 3446 C 324.651 1.7164 -1.54299 0
M  V30 3447 C 325.621 1.61486 -0.388761 0
M  V30 3448 O 326.806 1.81039 -0.602445 0
M  V30 3449 C 323.946 3.09953 -1.51734 0
M  V30 3450 C 323.059 3.309 -2.77721 0
M  V30 3451 C 322.194 4.59329 -2.66816 0
M  V30 3452 C 321.233 4.7354 -3.87848 0
M  V30 3453 N 320.37 5.9327 -3.75467 0
M  V30 3454 H 325.21 1.63449 -2.49176 0
M  V30 3455 H 322.747 0.796957 -1.23641 0
M  V30 3456 H 324.705 3.89977 -1.48235 0
M  V30 3457 H 323.335 3.17098 -0.604068 0
M  V30 3458 H 322.387 2.44639 -2.913 0
M  V30 3459 H 323.699 3.37274 -3.67488 0
M  V30 3460 H 322.853 5.4755 -2.61292 0
M  V30 3461 H 321.592 4.55355 -1.74651 0
M  V30 3462 H 320.597 3.83741 -3.93729 0
M  V30 3463 H 321.822 4.79309 -4.81082 0
M  V30 3464 H 319.768 5.90338 -2.86072 0
M  V30 3465 H 319.685 6.00811 -4.5887 0
M  V30 3466 H 320.953 6.83984 -3.73879 0
M  V30 3467 N 325.182 1.32811 0.848464 0
M  V30 3468 C 326.112 1.24882 1.97299 0
M  V30 3469 C 327.093 0.131357 1.69592 0
M  V30 3470 O 328.278 0.319553 1.91553 0
M  V30 3471 C 325.408 0.97746 3.33261 0
M  V30 3472 C 324.362 2.05682 3.75338 0
M  V30 3473 C 323.688 1.63777 5.09 0
M  V30 3474 C 324.988 3.47254 3.90144 0
M  V30 3475 H 326.682 2.18966 2.04191 0
M  V30 3476 H 324.228 1.05413 0.981029 0
M  V30 3477 H 326.181 0.908513 4.1149 0
M  V30 3478 H 324.905 0.000980011 3.266 0
M  V30 3479 H 323.564 2.11603 2.99366 0
M  V30 3480 H 323.212 0.648569 4.98801 0
M  V30 3481 H 322.912 2.36 5.38124 0
M  V30 3482 H 324.436 1.5833 5.89715 0
M  V30 3483 H 325.85 3.43888 4.58709 0
M  V30 3484 H 324.247 4.1788 4.30693 0
M  V30 3485 H 325.317 3.86462 2.92874 0
M  V30 3486 N 326.66 -1.06551 1.16123 0
M  V30 3487 C 327.607 -2.13961 0.865414 0
M  V30 3488 C 328.577 -1.65066 -0.185055 0
M  V30 3489 O 329.762 -1.90732 -0.05083 0
M  V30 3490 C 326.902 -3.43113 0.369776 0
M  V30 3491 C 326.015 -4.05756 1.48276 0
M  V30 3492 C 325.15 -5.22773 0.942414 0
M  V30 3493 C 324.189 -5.77395 2.03179 0
M  V30 3494 N 323.326 -6.85731 1.50721 0
M  V30 3495 H 328.166 -2.38605 1.78527 0
M  V30 3496 H 325.703 -1.17072 0.890646 0
M  V30 3497 H 327.661 -4.17151 0.0640643 0
M  V30 3498 H 326.291 -3.18695 -0.513143 0
M  V30 3499 H 325.343 -3.29292 1.9045 0
M  V30 3500 H 326.655 -4.42351 2.30493 0
M  V30 3501 H 325.809 -6.03827 0.589729 0
M  V30 3502 H 324.548 -4.87618 0.0895191 0
M  V30 3503 H 323.553 -4.94981 2.3932 0
M  V30 3504 H 324.778 -6.14603 2.8886 0
M  V30 3505 H 322.724 -6.52499 0.676811 0
M  V30 3506 H 322.641 -7.21254 2.26557 0
M  V30 3507 H 323.909 -7.7047 1.18303 0
M  V30 3508 N 328.138 -0.959301 -1.25041 0
M  V30 3509 C 329.048 -0.489994 -2.29426 0
M  V30 3510 C 330.064 0.444944 -1.68215 0
M  V30 3511 O 331.24 0.320046 -1.98841 0
M  V30 3512 C 328.305 0.220309 -3.45999 0
M  V30 3513 C 327.366 -0.753418 -4.22637 0
M  V30 3514 C 326.599 -0.076918 -5.33645 0
M  V30 3515 O 326.822 1.13649 -5.58963 0
M  V30 3516 O 325.756 -0.764824 -5.97021 0
M  V30 3517 H 329.582 -1.35755 -2.71669 0
M  V30 3518 H 327.167 -0.725961 -1.30576 0
M  V30 3519 H 329.049 0.619677 -4.16819 0
M  V30 3520 H 327.724 1.06296 -3.0575 0
M  V30 3521 H 326.631 -1.20308 -3.54227 0
M  V30 3522 H 327.964 -1.56423 -4.66683 0
M  V30 3523 N 329.616 1.39756 -0.72842 0
M  V30 3524 C 330.566 2.2792 -0.0603424 0
M  V30 3525 C 331.55 1.43922 0.719399 0
M  V30 3526 O 332.742 1.66895 0.589489 0
M  V30 3527 C 329.871 3.32582 0.851104 0
M  V30 3528 C 328.957 4.24049 0.0658641 0
M  V30 3529 N 329.348 4.96653 -0.957578 0
M  V30 3530 C 327.646 4.45013 0.296509 0
M  V30 3531 C 328.347 5.63836 -1.43052 0
M  V30 3532 N 327.323 5.38397 -0.750315 0
M  V30 3533 H 331.125 2.81504 -0.84455 0
M  V30 3534 H 328.639 1.5236 -0.562155 0
M  V30 3535 H 330.636 3.94603 1.34514 0
M  V30 3536 H 329.296 2.80558 1.63454 0
M  V30 3537 H 330.307 5.00297 -1.33877 0
M  V30 3538 H 326.984 4.03943 1.05527 0
M  V30 3539 H 328.374 6.31974 -2.28163 0
M  V30 3540 N 331.094 0.475555 1.50254 0
M  V30 3541 C 332.34 -0.0780073 2.0265 0
M  V30 3542 C 332.673 -1.38968 1.35652 0
M  V30 3543 O 331.948 -1.8839 0.483691 0
M  V30 3544 C 332.231 -0.257161 3.59181 0
M  V30 3545 C 332.084 1.07585 4.36744 0
M  V30 3546 C 333.403 -1.00965 4.28362 0
M  V30 3547 H 330.522 -0.0268758 0.73651 0
M  V30 3548 H 333.164 0.622015 1.7953 0
M  V30 3549 H 331.314 -0.853412 3.79011 0
M  V30 3550 H 332.986 1.70902 4.28474 0
M  V30 3551 H 331.229 1.6714 4.00308 0
M  V30 3552 H 331.9 0.904088 5.44546 0
M  V30 3553 H 334.376 -0.504214 4.13034 0
M  V30 3554 H 333.252 -1.10381 5.37687 0
M  V30 3555 H 333.513 -2.04731 3.91839 0
M  V30 3556 N 332.573 -1.56217 0.208337 0
M  V30 3557 C 333.798 -2.02782 -0.435222 0
M  V30 3558 C 334.223 -1.08738 -1.53485 0
M  V30 3559 O 333.581 -0.0731855 -1.81152 0
M  V30 3560 C 333.629 -3.47687 -0.956335 0
M  V30 3561 O 332.733 -3.56773 -2.06849 0
M  V30 3562 H 332.074 -0.656403 -0.100158 0
M  V30 3563 H 334.604 -2.02033 0.3231 0
M  V30 3564 H 334.614 -3.87745 -1.26955 0
M  V30 3565 H 333.289 -4.15624 -0.15143 0
M  V30 3566 H 331.866 -3.28597 -1.76292 0
M  V30 3567 N 334.051 0.0651679 -1.57465 0
M  V30 3568 C 334.983 1.10359 -2.00882 0
M  V30 3569 C 335.996 1.346 -0.915788 0
M  V30 3570 O 337.185 1.32723 -1.1936 0
M  V30 3571 C 334.285 2.45312 -2.33828 0
M  V30 3572 C 333.458 2.40934 -3.65061 0
M  V30 3573 C 332.517 3.58047 -3.85602 0
M  V30 3574 O 331.543 3.39175 -4.57109 0
M  V30 3575 N 332.745 4.78637 -3.28462 0
M  V30 3576 H 335.51 0.733807 -2.90578 0
M  V30 3577 H 333.071 0.253719 -1.599 0
M  V30 3578 H 335.063 3.22314 -2.44737 0
M  V30 3579 H 333.633 2.74267 -1.49988 0
M  V30 3580 H 332.853 1.49273 -3.64844 0
M  V30 3581 H 334.141 2.35117 -4.51218 0
M  V30 3582 H 333.539 4.96872 -2.70433 0
M  V30 3583 H 332.096 5.53127 -3.44809 0
M  V30 3584 N 335.529 1.53961 0.336706 0
M  V30 3585 C 336.759 1.75229 1.09446 0
M  V30 3586 C 337.167 0.494602 1.82621 0
M  V30 3587 O 336.51 -0.543764 1.75468 0
M  V30 3588 C 336.572 2.88288 2.1478 0
M  V30 3589 C 336.236 4.27656 1.6112 0
M  V30 3590 C 337.233 5.08981 1.0599 0
M  V30 3591 C 334.918 4.74161 1.6576 0
M  V30 3592 C 336.912 6.34916 0.562129 0
M  V30 3593 C 334.599 6.00067 1.15595 0
M  V30 3594 C 335.597 6.80278 0.609147 0
M  V30 3595 O 335.285 8.03818 0.114999 0
M  V30 3596 H 335.017 0.588881 0.331956 0
M  V30 3597 H 337.571 2.01614 0.392566 0
M  V30 3598 H 335.801 2.57443 2.88548 0
M  V30 3599 H 337.49 2.97461 2.76174 0
M  V30 3600 H 338.256 4.74213 1.01722 0
M  V30 3601 H 334.135 4.11781 2.07261 0
M  V30 3602 H 337.679 6.9747 0.134668 0
M  V30 3603 H 333.576 6.3433 1.19566 0
M  V30 3604 H 334.344 8.18172 0.231651 0
M  V30 3605 N 337.007 -0.598083 1.45811 0
M  V30 3606 C 338.255 -1.35413 1.50026 0
M  V30 3607 C 338.576 -1.94444 0.147177 0
M  V30 3608 O 337.846 -1.77701 -0.824571 0
M  V30 3609 H 336.426 -0.502727 0.552517 0
M  V30 3610 H 339.088 -0.701606 1.81834 0
M  V30 3611 H 338.184 -2.16871 2.2444 0
M  V30 3612 N 338.485 -1.33259 -0.841409 0
M  V30 3613 C 339.715 -1.2742 -1.62628 0
M  V30 3614 C 340.123 0.157604 -1.88542 0
M  V30 3615 O 339.466 1.10938 -1.46419 0
M  V30 3616 C 339.528 -1.97797 -3.00194 0
M  V30 3617 C 339.192 -3.47109 -2.97261 0
M  V30 3618 C 340.189 -4.42358 -2.73159 0
M  V30 3619 C 337.874 -3.89247 -3.17478 0
M  V30 3620 C 339.868 -5.77718 -2.69296 0
M  V30 3621 C 337.555 -5.24713 -3.13241 0
M  V30 3622 C 338.553 -6.1876 -2.89181 0
M  V30 3623 O 338.241 -7.51745 -2.84843 0
M  V30 3624 H 337.973 -0.440436 -0.512827 0
M  V30 3625 H 340.527 -1.76153 -1.05638 0
M  V30 3626 H 338.757 -1.43652 -3.59028 0
M  V30 3627 H 340.446 -1.8549 -3.61038 0
M  V30 3628 H 341.212 -4.11127 -2.57294 0
M  V30 3629 H 337.091 -3.16456 -3.35226 0
M  V30 3630 H 340.635 -6.51097 -2.50436 0
M  V30 3631 H 336.532 -5.55569 -3.28654 0
M  V30 3632 H 337.3 -7.61262 -3.00702 0
M  V30 3633 N 339.963 1.05934 -1.16686 0
M  V30 3634 C 341.212 1.78188 -0.945085 0
M  V30 3635 C 341.525 1.88338 0.528021 0
M  V30 3636 O 342.731 2.57258 0.867799 0
M  V30 3637 C 341.187 3.20277 -1.64167 0
M  V30 3638 C 340.795 3.18281 -3.15279 0
M  V30 3639 C 342.539 3.97039 -1.502 0
M  V30 3640 C 340.446 4.55112 -3.7766 0
M  V30 3641 H 339.376 0.667866 -0.349959 0
M  V30 3642 H 342.027 1.18794 -1.39858 0
M  V30 3643 H 340.409 3.79952 -1.11589 0
M  V30 3644 H 341.583 2.68167 -3.74731 0
M  V30 3645 H 339.898 2.55018 -3.29173 0
M  V30 3646 H 342.495 4.98194 -1.94183 0
M  V30 3647 H 342.838 4.13845 -0.451461 0
M  V30 3648 H 343.371 3.43894 -1.99954 0
M  V30 3649 H 340.11 4.43512 -4.82677 0
M  V30 3650 H 339.63 5.05406 -3.22994 0
M  V30 3651 H 341.309 5.24064 -3.79428 0
M  V30 3652 N 341.441 0.965919 1.2453 0
M  V30 3653 C 342.852 0.665929 1.7442 0
M  V30 3654 C 343.203 -0.818407 1.78316 0
M  V30 3655 O 342.328 -1.64037 1.41141 0
M  V30 3656 C 342.923 1.20211 3.16757 0
M  V30 3657 C 341.482 0.952059 3.6416 0
M  V30 3658 C 340.629 1.33848 2.42858 0
M  V30 3659 H 343.58 1.14144 1.10258 0
M  V30 3660 H 343.601 0.567544 3.76244 0
M  V30 3661 H 343.113 2.28244 3.13889 0
M  V30 3662 H 341.214 -0.112821 3.72429 0
M  V30 3663 H 341.327 1.59645 4.51719 0
M  V30 3664 H 339.691 0.756864 2.43195 0
M  V30 3665 H 340.474 2.42827 2.42673 0
M  V30 3666 N 342.919 -1.39368 0.735821 0
M  V30 3667 C 343.866 -2.30599 0.0963825 0
M  V30 3668 C 344.836 -1.49257 -0.728794 0
M  V30 3669 O 346.021 -1.77941 -0.688588 0
M  V30 3670 C 343.161 -3.35596 -0.804305 0
M  V30 3671 C 342.274 -4.31987 0.0335761 0
M  V30 3672 C 341.409 -5.24053 -0.868461 0
M  V30 3673 C 340.448 -6.12095 -0.0258776 0
M  V30 3674 N 339.585 -6.96514 -0.883893 0
M  V30 3675 H 344.425 -2.8471 0.880002 0
M  V30 3676 H 341.962 -1.40188 0.445619 0
M  V30 3677 H 343.92 -3.95062 -1.34096 0
M  V30 3678 H 342.55 -2.82938 -1.55389 0
M  V30 3679 H 341.602 -3.74133 0.68766 0
M  V30 3680 H 342.914 -4.94074 0.685036 0
M  V30 3681 H 342.068 -5.88549 -1.47293 0
M  V30 3682 H 340.807 -4.62289 -1.5537 0
M  V30 3683 H 339.812 -5.4661 0.591386 0
M  V30 3684 H 341.037 -6.75923 0.656156 0
M  V30 3685 H 338.983 -6.37318 -1.55441 0
M  V30 3686 H 338.9 -7.55448 -0.288931 0
M  V30 3687 H 340.168 -7.65439 -1.4739 0
M  V30 3688 N 344.397 -0.483516 -1.5 0
M  V30 3689 C 345.625 0.0644831 -2.06799 0
M  V30 3690 C 346.04 1.32399 -1.34596 0
M  V30 3691 O 345.397 1.77626 -0.418946 0
M  V30 3692 C 345.448 0.339927 -3.59898 0
M  V30 3693 O 345.169 -0.869635 -4.29382 0
M  V30 3694 C 346.67 0.933515 -4.33359 0
M  V30 3695 H 343.89 -0.0126333 -0.670881 0
M  V30 3696 H 346.434 -0.675864 -1.93009 0
M  V30 3697 H 344.589 1.03022 -3.7345 0
M  V30 3698 H 345.003 -0.62179 -5.20801 0
M  V30 3699 H 346.477 1.07593 -5.41413 0
M  V30 3700 H 346.954 1.92685 -3.94676 0
M  V30 3701 H 347.56 0.281221 -4.24369 0
M  V30 3702 N 345.875 1.56104 -0.216619 0
M  V30 3703 C 346.785 2.23694 0.706982 0
M  V30 3704 C 347.801 1.24295 1.21765 0
M  V30 3705 O 348.977 1.57094 1.2603 0
M  V30 3706 C 346.042 2.8998 1.90033 0
M  V30 3707 C 345.103 4.04708 1.43213 0
M  V30 3708 C 344.336 4.67824 2.56859 0
M  V30 3709 O 344.559 4.29913 3.74874 0
M  V30 3710 O 343.493 5.56905 2.28343 0
M  V30 3711 H 347.319 3.03272 0.161235 0
M  V30 3712 H 344.904 1.49394 0.0136177 0
M  V30 3713 H 346.786 3.31837 2.59735 0
M  V30 3714 H 345.461 2.13365 2.43428 0
M  V30 3715 H 344.368 3.6743 0.70327 0
M  V30 3716 H 345.701 4.83051 0.944615 0
M  V30 3717 N 347.353 -0.0568162 1.57498 0
M  V30 3718 C 348.316 -1.05038 2.03715 0
M  V30 3719 C 349.316 -1.30709 0.936577 0
M  V30 3720 O 350.506 -1.26178 1.20103 0
M  V30 3721 C 347.638 -2.39034 2.43055 0
M  V30 3722 H 348.831 -0.651715 2.92733 0
M  V30 3723 H 346.384 -0.302947 1.53336 0
M  V30 3724 H 347.119 -2.83703 1.57108 0
M  V30 3725 H 346.904 -2.21739 3.2338 0
M  V30 3726 H 348.394 -3.10421 2.79336 0
M  V30 3727 N 348.832 -1.54138 -0.328536 0
M  V30 3728 C 349.742 -1.86192 -1.42723 0
M  V30 3729 C 350.758 -0.753382 -1.56844 0
M  V30 3730 O 351.934 -1.04718 -1.72035 0
M  V30 3731 C 348.999 -2.07824 -2.77507 0
M  V30 3732 C 348.06 -3.31641 -2.72603 0
M  V30 3733 C 347.293 -3.52232 -4.00959 0
M  V30 3734 O 347.516 -2.7636 -4.9898 0
M  V30 3735 O 346.45 -4.45699 -4.0452 0
M  V30 3736 H 350.276 -2.79608 -1.18547 0
M  V30 3737 H 347.861 -1.3998 -0.522104 0
M  V30 3738 H 349.743 -2.23411 -3.57303 0
M  V30 3739 H 348.418 -1.17596 -3.01584 0
M  V30 3740 H 347.325 -3.21444 -1.91376 0
M  V30 3741 H 348.658 -4.2191 -2.53481 0
M  V30 3742 N 350.31 0.590341 -1.46126 0
M  V30 3743 C 351.273 1.68194 -1.55703 0
M  V30 3744 C 352.273 1.54808 -0.434868 0
M  V30 3745 O 353.463 1.59564 -0.698928 0
M  V30 3746 C 350.595 3.07575 -1.47005 0
M  V30 3747 H 351.788 1.61064 -2.52979 0
M  V30 3748 H 349.341 0.807541 -1.33823 0
M  V30 3749 H 350.076 3.20268 -0.509785 0
M  V30 3750 H 349.861 3.187 -2.28414 0
M  V30 3751 H 351.351 3.87055 -1.56776 0
M  V30 3752 N 351.788 1.33704 0.83433 0
M  V30 3753 C 353.034 1.25603 1.59222 0
M  V30 3754 C 353.367 -0.176659 1.93395 0
M  V30 3755 O 352.642 -1.11915 1.59076 0
M  V30 3756 C 352.925 2.13576 2.89926 0
M  V30 3757 C 352.778 3.65326 2.62406 0
M  V30 3758 C 354.097 2.01238 3.91397 0
M  V30 3759 H 351.216 0.457613 0.577719 0
M  V30 3760 H 353.858 1.63848 0.961972 0
M  V30 3761 H 352.008 1.8109 3.43713 0
M  V30 3762 H 353.68 4.08124 2.15017 0
M  V30 3763 H 351.923 3.8698 1.96033 0
M  V30 3764 H 352.594 4.22232 3.55562 0
M  V30 3765 H 355.07 2.29738 3.46929 0
M  V30 3766 H 353.946 2.65036 4.80673 0
M  V30 3767 H 354.207 0.985951 4.30966 0
M  V30 3768 N 353.266 -1.05314 1.17247 0
M  V30 3769 C 354.176 -2.16538 0.90268 0
M  V30 3770 C 355.192 -1.73523 -0.128707 0
M  V30 3771 O 356.368 -2.01337 0.0502701 0
M  V30 3772 C 353.433 -3.44167 0.418356 0
M  V30 3773 C 352.494 -4.01635 1.51618 0
M  V30 3774 C 351.727 -5.23171 1.05487 0
M  V30 3775 O 351.95 -5.70327 -0.0914715 0
M  V30 3776 O 350.884 -5.72848 1.8474 0
M  V30 3777 H 354.71 -2.42145 1.83302 0
M  V30 3778 H 352.295 -1.15037 0.953246 0
M  V30 3779 H 354.177 -4.21112 0.155726 0
M  V30 3780 H 352.852 -3.20063 -0.48385 0
M  V30 3781 H 351.759 -3.26135 1.83268 0
M  V30 3782 H 353.092 -4.30053 2.39405 0
M  V30 3783 N 354.744 -0.972509 -1.24016 0
M  V30 3784 C 355.707 -0.511403 -2.23422 0
M  V30 3785 C 356.707 0.394679 -1.55881 0
M  V30 3786 O 357.897 0.189469 -1.73167 0
M  V30 3787 C 355.029 0.258769 -3.39916 0
M  V30 3788 H 356.222 -1.39024 -2.6573 0
M  V30 3789 H 353.775 -0.757585 -1.36713 0
M  V30 3790 H 354.51 1.1545 -3.03054 0
M  V30 3791 H 354.295 -0.391522 -3.9014 0
M  V30 3792 H 355.785 0.570244 -4.13688 0
M  V30 3793 N 356.222 1.38976 -0.743202 0
M  V30 3794 C 357.447 2.05161 -0.303936 0
M  V30 3795 C 357.872 1.55677 1.05576 0
M  V30 3796 O 357.23 0.704131 1.67068 0
M  V30 3797 C 357.278 3.59138 -0.324373 0
M  V30 3798 O 356.382 4.06668 0.685204 0
M  V30 3799 H 355.723 0.649815 -0.136518 0
M  V30 3800 H 358.253 1.77852 -1.01142 0
M  V30 3801 H 358.263 4.07639 -0.171618 0
M  V30 3802 H 356.938 3.94515 -1.31647 0
M  V30 3803 H 355.515 3.69561 0.497913 0
M  V30 3804 N 357.7 0.491464 1.49741 0
M  V30 3805 C 358.946 -0.0485431 2.03342 0
M  V30 3806 C 359.301 -1.35566 1.36527 0
M  V30 3807 O 358.594 -1.85262 0.488729 0
M  V30 3808 C 358.788 -0.267329 3.56399 0
M  V30 3809 C 358.617 1.01703 4.38049 0
M  V30 3810 C 357.387 1.56614 4.80417 0
M  V30 3811 C 359.585 1.91782 4.77204 0
M  V30 3812 N 357.567 2.7974 5.4646 0
M  V30 3813 C 358.938 2.99489 5.42868 0
M  V30 3814 C 360.993 1.92575 4.5915 0
M  V30 3815 C 359.696 4.08005 5.92389 0
M  V30 3816 C 361.722 3.0006 5.09626 0
M  V30 3817 C 361.084 4.06485 5.75282 0
M  V30 3818 H 357.183 0.0227779 0.781668 0
M  V30 3819 H 359.767 0.664204 1.8302 0
M  V30 3820 H 357.938 -0.949126 3.76625 0
M  V30 3821 H 359.67 -0.803492 3.96644 0
M  V30 3822 H 356.425 1.11256 4.60347 0
M  V30 3823 H 356.849 3.42323 5.84075 0
M  V30 3824 H 361.491 1.11605 4.07804 0
M  V30 3825 H 359.209 4.89779 6.42761 0
M  V30 3826 H 362.795 3.01681 4.97473 0
M  V30 3827 H 361.675 4.88287 6.13633 0
M  V30 3828 N 359.178 -1.55987 0.224894 0
M  V30 3829 C 360.126 -2.21808 -0.700283 0
M  V30 3830 C 361.12 -1.19854 -1.19714 0
M  V30 3831 O 362.326 -1.37925 -1.15658 0
M  V30 3832 H 358.701 -0.711226 -0.244258 0
M  V30 3833 H 360.672 -2.98152 -0.121749 0
M  V30 3834 C 359.421 -2.91444 -1.8962 0
M  V30 3835 H 358.744 -3.69655 -1.52299 0
M  V30 3836 H 360.184 -3.40894 -2.52125 0
M  V30 3837 C 358.643 -1.94098 -2.75368 0
M  V30 3838 O 359.173 -1.46004 -3.74227 0
M  V30 3839 N 357.379 -1.61675 -2.41474 0
M  V30 3840 H 356.926 -2.00979 -1.61137 0
M  V30 3841 H 356.884 -0.968036 -2.99126 0
M  V30 3842 N 360.656 0.0484629 -1.57525 0
M  V30 3843 C 361.933 0.777447 -1.79486 0
M  V30 3844 C 362.313 1.94597 -0.818251 0
M  V30 3845 O 361.661 2.28047 0.143767 0
M  V30 3846 C 361.871 1.22864 -3.26658 0
M  V30 3847 C 363.219 1.65251 -3.91123 0
M  V30 3848 O 364.243 1.32372 -3.3069 0
M  V30 3849 O 363.102 2.26207 -4.97486 0
M  V30 3850 H 360.196 0.374357 -0.737419 0
M  V30 3851 H 362.742 0.0267359 -1.69679 0
M  V30 3852 H 361.514 0.393589 -3.89316 0
M  V30 3853 H 361.137 2.03996 -3.41279 0
M  V30 3854 N 362.134 1.5431 0.320358 0
M  V30 3855 C 363.362 1.76636 1.07738 0
M  V30 3856 C 363.777 0.51649 1.81598 0
M  V30 3857 O 363.134 -0.512942 1.75143 0
M  V30 3858 C 363.185 2.96158 2.07299 0
M  V30 3859 O 362.906 4.16313 1.36438 0
M  V30 3860 C 364.407 3.3072 2.95193 0
M  V30 3861 H 361.627 0.589597 0.320339 0
M  V30 3862 H 364.171 2.01207 0.36551 0
M  V30 3863 H 362.326 2.73851 2.74016 0
M  V30 3864 H 362.74 4.83565 2.03138 0
M  V30 3865 H 364.214 4.17643 3.60941 0
M  V30 3866 H 364.691 2.48026 3.62463 0
M  V30 3867 H 365.297 3.55117 2.34034 0
M  V30 3868 N 363.613 -0.582584 1.46437 0
M  V30 3869 C 364.86 -1.34079 1.51753 0
M  V30 3870 C 365.188 -1.93762 0.169299 0
M  V30 3871 O 364.443 -1.76989 -0.835062 0
M  V30 3872 C 364.742 -2.48964 2.56421 0
M  V30 3873 C 364.408 -2.07273 4.00436 0
M  V30 3874 C 363.07 -1.95618 4.39644 0
M  V30 3875 C 365.422 -1.75111 4.90903 0
M  V30 3876 C 362.75 -1.5006 5.67185 0
M  V30 3877 C 365.102 -1.31032 6.18881 0
M  V30 3878 C 363.766 -1.17954 6.56996 0
M  V30 3879 H 363.036 -0.49063 0.555304 0
M  V30 3880 H 365.683 -0.656007 1.79913 0
M  V30 3881 H 363.988 -3.22889 2.21923 0
M  V30 3882 H 365.685 -3.07178 2.57765 0
M  V30 3883 H 362.275 -2.17279 3.69443 0
M  V30 3884 H 366.459 -1.83001 4.61329 0
M  V30 3885 H 361.715 -1.38577 5.95488 0
M  V30 3886 H 365.889 -1.052 6.88408 0
M  V30 3887 H 363.516 -0.824279 7.55718 0
M  V30 3888 N 365.091 -1.34144 -0.827227 0
M  V30 3889 C 366.054 -1.25264 -1.91942 0
M  V30 3890 C 367.054 -0.168866 -1.59911 0
M  V30 3891 O 368.244 -0.421198 -1.69031 0
M  V30 3892 C 365.376 -0.932952 -3.27885 0
M  V30 3893 H 366.569 -2.22357 -2.0124 0
M  V30 3894 H 364.122 -1.1837 -1.0207 0
M  V30 3895 H 364.857 0.0349917 -3.24281 0
M  V30 3896 H 364.642 -1.71682 -3.52516 0
M  V30 3897 H 366.132 -0.895874 -4.07877 0
M  V30 3898 N 366.569 1.04691 -1.17803 0
M  V30 3899 C 367.516 2.12557 -0.899343 0
M  V30 3900 C 368.486 1.65339 0.158771 0
M  V30 3901 O 369.671 1.90789 0.0204797 0
M  V30 3902 C 366.811 3.42481 -0.424315 0
M  V30 3903 C 365.924 4.03346 -1.54713 0
M  V30 3904 C 365.059 5.21208 -1.02546 0
M  V30 3905 C 364.098 5.74089 -2.12339 0
M  V30 3906 N 363.235 6.83247 -1.61612 0
M  V30 3907 H 368.075 2.35734 -1.823 0
M  V30 3908 H 365.612 1.1564 -0.909159 0
M  V30 3909 H 367.57 4.16996 -0.130421 0
M  V30 3910 H 366.2 3.19471 0.462377 0
M  V30 3911 H 365.252 3.2622 -1.95664 0
M  V30 3912 H 366.564 4.38628 -2.37501 0
M  V30 3913 H 365.718 6.02812 -0.685718 0
M  V30 3914 H 364.457 4.87414 -0.167084 0
M  V30 3915 H 363.462 4.91111 -2.47165 0
M  V30 3916 H 364.687 6.0993 -2.98601 0
M  V30 3917 H 362.633 6.5134 -0.780533 0
M  V30 3918 H 362.55 7.17559 -2.38003 0
M  V30 3919 H 363.818 7.68491 -1.30545 0
M  V30 3920 N 368.047 0.979072 1.23499 0
M  V30 3921 C 369.01 0.523244 2.23147 0
M  V30 3922 C 370.01 -0.386406 1.56088 0
M  V30 3923 O 371.2 -0.180283 1.73265 0
M  V30 3924 C 368.332 -0.240739 3.40049 0
M  V30 3925 H 369.525 1.40432 2.64989 0
M  V30 3926 H 367.078 0.764824 1.36309 0
M  V30 3927 H 367.813 -1.13841 3.03662 0
M  V30 3928 H 367.598 0.412207 3.89927 0
M  V30 3929 H 369.088 -0.548297 4.13985 0
M  V30 3930 N 369.525 -1.3858 0.750561 0
M  V30 3931 C 370.941 -1.53759 0.427824 0
M  V30 3932 C 371.141 -1.71401 -1.05943 0
M  V30 3933 O 370.197 -1.72331 -1.84549 0
M  V30 3934 C 371.51 -2.74642 1.22443 0
M  V30 3935 C 373.058 -2.88489 1.2142 0
M  V30 3936 C 373.533 -4.12329 1.9937 0
M  V30 3937 N 375.024 -4.194 1.96616 0
M  V30 3938 C 375.759 -5.14209 2.53727 0
M  V30 3939 N 375.255 -6.14709 3.19539 0
M  V30 3940 N 377.048 -5.06537 2.43673 0
M  V30 3941 H 369.199 -1.25377 1.71447 0
M  V30 3942 H 371.462 -0.608844 0.726645 0
M  V30 3943 H 371.168 -2.68 2.27747 0
M  V30 3944 H 371.042 -3.67745 0.839273 0
M  V30 3945 H 373.429 -2.94614 0.169232 0
M  V30 3946 H 373.51 -1.96406 1.63885 0
M  V30 3947 H 373.154 -4.06966 3.03877 0
M  V30 3948 H 373.084 -5.03486 1.54302 0
M  V30 3949 H 375.575 -3.47421 1.48684 0
M  V30 3950 H 375.888 -6.8354 3.60545 0
M  V30 3951 H 374.233 -6.1505 3.23633 0
M  V30 3952 H 377.424 -4.26962 1.91889 0
M  V30 3953 H 377.597 -5.80245 2.88479 0
M  V30 3954 N 371.003 -0.499398 -1.49478 0
M  V30 3955 C 372.28 0.108629 -1.95298 0
M  V30 3956 C 372.66 1.54282 -1.44084 0
M  V30 3957 O 372.008 2.18944 -0.653908 0
M  V30 3958 C 372.218 0.0229111 -3.48992 0
M  V30 3959 C 373.566 0.197643 -4.2414 0
M  V30 3960 O 374.59 0.0981735 -3.56065 0
M  V30 3961 O 373.449 0.401669 -5.45022 0
M  V30 3962 H 370.543 0.096181 -0.821388 0
M  V30 3963 H 373.089 -0.561822 -1.6013 0
M  V30 3964 H 371.861 -0.977321 -3.78899 0
M  V30 3965 H 371.484 0.733579 -3.90774 0
M  V30 3966 N 372.481 1.55866 -0.233164 0
M  V30 3967 C 373.727 1.98897 0.395959 0
M  V30 3968 C 374.06 1.12091 1.58585 0
M  V30 3969 O 373.335 0.181182 1.93654 0
M  V30 3970 C 373.618 3.50658 0.819224 0
M  V30 3971 C 373.471 4.48233 -0.375109 0
M  V30 3972 C 374.79 4.07135 1.67121 0
M  V30 3973 H 371.909 0.723102 0.142451 0
M  V30 3974 H 374.551 1.87082 -0.331725 0
M  V30 3975 H 372.701 3.60857 1.43925 0
M  V30 3976 H 374.373 4.50031 -1.01341 0
M  V30 3977 H 372.616 4.21624 -1.02058 0
M  V30 3978 H 373.287 5.51988 -0.0358328 0
M  V30 3979 H 375.763 3.99952 1.14795 0
M  V30 3980 H 374.639 5.13615 1.93625 0
M  V30 3981 H 374.9 3.54736 2.63846 0
M  V30 3982 N 373.959 -0.0401083 1.57549 0
M  V30 3983 C 374.891 -1.07149 2.02612 0
M  V30 3984 C 375.904 -1.33126 0.937085 0
M  V30 3985 O 377.093 -1.30808 1.21456 0
M  V30 3986 C 374.193 -2.41561 2.37701 0
M  V30 3987 C 373.366 -2.35096 3.68848 0
M  V30 3988 C 372.425 -3.51867 3.91249 0
M  V30 3989 O 371.451 -3.3186 4.62447 0
M  V30 3990 N 372.653 -4.73351 3.36035 0
M  V30 3991 H 375.418 -0.687485 2.91708 0
M  V30 3992 H 372.979 -0.228248 1.60283 0
M  V30 3993 H 374.971 -3.18379 2.49833 0
M  V30 3994 H 373.541 -2.71846 1.54332 0
M  V30 3995 H 372.761 -1.4345 3.67173 0
M  V30 3996 H 374.049 -2.27908 4.54901 0
M  V30 3997 H 373.447 -4.92507 2.78304 0
M  V30 3998 H 372.004 -5.47572 3.53565 0
M  V30 3999 N 375.437 -1.54477 -0.31217 0
M  V30 4000 C 376.4 -1.83923 -1.36766 0
M  V30 4001 C 377.4 -0.711563 -1.44199 0
M  V30 4002 O 378.59 -0.979866 -1.44029 0
M  V30 4003 C 375.722 -2.0095 -2.75376 0
M  V30 4004 H 376.915 -2.78239 -1.11906 0
M  V30 4005 H 374.468 -1.46369 -0.548257 0
M  V30 4006 H 375.203 -1.08883 -3.05475 0
M  V30 4007 H 374.988 -2.83018 -2.71373 0
M  V30 4008 H 376.478 -2.2514 -3.51713 0
M  V30 4009 N 376.915 0.57481 -1.46744 0
M  V30 4010 C 377.878 1.66533 -1.57478 0
M  V30 4011 C 378.878 1.54338 -0.451263 0
M  V30 4012 O 380.068 1.58814 -0.715813 0
M  V30 4013 C 377.2 3.05999 -1.50259 0
M  V30 4014 H 378.393 1.58372 -2.54673 0
M  V30 4015 H 375.946 0.793301 -1.34672 0
M  V30 4016 H 376.681 3.19709 -0.543725 0
M  V30 4017 H 376.466 3.16259 -2.31781 0
M  V30 4018 H 377.956 3.8537 -1.60872 0
M  V30 4019 N 378.394 1.34581 0.820102 0
M  V30 4020 C 379.671 1.17675 1.56244 0
M  V30 4021 C 380.051 -0.249541 2.0962 0
M  V30 4022 O 379.399 -1.25125 1.91196 0
M  V30 4023 C 379.609 2.23364 2.6816 0
M  V30 4024 C 380.957 2.58485 3.36854 0
M  V30 4025 O 381.981 2.22175 2.78418 0
M  V30 4026 O 380.84 3.20868 4.42386 0
M  V30 4027 H 377.934 0.456333 0.689702 0
M  V30 4028 H 380.48 1.46222 0.861231 0
M  V30 4029 H 379.252 3.19087 2.26493 0
M  V30 4030 H 378.875 1.96009 3.45928 0
M  V30 4031 N 379.872 -1.04064 1.18357 0
M  V30 4032 C 381.283 -1.58719 0.98312 0
M  V30 4033 C 381.634 -1.90556 -0.467193 0
M  V30 4034 O 380.759 -1.69561 -1.34454 0
M  V30 4035 C 381.354 -2.88379 1.77828 0
M  V30 4036 C 379.913 -3.3965 1.62218 0
M  V30 4037 C 379.06 -2.13235 1.77274 0
M  V30 4038 H 382.011 -0.867359 1.32901 0
M  V30 4039 H 382.032 -3.58773 1.26737 0
M  V30 4040 H 381.544 -2.65176 2.83379 0
M  V30 4041 H 379.645 -3.67866 0.592036 0
M  V30 4042 H 379.758 -4.13475 2.42023 0
M  V30 4043 H 378.122 -2.24542 1.20221 0
M  V30 4044 H 378.905 -1.92487 2.8426 0
M  V30 4045 N 381.35 -0.985608 -1.22978 0
M  V30 4046 C 382.627 -0.573599 -1.87001 0
M  V30 4047 C 383.007 0.949213 -1.88555 0
M  V30 4048 O 382.355 1.82811 -1.37086 0
M  V30 4049 C 382.565 -1.18564 -3.28243 0
M  V30 4050 C 383.913 -1.28163 -4.04796 0
M  V30 4051 O 384.937 -1.13949 -3.37482 0
M  V30 4052 O 383.796 -1.50832 -5.25273 0
M  V30 4053 H 380.89 -0.193868 -0.803955 0
M  V30 4054 H 383.436 -1.08102 -1.30813 0
M  V30 4055 H 382.208 -2.22758 -3.21706 0
M  V30 4056 H 381.831 -0.663363 -3.92027 0
M  V30 4057 N 382.828 1.3818 -0.7579 0
M  V30 4058 C 384.056 2.04301 -0.326937 0
M  V30 4059 C 384.471 1.57163 1.0462 0
M  V30 4060 O 383.828 0.746626 1.66529 0
M  V30 4061 C 383.879 3.59846 -0.345363 0
M  V30 4062 O 383.6 4.05256 -1.66432 0
M  V30 4063 C 385.101 4.4319 0.098927 0
M  V30 4064 H 382.321 0.656443 -0.139012 0
M  V30 4065 H 384.865 1.76786 -1.02796 0
M  V30 4066 H 383.02 3.86182 0.306955 0
M  V30 4067 H 383.434 4.99709 -1.59345 0
M  V30 4068 H 384.908 5.51989 0.0348745 0
M  V30 4069 H 385.385 4.23947 1.14741 0
M  V30 4070 H 385.991 4.22051 -0.52468 0
M  V30 4071 N 384.306 0.507319 1.49211 0
M  V30 4072 C 385.236 -0.256939 2.32082 0
M  V30 4073 C 386.217 -0.956609 1.40652 0
M  V30 4074 O 387.402 -0.946788 1.69557 0
M  V30 4075 C 384.532 -1.31802 3.21318 0
M  V30 4076 C 383.486 -0.737855 4.21592 0
M  V30 4077 C 382.812 -1.89992 4.99807 0
M  V30 4078 C 384.112 0.275325 5.21574 0
M  V30 4079 H 385.806 0.434798 2.96226 0
M  V30 4080 H 383.352 0.210546 1.42452 0
M  V30 4081 H 385.305 -1.86045 3.78107 0
M  V30 4082 H 384.029 -2.03903 2.5513 0
M  V30 4083 H 382.688 -0.217126 3.65956 0
M  V30 4084 H 382.336 -2.60877 4.30061 0
M  V30 4085 H 382.036 -1.51777 5.6766 0
M  V30 4086 H 383.56 -2.44657 5.59442 0
M  V30 4087 H 384.974 -0.179193 5.7302 0
M  V30 4088 H 383.371 0.573649 5.97352 0
M  V30 4089 H 384.441 1.18903 4.70096 0
M  V30 4090 N 385.784 -1.5574 0.241426 0
M  V30 4091 C 387.195 -1.84842 -0.262755 0
M  V30 4092 C 387.546 -1.16317 -1.58003 0
M  V30 4093 O 386.671 -0.439653 -2.11887 0
M  V30 4094 C 387.266 -3.35332 -0.483523 0
M  V30 4095 C 385.825 -3.6468 -0.931977 0
M  V30 4096 C 384.972 -2.77299 -0.0061151 0
M  V30 4097 H 387.923 -1.51761 0.464129 0
M  V30 4098 H 387.944 -3.56615 -1.32688 0
M  V30 4099 H 387.456 -3.85178 0.47537 0
M  V30 4100 H 385.557 -3.20307 -1.90353 0
M  V30 4101 H 385.67 -4.72498 -0.792628 0
M  V30 4102 H 384.034 -2.49408 -0.516503 0
M  V30 4103 H 384.817 -3.2995 0.948052 0
M  V30 4104 N 387.262 0.0317525 -1.57568 0
M  V30 4105 C 388.21 1.05165 -2.07468 0
M  V30 4106 C 389.204 1.3761 -0.98792 0
M  V30 4107 O 390.41 1.36546 -1.17282 0
M  V30 4108 H 386.785 0.35666 -0.66204 0
M  V30 4109 H 388.756 0.604958 -2.92203 0
M  V30 4110 C 387.505 2.34488 -2.56731 0
M  V30 4111 H 386.828 2.10383 -3.39969 0
M  V30 4112 H 388.268 3.04203 -2.95358 0
M  V30 4113 C 386.727 3.03266 -1.46736 0
M  V30 4114 O 387.257 3.92988 -0.832069 0
M  V30 4115 N 385.463 2.6455 -1.20256 0
M  V30 4116 H 385.01 1.91674 -1.72102 0
M  V30 4117 H 384.968 3.10886 -0.468737 0
M  V30 4118 N 388.74 1.54641 0.303973 0
M  V30 4119 C 389.968 1.77768 1.05858 0
M  V30 4120 C 390.383 0.535722 1.8104 0
M  V30 4121 O 389.74 -0.494337 1.75677 0
M  V30 4122 C 389.791 2.9834 2.04146 0
M  V30 4123 O 389.512 4.17736 1.32015 0
M  V30 4124 C 391.013 3.33832 2.91669 0
M  V30 4125 H 388.233 0.592961 0.314067 0
M  V30 4126 H 390.777 2.01583 0.344149 0
M  V30 4127 H 388.932 2.76742 2.71096 0
M  V30 4128 H 389.346 4.85693 1.97998 0
M  V30 4129 H 390.82 4.21448 3.56491 0
M  V30 4130 H 391.297 2.51857 3.59812 0
M  V30 4131 H 391.903 3.57579 2.30254 0
M  V30 4132 N 390.218 -0.567019 1.47046 0
M  V30 4133 C 391.448 -1.34831 1.56538 0
M  V30 4134 C 391.856 -1.8802 0.21101 0
M  V30 4135 O 391.199 -1.65152 -0.804387 0
M  V30 4136 C 391.261 -2.56139 2.52256 0
M  V30 4137 C 390.925 -2.24307 3.98165 0
M  V30 4138 C 391.922 -1.82192 4.86931 0
M  V30 4139 C 389.607 -2.35968 4.43423 0
M  V30 4140 C 391.601 -1.52153 6.18973 0
M  V30 4141 C 389.288 -2.05542 5.75496 0
M  V30 4142 C 390.286 -1.63701 6.63092 0
M  V30 4143 O 389.974 -1.33657 7.92711 0
M  V30 4144 H 389.706 -0.417683 0.531523 0
M  V30 4145 H 392.26 -0.694726 1.93294 0
M  V30 4146 H 390.49 -3.24356 2.10548 0
M  V30 4147 H 392.179 -3.18214 2.51982 0
M  V30 4148 H 392.945 -1.72684 4.53217 0
M  V30 4149 H 388.824 -2.67495 3.75456 0
M  V30 4150 H 392.368 -1.19421 6.87302 0
M  V30 4151 H 388.265 -2.14679 6.08755 0
M  V30 4152 H 389.033 -1.4737 8.05124 0
M  V30 4153 N 391.696 -1.35014 -0.812953 0
M  V30 4154 C 392.626 -1.30069 -1.93919 0
M  V30 4155 C 393.607 -0.176275 -1.69184 0
M  V30 4156 O 394.792 -0.370227 -1.90638 0
M  V30 4157 C 391.922 -1.06547 -3.30552 0
M  V30 4158 C 390.876 -2.15561 -3.69753 0
M  V30 4159 C 390.202 -1.77214 -5.04479 0
M  V30 4160 C 391.502 -3.57476 -3.808 0
M  V30 4161 H 393.196 -2.24303 -1.98314 0
M  V30 4162 H 390.742 -1.07977 -0.952736 0
M  V30 4163 H 392.695 -1.01729 -4.08937 0
M  V30 4164 H 391.419 -0.0875719 -3.26483 0
M  V30 4165 H 390.078 -2.19466 -2.9365 0
M  V30 4166 H 389.726 -0.780589 -4.96906 0
M  V30 4167 H 389.426 -2.50184 -5.31678 0
M  V30 4168 H 390.95 -1.7391 -5.8531 0
M  V30 4169 H 392.364 -3.55929 -4.4943 0
M  V30 4170 H 390.761 -4.29152 -4.19462 0
M  V30 4171 H 391.831 -3.94091 -2.82525 0
M  V30 4172 N 393.175 1.03435 -1.18907 0
M  V30 4173 C 394.107 2.1165 -0.879595 0
M  V30 4174 C 395.12 1.62316 0.125439 0
M  V30 4175 O 396.309 1.78201 -0.103245 0
M  V30 4176 C 393.409 3.37622 -0.294042 0
M  V30 4177 C 392.582 4.16166 -1.34629 0
M  V30 4178 C 391.641 5.20457 -0.775274 0
M  V30 4179 O 390.667 5.50379 -1.4516 0
M  V30 4180 N 391.869 5.78949 0.424126 0
M  V30 4181 H 394.634 2.38791 -1.81105 0
M  V30 4182 H 392.195 1.19681 -1.09032 0
M  V30 4183 H 394.187 4.04572 0.101679 0
M  V30 4184 H 392.757 3.07873 0.541575 0
M  V30 4185 H 391.977 3.44444 -1.91707 0
M  V30 4186 H 393.265 4.65432 -2.05549 0
M  V30 4187 H 392.663 5.56948 0.991209 0
M  V30 4188 H 391.22 6.47334 0.761691 0
M  V30 4189 N 394.653 0.992116 1.22453 0
M  V30 4190 C 395.883 0.684949 1.94915 0
M  V30 4191 C 396.291 -0.754292 1.73514 0
M  V30 4192 O 395.634 -1.52056 1.03076 0
M  V30 4193 C 395.696 0.910054 3.47791 0
M  V30 4194 C 395.36 2.33363 3.92926 0
M  V30 4195 C 396.357 3.31308 4.00663 0
M  V30 4196 C 394.042 2.66785 4.25595 0
M  V30 4197 C 396.036 4.6075 4.40441 0
M  V30 4198 C 393.723 3.96446 4.65053 0
M  V30 4199 C 394.721 4.9324 4.72444 0
M  V30 4200 O 394.409 6.20584 5.1101 0
M  V30 4201 H 394.141 0.25258 0.62704 0
M  V30 4202 H 396.695 1.32939 1.56577 0
M  V30 4203 H 394.925 0.208443 3.86138 0
M  V30 4204 H 396.614 0.598257 4.01467 0
M  V30 4205 H 397.38 3.0682 3.75615 0
M  V30 4206 H 393.259 1.92148 4.19047 0
M  V30 4207 H 396.803 5.363 4.46126 0
M  V30 4208 H 392.7 4.20724 4.89552 0
M  V30 4209 H 393.468 6.24509 5.29085 0
M  V30 4210 N 396.131 -1.37776 0.765217 0
M  V30 4211 C 397.361 -2.03828 0.337277 0
M  V30 4212 C 397.769 -1.57841 -1.04321 0
M  V30 4213 O 397.112 -0.752043 -1.67601 0
M  V30 4214 C 397.174 -3.58292 0.294407 0
M  V30 4215 C 396.838 -4.27384 1.61838 0
M  V30 4216 C 397.835 -4.51956 2.56967 0
M  V30 4217 C 395.52 -4.65345 1.89102 0
M  V30 4218 C 397.514 -5.13536 3.77571 0
M  V30 4219 C 395.201 -5.26647 3.09978 0
M  V30 4220 C 396.199 -5.50679 4.04032 0
M  V30 4221 O 395.887 -6.10702 5.2278 0
M  V30 4222 H 395.619 -0.661292 0.140248 0
M  V30 4223 H 398.173 -1.77222 1.03834 0
M  V30 4224 H 396.403 -3.83918 -0.462983 0
M  V30 4225 H 398.092 -4.05763 -0.105581 0
M  V30 4226 H 398.858 -4.23048 2.37183 0
M  V30 4227 H 394.737 -4.45978 1.16725 0
M  V30 4228 H 398.281 -5.3221 4.50997 0
M  V30 4229 H 394.178 -5.54979 3.29649 0
M  V30 4230 H 394.946 -6.29183 5.23517 0
M  V30 4231 N 397.609 -0.515225 -1.4894 0
M  V30 4232 C 398.539 0.244628 -2.32215 0
M  V30 4233 C 399.52 0.949136 -1.41157 0
M  V30 4234 O 400.705 0.937783 -1.70057 0
M  V30 4235 C 397.835 1.30096 -3.22013 0
M  V30 4236 C 396.789 0.715486 -4.21977 0
M  V30 4237 C 396.115 1.87339 -5.00808 0
M  V30 4238 C 397.415 -0.302982 -5.2142 0
M  V30 4239 H 399.109 -0.450501 -2.95991 0
M  V30 4240 H 396.655 -0.218098 -1.42339 0
M  V30 4241 H 398.608 1.84037 -3.79089 0
M  V30 4242 H 397.332 2.02547 -2.56207 0
M  V30 4243 H 395.991 0.197715 -3.66066 0
M  V30 4244 H 395.639 2.58592 -4.31438 0
M  V30 4245 H 395.339 1.48764 -5.68457 0
M  V30 4246 H 396.863 2.41686 -5.60732 0
M  V30 4247 H 398.277 0.148802 -5.73107 0
M  V30 4248 H 396.674 -0.60532 -5.97039 0
M  V30 4249 H 397.744 -1.21395 -4.69459 0
M  V30 4250 N 399.087 1.5561 -0.249682 0
M  V30 4251 C 400.334 1.99011 0.374287 0
M  V30 4252 C 400.662 1.13785 1.57744 0
M  V30 4253 O 399.917 0.189326 1.94782 0
M  V30 4254 C 400.216 3.4775 0.824887 0
M  V30 4255 C 399.882 4.50086 -0.270819 0
M  V30 4256 C 398.544 4.77791 -0.571746 0
M  V30 4257 C 400.896 5.11312 -1.01041 0
M  V30 4258 C 398.224 5.63997 -1.61629 0
M  V30 4259 C 400.576 5.98651 -2.0445 0
M  V30 4260 C 399.24 6.24688 -2.35204 0
M  V30 4261 H 398.51 0.728233 0.136961 0
M  V30 4262 H 401.157 1.88122 -0.358087 0
M  V30 4263 H 399.462 3.55985 1.63651 0
M  V30 4264 H 401.159 3.78721 1.31799 0
M  V30 4265 H 397.749 4.28592 -0.026136 0
M  V30 4266 H 401.933 4.89953 -0.791177 0
M  V30 4267 H 397.189 5.82425 -1.85988 0
M  V30 4268 H 401.363 6.45135 -2.62248 0
M  V30 4269 H 398.99 6.91281 -3.16282 0
M  V30 4270 N 400.565 -0.0233959 1.57583 0
M  V30 4271 C 401.976 -0.56927 1.77809 0
M  V30 4272 C 402.327 -1.75284 0.881472 0
M  V30 4273 O 401.452 -2.1626 0.0777805 0
M  V30 4274 C 402.047 -1.03949 3.22459 0
M  V30 4275 C 400.606 -1.53084 3.43864 0
M  V30 4276 C 399.753 -0.471454 2.73263 0
M  V30 4277 H 402.704 0.202825 1.57399 0
M  V30 4278 H 402.725 -1.90661 3.29285 0
M  V30 4279 H 402.237 -0.177865 3.87692 0
M  V30 4280 H 400.338 -2.41414 2.83814 0
M  V30 4281 H 400.451 -1.57443 4.52491 0
M  V30 4282 H 398.815 -0.927788 2.37201 0
M  V30 4283 H 399.598 0.380808 3.41181 0
M  V30 4284 N 402.043 -1.548 -0.295768 0
M  V30 4285 C 403.32 -1.65014 -1.05023 0
M  V30 4286 C 403.7 -0.501805 -2.05049 0
M  V30 4287 O 403.048 0.500869 -2.22943 0
M  V30 4288 C 403.258 -3.03252 -1.72741 0
M  V30 4289 C 404.606 -3.60242 -2.24746 0
M  V30 4290 O 405.63 -3.05737 -1.82765 0
M  V30 4291 O 404.489 -4.55687 -3.01681 0
M  V30 4292 H 401.583 -0.669314 -0.485744 0
M  V30 4293 H 404.129 -1.67144 -0.293438 0
M  V30 4294 H 402.901 -3.7827 -1.00138 0
M  V30 4295 H 402.524 -3.04922 -2.55163 0
M  V30 4296 N 403.521 0.559213 -1.47345 0
M  V30 4297 C 404.798 1.31997 -1.44348 0
M  V30 4298 C 405.178 2.1064 -0.139358 0
M  V30 4299 O 404.526 2.1091 0.879153 0
M  V30 4300 C 404.736 2.22618 -2.68779 0
M  V30 4301 C 406.084 2.83701 -3.1591 0
M  V30 4302 O 407.108 2.32921 -2.69493 0
M  V30 4303 O 405.967 3.75993 -3.966 0
M  V30 4304 H 403.061 0.594251 -0.575147 0
M  V30 4305 H 405.607 0.578282 -1.59543 0
M  V30 4306 H 404.379 1.64093 -3.55231 0
M  V30 4307 H 404.002 3.04085 -2.5616 0
M  V30 4308 N 404.999 1.35443 0.805782 0
M  V30 4309 C 405.932 1.22783 1.92353 0
M  V30 4310 C 406.91 0.115543 1.62189 0
M  V30 4311 O 408.094 0.283778 1.86352 0
M  V30 4312 C 405.221 0.890746 3.26777 0
M  V30 4313 C 404.267 2.01519 3.75889 0
M  V30 4314 S 405.1 3.63101 3.93596 0
M  V30 4315 C 406.256 3.31472 5.30921 0
M  V30 4316 H 406.489 2.17394 2.02798 0
M  V30 4317 H 404.022 1.20669 0.963245 0
M  V30 4318 H 405.98 0.703068 4.04434 0
M  V30 4319 H 404.641 -0.0373152 3.14078 0
M  V30 4320 H 403.834 1.7335 4.7325 0
M  V30 4321 H 403.436 2.16124 3.05231 0
M  V30 4322 H 405.728 2.8435 6.1494 0
M  V30 4323 H 406.671 4.28036 5.64084 0
M  V30 4324 H 407.079 2.67221 4.97246 0
M  V30 4325 N 406.477 -1.02803 1.19454 0
M  V30 4326 C 407.723 -1.76478 0.999171 0
M  V30 4327 C 408.056 -1.88456 -0.468828 0
M  V30 4328 O 407.331 -1.40198 -1.34814 0
M  V30 4329 C 407.614 -3.19044 1.66981 0
M  V30 4330 C 407.467 -3.14932 3.21151 0
M  V30 4331 C 408.786 -4.17456 1.39349 0
M  V30 4332 H 405.905 -0.640614 0.364393 0
M  V30 4333 H 408.547 -1.20005 1.47305 0
M  V30 4334 H 406.697 -3.67263 1.2669 0
M  V30 4335 H 408.369 -2.74605 3.70661 0
M  V30 4336 H 406.612 -2.52625 3.52652 0
M  V30 4337 H 407.283 -4.1566 3.63223 0
M  V30 4338 H 409.759 -3.77842 1.74283 0
M  V30 4339 H 408.635 -5.154 1.88823 0
M  V30 4340 H 408.896 -4.40949 0.318813 0
M  V30 4341 N 407.956 -0.998596 -1.21925 0
M  V30 4342 C 408.903 -0.553621 -2.24062 0
M  V30 4343 C 409.873 0.416999 -1.6078 0
M  V30 4344 O 411.058 0.320482 -1.88089 0
M  V30 4345 C 408.198 0.119959 -3.44891 0
M  V30 4346 C 407.311 -0.893077 -4.22668 0
M  V30 4347 C 406.446 -0.192424 -5.30851 0
M  V30 4348 C 405.485 -1.19344 -6.00353 0
M  V30 4349 N 404.622 -0.520707 -7.00166 0
M  V30 4350 H 409.462 -1.4293 -2.61486 0
M  V30 4351 H 406.999 -0.715838 -1.28507 0
M  V30 4352 H 408.957 0.527459 -4.13852 0
M  V30 4353 H 407.587 0.959389 -3.08214 0
M  V30 4354 H 406.639 -1.41886 -3.52948 0
M  V30 4355 H 407.951 -1.65512 -4.70539 0
M  V30 4356 H 407.105 0.271515 -6.06092 0
M  V30 4357 H 405.844 0.602075 -4.83969 0
M  V30 4358 H 404.849 -1.66795 -5.23889 0
M  V30 4359 H 406.074 -1.98891 -6.49322 0
M  V30 4360 H 404.02 0.254252 -6.55507 0
M  V30 4361 H 403.937 -1.2211 -7.46073 0
M  V30 4362 H 405.205 -0.0797596 -7.79459 0
M  V30 4363 N 409.434 1.37368 -0.772513 0
M  V30 4364 C 410.381 2.30262 -0.157488 0
M  V30 4365 C 411.351 1.51137 0.688965 0
M  V30 4366 O 412.536 1.79704 0.641168 0
M  V30 4367 C 409.676 3.37611 0.715045 0
M  V30 4368 C 408.789 4.31746 -0.148098 0
M  V30 4369 C 407.924 5.26171 0.729213 0
M  V30 4370 C 406.963 6.11948 -0.136418 0
M  V30 4371 N 406.1 6.98613 0.698914 0
M  V30 4372 H 410.94 2.82277 -0.955179 0
M  V30 4373 H 408.477 1.38957 -0.482631 0
M  V30 4374 H 410.435 3.98479 1.23575 0
M  V30 4375 H 409.065 2.86959 1.47833 0
M  V30 4376 H 408.117 3.72178 -0.786613 0
M  V30 4377 H 409.429 4.92084 -0.81579 0
M  V30 4378 H 408.583 5.92247 1.31637 0
M  V30 4379 H 407.322 4.66246 1.43059 0
M  V30 4380 H 406.327 5.4485 -0.736102 0
M  V30 4381 H 407.552 6.73945 -0.835134 0
M  V30 4382 H 405.498 6.41215 1.38489 0
M  V30 4383 H 405.415 7.55948 0.0885358 0
M  V30 4384 H 406.683 7.69077 1.27044 0
M  V30 4385 N 410.912 0.523116 1.48665 0
M  V30 4386 C 412.137 -0.0117284 2.07397 0
M  V30 4387 C 412.562 -1.28031 1.37803 0
M  V30 4388 O 411.92 -1.75836 0.441762 0
M  V30 4389 C 411.968 -0.225786 3.59892 0
M  V30 4390 O 411.072 -1.29592 3.91509 0
M  V30 4391 H 410.413 0.0360673 0.66302 0
M  V30 4392 H 412.943 0.729066 1.9117 0
M  V30 4393 H 412.953 -0.450552 4.05505 0
M  V30 4394 H 411.628 0.700944 4.09951 0
M  V30 4395 H 410.205 -1.05436 3.57684 0
M  V30 4396 N 412.39 -1.55475 0.257931 0
M  V30 4397 C 413.338 -2.23244 -0.653076 0
M  V30 4398 C 414.332 -1.22366 -1.17144 0
M  V30 4399 O 415.538 -1.40347 -1.12706 0
M  V30 4400 H 411.913 -0.716247 -0.229117 0
M  V30 4401 H 413.884 -2.98343 -0.0584788 0
M  V30 4402 C 412.633 -2.95401 -1.83395 0
M  V30 4403 H 411.956 -3.72802 -1.44424 0
M  V30 4404 H 413.396 -3.46165 -2.44838 0
M  V30 4405 C 411.855 -1.99895 -2.71189 0
M  V30 4406 O 412.385 -1.53909 -3.71046 0
M  V30 4407 N 410.591 -1.6676 -2.3799 0
M  V30 4408 H 410.138 -2.04352 -1.56837 0
M  V30 4409 H 410.096 -1.03127 -2.97005 0
M  V30 4410 N 413.868 0.0150385 -1.57593 0
M  V30 4411 C 415.279 0.559832 -1.78109 0
M  V30 4412 C 415.63 1.74814 -0.890756 0
M  V30 4413 O 414.755 2.16216 -0.0892482 0
M  V30 4414 C 415.35 1.02238 -3.23006 0
M  V30 4415 C 413.909 1.51258 -3.44671 0
M  V30 4416 C 413.056 0.456955 -2.73509 0
M  V30 4417 H 416.007 -0.211169 -1.57289 0
M  V30 4418 H 416.028 1.88912 -3.30292 0
M  V30 4419 H 415.54 0.157302 -3.87781 0
M  V30 4420 H 413.641 2.39905 -2.8509 0
M  V30 4421 H 413.754 1.55042 -4.5332 0
M  V30 4422 H 412.118 0.915196 -2.37689 0
M  V30 4423 H 412.901 -0.398896 -3.40975 0
M  V30 4424 N 415.346 1.54954 0.287554 0
M  V30 4425 C 416.294 1.87606 1.37502 0
M  V30 4426 C 417.288 0.751001 1.51843 0
M  V30 4427 O 418.494 0.935169 1.53801 0
M  V30 4428 H 414.869 0.595231 0.459569 0
M  V30 4429 H 416.84 2.78477 1.07206 0
M  V30 4430 C 415.589 2.15183 2.73115 0
M  V30 4431 H 414.912 3.01234 2.62866 0
M  V30 4432 H 416.352 2.4196 3.48183 0
M  V30 4433 C 414.811 0.954686 3.2309 0
M  V30 4434 O 415.341 0.181949 4.01288 0
M  V30 4435 N 413.547 0.756368 2.80584 0
M  V30 4436 H 413.094 1.38643 2.17108 0
M  V30 4437 H 413.052 -0.0430391 3.14371 0
M  V30 4438 N 416.824 -0.551391 1.4764 0
M  V30 4439 C 417.774 -1.65362 1.56969 0
M  V30 4440 C 418.758 -1.55098 0.428189 0
M  V30 4441 O 419.95 -1.63481 0.678441 0
M  V30 4442 C 417.079 -3.04129 1.59249 0
M  V30 4443 C 416.165 -3.19576 2.78804 0
M  V30 4444 N 416.556 -3.05067 4.03445 0
M  V30 4445 C 414.854 -3.50588 2.75688 0
M  V30 4446 C 415.555 -3.2336 4.83543 0
M  V30 4447 N 414.531 -3.4996 4.15968 0
M  V30 4448 H 418.333 -1.52722 2.51104 0
M  V30 4449 H 415.847 -0.756303 1.43714 0
M  V30 4450 H 417.844 -3.83278 1.64024 0
M  V30 4451 H 416.504 -3.17877 0.662148 0
M  V30 4452 H 417.515 -2.82273 4.34215 0
M  V30 4453 H 414.192 -3.70827 1.91817 0
M  V30 4454 H 415.582 -3.17061 5.92387 0
M  V30 4455 N 418.302 -1.35869 -0.798587 0
M  V30 4456 C 419.53 -1.32722 -1.58722 0
M  V30 4457 C 419.945 0.0935631 -1.88568 0
M  V30 4458 O 419.302 1.04784 -1.49421 0
M  V30 4459 C 419.353 -2.13974 -2.91371 0
M  V30 4460 O 419.074 -3.50514 -2.62815 0
M  V30 4461 C 420.575 -2.18504 -3.85708 0
M  V30 4462 H 417.795 -0.45562 -0.492596 0
M  V30 4463 H 420.339 -1.78837 -0.991843 0
M  V30 4464 H 418.494 -1.71438 -3.47402 0
M  V30 4465 H 418.908 -3.92806 -3.47568 0
M  V30 4466 H 420.382 -2.79732 -4.75872 0
M  V30 4467 H 420.859 -1.18597 -4.22885 0
M  V30 4468 H 421.465 -2.61236 -3.35612 0
M  V30 4469 N 419.78 1.02168 -1.19998 0
M  V30 4470 C 421.196 1.27969 -0.953737 0
M  V30 4471 C 421.396 1.98079 0.369703 0
M  V30 4472 O 420.452 2.27306 1.09947 0
M  V30 4473 C 421.765 2.11971 -2.13281 0
M  V30 4474 C 423.313 2.25255 -2.17323 0
M  V30 4475 C 423.788 3.12632 -3.34702 0
M  V30 4476 N 425.279 3.2022 -3.34684 0
M  V30 4477 C 426.014 3.88039 -4.22153 0
M  V30 4478 N 425.51 4.58027 -5.19791 0
M  V30 4479 N 427.303 3.84511 -4.10009 0
M  V30 4480 H 419.454 0.550794 -2.05134 0
M  V30 4481 H 421.717 0.305683 -0.897364 0
M  V30 4482 H 421.423 1.67785 -3.09097 0
M  V30 4483 H 421.297 3.12699 -2.10949 0
M  V30 4484 H 423.684 2.68667 -1.22073 0
M  V30 4485 H 423.765 1.24053 -2.23706 0
M  V30 4486 H 423.409 2.69926 -4.30235 0
M  V30 4487 H 423.339 4.13909 -3.25556 0
M  V30 4488 H 425.83 2.70382 -2.64012 0
M  V30 4489 H 426.143 5.07429 -5.82868 0
M  V30 4490 H 424.488 4.56869 -5.23733 0
M  V30 4491 H 427.679 3.28978 -3.33003 0
M  V30 4492 H 427.852 4.3709 -4.78389 0
M  V30 4493 N 421.258 1.00505 1.21394 0
M  V30 4494 C 422.221 0.570459 2.21987 0
M  V30 4495 C 423.221 -0.353211 1.56873 0
M  V30 4496 O 424.411 -0.14349 1.73608 0
M  V30 4497 C 421.543 -0.168555 3.40483 0
M  V30 4498 H 422.736 1.46021 2.6195 0
M  V30 4499 H 420.289 0.793565 1.34656 0
M  V30 4500 H 421.024 -1.07374 3.06009 0
M  V30 4501 H 420.809 0.494823 3.88965 0
M  V30 4502 H 422.299 -0.460362 4.15055 0
M  V30 4503 N 422.737 -1.36956 0.779787 0
M  V30 4504 C 423.685 -2.32053 0.15942 0
M  V30 4505 C 424.679 -1.55333 -0.675878 0
M  V30 4506 O 425.885 -1.70668 -0.57204 0
M  V30 4507 H 422.26 -0.751286 0.0327707 0
M  V30 4508 H 424.231 -2.8195 0.977078 0
M  V30 4509 C 422.98 -3.40602 -0.698977 0
M  V30 4510 H 422.303 -3.99746 -0.0655966 0
M  V30 4511 H 423.743 -4.09486 -1.09989 0
M  V30 4512 C 422.202 -2.81359 -1.85307 0
M  V30 4513 O 422.732 -2.72751 -2.94906 0
M  V30 4514 N 420.938 -2.38786 -1.65619 0
M  V30 4515 H 420.485 -2.45987 -0.764725 0
M  V30 4516 H 420.443 -1.99493 -2.43002 0
M  V30 4517 N 424.215 -0.530993 -1.48385 0
M  V30 4518 C 425.125 0.23503 -2.3342 0
M  V30 4519 C 426.141 0.93801 -1.46552 0
M  V30 4520 O 427.317 0.912745 -1.7953 0
M  V30 4521 C 424.382 1.26778 -3.22689 0
M  V30 4522 C 423.443 0.575038 -4.25431 0
M  V30 4523 C 422.676 1.55858 -5.10435 0
M  V30 4524 O 422.899 2.79129 -4.97437 0
M  V30 4525 O 421.833 1.09742 -5.91811 0
M  V30 4526 H 425.659 -0.461794 -3.00169 0
M  V30 4527 H 423.244 -0.291903 -1.46521 0
M  V30 4528 H 425.126 1.86457 -3.77904 0
M  V30 4529 H 423.801 1.94699 -2.586 0
M  V30 4530 H 422.708 -0.0622782 -3.74048 0
M  V30 4531 H 424.041 -0.062253 -4.92161 0
M  V30 4532 N 425.693 1.55336 -0.266172 0
M  V30 4533 C 426.939 1.99692 0.353681 0
M  V30 4534 C 427.272 1.1543 1.56172 0
M  V30 4535 O 426.547 0.222218 1.93226 0
M  V30 4536 C 426.83 3.52316 0.74466 0
M  V30 4537 C 426.683 4.47337 -0.470101 0
M  V30 4538 C 428.002 4.10588 1.58447 0
M  V30 4539 H 425.121 0.725961 0.12708 0
M  V30 4540 H 427.763 1.86336 -0.371333 0
M  V30 4541 H 425.913 3.63829 1.36239 0
M  V30 4542 H 427.585 4.4778 -1.10864 0
M  V30 4543 H 425.828 4.19364 -1.10978 0
M  V30 4544 H 426.499 5.51788 -0.15291 0
M  V30 4545 H 428.975 4.02297 1.06286 0
M  V30 4546 H 427.851 5.17607 1.82686 0
M  V30 4547 H 428.112 3.60253 2.56262 0
M  V30 4548 N 427.171 -0.0066808 1.57599 0
M  V30 4549 C 428.104 -1.03397 2.03431 0
M  V30 4550 C 429.082 -1.33872 0.922877 0
M  V30 4551 O 430.266 -1.4615 1.19048 0
M  V30 4552 C 427.393 -2.36325 2.42628 0
M  V30 4553 C 426.439 -2.21557 3.64438 0
M  V30 4554 S 427.272 -1.54789 5.12641 0
M  V30 4555 C 428.428 -2.8916 5.55101 0
M  V30 4556 H 428.661 -0.643687 2.90248 0
M  V30 4557 H 426.194 -0.217349 1.52863 0
M  V30 4558 H 428.152 -3.12759 2.65879 0
M  V30 4559 H 426.813 -2.72495 1.56222 0
M  V30 4560 H 426.006 -3.1974 3.89592 0
M  V30 4561 H 425.608 -1.53267 3.41153 0
M  V30 4562 H 427.9 -3.8547 5.57153 0
M  V30 4563 H 428.843 -2.68713 6.55133 0
M  V30 4564 H 429.251 -2.92762 4.82649 0
M  V30 4565 N 428.649 -1.55105 -0.279332 0
M  V30 4566 C 429.559 -1.90638 -1.36727 0
M  V30 4567 C 430.575 -0.802899 -1.54368 0
M  V30 4568 O 431.751 -1.10138 -1.68616 0
M  V30 4569 C 428.816 -2.16547 -2.70755 0
M  V30 4570 C 427.877 -3.40146 -2.61915 0
M  V30 4571 C 427.11 -3.6481 -3.8955 0
M  V30 4572 O 427.333 -2.92095 -4.89935 0
M  V30 4573 O 426.267 -4.58343 -3.90135 0
M  V30 4574 H 430.093 -2.83237 -1.09591 0
M  V30 4575 H 427.678 -1.4157 -0.477306 0
M  V30 4576 H 429.56 -2.34665 -3.50014 0
M  V30 4577 H 428.235 -1.27131 -2.9769 0
M  V30 4578 H 427.142 -3.2737 -1.81052 0
M  V30 4579 H 428.475 -4.29761 -2.3993 0
M  V30 4580 N 430.127 0.543554 -1.4793 0
M  V30 4581 C 431.375 1.29752 -1.54948 0
M  V30 4582 C 431.696 1.93764 -0.219242 0
M  V30 4583 O 430.966 1.80639 0.75805 0
M  V30 4584 H 429.546 0.481874 -0.570795 0
M  V30 4585 H 432.208 0.633636 -1.84312 0
M  V30 4586 H 431.304 2.08392 -2.32334 0
M  V30 4587 N 431.605 1.3629 0.791371 0
M  V30 4588 C 433.021 1.16661 1.08914 0
M  V30 4589 C 433.221 -0.0106266 2.01497 0
M  V30 4590 O 432.277 -0.676596 2.43266 0
M  V30 4591 C 433.59 2.47656 1.70549 0
M  V30 4592 C 435.138 2.54002 1.82899 0
M  V30 4593 C 435.613 3.85078 2.47949 0
M  V30 4594 N 437.104 3.86413 2.5542 0
M  V30 4595 C 437.839 4.84572 3.06557 0
M  V30 4596 N 437.335 5.93124 3.58016 0
M  V30 4597 N 439.128 4.71994 3.05251 0
M  V30 4598 H 431.279 2.11668 0.176238 0
M  V30 4599 H 433.542 0.937486 0.140796 0
M  V30 4600 H 433.248 3.34059 1.09989 0
M  V30 4601 H 433.122 2.63319 2.70079 0
M  V30 4602 H 435.509 1.68018 2.42598 0
M  V30 4603 H 435.59 2.42239 0.821808 0
M  V30 4604 H 435.234 4.71467 1.88895 0
M  V30 4605 H 435.164 3.94135 3.49235 0
M  V30 4606 H 437.655 3.07988 2.18979 0
M  V30 4607 H 437.968 6.63999 3.95381 0
M  V30 4608 H 436.313 5.96796 3.56173 0
M  V30 4609 H 439.504 3.86321 2.64336 0
M  V30 4610 H 439.677 5.48653 3.44796 0
M  V30 4611 N 433.083 -1.0153 1.20538 0
M  V30 4612 C 433.993 -2.13557 0.971113 0
M  V30 4613 C 435.009 -1.73845 -0.0734366 0
M  V30 4614 O 436.185 -2.01075 0.114299 0
M  V30 4615 C 433.25 -3.42661 0.527639 0
M  V30 4616 C 432.311 -3.96608 1.64319 0
M  V30 4617 C 431.544 -5.1955 1.22078 0
M  V30 4618 O 431.767 -5.70329 0.0900198 0
M  V30 4619 O 430.701 -5.66681 2.02871 0
M  V30 4620 H 434.527 -2.3619 1.90913 0
M  V30 4621 H 432.112 -1.11946 0.989362 0
M  V30 4622 H 433.994 -4.20404 0.289621 0
M  V30 4623 H 432.669 -3.21441 -0.381779 0
M  V30 4624 H 431.576 -3.20139 1.93551 0
M  V30 4625 H 432.909 -4.22219 2.52966 0
M  V30 4626 N 434.561 -1.01147 -1.20859 0
M  V30 4627 C 435.524 -0.582224 -2.21682 0
M  V30 4628 C 436.524 0.344887 -1.57058 0
M  V30 4629 O 437.714 0.134281 -1.73682 0
M  V30 4630 C 434.846 0.150496 -3.40568 0
M  V30 4631 H 436.039 -1.47408 -2.61172 0
M  V30 4632 H 433.592 -0.800695 -1.34233 0
M  V30 4633 H 434.327 1.0575 -3.06574 0
M  V30 4634 H 434.112 -0.515444 -3.88697 0
M  V30 4635 H 435.602 0.438344 -4.15293 0
M  V30 4636 N 436.039 1.36541 -0.78704 0
M  V30 4637 C 437.286 1.99304 -0.358341 0
M  V30 4638 C 437.614 1.62467 1.06933 0
M  V30 4639 O 436.869 0.870019 1.75297 0
M  V30 4640 C 437.168 3.54343 -0.466485 0
M  V30 4641 C 436.834 4.10993 -1.85461 0
M  V30 4642 C 435.496 4.26177 -2.23443 0
M  V30 4643 C 437.848 4.41895 -2.76366 0
M  V30 4644 C 435.176 4.69573 -3.51736 0
M  V30 4645 C 437.528 4.86722 -4.04084 0
M  V30 4646 C 436.192 5.00112 -4.42091 0
M  V30 4647 H 435.462 0.729306 -0.131126 0
M  V30 4648 H 438.109 1.63068 -1.00404 0
M  V30 4649 H 436.414 3.90918 0.262719 0
M  V30 4650 H 438.111 4.00833 -0.115854 0
M  V30 4651 H 434.701 3.99612 -1.54946 0
M  V30 4652 H 438.885 4.29735 -2.48277 0
M  V30 4653 H 434.141 4.78127 -3.81057 0
M  V30 4654 H 438.315 5.09598 -4.7464 0
M  V30 4655 H 435.942 5.33498 -5.41557 0
M  V30 4656 N 437.518 0.538854 1.48102 0
M  V30 4657 C 438.767 0.0059532 2.01699 0
M  V30 4658 C 439.08 -1.34476 1.42041 0
M  V30 4659 O 440.286 -1.96653 1.87189 0
M  V30 4660 C 438.742 -0.0397627 3.59878 0
M  V30 4661 C 438.35 1.30659 4.28523 0
M  V30 4662 C 440.094 -0.521024 4.2129 0
M  V30 4663 C 438.001 1.22098 5.78659 0
M  V30 4664 H 436.931 -0.00154456 0.753998 0
M  V30 4665 H 439.582 0.683963 1.70277 0
M  V30 4666 H 437.964 -0.783037 3.88181 0
M  V30 4667 H 439.138 2.06613 4.11883 0
M  V30 4668 H 437.453 1.7243 3.79021 0
M  V30 4669 H 440.05 -0.603184 5.31287 0
M  V30 4670 H 440.393 -1.52885 3.8721 0
M  V30 4671 H 440.926 0.166834 3.9745 0
M  V30 4672 H 437.665 2.20424 6.17328 0
M  V30 4673 H 437.185 0.50295 5.97688 0
M  V30 4674 H 438.864 0.915345 6.40492 0
M  V30 4675 N 438.996 -1.55193 0.274407 0
M  V30 4676 C 440.243 -1.99581 -0.342579 0
M  V30 4677 C 440.571 -1.1628 -1.55914 0
M  V30 4678 O 439.826 -0.22029 -1.94456 0
M  V30 4679 C 440.125 -3.49019 -0.769458 0
M  V30 4680 C 439.791 -4.49598 0.342389 0
M  V30 4681 C 438.453 -4.76821 0.647686 0
M  V30 4682 C 440.805 -5.0964 1.09163 0
M  V30 4683 C 438.133 -5.61354 1.70581 0
M  V30 4684 C 440.485 -5.95323 2.13948 0
M  V30 4685 C 439.149 -6.20867 2.45113 0
M  V30 4686 H 438.419 -0.730319 -0.125358 0
M  V30 4687 H 441.066 -1.87529 0.387971 0
M  V30 4688 H 439.371 -3.58544 -1.57967 0
M  V30 4689 H 441.068 -3.8077 -1.25757 0
M  V30 4690 H 437.658 -4.28496 0.094318 0
M  V30 4691 H 441.842 -4.88632 0.869024 0
M  V30 4692 H 437.098 -5.79392 1.9523 0
M  V30 4693 H 441.272 -6.40881 2.72478 0
M  V30 4694 H 438.899 -6.86162 3.27239 0
M  V30 4695 N 440.474 -0.00167713 -1.576 0
M  V30 4696 C 441.699 0.69739 -1.95323 0
M  V30 4697 C 442.124 1.6642 -0.876706 0
M  V30 4698 O 441.482 1.80548 0.165007 0
M  V30 4699 C 441.53 1.40403 -3.32144 0
M  V30 4700 O 440.634 2.5185 -3.26566 0
M  V30 4701 H 439.975 0.185373 -0.637599 0
M  V30 4702 H 442.505 -0.0553665 -2.04525 0
M  V30 4703 H 442.515 1.76707 -3.67748 0
M  V30 4704 H 441.19 0.695167 -4.10049 0
M  V30 4705 H 439.767 2.17861 -3.0264 0
M  V30 4706 N 441.952 1.55251 0.271103 0
M  V30 4707 C 442.884 1.84675 1.35749 0
M  V30 4708 C 443.897 0.731366 1.45447 0
M  V30 4709 O 445.086 1.00924 1.4723 0
M  V30 4710 C 442.186 1.99638 2.73857 0
M  V30 4711 C 441.359 3.30312 2.86727 0
M  V30 4712 C 440.418 3.35318 4.05522 0
M  V30 4713 O 439.444 4.08682 3.96191 0
M  V30 4714 N 440.646 2.62857 5.17577 0
M  V30 4715 H 443.411 2.78445 1.10853 0
M  V30 4716 H 440.972 1.55191 0.461218 0
M  V30 4717 H 442.964 2.00355 3.51625 0
M  V30 4718 H 441.534 1.12725 2.91568 0
M  V30 4719 H 440.754 3.42118 1.95829 0
M  V30 4720 H 442.042 4.16488 2.92258 0
M  V30 4721 H 441.44 2.02939 5.28046 0
M  V30 4722 H 439.997 2.69295 5.93568 0
M  V30 4723 N 443.43 -0.535701 1.48216 0
M  V30 4724 C 444.67 -1.30238 1.57536 0
M  V30 4725 C 445.034 -1.90479 0.241229 0
M  V30 4726 O 446.235 -2.67983 0.20938 0
M  V30 4727 C 444.506 -2.3669 2.67792 0
M  V30 4728 S 446.065 -3.23159 2.9684 0
M  V30 4729 H 442.883 -0.443093 0.556048 0
M  V30 4730 H 445.485 -0.610937 1.85709 0
M  V30 4731 H 444.189 -1.90905 3.63296 0
M  V30 4732 H 443.72 -3.10548 2.41502 0
M  V30 4733 H 445.735 -4.36647 2.35699 0
M  V30 4734 N 444.908 -1.36708 -0.784132 0
M  V30 4735 C 446.185 -1.21776 -1.53069 0
M  V30 4736 C 446.565 0.193876 -2.10208 0
M  V30 4737 O 445.913 1.20012 -1.94446 0
M  V30 4738 C 446.123 -2.30395 -2.62143 0
M  V30 4739 C 447.471 -2.67325 -3.29882 0
M  V30 4740 O 448.495 -2.29478 -2.7243 0
M  V30 4741 O 447.354 -3.32485 -4.33724 0
M  V30 4742 H 444.448 -0.474459 -0.677361 0
M  V30 4743 H 446.994 -1.48454 -0.82216 0
M  V30 4744 H 445.766 -3.2498 -2.17953 0
M  V30 4745 H 445.389 -2.05112 -3.40609 0
M  V30 4746 N 446.386 1.0089 -1.21074 0
M  V30 4747 C 447.319 2.09279 -0.909806 0
M  V30 4748 C 448.297 1.61986 0.141145 0
M  V30 4749 O 449.481 1.88495 0.0130332 0
M  V30 4750 C 446.608 3.36723 -0.365374 0
M  V30 4751 C 445.654 4.02919 -1.39852 0
M  V30 4752 S 446.487 4.45835 -2.96633 0
M  V30 4753 C 447.643 5.76471 -2.43786 0
M  V30 4754 H 447.876 2.34484 -1.82769 0
M  V30 4755 H 445.409 1.14115 -1.04006 0
M  V30 4756 H 447.367 4.10459 -0.0578203 0
M  V30 4757 H 446.028 3.09577 0.531136 0
M  V30 4758 H 445.221 4.94634 -0.967117 0
M  V30 4759 H 444.823 3.35441 -1.65395 0
M  V30 4760 H 447.115 6.52027 -1.84029 0
M  V30 4761 H 448.058 6.24418 -3.33928 0
M  V30 4762 H 448.466 5.33104 -1.85636 0
M  V30 4763 N 447.864 1.01787 1.20321 0
M  V30 4764 C 449.113 0.703249 1.89043 0
M  V30 4765 C 449.426 -0.770445 1.79787 0
M  V30 4766 O 450.632 -1.19767 2.43656 0
M  V30 4767 C 449.088 1.20749 3.3904 0
M  V30 4768 C 448.696 2.70817 3.56878 0
M  V30 4769 C 450.44 0.968352 4.13308 0
M  V30 4770 C 448.347 3.14716 5.00708 0
M  V30 4771 H 447.277 0.259354 0.707991 0
M  V30 4772 H 449.928 1.23072 1.36108 0
M  V30 4773 H 448.31 0.607989 3.91305 0
M  V30 4774 H 449.484 3.36327 3.14993 0
M  V30 4775 H 447.799 2.92888 2.95983 0
M  V30 4776 H 450.396 1.27173 5.19356 0
M  V30 4777 H 450.739 -0.095149 4.16191 0
M  V30 4778 H 451.272 1.53129 3.67146 0
M  V30 4779 H 448.011 4.20347 5.02979 0
M  V30 4780 H 447.531 2.53927 5.43398 0
M  V30 4781 H 449.21 3.07426 5.69296 0
M  V30 4782 N 449.342 -1.36122 0.79427 0
M  V30 4783 C 450.57 -2.03362 0.380989 0
M  V30 4784 C 450.985 -1.59881 -1.00416 0
M  V30 4785 O 450.342 -0.790515 -1.6449 0
M  V30 4786 C 450.393 -3.58804 0.440649 0
M  V30 4787 O 450.114 -4.007 1.77118 0
M  V30 4788 C 451.615 -4.43296 0.0186117 0
M  V30 4789 H 448.835 -0.652526 0.156367 0
M  V30 4790 H 451.379 -1.73998 1.07447 0
M  V30 4791 H 449.534 -3.8686 -0.204458 0
M  V30 4792 H 449.948 -4.95309 1.72538 0
M  V30 4793 H 451.422 -5.51887 0.111488 0
M  V30 4794 H 451.899 -4.2684 -1.03461 0
M  V30 4795 H 452.505 -4.20512 0.636395 0
M  V30 4796 N 450.82 -0.546701 -1.47814 0
M  V30 4797 C 452.236 -0.205717 -1.58269 0
M  V30 4798 C 452.436 1.29153 -1.54667 0
M  V30 4799 O 451.492 2.07098 -1.44453 0
M  V30 4800 C 452.805 -0.823065 -2.89216 0
M  V30 4801 C 454.353 -0.793328 -3.02779 0
M  V30 4802 C 454.828 -1.38955 -4.36412 0
M  V30 4803 N 456.319 -1.35227 -4.43021 0
M  V30 4804 C 457.054 -1.78333 -5.44963 0
M  V30 4805 N 456.55 -2.29246 -6.53772 0
M  V30 4806 N 458.343 -1.69467 -5.35945 0
M  V30 4807 H 450.494 -1.5196 -1.48398 0
M  V30 4808 H 452.757 -0.633078 -0.705632 0
M  V30 4809 H 452.463 -1.8749 -2.97558 0
M  V30 4810 H 452.337 -0.309915 -3.75925 0
M  V30 4811 H 454.724 0.249784 -2.94041 0
M  V30 4812 H 454.805 -1.34412 -2.17639 0
M  V30 4813 H 454.449 -2.43168 -4.45906 0
M  V30 4814 H 454.379 -0.814291 -5.20266 0
M  V30 4815 H 456.87 -0.979739 -3.64979 0
M  V30 4816 H 457.183 -2.60089 -7.27718 0
M  V30 4817 H 455.528 -2.3325 -6.5469 0
M  V30 4818 H 458.719 -1.29477 -4.49837 0
M  V30 4819 H 458.892 -2.03381 -6.15256 0
M  V30 4820 N 452.299 1.55045 -0.282633 0
M  V30 4821 C 453.209 2.26491 0.61147 0
M  V30 4822 C 454.225 1.29348 1.16384 0
M  V30 4823 O 455.401 1.62298 1.19253 0
M  V30 4824 C 452.466 2.97779 1.77563 0
M  V30 4825 C 451.527 4.10418 1.25919 0
M  V30 4826 C 450.76 4.78297 2.36786 0
M  V30 4827 O 450.983 4.45426 3.56303 0
M  V30 4828 O 449.917 5.66089 2.04517 0
M  V30 4829 H 453.743 3.03683 0.0324615 0
M  V30 4830 H 451.328 1.49317 -0.0497576 0
M  V30 4831 H 453.21 3.42554 2.45427 0
M  V30 4832 H 451.885 2.23498 2.34159 0
M  V30 4833 H 450.792 3.70082 0.546797 0
M  V30 4834 H 452.125 4.86622 0.738887 0
M  V30 4835 N 453.777 0.010035 1.57597 0
M  V30 4836 C 454.709 -1.00649 2.05918 0
M  V30 4837 C 455.722 -1.30077 0.978964 0
M  V30 4838 O 456.911 -1.26878 1.25556 0
M  V30 4839 C 454.011 -2.33876 2.45265 0
M  V30 4840 C 453.184 -2.23242 3.7614 0
M  V30 4841 C 452.243 -3.39242 4.02245 0
M  V30 4842 O 451.269 -3.1698 4.72771 0
M  V30 4843 N 452.471 -4.6242 3.50924 0
M  V30 4844 H 455.236 -0.594333 2.93748 0
M  V30 4845 H 452.797 -0.17714 1.60928 0
M  V30 4846 H 454.789 -3.1027 2.59836 0
M  V30 4847 H 453.359 -2.66799 1.62902 0
M  V30 4848 H 452.579 -1.31696 3.71551 0
M  V30 4849 H 453.867 -2.13321 4.61922 0
M  V30 4850 H 453.265 -4.83404 2.93832 0
M  V30 4851 H 451.822 -5.36046 3.70807 0
M  V30 4852 N 455.255 -1.55392 -0.262866 0
M  V30 4853 C 456.48 -1.80847 -1.01533 0
M  V30 4854 C 456.905 -0.584946 -1.78774 0
M  V30 4855 O 456.263 0.465701 -1.75217 0
M  V30 4856 C 456.311 -3.03866 -1.94159 0
M  V30 4857 O 455.415 -2.79662 -3.03089 0
M  V30 4858 H 454.756 -0.597441 -0.289759 0
M  V30 4859 H 457.286 -2.02553 -0.288698 0
M  V30 4860 H 457.296 -3.32872 -2.35924 0
M  V30 4861 H 455.971 -3.92564 -1.37354 0
M  V30 4862 H 454.548 -2.61781 -2.65566 0
M  V30 4863 N 456.733 0.527833 -1.48498 0
M  V30 4864 C 457.958 1.313 -1.60546 0
M  V30 4865 C 458.383 1.86199 -0.26672 0
M  V30 4866 O 457.741 1.64513 0.761918 0
M  V30 4867 C 457.789 2.43818 -2.65678 0
M  V30 4868 O 456.893 3.46916 -2.22987 0
M  V30 4869 H 456.234 0.388784 -0.538277 0
M  V30 4870 H 458.764 0.634896 -1.945 0
M  V30 4871 H 458.774 2.89973 -2.87018 0
M  V30 4872 H 457.449 2.03222 -3.62869 0
M  V30 4873 H 456.026 3.06864 -2.11869 0
M  V30 4874 N 458.211 1.37122 0.776871 0
M  V30 4875 C 459.121 1.34651 1.9211 0
M  V30 4876 C 460.137 0.246824 1.7224 0
M  V30 4877 O 461.313 0.48134 1.95563 0
M  V30 4878 C 458.378 1.14748 3.2716 0
M  V30 4879 C 457.439 2.34308 3.5972 0
M  V30 4880 C 456.672 2.15345 4.88326 0
M  V30 4881 O 456.895 1.13507 5.58992 0
M  V30 4882 O 455.829 3.03414 5.1983 0
M  V30 4883 H 459.655 2.31013 1.97146 0
M  V30 4884 H 457.24 1.17799 0.918901 0
M  V30 4885 H 459.122 1.05616 4.0795 0
M  V30 4886 H 457.797 0.214562 3.22988 0
M  V30 4887 H 456.704 2.49011 2.79185 0
M  V30 4888 H 458.037 3.26149 3.68629 0
M  V30 4889 N 459.689 -1.00246 1.21608 0
M  V30 4890 C 460.637 -2.11193 0.97469 0
M  V30 4891 C 461.631 -1.69216 -0.0789303 0
M  V30 4892 O 462.837 -1.79853 0.0726806 0
M  V30 4893 H 459.212 -0.690455 0.297953 0
M  V30 4894 H 461.183 -2.2873 1.91638 0
M  V30 4895 C 459.932 -3.43182 0.558717 0
M  V30 4896 H 459.255 -3.75918 1.3611 0
M  V30 4897 H 460.695 -4.21823 0.429154 0
M  V30 4898 C 459.154 -3.28882 -0.730648 0
M  V30 4899 O 459.684 -3.59835 -1.78554 0
M  V30 4900 N 457.89 -2.8209 -0.698131 0
M  V30 4901 H 457.437 -2.57099 0.16061 0
M  V30 4902 H 457.395 -2.72903 -1.56113 0
M  V30 4903 N 461.167 -1.02423 -1.1978 0
M  V30 4904 C 462.392 -0.7373 -1.93852 0
M  V30 4905 C 462.817 0.696923 -1.74713 0
M  V30 4906 O 462.175 1.48056 -1.04638 0
M  V30 4907 C 462.223 -1.08783 -3.438 0
M  V30 4908 O 461.327 -0.20383 -4.11896 0
M  V30 4909 H 460.668 -0.27284 -0.605355 0
M  V30 4910 H 463.198 -1.36966 -1.51992 0
M  V30 4911 H 463.208 -1.04276 -3.9445 0
M  V30 4912 H 461.883 -2.13274 -3.57053 0
M  V30 4913 H 460.46 -0.307091 -3.71633 0
M  V30 4914 N 462.645 1.35699 -0.801477 0
M  V30 4915 C 463.555 2.33661 -0.209691 0
M  V30 4916 C 464.571 1.6162 0.644591 0
M  V30 4917 O 465.747 1.93529 0.557545 0
M  V30 4918 C 462.812 3.40816 0.636033 0
M  V30 4919 C 461.873 4.28639 -0.238147 0
M  V30 4920 C 461.106 5.30676 0.567307 0
M  V30 4921 O 461.329 5.41174 1.8024 0
M  V30 4922 O 460.263 6.01887 -0.0391336 0
M  V30 4923 H 464.089 2.8606 -1.01996 0
M  V30 4924 H 461.674 1.38379 -0.563164 0
M  V30 4925 H 463.556 4.06301 1.11791 0
M  V30 4926 H 462.231 2.90696 1.42399 0
M  V30 4927 H 461.138 3.66152 -0.767044 0
M  V30 4928 H 462.471 4.82143 -0.989915 0
M  V30 4929 N 464.123 0.554532 1.47522 0
M  V30 4930 C 465.372 0.0273458 2.01681 0
M  V30 4931 C 465.685 -1.32962 1.43459 0
M  V30 4932 O 466.891 -1.94657 1.89265 0
M  V30 4933 C 465.347 -0.00159057 3.599 0
M  V30 4934 C 464.955 1.35197 4.27113 0
M  V30 4935 C 466.699 -0.476311 4.21819 0
M  V30 4936 C 464.606 1.28229 5.77331 0
M  V30 4937 H 463.536 0.00645269 0.753972 0
M  V30 4938 H 466.187 0.701985 1.69542 0
M  V30 4939 H 464.569 -0.741821 3.8899 0
M  V30 4940 H 465.743 2.1097 4.09668 0
M  V30 4941 H 464.058 1.76441 3.77171 0
M  V30 4942 H 466.655 -0.5468 5.31897 0
M  V30 4943 H 466.998 -1.4877 3.8881 0
M  V30 4944 H 467.531 0.20898 3.97251 0
M  V30 4945 H 464.27 2.26959 6.14955 0
M  V30 4946 H 463.79 0.566314 5.97121 0
M  V30 4947 H 465.469 0.983226 6.39485 0
M  V30 4948 N 465.601 -1.54893 0.290851 0
M  V30 4949 C 466.548 -2.23138 -0.58974 0
M  V30 4950 C 467.518 -1.21036 -1.13752 0
M  V30 4951 O 468.703 -1.49626 -1.18392 0
M  V30 4952 C 465.843 -2.96811 -1.76061 0
M  V30 4953 C 464.956 -4.13665 -1.24519 0
M  V30 4954 C 464.091 -4.74944 -2.3791 0
M  V30 4955 C 463.13 -5.83963 -1.83451 0
M  V30 4956 N 462.267 -6.39239 -2.90376 0
M  V30 4957 H 467.107 -2.98 -0.00114915 0
M  V30 4958 H 464.644 -1.47096 0.0112006 0
M  V30 4959 H 466.602 -3.37751 -2.44909 0
M  V30 4960 H 465.232 -2.24344 -2.32098 0
M  V30 4961 H 464.284 -3.77737 -0.449288 0
M  V30 4962 H 465.596 -4.92238 -0.806424 0
M  V30 4963 H 464.75 -5.18684 -3.14724 0
M  V30 4964 H 463.489 -3.95682 -2.85109 0
M  V30 4965 H 462.494 -5.39657 -1.05122 0
M  V30 4966 H 463.719 -6.65103 -1.37169 0
M  V30 4967 H 461.665 -5.62864 -3.36927 0
M  V30 4968 H 461.582 -7.13129 -2.50965 0
M  V30 4969 H 462.85 -6.87637 -3.67118 0
M  V30 4970 N 467.08 -0.0183926 -1.57589 0
M  V30 4971 C 468.329 0.66185 -1.90532 0
M  V30 4972 C 468.642 1.73904 -0.895366 0
M  V30 4973 O 469.848 2.47518 -1.11566 0
M  V30 4974 C 468.304 1.22844 -3.38286 0
M  V30 4975 C 467.912 0.185103 -4.47617 0
M  V30 4976 C 469.656 1.88581 -3.80312 0
M  V30 4977 C 467.563 0.762723 -5.86461 0
M  V30 4978 H 466.493 0.250972 -0.711006 0
M  V30 4979 H 469.144 -0.0819435 -1.83317 0
M  V30 4980 H 467.526 2.0235 -3.40398 0
M  V30 4981 H 468.7 -0.58671 -4.5705 0
M  V30 4982 H 467.015 -0.372889 -4.14727 0
M  V30 4983 H 469.612 2.32735 -4.81392 0
M  V30 4984 H 469.955 2.72408 -3.14801 0
M  V30 4985 H 470.488 1.15782 -3.80578 0
M  V30 4986 H 467.227 -0.0371713 -6.55489 0
M  V30 4987 H 466.747 1.50327 -5.80656 0
M  V30 4988 H 468.426 1.25576 -6.34697 0
M  V30 4989 N 468.558 1.5553 0.254621 0
M  V30 4990 C 469.835 1.6774 1.00611 0
M  V30 4991 C 470.215 0.555993 2.03647 0
M  V30 4992 O 469.563 -0.441583 2.24193 0
M  V30 4993 C 469.773 3.07725 1.6464 0
M  V30 4994 C 471.121 3.66074 2.15116 0
M  V30 4995 O 472.145 3.10476 1.74595 0
M  V30 4996 O 471.004 4.63526 2.89493 0
M  V30 4997 H 468.098 0.681958 0.467828 0
M  V30 4998 H 470.644 1.67863 0.24902 0
M  V30 4999 H 469.416 3.80792 0.900734 0
M  V30 5000 H 469.039 3.1158 2.46989 0
M  V30 5001 N 470.036 -0.519951 1.48776 0
M  V30 5002 C 471.313 -1.28123 1.47797 0
M  V30 5003 C 471.693 -2.10196 0.195157 0
M  V30 5004 O 471.041 -2.13167 -0.822925 0
M  V30 5005 C 471.251 -2.15413 2.74587 0
M  V30 5006 C 472.599 -2.75225 3.23321 0
M  V30 5007 O 473.623 -2.25694 2.75574 0
M  V30 5008 O 472.482 -3.65346 4.06429 0
M  V30 5009 H 469.576 -0.578793 0.590701 0
M  V30 5010 H 472.122 -0.535779 1.6102 0
M  V30 5011 H 470.894 -1.54617 3.59457 0
M  V30 5012 H 470.517 -2.97186 2.64132 0
M  V30 5013 N 471.514 -1.37532 -0.769588 0
M  V30 5014 C 472.464 -1.29984 -1.87318 0
M  V30 5015 C 473.448 -0.187242 -1.59807 0
M  V30 5016 O 474.64 -0.421827 -1.719 0
M  V30 5017 C 471.769 -1.11126 -3.24817 0
M  V30 5018 C 470.855 -2.26939 -3.58273 0
M  V30 5019 N 471.246 -3.52336 -3.62895 0
M  V30 5020 C 469.544 -2.19141 -3.8845 0
M  V30 5021 C 470.245 -4.28719 -3.9316 0
M  V30 5022 N 469.221 -3.57884 -4.0917 0
M  V30 5023 H 473.023 -2.24946 -1.89147 0
M  V30 5024 H 470.537 -1.30535 -0.966143 0
M  V30 5025 H 472.534 -1.03803 -4.0377 0
M  V30 5026 H 471.194 -0.17083 -3.2425 0
M  V30 5027 H 472.205 -3.86216 -3.45048 0
M  V30 5028 H 468.882 -1.33167 -3.95693 0
M  V30 5029 H 470.272 -5.37254 -4.03494 0
M  V30 5030 N 472.992 0.995999 -1.22138 0
M  V30 5031 C 473.955 2.06711 -0.990109 0
M  V30 5032 C 474.955 1.60744 0.0422978 0
M  V30 5033 O 476.145 1.73095 -0.195895 0
M  V30 5034 C 473.277 3.37288 -0.49491 0
M  V30 5035 H 474.47 2.28661 -1.94047 0
M  V30 5036 H 472.023 1.16711 -1.03963 0
M  V30 5037 H 472.758 3.21022 0.459948 0
M  V30 5038 H 472.543 3.71986 -1.23971 0
M  V30 5039 H 474.033 4.16103 -0.353253 0
M  V30 5040 N 474.47 1.03057 1.19235 0
M  V30 5041 C 475.695 0.74757 1.93458 0
M  V30 5042 C 476.12 -0.687648 1.7508 0
M  V30 5043 O 475.478 -1.47499 1.05422 0
M  V30 5044 C 475.526 1.10604 3.43219 0
M  V30 5045 O 474.63 0.225671 4.11782 0
M  V30 5046 H 473.971 0.276047 0.603899 0
M  V30 5047 H 476.501 1.3777 1.51263 0
M  V30 5048 H 476.511 1.06366 3.93891 0
M  V30 5049 H 475.186 2.15165 3.55917 0
M  V30 5050 H 473.763 0.326795 3.71465 0
M  V30 5051 N 475.948 -1.35272 0.808662 0
M  V30 5052 C 477.178 -2.02652 0.401953 0
M  V30 5053 C 477.586 -1.6108 -0.992462 0
M  V30 5054 O 476.929 -0.804984 -1.65123 0
M  V30 5055 C 476.991 -3.57174 0.408246 0
M  V30 5056 C 476.655 -4.22019 1.75353 0
M  V30 5057 C 477.652 -4.43552 2.71215 0
M  V30 5058 C 475.337 -4.59093 2.03811 0
M  V30 5059 C 477.331 -5.01264 3.93717 0
M  V30 5060 C 475.018 -5.16519 3.26576 0
M  V30 5061 C 476.016 -5.37546 4.21347 0
M  V30 5062 O 475.704 -5.93761 5.41944 0
M  V30 5063 H 475.436 -0.656495 0.161216 0
M  V30 5064 H 477.99 -1.73829 1.0942 0
M  V30 5065 H 476.22 -3.85197 -0.340608 0
M  V30 5066 H 477.909 -4.05893 0.0235623 0
M  V30 5067 H 478.675 -4.15288 2.50522 0
M  V30 5068 H 474.554 -4.42039 1.30854 0
M  V30 5069 H 478.098 -5.17592 4.67701 0
M  V30 5070 H 473.995 -5.4421 3.47139 0
M  V30 5071 H 474.763 -6.1221 5.43269 0
M  V30 5072 N 477.426 -0.562348 -1.47226 0
M  V30 5073 C 478.675 -0.038041 -2.01664 0
M  V30 5074 C 478.988 1.32199 -1.44162 0
M  V30 5075 O 480.194 1.9365 -1.90294 0
M  V30 5076 C 478.65 -0.0174958 -3.59896 0
M  V30 5077 C 478.258 -1.3746 -4.2639 0
M  V30 5078 C 480.002 0.453934 -4.22066 0
M  V30 5079 C 477.909 -1.31289 -5.76643 0
M  V30 5080 H 476.839 -0.0104511 -0.753928 0
M  V30 5081 H 479.49 -0.710966 -1.69167 0
M  V30 5082 H 477.872 0.721182 -3.89378 0
M  V30 5083 H 479.046 -2.1314 -4.08544 0
M  V30 5084 H 477.361 -1.78438 -3.7623 0
M  V30 5085 H 479.958 0.518584 -5.32179 0
M  V30 5086 H 480.301 1.46706 -3.89594 0
M  V30 5087 H 480.834 -0.230044 -3.97134 0
M  V30 5088 H 477.573 -2.30217 -6.13743 0
M  V30 5089 H 477.093 -0.597973 -5.96812 0
M  V30 5090 H 478.772 -1.01713 -6.38955 0
M  V30 5091 N 478.904 1.54736 -0.299062 0
M  V30 5092 C 480.15 2.00397 0.311244 0
M  V30 5093 C 480.483 1.18716 1.53688 0
M  V30 5094 O 479.758 0.263154 1.92712 0
M  V30 5095 C 480.041 3.53817 0.669761 0
M  V30 5096 C 479.894 4.46239 -0.564882 0
M  V30 5097 C 481.213 4.13856 1.49702 0
M  V30 5098 H 478.332 0.728493 0.111653 0
M  V30 5099 H 480.974 1.85506 -0.410774 0
M  V30 5100 H 479.124 3.66637 1.28491 0
M  V30 5101 H 480.796 4.45328 -1.20337 0
M  V30 5102 H 479.039 4.16916 -1.19849 0
M  V30 5103 H 479.71 5.5134 -0.269918 0
M  V30 5104 H 482.186 4.04461 0.977284 0
M  V30 5105 H 481.062 5.21365 1.71666 0
M  V30 5106 H 481.323 3.65608 2.48563 0
M  V30 5107 N 480.382 0.0267497 1.57577 0
M  V30 5108 C 481.659 -0.690926 1.82991 0
M  V30 5109 C 482.039 -1.90471 0.910164 0
M  V30 5110 O 481.387 -2.28474 -0.0347985 0
M  V30 5111 C 481.597 -1.07139 3.32148 0
M  V30 5112 C 482.945 -1.46402 3.98562 0
M  V30 5113 O 483.969 -1.16443 3.36629 0
M  V30 5114 O 482.828 -2.02214 5.07712 0
M  V30 5115 H 479.922 -0.338747 0.75444 0
M  V30 5116 H 482.468 0.0542506 1.69613 0
M  V30 5117 H 481.24 -0.207394 3.9075 0
M  V30 5118 H 480.863 -1.87481 3.50623 0
M  V30 5119 N 481.861 -1.55662 -0.24637 0
M  V30 5120 C 482.791 -1.93377 -1.30873 0
M  V30 5121 C 483.772 -0.798773 -1.50179 0
M  V30 5122 O 484.957 -1.0591 -1.62778 0
M  V30 5123 C 482.087 -2.22893 -2.66338 0
M  V30 5124 C 481.041 -3.38649 -2.61727 0
M  V30 5125 C 480.367 -3.53708 -4.00992 0
M  V30 5126 C 481.667 -4.74323 -2.18666 0
M  V30 5127 H 483.361 -2.82363 -0.995552 0
M  V30 5128 H 480.907 -1.35854 -0.477464 0
M  V30 5129 H 482.86 -2.47866 -3.40794 0
M  V30 5130 H 481.584 -1.30733 -2.99293 0
M  V30 5131 H 480.243 -3.13685 -1.89729 0
M  V30 5132 H 479.891 -2.58967 -4.31214 0
M  V30 5133 H 479.591 -4.31551 -3.98795 0
M  V30 5134 H 481.115 -3.81003 -4.77147 0
M  V30 5135 H 482.529 -4.98665 -2.82854 0
M  V30 5136 H 480.926 -5.55273 -2.27579 0
M  V30 5137 H 481.996 -4.71349 -1.13834 0
M  V30 5138 N 483.339 0.512053 -1.4905 0
M  V30 5139 C 484.302 1.59704 -1.64399 0
M  V30 5140 C 485.302 1.52285 -0.516317 0
M  V30 5141 O 486.492 1.55635 -0.782527 0
M  V30 5142 C 483.624 2.9935 -1.63102 0
M  V30 5143 H 484.817 1.47428 -2.61161 0
M  V30 5144 H 482.37 0.735469 -1.37915 0
M  V30 5145 H 483.105 3.17116 -0.678836 0
M  V30 5146 H 482.89 3.06144 -2.44986 0
M  V30 5147 H 484.38 3.782 -1.77072 0
M  V30 5148 N 484.817 1.37938 0.762283 0
M  V30 5149 C 486.233 1.18945 1.06415 0
M  V30 5150 C 486.433 0.0321163 2.01474 0
M  V30 5151 O 485.489 -0.624844 2.44647 0
M  V30 5152 C 486.802 2.51218 1.65258 0
M  V30 5153 C 488.35 2.57824 1.7747 0
M  V30 5154 C 488.825 3.90251 2.39725 0
M  V30 5155 N 490.316 3.91744 2.47166 0
M  V30 5156 C 491.051 4.90966 2.96209 0
M  V30 5157 N 490.547 6.00585 3.45354 0
M  V30 5158 N 492.34 4.78363 2.9517 0
M  V30 5159 H 484.491 2.11994 0.131301 0
M  V30 5160 H 486.754 0.940262 0.120879 0
M  V30 5161 H 486.46 3.36317 1.02878 0
M  V30 5162 H 486.334 2.68989 2.64433 0
M  V30 5163 H 488.721 1.73126 2.3898 0
M  V30 5164 H 488.802 2.43928 0.770241 0
M  V30 5165 H 488.446 4.75368 1.78852 0
M  V30 5166 H 488.376 4.01454 3.40796 0
M  V30 5167 H 490.867 3.12563 2.12397 0
M  V30 5168 H 491.18 6.72236 3.81207 0
M  V30 5169 H 489.525 6.04217 3.43434 0
M  V30 5170 H 492.716 3.91841 2.56082 0
M  V30 5171 H 492.889 5.55843 3.33081 0
M  V30 5172 N 486.295 -0.989507 1.22664 0
M  V30 5173 C 487.258 -2.06183 1.00106 0
M  V30 5174 C 488.258 -1.60765 -0.0337726 0
M  V30 5175 O 489.448 -1.72989 0.205072 0
M  V30 5176 C 486.58 -3.37021 0.51279 0
M  V30 5177 H 487.773 -2.27629 1.95256 0
M  V30 5178 H 485.326 -1.16158 1.0458 0
M  V30 5179 H 486.061 -3.21261 -0.442917 0
M  V30 5180 H 485.846 -3.71323 1.25942 0
M  V30 5181 H 487.336 -4.1591 0.375315 0
M  V30 5182 N 487.773 -1.03688 -1.18687 0
M  V30 5183 C 489.022 -0.733235 -1.879 0
M  V30 5184 C 489.335 0.741745 -1.8099 0
M  V30 5185 O 490.541 1.15875 -2.4553 0
M  V30 5186 C 488.997 -1.26127 -3.37076 0
M  V30 5187 C 488.605 -2.76461 -3.52524 0
M  V30 5188 C 490.349 -1.03398 -4.11715 0
M  V30 5189 C 488.256 -3.22642 -4.95637 0
M  V30 5190 H 487.186 -0.270584 -0.703776 0
M  V30 5191 H 489.837 -1.25222 -1.34133 0
M  V30 5192 H 488.219 -0.670165 -3.90288 0
M  V30 5193 H 489.393 -3.41296 -3.09602 0
M  V30 5194 H 487.708 -2.97559 -2.91286 0
M  V30 5195 H 490.305 -1.3542 -5.17267 0
M  V30 5196 H 490.648 0.0289246 -4.1629 0
M  V30 5197 H 491.181 -1.5895 -3.64664 0
M  V30 5198 H 487.92 -4.28296 -4.96228 0
M  V30 5199 H 487.44 -2.62539 -5.39289 0
M  V30 5200 H 489.119 -3.16444 -5.64333 0
M  V30 5201 N 489.251 1.34841 -0.815825 0
M  V30 5202 C 490.214 2.27959 -0.238185 0
M  V30 5203 C 491.214 1.49983 0.579816 0
M  V30 5204 O 492.404 1.69617 0.396953 0
M  V30 5205 C 489.536 3.34314 0.666876 0
M  V30 5206 H 490.729 2.80558 -1.05958 0
M  V30 5207 H 488.282 1.44852 -0.587156 0
M  V30 5208 H 489.017 2.86916 1.5116 0
M  V30 5209 H 488.802 3.92014 0.0819106 0
M  V30 5210 H 490.292 4.0379 1.06506 0
M  V30 5211 N 490.729 0.570148 1.46925 0
M  V30 5212 C 491.959 0.0561151 2.06524 0
M  V30 5213 C 492.367 -1.24874 1.42137 0
M  V30 5214 O 491.71 -1.76292 0.516417 0
M  V30 5215 C 491.772 -0.197035 3.5896 0
M  V30 5216 C 491.436 1.02033 4.45464 0
M  V30 5217 C 492.433 1.92921 4.82781 0
M  V30 5218 C 490.118 1.23864 4.86788 0
M  V30 5219 C 492.112 3.03999 5.60235 0
M  V30 5220 C 489.799 2.35249 5.64004 0
M  V30 5221 C 490.797 3.25146 6.0064 0
M  V30 5222 O 490.485 4.34598 6.76299 0
M  V30 5223 H 490.217 0.0487409 0.674241 0
M  V30 5224 H 492.771 0.786915 1.89728 0
M  V30 5225 H 491.001 -0.982299 3.74016 0
M  V30 5226 H 492.69 -0.658032 4.00531 0
M  V30 5227 H 493.456 1.77265 4.51444 0
M  V30 5228 H 489.335 0.54805 4.57731 0
M  V30 5229 H 492.879 3.74192 5.8875 0
M  V30 5230 H 488.776 2.50873 5.94755 0
M  V30 5231 H 489.544 4.32808 6.94708 0
M  V30 5232 N 492.207 -1.54576 0.307264 0
M  V30 5233 C 493.155 -2.25208 -0.581723 0
M  V30 5234 C 494.149 -1.26031 -1.13192 0
M  V30 5235 O 495.355 -1.43862 -1.08184 0
M  V30 5236 H 491.73 -0.723173 -0.206214 0
M  V30 5237 H 493.701 -2.98378 0.0364663 0
M  V30 5238 C 492.45 -3.01086 -1.73904 0
M  V30 5239 H 491.773 -3.77208 -1.32491 0
M  V30 5240 H 493.213 -3.5378 -2.33701 0
M  V30 5241 C 491.672 -2.08422 -2.64692 0
M  V30 5242 O 492.202 -1.65636 -3.65961 0
M  V30 5243 N 490.408 -1.74247 -2.32564 0
M  V30 5244 H 489.955 -2.09238 -1.50257 0
M  V30 5245 H 489.913 -1.12524 -2.93574 0
M  V30 5246 N 493.685 -0.035106 -1.57561 0
M  V30 5247 C 494.913 0.652258 -1.9635 0
M  V30 5248 C 495.328 1.65317 -0.911897 0
M  V30 5249 O 494.685 1.82194 0.105657 0
M  V30 5250 C 494.736 1.35337 -3.35211 0
M  V30 5251 O 494.457 0.392548 -4.36338 0
M  V30 5252 C 495.958 2.13199 -3.88666 0
M  V30 5253 H 493.178 0.179444 -0.646561 0
M  V30 5254 H 495.722 -0.0966459 -2.04271 0
M  V30 5255 H 493.877 2.05362 -3.28489 0
M  V30 5256 H 494.291 0.891097 -5.16875 0
M  V30 5257 H 495.765 2.577 -4.88154 0
M  V30 5258 H 496.242 2.97353 -3.23231 0
M  V30 5259 H 496.848 1.48118 -3.98674 0
M  V30 5260 N 495.163 1.55791 0.238111 0
M  V30 5261 C 496.411 1.77681 0.963001 0
M  V30 5262 C 496.732 0.600674 1.85518 0
M  V30 5263 O 496.002 -0.383182 1.92116 0
M  V30 5264 H 494.582 0.655315 0.358568 0
M  V30 5265 H 497.244 1.93239 0.253945 0
M  V30 5266 H 496.34 2.69177 1.57956 0
M  V30 5267 N 496.642 -0.504142 1.49319 0
M  V30 5268 C 497.552 -1.63248 1.68486 0
M  V30 5269 C 498.568 -1.64488 0.567432 0
M  V30 5270 O 499.744 -1.82966 0.841749 0
M  V30 5271 C 496.809 -2.99627 1.74426 0
M  V30 5272 C 495.87 -3.09039 2.97982 0
M  V30 5273 C 495.103 -4.38913 3.0363 0
M  V30 5274 O 495.326 -5.27528 2.16958 0
M  V30 5275 O 494.26 -4.53231 3.96062 0
M  V30 5276 H 498.086 -1.50008 2.64067 0
M  V30 5277 H 495.671 -0.680086 1.33023 0
M  V30 5278 H 497.553 -3.80689 1.80705 0
M  V30 5279 H 496.228 -3.13136 0.820233 0
M  V30 5280 H 495.135 -2.27177 2.97223 0
M  V30 5281 H 496.468 -3.00456 3.89855 0
M  V30 5282 N 498.12 -1.38341 -0.754957 0
M  V30 5283 C 499.536 -1.19508 -1.05783 0
M  V30 5284 C 499.736 -0.0428005 -2.01455 0
M  V30 5285 O 498.792 0.611861 -2.44975 0
M  V30 5286 C 500.105 -2.52091 -1.63923 0
M  V30 5287 C 501.653 -2.58762 -1.76101 0
M  V30 5288 C 502.128 -3.91517 -2.37652 0
M  V30 5289 N 503.619 -3.93049 -2.45085 0
M  V30 5290 C 504.354 -4.9253 -2.93602 0
M  V30 5291 N 503.85 -6.02408 -3.42165 0
M  V30 5292 N 505.643 -4.79921 -2.92629 0
M  V30 5293 H 497.794 -2.1206 -0.120056 0
M  V30 5294 H 500.057 -0.94089 -0.11589 0
M  V30 5295 H 499.763 -3.36858 -1.01093 0
M  V30 5296 H 499.637 -2.70388 -2.63003 0
M  V30 5297 H 502.024 -1.74391 -2.38058 0
M  V30 5298 H 502.105 -2.44333 -0.757294 0
M  V30 5299 H 501.749 -4.76309 -1.76329 0
M  V30 5300 H 501.679 -4.03256 -3.38662 0
M  V30 5301 H 504.17 -3.13685 -2.10736 0
M  V30 5302 H 504.483 -6.74248 -3.77637 0
M  V30 5303 H 502.828 -6.0603 -3.40225 0
M  V30 5304 H 506.019 -3.93194 -2.54001 0
M  V30 5305 H 506.192 -5.57601 -3.30128 0
M  V30 5306 N 499.598 0.982988 -1.23187 0
M  V30 5307 C 500.531 2.07302 -0.953993 0
M  V30 5308 C 501.509 1.62249 0.106753 0
M  V30 5309 O 502.693 1.88481 -0.0269525 0
M  V30 5310 C 499.82 3.35873 -0.436716 0
M  V30 5311 C 498.866 3.99862 -1.48367 0
M  V30 5312 S 499.699 4.39443 -3.06023 0
M  V30 5313 C 500.855 5.7117 -2.55959 0
M  V30 5314 H 501.088 2.30554 -1.87702 0
M  V30 5315 H 498.621 1.11883 -1.06403 0
M  V30 5316 H 500.579 4.10244 -0.144872 0
M  V30 5317 H 499.24 3.10634 0.465351 0
M  V30 5318 H 498.433 4.92471 -1.07182 0
M  V30 5319 H 498.035 3.31857 -1.72473 0
M  V30 5320 H 500.327 6.47977 -1.97818 0
M  V30 5321 H 501.27 6.17194 -3.47098 0
M  V30 5322 H 501.678 5.29046 -1.96902 0
M  V30 5323 N 501.076 1.04316 1.18135 0
M  V30 5324 C 502.006 0.657299 2.24058 0
M  V30 5325 C 502.987 -0.340678 1.66654 0
M  V30 5326 O 504.172 -0.220223 1.92947 0
M  V30 5327 C 501.302 0.0220715 3.47293 0
M  V30 5328 C 500.256 0.943857 4.17463 0
M  V30 5329 C 499.582 0.172973 5.3442 0
M  V30 5330 C 500.882 2.26409 4.70677 0
M  V30 5331 H 502.576 1.5428 2.56589 0
M  V30 5332 H 500.122 0.743263 1.23335 0
M  V30 5333 H 502.075 -0.259607 4.206 0
M  V30 5334 H 500.799 -0.898323 3.14003 0
M  V30 5335 H 499.458 1.20996 3.46057 0
M  V30 5336 H 499.106 -0.749907 4.97379 0
M  V30 5337 H 498.806 0.787098 5.82304 0
M  V30 5338 H 500.33 -0.101628 6.10515 0
M  V30 5339 H 501.744 2.04294 5.35665 0
M  V30 5340 H 500.141 2.8314 5.29105 0
M  V30 5341 H 501.211 2.90883 3.87962 0
M  V30 5342 N 502.554 -1.34406 0.822964 0
M  V30 5343 C 503.484 -2.32052 0.259608 0
M  V30 5344 C 504.465 -1.58243 -0.623961 0
M  V30 5345 O 505.65 -1.86224 -0.55083 0
M  V30 5346 C 502.78 -3.42434 -0.579314 0
M  V30 5347 C 501.734 -4.27499 0.20712 0
M  V30 5348 C 501.06 -5.29349 -0.754547 0
M  V30 5349 C 502.36 -5.02758 1.41533 0
M  V30 5350 H 504.054 -2.79418 1.07545 0
M  V30 5351 H 501.6 -1.34338 0.518593 0
M  V30 5352 H 503.553 -4.0976 -0.983612 0
M  V30 5353 H 502.277 -2.93717 -1.4282 0
M  V30 5354 H 500.936 -3.61776 0.592787 0
M  V30 5355 H 500.584 -4.76895 -1.59939 0
M  V30 5356 H 500.284 -5.8714 -0.232561 0
M  V30 5357 H 501.808 -5.99544 -1.1567 0
M  V30 5358 H 503.222 -5.62938 1.08504 0
M  V30 5359 H 501.619 -5.70123 1.87296 0
M  V30 5360 H 502.689 -4.32451 2.1935 0
M  V30 5361 N 504.032 -0.577932 -1.46621 0
M  V30 5362 C 505.281 -0.0594281 -2.01612 0
M  V30 5363 C 505.594 1.30663 -1.45556 0
M  V30 5364 O 506.8 1.91621 -1.92337 0
M  V30 5365 C 505.256 -0.0556666 -3.59857 0
M  V30 5366 C 504.864 -1.41975 -4.24908 0
M  V30 5367 C 506.608 0.409143 -4.22524 0
M  V30 5368 C 504.515 -1.37397 -5.75218 0
M  V30 5369 H 503.445 -0.0184469 -0.753774 0
M  V30 5370 H 506.096 -0.728869 -1.68404 0
M  V30 5371 H 504.478 0.679843 -3.90121 0
M  V30 5372 H 505.652 -2.17461 -4.0626 0
M  V30 5373 H 503.967 -1.82419 -3.74316 0
M  V30 5374 H 506.564 0.46211 -5.32699 0
M  V30 5375 H 506.907 1.42565 -3.91128 0
M  V30 5376 H 507.44 -0.272152 -3.96868 0
M  V30 5377 H 504.179 -2.36714 -6.11267 0
M  V30 5378 H 503.699 -0.661239 -5.96144 0
M  V30 5379 H 505.378 -1.08484 -6.3784 0
M  V30 5380 N 505.51 1.54411 -0.315457 0
M  V30 5381 C 506.756 2.00716 0.289972 0
M  V30 5382 C 507.089 1.2034 1.5242 0
M  V30 5383 O 506.364 0.283579 1.92422 0
M  V30 5384 C 506.647 3.54507 0.632196 0
M  V30 5385 C 506.5 4.45615 -0.61218 0
M  V30 5386 C 507.819 4.15421 1.45305 0
M  V30 5387 H 504.938 0.729637 0.10392 0
M  V30 5388 H 507.58 1.8506 -0.430427 0
M  V30 5389 H 505.73 3.67979 1.24595 0
M  V30 5390 H 507.402 4.44026 -1.25053 0
M  V30 5391 H 505.645 4.15621 -1.24264 0
M  V30 5392 H 506.316 5.51022 -0.328379 0
M  V30 5393 H 508.792 4.05474 0.934331 0
M  V30 5394 H 507.668 5.23157 1.66127 0
M  V30 5395 H 507.929 3.68223 2.44671 0
M  V30 5396 N 506.988 0.0434614 1.5754 0
M  V30 5397 C 507.898 -0.94893 2.14552 0
M  V30 5398 C 508.914 -1.34707 1.10136 0
M  V30 5399 O 510.09 -1.42557 1.42266 0
M  V30 5400 C 507.155 -2.208 2.67298 0
M  V30 5401 C 506.216 -1.86893 3.86484 0
M  V30 5402 C 505.449 -3.06797 4.36705 0
M  V30 5403 O 505.672 -4.19921 3.86034 0
M  V30 5404 O 504.606 -2.8826 5.28384 0
M  V30 5405 H 508.432 -0.494099 2.99654 0
M  V30 5406 H 506.017 -0.177989 1.48336 0
M  V30 5407 H 507.899 -2.94686 3.01228 0
M  V30 5408 H 506.574 -2.65436 1.85272 0
M  V30 5409 H 505.481 -1.10347 3.57455 0
M  V30 5410 H 506.814 -1.47062 4.69716 0
M  V30 5411 N 508.466 -1.55915 -0.229846 0
M  V30 5412 C 509.414 -1.9258 -1.30444 0
M  V30 5413 C 510.408 -0.806839 -1.48951 0
M  V30 5414 O 511.614 -0.991606 -1.50224 0
M  V30 5415 H 507.989 -0.611878 -0.437161 0
M  V30 5416 H 509.96 -2.82264 -0.96797 0
M  V30 5417 C 508.709 -2.25171 -2.6494 0
M  V30 5418 H 508.032 -3.10782 -2.51504 0
M  V30 5419 H 509.472 -2.54716 -3.38963 0
M  V30 5420 C 507.931 -1.07394 -3.19324 0
M  V30 5421 O 508.461 -0.330759 -4.00336 0
M  V30 5422 N 506.667 -0.859984 -2.77584 0
M  V30 5423 H 506.214 -1.46605 -2.11813 0
M  V30 5424 H 506.172 -0.0736671 -3.14314 0
M  V30 5425 N 509.944 0.496216 -1.49584 0
M  V30 5426 C 510.892 1.61805 -1.67098 0
M  V30 5427 C 511.886 1.60667 -0.536877 0
M  V30 5428 O 513.092 1.65118 -0.716654 0
M  V30 5429 H 509.467 0.53646 -0.526986 0
M  V30 5430 H 511.438 1.44187 -2.61252 0
M  V30 5431 C 510.187 2.99912 -1.75921 0
M  V30 5432 H 509.51 3.01496 -2.62565 0
M  V30 5433 H 510.95 3.77931 -1.92209 0
M  V30 5434 C 509.409 3.33092 -0.505088 0
M  V30 5435 O 509.939 4.00019 0.367085 0
M  V30 5436 N 508.145 2.88278 -0.366599 0
M  V30 5437 H 507.692 2.33989 -1.07735 0
M  V30 5438 H 507.65 3.10846 0.47142 0
M  V30 5439 N 511.423 1.38739 0.74761 0
M  V30 5440 C 512.671 1.35007 1.50391 0
M  V30 5441 C 512.992 -0.0574274 1.94915 0
M  V30 5442 O 512.262 -1.00628 1.6808 0
M  V30 5443 H 510.842 0.496784 0.557866 0
M  V30 5444 H 513.504 1.73479 0.888319 0
M  V30 5445 H 512.6 2.00474 2.392 0
M  V30 5446 N 512.901 -0.976442 1.23707 0
M  V30 5447 C 513.864 -2.0511 1.02287 0
M  V30 5448 C 514.864 -1.60791 -0.0167195 0
M  V30 5449 O 516.054 -1.72761 0.223408 0
M  V30 5450 C 513.186 -3.36458 0.548507 0
M  V30 5451 H 514.379 -2.25545 1.9766 0
M  V30 5452 H 511.932 -1.15042 1.05806 0
M  V30 5453 H 512.667 -3.21713 -0.408818 0
M  V30 5454 H 512.452 -3.69967 1.29874 0
M  V30 5455 H 513.942 -4.15489 0.419406 0
M  V30 5456 N 514.379 -1.04941 -1.1758 0
M  V30 5457 C 515.628 -0.753124 -1.87112 0
M  V30 5458 C 515.941 0.722507 -1.81767 0
M  V30 5459 O 517.147 1.13265 -2.46746 0
M  V30 5460 C 515.603 -1.29695 -3.35719 0
M  V30 5461 C 515.211 -2.80184 -3.49572 0
M  V30 5462 C 516.955 -1.07759 -4.10595 0
M  V30 5463 C 514.862 -3.2788 -4.92187 0
M  V30 5464 H 513.792 -0.278034 -0.700866 0
M  V30 5465 H 516.443 -1.26637 -1.32798 0
M  V30 5466 H 514.825 -0.711522 -3.89555 0
M  V30 5467 H 515.999 -3.44561 -3.05965 0
M  V30 5468 H 514.314 -3.00632 -2.88113 0
M  V30 5469 H 516.911 -1.40899 -5.15802 0
M  V30 5470 H 517.254 -0.0152302 -4.16297 0
M  V30 5471 H 517.787 -1.62809 -3.62957 0
M  V30 5472 H 514.526 -4.33535 -4.91658 0
M  V30 5473 H 514.046 -2.68245 -5.36475 0
M  V30 5474 H 515.725 -3.22412 -5.60945 0
M  V30 5475 N 515.857 1.33968 -0.830081 0
M  V30 5476 C 516.82 2.27694 -0.26235 0
M  V30 5477 C 517.82 1.50589 0.563876 0
M  V30 5478 O 519.01 1.70028 0.378941 0
M  V30 5479 C 516.142 3.35002 0.63138 0
M  V30 5480 H 517.335 2.79419 -1.08928 0
M  V30 5481 H 514.888 1.44221 -0.602486 0
M  V30 5482 H 515.623 2.88504 1.48109 0
M  V30 5483 H 515.408 3.92079 0.0403276 0
M  V30 5484 H 516.898 4.04897 1.02217 0
M  V30 5485 N 517.335 0.585699 1.46312 0
M  V30 5486 C 518.283 -0.158577 2.32059 0
M  V30 5487 C 519.277 -0.881427 1.44662 0
M  V30 5488 O 520.483 -0.799476 1.61271 0
M  V30 5489 H 516.858 -0.0700066 0.748734 0
M  V30 5490 H 518.829 0.583383 2.92642 0
M  V30 5491 C 517.578 -1.15701 3.27885 0
M  V30 5492 H 516.901 -0.610215 3.95116 0
M  V30 5493 H 518.341 -1.64812 3.90657 0
M  V30 5494 C 516.8 -2.21951 2.53455 0
M  V30 5495 O 517.33 -3.29352 2.29978 0
M  V30 5496 N 515.536 -1.9664 2.13965 0
M  V30 5497 H 515.083 -1.09309 2.33258 0
M  V30 5498 H 515.041 -2.6794 1.64485 0
M  V30 5499 N 518.813 -1.54241 0.323641 0
M  V30 5500 C 520.06 -2.0057 -0.27891 0
M  V30 5501 C 520.388 -1.21181 -1.52136 0
M  V30 5502 O 519.643 -0.282043 -1.93657 0
M  V30 5503 C 519.942 -3.5129 -0.658031 0
M  V30 5504 C 519.608 -4.48281 0.485252 0
M  V30 5505 C 518.27 -4.74519 0.799055 0
M  V30 5506 C 520.622 -5.05909 1.25322 0
M  V30 5507 C 517.95 -5.55643 1.88354 0
M  V30 5508 C 520.302 -5.88215 2.32779 0
M  V30 5509 C 518.966 -6.12755 2.64741 0
M  V30 5510 H 518.236 -0.733938 -0.10206 0
M  V30 5511 H 520.883 -1.862 0.447435 0
M  V30 5512 H 519.188 -3.63388 -1.4648 0
M  V30 5513 H 520.885 -3.84578 -1.1358 0
M  V30 5514 H 517.475 -4.27979 0.230593 0
M  V30 5515 H 521.659 -4.8562 1.02404 0
M  V30 5516 H 516.915 -5.72888 2.13564 0
M  V30 5517 H 521.089 -6.31888 2.92729 0
M  V30 5518 H 518.716 -6.75404 3.48904 0
M  V30 5519 N 520.291 -0.0518155 -1.57515 0
M  V30 5520 C 521.568 0.661727 -1.84067 0
M  V30 5521 C 521.948 1.88999 -0.940351 0
M  V30 5522 O 521.296 2.285 -0.00155404 0
M  V30 5523 C 521.506 1.01841 -3.3381 0
M  V30 5524 C 522.854 1.40043 -4.00841 0
M  V30 5525 O 523.878 1.11073 -3.38439 0
M  V30 5526 O 522.737 1.94111 -5.10865 0
M  V30 5527 H 519.831 0.326702 -0.759733 0
M  V30 5528 H 522.377 -0.0812277 -1.69505 0
M  V30 5529 H 521.149 0.145202 -3.91031 0
M  V30 5530 H 520.772 1.81879 -3.53562 0
M  V30 5531 N 521.769 1.56035 0.221574 0
M  V30 5532 C 523.18 1.69229 0.788567 0
M  V30 5533 C 523.531 0.653814 1.84986 0
M  V30 5534 O 522.656 -0.195065 2.15519 0
M  V30 5535 C 523.251 3.06809 1.43713 0
M  V30 5536 C 521.81 3.21858 1.95152 0
M  V30 5537 C 520.957 2.65155 0.811685 0
M  V30 5538 H 523.908 1.587 -0.00307894 0
M  V30 5539 H 523.929 3.02666 2.30594 0
M  V30 5540 H 523.441 3.82369 0.664475 0
M  V30 5541 H 521.542 2.51167 2.7522 0
M  V30 5542 H 521.655 4.29073 2.1315 0
M  V30 5543 H 520.019 2.23635 1.21899 0
M  V30 5544 H 520.802 3.43261 0.0516987 0
M  V30 5545 N 523.247 -0.488276 1.49845 0
M  V30 5546 C 524.475 -1.26527 1.63702 0
M  V30 5547 C 524.89 -1.8618 0.313447 0
M  V30 5548 O 524.247 -1.68432 -0.702624 0
M  V30 5549 C 524.298 -2.3864 2.71538 0
M  V30 5550 O 524.019 -1.81437 3.98763 0
M  V30 5551 C 525.52 -3.29805 2.96215 0
M  V30 5552 H 522.74 -0.383295 0.55075 0
M  V30 5553 H 525.284 -0.584779 1.95961 0
M  V30 5554 H 523.439 -3.02496 2.42023 0
M  V30 5555 H 523.853 -2.55135 4.58265 0
M  V30 5556 H 525.327 -4.04722 3.75372 0
M  V30 5557 H 525.804 -3.87563 2.06619 0
M  V30 5558 H 526.41 -2.71703 3.27196 0
M  V30 5559 N 524.725 -1.39134 -0.740242 0
M  V30 5560 C 525.688 -1.37217 -1.83587 0
M  V30 5561 C 526.688 -0.270221 -1.58513 0
M  V30 5562 O 527.878 -0.527843 -1.6601 0
M  V30 5563 C 525.01 -1.13959 -3.21288 0
M  V30 5564 H 526.203 -2.34705 -1.86691 0
M  V30 5565 H 523.756 -1.24622 -0.94335 0
M  V30 5566 H 524.491 -0.17131 -3.23847 0
M  V30 5567 H 524.276 -1.93754 -3.40884 0
M  V30 5568 H 525.766 -1.15346 -4.01354 0
M  V30 5569 N 526.204 0.969867 -1.24223 0
M  V30 5570 C 527.137 2.06279 -0.975926 0
M  V30 5571 C 528.115 1.62353 0.0895385 0
M  V30 5572 O 529.299 1.88442 -0.0469418 0
M  V30 5573 C 526.426 3.35391 -0.472315 0
M  V30 5574 C 525.472 3.98266 -1.526 0
M  V30 5575 S 526.305 4.36172 -3.10667 0
M  V30 5576 C 527.461 5.68423 -2.62003 0
M  V30 5577 H 527.694 2.28551 -1.90137 0
M  V30 5578 H 525.227 1.10748 -1.07584 0
M  V30 5579 H 527.185 4.10068 -0.188376 0
M  V30 5580 H 525.846 3.1111 0.432378 0
M  V30 5581 H 525.039 4.91307 -1.12399 0
M  V30 5582 H 524.641 3.30009 -1.75983 0
M  V30 5583 H 526.933 6.45842 -2.0468 0
M  V30 5584 H 527.876 6.13478 -3.53625 0
M  V30 5585 H 528.284 5.26928 -2.02502 0
M  V30 5586 N 527.682 1.05563 1.17022 0
M  V30 5587 C 528.928 0.769074 1.87652 0
M  V30 5588 C 529.261 -0.702326 1.81055 0
M  V30 5589 O 528.536 -1.5139 1.22112 0
M  V30 5590 C 528.819 1.25492 3.37526 0
M  V30 5591 C 528.672 2.78953 3.52853 0
M  V30 5592 C 529.991 0.856919 4.31677 0
M  V30 5593 H 527.11 0.280854 0.681388 0
M  V30 5594 H 529.752 1.31027 1.37593 0
M  V30 5595 H 527.902 0.794516 3.80289 0
M  V30 5596 H 529.574 3.33146 3.19079 0
M  V30 5597 H 527.817 3.18046 2.95007 0
M  V30 5598 H 528.488 3.08011 4.58076 0
M  V30 5599 H 530.964 1.25334 3.96775 0
M  V30 5600 H 529.84 1.22443 5.35069 0
M  V30 5601 H 530.101 -0.238787 4.41455 0
M  V30 5602 N 529.16 -1.33526 0.837174 0
M  V30 5603 C 530.07 -2.33023 0.271568 0
M  V30 5604 C 531.086 -1.63272 -0.601514 0
M  V30 5605 O 532.262 -1.94939 -0.506038 0
M  V30 5606 C 529.327 -3.42382 -0.545448 0
M  V30 5607 C 528.388 -4.27857 0.351709 0
M  V30 5608 C 527.621 -5.31994 -0.426409 0
M  V30 5609 O 527.844 -5.45763 -1.65828 0
M  V30 5610 O 526.778 -6.01572 0.1987 0
M  V30 5611 H 530.604 -2.83256 1.09545 0
M  V30 5612 H 528.189 -1.36837 0.599655 0
M  V30 5613 H 530.071 -4.09122 -1.00979 0
M  V30 5614 H 528.746 -2.94369 -1.34641 0
M  V30 5615 H 527.653 -3.6399 0.863853 0
M  V30 5616 H 528.986 -4.79349 1.1174 0
M  V30 5617 N 530.638 -0.59345 -1.46 0
M  V30 5618 C 531.884 -0.0832754 -2.02629 0
M  V30 5619 C 532.217 1.27749 -1.46266 0
M  V30 5620 O 531.492 1.8395 -0.631866 0
M  V30 5621 C 531.775 -0.0290756 -3.60088 0
M  V30 5622 C 531.628 -1.41951 -4.26814 0
M  V30 5623 C 532.947 0.666055 -4.35031 0
M  V30 5624 H 530.066 -0.031736 -0.736316 0
M  V30 5625 H 532.708 -0.762711 -1.74019 0
M  V30 5626 H 530.858 0.549532 -3.84594 0
M  V30 5627 H 532.53 -2.04411 -4.13538 0
M  V30 5628 H 530.773 -1.98422 -3.8576 0
M  V30 5629 H 531.444 -1.33395 -5.3564 0
M  V30 5630 H 533.92 0.174401 -4.15734 0
M  V30 5631 H 532.796 0.673041 -5.44758 0
M  V30 5632 H 533.057 1.72946 -4.06869 0
M  V30 5633 N 532.116 1.54067 -0.331816 0
M  V30 5634 C 533.527 1.86059 0.15454 0
M  V30 5635 C 533.878 1.25331 1.50952 0
M  V30 5636 O 533.003 0.562441 2.08963 0
M  V30 5637 C 533.598 3.37581 0.287192 0
M  V30 5638 C 532.157 3.69493 0.717773 0
M  V30 5639 C 531.304 2.76863 -0.155569 0
M  V30 5640 H 534.255 1.48797 -0.55182 0
M  V30 5641 H 534.276 3.63744 1.11671 0
M  V30 5642 H 533.788 3.81751 -0.699131 0
M  V30 5643 H 531.889 3.3086 1.71354 0
M  V30 5644 H 532.002 4.76315 0.5158 0
M  V30 5645 H 530.366 2.51995 0.370213 0
M  V30 5646 H 531.149 3.23861 -1.13881 0
M  V30 5647 N 533.594 0.0601682 1.57485 0
M  V30 5648 C 534.834 -0.615384 1.94916 0
M  V30 5649 C 535.198 -1.67475 0.938948 0
M  V30 5650 O 536.399 -2.40502 1.20051 0
M  V30 5651 C 534.67 -1.18788 3.37082 0
M  V30 5652 S 536.229 -1.88018 3.96478 0
M  V30 5653 H 533.047 -0.201821 0.681754 0
M  V30 5654 H 535.649 0.131252 1.95059 0
M  V30 5655 H 534.353 -0.404869 4.08398 0
M  V30 5656 H 533.884 -1.97114 3.40455 0
M  V30 5657 H 535.899 -3.16161 3.82435 0
M  V30 5658 N 535.072 -1.5615 -0.213296 0
M  V30 5659 C 536.321 -1.78743 -0.93455 0
M  V30 5660 C 536.634 -0.630199 -1.8517 0
M  V30 5661 O 537.84 -0.739966 -2.61222 0
M  V30 5662 C 536.296 -3.16571 -1.71203 0
M  V30 5663 C 535.904 -4.40043 -0.840617 0
M  V30 5664 C 537.648 -3.48485 -2.42401 0
M  V30 5665 C 535.555 -5.68895 -1.61592 0
M  V30 5666 H 534.485 -0.666426 -0.352692 0
M  V30 5667 H 537.136 -1.82532 -0.188227 0
M  V30 5668 H 535.518 -3.06981 -2.50157 0
M  V30 5669 H 536.692 -4.6071 -0.0910326 0
M  V30 5670 H 535.007 -4.15706 -0.240365 0
M  V30 5671 H 537.604 -4.41983 -3.00924 0
M  V30 5672 H 537.947 -2.71371 -3.15695 0
M  V30 5673 H 538.48 -3.59442 -1.7043 0
M  V30 5674 H 535.219 -6.48925 -0.926106 0
M  V30 5675 H 534.739 -5.52275 -2.33991 0
M  V30 5676 H 536.418 -6.09365 -2.17447 0
M  V30 5677 N 536.55 0.480323 -1.50102 0
M  V30 5678 C 537.796 1.23489 -1.60867 0
M  V30 5679 C 538.129 1.91809 -0.303827 0
M  V30 5680 O 537.404 1.81694 0.694092 0
M  V30 5681 C 537.687 2.28578 -2.78252 0
M  V30 5682 C 537.54 1.64624 -4.18592 0
M  V30 5683 C 538.859 3.2997 -2.91218 0
M  V30 5684 H 535.978 0.447605 -0.585507 0
M  V30 5685 H 538.62 0.530005 -1.82458 0
M  V30 5686 H 536.77 2.88697 -2.59974 0
M  V30 5687 H 538.442 1.08173 -4.48438 0
M  V30 5688 H 536.685 0.949645 -4.23278 0
M  V30 5689 H 537.356 2.40946 -4.96638 0
M  V30 5690 H 539.832 2.79864 -3.07921 0
M  V30 5691 H 538.708 4.00839 -3.74993 0
M  V30 5692 H 538.969 3.93541 -2.0144 0
M  V30 5693 N 538.028 1.39524 0.732853 0
M  V30 5694 C 539.276 1.36594 1.48951 0
M  V30 5695 C 539.597 -0.0367507 1.94965 0
M  V30 5696 O 538.867 -0.988391 1.69138 0
M  V30 5697 H 537.447 0.502673 0.552566 0
M  V30 5698 H 540.109 1.74411 0.869869 0
M  V30 5699 H 539.205 2.03 2.3706 0
M  V30 5700 N 539.506 -0.963266 1.24736 0
M  V30 5701 C 540.731 -1.74699 1.11781 0
M  V30 5702 C 541.156 -1.85267 -0.325258 0
M  V30 5703 O 540.514 -1.32681 -1.23553 0
M  V30 5704 C 540.562 -3.14322 1.76731 0
M  V30 5705 O 539.666 -3.99043 1.04109 0
M  V30 5706 H 539.007 -0.53684 0.390767 0
M  V30 5707 H 541.537 -1.20801 1.65131 0
M  V30 5708 H 541.547 -3.64824 1.82668 0
M  V30 5709 H 540.222 -3.05946 2.81726 0
M  V30 5710 H 538.799 -3.5752 1.05991 0
M  V30 5711 N 540.985 -1.06182 -1.16461 0
M  V30 5712 C 541.933 -0.665716 -2.2287 0
M  V30 5713 C 542.927 0.317822 -1.66392 0
M  V30 5714 O 544.133 0.182807 -1.79069 0
M  V30 5715 H 540.508 -0.197148 -0.725697 0
M  V30 5716 H 542.479 -1.57307 -2.53569 0
M  V30 5717 C 541.228 -0.0669803 -3.47635 0
M  V30 5718 H 540.551 -0.814899 -3.91407 0
M  V30 5719 H 541.991 0.172669 -4.23648 0
M  V30 5720 C 540.45 1.18913 -3.15216 0
M  V30 5721 O 540.98 2.27723 -3.30916 0
M  V30 5722 N 539.186 1.09066 -2.69357 0
M  V30 5723 H 538.733 0.20518 -2.56782 0
M  V30 5724 H 538.691 1.93195 -2.48039 0
M  V30 5725 N 542.463 1.3308 -0.844243 0
M  V30 5726 C 543.711 1.97215 -0.441676 0
M  V30 5727 C 544.032 1.67185 1.0037 0
M  V30 5728 O 543.302 0.973588 1.69994 0
M  V30 5729 H 541.882 0.72959 -0.160335 0
M  V30 5730 H 544.544 1.62348 -1.07838 0
M  V30 5731 H 543.64 3.06698 -0.57815 0
M  V30 5732 N 543.941 0.601185 1.45683 0
M  V30 5733 C 545.352 0.179659 1.85834 0
M  V30 5734 C 545.703 -1.26189 1.50236 0
M  V30 5735 O 544.828 -1.95587 0.925987 0
M  V30 5736 C 545.423 0.319277 3.37292 0
M  V30 5737 C 543.982 -0.0475092 3.7637 0
M  V30 5738 C 543.129 0.646692 2.69654 0
M  V30 5739 H 546.08 0.808268 1.36575 0
M  V30 5740 H 546.101 -0.4503 3.77826 0
M  V30 5741 H 545.613 1.36855 3.6317 0
M  V30 5742 H 543.714 -1.0962 3.5611 0
M  V30 5743 H 543.827 0.34168 4.7788 0
M  V30 5744 H 542.191 0.0849971 2.54558 0
M  V30 5745 H 542.974 1.69797 2.98369 0
M  V30 5746 N 545.419 -1.53889 0.339982 0
M  V30 5747 C 546.329 -2.28604 -0.526988 0
M  V30 5748 C 547.345 -1.33578 -1.11503 0
M  V30 5749 O 548.521 -1.66612 -1.13148 0
M  V30 5750 C 545.586 -3.04164 -1.66389 0
M  V30 5751 C 544.647 -4.14809 -1.10599 0
M  V30 5752 C 543.88 -4.86756 -2.18871 0
M  V30 5753 O 544.103 -4.58343 -3.39526 0
M  V30 5754 O 543.037 -5.73289 -1.83366 0
M  V30 5755 H 546.863 -3.03594 0.0802707 0
M  V30 5756 H 544.448 -1.4903 0.105141 0
M  V30 5757 H 546.33 -3.51427 -2.32544 0
M  V30 5758 H 545.005 -2.32035 -2.25703 0
M  V30 5759 H 543.912 -3.71857 -0.409067 0
M  V30 5760 H 545.245 -4.89029 -0.557771 0
M  V30 5761 N 546.897 -0.0685191 -1.57451 0
M  V30 5762 C 548.308 0.464634 -1.80826 0
M  V30 5763 C 548.659 1.69847 -0.982169 0
M  V30 5764 O 547.784 2.15439 -0.203734 0
M  V30 5765 C 548.379 0.849721 -3.27971 0
M  V30 5766 C 546.938 1.32776 -3.52204 0
M  V30 5767 C 546.085 0.311332 -2.75547 0
M  V30 5768 H 549.036 -0.294248 -1.55948 0
M  V30 5769 H 549.057 1.71138 -3.39841 0
M  V30 5770 H 548.569 -0.0484736 -3.8807 0
M  V30 5771 H 546.67 2.24456 -2.97406 0
M  V30 5772 H 546.783 1.30794 -4.60901 0
M  V30 5773 H 545.147 0.787915 -2.42206 0
M  V30 5774 H 545.93 -0.579078 -3.38381 0
M  V30 5775 N 548.375 1.56261 0.205012 0
M  V30 5776 C 549.624 1.79236 0.925058 0
M  V30 5777 C 549.937 0.640011 1.84833 0
M  V30 5778 O 551.143 0.753809 2.60826 0
M  V30 5779 C 549.599 3.17475 1.69522 0
M  V30 5780 C 549.207 4.40482 0.817269 0
M  V30 5781 C 550.951 3.49766 2.4055 0
M  V30 5782 C 548.858 5.69744 1.58573 0
M  V30 5783 H 547.788 0.668287 0.349153 0
M  V30 5784 H 550.439 1.82629 0.178544 0
M  V30 5785 H 548.821 3.08304 2.48526 0
M  V30 5786 H 549.995 4.60752 0.0665988 0
M  V30 5787 H 548.31 4.15827 0.218316 0
M  V30 5788 H 550.907 4.43573 2.98575 0
M  V30 5789 H 551.25 2.73041 3.14252 0
M  V30 5790 H 551.783 3.60341 1.68522 0
M  V30 5791 H 548.522 6.49407 0.891679 0
M  V30 5792 H 548.042 5.53509 2.31059 0
M  V30 5793 H 549.721 6.1051 2.14212 0
M  V30 5794 N 549.853 -0.472356 1.50355 0
M  V30 5795 C 551.081 -1.24784 1.65035 0
M  V30 5796 C 551.496 -1.85837 0.333176 0
M  V30 5797 O 550.853 -1.69168 -0.68472 0
M  V30 5798 C 550.904 -2.35747 2.74054 0
M  V30 5799 O 550.625 -1.77197 4.00665 0
M  V30 5800 C 552.126 -3.26645 2.99696 0
M  V30 5801 H 549.346 -0.377432 0.554785 0
M  V30 5802 H 551.89 -0.563962 1.9657 0
M  V30 5803 H 550.045 -2.99912 2.45217 0
M  V30 5804 H 550.459 -2.5026 4.60945 0
M  V30 5805 H 551.933 -4.00718 3.79644 0
M  V30 5806 H 552.41 -3.8535 2.10718 0
M  V30 5807 H 553.016 -2.68218 3.3006 0
M  V30 5808 N 551.331 -1.39911 -0.725443 0
M  V30 5809 C 552.577 -1.37858 -1.48738 0
M  V30 5810 C 552.91 0.0224187 -1.94187 0
M  V30 5811 O 552.185 0.989204 -1.67466 0
M  V30 5812 C 552.468 -2.3594 -2.72038 0
M  V30 5813 C 552.321 -3.85023 -2.32546 0
M  V30 5814 C 553.64 -2.31704 -3.74167 0
M  V30 5815 H 550.759 -0.502074 -0.539528 0
M  V30 5816 H 553.401 -1.70974 -0.828728 0
M  V30 5817 H 551.551 -2.0783 -3.28236 0
M  V30 5818 H 553.223 -4.2392 -1.81905 0
M  V30 5819 H 551.466 -4.01334 -1.64661 0
M  V30 5820 H 552.137 -4.49152 -3.20884 0
M  V30 5821 H 554.613 -2.5658 -3.27576 0
M  V30 5822 H 553.489 -3.02395 -4.58092 0
M  V30 5823 H 553.75 -1.3253 -4.21768 0
M  V30 5824 N 552.809 0.956637 -1.25245 0
M  V30 5825 C 554.057 1.69764 -1.09657 0
M  V30 5826 C 554.378 1.91583 0.363464 0
M  V30 5827 O 553.648 1.50149 1.25825 0
M  V30 5828 H 552.228 0.629097 -0.402798 0
M  V30 5829 H 554.89 1.15026 -1.57337 0
M  V30 5830 H 553.986 2.67769 -1.60331 0
M  V30 5831 N 554.287 1.06798 1.15896 0
M  V30 5832 C 555.515 0.808694 1.90441 0
M  V30 5833 C 555.93 -0.637506 1.77711 0
M  V30 5834 O 555.287 -1.43684 1.12522 0
M  V30 5835 C 555.338 1.20068 3.40978 0
M  V30 5836 O 555.059 2.59013 3.53333 0
M  V30 5837 C 556.56 0.96987 4.3256 0
M  V30 5838 H 553.78 0.292809 0.603742 0
M  V30 5839 H 556.324 1.42296 1.46874 0
M  V30 5840 H 554.479 0.630842 3.82229 0
M  V30 5841 H 554.893 2.7485 4.46719 0
M  V30 5842 H 556.367 1.29371 5.36626 0
M  V30 5843 H 556.844 -0.0941209 4.39099 0
M  V30 5844 H 557.45 1.52433 3.97044 0
M  V30 5845 N 555.766 -1.3263 0.851289 0
M  V30 5846 C 557.015 -1.96633 0.449267 0
M  V30 5847 C 557.328 -1.68131 -0.999562 0
M  V30 5848 O 558.534 -2.25845 -1.50685 0
M  V30 5849 C 556.99 -3.51946 0.752446 0
M  V30 5850 C 556.598 -3.89311 2.21678 0
M  V30 5851 C 558.342 -4.22437 0.417983 0
M  V30 5852 C 556.249 -5.37655 2.46336 0
M  V30 5853 H 555.179 -0.735888 0.164269 0
M  V30 5854 H 557.83 -1.51073 1.0416 0
M  V30 5855 H 556.212 -3.95899 0.0895858 0
M  V30 5856 H 557.386 -3.56378 2.92115 0
M  V30 5857 H 555.701 -3.31836 2.51543 0
M  V30 5858 H 558.298 -5.31549 0.579674 0
M  V30 5859 H 558.641 -4.11349 -0.640115 0
M  V30 5860 H 559.174 -3.84057 1.03659 0
M  V30 5861 H 555.913 -5.5376 3.50757 0
M  V30 5862 H 555.433 -5.72005 1.80473 0
M  V30 5863 H 557.112 -6.04695 2.30115 0
M  V30 5864 N 557.244 -0.608902 -1.45362 0
M  V30 5865 C 558.655 -0.189511 -1.85736 0
M  V30 5866 C 559.006 1.2539 -1.50903 0
M  V30 5867 O 558.131 1.95094 -0.936347 0
M  V30 5868 C 558.726 -0.33716 -3.37118 0
M  V30 5869 C 557.285 0.0275487 -3.7639 0
M  V30 5870 C 556.432 -0.660983 -2.69307 0
M  V30 5871 H 559.383 -0.815499 -1.36144 0
M  V30 5872 H 559.404 0.430257 -3.7806 0
M  V30 5873 H 558.916 -1.38779 -3.62439 0
M  V30 5874 H 557.017 1.0773 -3.56686 0
M  V30 5875 H 557.13 -0.367018 -4.77692 0
M  V30 5876 H 555.494 -0.0984958 -2.54509 0
M  V30 5877 H 556.277 -1.71377 -2.97464 0
M  V30 5878 N 558.722 1.53707 -0.348139 0
M  V30 5879 C 559.654 2.22725 0.540946 0
M  V30 5880 C 560.667 1.2354 1.06027 0
M  V30 5881 O 561.856 1.49867 0.96964 0
M  V30 5882 C 558.956 2.89756 1.75768 0
M  V30 5883 C 558.129 4.15297 1.37285 0
M  V30 5884 C 557.188 4.65697 2.44976 0
M  V30 5885 O 556.214 5.29798 2.08092 0
M  V30 5886 N 557.416 4.42017 3.763 0
M  V30 5887 H 560.181 2.99658 -0.0501592 0
M  V30 5888 H 557.742 1.60979 -0.17248 0
M  V30 5889 H 559.734 3.20388 2.47252 0
M  V30 5890 H 558.304 2.16382 2.25605 0
M  V30 5891 H 557.524 3.9116 0.488584 0
M  V30 5892 H 558.812 4.96948 1.09179 0
M  V30 5893 H 558.21 3.9076 4.09051 0
M  V30 5894 H 556.767 4.77242 4.4394 0
M  V30 5895 N 560.2 0.0768682 1.57412 0
M  V30 5896 C 561.447 -0.591085 1.93681 0
M  V30 5897 C 561.775 -1.69311 0.957286 0
M  V30 5898 O 561.03 -1.95682 -0.0262428 0
M  V30 5899 C 561.329 -1.20268 3.36557 0
M  V30 5900 C 560.995 -0.226286 4.50332 0
M  V30 5901 C 559.657 0.0423142 4.81181 0
M  V30 5902 C 562.009 0.441415 5.19327 0
M  V30 5903 C 559.337 0.985616 5.78362 0
M  V30 5904 C 561.689 1.37307 6.17519 0
M  V30 5905 C 560.353 1.65009 6.46783 0
M  V30 5906 H 559.623 -0.216293 0.70873 0
M  V30 5907 H 562.27 0.148824 1.90921 0
M  V30 5908 H 560.575 -2.01844 3.35807 0
M  V30 5909 H 562.272 -1.72688 3.61911 0
M  V30 5910 H 558.862 -0.445821 4.26275 0
M  V30 5911 H 563.046 0.247023 4.95685 0
M  V30 5912 H 558.302 1.20743 5.99359 0
M  V30 5913 H 562.476 1.89637 6.70083 0
M  V30 5914 H 560.103 2.38263 7.21897 0
M  V30 5915 N 561.678 -1.56367 -0.196722 0
M  V30 5916 C 562.61 -1.90941 -1.26784 0
M  V30 5917 C 563.623 -0.799928 -1.41792 0
M  V30 5918 O 564.812 -1.07833 -1.42247 0
M  V30 5919 C 561.912 -2.12477 -2.6402 0
M  V30 5920 C 561.085 -3.43616 -2.70641 0
M  V30 5921 C 560.144 -3.54284 -3.89062 0
M  V30 5922 O 559.17 -4.2712 -3.76241 0
M  V30 5923 N 560.372 -2.87252 -5.04447 0
M  V30 5924 H 563.137 -2.83417 -0.974417 0
M  V30 5925 H 560.698 -1.57215 -0.386649 0
M  V30 5926 H 562.69 -2.16904 -3.41665 0
M  V30 5927 H 561.26 -1.26508 -2.85857 0
M  V30 5928 H 560.48 -3.51072 -1.79283 0
M  V30 5929 H 561.768 -4.29958 -2.72054 0
M  V30 5930 H 561.166 -2.27901 -5.17762 0
M  V30 5931 H 559.723 -2.97308 -5.80044 0
M  V30 5932 N 563.156 0.464375 -1.50603 0
M  V30 5933 C 564.103 1.56152 -1.69956 0
M  V30 5934 C 565.073 1.57046 -0.54091 0
M  V30 5935 O 566.258 1.74473 -0.772258 0
M  V30 5936 C 563.398 2.94079 -1.80586 0
M  V30 5937 C 562.511 3.02923 -3.07996 0
M  V30 5938 C 561.646 4.31806 -3.09382 0
M  V30 5939 C 560.685 4.34417 -4.31218 0
M  V30 5940 N 559.822 5.54782 -4.30304 0
M  V30 5941 H 564.662 1.38955 -2.6362 0
M  V30 5942 H 562.199 0.675482 -1.30674 0
M  V30 5943 H 564.157 3.74073 -1.8473 0
M  V30 5944 H 562.787 3.09896 -0.903556 0
M  V30 5945 H 561.839 2.1576 -3.13292 0
M  V30 5946 H 563.151 3.00712 -3.97962 0
M  V30 5947 H 562.305 5.20153 -3.12292 0
M  V30 5948 H 561.044 4.36636 -2.17257 0
M  V30 5949 H 560.049 3.44467 -4.28512 0
M  V30 5950 H 561.274 4.31273 -5.24576 0
M  V30 5951 H 559.22 5.60384 -3.41037 0
M  V30 5952 H 559.137 5.54339 -5.14047 0
M  V30 5953 H 560.405 6.45235 -4.3737 0
M  V30 5954 N 564.634 1.40294 0.718013 0
M  V30 5955 C 565.882 1.38167 1.47494 0
M  V30 5956 C 566.203 -0.01607 1.94993 0
M  V30 5957 O 565.473 -0.970396 1.70177 0
M  V30 5958 H 564.053 0.508505 0.547203 0
M  V30 5959 H 566.715 1.75324 0.851322 0
M  V30 5960 H 565.811 2.05503 2.34894 0
M  V30 5961 N 566.112 -0.949982 1.2575 0
M  V30 5962 C 567.042 -2.06483 1.09028 0
M  V30 5963 C 568.023 -1.701 -0.00201532 0
M  V30 5964 O 569.208 -1.93469 0.168383 0
M  V30 5965 C 566.338 -3.39899 0.71316 0
M  V30 5966 C 565.292 -3.90309 1.75621 0
M  V30 5967 C 564.618 -5.20274 1.23365 0
M  V30 5968 C 565.918 -4.16169 3.15596 0
M  V30 5969 H 567.612 -2.20731 2.02283 0
M  V30 5970 H 565.158 -1.06066 0.973964 0
M  V30 5971 H 567.111 -4.17346 0.58309 0
M  V30 5972 H 565.835 -3.25602 -0.255091 0
M  V30 5973 H 564.494 -3.15035 1.8748 0
M  V30 5974 H 564.142 -5.02351 0.255491 0
M  V30 5975 H 563.842 -5.54971 1.93082 0
M  V30 5976 H 565.366 -6.00314 1.11607 0
M  V30 5977 H 566.78 -4.84259 3.06864 0
M  V30 5978 H 565.177 -4.62131 3.82825 0
M  V30 5979 H 566.247 -3.22273 3.6231 0
M  V30 5980 N 567.59 -1.07411 -1.15328 0
M  V30 5981 C 568.523 -0.63913 -2.19067 0
M  V30 5982 C 569.501 0.343929 -1.58921 0
M  V30 5983 O 570.685 0.250207 -1.86832 0
M  V30 5984 C 567.812 0.0613977 -3.38644 0
M  V30 5985 C 566.858 -0.880201 -4.17318 0
M  V30 5986 S 567.691 -2.38152 -4.79629 0
M  V30 5987 C 568.847 -1.69281 -6.02573 0
M  V30 5988 H 569.08 -1.51799 -2.55626 0
M  V30 5989 H 566.613 -0.888138 -1.26299 0
M  V30 5990 H 568.571 0.459323 -4.07922 0
M  V30 5991 H 567.232 0.916605 -3.00428 0
M  V30 5992 H 566.425 -0.336781 -5.02874 0
M  V30 5993 H 566.027 -1.21854 -3.53592 0
M  V30 5994 H 568.319 -1.00488 -6.70006 0
M  V30 5995 H 569.262 -2.52671 -6.61485 0
M  V30 5996 H 569.67 -1.17053 -5.52231 0
M  V30 5997 N 569.068 1.32177 -0.85831 0
M  V30 5998 C 569.978 2.32561 -0.308606 0
M  V30 5999 C 570.994 1.64209 0.575462 0
M  V30 6000 O 572.17 1.95719 0.474961 0
M  V30 6001 C 569.235 3.43207 0.490909 0
M  V30 6002 C 568.296 4.27243 -0.419733 0
M  V30 6003 C 567.529 5.32605 0.341719 0
M  V30 6004 O 567.752 5.48332 1.57125 0
M  V30 6005 O 566.686 6.0118 -0.294379 0
M  V30 6006 H 570.512 2.81477 -1.14037 0
M  V30 6007 H 568.097 1.35866 -0.621349 0
M  V30 6008 H 569.979 4.10677 0.944574 0
M  V30 6009 H 568.654 2.96474 1.29941 0
M  V30 6010 H 567.561 3.62569 -0.921652 0
M  V30 6011 H 568.894 4.7751 -1.19352 0
M  V30 6012 N 570.547 0.616602 1.45037 0
M  V30 6013 C 571.479 -0.135186 2.28801 0
M  V30 6014 C 572.492 -0.82303 1.40464 0
M  V30 6015 O 573.681 -0.686909 1.64754 0
M  V30 6016 C 570.781 -1.21292 3.16451 0
M  V30 6017 C 569.954 -0.61043 4.3312 0
M  V30 6018 C 569.013 -1.58022 5.01912 0
M  V30 6019 O 568.039 -1.10301 5.58411 0
M  V30 6020 N 569.241 -2.91464 5.02025 0
M  V30 6021 H 572.006 0.583612 2.93963 0
M  V30 6022 H 569.567 0.456723 1.55324 0
M  V30 6023 H 571.559 -1.86169 3.59337 0
M  V30 6024 H 570.129 -1.83412 2.53138 0
M  V30 6025 H 569.349 0.216638 3.93604 0
M  V30 6026 H 570.637 -0.188293 5.08451 0
M  V30 6027 H 570.035 -3.32829 4.57429 0
M  V30 6028 H 568.592 -3.51741 5.48745 0
M  V30 6029 N 572.025 -1.5352 0.356285 0
M  V30 6030 C 572.957 -2.23009 -0.529127 0
M  V30 6031 C 573.97 -1.241 -1.05371 0
M  V30 6032 O 575.159 -1.50379 -0.961679 0
M  V30 6033 C 572.259 -2.90685 -1.74229 0
M  V30 6034 C 571.432 -4.16019 -1.35081 0
M  V30 6035 C 570.491 -4.66989 -2.42502 0
M  V30 6036 O 569.517 -5.30895 -2.05279 0
M  V30 6037 N 570.719 -4.44006 -3.7395 0
M  V30 6038 H 573.484 -2.99627 0.0660501 0
M  V30 6039 H 571.045 -1.60885 0.181014 0
M  V30 6040 H 573.037 -3.21695 -2.4555 0
M  V30 6041 H 571.607 -2.17575 -2.24454 0
M  V30 6042 H 570.827 -3.91414 -0.467833 0
M  V30 6043 H 572.115 -4.9752 -1.06542 0
M  V30 6044 H 571.513 -3.92924 -4.06973 0
M  V30 6045 H 570.07 -4.7959 -4.41403 0
M  V30 6046 N 573.503 -0.0852151 -1.57369 0
M  V30 6047 C 574.749 0.581666 -1.94279 0
M  V30 6048 C 575.082 1.68444 -0.966446 0
M  V30 6049 O 574.357 1.945 0.00215277 0
M  V30 6050 C 574.64 1.14609 -3.41375 0
M  V30 6051 C 574.493 0.0490414 -4.49773 0
M  V30 6052 C 575.812 2.04751 -3.8957 0
M  V30 6053 H 572.931 0.209972 -0.706456 0
M  V30 6054 H 575.573 -0.153915 -1.89376 0
M  V30 6055 H 573.723 1.77297 -3.45685 0
M  V30 6056 H 575.395 -0.584721 -4.57579 0
M  V30 6057 H 573.638 -0.618638 -4.29366 0
M  V30 6058 H 574.309 0.484601 -5.49869 0
M  V30 6059 H 576.785 1.51981 -3.87351 0
M  V30 6060 H 575.661 2.41173 -4.93079 0
M  V30 6061 H 575.922 2.96107 -3.28288 0
M  V30 6062 N 574.981 1.5647 0.188427 0
M  V30 6063 C 576.206 1.85486 0.927891 0
M  V30 6064 C 576.631 0.669575 1.75779 0
M  V30 6065 O 575.989 -0.381573 1.77239 0
M  V30 6066 C 576.037 3.12784 1.7944 0
M  V30 6067 O 575.141 2.93805 2.894 0
M  V30 6068 H 574.482 0.610585 0.260925 0
M  V30 6069 H 577.012 2.037 0.191729 0
M  V30 6070 H 577.022 3.43749 2.19774 0
M  V30 6071 H 575.697 3.98671 1.18468 0
M  V30 6072 H 574.274 2.74153 2.52774 0
M  V30 6073 N 576.459 -0.456382 1.50847 0
M  V30 6074 C 577.705 -1.20914 1.62811 0
M  V30 6075 C 578.038 -1.91301 0.334304 0
M  V30 6076 O 577.313 -1.82775 -0.665098 0
M  V30 6077 C 577.596 -2.24122 2.81853 0
M  V30 6078 C 577.449 -1.57944 4.21158 0
M  V30 6079 C 578.768 -3.25295 2.96431 0
M  V30 6080 H 575.887 -0.438233 0.592554 0
M  V30 6081 H 578.529 -0.50091 1.83278 0
M  V30 6082 H 576.679 -2.84524 2.64534 0
M  V30 6083 H 578.351 -1.01025 4.50102 0
M  V30 6084 H 576.594 -0.882185 4.24735 0
M  V30 6085 H 577.265 -2.33014 5.00408 0
M  V30 6086 H 579.741 -2.7493 3.12335 0
M  V30 6087 H 578.617 -3.94822 3.81322 0
M  V30 6088 H 578.878 -3.90286 2.07676 0
M  V30 6089 N 577.937 -1.40673 -0.710563 0
M  V30 6090 C 578.847 -1.43663 -1.85467 0
M  V30 6091 C 579.863 -0.328721 -1.70867 0
M  V30 6092 O 581.039 -0.574098 -1.93044 0
M  V30 6093 C 578.104 -1.30226 -3.21313 0
M  V30 6094 C 577.165 -2.51204 -3.48131 0
M  V30 6095 C 576.398 -2.38398 -4.77495 0
M  V30 6096 O 576.621 -1.40048 -5.5294 0
M  V30 6097 O 575.555 -3.2787 -5.04762 0
M  V30 6098 H 579.381 -2.40156 -1.859 0
M  V30 6099 H 576.966 -1.22049 -0.861652 0
M  V30 6100 H 578.848 -1.2496 -4.02446 0
M  V30 6101 H 577.523 -0.368419 -3.21597 0
M  V30 6102 H 576.43 -2.62048 -2.66987 0
M  V30 6103 H 577.763 -3.43366 -3.52648 0
M  V30 6104 N 579.415 0.9433 -1.26252 0
M  V30 6105 C 580.362 2.0417 -1.07625 0
M  V30 6106 C 581.332 1.6609 0.0180738 0
M  V30 6107 O 582.517 1.90276 -0.141289 0
M  V30 6108 C 579.657 3.37653 -0.713043 0
M  V30 6109 C 578.77 3.88783 -1.8834 0
M  V30 6110 C 577.905 5.10642 -1.4635 0
M  V30 6111 C 576.944 5.54028 -2.60229 0
M  V30 6112 N 576.081 6.67092 -2.18936 0
M  V30 6113 H 580.921 2.19436 -2.01623 0
M  V30 6114 H 578.458 1.07519 -1.00389 0
M  V30 6115 H 580.416 4.14391 -0.483358 0
M  V30 6116 H 579.046 3.22241 0.18996 0
M  V30 6117 H 578.098 3.08464 -2.22608 0
M  V30 6118 H 579.41 4.16922 -2.73821 0
M  V30 6119 H 578.564 5.94832 -1.19414 0
M  V30 6120 H 577.303 4.84244 -0.579568 0
M  V30 6121 H 576.308 4.68396 -2.87898 0
M  V30 6122 H 577.533 5.82429 -3.49219 0
M  V30 6123 H 575.479 6.42381 -1.32974 0
M  V30 6124 H 575.396 6.94806 -2.97961 0
M  V30 6125 H 576.664 7.54662 -1.95206 0
M  V30 6126 N 580.893 1.08022 1.14757 0
M  V30 6127 C 581.823 0.728248 2.21853 0
M  V30 6128 C 582.804 -0.287486 1.67653 0
M  V30 6129 O 583.989 -0.158727 1.9355 0
M  V30 6130 C 581.119 0.132549 3.47047 0
M  V30 6131 C 580.073 1.07619 4.14249 0
M  V30 6132 C 579.399 0.342907 5.33599 0
M  V30 6133 C 580.699 2.41268 4.63235 0
M  V30 6134 H 582.393 1.62365 2.51551 0
M  V30 6135 H 579.939 0.782125 1.20908 0
M  V30 6136 H 581.892 -0.125665 4.21213 0
M  V30 6137 H 580.616 -0.797971 3.16702 0
M  V30 6138 H 579.275 1.31944 3.42033 0
M  V30 6139 H 578.923 -0.59129 4.99513 0
M  V30 6140 H 578.623 0.971955 5.79506 0
M  V30 6141 H 580.147 0.0926538 6.1053 0
M  V30 6142 H 581.561 2.21232 5.28894 0
M  V30 6143 H 579.958 2.9983 5.19829 0
M  V30 6144 H 581.028 3.03079 3.78512 0
M  V30 6145 N 582.371 -1.3172 0.865308 0
M  V30 6146 C 583.599 -2.01057 0.488251 0
M  V30 6147 C 584.014 -1.64979 -0.918 0
M  V30 6148 O 583.371 -0.876597 -1.60069 0
M  V30 6149 C 583.422 -3.55964 0.630224 0
M  V30 6150 O 583.143 -3.90749 1.98109 0
M  V30 6151 C 584.644 -4.42574 0.253567 0
M  V30 6152 H 581.864 -0.64332 0.190736 0
M  V30 6153 H 584.408 -1.68058 1.16519 0
M  V30 6154 H 582.563 -3.874 0.000895422 0
M  V30 6155 H 582.977 -4.85467 1.9855 0
M  V30 6156 H 584.451 -5.50521 0.403875 0
M  V30 6157 H 584.928 -4.31724 -0.806895 0
M  V30 6158 H 585.534 -4.16547 0.858404 0
M  V30 6159 N 583.85 -0.624285 -1.44708 0
M  V30 6160 C 585.096 -0.126237 -2.02407 0
M  V30 6161 C 585.428 1.24618 -1.48943 0
M  V30 6162 O 584.704 1.82569 -0.670742 0
M  V30 6163 C 584.986 -0.105449 -3.59946 0
M  V30 6164 C 584.84 -1.50972 -4.23707 0
M  V30 6165 C 586.159 0.573629 -4.36346 0
M  V30 6166 H 583.278 -0.0473472 -0.735478 0
M  V30 6167 H 585.92 -0.799452 -1.72362 0
M  V30 6168 H 584.07 0.46783 -3.85673 0
M  V30 6169 H 585.742 -2.13136 -4.0911 0
M  V30 6170 H 583.985 -2.0656 -3.81465 0
M  V30 6171 H 584.656 -1.44727 -5.32689 0
M  V30 6172 H 587.132 0.0861787 -4.16011 0
M  V30 6173 H 586.008 0.557338 -5.46063 0
M  V30 6174 H 586.269 1.64276 -4.10446 0
M  V30 6175 N 585.328 1.53329 -0.364422 0
M  V30 6176 C 586.238 2.29414 0.490552 0
M  V30 6177 C 587.254 1.35335 1.09363 0
M  V30 6178 O 588.43 1.68391 1.10483 0
M  V30 6179 C 585.495 3.06772 1.61529 0
M  V30 6180 C 584.556 4.16516 1.03986 0
M  V30 6181 C 583.789 4.90176 2.111 0
M  V30 6182 O 584.012 4.63687 3.32191 0
M  V30 6183 O 582.946 5.76134 1.74222 0
M  V30 6184 H 586.772 3.03428 -0.12856 0
M  V30 6185 H 584.357 1.48843 -0.128837 0
M  V30 6186 H 586.239 3.55082 2.26924 0
M  V30 6187 H 584.914 2.35596 2.21983 0
M  V30 6188 H 583.821 3.7246 0.349856 0
M  V30 6189 H 585.154 4.89855 0.4799 0
M  V30 6190 N 586.806 0.0935595 1.57322 0
M  V30 6191 C 587.769 -0.851426 2.12799 0
M  V30 6192 C 588.769 -1.21187 1.0569 0
M  V30 6193 O 589.959 -1.14156 1.31583 0
M  V30 6194 C 587.091 -2.14779 2.64731 0
M  V30 6195 H 588.284 -0.369733 2.97612 0
M  V30 6196 H 585.837 -0.155417 1.55525 0
M  V30 6197 H 586.572 -2.67437 1.83434 0
M  V30 6198 H 586.357 -1.89907 3.43042 0
M  V30 6199 H 587.847 -2.82383 3.07651 0
M  V30 6200 N 588.284 -1.56567 -0.180126 0
M  V30 6201 C 589.53 -1.82658 -0.894859 0
M  V30 6202 C 589.885 -0.672826 -1.80252 0
M  V30 6203 O 589.178 0.331227 -1.88715 0
M  V30 6204 C 589.372 -3.1252 -1.73395 0
M  V30 6205 C 589.201 -4.40417 -0.909028 0
M  V30 6206 C 587.971 -5.01872 -0.587562 0
M  V30 6207 C 590.169 -5.13669 -0.254698 0
M  V30 6208 N 588.151 -6.13373 0.254428 0
M  V30 6209 C 589.522 -6.18373 0.448837 0
M  V30 6210 C 591.577 -4.97603 -0.171958 0
M  V30 6211 C 590.28 -7.08753 1.22725 0
M  V30 6212 C 592.306 -5.88418 0.593101 0
M  V30 6213 C 591.668 -6.92579 1.28503 0
M  V30 6214 H 587.767 -0.719493 -0.306356 0
M  V30 6215 H 590.351 -1.94021 -0.16247 0
M  V30 6216 H 588.522 -3.02365 -2.43783 0
M  V30 6217 H 590.254 -3.2664 -2.38931 0
M  V30 6218 H 587.009 -4.64666 -0.915557 0
M  V30 6219 H 587.433 -6.73721 0.665474 0
M  V30 6220 H 592.075 -4.17089 -0.692555 0
M  V30 6221 H 589.793 -7.88718 1.75923 0
M  V30 6222 H 593.379 -5.78059 0.658674 0
M  V30 6223 H 592.259 -7.61638 1.86754 0
M  V30 6224 N 589.762 0.448376 -1.51087 0
M  V30 6225 C 590.725 1.52588 -1.71025 0
M  V30 6226 C 591.725 1.49958 -0.580442 0
M  V30 6227 O 592.915 1.52176 -0.847833 0
M  V30 6228 C 590.047 2.92163 -1.75652 0
M  V30 6229 H 591.24 1.36218 -2.67179 0
M  V30 6230 H 588.793 0.676313 -1.4091 0
M  V30 6231 H 589.528 3.13951 -0.812724 0
M  V30 6232 H 589.313 2.95478 -2.57751 0
M  V30 6233 H 590.803 3.70349 -1.92953 0
M  V30 6234 N 591.24 1.41047 0.703093 0
M  V30 6235 C 592.15 1.44645 1.84703 0
M  V30 6236 C 593.166 0.337778 1.7069 0
M  V30 6237 O 594.342 0.584327 1.92737 0
M  V30 6238 C 591.407 1.31928 3.20618 0
M  V30 6239 C 590.468 2.53047 3.46794 0
M  V30 6240 C 589.701 2.40927 4.76224 0
M  V30 6241 O 589.924 1.42978 5.5219 0
M  V30 6242 O 588.858 3.30543 5.03016 0
M  V30 6243 H 592.684 2.41139 1.84624 0
M  V30 6244 H 590.269 1.22504 0.855167 0
M  V30 6245 H 592.151 1.27092 4.01778 0
M  V30 6246 H 590.826 0.385469 3.21397 0
M  V30 6247 H 589.733 2.6346 2.65593 0
M  V30 6248 H 591.066 3.45231 3.50822 0
M  V30 6249 N 592.718 -0.936591 1.26751 0
M  V30 6250 C 593.665 -2.03597 1.08706 0
M  V30 6251 C 594.635 -1.66097 -0.00926542 0
M  V30 6252 O 595.82 -1.90199 0.151377 0
M  V30 6253 C 592.96 -3.3727 0.73094 0
M  V30 6254 C 592.073 -3.87778 1.90399 0
M  V30 6255 C 591.208 -5.09859 1.49056 0
M  V30 6256 C 590.247 -5.5264 2.63164 0
M  V30 6257 N 589.384 -6.65921 2.22471 0
M  V30 6258 H 594.224 -2.18364 2.02784 0
M  V30 6259 H 591.761 -1.06985 1.00958 0
M  V30 6260 H 593.719 -4.14128 0.505328 0
M  V30 6261 H 592.349 -3.22337 -0.172868 0
M  V30 6262 H 591.401 -3.07279 2.2424 0
M  V30 6263 H 592.713 -4.15464 2.76028 0
M  V30 6264 H 591.867 -5.9419 1.22567 0
M  V30 6265 H 590.606 -4.8393 0.60524 0
M  V30 6266 H 589.611 -4.66863 2.90377 0
M  V30 6267 H 590.836 -5.80568 3.52303 0
M  V30 6268 H 588.782 -6.41667 1.36379 0
M  V30 6269 H 588.699 -6.93216 3.01641 0
M  V30 6270 H 589.967 -7.53616 1.99205 0
M  V30 6271 N 594.196 -1.08629 -1.14182 0
M  V30 6272 C 595.421 -0.83902 -1.89671 0
M  V30 6273 C 595.846 0.603332 -1.78161 0
M  V30 6274 O 595.204 1.42301 -1.12339 0
M  V30 6275 C 595.252 -1.26854 -3.37551 0
M  V30 6276 O 594.356 -0.42188 -4.10236 0
M  V30 6277 H 593.697 -0.304545 -0.590041 0
M  V30 6278 H 596.227 -1.4483 -1.44518 0
M  V30 6279 H 596.237 -1.25038 -3.88368 0
M  V30 6280 H 594.912 -2.31901 -3.45246 0
M  V30 6281 H 593.489 -0.503654 -3.69483 0
M  V30 6282 N 595.674 1.31259 -0.872281 0
M  V30 6283 C 596.921 1.96622 -0.484365 0
M  V30 6284 C 597.249 1.68939 0.963841 0
M  V30 6285 O 596.504 0.97974 1.6941 0
M  V30 6286 C 596.803 3.50659 -0.690889 0
M  V30 6287 C 596.469 3.98366 -2.11224 0
M  V30 6288 C 595.131 4.11104 -2.50094 0
M  V30 6289 C 597.483 4.23425 -3.0391 0
M  V30 6290 C 594.811 4.46254 -3.80887 0
M  V30 6291 C 597.163 4.60039 -4.3422 0
M  V30 6292 C 595.827 4.70984 -4.73001 0
M  V30 6293 H 595.097 0.71949 -0.177242 0
M  V30 6294 H 597.744 1.56353 -1.10571 0
M  V30 6295 H 596.049 3.91798 0.0135782 0
M  V30 6296 H 597.746 3.99284 -0.370534 0
M  V30 6297 H 594.336 3.88949 -1.80047 0
M  V30 6298 H 598.52 4.13075 -2.75104 0
M  V30 6299 H 593.776 4.52926 -4.10692 0
M  V30 6300 H 597.95 4.78381 -5.06088 0
M  V30 6301 H 595.577 4.97977 -5.7439 0
M  V30 6302 N 597.152 0.631951 1.44375 0
M  V30 6303 C 598.084 -0.110911 2.28931 0
M  V30 6304 C 599.097 -0.808086 1.41329 0
M  V30 6305 O 600.286 -0.669396 1.65473 0
M  V30 6306 C 597.386 -1.17928 3.1772 0
M  V30 6307 C 596.559 -0.564458 4.33743 0
M  V30 6308 C 595.618 -1.5269 5.0356 0
M  V30 6309 O 594.644 -1.04372 5.59549 0
M  V30 6310 N 595.846 -2.86123 5.05088 0
M  V30 6311 H 598.611 0.614758 2.93327 0
M  V30 6312 H 596.172 0.473171 1.54831 0
M  V30 6313 H 598.164 -1.82348 3.61291 0
M  V30 6314 H 596.734 -1.80717 2.55069 0
M  V30 6315 H 595.954 0.258373 3.93352 0
M  V30 6316 H 597.242 -0.134355 5.08623 0
M  V30 6317 H 596.64 -3.27959 4.60933 0
M  V30 6318 H 595.197 -3.45901 5.52445 0
M  V30 6319 N 598.631 -1.53133 0.372548 0
M  V30 6320 C 599.578 -2.25951 -0.470631 0
M  V30 6321 C 600.548 -1.26895 -1.07176 0
M  V30 6322 O 601.733 -1.55691 -1.10294 0
M  V30 6323 C 598.873 -3.05726 -1.6008 0
M  V30 6324 C 597.986 -4.19684 -1.02416 0
M  V30 6325 C 597.121 -4.86888 -2.124 0
M  V30 6326 C 596.16 -5.92866 -1.52238 0
M  V30 6327 N 595.297 -6.53732 -2.56084 0
M  V30 6328 H 600.137 -2.97587 0.156816 0
M  V30 6329 H 597.674 -1.4683 0.0891571 0
M  V30 6330 H 599.632 -3.50258 -2.26661 0
M  V30 6331 H 598.262 -2.36331 -2.1988 0
M  V30 6332 H 597.314 -3.79588 -0.248426 0
M  V30 6333 H 598.626 -4.95821 -0.544366 0
M  V30 6334 H 597.78 -5.34638 -2.86787 0
M  V30 6335 H 596.519 -4.10239 -2.63734 0
M  V30 6336 H 595.524 -5.4447 -0.763685 0
M  V30 6337 H 596.749 -6.71439 -1.0172 0
M  V30 6338 H 594.695 -5.79932 -3.06618 0
M  V30 6339 H 594.612 -7.25429 -2.12811 0
M  V30 6340 H 595.88 -7.0613 -3.30152 0
M  V30 6341 N 600.109 -0.101901 -1.5727 0
M  V30 6342 C 601.039 0.851544 -2.17419 0
M  V30 6343 C 602.02 1.28942 -1.10941 0
M  V30 6344 O 603.205 1.35509 -1.39107 0
M  V30 6345 C 600.335 2.10816 -2.75996 0
M  V30 6346 C 599.289 1.80867 -3.87906 0
M  V30 6347 C 598.615 3.13413 -4.33216 0
M  V30 6348 C 599.915 1.0903 -5.10793 0
M  V30 6349 H 601.609 0.350381 -2.97343 0
M  V30 6350 H 599.155 0.16709 -1.43027 0
M  V30 6351 H 601.108 2.77959 -3.16729 0
M  V30 6352 H 599.832 2.63227 -1.93337 0
M  V30 6353 H 598.491 1.16119 -3.47724 0
M  V30 6354 H 598.139 3.63725 -3.47438 0
M  V30 6355 H 597.839 2.94155 -5.08671 0
M  V30 6356 H 599.363 3.81704 -4.76586 0
M  V30 6357 H 600.777 1.66295 -5.48652 0
M  V30 6358 H 599.174 0.99927 -5.91722 0
M  V30 6359 H 600.244 0.0741704 -4.84843 0
M  V30 6360 N 601.587 1.56661 0.17182 0
M  V30 6361 C 602.833 1.8313 0.88516 0
M  V30 6362 C 603.188 0.682376 1.79893 0
M  V30 6363 O 602.481 -0.321215 1.88888 0
M  V30 6364 C 602.675 3.13435 1.71736 0
M  V30 6365 C 602.504 4.40892 0.885659 0
M  V30 6366 C 601.274 5.02177 0.560939 0
M  V30 6367 C 603.472 5.13797 0.227454 0
M  V30 6368 N 601.454 6.13229 -0.286953 0
M  V30 6369 C 602.825 6.18127 -0.481625 0
M  V30 6370 C 604.88 4.97687 0.145567 0
M  V30 6371 C 603.583 7.08092 -1.26482 0
M  V30 6372 C 605.609 5.88096 -0.624298 0
M  V30 6373 C 604.971 6.91888 -1.32174 0
M  V30 6374 H 601.07 0.721107 0.302536 0
M  V30 6375 H 603.654 1.94104 0.152178 0
M  V30 6376 H 601.825 3.03653 2.42176 0
M  V30 6377 H 603.557 3.27903 2.37196 0
M  V30 6378 H 600.312 4.65145 0.890902 0
M  V30 6379 H 600.736 6.73359 -0.701193 0
M  V30 6380 H 605.378 4.17451 0.670426 0
M  V30 6381 H 603.096 7.87774 -1.80103 0
M  V30 6382 H 606.682 5.77702 -0.689321 0
M  V30 6383 H 605.562 7.60637 -1.90791 0
M  V30 6384 N 603.065 -0.440357 1.51323 0
M  V30 6385 C 603.997 -1.55254 1.68609 0
M  V30 6386 C 605.01 -1.52614 0.566812 0
M  V30 6387 O 606.199 -1.57445 0.841032 0
M  V30 6388 C 603.299 -2.94169 1.68279 0
M  V30 6389 C 602.472 -3.21346 2.96742 0
M  V30 6390 C 601.531 -4.3997 2.8864 0
M  V30 6391 O 600.557 -4.38771 3.62586 0
M  V30 6392 N 601.759 -5.43367 2.04285 0
M  V30 6393 H 604.524 -1.40831 2.6455 0
M  V30 6394 H 602.085 -0.629251 1.49171 0
M  V30 6395 H 604.077 -3.71543 1.60431 0
M  V30 6396 H 602.647 -3.02205 0.799441 0
M  V30 6397 H 601.867 -2.32299 3.18482 0
M  V30 6398 H 603.155 -3.3633 3.81785 0
M  V30 6399 H 602.553 -5.47176 1.43578 0
M  V30 6400 H 601.11 -6.19605 2.02318 0
M  V30 6401 N 604.543 -1.41418 -0.695603 0
M  V30 6402 C 605.506 -1.42988 -1.79129 0
M  V30 6403 C 606.506 -0.320514 -1.57573 0
M  V30 6404 O 607.696 -0.58039 -1.64247 0
M  V30 6405 C 604.828 -1.24122 -3.175 0
M  V30 6406 H 606.021 -2.40526 -1.7913 0
M  V30 6407 H 603.574 -1.2756 -0.903225 0
M  V30 6408 H 604.309 -0.274253 -3.23138 0
M  V30 6409 H 604.094 -2.045 -3.34547 0
M  V30 6410 H 605.584 -1.28056 -3.97481 0
M  V30 6411 N 606.021 0.929856 -1.27246 0
M  V30 6412 C 606.951 2.04722 -1.12299 0
M  V30 6413 C 607.932 1.70082 -0.0250464 0
M  V30 6414 O 609.117 1.93176 -0.199141 0
M  V30 6415 C 606.247 3.38721 -0.767145 0
M  V30 6416 C 605.201 3.87466 -1.81808 0
M  V30 6417 C 604.527 5.18246 -1.31626 0
M  V30 6418 C 605.827 4.11095 -3.22177 0
M  V30 6419 H 607.521 2.17485 -2.05769 0
M  V30 6420 H 605.067 1.04503 -0.990715 0
M  V30 6421 H 607.02 4.16366 -0.649413 0
M  V30 6422 H 605.744 3.25967 0.203259 0
M  V30 6423 H 604.403 3.12012 -1.92468 0
M  V30 6424 H 604.051 5.01881 -0.335378 0
M  V30 6425 H 603.751 5.51829 -2.01887 0
M  V30 6426 H 605.275 5.98462 -1.21143 0
M  V30 6427 H 606.689 4.79316 -3.1453 0
M  V30 6428 H 605.086 4.55982 -3.90129 0
M  V30 6429 H 606.156 3.16468 -3.67391 0
M  V30 6430 N 607.499 1.09233 1.13605 0
M  V30 6431 C 608.748 0.82205 1.84188 0
M  V30 6432 C 609.061 -0.654548 1.84323 0
M  V30 6433 O 610.267 -1.04029 2.50779 0
M  V30 6434 C 608.723 1.42066 3.30674 0
M  V30 6435 C 608.331 2.92965 3.38933 0
M  V30 6436 C 610.075 1.22924 4.06313 0
M  V30 6437 C 607.982 3.45922 4.79679 0
M  V30 6438 H 606.912 0.303854 0.690064 0
M  V30 6439 H 609.563 1.31479 1.28006 0
M  V30 6440 H 607.945 0.855613 3.86646 0
M  V30 6441 H 609.119 3.55679 2.92966 0
M  V30 6442 H 607.434 3.11118 2.76757 0
M  V30 6443 H 610.031 1.59945 5.10217 0
M  V30 6444 H 610.374 0.169726 4.15954 0
M  V30 6445 H 610.907 1.76168 3.56665 0
M  V30 6446 H 607.646 4.51484 4.75229 0
M  V30 6447 H 607.166 2.87971 5.26149 0
M  V30 6448 H 608.845 3.43009 5.48592 0
M  V30 6449 N 608.977 -1.30795 0.87923 0
M  V30 6450 C 609.907 -2.30742 0.357796 0
M  V30 6451 C 610.888 -1.60747 -0.556283 0
M  V30 6452 O 612.073 -1.88393 -0.47135 0
M  V30 6453 C 609.203 -3.44583 -0.433555 0
M  V30 6454 C 608.157 -4.26235 0.388251 0
M  V30 6455 C 607.483 -5.32073 -0.529352 0
M  V30 6456 C 608.783 -4.96303 1.62729 0
M  V30 6457 H 610.477 -2.74605 1.19299 0
M  V30 6458 H 608.023 -1.32017 0.575104 0
M  V30 6459 H 609.976 -4.13563 -0.808934 0
M  V30 6460 H 608.7 -2.99511 -1.30234 0
M  V30 6461 H 607.359 -3.58936 0.745695 0
M  V30 6462 H 607.007 -4.83249 -1.39569 0
M  V30 6463 H 606.707 -5.87598 0.0166741 0
M  V30 6464 H 608.231 -6.0391 -0.901373 0
M  V30 6465 H 609.645 -5.5783 1.32283 0
M  V30 6466 H 608.042 -5.61666 2.11309 0
M  V30 6467 H 609.112 -4.22758 2.37494 0
M  V30 6468 N 610.455 -0.639598 -1.44038 0
M  V30 6469 C 611.68 -0.153117 -2.06834 0
M  V30 6470 C 612.105 1.16676 -1.47541 0
M  V30 6471 O 611.463 1.71769 -0.580093 0
M  V30 6472 C 611.511 -0.0609169 -3.60549 0
M  V30 6473 O 610.615 0.98071 -4.00569 0
M  V30 6474 H 609.956 -0.0886402 -0.658057 0
M  V30 6475 H 612.486 -0.878674 -1.84771 0
M  V30 6476 H 612.496 0.126892 -4.07803 0
M  V30 6477 H 611.171 -1.0245 -4.03084 0
M  V30 6478 H 609.748 0.766789 -3.64931 0
M  V30 6479 N 611.933 1.52934 -0.380664 0
M  V30 6480 C 612.88 2.26197 0.458641 0
M  V30 6481 C 613.85 1.27462 1.06502 0
M  V30 6482 O 615.035 1.56274 1.09467 0
M  V30 6483 C 612.175 3.06571 1.58456 0
M  V30 6484 C 611.288 4.20222 1.00189 0
M  V30 6485 C 610.423 4.88007 2.09815 0
M  V30 6486 C 609.462 5.93665 1.49092 0
M  V30 6487 N 608.599 6.55081 2.52613 0
M  V30 6488 H 613.439 2.975 -0.172595 0
M  V30 6489 H 610.976 1.4678 -0.0969426 0
M  V30 6490 H 612.934 3.51455 2.24801 0
M  V30 6491 H 611.564 2.37494 2.18624 0
M  V30 6492 H 610.616 3.79714 0.228292 0
M  V30 6493 H 611.928 4.96102 0.518064 0
M  V30 6494 H 611.082 5.36151 2.83948 0
M  V30 6495 H 609.821 4.11632 2.61555 0
M  V30 6496 H 608.826 5.44868 0.7348 0
M  V30 6497 H 610.051 6.71969 0.981582 0
M  V30 6498 H 607.997 5.8155 3.03538 0
M  V30 6499 H 607.914 7.26548 2.08961 0
M  V30 6500 H 609.182 7.07871 3.26402 0
M  V30 6501 N 613.412 0.11024 1.57214 0
M  V30 6502 C 614.64 -0.557834 1.99238 0
M  V30 6503 C 615.055 -1.60778 0.989734 0
M  V30 6504 O 614.412 -1.82491 -0.0186092 0
M  V30 6505 C 614.463 -1.19189 3.41286 0
M  V30 6506 O 614.184 -0.183919 4.37714 0
M  V30 6507 C 615.685 -1.94413 3.98395 0
M  V30 6508 H 612.905 -0.148392 0.654386 0
M  V30 6509 H 615.449 0.193996 2.03578 0
M  V30 6510 H 613.604 -1.89456 3.37913 0
M  V30 6511 H 614.018 -0.643475 5.20538 0
M  V30 6512 H 615.492 -2.34116 4.99894 0
M  V30 6513 H 615.969 -2.81592 3.3705 0
M  V30 6514 H 616.575 -1.28928 4.05287 0
M  V30 6515 N 614.89 -1.56749 -0.16351 0
M  V30 6516 C 616.136 -1.82704 -0.880168 0
M  V30 6517 C 616.469 -0.689311 -1.81555 0
M  V30 6518 O 615.744 0.308224 -1.92042 0
M  V30 6519 C 616.027 -3.19084 -1.66905 0
M  V30 6520 C 615.88 -4.43397 -0.756269 0
M  V30 6521 C 617.199 -3.52493 -2.63509 0
M  V30 6522 H 614.318 -0.664608 -0.318535 0
M  V30 6523 H 616.96 -1.89438 -0.146036 0
M  V30 6524 H 615.11 -3.13475 -2.2949 0
M  V30 6525 H 616.782 -4.61079 -0.14269 0
M  V30 6526 H 615.025 -4.33752 -0.0647944 0
M  V30 6527 H 615.696 -5.3539 -1.34393 0
M  V30 6528 H 618.172 -3.58606 -2.11047 0
M  V30 6529 H 617.048 -4.48979 -3.15767 0
M  V30 6530 H 617.309 -2.77597 -3.44082 0
M  V30 6531 N 616.368 0.432326 -1.51554 0
M  V30 6532 C 617.779 1.01202 -1.56892 0
M  V30 6533 C 618.13 1.92175 -0.395394 0
M  V30 6534 O 617.255 2.10844 0.487198 0
M  V30 6535 C 617.85 1.84217 -2.8434 0
M  V30 6536 C 616.409 2.37228 -2.92233 0
M  V30 6537 C 615.556 1.16576 -2.51606 0
M  V30 6538 H 618.507 0.213407 -1.57259 0
M  V30 6539 H 618.528 2.69721 -2.68385 0
M  V30 6540 H 618.04 1.17979 -3.69733 0
M  V30 6541 H 616.141 3.06905 -2.11282 0
M  V30 6542 H 616.254 2.69682 -3.95991 0
M  V30 6543 H 614.618 1.51263 -2.04919 0
M  V30 6544 H 615.401 0.519404 -3.39348 0
M  V30 6545 N 617.846 1.41785 0.688094 0
M  V30 6546 C 618.794 1.44436 1.82321 0
M  V30 6547 C 619.788 0.321544 1.6632 0
M  V30 6548 O 620.994 0.493931 1.73091 0
M  V30 6549 H 617.369 0.452084 0.600936 0
M  V30 6550 H 619.34 2.40087 1.77202 0
M  V30 6551 C 618.089 1.35071 3.20392 0
M  V30 6552 H 617.412 2.2076 3.33324 0
M  V30 6553 H 618.852 1.40988 3.99873 0
M  V30 6554 C 617.311 0.0639127 3.36839 0
M  V30 6555 O 617.841 -0.888495 3.91751 0
M  V30 6556 N 616.047 -0.0146114 2.90596 0
M  V30 6557 H 615.594 0.761191 2.46097 0
M  V30 6558 H 615.552 -0.874988 3.01979 0
M  V30 6559 N 619.324 -0.923095 1.27737 0
M  V30 6560 C 620.287 -2.00587 1.10894 0
M  V30 6561 C 621.287 -1.60718 0.0514927 0
M  V30 6562 O 622.477 -1.71658 0.296481 0
M  V30 6563 C 619.609 -3.33829 0.690717 0
M  V30 6564 H 620.802 -2.16959 2.07048 0
M  V30 6565 H 618.355 -1.10451 1.1059 0
M  V30 6566 H 619.09 -3.23157 -0.272 0
M  V30 6567 H 618.875 -3.64125 1.45448 0
M  V30 6568 H 620.365 -4.13336 0.595252 0
M  V30 6569 N 620.802 -1.09834 -1.13024 0
M  V30 6570 C 622.218 -0.828875 -1.36388 0
M  V30 6571 C 622.418 0.554756 -1.93713 0
M  V30 6572 O 621.474 1.30882 -2.15931 0
M  V30 6573 C 622.787 -1.92352 -2.3113 0
M  V30 6574 C 624.335 -1.95124 -2.44735 0
M  V30 6575 C 624.81 -3.03745 -3.42787 0
M  V30 6576 N 626.301 -3.03012 -3.5034 0
M  V30 6577 C 627.036 -3.83699 -4.26101 0
M  V30 6578 N 626.532 -4.74306 -5.04981 0
M  V30 6579 N 628.325 -3.71942 -4.21445 0
M  V30 6580 H 620.476 -1.99029 -0.74169 0
M  V30 6581 H 622.739 -0.864557 -0.388903 0
M  V30 6582 H 622.445 -2.91906 -1.96172 0
M  V30 6583 H 622.319 -1.80536 -3.3119 0
M  V30 6584 H 624.706 -0.962069 -2.78977 0
M  V30 6585 H 624.787 -2.11018 -1.44586 0
M  V30 6586 H 624.431 -4.02878 -3.09276 0
M  V30 6587 H 624.361 -2.85094 -4.42752 0
M  V30 6588 H 626.852 -2.37352 -2.94062 0
M  V30 6589 H 627.165 -5.32446 -5.60108 0
M  V30 6590 H 625.51 -4.78339 -5.04199 0
M  V30 6591 H 628.701 -3.00513 -3.589 0
M  V30 6592 H 628.874 -4.35062 -4.80235 0
M  V30 6593 N 622.28 1.30327 -0.886154 0
M  V30 6594 C 623.526 1.96388 -0.505941 0
M  V30 6595 C 623.859 1.69784 0.942712 0
M  V30 6596 O 623.134 1.00322 1.6663 0
M  V30 6597 C 623.417 3.51488 -0.782826 0
M  V30 6598 C 623.27 3.87603 -2.28219 0
M  V30 6599 C 624.589 4.39331 -0.260128 0
M  V30 6600 H 621.708 0.713327 -0.185292 0
M  V30 6601 H 624.35 1.54178 -1.11036 0
M  V30 6602 H 622.5 3.87572 -0.268399 0
M  V30 6603 H 624.172 3.61537 -2.86512 0
M  V30 6604 H 622.415 3.3563 -2.74837 0
M  V30 6605 H 623.086 4.95806 -2.42653 0
M  V30 6606 H 625.562 4.10162 -0.700444 0
M  V30 6607 H 624.438 5.46769 -0.483179 0
M  V30 6608 H 624.699 4.34072 0.838674 0
M  V30 6609 N 623.758 0.647228 1.43697 0
M  V30 6610 C 624.721 -0.0385101 2.29168 0
M  V30 6611 C 625.721 -0.756487 1.41894 0
M  V30 6612 O 626.911 -0.598641 1.63591 0
M  V30 6613 C 624.043 -1.06524 3.23829 0
M  V30 6614 H 625.236 0.713445 2.9129 0
M  V30 6615 H 622.789 0.408153 1.50877 0
M  V30 6616 H 623.524 -1.84664 2.66589 0
M  V30 6617 H 623.309 -0.554147 3.88164 0
M  V30 6618 H 624.799 -1.54432 3.87996 0
M  V30 6619 N 625.236 -1.5273 0.388769 0
M  V30 6620 C 626.652 -1.59553 0.0387049 0
M  V30 6621 C 626.852 -1.40278 -1.44652 0
M  V30 6622 O 625.908 -1.21951 -2.21098 0
M  V30 6623 C 627.221 -2.9625 0.515409 0
M  V30 6624 C 628.769 -3.09426 0.471621 0
M  V30 6625 C 629.244 -4.48572 0.924505 0
M  V30 6626 N 630.735 -4.54754 0.880496 0
M  V30 6627 C 631.47 -5.60653 1.20234 0
M  V30 6628 N 630.966 -6.74198 1.59463 0
M  V30 6629 N 632.759 -5.50755 1.12363 0
M  V30 6630 H 624.91 -1.63508 1.35569 0
M  V30 6631 H 627.173 -0.768097 0.555636 0
M  V30 6632 H 626.879 -3.15569 1.5527 0
M  V30 6633 H 626.753 -3.77102 -0.085792 0
M  V30 6634 H 629.14 -2.89804 -0.556588 0
M  V30 6635 H 629.221 -2.30528 1.10862 0
M  V30 6636 H 628.865 -4.68936 1.95094 0
M  V30 6637 H 628.795 -5.25935 0.264524 0
M  V30 6638 H 631.286 -3.73237 0.591815 0
M  V30 6639 H 631.599 -7.5097 1.82385 0
M  V30 6640 H 629.944 -6.75531 1.63349 0
M  V30 6641 H 633.135 -4.6093 0.816169 0
M  V30 6642 H 633.308 -6.33184 1.37777 0
M  V30 6643 N 626.714 -0.118576 -1.57153 0
M  V30 6644 C 627.644 0.828436 -2.1831 0
M  V30 6645 C 628.625 1.27758 -1.12303 0
M  V30 6646 O 629.81 1.34026 -1.40537 0
M  V30 6647 C 626.94 2.07876 -2.78217 0
M  V30 6648 C 625.894 1.76742 -3.89803 0
M  V30 6649 C 625.22 3.08801 -4.36516 0
M  V30 6650 C 626.52 1.03606 -5.11921 0
M  V30 6651 H 628.214 0.318824 -2.97698 0
M  V30 6652 H 625.76 0.151911 -1.43196 0
M  V30 6653 H 627.713 2.74584 -3.19659 0
M  V30 6654 H 626.437 2.61161 -1.96118 0
M  V30 6655 H 625.096 1.12424 -3.48936 0
M  V30 6656 H 624.744 3.6002 -3.51276 0
M  V30 6657 H 624.444 2.88743 -5.11763 0
M  V30 6658 H 625.968 3.76627 -4.80608 0
M  V30 6659 H 627.382 1.60467 -5.50385 0
M  V30 6660 H 625.779 0.936454 -5.92748 0
M  V30 6661 H 626.849 0.0227421 -4.84895 0
M  V30 6662 N 628.193 1.56834 0.155195 0
M  V30 6663 C 629.442 1.82088 0.867567 0
M  V30 6664 C 629.755 0.69849 1.82703 0
M  V30 6665 O 630.961 0.836407 2.58295 0
M  V30 6666 C 629.417 3.22707 1.59336 0
M  V30 6667 C 629.025 4.42859 0.676719 0
M  V30 6668 C 630.769 3.57242 2.293 0
M  V30 6669 C 628.676 5.74501 1.40367 0
M  V30 6670 H 627.606 0.679057 0.327715 0
M  V30 6671 H 630.257 1.83105 0.120351 0
M  V30 6672 H 628.639 3.16054 2.38591 0
M  V30 6673 H 629.813 4.60731 -0.0800196 0
M  V30 6674 H 628.128 4.16311 0.0859129 0
M  V30 6675 H 630.725 4.52847 2.84312 0
M  V30 6676 H 631.068 2.82901 3.05406 0
M  V30 6677 H 631.601 3.6552 1.56972 0
M  V30 6678 H 628.34 6.51915 0.684623 0
M  V30 6679 H 627.86 5.60579 2.13332 0
M  V30 6680 H 629.539 6.17016 1.94681 0
M  V30 6681 N 629.671 -0.424282 1.51781 0
M  V30 6682 C 630.601 -1.52305 1.7699 0
M  V30 6683 C 631.582 -1.5839 0.620209 0
M  V30 6684 O 632.767 -1.73908 0.864268 0
M  V30 6685 C 629.897 -2.90271 1.90683 0
M  V30 6686 C 628.851 -2.99043 3.06198 0
M  V30 6687 C 628.177 -4.39116 3.05092 0
M  V30 6688 C 629.477 -2.7192 4.45934 0
M  V30 6689 H 631.171 -1.31461 2.68995 0
M  V30 6690 H 628.717 -0.630985 1.29439 0
M  V30 6691 H 630.67 -3.6711 2.06901 0
M  V30 6692 H 629.394 -3.12376 0.953365 0
M  V30 6693 H 628.053 -2.24646 2.89706 0
M  V30 6694 H 627.701 -4.58207 2.07498 0
M  V30 6695 H 627.401 -4.45912 3.82669 0
M  V30 6696 H 628.925 -5.17911 3.2342 0
M  V30 6697 H 630.339 -3.38487 4.62709 0
M  V30 6698 H 628.736 -2.90111 5.25315 0
M  V30 6699 H 629.806 -1.67445 4.55072 0
M  V30 6700 N 631.149 -1.42148 -0.680565 0
M  V30 6701 C 632.059 -1.47565 -1.82378 0
M  V30 6702 C 633.075 -0.36489 -1.70131 0
M  V30 6703 O 634.251 -0.614916 -1.91783 0
M  V30 6704 C 631.316 -1.37013 -3.18478 0
M  V30 6705 C 630.377 -2.58532 -3.42724 0
M  V30 6706 C 629.61 -2.48473 -4.72331 0
M  V30 6707 O 629.833 -1.51745 -5.49845 0
M  V30 6708 O 628.767 -3.38503 -4.97694 0
M  V30 6709 H 632.593 -2.44045 -1.80764 0
M  V30 6710 H 630.178 -1.23849 -0.835569 0
M  V30 6711 H 632.06 -1.33468 -3.99705 0
M  V30 6712 H 630.735 -0.436552 -3.20743 0
M  V30 6713 H 629.642 -2.67652 -2.61368 0
M  V30 6714 H 630.975 -3.50769 -3.45286 0
M  V30 6715 N 632.627 0.916307 -1.28225 0
M  V30 6716 C 633.904 1.64429 -1.05936 0
M  V30 6717 C 634.284 2.07234 0.402139 0
M  V30 6718 O 633.632 1.81535 1.3877 0
M  V30 6719 C 633.842 2.83773 -2.03159 0
M  V30 6720 C 635.19 3.54852 -2.33164 0
M  V30 6721 O 636.214 2.93918 -2.01223 0
M  V30 6722 O 635.073 4.64663 -2.87664 0
M  V30 6723 H 632.167 0.721221 -0.404683 0
M  V30 6724 H 634.713 0.965838 -1.39534 0
M  V30 6725 H 633.485 2.49217 -3.01673 0
M  V30 6726 H 633.108 3.59333 -1.70192 0
M  V30 6727 N 634.105 1.10431 1.1244 0
M  V30 6728 C 635.035 0.775143 2.20258 0
M  V30 6729 C 636.016 -0.25186 1.68225 0
M  V30 6730 O 637.201 -0.117637 1.93843 0
M  V30 6731 C 634.331 0.206133 3.46688 0
M  V30 6732 C 633.285 1.16382 4.11873 0
M  V30 6733 C 632.611 0.456014 5.32752 0
M  V30 6734 C 633.911 2.5104 4.58013 0
M  V30 6735 H 635.605 1.67665 2.4805 0
M  V30 6736 H 633.151 0.807595 1.19222 0
M  V30 6737 H 635.104 -0.036291 4.21384 0
M  V30 6738 H 633.828 -0.730614 3.18323 0
M  V30 6739 H 632.487 1.39169 3.39157 0
M  V30 6740 H 632.135 -0.485203 5.00654 0
M  V30 6741 H 631.835 1.09466 5.77314 0
M  V30 6742 H 633.359 0.222135 6.10196 0
M  V30 6743 H 634.773 2.32401 5.24083 0
M  V30 6744 H 633.17 3.10789 5.13352 0
M  V30 6745 H 634.24 3.11039 3.71998 0
M  V30 6746 N 635.583 -1.29855 0.893053 0
M  V30 6747 C 636.829 -1.96116 0.516349 0
M  V30 6748 C 637.162 -1.70281 -0.933695 0
M  V30 6749 O 636.437 -1.01205 -1.66096 0
M  V30 6750 C 636.72 -3.51068 0.801455 0
M  V30 6751 C 636.573 -3.86387 2.30272 0
M  V30 6752 C 637.892 -4.39186 0.283423 0
M  V30 6753 H 635.011 -0.712335 0.189072 0
M  V30 6754 H 637.653 -1.53587 1.11852 0
M  V30 6755 H 635.803 -3.87424 0.288949 0
M  V30 6756 H 637.475 -3.60012 2.88425 0
M  V30 6757 H 635.718 -3.34167 2.76613 0
M  V30 6758 H 636.389 -4.94512 2.45279 0
M  V30 6759 H 638.865 -4.09785 0.722187 0
M  V30 6760 H 637.741 -5.46505 0.512169 0
M  V30 6761 H 638.002 -4.34511 -0.815643 0
M  V30 6762 N 637.061 -0.65484 -1.43351 0
M  V30 6763 C 637.971 0.0363603 -2.34572 0
M  V30 6764 C 638.987 0.810432 -1.53974 0
M  V30 6765 O 640.163 0.757308 -1.86619 0
M  V30 6766 C 637.228 0.989733 -3.32273 0
M  V30 6767 C 636.289 0.212414 -4.28774 0
M  V30 6768 C 635.522 1.12038 -5.21808 0
M  V30 6769 O 635.745 2.35967 -5.19303 0
M  V30 6770 O 634.679 0.59191 -5.98982 0
M  V30 6771 H 638.505 -0.714527 -2.95175 0
M  V30 6772 H 636.09 -0.415029 -1.4352 0
M  V30 6773 H 637.972 1.53759 -3.92347 0
M  V30 6774 H 636.647 1.72082 -2.74171 0
M  V30 6775 H 635.554 -0.379062 -3.72175 0
M  V30 6776 H 636.887 -0.479138 -4.89862 0
M  V30 6777 N 638.539 1.52521 -0.396863 0
M  V30 6778 C 639.502 2.2527 0.422604 0
M  V30 6779 C 640.502 1.27184 0.983913 0
M  V30 6780 O 641.692 1.51222 0.864723 0
M  V30 6781 C 638.824 3.01356 1.59365 0
M  V30 6782 H 640.017 2.99133 -0.214416 0
M  V30 6783 H 637.57 1.55587 -0.149128 0
M  V30 6784 H 638.305 2.31813 2.26789 0
M  V30 6785 H 638.09 3.73357 1.19779 0
M  V30 6786 H 639.58 3.56571 2.17363 0
M  V30 6787 N 640.017 0.126909 1.57088 0
M  V30 6788 C 640.965 -0.837618 2.16995 0
M  V30 6789 C 641.959 -1.26974 1.12133 0
M  V30 6790 O 643.165 -1.24056 1.30423 0
M  V30 6791 H 639.54 -0.288256 0.694559 0
M  V30 6792 H 641.511 -0.307957 2.96807 0
M  V30 6793 C 640.26 -2.07474 2.79016 0
M  V30 6794 H 639.583 -1.75117 3.59408 0
M  V30 6795 H 641.023 -2.72949 3.24461 0
M  V30 6796 C 639.482 -2.86967 1.76498 0
M  V30 6797 O 640.012 -3.82625 1.22316 0
M  V30 6798 N 638.218 -2.51111 1.46258 0
M  V30 6799 H 637.765 -1.73389 1.90509 0
M  V30 6800 H 637.723 -3.04594 0.779085 0
M  V30 6801 N 641.495 -1.56914 -0.146875 0
M  V30 6802 C 642.442 -1.98275 -1.18134 0
M  V30 6803 C 643.412 -0.850367 -1.42681 0
M  V30 6804 O 644.597 -1.11244 -1.55014 0
M  V30 6805 C 641.737 -2.36861 -2.5098 0
M  V30 6806 C 640.85 -3.63391 -2.33605 0
M  V30 6807 C 639.985 -3.91079 -3.59486 0
M  V30 6808 C 639.024 -5.10879 -3.37149 0
M  V30 6809 N 638.161 -5.34577 -4.55161 0
M  V30 6810 H 643.001 -2.8645 -0.821622 0
M  V30 6811 H 640.538 -1.41718 -0.394248 0
M  V30 6812 H 642.496 -2.57262 -3.28439 0
M  V30 6813 H 641.126 -1.51766 -2.84898 0
M  V30 6814 H 640.178 -3.50766 -1.47199 0
M  V30 6815 H 641.49 -4.51007 -2.13059 0
M  V30 6816 H 640.644 -4.11979 -4.45374 0
M  V30 6817 H 639.383 -3.01885 -3.83036 0
M  V30 6818 H 638.388 -4.89853 -2.49649 0
M  V30 6819 H 639.613 -6.01626 -3.14997 0
M  V30 6820 H 637.559 -4.48337 -4.78884 0
M  V30 6821 H 637.476 -6.16463 -4.37618 0
M  V30 6822 H 638.744 -5.59975 -5.42263 0
M  V30 6823 N 642.974 0.416227 -1.52004 0
M  V30 6824 C 644.251 1.17637 -1.56272 0
M  V30 6825 C 644.631 2.08352 -0.339493 0
M  V30 6826 O 643.979 2.1833 0.674124 0
M  V30 6827 C 644.189 1.95986 -2.88774 0
M  V30 6828 C 645.537 2.52299 -3.41512 0
M  V30 6829 O 646.561 2.06174 -2.90467 0
M  V30 6830 O 645.42 3.3648 -4.30631 0
M  V30 6831 H 642.514 0.536726 -0.629169 0
M  V30 6832 H 645.06 0.423583 -1.64329 0
M  V30 6833 H 643.832 1.29487 -3.69254 0
M  V30 6834 H 643.455 2.78285 -2.83978 0
M  V30 6835 N 644.452 1.42507 0.673017 0
M  V30 6836 C 645.699 1.43072 1.43306 0
M  V30 6837 C 646.027 0.0478004 1.94441 0
M  V30 6838 O 645.282 -0.944106 1.71421 0
M  V30 6839 C 645.581 2.40351 2.64511 0
M  V30 6840 C 645.247 3.8669 2.31908 0
M  V30 6841 C 643.909 4.26551 2.22728 0
M  V30 6842 C 646.261 4.78991 2.05467 0
M  V30 6843 C 643.589 5.56691 1.85234 0
M  V30 6844 C 645.941 6.09476 1.69477 0
M  V30 6845 C 644.605 6.48334 1.58808 0
M  V30 6846 H 643.875 0.523536 0.524395 0
M  V30 6847 H 646.522 1.75459 0.76723 0
M  V30 6848 H 644.827 2.01297 3.36135 0
M  V30 6849 H 646.524 2.38051 3.22696 0
M  V30 6850 H 643.114 3.55132 2.39956 0
M  V30 6851 H 647.298 4.48982 2.11492 0
M  V30 6852 H 642.554 5.85657 1.75545 0
M  V30 6853 H 646.728 6.80482 1.48043 0
M  V30 6854 H 644.355 7.49084 1.29525 0
M  V30 6855 N 645.93 -0.909495 1.28709 0
M  V30 6856 C 647.176 -1.66175 1.17293 0
M  V30 6857 C 647.531 -1.90426 -0.274891 0
M  V30 6858 O 646.824 -1.49659 -1.19635 0
M  V30 6859 C 647.018 -3.02117 1.90945 0
M  V30 6860 C 646.847 -2.91134 3.42741 0
M  V30 6861 C 645.617 -2.92429 4.12085 0
M  V30 6862 C 647.815 -2.68889 4.3841 0
M  V30 6863 N 645.797 -2.72078 5.50315 0
M  V30 6864 C 647.168 -2.57423 5.64033 0
M  V30 6865 C 649.223 -2.53919 4.28287 0
M  V30 6866 C 647.926 -2.32513 6.80683 0
M  V30 6867 C 649.952 -2.3039 5.44678 0
M  V30 6868 C 649.314 -2.19682 6.69268 0
M  V30 6869 H 645.413 -0.614095 0.48416 0
M  V30 6870 H 647.997 -1.07377 1.62414 0
M  V30 6871 H 646.168 -3.58993 1.48252 0
M  V30 6872 H 647.9 -3.66388 1.71878 0
M  V30 6873 H 644.655 -3.03345 3.63701 0
M  V30 6874 H 645.079 -2.64983 6.22987 0
M  V30 6875 H 649.721 -2.60946 3.32666 0
M  V30 6876 H 647.439 -2.24225 7.76369 0
M  V30 6877 H 651.025 -2.19665 5.38738 0
M  V30 6878 H 649.905 -2.01725 7.5781 0
M  V30 6879 N 647.408 -1.11026 -1.11852 0
M  V30 6880 C 648.819 -0.873203 -1.65021 0
M  V30 6881 C 649.17 0.595364 -1.86949 0
M  V30 6882 O 648.295 1.45645 -1.60051 0
M  V30 6883 C 648.89 -1.57859 -2.99777 0
M  V30 6884 C 647.449 -1.38807 -3.49871 0
M  V30 6885 C 646.596 -1.62403 -2.24768 0
M  V30 6886 H 649.547 -1.26712 -0.955503 0
M  V30 6887 H 649.568 -1.02111 -3.66543 0
M  V30 6888 H 649.08 -2.6474 -2.83786 0
M  V30 6889 H 647.181 -0.341163 -3.71035 0
M  V30 6890 H 647.294 -2.13421 -4.28938 0
M  V30 6891 H 645.658 -1.04714 -2.32179 0
M  V30 6892 H 646.441 -2.70549 -2.11324 0
M  V30 6893 N 648.886 1.2938 -0.899927 0
M  V30 6894 C 649.796 2.31462 -0.382437 0
M  V30 6895 C 650.812 1.65956 0.522929 0
M  V30 6896 O 651.988 1.97131 0.412454 0
M  V30 6897 C 649.053 3.44595 0.381472 0
M  V30 6898 C 648.114 4.25692 -0.555444 0
M  V30 6899 C 647.347 5.33422 0.172102 0
M  V30 6900 O 647.57 5.53053 1.396 0
M  V30 6901 O 646.504 5.99939 -0.485491 0
M  V30 6902 H 650.33 2.77706 -1.22934 0
M  V30 6903 H 647.915 1.33821 -0.664259 0
M  V30 6904 H 649.797 4.13474 0.813442 0
M  V30 6905 H 648.472 3.00458 1.20443 0
M  V30 6906 H 647.379 3.59453 -1.03653 0
M  V30 6907 H 648.712 4.73471 -1.34483 0
M  V30 6908 N 650.364 0.662433 1.43002 0
M  V30 6909 C 651.294 -0.00979809 2.33498 0
M  V30 6910 C 652.275 -0.802329 1.49989 0
M  V30 6911 O 653.46 -0.761964 1.78627 0
M  V30 6912 C 650.59 -0.970446 3.33466 0
M  V30 6913 C 649.544 -0.287383 4.27034 0
M  V30 6914 C 648.87 -1.36012 5.17112 0
M  V30 6915 C 650.17 0.82595 5.15728 0
M  V30 6916 H 651.864 0.745959 2.89958 0
M  V30 6917 H 649.41 0.360172 1.39423 0
M  V30 6918 H 651.363 -1.44971 3.95679 0
M  V30 6919 H 650.087 -1.75748 2.75282 0
M  V30 6920 H 648.746 0.17152 3.66199 0
M  V30 6921 H 648.394 -2.13882 4.55262 0
M  V30 6922 H 648.094 -0.908276 5.80538 0
M  V30 6923 H 649.618 -1.84056 5.82199 0
M  V30 6924 H 651.032 0.42845 5.71697 0
M  V30 6925 H 649.429 1.20282 5.87922 0
M  V30 6926 H 650.499 1.68003 4.54866 0
M  V30 6927 N 651.842 -1.52309 0.404946 0
M  V30 6928 C 653.119 -1.94237 -0.230544 0
M  V30 6929 C 653.499 -1.34154 -1.6299 0
M  V30 6930 O 652.847 -0.515713 -2.22604 0
M  V30 6931 C 653.057 -3.48166 -0.241106 0
M  V30 6932 C 654.405 -4.22074 -0.462488 0
M  V30 6933 O 655.429 -3.54754 -0.320644 0
M  V30 6934 O 654.288 -5.41443 -0.741708 0
M  V30 6935 H 651.382 -0.813766 -0.147358 0
M  V30 6936 H 653.928 -1.6333 0.460587 0
M  V30 6937 H 652.7 -3.84269 0.738467 0
M  V30 6938 H 652.323 -3.85422 -0.97651 0
M  V30 6939 N 653.32 -0.135238 -1.57019 0
M  V30 6940 C 654.252 0.839675 -2.13265 0
M  V30 6941 C 655.265 1.21887 -1.07923 0
M  V30 6942 O 656.454 1.16499 -1.35241 0
M  V30 6943 C 653.554 2.13647 -2.63075 0
M  V30 6944 C 652.727 1.92646 -3.92691 0
M  V30 6945 C 651.786 3.06205 -4.27931 0
M  V30 6946 O 650.812 2.78409 -4.96465 0
M  V30 6947 N 652.014 4.33072 -3.86561 0
M  V30 6948 H 654.779 0.359026 -2.97542 0
M  V30 6949 H 652.34 0.0486979 -1.61827 0
M  V30 6950 H 654.332 2.88641 -2.8367 0
M  V30 6951 H 652.902 2.5301 -1.83588 0
M  V30 6952 H 652.122 1.01754 -3.80841 0
M  V30 6953 H 653.41 1.75939 -4.77413 0
M  V30 6954 H 652.808 4.58526 -3.31316 0
M  V30 6955 H 651.365 5.04885 -4.12231 0
M  V30 6956 N 654.798 1.5699 0.138552 0
M  V30 6957 C 656.023 1.88344 0.86841 0
M  V30 6958 C 656.448 0.725159 1.7356 0
M  V30 6959 O 655.806 -0.324992 1.78363 0
M  V30 6960 C 655.854 3.18334 1.69398 0
M  V30 6961 O 654.958 3.02863 2.79907 0
M  V30 6962 H 654.299 0.618577 0.241367 0
M  V30 6963 H 656.829 2.04207 0.126826 0
M  V30 6964 H 656.839 3.50567 2.08726 0
M  V30 6965 H 655.514 4.02238 1.05725 0
M  V30 6966 H 654.091 2.82056 2.43924 0
M  V30 6967 N 656.276 -0.40816 1.52223 0
M  V30 6968 C 657.687 -0.986929 1.58482 0
M  V30 6969 C 658.038 -1.91521 0.425917 0
M  V30 6970 O 657.163 -2.11593 -0.453593 0
M  V30 6971 C 657.758 -1.7967 2.87235 0
M  V30 6972 C 656.317 -2.32549 2.9597 0
M  V30 6973 C 655.464 -1.12558 2.53428 0
M  V30 6974 H 658.415 -0.188362 1.57578 0
M  V30 6975 H 658.436 -2.65417 2.72642 0
M  V30 6976 H 657.948 -1.12082 3.71563 0
M  V30 6977 H 656.049 -3.03505 2.16137 0
M  V30 6978 H 656.162 -2.63348 4.00231 0
M  V30 6979 H 654.526 -1.47984 2.07299 0
M  V30 6980 H 655.309 -0.465351 3.40131 0
M  V30 6981 N 657.755 -1.42862 -0.66545 0
M  V30 6982 C 658.983 -1.47246 -1.45349 0
M  V30 6983 C 659.398 -0.0865944 -1.88601 0
M  V30 6984 O 658.755 0.900652 -1.58728 0
M  V30 6985 C 658.806 -2.40772 -2.6965 0
M  V30 6986 O 658.527 -3.73968 -2.2821 0
M  V30 6987 C 660.028 -2.54272 -3.63126 0
M  V30 6988 H 657.248 -0.500497 -0.446927 0
M  V30 6989 H 659.792 -1.87477 -0.816871 0
M  V30 6990 H 657.947 -2.0377 -3.29479 0
M  V30 6991 H 658.361 -4.24146 -3.08546 0
M  V30 6992 H 659.835 -3.23815 -4.47043 0
M  V30 6993 H 660.312 -1.58364 -4.09656 0
M  V30 6994 H 660.918 -2.92036 -3.09185 0
M  V30 6995 N 659.233 0.902656 -1.29189 0
M  V30 6996 C 660.649 1.18296 -1.07137 0
M  V30 6997 C 660.849 2.00701 0.179223 0
M  V30 6998 O 659.905 2.3675 0.877812 0
M  V30 6999 C 661.218 1.90677 -2.32514 0
M  V30 7000 C 662.766 2.03515 -2.37804 0
M  V30 7001 C 663.241 2.79307 -3.62976 0
M  V30 7002 N 664.732 2.86862 -3.63681 0
M  V30 7003 C 665.467 3.46035 -4.57217 0
M  V30 7004 N 664.963 4.06399 -5.61081 0
M  V30 7005 N 666.756 3.43681 -4.44792 0
M  V30 7006 H 658.907 0.352765 -2.0945 0
M  V30 7007 H 661.17 0.21876 -0.922414 0
M  V30 7008 H 660.876 1.3756 -3.23682 0
M  V30 7009 H 660.75 2.91169 -2.39793 0
M  V30 7010 H 663.137 2.55809 -1.47125 0
M  V30 7011 H 663.218 1.02166 -2.34512 0
M  V30 7012 H 662.862 2.2769 -4.54004 0
M  V30 7013 H 662.792 3.80995 -3.63525 0
M  V30 7014 H 665.283 2.43987 -2.88581 0
M  V30 7015 H 665.596 4.49564 -6.2858 0
M  V30 7016 H 663.941 4.0487 -5.64894 0
M  V30 7017 H 667.132 2.9574 -3.62843 0
M  V30 7018 H 667.305 3.89503 -5.17872 0
M  V30 7019 N 660.711 1.11618 1.11262 0
M  V30 7020 C 661.96 0.860934 1.82403 0
M  V30 7021 C 662.273 -0.615303 1.8567 0
M  V30 7022 O 663.479 -0.986861 2.52929 0
M  V30 7023 C 661.935 1.49048 3.27586 0
M  V30 7024 C 661.543 3.00089 3.32642 0
M  V30 7025 C 663.287 1.31515 4.03614 0
M  V30 7026 C 661.194 3.56019 4.72234 0
M  V30 7027 H 660.124 0.318423 0.683464 0
M  V30 7028 H 662.775 1.34165 1.25188 0
M  V30 7029 H 661.157 0.937434 3.84744 0
M  V30 7030 H 662.331 3.61813 2.85356 0
M  V30 7031 H 660.646 3.16919 2.70096 0
M  V30 7032 H 663.243 1.70732 5.0671 0
M  V30 7033 H 663.586 0.257917 4.155 0
M  V30 7034 H 664.119 1.83694 3.52848 0
M  V30 7035 H 660.858 4.61463 4.65545 0
M  V30 7036 H 660.378 2.99066 5.19923 0
M  V30 7037 H 662.057 3.54568 5.41193 0
M  V30 7038 N 662.189 -1.289 0.906776 0
M  V30 7039 C 663.414 -1.99939 0.551303 0
M  V30 7040 C 663.839 -1.67366 -0.858496 0
M  V30 7041 O 663.197 -0.902176 -1.57259 0
M  V30 7042 C 663.245 -3.52523 0.758937 0
M  V30 7043 O 662.349 -4.11983 -0.185308 0
M  V30 7044 H 661.69 -0.628376 0.214568 0
M  V30 7045 H 664.22 -1.64225 1.2203 0
M  V30 7046 H 664.23 -4.02522 0.666329 0
M  V30 7047 H 662.905 -3.75566 1.78671 0
M  V30 7048 H 661.482 -3.72873 -0.0445577 0
M  V30 7049 O 663.706 -0.809245 -1.39762 0
M  V30 7050 H 664.397 -0.38643 -1.89806 0
M  V30 END ATOM
M  V30 BEGIN BOND
M  V30 END BOND
M  V30 END CTAB
M  END
$$$$
