drugbank_target|P10600 Transforming growth factor beta-3 (DB03316)
 OpenBabel12092120543D

  0  0  0     0  0            999 V3000
M  V30 BEGIN CTAB
M  V30 COUNTS 6632 6707 0 0 0
M  V30 BEGIN ATOM
M  V30 1 H -0.908 1.98254 -0.117106 0
M  V30 2 N 0 1.576 0 0
M  V30 3 C 0.933 2.03868 1.02534 0
M  V30 4 C 1.911 0.928543 1.3348 0
M  V30 5 O 3.095 1.19667 1.45644 0
M  V30 6 C 0.222 2.43627 2.35294 0
M  V30 7 C -0.732 3.65373 2.2001 0
M  V30 8 S 0.101 5.13292 1.52614 0
M  V30 9 C 1.257 5.56322 2.86805 0
M  V30 10 H 1.49 2.90518 0.631377 0
M  V30 11 H -0.977 1.52953 0.210867 0
M  V30 12 H 0.981 2.67203 3.11629 0
M  V30 13 H -0.358 1.57376 2.7183 0
M  V30 14 H -1.165 3.90944 3.18086 0
M  V30 15 H -1.563 3.418 1.51819 0
M  V30 16 H 0.729 5.58782 3.83104 0
M  V30 17 H 1.672 6.56266 2.65933 0
M  V30 18 H 2.08 4.83886 2.90714 0
M  V30 19 N 1.4781 -0.272755 1.55222 0
M  V30 20 C 2.4251 -1.33716 1.88119 0
M  V30 21 C 3.3951 -1.49066 0.73271 0
M  V30 22 O 4.5801 -1.63469 0.984002 0
M  V30 23 C 1.7201 -2.69238 2.15882 0
M  V30 24 C 0.8331 -2.62108 3.43399 0
M  V30 25 C -0.0319 -3.89811 3.60861 0
M  V30 26 C -0.9929 -3.77193 4.8207 0
M  V30 27 N -1.8559 -4.9673 4.96189 0
M  V30 28 H 2.9841 -1.04962 2.78903 0
M  V30 29 H 0.5211 -0.507088 1.38083 0
M  V30 30 H 2.4791 -3.48089 2.29978 0
M  V30 31 H 1.1091 -2.96194 1.28331 0
M  V30 32 H 0.1611 -1.74967 3.37773 0
M  V30 33 H 1.4731 -2.48685 4.32386 0
M  V30 34 H 0.6271 -4.77103 3.74777 0
M  V30 35 H -0.6339 -4.06102 2.7006 0
M  V30 36 H -1.6289 -2.88284 4.68159 0
M  V30 37 H -0.4039 -3.62421 5.74307 0
M  V30 38 H -2.4579 -5.13431 4.08319 0
M  V30 39 H -2.5409 -4.85839 5.79221 0
M  V30 40 H -1.2729 -5.85594 5.1449 0
M  V30 41 N 2.9562 -1.48159 -0.537278 0
M  V30 42 C 3.8892 -1.567 -1.65893 0
M  V30 43 C 4.8672 -0.41787 -1.57139 0
M  V30 44 O 6.0512 -0.628461 -1.77715 0
M  V30 45 C 3.1782 -1.48818 -3.04255 0
M  V30 46 C 2.2242 -2.68482 -3.31391 0
M  V30 47 S 3.0572 -4.30516 -3.1846 0
M  V30 48 C 4.2132 -4.2522 -4.59281 0
M  V30 49 H 4.4462 -2.5159 -1.58397 0
M  V30 50 H 1.9792 -1.36602 -0.719672 0
M  V30 51 H 3.9372 -1.44958 -3.84054 0
M  V30 52 H 2.5982 -0.552777 -3.09198 0
M  V30 53 H 1.7912 -2.59085 -4.32309 0
M  V30 54 H 1.3932 -2.69567 -2.59248 0
M  V30 55 H 3.6852 -3.94703 -5.5065 0
M  V30 56 H 4.6282 -5.26292 -4.73732 0
M  V30 57 H 5.0362 -3.55791 -4.38261 0
M  V30 58 N 4.4343 0.785586 -1.36625 0
M  V30 59 C 5.3843 1.88822 -1.27789 0
M  V30 60 C 6.3683 1.60014 -0.168579 0
M  V30 61 O 7.5603 1.72381 -0.401737 0
M  V30 62 C 4.6893 3.26092 -1.07327 0
M  V30 63 C 3.7753 3.60897 -2.22743 0
M  V30 64 N 4.1663 3.66982 -3.48077 0
M  V30 65 C 2.4643 3.90981 -2.14593 0
M  V30 66 C 3.1653 3.98137 -4.24101 0
M  V30 67 N 2.1413 4.13319 -3.53084 0
M  V30 68 H 5.9433 1.91759 -2.22723 0
M  V30 69 H 3.4573 0.981311 -1.29399 0
M  V30 70 H 5.4543 4.04954 -0.990842 0
M  V30 71 H 4.1143 3.24428 -0.132977 0
M  V30 72 H 5.1253 3.49531 -3.82163 0
M  V30 73 H 1.8023 3.9722 -1.2854 0
M  V30 74 H 3.1923 4.09737 -5.32509 0
M  V30 75 N 5.9124 1.20967 1.01018 0
M  V30 76 C 6.8424 0.988272 2.11555 0
M  V30 77 C 7.8234 -0.0849778 1.69888 0
M  V30 78 O 9.0084 0.0738202 1.9406 0
M  V30 79 C 6.1384 0.546528 3.42973 0
M  V30 80 C 5.0924 1.56375 3.9841 0
M  V30 81 C 4.4184 0.97842 5.25672 0
M  V30 82 C 5.7184 2.94922 4.31066 0
M  V30 83 H 7.4124 1.91276 2.30334 0
M  V30 84 H 4.9584 0.921073 1.1069 0
M  V30 85 H 6.9114 0.378839 4.19694 0
M  V30 86 H 5.6354 -0.413598 3.23971 0
M  V30 87 H 4.2944 1.71891 3.23804 0
M  V30 88 H 3.9424 0.0101688 5.02999 0
M  V30 89 H 3.6424 1.65784 5.63728 0
M  V30 90 H 5.1664 0.821939 6.05043 0
M  V30 91 H 6.5804 2.8288 4.9865 0
M  V30 92 H 4.9774 3.5983 4.80253 0
M  V30 93 H 6.0474 3.4616 3.39561 0
M  V30 94 N 7.3905 -1.2043 1.01659 0
M  V30 95 C 8.3225 -2.22626 0.544988 0
M  V30 96 C 9.3355 -1.58479 -0.372609 0
M  V30 97 O 10.5245 -1.77679 -0.170958 0
M  V30 98 C 7.6245 -3.38141 -0.22663 0
M  V30 99 C 6.7975 -4.31877 0.692876 0
M  V30 100 C 5.8565 -5.26191 -0.0311616 0
M  V30 101 O 4.8825 -5.6612 0.591343 0
M  V30 102 N 6.0845 -5.65618 -1.30601 0
M  V30 103 H 8.8495 -2.63716 1.42388 0
M  V30 104 H 6.4105 -1.34971 0.894116 0
M  V30 105 H 8.4025 -3.98239 -0.72024 0
M  V30 106 H 6.9725 -2.95943 -1.00681 0
M  V30 107 H 6.1925 -3.69746 1.36679 0
M  V30 108 H 7.4805 -4.91426 1.31824 0
M  V30 109 H 6.8785 -5.3519 -1.83269 0
M  V30 110 H 5.4355 -6.28025 -1.74435 0
M  V30 111 N 8.8686 -0.792821 -1.36206 0
M  V30 112 C 10.2846 -0.474903 -1.52371 0
M  V30 113 C 10.4846 1.00622 -1.74578 0
M  V30 114 O 9.5406 1.79162 -1.77924 0
M  V30 115 C 10.8536 -1.3083 -2.70747 0
M  V30 116 C 12.4016 -1.30234 -2.84619 0
M  V30 117 C 12.8766 -2.11956 -4.06004 0
M  V30 118 N 14.3676 -2.09419 -4.13156 0
M  V30 119 C 15.1026 -2.69419 -5.06163 0
M  V30 120 N 14.5986 -3.3829 -6.04592 0
M  V30 121 N 16.3916 -2.59134 -4.98804 0
M  V30 122 H 8.5426 -1.75222 -1.20046 0
M  V30 123 H 10.8056 -0.745024 -0.586211 0
M  V30 124 H 10.5116 -2.35881 -2.6087 0
M  V30 125 H 10.3856 -0.95196 -3.6499 0
M  V30 126 H 12.7726 -0.259748 -2.93955 0
M  V30 127 H 12.8536 -1.69847 -1.91274 0
M  V30 128 H 12.4976 -3.16248 -3.97429 0
M  V30 129 H 12.4276 -1.69711 -4.98503 0
M  V30 130 H 14.9186 -1.59297 -3.42685 0
M  V30 131 H 15.2316 -3.81394 -6.7213 0
M  V30 132 H 13.5766 -3.42393 -6.04807 0
M  V30 133 H 16.7676 -2.04927 -4.20859 0
M  V30 134 H 16.9406 -3.06185 -5.711 0
M  V30 135 N 10.3467 1.47872 -0.545128 0
M  V30 136 C 11.3097 2.28337 0.198717 0
M  V30 137 C 12.3097 1.36255 0.853888 0
M  V30 138 O 13.4997 1.59003 0.711606 0
M  V30 139 C 10.6317 3.15585 1.28915 0
M  V30 140 H 11.8247 2.95567 -0.507941 0
M  V30 141 H 9.3777 1.53362 -0.301616 0
M  V30 142 H 10.1127 2.53019 2.02859 0
M  V30 143 H 9.8977 3.83337 0.824309 0
M  V30 144 H 11.3877 3.76243 1.81194 0
M  V30 145 N 11.8248 0.280983 1.55075 0
M  V30 146 C 12.7548 -0.597469 2.25727 0
M  V30 147 C 13.7358 -1.15417 1.24952 0
M  V30 148 O 14.9208 -1.18722 1.53684 0
M  V30 149 C 12.0508 -1.7789 2.98283 0
M  V30 150 C 11.0048 -1.35347 4.06036 0
M  V30 151 C 10.3308 -2.61846 4.66198 0
M  V30 152 C 11.6308 -0.499354 5.19907 0
M  V30 153 H 13.3248 -0.00824265 2.99399 0
M  V30 154 H 10.8708 -0.0025244 1.44 0
M  V30 155 H 12.8238 -2.39937 3.46422 0
M  V30 156 H 11.5478 -2.39405 2.22155 0
M  V30 157 H 10.2068 -0.756156 3.58717 0
M  V30 158 H 9.8548 -3.21632 3.86732 0
M  V30 159 H 9.5548 -2.3409 5.38958 0
M  V30 160 H 11.0788 -3.24732 5.1709 0
M  V30 161 H 12.4928 -1.02498 5.64063 0
M  V30 162 H 10.8898 -0.316424 5.99265 0
M  V30 163 H 11.9598 0.480459 4.82514 0
M  V30 164 N 13.3029 -1.57598 0.00835791 0
M  V30 165 C 14.5489 -1.91211 -0.675732 0
M  V30 166 C 14.8819 -0.883139 -1.72958 0
M  V30 167 O 14.1569 0.097016 -1.94258 0
M  V30 168 C 14.4399 -3.35379 -1.31123 0
M  V30 169 C 14.2929 -4.48999 -0.268356 0
M  V30 170 C 15.6119 -3.7912 -2.23508 0
M  V30 171 H 12.7309 -0.695374 -0.244179 0
M  V30 172 H 15.3729 -1.89901 0.0613655 0
M  V30 173 H 13.5229 -3.36626 -1.93946 0
M  V30 174 H 15.1949 -4.59887 0.360844 0
M  V30 175 H 13.4379 -4.31873 0.408482 0
M  V30 176 H 14.1089 -5.46851 -0.752218 0
M  V30 177 H 16.5849 -3.79477 -1.70693 0
M  V30 178 H 15.4609 -4.80729 -2.64936 0
M  V30 179 H 15.7219 -3.13455 -3.11766 0
M  V30 180 N 14.781 0.264519 -1.55364 0
M  V30 181 C 16.027 0.99646 -1.76631 0
M  V30 182 C 16.36 1.85632 -0.570478 0
M  V30 183 O 15.635 1.89647 0.43175 0
M  V30 184 C 15.918 1.87187 -3.07625 0
M  V30 185 C 15.771 1.04138 -4.37579 0
M  V30 186 C 17.09 2.85749 -3.34717 0
M  V30 187 H 14.209 0.360841 -0.642622 0
M  V30 188 H 16.851 0.268218 -1.88097 0
M  V30 189 H 15.001 2.49279 -2.9798 0
M  V30 190 H 16.673 0.440517 -4.59192 0
M  V30 191 H 14.916 0.345115 -4.32425 0
M  V30 192 H 15.587 1.68729 -5.2558 0
M  V30 193 H 18.063 2.33793 -3.4421 0
M  V30 194 H 16.939 3.44136 -4.27623 0
M  V30 195 H 17.2 3.61311 -2.54768 0
M  V30 196 N 16.2591 1.48442 0.529413 0
M  V30 197 C 17.1891 1.65902 1.64313 0
M  V30 198 C 18.1701 0.507897 1.6234 0
M  V30 199 O 19.3551 0.740503 1.79528 0
M  V30 200 C 16.4851 1.69911 3.02898 0
M  V30 201 C 15.4391 2.8453 3.19729 0
M  V30 202 C 14.7651 2.73629 4.59381 0
M  V30 203 C 16.0651 4.25821 3.02447 0
M  V30 204 H 17.7591 2.5914 1.49955 0
M  V30 205 H 15.3051 1.24709 0.719982 0
M  V30 206 H 17.2581 1.80715 3.80684 0
M  V30 207 H 15.9821 0.732524 3.18279 0
M  V30 208 H 14.6411 2.73283 2.44361 0
M  V30 209 H 14.2891 1.74938 4.71599 0
M  V30 210 H 13.9891 3.50541 4.71588 0
M  V30 211 H 15.5131 2.86401 5.39265 0
M  V30 212 H 16.9271 4.37898 3.70024 0
M  V30 213 H 15.3241 5.03735 3.26146 0
M  V30 214 H 16.3941 4.42244 1.98867 0
M  V30 215 N 17.7372 -0.778329 1.37039 0
M  V30 216 C 18.7002 -1.87301 1.32102 0
M  V30 217 C 19.7002 -1.59198 0.226405 0
M  V30 218 O 20.8902 -1.67403 0.481861 0
M  V30 219 C 18.0222 -3.24309 1.05055 0
M  V30 220 H 19.2152 -1.93093 2.29467 0
M  V30 221 H 16.7682 -0.977358 1.21973 0
M  V30 222 H 17.5032 -3.24196 0.0819373 0
M  V30 223 H 17.2882 -3.46098 1.84279 0
M  V30 224 H 18.7782 -4.04382 1.04234 0
M  V30 225 N 19.2153 -1.21501 -1.00376 0
M  V30 226 C 20.1453 -0.999478 -2.11028 0
M  V30 227 C 21.1263 0.0759671 -1.6993 0
M  V30 228 O 22.3113 -0.0841106 -1.94018 0
M  V30 229 C 19.4413 -0.564709 -3.42678 0
M  V30 230 C 18.3953 -1.58486 -3.97576 0
M  V30 231 C 17.7213 -1.00628 -5.25146 0
M  V30 232 C 19.0213 -2.97204 -4.29496 0
M  V30 233 H 20.7153 -1.92495 -2.29317 0
M  V30 234 H 18.2613 -0.92693 -1.102 0
M  V30 235 H 20.2143 -0.401091 -4.19487 0
M  V30 236 H 18.9383 0.396411 -3.24185 0
M  V30 237 H 17.5973 -1.73606 -3.22888 0
M  V30 238 H 17.2453 -0.0368439 -5.02987 0
M  V30 239 H 16.9453 -1.68771 -5.62841 0
M  V30 240 H 18.4693 -0.854015 -6.04598 0
M  V30 241 H 19.8833 -2.8552 -4.97143 0
M  V30 242 H 18.2803 -3.62372 -4.78338 0
M  V30 243 H 19.3503 -3.47956 -3.3772 0
M  V30 244 N 20.6934 1.19889 -1.02296 0
M  V30 245 C 21.6234 2.25141 -0.619174 0
M  V30 246 C 22.6044 1.66051 0.368915 0
M  V30 247 O 23.7894 1.92546 0.252941 0
M  V30 248 C 20.9194 3.4728 0.0368783 0
M  V30 249 C 19.8734 4.19005 -0.872865 0
M  V30 250 C 19.1994 5.34637 -0.0822402 0
M  V30 251 C 20.4994 4.74452 -2.18387 0
M  V30 252 H 22.1934 2.59171 -1.49903 0
M  V30 253 H 19.7394 1.24579 -0.722222 0
M  V30 254 H 21.6924 4.20098 0.330958 0
M  V30 255 H 20.4164 3.12433 0.95149 0
M  V30 256 H 19.0754 3.48061 -1.15105 0
M  V30 257 H 18.7234 4.96034 0.83422 0
M  V30 258 H 18.4234 5.83557 -0.688149 0
M  V30 259 H 19.9474 6.10255 0.205238 0
M  V30 260 H 21.3614 5.39055 -1.95172 0
M  V30 261 H 19.7584 5.33834 -2.74119 0
M  V30 262 H 20.8284 3.92844 -2.84257 0
M  V30 263 N 22.1715 0.800033 1.35784 0
M  V30 264 C 23.1195 0.193851 2.31791 0
M  V30 265 C 24.1135 -0.652744 1.56319 0
M  V30 266 O 25.3195 -0.546641 1.71499 0
M  V30 267 H 21.6945 0.04392 0.750716 0
M  V30 268 H 23.6655 1.01883 2.80468 0
M  V30 269 C 22.4145 -0.648338 3.41602 0
M  V30 270 H 21.7375 -0.00624665 3.998 0
M  V30 271 H 23.1775 -1.03898 4.11073 0
M  V30 272 C 21.6365 -1.8111 2.84079 0
M  V30 273 O 22.1665 -2.90825 2.77099 0
M  V30 274 N 20.3725 -1.62056 2.41218 0
M  V30 275 H 19.9195 -0.728123 2.47095 0
M  V30 276 H 19.8775 -2.40013 2.03079 0
M  V30 277 N 23.6496 -1.47581 0.552962 0
M  V30 278 C 24.8966 -2.02482 0.0273243 0
M  V30 279 C 25.2246 -1.42776 -1.32081 0
M  V30 280 O 24.4796 -0.571393 -1.87173 0
M  V30 281 C 24.7786 -3.57199 -0.119728 0
M  V30 282 C 24.4446 -4.35804 1.15697 0
M  V30 283 C 23.1066 -4.57 1.50681 0
M  V30 284 C 25.4586 -4.81167 2.00319 0
M  V30 285 C 22.7866 -5.20807 2.70142 0
M  V30 286 C 25.1386 -5.46293 3.18978 0
M  V30 287 C 23.8026 -5.65722 3.54281 0
M  V30 288 H 23.0726 -0.740933 0.00999866 0
M  V30 289 H 25.7196 -1.77302 0.72362 0
M  V30 290 H 24.0246 -3.81348 -0.89896 0
M  V30 291 H 25.7216 -3.97324 -0.541718 0
M  V30 292 H 22.3116 -4.19582 0.874561 0
M  V30 293 H 26.4956 -4.64574 1.74599 0
M  V30 294 H 21.7516 -5.34045 2.97668 0
M  V30 295 H 25.9256 -5.80407 3.84838 0
M  V30 296 H 23.5526 -6.14936 4.46942 0
M  V30 297 N 25.1277 -0.289203 -1.54924 0
M  V30 298 C 26.0907 0.579144 -2.21762 0
M  V30 299 C 27.0907 1.07047 -1.1999 0
M  V30 300 O 28.2807 0.968384 -1.44803 0
M  V30 301 C 25.4127 1.80055 -2.8947 0
M  V30 302 H 26.6057 -0.00464908 -2.999 0
M  V30 303 H 24.1587 -0.0399306 -1.56249 0
M  V30 304 H 24.8937 2.42449 -2.15381 0
M  V30 305 H 24.6787 1.45602 -3.64064 0
M  V30 306 H 26.1687 2.41773 -3.40493 0
M  V30 307 N 26.6058 1.57591 -0.0167156 0
M  V30 308 C 27.8338 1.95575 0.675128 0
M  V30 309 C 28.2488 0.892542 1.6637 0
M  V30 310 O 27.6058 -0.126912 1.82058 0
M  V30 311 C 27.6568 3.33608 1.39239 0
M  V30 312 O 27.3778 4.3585 0.443444 0
M  V30 313 C 28.8788 3.86151 2.17721 0
M  V30 314 H 26.0988 0.644423 0.186978 0
M  V30 315 H 28.6428 2.0437 -0.0728 0
M  V30 316 H 26.7978 3.2607 2.09182 0
M  V30 317 H 27.2118 5.158 0.951358 0
M  V30 318 H 28.6858 4.85114 2.63379 0
M  V30 319 H 29.1628 3.19738 3.01105 0
M  V30 320 H 29.7688 3.96918 1.52761 0
M  V30 321 N 28.0839 -0.256276 1.55502 0
M  V30 322 C 29.3299 -0.987079 1.77157 0
M  V30 323 C 29.6629 -1.85327 0.580315 0
M  V30 324 O 28.9379 -1.89874 -0.421686 0
M  V30 325 C 29.2209 -1.85553 3.08613 0
M  V30 326 C 29.0739 -1.01816 4.38125 0
M  V30 327 C 30.3929 -2.8397 3.36228 0
M  V30 328 H 27.5119 -0.357428 0.644526 0
M  V30 329 H 30.1539 -0.258239 1.88237 0
M  V30 330 H 28.3039 -2.47695 2.99298 0
M  V30 331 H 29.9759 -0.416159 4.59419 0
M  V30 332 H 28.2189 -0.322178 4.32602 0
M  V30 333 H 28.8899 -1.65939 5.26468 0
M  V30 334 H 31.3659 -2.31964 3.45445 0
M  V30 335 H 30.2419 -3.41864 4.29442 0
M  V30 336 H 30.5029 -3.59955 2.56681 0
M  V30 337 N 29.562 -1.4872 -0.521534 0
M  V30 338 C 30.787 -1.61101 -1.30618 0
M  V30 339 C 31.212 -0.274611 -1.86085 0
M  V30 340 O 30.57 0.754937 -1.64834 0
M  V30 341 C 30.618 -2.66709 -2.4269 0
M  V30 342 O 29.722 -2.24456 -3.45967 0
M  V30 343 H 29.063 -0.539921 -0.386499 0
M  V30 344 H 31.593 -1.94767 -0.626645 0
M  V30 345 H 31.603 -2.88245 -2.88754 0
M  V30 346 H 30.278 -3.63727 -2.01682 0
M  V30 347 H 28.855 -2.13168 -3.05964 0
M  V30 348 N 31.0401 0.771051 -1.3745 0
M  V30 349 C 31.9701 1.89827 -1.3597 0
M  V30 350 C 32.9511 1.68562 -0.228216 0
M  V30 351 O 34.1361 1.8941 -0.428675 0
M  V30 352 C 31.2661 3.2712 -1.16662 0
M  V30 353 C 30.2201 3.6295 -2.2683 0
M  V30 354 C 29.5461 4.98791 -1.92644 0
M  V30 355 C 30.8461 3.69627 -3.69017 0
M  V30 356 H 32.5401 1.91323 -2.30295 0
M  V30 357 H 30.0861 0.919082 -1.10855 0
M  V30 358 H 32.0391 4.05615 -1.14256 0
M  V30 359 H 30.7631 3.26059 -0.187926 0
M  V30 360 H 29.4221 2.86763 -2.28392 0
M  V30 361 H 29.0701 4.94271 -0.933021 0
M  V30 362 H 28.7701 5.23733 -2.66416 0
M  V30 363 H 30.2941 5.79685 -1.91826 0
M  V30 364 H 31.7081 4.38273 -3.69581 0
M  V30 365 H 30.1051 4.06067 -4.41848 0
M  V30 366 H 31.1751 2.70273 -4.02592 0
M  V30 367 N 32.5182 1.22032 0.997298 0
M  V30 368 C 33.7432 1.06921 1.77715 0
M  V30 369 C 34.1682 -0.376226 1.84299 0
M  V30 370 O 33.5262 -1.27165 1.29223 0
M  V30 371 C 33.5742 1.67996 3.19076 0
M  V30 372 O 32.6782 0.930653 4.01762 0
M  V30 373 H 32.0192 0.375814 0.547412 0
M  V30 374 H 34.5492 1.61737 1.25309 0
M  V30 375 H 34.5592 1.72538 3.69723 0
M  V30 376 H 33.2342 2.73182 3.13599 0
M  V30 377 H 31.8112 0.960917 3.60307 0
M  V30 378 N 33.9963 -1.19345 1.0293 0
M  V30 379 C 34.9263 -2.2481 0.631105 0
M  V30 380 C 35.9073 -1.66245 -0.360104 0
M  V30 381 O 37.0923 -1.92677 -0.242726 0
M  V30 382 C 34.2223 -3.47295 -0.0184607 0
M  V30 383 C 33.1763 -4.18536 0.895073 0
M  V30 384 C 32.5023 -5.34586 0.110592 0
M  V30 385 C 33.8023 -4.73287 2.209 0
M  V30 386 H 35.4963 -2.58372 1.51275 0
M  V30 387 H 33.0423 -1.24194 0.728818 0
M  V30 388 H 34.9953 -4.20268 -0.308675 0
M  V30 389 H 33.7193 -3.12933 -0.934907 0
M  V30 390 H 32.3783 -3.47446 1.16949 0
M  V30 391 H 32.0263 -4.96469 -0.807902 0
M  V30 392 H 31.7263 -5.83183 0.719087 0
M  V30 393 H 33.2503 -6.10355 -0.172871 0
M  V30 394 H 34.6643 -5.38013 1.98028 0
M  V30 395 H 33.0613 -5.32373 2.76946 0
M  V30 396 H 34.1313 -3.91331 2.86336 0
M  V30 397 N 35.4744 -0.807222 -1.35358 0
M  V30 398 C 36.6994 -0.399309 -2.0352 0
M  V30 399 C 37.1244 0.981986 -1.60433 0
M  V30 400 O 36.4824 1.63601 -0.781299 0
M  V30 401 C 36.5304 -0.491552 -3.57234 0
M  V30 402 O 35.6344 0.494754 -4.09421 0
M  V30 403 H 34.9754 -0.166682 -0.642739 0
M  V30 404 H 37.5054 -1.09328 -1.72941 0
M  V30 405 H 37.5154 -0.361588 -4.06395 0
M  V30 406 H 36.1904 -1.49907 -3.87944 0
M  V30 407 H 34.7674 0.324977 -3.71481 0
M  V30 408 N 36.9525 1.47285 -0.560781 0
M  V30 409 C 38.1805 2.06855 -0.0430262 0
M  V30 410 C 38.5955 1.41291 1.25229 0
M  V30 411 O 37.9525 0.510648 1.7521 0
M  V30 412 C 38.0035 3.61178 0.152518 0
M  V30 413 O 37.7245 4.24285 -1.0915 0
M  V30 414 C 39.2255 4.37624 0.707145 0
M  V30 415 H 36.4455 0.669319 -0.0474652 0
M  V30 416 H 38.9895 1.89237 -0.77521 0
M  V30 417 H 37.1445 3.78298 0.834843 0
M  V30 418 H 37.5585 5.16868 -0.891482 0
M  V30 419 H 39.0325 5.46271 0.793244 0
M  V30 420 H 39.5095 4.04152 1.71923 0
M  V30 421 H 40.1155 4.25257 0.0604027 0
M  V30 422 N 38.4306 0.297415 1.54768 0
M  V30 423 C 39.6706 -0.313829 2.01976 0
M  V30 424 C 40.0346 -1.51366 1.1812 0
M  V30 425 O 41.2356 -2.19603 1.5501 0
M  V30 426 C 39.5066 -0.664964 3.51159 0
M  V30 427 S 41.0656 -1.25958 4.20333 0
M  V30 428 H 37.8836 -0.0965014 0.704421 0
M  V30 429 H 40.4856 0.424451 1.90837 0
M  V30 430 H 39.1896 0.21681 4.09827 0
M  V30 431 H 38.7206 -1.43413 3.66328 0
M  V30 432 H 40.7356 -2.54751 4.25813 0
M  V30 433 N 39.9087 -1.5758 0.0250728 0
M  V30 434 C 41.1367 -1.9593 -0.664747 0
M  V30 435 C 41.5517 -0.901352 -1.65895 0
M  V30 436 O 40.9087 0.117255 -1.82123 0
M  V30 437 C 40.9597 -3.34342 -1.37468 0
M  V30 438 O 40.6807 -4.36079 -0.420324 0
M  V30 439 C 42.1817 -3.873 -2.1567 0
M  V30 440 H 39.4017 -0.645405 -0.183557 0
M  V30 441 H 41.9457 -2.04329 0.0836372 0
M  V30 442 H 40.1007 -3.27175 -2.0745 0
M  V30 443 H 40.5147 -5.16297 -0.923991 0
M  V30 444 H 41.9887 -4.86504 -2.60803 0
M  V30 445 H 42.4657 -3.21331 -2.99405 0
M  V30 446 H 43.0717 -3.97723 -1.50654 0
M  V30 447 N 41.3868 0.248026 -1.55636 0
M  V30 448 C 42.6148 0.993808 -1.81469 0
M  V30 449 C 43.0298 1.78991 -0.60064 0
M  V30 450 O 42.3868 1.77345 0.430682 0
M  V30 451 C 42.4378 1.93258 -3.05506 0
M  V30 452 O 42.1588 1.16869 -4.22224 0
M  V30 453 C 43.6598 2.79444 -3.4413 0
M  V30 454 H 40.8798 0.292486 -0.603898 0
M  V30 455 H 43.4238 0.271253 -2.02693 0
M  V30 456 H 41.5788 2.60943 -2.86335 0
M  V30 457 H 41.9928 1.80359 -4.92515 0
M  V30 458 H 43.4668 3.41066 -4.34026 0
M  V30 459 H 43.9438 3.50499 -2.64665 0
M  V30 460 H 44.5498 2.17214 -3.65648 0
M  V30 461 N 42.8649 1.48995 0.513639 0
M  V30 462 C 43.7949 1.67636 1.62544 0
M  V30 463 C 44.7759 0.525087 1.61793 0
M  V30 464 O 45.9609 0.759502 1.78732 0
M  V30 465 C 43.0909 1.73114 3.01079 0
M  V30 466 C 42.0449 2.87905 3.16693 0
M  V30 467 C 41.3709 2.78486 4.56453 0
M  V30 468 C 42.6709 4.29005 2.97913 0
M  V30 469 H 44.3649 2.60716 1.47198 0
M  V30 470 H 41.9109 1.25465 0.706714 0
M  V30 471 H 43.8639 1.84742 3.78746 0
M  V30 472 H 42.5879 0.766241 3.17484 0
M  V30 473 H 41.2469 2.75859 2.41448 0
M  V30 474 H 40.8949 1.7993 4.69717 0
M  V30 475 H 40.5949 3.55523 4.67843 0
M  V30 476 H 42.1189 2.92104 5.36197 0
M  V30 477 H 43.5329 4.41798 3.65359 0
M  V30 478 H 41.9299 5.07166 3.20785 0
M  V30 479 H 42.9999 4.44329 1.94165 0
M  V30 480 N 44.343 -0.763751 1.37857 0
M  V30 481 C 45.62 -1.51244 1.24035 0
M  V30 482 C 46 -2.10472 -0.162649 0
M  V30 483 O 45.348 -1.96206 -1.17112 0
M  V30 484 C 45.558 -2.58694 2.34261 0
M  V30 485 C 46.906 -3.25878 2.72193 0
M  V30 486 O 47.93 -2.68993 2.33497 0
M  V30 487 O 46.789 -4.2874 3.38887 0
M  V30 488 H 43.883 -0.670243 0.484462 0
M  V30 489 H 46.429 -0.800031 1.49658 0
M  V30 490 H 45.201 -2.13105 3.2818 0
M  V30 491 H 44.824 -3.37527 2.10146 0
M  V30 492 N 45.8211 -1.22559 -0.990812 0
M  V30 493 C 47.0681 -1.05141 -1.73065 0
M  V30 494 C 47.3961 0.413191 -1.9006 0
M  V30 495 O 46.6511 1.32257 -1.44245 0
M  V30 496 C 46.9501 -1.71011 -3.13831 0
M  V30 497 C 46.6161 -3.20911 -3.16745 0
M  V30 498 C 45.2781 -3.61812 -3.17247 0
M  V30 499 C 47.6301 -4.16846 -3.12872 0
M  V30 500 C 44.9581 -4.97127 -3.1158 0
M  V30 501 C 47.3101 -5.5214 -3.08746 0
M  V30 502 C 45.9741 -5.92419 -3.07565 0
M  V30 503 H 45.2441 -0.384738 -0.633291 0
M  V30 504 H 47.8911 -1.5235 -1.16025 0
M  V30 505 H 46.1961 -1.16133 -3.74193 0
M  V30 506 H 47.8931 -1.55023 -3.69823 0
M  V30 507 H 44.4831 -2.88344 -3.17105 0
M  V30 508 H 48.6671 -3.86263 -3.11632 0
M  V30 509 H 43.9231 -5.27562 -3.09012 0
M  V30 510 H 48.0971 -6.26201 -3.04705 0
M  V30 511 H 45.7241 -6.97236 -3.02929 0
M  V30 512 N 47.2992 1.18797 -1.03562 0
M  V30 513 C 48.5472 1.88278 -0.734569 0
M  V30 514 C 48.8682 1.8043 0.739586 0
M  V30 515 O 48.1382 1.21925 1.53333 0
M  V30 516 H 46.7182 0.696991 -0.268725 0
M  V30 517 H 49.3802 1.44192 -1.31129 0
M  V30 518 H 48.4762 2.94443 -1.03489 0
M  V30 519 N 48.7773 0.814389 1.34928 0
M  V30 520 C 49.7273 0.202752 2.27097 0
M  V30 521 C 50.7113 -0.62799 1.48139 0
M  V30 522 O 51.9033 -0.483969 1.70255 0
M  V30 523 C 49.0323 -0.64146 3.37254 0
M  V30 524 C 48.1183 0.19944 4.23631 0
M  V30 525 N 48.5093 1.26628 4.89693 0
M  V30 526 C 46.8073 -0.0176433 4.45997 0
M  V30 527 C 47.5083 1.78031 5.53787 0
M  V30 528 N 46.4843 1.08553 5.32651 0
M  V30 529 H 50.2863 1.01893 2.75672 0
M  V30 530 H 47.8003 0.656332 1.48546 0
M  V30 531 H 49.7973 -1.09575 4.02243 0
M  V30 532 H 48.4573 -1.4559 2.9023 0
M  V30 533 H 49.4683 1.64901 4.90946 0
M  V30 534 H 46.1453 -0.800601 4.09752 0
M  V30 535 H 47.5353 2.67236 6.16469 0
M  V30 536 N 50.2554 -1.46986 0.568584 0
M  V30 537 C 51.5044 -2.01646 0.0465894 0
M  V30 538 C 51.8174 -1.44721 -1.31587 0
M  V30 539 O 53.0234 -1.91113 -1.92842 0
M  V30 540 C 51.4794 -3.59885 0.032752 0
M  V30 541 C 51.0874 -4.25804 1.39266 0
M  V30 542 C 52.8314 -4.22255 -0.436038 0
M  V30 543 C 50.7384 -5.76081 1.33732 0
M  V30 544 H 49.6684 -0.753876 0.013647 0
M  V30 545 H 52.3194 -1.68864 0.718131 0
M  V30 546 H 50.7014 -3.8968 -0.704669 0
M  V30 547 H 51.8754 -4.07637 2.1487 0
M  V30 548 H 50.1904 -3.7547 1.80032 0
M  V30 549 H 52.7874 -5.32394 -0.49602 0
M  V30 550 H 53.1304 -3.90212 -1.45053 0
M  V30 551 H 53.6634 -3.97033 0.246877 0
M  V30 552 H 50.4024 -6.12761 2.32817 0
M  V30 553 H 49.9224 -5.96553 0.623267 0
M  V30 554 H 51.6014 -6.38518 1.0442 0
M  V30 555 N 51.7335 -0.305618 -1.54608 0
M  V30 556 C 52.6805 0.568421 -2.23691 0
M  V30 557 C 53.6505 1.12592 -1.22116 0
M  V30 558 O 54.8355 1.16959 -1.50749 0
M  V30 559 C 51.9755 1.7322 -2.98477 0
M  V30 560 C 51.0885 1.20566 -4.14835 0
M  V30 561 C 50.2235 2.33368 -4.77193 0
M  V30 562 C 49.2625 1.7787 -5.85686 0
M  V30 563 N 48.3995 2.84263 -6.4198 0
M  V30 564 H 53.2395 -0.0272867 -2.97988 0
M  V30 565 H 50.7765 -0.0252363 -1.47078 0
M  V30 566 H 52.7345 2.41675 -3.40072 0
M  V30 567 H 51.3645 2.29947 -2.26548 0
M  V30 568 H 50.4165 0.413223 -3.78149 0
M  V30 569 H 51.7285 0.759417 -4.92985 0
M  V30 570 H 50.8825 3.09761 -5.21664 0
M  V30 571 H 49.6215 2.8132 -3.98385 0
M  V30 572 H 48.6265 0.99968 -5.40635 0
M  V30 573 H 49.8515 1.30816 -6.66381 0
M  V30 574 H 47.7975 3.31541 -5.66053 0
M  V30 575 H 47.7145 2.44149 -7.15491 0
M  V30 576 H 48.9825 3.6054 -6.91109 0
M  V30 577 N 53.2116 1.57565 -0.0334293 0
M  V30 578 C 54.1586 2.10478 0.946981 0
M  V30 579 C 55.1286 1.00787 1.32027 0
M  V30 580 O 56.3136 1.28232 1.41284 0
M  V30 581 C 53.4536 2.63994 2.22263 0
M  V30 582 C 52.5666 3.87709 1.90541 0
M  V30 583 C 51.7016 4.29604 3.12433 0
M  V30 584 C 50.7406 5.46065 2.76549 0
M  V30 585 N 49.8776 5.83096 3.9108 0
M  V30 586 H 54.7176 2.93963 0.488846 0
M  V30 587 H 52.2546 1.45296 0.22969 0
M  V30 588 H 54.2126 2.93114 2.96884 0
M  V30 589 H 52.8426 1.83333 2.65685 0
M  V30 590 H 51.8946 3.65291 1.06144 0
M  V30 591 H 53.2066 4.72403 1.60116 0
M  V30 592 H 52.3606 4.60182 3.9537 0
M  V30 593 H 51.0996 3.43685 3.46023 0
M  V30 594 H 50.1046 5.15176 1.92026 0
M  V30 595 H 51.3296 6.33685 2.44171 0
M  V30 596 H 49.2756 5.00132 4.24504 0
M  V30 597 H 49.1926 6.6244 3.64293 0
M  V30 598 H 50.4606 6.18282 4.74708 0
M  V30 599 N 54.6897 -0.239769 1.55765 0
M  V30 600 C 55.6367 -1.29696 1.90913 0
M  V30 601 C 56.6067 -1.47478 0.764164 0
M  V30 602 O 57.7917 -1.61345 1.01845 0
M  V30 603 C 54.9317 -2.64598 2.21544 0
M  V30 604 C 54.0447 -2.54765 3.48882 0
M  V30 605 C 53.1797 -3.82069 3.69049 0
M  V30 606 C 52.2187 -3.66883 4.89963 0
M  V30 607 N 51.3557 -4.86094 5.06614 0
M  V30 608 H 56.1957 -0.990224 2.81067 0
M  V30 609 H 53.7327 -0.477684 1.39128 0
M  V30 610 H 55.6907 -3.43132 2.3731 0
M  V30 611 H 54.3207 -2.93405 1.34585 0
M  V30 612 H 53.3727 -1.67763 3.41409 0
M  V30 613 H 54.6847 -2.39457 4.37563 0
M  V30 614 H 53.8387 -4.69046 3.84812 0
M  V30 615 H 52.5777 -4.00282 2.78614 0
M  V30 616 H 51.5827 -2.78289 4.74168 0
M  V30 617 H 52.8077 -3.50157 5.81865 0
M  V30 618 H 50.7537 -5.04655 4.19117 0
M  V30 619 H 50.6707 -4.73443 5.89396 0
M  V30 620 H 51.9387 -5.74549 5.26795 0
M  V30 621 N 56.1678 -1.49265 -0.50573 0
M  V30 622 C 57.5838 -1.35923 -0.836486 0
M  V30 623 C 57.7838 -0.388704 -1.97715 0
M  V30 624 O 56.8398 0.181336 -2.51848 0
M  V30 625 C 58.1528 -2.76531 -1.18115 0
M  V30 626 C 59.7008 -2.85197 -1.28964 0
M  V30 627 C 60.1758 -4.26561 -1.66761 0
M  V30 628 N 61.6668 -4.2935 -1.73819 0
M  V30 629 C 62.4018 -5.35693 -2.045 0
M  V30 630 N 61.8978 -6.52287 -2.33438 0
M  V30 631 N 63.6908 -5.23105 -2.05711 0
M  V30 632 H 55.8418 -2.10965 0.246519 0
M  V30 633 H 58.1048 -0.9468 0.0476887 0
M  V30 634 H 57.8108 -3.49226 -0.416398 0
M  V30 635 H 57.6848 -3.11599 -2.1257 0
M  V30 636 H 60.0718 -2.12742 -2.04511 0
M  V30 637 H 60.1528 -2.53718 -0.325704 0
M  V30 638 H 59.7968 -4.99541 -0.917656 0
M  V30 639 H 59.7268 -4.55502 -2.64246 0
M  V30 640 H 62.2178 -3.4526 -1.53635 0
M  V30 641 H 62.5308 -7.29158 -2.56024 0
M  V30 642 H 60.8758 -6.55521 -2.30905 0
M  V30 643 H 64.0668 -4.31026 -1.82577 0
M  V30 644 H 64.2398 -6.06078 -2.29289 0
M  V30 645 N 57.6459 0.756429 -1.3826 0
M  V30 646 C 58.8919 1.51772 -1.34511 0
M  V30 647 C 59.2249 1.94089 0.0656691 0
M  V30 648 O 58.4999 1.65221 1.02626 0
M  V30 649 C 58.7829 2.77226 -2.29821 0
M  V30 650 C 58.6359 2.41065 -3.79747 0
M  V30 651 C 59.9549 3.79236 -2.23312 0
M  V30 652 H 57.0739 0.550578 -0.489931 0
M  V30 653 H 59.7159 0.866607 -1.69086 0
M  V30 654 H 57.8659 3.32784 -2.00467 0
M  V30 655 H 59.5379 1.91303 -4.19763 0
M  V30 656 H 57.7809 1.7356 -3.97567 0
M  V30 657 H 58.4519 3.3081 -4.41892 0
M  V30 658 H 60.9279 3.3321 -2.49219 0
M  V30 659 H 59.8039 4.64714 -2.92116 0
M  V30 660 H 60.0649 4.24615 -1.23102 0
M  V30 661 N 59.124 1.23083 0.984299 0
M  V30 662 C 60.034 1.02515 2.11016 0
M  V30 663 C 61.05 -0.0291702 1.73976 0
M  V30 664 O 62.226 0.165434 2.00719 0
M  V30 665 C 59.291 0.614673 3.41208 0
M  V30 666 C 58.352 1.74359 3.92297 0
M  V30 667 C 57.585 1.35261 5.16275 0
M  V30 668 O 57.808 0.235136 5.69915 0
M  V30 669 O 56.742 2.17227 5.61334 0
M  V30 670 H 60.568 1.96862 2.31255 0
M  V30 671 H 58.153 1.01753 1.09392 0
M  V30 672 H 60.035 0.396518 4.1953 0
M  V30 673 H 58.71 -0.299851 3.22308 0
M  V30 674 H 57.617 2.01635 3.1511 0
M  V30 675 H 58.95 2.63629 4.15645 0
M  V30 676 N 60.6021 -1.18246 1.0419 0
M  V30 677 C 61.5651 -2.20128 0.638452 0
M  V30 678 C 62.5651 -1.57885 -0.304805 0
M  V30 679 O 63.7551 -1.73967 -0.0900369 0
M  V30 680 C 60.8871 -3.4084 -0.0637751 0
M  V30 681 H 62.0801 -2.57336 1.54007 0
M  V30 682 H 59.6331 -1.32152 0.834598 0
M  V30 683 H 60.3681 -3.09166 -0.979136 0
M  V30 684 H 60.1531 -3.8726 0.614198 0
M  V30 685 H 61.6431 -4.16274 -0.332512 0
M  V30 686 N 62.0802 -0.821533 -1.34494 0
M  V30 687 C 63.3292 -0.405355 -1.97585 0
M  V30 688 C 63.6422 1.03677 -1.65863 0
M  V30 689 O 64.8482 1.55679 -2.22433 0
M  V30 690 C 63.3042 -0.673861 -3.53535 0
M  V30 691 C 62.9122 -2.12951 -3.94152 0
M  V30 692 C 64.6562 -0.32378 -4.23263 0
M  V30 693 C 62.5632 -2.34298 -5.43009 0
M  V30 694 H 61.4932 -0.147836 -0.739365 0
M  V30 695 H 64.1442 -1.00769 -1.53355 0
M  V30 696 H 62.5262 -0.00137554 -3.96 0
M  V30 697 H 63.7002 -2.84104 -3.62797 0
M  V30 698 H 62.0152 -2.44089 -3.37356 0
M  V30 699 H 64.6122 -0.461126 -5.32708 0
M  V30 700 H 64.9552 0.731586 -4.09821 0
M  V30 701 H 65.4882 -0.950786 -3.8627 0
M  V30 702 H 62.2272 -3.38335 -5.61435 0
M  V30 703 H 61.7472 -1.67687 -5.75883 0
M  V30 704 H 63.4262 -2.16588 -6.09671 0
M  V30 705 N 63.5583 1.46682 -0.576371 0
M  V30 706 C 64.9743 1.57822 -0.237562 0
M  V30 707 C 65.1743 1.57237 1.26011 0
M  V30 708 O 64.2303 1.48596 2.04146 0
M  V30 709 C 65.5433 2.87499 -0.881168 0
M  V30 710 C 67.0913 3.01119 -0.85417 0
M  V30 711 C 67.5663 4.33524 -1.4772 0
M  V30 712 N 69.0573 4.40207 -1.44125 0
M  V30 713 C 69.7923 5.4126 -1.89276 0
M  V30 714 N 69.2883 6.49021 -2.42371 0
M  V30 715 N 71.0813 5.32422 -1.80231 0
M  V30 716 H 63.2323 1.45306 -1.54919 0
M  V30 717 H 65.4953 0.692733 -0.647167 0
M  V30 718 H 65.2013 2.9372 -1.93447 0
M  V30 719 H 65.0753 3.75224 -0.385592 0
M  V30 720 H 67.4623 2.94485 0.190491 0
M  V30 721 H 67.5433 2.14887 -1.3877 0
M  V30 722 H 67.1873 4.40916 -2.52103 0
M  V30 723 H 67.1173 5.1852 -0.918947 0
M  V30 724 H 69.6083 3.62931 -1.05307 0
M  V30 725 H 69.9213 7.2233 -2.74698 0
M  V30 726 H 68.2663 6.49858 -2.46393 0
M  V30 727 H 71.4573 4.47137 -1.38514 0
M  V30 728 H 71.6303 6.11034 -2.15735 0
M  V30 729 N 65.0364 0.313813 1.54444 0
M  V30 730 C 66.2844 -0.291099 1.99993 0
M  V30 731 C 66.6054 -1.53418 1.20366 0
M  V30 732 O 65.8754 -1.93544 0.302927 0
M  V30 733 H 64.4554 -0.110552 0.738774 0
M  V30 734 H 67.1174 0.428106 1.9014 0
M  V30 735 H 66.2134 -0.554268 3.07139 0
M  V30 736 N 66.5145 -1.57545 0.0417849 0
M  V30 737 C 67.4465 -2.07904 -0.964799 0
M  V30 738 C 68.4595 -1.00497 -1.28079 0
M  V30 739 O 69.6485 -1.28087 -1.24322 0
M  V30 740 C 66.7485 -2.49928 -2.28887 0
M  V30 741 C 65.9215 -3.80562 -2.15619 0
M  V30 742 C 64.9805 -4.08999 -3.31069 0
M  V30 743 O 64.0065 -4.79061 -3.0739 0
M  V30 744 N 65.2085 -3.6017 -4.55256 0
M  V30 745 H 67.9735 -2.94886 -0.535029 0
M  V30 746 H 65.5345 -1.61252 -0.144681 0
M  V30 747 H 67.5265 -2.66034 -3.04972 0
M  V30 748 H 66.0965 -1.68245 -2.63463 0
M  V30 749 H 65.3165 -3.74129 -1.24183 0
M  V30 750 H 66.6045 -4.66126 -2.03971 0
M  V30 751 H 66.0025 -3.03512 -4.77386 0
M  V30 752 H 64.5595 -3.81532 -5.28466 0
M  V30 753 N 67.9926 0.231505 -1.5589 0
M  V30 754 C 69.2416 0.955346 -1.7764 0
M  V30 755 C 69.5546 1.85893 -0.608546 0
M  V30 756 O 70.7606 2.62067 -0.70943 0
M  V30 757 C 69.2166 1.74886 -3.14552 0
M  V30 758 C 68.8246 0.891915 -4.39032 0
M  V30 759 C 70.5686 2.46452 -3.45633 0
M  V30 760 C 68.4756 1.68221 -5.66971 0
M  V30 761 H 67.4056 0.360446 -0.662265 0
M  V30 762 H 70.0566 0.209516 -1.823 0
M  V30 763 H 68.4386 2.53723 -3.04041 0
M  V30 764 H 69.6126 0.144793 -4.60572 0
M  V30 765 H 67.9276 0.288863 -4.15397 0
M  V30 766 H 70.5246 3.06061 -4.38441 0
M  V30 767 H 70.8676 3.18841 -2.67668 0
M  V30 768 H 71.4006 1.74613 -3.57428 0
M  V30 769 H 68.1396 1.00178 -6.478 0
M  V30 770 H 67.6596 2.4042 -5.49507 0
M  V30 771 H 69.3386 2.24544 -6.06786 0
M  V30 772 N 69.4707 1.49531 0.497807 0
M  V30 773 C 70.4007 1.6935 1.60757 0
M  V30 774 C 71.3817 0.542218 1.61227 0
M  V30 775 O 72.5667 0.778417 1.77917 0
M  V30 776 C 69.6967 1.76298 2.99226 0
M  V30 777 C 68.6507 2.91248 3.13622 0
M  V30 778 C 67.9767 2.83312 4.53474 0
M  V30 779 C 69.2767 4.3214 2.93346 0
M  V30 780 H 70.9707 2.62263 1.44425 0
M  V30 781 H 68.5167 1.26208 0.693367 0
M  V30 782 H 70.4697 1.88749 3.76765 0
M  V30 783 H 69.1937 0.799871 3.16654 0
M  V30 784 H 67.8527 2.78404 2.38509 0
M  V30 785 H 67.5007 1.84902 4.67782 0
M  V30 786 H 67.2007 3.60465 4.64046 0
M  V30 787 H 68.7247 2.97775 5.33069 0
M  V30 788 H 70.1387 4.45649 3.60652 0
M  V30 789 H 68.5357 5.1054 3.15387 0
M  V30 790 H 69.6057 4.46363 1.89441 0
M  V30 791 N 70.9488 -0.749086 1.3866 0
M  V30 792 C 72.1738 -1.54344 1.38538 0
M  V30 793 C 72.5988 -1.88088 -0.0216655 0
M  V30 794 O 71.9568 -1.50899 -1.00494 0
M  V30 795 C 72.0048 -2.8164 2.25192 0
M  V30 796 O 71.1088 -3.7698 1.67212 0
M  V30 797 H 70.4498 -0.466654 0.472367 0
M  V30 798 H 72.9798 -0.925355 1.82478 0
M  V30 799 H 72.9898 -3.30519 2.3921 0
M  V30 800 H 71.6648 -2.56411 3.27454 0
M  V30 801 H 70.2418 -3.35699 1.6236 0
M  V30 802 N 72.4269 -1.23603 -0.977757 0
M  V30 803 C 73.3739 -1.01954 -2.07061 0
M  V30 804 C 74.3439 0.0638697 -1.65977 0
M  V30 805 O 75.5289 -0.0887624 -1.90593 0
M  V30 806 C 72.6689 -0.619658 -3.39491 0
M  V30 807 C 71.7819 -1.77547 -3.93829 0
M  V30 808 C 70.9169 -1.32212 -5.14484 0
M  V30 809 C 69.9559 -2.44852 -5.60994 0
M  V30 810 N 69.0929 -2.00456 -6.72876 0
M  V30 811 H 73.9329 -1.95495 -2.24913 0
M  V30 812 H 71.4699 -0.973861 -1.10247 0
M  V30 813 H 73.4279 -0.368898 -4.15566 0
M  V30 814 H 72.0579 0.278752 -3.21594 0
M  V30 815 H 71.1099 -2.14016 -3.14486 0
M  V30 816 H 72.4219 -2.62219 -4.24314 0
M  V30 817 H 71.5759 -1.02965 -5.97899 0
M  V30 818 H 70.3149 -0.445808 -4.85658 0
M  V30 819 H 69.3199 -2.74871 -4.76157 0
M  V30 820 H 70.5449 -3.33024 -5.91837 0
M  V30 821 H 68.4909 -1.15208 -6.45804 0
M  V30 822 H 68.4079 -2.78687 -7.02759 0
M  V30 823 H 69.6759 -1.7432 -7.59758 0
M  V30 824 N 73.905 1.17692 -1.04816 0
M  V30 825 C 74.835 2.23777 -0.666791 0
M  V30 826 C 75.816 1.66796 0.33361 0
M  V30 827 O 77.001 1.93039 0.212042 0
M  V30 828 C 74.131 3.47281 -0.0367933 0
M  V30 829 C 73.085 4.17059 -0.961546 0
M  V30 830 C 72.411 5.34342 -0.195626 0
M  V30 831 C 73.711 4.69713 -2.28402 0
M  V30 832 H 75.405 2.55933 -1.55367 0
M  V30 833 H 72.951 1.23019 -0.748484 0
M  V30 834 H 74.904 4.20706 0.241775 0
M  V30 835 H 73.628 3.14381 0.885004 0
M  V30 836 H 72.287 3.45541 -1.22462 0
M  V30 837 H 71.935 4.97692 0.728816 0
M  V30 838 H 71.635 5.81966 -0.811775 0
M  V30 839 H 73.159 6.10553 0.0757473 0
M  V30 840 H 74.573 5.34794 -2.06563 0
M  V30 841 H 72.97 5.279 -2.8538 0
M  V30 842 H 74.04 3.86726 -2.92525 0
M  V30 843 N 75.3831 0.828654 1.34056 0
M  V30 844 C 76.7991 0.515135 1.51058 0
M  V30 845 C 76.9991 -0.959581 1.77184 0
M  V30 846 O 76.0551 -1.74382 1.82612 0
M  V30 847 C 77.3681 1.37963 2.67183 0
M  V30 848 C 78.9161 1.37735 2.81066 0
M  V30 849 C 79.3911 2.22645 4.00241 0
M  V30 850 N 80.8821 2.203 4.07458 0
M  V30 851 C 81.6171 2.82744 4.98842 0
M  V30 852 N 81.1131 3.54201 5.9541 0
M  V30 853 N 82.9061 2.72268 4.91759 0
M  V30 854 H 75.0571 1.78343 1.15358 0
M  V30 855 H 77.3201 0.760304 0.566252 0
M  V30 856 H 77.0261 2.42714 2.54525 0
M  V30 857 H 76.9001 1.0484 3.62338 0
M  V30 858 H 79.2871 0.337593 2.93163 0
M  V30 859 H 79.3681 1.74859 1.86703 0
M  V30 860 H 79.0121 3.26674 3.88905 0
M  V30 861 H 78.9421 1.82869 4.93829 0
M  V30 862 H 81.4331 1.68327 3.38341 0
M  V30 863 H 81.7461 3.9908 6.61782 0
M  V30 864 H 80.0911 3.58308 5.95517 0
M  V30 865 H 83.2821 2.16014 4.15278 0
M  V30 866 H 83.4551 3.21219 5.62781 0
M  V30 867 N 76.8612 -1.46375 0.584142 0
M  V30 868 C 77.7912 -2.33103 -0.136037 0
M  V30 869 C 78.7722 -1.45431 -0.882255 0
M  V30 870 O 79.9572 -1.74246 -0.857434 0
M  V30 871 C 77.0872 -3.27731 -1.14933 0
M  V30 872 C 76.0412 -4.24855 -0.517862 0
M  V30 873 C 75.3672 -5.09001 -1.63773 0
M  V30 874 C 76.6672 -5.19439 0.545886 0
M  V30 875 H 78.3612 -2.93568 0.588086 0
M  V30 876 H 75.9072 -1.41166 0.284259 0
M  V30 877 H 77.8602 -3.87261 -1.66153 0
M  V30 878 H 76.5842 -2.65377 -1.90375 0
M  V30 879 H 75.2432 -3.6659 -0.0267361 0
M  V30 880 H 74.8912 -4.43031 -2.38185 0
M  V30 881 H 74.5912 -5.74777 -1.22085 0
M  V30 882 H 76.1152 -5.71396 -2.15266 0
M  V30 883 H 77.5292 -5.73177 0.118704 0
M  V30 884 H 75.9262 -5.93566 0.88317 0
M  V30 885 H 76.9962 -4.63285 1.43162 0
M  V30 886 N 78.3393 -0.321999 -1.54275 0
M  V30 887 C 79.5673 0.283052 -2.04955 0
M  V30 888 C 79.9823 1.45904 -1.19823 0
M  V30 889 O 79.3393 1.81063 -0.228545 0
M  V30 890 C 79.3903 0.719028 -3.54277 0
M  V30 891 O 79.1113 -0.410175 -4.36176 0
M  V30 892 C 80.6123 1.38705 -4.21041 0
M  V30 893 H 77.8323 0.0584616 -0.668448 0
M  V30 894 H 80.3763 -0.467734 -1.99079 0
M  V30 895 H 78.5313 1.41979 -3.60445 0
M  V30 896 H 78.9453 -0.0669416 -5.24457 0
M  V30 897 H 80.4193 1.64306 -5.2698 0
M  V30 898 H 80.8963 2.33385 -3.72059 0
M  V30 899 H 81.5023 0.728906 -4.19007 0
M  V30 900 N 79.8174 1.5752 -0.0501392 0
M  V30 901 C 81.0424 1.97376 0.636997 0
M  V30 902 C 81.4674 0.927466 1.63645 0
M  V30 903 O 80.8254 -0.10941 1.8097 0
M  V30 904 C 80.8734 3.36304 1.30123 0
M  V30 905 O 79.9774 3.34156 2.41689 0
M  V30 906 H 79.3184 0.642998 0.165679 0
M  V30 907 H 81.8484 2.04258 -0.118233 0
M  V30 908 H 81.8584 3.73008 1.65315 0
M  V30 909 H 80.5334 4.11993 0.568746 0
M  V30 910 H 79.1104 3.09196 2.08451 0
M  V30 911 N 81.2955 -0.223234 1.56011 0
M  V30 912 C 82.7065 -0.790368 1.69145 0
M  V30 913 C 83.0575 -1.85055 0.651845 0
M  V30 914 O 82.1825 -2.15498 -0.197359 0
M  V30 915 C 82.7775 -1.4404 3.06656 0
M  V30 916 C 81.3365 -1.95494 3.2165 0
M  V30 917 C 80.4835 -0.814506 2.65068 0
M  V30 918 H 83.4345 0.00139011 1.587 0
M  V30 919 H 83.4555 -2.30916 3.0242 0
M  V30 920 H 82.9675 -0.668543 3.82298 0
M  V30 921 H 81.0685 -2.75487 2.50874 0
M  V30 922 H 81.1815 -2.13607 4.28846 0
M  V30 923 H 79.5455 -1.22137 2.23505 0
M  V30 924 H 80.3285 -0.0553515 3.43255 0
M  V30 925 N 82.7736 -1.49793 -0.48987 0
M  V30 926 C 84.1846 -1.52914 -1.07118 0
M  V30 927 C 84.5356 -0.321738 -1.93544 0
M  V30 928 O 83.6606 0.567338 -2.08831 0
M  V30 929 C 84.2556 -2.771 -1.94938 0
M  V30 930 C 82.8146 -2.82963 -2.48212 0
M  V30 931 C 81.9616 -2.46972 -1.26096 0
M  V30 932 H 84.9126 -1.56329 -0.273289 0
M  V30 933 H 84.9336 -2.57892 -2.79771 0
M  V30 934 H 84.4456 -3.64959 -1.32009 0
M  V30 935 H 82.5466 -1.99411 -3.14748 0
M  V30 936 H 82.6596 -3.85406 -2.84603 0
M  V30 937 H 81.0236 -1.98994 -1.58976 0
M  V30 938 H 81.8066 -3.37118 -0.648581 0
M  V30 939 N 84.2517 0.741722 -1.39055 0
M  V30 940 C 85.1617 1.88621 -1.39496 0
M  V30 941 C 86.1777 1.71557 -0.290578 0
M  V30 942 O 87.3537 1.94275 -0.530954 0
M  V30 943 C 84.4187 3.24134 -1.23037 0
M  V30 944 C 83.4797 3.5364 -2.43387 0
M  V30 945 C 82.7127 4.82687 -2.27703 0
M  V30 946 O 82.9357 5.55922 -1.27696 0
M  V30 947 O 81.8697 5.1194 -3.16545 0
M  V30 948 H 85.6957 1.91203 -2.35956 0
M  V30 949 H 83.2807 0.888625 -1.20099 0
M  V30 950 H 85.1627 4.0513 -1.15964 0
M  V30 951 H 83.8377 3.22337 -0.296691 0
M  V30 952 H 82.7447 2.72758 -2.56035 0
M  V30 953 H 84.0777 3.60209 -3.35425 0
M  V30 954 N 85.7298 1.2412 0.971189 0
M  V30 955 C 87.1408 1.07236 1.52831 0
M  V30 956 C 87.4918 -0.357352 1.92918 0
M  V30 957 O 86.6168 -1.24528 1.76979 0
M  V30 958 C 87.2118 1.94043 2.77728 0
M  V30 959 C 85.7708 1.81394 3.29808 0
M  V30 960 C 84.9178 1.89189 2.02738 0
M  V30 961 H 87.8688 1.37648 0.789864 0
M  V30 962 H 87.8898 1.47066 3.5093 0
M  V30 963 H 87.4018 2.98093 2.4852 0
M  V30 964 H 85.5028 0.801634 3.63874 0
M  V30 965 H 85.6158 2.65294 3.98944 0
M  V30 966 H 83.9798 1.32877 2.17292 0
M  V30 967 H 84.7628 2.94812 1.759 0
M  V30 968 N 87.2079 -1.17134 1.05439 0
M  V30 969 C 88.4359 -1.91372 0.786414 0
M  V30 970 C 88.8509 -1.76955 -0.658202 0
M  V30 971 O 88.2079 -1.10838 -1.44987 0
M  V30 972 C 88.2589 -3.42356 1.1608 0
M  V30 973 O 87.9799 -3.56332 2.54871 0
M  V30 974 C 89.4809 -4.33663 0.919322 0
M  V30 975 H 86.7009 -0.607118 0.285743 0
M  V30 976 H 89.2449 -1.48525 1.40572 0
M  V30 977 H 87.3999 -3.82939 0.586191 0
M  V30 978 H 87.8139 -4.49896 2.69618 0
M  V30 979 H 89.2879 -5.38099 1.231 0
M  V30 980 H 89.7649 -4.38959 -0.145359 0
M  V30 981 H 90.3709 -3.98796 1.47789 0
M  V30 982 N 88.686 -0.835752 -1.33615 0
M  V30 983 C 89.932 -0.430596 -1.98176 0
M  V30 984 C 90.265 1.00684 -1.66061 0
M  V30 985 O 89.54 1.70339 -0.938877 0
M  V30 986 C 89.823 -0.648065 -3.5422 0
M  V30 987 C 89.676 -2.13255 -3.96033 0
M  V30 988 C 90.995 -0.0922113 -4.40003 0
M  V30 989 H 88.114 -0.157924 -0.719881 0
M  V30 990 H 90.756 -1.05069 -1.58305 0
M  V30 991 H 88.906 -0.120237 -3.88314 0
M  V30 992 H 90.578 -2.725 -3.72211 0
M  V30 993 H 88.821 -2.61823 -3.45878 0
M  V30 994 H 89.492 -2.23547 -5.04708 0
M  V30 995 H 91.968 -0.543343 -4.12537 0
M  V30 996 H 90.844 -0.274083 -5.48215 0
M  V30 997 H 91.105 1.00378 -4.30554 0
M  V30 998 N 90.1641 1.46063 -0.591896 0
M  V30 999 C 91.0971 2.27452 0.184617 0
M  V30 1000 C 92.0751 1.36188 0.888351 0
M  V30 1001 O 93.2591 1.65606 0.90039 0
M  V30 1002 C 90.3861 3.14162 1.26571 0
M  V30 1003 C 89.4321 4.21255 0.666814 0
M  V30 1004 S 90.2651 5.33034 -0.513345 0
M  V30 1005 C 91.4211 6.23311 0.56872 0
M  V30 1006 H 91.6541 2.92963 -0.505939 0
M  V30 1007 H 89.1871 1.49676 -0.379014 0
M  V30 1008 H 91.1451 3.6468 1.88463 0
M  V30 1009 H 89.8061 2.47946 1.92826 0
M  V30 1010 H 88.9991 4.81788 1.47974 0
M  V30 1011 H 88.6011 3.73797 0.123359 0
M  V30 1012 H 90.8931 6.61758 1.45198 0
M  V30 1013 H 91.8361 7.081 -7.23824e-05 0
M  V30 1014 H 92.2441 5.57646 0.876996 0
M  V30 1015 N 91.6422 0.330177 1.54103 0
M  V30 1016 C 92.8702 -0.272179 2.05102 0
M  V30 1017 C 93.2852 -1.45267 1.20595 0
M  V30 1018 O 92.6422 -1.8094 0.238144 0
M  V30 1019 C 92.6932 -0.70023 3.54653 0
M  V30 1020 O 92.4142 0.433301 4.35952 0
M  V30 1021 C 93.9152 -1.3647 4.21771 0
M  V30 1022 H 91.1352 -0.0549159 0.668749 0
M  V30 1023 H 93.6792 0.478285 1.98828 0
M  V30 1024 H 91.8342 -1.40066 3.61193 0
M  V30 1025 H 92.2482 0.0947539 5.24414 0
M  V30 1026 H 93.7222 -1.61509 5.27843 0
M  V30 1027 H 94.1992 -2.31409 3.73292 0
M  V30 1028 H 94.8052 -0.706675 4.19388 0
M  V30 1029 N 93.1203 -1.57491 0.0584922 0
M  V30 1030 C 94.0703 -2.08474 -0.923188 0
M  V30 1031 C 95.0543 -0.991479 -1.26722 0
M  V30 1032 O 96.2463 -1.25473 -1.24842 0
M  V30 1033 C 93.3753 -2.6392 -2.19548 0
M  V30 1034 C 92.4613 -3.80227 -1.87852 0
M  V30 1035 N 92.8523 -4.89714 -1.26546 0
M  V30 1036 C 91.1503 -3.89271 -2.17679 0
M  V30 1037 C 91.8513 -5.70689 -1.12644 0
M  V30 1038 N 90.8273 -5.18531 -1.63176 0
M  V30 1039 H 94.6293 -2.90517 -0.444653 0
M  V30 1040 H 92.1433 -1.61745 -0.145764 0
M  V30 1041 H 94.1403 -2.98752 -2.9078 0
M  V30 1042 H 92.8003 -1.83318 -2.68001 0
M  V30 1043 H 93.8113 -5.09358 -0.936757 0
M  V30 1044 H 90.4883 -3.19623 -2.68602 0
M  V30 1045 H 91.8783 -6.6875 -0.6499 0
M  V30 1046 N 94.5984 0.214957 -1.56127 0
M  V30 1047 C 95.8444 0.939762 -1.79712 0
M  V30 1048 C 96.1774 1.83723 -0.629247 0
M  V30 1049 O 95.4524 1.90925 0.371197 0
M  V30 1050 C 95.7354 1.77306 -3.13424 0
M  V30 1051 C 95.5884 0.90164 -4.40671 0
M  V30 1052 C 96.9074 2.74956 -3.43638 0
M  V30 1053 H 94.0264 0.340214 -0.653776 0
M  V30 1054 H 96.6684 0.20824 -1.88855 0
M  V30 1055 H 94.8184 2.39673 -3.0576 0
M  V30 1056 H 96.4904 0.294206 -4.60361 0
M  V30 1057 H 94.7334 0.207368 -4.33304 0
M  V30 1058 H 95.4044 1.51923 -5.30682 0
M  V30 1059 H 97.8804 2.22724 -3.51473 0
M  V30 1060 H 96.7564 3.30358 -4.38355 0
M  V30 1061 H 97.0174 3.53023 -2.66134 0
M  V30 1062 N 96.0765 1.50051 0.48192 0
M  V30 1063 C 97.4875 1.5348 1.06305 0
M  V30 1064 C 97.8385 0.331997 1.93371 0
M  V30 1065 O 96.9635 -0.556256 2.09129 0
M  V30 1066 C 97.5585 2.7813 1.93466 0
M  V30 1067 C 96.1175 2.84275 2.46707 0
M  V30 1068 C 95.2645 2.47637 1.24785 0
M  V30 1069 H 98.2155 1.56472 0.264995 0
M  V30 1070 H 98.2365 2.59372 2.78399 0
M  V30 1071 H 97.7485 3.65654 1.30072 0
M  V30 1072 H 95.8495 2.01077 3.13686 0
M  V30 1073 H 95.9625 3.8691 2.82555 0
M  V30 1074 H 94.3265 1.99835 1.57918 0
M  V30 1075 H 95.1095 3.37457 0.630694 0
M  V30 1076 N 97.5546 -0.734337 1.39446 0
M  V30 1077 C 98.7846 -1.52137 1.39778 0
M  V30 1078 C 99.1926 -1.89198 -0.00929312 0
M  V30 1079 O 98.5356 -1.54666 -0.991168 0
M  V30 1080 C 98.5976 -2.83762 2.20724 0
M  V30 1081 C 98.2616 -2.69131 3.69347 0
M  V30 1082 C 99.2586 -2.37635 4.62413 0
M  V30 1083 C 96.9436 -2.85982 4.1294 0
M  V30 1084 C 98.9376 -2.23172 5.97054 0
M  V30 1085 C 96.6246 -2.71137 5.47657 0
M  V30 1086 C 97.6226 -2.39777 6.39528 0
M  V30 1087 O 97.3106 -2.25026 7.71763 0
M  V30 1088 H 97.0426 -0.476717 0.479288 0
M  V30 1089 H 99.5966 -0.915012 1.83893 0
M  V30 1090 H 97.8266 -3.4666 1.71359 0
M  V30 1091 H 99.5156 -3.45383 2.13226 0
M  V30 1092 H 100.282 -2.24267 4.30034 0
M  V30 1093 H 96.1606 -3.09383 3.41765 0
M  V30 1094 H 99.7046 -1.98617 6.68728 0
M  V30 1095 H 95.6016 -2.84083 5.79626 0
M  V30 1096 H 96.3696 -2.40091 7.82495 0
M  V30 1097 N 99.0327 -1.24633 -0.964593 0
M  V30 1098 C 99.9647 -0.999302 -2.06268 0
M  V30 1099 C 100.978 0.0323226 -1.62768 0
M  V30 1100 O 102.167 -0.205079 -1.77318 0
M  V30 1101 C 99.2667 -0.486816 -3.35385 0
M  V30 1102 C 98.4397 -1.5823 -4.07777 0
M  V30 1103 C 97.4987 -1.07191 -5.15166 0
M  V30 1104 O 96.5247 -1.76426 -5.41168 0
M  V30 1105 N 97.7267 0.0920373 -5.80427 0
M  V30 1106 H 100.492 -1.94477 -2.28033 0
M  V30 1107 H 98.0527 -1.15704 -1.13244 0
M  V30 1108 H 100.045 -0.130066 -4.04491 0
M  V30 1109 H 98.6147 0.364459 -3.10468 0
M  V30 1110 H 97.8347 -2.11109 -3.32906 0
M  V30 1111 H 99.1227 -2.31854 -4.52903 0
M  V30 1112 H 98.5207 0.670784 -5.61709 0
M  V30 1113 H 97.0777 0.389905 -6.50633 0
M  V30 1114 N 100.511 1.16574 -1.06058 0
M  V30 1115 C 101.757 1.87324 -0.777022 0
M  V30 1116 C 102.09 1.81351 0.694645 0
M  V30 1117 O 101.365 1.22753 1.50871 0
M  V30 1118 C 101.648 3.36991 -1.26922 0
M  V30 1119 C 101.501 3.51667 -2.80447 0
M  V30 1120 C 102.82 4.3131 -0.87521 0
M  V30 1121 H 99.9388 0.680191 -0.28374 0
M  V30 1122 H 102.581 1.37036 -1.3161 0
M  V30 1123 H 100.731 3.79949 -0.81063 0
M  V30 1124 H 102.403 3.17664 -3.34495 0
M  V30 1125 H 100.646 2.93656 -3.19294 0
M  V30 1126 H 101.317 4.56766 -3.0995 0
M  V30 1127 H 103.793 3.9624 -1.27014 0
M  V30 1128 H 102.669 5.34545 -1.2471 0
M  V30 1129 H 102.93 4.41552 0.220071 0
M  V30 1130 N 101.989 0.842826 1.3317 0
M  V30 1131 C 102.919 0.294028 2.31641 0
M  V30 1132 C 103.9 -0.600401 1.59151 0
M  V30 1133 O 105.085 -0.523124 1.87022 0
M  V30 1134 C 102.215 -0.528416 3.43257 0
M  V30 1135 C 101.169 0.27056 4.27144 0
M  V30 1136 C 100.495 -0.675881 5.30411 0
M  V30 1137 C 101.795 1.48981 5.00602 0
M  V30 1138 H 103.489 1.11681 2.77791 0
M  V30 1139 H 101.035 0.538478 1.33553 0
M  V30 1140 H 102.988 -0.922674 4.11175 0
M  V30 1141 H 101.712 -1.38445 2.95805 0
M  V30 1142 H 100.371 0.646427 3.60856 0
M  V30 1143 H 100.019 -1.52842 4.79216 0
M  V30 1144 H 99.7189 -0.145374 5.8742 0
M  V30 1145 H 101.243 -1.06757 6.01195 0
M  V30 1146 H 102.657 1.16849 5.61266 0
M  V30 1147 H 101.054 1.95739 5.6728 0
M  V30 1148 H 102.124 2.25746 4.29147 0
M  V30 1149 N 103.467 -1.45747 0.599634 0
M  V30 1150 C 104.43 -2.28917 -0.113835 0
M  V30 1151 C 105.43 -1.3933 -0.802729 0
M  V30 1152 O 106.62 -1.61534 -0.652103 0
M  V30 1153 C 103.752 -3.20152 -1.17114 0
M  V30 1154 H 104.945 -2.93478 0.617289 0
M  V30 1155 H 102.498 -1.52137 0.358327 0
M  V30 1156 H 103.233 -2.60374 -1.93329 0
M  V30 1157 H 103.018 -3.86133 -0.681468 0
M  V30 1158 H 104.508 -3.82708 -1.67105 0
M  V30 1159 N 104.945 -0.338344 -1.53925 0
M  V30 1160 C 105.875 0.51328 -2.27789 0
M  V30 1161 C 106.856 1.107 -1.29149 0
M  V30 1162 O 108.041 1.12937 -1.57984 0
M  V30 1163 C 105.171 1.66697 -3.04679 0
M  V30 1164 C 104.125 1.20183 -4.1078 0
M  V30 1165 C 103.451 2.44363 -4.75595 0
M  V30 1166 C 104.751 0.30605 -5.21403 0
M  V30 1167 H 106.445 -0.102883 -2.99223 0
M  V30 1168 H 103.991 -0.0509219 -1.4391 0
M  V30 1169 H 105.944 2.26915 -3.55088 0
M  V30 1170 H 104.668 2.30995 -2.30887 0
M  V30 1171 H 103.327 0.622499 -3.61276 0
M  V30 1172 H 102.975 3.07057 -3.98403 0
M  V30 1173 H 102.675 2.13925 -5.47275 0
M  V30 1174 H 104.199 3.05317 -5.28786 0
M  V30 1175 H 105.613 0.814929 -5.67478 0
M  V30 1176 H 104.01 0.0937929 -6.00027 0
M  V30 1177 H 105.08 -0.65921 -4.80398 0
M  V30 1178 N 106.423 1.57458 -0.0668435 0
M  V30 1179 C 107.653 1.97337 0.611677 0
M  V30 1180 C 108.061 0.943744 1.63982 0
M  V30 1181 O 107.404 -0.0785584 1.83532 0
M  V30 1182 C 107.466 3.33511 1.34205 0
M  V30 1183 C 107.13 4.54598 0.467941 0
M  V30 1184 C 108.127 5.19186 -0.272439 0
M  V30 1185 C 105.812 5.0075 0.39427 0
M  V30 1186 C 107.806 6.28274 -1.07476 0
M  V30 1187 C 105.493 6.09711 -0.411729 0
M  V30 1188 C 106.491 6.73335 -1.14492 0
M  V30 1189 O 106.179 7.80199 -1.93763 0
M  V30 1190 H 105.911 0.654042 0.170893 0
M  V30 1191 H 108.465 2.04961 -0.134289 0
M  V30 1192 H 106.695 3.22487 2.13398 0
M  V30 1193 H 108.384 3.58029 1.91233 0
M  V30 1194 H 109.15 4.84477 -0.225086 0
M  V30 1195 H 105.029 4.51009 0.954569 0
M  V30 1196 H 108.573 6.77866 -1.64755 0
M  V30 1197 H 104.47 6.43854 -0.460664 0
M  V30 1198 H 105.238 7.97053 -1.86142 0
M  V30 1199 N 107.901 -0.206675 1.56239 0
M  V30 1200 C 108.849 -1.27571 1.94495 0
M  V30 1201 C 109.843 -1.47737 0.828862 0
M  V30 1202 O 111.049 -1.48735 1.0138 0
M  V30 1203 H 107.424 -0.428029 0.6183 0
M  V30 1204 H 109.395 -0.925961 2.8367 0
M  V30 1205 C 108.144 -2.61568 2.29079 0
M  V30 1206 H 107.467 -2.46863 3.14482 0
M  V30 1207 H 108.907 -3.35144 2.5972 0
M  V30 1208 C 107.366 -3.17695 1.12123 0
M  V30 1209 O 107.896 -3.99801 0.390153 0
M  V30 1210 N 106.102 -2.76276 0.901097 0
M  V30 1211 H 105.649 -2.09613 1.49733 0
M  V30 1212 H 105.607 -3.1417 0.120319 0
M  V30 1213 N 109.379 -1.50304 -0.473955 0
M  V30 1214 C 110.604 -1.65175 -1.25427 0
M  V30 1215 C 111.029 -0.333673 -1.85117 0
M  V30 1216 O 110.387 0.702114 -1.67153 0
M  V30 1217 C 110.435 -2.74295 -2.34082 0
M  V30 1218 O 109.539 -2.35349 -3.38651 0
M  V30 1219 H 108.88 -0.551944 -0.369126 0
M  V30 1220 H 111.41 -1.96662 -0.564364 0
M  V30 1221 H 111.42 -2.97285 -2.79438 0
M  V30 1222 H 110.095 -3.69959 -1.90008 0
M  V30 1223 H 108.672 -2.22794 -2.99027 0
M  V30 1224 N 110.857 0.726932 -1.39834 0
M  V30 1225 C 112.085 1.51613 -1.40787 0
M  V30 1226 C 112.5 1.88799 -0.00451505 0
M  V30 1227 O 111.857 1.54662 0.968809 0
M  V30 1228 C 111.908 2.79863 -2.28821 0
M  V30 1229 O 111.629 2.44253 -3.63692 0
M  V30 1230 C 113.13 3.73837 -2.38245 0
M  V30 1231 H 110.35 0.468264 -0.480593 0
M  V30 1232 H 112.894 0.897607 -1.83748 0
M  V30 1233 H 111.049 3.38027 -1.89252 0
M  V30 1234 H 111.463 3.26695 -4.1033 0
M  V30 1235 H 112.937 4.60699 -3.04073 0
M  V30 1236 H 113.414 4.16153 -1.40403 0
M  V30 1237 H 114.02 3.21589 -2.78317 0
M  V30 1238 N 112.336 1.25143 0.95797 0
M  V30 1239 C 113.752 1.01892 1.22842 0
M  V30 1240 C 113.952 -0.266311 1.99732 0
M  V30 1241 O 113.008 -0.979913 2.3271 0
M  V30 1242 C 114.321 2.24004 2.00606 0
M  V30 1243 C 115.869 2.28731 2.13662 0
M  V30 1244 C 116.344 3.5049 2.94823 0
M  V30 1245 N 117.835 3.50866 3.02403 0
M  V30 1246 C 118.57 4.4174 3.65586 0
M  V30 1247 N 118.066 5.42882 4.30408 0
M  V30 1248 N 119.859 4.29429 3.62694 0
M  V30 1249 H 112.01 2.07718 0.443493 0
M  V30 1250 H 114.273 0.912031 0.258657 0
M  V30 1251 H 113.979 3.17395 1.51503 0
M  V30 1252 H 113.853 2.26907 3.01319 0
M  V30 1253 H 116.24 1.35865 2.61963 0
M  V30 1254 H 116.321 2.29848 1.12265 0
M  V30 1255 H 115.965 4.43676 2.47213 0
M  V30 1256 H 115.895 3.46617 3.96439 0
M  V30 1257 H 118.386 2.777 2.56302 0
M  V30 1258 H 118.699 6.0844 4.76467 0
M  V30 1259 H 117.044 5.46758 4.29047 0
M  V30 1260 H 120.235 3.49643 3.11236 0
M  V30 1261 H 120.408 5.00448 4.1165 0
M  V30 1262 N 113.814 -1.1601 1.06675 0
M  V30 1263 C 114.724 -2.24156 0.692179 0
M  V30 1264 C 115.74 -1.71507 -0.293513 0
M  V30 1265 O 116.916 -2.009 -0.141861 0
M  V30 1266 C 113.981 -3.46587 0.0884131 0
M  V30 1267 C 113.042 -4.14257 1.12646 0
M  V30 1268 C 112.275 -5.30844 0.551416 0
M  V30 1269 O 112.498 -5.66858 -0.634656 0
M  V30 1270 O 111.432 -5.87848 1.29298 0
M  V30 1271 H 115.258 -2.58513 1.59388 0
M  V30 1272 H 112.843 -1.23599 0.83926 0
M  V30 1273 H 114.725 -4.20679 -0.246361 0
M  V30 1274 H 113.4 -3.13994 -0.786712 0
M  V30 1275 H 112.307 -3.42118 1.51348 0
M  V30 1276 H 113.64 -4.50914 1.97325 0
M  V30 1277 N 115.292 -0.849877 -1.32721 0
M  V30 1278 C 116.222 -0.306308 -2.31482 0
M  V30 1279 C 117.203 0.591952 -1.59468 0
M  V30 1280 O 118.388 0.513199 -1.87296 0
M  V30 1281 C 115.518 0.510204 -3.43532 0
M  V30 1282 C 114.472 -0.293209 -4.26994 0
M  V30 1283 C 113.798 0.647743 -5.30762 0
M  V30 1284 C 115.098 -1.51634 -4.99804 0
M  V30 1285 H 116.792 -1.13153 -2.77195 0
M  V30 1286 H 114.338 -0.545553 -1.33266 0
M  V30 1287 H 116.291 0.900856 -4.11658 0
M  V30 1288 H 115.015 1.36874 -2.96535 0
M  V30 1289 H 113.674 -0.665555 -3.60508 0
M  V30 1290 H 113.322 1.50299 -4.8002 0
M  V30 1291 H 113.022 0.11422 -5.87489 0
M  V30 1292 H 114.546 1.03567 -6.01753 0
M  V30 1293 H 115.96 -1.19824 -5.60638 0
M  V30 1294 H 114.357 -1.98745 -5.66234 0
M  V30 1295 H 115.427 -2.28018 -4.27943 0
M  V30 1296 N 116.77 1.45427 -0.607355 0
M  V30 1297 C 117.7 2.3329 0.0989352 0
M  V30 1298 C 118.681 1.46816 0.859007 0
M  V30 1299 O 119.866 1.75588 0.829604 0
M  V30 1300 C 116.996 3.29518 1.09705 0
M  V30 1301 C 115.95 4.25626 0.450206 0
M  V30 1302 C 115.276 5.11542 1.55655 0
M  V30 1303 C 116.576 5.18505 -0.628455 0
M  V30 1304 H 118.27 2.92595 -0.634716 0
M  V30 1305 H 115.816 1.40696 -0.306681 0
M  V30 1306 H 117.769 3.89855 1.59971 0
M  V30 1307 H 116.493 2.68372 1.86129 0
M  V30 1308 H 115.152 3.66586 -0.0315886 0
M  V30 1309 H 114.8 4.46765 2.31107 0
M  V30 1310 H 114.5 5.76647 1.12925 0
M  V30 1311 H 116.024 5.74748 2.06148 0
M  V30 1312 H 117.438 5.72916 -0.209877 0
M  V30 1313 H 115.835 5.92085 -0.977489 0
M  V30 1314 H 116.905 4.60948 -1.50514 0
M  V30 1315 N 118.248 0.346503 1.53744 0
M  V30 1316 C 119.158 -0.517293 2.28826 0
M  V30 1317 C 120.174 -1.10935 1.3405 0
M  V30 1318 O 121.35 -1.1244 1.6709 0
M  V30 1319 C 118.415 -1.65098 3.04866 0
M  V30 1320 C 117.476 -1.0884 4.15274 0
M  V30 1321 C 116.709 -2.16806 4.87679 0
M  V30 1322 O 116.932 -3.3758 4.59778 0
M  V30 1323 O 115.866 -1.80934 5.74061 0
M  V30 1324 H 119.692 0.0931396 3.03557 0
M  V30 1325 H 117.277 0.111458 1.48984 0
M  V30 1326 H 119.159 -2.31053 3.5241 0
M  V30 1327 H 117.834 -2.24717 2.32989 0
M  V30 1328 H 116.741 -0.3933 3.72027 0
M  V30 1329 H 118.074 -0.537036 4.89261 0
M  V30 1330 N 119.726 -1.57421 0.075193 0
M  V30 1331 C 120.636 -2.1642 -0.905511 0
M  V30 1332 C 121.652 -1.12828 -1.32461 0
M  V30 1333 O 122.828 -1.45109 -1.39661 0
M  V30 1334 C 119.893 -2.71693 -2.15369 0
M  V30 1335 C 118.954 -3.90171 -1.79068 0
M  V30 1336 C 118.187 -4.42798 -2.97936 0
M  V30 1337 O 118.41 -3.94416 -4.12058 0
M  V30 1338 O 117.344 -5.34085 -2.77555 0
M  V30 1339 H 121.17 -3.00588 -0.433626 0
M  V30 1340 H 118.755 -1.48664 -0.148067 0
M  V30 1341 H 120.637 -3.07104 -2.88557 0
M  V30 1342 H 119.312 -1.90582 -2.61649 0
M  V30 1343 H 118.219 -3.59606 -1.03122 0
M  V30 1344 H 119.552 -4.72584 -1.37569 0
M  V30 1345 N 121.204 0.198386 -1.56346 0
M  V30 1346 C 122.137 1.27381 -1.89339 0
M  V30 1347 C 123.115 1.44106 -0.753134 0
M  V30 1348 O 124.299 1.59549 -1.00381 0
M  V30 1349 C 121.426 2.6409 -2.12071 0
M  V30 1350 C 120.472 2.64253 -3.34772 0
M  V30 1351 S 121.305 2.16013 -4.89999 0
M  V30 1352 C 122.461 3.54553 -5.15794 0
M  V30 1353 H 122.694 0.992058 -2.8026 0
M  V30 1354 H 120.227 0.401726 -1.49082 0
M  V30 1355 H 122.185 3.42786 -2.2585 0
M  V30 1356 H 120.846 2.89478 -1.21906 0
M  V30 1357 H 120.039 3.64768 -3.47794 0
M  V30 1358 H 119.641 1.93637 -3.1997 0
M  V30 1359 H 121.933 4.50396 -5.06112 0
M  V30 1360 H 122.876 3.46428 -6.1757 0
M  V30 1361 H 123.284 3.49313 -4.43442 0
M  V30 1362 N 122.682 1.50554 0.465978 0
M  V30 1363 C 123.632 1.66177 1.56106 0
M  V30 1364 C 124.616 0.516265 1.52393 0
M  V30 1365 O 125.808 0.770906 1.5933 0
M  V30 1366 C 122.937 1.76396 2.94515 0
M  V30 1367 C 122.023 2.9664 3.03093 0
M  V30 1368 N 122.414 4.20245 2.81474 0
M  V30 1369 C 120.712 2.95304 3.34233 0
M  V30 1370 C 121.413 5.01259 2.95151 0
M  V30 1371 N 120.389 4.35318 3.25576 0
M  V30 1372 H 124.191 2.59434 1.38099 0
M  V30 1373 H 121.705 1.47808 0.6728 0
M  V30 1374 H 123.702 1.85694 3.73261 0
M  V30 1375 H 122.362 0.843017 3.13565 0
M  V30 1376 H 123.373 4.4966 2.56956 0
M  V30 1377 H 120.05 2.12729 3.59239 0
M  V30 1378 H 121.44 6.09564 2.82632 0
M  V30 1379 N 124.16 -0.719506 1.40217 0
M  V30 1380 C 125.408 -1.47641 1.3801 0
M  V30 1381 C 125.729 -1.94992 -0.018145 0
M  V30 1382 O 124.999 -1.70073 -0.972207 0
M  V30 1383 H 123.579 -0.547744 0.507923 0
M  V30 1384 H 126.241 -0.853187 1.75233 0
M  V30 1385 H 125.337 -2.35112 2.05253 0
M  V30 1386 N 125.638 -1.25649 -0.95132 0
M  V30 1387 C 126.548 -1.08073 -2.08224 0
M  V30 1388 C 127.564 -0.0169666 -1.73992 0
M  V30 1389 O 128.74 -0.218593 -2.0021 0
M  V30 1390 C 125.805 -0.704922 -3.39458 0
M  V30 1391 C 124.866 -1.84699 -3.87537 0
M  V30 1392 C 124.099 -1.48902 -5.12508 0
M  V30 1393 O 124.322 -0.386156 -5.69091 0
M  V30 1394 O 123.256 -2.32033 -5.55378 0
M  V30 1395 H 127.082 -2.02924 -2.25954 0
M  V30 1396 H 124.667 -1.04618 -1.06656 0
M  V30 1397 H 126.549 -0.507609 -4.18332 0
M  V30 1398 H 125.224 0.214291 -3.2299 0
M  V30 1399 H 124.131 -2.09919 -3.09653 0
M  V30 1400 H 125.464 -2.74557 -4.08509 0
M  V30 1401 N 127.117 1.15442 -1.07289 0
M  V30 1402 C 128.533 1.38201 -0.798288 0
M  V30 1403 C 128.733 1.92429 0.597769 0
M  V30 1404 O 127.789 2.12962 1.3566 0
M  V30 1405 C 129.102 2.35357 -1.87156 0
M  V30 1406 C 130.65 2.49021 -1.89624 0
M  V30 1407 C 131.125 3.49468 -2.96034 0
M  V30 1408 N 132.616 3.57003 -2.95132 0
M  V30 1409 C 133.351 4.34543 -3.74112 0
M  V30 1410 N 132.847 5.15421 -4.6294 0
M  V30 1411 N 134.64 4.29625 -3.62462 0
M  V30 1412 H 126.791 0.78584 -1.97328 0
M  V30 1413 H 129.054 0.408065 -0.855679 0
M  V30 1414 H 128.76 2.02626 -2.87464 0
M  V30 1415 H 128.634 3.35129 -1.73114 0
M  V30 1416 H 131.021 2.81051 -0.899687 0
M  V30 1417 H 131.102 1.4925 -2.07745 0
M  V30 1418 H 130.746 3.18173 -3.95889 0
M  V30 1419 H 130.676 4.48992 -2.75161 0
M  V30 1420 H 133.167 2.99276 -2.30743 0
M  V30 1421 H 133.48 5.7183 -5.19837 0
M  V30 1422 H 131.825 5.14729 -4.66989 0
M  V30 1423 H 135.016 3.65505 -2.92444 0
M  V30 1424 H 135.189 4.89807 -4.24256 0
M  V30 1425 N 128.595 0.856903 1.32268 0
M  V30 1426 C 129.505 0.306131 2.32594 0
M  V30 1427 C 130.521 -0.577209 1.64147 0
M  V30 1428 O 131.697 -0.477043 1.95669 0
M  V30 1429 C 128.762 -0.494561 3.43154 0
M  V30 1430 C 127.823 0.415186 4.27288 0
M  V30 1431 C 127.056 -0.347387 5.32568 0
M  V30 1432 O 127.279 -1.57708 5.48165 0
M  V30 1433 O 126.213 0.287982 6.01211 0
M  V30 1434 H 130.039 1.13737 2.81598 0
M  V30 1435 H 127.624 0.619902 1.35932 0
M  V30 1436 H 129.506 -0.948944 4.10576 0
M  V30 1437 H 128.181 -1.30257 2.96336 0
M  V30 1438 H 127.088 0.917793 3.62667 0
M  V30 1439 H 128.421 1.18844 4.77637 0
M  V30 1440 N 130.073 -1.45103 0.615059 0
M  V30 1441 C 130.983 -2.34382 -0.101034 0
M  V30 1442 C 131.999 -1.51681 -0.852585 0
M  V30 1443 O 133.175 -1.8446 -0.808484 0
M  V30 1444 C 130.24 -3.29417 -1.08099 0
M  V30 1445 C 129.301 -4.28025 -0.330577 0
M  V30 1446 C 128.534 -5.1852 -1.26385 0
M  V30 1447 O 128.757 -5.12598 -2.50198 0
M  V30 1448 O 127.691 -5.97122 -0.756866 0
M  V30 1449 H 131.517 -2.97033 0.632855 0
M  V30 1450 H 129.102 -1.4461 0.375293 0
M  V30 1451 H 130.984 -3.87958 -1.6452 0
M  V30 1452 H 129.659 -2.69321 -1.79577 0
M  V30 1453 H 128.566 -3.73078 0.276283 0
M  V30 1454 H 129.899 -4.90997 0.343866 0
M  V30 1455 N 131.551 -0.354651 -1.53558 0
M  V30 1456 C 132.799 0.237972 -2.00694 0
M  V30 1457 C 133.12 1.50173 -1.24391 0
M  V30 1458 O 132.39 1.92673 -0.354135 0
M  V30 1459 H 130.97 0.0909256 -0.741446 0
M  V30 1460 H 133.632 -0.478368 -1.88938 0
M  V30 1461 H 132.728 0.47264 -3.085 0
M  V30 1462 N 133.029 1.57378 -0.0835403 0
M  V30 1463 C 134.269 1.95808 0.586381 0
M  V30 1464 C 134.633 0.963706 1.66062 0
M  V30 1465 O 135.834 1.23608 2.38693 0
M  V30 1466 C 134.105 3.38808 1.13771 0
M  V30 1467 S 135.664 3.99225 1.82112 0
M  V30 1468 H 132.482 0.684675 0.191679 0
M  V30 1469 H 135.084 1.94843 -0.160194 0
M  V30 1470 H 133.788 4.08954 0.344197 0
M  V30 1471 H 133.319 3.43344 1.92038 0
M  V30 1472 H 135.334 3.87087 3.10449 0
M  V30 1473 N 134.507 -0.190092 1.56449 0
M  V30 1474 C 135.735 -0.925772 1.85033 0
M  V30 1475 C 136.15 -1.76638 0.666658 0
M  V30 1476 O 135.507 -1.78822 -0.364565 0
M  V30 1477 C 135.558 -1.81786 3.12468 0
M  V30 1478 O 135.279 -1.01118 4.26271 0
M  V30 1479 C 136.78 -2.6648 3.54265 0
M  V30 1480 H 134 -0.269872 0.614337 0
M  V30 1481 H 136.544 -0.195837 2.0356 0
M  V30 1482 H 134.699 -2.50136 2.95822 0
M  V30 1483 H 135.113 -1.61956 4.98869 0
M  V30 1484 H 136.587 -3.24722 4.46385 0
M  V30 1485 H 137.064 -3.40434 2.77491 0
M  V30 1486 H 137.67 -2.03493 3.73458 0
M  V30 1487 N 135.985 -1.50799 -0.457987 0
M  V30 1488 C 136.917 -1.66786 -1.57211 0
M  V30 1489 C 137.93 -0.548962 -1.53265 0
M  V30 1490 O 139.119 -0.8226 -1.58416 0
M  V30 1491 C 136.219 -1.64834 -2.96113 0
M  V30 1492 C 135.392 -2.92971 -3.24787 0
M  V30 1493 C 134.451 -2.83485 -4.43309 0
M  V30 1494 O 133.477 -3.5744 -4.42973 0
M  V30 1495 N 134.679 -1.97929 -5.45714 0
M  V30 1496 H 137.444 -2.62889 -1.43909 0
M  V30 1497 H 135.005 -1.48427 -0.646617 0
M  V30 1498 H 136.997 -1.56084 -3.7339 0
M  V30 1499 H 135.567 -0.764118 -3.03117 0
M  V30 1500 H 134.787 -3.15749 -2.36 0
M  V30 1501 H 136.075 -3.77834 -3.40762 0
M  V30 1502 H 135.473 -1.37182 -5.48815 0
M  V30 1503 H 134.03 -1.95073 -6.21924 0
M  V30 1504 N 137.463 0.71206 -1.40597 0
M  V30 1505 C 138.373 1.8562 -1.43466 0
M  V30 1506 C 139.389 1.70902 -0.326902 0
M  V30 1507 O 140.565 1.93105 -0.572043 0
M  V30 1508 C 137.63 3.21451 -1.29884 0
M  V30 1509 C 136.691 3.48398 -2.50833 0
M  V30 1510 C 135.924 4.77749 -2.3789 0
M  V30 1511 O 136.147 5.53089 -1.39459 0
M  V30 1512 O 135.081 5.05111 -3.27333 0
M  V30 1513 H 138.907 1.86155 -2.39958 0
M  V30 1514 H 136.492 0.86295 -1.21957 0
M  V30 1515 H 138.374 4.02579 -1.24531 0
M  V30 1516 H 137.049 3.21636 -0.364997 0
M  V30 1517 H 135.956 2.67265 -2.61763 0
M  V30 1518 H 137.289 3.53014 -3.4299 0
M  V30 1519 N 138.941 1.26152 0.944643 0
M  V30 1520 C 139.889 1.07215 2.06417 0
M  V30 1521 C 140.883 9.2007e-05 1.694 0
M  V30 1522 O 142.089 0.1565 1.79318 0
M  V30 1523 H 138.464 0.329837 0.675805 0
M  V30 1524 H 140.435 2.02099 2.19541 0
M  V30 1525 C 139.184 0.718197 3.40202 0
M  V30 1526 H 138.507 1.53497 3.69159 0
M  V30 1527 H 139.947 0.625459 4.19361 0
M  V30 1528 C 138.406 -0.576435 3.31932 0
M  V30 1529 O 138.936 -1.61574 3.67773 0
M  V30 1530 N 137.142 -0.565781 2.85039 0
M  V30 1531 H 136.689 0.280367 2.5607 0
M  V30 1532 H 136.647 -1.43213 2.79888 0
M  V30 1533 N 140.419 -1.14872 1.07899 0
M  V30 1534 C 141.647 -1.89661 0.82683 0
M  V30 1535 C 142.062 -1.78312 -0.620519 0
M  V30 1536 O 141.419 -1.13888 -1.42604 0
M  V30 1537 C 141.47 -3.39817 1.23316 0
M  V30 1538 O 141.191 -3.50845 2.62372 0
M  V30 1539 C 142.692 -4.31615 1.0111 0
M  V30 1540 H 139.912 -0.60092 0.298557 0
M  V30 1541 H 142.456 -1.4551 1.43691 0
M  V30 1542 H 140.611 -3.8161 0.667286 0
M  V30 1543 H 141.025 -4.44076 2.79101 0
M  V30 1544 H 142.499 -5.35367 1.34486 0
M  V30 1545 H 142.976 -4.39169 -0.0522168 0
M  V30 1546 H 143.582 -3.95572 1.56215 0
M  V30 1547 N 141.898 -0.863906 -1.31812 0
M  V30 1548 C 142.808 -0.318461 -2.32428 0
M  V30 1549 C 143.824 0.568496 -1.64451 0
M  V30 1550 O 145 0.46666 -1.95919 0
M  V30 1551 C 142.065 0.476355 -3.43412 0
M  V30 1552 C 141.126 -0.43784 -4.27061 0
M  V30 1553 C 140.359 0.319138 -5.32745 0
M  V30 1554 O 140.582 1.54799 -5.48993 0
M  V30 1555 O 139.516 -0.319861 -6.01049 0
M  V30 1556 H 143.342 -1.15229 -2.80991 0
M  V30 1557 H 140.927 -0.627103 -1.35602 0
M  V30 1558 H 142.809 0.927156 -4.11074 0
M  V30 1559 H 141.484 1.28683 -2.97022 0
M  V30 1560 H 140.391 -0.937013 -3.62175 0
M  V30 1561 H 141.724 -1.21375 -4.77 0
M  V30 1562 N 143.376 1.44774 -0.622745 0
M  V30 1563 C 144.601 2.06999 -0.128968 0
M  V30 1564 C 145.026 1.4617 1.1839 0
M  V30 1565 O 144.384 0.560007 1.72434 0
M  V30 1566 C 144.432 3.60595 -0.0188351 0
M  V30 1567 O 143.536 3.99398 1.02739 0
M  V30 1568 H 142.877 0.659047 -0.0809544 0
M  V30 1569 H 145.407 1.85784 -0.85705 0
M  V30 1570 H 145.417 4.07627 0.174476 0
M  V30 1571 H 144.092 4.04252 -0.977384 0
M  V30 1572 H 142.669 3.64011 0.809326 0
M  V30 1573 N 144.854 0.36279 1.53368 0
M  V30 1574 C 145.764 -0.492994 2.29362 0
M  V30 1575 C 146.78 -1.09507 1.35219 0
M  V30 1576 O 147.956 -1.10662 1.68273 0
M  V30 1577 C 145.021 -1.61855 3.066 0
M  V30 1578 C 144.082 -1.04429 4.16405 0
M  V30 1579 C 143.315 -2.11621 4.89951 0
M  V30 1580 O 143.538 -3.32684 4.63333 0
M  V30 1581 O 142.472 -1.74835 5.75948 0
M  V30 1582 H 146.298 0.125331 3.03441 0
M  V30 1583 H 143.883 0.127253 1.48857 0
M  V30 1584 H 145.765 -2.27302 3.54841 0
M  V30 1585 H 144.44 -2.22233 2.3536 0
M  V30 1586 H 143.347 -0.353819 3.72423 0
M  V30 1587 H 144.68 -0.485113 4.89804 0
M  V30 1588 N 146.332 -1.57332 0.0918853 0
M  V30 1589 C 147.562 -1.98286 -0.580205 0
M  V30 1590 C 147.97 -0.969713 -1.6246 0
M  V30 1591 O 147.313 0.0493501 -1.83634 0
M  V30 1592 C 147.375 -3.35603 -1.28882 0
M  V30 1593 C 147.039 -4.55285 -0.395559 0
M  V30 1594 C 148.036 -5.18687 0.355002 0
M  V30 1595 C 145.721 -5.01314 -0.314556 0
M  V30 1596 C 147.715 -6.26484 1.17458 0
M  V30 1597 C 145.402 -6.08979 0.508677 0
M  V30 1598 C 146.4 -6.71429 1.2519 0
M  V30 1599 O 146.088 -7.77018 2.06151 0
M  V30 1600 H 145.82 -0.656678 -0.160466 0
M  V30 1601 H 148.374 -2.04721 0.16688 0
M  V30 1602 H 146.604 -3.25842 -2.08241 0
M  V30 1603 H 148.293 -3.61026 -1.85512 0
M  V30 1604 H 149.059 -4.84058 0.302134 0
M  V30 1605 H 144.938 -4.5247 -0.882697 0
M  V30 1606 H 148.482 -6.75159 1.75518 0
M  V30 1607 H 144.379 -6.4304 0.563037 0
M  V30 1608 H 145.147 -7.93991 1.98799 0
M  V30 1609 N 147.81 0.181792 -1.56548 0
M  V30 1610 C 149.04 0.914618 -1.85252 0
M  V30 1611 C 149.448 1.76791 -0.673914 0
M  V30 1612 O 148.791 1.80009 0.366416 0
M  V30 1613 C 148.853 1.85019 -3.08234 0
M  V30 1614 C 148.517 1.17754 -4.41569 0
M  V30 1615 C 149.514 0.548035 -5.17003 0
M  V30 1616 C 147.199 1.17742 -4.88305 0
M  V30 1617 C 149.193 -0.0726128 -6.37359 0
M  V30 1618 C 146.88 0.552946 -6.08593 0
M  V30 1619 C 147.878 -0.070978 -6.82963 0
M  V30 1620 O 147.566 -0.685635 -8.00971 0
M  V30 1621 H 147.298 0.271695 -0.618998 0
M  V30 1622 H 149.852 0.189944 -2.0452 0
M  V30 1623 H 148.082 2.61491 -2.84885 0
M  V30 1624 H 149.771 2.45195 -3.23472 0
M  V30 1625 H 150.537 0.540174 -4.81982 0
M  V30 1626 H 146.416 1.65246 -4.30366 0
M  V30 1627 H 149.96 -0.560213 -6.95347 0
M  V30 1628 H 145.857 0.558354 -6.43081 0
M  V30 1629 H 146.625 -0.58385 -8.16415 0
M  V30 1630 N 149.288 1.51039 0.449983 0
M  V30 1631 C 150.251 1.70863 1.5277 0
M  V30 1632 C 151.251 0.578846 1.5002 0
M  V30 1633 O 152.441 0.846213 1.52266 0
M  V30 1634 C 149.573 1.75341 2.9235 0
M  V30 1635 H 150.766 2.67034 1.36502 0
M  V30 1636 H 148.319 1.40838 0.677812 0
M  V30 1637 H 149.054 0.809383 3.14037 0
M  V30 1638 H 148.839 2.57436 2.95752 0
M  V30 1639 H 150.329 1.92559 3.70555 0
M  V30 1640 N 150.766 -0.704594 1.40972 0
M  V30 1641 C 151.713 -1.81862 1.42109 0
M  V30 1642 C 152.683 -1.63781 0.276593 0
M  V30 1643 O 153.868 -1.84759 0.4763 0
M  V30 1644 C 151.008 -3.19669 1.30022 0
M  V30 1645 C 150.121 -3.49246 2.54267 0
M  V30 1646 C 149.256 -4.76618 2.3454 0
M  V30 1647 C 148.295 -4.99133 3.54306 0
M  V30 1648 N 147.432 -6.17726 3.33706 0
M  V30 1649 H 152.272 -1.80226 2.37324 0
M  V30 1650 H 149.809 -0.880238 1.17857 0
M  V30 1651 H 151.767 -3.99263 1.21018 0
M  V30 1652 H 150.397 -3.20506 0.384192 0
M  V30 1653 H 149.449 -2.64125 2.73756 0
M  V30 1654 H 150.761 -3.61788 3.43381 0
M  V30 1655 H 149.915 -5.64249 2.22952 0
M  V30 1656 H 148.654 -4.66305 1.42867 0
M  V30 1657 H 147.659 -4.09953 3.66359 0
M  V30 1658 H 148.884 -5.11311 4.4692 0
M  V30 1659 H 146.83 -6.08642 2.44725 0
M  V30 1660 H 146.747 -6.30995 4.16391 0
M  V30 1661 H 148.015 -7.08115 3.25873 0
M  V30 1662 N 152.244 -1.26651 -0.937939 0
M  V30 1663 C 153.154 -1.10276 -2.07066 0
M  V30 1664 C 154.17 -0.0354197 -1.73964 0
M  V30 1665 O 155.346 -0.239816 -1.99967 0
M  V30 1666 C 152.411 -0.740887 -3.38691 0
M  V30 1667 C 151.472 -1.88799 -3.85556 0
M  V30 1668 C 150.705 -1.54329 -5.10899 0
M  V30 1669 O 150.928 -0.446494 -5.6865 0
M  V30 1670 O 149.862 -2.37911 -5.52885 0
M  V30 1671 H 153.688 -2.05309 -2.23789 0
M  V30 1672 H 151.273 -1.05743 -1.0554 0
M  V30 1673 H 153.155 -0.55195 -4.1777 0
M  V30 1674 H 151.83 0.180022 -3.23199 0
M  V30 1675 H 150.737 -2.13191 -3.07409 0
M  V30 1676 H 152.07 -2.78874 -4.05574 0
M  V30 1677 N 153.722 1.14298 -1.08507 0
M  V30 1678 C 154.971 1.84708 -0.810305 0
M  V30 1679 C 155.284 1.83903 0.666271 0
M  V30 1680 O 156.49 2.50112 1.05624 0
M  V30 1681 C 154.946 3.31572 -1.39957 0
M  V30 1682 C 154.554 3.40791 -2.90801 0
M  V30 1683 C 156.298 4.07087 -1.20334 0
M  V30 1684 C 154.205 4.81872 -3.4286 0
M  V30 1685 H 153.135 0.691985 -0.299454 0
M  V30 1686 H 155.786 1.28841 -1.30661 0
M  V30 1687 H 154.168 3.87183 -0.830976 0
M  V30 1688 H 155.342 2.95225 -3.53806 0
M  V30 1689 H 153.657 2.78732 -3.0935 0
M  V30 1690 H 156.254 5.11225 -1.56693 0
M  V30 1691 H 156.597 4.16054 -0.143237 0
M  V30 1692 H 157.13 3.57779 -1.73893 0
M  V30 1693 H 153.869 4.78094 -4.48449 0
M  V30 1694 H 153.389 5.27972 -2.84615 0
M  V30 1695 H 155.068 5.50765 -3.39509 0
M  V30 1696 N 155.201 0.870884 1.31352 0
M  V30 1697 C 156.151 0.298889 2.26032 0
M  V30 1698 C 157.135 -0.564595 1.50669 0
M  V30 1699 O 158.327 -0.411323 1.72154 0
M  V30 1700 C 155.456 -0.497842 3.39671 0
M  V30 1701 C 154.542 0.378937 4.22404 0
M  V30 1702 N 154.933 1.47284 4.83881 0
M  V30 1703 C 153.231 0.171535 4.4567 0
M  V30 1704 C 153.932 2.01359 5.45738 0
M  V30 1705 N 152.908 1.31047 5.27568 0
M  V30 1706 H 156.71 1.13494 2.71102 0
M  V30 1707 H 154.224 0.718745 1.45629 0
M  V30 1708 H 156.221 -0.924155 4.06528 0
M  V30 1709 H 154.881 -1.33149 2.96144 0
M  V30 1710 H 155.892 1.85575 4.8351 0
M  V30 1711 H 152.569 -0.626091 4.12779 0
M  V30 1712 H 153.959 2.93143 6.0458 0
M  V30 1713 N 156.679 -1.44442 0.630414 0
M  V30 1714 C 157.626 -2.30678 -0.0749355 0
M  V30 1715 C 158.596 -1.4344 -0.837502 0
M  V30 1716 O 159.781 -1.72343 -0.818684 0
M  V30 1717 C 156.921 -3.28706 -1.05103 0
M  V30 1718 C 156.034 -4.31046 -0.286954 0
M  V30 1719 C 155.169 -5.16167 -1.2548 0
M  V30 1720 C 154.208 -6.10216 -0.479843 0
M  V30 1721 N 153.345 -6.88039 -1.39811 0
M  V30 1722 H 158.185 -2.90454 0.666386 0
M  V30 1723 H 155.722 -1.43107 0.340404 0
M  V30 1724 H 157.68 -3.84027 -1.63031 0
M  V30 1725 H 156.31 -2.70632 -1.75949 0
M  V30 1726 H 155.362 -3.78203 0.408243 0
M  V30 1727 H 156.674 -4.97794 0.316657 0
M  V30 1728 H 155.828 -5.76002 -1.90544 0
M  V30 1729 H 154.567 -4.49491 -1.89233 0
M  V30 1730 H 153.572 -5.49491 0.184295 0
M  V30 1731 H 154.797 -6.78928 0.152965 0
M  V30 1732 H 152.743 -6.24032 -2.02287 0
M  V30 1733 H 152.66 -7.51223 -0.848508 0
M  V30 1734 H 153.928 -7.52397 -2.03762 0
M  V30 1735 N 158.157 -0.370918 -1.53173 0
M  V30 1736 C 159.404 0.217102 -2.01333 0
M  V30 1737 C 159.732 1.48338 -1.25802 0
M  V30 1738 O 158.987 1.92698 -0.34146 0
M  V30 1739 C 159.286 0.549696 -3.53147 0
M  V30 1740 C 158.952 -0.622872 -4.46577 0
M  V30 1741 C 157.614 -0.944595 -4.71838 0
M  V30 1742 C 159.966 -1.40819 -5.01816 0
M  V30 1743 C 157.294 -2.05351 -5.49589 0
M  V30 1744 C 159.646 -2.50757 -5.80778 0
M  V30 1745 C 158.31 -2.83458 -6.04324 0
M  V30 1746 H 157.58 0.0794431 -0.736729 0
M  V30 1747 H 160.227 -0.504481 -1.84736 0
M  V30 1748 H 158.532 1.35237 -3.6772 0
M  V30 1749 H 160.229 1.017 -3.87889 0
M  V30 1750 H 156.819 -0.36209 -4.27068 0
M  V30 1751 H 161.003 -1.17289 -4.82242 0
M  V30 1752 H 156.259 -2.3108 -5.6605 0
M  V30 1753 H 160.433 -3.12022 -6.22588 0
M  V30 1754 H 158.06 -3.69508 -6.64355 0
M  V30 1755 N 159.635 1.57281 -0.100228 0
M  V30 1756 C 160.912 1.86014 0.604812 0
M  V30 1757 C 161.292 0.998025 1.86018 0
M  V30 1758 O 160.64 0.0718184 2.28387 0
M  V30 1759 C 160.85 3.36784 0.915278 0
M  V30 1760 C 162.198 4.04957 1.27651 0
M  V30 1761 O 163.222 3.41695 1.00613 0
M  V30 1762 O 162.081 5.16593 1.7831 0
M  V30 1763 H 159.175 0.76942 0.303185 0
M  V30 1764 H 161.721 1.69176 -0.133313 0
M  V30 1765 H 160.493 3.91292 0.0248896 0
M  V30 1766 H 160.116 3.58987 1.70921 0
M  V30 1767 N 161.113 -0.173488 1.56642 0
M  V30 1768 C 162.046 -1.24353 1.91342 0
M  V30 1769 C 163.024 -1.4289 0.775965 0
M  V30 1770 O 164.208 -1.57932 1.02907 0
M  V30 1771 C 161.335 -2.60683 2.16245 0
M  V30 1772 C 160.381 -2.58894 3.38934 0
M  V30 1773 S 161.214 -2.0819 4.93373 0
M  V30 1774 C 162.37 -3.46302 5.21369 0
M  V30 1775 H 162.603 -0.947345 2.81803 0
M  V30 1776 H 160.136 -0.377958 1.49703 0
M  V30 1777 H 162.094 -3.39149 2.31275 0
M  V30 1778 H 160.755 -2.87502 1.26496 0
M  V30 1779 H 159.948 -3.59188 3.53553 0
M  V30 1780 H 159.55 -1.88522 3.2301 0
M  V30 1781 H 161.842 -4.42287 5.13214 0
M  V30 1782 H 162.785 -3.3656 6.23003 0
M  V30 1783 H 163.193 -3.42214 4.48943 0
M  V30 1784 N 162.591 -1.51276 -0.441967 0
M  V30 1785 C 163.84 -1.6295 -1.18871 0
M  V30 1786 C 164.153 -0.349312 -1.92456 0
M  V30 1787 O 165.359 -0.345355 -2.69295 0
M  V30 1788 C 163.815 -2.87759 -2.16155 0
M  V30 1789 C 163.423 -4.22764 -1.48239 0
M  V30 1790 C 165.167 -3.08788 -2.91291 0
M  V30 1791 C 163.074 -5.38728 -2.4398 0
M  V30 1792 H 162.004 -0.606913 -0.447406 0
M  V30 1793 H 164.655 -1.77739 -0.456205 0
M  V30 1794 H 163.037 -2.66593 -2.92821 0
M  V30 1795 H 164.211 -4.54293 -0.771635 0
M  V30 1796 H 162.526 -4.07575 -0.852741 0
M  V30 1797 H 165.123 -3.92599 -3.63002 0
M  V30 1798 H 165.466 -2.21679 -3.5237 0
M  V30 1799 H 165.999 -3.30272 -2.21733 0
M  V30 1800 H 162.738 -6.28082 -1.87598 0
M  V30 1801 H 162.258 -5.1158 -3.13123 0
M  V30 1802 H 163.937 -5.70489 -3.05207 0
M  V30 1803 N 164.069 0.697108 -1.41344 0
M  V30 1804 C 165.001 1.8224 -1.39001 0
M  V30 1805 C 166.014 1.60152 -0.292428 0
M  V30 1806 O 167.203 1.69684 -0.554048 0
M  V30 1807 C 164.303 3.18976 -1.14489 0
M  V30 1808 C 163.476 3.68105 -2.36258 0
M  V30 1809 C 162.535 4.83506 -2.07625 0
M  V30 1810 O 161.561 4.95201 -2.8065 0
M  V30 1811 N 162.763 5.70637 -1.06555 0
M  V30 1812 H 165.528 1.84742 -2.35988 0
M  V30 1813 H 163.089 0.87937 -1.35936 0
M  V30 1814 H 165.081 3.93801 -0.932885 0
M  V30 1815 H 163.651 3.11508 -0.261043 0
M  V30 1816 H 162.871 2.84204 -2.7317 0
M  V30 1817 H 164.159 3.97667 -3.17393 0
M  V30 1818 H 163.557 5.63817 -0.461125 0
M  V30 1819 H 162.114 6.45368 -0.913444 0
M  V30 1820 N 165.547 1.27147 0.931209 0
M  V30 1821 C 166.795 1.13055 1.6752 0
M  V30 1822 C 167.116 -0.324791 1.92276 0
M  V30 1823 O 166.386 -1.22775 1.52654 0
M  V30 1824 H 164.966 0.415391 0.620854 0
M  V30 1825 H 167.628 1.59623 1.11833 0
M  V30 1826 H 166.724 1.65694 2.64485 0
M  V30 1827 N 167.025 -1.13721 1.09112 0
M  V30 1828 C 167.955 -2.21148 0.749385 0
M  V30 1829 C 168.936 -1.6792 -0.271475 0
M  V30 1830 O 170.121 -1.93693 -0.140251 0
M  V30 1831 C 167.251 -3.46905 0.165659 0
M  V30 1832 C 166.205 -4.13203 1.11567 0
M  V30 1833 C 165.531 -5.33248 0.393809 0
M  V30 1834 C 166.831 -4.60912 2.45678 0
M  V30 1835 H 168.525 -2.4999 1.64758 0
M  V30 1836 H 166.071 -1.20156 0.793626 0
M  V30 1837 H 168.024 -4.21313 -0.085466 0
M  V30 1838 H 166.748 -3.17449 -0.767714 0
M  V30 1839 H 165.407 -3.40758 1.35202 0
M  V30 1840 H 165.055 -5.00054 -0.543599 0
M  V30 1841 H 164.755 -5.78552 1.02721 0
M  V30 1842 H 166.279 -6.10413 0.150908 0
M  V30 1843 H 167.693 -5.26759 2.26269 0
M  V30 1844 H 166.09 -5.16944 3.04776 0
M  V30 1845 H 167.16 -3.75603 3.06677 0
M  V30 1846 N 168.503 -0.877838 -1.30888 0
M  V30 1847 C 169.466 -0.344265 -2.266 0
M  V30 1848 C 170.466 0.50922 -1.52524 0
M  V30 1849 O 171.656 0.317398 -1.71284 0
M  V30 1850 C 168.788 0.510198 -3.37061 0
M  V30 1851 H 169.981 -1.1893 -2.7531 0
M  V30 1852 H 167.534 -0.654088 -1.41956 0
M  V30 1853 H 168.269 1.37612 -2.93655 0
M  V30 1854 H 168.054 -0.101047 -3.9197 0
M  V30 1855 H 169.544 0.875537 -4.08319 0
M  V30 1856 N 169.982 1.44106 -0.638065 0
M  V30 1857 C 170.892 2.34513 0.0637334 0
M  V30 1858 C 171.908 1.53018 0.828346 0
M  V30 1859 O 173.084 1.85723 0.779036 0
M  V30 1860 C 170.149 3.31095 1.02844 0
M  V30 1861 C 169.21 4.28497 0.26244 0
M  V30 1862 C 168.443 5.20465 1.1812 0
M  V30 1863 O 168.666 5.16514 2.42011 0
M  V30 1864 O 167.6 5.98251 0.661774 0
M  V30 1865 H 171.426 2.95989 -0.68003 0
M  V30 1866 H 169.011 1.43994 -0.398252 0
M  V30 1867 H 170.893 3.90526 1.58327 0
M  V30 1868 H 169.568 2.72144 1.7527 0
M  V30 1869 H 168.475 3.72592 -0.335602 0
M  V30 1870 H 169.808 4.90388 -0.421936 0
M  V30 1871 N 171.46 0.379036 1.52974 0
M  V30 1872 C 172.41 -0.477772 2.22938 0
M  V30 1873 C 173.394 -1.03792 1.22948 0
M  V30 1874 O 174.586 -0.965725 1.48333 0
M  V30 1875 C 171.715 -1.60994 3.03209 0
M  V30 1876 C 170.801 -1.06203 4.10587 0
M  V30 1877 N 171.192 -0.238214 5.05239 0
M  V30 1878 C 169.49 -1.33554 4.25534 0
M  V30 1879 C 170.191 0.0633235 5.81666 0
M  V30 1880 N 169.167 -0.537901 5.40932 0
M  V30 1881 H 172.969 0.158295 2.93473 0
M  V30 1882 H 170.483 0.187778 1.61311 0
M  V30 1883 H 172.48 -2.23607 3.5186 0
M  V30 1884 H 171.14 -2.24893 2.34207 0
M  V30 1885 H 172.151 0.123695 5.17752 0
M  V30 1886 H 168.828 -1.97632 3.6776 0
M  V30 1887 H 170.218 0.730161 6.67921 0
M  V30 1888 N 172.938 -1.57226 0.108567 0
M  V30 1889 C 173.886 -2.16002 -0.862885 0
M  V30 1890 C 174.88 -1.10644 -1.28274 0
M  V30 1891 O 176.086 -1.28966 -1.2557 0
M  V30 1892 H 172.461 -0.691148 -0.296342 0
M  V30 1893 H 174.432 -2.96427 -0.342575 0
M  V30 1894 C 173.181 -2.76576 -2.10716 0
M  V30 1895 H 172.504 -3.5734 -1.793 0
M  V30 1896 H 173.944 -3.21253 -2.76717 0
M  V30 1897 C 172.403 -1.73137 -2.89007 0
M  V30 1898 O 172.933 -1.17842 -3.84026 0
M  V30 1899 N 171.139 -1.43317 -2.52801 0
M  V30 1900 H 170.686 -1.88473 -1.75601 0
M  V30 1901 H 170.644 -0.743485 -3.05483 0
M  V30 1902 N 174.416 0.165178 -1.56732 0
M  V30 1903 C 175.326 1.22423 -2.00125 0
M  V30 1904 C 176.342 1.48084 -0.913619 0
M  V30 1905 O 177.518 1.60112 -1.22172 0
M  V30 1906 C 174.583 2.54197 -2.35764 0
M  V30 1907 C 173.644 2.36343 -3.58386 0
M  V30 1908 C 172.877 3.61834 -3.92316 0
M  V30 1909 O 173.1 4.67267 -3.27135 0
M  V30 1910 O 172.034 3.55579 -4.85641 0
M  V30 1911 H 175.86 0.885886 -2.90492 0
M  V30 1912 H 173.445 0.372518 -1.44681 0
M  V30 1913 H 175.327 3.3192 -2.59629 0
M  V30 1914 H 174.002 2.87598 -1.48557 0
M  V30 1915 H 172.909 1.56632 -3.39731 0
M  V30 1916 H 174.242 2.07865 -4.46154 0
M  V30 1917 N 175.894 1.51508 0.433938 0
M  V30 1918 C 176.824 1.76016 1.53429 0
M  V30 1919 C 177.805 0.610112 1.58782 0
M  V30 1920 O 178.99 0.853177 1.74455 0
M  V30 1921 C 176.12 1.88831 2.9148 0
M  V30 1922 C 175.074 3.04288 3.00987 0
M  V30 1923 C 174.4 3.0229 4.4105 0
M  V30 1924 C 175.7 4.44193 2.74754 0
M  V30 1925 H 177.394 2.68152 1.33171 0
M  V30 1926 H 174.94 1.29035 0.639214 0
M  V30 1927 H 176.893 2.04559 3.6842 0
M  V30 1928 H 175.617 0.933455 3.12976 0
M  V30 1929 H 174.276 2.8827 2.26486 0
M  V30 1930 H 173.924 2.04576 4.59519 0
M  V30 1931 H 173.624 3.79822 4.4834 0
M  V30 1932 H 175.148 3.20116 5.1996 0
M  V30 1933 H 176.562 4.60544 3.41426 0
M  V30 1934 H 174.959 5.23457 2.9345 0
M  V30 1935 H 176.029 4.53996 1.70339 0
M  V30 1936 N 177.372 -0.689602 1.41712 0
M  V30 1937 C 178.335 -1.78521 1.43746 0
M  V30 1938 C 179.335 -1.57436 0.327191 0
M  V30 1939 O 180.525 -1.64 0.587348 0
M  V30 1940 C 177.657 -3.16971 1.25467 0
M  V30 1941 H 178.85 -1.78108 2.41283 0
M  V30 1942 H 176.403 -0.89781 1.27942 0
M  V30 1943 H 177.138 -3.23019 0.287948 0
M  V30 1944 H 176.923 -3.33678 2.05917 0
M  V30 1945 H 178.413 -3.96935 1.2974 0
M  V30 1946 N 178.85 -1.27639 -0.924453 0
M  V30 1947 C 180.096 -1.14336 -1.67497 0
M  V30 1948 C 180.429 0.309465 -1.91718 0
M  V30 1949 O 179.704 1.22608 -1.50989 0
M  V30 1950 C 179.987 -1.93096 -3.0395 0
M  V30 1951 C 179.84 -3.46381 -2.8695 0
M  V30 1952 C 181.159 -1.73798 -4.0433 0
M  V30 1953 H 178.278 -0.416728 -0.607871 0
M  V30 1954 H 180.92 -1.56832 -1.07256 0
M  V30 1955 H 179.07 -1.56982 -3.55372 0
M  V30 1956 H 180.742 -3.92343 -2.42621 0
M  V30 1957 H 178.985 -3.72557 -2.22225 0
M  V30 1958 H 179.656 -3.96735 -3.83804 0
M  V30 1959 H 182.132 -2.05293 -3.61931 0
M  V30 1960 H 181.008 -2.31294 -4.97789 0
M  V30 1961 H 181.269 -0.686725 -4.36734 0
M  V30 1962 N 180.328 1.1314 -1.09713 0
M  V30 1963 C 181.568 1.8613 -0.844683 0
M  V30 1964 C 181.932 1.81765 0.618491 0
M  V30 1965 O 183.133 2.50024 0.98699 0
M  V30 1966 C 181.404 3.30151 -1.36877 0
M  V30 1967 S 182.963 4.206 -1.25064 0
M  V30 1968 H 179.781 0.642056 -0.305427 0
M  V30 1969 H 182.383 1.36343 -1.4011 0
M  V30 1970 H 181.087 3.30883 -2.42786 0
M  V30 1971 H 180.618 3.85 -0.808614 0
M  V30 1972 H 182.633 4.95783 -0.203486 0
M  V30 1973 N 181.806 0.884767 1.30421 0
M  V30 1974 C 183.217 0.553656 1.78302 0
M  V30 1975 C 183.568 -0.930153 1.7275 0
M  V30 1976 O 182.693 -1.72681 1.30423 0
M  V30 1977 C 183.288 0.998234 3.2376 0
M  V30 1978 C 181.847 0.71854 3.69478 0
M  V30 1979 C 180.994 1.18132 2.50879 0
M  V30 1980 H 183.945 1.06901 1.17294 0
M  V30 1981 H 183.966 0.327118 3.79091 0
M  V30 1982 H 183.478 2.0782 3.27769 0
M  V30 1983 H 181.579 -0.349444 3.70958 0
M  V30 1984 H 181.692 1.30595 4.60958 0
M  V30 1985 H 180.056 0.600669 2.47516 0
M  V30 1986 H 180.839 2.26902 2.57624 0
M  V30 1987 N 183.284 -1.43765 0.645699 0
M  V30 1988 C 184.231 -2.30745 -0.0504648 0
M  V30 1989 C 185.201 -1.4432 -0.822241 0
M  V30 1990 O 186.386 -1.73202 -0.800358 0
M  V30 1991 C 183.526 -3.29802 -1.0161 0
M  V30 1992 C 182.639 -4.31326 -0.241219 0
M  V30 1993 C 181.774 -5.17469 -1.19998 0
M  V30 1994 C 180.813 -6.10691 -0.415094 0
M  V30 1995 N 179.95 -6.89483 -1.32506 0
M  V30 1996 H 184.79 -2.8973 0.697155 0
M  V30 1997 H 182.327 -1.42738 0.355563 0
M  V30 1998 H 184.285 -3.85734 -1.58949 0
M  V30 1999 H 182.915 -2.72483 -1.73069 0
M  V30 2000 H 181.967 -3.77749 0.448334 0
M  V30 2001 H 183.279 -4.9743 0.369437 0
M  V30 2002 H 182.433 -5.7799 -1.84424 0
M  V30 2003 H 181.172 -4.51473 -1.84455 0
M  V30 2004 H 180.177 -5.49265 0.242565 0
M  V30 2005 H 181.402 -6.78727 0.224966 0
M  V30 2006 H 179.348 -6.26142 -1.95657 0
M  V30 2007 H 179.265 -7.52081 -0.768783 0
M  V30 2008 H 180.533 -7.54516 -1.9577 0
M  V30 2009 N 184.763 -0.387143 -1.52771 0
M  V30 2010 C 186.011 0.195349 -2.01154 0
M  V30 2011 C 186.332 1.475 -1.27549 0
M  V30 2012 O 185.602 1.91878 -0.394924 0
M  V30 2013 H 184.182 0.075178 -0.743207 0
M  V30 2014 H 186.844 -0.518337 -1.87881 0
M  V30 2015 H 185.94 0.407096 -3.09434 0
M  V30 2016 N 186.241 1.57166 -0.116904 0
M  V30 2017 C 187.49 1.94298 0.541407 0
M  V30 2018 C 187.803 1.00236 1.67964 0
M  V30 2019 O 189.009 1.26826 2.40057 0
M  V30 2020 C 187.465 3.45306 1.01449 0
M  V30 2021 C 187.073 4.47899 -0.0951738 0
M  V30 2022 C 188.817 3.91361 1.6443 0
M  V30 2023 C 186.724 5.90083 0.394491 0
M  V30 2024 H 185.654 0.725308 0.206019 0
M  V30 2025 H 188.305 1.82446 -0.196419 0
M  V30 2026 H 186.687 3.52385 1.80667 0
M  V30 2027 H 187.861 4.52486 -0.871374 0
M  V30 2028 H 186.176 4.11583 -0.631505 0
M  V30 2029 H 188.773 4.95004 2.02176 0
M  V30 2030 H 189.116 3.3122 2.52189 0
M  V30 2031 H 189.649 3.87073 0.917559 0
M  V30 2032 H 186.388 6.53974 -0.447004 0
M  V30 2033 H 185.908 5.88921 1.13722 0
M  V30 2034 H 187.587 6.41307 0.856399 0
M  V30 2035 N 187.719 -0.156864 1.56817 0
M  V30 2036 C 188.947 -0.886316 1.86955 0
M  V30 2037 C 189.362 -1.75185 0.703975 0
M  V30 2038 O 188.719 -1.79555 -0.326552 0
M  V30 2039 C 188.77 -1.75117 3.16253 0
M  V30 2040 O 188.491 -0.920537 4.2832 0
M  V30 2041 C 189.992 -2.58905 3.59837 0
M  V30 2042 H 187.212 -0.25678 0.619923 0
M  V30 2043 H 189.756 -0.152615 2.0393 0
M  V30 2044 H 187.911 -2.43805 3.01062 0
M  V30 2045 H 188.325 -1.51337 5.02192 0
M  V30 2046 H 189.799 -3.1518 4.53172 0
M  V30 2047 H 190.276 -3.34472 2.84649 0
M  V30 2048 H 190.882 -1.95526 3.7769 0
M  V30 2049 N 189.197 -1.51736 -0.425897 0
M  V30 2050 C 190.422 -1.69082 -1.20108 0
M  V30 2051 C 190.847 -0.392398 -1.83962 0
M  V30 2052 O 190.205 0.64858 -1.69302 0
M  V30 2053 C 190.253 -2.81604 -2.25237 0
M  V30 2054 O 189.357 -2.46004 -3.30992 0
M  V30 2055 H 188.698 -0.563408 -0.35138 0
M  V30 2056 H 191.228 -1.98358 -0.501512 0
M  V30 2057 H 191.238 -3.06025 -2.69838 0
M  V30 2058 H 189.913 -3.75817 -1.78142 0
M  V30 2059 H 188.49 -2.32195 -2.91787 0
M  V30 2060 N 190.675 0.682077 -1.42076 0
M  V30 2061 C 191.622 1.79578 -1.44984 0
M  V30 2062 C 192.592 1.6332 -0.302614 0
M  V30 2063 O 193.777 1.83978 -0.505633 0
M  V30 2064 C 190.917 3.1756 -1.35091 0
M  V30 2065 C 190.03 3.45156 -2.59791 0
M  V30 2066 C 189.165 4.72826 -2.42093 0
M  V30 2067 C 188.204 4.93433 -3.62202 0
M  V30 2068 N 187.341 6.12338 -3.43491 0
M  V30 2069 H 192.181 1.76427 -2.40161 0
M  V30 2070 H 189.718 0.861376 -1.19242 0
M  V30 2071 H 191.676 3.97287 -1.27354 0
M  V30 2072 H 190.306 3.19854 -0.435133 0
M  V30 2073 H 189.358 2.59736 -2.77923 0
M  V30 2074 H 190.67 3.5628 -3.49094 0
M  V30 2075 H 189.824 5.60631 -2.319 0
M  V30 2076 H 188.563 4.63973 -1.50268 0
M  V30 2077 H 187.568 4.04073 -3.72834 0
M  V30 2078 H 188.793 5.04136 -4.54998 0
M  V30 2079 H 186.739 6.04672 -2.54377 0
M  V30 2080 H 186.656 6.2429 -4.26377 0
M  V30 2081 H 187.924 7.02841 -3.37097 0
M  V30 2082 N 192.153 1.28127 0.917671 0
M  V30 2083 C 193.399 1.15223 1.66888 0
M  V30 2084 C 193.732 -0.299293 1.9188 0
M  V30 2085 O 193.007 -1.21805 1.51637 0
M  V30 2086 C 193.29 1.94706 3.02922 0
M  V30 2087 C 193.143 3.47898 2.85109 0
M  V30 2088 C 194.462 1.75939 4.03402 0
M  V30 2089 H 191.581 0.419946 0.605652 0
M  V30 2090 H 194.223 1.57398 1.06423 0
M  V30 2091 H 192.373 1.58864 3.54534 0
M  V30 2092 H 194.045 3.93624 2.40537 0
M  V30 2093 H 192.288 3.7373 2.20246 0
M  V30 2094 H 192.959 3.98765 3.81694 0
M  V30 2095 H 195.435 2.07209 3.60837 0
M  V30 2096 H 194.311 2.33931 4.96556 0
M  V30 2097 H 194.572 0.709877 4.36364 0
M  V30 2098 N 193.631 -1.12557 1.10312 0
M  V30 2099 C 194.878 -1.84038 0.844759 0
M  V30 2100 C 195.206 -1.84026 -0.629668 0
M  V30 2101 O 194.461 -1.28026 -1.48013 0
M  V30 2102 C 194.76 -3.31462 1.33669 0
M  V30 2103 C 194.426 -3.51647 2.82232 0
M  V30 2104 C 193.088 -3.56864 3.22802 0
M  V30 2105 C 195.44 -3.58867 3.77974 0
M  V30 2106 C 192.768 -3.66844 4.57867 0
M  V30 2107 C 195.12 -3.70375 5.1284 0
M  V30 2108 C 193.784 -3.73848 5.52986 0
M  V30 2109 H 193.054 -0.673444 0.309119 0
M  V30 2110 H 195.701 -1.32824 1.37949 0
M  V30 2111 H 194.006 -3.85091 0.721949 0
M  V30 2112 H 195.703 -3.85236 1.11329 0
M  V30 2113 H 192.293 -3.48249 2.49842 0
M  V30 2114 H 196.477 -3.54107 3.47738 0
M  V30 2115 H 191.733 -3.67804 4.88396 0
M  V30 2116 H 195.907 -3.74904 5.86873 0
M  V30 2117 H 193.534 -3.81333 6.57639 0
M  V30 2118 N 195.109 -0.891671 -1.2995 0
M  V30 2119 C 196.525 -0.58662 -1.48428 0
M  V30 2120 C 196.725 0.873951 -1.81561 0
M  V30 2121 O 195.781 1.65471 -1.90724 0
M  V30 2122 C 197.094 -1.50553 -2.60296 0
M  V30 2123 C 198.642 -1.50988 -2.74175 0
M  V30 2124 C 199.117 -2.41488 -3.89163 0
M  V30 2125 N 200.608 -2.39489 -3.96483 0
M  V30 2126 C 201.343 -3.06223 -4.84784 0
M  V30 2127 N 200.839 -3.82206 -5.77833 0
M  V30 2128 N 202.632 -2.95421 -4.78208 0
M  V30 2129 H 194.783 -1.83644 -1.06718 0
M  V30 2130 H 197.046 -0.786455 -0.529332 0
M  V30 2131 H 196.752 -2.54581 -2.42654 0
M  V30 2132 H 196.626 -1.22008 -3.56923 0
M  V30 2133 H 199.013 -0.47708 -2.91218 0
M  V30 2134 H 199.094 -1.83567 -1.78148 0
M  V30 2135 H 198.738 -3.44857 -3.72876 0
M  V30 2136 H 198.668 -2.06222 -4.84541 0
M  V30 2137 H 201.159 -1.84278 -3.29924 0
M  V30 2138 H 201.472 -4.302 -6.41988 0
M  V30 2139 H 199.817 -3.86313 -5.77743 0
M  V30 2140 H 203.008 -2.35581 -4.04499 0
M  V30 2141 H 203.181 -3.47704 -5.46814 0
M  V30 2142 N 196.587 1.43421 -0.653314 0
M  V30 2143 C 197.834 2.01812 -0.166745 0
M  V30 2144 C 198.162 1.51535 1.21931 0
M  V30 2145 O 197.417 0.698975 1.82792 0
M  V30 2146 C 197.716 3.57176 -0.126623 0
M  V30 2147 C 197.382 4.26798 -1.45444 0
M  V30 2148 C 196.044 4.45534 -1.81805 0
M  V30 2149 C 198.396 4.66225 -2.32989 0
M  V30 2150 C 195.724 5.00961 -3.05377 0
M  V30 2151 C 198.076 5.23021 -3.55853 0
M  V30 2152 C 196.74 5.39973 -3.9241 0
M  V30 2153 H 196.01 0.738484 -0.0610162 0
M  V30 2154 H 198.657 1.71896 -0.84404 0
M  V30 2155 H 196.962 3.86634 0.634123 0
M  V30 2156 H 198.659 4.00112 0.266723 0
M  V30 2157 H 195.249 4.12561 -1.16153 0
M  V30 2158 H 199.433 4.51443 -2.06187 0
M  V30 2159 H 194.689 5.12271 -3.3375 0
M  V30 2160 H 198.863 5.52518 -4.23907 0
M  V30 2161 H 196.49 5.82687 -4.88242 0
M  V30 2162 N 198.065 0.39524 1.52563 0
M  V30 2163 C 199.013 -0.451859 2.28169 0
M  V30 2164 C 200.007 -1.05792 1.32304 0
M  V30 2165 O 201.213 -0.997718 1.49818 0
M  V30 2166 H 197.588 -0.164481 0.733792 0
M  V30 2167 H 199.559 0.207199 2.9768 0
M  V30 2168 C 198.308 -1.56385 3.10546 0
M  V30 2169 H 197.631 -1.10682 3.84174 0
M  V30 2170 H 199.071 -2.13067 3.66577 0
M  V30 2171 C 197.53 -2.52328 2.23231 0
M  V30 2172 O 198.06 -3.5588 1.86312 0
M  V30 2173 N 196.266 -2.22209 1.87274 0
M  V30 2174 H 195.813 -1.38033 2.17496 0
M  V30 2175 H 195.771 -2.86652 1.29143 0
M  V30 2176 N 199.544 -1.57102 0.125237 0
M  V30 2177 C 200.79 -1.95697 -0.532035 0
M  V30 2178 C 201.123 -1.009 -1.6593 0
M  V30 2179 O 200.398 -0.047347 -1.94442 0
M  V30 2180 C 200.681 -3.44181 -1.05884 0
M  V30 2181 C 200.534 -4.49752 0.0654392 0
M  V30 2182 C 201.853 -3.94655 -1.9477 0
M  V30 2183 H 198.972 -0.711571 -0.191925 0
M  V30 2184 H 201.614 -1.88923 0.20206 0
M  V30 2185 H 199.764 -3.50085 -1.68442 0
M  V30 2186 H 201.436 -4.55943 0.700982 0
M  V30 2187 H 199.679 -4.27653 0.727709 0
M  V30 2188 H 200.35 -5.50924 -0.344505 0
M  V30 2189 H 202.826 -3.91094 -1.42074 0
M  V30 2190 H 201.702 -4.99057 -2.28546 0
M  V30 2191 H 201.963 -3.35718 -2.87656 0
M  V30 2192 N 201.022 0.148545 -1.56898 0
M  V30 2193 C 202.247 0.880385 -1.87787 0
M  V30 2194 C 202.672 1.74018 -0.714093 0
M  V30 2195 O 202.03 1.78153 0.336343 0
M  V30 2196 C 202.078 1.71422 -3.17249 0
M  V30 2197 O 201.182 2.8183 -3.01074 0
M  V30 2198 H 200.523 0.245301 -0.617028 0
M  V30 2199 H 203.053 0.139826 -2.04122 0
M  V30 2200 H 203.063 2.10954 -3.49231 0
M  V30 2201 H 201.738 1.08284 -4.01556 0
M  V30 2202 H 200.315 2.45715 -2.80497 0
M  V30 2203 N 202.5 1.5196 0.417844 0
M  V30 2204 C 203.725 1.69717 1.1921 0
M  V30 2205 C 204.15 0.402148 1.83751 0
M  V30 2206 O 203.508 -0.639593 1.69643 0
M  V30 2207 C 203.556 2.82794 2.2374 0
M  V30 2208 O 202.66 2.47756 3.29683 0
M  V30 2209 H 202.001 0.565263 0.348387 0
M  V30 2210 H 204.531 1.98621 0.490985 0
M  V30 2211 H 204.541 3.07452 2.68212 0
M  V30 2212 H 203.216 3.76756 1.76146 0
M  V30 2213 H 201.793 2.33739 2.90552 0
M  V30 2214 N 203.978 -0.674533 1.42435 0
M  V30 2215 C 205.224 -1.43671 1.43131 0
M  V30 2216 C 205.557 -1.94142 0.0476021 0
M  V30 2217 O 204.832 -1.70924 -0.928188 0
M  V30 2218 C 205.115 -2.63355 2.45594 0
M  V30 2219 C 204.968 -2.18514 3.93156 0
M  V30 2220 C 206.287 -3.65571 2.45043 0
M  V30 2221 H 203.406 -0.521077 0.521198 0
M  V30 2222 H 206.048 -0.766551 1.7385 0
M  V30 2223 H 204.198 -3.2053 2.19528 0
M  V30 2224 H 205.87 -1.66504 4.30202 0
M  V30 2225 H 204.113 -1.50086 4.07009 0
M  V30 2226 H 204.784 -3.04484 4.60428 0
M  V30 2227 H 207.26 -3.18113 2.68223 0
M  V30 2228 H 206.136 -4.46893 3.18713 0
M  V30 2229 H 206.397 -4.16716 1.47649 0
M  V30 2230 N 205.456 -1.28612 -0.910864 0
M  V30 2231 C 206.366 -1.14643 -2.0468 0
M  V30 2232 C 207.382 -0.0723121 -1.7385 0
M  V30 2233 O 208.558 -0.282178 -1.99413 0
M  V30 2234 C 205.623 -0.812561 -3.37044 0
M  V30 2235 C 204.684 -1.96935 -3.81465 0
M  V30 2236 C 203.917 -1.65131 -5.07511 0
M  V30 2237 O 204.14 -0.567013 -5.67575 0
M  V30 2238 O 203.074 -2.49585 -5.47714 0
M  V30 2239 H 206.9 -2.1001 -2.19384 0
M  V30 2240 H 204.485 -1.07958 -1.03274 0
M  V30 2241 H 206.367 -0.640441 -4.16505 0
M  V30 2242 H 205.042 0.111426 -3.23508 0
M  V30 2243 H 203.949 -2.19664 -3.02818 0
M  V30 2244 H 205.282 -2.87414 -3.99567 0
M  V30 2245 N 206.934 1.1197 -1.10907 0
M  V30 2246 C 207.881 2.17846 -0.762345 0
M  V30 2247 C 208.851 1.63995 0.263599 0
M  V30 2248 O 210.036 1.90273 0.141773 0
M  V30 2249 C 207.176 3.44487 -0.205651 0
M  V30 2250 C 206.289 4.12369 -1.28748 0
M  V30 2251 C 205.424 5.26674 -0.691919 0
M  V30 2252 C 204.463 5.86431 -1.75399 0
M  V30 2253 N 203.6 6.92142 -1.17833 0
M  V30 2254 H 208.44 2.46851 -1.6694 0
M  V30 2255 H 205.977 1.21188 -0.833776 0
M  V30 2256 H 207.935 4.16981 0.135037 0
M  V30 2257 H 206.565 3.15884 0.664613 0
M  V30 2258 H 205.617 3.38003 -1.74522 0
M  V30 2259 H 206.929 4.52844 -2.09125 0
M  V30 2260 H 206.083 6.05953 -0.300963 0
M  V30 2261 H 204.822 4.8749 0.143232 0
M  V30 2262 H 203.827 5.05835 -2.15432 0
M  V30 2263 H 205.052 6.27685 -2.59208 0
M  V30 2264 H 202.998 6.54985 -0.364725 0
M  V30 2265 H 202.915 7.31242 -1.91887 0
M  V30 2266 H 204.183 7.75237 -0.81408 0
M  V30 2267 N 208.412 0.89855 1.29475 0
M  V30 2268 C 209.36 0.365253 2.29714 0
M  V30 2269 C 210.354 -0.534993 1.6073 0
M  V30 2270 O 211.56 -0.417921 1.75081 0
M  V30 2271 H 207.935 0.0994853 0.74539 0
M  V30 2272 H 209.906 1.22406 2.72138 0
M  V30 2273 C 208.655 -0.393159 3.4547 0
M  V30 2274 H 207.978 0.290332 3.98744 0
M  V30 2275 H 209.418 -0.731189 4.17648 0
M  V30 2276 C 207.877 -1.59539 2.9673 0
M  V30 2277 O 208.407 -2.69469 2.97908 0
M  V30 2278 N 206.613 -1.43716 2.52575 0
M  V30 2279 H 206.16 -0.542828 2.51816 0
M  V30 2280 H 206.118 -2.24288 2.20323 0
M  V30 2281 N 209.89 -1.43072 0.660911 0
M  V30 2282 C 211.306 -1.56169 0.329173 0
M  V30 2283 C 211.506 -1.64317 -1.16629 0
M  V30 2284 O 210.562 -1.60245 -1.95135 0
M  V30 2285 C 211.875 -2.81873 1.04729 0
M  V30 2286 C 213.423 -2.95627 1.02828 0
M  V30 2287 C 213.898 -4.24174 1.72744 0
M  V30 2288 N 215.389 -4.31055 1.69545 0
M  V30 2289 C 216.124 -5.29304 2.20511 0
M  V30 2290 N 215.62 -6.33786 2.79799 0
M  V30 2291 N 217.413 -5.21008 2.10966 0
M  V30 2292 H 209.564 -1.36027 1.63127 0
M  V30 2293 H 211.827 -0.653823 0.686454 0
M  V30 2294 H 211.533 -2.81942 2.10242 0
M  V30 2295 H 211.407 -3.72338 0.603702 0
M  V30 2296 H 213.794 -2.95094 -0.0184742 0
M  V30 2297 H 213.875 -2.06431 1.51063 0
M  V30 2298 H 213.519 -4.25467 2.7738 0
M  V30 2299 H 213.449 -5.1228 1.2197 0
M  V30 2300 H 215.94 -3.56174 1.26288 0
M  V30 2301 H 216.253 -7.05086 3.16344 0
M  V30 2302 H 214.598 -6.34387 2.83863 0
M  V30 2303 H 217.789 -4.38301 1.64347 0
M  V30 2304 H 217.962 -5.97416 2.50993 0
M  V30 2305 N 211.368 -0.403325 -1.52352 0
M  V30 2306 C 212.596 0.174012 -2.06167 0
M  V30 2307 C 213.011 1.39347 -1.27388 0
M  V30 2308 O 212.368 1.79597 -0.324201 0
M  V30 2309 C 212.419 0.530223 -3.5759 0
M  V30 2310 O 212.14 -0.640806 -4.33388 0
M  V30 2311 C 213.641 1.16192 -4.27802 0
M  V30 2312 H 210.861 0.0229464 -0.670608 0
M  V30 2313 H 213.405 -0.572604 -1.9632 0
M  V30 2314 H 211.56 1.22673 -3.67464 0
M  V30 2315 H 211.974 -0.344851 -5.23365 0
M  V30 2316 H 213.448 1.36141 -5.34948 0
M  V30 2317 H 213.925 2.13335 -3.83907 0
M  V30 2318 H 214.531 0.505775 -4.22282 0
M  V30 2319 N 212.846 1.57033 -0.133567 0
M  V30 2320 C 213.794 2.17348 0.828412 0
M  V30 2321 C 214.788 1.12671 1.26498 0
M  V30 2322 O 215.994 1.30947 1.23502 0
M  V30 2323 H 212.369 0.695775 0.285309 0
M  V30 2324 H 214.34 2.96935 0.295372 0
M  V30 2325 C 213.089 2.79893 2.06289 0
M  V30 2326 H 212.412 3.60147 1.73592 0
M  V30 2327 H 213.852 3.25615 2.71572 0
M  V30 2328 C 212.311 1.77713 2.86216 0
M  V30 2329 O 212.841 1.23937 3.82103 0
M  V30 2330 N 211.047 1.47321 2.50489 0
M  V30 2331 H 210.594 1.91243 1.7258 0
M  V30 2332 H 210.552 0.79199 3.04261 0
M  V30 2333 N 214.325 -0.140222 1.56975 0
M  V30 2334 C 215.255 -1.17456 2.01808 0
M  V30 2335 C 216.236 -1.44415 0.898794 0
M  V30 2336 O 217.421 -1.5522 1.16707 0
M  V30 2337 C 214.551 -2.50607 2.40444 0
M  V30 2338 C 213.505 -2.38155 3.55621 0
M  V30 2339 C 212.831 -3.76078 3.80091 0
M  V30 2340 C 214.131 -1.85991 4.88062 0
M  V30 2341 H 215.825 -0.801743 2.88466 0
M  V30 2342 H 213.371 -0.38422 1.38779 0
M  V30 2343 H 215.324 -3.23197 2.7041 0
M  V30 2344 H 214.048 -2.89737 1.50732 0
M  V30 2345 H 212.707 -1.68016 3.25832 0
M  V30 2346 H 212.355 -4.12656 2.87618 0
M  V30 2347 H 212.055 -3.68606 4.57606 0
M  V30 2348 H 213.579 -4.50206 4.12488 0
M  V30 2349 H 214.993 -2.4838 5.16701 0
M  V30 2350 H 213.39 -1.89393 5.6943 0
M  V30 2351 H 214.46 -0.816023 4.77984 0
M  V30 2352 N 215.803 -1.52179 -0.40978 0
M  V30 2353 C 217.05 -1.66206 -1.15679 0
M  V30 2354 C 217.378 -0.391674 -1.90516 0
M  V30 2355 O 216.633 0.62533 -1.8544 0
M  V30 2356 C 216.932 -2.83428 -2.17723 0
M  V30 2357 C 216.598 -4.21672 -1.59699 0
M  V30 2358 C 215.26 -4.59274 -1.43599 0
M  V30 2359 C 217.612 -5.07825 -1.17317 0
M  V30 2360 C 214.94 -5.80709 -0.836328 0
M  V30 2361 C 217.292 -6.29864 -0.587691 0
M  V30 2362 C 215.956 -6.66216 -0.413818 0
M  V30 2363 H 215.226 -0.608192 -0.423301 0
M  V30 2364 H 217.873 -1.86279 -0.444097 0
M  V30 2365 H 216.178 -2.57687 -2.95135 0
M  V30 2366 H 217.875 -2.91477 -2.75394 0
M  V30 2367 H 214.465 -3.9204 -1.73213 0
M  V30 2368 H 218.649 -4.79359 -1.28565 0
M  V30 2369 H 213.905 -6.07498 -0.689626 0
M  V30 2370 H 218.079 -6.95948 -0.250894 0
M  V30 2371 H 215.706 -7.60182 0.0529471 0
M  V30 2372 N 217.281 0.66697 -1.42791 0
M  V30 2373 C 218.697 0.981027 -1.25889 0
M  V30 2374 C 218.897 2.00793 -0.168695 0
M  V30 2375 O 217.953 2.48321 0.45747 0
M  V30 2376 C 219.266 1.47838 -2.61848 0
M  V30 2377 C 220.814 1.59575 -2.69267 0
M  V30 2378 C 221.289 2.12704 -4.05612 0
M  V30 2379 N 222.78 2.20026 -4.07606 0
M  V30 2380 C 223.515 2.62227 -5.09926 0
M  V30 2381 N 223.011 3.03824 -6.22626 0
M  V30 2382 N 224.804 2.62045 -4.97281 0
M  V30 2383 H 216.955 -0.0127891 -2.12396 0
M  V30 2384 H 219.218 0.0568258 -0.946295 0
M  V30 2385 H 218.924 0.798299 -3.4252 0
M  V30 2386 H 218.798 2.45579 -2.86305 0
M  V30 2387 H 221.185 2.26687 -1.88936 0
M  V30 2388 H 221.266 0.60302 -2.48591 0
M  V30 2389 H 220.91 1.46198 -4.86404 0
M  V30 2390 H 220.84 3.12782 -4.23645 0
M  V30 2391 H 223.331 1.90708 -3.2625 0
M  V30 2392 H 223.644 3.34734 -6.96544 0
M  V30 2393 H 221.989 3.01662 -6.26119 0
M  V30 2394 H 225.18 2.28916 -4.08308 0
M  V30 2395 H 225.353 2.94613 -5.77154 0
M  V30 2396 N 218.759 1.29093 0.90403 0
M  V30 2397 C 219.722 1.1386 1.98919 0
M  V30 2398 C 220.722 0.0753457 1.60623 0
M  V30 2399 O 221.912 0.321931 1.71199 0
M  V30 2400 C 219.044 0.740198 3.32767 0
M  V30 2401 H 220.237 2.10246 2.13861 0
M  V30 2402 H 217.79 1.12218 1.08797 0
M  V30 2403 H 218.525 -0.223997 3.23525 0
M  V30 2404 H 218.31 1.50838 3.61926 0
M  V30 2405 H 219.8 0.656546 4.12407 0
M  V30 2406 N 220.237 -1.11381 1.11499 0
M  V30 2407 C 221.147 -2.21019 0.786628 0
M  V30 2408 C 222.163 -1.72597 -0.220507 0
M  V30 2409 O 223.339 -2.01321 -0.0565251 0
M  V30 2410 C 220.404 -3.459 0.235333 0
M  V30 2411 C 219.465 -4.09107 1.30115 0
M  V30 2412 C 218.698 -5.28027 0.776068 0
M  V30 2413 O 218.921 -5.6904 -0.393661 0
M  V30 2414 O 217.855 -5.81835 1.54114 0
M  V30 2415 H 221.681 -2.51521 1.70209 0
M  V30 2416 H 219.266 -1.19928 0.890928 0
M  V30 2417 H 221.148 -4.21346 -0.067715 0
M  V30 2418 H 219.823 -3.17049 -0.652828 0
M  V30 2419 H 218.73 -3.35391 1.65722 0
M  V30 2420 H 220.063 -4.42139 2.16273 0
M  V30 2421 N 221.715 -0.905404 -1.28997 0
M  V30 2422 C 222.962 -0.534248 -1.95325 0
M  V30 2423 C 223.29 0.920535 -1.71337 0
M  V30 2424 O 222.545 1.66861 -1.02254 0
M  V30 2425 C 222.844 -0.779906 -3.48787 0
M  V30 2426 C 222.51 -2.21293 -3.92861 0
M  V30 2427 C 221.172 -2.60475 -4.04606 0
M  V30 2428 C 223.524 -3.14587 -4.15553 0
M  V30 2429 C 220.852 -3.9212 -4.36416 0
M  V30 2430 C 223.204 -4.45787 -4.48839 0
M  V30 2431 C 221.868 -4.84834 -4.58794 0
M  V30 2432 H 221.138 -0.195495 -0.714747 0
M  V30 2433 H 223.785 -1.14514 -1.53488 0
M  V30 2434 H 222.09 -0.0861365 -3.91705 0
M  V30 2435 H 223.787 -0.472029 -3.98212 0
M  V30 2436 H 220.377 -1.89887 -3.84241 0
M  V30 2437 H 224.561 -2.85528 -4.0594 0
M  V30 2438 H 219.817 -4.22086 -4.42327 0
M  V30 2439 H 223.991 -5.18098 -4.65346 0
M  V30 2440 H 221.618 -5.86877 -4.83197 0
M  V30 2441 N 223.193 1.4272 -0.668489 0
M  V30 2442 C 224.609 1.55992 -0.33745 0
M  V30 2443 C 224.809 1.64933 1.15756 0
M  V30 2444 O 223.865 1.61278 1.94282 0
M  V30 2445 C 225.178 2.81314 -1.06222 0
M  V30 2446 C 226.726 2.95078 -1.04394 0
M  V30 2447 C 227.201 4.23252 -1.74991 0
M  V30 2448 N 228.692 4.3015 -1.71829 0
M  V30 2449 C 229.427 5.28127 -2.23315 0
M  V30 2450 N 228.923 6.32293 -2.83156 0
M  V30 2451 N 230.716 5.19882 -2.13726 0
M  V30 2452 H 222.867 1.3516 -1.63846 0
M  V30 2453 H 225.13 0.650174 -0.689912 0
M  V30 2454 H 224.836 2.80823 -2.11734 0
M  V30 2455 H 224.71 3.72012 -0.62344 0
M  V30 2456 H 227.097 2.951 0.0028244 0
M  V30 2457 H 227.178 2.05627 -1.52155 0
M  V30 2458 H 226.822 4.2399 -2.79633 0
M  V30 2459 H 226.752 5.11626 -1.24685 0
M  V30 2460 H 229.243 3.55499 -1.28175 0
M  V30 2461 H 229.556 7.03398 -3.20079 0
M  V30 2462 H 227.901 6.32873 -2.87223 0
M  V30 2463 H 231.092 4.37423 -1.66669 0
M  V30 2464 H 231.265 5.96077 -2.54158 0
M  V30 2465 N 224.671 0.411399 1.52136 0
M  V30 2466 C 225.917 -0.163888 2.02137 0
M  V30 2467 C 226.25 -1.44597 1.29636 0
M  V30 2468 O 225.525 -1.90272 0.403353 0
M  V30 2469 C 225.808 -0.40927 3.57767 0
M  V30 2470 C 225.661 0.889643 4.40914 0
M  V30 2471 C 226.98 -1.19042 4.23694 0
M  V30 2472 H 224.099 -0.0580896 0.734707 0
M  V30 2473 H 226.741 0.54531 1.82007 0
M  V30 2474 H 224.891 -1.0134 3.7505 0
M  V30 2475 H 226.563 1.52575 4.35337 0
M  V30 2476 H 224.806 1.50011 4.07037 0
M  V30 2477 H 225.477 0.672314 5.4789 0
M  V30 2478 H 227.953 -0.678942 4.10524 0
M  V30 2479 H 226.829 -1.33086 5.32522 0
M  V30 2480 H 227.09 -2.21166 3.82803 0
M  V30 2481 N 226.149 -1.5696 0.141893 0
M  V30 2482 C 227.079 -2.19516 -0.795936 0
M  V30 2483 C 228.06 -1.14187 -1.26077 0
M  V30 2484 O 229.245 -1.42511 -1.31925 0
M  V30 2485 C 226.375 -2.81272 -2.03723 0
M  V30 2486 C 225.329 -3.92384 -1.70936 0
M  V30 2487 C 224.655 -4.41052 -3.02287 0
M  V30 2488 C 225.955 -5.13403 -0.959954 0
M  V30 2489 H 227.649 -2.98138 -0.274596 0
M  V30 2490 H 225.195 -1.43406 -0.130636 0
M  V30 2491 H 227.148 -3.237 -2.69808 0
M  V30 2492 H 225.872 -1.99973 -2.58221 0
M  V30 2493 H 224.531 -3.50566 -1.07232 0
M  V30 2494 H 224.179 -3.56582 -3.54765 0
M  V30 2495 H 223.879 -5.15993 -2.81114 0
M  V30 2496 H 225.403 -4.86146 -3.69451 0
M  V30 2497 H 226.817 -5.52706 -1.52279 0
M  V30 2498 H 225.214 -5.94073 -0.848357 0
M  V30 2499 H 226.284 -4.84875 0.0492434 0
M  V30 2500 N 227.627 0.131896 -1.57047 0
M  V30 2501 C 229.043 0.485031 -1.52051 0
M  V30 2502 C 229.243 1.82563 -0.85281 0
M  V30 2503 O 228.299 2.48817 -0.429694 0
M  V30 2504 C 229.612 0.481409 -2.96821 0
M  V30 2505 C 231.16 0.565868 -3.07842 0
M  V30 2506 C 231.635 0.592762 -4.54148 0
M  V30 2507 N 233.126 0.654564 -4.58552 0
M  V30 2508 C 233.861 0.696608 -5.69153 0
M  V30 2509 N 233.357 0.697078 -6.89284 0
M  V30 2510 N 235.15 0.738639 -5.57226 0
M  V30 2511 H 227.301 -0.746664 -1.98843 0
M  V30 2512 H 229.564 -0.273999 -0.90754 0
M  V30 2513 H 229.27 -0.435731 -3.4899 0
M  V30 2514 H 229.144 1.3139 -3.53577 0
M  V30 2515 H 231.531 1.47343 -2.55684 0
M  V30 2516 H 231.612 -0.29406 -2.54104 0
M  V30 2517 H 231.256 -0.310701 -5.06949 0
M  V30 2518 H 231.186 1.46939 -5.05684 0
M  V30 2519 H 233.677 0.660887 -3.72076 0
M  V30 2520 H 233.99 0.731426 -7.69331 0
M  V30 2521 H 232.335 0.66471 -6.91814 0
M  V30 2522 H 235.526 0.735545 -4.62285 0
M  V30 2523 H 235.699 0.767938 -6.43434 0
M  V30 2524 N 229.106 1.52395 0.401703 0
M  V30 2525 C 230.352 1.67065 1.14966 0
M  V30 2526 C 230.685 0.403052 1.89971 0
M  V30 2527 O 229.96 -0.598774 1.85054 0
M  V30 2528 C 230.243 2.8975 2.13815 0
M  V30 2529 C 230.096 4.26578 1.42658 0
M  V30 2530 C 231.415 3.07965 3.14397 0
M  V30 2531 H 228.534 0.607968 0.416587 0
M  V30 2532 H 231.176 1.84965 0.434511 0
M  V30 2533 H 229.326 2.74619 2.74803 0
M  V30 2534 H 230.998 4.53451 0.847329 0
M  V30 2535 H 229.241 4.27639 0.72849 0
M  V30 2536 H 229.912 5.08483 2.14823 0
M  V30 2537 H 232.388 3.22043 2.63491 0
M  V30 2538 H 231.264 3.95308 3.80819 0
M  V30 2539 H 231.525 2.21611 3.82545 0
M  V30 2540 N 230.584 -0.659388 1.43143 0
M  V30 2541 C 231.995 -1.24041 1.39537 0
M  V30 2542 C 232.346 -1.95963 0.0963364 0
M  V30 2543 O 231.471 -2.00892 -0.804438 0
M  V30 2544 C 232.066 -2.25601 2.52764 0
M  V30 2545 C 230.625 -2.79195 2.52443 0
M  V30 2546 C 229.772 -1.53743 2.30778 0
M  V30 2547 H 232.723 -0.451792 1.52133 0
M  V30 2548 H 232.744 -3.07651 2.23899 0
M  V30 2549 H 232.256 -1.73226 3.47296 0
M  V30 2550 H 230.357 -3.35649 1.61773 0
M  V30 2551 H 230.47 -3.2716 3.50004 0
M  V30 2552 H 228.834 -1.80869 1.79328 0
M  V30 2553 H 229.617 -1.03312 3.27386 0
M  V30 2554 N 232.062 -1.29571 -0.897171 0
M  V30 2555 C 233.01 -1.14802 -2.02295 0
M  V30 2556 C 234.004 -0.0629637 -1.69283 0
M  V30 2557 O 235.21 -0.222945 -1.78614 0
M  V30 2558 H 231.585 -0.354692 -0.663097 0
M  V30 2559 H 233.556 -2.10108 -2.11889 0
M  V30 2560 C 232.305 -0.843966 -3.37302 0
M  V30 2561 H 231.628 -1.67093 -3.63208 0
M  V30 2562 H 233.068 -0.780672 -4.16751 0
M  V30 2563 C 231.527 0.452843 -3.33843 0
M  V30 2564 O 232.057 1.47813 -3.73516 0
M  V30 2565 N 230.263 0.459601 -2.86943 0
M  V30 2566 H 229.81 -0.375213 -2.54853 0
M  V30 2567 H 229.768 1.32726 -2.85011 0
M  V30 2568 N 233.54 1.10788 -1.12088 0
M  V30 2569 C 234.951 1.64181 -0.88891 0
M  V30 2570 C 235.302 1.87508 0.577498 0
M  V30 2571 O 234.427 1.61434 1.44112 0
M  V30 2572 C 235.022 2.98257 -1.60712 0
M  V30 2573 C 233.581 3.4853 -1.42139 0
M  V30 2574 C 232.728 2.23208 -1.6454 0
M  V30 2575 H 235.679 0.943368 -1.27618 0
M  V30 2576 H 235.7 3.65552 -1.05604 0
M  V30 2577 H 235.212 2.81246 -2.67436 0
M  V30 2578 H 233.313 3.70692 -0.376552 0
M  V30 2579 H 233.426 4.26882 -2.17505 0
M  V30 2580 H 231.79 2.31169 -1.06925 0
M  V30 2581 H 232.573 2.08733 -2.72554 0
M  V30 2582 N 235.018 0.912232 1.28515 0
M  V30 2583 C 236.243 0.559774 1.99703 0
M  V30 2584 C 236.668 -0.851393 1.67729 0
M  V30 2585 O 236.026 -1.56875 0.908834 0
M  V30 2586 C 236.074 0.773874 3.52198 0
M  V30 2587 O 235.178 -0.167842 4.12058 0
M  V30 2588 H 234.519 0.21723 0.627461 0
M  V30 2589 H 237.049 1.22725 1.63706 0
M  V30 2590 H 237.059 0.683386 4.02236 0
M  V30 2591 H 235.734 1.80261 3.74805 0
M  V30 2592 H 234.311 -0.0287509 3.72889 0
M  V30 2593 N 236.496 -1.42363 0.676048 0
M  V30 2594 C 237.721 -2.06377 0.205705 0
M  V30 2595 C 238.146 -1.50463 -1.12883 0
M  V30 2596 O 237.504 -0.623619 -1.70237 0
M  V30 2597 C 237.552 -3.60277 0.152655 0
M  V30 2598 O 236.656 -4.02935 -0.87845 0
M  V30 2599 H 235.997 -0.655588 0.105359 0
M  V30 2600 H 238.527 -1.82475 0.925412 0
M  V30 2601 H 238.537 -4.07993 -0.0230675 0
M  V30 2602 H 237.212 -4.00346 1.12675 0
M  V30 2603 H 235.789 -3.66764 -0.673668 0
M  V30 2604 N 237.974 -0.419461 -1.51915 0
M  V30 2605 C 238.921 0.400927 -2.27291 0
M  V30 2606 C 239.891 1.03224 -1.30131 0
M  V30 2607 O 241.076 1.05455 -1.59009 0
M  V30 2608 C 238.216 1.50603 -3.10504 0
M  V30 2609 C 237.329 0.89462 -4.22635 0
M  V30 2610 C 236.464 1.97328 -4.93189 0
M  V30 2611 C 235.503 1.33935 -5.97267 0
M  V30 2612 N 234.64 2.3586 -6.61298 0
M  V30 2613 H 239.48 -0.248251 -2.96964 0
M  V30 2614 H 237.017 -0.134266 -1.46486 0
M  V30 2615 H 238.975 2.15783 -3.57062 0
M  V30 2616 H 237.605 2.12509 -2.42981 0
M  V30 2617 H 236.657 0.131583 -3.80172 0
M  V30 2618 H 237.969 0.391641 -4.9726 0
M  V30 2619 H 237.123 2.70211 -5.43204 0
M  V30 2620 H 235.862 2.50994 -4.18155 0
M  V30 2621 H 234.867 0.595896 -5.46561 0
M  V30 2622 H 236.092 0.810252 -6.74249 0
M  V30 2623 H 234.038 2.88639 -5.89087 0
M  V30 2624 H 233.955 1.90403 -7.3163 0
M  V30 2625 H 235.223 3.08282 -7.15949 0
M  V30 2626 N 239.452 1.56882 -0.150215 0
M  V30 2627 C 240.868 1.58263 0.20617 0
M  V30 2628 C 241.068 1.16464 1.64434 0
M  V30 2629 O 240.124 0.866422 2.3717 0
M  V30 2630 C 241.437 3.00649 -0.0555025 0
M  V30 2631 C 242.985 3.12999 0.00795388 0
M  V30 2632 C 243.46 4.5744 -0.226429 0
M  V30 2633 N 244.951 4.62875 -0.173469 0
M  V30 2634 C 245.686 5.72454 -0.329288 0
M  V30 2635 N 245.182 6.90669 -0.543005 0
M  V30 2636 N 246.975 5.61467 -0.266666 0
M  V30 2637 H 239.126 1.82345 -1.08922 0
M  V30 2638 H 241.389 0.844149 -0.431413 0
M  V30 2639 H 241.095 3.3563 -1.05096 0
M  V30 2640 H 240.969 3.71337 0.66246 0
M  V30 2641 H 243.356 2.77857 0.993966 0
M  V30 2642 H 243.437 2.4479 -0.742388 0
M  V30 2643 H 243.081 4.93287 -1.20956 0
M  V30 2644 H 243.011 5.2378 0.544274 0
M  V30 2645 H 245.502 3.77898 -0.0130709 0
M  V30 2646 H 245.815 7.70045 -0.651922 0
M  V30 2647 H 244.16 6.92581 -0.579366 0
M  V30 2648 H 247.351 4.67992 -0.100441 0
M  V30 2649 H 247.524 6.46816 -0.391535 0
M  V30 2650 N 240.93 -0.123565 1.57115 0
M  V30 2651 C 241.878 -1.17082 2.00984 0
M  V30 2652 C 242.872 -1.43136 0.906009 0
M  V30 2653 O 244.078 -1.43152 1.09121 0
M  V30 2654 H 240.453 -0.394653 0.64012 0
M  V30 2655 H 242.424 -0.774292 2.88179 0
M  V30 2656 C 241.173 -2.49057 2.42623 0
M  V30 2657 H 240.496 -2.29846 3.27125 0
M  V30 2658 H 241.936 -3.20906 2.7712 0
M  V30 2659 C 240.395 -3.11305 1.28805 0
M  V30 2660 O 240.925 -3.97171 0.60153 0
M  V30 2661 N 239.131 -2.71111 1.04628 0
M  V30 2662 H 238.678 -2.01382 1.60634 0
M  V30 2663 H 238.636 -3.1309 0.286685 0
M  V30 2664 N 242.408 -1.52605 -0.393616 0
M  V30 2665 C 243.318 -1.79971 -1.50492 0
M  V30 2666 C 244.334 -0.686181 -1.59899 0
M  V30 2667 O 245.51 -0.973274 -1.76322 0
M  V30 2668 C 242.575 -1.95867 -2.86072 0
M  V30 2669 C 241.636 -3.19781 -2.86424 0
M  V30 2670 C 240.869 -3.34909 -4.15538 0
M  V30 2671 O 241.092 -2.54948 -5.10253 0
M  V30 2672 O 240.026 -4.28141 -4.23059 0
M  V30 2673 H 243.852 -2.74328 -1.30299 0
M  V30 2674 H 241.437 -1.3764 -0.581005 0
M  V30 2675 H 243.319 -2.08056 -3.66457 0
M  V30 2676 H 241.994 -1.04699 -3.063 0
M  V30 2677 H 240.901 -3.13038 -2.04837 0
M  V30 2678 H 242.234 -4.1078 -2.71147 0
M  V30 2679 N 243.887 0.651787 -1.4349 0
M  V30 2680 C 244.819 1.77725 -1.44729 0
M  V30 2681 C 245.832 1.59141 -0.343231 0
M  V30 2682 O 247.021 1.67835 -0.607751 0
M  V30 2683 C 244.121 3.15172 -1.24579 0
M  V30 2684 C 243.294 3.60402 -2.47849 0
M  V30 2685 C 242.353 4.76656 -2.22902 0
M  V30 2686 O 241.379 4.86022 -2.96263 0
M  V30 2687 N 242.581 5.66958 -1.24656 0
M  V30 2688 H 245.346 1.77141 -2.41746 0
M  V30 2689 H 242.907 0.835678 -1.38665 0
M  V30 2690 H 244.899 3.90634 -1.0577 0
M  V30 2691 H 243.469 3.1052 -0.360015 0
M  V30 2692 H 242.689 2.75369 -2.82073 0
M  V30 2693 H 243.977 3.87368 -3.29884 0
M  V30 2694 H 243.375 5.62065 -0.640265 0
M  V30 2695 H 241.932 6.42135 -1.1183 0
M  V30 2696 N 245.365 1.30045 0.890287 0
M  V30 2697 C 246.781 1.08261 1.17268 0
M  V30 2698 C 246.981 -0.160063 2.00863 0
M  V30 2699 O 246.037 -0.855181 2.37577 0
M  V30 2700 C 247.35 2.34323 1.8845 0
M  V30 2701 C 248.898 2.39735 2.01237 0
M  V30 2702 C 249.373 3.65625 2.7583 0
M  V30 2703 N 250.864 3.66402 2.83379 0
M  V30 2704 C 251.599 4.60498 3.41657 0
M  V30 2705 N 251.095 5.64933 4.01026 0
M  V30 2706 N 252.888 4.48051 3.39421 0
M  V30 2707 H 245.039 2.09777 0.332762 0
M  V30 2708 H 247.302 0.92446 0.209948 0
M  V30 2709 H 247.008 3.2498 1.34465 0
M  V30 2710 H 246.882 2.4256 2.88867 0
M  V30 2711 H 249.269 1.4956 2.54393 0
M  V30 2712 H 249.35 2.35476 0.999232 0
M  V30 2713 H 248.994 4.56156 2.23347 0
M  V30 2714 H 248.924 3.67144 3.77509 0
M  V30 2715 H 251.415 2.90896 2.41222 0
M  V30 2716 H 251.728 6.32841 4.43545 0
M  V30 2717 H 250.073 5.68732 3.99461 0
M  V30 2718 H 253.264 3.65649 2.92264 0
M  V30 2719 H 253.437 5.21565 3.84544 0
M  V30 2720 N 246.843 -1.10192 1.12674 0
M  V30 2721 C 248.092 -1.81573 0.8783 0
M  V30 2722 C 248.405 -1.86249 -0.597557 0
M  V30 2723 O 249.611 -2.5386 -0.962681 0
M  V30 2724 C 248.067 -3.26149 1.52167 0
M  V30 2725 C 247.675 -3.29763 3.03249 0
M  V30 2726 C 249.419 -4.0234 1.3536 0
M  V30 2727 C 247.326 -4.68815 3.60508 0
M  V30 2728 H 246.256 -0.680394 0.324931 0
M  V30 2729 H 248.907 -1.23902 1.35353 0
M  V30 2730 H 247.289 -3.83832 0.974104 0
M  V30 2731 H 248.463 -2.8189 3.6452 0
M  V30 2732 H 246.778 -2.67059 3.19481 0
M  V30 2733 H 249.375 -5.05058 1.75559 0
M  V30 2734 H 249.718 -4.15235 0.297554 0
M  V30 2735 H 250.251 -3.51079 1.87052 0
M  V30 2736 H 246.99 -4.61121 4.65884 0
M  V30 2737 H 246.51 -5.17045 3.04014 0
M  V30 2738 H 248.189 -5.37785 3.59717 0
M  V30 2739 N 248.321 -0.919034 -1.28029 0
M  V30 2740 C 249.231 -0.416756 -2.30869 0
M  V30 2741 C 250.247 0.498235 -1.66714 0
M  V30 2742 O 251.423 0.383144 -1.97722 0
M  V30 2743 C 248.488 0.330274 -3.45123 0
M  V30 2744 C 247.549 -0.618578 -4.2482 0
M  V30 2745 C 246.782 0.0928959 -5.33619 0
M  V30 2746 O 247.005 1.31375 -5.55065 0
M  V30 2747 O 245.939 -0.574499 -5.99152 0
M  V30 2748 H 249.765 -1.27043 -2.75851 0
M  V30 2749 H 247.35 -0.684052 -1.3282 0
M  V30 2750 H 249.232 0.751972 -4.14636 0
M  V30 2751 H 247.907 1.1597 -3.02213 0
M  V30 2752 H 246.814 -1.08978 -3.57875 0
M  V30 2753 H 248.147 -1.41497 -4.71423 0
M  V30 2754 N 249.799 1.42003 -0.683588 0
M  V30 2755 C 250.729 2.33487 -0.024866 0
M  V30 2756 C 251.71 1.51163 0.779975 0
M  V30 2757 O 252.895 1.79739 0.735362 0
M  V30 2758 C 250.025 3.3487 0.920836 0
M  V30 2759 C 248.979 4.27414 0.223958 0
M  V30 2760 C 248.305 5.19074 1.2832 0
M  V30 2761 C 249.605 5.14445 -0.90242 0
M  V30 2762 H 251.299 2.88819 -0.788921 0
M  V30 2763 H 248.845 1.38873 -0.38083 0
M  V30 2764 H 250.798 3.97787 1.39081 0
M  V30 2765 H 249.522 2.77861 1.71642 0
M  V30 2766 H 248.181 3.65904 -0.225864 0
M  V30 2767 H 247.829 4.58387 2.071 0
M  V30 2768 H 247.529 5.81822 0.821995 0
M  V30 2769 H 249.053 5.84867 1.75392 0
M  V30 2770 H 250.467 5.70998 -0.513272 0
M  V30 2771 H 248.864 5.86072 -1.28997 0
M  V30 2772 H 249.934 4.52322 -1.74737 0
M  V30 2773 N 251.277 0.427512 1.51691 0
M  V30 2774 C 252.524 -0.142229 2.02 0
M  V30 2775 C 252.852 -1.43566 1.31221 0
M  V30 2776 O 252.107 -1.91298 0.412744 0
M  V30 2777 C 252.406 -0.418249 3.54944 0
M  V30 2778 C 252.072 0.788187 4.43958 0
M  V30 2779 C 250.734 1.11906 4.68007 0
M  V30 2780 C 253.086 1.59347 4.96244 0
M  V30 2781 C 250.414 2.25608 5.41588 0
M  V30 2782 C 252.766 2.7214 5.71072 0
M  V30 2783 C 251.43 3.05692 5.93387 0
M  V30 2784 H 250.7 -0.0520451 0.73917 0
M  V30 2785 H 253.347 0.572697 1.82736 0
M  V30 2786 H 251.652 -1.21496 3.72486 0
M  V30 2787 H 253.349 -0.872339 3.91397 0
M  V30 2788 H 249.939 0.520344 4.2543 0
M  V30 2789 H 254.123 1.35106 4.77556 0
M  V30 2790 H 249.379 2.51929 5.57083 0
M  V30 2791 H 253.553 3.34914 6.10578 0
M  V30 2792 H 251.18 3.9391 6.50184 0
M  V30 2793 N 252.755 -1.56801 0.158532 0
M  V30 2794 C 253.687 -2.14488 -0.807923 0
M  V30 2795 C 254.7 -1.09721 -1.20271 0
M  V30 2796 O 255.889 -1.36956 -1.14478 0
M  V30 2797 C 252.989 -2.66217 -2.09718 0
M  V30 2798 C 252.162 -3.95507 -1.86796 0
M  V30 2799 C 251.221 -4.3243 -2.99818 0
M  V30 2800 O 250.247 -5.00543 -2.71008 0
M  V30 2801 N 251.449 -3.92947 -4.27285 0
M  V30 2802 H 254.214 -2.98042 -0.314816 0
M  V30 2803 H 251.775 -1.61881 -0.0246692 0
M  V30 2804 H 253.767 -2.87924 -2.84398 0
M  V30 2805 H 252.337 -1.87324 -2.50257 0
M  V30 2806 H 251.557 -3.82309 -0.96089 0
M  V30 2807 H 252.845 -4.79972 -1.68833 0
M  V30 2808 H 252.243 -3.38087 -4.53557 0
M  V30 2809 H 250.8 -4.19681 -4.9871 0
M  V30 2810 N 254.233 0.115231 -1.57178 0
M  V30 2811 C 255.482 0.820945 -1.84237 0
M  V30 2812 C 255.795 1.80866 -0.744761 0
M  V30 2813 O 257.001 2.56083 -0.901871 0
M  V30 2814 C 255.457 1.51072 -3.26658 0
M  V30 2815 C 255.065 0.563795 -4.44438 0
M  V30 2816 C 256.809 2.20134 -3.62962 0
M  V30 2817 C 254.716 1.25701 -5.77887 0
M  V30 2818 H 253.646 0.310328 -0.687177 0
M  V30 2819 H 256.297 0.0737134 -1.83352 0
M  V30 2820 H 254.679 2.30471 -3.22024 0
M  V30 2821 H 255.853 -0.197247 -4.60378 0
M  V30 2822 H 254.168 -0.0200638 -4.16395 0
M  V30 2823 H 256.765 2.72696 -4.59936 0
M  V30 2824 H 257.108 2.98107 -2.90582 0
M  V30 2825 H 257.641 1.47619 -3.69396 0
M  V30 2826 H 254.38 0.518493 -6.53446 0
M  V30 2827 H 253.9 1.98997 -5.65827 0
M  V30 2828 H 255.579 1.78915 -6.2177 0
M  V30 2829 N 255.711 1.52812 0.385517 0
M  V30 2830 C 256.641 1.80808 1.47752 0
M  V30 2831 C 257.622 0.660318 1.5676 0
M  V30 2832 O 258.807 0.908246 1.71652 0
M  V30 2833 C 255.937 1.98008 2.85324 0
M  V30 2834 C 254.891 3.13709 2.91154 0
M  V30 2835 C 254.217 3.16169 4.31209 0
M  V30 2836 C 255.517 4.52709 2.60483 0
M  V30 2837 H 257.211 2.72253 1.24573 0
M  V30 2838 H 254.757 1.31003 0.597839 0
M  V30 2839 H 256.71 2.16176 3.61726 0
M  V30 2840 H 255.434 1.03255 3.09848 0
M  V30 2841 H 254.093 2.95329 2.17201 0
M  V30 2842 H 253.741 2.19092 4.52778 0
M  V30 2843 H 253.441 3.93894 4.36029 0
M  V30 2844 H 254.965 3.36496 5.09512 0
M  V30 2845 H 256.379 4.71173 3.26602 0
M  V30 2846 H 254.776 5.32528 2.76648 0
M  V30 2847 H 255.846 4.59186 1.55809 0
M  V30 2848 N 257.189 -0.644168 1.43834 0
M  V30 2849 C 258.605 -0.960875 1.27434 0
M  V30 2850 C 258.805 -2.00499 0.200618 0
M  V30 2851 O 257.861 -2.49018 -0.417906 0
M  V30 2852 C 259.174 -1.43653 2.64167 0
M  V30 2853 C 260.722 -1.55271 2.71772 0
M  V30 2854 C 261.197 -2.06224 4.08944 0
M  V30 2855 N 262.688 -2.13513 4.11055 0
M  V30 2856 C 263.423 -2.54081 5.14033 0
M  V30 2857 N 262.919 -2.9388 6.27381 0
M  V30 2858 N 264.712 -2.54101 5.01387 0
M  V30 2859 H 256.863 0.0465779 2.12349 0
M  V30 2860 H 259.126 -0.0417638 0.94708 0
M  V30 2861 H 258.832 -0.743706 3.43747 0
M  V30 2862 H 258.706 -2.40993 2.90176 0
M  V30 2863 H 261.093 -2.23653 1.92519 0
M  V30 2864 H 261.174 -0.563395 2.49519 0
M  V30 2865 H 260.818 -1.38441 4.88668 0
M  V30 2866 H 260.748 -3.06003 4.28567 0
M  V30 2867 H 263.239 -1.85493 3.29242 0
M  V30 2868 H 263.552 -3.2361 7.01781 0
M  V30 2869 H 261.897 -2.91663 6.30839 0
M  V30 2870 H 265.088 -2.22391 4.11898 0
M  V30 2871 H 265.261 -2.85394 5.81768 0
M  V30 2872 N 258.668 -1.30515 -0.883378 0
M  V30 2873 C 260.079 -1.17509 -1.45081 0
M  V30 2874 C 260.43 0.223605 -1.94922 0
M  V30 2875 O 259.555 1.12041 -1.85137 0
M  V30 2876 C 260.15 -2.12715 -2.63701 0
M  V30 2877 C 258.709 -2.03682 -3.16529 0
M  V30 2878 C 257.856 -2.02706 -1.89224 0
M  V30 2879 H 260.807 -1.42762 -0.693165 0
M  V30 2880 H 260.828 -1.70891 -3.39965 0
M  V30 2881 H 260.34 -3.14505 -2.27395 0
M  V30 2882 H 258.441 -1.05039 -3.57488 0
M  V30 2883 H 258.554 -2.92146 -3.7972 0
M  V30 2884 H 256.918 -1.4753 -2.07622 0
M  V30 2885 H 257.701 -3.06229 -1.55174 0
M  V30 2886 N 260.146 1.09593 -1.13257 0
M  V30 2887 C 261.423 1.78293 -0.804432 0
M  V30 2888 C 261.803 1.99004 0.70431 0
M  V30 2889 O 261.151 1.59007 1.641 0
M  V30 2890 C 261.361 3.10707 -1.5894 0
M  V30 2891 C 262.709 3.85443 -1.78099 0
M  V30 2892 O 263.733 3.20454 -1.55525 0
M  V30 2893 O 262.592 5.02108 -2.15753 0
M  V30 2894 H 259.686 0.773156 -0.293528 0
M  V30 2895 H 262.232 1.16164 -1.23709 0
M  V30 2896 H 261.004 2.91106 -2.61482 0
M  V30 2897 H 260.627 3.80558 -1.15157 0
M  V30 2898 N 261.624 0.925811 1.2754 0
M  V30 2899 C 262.534 0.428993 2.30644 0
M  V30 2900 C 263.55 -0.489387 1.66976 0
M  V30 2901 O 264.726 -0.372653 1.97922 0
M  V30 2902 C 261.791 -0.311967 3.45294 0
M  V30 2903 C 260.852 0.641098 4.24486 0
M  V30 2904 C 260.085 -0.0645955 5.33661 0
M  V30 2905 O 260.308 -1.28429 5.55754 0
M  V30 2906 O 259.242 0.606265 5.98839 0
M  V30 2907 H 263.068 1.28504 2.75173 0
M  V30 2908 H 260.653 0.691086 1.32455 0
M  V30 2909 H 262.535 -0.729972 4.15029 0
M  V30 2910 H 261.21 -1.14365 3.02824 0
M  V30 2911 H 260.117 1.10874 3.57292 0
M  V30 2912 H 261.45 1.43995 4.70666 0
M  V30 2913 N 263.102 -1.41638 0.69111 0
M  V30 2914 C 264.052 -2.28 -0.000107832 0
M  V30 2915 C 265.036 -1.41964 -0.757304 0
M  V30 2916 O 266.228 -1.65274 -0.633532 0
M  V30 2917 C 263.357 -3.30209 -0.938983 0
M  V30 2918 C 262.443 -4.23725 -0.17827 0
M  V30 2919 N 262.834 -4.99017 0.825563 0
M  V30 2920 C 261.132 -4.44071 -0.414392 0
M  V30 2921 C 261.833 -5.67431 1.28052 0
M  V30 2922 N 260.809 -5.40197 0.607304 0
M  V30 2923 H 264.611 -2.83644 0.769617 0
M  V30 2924 H 262.125 -1.53797 0.521562 0
M  V30 2925 H 264.122 -3.90898 -1.44929 0
M  V30 2926 H 262.782 -2.76126 -1.70836 0
M  V30 2927 H 263.793 -5.03671 1.20566 0
M  V30 2928 H 260.47 -4.01004 -1.162 0
M  V30 2929 H 261.86 -6.37801 2.11327 0
M  V30 2930 N 264.58 -0.43555 -1.51462 0
M  V30 2931 C 265.829 0.133007 -2.01261 0
M  V30 2932 C 266.142 1.43942 -1.32439 0
M  V30 2933 O 267.348 2.09081 -1.73198 0
M  V30 2934 C 265.804 0.287581 -3.58749 0
M  V30 2935 C 265.412 -1.00829 -4.36506 0
M  V30 2936 C 267.156 0.810004 -4.167 0
M  V30 2937 C 265.063 -0.819454 -5.85695 0
M  V30 2938 H 263.993 0.0534822 -0.752101 0
M  V30 2939 H 266.644 -0.565038 -1.74584 0
M  V30 2940 H 265.026 1.04859 -3.81865 0
M  V30 2941 H 266.2 -1.77749 -4.25138 0
M  V30 2942 H 264.515 -1.45911 -3.89999 0
M  V30 2943 H 267.112 0.967743 -5.2587 0
M  V30 2944 H 267.455 1.79196 -3.75758 0
M  V30 2945 H 267.988 0.107357 -3.97655 0
M  V30 2946 H 264.727 -1.77374 -6.31046 0
M  V30 2947 H 264.247 -0.0900208 -5.99732 0
M  V30 2948 H 265.926 -0.471949 -6.45276 0
M  V30 2949 N 266.058 1.56714 -0.166846 0
M  V30 2950 C 267.021 2.16539 0.751232 0
M  V30 2951 C 268.021 1.11228 1.16125 0
M  V30 2952 O 269.211 1.36765 1.07894 0
M  V30 2953 C 266.343 2.74462 2.02196 0
M  V30 2954 H 267.536 2.99013 0.230499 0
M  V30 2955 H 265.089 1.56081 0.0826982 0
M  V30 2956 H 265.824 1.95709 2.58589 0
M  V30 2957 H 265.609 3.51527 1.73698 0
M  V30 2958 H 267.099 3.20489 2.67725 0
M  V30 2959 N 267.536 -0.106894 1.57237 0
M  V30 2960 C 268.483 -1.13049 2.01217 0
M  V30 2961 C 269.453 -1.40471 0.886403 0
M  V30 2962 O 270.638 -1.52133 1.15153 0
M  V30 2963 C 267.778 -2.4487 2.43172 0
M  V30 2964 C 266.891 -2.24281 3.69218 0
M  V30 2965 C 266.026 -3.49417 4.00101 0
M  V30 2966 C 265.065 -3.24038 5.19294 0
M  V30 2967 N 264.202 -4.41409 5.45988 0
M  V30 2968 H 269.042 -0.748456 2.88448 0
M  V30 2969 H 266.579 -0.358054 1.42676 0
M  V30 2970 H 268.537 -3.21786 2.65537 0
M  V30 2971 H 267.167 -2.80944 1.58967 0
M  V30 2972 H 266.219 -1.38224 3.54398 0
M  V30 2973 H 267.531 -2.01512 4.56283 0
M  V30 2974 H 266.685 -4.34746 4.2318 0
M  V30 2975 H 265.424 -3.75229 3.11535 0
M  V30 2976 H 264.429 -2.37102 4.96047 0
M  V30 2977 H 265.654 -2.99584 6.09447 0
M  V30 2978 H 263.6 -4.67319 4.60379 0
M  V30 2979 H 263.517 -4.21788 6.274 0
M  V30 2980 H 264.785 -5.27836 5.73593 0
M  V30 2981 N 269.014 -1.53014 -0.377408 0
M  V30 2982 C 269.946 -1.74884 -1.48149 0
M  V30 2983 C 270.959 -0.629433 -1.5014 0
M  V30 2984 O 272.148 -0.905416 -1.53833 0
M  V30 2985 C 269.248 -1.80299 -2.86959 0
M  V30 2986 C 268.421 -3.09776 -3.08801 0
M  V30 2987 C 267.48 -3.06586 -4.27658 0
M  V30 2988 O 266.506 -3.80419 -4.23403 0
M  V30 2989 N 267.708 -2.26578 -5.34455 0
M  V30 2990 H 270.473 -2.70147 -1.29771 0
M  V30 2991 H 268.034 -1.51646 -0.56703 0
M  V30 2992 H 270.026 -1.75657 -3.64591 0
M  V30 2993 H 268.596 -0.92372 -2.98641 0
M  V30 2994 H 267.816 -3.27815 -2.18931 0
M  V30 2995 H 269.104 -3.95366 -3.20255 0
M  V30 2996 H 268.502 -1.66081 -5.40771 0
M  V30 2997 H 267.059 -2.27766 -6.10709 0
M  V30 2998 N 270.492 0.636531 -1.44174 0
M  V30 2999 C 271.908 0.954104 -1.27941 0
M  V30 3000 C 272.108 2.0039 -0.211248 0
M  V30 3001 O 271.164 2.49236 0.404695 0
M  V30 3002 C 272.477 1.4225 -2.64925 0
M  V30 3003 C 274.025 1.53827 -2.72592 0
M  V30 3004 C 274.5 2.04053 -4.10032 0
M  V30 3005 N 275.991 2.11331 -4.12182 0
M  V30 3006 C 276.726 2.51352 -5.15374 0
M  V30 3007 N 276.222 2.90549 -6.2893 0
M  V30 3008 N 278.015 2.51438 -5.02728 0
M  V30 3009 H 270.166 -0.0578386 -2.12321 0
M  V30 3010 H 272.429 0.0367406 -0.947288 0
M  V30 3011 H 272.135 0.725466 -3.44136 0
M  V30 3012 H 272.009 2.39451 -2.9145 0
M  V30 3013 H 274.396 2.22628 -1.93702 0
M  V30 3014 H 274.477 0.550154 -2.49814 0
M  V30 3015 H 274.121 1.35848 -4.89395 0
M  V30 3016 H 274.051 3.03726 -4.30184 0
M  V30 3017 H 276.542 1.83745 -3.30222 0
M  V30 3018 H 276.855 3.19884 -7.03487 0
M  V30 3019 H 275.2 2.88313 -6.32377 0
M  V30 3020 H 278.391 2.20203 -4.13072 0
M  V30 3021 H 278.564 2.82304 -5.83274 0
M  V30 3022 N 271.97 1.30982 0.876444 0
M  V30 3023 C 273.2 1.23063 1.65949 0
M  V30 3024 C 273.608 -0.207537 1.88058 0
M  V30 3025 O 272.951 -1.14781 1.43426 0
M  V30 3026 C 273.013 1.89768 3.05333 0
M  V30 3027 C 272.677 3.39106 3.0636 0
M  V30 3028 C 273.674 4.3496 2.84791 0
M  V30 3029 C 271.359 3.80693 3.27686 0
M  V30 3030 C 273.353 5.70375 2.84519 0
M  V30 3031 C 271.04 5.16223 3.27043 0
M  V30 3032 C 272.038 6.10875 3.05485 0
M  V30 3033 O 271.726 7.43928 3.04674 0
M  V30 3034 H 271.458 0.426685 0.524324 0
M  V30 3035 H 274.012 1.7329 1.10271 0
M  V30 3036 H 272.242 1.34082 3.6271 0
M  V30 3037 H 273.931 1.75853 3.65829 0
M  V30 3038 H 274.697 4.0416 2.68103 0
M  V30 3039 H 270.576 3.07457 3.43499 0
M  V30 3040 H 274.12 6.44228 2.67611 0
M  V30 3041 H 270.017 5.4666 3.43269 0
M  V30 3042 H 270.785 7.53022 3.2078 0
M  V30 3043 N 273.449 -1.08991 1.13837 0
M  V30 3044 C 274.698 -1.80631 0.897509 0
M  V30 3045 C 275.011 -1.86872 -0.57777 0
M  V30 3046 O 276.217 -2.54866 -0.935701 0
M  V30 3047 C 274.673 -3.24517 1.55618 0
M  V30 3048 C 274.281 -3.26529 3.0673 0
M  V30 3049 C 276.025 -4.00882 1.3962 0
M  V30 3050 C 273.932 -4.64965 3.65461 0
M  V30 3051 H 272.862 -0.67691 0.332129 0
M  V30 3052 H 275.513 -1.2246 1.3666 0
M  V30 3053 H 273.895 -3.82778 1.01476 0
M  V30 3054 H 275.069 -2.78008 3.67489 0
M  V30 3055 H 273.384 -2.63656 3.22296 0
M  V30 3056 H 275.981 -5.03167 1.80906 0
M  V30 3057 H 276.324 -4.14896 0.341578 0
M  V30 3058 H 276.857 -3.49075 1.90766 0
M  V30 3059 H 273.596 -4.56153 4.70749 0
M  V30 3060 H 273.116 -5.13792 3.09481 0
M  V30 3061 H 274.795 -5.3394 3.654 0
M  V30 3062 N 274.927 -0.932562 -1.27047 0
M  V30 3063 C 276.175 -0.574422 -1.93765 0
M  V30 3064 C 276.496 0.887993 -1.73608 0
M  V30 3065 O 275.766 1.62999 -1.08665 0
M  V30 3066 H 274.346 -0.209451 -0.717035 0
M  V30 3067 H 277.008 -1.18601 -1.5466 0
M  V30 3068 H 276.104 -0.784841 -3.02071 0
M  V30 3069 N 276.405 1.4127 -0.698611 0
M  V30 3070 C 277.653 2.00782 -0.230409 0
M  V30 3071 C 277.974 1.5562 1.17505 0
M  V30 3072 O 277.244 0.78815 1.79346 0
M  V30 3073 H 275.824 0.742464 -0.0821944 0
M  V30 3074 H 278.486 1.72852 -0.90045 0
M  V30 3075 H 277.582 3.11095 -0.25021 0
M  V30 3076 N 277.883 0.443576 1.51229 0
M  V30 3077 C 278.83 -0.364716 2.279 0
M  V30 3078 C 279.8 -1.0114 1.31757 0
M  V30 3079 O 280.985 -1.02912 1.60667 0
M  V30 3080 C 278.125 -1.45644 3.12861 0
M  V30 3081 C 277.238 -0.827269 4.24005 0
M  V30 3082 C 276.373 -1.89456 4.96266 0
M  V30 3083 C 275.412 -1.24416 5.99322 0
M  V30 3084 N 274.549 -2.25309 6.64966 0
M  V30 3085 H 279.389 0.295464 2.96532 0
M  V30 3086 H 276.926 0.157554 1.46254 0
M  V30 3087 H 278.884 -2.10076 3.6045 0
M  V30 3088 H 277.514 -2.08616 2.46331 0
M  V30 3089 H 276.566 -0.0710839 3.80334 0
M  V30 3090 H 277.878 -0.312481 4.9782 0
M  V30 3091 H 277.032 -2.61535 5.47434 0
M  V30 3092 H 275.771 -2.4431 4.22095 0
M  V30 3093 H 274.776 -0.508868 5.4744 0
M  V30 3094 H 276.001 -0.702882 6.75453 0
M  V30 3095 H 273.947 -2.79231 5.93604 0
M  V30 3096 H 273.864 -1.78739 7.34567 0
M  V30 3097 H 275.132 -2.96853 7.20763 0
M  V30 3098 N 279.361 -1.56624 0.175154 0
M  V30 3099 C 280.309 -2.19468 -0.770495 0
M  V30 3100 C 281.303 -1.15985 -1.23466 0
M  V30 3101 O 282.509 -1.34176 -1.19987 0
M  V30 3102 H 278.884 -0.703095 -0.266761 0
M  V30 3103 H 280.855 -2.97613 -0.216542 0
M  V30 3104 C 279.604 -2.85264 -1.98796 0
M  V30 3105 H 278.927 -3.64623 -1.63983 0
M  V30 3106 H 280.367 -3.327 -2.62843 0
M  V30 3107 C 278.826 -1.85239 -2.81404 0
M  V30 3108 O 279.356 -1.34024 -3.78682 0
M  V30 3109 N 277.562 -1.53911 -2.46495 0
M  V30 3110 H 277.109 -1.95751 -1.67449 0
M  V30 3111 H 277.067 -0.872382 -3.02054 0
M  V30 3112 N 280.839 0.0985539 -1.57292 0
M  V30 3113 C 281.769 1.12064 -2.04851 0
M  V30 3114 C 282.75 1.41981 -0.936767 0
M  V30 3115 O 283.935 1.52071 -1.20781 0
M  V30 3116 C 281.065 2.44144 -2.47004 0
M  V30 3117 C 280.019 2.28643 -3.6181 0
M  V30 3118 C 279.345 3.65869 -3.89929 0
M  V30 3119 C 280.645 1.72986 -4.92822 0
M  V30 3120 H 282.339 0.724979 -2.9049 0
M  V30 3121 H 279.885 0.34729 -1.39749 0
M  V30 3122 H 281.838 3.15914 -2.78884 0
M  V30 3123 H 280.562 2.85639 -1.5836 0
M  V30 3124 H 279.221 1.59318 -3.30172 0
M  V30 3125 H 278.869 4.04885 -2.98458 0
M  V30 3126 H 278.569 3.56344 -4.67218 0
M  V30 3127 H 280.093 4.39112 -4.2428 0
M  V30 3128 H 281.507 2.34593 -5.23105 0
M  V30 3129 H 279.904 1.74229 -5.74251 0
M  V30 3130 H 280.974 0.689007 -4.7998 0
M  V30 3131 N 282.317 1.53212 0.369288 0
M  V30 3132 C 283.728 1.60943 0.946276 0
M  V30 3133 C 284.079 0.47452 1.90375 0
M  V30 3134 O 283.204 -0.399597 2.12679 0
M  V30 3135 C 283.799 2.91715 1.72302 0
M  V30 3136 C 282.358 3.01792 2.24941 0
M  V30 3137 C 281.505 2.56211 1.06072 0
M  V30 3138 H 284.456 1.58007 0.148198 0
M  V30 3139 H 284.477 2.79309 2.58393 0
M  V30 3140 H 283.989 3.74295 1.0259 0
M  V30 3141 H 282.09 2.23791 2.97906 0
M  V30 3142 H 282.203 4.06803 2.53077 0
M  V30 3143 H 280.567 2.10998 1.4266 0
M  V30 3144 H 281.35 3.41206 0.378639 0
M  V30 3145 N 283.795 -0.628877 1.44509 0
M  V30 3146 C 285.023 -1.41554 1.50897 0
M  V30 3147 C 285.438 -1.8832 0.134564 0
M  V30 3148 O 284.795 -1.60969 -0.859965 0
M  V30 3149 C 284.846 -2.63435 2.47556 0
M  V30 3150 O 284.567 -2.18619 3.79654 0
M  V30 3151 C 286.068 -3.56537 2.63431 0
M  V30 3152 H 283.288 -0.434044 0.511709 0
M  V30 3153 H 285.832 -0.768895 1.89495 0
M  V30 3154 H 283.987 -3.24187 2.12089 0
M  V30 3155 H 284.401 -2.97652 4.31861 0
M  V30 3156 H 285.875 -4.38657 3.35088 0
M  V30 3157 H 286.352 -4.05493 1.68738 0
M  V30 3158 H 286.958 -3.01653 2.9981 0
M  V30 3159 N 285.273 -1.31445 -0.869486 0
M  V30 3160 C 286.689 -1.10113 -1.15531 0
M  V30 3161 C 286.889 0.128087 -2.01092 0
M  V30 3162 O 285.945 0.817276 -2.38908 0
M  V30 3163 C 287.258 -2.37291 -1.84698 0
M  V30 3164 C 288.806 -2.42906 -1.97397 0
M  V30 3165 C 289.281 -3.69967 -2.69979 0
M  V30 3166 N 290.772 -3.70864 -2.77514 0
M  V30 3167 C 291.507 -4.65875 -3.34287 0
M  V30 3168 N 291.003 -5.71242 -3.91988 0
M  V30 3169 N 292.796 -4.53394 -3.3225 0
M  V30 3170 H 284.947 -2.1028 -0.299347 0
M  V30 3171 H 287.21 -0.927683 -0.195214 0
M  V30 3172 H 286.916 -3.27078 -1.29278 0
M  V30 3173 H 286.79 -2.47125 -2.84972 0
M  V30 3174 H 289.177 -1.53588 -2.51982 0
M  V30 3175 H 289.258 -2.37036 -0.961643 0
M  V30 3176 H 288.902 -4.59652 -2.16062 0
M  V30 3177 H 288.832 -3.73103 -3.7162 0
M  V30 3178 H 291.323 -2.94697 -2.36563 0
M  V30 3179 H 291.636 -6.39817 -4.33421 0
M  V30 3180 H 289.981 -5.75015 -3.90362 0
M  V30 3181 H 293.172 -3.70252 -2.8641 0
M  V30 3182 H 293.345 -5.27617 -3.76197 0
M  V30 3183 N 286.751 1.08385 -1.14413 0
M  V30 3184 C 287.999 1.80419 -0.910679 0
M  V30 3185 C 288.32 1.86658 0.564243 0
M  V30 3186 O 287.59 1.35985 1.41014 0
M  V30 3187 H 286.17 0.668204 -0.333934 0
M  V30 3188 H 288.832 1.31037 -1.44275 0
M  V30 3189 H 287.928 2.83238 -1.31082 0
M  V30 3190 N 288.23 0.939286 1.26551 0
M  V30 3191 C 289.458 0.602536 1.97932 0
M  V30 3192 C 289.873 -0.82206 1.69964 0
M  V30 3193 O 289.23 -1.54789 0.966784 0
M  V30 3194 C 289.281 0.832946 3.51773 0
M  V30 3195 O 289.002 2.20151 3.78768 0
M  V30 3196 C 290.503 0.506483 4.40397 0
M  V30 3197 H 287.723 0.227248 0.631347 0
M  V30 3198 H 290.267 1.25948 1.61113 0
M  V30 3199 H 288.422 0.222644 3.8676 0
M  V30 3200 H 288.836 2.26013 4.73306 0
M  V30 3201 H 290.31 0.718333 5.47306 0
M  V30 3202 H 290.787 -0.558451 4.35635 0
M  V30 3203 H 291.393 1.09543 4.10951 0
M  V30 3204 N 289.708 -1.40897 0.706093 0
M  V30 3205 C 290.671 -2.29131 0.0562841 0
M  V30 3206 C 291.671 -1.44901 -0.697166 0
M  V30 3207 O 292.861 -1.65926 -0.530484 0
M  V30 3208 C 289.993 -3.27957 -0.93043 0
M  V30 3209 H 291.186 -2.88091 0.833284 0
M  V30 3210 H 288.739 -1.4906 0.470192 0
M  V30 3211 H 289.474 -2.73997 -1.73482 0
M  V30 3212 H 289.259 -3.90124 -0.393166 0
M  V30 3213 H 290.749 -3.94049 -1.38256 0
M  V30 3214 N 291.186 -0.45159 -1.50991 0
M  V30 3215 C 292.096 0.358431 -2.31846 0
M  V30 3216 C 293.112 1.01438 -1.41373 0
M  V30 3217 O 294.288 1.00663 -1.74439 0
M  V30 3218 C 291.353 1.43704 -3.15515 0
M  V30 3219 C 290.414 0.799742 -4.21785 0
M  V30 3220 C 289.647 1.82696 -5.01456 0
M  V30 3221 O 289.87 3.05105 -4.81941 0
M  V30 3222 O 288.804 1.40958 -5.85162 0
M  V30 3223 H 292.63 -0.302032 -3.02194 0
M  V30 3224 H 290.215 -0.213825 -1.47862 0
M  V30 3225 H 292.097 2.06227 -3.67489 0
M  V30 3226 H 290.772 2.08133 -2.47916 0
M  V30 3227 H 289.679 0.136084 -3.73852 0
M  V30 3228 H 291.012 0.198718 -4.91799 0
M  V30 3229 N 292.664 1.56529 -0.183458 0
M  V30 3230 C 293.91 1.98304 0.452466 0
M  V30 3231 C 294.265 1.06799 1.60037 0
M  V30 3232 O 293.558 0.110049 1.91284 0
M  V30 3233 C 293.752 3.43939 0.971637 0
M  V30 3234 C 293.581 4.49528 -0.124425 0
M  V30 3235 C 292.351 5.01981 -0.578168 0
M  V30 3236 C 294.549 5.05836 -0.929207 0
M  V30 3237 N 292.531 5.91219 -1.65327 0
M  V30 3238 C 293.902 5.91632 -1.85396 0
M  V30 3239 C 295.957 4.88302 -0.972929 0
M  V30 3240 C 294.66 6.61768 -2.81878 0
M  V30 3241 C 296.686 5.59168 -1.92574 0
M  V30 3242 C 296.048 6.44701 -2.83795 0
M  V30 3243 H 292.147 0.770551 0.133324 0
M  V30 3244 H 294.731 1.92581 -0.286473 0
M  V30 3245 H 292.902 3.50184 1.68006 0
M  V30 3246 H 294.634 3.72702 1.5772 0
M  V30 3247 H 291.389 4.73282 -0.173639 0
M  V30 3248 H 291.813 6.40543 -2.19167 0
M  V30 3249 H 296.455 4.21861 -0.28168 0
M  V30 3250 H 294.173 7.27415 -3.51984 0
M  V30 3251 H 297.759 5.47582 -1.96583 0
M  V30 3252 H 296.639 6.98573 -3.56322 0
M  V30 3253 N 294.142 -0.090211 1.57342 0
M  V30 3254 C 295.072 -1.10976 2.05443 0
M  V30 3255 C 296.053 -1.41482 0.944284 0
M  V30 3256 O 297.238 -1.51428 1.21586 0
M  V30 3257 C 294.368 -2.42831 2.48295 0
M  V30 3258 C 293.322 -2.26721 3.63018 0
M  V30 3259 C 292.648 -3.63796 3.91863 0
M  V30 3260 C 293.948 -1.7037 4.93732 0
M  V30 3261 H 295.642 -0.709564 2.9087 0
M  V30 3262 H 293.188 -0.339874 1.39932 0
M  V30 3263 H 295.141 -3.14431 2.80555 0
M  V30 3264 H 293.865 -2.84795 1.59873 0
M  V30 3265 H 292.524 -1.57565 3.31012 0
M  V30 3266 H 292.172 -4.03297 3.00601 0
M  V30 3267 H 291.872 -3.53861 4.69101 0
M  V30 3268 H 293.396 -4.36855 4.26603 0
M  V30 3269 H 294.81 -2.31816 5.24342 0
M  V30 3270 H 293.207 -1.71181 5.75167 0
M  V30 3271 H 294.277 -0.663542 4.80339 0
M  V30 3272 N 295.62 -1.53406 -0.361157 0
M  V30 3273 C 296.845 -1.74024 -1.12829 0
M  V30 3274 C 297.27 -0.470069 -1.82132 0
M  V30 3275 O 296.628 0.57619 -1.719 0
M  V30 3276 C 296.676 -2.90903 -2.13091 0
M  V30 3277 O 295.78 -2.59821 -3.20261 0
M  V30 3278 H 295.121 -0.577804 -0.327168 0
M  V30 3279 H 297.651 -2.00307 -0.41693 0
M  V30 3280 H 297.661 -3.17194 -2.56616 0
M  V30 3281 H 296.336 -3.83034 -1.62042 0
M  V30 3282 H 294.913 -2.44362 -2.81677 0
M  V30 3283 N 297.098 0.621204 -1.44841 0
M  V30 3284 C 298.345 1.38055 -1.48145 0
M  V30 3285 C 298.673 1.94143 -0.117867 0
M  V30 3286 O 297.928 1.74713 0.881694 0
M  V30 3287 C 298.227 2.55675 -2.4973 0
M  V30 3288 C 297.893 2.17817 -3.94799 0
M  V30 3289 C 296.555 2.07205 -4.34303 0
M  V30 3290 C 298.907 1.88065 -4.86087 0
M  V30 3291 C 296.235 1.65045 -5.63007 0
M  V30 3292 C 298.587 1.47394 -6.15189 0
M  V30 3293 C 297.251 1.35331 -6.53637 0
M  V30 3294 H 296.521 0.505181 -0.542101 0
M  V30 3295 H 299.168 0.703477 -1.78111 0
M  V30 3296 H 297.473 3.2866 -2.13284 0
M  V30 3297 H 299.17 3.13904 -2.4953 0
M  V30 3298 H 295.76 2.26998 -3.63552 0
M  V30 3299 H 299.944 1.95168 -4.56315 0
M  V30 3300 H 295.2 1.54317 -5.91605 0
M  V30 3301 H 299.374 1.23415 -6.85377 0
M  V30 3302 H 297.001 1.02435 -7.53267 0
M  V30 3303 N 298.576 1.31904 0.862503 0
M  V30 3304 C 299.853 1.12644 1.59908 0
M  V30 3305 C 300.233 -0.316104 2.0872 0
M  V30 3306 O 299.581 -1.31145 1.87118 0
M  V30 3307 C 299.791 2.1472 2.7513 0
M  V30 3308 C 301.139 2.47637 3.44907 0
M  V30 3309 O 302.163 2.13205 2.85346 0
M  V30 3310 O 301.022 3.06632 4.52371 0
M  V30 3311 H 298.116 0.43416 0.703871 0
M  V30 3312 H 300.662 1.43408 0.907314 0
M  V30 3313 H 299.434 3.1172 2.3653 0
M  V30 3314 H 299.057 1.84905 3.51989 0
M  V30 3315 N 300.054 -1.07777 1.14986 0
M  V30 3316 C 301.3 -1.80557 0.923422 0
M  V30 3317 C 301.633 -1.86298 -0.548337 0
M  V30 3318 O 300.908 -1.34354 -1.40639 0
M  V30 3319 C 301.191 -3.25839 1.53299 0
M  V30 3320 C 301.044 -3.28269 3.07505 0
M  V30 3321 C 302.363 -4.22991 1.21518 0
M  V30 3322 H 299.482 -0.655493 0.336894 0
M  V30 3323 H 302.124 -1.26144 1.42083 0
M  V30 3324 H 300.274 -3.72306 1.10999 0
M  V30 3325 H 301.946 -2.90079 3.58681 0
M  V30 3326 H 300.189 -2.67355 3.4162 0
M  V30 3327 H 300.86 -4.30691 3.45266 0
M  V30 3328 H 303.336 -3.84894 1.581 0
M  V30 3329 H 302.212 -5.22945 1.66793 0
M  V30 3330 H 302.473 -4.41904 0.131505 0
M  V30 3331 N 301.532 -0.945985 -1.26051 0
M  V30 3332 C 302.76 -0.613025 -1.9761 0
M  V30 3333 C 303.175 0.813035 -1.70397 0
M  V30 3334 O 302.532 1.54274 -0.974979 0
M  V30 3335 C 302.583 -0.85159 -3.51326 0
M  V30 3336 O 302.304 -2.22157 -3.77595 0
M  V30 3337 C 303.805 -0.529831 -4.40122 0
M  V30 3338 H 301.025 -0.230593 -0.630133 0
M  V30 3339 H 303.569 -1.268 -1.60443 0
M  V30 3340 H 301.724 -0.243151 -3.86636 0
M  V30 3341 H 302.138 -2.2852 -4.721 0
M  V30 3342 H 303.612 -0.747348 -5.46917 0
M  V30 3343 H 304.089 0.535341 -4.35925 0
M  V30 3344 H 304.695 -1.11721 -4.10364 0
M  V30 3345 N 303.011 1.40521 -0.713556 0
M  V30 3346 C 304.288 1.94775 -0.17943 0
M  V30 3347 C 304.668 1.65184 1.31444 0
M  V30 3348 O 304.016 0.968429 2.06963 0
M  V30 3349 C 304.226 3.45543 -0.489986 0
M  V30 3350 C 305.574 4.22442 -0.427536 0
M  V30 3351 O 306.598 3.53644 -0.425929 0
M  V30 3352 O 305.457 5.4501 -0.403292 0
M  V30 3353 H 302.551 0.826606 -0.0255192 0
M  V30 3354 H 305.097 1.5014 -0.790949 0
M  V30 3355 H 303.869 3.60432 -1.5233 0
M  V30 3356 H 303.492 3.97311 0.151598 0
M  V30 3357 N 304.489 0.459591 1.5075 0
M  V30 3358 C 305.717 -0.0973749 2.06671 0
M  V30 3359 C 306.132 -1.34524 1.32472 0
M  V30 3360 O 305.489 -1.7827 0.390634 0
M  V30 3361 C 305.54 -0.39714 3.59312 0
M  V30 3362 O 305.261 0.801214 4.30711 0
M  V30 3363 C 306.762 -1.00234 4.31819 0
M  V30 3364 H 303.982 0.00195854 0.670997 0
M  V30 3365 H 306.526 0.645072 1.94059 0
M  V30 3366 H 304.681 -1.08951 3.71764 0
M  V30 3367 H 305.095 0.538857 5.21725 0
M  V30 3368 H 306.569 -1.16193 5.39632 0
M  V30 3369 H 307.046 -1.98939 3.91561 0
M  V30 3370 H 307.652 -0.348699 4.23868 0
M  V30 3371 N 305.967 -1.56429 0.191757 0
M  V30 3372 C 307.213 -1.97777 -0.448554 0
M  V30 3373 C 307.546 -1.07847 -1.61501 0
M  V30 3374 O 306.821 -0.129774 -1.94067 0
M  V30 3375 C 307.104 -3.48362 -0.911906 0
M  V30 3376 C 306.957 -4.4907 0.256136 0
M  V30 3377 C 308.276 -4.02561 -1.77857 0
M  V30 3378 H 305.395 -0.719071 -0.161572 0
M  V30 3379 H 308.037 -1.87896 0.282007 0
M  V30 3380 H 306.187 -3.56914 -1.53442 0
M  V30 3381 H 307.859 -4.5256 0.893733 0
M  V30 3382 H 306.102 -4.24181 0.908436 0
M  V30 3383 H 306.773 -5.51889 -0.11053 0
M  V30 3384 H 309.249 -3.96767 -1.25359 0
M  V30 3385 H 308.125 -5.08301 -2.07174 0
M  V30 3386 H 308.386 -3.47616 -2.73158 0
M  V30 3387 N 307.445 0.0818655 -1.57387 0
M  V30 3388 C 308.861 0.436412 -1.53517 0
M  V30 3389 C 309.061 1.79758 -0.910459 0
M  V30 3390 O 308.117 2.47324 -0.508636 0
M  V30 3391 C 309.43 0.386734 -2.98203 0
M  V30 3392 C 310.978 0.467644 -3.09487 0
M  V30 3393 C 311.453 0.447978 -4.55804 0
M  V30 3394 N 312.944 0.508348 -4.60402 0
M  V30 3395 C 313.679 0.515184 -5.71081 0
M  V30 3396 N 313.175 0.477435 -6.91153 0
M  V30 3397 N 314.968 0.560988 -5.59294 0
M  V30 3398 H 307.119 -0.809546 -1.96367 0
M  V30 3399 H 309.382 -0.302733 -0.898363 0
M  V30 3400 H 309.088 -0.546539 -3.47427 0
M  V30 3401 H 308.962 1.20075 -3.57578 0
M  V30 3402 H 311.349 1.39134 -2.60242 0
M  V30 3403 H 311.43 -0.374753 -2.5304 0
M  V30 3404 H 311.074 -0.471826 -5.05704 0
M  V30 3405 H 311.004 1.30777 -5.10103 0
M  V30 3406 H 313.495 0.54218 -3.7399 0
M  V30 3407 H 313.808 0.486299 -7.71268 0
M  V30 3408 H 312.153 0.444278 -6.93579 0
M  V30 3409 H 315.344 0.5881 -4.64391 0
M  V30 3410 H 315.517 0.562846 -6.45551 0
M  V30 3411 N 308.923 1.53595 0.353017 0
M  V30 3412 C 309.833 1.83897 1.45667 0
M  V30 3413 C 310.849 0.728334 1.58023 0
M  V30 3414 O 312.025 1.01968 1.73679 0
M  V30 3415 C 309.09 2.03383 2.80778 0
M  V30 3416 C 308.151 3.27262 2.77845 0
M  V30 3417 C 307.384 3.45809 4.06512 0
M  V30 3418 O 307.607 2.68387 5.03314 0
M  V30 3419 O 306.541 4.39207 4.11559 0
M  V30 3420 H 310.367 2.77686 1.2298 0
M  V30 3421 H 307.952 1.39132 0.544308 0
M  V30 3422 H 309.834 2.17698 3.60812 0
M  V30 3423 H 308.509 1.12783 3.03417 0
M  V30 3424 H 307.416 3.18359 1.96465 0
M  V30 3425 H 308.749 4.17824 2.60161 0
M  V30 3426 N 310.401 -0.613514 1.45168 0
M  V30 3427 C 311.647 -1.37279 1.50087 0
M  V30 3428 C 312.002 -1.91902 0.138294 0
M  V30 3429 O 311.295 -1.71764 -0.84899 0
M  V30 3430 C 311.489 -2.54347 2.51083 0
M  V30 3431 C 311.318 -2.11186 3.97027 0
M  V30 3432 C 310.088 -1.97636 4.65046 0
M  V30 3433 C 312.286 -1.69016 4.85735 0
M  V30 3434 N 310.268 -1.48224 5.95737 0
M  V30 3435 C 311.639 -1.30976 6.06008 0
M  V30 3436 C 313.694 -1.56555 4.72647 0
M  V30 3437 C 312.397 -0.817197 7.14643 0
M  V30 3438 C 314.423 -1.08702 5.81324 0
M  V30 3439 C 313.785 -0.716233 7.00749 0
M  V30 3440 H 309.884 -0.496478 0.60418 0
M  V30 3441 H 312.468 -0.701988 1.81605 0
M  V30 3442 H 310.639 -3.19031 2.21527 0
M  V30 3443 H 312.371 -3.21208 2.46187 0
M  V30 3444 H 309.126 -2.18638 4.20112 0
M  V30 3445 H 309.55 -1.25767 6.65216 0
M  V30 3446 H 314.192 -1.83849 3.80736 0
M  V30 3447 H 311.91 -0.531797 8.06348 0
M  V30 3448 H 315.496 -0.994943 5.7323 0
M  V30 3449 H 314.376 -0.351642 7.83411 0
M  V30 3450 N 311.879 -1.3236 -0.855495 0
M  V30 3451 C 312.809 -1.23833 -1.97958 0
M  V30 3452 C 313.79 -0.122361 -1.69659 0
M  V30 3453 O 314.975 -0.30939 -1.9172 0
M  V30 3454 C 312.105 -0.959772 -3.33775 0
M  V30 3455 C 311.059 -2.03689 -3.76424 0
M  V30 3456 C 310.385 -1.61075 -5.09862 0
M  V30 3457 C 311.685 -3.4518 -3.9198 0
M  V30 3458 H 313.379 -2.1788 -2.0535 0
M  V30 3459 H 310.925 -1.04891 -0.986605 0
M  V30 3460 H 312.878 -0.886678 -4.11966 0
M  V30 3461 H 311.602 0.0163404 -3.26596 0
M  V30 3462 H 310.261 -2.10012 -3.00484 0
M  V30 3463 H 309.909 -0.622107 -4.99138 0
M  V30 3464 H 309.609 -2.33143 -5.39368 0
M  V30 3465 H 311.133 -1.55201 -5.90546 0
M  V30 3466 H 312.547 -3.4145 -4.60526 0
M  V30 3467 H 310.944 -4.1559 -4.32903 0
M  V30 3468 H 312.014 -3.84903 -2.94919 0
M  V30 3469 N 313.357 1.07166 -1.15556 0
M  V30 3470 C 314.287 2.16403 -0.877046 0
M  V30 3471 C 315.268 1.69217 0.173111 0
M  V30 3472 O 316.453 1.94181 0.027084 0
M  V30 3473 C 313.583 3.45349 -0.367632 0
M  V30 3474 C 312.537 4.05995 -1.35468 0
M  V30 3475 C 311.863 5.30045 -0.704038 0
M  V30 3476 C 313.163 4.45804 -2.72132 0
M  V30 3477 H 314.857 2.39959 -1.79053 0
M  V30 3478 H 312.403 1.15325 -0.862331 0
M  V30 3479 H 314.356 4.21095 -0.160317 0
M  V30 3480 H 313.08 3.21385 0.581326 0
M  V30 3481 H 311.739 3.32296 -1.54839 0
M  V30 3482 H 311.387 5.02373 0.251128 0
M  V30 3483 H 311.087 5.71579 -1.36277 0
M  V30 3484 H 312.611 6.08495 -0.50654 0
M  V30 3485 H 314.025 5.12671 -2.56595 0
M  V30 3486 H 312.422 4.98296 -3.34397 0
M  V30 3487 H 313.492 3.57083 -3.28054 0
M  V30 3488 N 314.835 0.952656 1.25548 0
M  V30 3489 C 316.251 0.656769 1.4546 0
M  V30 3490 C 316.451 -0.78633 1.85524 0
M  V30 3491 O 315.507 -1.56183 1.98402 0
M  V30 3492 C 316.82 1.62801 2.52817 0
M  V30 3493 C 318.368 1.63897 2.66659 0
M  V30 3494 C 318.843 2.5978 3.77198 0
M  V30 3495 N 320.334 2.58133 3.84606 0
M  V30 3496 C 321.069 3.29003 4.69621 0
M  V30 3497 N 320.565 4.09339 5.58939 0
M  V30 3498 N 322.358 3.179 4.63569 0
M  V30 3499 H 314.509 1.88526 0.978344 0
M  V30 3500 H 316.772 0.810815 0.491206 0
M  V30 3501 H 316.478 2.65869 2.30232 0
M  V30 3502 H 316.352 1.38898 3.50695 0
M  V30 3503 H 318.739 0.615481 2.8861 0
M  V30 3504 H 318.82 1.91858 1.69187 0
M  V30 3505 H 318.464 3.62254 3.55997 0
M  V30 3506 H 318.394 2.29105 4.7415 0
M  V30 3507 H 320.885 1.99809 3.20757 0
M  V30 3508 H 321.198 4.6034 6.20731 0
M  V30 3509 H 319.543 4.13438 5.58654 0
M  V30 3510 H 322.734 2.54612 3.92798 0
M  V30 3511 H 322.907 3.73398 5.29602 0
M  V30 3512 N 316.313 -1.40141 0.720998 0
M  V30 3513 C 317.729 -1.54632 0.395113 0
M  V30 3514 C 317.929 -1.69115 -1.09555 0
M  V30 3515 O 316.985 -1.68377 -1.88163 0
M  V30 3516 C 318.298 -2.77177 1.1659 0
M  V30 3517 C 319.846 -2.91 1.15274 0
M  V30 3518 C 320.321 -4.16465 1.90579 0
M  V30 3519 N 321.812 -4.23476 1.87675 0
M  V30 3520 C 322.547 -5.19475 2.42762 0
M  V30 3521 N 322.043 -6.21348 3.06428 0
M  V30 3522 N 323.836 -5.11592 2.32874 0
M  V30 3523 H 315.987 -1.28986 1.68749 0
M  V30 3524 H 318.25 -0.62412 0.713567 0
M  V30 3525 H 317.956 -2.72771 2.22011 0
M  V30 3526 H 317.83 -3.69442 0.76108 0
M  V30 3527 H 320.217 -2.94907 0.106702 0
M  V30 3528 H 320.298 -1.99838 1.59682 0
M  V30 3529 H 319.942 -4.1332 2.95176 0
M  V30 3530 H 319.872 -5.06646 1.43587 0
M  V30 3531 H 322.363 -3.50497 1.41281 0
M  V30 3532 H 322.676 -6.91034 3.45965 0
M  V30 3533 H 321.021 -6.21777 3.10514 0
M  V30 3534 H 324.212 -4.30936 1.82789 0
M  V30 3535 H 324.385 -5.86233 2.76106 0
M  V30 3536 N 317.792 -0.46758 -1.50504 0
M  V30 3537 C 318.702 0.33382 -2.32213 0
M  V30 3538 C 319.718 0.999323 -1.42441 0
M  V30 3539 O 320.894 0.988068 -1.75497 0
M  V30 3540 C 317.959 1.4035 -3.17022 0
M  V30 3541 C 317.02 0.754961 -4.2261 0
M  V30 3542 C 316.253 1.77367 -5.03365 0
M  V30 3543 O 316.476 2.99976 -4.8515 0
M  V30 3544 O 315.41 1.34744 -5.86624 0
M  V30 3545 H 319.236 -0.334067 -3.01857 0
M  V30 3546 H 316.821 -0.229496 -1.47627 0
M  V30 3547 H 318.703 2.02318 -3.69656 0
M  V30 3548 H 317.378 2.05492 -2.5011 0
M  V30 3549 H 316.285 0.0964244 -3.73976 0
M  V30 3550 H 317.618 0.146545 -4.91982 0
M  V30 3551 N 319.27 1.56325 -0.20005 0
M  V30 3552 C 320.495 2.02548 0.44597 0
M  V30 3553 C 320.92 1.07922 1.5406 0
M  V30 3554 O 320.278 0.0635775 1.81188 0
M  V30 3555 C 320.326 3.47175 0.974761 0
M  V30 3556 O 319.43 3.55671 2.08739 0
M  V30 3557 H 318.771 0.655862 0.103638 0
M  V30 3558 H 321.301 2.02201 -0.312381 0
M  V30 3559 H 321.311 3.87067 1.2901 0
M  V30 3560 H 319.986 4.15538 0.17347 0
M  V30 3561 H 318.563 3.27657 1.78032 0
M  V30 3562 N 320.748 -0.0735177 1.57428 0
M  V30 3563 C 321.696 -1.10628 2.04607 0
M  V30 3564 C 322.69 -1.40181 0.951088 0
M  V30 3565 O 323.896 -1.39608 1.1362 0
M  V30 3566 H 320.271 -0.374088 0.652351 0
M  V30 3567 H 322.242 -0.682218 2.90497 0
M  V30 3568 C 320.991 -2.41212 2.50423 0
M  V30 3569 H 320.314 -2.19322 3.34272 0
M  V30 3570 H 321.754 -3.11927 2.87189 0
M  V30 3571 C 320.213 -3.0705 1.38644 0
M  V30 3572 O 320.743 -3.95056 0.727582 0
M  V30 3573 N 318.949 -2.67645 1.132 0
M  V30 3574 H 318.496 -1.96169 1.66959 0
M  V30 3575 H 318.454 -3.1202 0.386147 0
M  V30 3576 N 322.226 -1.5378 -0.344866 0
M  V30 3577 C 323.156 -1.84662 -1.42906 0
M  V30 3578 C 324.137 -0.701648 -1.54955 0
M  V30 3579 O 325.322 -0.953438 -1.69184 0
M  V30 3580 C 322.452 -2.05503 -2.79974 0
M  V30 3581 C 321.406 -3.21318 -2.82734 0
M  V30 3582 C 320.732 -3.2749 -4.22675 0
M  V30 3583 C 322.032 -4.59456 -2.48389 0
M  V30 3584 H 323.726 -2.75461 -1.17311 0
M  V30 3585 H 321.272 -1.32542 -0.562896 0
M  V30 3586 H 323.225 -2.25691 -3.55867 0
M  V30 3587 H 321.949 -1.11434 -3.07002 0
M  V30 3588 H 320.608 -3.00984 -2.09294 0
M  V30 3589 H 320.256 -2.31019 -4.4681 0
M  V30 3590 H 319.956 -4.05316 -4.25433 0
M  V30 3591 H 321.48 -3.49887 -5.00412 0
M  V30 3592 H 322.894 -4.79667 -3.13995 0
M  V30 3593 H 321.291 -5.39675 -2.62432 0
M  V30 3594 H 322.361 -4.63155 -1.4358 0
M  V30 3595 N 323.704 0.605807 -1.45491 0
M  V30 3596 C 324.952 1.36207 -1.49305 0
M  V30 3597 C 325.273 1.94519 -0.136863 0
M  V30 3598 O 324.543 1.77261 0.833983 0
M  V30 3599 H 323.123 0.50565 -0.549843 0
M  V30 3600 H 325.785 0.711239 -1.81459 0
M  V30 3601 H 324.881 2.18058 -2.23287 0
M  V30 3602 N 325.182 1.32811 0.848464 0
M  V30 3603 C 326.112 1.24882 1.97299 0
M  V30 3604 C 327.093 0.131357 1.69592 0
M  V30 3605 O 328.278 0.319553 1.91553 0
M  V30 3606 C 325.408 0.97746 3.33261 0
M  V30 3607 C 324.362 2.05682 3.75338 0
M  V30 3608 C 323.688 1.63777 5.09 0
M  V30 3609 C 324.988 3.47254 3.90144 0
M  V30 3610 H 326.682 2.18966 2.04191 0
M  V30 3611 H 324.228 1.05413 0.981029 0
M  V30 3612 H 326.181 0.908513 4.1149 0
M  V30 3613 H 324.905 0.000980011 3.266 0
M  V30 3614 H 323.564 2.11603 2.99366 0
M  V30 3615 H 323.212 0.648569 4.98801 0
M  V30 3616 H 322.912 2.36 5.38124 0
M  V30 3617 H 324.436 1.5833 5.89715 0
M  V30 3618 H 325.85 3.43888 4.58709 0
M  V30 3619 H 324.247 4.1788 4.30693 0
M  V30 3620 H 325.317 3.86462 2.92874 0
M  V30 3621 N 326.66 -1.06551 1.16123 0
M  V30 3622 C 327.57 -2.17484 0.879662 0
M  V30 3623 C 328.586 -1.73377 -0.147104 0
M  V30 3624 O 329.762 -2.01379 0.0289128 0
M  V30 3625 C 326.827 -3.44591 0.381829 0
M  V30 3626 C 325.888 -4.0322 1.4735 0
M  V30 3627 C 325.121 -5.24261 0.999324 0
M  V30 3628 O 325.344 -5.70198 -0.151957 0
M  V30 3629 O 324.278 -5.74775 1.78653 0
M  V30 3630 H 328.104 -2.44075 1.80724 0
M  V30 3631 H 325.689 -1.16042 0.940992 0
M  V30 3632 H 327.571 -4.21254 0.111053 0
M  V30 3633 H 326.246 -3.19532 -0.51777 0
M  V30 3634 H 325.153 -3.2806 1.79798 0
M  V30 3635 H 326.486 -4.32568 2.34831 0
M  V30 3636 N 328.138 -0.959301 -1.25041 0
M  V30 3637 C 329.387 -0.612254 -1.92183 0
M  V30 3638 C 329.7 0.855347 -1.75907 0
M  V30 3639 O 330.906 1.31256 -2.37664 0
M  V30 3640 C 329.362 -1.04435 -3.44414 0
M  V30 3641 C 328.97 -2.53482 -3.69393 0
M  V30 3642 C 330.714 -0.770055 -4.17457 0
M  V30 3643 C 328.621 -2.90468 -5.15153 0
M  V30 3644 H 327.551 -0.225279 -0.719559 0
M  V30 3645 H 330.202 -1.16438 -1.41825 0
M  V30 3646 H 328.584 -0.4206 -3.9376 0
M  V30 3647 H 329.758 -3.20916 -3.30681 0
M  V30 3648 H 328.073 -2.78432 -3.0962 0
M  V30 3649 H 330.67 -1.02249 -5.24832 0
M  V30 3650 H 331.013 0.293611 -4.15263 0
M  V30 3651 H 331.546 -1.35437 -3.74034 0
M  V30 3652 H 328.285 -3.95871 -5.22462 0
M  V30 3653 H 327.805 -2.27711 -5.54894 0
M  V30 3654 H 329.484 -2.79914 -5.83315 0
M  V30 3655 N 329.616 1.39756 -0.72842 0
M  V30 3656 C 330.841 2.05472 -0.282159 0
M  V30 3657 C 331.266 1.54549 1.07221 0
M  V30 3658 O 330.624 0.686372 1.67805 0
M  V30 3659 C 330.672 3.59462 -0.286264 0
M  V30 3660 O 329.776 4.05918 0.728298 0
M  V30 3661 H 329.117 0.651226 -0.129618 0
M  V30 3662 H 331.647 1.78915 -0.992499 0
M  V30 3663 H 331.657 4.07798 -0.128373 0
M  V30 3664 H 330.332 3.95889 -1.27456 0
M  V30 3665 H 328.909 3.69012 0.537081 0
M  V30 3666 N 331.094 0.475555 1.50254 0
M  V30 3667 C 332.343 -0.0795996 2.01543 0
M  V30 3668 C 332.656 -1.4038 1.36209 0
M  V30 3669 O 333.862 -2.04415 1.7868 0
M  V30 3670 C 332.318 -0.192363 3.59386 0
M  V30 3671 C 331.926 1.12367 4.33679 0
M  V30 3672 C 333.67 -0.699238 4.18701 0
M  V30 3673 C 331.577 0.974453 5.83317 0
M  V30 3674 H 330.507 -0.0335228 0.753254 0
M  V30 3675 H 333.158 0.611128 1.73025 0
M  V30 3676 H 331.54 -0.946974 3.84511 0
M  V30 3677 H 332.714 1.88958 4.20276 0
M  V30 3678 H 331.029 1.562 3.85993 0
M  V30 3679 H 333.626 -0.827978 5.28251 0
M  V30 3680 H 333.969 -1.69171 3.80377 0
M  V30 3681 H 334.502 -0.00188807 3.978 0
M  V30 3682 H 331.241 1.94042 6.26121 0
M  V30 3683 H 330.761 0.248998 5.99283 0
M  V30 3684 H 332.44 0.642867 6.43798 0
M  V30 3685 N 332.573 -1.56217 0.208337 0
M  V30 3686 C 333.523 -2.16324 -0.720281 0
M  V30 3687 C 334.507 -1.10775 -1.16695 0
M  V30 3688 O 335.699 -1.36801 -1.12314 0
M  V30 3689 C 332.828 -2.83644 -1.93393 0
M  V30 3690 C 331.914 -3.96401 -1.50755 0
M  V30 3691 N 332.305 -4.99546 -0.792937 0
M  V30 3692 C 330.603 -4.08246 -1.79585 0
M  V30 3693 C 331.304 -5.78828 -0.577364 0
M  V30 3694 N 330.28 -5.31723 -1.1301 0
M  V30 3695 H 334.082 -2.93432 -0.165725 0
M  V30 3696 H 331.596 -1.62397 0.00906463 0
M  V30 3697 H 333.593 -3.25107 -2.60981 0
M  V30 3698 H 332.253 -2.08027 -2.49308 0
M  V30 3699 H 333.264 -5.15967 -0.447004 0
M  V30 3700 H 329.941 -3.4377 -2.36915 0
M  V30 3701 H 331.331 -6.71899 -0.00952956 0
M  V30 3702 N 334.051 0.0651679 -1.57465 0
M  V30 3703 C 335.291 0.768329 -1.8941 0
M  V30 3704 C 335.655 1.74406 -0.802894 0
M  V30 3705 O 336.856 2.49281 -1.0056 0
M  V30 3706 C 335.127 1.45199 -3.26576 0
M  V30 3707 S 336.686 2.1893 -3.80283 0
M  V30 3708 H 333.504 0.255359 -0.663561 0
M  V30 3709 H 336.106 0.024167 -1.95485 0
M  V30 3710 H 334.81 0.728123 -4.03889 0
M  V30 3711 H 334.341 2.23545 -3.23715 0
M  V30 3712 H 336.356 3.45551 -3.56102 0
M  V30 3713 N 335.529 1.53961 0.336706 0
M  V30 3714 C 336.94 1.62914 0.911925 0
M  V30 3715 C 337.291 0.514795 1.89326 0
M  V30 3716 O 336.416 -0.354395 2.13478 0
M  V30 3717 C 337.011 2.95304 1.66076 0
M  V30 3718 C 335.57 3.06496 2.18489 0
M  V30 3719 C 334.717 2.58403 1.00613 0
M  V30 3720 H 337.668 1.58285 0.114649 0
M  V30 3721 H 337.689 2.84727 2.5241 0
M  V30 3722 H 337.201 3.76387 0.946276 0
M  V30 3723 H 335.302 2.3006 2.93092 0
M  V30 3724 H 335.415 4.1208 2.44391 0
M  V30 3725 H 333.779 2.13977 1.38152 0
M  V30 3726 H 334.562 3.41932 0.306179 0
M  V30 3727 N 337.007 -0.598083 1.45811 0
M  V30 3728 C 338.247 -1.36802 1.5187 0
M  V30 3729 C 338.611 -1.9133 0.160224 0
M  V30 3730 O 339.812 -2.6863 0.0955302 0
M  V30 3731 C 338.083 -2.47835 2.57513 0
M  V30 3732 S 339.642 -3.35458 2.82866 0
M  V30 3733 H 336.46 -0.466278 0.536755 0
M  V30 3734 H 339.062 -0.689152 1.82951 0
M  V30 3735 H 337.766 -2.06141 3.54872 0
M  V30 3736 H 337.297 -3.20512 2.28114 0
M  V30 3737 H 339.312 -4.46251 2.16967 0
M  V30 3738 N 338.485 -1.33259 -0.841409 0
M  V30 3739 C 339.435 -1.19872 -1.93945 0
M  V30 3740 C 340.419 -0.102269 -1.60575 0
M  V30 3741 O 341.611 -0.330114 -1.73894 0
M  V30 3742 C 338.74 -0.937517 -3.30251 0
M  V30 3743 C 337.826 -2.07629 -3.69799 0
M  V30 3744 N 338.217 -3.32604 -3.81062 0
M  V30 3745 C 336.515 -1.98242 -3.9952 0
M  V30 3746 C 337.216 -4.07275 -4.15333 0
M  V30 3747 N 336.192 -3.35691 -4.27566 0
M  V30 3748 H 339.994 -2.14604 -2.00805 0
M  V30 3749 H 337.508 -1.2523 -1.03398 0
M  V30 3750 H 339.505 -0.822545 -4.08705 0
M  V30 3751 H 338.165 0.00128798 -3.247 0
M  V30 3752 H 339.176 -3.67382 -3.65035 0
M  V30 3753 H 335.853 -1.12005 -4.02195 0
M  V30 3754 H 337.243 -5.1511 -4.31406 0
M  V30 3755 N 339.963 1.05934 -1.16686 0
M  V30 3756 C 341.191 1.8249 -0.974929 0
M  V30 3757 C 341.606 1.82679 0.476861 0
M  V30 3758 O 340.963 1.2486 1.33103 0
M  V30 3759 C 341.014 3.28943 -1.49929 0
M  V30 3760 O 340.735 3.28886 -2.89423 0
M  V30 3761 C 342.236 4.22215 -1.35089 0
M  V30 3762 H 339.456 0.575295 -0.345365 0
M  V30 3763 H 342 1.33631 -1.548 0
M  V30 3764 H 340.155 3.751 -0.968423 0
M  V30 3765 H 340.569 4.20493 -3.13506 0
M  V30 3766 H 342.043 5.22987 -1.76603 0
M  V30 3767 H 342.52 4.38195 -0.296935 0
M  V30 3768 H 343.126 3.81907 -1.87155 0
M  V30 3769 N 341.441 0.965919 1.2453 0
M  V30 3770 C 342.688 0.626831 1.92554 0
M  V30 3771 C 343.016 -0.837739 1.75534 0
M  V30 3772 O 342.271 -1.61793 1.10098 0
M  V30 3773 C 342.57 0.945428 3.44669 0
M  V30 3774 C 342.236 2.39785 3.81856 0
M  V30 3775 C 340.898 2.79483 3.91718 0
M  V30 3776 C 343.25 3.34055 4.00071 0
M  V30 3777 C 340.578 4.12496 4.1721 0
M  V30 3778 C 342.93 4.66694 4.27059 0
M  V30 3779 C 341.594 5.06172 4.3514 0
M  V30 3780 H 340.864 0.229374 0.704605 0
M  V30 3781 H 343.511 1.21707 1.4785 0
M  V30 3782 H 341.816 0.272926 3.90848 0
M  V30 3783 H 343.513 0.661484 3.95507 0
M  V30 3784 H 340.103 2.08003 3.74743 0
M  V30 3785 H 344.287 3.04571 3.91855 0
M  V30 3786 H 339.543 4.42709 4.21685 0
M  V30 3787 H 343.717 5.3971 4.40097 0
M  V30 3788 H 341.344 6.09262 4.54646 0
M  V30 3789 N 342.919 -1.39368 0.735821 0
M  V30 3790 C 343.851 -2.2913 0.0567723 0
M  V30 3791 C 344.864 -1.46859 -0.702589 0
M  V30 3792 O 346.053 -1.69925 -0.546616 0
M  V30 3793 C 343.153 -3.25492 -0.943823 0
M  V30 3794 C 342.326 -4.36709 -0.24581 0
M  V30 3795 C 341.385 -5.13376 -1.15463 0
M  V30 3796 O 340.411 -5.65683 -0.631803 0
M  V30 3797 N 341.613 -5.24656 -2.48427 0
M  V30 3798 H 344.378 -2.88047 0.827582 0
M  V30 3799 H 341.939 -1.50957 0.585112 0
M  V30 3800 H 343.931 -3.73657 -1.55443 0
M  V30 3801 H 342.501 -2.676 -1.61583 0
M  V30 3802 H 341.721 -3.9041 0.545286 0
M  V30 3803 H 343.009 -5.08244 0.237891 0
M  V30 3804 H 342.407 -4.83679 -2.93379 0
M  V30 3805 H 340.964 -5.76258 -3.04582 0
M  V30 3806 N 344.397 -0.483516 -1.5 0
M  V30 3807 C 345.808 -0.0314176 -1.86674 0
M  V30 3808 C 346.159 1.37728 -1.39733 0
M  V30 3809 O 345.284 2.02327 -0.767635 0
M  V30 3810 C 345.879 -0.0502376 -3.38763 0
M  V30 3811 C 344.438 0.346442 -3.74802 0
M  V30 3812 C 343.585 -0.430366 -2.7394 0
M  V30 3813 H 346.536 -0.697182 -1.42566 0
M  V30 3814 H 346.557 0.749116 -3.73053 0
M  V30 3815 H 346.069 -1.07563 -3.72897 0
M  V30 3816 H 344.17 1.37572 -3.46273 0
M  V30 3817 H 344.283 0.0391486 -4.79084 0
M  V30 3818 H 342.647 0.117557 -2.54429 0
M  V30 3819 H 343.43 -1.4555 -3.10918 0
M  V30 3820 N 345.875 1.56104 -0.216619 0
M  V30 3821 C 346.823 2.21434 0.712036 0
M  V30 3822 C 347.817 1.19218 1.20348 0
M  V30 3823 O 349.023 1.3731 1.16387 0
M  V30 3824 H 345.398 0.70992 0.248026 0
M  V30 3825 H 347.369 2.98083 0.137558 0
M  V30 3826 C 346.118 2.90434 1.91163 0
M  V30 3827 H 345.441 3.68842 1.54258 0
M  V30 3828 H 346.881 3.39552 2.5393 0
M  V30 3829 C 345.34 1.92635 2.76394 0
M  V30 3830 O 345.87 1.44017 3.74996 0
M  V30 3831 N 344.076 1.60392 2.42328 0
M  V30 3832 H 343.623 2.00122 1.622 0
M  V30 3833 H 343.581 0.952159 2.99635 0
M  V30 3834 N 347.353 -0.0568162 1.57498 0
M  V30 3835 C 348.601 -0.751617 1.87604 0
M  V30 3836 C 348.922 -1.77351 0.81066 0
M  V30 3837 O 348.192 -1.95254 -0.159018 0
M  V30 3838 H 346.772 -0.280583 0.692302 0
M  V30 3839 H 349.434 -0.0293483 1.94878 0
M  V30 3840 H 348.53 -1.25852 2.856 0
M  V30 3841 N 348.832 -1.54138 -0.328536 0
M  V30 3842 C 350.109 -1.62749 -1.08499 0
M  V30 3843 C 350.489 -0.458198 -2.06067 0
M  V30 3844 O 349.837 0.548046 -2.2183 0
M  V30 3845 C 350.047 -2.99519 -1.79135 0
M  V30 3846 C 351.395 -3.55394 -2.32337 0
M  V30 3847 O 352.419 -3.01792 -1.89209 0
M  V30 3848 O 351.278 -4.49186 -3.11279 0
M  V30 3849 H 348.372 -0.65886 -0.499832 0
M  V30 3850 H 350.918 -1.66484 -0.328826 0
M  V30 3851 H 349.69 -3.76061 -1.08139 0
M  V30 3852 H 349.313 -2.99441 -2.61574 0
M  V30 3853 N 350.31 0.590341 -1.46126 0
M  V30 3854 C 351.559 1.34499 -1.50309 0
M  V30 3855 C 351.872 1.94977 -0.156021 0
M  V30 3856 O 353.078 2.71395 -0.0756037 0
M  V30 3857 C 351.534 2.43723 -2.64815 0
M  V30 3858 C 351.142 1.89582 -4.0591 0
M  V30 3859 C 352.886 3.20579 -2.78262 0
M  V30 3860 C 350.793 2.9639 -5.11769 0
M  V30 3861 H 349.723 0.505593 -0.559368 0
M  V30 3862 H 352.374 0.630848 -1.72315 0
M  V30 3863 H 350.756 3.17902 -2.36124 0
M  V30 3864 H 351.93 1.21997 -4.44357 0
M  V30 3865 H 350.245 1.25418 -3.97063 0
M  V30 3866 H 352.842 4.00276 -3.54519 0
M  V30 3867 H 353.185 3.72684 -1.85505 0
M  V30 3868 H 353.718 2.53505 -3.06562 0
M  V30 3869 H 350.457 2.49181 -6.06291 0
M  V30 3870 H 349.977 3.62487 -4.77873 0
M  V30 3871 H 351.656 3.60474 -5.37278 0
M  V30 3872 N 351.788 1.33704 0.83433 0
M  V30 3873 C 352.718 1.26967 1.95963 0
M  V30 3874 C 353.699 0.149337 1.69443 0
M  V30 3875 O 354.884 0.339852 1.91203 0
M  V30 3876 C 352.014 1.01275 3.32206 0
M  V30 3877 C 350.968 2.09652 3.73136 0
M  V30 3878 C 350.294 1.69166 5.07235 0
M  V30 3879 C 351.594 3.51372 3.86439 0
M  V30 3880 H 353.288 2.2112 2.01857 0
M  V30 3881 H 350.834 1.06447 0.969793 0
M  V30 3882 H 352.787 0.952106 4.10503 0
M  V30 3883 H 351.511 0.0356203 3.26581 0
M  V30 3884 H 350.17 2.14766 2.97104 0
M  V30 3885 H 349.818 0.701437 4.98085 0
M  V30 3886 H 349.518 2.41694 5.35591 0
M  V30 3887 H 351.042 1.64576 5.88003 0
M  V30 3888 H 352.456 3.48734 4.55036 0
M  V30 3889 H 350.853 4.22425 4.26236 0
M  V30 3890 H 351.923 3.89546 2.88759 0
M  V30 3891 N 353.266 -1.05314 1.17247 0
M  V30 3892 C 354.176 -2.16538 0.90268 0
M  V30 3893 C 355.192 -1.73523 -0.128707 0
M  V30 3894 O 356.368 -2.01337 0.0502701 0
M  V30 3895 C 353.433 -3.44167 0.418356 0
M  V30 3896 C 352.494 -4.01635 1.51618 0
M  V30 3897 C 351.727 -5.23171 1.05487 0
M  V30 3898 O 351.95 -5.70327 -0.0914715 0
M  V30 3899 O 350.884 -5.72848 1.8474 0
M  V30 3900 H 354.71 -2.42145 1.83302 0
M  V30 3901 H 352.295 -1.15037 0.953246 0
M  V30 3902 H 354.177 -4.21112 0.155726 0
M  V30 3903 H 352.852 -3.20063 -0.48385 0
M  V30 3904 H 351.759 -3.26135 1.83268 0
M  V30 3905 H 353.092 -4.30053 2.39405 0
M  V30 3906 N 354.744 -0.972509 -1.24016 0
M  V30 3907 C 355.692 -0.498562 -2.27194 0
M  V30 3908 C 356.686 0.440372 -1.63576 0
M  V30 3909 O 357.892 0.315133 -1.7722 0
M  V30 3910 H 354.267 -0.142775 -0.738322 0
M  V30 3911 H 356.238 -1.38065 -2.64539 0
M  V30 3912 C 354.987 0.191072 -3.47175 0
M  V30 3913 H 354.31 -0.522318 -3.96373 0
M  V30 3914 H 355.75 0.486445 -4.212 0
M  V30 3915 C 354.209 1.41967 -3.05527 0
M  V30 3916 O 354.739 2.51642 -3.13112 0
M  V30 3917 N 352.945 1.28746 -2.60524 0
M  V30 3918 H 352.492 0.395089 -2.54552 0
M  V30 3919 H 352.45 2.11061 -2.33025 0
M  V30 3920 N 356.222 1.38976 -0.743202 0
M  V30 3921 C 357.471 1.99581 -0.291592 0
M  V30 3922 C 357.784 1.59656 1.13001 0
M  V30 3923 O 358.99 2.13157 1.68156 0
M  V30 3924 C 357.446 3.56813 -0.470391 0
M  V30 3925 C 357.054 4.05695 -1.90041 0
M  V30 3926 C 358.798 4.24423 -0.0809709 0
M  V30 3927 C 356.705 5.5553 -2.02832 0
M  V30 3928 H 355.635 0.746615 -0.105272 0
M  V30 3929 H 358.286 1.58872 -0.918258 0
M  V30 3930 H 356.668 3.95359 0.225299 0
M  V30 3931 H 357.842 3.78464 -2.62872 0
M  V30 3932 H 356.157 3.50775 -2.24379 0
M  V30 3933 H 358.754 5.34474 -0.155445 0
M  V30 3934 H 359.097 4.04962 0.96497 0
M  V30 3935 H 359.63 3.9108 -0.728124 0
M  V30 3936 H 356.369 5.79881 -3.05643 0
M  V30 3937 H 355.889 5.84537 -1.34448 0
M  V30 3938 H 357.568 6.21069 -1.81335 0
M  V30 3939 N 357.7 0.491464 1.49741 0
M  V30 3940 C 358.65 -0.311086 2.25868 0
M  V30 3941 C 359.634 -0.943857 1.30308 0
M  V30 3942 O 360.826 -0.853035 1.55088 0
M  V30 3943 C 357.955 -1.38059 3.14316 0
M  V30 3944 C 357.041 -0.754541 4.17334 0
M  V30 3945 N 357.432 0.137216 5.05614 0
M  V30 3946 C 355.73 -1.01621 4.34269 0
M  V30 3947 C 356.431 0.494614 5.79593 0
M  V30 3948 N 355.407 -0.135169 5.43432 0
M  V30 3949 H 359.209 0.37555 2.91491 0
M  V30 3950 H 356.723 0.306917 1.59473 0
M  V30 3951 H 358.72 -1.96891 3.67477 0
M  V30 3952 H 357.38 -2.06901 2.50244 0
M  V30 3953 H 358.391 0.50741 5.15408 0
M  V30 3954 H 355.068 -1.69808 3.81407 0
M  V30 3955 H 356.458 1.2236 6.60665 0
M  V30 3956 N 359.178 -1.55987 0.224894 0
M  V30 3957 C 360.088 -2.24066 -0.69511 0
M  V30 3958 C 361.104 -1.24939 -1.21104 0
M  V30 3959 O 362.28 -1.5776 -1.25195 0
M  V30 3960 C 359.345 -2.90983 -1.88493 0
M  V30 3961 C 358.406 -4.05462 -1.41064 0
M  V30 3962 C 357.639 -4.69179 -2.54375 0
M  V30 3963 O 357.862 -4.31895 -3.72589 0
M  V30 3964 O 356.796 -5.58108 -2.25386 0
M  V30 3965 H 360.622 -3.03353 -0.145149 0
M  V30 3966 H 358.207 -1.49399 -0.00569476 0
M  V30 3967 H 360.089 -3.33209 -2.57972 0
M  V30 3968 H 358.764 -2.14653 -2.42293 0
M  V30 3969 H 357.671 -3.67798 -0.683774 0
M  V30 3970 H 359.004 -4.83545 -0.918985 0
M  V30 3971 N 360.656 0.0484629 -1.57525 0
M  V30 3972 C 361.902 0.744226 -1.88651 0
M  V30 3973 C 362.235 1.76029 -0.820212 0
M  V30 3974 O 361.51 1.93782 0.166985 0
M  V30 3975 C 361.793 1.43128 -3.30434 0
M  V30 3976 C 361.646 0.43005 -4.47739 0
M  V30 3977 C 362.965 2.37031 -3.70816 0
M  V30 3978 H 360.084 0.269089 -0.68612 0
M  V30 3979 H 362.726 0.00713532 -1.89999 0
M  V30 3980 H 360.876 2.05956 -3.29415 0
M  V30 3981 H 362.548 -0.194816 -4.60888 0
M  V30 3982 H 360.791 -0.252522 -4.33064 0
M  V30 3983 H 361.462 0.948874 -5.43783 0
M  V30 3984 H 363.938 1.84263 -3.73077 0
M  V30 3985 H 362.814 2.82094 -4.70865 0
M  V30 3986 H 363.075 3.22864 -3.02012 0
M  V30 3987 N 362.134 1.5431 0.320358 0
M  V30 3988 C 363.067 1.78769 1.41834 0
M  V30 3989 C 364.045 0.63783 1.49568 0
M  V30 3990 O 365.229 0.875628 1.66928 0
M  V30 3991 C 362.356 1.90712 2.79905 0
M  V30 3992 C 361.402 3.13023 2.89687 0
M  V30 3993 S 362.235 4.71554 2.53766 0
M  V30 3994 C 363.391 4.86408 3.93902 0
M  V30 3995 H 363.624 2.71619 1.20874 0
M  V30 3996 H 361.157 1.45474 0.517377 0
M  V30 3997 H 363.115 1.98279 3.59438 0
M  V30 3998 H 361.776 0.988343 2.98145 0
M  V30 3999 H 360.969 3.18124 3.90913 0
M  V30 4000 H 360.571 3.03803 2.18128 0
M  V30 4001 H 362.863 4.69241 4.88691 0
M  V30 4002 H 363.806 5.88508 3.93782 0
M  V30 4003 H 364.214 4.14689 3.83005 0
M  V30 4004 N 363.613 -0.582584 1.46437 0
M  V30 4005 C 364.523 -1.71949 1.59595 0
M  V30 4006 C 365.539 -1.67264 0.479443 0
M  V30 4007 O 366.715 -1.87171 0.743579 0
M  V30 4008 C 363.78 -3.08452 1.58298 0
M  V30 4009 C 362.841 -3.244 2.81182 0
M  V30 4010 C 362.074 -4.54391 2.79937 0
M  V30 4011 O 362.297 -5.38287 1.8869 0
M  V30 4012 O 361.231 -4.73588 3.71481 0
M  V30 4013 H 365.057 -1.63795 2.55744 0
M  V30 4014 H 362.642 -0.749643 1.29231 0
M  V30 4015 H 364.524 -3.89732 1.60271 0
M  V30 4016 H 363.199 -3.17043 0.653094 0
M  V30 4017 H 362.106 -2.42613 2.84763 0
M  V30 4018 H 363.439 -3.20699 3.7338 0
M  V30 4019 N 365.091 -1.34144 -0.827227 0
M  V30 4020 C 366.34 -1.25602 -1.5782 0
M  V30 4021 C 366.653 0.173445 -1.94829 0
M  V30 4022 O 367.859 0.380984 -2.68814 0
M  V30 4023 C 366.315 -2.20151 -2.84713 0
M  V30 4024 C 365.923 -3.68331 -2.55021 0
M  V30 4025 C 367.667 -2.20508 -3.62735 0
M  V30 4026 C 365.574 -4.54762 -3.78082 0
M  V30 4027 H 364.504 -0.466573 -0.592306 0
M  V30 4028 H 367.155 -1.59283 -0.911116 0
M  V30 4029 H 365.537 -1.79417 -3.53023 0
M  V30 4030 H 366.711 -4.17577 -1.94849 0
M  V30 4031 H 365.026 -3.7038 -1.90283 0
M  V30 4032 H 367.623 -2.82306 -4.54101 0
M  V30 4033 H 367.966 -1.20322 -3.98533 0
M  V30 4034 H 368.499 -2.59664 -3.01362 0
M  V30 4035 H 365.238 -5.55867 -3.47407 0
M  V30 4036 H 364.758 -4.10254 -4.37552 0
M  V30 4037 H 366.437 -4.69153 -4.45538 0
M  V30 4038 N 366.569 1.04691 -1.17803 0
M  V30 4039 C 367.516 2.12557 -0.899343 0
M  V30 4040 C 368.486 1.65339 0.158771 0
M  V30 4041 O 369.671 1.90789 0.0204797 0
M  V30 4042 C 366.811 3.42481 -0.424315 0
M  V30 4043 C 365.924 4.03346 -1.54713 0
M  V30 4044 C 365.059 5.21208 -1.02546 0
M  V30 4045 C 364.098 5.74089 -2.12339 0
M  V30 4046 N 363.235 6.83247 -1.61612 0
M  V30 4047 H 368.075 2.35734 -1.823 0
M  V30 4048 H 365.612 1.1564 -0.909159 0
M  V30 4049 H 367.57 4.16996 -0.130421 0
M  V30 4050 H 366.2 3.19471 0.462377 0
M  V30 4051 H 365.252 3.2622 -1.95664 0
M  V30 4052 H 366.564 4.38628 -2.37501 0
M  V30 4053 H 365.718 6.02812 -0.685718 0
M  V30 4054 H 364.457 4.87414 -0.167084 0
M  V30 4055 H 363.462 4.91111 -2.47165 0
M  V30 4056 H 364.687 6.0993 -2.98601 0
M  V30 4057 H 362.633 6.5134 -0.780533 0
M  V30 4058 H 362.55 7.17559 -2.38003 0
M  V30 4059 H 363.818 7.68491 -1.30545 0
M  V30 4060 N 368.047 0.979072 1.23499 0
M  V30 4061 C 369.294 0.647219 1.91878 0
M  V30 4062 C 369.622 -0.819074 1.76413 0
M  V30 4063 O 368.877 -1.60616 1.11808 0
M  V30 4064 C 369.176 0.981932 3.43646 0
M  V30 4065 C 368.842 2.43822 3.79291 0
M  V30 4066 C 367.504 2.83622 3.88731 0
M  V30 4067 C 369.856 3.3828 3.96505 0
M  V30 4068 C 367.184 4.16897 4.12812 0
M  V30 4069 C 369.536 4.71197 4.22085 0
M  V30 4070 C 368.2 5.10758 4.29747 0
M  V30 4071 H 367.47 0.236834 0.702133 0
M  V30 4072 H 370.117 1.23268 1.46551 0
M  V30 4073 H 368.422 0.314365 3.90537 0
M  V30 4074 H 370.119 0.703395 3.94783 0
M  V30 4075 H 366.709 2.11966 3.72516 0
M  V30 4076 H 370.893 3.0871 3.88603 0
M  V30 4077 H 366.149 4.47157 4.16966 0
M  V30 4078 H 370.323 5.44348 4.34348 0
M  V30 4079 H 367.95 6.1405 4.48159 0
M  V30 4080 N 369.525 -1.3858 0.750561 0
M  V30 4081 C 370.472 -2.30483 0.120835 0
M  V30 4082 C 371.442 -1.50022 -0.712923 0
M  V30 4083 O 372.627 -1.78662 -0.669676 0
M  V30 4084 C 369.767 -3.36431 -0.768666 0
M  V30 4085 C 368.88 -4.31927 0.0793922 0
M  V30 4086 C 368.015 -5.24944 -0.81283 0
M  V30 4087 C 367.054 -6.12088 0.0390447 0
M  V30 4088 N 366.191 -6.97412 -0.809969 0
M  V30 4089 H 371.031 -2.83761 0.91015 0
M  V30 4090 H 368.568 -1.39707 0.460463 0
M  V30 4091 H 370.526 -3.96462 -1.29898 0
M  V30 4092 H 369.156 -2.8457 -1.5238 0
M  V30 4093 H 368.208 -3.73382 0.727303 0
M  V30 4094 H 369.52 -4.93319 0.737401 0
M  V30 4095 H 368.674 -5.90078 -1.41042 0
M  V30 4096 H 367.413 -4.63911 -1.50458 0
M  V30 4097 H 366.418 -5.45952 0.649328 0
M  V30 4098 H 367.643 -6.75189 0.727809 0
M  V30 4099 H 365.589 -6.38931 -1.48672 0
M  V30 4100 H 365.506 -7.55712 -0.208789 0
M  V30 4101 H 366.774 -7.66959 -1.39263 0
M  V30 4102 N 371.003 -0.499398 -1.49478 0
M  V30 4103 C 372.251 0.0455996 -2.02049 0
M  V30 4104 C 372.572 1.37633 -1.38138 0
M  V30 4105 O 371.842 1.8842 -0.536166 0
M  V30 4106 H 370.422 0.0198416 -0.746736 0
M  V30 4107 H 373.084 -0.656274 -1.83519 0
M  V30 4108 H 372.18 0.176445 -3.11601 0
M  V30 4109 N 372.481 1.55866 -0.233164 0
M  V30 4110 C 373.727 1.98897 0.395959 0
M  V30 4111 C 374.06 1.12091 1.58585 0
M  V30 4112 O 373.335 0.181182 1.93654 0
M  V30 4113 C 373.618 3.50658 0.819224 0
M  V30 4114 C 373.471 4.48233 -0.375109 0
M  V30 4115 C 374.79 4.07135 1.67121 0
M  V30 4116 H 371.909 0.723102 0.142451 0
M  V30 4117 H 374.551 1.87082 -0.331725 0
M  V30 4118 H 372.701 3.60857 1.43925 0
M  V30 4119 H 374.373 4.50031 -1.01341 0
M  V30 4120 H 372.616 4.21624 -1.02058 0
M  V30 4121 H 373.287 5.51988 -0.0358328 0
M  V30 4122 H 375.763 3.99952 1.14795 0
M  V30 4123 H 374.639 5.13615 1.93625 0
M  V30 4124 H 374.9 3.54736 2.63846 0
M  V30 4125 N 373.959 -0.0401083 1.57549 0
M  V30 4126 C 375.236 -0.767917 1.79896 0
M  V30 4127 C 375.616 -1.9416 0.82856 0
M  V30 4128 O 374.964 -2.2812 -0.131671 0
M  V30 4129 C 375.174 -1.2113 3.27305 0
M  V30 4130 C 376.522 -1.63175 3.91994 0
M  V30 4131 O 377.546 -1.30616 3.31388 0
M  V30 4132 O 376.405 -2.23565 4.98679 0
M  V30 4133 H 373.499 -0.370441 0.739393 0
M  V30 4134 H 376.045 -0.017737 1.69691 0
M  V30 4135 H 374.817 -0.372937 3.89519 0
M  V30 4136 H 374.44 -2.02183 3.42356 0
M  V30 4137 N 375.437 -1.54477 -0.31217 0
M  V30 4138 C 376.385 -1.85395 -1.40469 0
M  V30 4139 C 377.379 -0.726749 -1.53019 0
M  V30 4140 O 378.585 -0.910582 -1.55269 0
M  V30 4141 H 374.96 -0.587845 -0.46898 0
M  V30 4142 H 376.931 -2.76736 -1.11623 0
M  V30 4143 C 375.68 -2.10811 -2.76503 0
M  V30 4144 H 375.003 -2.97014 -2.67625 0
M  V30 4145 H 376.443 -2.3639 -3.51988 0
M  V30 4146 C 374.902 -0.903165 -3.24568 0
M  V30 4147 O 375.432 -0.118085 -4.01526 0
M  V30 4148 N 373.638 -0.711634 -2.81752 0
M  V30 4149 H 373.185 -1.35171 -2.19286 0
M  V30 4150 H 373.143 0.0930473 -3.14262 0
M  V30 4151 N 376.915 0.57481 -1.46744 0
M  V30 4152 C 377.825 1.711 -1.60505 0
M  V30 4153 C 378.841 1.67008 -0.488307 0
M  V30 4154 O 380.017 1.86774 -0.753495 0
M  V30 4155 C 377.082 3.07608 -1.59932 0
M  V30 4156 C 376.143 3.22904 -2.82898 0
M  V30 4157 C 375.376 4.529 -2.82343 0
M  V30 4158 O 375.599 5.37278 -1.91542 0
M  V30 4159 O 374.533 4.71611 -3.73987 0
M  V30 4160 H 378.359 1.62436 -2.56609 0
M  V30 4161 H 375.944 0.742779 -1.29627 0
M  V30 4162 H 377.826 3.88877 -1.62336 0
M  V30 4163 H 376.501 3.16692 -0.669898 0
M  V30 4164 H 375.408 2.41099 -2.86046 0
M  V30 4165 H 376.741 3.18715 -3.75076 0
M  V30 4166 N 378.394 1.34581 0.820102 0
M  V30 4167 C 379.671 1.17675 1.56244 0
M  V30 4168 C 380.051 -0.249541 2.0962 0
M  V30 4169 O 379.399 -1.25125 1.91196 0
M  V30 4170 C 379.609 2.23364 2.6816 0
M  V30 4171 C 380.957 2.58485 3.36854 0
M  V30 4172 O 381.981 2.22175 2.78418 0
M  V30 4173 O 380.84 3.20868 4.42386 0
M  V30 4174 H 377.934 0.456333 0.689702 0
M  V30 4175 H 380.48 1.46222 0.861231 0
M  V30 4176 H 379.252 3.19087 2.26493 0
M  V30 4177 H 378.875 1.96009 3.45928 0
M  V30 4178 N 379.872 -1.04064 1.18357 0
M  V30 4179 C 381.149 -1.74252 0.888581 0
M  V30 4180 C 381.529 -2.02138 -0.60856 0
M  V30 4181 O 380.877 -1.66656 -1.56327 0
M  V30 4182 C 381.087 -3.0277 1.73584 0
M  V30 4183 C 382.435 -3.76506 1.96286 0
M  V30 4184 O 383.459 -3.12668 1.70637 0
M  V30 4185 O 382.318 -4.91243 2.39464 0
M  V30 4186 H 379.412 -0.758271 0.330082 0
M  V30 4187 H 381.958 -1.1013 1.2911 0
M  V30 4188 H 380.73 -2.78299 2.75073 0
M  V30 4189 H 380.353 -3.74631 1.33183 0
M  V30 4190 N 381.35 -0.985608 -1.22978 0
M  V30 4191 C 382.3 -0.50118 -2.22423 0
M  V30 4192 C 383.284 0.426649 -1.5514 0
M  V30 4193 O 384.476 0.254656 -1.75159 0
M  V30 4194 C 381.605 0.190003 -3.42774 0
M  V30 4195 C 380.691 -0.757703 -4.17276 0
M  V30 4196 N 381.082 -1.90251 -4.68656 0
M  V30 4197 C 379.38 -0.57209 -4.42316 0
M  V30 4198 C 380.081 -2.49676 -5.25392 0
M  V30 4199 N 379.057 -1.78013 -5.13627 0
M  V30 4200 H 382.859 -1.37441 -2.59783 0
M  V30 4201 H 380.373 -0.846941 -1.38567 0
M  V30 4202 H 382.37 0.55439 -4.13197 0
M  V30 4203 H 381.03 1.05946 -3.06929 0
M  V30 4204 H 382.041 -2.28354 -4.64839 0
M  V30 4205 H 378.718 0.251909 -4.16739 0
M  V30 4206 H 380.108 -3.46384 -5.75732 0
M  V30 4207 N 382.828 1.3818 -0.7579 0
M  V30 4208 C 384.076 1.99624 -0.315361 0
M  V30 4209 C 384.397 1.60464 1.10799 0
M  V30 4210 O 383.667 0.863507 1.75842 0
M  V30 4211 H 382.247 0.73831 -0.113611 0
M  V30 4212 H 384.909 1.68878 -0.972952 0
M  V30 4213 H 384.005 3.09754 -0.381931 0
M  V30 4214 N 384.306 0.507319 1.49211 0
M  V30 4215 C 385.722 0.163682 1.58758 0
M  V30 4216 C 385.922 -1.33208 1.51188 0
M  V30 4217 O 384.978 -2.10855 1.38911 0
M  V30 4218 C 386.291 0.746095 2.91297 0
M  V30 4219 C 387.839 0.712773 3.04776 0
M  V30 4220 C 388.314 1.27336 4.39943 0
M  V30 4221 N 389.805 1.23433 4.46451 0
M  V30 4222 C 390.54 1.63821 5.495 0
M  V30 4223 N 390.036 2.11832 6.5962 0
M  V30 4224 N 391.829 1.55198 5.4025 0
M  V30 4225 H 383.98 1.47972 1.52375 0
M  V30 4226 H 386.243 0.614147 0.722168 0
M  V30 4227 H 385.949 1.79534 3.02424 0
M  V30 4228 H 385.823 0.210137 3.76614 0
M  V30 4229 H 388.21 -0.327656 2.93275 0
M  V30 4230 H 388.291 1.28595 2.21127 0
M  V30 4231 H 387.935 2.3126 4.52196 0
M  V30 4232 H 387.865 0.676066 5.22242 0
M  V30 4233 H 390.356 0.882627 3.67448 0
M  V30 4234 H 390.669 2.40703 7.34358 0
M  V30 4235 H 389.014 2.1581 6.60644 0
M  V30 4236 H 392.205 1.17505 4.53112 0
M  V30 4237 H 392.378 1.86997 6.20432 0
M  V30 4238 N 385.784 -1.5574 0.241426 0
M  V30 4239 C 387.032 -1.98417 -0.384075 0
M  V30 4240 C 387.353 -1.13078 -1.58866 0
M  V30 4241 O 386.623 -0.212312 -1.94746 0
M  V30 4242 H 385.203 -0.732813 -0.144894 0
M  V30 4243 H 387.865 -1.9193 0.338943 0
M  V30 4244 H 386.961 -3.04219 -0.696939 0
M  V30 4245 N 387.262 0.0317525 -1.57568 0
M  V30 4246 C 388.539 0.758366 -1.803 0
M  V30 4247 C 388.919 1.93718 -0.838845 0
M  V30 4248 O 388.267 2.28187 0.119571 0
M  V30 4249 C 388.477 1.19392 -3.27943 0
M  V30 4250 C 389.825 1.61094 -3.92854 0
M  V30 4251 O 390.849 1.28857 -3.32076 0
M  V30 4252 O 389.708 2.20918 -4.99858 0
M  V30 4253 H 386.802 0.366514 -0.741348 0
M  V30 4254 H 389.348 0.00873765 -1.69698 0
M  V30 4255 H 388.12 0.352275 -3.89711 0
M  V30 4256 H 387.743 2.00365 -3.43424 0
M  V30 4257 N 388.74 1.54641 0.303973 0
M  V30 4258 C 389.67 1.88386 1.3796 0
M  V30 4259 C 390.651 0.742485 1.5304 0
M  V30 4260 O 391.836 0.997959 1.66597 0
M  V30 4261 C 388.966 2.12854 2.74427 0
M  V30 4262 C 387.92 3.28702 2.74115 0
M  V30 4263 C 387.246 3.38582 4.13844 0
M  V30 4264 C 388.546 4.65881 2.3612 0
M  V30 4265 H 390.24 2.78474 1.09966 0
M  V30 4266 H 387.786 1.33988 0.527556 0
M  V30 4267 H 389.739 2.35047 3.49758 0
M  V30 4268 H 388.463 1.19535 3.03939 0
M  V30 4269 H 387.122 3.06428 2.0124 0
M  V30 4270 H 386.77 2.42784 4.40528 0
M  V30 4271 H 386.47 4.16453 4.14537 0
M  V30 4272 H 387.994 3.63031 4.90959 0
M  V30 4273 H 389.408 4.87823 3.01167 0
M  V30 4274 H 387.805 5.46444 2.48031 0
M  V30 4275 H 388.875 4.66799 1.3125 0
M  V30 4276 N 390.218 -0.567019 1.47046 0
M  V30 4277 C 391.466 -1.322 1.52864 0
M  V30 4278 C 391.787 -1.94088 0.188388 0
M  V30 4279 O 391.057 -1.7941 -0.786693 0
M  V30 4280 H 389.637 -0.490894 0.563056 0
M  V30 4281 H 392.299 -0.662879 1.83281 0
M  V30 4282 H 391.395 -2.12062 2.2899 0
M  V30 4283 N 391.696 -1.35014 -0.812953 0
M  V30 4284 C 393.112 -1.14914 -1.10757 0
M  V30 4285 C 393.312 0.0426818 -2.01455 0
M  V30 4286 O 392.368 0.715212 -2.42159 0
M  V30 4287 C 393.681 -2.44911 -1.74468 0
M  V30 4288 C 395.229 -2.5106 -1.86917 0
M  V30 4289 C 395.704 -3.81085 -2.54044 0
M  V30 4290 N 397.195 -3.82301 -2.61535 0
M  V30 4291 C 397.93 -4.79634 -3.14227 0
M  V30 4292 N 397.426 -5.87353 -3.67407 0
M  V30 4293 N 399.219 -4.67078 -3.12721 0
M  V30 4294 H 391.37 -2.1136 -0.20989 0
M  V30 4295 H 393.633 -0.935128 -0.155692 0
M  V30 4296 H 393.339 -3.32267 -1.15289 0
M  V30 4297 H 393.213 -2.58989 -2.74234 0
M  V30 4298 H 395.6 -1.64137 -2.45241 0
M  V30 4299 H 395.681 -2.40901 -0.860242 0
M  V30 4300 H 395.325 -4.68402 -1.96372 0
M  V30 4301 H 395.255 -3.88529 -3.55461 0
M  V30 4302 H 397.746 -3.04465 -2.23851 0
M  V30 4303 H 398.059 -6.57624 -4.05894 0
M  V30 4304 H 396.404 -5.91054 -3.65623 0
M  V30 4305 H 399.595 -3.82067 -2.70449 0
M  V30 4306 H 399.768 -5.43098 -3.53481 0
M  V30 4307 N 393.175 1.03435 -1.18907 0
M  V30 4308 C 394.105 2.13503 -0.945448 0
M  V30 4309 C 395.086 1.69682 0.119189 0
M  V30 4310 O 396.271 1.94169 -0.034707 0
M  V30 4311 C 393.401 3.44004 -0.477316 0
M  V30 4312 C 392.355 4.0148 -1.48316 0
M  V30 4313 C 391.681 5.27537 -0.872311 0
M  V30 4314 C 392.981 4.36921 -2.86177 0
M  V30 4315 H 394.675 2.34141 -1.86597 0
M  V30 4316 H 392.221 1.12523 -0.898584 0
M  V30 4317 H 394.174 4.20372 -0.294204 0
M  V30 4318 H 392.898 3.23072 0.478786 0
M  V30 4319 H 391.557 3.27201 -1.65332 0
M  V30 4320 H 391.205 5.02917 0.0911752 0
M  V30 4321 H 390.905 5.66954 -1.54393 0
M  V30 4322 H 392.429 6.06576 -0.699871 0
M  V30 4323 H 393.843 5.04248 -2.72776 0
M  V30 4324 H 392.24 4.87405 -3.50081 0
M  V30 4325 H 393.31 3.46466 -3.39248 0
M  V30 4326 N 394.653 0.992116 1.22453 0
M  V30 4327 C 395.6 0.541731 2.24352 0
M  V30 4328 C 396.57 -0.425519 1.60557 0
M  V30 4329 O 397.755 -0.330453 1.87917 0
M  V30 4330 C 394.895 -0.138248 3.44823 0
M  V30 4331 C 394.008 0.870649 4.23136 0
M  V30 4332 C 393.143 0.164269 5.30946 0
M  V30 4333 C 392.182 1.16159 6.00977 0
M  V30 4334 N 391.319 0.483568 7.00433 0
M  V30 4335 H 396.159 1.41541 2.62241 0
M  V30 4336 H 393.696 0.709013 1.28885 0
M  V30 4337 H 395.654 -0.5494 4.13567 0
M  V30 4338 H 394.284 -0.975721 3.077 0
M  V30 4339 H 393.336 1.40013 3.53696 0
M  V30 4340 H 394.648 1.63014 4.7141 0
M  V30 4341 H 393.802 -0.303653 6.0594 0
M  V30 4342 H 392.541 -0.627733 4.83643 0
M  V30 4343 H 391.546 1.64015 5.24766 0
M  V30 4344 H 392.771 1.95445 6.50368 0
M  V30 4345 H 390.717 -0.289012 6.55363 0
M  V30 4346 H 390.634 1.18152 7.4671 0
M  V30 4347 H 391.902 0.0384219 7.79491 0
M  V30 4348 N 396.131 -1.37776 0.765217 0
M  V30 4349 C 397.078 -2.30342 0.145274 0
M  V30 4350 C 398.048 -1.5077 -0.696971 0
M  V30 4351 O 399.233 -1.79362 -0.650689 0
M  V30 4352 C 396.373 -3.37227 -0.732939 0
M  V30 4353 C 395.486 -4.31819 0.125199 0
M  V30 4354 C 394.621 -5.25777 -0.757107 0
M  V30 4355 C 393.66 -6.12012 0.103963 0
M  V30 4356 N 392.797 -6.98232 -0.735953 0
M  V30 4357 H 397.637 -2.8278 0.940195 0
M  V30 4358 H 395.174 -1.39211 0.475255 0
M  V30 4359 H 397.132 -3.97818 -1.25686 0
M  V30 4360 H 395.762 -2.86171 -1.49353 0
M  V30 4361 H 394.814 -3.7259 0.766865 0
M  V30 4362 H 396.126 -4.92509 0.789683 0
M  V30 4363 H 395.28 -5.91541 -1.34776 0
M  V30 4364 H 394.019 -4.65481 -1.45529 0
M  V30 4365 H 393.024 -5.45233 0.707197 0
M  V30 4366 H 394.249 -6.74379 0.799381 0
M  V30 4367 H 392.195 -6.40472 -1.41887 0
M  V30 4368 H 392.112 -7.55891 -0.128624 0
M  V30 4369 H 393.38 -7.68393 -1.31121 0
M  V30 4370 N 397.609 -0.515225 -1.4894 0
M  V30 4371 C 398.541 0.292481 -2.27326 0
M  V30 4372 C 399.554 0.917838 -1.3446 0
M  V30 4373 O 400.743 0.798772 -1.5963 0
M  V30 4374 C 397.843 1.42803 -3.07344 0
M  V30 4375 C 397.016 0.907347 -4.27885 0
M  V30 4376 C 396.075 1.92222 -4.89834 0
M  V30 4377 O 395.101 1.48506 -5.49486 0
M  V30 4378 N 396.303 3.25355 -4.80754 0
M  V30 4379 H 399.068 -0.379721 -2.97285 0
M  V30 4380 H 396.629 -0.348638 -1.58102 0
M  V30 4381 H 398.621 2.10481 -3.45658 0
M  V30 4382 H 397.191 2.00414 -2.39902 0
M  V30 4383 H 396.411 0.0550218 -3.94162 0
M  V30 4384 H 397.699 0.538108 -5.05946 0
M  V30 4385 H 397.097 3.6355 -4.33414 0
M  V30 4386 H 395.654 3.88707 -5.23211 0
M  V30 4387 N 399.087 1.5561 -0.249682 0
M  V30 4388 C 400.034 2.21496 0.648694 0
M  V30 4389 C 401.004 1.17977 1.16921 0
M  V30 4390 O 402.189 1.46434 1.22318 0
M  V30 4391 C 399.329 2.92039 1.83868 0
M  V30 4392 C 398.442 4.10219 1.35442 0
M  V30 4393 C 397.577 4.6847 2.50419 0
M  V30 4394 C 396.616 5.78893 1.98869 0
M  V30 4395 N 395.753 6.31315 3.07223 0
M  V30 4396 H 400.593 2.97892 0.0801582 0
M  V30 4397 H 398.13 1.47074 0.0278031 0
M  V30 4398 H 400.088 3.31138 2.53778 0
M  V30 4399 H 398.718 2.18111 2.37965 0
M  V30 4400 H 397.77 3.76413 0.54928 0
M  V30 4401 H 399.082 4.89927 0.936649 0
M  V30 4402 H 398.236 5.10158 3.28366 0
M  V30 4403 H 396.975 3.87984 2.95499 0
M  V30 4404 H 395.98 5.3668 1.19393 0
M  V30 4405 H 397.205 6.61232 1.54755 0
M  V30 4406 H 395.151 5.53733 3.51732 0
M  V30 4407 H 395.068 7.06224 2.69784 0
M  V30 4408 H 396.336 6.77662 3.8522 0
M  V30 4409 N 400.565 -0.0233959 1.57583 0
M  V30 4410 C 401.842 -0.748794 1.807 0
M  V30 4411 C 402.222 -1.9327 0.849106 0
M  V30 4412 O 401.57 -2.28247 -0.107468 0
M  V30 4413 C 401.78 -1.17651 3.28571 0
M  V30 4414 C 403.128 -1.59008 3.93702 0
M  V30 4415 O 404.152 -1.27094 3.32755 0
M  V30 4416 O 403.011 -2.18264 5.01022 0
M  V30 4417 H 400.105 -0.362578 0.743281 0
M  V30 4418 H 402.651 0.000261958 1.697 0
M  V30 4419 H 401.423 -0.331603 3.89892 0
M  V30 4420 H 401.046 -1.98541 3.44481 0
M  V30 4421 N 402.043 -1.548 -0.295768 0
M  V30 4422 C 402.993 -1.82497 -1.3667 0
M  V30 4423 C 403.977 -0.682434 -1.45711 0
M  V30 4424 O 405.169 -0.943207 -1.49775 0
M  V30 4425 C 402.298 -2.08036 -2.73086 0
M  V30 4426 C 401.384 -3.28488 -2.68247 0
M  V30 4427 N 401.775 -4.48924 -2.33025 0
M  V30 4428 C 400.073 -3.3062 -2.99343 0
M  V30 4429 C 400.774 -5.30956 -2.37613 0
M  V30 4430 N 399.75 -4.68805 -2.75178 0
M  V30 4431 H 403.552 -2.73175 -1.0841 0
M  V30 4432 H 401.066 -1.5437 -0.504361 0
M  V30 4433 H 403.063 -2.26027 -3.5031 0
M  V30 4434 H 401.723 -1.18629 -3.02254 0
M  V30 4435 H 402.734 -4.75432 -2.05389 0
M  V30 4436 H 399.411 -2.51336 -3.33371 0
M  V30 4437 H 400.801 -6.37199 -2.13135 0
M  V30 4438 N 403.521 0.559213 -1.47345 0
M  V30 4439 C 404.471 1.66192 -1.5609 0
M  V30 4440 C 405.455 1.55323 -0.419957 0
M  V30 4441 O 406.647 1.63839 -0.669762 0
M  V30 4442 C 403.776 3.0497 -1.57634 0
M  V30 4443 C 402.862 3.2105 -2.77106 0
M  V30 4444 N 403.253 3.07203 -4.01821 0
M  V30 4445 C 401.551 3.52046 -2.73825 0
M  V30 4446 C 402.252 3.25919 -4.81821 0
M  V30 4447 N 401.228 3.52161 -4.14106 0
M  V30 4448 H 405.03 1.54052 -2.5029 0
M  V30 4449 H 402.544 0.763914 -1.43311 0
M  V30 4450 H 404.541 3.84142 -1.61989 0
M  V30 4451 H 403.201 3.18224 -0.645281 0
M  V30 4452 H 404.212 2.84572 -4.32711 0
M  V30 4453 H 400.889 3.71839 -1.89848 0
M  V30 4454 H 402.279 3.20198 -5.90697 0
M  V30 4455 N 404.999 1.35443 0.805782 0
M  V30 4456 C 405.947 1.28465 1.93906 0
M  V30 4457 C 406.941 0.17943 1.68447 0
M  V30 4458 O 408.147 0.345459 1.76654 0
M  V30 4459 H 404.522 0.399528 0.637088 0
M  V30 4460 H 406.493 2.24206 1.96912 0
M  V30 4461 C 405.242 1.07432 3.30687 0
M  V30 4462 H 404.565 1.91716 3.50835 0
M  V30 4463 H 406.005 1.06591 4.10383 0
M  V30 4464 C 404.464 -0.22179 3.36169 0
M  V30 4465 O 404.994 -1.21731 3.82811 0
M  V30 4466 N 403.2 -0.260841 2.89427 0
M  V30 4467 H 402.747 0.549884 2.51663 0
M  V30 4468 H 402.705 -1.12777 2.93477 0
M  V30 4469 N 406.477 -1.02803 1.19454 0
M  V30 4470 C 407.888 -1.57667 0.999899 0
M  V30 4471 C 408.239 -1.91041 -0.446956 0
M  V30 4472 O 407.364 -1.70978 -1.32648 0
M  V30 4473 C 407.959 -2.86477 1.80877 0
M  V30 4474 C 406.518 -3.37911 1.65811 0
M  V30 4475 C 405.665 -2.11343 1.79526 0
M  V30 4476 H 408.616 -0.853214 1.33813 0
M  V30 4477 H 408.637 -3.57408 1.30536 0
M  V30 4478 H 408.149 -2.62155 2.86175 0
M  V30 4479 H 406.25 -3.67218 0.63102 0
M  V30 4480 H 406.363 -4.10885 2.46395 0
M  V30 4481 H 404.727 -2.23254 1.22596 0
M  V30 4482 H 405.51 -1.89461 2.86285 0
M  V30 4483 N 407.956 -0.998596 -1.21925 0
M  V30 4484 C 408.906 -0.524743 -2.21879 0
M  V30 4485 C 409.89 0.41017 -1.55584 0
M  V30 4486 O 411.082 0.236063 -1.75419 0
M  V30 4487 C 408.211 0.153636 -3.42956 0
M  V30 4488 C 407.297 -0.801918 -4.16449 0
M  V30 4489 N 407.688 -1.95211 -4.66611 0
M  V30 4490 C 405.986 -0.618972 -4.41684 0
M  V30 4491 C 406.687 -2.55234 -5.22715 0
M  V30 4492 N 405.663 -1.83451 -5.1171 0
M  V30 4493 H 409.465 -1.40189 -2.58311 0
M  V30 4494 H 406.979 -0.86159 -1.3766 0
M  V30 4495 H 408.976 0.510534 -4.13762 0
M  V30 4496 H 407.636 1.02684 -3.08036 0
M  V30 4497 H 408.647 -2.33271 -4.62391 0
M  V30 4498 H 405.324 0.207694 -4.16983 0
M  V30 4499 H 406.714 -3.52471 -5.72026 0
M  V30 4500 N 409.434 1.37368 -0.772513 0
M  V30 4501 C 410.364 2.32856 -0.173304 0
M  V30 4502 C 411.345 1.55818 0.682262 0
M  V30 4503 O 412.53 1.84052 0.619566 0
M  V30 4504 C 409.66 3.40048 0.706007 0
M  V30 4505 C 408.614 4.27973 -0.0483144 0
M  V30 4506 C 407.94 5.26184 0.950491 0
M  V30 4507 C 409.24 5.07665 -1.22776 0
M  V30 4508 H 410.934 2.83217 -0.971002 0
M  V30 4509 H 408.48 1.3617 -0.468377 0
M  V30 4510 H 410.433 4.05827 1.13501 0
M  V30 4511 H 409.157 2.88214 1.53623 0
M  V30 4512 H 407.816 3.63726 -0.458107 0
M  V30 4513 H 407.464 4.7063 1.77529 0
M  V30 4514 H 407.164 5.85872 0.450314 0
M  V30 4515 H 408.688 5.94838 1.37842 0
M  V30 4516 H 410.102 5.66578 -0.875366 0
M  V30 4517 H 408.499 5.76681 -1.66007 0
M  V30 4518 H 409.569 4.40294 -2.03149 0
M  V30 4519 N 410.912 0.523116 1.48665 0
M  V30 4520 C 412.161 -0.01544 2.01694 0
M  V30 4521 C 412.474 -1.35975 1.40606 0
M  V30 4522 O 413.68 -1.98627 1.85093 0
M  V30 4523 C 412.136 -0.0779303 3.59816 0
M  V30 4524 C 411.744 1.26107 4.29885 0
M  V30 4525 C 413.488 -0.565678 4.20714 0
M  V30 4526 C 411.395 1.15954 5.79921 0
M  V30 4527 H 410.325 -0.00954163 0.75394 0
M  V30 4528 H 412.976 0.665865 1.70993 0
M  V30 4529 H 411.358 -0.824165 3.87329 0
M  V30 4530 H 412.532 2.02233 4.14051 0
M  V30 4531 H 410.847 1.68401 3.80828 0
M  V30 4532 H 413.444 -0.6595 5.30617 0
M  V30 4533 H 413.787 -1.56984 3.85567 0
M  V30 4534 H 414.32 0.12467 3.97605 0
M  V30 4535 H 411.059 2.13864 6.19631 0
M  V30 4536 H 410.579 0.439529 5.98187 0
M  V30 4537 H 412.258 0.847361 6.41427 0
M  V30 4538 N 412.39 -1.55475 0.257931 0
M  V30 4539 C 413.32 -2.24815 -0.630912 0
M  V30 4540 C 414.301 -1.23224 -1.17259 0
M  V30 4541 O 415.486 -1.51904 -1.20991 0
M  V30 4542 C 412.616 -2.95609 -1.82298 0
M  V30 4543 C 411.57 -4.03982 -1.41359 0
M  V30 4544 C 410.896 -4.6226 -2.68738 0
M  V30 4545 C 412.196 -5.19109 -0.57648 0
M  V30 4546 H 413.89 -2.99354 -0.0526878 0
M  V30 4547 H 411.436 -1.4398 -0.023901 0
M  V30 4548 H 413.389 -3.42822 -2.45054 0
M  V30 4549 H 412.113 -2.18577 -2.42676 0
M  V30 4550 H 410.772 -3.57555 -0.809324 0
M  V30 4551 H 410.42 -3.81915 -3.27338 0
M  V30 4552 H 410.12 -5.35424 -2.42065 0
M  V30 4553 H 411.644 -5.12212 -3.32372 0
M  V30 4554 H 413.058 -5.62479 -1.10861 0
M  V30 4555 H 411.455 -5.98729 -0.405351 0
M  V30 4556 H 412.525 -4.83174 0.408776 0
M  V30 4557 N 413.868 0.0150385 -1.57593 0
M  V30 4558 C 414.801 1.04475 -2.0288 0
M  V30 4559 C 415.779 1.3436 -0.915764 0
M  V30 4560 O 416.963 1.46779 -1.18271 0
M  V30 4561 C 414.09 2.37608 -2.41371 0
M  V30 4562 C 413.136 2.23487 -3.63257 0
M  V30 4563 S 413.969 1.57505 -5.11813 0
M  V30 4564 C 415.125 2.921 -5.5356 0
M  V30 4565 H 415.358 0.65907 -2.89903 0
M  V30 4566 H 412.891 0.225452 -1.52745 0
M  V30 4567 H 414.849 3.14165 -2.64217 0
M  V30 4568 H 413.51 2.7332 -1.54775 0
M  V30 4569 H 412.703 3.21802 -3.87891 0
M  V30 4570 H 412.305 1.55074 -3.40335 0
M  V30 4571 H 414.597 3.88419 -5.55101 0
M  V30 4572 H 415.54 2.72184 -6.53698 0
M  V30 4573 H 415.948 2.95318 -4.8109 0
M  V30 4574 N 415.346 1.54954 0.287554 0
M  V30 4575 C 416.279 1.81737 1.3801 0
M  V30 4576 C 417.257 0.669412 1.48181 0
M  V30 4577 O 418.441 0.910839 1.65033 0
M  V30 4578 C 415.568 1.96606 2.75796 0
M  V30 4579 C 414.614 3.19098 2.82982 0
M  V30 4580 S 415.447 4.7683 2.43707 0
M  V30 4581 C 416.603 4.94653 3.83496 0
M  V30 4582 H 416.836 2.74122 1.15085 0
M  V30 4583 H 414.369 1.46538 0.486403 0
M  V30 4584 H 416.327 2.05858 3.55152 0
M  V30 4585 H 414.988 1.05136 2.95982 0
M  V30 4586 H 414.181 3.26344 3.84077 0
M  V30 4587 H 413.783 3.08361 2.11635 0
M  V30 4588 H 416.075 4.79502 4.78628 0
M  V30 4589 H 417.018 5.96728 3.8121 0
M  V30 4590 H 417.426 4.2272 3.74123 0
M  V30 4591 N 416.824 -0.551391 1.4764 0
M  V30 4592 C 418.073 -1.30467 1.53822 0
M  V30 4593 C 418.386 -1.94495 0.207661 0
M  V30 4594 O 419.592 -2.71099 0.147533 0
M  V30 4595 C 418.048 -2.36616 2.71184 0
M  V30 4596 C 417.656 -1.78754 4.10793 0
M  V30 4597 C 419.4 -3.13088 2.86663 0
M  V30 4598 C 417.307 -2.82717 5.19447 0
M  V30 4599 H 416.237 -0.490584 0.572576 0
M  V30 4600 H 418.888 -0.58494 1.73927 0
M  V30 4601 H 417.27 -3.11529 2.4447 0
M  V30 4602 H 418.444 -1.10173 4.47435 0
M  V30 4603 H 416.759 -1.14846 4.00249 0
M  V30 4604 H 419.356 -3.90736 3.65007 0
M  V30 4605 H 419.699 -3.67635 1.95321 0
M  V30 4606 H 420.232 -2.45288 3.13175 0
M  V30 4607 H 416.971 -2.33018 6.12685 0
M  V30 4608 H 416.491 -3.4969 4.87316 0
M  V30 4609 H 418.17 -3.46102 5.46646 0
M  V30 4610 N 418.302 -1.35869 -0.798587 0
M  V30 4611 C 419.713 -1.26498 -1.37314 0
M  V30 4612 C 420.064 0.0991899 -1.95949 0
M  V30 4613 O 419.189 1.0004 -1.91888 0
M  V30 4614 C 419.784 -2.29054 -2.49639 0
M  V30 4615 C 418.343 -2.234 -3.02935 0
M  V30 4616 C 417.49 -2.14329 -1.75949 0
M  V30 4617 H 420.441 -1.46881 -0.600971 0
M  V30 4618 H 420.462 -1.92166 -3.28409 0
M  V30 4619 H 419.974 -3.2833 -2.06933 0
M  V30 4620 H 418.075 -1.27562 -3.50084 0
M  V30 4621 H 418.188 -3.15703 -3.60372 0
M  V30 4622 H 416.552 -1.60435 -1.9782 0
M  V30 4623 H 417.335 -3.15477 -1.35384 0
M  V30 4624 N 419.78 1.02168 -1.19998 0
M  V30 4625 C 421.191 1.57135 -1.00825 0
M  V30 4626 C 421.542 1.91276 0.436818 0
M  V30 4627 O 420.667 1.71679 1.3174 0
M  V30 4628 C 421.262 2.85514 -1.82393 0
M  V30 4629 C 419.821 3.37027 -1.67601 0
M  V30 4630 C 418.968 2.10388 -1.80644 0
M  V30 4631 H 421.919 0.846106 -1.34264 0
M  V30 4632 H 421.94 3.56711 -1.32429 0
M  V30 4633 H 421.452 2.60634 -2.87561 0
M  V30 4634 H 419.553 3.66878 -0.650485 0
M  V30 4635 H 419.666 4.09572 -2.4857 0
M  V30 4636 H 418.03 2.22601 -1.23778 0
M  V30 4637 H 418.813 1.8794 -2.87286 0
M  V30 4638 N 421.258 1.00505 1.21394 0
M  V30 4639 C 422.208 0.536503 2.21598 0
M  V30 4640 C 423.192 -0.401914 1.55799 0
M  V30 4641 O 424.384 -0.226757 1.75541 0
M  V30 4642 C 421.513 -0.135446 3.43033 0
M  V30 4643 C 420.599 0.823992 4.16018 0
M  V30 4644 N 420.99 1.97683 4.6557 0
M  V30 4645 C 419.288 0.642387 4.4135 0
M  V30 4646 C 419.989 2.58003 5.21354 0
M  V30 4647 N 418.965 1.86162 5.1073 0
M  V30 4648 H 422.767 1.41557 2.57563 0
M  V30 4649 H 420.281 0.868878 1.37202 0
M  V30 4650 H 422.278 -0.488584 4.14027 0
M  V30 4651 H 420.938 -1.01049 3.08576 0
M  V30 4652 H 421.949 2.3572 4.61147 0
M  V30 4653 H 418.626 -0.185578 4.17087 0
M  V30 4654 H 420.016 3.555 5.70149 0
M  V30 4655 N 422.737 -1.36956 0.779787 0
M  V30 4656 C 424.153 -1.52817 0.460342 0
M  V30 4657 C 424.353 -1.7361 -1.02283 0
M  V30 4658 O 423.409 -1.76207 -1.80852 0
M  V30 4659 C 424.722 -2.71983 1.28241 0
M  V30 4660 C 426.27 -2.85849 1.27512 0
M  V30 4661 C 426.745 -4.08008 2.08072 0
M  V30 4662 N 428.236 -4.15135 2.05467 0
M  V30 4663 C 428.971 -5.08711 2.64577 0
M  V30 4664 N 428.467 -6.07792 3.32506 0
M  V30 4665 N 430.26 -5.01254 2.54363 0
M  V30 4666 H 422.411 -1.21713 1.74068 0
M  V30 4667 H 424.674 -0.593294 0.739396 0
M  V30 4668 H 424.38 -2.63109 2.33381 0
M  V30 4669 H 424.254 -3.65882 0.917088 0
M  V30 4670 H 426.641 -2.94189 0.231686 0
M  V30 4671 H 426.722 -1.92886 1.68014 0
M  V30 4672 H 426.366 -4.00429 3.12441 0
M  V30 4673 H 426.296 -5.001 1.64947 0
M  V30 4674 H 428.787 -3.44189 1.5602 0
M  V30 4675 H 429.1 -6.75739 3.74963 0
M  V30 4676 H 427.445 -6.08047 3.36606 0
M  V30 4677 H 430.636 -4.22795 2.00902 0
M  V30 4678 H 430.809 -5.73995 3.00722 0
M  V30 4679 N 424.215 -0.530993 -1.48385 0
M  V30 4680 C 425.145 0.219985 -2.32461 0
M  V30 4681 C 426.126 0.934111 -1.42156 0
M  V30 4682 O 427.311 0.919694 -1.71042 0
M  V30 4683 C 424.441 1.26674 -3.23375 0
M  V30 4684 C 423.395 0.67069 -4.22712 0
M  V30 4685 C 422.721 1.82017 -5.02766 0
M  V30 4686 C 424.021 -0.358268 -5.2107 0
M  V30 4687 H 425.715 -0.48187 -2.95497 0
M  V30 4688 H 423.261 -0.233182 -1.42099 0
M  V30 4689 H 425.214 1.80006 -3.81019 0
M  V30 4690 H 423.938 1.99818 -2.58341 0
M  V30 4691 H 422.597 0.158878 -3.66256 0
M  V30 4692 H 422.245 2.54002 -4.34157 0
M  V30 4693 H 421.945 1.42727 -5.70003 0
M  V30 4694 H 423.469 2.35725 -5.63264 0
M  V30 4695 H 424.883 0.0880081 -5.73232 0
M  V30 4696 H 423.28 -0.66861 -5.96364 0
M  V30 4697 H 424.35 -1.26367 -4.68145 0
M  V30 4698 N 425.693 1.55336 -0.266172 0
M  V30 4699 C 426.97 1.91372 0.404486 0
M  V30 4700 C 427.35 1.18935 1.74407 0
M  V30 4701 O 426.698 0.3132 2.26343 0
M  V30 4702 C 426.908 3.44581 0.553593 0
M  V30 4703 C 428.256 4.16196 0.840618 0
M  V30 4704 O 429.28 3.50426 0.638739 0
M  V30 4705 O 428.139 5.32567 1.22618 0
M  V30 4706 H 425.233 0.797194 0.220025 0
M  V30 4707 H 427.779 1.66813 -0.311664 0
M  V30 4708 H 426.551 3.89357 -0.389498 0
M  V30 4709 H 426.174 3.75065 1.31955 0
M  V30 4710 N 427.171 -0.0066808 1.57599 0
M  V30 4711 C 428.119 -1.01851 2.09115 0
M  V30 4712 C 429.113 -1.36021 1.00969 0
M  V30 4713 O 430.319 -1.34663 1.19439 0
M  V30 4714 H 426.694 -0.346083 0.667631 0
M  V30 4715 H 428.665 -0.558394 2.93129 0
M  V30 4716 C 427.414 -2.30374 2.60429 0
M  V30 4717 H 426.737 -2.04947 3.43273 0
M  V30 4718 H 428.177 -2.99466 3.00161 0
M  V30 4719 C 426.636 -3.00893 1.51542 0
M  V30 4720 O 427.166 -3.91614 0.894484 0
M  V30 4721 N 425.372 -2.62603 1.2445 0
M  V30 4722 H 424.919 -1.88911 1.75129 0
M  V30 4723 H 424.877 -3.10101 0.518137 0
M  V30 4724 N 428.649 -1.55105 -0.279332 0
M  V30 4725 C 430.06 -1.66186 -0.850832 0
M  V30 4726 C 430.411 -0.584707 -1.87285 0
M  V30 4727 O 429.536 0.274919 -2.14647 0
M  V30 4728 C 430.131 -3.01264 -1.55001 0
M  V30 4729 C 428.69 -3.14394 -2.06963 0
M  V30 4730 C 427.837 -2.61959 -0.909536 0
M  V30 4731 H 430.788 -1.58602 -0.0558235 0
M  V30 4732 H 430.809 -2.93899 -2.41669 0
M  V30 4733 H 430.321 -3.7964 -0.805931 0
M  V30 4734 H 428.422 -2.4078 -2.84352 0
M  V30 4735 H 428.535 -4.20867 -2.28928 0
M  V30 4736 H 426.899 -2.18957 -1.30116 0
M  V30 4737 H 427.682 -3.42833 -0.179062 0
M  V30 4738 N 430.127 0.543554 -1.4793 0
M  V30 4739 C 431.375 1.29752 -1.54948 0
M  V30 4740 C 431.696 1.93764 -0.219242 0
M  V30 4741 O 430.966 1.80639 0.75805 0
M  V30 4742 H 429.546 0.481874 -0.570795 0
M  V30 4743 H 432.208 0.633636 -1.84312 0
M  V30 4744 H 431.304 2.08392 -2.32334 0
M  V30 4745 N 431.605 1.3629 0.791371 0
M  V30 4746 C 432.537 1.26321 1.91248 0
M  V30 4747 C 433.55 0.18313 1.61767 0
M  V30 4748 O 434.739 0.437682 1.73051 0
M  V30 4749 C 431.839 0.925901 3.26007 0
M  V30 4750 C 431.012 2.10746 3.83281 0
M  V30 4751 C 430.071 1.74352 4.96475 0
M  V30 4752 O 429.097 2.46416 5.13096 0
M  V30 4753 N 430.299 0.676058 5.7655 0
M  V30 4754 H 433.064 2.22915 2.00323 0
M  V30 4755 H 430.625 1.29659 0.969546 0
M  V30 4756 H 432.617 0.663636 3.99222 0
M  V30 4757 H 431.187 0.0491581 3.12561 0
M  V30 4758 H 430.407 2.53264 3.02077 0
M  V30 4759 H 431.695 2.8969 4.18279 0
M  V30 4760 H 431.093 0.0776467 5.65647 0
M  V30 4761 H 429.65 0.473612 6.50077 0
M  V30 4762 N 433.083 -1.0153 1.20538 0
M  V30 4763 C 434.331 -1.74803 1.01432 0
M  V30 4764 C 434.652 -1.8963 -0.454456 0
M  V30 4765 O 433.922 -1.43975 -1.32846 0
M  V30 4766 H 432.502 -0.647598 0.372324 0
M  V30 4767 H 435.164 -1.22402 1.5167 0
M  V30 4768 H 434.26 -2.75114 1.47373 0
M  V30 4769 N 434.561 -1.01147 -1.20859 0
M  V30 4770 C 435.809 -0.696486 -1.89719 0
M  V30 4771 C 436.13 0.775788 -1.78904 0
M  V30 4772 O 435.4 1.55759 -1.18811 0
M  V30 4773 H 433.98 -0.254628 -0.702263 0
M  V30 4774 H 436.642 -1.28197 -1.46804 0
M  V30 4775 H 435.738 -0.975357 -2.96468 0
M  V30 4776 N 436.039 1.36541 -0.78704 0
M  V30 4777 C 436.971 2.28761 -0.141773 0
M  V30 4778 C 437.984 1.49365 0.647599 0
M  V30 4779 O 439.173 1.71836 0.483173 0
M  V30 4780 C 436.273 3.28771 0.822368 0
M  V30 4781 C 435.446 4.3732 0.0835594 0
M  V30 4782 C 434.505 5.17307 0.963296 0
M  V30 4783 O 433.531 5.67638 0.421419 0
M  V30 4784 N 434.733 5.33515 2.28784 0
M  V30 4785 H 437.498 2.84777 -0.933919 0
M  V30 4786 H 435.059 1.48682 -0.640735 0
M  V30 4787 H 437.051 3.79169 1.41468 0
M  V30 4788 H 435.621 2.73412 1.5154 0
M  V30 4789 H 434.841 3.88118 -0.689809 0
M  V30 4790 H 436.129 5.0701 -0.426358 0
M  V30 4791 H 435.527 4.94234 2.75226 0
M  V30 4792 H 434.084 5.87165 2.82985 0
M  V30 4793 N 437.518 0.538854 1.48102 0
M  V30 4794 C 438.934 0.19732 1.58376 0
M  V30 4795 C 439.134 -1.29971 1.5398 0
M  V30 4796 O 438.19 -2.07861 1.43352 0
M  V30 4797 C 439.503 0.807716 2.89649 0
M  V30 4798 C 441.051 0.77726 3.03196 0
M  V30 4799 C 441.526 1.36639 4.37143 0
M  V30 4800 N 443.017 1.32875 4.43732 0
M  V30 4801 C 443.752 1.7544 5.45901 0
M  V30 4802 N 443.248 2.25776 6.54979 0
M  V30 4803 N 445.041 1.66623 5.36836 0
M  V30 4804 H 437.192 1.5117 1.49202 0
M  V30 4805 H 439.455 0.629327 0.708979 0
M  V30 4806 H 439.161 1.85909 2.98548 0
M  V30 4807 H 439.035 0.289975 3.76084 0
M  V30 4808 H 441.422 -0.265374 2.93904 0
M  V30 4809 H 441.503 1.33256 2.18349 0
M  V30 4810 H 441.147 2.408 4.47189 0
M  V30 4811 H 441.077 0.786689 5.20691 0
M  V30 4812 H 443.568 0.96037 3.65493 0
M  V30 4813 H 443.881 2.56226 7.29087 0
M  V30 4814 H 442.226 2.29775 6.55918 0
M  V30 4815 H 445.417 1.27089 4.50517 0
M  V30 4816 H 445.59 2.00115 6.16326 0
M  V30 4817 N 438.996 -1.55193 0.274407 0
M  V30 4818 C 439.943 -2.225 -0.613374 0
M  V30 4819 C 440.913 -1.19823 -1.15029 0
M  V30 4820 O 442.098 -1.48362 -1.19973 0
M  V30 4821 C 439.238 -2.94927 -1.79199 0
M  V30 4822 C 438.351 -4.12322 -1.28899 0
M  V30 4823 C 437.486 -4.72394 -2.42934 0
M  V30 4824 C 436.525 -5.81984 -1.89634 0
M  V30 4825 N 435.662 -6.36123 -2.9714 0
M  V30 4826 H 440.502 -2.97982 -0.032756 0
M  V30 4827 H 438.039 -1.47099 -0.00440146 0
M  V30 4828 H 439.997 -3.35134 -2.48478 0
M  V30 4829 H 438.627 -2.2187 -2.34465 0
M  V30 4830 H 437.679 -3.7724 -0.489327 0
M  V30 4831 H 438.991 -4.91355 -0.858587 0
M  V30 4832 H 438.145 -5.15317 -3.20208 0
M  V30 4833 H 436.884 -3.92636 -2.8929 0
M  V30 4834 H 435.889 -5.38511 -1.1084 0
M  V30 4835 H 437.114 -6.6361 -1.44215 0
M  V30 4836 H 435.06 -5.59259 -3.42878 0
M  V30 4837 H 434.977 -7.10427 -2.58515 0
M  V30 4838 H 436.245 -6.83704 -3.74391 0
M  V30 4839 N 440.474 -0.00167713 -1.576 0
M  V30 4840 C 441.421 0.989195 -2.08527 0
M  V30 4841 C 442.391 1.34031 -0.981065 0
M  V30 4842 O 443.576 1.43839 -1.2536 0
M  V30 4843 C 440.716 2.27537 -2.59463 0
M  V30 4844 C 439.829 1.98314 -3.83791 0
M  V30 4845 C 438.964 3.21025 -4.23222 0
M  V30 4846 C 438.003 2.87495 -5.40382 0
M  V30 4847 N 437.14 4.02749 -5.75098 0
M  V30 4848 H 441.98 0.547973 -2.92919 0
M  V30 4849 H 439.517 0.258917 -1.44803 0
M  V30 4850 H 441.475 3.02729 -2.87073 0
M  V30 4851 H 440.105 2.69325 -1.77943 0
M  V30 4852 H 439.157 1.13482 -3.63078 0
M  V30 4853 H 440.469 1.69601 -4.69081 0
M  V30 4854 H 439.623 4.04561 -4.52123 0
M  V30 4855 H 438.362 3.52877 -3.36644 0
M  V30 4856 H 437.367 2.02367 -5.11202 0
M  V30 4857 H 438.592 2.56889 -6.28637 0
M  V30 4858 H 436.538 4.34494 -4.91478 0
M  V30 4859 H 436.455 3.77566 -6.54966 0
M  V30 4860 H 437.723 4.87068 -6.08592 0
M  V30 4861 N 441.952 1.55251 0.271103 0
M  V30 4862 C 443.368 1.47133 0.618393 0
M  V30 4863 C 443.568 0.686994 1.89427 0
M  V30 4864 O 442.624 0.206609 2.51653 0
M  V30 4865 C 443.937 2.91361 0.743593 0
M  V30 4866 C 445.485 3.01587 0.837522 0
M  V30 4867 C 445.96 4.47073 0.994483 0
M  V30 4868 N 447.451 4.50909 1.05996 0
M  V30 4869 C 448.186 5.60698 1.20024 0
M  V30 4870 N 447.682 6.80348 1.30759 0
M  V30 4871 N 449.475 5.48444 1.23149 0
M  V30 4872 H 441.626 2.04698 -0.566784 0
M  V30 4873 H 443.889 0.928319 -0.192165 0
M  V30 4874 H 443.595 3.51483 -0.123493 0
M  V30 4875 H 443.469 3.40484 1.62328 0
M  V30 4876 H 445.856 2.4156 1.69507 0
M  V30 4877 H 445.937 2.55713 -0.0668086 0
M  V30 4878 H 445.581 5.07703 0.141582 0
M  V30 4879 H 445.511 4.90605 1.91349 0
M  V30 4880 H 448.002 3.6472 0.989316 0
M  V30 4881 H 448.315 7.59772 1.41303 0
M  V30 4882 H 446.66 6.83156 1.27761 0
M  V30 4883 H 449.851 4.53907 1.14394 0
M  V30 4884 H 450.024 6.34049 1.33738 0
M  V30 4885 N 443.43 -0.535701 1.48216 0
M  V30 4886 C 444.393 -1.623 1.61838 0
M  V30 4887 C 445.393 -1.53087 0.492024 0
M  V30 4888 O 446.583 -1.5686 0.757668 0
M  V30 4889 C 443.715 -3.01907 1.58319 0
M  V30 4890 H 444.908 -1.51564 2.58783 0
M  V30 4891 H 442.461 -0.757317 1.36727 0
M  V30 4892 H 443.196 -3.18155 0.628299 0
M  V30 4893 H 442.981 -3.10003 2.40085 0
M  V30 4894 H 444.471 -3.80969 1.71033 0
M  V30 4895 N 444.908 -1.36708 -0.784132 0
M  V30 4896 C 445.838 -1.34153 -1.91116 0
M  V30 4897 C 446.819 -0.212121 -1.68772 0
M  V30 4898 O 448.004 -0.410581 -1.8981 0
M  V30 4899 C 445.134 -1.13535 -3.28218 0
M  V30 4900 C 444.088 -2.23356 -3.65097 0
M  V30 4901 C 443.414 -1.87875 -5.00607 0
M  V30 4902 C 444.714 -3.65473 -3.73131 0
M  V30 4903 H 446.408 -2.28459 -1.93512 0
M  V30 4904 H 443.954 -1.09973 -0.929618 0
M  V30 4905 H 445.907 -1.10381 -4.06687 0
M  V30 4906 H 444.631 -0.156804 -3.26223 0
M  V30 4907 H 443.29 -2.25645 -2.88929 0
M  V30 4908 H 442.938 -0.885814 -4.95139 0
M  V30 4909 H 442.638 -2.61406 -5.26252 0
M  V30 4910 H 444.162 -1.86286 -5.81489 0
M  V30 4911 H 445.576 -3.65382 -4.41779 0
M  V30 4912 H 443.973 -4.37953 -4.10265 0
M  V30 4913 H 445.043 -3.99995 -2.74102 0
M  V30 4914 N 446.386 1.0089 -1.21074 0
M  V30 4915 C 447.663 1.71834 -0.934469 0
M  V30 4916 C 448.043 2.0368 0.554753 0
M  V30 4917 O 447.391 1.70742 1.51854 0
M  V30 4918 C 447.601 2.98061 -1.8155 0
M  V30 4919 C 448.949 3.7117 -2.06199 0
M  V30 4920 O 449.973 3.08034 -1.78867 0
M  V30 4921 O 448.832 4.84721 -2.52404 0
M  V30 4922 H 445.926 0.749253 -0.35007 0
M  V30 4923 H 448.472 1.06668 -1.31985 0
M  V30 4924 H 447.244 2.70908 -2.82355 0
M  V30 4925 H 446.867 3.70968 -1.43068 0
M  V30 4926 N 447.864 1.01787 1.20321 0
M  V30 4927 C 449.092 0.727194 1.937 0
M  V30 4928 C 449.507 -0.712305 1.74848 0
M  V30 4929 O 448.864 -1.48327 1.06327 0
M  V30 4930 C 448.915 1.05497 3.45764 0
M  V30 4931 O 448.636 2.43794 3.64 0
M  V30 4932 C 450.137 0.785534 4.36285 0
M  V30 4933 H 447.357 0.266939 0.615617 0
M  V30 4934 H 449.901 1.35939 1.52777 0
M  V30 4935 H 448.056 0.468158 3.84561 0
M  V30 4936 H 448.47 2.55656 4.57974 0
M  V30 4937 H 449.944 1.06495 5.4163 0
M  V30 4938 H 450.421 -0.280273 4.38305 0
M  V30 4939 H 451.027 1.35456 4.03152 0
M  V30 4940 N 449.342 -1.36122 0.79427 0
M  V30 4941 C 450.29 -2.31871 0.184023 0
M  V30 4942 C 451.284 -1.56041 -0.659365 0
M  V30 4943 O 452.49 -1.71266 -0.553906 0
M  V30 4944 H 448.865 -0.750896 0.0407373 0
M  V30 4945 H 450.836 -2.80898 1.00693 0
M  V30 4946 C 449.585 -3.41324 -0.662813 0
M  V30 4947 H 448.908 -3.99793 -0.0231944 0
M  V30 4948 H 450.348 -4.10629 -1.05639 0
M  V30 4949 C 448.807 -2.83308 -1.82313 0
M  V30 4950 O 449.337 -2.75863 -2.91997 0
M  V30 4951 N 447.543 -2.40529 -1.63077 0
M  V30 4952 H 447.09 -2.46785 -0.738591 0
M  V30 4953 H 447.048 -2.02059 -2.40872 0
M  V30 4954 N 450.82 -0.546701 -1.47814 0
M  V30 4955 C 452.05 -0.0232519 -2.06587 0
M  V30 4956 C 452.458 1.2712 -1.40133 0
M  V30 4957 O 451.801 1.77091 -0.488305 0
M  V30 4958 C 451.863 0.254117 -3.58601 0
M  V30 4959 C 451.527 -0.949331 -4.47031 0
M  V30 4960 C 452.524 -1.85216 -4.85789 0
M  V30 4961 C 450.209 -1.16104 -4.88697 0
M  V30 4962 C 452.203 -2.95047 -5.65001 0
M  V30 4963 C 449.89 -2.26247 -5.67676 0
M  V30 4964 C 450.888 -3.1555 -6.05737 0
M  V30 4965 O 450.576 -4.23784 -6.83127 0
M  V30 4966 H 450.308 -0.0380082 -0.674931 0
M  V30 4967 H 452.862 -0.756631 -1.90956 0
M  V30 4968 H 451.092 1.04168 -3.72406 0
M  V30 4969 H 452.781 0.72167 -3.99433 0
M  V30 4970 H 453.547 -1.70061 -4.54207 0
M  V30 4971 H 449.426 -0.475159 -4.58545 0
M  V30 4972 H 452.97 -3.64778 -5.94628 0
M  V30 4973 H 448.867 -2.41379 -5.98671 0
M  V30 4974 H 449.635 -4.21701 -7.01506 0
M  V30 4975 N 452.299 1.55045 -0.282633 0
M  V30 4976 C 453.539 2.01668 0.333088 0
M  V30 4977 C 453.903 1.1667 1.52486 0
M  V30 4978 O 455.104 1.52907 2.21072 0
M  V30 4979 C 453.375 3.50509 0.698442 0
M  V30 4980 S 454.934 4.19112 1.29963 0
M  V30 4981 H 451.752 0.703468 0.103219 0
M  V30 4982 H 454.354 1.91233 -0.406222 0
M  V30 4983 H 453.058 4.10015 -0.177693 0
M  V30 4984 H 452.589 3.64943 1.46902 0
M  V30 4985 H 454.604 4.23362 2.58803 0
M  V30 4986 N 453.777 0.010035 1.57597 0
M  V30 4987 C 455.024 -0.6727 1.91 0
M  V30 4988 C 455.352 -1.73219 0.884614 0
M  V30 4989 O 454.607 -1.95395 -0.109215 0
M  V30 4990 C 454.906 -1.34434 3.31153 0
M  V30 4991 C 454.572 -0.417083 4.48967 0
M  V30 4992 C 453.234 -0.161809 4.80928 0
M  V30 4993 C 455.586 0.220753 5.20732 0
M  V30 4994 C 452.914 0.739426 5.82022 0
M  V30 4995 C 455.266 1.10993 6.22787 0
M  V30 4996 C 453.93 1.37428 6.532 0
M  V30 4997 H 453.2 -0.246158 0.698918 0
M  V30 4998 H 455.847 0.0677145 1.9138 0
M  V30 4999 H 454.152 -2.15905 3.26944 0
M  V30 5000 H 455.849 -1.87883 3.54261 0
M  V30 5001 H 452.439 -0.626217 4.24001 0
M  V30 5002 H 456.623 0.0365643 4.96287 0
M  V30 5003 H 451.879 0.952139 6.03941 0
M  V30 5004 H 456.053 1.61046 6.77523 0
M  V30 5005 H 453.68 2.0743 7.31353 0
M  V30 5006 N 455.255 -1.55392 -0.262866 0
M  V30 5007 C 456.671 -1.47459 -0.610582 0
M  V30 5008 C 456.871 -0.697031 -1.8906 0
M  V30 5009 O 455.927 -0.219952 -2.5154 0
M  V30 5010 C 457.24 -2.91751 -0.728131 0
M  V30 5011 C 458.788 -3.02027 -0.821517 0
M  V30 5012 C 459.263 -4.47594 -0.97076 0
M  V30 5013 N 460.754 -4.51465 -1.03603 0
M  V30 5014 C 461.489 -5.61326 -1.17049 0
M  V30 5015 N 460.985 -6.81032 -1.2715 0
M  V30 5016 N 462.778 -5.49089 -1.20239 0
M  V30 5017 H 454.929 -2.04395 0.577632 0
M  V30 5018 H 457.192 -0.927287 0.197086 0
M  V30 5019 H 456.898 -3.51413 0.142132 0
M  V30 5020 H 456.772 -3.4134 -1.6052 0
M  V30 5021 H 459.159 -2.42456 -1.68224 0
M  V30 5022 H 459.24 -2.55674 0.0803688 0
M  V30 5023 H 458.884 -5.07771 -0.114655 0
M  V30 5024 H 458.814 -4.91613 -1.88745 0
M  V30 5025 H 461.305 -3.6524 -0.96996 0
M  V30 5026 H 461.618 -7.60511 -1.37271 0
M  V30 5027 H 459.963 -6.83824 -1.24136 0
M  V30 5028 H 463.154 -4.54507 -1.11985 0
M  V30 5029 H 463.327 -6.34749 -1.30373 0
M  V30 5030 N 456.733 0.527833 -1.48498 0
M  V30 5031 C 457.681 1.65313 -1.63628 0
M  V30 5032 C 458.675 1.6177 -0.502676 0
M  V30 5033 O 459.881 1.66601 -0.681469 0
M  V30 5034 H 456.256 0.547518 -0.515488 0
M  V30 5035 H 458.227 1.49696 -2.58135 0
M  V30 5036 C 456.976 3.03576 -1.6952 0
M  V30 5037 H 456.299 3.06997 -2.56111 0
M  V30 5038 H 457.739 3.81923 -1.84149 0
M  V30 5039 C 456.198 3.34089 -0.43432 0
M  V30 5040 O 456.728 3.99151 0.451852 0
M  V30 5041 N 454.934 2.88991 -0.305368 0
M  V30 5042 H 454.481 2.36222 -1.02747 0
M  V30 5043 H 454.439 3.09776 0.537249 0
M  V30 5044 N 458.211 1.37122 0.776871 0
M  V30 5045 C 459.141 1.35164 1.90402 0
M  V30 5046 C 460.122 0.221069 1.68657 0
M  V30 5047 O 461.307 0.420642 1.8959 0
M  V30 5048 C 458.437 1.15274 3.27611 0
M  V30 5049 C 457.391 2.25289 3.63908 0
M  V30 5050 C 456.717 1.90527 4.99603 0
M  V30 5051 C 458.017 3.67446 3.71188 0
M  V30 5052 H 459.711 2.29482 1.92297 0
M  V30 5053 H 457.257 1.10465 0.923773 0
M  V30 5054 H 459.21 1.12536 4.06096 0
M  V30 5055 H 457.934 0.174102 3.26136 0
M  V30 5056 H 456.593 2.27174 2.87728 0
M  V30 5057 H 456.241 0.91206 4.94662 0
M  V30 5058 H 455.941 2.64193 5.24858 0
M  V30 5059 H 457.465 1.89367 5.80493 0
M  V30 5060 H 458.879 3.67719 4.39836 0
M  V30 5061 H 457.276 4.40123 4.07936 0
M  V30 5062 H 458.346 4.01443 2.71977 0
M  V30 5063 N 459.689 -1.00246 1.21608 0
M  V30 5064 C 460.599 -2.12515 0.993709 0
M  V30 5065 C 461.615 -1.73913 -0.0549939 0
M  V30 5066 O 462.791 -2.00943 0.135619 0
M  V30 5067 C 459.856 -3.42083 0.563953 0
M  V30 5068 C 458.917 -3.94843 1.68516 0
M  V30 5069 C 458.15 -5.18226 1.27582 0
M  V30 5070 O 458.373 -5.70201 0.150506 0
M  V30 5071 O 457.307 -5.64497 2.0887 0
M  V30 5072 H 461.133 -2.34152 1.93407 0
M  V30 5073 H 458.718 -1.10891 1.00118 0
M  V30 5074 H 460.6 -4.20073 0.334194 0
M  V30 5075 H 459.275 -3.21828 -0.347665 0
M  V30 5076 H 458.182 -3.18068 1.96935 0
M  V30 5077 H 459.515 -4.19512 2.5743 0
M  V30 5078 N 461.167 -1.02423 -1.1978 0
M  V30 5079 C 462.077 -0.610919 -2.26506 0
M  V30 5080 C 463.093 0.355152 -1.70337 0
M  V30 5081 O 464.269 0.214195 -2.00258 0
M  V30 5082 C 461.334 0.0365921 -3.46681 0
M  V30 5083 C 460.395 -0.976389 -4.18049 0
M  V30 5084 C 459.628 -0.359683 -5.32487 0
M  V30 5085 O 459.851 0.838601 -5.64202 0
M  V30 5086 O 458.785 -1.08022 -5.92127 0
M  V30 5087 H 462.611 -1.49965 -2.64091 0
M  V30 5088 H 460.196 -0.794156 -1.26545 0
M  V30 5089 H 462.078 0.39786 -4.19518 0
M  V30 5090 H 460.753 0.899398 -3.10954 0
M  V30 5091 H 459.66 -1.38916 -3.47352 0
M  V30 5092 H 460.993 -1.80941 -4.57735 0
M  V30 5093 N 462.645 1.35699 -0.801477 0
M  V30 5094 C 463.593 2.3177 -0.196317 0
M  V30 5095 C 464.587 1.56388 0.651081 0
M  V30 5096 O 465.793 1.71557 0.544815 0
M  V30 5097 H 462.168 0.750669 -0.0447189 0
M  V30 5098 H 464.139 2.8036 -1.02181 0
M  V30 5099 C 462.888 3.41671 0.644702 0
M  V30 5100 H 462.211 3.998 0.0019921 0
M  V30 5101 H 463.651 4.11184 1.0346 0
M  V30 5102 C 462.11 2.84271 1.80808 0
M  V30 5103 O 462.64 2.77408 2.9053 0
M  V30 5104 N 460.846 2.41391 1.61799 0
M  V30 5105 H 460.393 2.47173 0.725493 0
M  V30 5106 H 460.351 2.03334 2.39797 0
M  V30 5107 N 464.123 0.554532 1.47522 0
M  V30 5108 C 465.363 0.0317994 2.04375 0
M  V30 5109 C 465.727 -1.29242 1.41988 0
M  V30 5110 O 466.928 -1.90269 1.89872 0
M  V30 5111 C 465.199 -0.0623344 3.57346 0
M  V30 5112 S 466.758 -0.531578 4.35568 0
M  V30 5113 H 463.576 0.0238553 0.7106 0
M  V30 5114 H 466.178 0.74066 1.80927 0
M  V30 5115 H 464.882 0.905857 4.00278 0
M  V30 5116 H 464.413 -0.794831 3.85287 0
M  V30 5117 H 466.428 -1.79175 4.62721 0
M  V30 5118 N 465.601 -1.54893 0.290851 0
M  V30 5119 C 466.841 -2.01842 -0.322388 0
M  V30 5120 C 467.205 -1.17477 -1.51865 0
M  V30 5121 O 468.406 -1.54077 -2.20258 0
M  V30 5122 C 466.677 -3.50874 -0.679844 0
M  V30 5123 S 468.236 -4.19796 -1.27739 0
M  V30 5124 H 465.054 -0.704005 -0.0994866 0
M  V30 5125 H 467.656 -1.91015 0.416358 0
M  V30 5126 H 466.36 -4.09915 0.199435 0
M  V30 5127 H 465.891 -3.65717 -1.44964 0
M  V30 5128 H 467.906 -4.24729 -2.56554 0
M  V30 5129 N 467.08 -0.0183926 -1.57589 0
M  V30 5130 C 468.326 0.663543 -1.91638 0
M  V30 5131 C 468.659 1.72392 -0.894134 0
M  V30 5132 O 467.934 1.94316 0.0846449 0
M  V30 5133 C 468.217 1.28984 -3.36207 0
M  V30 5134 C 468.07 0.239761 -4.49161 0
M  V30 5135 C 469.389 2.2109 -3.80536 0
M  V30 5136 H 466.508 0.239746 -0.696915 0
M  V30 5137 H 469.15 -0.073456 -1.89858 0
M  V30 5138 H 467.3 1.91799 -3.37854 0
M  V30 5139 H 468.972 -0.390119 -4.59647 0
M  V30 5140 H 467.215 -0.435972 -4.31604 0
M  V30 5141 H 467.886 0.717383 -5.47319 0
M  V30 5142 H 470.362 1.68273 -3.80557 0
M  V30 5143 H 469.238 2.61869 -4.82406 0
M  V30 5144 H 469.499 3.09764 -3.15434 0
M  V30 5145 N 468.558 1.5553 0.254621 0
M  V30 5146 C 469.974 1.4778 0.602753 0
M  V30 5147 C 470.174 0.707047 1.88688 0
M  V30 5148 O 469.23 0.233288 2.5142 0
M  V30 5149 C 470.543 2.92133 0.712648 0
M  V30 5150 C 472.091 3.02458 0.805488 0
M  V30 5151 C 472.566 4.48102 0.947009 0
M  V30 5152 N 474.057 4.52008 1.01207 0
M  V30 5153 C 474.792 5.61939 1.1407 0
M  V30 5154 N 474.288 6.81697 1.23536 0
M  V30 5155 N 476.081 5.49719 1.17325 0
M  V30 5156 H 468.232 2.04085 -0.588463 0
M  V30 5157 H 470.495 0.926229 -0.202001 0
M  V30 5158 H 470.201 3.51332 -0.160766 0
M  V30 5159 H 470.075 3.42187 1.58707 0
M  V30 5160 H 472.462 2.43344 1.66936 0
M  V30 5161 H 472.543 2.55627 -0.0939266 0
M  V30 5162 H 472.187 5.07824 0.087725 0
M  V30 5163 H 472.117 4.92607 1.86135 0
M  V30 5164 H 474.608 3.65749 0.950577 0
M  V30 5165 H 474.921 7.61228 1.33236 0
M  V30 5166 H 473.266 6.84473 1.20508 0
M  V30 5167 H 476.457 4.55095 1.09573 0
M  V30 5168 H 476.63 6.35432 1.27005 0
M  V30 5169 N 470.036 -0.519951 1.48776 0
M  V30 5170 C 471.447 -1.10177 1.50725 0
M  V30 5171 C 471.798 -1.94153 0.282678 0
M  V30 5172 O 470.923 -2.07645 -0.609298 0
M  V30 5173 C 471.518 -2.00482 2.73116 0
M  V30 5174 C 470.077 -2.53862 2.77905 0
M  V30 5175 C 469.224 -1.31047 2.44381 0
M  V30 5176 H 472.175 -0.30473 1.55747 0
M  V30 5177 H 472.196 -2.8491 2.52203 0
M  V30 5178 H 471.708 -1.39335 3.62225 0
M  V30 5179 H 469.809 -3.18702 1.93029 0
M  V30 5180 H 469.922 -2.9231 3.79594 0
M  V30 5181 H 468.286 -1.62953 1.95751 0
M  V30 5182 H 469.069 -0.71637 3.35743 0
M  V30 5183 N 471.514 -1.37532 -0.769588 0
M  V30 5184 C 472.444 -1.36172 -1.89682 0
M  V30 5185 C 473.425 -0.23001 -1.68538 0
M  V30 5186 O 474.61 -0.43069 -1.89364 0
M  V30 5187 C 471.74 -1.1701 -3.26995 0
M  V30 5188 C 470.694 -2.27216 -3.62708 0
M  V30 5189 C 470.02 -1.93174 -4.98586 0
M  V30 5190 C 471.32 -3.6941 -3.69234 0
M  V30 5191 H 473.014 -2.30499 -1.91078 0
M  V30 5192 H 470.56 -1.10953 -0.917902 0
M  V30 5193 H 472.513 -1.14688 -4.05493 0
M  V30 5194 H 471.237 -0.191395 -3.26039 0
M  V30 5195 H 469.896 -2.28697 -2.86519 0
M  V30 5196 H 469.544 -0.938281 -4.94171 0
M  V30 5197 H 469.244 -2.66973 -5.23449 0
M  V30 5198 H 470.768 -1.92443 -5.79481 0
M  V30 5199 H 472.182 -3.70047 -4.37879 0
M  V30 5200 H 470.579 -4.4228 -4.05597 0
M  V30 5201 H 471.649 -4.0288 -2.69844 0
M  V30 5202 N 472.992 0.995999 -1.22138 0
M  V30 5203 C 474.222 1.76809 -1.06874 0
M  V30 5204 C 474.63 1.85265 0.383866 0
M  V30 5205 O 473.973 1.31969 1.27789 0
M  V30 5206 C 474.035 3.2186 -1.60144 0
M  V30 5207 C 473.699 3.36958 -3.0872 0
M  V30 5208 C 474.696 3.2452 -4.0618 0
M  V30 5209 C 472.381 3.62109 -3.48112 0
M  V30 5210 C 474.375 3.37013 -5.41019 0
M  V30 5211 C 472.062 3.74243 -4.831 0
M  V30 5212 C 473.06 3.61702 -5.79362 0
M  V30 5213 O 472.748 3.73436 -7.119 0
M  V30 5214 H 472.48 0.562207 -0.375365 0
M  V30 5215 H 475.034 1.26113 -1.62125 0
M  V30 5216 H 473.264 3.73734 -0.992981 0
M  V30 5217 H 474.953 3.80775 -1.40589 0
M  V30 5218 H 475.719 3.05004 -3.77091 0
M  V30 5219 H 471.598 3.70949 -2.73712 0
M  V30 5220 H 475.142 3.27141 -6.16137 0
M  V30 5221 H 471.039 3.93266 -5.11872 0
M  V30 5222 H 471.807 3.90328 -7.19435 0
M  V30 5223 N 474.47 1.03057 1.19235 0
M  V30 5224 C 475.719 0.72326 1.88287 0
M  V30 5225 C 476.032 -0.751333 1.80594 0
M  V30 5226 O 477.238 -1.17176 2.44912 0
M  V30 5227 C 475.694 1.24338 3.3774 0
M  V30 5228 C 475.302 2.74587 3.53986 0
M  V30 5229 C 477.046 1.01213 4.12257 0
M  V30 5230 C 474.953 3.20009 4.97341 0
M  V30 5231 H 473.883 0.266848 0.705201 0
M  V30 5232 H 476.534 1.24509 1.34795 0
M  V30 5233 H 474.916 0.649457 3.90638 0
M  V30 5234 H 476.09 3.39649 3.11408 0
M  V30 5235 H 474.405 2.9601 2.9286 0
M  V30 5236 H 477.002 1.32675 5.17978 0
M  V30 5237 H 477.345 -0.051001 4.16269 0
M  V30 5238 H 477.878 1.57014 3.65501 0
M  V30 5239 H 474.617 4.25659 4.98493 0
M  V30 5240 H 474.137 2.59676 5.40674 0
M  V30 5241 H 475.816 3.13447 5.66003 0
M  V30 5242 N 475.948 -1.35272 0.808662 0
M  V30 5243 C 477.225 -1.93077 0.313181 0
M  V30 5244 C 477.605 -1.73847 -1.19752 0
M  V30 5245 O 476.953 -1.1087 -1.998 0
M  V30 5246 C 477.163 -3.41347 0.726859 0
M  V30 5247 C 478.511 -4.18493 0.717532 0
M  V30 5248 O 479.535 -3.4987 0.668535 0
M  V30 5249 O 478.394 -5.40937 0.777779 0
M  V30 5250 H 475.488 -0.822885 0.0824018 0
M  V30 5251 H 478.034 -1.44335 0.892499 0
M  V30 5252 H 476.806 -3.49082 1.76797 0
M  V30 5253 H 476.429 -3.97411 0.122461 0
M  V30 5254 N 477.426 -0.562348 -1.47226 0
M  V30 5255 C 478.673 -0.0402165 -2.0246 0
M  V30 5256 C 479.001 1.31169 -1.43614 0
M  V30 5257 O 478.256 1.86805 -0.5833 0
M  V30 5258 C 478.555 0.0969817 -3.57268 0
M  V30 5259 C 478.221 -1.1847 -4.35058 0
M  V30 5260 C 476.883 -1.53588 -4.56031 0
M  V30 5261 C 479.235 -2.03378 -4.79882 0
M  V30 5262 C 476.563 -2.73452 -5.19077 0
M  V30 5263 C 478.915 -3.2245 -5.44251 0
M  V30 5264 C 477.579 -3.57876 -5.63455 0
M  V30 5265 H 476.849 -0.0147163 -0.740854 0
M  V30 5266 H 479.496 -0.734895 -1.76838 0
M  V30 5267 H 477.801 0.87466 -3.81912 0
M  V30 5268 H 479.498 0.516408 -3.97661 0
M  V30 5269 H 476.088 -0.90126 -4.19017 0
M  V30 5270 H 480.272 -1.77553 -4.63453 0
M  V30 5271 H 475.528 -3.01062 -5.32139 0
M  V30 5272 H 479.702 -3.88526 -5.77945 0
M  V30 5273 H 477.329 -4.50849 -6.12078 0
M  V30 5274 N 478.904 1.54736 -0.299062 0
M  V30 5275 C 480.32 1.59507 0.0543849 0
M  V30 5276 C 480.52 1.31606 1.52585 0
M  V30 5277 O 479.576 1.08853 2.27832 0
M  V30 5278 C 480.889 2.98751 -0.34181 0
M  V30 5279 C 482.437 3.1165 -0.290414 0
M  V30 5280 C 482.912 4.53199 -0.661402 0
M  V30 5281 N 484.403 4.59114 -0.613863 0
M  V30 5282 C 485.138 5.66709 -0.873417 0
M  V30 5283 N 484.634 6.82349 -1.19884 0
M  V30 5284 N 486.427 5.56369 -0.800608 0
M  V30 5285 H 478.578 1.71133 -1.25806 0
M  V30 5286 H 480.841 0.799186 -0.509908 0
M  V30 5287 H 480.547 3.24085 -1.36608 0
M  V30 5288 H 480.421 3.75961 0.305508 0
M  V30 5289 H 482.808 2.86066 0.724605 0
M  V30 5290 H 482.889 2.366 -0.972327 0
M  V30 5291 H 482.533 4.79513 -1.67422 0
M  V30 5292 H 482.463 5.26583 0.0425612 0
M  V30 5293 H 484.954 3.76053 -0.3732 0
M  V30 5294 H 485.267 7.60326 -1.38291 0
M  V30 5295 H 483.612 6.83906 -1.23685 0
M  V30 5296 H 486.803 4.64904 -0.546045 0
M  V30 5297 H 486.976 6.40139 -1.00626 0
M  V30 5298 N 480.382 0.0267497 1.57577 0
M  V30 5299 C 481.314 -0.984594 2.06974 0
M  V30 5300 C 482.327 -1.29032 0.992705 0
M  V30 5301 O 483.516 -1.25539 1.26895 0
M  V30 5302 C 480.616 -2.31262 2.47732 0
M  V30 5303 C 479.789 -2.1924 3.78487 0
M  V30 5304 C 478.848 -3.34956 4.05821 0
M  V30 5305 O 477.874 -3.11948 4.76106 0
M  V30 5306 N 479.076 -4.58672 3.55809 0
M  V30 5307 H 481.841 -0.563143 2.94362 0
M  V30 5308 H 479.402 -0.160061 1.61107 0
M  V30 5309 H 481.394 -3.07496 2.63112 0
M  V30 5310 H 479.964 -2.65056 1.65723 0
M  V30 5311 H 479.184 -1.27747 3.72927 0
M  V30 5312 H 480.472 -2.08409 4.64158 0
M  V30 5313 H 479.87 -4.8026 2.98942 0
M  V30 5314 H 478.427 -5.32083 3.76472 0
M  V30 5315 N 481.861 -1.55662 -0.24637 0
M  V30 5316 C 483.138 -1.68272 -0.997198 0
M  V30 5317 C 483.518 -0.566785 -2.03349 0
M  V30 5318 O 482.866 0.429688 -2.24424 0
M  V30 5319 C 483.076 -3.08594 -1.63006 0
M  V30 5320 C 484.424 -3.6721 -2.13171 0
M  V30 5321 O 485.448 -3.11397 -1.72946 0
M  V30 5322 O 484.307 -4.65054 -2.87031 0
M  V30 5323 H 481.401 -0.684429 -0.464205 0
M  V30 5324 H 483.947 -1.67993 -0.240114 0
M  V30 5325 H 482.719 -3.81264 -0.880527 0
M  V30 5326 H 482.342 -3.12886 -2.45333 0
M  V30 5327 N 483.339 0.512053 -1.4905 0
M  V30 5328 C 484.269 1.62365 -1.67809 0
M  V30 5329 C 485.25 1.61737 -0.526809 0
M  V30 5330 O 486.435 1.78651 -0.761404 0
M  V30 5331 C 483.565 3.00895 -1.73435 0
M  V30 5332 C 482.519 3.16387 -2.88242 0
M  V30 5333 C 481.845 4.56157 -2.78971 0
M  V30 5334 C 483.145 2.97457 -4.29321 0
M  V30 5335 H 484.839 1.46921 -2.60873 0
M  V30 5336 H 482.385 0.705379 -1.2554 0
M  V30 5337 H 484.338 3.78549 -1.85145 0
M  V30 5338 H 483.062 3.17403 -0.769619 0
M  V30 5339 H 481.721 2.41155 -2.76116 0
M  V30 5340 H 481.369 4.69525 -1.8043 0
M  V30 5341 H 481.069 4.67465 -3.5602 0
M  V30 5342 H 482.593 5.35886 -2.92675 0
M  V30 5343 H 484.007 3.64888 -4.42187 0
M  V30 5344 H 482.404 3.20245 -5.07507 0
M  V30 5345 H 483.474 1.93692 -4.44535 0
M  V30 5346 N 484.817 1.37938 0.762283 0
M  V30 5347 C 486.065 1.33404 1.51815 0
M  V30 5348 C 486.386 -0.0780975 1.94844 0
M  V30 5349 O 485.656 -1.02405 1.67003 0
M  V30 5350 H 484.236 0.490839 0.563104 0
M  V30 5351 H 486.898 1.72527 0.906669 0
M  V30 5352 H 485.994 1.97926 2.41313 0
M  V30 5353 N 486.295 -0.989507 1.22664 0
M  V30 5354 C 487.541 -1.73298 1.06487 0
M  V30 5355 C 487.896 -1.88292 -0.395438 0
M  V30 5356 O 487.189 -1.41748 -1.28911 0
M  V30 5357 C 487.383 -3.13649 1.71345 0
M  V30 5358 C 487.212 -3.12341 3.23532 0
M  V30 5359 C 485.982 -3.18044 3.92653 0
M  V30 5360 C 488.18 -2.96226 4.20422 0
M  V30 5361 N 486.162 -3.06526 5.31898 0
M  V30 5362 C 487.533 -2.92773 5.4652 0
M  V30 5363 C 489.588 -2.80642 4.11271 0
M  V30 5364 C 488.291 -2.75332 6.64519 0
M  V30 5365 C 490.317 -2.64563 5.28924 0
M  V30 5366 C 489.679 -2.618 6.53942 0
M  V30 5367 H 485.778 -0.643643 0.444126 0
M  V30 5368 H 488.362 -1.17489 1.55256 0
M  V30 5369 H 486.533 -3.67694 1.25122 0
M  V30 5370 H 488.265 -3.76577 1.48229 0
M  V30 5371 H 485.02 -3.25861 3.43673 0
M  V30 5372 H 485.444 -3.04067 6.04874 0
M  V30 5373 H 490.086 -2.81574 3.15398 0
M  V30 5374 H 487.804 -2.73145 7.60538 0
M  V30 5375 H 491.39 -2.53482 5.23677 0
M  V30 5376 H 490.27 -2.49511 7.43447 0
M  V30 5377 N 487.773 -1.03688 -1.18687 0
M  V30 5378 C 488.72 -0.624624 -2.22187 0
M  V30 5379 C 489.69 0.365636 -1.62026 0
M  V30 5380 O 490.875 0.260481 -1.89014 0
M  V30 5381 C 488.015 0.0101738 -3.45099 0
M  V30 5382 C 487.128 -1.02709 -4.19613 0
M  V30 5383 C 486.263 -0.361213 -5.2997 0
M  V30 5384 C 485.302 -1.38384 -5.96252 0
M  V30 5385 N 484.439 -0.743196 -6.98155 0
M  V30 5386 H 489.279 -1.51176 -2.56807 0
M  V30 5387 H 486.816 -0.75636 -1.26165 0
M  V30 5388 H 488.774 0.395528 -4.15321 0
M  V30 5389 H 487.404 0.860848 -3.1111 0
M  V30 5390 H 486.456 -1.53043 -3.48256 0
M  V30 5391 H 487.768 -1.80398 -4.65036 0
M  V30 5392 H 486.922 0.0785537 -6.06649 0
M  V30 5393 H 485.661 0.447799 -4.8564 0
M  V30 5394 H 484.666 -1.83378 -5.18317 0
M  V30 5395 H 485.891 -2.19448 -6.42666 0
M  V30 5396 H 483.837 0.0455789 -6.55984 0
M  V30 5397 H 483.754 -1.45784 -7.41811 0
M  V30 5398 H 485.022 -0.327698 -7.78811 0
M  V30 5399 N 489.251 1.34841 -0.815825 0
M  V30 5400 C 490.497 1.99219 -0.410288 0
M  V30 5401 C 490.852 1.63532 1.01366 0
M  V30 5402 O 490.145 0.893093 1.69512 0
M  V30 5403 C 490.339 3.53273 -0.541541 0
M  V30 5404 C 490.168 4.03927 -1.9767 0
M  V30 5405 C 488.938 4.32852 -2.60706 0
M  V30 5406 C 491.136 4.21808 -2.9425 0
M  V30 5407 N 489.118 4.69494 -3.95536 0
M  V30 5408 C 490.489 4.6155 -4.13971 0
M  V30 5409 C 492.544 4.04038 -2.9096 0
M  V30 5410 C 491.247 4.85381 -5.30847 0
M  V30 5411 C 493.273 4.29031 -4.07046 0
M  V30 5412 C 492.635 4.69054 -5.25517 0
M  V30 5413 H 488.734 0.756494 -0.198094 0
M  V30 5414 H 491.318 1.63379 -1.05902 0
M  V30 5415 H 489.489 3.88323 0.0772544 0
M  V30 5416 H 491.221 4.04551 -0.109694 0
M  V30 5417 H 487.976 4.23503 -2.11995 0
M  V30 5418 H 488.4 4.92061 -4.64979 0
M  V30 5419 H 493.042 3.7223 -2.00512 0
M  V30 5420 H 490.76 5.16059 -6.21859 0
M  V30 5421 H 494.346 4.16826 -4.05891 0
M  V30 5422 H 493.226 4.88014 -6.1385 0
M  V30 5423 N 490.729 0.570148 1.46925 0
M  V30 5424 C 491.975 0.0510284 2.02736 0
M  V30 5425 C 492.308 -1.3006 1.44215 0
M  V30 5426 O 491.583 -1.84932 0.602521 0
M  V30 5427 C 491.866 -0.028215 3.60089 0
M  V30 5428 C 491.719 1.35142 4.29018 0
M  V30 5429 C 493.038 -0.735181 4.33916 0
M  V30 5430 H 490.157 0.0200178 0.736728 0
M  V30 5431 H 492.799 0.73493 1.75211 0
M  V30 5432 H 490.949 -0.610648 3.83671 0
M  V30 5433 H 492.621 1.97806 4.16738 0
M  V30 5434 H 490.864 1.9226 3.88868 0
M  V30 5435 H 491.535 1.24857 5.37694 0
M  V30 5436 H 494.011 -0.240519 4.15404 0
M  V30 5437 H 492.887 -0.759622 5.43618 0
M  V30 5438 H 493.148 -1.79397 4.04066 0
M  V30 5439 N 492.207 -1.54576 0.307264 0
M  V30 5440 C 493.157 -2.20467 -0.581249 0
M  V30 5441 C 494.141 -1.17972 -1.09414 0
M  V30 5442 O 495.333 -1.43667 -1.03387 0
M  V30 5443 C 492.462 -2.95369 -1.74963 0
M  V30 5444 C 491.548 -4.05186 -1.25241 0
M  V30 5445 N 491.939 -5.03577 -0.47364 0
M  V30 5446 C 490.237 -4.18841 -1.53259 0
M  V30 5447 C 490.938 -5.81328 -0.208083 0
M  V30 5448 N 489.914 -5.37834 -0.789651 0
M  V30 5449 H 493.716 -2.93892 0.0212221 0
M  V30 5450 H 491.23 -1.62011 0.112325 0
M  V30 5451 H 493.227 -3.41046 -2.39777 0
M  V30 5452 H 491.887 -2.23461 -2.35574 0
M  V30 5453 H 492.898 -5.17766 -0.117963 0
M  V30 5454 H 489.575 -3.58141 -2.14573 0
M  V30 5455 H 490.965 -6.706 0.417793 0
M  V30 5456 N 493.685 -0.035106 -1.57561 0
M  V30 5457 C 494.595 0.960295 -2.14046 0
M  V30 5458 C 495.611 1.3529 -1.0942 0
M  V30 5459 O 496.787 1.43309 -1.41508 0
M  V30 5460 C 493.852 2.22214 -2.66124 0
M  V30 5461 C 492.913 1.8894 -3.85487 0
M  V30 5462 C 492.146 3.09109 -4.35072 0
M  V30 5463 O 492.369 4.21963 -3.83802 0
M  V30 5464 O 491.303 2.91058 -5.26848 0
M  V30 5465 H 495.129 0.509983 -2.99387 0
M  V30 5466 H 492.714 0.185853 -1.48239 0
M  V30 5467 H 494.596 2.96279 -2.99661 0
M  V30 5468 H 493.271 2.66414 -1.83862 0
M  V30 5469 H 492.178 1.12241 -3.56865 0
M  V30 5470 H 493.511 1.49551 -4.6893 0
M  V30 5471 N 495.163 1.55791 0.238111 0
M  V30 5472 C 496.574 1.68383 0.806472 0
M  V30 5473 C 496.925 0.634157 1.85669 0
M  V30 5474 O 496.05 -0.217913 2.153 0
M  V30 5475 C 496.645 3.05268 1.46959 0
M  V30 5476 C 495.204 3.1977 1.98555 0
M  V30 5477 C 494.351 2.64279 0.839763 0
M  V30 5478 H 497.302 1.58694 0.0137535 0
M  V30 5479 H 497.323 3.00203 2.33792 0
M  V30 5480 H 496.835 3.81643 0.704993 0
M  V30 5481 H 494.936 2.48234 2.77868 0
M  V30 5482 H 495.049 4.26788 2.17689 0
M  V30 5483 H 493.413 2.22329 1.24265 0
M  V30 5484 H 494.196 3.43187 0.0881032 0
M  V30 5485 N 496.642 -0.504142 1.49319 0
M  V30 5486 C 497.589 -1.60603 1.65756 0
M  V30 5487 C 498.559 -1.58425 0.499082 0
M  V30 5488 O 499.744 -1.76459 0.725728 0
M  V30 5489 C 496.884 -2.98764 1.72726 0
M  V30 5490 C 495.997 -3.10982 2.99857 0
M  V30 5491 C 495.132 -4.39857 2.97824 0
M  V30 5492 C 494.171 -4.45697 4.19548 0
M  V30 5493 N 493.308 -5.65995 4.15444 0
M  V30 5494 H 498.148 -1.45895 2.59843 0
M  V30 5495 H 495.685 -0.709891 1.28837 0
M  V30 5496 H 497.643 -3.78839 1.74747 0
M  V30 5497 H 496.273 -3.12183 0.821075 0
M  V30 5498 H 495.325 -2.23991 3.07461 0
M  V30 5499 H 496.637 -3.11157 3.89849 0
M  V30 5500 H 495.791 -5.2825 2.98391 0
M  V30 5501 H 494.53 -4.42242 2.05604 0
M  V30 5502 H 493.535 -3.55707 4.19229 0
M  V30 5503 H 494.76 -4.4503 5.12957 0
M  V30 5504 H 492.706 -5.69229 3.26059 0
M  V30 5505 H 492.623 -5.67773 4.99169 0
M  V30 5506 H 493.891 -6.56604 4.20109 0
M  V30 5507 N 498.12 -1.38341 -0.754957 0
M  V30 5508 C 499.368 -1.34208 -1.51105 0
M  V30 5509 C 499.689 0.0677634 -1.94882 0
M  V30 5510 O 498.959 1.01517 -1.67544 0
M  V30 5511 H 497.539 -0.493819 -0.560493 0
M  V30 5512 H 500.201 -1.73005 -0.897507 0
M  V30 5513 H 499.297 -1.99203 -2.4026 0
M  V30 5514 N 499.598 0.982988 -1.23187 0
M  V30 5515 C 500.828 1.75666 -1.08743 0
M  V30 5516 C 501.236 1.85662 0.364195 0
M  V30 5517 O 500.579 1.33317 1.26382 0
M  V30 5518 C 500.641 3.20144 -1.63549 0
M  V30 5519 C 500.305 3.33665 -3.12277 0
M  V30 5520 C 501.302 3.20194 -4.096 0
M  V30 5521 C 498.987 3.58397 -3.51933 0
M  V30 5522 C 500.981 3.31256 -5.44563 0
M  V30 5523 C 498.668 3.69098 -4.87042 0
M  V30 5524 C 499.666 3.55537 -5.83166 0
M  V30 5525 O 499.354 3.65864 -7.1582 0
M  V30 5526 H 499.086 0.558194 -0.381307 0
M  V30 5527 H 501.64 1.24387 -1.63454 0
M  V30 5528 H 499.87 3.72659 -1.03256 0
M  V30 5529 H 501.559 3.79262 -1.4462 0
M  V30 5530 H 502.325 3.00987 -3.80305 0
M  V30 5531 H 498.204 3.68025 -2.77631 0
M  V30 5532 H 501.748 3.20588 -6.19572 0
M  V30 5533 H 497.645 3.87814 -5.16014 0
M  V30 5534 H 498.413 3.82675 -7.23534 0
M  V30 5535 N 501.076 1.04316 1.18135 0
M  V30 5536 C 502.306 0.767003 1.91835 0
M  V30 5537 C 502.714 -0.68002 1.76557 0
M  V30 5538 O 502.057 -1.47548 1.09432 0
M  V30 5539 C 502.119 1.05674 3.43618 0
M  V30 5540 C 501.783 2.49818 3.82675 0
M  V30 5541 C 502.78 3.48003 3.86251 0
M  V30 5542 C 500.465 2.84596 4.13897 0
M  V30 5543 C 502.459 4.79016 4.20503 0
M  V30 5544 C 500.146 4.15813 4.4782 0
M  V30 5545 C 501.144 5.12834 4.51099 0
M  V30 5546 O 500.832 6.41699 4.84229 0
M  V30 5547 H 500.564 0.278948 0.615763 0
M  V30 5548 H 503.118 1.3946 1.50798 0
M  V30 5549 H 501.348 0.372029 3.84906 0
M  V30 5550 H 503.037 0.767994 3.98568 0
M  V30 5551 H 503.803 3.22475 3.62264 0
M  V30 5552 H 499.682 2.09748 4.1052 0
M  V30 5553 H 503.226 5.54739 4.22978 0
M  V30 5554 H 499.123 4.41109 4.71268 0
M  V30 5555 H 499.891 6.46387 5.02121 0
M  V30 5556 N 502.554 -1.34406 0.822964 0
M  V30 5557 C 503.517 -2.2783 0.250271 0
M  V30 5558 C 504.517 -1.50288 -0.571854 0
M  V30 5559 O 505.707 -1.69825 -0.387952 0
M  V30 5560 C 502.839 -3.34663 -0.649137 0
M  V30 5561 H 504.032 -2.79992 1.07444 0
M  V30 5562 H 501.585 -1.44539 0.594829 0
M  V30 5563 H 502.32 -2.87714 -1.49637 0
M  V30 5564 H 502.105 -3.92052 -0.0611199 0
M  V30 5565 H 503.595 -4.04349 -1.04363 0
M  V30 5566 N 504.032 -0.577932 -1.46621 0
M  V30 5567 C 504.98 0.170882 -2.31971 0
M  V30 5568 C 505.974 0.889086 -1.44193 0
M  V30 5569 O 507.18 0.808017 -1.60845 0
M  V30 5570 H 503.555 0.0739763 -0.748353 0
M  V30 5571 H 505.526 -0.567856 -2.92947 0
M  V30 5572 C 504.275 1.17438 -3.27267 0
M  V30 5573 H 503.598 0.63116 -3.94787 0
M  V30 5574 H 505.038 1.66882 -3.89778 0
M  V30 5575 C 503.497 2.23292 -2.52274 0
M  V30 5576 O 504.027 3.30567 -2.28229 0
M  V30 5577 N 502.233 1.97772 -2.12919 0
M  V30 5578 H 501.78 1.10545 -2.32675 0
M  V30 5579 H 501.738 2.68809 -1.63062 0
M  V30 5580 N 505.51 1.54411 -0.315457 0
M  V30 5581 C 506.757 2.00419 0.289543 0
M  V30 5582 C 507.085 1.20373 1.52776 0
M  V30 5583 O 506.34 0.271769 1.93804 0
M  V30 5584 C 506.639 3.50936 0.676652 0
M  V30 5585 C 506.305 4.48532 -0.461472 0
M  V30 5586 C 504.967 4.74936 -0.773879 0
M  V30 5587 C 507.319 5.06567 -1.22637 0
M  V30 5588 C 504.647 5.56634 -1.85405 0
M  V30 5589 C 506.999 5.89441 -2.29657 0
M  V30 5590 C 505.663 6.1415 -2.61488 0
M  V30 5591 H 504.933 0.733386 0.105951 0
M  V30 5592 H 507.58 1.86434 -0.437554 0
M  V30 5593 H 505.885 3.62606 1.48405 0
M  V30 5594 H 507.582 3.83971 1.15618 0
M  V30 5595 H 504.172 4.28096 -0.207893 0
M  V30 5596 H 508.356 4.86157 -0.998271 0
M  V30 5597 H 503.612 5.74012 -2.10523 0
M  V30 5598 H 507.786 6.33432 -2.89374 0
M  V30 5599 H 505.413 6.77245 -3.45317 0
M  V30 5600 N 506.988 0.0434614 1.5754 0
M  V30 5601 C 508.228 -0.636023 1.94253 0
M  V30 5602 C 508.592 -1.68461 0.921132 0
M  V30 5603 O 509.793 -2.41762 1.17494 0
M  V30 5604 C 508.064 -1.22357 3.35803 0
M  V30 5605 S 509.623 -1.92213 3.94461 0
M  V30 5606 H 506.441 -0.209041 0.679575 0
M  V30 5607 H 509.043 0.110556 1.95187 0
M  V30 5608 H 507.747 -0.448162 4.07946 0
M  V30 5609 H 507.278 -2.00713 3.38346 0
M  V30 5610 H 509.293 -3.20199 3.79061 0
M  V30 5611 N 508.466 -1.55915 -0.229846 0
M  V30 5612 C 509.691 -1.8296 -0.976743 0
M  V30 5613 C 510.116 -0.622735 -1.77493 0
M  V30 5614 O 509.474 0.428431 -1.76165 0
M  V30 5615 C 509.522 -3.07916 -1.8767 0
M  V30 5616 O 508.626 -2.86028 -2.97088 0
M  V30 5617 H 507.967 -0.603453 -0.277021 0
M  V30 5618 H 510.497 -2.0312 -0.245669 0
M  V30 5619 H 510.507 -3.37802 -2.2881 0
M  V30 5620 H 509.182 -3.95389 -1.28996 0
M  V30 5621 H 507.759 -2.67355 -2.59954 0
M  V30 5622 N 509.944 0.496216 -1.49584 0
M  V30 5623 C 511.192 1.24756 -1.58998 0
M  V30 5624 C 511.513 1.92968 -0.280775 0
M  V30 5625 O 510.783 1.82959 0.700198 0
M  V30 5626 H 509.363 0.463471 -0.585836 0
M  V30 5627 H 512.025 0.574678 -1.86235 0
M  V30 5628 H 511.121 2.00895 -2.38847 0
M  V30 5629 N 511.423 1.38739 0.74761 0
M  V30 5630 C 512.834 1.31507 1.32524 0
M  V30 5631 C 513.185 -0.0263963 1.96182 0
M  V30 5632 O 512.31 -0.92849 1.95469 0
M  V30 5633 C 512.905 2.38162 2.40966 0
M  V30 5634 C 511.464 2.34489 2.94434 0
M  V30 5635 C 510.611 2.20712 1.67873 0
M  V30 5636 H 513.562 1.4901 0.546043 0
M  V30 5637 H 513.583 2.04222 3.21051 0
M  V30 5638 H 513.095 3.35783 1.94605 0
M  V30 5639 H 511.196 1.40467 3.45108 0
M  V30 5640 H 511.309 3.28861 3.48407 0
M  V30 5641 H 509.673 1.67667 1.91729 0
M  V30 5642 H 510.456 3.20285 1.23582 0
M  V30 5643 N 512.901 -0.976442 1.23707 0
M  V30 5644 C 514.141 -1.73331 1.08332 0
M  V30 5645 C 514.505 -1.88346 -0.372781 0
M  V30 5646 O 515.706 -2.60877 -0.647813 0
M  V30 5647 C 513.977 -3.09159 1.7932 0
M  V30 5648 S 515.536 -4.00376 1.79567 0
M  V30 5649 H 512.354 -0.596045 0.387622 0
M  V30 5650 H 514.956 -1.16625 1.56904 0
M  V30 5651 H 513.66 -2.95884 2.84395 0
M  V30 5652 H 513.191 -3.70932 1.31046 0
M  V30 5653 H 515.206 -4.88742 0.857094 0
M  V30 5654 N 514.379 -1.04941 -1.1758 0
M  V30 5655 C 515.79 -0.784501 -1.69418 0
M  V30 5656 C 516.141 0.693625 -1.8353 0
M  V30 5657 O 515.266 1.53925 -1.52106 0
M  V30 5658 C 515.861 -1.41746 -3.07723 0
M  V30 5659 C 514.42 -1.20066 -3.56737 0
M  V30 5660 C 513.567 -1.5026 -2.33061 0
M  V30 5661 H 516.518 -1.21469 -1.02133 0
M  V30 5662 H 516.539 -0.825381 -3.7144 0
M  V30 5663 H 516.051 -2.49325 -2.9742 0
M  V30 5664 H 514.152 -0.144006 -3.72322 0
M  V30 5665 H 514.265 -1.90384 -4.39648 0
M  V30 5666 H 512.629 -0.922598 -2.37403 0
M  V30 5667 H 513.412 -2.58967 -2.25368 0
M  V30 5668 N 515.857 1.33968 -0.830081 0
M  V30 5669 C 517.087 2.01987 -0.434142 0
M  V30 5670 C 517.495 1.62639 0.96671 0
M  V30 5671 O 516.838 0.831151 1.63822 0
M  V30 5672 C 516.9 3.5648 -0.465018 0
M  V30 5673 C 516.564 4.19176 -1.82045 0
M  V30 5674 C 517.561 4.39181 -2.78237 0
M  V30 5675 C 515.246 4.55792 -2.11089 0
M  V30 5676 C 517.24 4.94937 -4.01642 0
M  V30 5677 C 514.927 5.11258 -3.34752 0
M  V30 5678 C 515.925 5.30775 -4.29845 0
M  V30 5679 O 515.613 5.85064 -5.51322 0
M  V30 5680 H 515.345 0.653847 -0.171639 0
M  V30 5681 H 517.899 1.72066 -1.12171 0
M  V30 5682 H 516.129 3.8569 0.279284 0
M  V30 5683 H 517.818 4.05804 -0.0881334 0
M  V30 5684 H 518.584 4.11249 -2.57097 0
M  V30 5685 H 514.463 4.39901 -1.3787 0
M  V30 5686 H 518.007 5.10086 -4.75876 0
M  V30 5687 H 513.904 5.38619 -3.55753 0
M  V30 5688 H 514.672 6.03489 -5.5294 0
M  V30 5689 N 517.335 0.585699 1.46312 0
M  V30 5690 C 518.265 -0.133556 2.33118 0
M  V30 5691 C 519.246 -0.880707 1.45525 0
M  V30 5692 O 520.431 -0.855579 1.74337 0
M  V30 5693 C 517.561 -1.14585 3.27853 0
M  V30 5694 C 516.515 -0.513341 4.2491 0
M  V30 5695 C 515.841 -1.63231 5.09175 0
M  V30 5696 C 517.141 0.551413 5.19381 0
M  V30 5697 H 518.835 0.59121 2.93505 0
M  V30 5698 H 516.381 0.285761 1.41136 0
M  V30 5699 H 518.334 -1.65741 3.87438 0
M  V30 5700 H 517.058 -1.90093 2.65579 0
M  V30 5701 H 515.717 -0.0228349 3.66593 0
M  V30 5702 H 515.365 -2.37713 4.43285 0
M  V30 5703 H 515.065 -1.21473 5.74907 0
M  V30 5704 H 516.589 -2.14658 5.71624 0
M  V30 5705 H 518.003 0.124804 5.73164 0
M  V30 5706 H 516.4 0.889486 5.93471 0
M  V30 5707 H 517.47 1.43655 4.63132 0
M  V30 5708 N 518.813 -1.54241 0.323641 0
M  V30 5709 C 520.229 -1.59574 -0.0290018 0
M  V30 5710 C 520.429 -1.34017 -1.50472 0
M  V30 5711 O 519.485 -1.12464 -2.26071 0
M  V30 5712 C 520.798 -2.98169 0.389295 0
M  V30 5713 C 522.346 -3.11148 0.339958 0
M  V30 5714 C 522.821 -4.5209 0.733418 0
M  V30 5715 N 524.312 -4.5808 0.686827 0
M  V30 5716 C 525.047 -5.65248 0.963464 0
M  V30 5717 N 524.543 -6.80355 1.30724 0
M  V30 5718 N 526.336 -5.55025 0.88902 0
M  V30 5719 H 518.487 -1.6911 1.28512 0
M  V30 5720 H 520.75 -0.790972 0.522558 0
M  V30 5721 H 520.456 -3.21871 1.41746 0
M  V30 5722 H 520.33 -3.76399 -0.245657 0
M  V30 5723 H 522.717 -2.87182 -0.679002 0
M  V30 5724 H 522.798 -2.35023 1.00985 0
M  V30 5725 H 522.442 -4.76788 1.75029 0
M  V30 5726 H 522.372 -5.26584 0.0412189 0
M  V30 5727 H 524.863 -3.75411 0.43298 0
M  V30 5728 H 525.176 -7.58029 1.5037 0
M  V30 5729 H 523.521 -6.81851 1.3455 0
M  V30 5730 H 526.712 -4.63977 0.619939 0
M  V30 5731 H 526.885 -6.38458 1.10797 0
M  V30 5732 N 520.291 -0.0518155 -1.57515 0
M  V30 5733 C 521.516 0.634896 -1.97443 0
M  V30 5734 C 521.941 1.63546 -0.929207 0
M  V30 5735 O 521.299 1.80981 0.107484 0
M  V30 5736 C 521.347 1.29765 -3.36442 0
M  V30 5737 O 520.451 2.41333 -3.34413 0
M  V30 5738 H 519.792 0.164994 -0.643174 0
M  V30 5739 H 522.322 -0.120407 -2.04245 0
M  V30 5740 H 522.332 1.64918 -3.73184 0
M  V30 5741 H 521.007 0.564361 -4.12053 0
M  V30 5742 H 519.584 2.08122 -3.09418 0
M  V30 5743 N 521.769 1.56035 0.221574 0
M  V30 5744 C 522.732 1.91584 1.2581 0
M  V30 5745 C 523.732 0.794425 1.39805 0
M  V30 5746 O 524.922 1.06217 1.38071 0
M  V30 5747 C 522.054 2.16663 2.63192 0
M  V30 5748 H 523.247 2.8429 0.954935 0
M  V30 5749 H 520.8 1.49316 0.461988 0
M  V30 5750 H 521.535 1.26508 2.98607 0
M  V30 5751 H 521.32 2.98358 2.5441 0
M  V30 5752 H 522.81 2.45262 3.37988 0
M  V30 5753 N 523.247 -0.488276 1.49845 0
M  V30 5754 C 524.524 -1.24959 1.50481 0
M  V30 5755 C 524.904 -2.09735 0.239698 0
M  V30 5756 O 524.252 -2.14865 -0.777524 0
M  V30 5757 C 524.462 -2.0954 2.79095 0
M  V30 5758 C 525.81 -2.68305 3.29086 0
M  V30 5759 O 526.834 -2.19797 2.80299 0
M  V30 5760 O 525.693 -3.56643 4.14087 0
M  V30 5761 H 522.787 -0.566133 0.602845 0
M  V30 5762 H 525.333 -0.501504 1.6212 0
M  V30 5763 H 524.105 -1.46958 3.62656 0
M  V30 5764 H 523.728 -2.91517 2.70377 0
M  V30 5765 N 524.725 -1.39134 -0.740242 0
M  V30 5766 C 525.953 -1.39334 -1.5295 0
M  V30 5767 C 526.368 0.0135008 -1.88795 0
M  V30 5768 O 525.725 0.983524 -1.5373 0
M  V30 5769 C 525.776 -2.2614 -2.82034 0
M  V30 5770 O 525.497 -3.61345 -2.47712 0
M  V30 5771 C 526.998 -2.34666 -3.76094 0
M  V30 5772 H 524.218 -0.476103 -0.472828 0
M  V30 5773 H 526.762 -1.82883 -0.9151 0
M  V30 5774 H 524.917 -1.86018 -3.39818 0
M  V30 5775 H 525.331 -4.07194 -3.30595 0
M  V30 5776 H 526.805 -2.99663 -4.63579 0
M  V30 5777 H 527.282 -1.36426 -4.17474 0
M  V30 5778 H 527.888 -2.75236 -3.2423 0
M  V30 5779 N 526.204 0.969867 -1.24223 0
M  V30 5780 C 527.432 1.74756 -1.10761 0
M  V30 5781 C 527.847 1.85713 0.340041 0
M  V30 5782 O 527.204 1.34389 1.23474 0
M  V30 5783 C 527.255 3.16915 -1.73917 0
M  V30 5784 O 526.976 3.06511 -3.13021 0
M  V30 5785 C 528.477 4.11032 -1.66036 0
M  V30 5786 H 525.697 0.548092 -0.387087 0
M  V30 5787 H 528.241 1.2178 -1.64286 0
M  V30 5788 H 526.396 3.66884 -1.244 0
M  V30 5789 H 526.81 3.96079 -3.43834 0
M  V30 5790 H 528.284 5.08446 -2.14911 0
M  V30 5791 H 528.761 4.34785 -0.621159 0
M  V30 5792 H 529.367 3.66972 -2.14969 0
M  V30 5793 N 527.682 1.05563 1.17022 0
M  V30 5794 C 528.632 0.630007 2.19123 0
M  V30 5795 C 529.616 -0.335472 1.57364 0
M  V30 5796 O 530.808 -0.1521 1.76345 0
M  V30 5797 C 527.937 0.0101676 3.43298 0
M  V30 5798 C 527.023 0.999698 4.12149 0
M  V30 5799 N 527.414 2.17251 4.56766 0
M  V30 5800 C 525.712 0.829 4.38228 0
M  V30 5801 C 526.413 2.79883 5.09942 0
M  V30 5802 N 525.389 2.07656 5.02374 0
M  V30 5803 H 529.191 1.52353 2.51328 0
M  V30 5804 H 526.705 0.926288 1.33393 0
M  V30 5805 H 528.702 -0.312541 4.15727 0
M  V30 5806 H 527.362 -0.878707 3.12584 0
M  V30 5807 H 528.373 2.55067 4.50734 0
M  V30 5808 H 525.05 -0.00850974 4.17499 0
M  V30 5809 H 526.44 3.79362 5.54558 0
M  V30 5810 N 529.16 -1.33526 0.837174 0
M  V30 5811 C 530.385 -2.0258 0.444545 0
M  V30 5812 C 530.81 -1.6258 -0.946006 0
M  V30 5813 O 530.168 -0.817548 -1.6182 0
M  V30 5814 C 530.216 -3.5605 0.571006 0
M  V30 5815 O 529.32 -4.10422 -0.403431 0
M  V30 5816 H 528.661 -0.638866 0.180958 0
M  V30 5817 H 531.191 -1.70462 1.13154 0
M  V30 5818 H 531.201 -4.05488 0.452024 0
M  V30 5819 H 529.876 -3.84509 1.58512 0
M  V30 5820 H 528.453 -3.72113 -0.242147 0
M  V30 5821 N 530.638 -0.59345 -1.46 0
M  V30 5822 C 531.866 -0.0890934 -2.06708 0
M  V30 5823 C 532.281 1.2205 -1.44046 0
M  V30 5824 O 531.638 1.74029 -0.549551 0
M  V30 5825 C 531.689 0.0720263 -3.61428 0
M  V30 5826 O 531.41 -1.18574 -4.21748 0
M  V30 5827 C 532.911 0.609487 -4.3909 0
M  V30 5828 H 530.131 -0.0623628 -0.668096 0
M  V30 5829 H 532.675 -0.817171 -1.87464 0
M  V30 5830 H 530.83 0.750369 -3.80063 0
M  V30 5831 H 531.244 -1.0064 -5.14754 0
M  V30 5832 H 532.718 0.671363 -5.47902 0
M  V30 5833 H 533.195 1.62878 -4.07882 0
M  V30 5834 H 533.801 -0.03434 -4.25286 0
M  V30 5835 N 532.116 1.54067 -0.331816 0
M  V30 5836 C 533.362 2.01012 0.268667 0
M  V30 5837 C 533.695 1.2195 1.51136 0
M  V30 5838 O 532.97 0.303972 1.9211 0
M  V30 5839 C 533.253 3.55158 0.59456 0
M  V30 5840 C 533.106 4.4494 -0.659409 0
M  V30 5841 C 534.425 4.16939 1.4089 0
M  V30 5842 H 531.544 0.730698 0.0961756 0
M  V30 5843 H 534.186 1.84593 -0.450031 0
M  V30 5844 H 532.336 3.6928 1.20685 0
M  V30 5845 H 534.008 4.42675 -1.29756 0
M  V30 5846 H 532.251 4.1428 -1.28665 0
M  V30 5847 H 532.922 5.50643 -0.386804 0
M  V30 5848 H 535.398 4.06443 0.891272 0
M  V30 5849 H 534.274 5.24889 1.60569 0
M  V30 5850 H 534.535 3.70798 2.40752 0
M  V30 5851 N 533.594 0.0601682 1.57485 0
M  V30 5852 C 534.524 -0.90889 2.15085 0
M  V30 5853 C 535.505 -1.31838 1.07484 0
M  V30 5854 O 536.69 -1.3915 1.35466 0
M  V30 5855 C 533.82 -2.18059 2.7031 0
M  V30 5856 C 532.774 -1.91088 3.82974 0
M  V30 5857 C 532.1 -3.24789 4.24754 0
M  V30 5858 C 533.4 -1.22535 5.07723 0
M  V30 5859 H 535.094 -0.429093 2.96309 0
M  V30 5860 H 532.64 -0.204952 1.42534 0
M  V30 5861 H 534.593 -2.86258 3.09248 0
M  V30 5862 H 533.317 -2.6826 1.8629 0
M  V30 5863 H 531.976 -1.25297 3.44523 0
M  V30 5864 H 531.624 -3.72809 3.37672 0
M  V30 5865 H 531.324 -3.07538 5.00694 0
M  V30 5866 H 532.848 -3.94205 4.66299 0
M  V30 5867 H 534.262 -1.80783 5.4405 0
M  V30 5868 H 532.659 -1.1558 5.88864 0
M  V30 5869 H 533.729 -0.202692 4.84476 0
M  V30 5870 N 535.072 -1.5615 -0.213296 0
M  V30 5871 C 536.32 -1.79191 -0.934612 0
M  V30 5872 C 536.641 -0.630112 -1.84539 0
M  V30 5873 O 535.911 0.35257 -1.92701 0
M  V30 5874 H 534.491 -0.660937 -0.348097 0
M  V30 5875 H 537.153 -1.93618 -0.22317 0
M  V30 5876 H 536.249 -2.71656 -1.53654 0
M  V30 5877 N 536.55 0.480323 -1.50102 0
M  V30 5878 C 537.48 1.58769 -1.71215 0
M  V30 5879 C 538.461 1.60583 -0.560997 0
M  V30 5880 O 539.646 1.76996 -0.799127 0
M  V30 5881 C 536.776 2.97148 -1.79778 0
M  V30 5882 C 535.73 3.10201 -2.94888 0
M  V30 5883 C 535.056 4.50137 -2.88584 0
M  V30 5884 C 536.356 2.88283 -4.35534 0
M  V30 5885 H 538.05 1.41354 -2.6393 0
M  V30 5886 H 535.596 0.678591 -1.27008 0
M  V30 5887 H 537.549 3.74536 -1.93133 0
M  V30 5888 H 536.273 3.15699 -0.836772 0
M  V30 5889 H 534.932 2.35244 -2.81169 0
M  V30 5890 H 534.58 4.65593 -1.90349 0
M  V30 5891 H 534.28 4.59808 -3.65856 0
M  V30 5892 H 535.804 5.29558 -3.03976 0
M  V30 5893 H 537.218 3.55427 -4.49827 0
M  V30 5894 H 535.615 3.09408 -5.14186 0
M  V30 5895 H 536.685 1.84219 -4.48544 0
M  V30 5896 N 538.028 1.39524 0.732853 0
M  V30 5897 C 539.258 1.3994 1.51988 0
M  V30 5898 C 539.666 -0.00727973 1.89199 0
M  V30 5899 O 539.009 -0.989521 1.54771 0
M  V30 5900 C 539.071 2.21026 2.83527 0
M  V30 5901 C 538.735 3.69633 2.68738 0
M  V30 5902 C 539.732 4.62665 2.37143 0
M  V30 5903 C 537.417 4.13244 2.85542 0
M  V30 5904 C 539.411 5.97291 2.22536 0
M  V30 5905 C 537.098 5.47945 2.70554 0
M  V30 5906 C 538.096 6.39783 2.39097 0
M  V30 5907 O 537.784 7.72002 2.24204 0
M  V30 5908 H 537.516 0.479795 0.476206 0
M  V30 5909 H 540.07 1.8399 0.913054 0
M  V30 5910 H 538.3 1.71728 3.46477 0
M  V30 5911 H 539.989 2.13594 3.45156 0
M  V30 5912 H 540.755 4.30272 2.2381 0
M  V30 5913 H 536.634 3.42094 3.09019 0
M  V30 5914 H 540.178 6.68939 1.97905 0
M  V30 5915 H 536.075 5.79928 2.83466 0
M  V30 5916 H 536.843 7.8275 2.39258 0
M  V30 5917 N 539.506 -0.963266 1.24736 0
M  V30 5918 C 540.454 -2.07985 1.04139 0
M  V30 5919 C 541.448 -1.69381 -0.0250556 0
M  V30 5920 O 542.654 -1.79531 0.129863 0
M  V30 5921 H 539.029 -0.680627 0.319768 0
M  V30 5922 H 541 -2.22517 1.98818 0
M  V30 5923 C 539.749 -3.4123 0.667615 0
M  V30 5924 H 539.072 -3.71397 1.48 0
M  V30 5925 H 540.512 -4.20244 0.563136 0
M  V30 5926 C 538.971 -3.3104 -0.625647 0
M  V30 5927 O 539.501 -3.65334 -1.67016 0
M  V30 5928 N 537.707 -2.84168 -0.608033 0
M  V30 5929 H 537.254 -2.56458 0.242323 0
M  V30 5930 H 537.212 -2.77732 -1.47352 0
M  V30 5931 N 540.985 -1.06182 -1.16461 0
M  V30 5932 C 542.213 -0.798583 -1.90867 0
M  V30 5933 C 542.628 0.646921 -1.77371 0
M  V30 5934 O 541.985 1.44279 -1.11758 0
M  V30 5935 C 542.036 -1.18258 -3.4161 0
M  V30 5936 O 541.757 -2.57135 -3.54701 0
M  V30 5937 C 543.258 -0.946917 -4.33069 0
M  V30 5938 H 540.478 -0.289603 -0.605286 0
M  V30 5939 H 543.022 -1.41515 -1.47627 0
M  V30 5940 H 541.177 -0.610562 -3.82558 0
M  V30 5941 H 541.591 -2.72477 -4.4817 0
M  V30 5942 H 543.065 -1.26523 -5.37304 0
M  V30 5943 H 543.542 0.117406 -4.39043 0
M  V30 5944 H 544.148 -1.50326 -3.97847 0
M  V30 5945 N 542.463 1.3308 -0.844243 0
M  V30 5946 C 543.393 2.3161 -0.296493 0
M  V30 5947 C 544.374 1.59215 0.598707 0
M  V30 5948 O 545.559 1.87077 0.521134 0
M  V30 5949 C 542.689 3.43313 0.524762 0
M  V30 5950 C 541.643 4.27115 -0.275106 0
M  V30 5951 C 540.969 5.30483 0.670236 0
M  V30 5952 C 542.269 5.00443 -1.49514 0
M  V30 5953 H 543.963 2.77672 -1.11976 0
M  V30 5954 H 541.509 1.33496 -0.539899 0
M  V30 5955 H 543.462 4.11273 0.918298 0
M  V30 5956 H 542.186 2.95952 1.3813 0
M  V30 5957 H 540.845 3.60787 -0.650267 0
M  V30 5958 H 540.493 4.79379 1.52332 0
M  V30 5959 H 540.193 5.87435 0.139123 0
M  V30 5960 H 541.717 6.01308 1.06117 0
M  V30 5961 H 543.131 5.61141 -1.17447 0
M  V30 5962 H 541.528 5.67071 -1.96343 0
M  V30 5963 H 542.598 4.28906 -2.26202 0
M  V30 5964 N 543.941 0.601185 1.45683 0
M  V30 5965 C 544.889 -0.133955 2.32214 0
M  V30 5966 C 545.883 -0.866034 1.45589 0
M  V30 5967 O 547.089 -0.782326 1.6211 0
M  V30 5968 H 543.464 -0.0620613 0.749435 0
M  V30 5969 H 545.435 0.614389 2.92007 0
M  V30 5970 C 544.184 -1.12216 3.29094 0
M  V30 5971 H 543.507 -0.568273 3.95741 0
M  V30 5972 H 544.947 -1.60659 3.92383 0
M  V30 5973 C 543.406 -2.19251 2.55794 0
M  V30 5974 O 543.936 -3.26894 2.33459 0
M  V30 5975 N 542.142 -1.9436 2.16039 0
M  V30 5976 H 541.689 -1.06829 2.34404 0
M  V30 5977 H 541.647 -2.66181 1.67318 0
M  V30 5978 N 545.419 -1.53889 0.339982 0
M  V30 5979 C 546.83 -1.86139 -0.144671 0
M  V30 5980 C 547.181 -1.2613 -1.50285 0
M  V30 5981 O 546.306 -0.573515 -2.08662 0
M  V30 5982 C 546.901 -3.37728 -0.269285 0
M  V30 5983 C 545.46 -3.69868 -0.698168 0
M  V30 5984 C 544.607 -2.76777 0.170249 0
M  V30 5985 H 547.558 -1.48503 0.559704 0
M  V30 5986 H 547.579 -3.64331 -1.0974 0
M  V30 5987 H 547.091 -3.81375 0.719366 0
M  V30 5988 H 545.192 -3.31764 -1.69597 0
M  V30 5989 H 545.305 -4.76582 -0.490533 0
M  V30 5990 H 543.669 -2.52188 -0.356844 0
M  V30 5991 H 544.452 -3.23253 1.15597 0
M  V30 5992 N 546.897 -0.0685191 -1.57451 0
M  V30 5993 C 547.807 0.914677 -2.16034 0
M  V30 5994 C 548.823 1.32938 -1.12265 0
M  V30 5995 O 549.999 1.40275 -1.44516 0
M  V30 5996 C 547.064 2.16519 -2.70777 0
M  V30 5997 C 546.125 1.80721 -3.89408 0
M  V30 5998 C 545.358 2.9981 -4.41531 0
M  V30 5999 O 545.581 4.13727 -3.92666 0
M  V30 6000 O 544.515 2.79817 -5.32903 0
M  V30 6001 H 548.341 0.446364 -3.00402 0
M  V30 6002 H 545.926 0.154367 -1.486 0
M  V30 6003 H 547.808 2.89856 -3.05878 0
M  V30 6004 H 546.483 2.62454 -1.89471 0
M  V30 6005 H 545.39 1.04646 -3.59166 0
M  V30 6006 H 546.723 1.39571 -4.71997 0
M  V30 6007 N 548.375 1.56261 0.205012 0
M  V30 6008 C 549.338 1.92908 1.23771 0
M  V30 6009 C 550.338 0.809208 1.38955 0
M  V30 6010 O 551.528 1.07676 1.36936 0
M  V30 6011 C 548.66 2.19442 2.60879 0
M  V30 6012 H 549.853 2.85287 0.924728 0
M  V30 6013 H 547.406 1.49798 0.446125 0
M  V30 6014 H 548.141 1.29668 2.97248 0
M  V30 6015 H 547.926 3.0104 2.51232 0
M  V30 6016 H 549.416 2.48833 3.35368 0
M  V30 6017 N 549.853 -0.472356 1.50355 0
M  V30 6018 C 551.078 -1.25251 1.65309 0
M  V30 6019 C 551.503 -1.85081 0.335643 0
M  V30 6020 O 550.861 -1.67227 -0.700335 0
M  V30 6021 C 550.909 -2.3379 2.74544 0
M  V30 6022 O 550.013 -3.38401 2.35709 0
M  V30 6023 H 549.354 -0.368539 0.552336 0
M  V30 6024 H 551.884 -0.562271 1.96722 0
M  V30 6025 H 551.894 -2.79121 2.97583 0
M  V30 6026 H 550.569 -1.89614 3.70161 0
M  V30 6027 H 549.146 -2.9879 2.23112 0
M  V30 6028 N 551.331 -1.39911 -0.725443 0
M  V30 6029 C 552.294 -1.39156 -1.82121 0
M  V30 6030 C 553.294 -0.287018 -1.58218 0
M  V30 6031 O 554.484 -0.545421 -1.65441 0
M  V30 6032 C 551.616 -1.1736 -3.20062 0
M  V30 6033 H 552.809 -2.36672 -1.84191 0
M  V30 6034 H 550.362 -1.25615 -0.930079 0
M  V30 6035 H 551.097 -0.205648 -3.23647 0
M  V30 6036 H 550.882 -1.97358 -3.3881 0
M  V30 6037 H 552.372 -1.19596 -4.00108 0
M  V30 6038 N 552.809 0.956637 -1.25245 0
M  V30 6039 C 554.034 1.74104 -1.12706 0
M  V30 6040 C 554.459 1.85436 0.315429 0
M  V30 6041 O 553.817 1.33334 1.22848 0
M  V30 6042 C 553.865 3.1338 -1.78396 0
M  V30 6043 O 552.969 3.98485 -1.06224 0
M  V30 6044 H 552.31 0.53476 -0.393609 0
M  V30 6045 H 554.84 1.19924 -1.65769 0
M  V30 6046 H 554.85 3.6385 -1.846 0
M  V30 6047 H 553.525 3.04448 -2.83345 0
M  V30 6048 H 552.102 3.56952 -1.07886 0
M  V30 6049 N 554.287 1.06798 1.15896 0
M  V30 6050 C 555.698 0.811355 1.68149 0
M  V30 6051 C 556.049 -0.664339 1.8461 0
M  V30 6052 O 555.174 -1.51485 1.54535 0
M  V30 6053 C 555.769 1.46624 3.05429 0
M  V30 6054 C 554.328 1.25726 3.54781 0
M  V30 6055 C 553.475 1.53949 2.3064 0
M  V30 6056 H 556.426 1.23078 1.00187 0
M  V30 6057 H 556.447 0.88437 3.7008 0
M  V30 6058 H 555.959 2.54025 2.93416 0
M  V30 6059 H 554.06 0.20322 3.72045 0
M  V30 6060 H 554.173 1.97354 4.36564 0
M  V30 6061 H 552.537 0.96025 2.35905 0
M  V30 6062 H 553.32 2.6252 2.2122 0
M  V30 6063 N 555.766 -1.3263 0.851289 0
M  V30 6064 C 557.006 -1.99174 0.459266 0
M  V30 6065 C 557.37 -1.65913 -0.966273 0
M  V30 6066 O 558.571 -2.2552 -1.46267 0
M  V30 6067 C 556.842 -3.50721 0.687698 0
M  V30 6068 S 558.401 -4.37039 0.392746 0
M  V30 6069 H 555.219 -0.689832 0.172199 0
M  V30 6070 H 557.821 -1.61395 1.10327 0
M  V30 6071 H 556.525 -3.72417 1.72435 0
M  V30 6072 H 556.056 -3.93389 0.0299949 0
M  V30 6073 H 558.071 -4.8999 -0.782578 0
M  V30 6074 N 557.244 -0.608902 -1.45362 0
M  V30 6075 C 558.484 -0.10763 -2.04116 0
M  V30 6076 C 558.848 1.23883 -1.46686 0
M  V30 6077 O 560.049 1.83091 -1.96803 0
M  V30 6078 C 558.32 -0.0703351 -3.57331 0
M  V30 6079 S 559.879 0.369554 -4.37241 0
M  V30 6080 H 556.697 -0.0502123 -0.709225 0
M  V30 6081 H 559.299 -0.8073 -1.78053 0
M  V30 6082 H 558.003 -1.05379 -3.9664 0
M  V30 6083 H 557.534 0.651287 -3.87971 0
M  V30 6084 H 559.549 1.61878 -4.69052 0
M  V30 6085 N 558.722 1.53707 -0.348139 0
M  V30 6086 C 559.968 2.01286 0.247332 0
M  V30 6087 C 560.301 1.23546 1.49834 0
M  V30 6088 O 559.576 0.324331 1.91777 0
M  V30 6089 C 559.859 3.55768 0.556858 0
M  V30 6090 C 559.712 4.44216 -0.706564 0
M  V30 6091 C 561.031 4.1841 1.3646 0
M  V30 6092 H 558.15 0.731677 0.0884201 0
M  V30 6093 H 560.792 1.84106 -0.469584 0
M  V30 6094 H 558.942 3.70539 1.16761 0
M  V30 6095 H 560.614 4.41274 -1.34444 0
M  V30 6096 H 558.857 4.12892 -1.33052 0
M  V30 6097 H 559.528 5.50202 -0.445186 0
M  V30 6098 H 562.004 4.07365 0.848113 0
M  V30 6099 H 560.88 5.26563 1.54992 0
M  V30 6100 H 561.141 3.7333 2.36805 0
M  V30 6101 N 560.2 0.0768682 1.57412 0
M  V30 6102 C 561.611 -0.455037 1.8107 0
M  V30 6103 C 561.962 -1.69323 0.991162 0
M  V30 6104 O 561.087 -2.15328 0.215156 0
M  V30 6105 C 561.682 -0.832316 3.28417 0
M  V30 6106 C 560.241 -1.30906 3.52903 0
M  V30 6107 C 559.388 -0.296714 2.75708 0
M  V30 6108 H 562.339 0.302514 1.5579 0
M  V30 6109 H 562.36 -1.69333 3.40744 0
M  V30 6110 H 561.872 0.0690532 3.88039 0
M  V30 6111 H 559.973 -2.22875 2.98592 0
M  V30 6112 H 560.086 -1.28348 4.61588 0
M  V30 6113 H 558.45 -0.775059 2.42621 0
M  V30 6114 H 559.233 0.597015 3.38069 0
M  V30 6115 N 561.678 -1.56367 -0.196722 0
M  V30 6116 C 562.61 -1.90941 -1.26784 0
M  V30 6117 C 563.623 -0.799928 -1.41792 0
M  V30 6118 O 564.812 -1.07833 -1.42247 0
M  V30 6119 C 561.912 -2.12477 -2.6402 0
M  V30 6120 C 561.085 -3.43616 -2.70641 0
M  V30 6121 C 560.144 -3.54284 -3.89062 0
M  V30 6122 O 559.17 -4.2712 -3.76241 0
M  V30 6123 N 560.372 -2.87252 -5.04447 0
M  V30 6124 H 563.137 -2.83417 -0.974417 0
M  V30 6125 H 560.698 -1.57215 -0.386649 0
M  V30 6126 H 562.69 -2.16904 -3.41665 0
M  V30 6127 H 561.26 -1.26508 -2.85857 0
M  V30 6128 H 560.48 -3.51072 -1.79283 0
M  V30 6129 H 561.768 -4.29958 -2.72054 0
M  V30 6130 H 561.166 -2.27901 -5.17762 0
M  V30 6131 H 559.723 -2.97308 -5.80044 0
M  V30 6132 N 563.156 0.464375 -1.50603 0
M  V30 6133 C 564.433 1.22549 -1.5245 0
M  V30 6134 C 564.813 2.09327 -0.273035 0
M  V30 6135 O 564.161 2.16074 0.743242 0
M  V30 6136 C 564.371 2.05074 -2.82393 0
M  V30 6137 C 565.719 2.63036 -3.33313 0
M  V30 6138 O 566.743 2.1531 -2.8376 0
M  V30 6139 O 565.602 3.5001 -4.19709 0
M  V30 6140 H 562.696 0.556471 -0.611775 0
M  V30 6141 H 565.242 0.475648 -1.62898 0
M  V30 6142 H 564.014 1.41169 -3.64948 0
M  V30 6143 H 563.637 2.87179 -2.7498 0
M  V30 6144 N 564.634 1.40294 0.718013 0
M  V30 6145 C 565.564 1.43118 1.84498 0
M  V30 6146 C 566.545 0.292403 1.67568 0
M  V30 6147 O 567.73 0.500675 1.87635 0
M  V30 6148 C 564.86 1.29065 3.22427 0
M  V30 6149 C 563.814 2.40521 3.54025 0
M  V30 6150 C 563.14 2.11546 4.91073 0
M  V30 6151 C 564.44 3.82859 3.55269 0
M  V30 6152 H 566.134 2.37432 1.82391 0
M  V30 6153 H 563.68 1.14283 0.87609 0
M  V30 6154 H 565.633 1.29658 4.00957 0
M  V30 6155 H 564.357 0.312271 3.25104 0
M  V30 6156 H 563.016 2.39173 2.77834 0
M  V30 6157 H 562.664 1.12104 4.90348 0
M  V30 6158 H 562.364 2.86216 5.1318 0
M  V30 6159 H 563.888 2.13817 5.71939 0
M  V30 6160 H 565.302 3.86044 4.23843 0
M  V30 6161 H 563.699 4.57029 3.88902 0
M  V30 6162 H 564.769 4.12617 2.54706 0
M  V30 6163 N 566.112 -0.949982 1.2575 0
M  V30 6164 C 567.022 -2.08109 1.08295 0
M  V30 6165 C 568.038 -1.7399 0.0188181 0
M  V30 6166 O 569.214 -2.00187 0.220724 0
M  V30 6167 C 566.279 -3.39383 0.708534 0
M  V30 6168 C 565.34 -3.8734 1.85111 0
M  V30 6169 C 564.573 -5.12349 1.49447 0
M  V30 6170 O 564.796 -5.6905 0.392212 0
M  V30 6171 O 563.73 -5.5513 2.32624 0
M  V30 6172 H 567.556 -2.25738 2.03165 0
M  V30 6173 H 565.141 -1.06545 1.04731 0
M  V30 6174 H 567.023 -4.18277 0.512061 0
M  V30 6175 H 565.698 -3.23013 -0.210854 0
M  V30 6176 H 564.605 -3.09429 2.10248 0
M  V30 6177 H 565.938 -4.08216 2.74991 0
M  V30 6178 N 567.59 -1.07411 -1.15328 0
M  V30 6179 C 569.001 -0.820261 -1.67716 0
M  V30 6180 C 569.352 0.654539 -1.8496 0
M  V30 6181 O 568.477 1.50664 -1.55337 0
M  V30 6182 C 569.072 -1.48242 -3.04647 0
M  V30 6183 C 567.631 -1.27606 -3.5411 0
M  V30 6184 C 566.778 -1.5517 -2.29821 0
M  V30 6185 H 569.729 -1.23608 -0.995332 0
M  V30 6186 H 569.75 -0.903984 -3.69606 0
M  V30 6187 H 569.262 -2.55578 -2.92064 0
M  V30 6188 H 567.363 -0.222948 -3.71932 0
M  V30 6189 H 567.476 -1.99667 -4.35511 0
M  V30 6190 H 565.84 -0.972747 -2.35393 0
M  V30 6191 H 566.623 -2.63689 -2.19824 0
M  V30 6192 N 569.068 1.32177 -0.85831 0
M  V30 6193 C 569.998 2.31282 -0.321041 0
M  V30 6194 C 570.979 1.59841 0.581786 0
M  V30 6195 O 572.164 1.87619 0.501262 0
M  V30 6196 C 569.294 3.4385 0.48832 0
M  V30 6197 C 568.248 4.26799 -0.320391 0
M  V30 6198 C 567.574 5.31164 0.613934 0
M  V30 6199 C 568.874 4.98829 -1.54813 0
M  V30 6200 H 570.568 2.76469 -1.14915 0
M  V30 6201 H 568.114 1.32916 -0.554028 0
M  V30 6202 H 570.067 4.12224 0.874626 0
M  V30 6203 H 568.791 2.97401 1.34983 0
M  V30 6204 H 567.45 3.60077 -0.688497 0
M  V30 6205 H 567.098 4.80967 1.47239 0
M  V30 6206 H 566.798 5.8755 0.0768097 0
M  V30 6207 H 568.322 6.024 0.997336 0
M  V30 6208 H 569.736 5.59864 -1.23392 0
M  V30 6209 H 568.133 5.64957 -2.02346 0
M  V30 6210 H 569.203 4.26483 -2.30739 0
M  V30 6211 N 570.547 0.616602 1.45037 0
M  V30 6212 C 571.775 0.121968 2.0654 0
M  V30 6213 C 572.19 -1.19743 1.45969 0
M  V30 6214 O 571.547 -1.73133 0.577168 0
M  V30 6215 C 571.598 -0.0145171 3.61497 0
M  V30 6216 O 571.319 1.25269 4.19809 0
M  V30 6217 C 572.82 -0.539555 4.40004 0
M  V30 6218 H 570.04 0.0729837 0.667019 0
M  V30 6219 H 572.584 0.846891 1.8614 0
M  V30 6220 H 570.739 -0.689809 3.81209 0
M  V30 6221 H 571.153 1.08816 5.13088 0
M  V30 6222 H 572.627 -0.584112 5.48901 0
M  V30 6223 H 573.104 -1.56368 4.10421 0
M  V30 6224 H 573.71 0.101995 4.25178 0
M  V30 6225 N 572.025 -1.5352 0.356285 0
M  V30 6226 C 573.274 -2.00298 -0.237373 0
M  V30 6227 C 573.587 -1.24784 -1.50627 0
M  V30 6228 O 574.793 -1.62103 -2.17795 0
M  V30 6229 C 573.249 -3.56771 -0.473545 0
M  V30 6230 C 572.857 -4.41154 0.780183 0
M  V30 6231 C 574.601 -4.1193 -1.02537 0
M  V30 6232 C 572.508 -5.89161 0.514108 0
M  V30 6233 H 571.438 -0.748307 -0.092478 0
M  V30 6234 H 574.089 -1.77283 0.473588 0
M  V30 6235 H 572.471 -3.75902 -1.24553 0
M  V30 6236 H 573.645 -4.33797 1.55425 0
M  V30 6237 H 571.96 -3.97052 1.25455 0
M  V30 6238 H 574.557 -5.20133 -1.2396 0
M  V30 6239 H 574.9 -3.65943 -1.98473 0
M  V30 6240 H 575.433 -3.96561 -0.313775 0
M  V30 6241 H 572.172 -6.39408 1.44355 0
M  V30 6242 H 571.692 -5.9939 -0.221632 0
M  V30 6243 H 573.371 -6.46857 0.136122 0
M  V30 6244 N 573.503 -0.0852151 -1.57369 0
M  V30 6245 C 574.433 0.874556 -2.16503 0
M  V30 6246 C 575.414 1.30111 -1.09568 0
M  V30 6247 O 576.599 1.36977 -1.37662 0
M  V30 6248 C 573.729 2.13731 -2.73745 0
M  V30 6249 C 572.683 1.84971 -3.85966 0
M  V30 6250 C 572.009 3.17991 -4.29867 0
M  V30 6251 C 573.309 1.14442 -5.09608 0
M  V30 6252 H 575.003 0.381899 -2.96954 0
M  V30 6253 H 572.549 0.18225 -1.42842 0
M  V30 6254 H 574.502 2.81302 -3.13763 0
M  V30 6255 H 573.226 2.65263 -1.90534 0
M  V30 6256 H 571.885 1.19801 -3.46473 0
M  V30 6257 H 571.533 3.6739 -3.4356 0
M  V30 6258 H 571.233 2.99534 -5.05523 0
M  V30 6259 H 572.757 3.86737 -4.72511 0
M  V30 6260 H 574.171 1.72105 -5.46857 0
M  V30 6261 H 572.568 1.06197 -5.90629 0
M  V30 6262 H 573.638 0.12559 -4.84737 0
M  V30 6263 N 574.981 1.5647 0.188427 0
M  V30 6264 C 576.211 1.84863 0.922463 0
M  V30 6265 C 576.619 0.666413 1.77075 0
M  V30 6266 O 575.962 -0.374044 1.79852 0
M  V30 6267 C 576.024 3.07447 1.86324 0
M  V30 6268 C 575.688 4.41066 1.19625 0
M  V30 6269 C 576.685 5.16767 0.569946 0
M  V30 6270 C 574.37 4.87802 1.19811 0
M  V30 6271 C 576.364 6.37384 -0.045594 0
M  V30 6272 C 574.051 6.08353 0.57874 0
M  V30 6273 C 575.049 6.82987 -0.0420259 0
M  V30 6274 O 574.737 8.01254 -0.651675 0
M  V30 6275 H 574.469 0.61784 0.274316 0
M  V30 6276 H 577.023 2.04437 0.198613 0
M  V30 6277 H 575.253 2.83774 2.62696 0
M  V30 6278 H 576.942 3.2243 2.46564 0
M  V30 6279 H 577.708 4.81749 0.560601 0
M  V30 6280 H 573.587 4.29662 1.67069 0
M  V30 6281 H 577.131 6.95578 -0.530731 0
M  V30 6282 H 573.028 6.42838 0.58561 0
M  V30 6283 H 573.796 8.16655 -0.549236 0
M  V30 6284 N 576.459 -0.456382 1.50847 0
M  V30 6285 C 577.689 -1.22848 1.66108 0
M  V30 6286 C 578.097 -1.85936 0.349897 0
M  V30 6287 O 577.44 -1.70664 -0.679665 0
M  V30 6288 C 577.502 -2.36722 2.70561 0
M  V30 6289 C 577.166 -1.94154 4.13707 0
M  V30 6290 C 578.163 -1.4557 4.99105 0
M  V30 6291 C 575.848 -2.02426 4.59705 0
M  V30 6292 C 577.842 -1.0582 6.28555 0
M  V30 6293 C 575.529 -1.62287 5.89157 0
M  V30 6294 C 576.527 -1.14064 6.73408 0
M  V30 6295 O 576.215 -0.744873 8.00442 0
M  V30 6296 H 575.947 -0.377105 0.561042 0
M  V30 6297 H 578.501 -0.549431 1.97915 0
M  V30 6298 H 576.731 -3.07844 2.34027 0
M  V30 6299 H 578.42 -2.98646 2.74892 0
M  V30 6300 H 579.186 -1.38589 4.64777 0
M  V30 6301 H 575.065 -2.38908 3.94264 0
M  V30 6302 H 578.609 -0.6811 6.94267 0
M  V30 6303 H 574.506 -1.68932 6.23003 0
M  V30 6304 H 575.274 -0.87242 8.13837 0
M  V30 6305 N 577.937 -1.40673 -0.710563 0
M  V30 6306 C 579.183 -1.39428 -1.47267 0
M  V30 6307 C 579.516 0.00182129 -1.942 0
M  V30 6308 O 578.791 0.971387 -1.68506 0
M  V30 6309 C 579.074 -2.38812 -2.6952 0
M  V30 6310 C 578.927 -3.87467 -2.28449 0
M  V30 6311 C 580.246 -2.3566 -3.71689 0
M  V30 6312 H 577.365 -0.507768 -0.534173 0
M  V30 6313 H 580.007 -1.71843 -0.810547 0
M  V30 6314 H 578.157 -2.113 -3.26013 0
M  V30 6315 H 579.829 -4.25825 -1.77399 0
M  V30 6316 H 578.072 -4.03058 -1.60395 0
M  V30 6317 H 578.743 -4.5253 -3.16103 0
M  V30 6318 H 581.219 -2.6004 -3.24836 0
M  V30 6319 H 580.095 -3.07237 -4.54859 0
M  V30 6320 H 580.356 -1.36996 -4.20339 0
M  V30 6321 N 579.415 0.9433 -1.26252 0
M  V30 6322 C 580.663 1.68592 -1.11451 0
M  V30 6323 C 580.984 1.91957 0.343123 0
M  V30 6324 O 580.254 1.51475 1.24226 0
M  V30 6325 H 578.834 0.624789 -0.409448 0
M  V30 6326 H 581.496 1.13351 -1.58548 0
M  V30 6327 H 580.592 2.66054 -1.63162 0
M  V30 6328 N 580.893 1.08022 1.14757 0
M  V30 6329 C 582.309 0.807072 1.3769 0
M  V30 6330 C 582.509 -0.585504 1.92806 0
M  V30 6331 O 581.565 -1.34301 2.13821 0
M  V30 6332 C 582.878 1.88651 2.34161 0
M  V30 6333 C 584.426 1.91206 2.47809 0
M  V30 6334 C 584.901 2.98253 3.47576 0
M  V30 6335 N 586.392 2.974 3.55117 0
M  V30 6336 C 587.127 3.76872 4.32152 0
M  V30 6337 N 586.623 4.66212 5.12463 0
M  V30 6338 N 588.416 3.6519 4.27309 0
M  V30 6339 H 580.567 1.97824 0.77326 0
M  V30 6340 H 582.83 0.85826 0.402608 0
M  V30 6341 H 582.536 2.88749 2.00791 0
M  V30 6342 H 582.41 1.75244 3.3402 0
M  V30 6343 H 584.797 0.917564 2.80472 0
M  V30 6344 H 584.878 2.08691 1.47925 0
M  V30 6345 H 584.522 3.97907 3.15646 0
M  V30 6346 H 584.452 2.78014 4.47231 0
M  V30 6347 H 586.943 2.32643 2.97801 0
M  V30 6348 H 587.256 5.23468 5.68508 0
M  V30 6349 H 585.601 4.70257 5.11745 0
M  V30 6350 H 588.792 2.94765 3.63636 0
M  V30 6351 H 588.965 4.27366 4.87095 0
M  V30 6352 N 582.371 -1.3172 0.865308 0
M  V30 6353 C 583.599 -2.01057 0.488251 0
M  V30 6354 C 584.014 -1.64979 -0.918 0
M  V30 6355 O 583.371 -0.876597 -1.60069 0
M  V30 6356 C 583.422 -3.55964 0.630224 0
M  V30 6357 O 583.143 -3.90749 1.98109 0
M  V30 6358 C 584.644 -4.42574 0.253567 0
M  V30 6359 H 581.864 -0.64332 0.190736 0
M  V30 6360 H 584.408 -1.68058 1.16519 0
M  V30 6361 H 582.563 -3.874 0.000895422 0
M  V30 6362 H 582.977 -4.85467 1.9855 0
M  V30 6363 H 584.451 -5.50521 0.403875 0
M  V30 6364 H 584.928 -4.31724 -0.806895 0
M  V30 6365 H 585.534 -4.16547 0.858404 0
M  V30 6366 N 583.85 -0.624285 -1.44708 0
M  V30 6367 C 585.26 -0.2092 -1.85524 0
M  V30 6368 C 585.611 1.23783 -1.52225 0
M  V30 6369 O 584.736 1.94089 -0.956986 0
M  V30 6370 C 585.332 -0.372897 -3.36742 0
M  V30 6371 C 583.891 -0.012374 -3.76398 0
M  V30 6372 C 583.038 -0.68951 -2.68591 0
M  V30 6373 H 585.989 -0.829894 -1.35272 0
M  V30 6374 H 586.01 0.390134 -3.78495 0
M  V30 6375 H 585.522 -1.42615 -3.60947 0
M  V30 6376 H 583.623 1.03941 -3.57809 0
M  V30 6377 H 583.736 -0.417663 -4.77276 0
M  V30 6378 H 582.1 -0.125484 -2.54391 0
M  V30 6379 H 582.883 -1.74522 -2.9563 0
M  V30 6380 N 585.328 1.53329 -0.364422 0
M  V30 6381 C 586.275 2.25698 0.482607 0
M  V30 6382 C 587.245 1.26325 1.07848 0
M  V30 6383 O 588.43 1.55104 1.11119 0
M  V30 6384 C 585.57 3.04873 1.61699 0
M  V30 6385 C 584.683 4.19135 1.0464 0
M  V30 6386 C 583.818 4.85754 2.14979 0
M  V30 6387 C 582.857 5.9205 1.5538 0
M  V30 6388 N 581.994 6.52365 2.59547 0
M  V30 6389 H 586.834 2.97666 -0.141032 0
M  V30 6390 H 584.371 1.46875 -0.0813692 0
M  V30 6391 H 586.329 3.49051 2.28516 0
M  V30 6392 H 584.959 2.35162 2.2113 0
M  V30 6393 H 584.011 3.79451 0.268553 0
M  V30 6394 H 585.323 4.95525 0.570653 0
M  V30 6395 H 584.477 5.3311 2.89619 0
M  V30 6396 H 583.216 4.08834 2.65906 0
M  V30 6397 H 582.221 5.44058 0.792549 0
M  V30 6398 H 583.446 6.7089 1.0528 0
M  V30 6399 H 581.392 5.78298 3.09689 0
M  V30 6400 H 581.309 7.2429 2.16655 0
M  V30 6401 H 582.577 7.0437 3.33892 0
M  V30 6402 N 586.806 0.0935595 1.57322 0
M  V30 6403 C 588.052 -0.571355 1.94585 0
M  V30 6404 C 588.385 -1.67929 0.975366 0
M  V30 6405 O 587.66 -1.94498 0.00816206 0
M  V30 6406 C 587.943 -1.12797 3.41978 0
M  V30 6407 C 587.796 -0.0251881 4.49793 0
M  V30 6408 C 589.115 -2.02682 3.90651 0
M  V30 6409 H 586.234 -0.206223 0.70756 0
M  V30 6410 H 588.876 0.163956 1.89291 0
M  V30 6411 H 587.026 -1.75461 3.4662 0
M  V30 6412 H 588.698 0.608979 4.57263 0
M  V30 6413 H 586.941 0.641399 4.29032 0
M  V30 6414 H 587.612 -0.455433 5.50118 0
M  V30 6415 H 590.088 -1.49925 3.88152 0
M  V30 6416 H 588.964 -2.38555 4.94351 0
M  V30 6417 H 589.225 -2.94362 3.29854 0
M  V30 6418 N 588.284 -1.56567 -0.180126 0
M  V30 6419 C 589.194 -1.98947 -1.24327 0
M  V30 6420 C 590.21 -0.899446 -1.4895 0
M  V30 6421 O 591.386 -1.20639 -1.61271 0
M  V30 6422 C 588.451 -2.33328 -2.56435 0
M  V30 6423 C 587.512 -3.56114 -2.39752 0
M  V30 6424 C 586.745 -3.88845 -3.65561 0
M  V30 6425 O 586.968 -3.22662 -4.70368 0
M  V30 6426 O 585.902 -4.82226 -3.60197 0
M  V30 6427 H 589.728 -2.89634 -0.913565 0
M  V30 6428 H 587.313 -1.44319 -0.386306 0
M  V30 6429 H 589.195 -2.5645 -3.34382 0
M  V30 6430 H 587.87 -1.45806 -2.89002 0
M  V30 6431 H 586.777 -3.38221 -1.59866 0
M  V30 6432 H 588.11 -4.4415 -2.12113 0
M  V30 6433 N 589.762 0.448376 -1.51087 0
M  V30 6434 C 590.694 1.56146 -1.67783 0
M  V30 6435 C 591.707 1.52913 -0.55871 0
M  V30 6436 O 592.896 1.57889 -0.83267 0
M  V30 6437 C 589.996 2.95057 -1.66716 0
M  V30 6438 C 589.169 3.22915 -2.95033 0
M  V30 6439 C 588.228 4.41495 -2.86302 0
M  V30 6440 O 587.254 4.40688 -3.60254 0
M  V30 6441 N 588.456 5.44443 -2.014 0
M  V30 6442 H 591.221 1.42232 -2.638 0
M  V30 6443 H 588.782 0.637153 -1.48835 0
M  V30 6444 H 590.774 3.72388 -1.58458 0
M  V30 6445 H 589.344 3.02624 -0.783403 0
M  V30 6446 H 588.564 2.33985 -3.17245 0
M  V30 6447 H 589.852 3.38349 -3.79996 0
M  V30 6448 H 589.25 5.4793 -1.40674 0
M  V30 6449 H 587.807 6.2067 -1.99029 0
M  V30 6450 N 591.24 1.41047 0.703093 0
M  V30 6451 C 592.17 1.45067 1.82969 0
M  V30 6452 C 593.151 0.31016 1.67248 0
M  V30 6453 O 594.336 0.520548 1.87093 0
M  V30 6454 C 591.466 1.32478 3.2104 0
M  V30 6455 C 590.42 2.44262 3.51454 0
M  V30 6456 C 589.746 2.16742 4.88801 0
M  V30 6457 C 591.046 3.86606 3.51189 0
M  V30 6458 H 592.74 2.39353 1.79863 0
M  V30 6459 H 590.286 1.15206 0.863919 0
M  V30 6460 H 592.239 1.33904 3.99559 0
M  V30 6461 H 590.963 0.346735 3.24754 0
M  V30 6462 H 589.622 2.42107 2.75282 0
M  V30 6463 H 589.27 1.17299 4.89132 0
M  V30 6464 H 588.97 2.91643 5.10116 0
M  V30 6465 H 590.494 2.19872 5.69639 0
M  V30 6466 H 591.908 3.90517 4.19725 0
M  V30 6467 H 590.305 4.61128 3.84033 0
M  V30 6468 H 591.375 4.15296 2.50315 0
M  V30 6469 N 592.718 -0.936591 1.26751 0
M  V30 6470 C 593.943 -1.72288 1.15462 0
M  V30 6471 C 594.368 -1.85915 -0.285887 0
M  V30 6472 O 593.726 -1.35272 -1.20711 0
M  V30 6473 C 593.774 -3.10503 1.83359 0
M  V30 6474 O 592.878 -3.96745 1.1255 0
M  V30 6475 H 592.219 -0.52843 0.402067 0
M  V30 6476 H 594.749 -1.17271 1.67656 0
M  V30 6477 H 594.759 -3.60867 1.90365 0
M  V30 6478 H 593.434 -2.99901 2.88153 0
M  V30 6479 H 592.011 -3.55191 1.13551 0
M  V30 6480 N 594.196 -1.08629 -1.14182 0
M  V30 6481 C 595.144 -0.71284 -2.21408 0
M  V30 6482 C 596.138 0.282457 -1.67029 0
M  V30 6483 O 597.344 0.144783 -1.79417 0
M  V30 6484 H 593.719 -0.212497 -0.721352 0
M  V30 6485 H 595.69 -1.6265 -2.50175 0
M  V30 6486 C 594.439 -0.140704 -3.47415 0
M  V30 6487 H 593.762 -0.897739 -3.8959 0
M  V30 6488 H 595.202 0.0827677 -4.23919 0
M  V30 6489 C 593.661 1.122 -3.17668 0
M  V30 6490 O 594.191 2.20652 -3.35672 0
M  V30 6491 N 592.397 1.03328 -2.71609 0
M  V30 6492 H 591.944 0.150666 -2.57159 0
M  V30 6493 H 591.902 1.8789 -2.52081 0
M  V30 6494 N 595.674 1.31259 -0.872281 0
M  V30 6495 C 596.607 2.26544 -0.274394 0
M  V30 6496 C 597.585 1.51213 0.597776 0
M  V30 6497 O 598.769 1.80277 0.550687 0
M  V30 6498 C 595.896 3.33139 0.611256 0
M  V30 6499 C 594.942 4.26077 -0.189876 0
M  V30 6500 S 595.775 5.11971 -1.56989 0
M  V30 6501 C 596.931 6.2208 -0.690427 0
M  V30 6502 H 597.164 2.76908 -1.0821 0
M  V30 6503 H 594.697 1.3906 -0.670939 0
M  V30 6504 H 596.655 3.95024 1.11654 0
M  V30 6505 H 595.316 2.81525 1.39294 0
M  V30 6506 H 594.509 5.01657 0.485433 0
M  V30 6507 H 594.111 3.68701 -0.627339 0
M  V30 6508 H 596.403 6.77429 0.098001 0
M  V30 6509 H 597.346 6.93768 -1.41742 0
M  V30 6510 H 597.754 5.63915 -0.256953 0
M  V30 6511 N 597.152 0.631951 1.44375 0
M  V30 6512 C 598.398 0.13697 2.02337 0
M  V30 6513 C 598.731 -1.23826 1.49602 0
M  V30 6514 O 598.006 -1.8221 0.680415 0
M  V30 6515 C 598.289 0.124536 3.59885 0
M  V30 6516 C 598.142 1.53217 4.229 0
M  V30 6517 C 599.461 -0.550481 4.36644 0
M  V30 6518 H 596.58 0.051247 0.735216 0
M  V30 6519 H 599.222 0.808581 1.71936 0
M  V30 6520 H 597.372 -0.44737 3.85916 0
M  V30 6521 H 599.044 2.15303 4.07973 0
M  V30 6522 H 597.287 2.0858 3.80364 0
M  V30 6523 H 597.958 1.4755 5.31914 0
M  V30 6524 H 600.434 -0.0641154 4.16051 0
M  V30 6525 H 599.31 -0.528371 5.46351 0
M  V30 6526 H 599.571 -1.62097 4.11311 0
M  V30 6527 N 598.631 -1.53133 0.372548 0
M  V30 6528 C 599.877 -2.01654 -0.215277 0
M  V30 6529 C 600.21 -1.25914 -1.47849 0
M  V30 6530 O 599.485 -0.3548 -1.91237 0
M  V30 6531 C 599.768 -3.56609 -0.500187 0
M  V30 6532 C 599.621 -4.43036 0.777145 0
M  V30 6533 C 600.94 -4.20528 -1.29786 0
M  V30 6534 H 598.059 -0.732991 -0.0767686 0
M  V30 6535 H 600.701 -1.83335 0.498814 0
M  V30 6536 H 598.851 -3.7235 -1.10852 0
M  V30 6537 H 600.523 -4.39079 1.41447 0
M  V30 6538 H 598.766 -4.10723 1.39604 0
M  V30 6539 H 599.437 -5.49424 0.532662 0
M  V30 6540 H 601.913 -4.08663 -0.783198 0
M  V30 6541 H 600.789 -5.28962 -1.46596 0
M  V30 6542 H 601.05 -3.77051 -2.30836 0
M  V30 6543 N 600.109 -0.101901 -1.5727 0
M  V30 6544 C 601.056 0.854577 -2.14396 0
M  V30 6545 C 602.026 1.27521 -1.06432 0
M  V30 6546 O 603.211 1.35575 -1.34253 0
M  V30 6547 C 600.351 2.10576 -2.73408 0
M  V30 6548 C 599.464 1.73504 -3.95626 0
M  V30 6549 C 598.599 2.9346 -4.42781 0
M  V30 6550 C 597.638 2.52547 -5.57572 0
M  V30 6551 N 596.775 3.65359 -5.99547 0
M  V30 6552 H 601.615 0.360578 -2.9581 0
M  V30 6553 H 599.152 0.166303 -1.46157 0
M  V30 6554 H 601.11 2.83859 -3.05745 0
M  V30 6555 H 599.74 2.57463 -1.94711 0
M  V30 6556 H 598.792 0.901622 -3.6956 0
M  V30 6557 H 600.104 1.39426 -4.78917 0
M  V30 6558 H 599.258 3.74988 -4.76937 0
M  V30 6559 H 597.997 3.30753 -3.58404 0
M  V30 6560 H 597.002 1.69446 -5.23037 0
M  V30 6561 H 598.227 2.1639 -6.43702 0
M  V30 6562 H 596.173 4.02358 -5.18116 0
M  V30 6563 H 596.09 3.35148 -6.77652 0
M  V30 6564 H 597.358 4.47378 -6.38336 0
M  V30 6565 N 601.587 1.56661 0.17182 0
M  V30 6566 C 602.812 1.86459 0.908165 0
M  V30 6567 C 603.237 0.688181 1.75059 0
M  V30 6568 O 602.595 -0.362753 1.77634 0
M  V30 6569 C 602.643 3.14669 1.76112 0
M  V30 6570 O 601.747 2.96858 2.86268 0
M  V30 6571 H 601.088 0.613318 0.254434 0
M  V30 6572 H 603.618 2.03892 0.170113 0
M  V30 6573 H 603.628 3.46061 2.16115 0
M  V30 6574 H 602.303 3.99905 1.14233 0
M  V30 6575 H 600.88 2.76819 2.49852 0
M  V30 6576 N 603.065 -0.440357 1.51323 0
M  V30 6577 C 604.305 -1.19956 1.65499 0
M  V30 6578 C 604.669 -1.88559 0.361878 0
M  V30 6579 O 605.87 -2.66109 0.379383 0
M  V30 6580 C 604.141 -2.1918 2.82303 0
M  V30 6581 S 605.7 -3.03627 3.1679 0
M  V30 6582 H 602.518 -0.406833 0.583102 0
M  V30 6583 H 605.12 -0.491596 1.89218 0
M  V30 6584 H 603.824 -1.67414 3.74701 0
M  V30 6585 H 603.355 -2.94561 2.60763 0
M  V30 6586 H 605.37 -4.20773 2.62991 0
M  V30 6587 N 604.543 -1.41418 -0.695603 0
M  V30 6588 C 605.49 -1.43264 -1.80954 0
M  V30 6589 C 606.46 -0.287016 -1.63601 0
M  V30 6590 O 607.645 -0.488054 -1.84452 0
M  V30 6591 C 604.785 -1.32054 -3.18835 0
M  V30 6592 C 603.898 -2.56485 -3.4762 0
M  V30 6593 C 603.033 -2.3757 -4.75115 0
M  V30 6594 C 602.072 -3.57477 -4.96867 0
M  V30 6595 N 601.209 -3.37632 -6.15588 0
M  V30 6596 H 606.049 -2.38467 -1.78711 0
M  V30 6597 H 603.586 -1.18415 -0.872715 0
M  V30 6598 H 605.544 -1.23558 -3.98484 0
M  V30 6599 H 604.174 -0.404592 -3.20254 0
M  V30 6600 H 603.226 -2.75432 -2.62376 0
M  V30 6601 H 604.538 -3.45678 -3.59594 0
M  V30 6602 H 603.692 -2.2654 -5.62818 0
M  V30 6603 H 602.431 -1.45834 -4.65386 0
M  V30 6604 H 601.436 -3.68961 -4.07612 0
M  V30 6605 H 602.661 -4.50167 -5.08455 0
M  V30 6606 H 600.607 -2.48596 -6.07072 0
M  V30 6607 H 600.524 -4.20401 -6.2833 0
M  V30 6608 H 601.792 -3.30375 -7.06026 0
M  V30 6609 N 606.021 0.929856 -1.27246 0
M  V30 6610 C 607.261 1.6919 -1.14691 0
M  V30 6611 C 607.625 1.896 0.302621 0
M  V30 6612 O 608.826 2.63102 0.550543 0
M  V30 6613 C 607.097 3.02291 -1.9067 0
M  V30 6614 S 608.656 3.93436 -1.94303 0
M  V30 6615 H 605.474 0.581248 -0.409477 0
M  V30 6616 H 608.076 1.10722 -1.61124 0
M  V30 6617 H 606.78 2.85125 -2.95181 0
M  V30 6618 H 606.311 3.65813 -1.44723 0
M  V30 6619 H 608.326 4.85224 -1.0379 0
M  V30 6620 N 607.499 1.09233 1.13605 0
M  V30 6621 C 608.724 0.849067 1.89224 0
M  V30 6622 C 609.149 -0.593875 1.78479 0
M  V30 6623 O 608.507 -1.41703 1.13092 0
M  V30 6624 C 608.555 1.28642 3.36873 0
M  V30 6625 O 607.659 0.44363 4.10007 0
M  V30 6626 H 607 0.30767 0.588417 0
M  V30 6627 H 609.53 1.45595 1.43748 0
M  V30 6628 H 609.54 1.27096 3.87699 0
M  V30 6629 H 608.215 2.33729 3.44011 0
M  V30 6630 H 606.792 0.523241 3.69211 0
M  V30 6631 O 609.016 -1.25824 1.01246 0
M  V30 6632 H 609.707 -1.81718 0.670699 0
M  V30 END ATOM
M  V30 BEGIN BOND
M  V30 END BOND
M  V30 END CTAB
M  END
$$$$
