drugbank_target|O94903 Proline synthase co-transcribed bacterial homolog protein (DB00114; DB00172)
 OpenBabel12092120063D

  0  0  0     0  0            999 V3000
M  V30 BEGIN CTAB
M  V30 COUNTS 4278 4319 0 0 0
M  V30 BEGIN ATOM
M  V30 1 H -0.908 1.98254 -0.117106 0
M  V30 2 N 0 1.576 0 0
M  V30 3 C 0.933 2.03868 1.02534 0
M  V30 4 C 1.911 0.928543 1.3348 0
M  V30 5 O 3.095 1.19667 1.45644 0
M  V30 6 C 0.222 2.43627 2.35294 0
M  V30 7 C -0.732 3.65373 2.2001 0
M  V30 8 S 0.101 5.13292 1.52614 0
M  V30 9 C 1.257 5.56322 2.86805 0
M  V30 10 H 1.49 2.90518 0.631377 0
M  V30 11 H -0.977 1.52953 0.210867 0
M  V30 12 H 0.981 2.67203 3.11629 0
M  V30 13 H -0.358 1.57376 2.7183 0
M  V30 14 H -1.165 3.90944 3.18086 0
M  V30 15 H -1.563 3.418 1.51819 0
M  V30 16 H 0.729 5.58782 3.83104 0
M  V30 17 H 1.672 6.56266 2.65933 0
M  V30 18 H 2.08 4.83886 2.90714 0
M  V30 19 N 1.4781 -0.272755 1.55222 0
M  V30 20 C 2.7241 -1.00172 1.77023 0
M  V30 21 C 3.0791 -1.83928 0.564633 0
M  V30 22 O 2.3721 -1.86416 -0.442674 0
M  V30 23 C 2.5661 -1.91642 3.01675 0
M  V30 24 C 2.3951 -1.16888 4.34243 0
M  V30 25 C 1.1651 -0.884464 4.97499 0
M  V30 26 C 3.3631 -0.55919 5.11251 0
M  V30 27 N 1.3451 -0.11015 6.13801 0
M  V30 28 C 2.7161 0.0809469 6.19947 0
M  V30 29 C 4.7711 -0.467058 4.95705 0
M  V30 30 C 3.4741 0.804335 7.14789 0
M  V30 31 C 5.5001 0.242739 5.90902 0
M  V30 32 C 4.8621 0.871613 6.98987 0
M  V30 33 H 0.9611 -0.348529 0.700037 0
M  V30 34 H 3.5451 -0.277365 1.92714 0
M  V30 35 H 1.7161 -2.61303 2.87359 0
M  V30 36 H 3.4481 -2.57901 3.1188 0
M  V30 37 H 0.2031 -1.18979 4.58411 0
M  V30 38 H 0.6271 0.264344 6.76484 0
M  V30 39 H 5.2691 -0.93894 4.12242 0
M  V30 40 H 2.9871 1.2879 7.97771 0
M  V30 41 H 6.5731 0.314347 5.8095 0
M  V30 42 H 5.4531 1.4121 7.71381 0
M  V30 43 N 2.9562 -1.48159 -0.537278 0
M  V30 44 C 4.3722 -1.34118 -0.865129 0
M  V30 45 C 4.5722 -0.346678 -1.98495 0
M  V30 46 O 3.6282 0.234715 -2.51407 0
M  V30 47 C 4.9412 -2.73963 -1.23954 0
M  V30 48 C 6.4892 -2.82397 -1.34984 0
M  V30 49 C 6.9642 -4.22928 -1.75772 0
M  V30 50 N 8.4552 -4.25566 -1.82887 0
M  V30 51 C 9.1902 -5.31235 -2.15817 0
M  V30 52 N 8.6862 -6.47189 -2.47222 0
M  V30 53 N 10.4792 -5.18624 -2.16761 0
M  V30 54 H 2.6302 -2.1144 0.201715 0
M  V30 55 H 4.8932 -0.947598 0.0275949 0
M  V30 56 H 4.5992 -3.48264 -0.490381 0
M  V30 57 H 4.4732 -3.0702 -2.19132 0
M  V30 58 H 6.8602 -2.08356 -2.08978 0
M  V30 59 H 6.9412 -2.5297 -0.379448 0
M  V30 60 H 6.5852 -4.97482 -1.02341 0
M  V30 61 H 6.5152 -4.49794 -2.73848 0
M  V30 62 H 9.0062 -3.41924 -1.60924 0
M  V30 63 H 9.3192 -7.23564 -2.71433 0
M  V30 64 H 7.6642 -6.50476 -2.44757 0
M  V30 65 H 10.8552 -4.27056 -1.91679 0
M  V30 66 H 11.0282 -6.01078 -2.42093 0
M  V30 67 N 4.4343 0.785586 -1.36625 0
M  V30 68 C 5.3973 1.87999 -1.31107 0
M  V30 69 C 6.3973 1.59316 -0.217959 0
M  V30 70 O 7.5873 1.67656 -0.472977 0
M  V30 71 C 4.7193 3.24861 -1.03334 0
M  V30 72 H 5.9123 1.94307 -2.2844 0
M  V30 73 H 3.4653 0.983813 -1.21453 0
M  V30 74 H 4.2003 3.24235 -0.0647432 0
M  V30 75 H 3.9853 3.4707 -1.82441 0
M  V30 76 H 5.4753 4.04929 -1.02088 0
M  V30 77 N 5.9124 1.20967 1.01018 0
M  V30 78 C 7.1604 1.02172 1.74371 0
M  V30 79 C 7.4814 -0.446414 1.89821 0
M  V30 80 O 6.7514 -1.32234 1.44537 0
M  V30 81 H 5.3314 0.375066 0.646014 0
M  V30 82 H 7.9934 1.52187 1.21758 0
M  V30 83 H 7.0894 1.48538 2.74487 0
M  V30 84 N 7.3905 -1.2043 1.01659 0
M  V30 85 C 8.6155 -1.94318 0.724942 0
M  V30 86 C 9.0405 -1.74266 -0.708034 0
M  V30 87 O 8.3985 -1.03694 -1.48719 0
M  V30 88 C 8.4465 -3.44486 1.06591 0
M  V30 89 O 7.5505 -4.12017 0.177599 0
M  V30 90 H 6.8915 -0.60708 0.26898 0
M  V30 91 H 9.4215 -1.52861 1.35995 0
M  V30 92 H 9.4315 -3.95106 1.01762 0
M  V30 93 H 8.1065 -3.58404 2.10997 0
M  V30 94 H 6.6835 -3.71821 0.283421 0
M  V30 95 N 8.8686 -0.792821 -1.36206 0
M  V30 96 C 9.8016 -0.139422 -2.27774 0
M  V30 97 C 10.7796 0.68649 -1.47398 0
M  V30 98 O 11.9636 0.656738 -1.7669 0
M  V30 99 C 9.0906 0.807947 -3.28922 0
M  V30 100 C 8.1366 0.0633999 -4.26453 0
M  V30 101 S 8.9696 -1.26319 -5.20388 0
M  V30 102 C 10.1256 -0.31991 -6.25082 0
M  V30 103 H 10.3586 -0.915809 -2.82843 0
M  V30 104 H 7.8916 -0.587203 -1.42798 0
M  V30 105 H 9.8496 1.34908 -3.87699 0
M  V30 106 H 8.5106 1.55761 -2.72759 0
M  V30 107 H 7.7036 0.782386 -4.9789 0
M  V30 108 H 7.3056 -0.407352 -3.71775 0
M  V30 109 H 9.5976 0.499985 -6.75653 0
M  V30 110 H 10.5406 -1.00307 -7.00959 0
M  V30 111 H 10.9486 0.0782694 -5.64446 0
M  V30 112 N 10.3467 1.47872 -0.545128 0
M  V30 113 C 11.5717 2.07391 -0.0190611 0
M  V30 114 C 11.9967 1.39688 1.25971 0
M  V30 115 O 11.3547 0.467816 1.7516 0
M  V30 116 C 11.4027 3.60188 0.172335 0
M  V30 117 O 10.5067 3.9339 1.23766 0
M  V30 118 H 9.8477 0.662411 -0.0459059 0
M  V30 119 H 12.3777 1.90066 -0.757365 0
M  V30 120 H 12.3877 4.06129 0.390305 0
M  V30 121 H 11.0627 4.08865 -0.761725 0
M  V30 122 H 9.6397 3.5921 1.00114 0
M  V30 123 N 11.8248 0.280983 1.55075 0
M  V30 124 C 12.7878 -0.590896 2.21452 0
M  V30 125 C 13.7878 -1.07682 1.19421 0
M  V30 126 O 14.9778 -0.97605 1.44288 0
M  V30 127 C 12.1098 -1.81587 2.88511 0
M  V30 128 H 13.3028 -0.0112554 2.99898 0
M  V30 129 H 10.8558 0.0316438 1.56268 0
M  V30 130 H 11.5908 -2.43587 2.14093 0
M  V30 131 H 11.3758 -1.4753 3.63287 0
M  V30 132 H 12.8658 -2.43575 3.39206 0
M  V30 133 N 13.3029 -1.57598 0.00835791 0
M  V30 134 C 14.2129 -2.12385 -0.996487 0
M  V30 135 C 15.2289 -1.07108 -1.37127 0
M  V30 136 O 16.4049 -1.39055 -1.4569 0
M  V30 137 C 13.4699 -2.62314 -2.26699 0
M  V30 138 C 12.5309 -3.82225 -1.95456 0
M  V30 139 C 11.7639 -4.29763 -3.16449 0
M  V30 140 O 11.9869 -3.76584 -4.28416 0
M  V30 141 O 10.9209 -5.21832 -2.99958 0
M  V30 142 H 14.7469 -2.98479 -0.560725 0
M  V30 143 H 12.3319 -1.47903 -0.210987 0
M  V30 144 H 14.2139 -2.94589 -3.01322 0
M  V30 145 H 12.8889 -1.79313 -2.69497 0
M  V30 146 H 11.7959 -3.54909 -1.18282 0
M  V30 147 H 13.1289 -4.66324 -1.57489 0
M  V30 148 N 14.781 0.264519 -1.55364 0
M  V30 149 C 15.711 1.33121 -1.91836 0
M  V30 150 C 16.692 1.51101 -0.781192 0
M  V30 151 O 17.877 1.64003 -1.04003 0
M  V30 152 C 15.007 2.68921 -2.19769 0
M  V30 153 C 13.961 2.65661 -3.35571 0
M  V30 154 C 13.287 4.05093 -3.49004 0
M  V30 155 C 14.587 2.24187 -4.71739 0
M  V30 156 H 16.281 1.02844 -2.81182 0
M  V30 157 H 13.827 0.493286 -1.35287 0
M  V30 158 H 15.78 3.43663 -2.43872 0
M  V30 159 H 14.504 3.00799 -1.27231 0
M  V30 160 H 13.163 1.93377 -3.1145 0
M  V30 161 H 12.811 4.34206 -2.53917 0
M  V30 162 H 12.511 4.03804 -4.26868 0
M  V30 163 H 14.035 4.81561 -3.75408 0
M  V30 164 H 15.449 2.88654 -4.9533 0
M  V30 165 H 13.846 2.34044 -5.52579 0
M  V30 166 H 14.916 1.19327 -4.69988 0
M  V30 167 N 16.2591 1.48442 0.529413 0
M  V30 168 C 17.5071 1.56179 1.28267 0
M  V30 169 C 17.8281 0.237721 1.93546 0
M  V30 170 O 17.0981 -0.740779 1.81354 0
M  V30 171 H 15.6781 0.575367 0.476405 0
M  V30 172 H 18.3401 1.84909 0.61602 0
M  V30 173 H 17.4361 2.34312 2.06165 0
M  V30 174 N 17.7372 -0.778329 1.37039 0
M  V30 175 C 18.9832 -1.53892 1.32079 0
M  V30 176 C 19.3162 -1.9396 -0.0965386 0
M  V30 177 O 18.5912 -1.63568 -1.05242 0
M  V30 178 C 18.8742 -2.80847 2.25382 0
M  V30 179 C 18.7272 -2.47076 3.75864 0
M  V30 180 C 20.0462 -3.82741 2.1725 0
M  V30 181 H 17.1652 -0.558303 0.48111 0
M  V30 182 H 19.8072 -0.893397 1.67685 0
M  V30 183 H 17.9572 -3.35931 1.95148 0
M  V30 184 H 19.6292 -1.97957 4.16666 0
M  V30 185 H 17.8722 -1.79863 3.94755 0
M  V30 186 H 18.5432 -3.37798 4.36574 0
M  V30 187 H 21.0192 -3.37133 2.43887 0
M  V30 188 H 19.8952 -4.69303 2.84686 0
M  V30 189 H 20.1562 -4.2652 1.16331 0
M  V30 190 N 19.2153 -1.21501 -1.00376 0
M  V30 191 C 20.4633 -1.03095 -1.73827 0
M  V30 192 C 20.7843 0.436341 -1.90055 0
M  V30 193 O 20.0543 1.31466 -1.45236 0
M  V30 194 H 18.6343 -0.378487 -0.644016 0
M  V30 195 H 21.2963 -1.52831 -1.20949 0
M  V30 196 H 20.3923 -1.49991 -2.73695 0
M  V30 197 N 20.6934 1.19889 -1.02296 0
M  V30 198 C 21.9334 1.91125 -0.724602 0
M  V30 199 C 22.2974 1.77464 0.732835 0
M  V30 200 O 23.4984 2.43241 1.144 0
M  V30 201 C 21.7694 3.38187 -1.15604 0
M  V30 202 S 23.3284 4.27702 -0.980621 0
M  V30 203 H 20.1464 0.66018 -0.263976 0
M  V30 204 H 22.7484 1.44978 -1.31155 0
M  V30 205 H 21.4524 3.45653 -2.21251 0
M  V30 206 H 20.9834 3.89363 -0.562131 0
M  V30 207 H 22.9984 4.96073 0.112225 0
M  V30 208 N 22.1715 0.800033 1.35784 0
M  V30 209 C 23.1345 0.211565 2.28221 0
M  V30 210 C 24.1345 -0.59728 1.49296 0
M  V30 211 O 25.3245 -0.416721 1.69142 0
M  V30 212 C 22.4565 -0.705846 3.33513 0
M  V30 213 H 23.6495 1.02677 2.81776 0
M  V30 214 H 21.2025 0.570211 1.45528 0
M  V30 215 H 21.9375 -1.54498 2.85133 0
M  V30 216 H 21.7225 -0.127655 3.91892 0
M  V30 217 H 23.2125 -1.11211 4.02519 0
M  V30 218 N 23.6496 -1.47581 0.552962 0
M  V30 219 C 24.5796 -2.32762 -0.185451 0
M  V30 220 C 25.5606 -1.43527 -0.912905 0
M  V30 221 O 26.7456 -1.72388 -0.894201 0
M  V30 222 C 23.8756 -3.25219 -1.21859 0
M  V30 223 C 22.8296 -4.23661 -0.607864 0
M  V30 224 C 22.1556 -5.05413 -1.74533 0
M  V30 225 C 23.4556 -5.20481 0.435582 0
M  V30 226 H 25.1496 -2.94749 0.525684 0
M  V30 227 H 22.6956 -1.41738 0.254251 0
M  V30 228 H 24.6486 -3.8365 -1.7433 0
M  V30 229 H 23.3726 -2.61279 -1.95961 0
M  V30 230 H 22.0316 -3.66451 -0.104489 0
M  V30 231 H 21.6796 -4.3788 -2.47529 0
M  V30 232 H 21.3796 -5.72059 -1.34249 0
M  V30 233 H 22.9036 -5.66701 -2.27338 0
M  V30 234 H 24.3176 -5.733 -0.00290157 0
M  V30 235 H 22.7146 -5.95305 0.757067 0
M  V30 236 H 23.7846 -4.66217 1.33303 0
M  V30 237 N 25.1277 -0.289203 -1.54924 0
M  V30 238 C 26.5437 0.0645403 -1.59469 0
M  V30 239 C 26.7437 1.53419 -1.30632 0
M  V30 240 O 25.7997 2.2852 -1.074 0
M  V30 241 C 27.1127 -0.32278 -2.98963 0
M  V30 242 C 28.6607 -0.270564 -3.11828 0
M  V30 243 C 29.1357 -0.632532 -4.53611 0
M  V30 244 N 30.6267 -0.584617 -4.59496 0
M  V30 245 C 31.3617 -0.837314 -5.67254 0
M  V30 246 N 30.8577 -1.15536 -6.83098 0
M  V30 247 N 32.6507 -0.765166 -5.56868 0
M  V30 248 H 24.8017 -1.24714 -1.71931 0
M  V30 249 H 27.0647 -0.504809 -0.802416 0
M  V30 250 H 26.7707 -1.34541 -3.24948 0
M  V30 251 H 26.6447 0.32944 -3.75759 0
M  V30 252 H 29.0317 0.742805 -2.85598 0
M  V30 253 H 29.1127 -0.957242 -2.37214 0
M  V30 254 H 28.7567 -1.64365 -4.80569 0
M  V30 255 H 28.6867 0.07609 -5.26545 0
M  V30 256 H 31.1777 -0.349248 -3.76283 0
M  V30 257 H 31.4907 -1.33447 -7.61191 0
M  V30 258 H 29.8357 -1.19328 -6.84679 0
M  V30 259 H 33.0267 -0.516432 -4.65243 0
M  V30 260 H 33.1997 -0.965477 -6.40767 0
M  V30 261 N 26.6058 1.57591 -0.0167156 0
M  V30 262 C 27.5688 2.08393 0.954204 0
M  V30 263 C 28.5688 0.996531 1.26198 0
M  V30 264 O 29.7588 1.25858 1.20438 0
M  V30 265 C 26.8908 2.5394 2.27436 0
M  V30 266 H 28.0838 2.95455 0.514451 0
M  V30 267 H 25.6368 1.54582 0.231089 0
M  V30 268 H 26.3718 1.70171 2.76066 0
M  V30 269 H 26.1568 3.33371 2.06412 0
M  V30 270 H 27.6468 2.93512 2.97053 0
M  V30 271 N 28.0839 -0.256276 1.55502 0
M  V30 272 C 29.3299 -0.987079 1.77157 0
M  V30 273 C 29.6629 -1.85327 0.580315 0
M  V30 274 O 28.9379 -1.89874 -0.421686 0
M  V30 275 C 29.2209 -1.85553 3.08613 0
M  V30 276 C 29.0739 -1.01816 4.38125 0
M  V30 277 C 30.3929 -2.8397 3.36228 0
M  V30 278 H 27.5119 -0.357428 0.644526 0
M  V30 279 H 30.1539 -0.258239 1.88237 0
M  V30 280 H 28.3039 -2.47695 2.99298 0
M  V30 281 H 29.9759 -0.416159 4.59419 0
M  V30 282 H 28.2189 -0.322178 4.32602 0
M  V30 283 H 28.8899 -1.65939 5.26468 0
M  V30 284 H 31.3659 -2.31964 3.45445 0
M  V30 285 H 30.2419 -3.41864 4.29442 0
M  V30 286 H 30.5029 -3.59955 2.56681 0
M  V30 287 N 29.562 -1.4872 -0.521534 0
M  V30 288 C 30.51 -1.64328 -1.64618 0
M  V30 289 C 31.504 -0.50953 -1.61555 0
M  V30 290 O 32.71 -0.688525 -1.66311 0
M  V30 291 H 29.085 -0.517805 -0.545328 0
M  V30 292 H 31.056 -2.58767 -1.48601 0
M  V30 293 C 29.805 -1.70805 -3.02855 0
M  V30 294 H 29.128 -2.5741 -3.05909 0
M  V30 295 H 30.568 -1.85766 -3.81139 0
M  V30 296 C 29.027 -0.448479 -3.33902 0
M  V30 297 O 29.557 0.434928 -3.99339 0
M  V30 298 N 27.763 -0.317616 -2.88859 0
M  V30 299 H 27.31 -1.03748 -2.35784 0
M  V30 300 H 27.268 0.524113 -3.10001 0
M  V30 301 N 31.0401 0.771051 -1.3745 0
M  V30 302 C 31.9501 1.91538 -1.35464 0
M  V30 303 C 32.9661 1.72134 -0.254123 0
M  V30 304 O 34.1421 1.95358 -0.489626 0
M  V30 305 C 31.2071 3.26671 -1.16134 0
M  V30 306 C 30.2681 3.58723 -2.35831 0
M  V30 307 C 29.5011 4.87409 -2.17413 0
M  V30 308 O 29.7241 5.58506 -1.15876 0
M  V30 309 O 28.6581 5.18539 -3.05615 0
M  V30 310 H 32.4841 1.96165 -2.31847 0
M  V30 311 H 30.0691 0.9139 -1.18187 0
M  V30 312 H 31.9511 4.07499 -1.07345 0
M  V30 313 H 30.6261 3.22894 -0.228251 0
M  V30 314 H 29.5331 2.78127 -2.50192 0
M  V30 315 H 30.8661 3.67243 -3.27709 0
M  V30 316 N 32.5182 1.22032 0.997298 0
M  V30 317 C 33.9342 0.979326 1.26021 0
M  V30 318 C 34.1342 -0.32972 1.98784 0
M  V30 319 O 33.1902 -1.05345 2.29475 0
M  V30 320 C 34.5032 2.17509 2.07631 0
M  V30 321 C 36.0512 2.21817 2.2083 0
M  V30 322 C 36.5262 3.40933 3.05825 0
M  V30 323 N 38.0172 3.41067 3.13412 0
M  V30 324 C 38.7522 4.29885 3.79455 0
M  V30 325 N 38.2482 5.28914 4.47462 0
M  V30 326 N 40.0412 4.17673 3.76173 0
M  V30 327 H 32.1922 2.06202 0.509352 0
M  V30 328 H 34.4552 0.90334 0.287541 0
M  V30 329 H 34.1612 3.12415 1.61524 0
M  V30 330 H 34.0352 2.17206 3.08385 0
M  V30 331 H 36.4222 1.27462 2.66153 0
M  V30 332 H 36.5032 2.2616 1.1952 0
M  V30 333 H 36.1472 4.35586 2.61203 0
M  V30 334 H 36.0772 3.33829 4.07266 0
M  V30 335 H 38.5682 2.69406 2.65007 0
M  V30 336 H 38.8812 5.92973 4.95583 0
M  V30 337 H 37.2262 5.32831 4.46224 0
M  V30 338 H 40.4172 3.39564 3.22202 0
M  V30 339 H 40.5902 4.87098 4.27363 0
M  V30 340 N 33.9963 -1.19345 1.0293 0
M  V30 341 C 35.2423 -1.89318 0.727083 0
M  V30 342 C 35.5753 -1.79446 -0.742483 0
M  V30 343 O 34.8503 -1.1871 -1.54072 0
M  V30 344 C 35.1333 -3.40238 1.17942 0
M  V30 345 C 34.9863 -3.58979 2.71024 0
M  V30 346 C 36.3053 -4.33479 0.760548 0
M  V30 347 H 33.4243 -0.687475 0.265606 0
M  V30 348 H 36.0663 -1.40477 1.2793 0
M  V30 349 H 34.2163 -3.81964 0.709608 0
M  V30 350 H 35.8883 -3.26421 3.25955 0
M  V30 351 H 34.1313 -3.02018 3.11396 0
M  V30 352 H 34.8023 -4.64823 2.9773 0
M  V30 353 H 37.2783 -3.99469 1.16464 0
M  V30 354 H 36.1543 -5.37664 1.10493 0
M  V30 355 H 36.4153 -4.40813 -0.337063 0
M  V30 356 N 35.4744 -0.807222 -1.35358 0
M  V30 357 C 36.4064 -0.175717 -2.28525 0
M  V30 358 C 37.4194 0.625354 -1.5031 0
M  V30 359 O 38.6084 0.457611 -1.72535 0
M  V30 360 C 35.7084 0.773471 -3.29956 0
M  V30 361 C 34.8814 0.0186296 -4.37396 0
M  V30 362 C 33.9404 0.886395 -5.18681 0
M  V30 363 O 32.9664 0.337106 -5.68201 0
M  V30 364 N 34.1684 2.20839 -5.36852 0
M  V30 365 H 36.9334 -0.976091 -2.83359 0
M  V30 366 H 34.4944 -0.662737 -1.47714 0
M  V30 367 H 36.4864 1.35824 -3.81227 0
M  V30 368 H 35.0564 1.47465 -2.75632 0
M  V30 369 H 34.2764 -0.747349 -3.87051 0
M  V30 370 H 35.5644 -0.501577 -5.06322 0
M  V30 371 H 34.9624 2.67858 -4.98265 0
M  V30 372 H 33.5194 2.74237 -5.91301 0
M  V30 373 N 36.9525 1.47285 -0.560781 0
M  V30 374 C 37.8845 2.28118 0.222438 0
M  V30 375 C 38.8975 1.37219 0.876056 0
M  V30 376 O 40.0865 1.62011 0.749307 0
M  V30 377 C 37.1865 3.1159 1.33285 0
M  V30 378 C 36.3595 4.30473 0.77534 0
M  V30 379 C 35.4185 4.95513 1.77069 0
M  V30 380 O 34.4445 5.53792 1.31539 0
M  V30 381 N 35.6465 4.90531 3.10418 0
M  V30 382 H 38.4115 2.95976 -0.470958 0
M  V30 383 H 35.9725 1.56955 -0.39709 0
M  V30 384 H 37.9645 3.51967 1.99752 0
M  V30 385 H 36.5345 2.45951 1.92943 0
M  V30 386 H 35.7545 3.94144 -0.0662113 0
M  V30 387 H 37.0425 5.07362 0.382272 0
M  V30 388 H 36.4405 4.44389 3.5005 0
M  V30 389 H 34.9975 5.34917 3.72434 0
M  V30 390 N 38.4306 0.297415 1.54768 0
M  V30 391 C 39.3936 -0.567375 2.22066 0
M  V30 392 C 40.3936 -1.06409 1.20556 0
M  V30 393 O 41.5836 -0.960691 1.45315 0
M  V30 394 C 38.7156 -1.78517 2.90421 0
M  V30 395 H 39.9086 0.0205534 2.99893 0
M  V30 396 H 37.4616 0.0482163 1.56226 0
M  V30 397 H 38.1966 -2.41303 2.16664 0
M  V30 398 H 37.9816 -1.43669 3.64831 0
M  V30 399 H 39.4716 -2.39964 3.41771 0
M  V30 400 N 39.9087 -1.5758 0.0250728 0
M  V30 401 C 41.1547 -1.91917 -0.655413 0
M  V30 402 C 41.4877 -0.901433 -1.72011 0
M  V30 403 O 40.7627 0.0764069 -1.9435 0
M  V30 404 C 41.0457 -3.36751 -1.27558 0
M  V30 405 C 40.8987 -4.49258 -0.220719 0
M  V30 406 C 42.2177 -3.81469 -2.19475 0
M  V30 407 H 39.3367 -0.697925 -0.23679 0
M  V30 408 H 41.9787 -1.89825 0.0815036 0
M  V30 409 H 40.1287 -3.38664 -1.90365 0
M  V30 410 H 41.8007 -4.59478 0.409601 0
M  V30 411 H 40.0437 -4.31415 0.454264 0
M  V30 412 H 40.7147 -5.47618 -0.694175 0
M  V30 413 H 43.1907 -3.81266 -1.66659 0
M  V30 414 H 42.0667 -4.83512 -2.59822 0
M  V30 415 H 42.3277 -3.16744 -3.08424 0
M  V30 416 N 41.3868 0.248026 -1.55636 0
M  V30 417 C 42.3498 1.29044 -1.89421 0
M  V30 418 C 43.3498 1.41134 -0.770581 0
M  V30 419 O 44.5398 1.39854 -1.03858 0
M  V30 420 C 41.6718 2.66831 -2.12165 0
M  V30 421 H 42.8648 1.00305 -2.82629 0
M  V30 422 H 40.4178 0.487265 -1.48511 0
M  V30 423 H 41.1528 3.00711 -1.21422 0
M  V30 424 H 40.9378 2.59438 -2.93997 0
M  V30 425 H 42.4278 3.42103 -2.3949 0
M  V30 426 N 42.8649 1.48995 0.513639 0
M  V30 427 C 44.2809 1.35478 0.843682 0
M  V30 428 C 44.4809 0.378213 1.97919 0
M  V30 429 O 43.5369 -0.194689 2.51748 0
M  V30 430 C 44.8499 2.75901 1.1958 0
M  V30 431 C 46.3979 2.84509 1.30474 0
M  V30 432 C 46.8729 4.25671 1.69021 0
M  V30 433 N 48.3639 4.28422 1.76094 0
M  V30 434 C 49.0989 5.34601 2.07338 0
M  V30 435 N 48.5949 6.5104 2.36894 0
M  V30 436 N 50.3879 5.22007 2.08483 0
M  V30 437 H 42.5389 2.11092 -0.235328 0
M  V30 438 H 44.8019 0.947039 -0.0426669 0
M  V30 439 H 44.5079 3.49001 0.434913 0
M  V30 440 H 44.3819 3.10467 2.1422 0
M  V30 441 H 46.7689 2.11655 2.05637 0
M  V30 442 H 46.8499 2.53542 0.339155 0
M  V30 443 H 46.4939 4.99048 0.944135 0
M  V30 444 H 46.4239 4.54094 2.66658 0
M  V30 445 H 48.9149 3.44441 1.55464 0
M  V30 446 H 49.2279 7.2779 2.59887 0
M  V30 447 H 47.5729 6.54287 2.34378 0
M  V30 448 H 50.7639 4.30051 1.84861 0
M  V30 449 H 50.9369 6.04854 2.325 0
M  V30 450 N 44.343 -0.763751 1.37857 0
M  V30 451 C 45.759 -1.06542 1.18832 0
M  V30 452 C 45.959 -2.01478 0.0299722 0
M  V30 453 O 45.015 -2.4458 -0.627447 0
M  V30 454 C 46.328 -1.65525 2.51042 0
M  V30 455 C 47.876 -1.77745 2.57635 0
M  V30 456 C 48.351 -2.4014 3.89996 0
M  V30 457 N 49.842 -2.47582 3.91481 0
M  V30 458 C 50.577 -2.96732 4.9065 0
M  V30 459 N 50.073 -3.45993 6.00217 0
M  V30 460 N 51.866 -2.95679 4.78048 0
M  V30 461 H 44.017 -0.133556 2.1198 0
M  V30 462 H 46.28 -0.121879 0.940133 0
M  V30 463 H 45.986 -1.03236 3.36207 0
M  V30 464 H 45.86 -2.64719 2.68707 0
M  V30 465 H 48.247 -2.39164 1.72872 0
M  V30 466 H 48.328 -0.772836 2.43846 0
M  V30 467 H 47.972 -1.79358 4.75177 0
M  V30 468 H 47.902 -3.41223 4.01092 0
M  V30 469 H 50.393 -2.1273 3.12337 0
M  V30 470 H 50.706 -3.81922 6.7183 0
M  V30 471 H 49.051 -3.44077 6.03851 0
M  V30 472 H 52.242 -2.56499 3.91568 0
M  V30 473 H 52.415 -3.33672 5.55488 0
M  V30 474 N 45.8211 -1.22559 -0.990812 0
M  V30 475 C 47.2321 -1.04791 -1.54518 0
M  V30 476 C 47.5831 0.387998 -1.92325 0
M  V30 477 O 46.7081 1.27328 -1.74976 0
M  V30 478 C 47.3031 -1.896 -2.80779 0
M  V30 479 C 45.8621 -1.76124 -3.32652 0
M  V30 480 C 45.0091 -1.8594 -2.05722 0
M  V30 481 H 47.9601 -1.36374 -0.811662 0
M  V30 482 H 47.9811 -1.41464 -3.53225 0
M  V30 483 H 47.4931 -2.94101 -2.53231 0
M  V30 484 H 45.5941 -0.743643 -3.65104 0
M  V30 485 H 45.7071 -2.58913 -4.03114 0
M  V30 486 H 44.0711 -1.29403 -2.19379 0
M  V30 487 H 44.8541 -2.91976 -1.80568 0
M  V30 488 N 47.2992 1.18797 -1.03562 0
M  V30 489 C 48.7152 1.40671 -0.753917 0
M  V30 490 C 48.9152 1.9043 0.658686 0
M  V30 491 O 47.9712 2.08538 1.42366 0
M  V30 492 C 49.2842 2.41192 -1.79574 0
M  V30 493 C 50.8322 2.54928 -1.81606 0
M  V30 494 C 51.3072 3.58709 -2.84766 0
M  V30 495 N 52.7982 3.66212 -2.83625 0
M  V30 496 C 53.5332 4.46225 -3.60098 0
M  V30 497 N 53.0292 5.29888 -4.46308 0
M  V30 498 N 54.8222 4.40939 -3.4861 0
M  V30 499 H 46.9732 0.848221 -1.94728 0
M  V30 500 H 49.2362 0.435081 -0.842264 0
M  V30 501 H 48.9422 2.11669 -2.80872 0
M  V30 502 H 48.8162 3.40467 -1.62365 0
M  V30 503 H 51.2032 2.83771 -0.809817 0
M  V30 504 H 51.2842 1.55784 -2.02891 0
M  V30 505 H 50.9282 3.30607 -3.85566 0
M  V30 506 H 50.8582 4.57519 -2.60737 0
M  V30 507 H 53.3492 3.06466 -2.21105 0
M  V30 508 H 53.6622 5.88078 -5.01382 0
M  V30 509 H 52.0072 5.29326 -4.50377 0
M  V30 510 H 55.1982 3.74624 -2.80668 0
M  V30 511 H 55.3712 5.03056 -4.08459 0
M  V30 512 N 48.7773 0.814389 1.34928 0
M  V30 513 C 50.0543 0.321363 1.92942 0
M  V30 514 C 50.4343 -1.19014 1.74353 0
M  V30 515 O 49.7823 -1.99328 1.11716 0
M  V30 516 C 49.9923 0.741323 3.41036 0
M  V30 517 C 51.3403 0.735266 4.18185 0
M  V30 518 O 52.3643 0.68336 3.49584 0
M  V30 519 O 51.2233 0.800703 5.40602 0
M  V30 520 H 48.3173 0.0858893 0.822528 0
M  V30 521 H 50.8633 0.898609 1.43955 0
M  V30 522 H 49.6353 1.78276 3.4833 0
M  V30 523 H 49.2583 0.139307 3.97356 0
M  V30 524 N 50.2554 -1.46986 0.568584 0
M  V30 525 C 51.1854 -2.32946 -0.160753 0
M  V30 526 C 52.1664 -1.44487 -0.897631 0
M  V30 527 O 53.3514 -1.73327 -0.875867 0
M  V30 528 C 50.4814 -3.26494 -1.18403 0
M  V30 529 C 49.4354 -4.24282 -0.562895 0
M  V30 530 C 48.7614 -5.07236 -1.69163 0
M  V30 531 C 50.0614 -5.19989 0.490761 0
M  V30 532 H 51.7554 -2.94175 0.556916 0
M  V30 533 H 49.3014 -1.4146 0.26927 0
M  V30 534 H 51.2544 -3.85477 -1.70251 0
M  V30 535 H 49.9784 -2.63343 -1.93179 0
M  V30 536 H 48.6374 -3.66541 -0.0656164 0
M  V30 537 H 48.2854 -4.4048 -2.42871 0
M  V30 538 H 47.9854 -5.7345 -1.28174 0
M  V30 539 H 49.5094 -5.6908 -2.21314 0
M  V30 540 H 50.9234 -5.73271 0.0579047 0
M  V30 541 H 49.3204 -5.94469 0.820165 0
M  V30 542 H 50.3904 -4.64777 1.3824 0
M  V30 543 N 51.7335 -0.305618 -1.54608 0
M  V30 544 C 53.1445 0.186098 -1.8577 0
M  V30 545 C 53.4955 1.53058 -1.22751 0
M  V30 546 O 52.6205 2.09888 -0.526893 0
M  V30 547 C 53.2155 0.344449 -3.37044 0
M  V30 548 C 51.7745 0.780384 -3.68221 0
M  V30 549 C 50.9215 -0.108554 -2.77087 0
M  V30 550 H 53.8725 -0.526485 -1.49712 0
M  V30 551 H 53.8935 1.17828 -3.61796 0
M  V30 552 H 53.4055 -0.634235 -3.82883 0
M  V30 553 H 51.5065 1.76945 -3.27904 0
M  V30 554 H 51.6195 0.596572 -4.75371 0
M  V30 555 H 49.9835 0.412931 -2.5133 0
M  V30 556 H 50.7665 -1.08368 -3.25747 0
M  V30 557 N 53.2116 1.57565 -0.0334293 0
M  V30 558 C 54.1746 2.09393 0.932048 0
M  V30 559 C 55.1746 1.00986 1.25134 0
M  V30 560 O 56.3646 1.27129 1.19096 0
M  V30 561 C 53.4966 2.56338 2.2473 0
M  V30 562 H 54.6896 2.95984 0.483085 0
M  V30 563 H 52.2426 1.54819 0.21468 0
M  V30 564 H 52.9776 1.7309 2.74245 0
M  V30 565 H 52.7626 3.35542 2.02865 0
M  V30 566 H 54.2526 2.96646 2.93923 0
M  V30 567 N 54.6897 -0.239769 1.55765 0
M  V30 568 C 55.9387 -0.964754 1.77131 0
M  V30 569 C 56.2517 -1.86213 0.59868 0
M  V30 570 O 57.4577 -2.6244 0.695522 0
M  V30 571 C 55.9137 -1.76552 3.1362 0
M  V30 572 C 55.5217 -0.915185 4.38553 0
M  V30 573 C 57.2657 -2.48281 3.44321 0
M  V30 574 C 55.1727 -1.71225 5.66071 0
M  V30 575 H 54.1027 -0.363953 0.660344 0
M  V30 576 H 56.7537 -0.219181 1.82186 0
M  V30 577 H 55.1357 -2.55331 3.02691 0
M  V30 578 H 56.3097 -0.169217 4.60489 0
M  V30 579 H 54.6247 -0.310889 4.15238 0
M  V30 580 H 57.2217 -3.08382 4.36812 0
M  V30 581 H 57.5647 -3.20256 2.65973 0
M  V30 582 H 58.0977 -1.76507 3.56497 0
M  V30 583 H 54.8367 -1.03612 6.4726 0
M  V30 584 H 54.3567 -2.43331 5.48224 0
M  V30 585 H 56.0357 -2.27758 6.05587 0
M  V30 586 N 56.1678 -1.49265 -0.50573 0
M  V30 587 C 57.0998 -1.617 -1.62437 0
M  V30 588 C 58.1128 -0.499924 -1.54934 0
M  V30 589 O 59.3018 -0.771785 -1.60953 0
M  V30 590 C 56.4018 -1.5533 -3.01207 0
M  V30 591 C 55.5748 -2.8249 -3.33943 0
M  V30 592 C 54.6338 -2.69238 -4.52103 0
M  V30 593 O 53.6598 -3.43167 -4.5412 0
M  V30 594 N 54.8618 -1.80468 -5.51735 0
M  V30 595 H 57.6268 -2.58177 -1.52199 0
M  V30 596 H 55.1878 -1.46294 -0.693511 0
M  V30 597 H 57.1798 -1.44125 -3.78167 0
M  V30 598 H 55.7498 -0.667297 -3.05395 0
M  V30 599 H 54.9698 -3.08081 -2.45926 0
M  V30 600 H 56.2578 -3.66802 -3.5261 0
M  V30 601 H 55.6558 -1.19653 -5.52901 0
M  V30 602 H 54.2128 -1.75188 -6.27816 0
M  V30 603 N 57.6459 0.756429 -1.3826 0
M  V30 604 C 59.0569 1.33359 -1.30661 0
M  V30 605 C 59.4079 1.96161 0.0388875 0
M  V30 606 O 58.5329 1.94874 0.940918 0
M  V30 607 C 59.1279 2.42477 -2.36622 0
M  V30 608 C 57.6869 2.95922 -2.3261 0
M  V30 609 C 56.8339 1.69275 -2.19639 0
M  V30 610 H 59.7849 0.55552 -1.4866 0
M  V30 611 H 59.8059 3.22345 -2.02174 0
M  V30 612 H 59.3179 1.96739 -3.34538 0
M  V30 613 H 57.4189 3.45996 -1.38267 0
M  V30 614 H 57.5319 3.50494 -3.26636 0
M  V30 615 H 55.8959 1.92793 -1.66442 0
M  V30 616 H 56.6789 1.25619 -3.19491 0
M  V30 617 N 59.124 1.23083 0.984299 0
M  V30 618 C 60.54 0.992637 1.24975 0
M  V30 619 C 60.74 -0.308618 1.99123 0
M  V30 620 O 59.796 -1.02905 2.30579 0
M  V30 621 C 61.109 2.19698 2.05312 0
M  V30 622 C 62.657 2.24147 2.18465 0
M  V30 623 C 63.132 3.44157 3.02192 0
M  V30 624 N 64.623 3.44372 3.09777 0
M  V30 625 C 65.358 4.33886 3.74874 0
M  V30 626 N 64.854 5.3363 4.41827 0
M  V30 627 N 66.647 4.21639 3.71721 0
M  V30 628 H 58.798 2.06731 0.487453 0
M  V30 629 H 61.061 0.906339 0.277944 0
M  V30 630 H 60.767 3.1411 1.58201 0
M  V30 631 H 60.641 2.20465 3.06064 0
M  V30 632 H 63.028 1.30277 2.64786 0
M  V30 633 H 63.109 2.27415 1.17115 0
M  V30 634 H 62.753 4.38332 2.56568 0
M  V30 635 H 62.683 3.3813 4.03702 0
M  V30 636 H 65.174 2.72201 2.62135 0
M  V30 637 H 65.487 5.98196 4.89266 0
M  V30 638 H 63.832 5.37534 4.40548 0
M  V30 639 H 67.023 3.42962 3.18582 0
M  V30 640 H 67.196 4.91604 4.22173 0
M  V30 641 N 60.6021 -1.18246 1.0419 0
M  V30 642 C 61.5321 -2.24127 0.654914 0
M  V30 643 C 62.5131 -1.66617 -0.342451 0
M  V30 644 O 63.6981 -1.92924 -0.222277 0
M  V30 645 C 60.8281 -3.47295 0.0183757 0
M  V30 646 C 59.7821 -4.17563 0.939414 0
M  V30 647 C 59.1081 -5.34438 0.167286 0
M  V30 648 C 60.4081 -4.70917 2.25908 0
M  V30 649 H 62.1021 -2.56753 1.54007 0
M  V30 650 H 59.6481 -1.23414 0.74195 0
M  V30 651 H 61.6011 -4.20572 -0.264082 0
M  V30 652 H 60.3251 -3.13907 -0.901664 0
M  V30 653 H 58.9841 -3.46186 1.20628 0
M  V30 654 H 58.6321 -4.97298 -0.7552 0
M  V30 655 H 58.3321 -5.82388 0.780901 0
M  V30 656 H 59.8561 -6.10504 -0.108125 0
M  V30 657 H 61.2701 -5.35882 2.03724 0
M  V30 658 H 59.6671 -5.29406 2.82577 0
M  V30 659 H 60.7371 -3.88272 2.9047 0
M  V30 660 N 62.0802 -0.821533 -1.34494 0
M  V30 661 C 63.3262 -0.409552 -1.98622 0
M  V30 662 C 63.6592 1.0244 -1.64984 0
M  V30 663 O 62.9342 1.71325 -0.920758 0
M  V30 664 C 63.2172 -0.610458 -3.54888 0
M  V30 665 C 63.0702 -2.09043 -3.98273 0
M  V30 666 C 64.3892 -0.0455379 -4.40076 0
M  V30 667 H 61.5082 -0.15028 -0.721516 0
M  V30 668 H 64.1502 -1.03384 -1.59411 0
M  V30 669 H 62.3002 -0.079044 -3.8842 0
M  V30 670 H 63.9722 -2.68537 -3.75081 0
M  V30 671 H 62.2152 -2.58139 -3.48635 0
M  V30 672 H 62.8862 -2.18182 -5.07051 0
M  V30 673 H 65.3622 -0.499557 -4.1309 0
M  V30 674 H 64.2382 -0.215922 -5.48475 0
M  V30 675 H 64.4992 1.04939 -4.29465 0
M  V30 676 N 63.5583 1.46682 -0.576371 0
M  V30 677 C 64.5213 2.28707 0.150239 0
M  V30 678 C 65.5213 1.38035 0.824794 0
M  V30 679 O 66.7113 1.60476 0.677719 0
M  V30 680 C 63.8433 3.18248 1.22192 0
M  V30 681 H 65.0363 2.94423 -0.570521 0
M  V30 682 H 62.5893 1.52688 -0.334078 0
M  V30 683 H 63.3243 2.57265 1.97447 0
M  V30 684 H 63.1093 3.85 0.742812 0
M  V30 685 H 64.5993 3.80001 1.73172 0
M  V30 686 N 65.0364 0.313813 1.54444 0
M  V30 687 C 66.2824 -0.292108 2.00685 0
M  V30 688 C 66.6154 -1.52548 1.20177 0
M  V30 689 O 65.8904 -1.92452 0.281531 0
M  V30 690 C 66.1734 -0.635968 3.5444 0
M  V30 691 C 66.0264 0.607437 4.4568 0
M  V30 692 C 67.3454 -1.45747 4.15266 0
M  V30 693 H 64.4644 -0.104697 0.729526 0
M  V30 694 H 67.1064 0.428457 1.85106 0
M  V30 695 H 65.2564 -1.24986 3.67846 0
M  V30 696 H 66.9284 1.24581 4.44159 0
M  V30 697 H 65.1714 1.23822 4.15753 0
M  V30 698 H 65.8424 0.322515 5.51057 0
M  V30 699 H 68.3184 -0.938645 4.05375 0
M  V30 700 H 67.1944 -1.66683 5.2298 0
M  V30 701 H 67.4554 -2.45063 3.67963 0
M  V30 702 N 66.5145 -1.57545 0.0417849 0
M  V30 703 C 67.7395 -1.97035 -0.647455 0
M  V30 704 C 68.1645 -0.918775 -1.64135 0
M  V30 705 O 67.5225 0.119006 -1.80909 0
M  V30 706 C 67.5705 -3.35609 -1.31905 0
M  V30 707 O 66.6745 -3.3287 -2.43457 0
M  V30 708 H 66.0155 -0.64211 -0.169086 0
M  V30 709 H 68.5455 -2.04318 0.107399 0
M  V30 710 H 68.5555 -3.72126 -1.67291 0
M  V30 711 H 67.2305 -4.11685 -0.590586 0
M  V30 712 H 65.8075 -3.08087 -2.10088 0
M  V30 713 N 67.9926 0.231505 -1.5589 0
M  V30 714 C 68.9396 1.28682 -1.91598 0
M  V30 715 C 69.9096 1.47071 -0.771974 0
M  V30 716 O 71.0946 1.60802 -1.027 0
M  V30 717 C 68.2346 2.6342 -2.22944 0
M  V30 718 C 67.3476 2.52912 -3.50228 0
M  V30 719 C 66.4826 3.80106 -3.7107 0
M  V30 720 C 65.5216 3.64279 -4.91902 0
M  V30 721 N 64.6586 4.834 -5.09184 0
M  V30 722 H 69.4986 0.975305 -2.81588 0
M  V30 723 H 67.0356 0.470299 -1.39379 0
M  V30 724 H 68.9936 3.41869 -2.39126 0
M  V30 725 H 67.6236 2.92687 -1.36139 0
M  V30 726 H 66.6756 1.6595 -3.42294 0
M  V30 727 H 67.9876 2.37133 -4.38827 0
M  V30 728 H 67.1416 4.66999 -3.87295 0
M  V30 729 H 65.8806 3.98799 -2.80733 0
M  V30 730 H 64.8856 2.7577 -4.75637 0
M  V30 731 H 66.1106 3.47067 -5.83714 0
M  V30 732 H 64.0566 5.02425 -4.21788 0
M  V30 733 H 63.9736 4.70311 -5.91898 0
M  V30 734 H 65.2416 5.71747 -5.29835 0
M  V30 735 N 69.4707 1.49531 0.497807 0
M  V30 736 C 70.6987 1.62893 1.27567 0
M  V30 737 C 71.1137 0.301585 1.86376 0
M  V30 738 O 70.4707 -0.713335 1.67982 0
M  V30 739 C 70.5217 2.70013 2.40364 0
M  V30 740 O 70.2427 3.976 1.83972 0
M  V30 741 C 71.7437 2.94109 3.31685 0
M  V30 742 H 68.9637 0.548298 0.386794 0
M  V30 743 H 71.5077 1.95584 0.597245 0
M  V30 744 H 69.6627 2.40092 3.04031 0
M  V30 745 H 70.0767 4.56631 2.58047 0
M  V30 746 H 71.5507 3.72788 4.07104 0
M  V30 747 H 72.0277 2.04147 3.88871 0
M  V30 748 H 72.6337 3.2546 2.73781 0
M  V30 749 N 70.9488 -0.749086 1.3866 0
M  V30 750 C 71.8958 -1.86291 1.36251 0
M  V30 751 C 72.8658 -1.64578 0.224347 0
M  V30 752 O 74.0508 -1.86181 0.417279 0
M  V30 753 C 71.1908 -3.23644 1.19786 0
M  V30 754 C 70.3038 -3.57158 2.43027 0
M  V30 755 C 69.4388 -4.83838 2.19258 0
M  V30 756 C 68.4778 -5.10152 3.38247 0
M  V30 757 N 67.6148 -6.28029 3.13884 0
M  V30 758 H 72.4548 -1.87685 2.3147 0
M  V30 759 H 69.9918 -0.917287 1.14997 0
M  V30 760 H 71.9498 -4.0291 1.08254 0
M  V30 761 H 70.5798 -3.21566 0.282031 0
M  V30 762 H 69.6318 -2.72701 2.65214 0
M  V30 763 H 70.9438 -3.7253 3.31697 0
M  V30 764 H 70.0978 -5.71057 2.04888 0
M  V30 765 H 68.8368 -4.70614 1.2796 0
M  V30 766 H 67.8418 -4.21401 3.53131 0
M  V30 767 H 69.0668 -5.25271 4.30427 0
M  V30 768 H 67.0128 -6.1612 2.25238 0
M  V30 769 H 66.9298 -6.43922 3.96106 0
M  V30 770 H 68.1978 -7.18124 3.03179 0
M  V30 771 N 72.4269 -1.23603 -0.977757 0
M  V30 772 C 73.8379 -1.06424 -1.53398 0
M  V30 773 C 74.1889 0.367578 -1.92726 0
M  V30 774 O 73.3139 1.25465 -1.76316 0
M  V30 775 C 73.9089 -1.92568 -2.78753 0
M  V30 776 C 72.4679 -1.79642 -3.30765 0
M  V30 777 C 71.6149 -1.88111 -2.03739 0
M  V30 778 H 74.5659 -1.37227 -0.797152 0
M  V30 779 H 74.5869 -1.45203 -3.51705 0
M  V30 780 H 74.0989 -2.96771 -2.50098 0
M  V30 781 H 72.1999 -0.782325 -3.64294 0
M  V30 782 H 72.3129 -2.63174 -4.00345 0
M  V30 783 H 70.6769 -1.31723 -2.17994 0
M  V30 784 H 71.4599 -2.93875 -1.77461 0
M  V30 785 N 73.905 1.17692 -1.04816 0
M  V30 786 C 74.868 2.19787 -0.650117 0
M  V30 787 C 75.868 1.58044 0.296427 0
M  V30 788 O 77.058 1.74012 0.0808097 0
M  V30 789 C 74.19 3.40869 0.0456987 0
M  V30 790 H 75.383 2.56516 -1.5537 0
M  V30 791 H 72.936 1.31708 -0.841594 0
M  V30 792 H 73.671 3.09681 0.962726 0
M  V30 793 H 73.456 3.86928 -0.634727 0
M  V30 794 H 74.946 4.16445 0.310432 0
M  V30 795 N 75.3831 0.828654 1.34056 0
M  V30 796 C 76.6601 0.341809 1.9259 0
M  V30 797 C 77.0401 -1.17158 1.75605 0
M  V30 798 O 76.3881 -1.98132 1.13824 0
M  V30 799 C 76.5981 0.777453 3.4023 0
M  V30 800 C 77.9461 0.779579 4.17382 0
M  V30 801 O 78.9701 0.7204 3.48839 0
M  V30 802 O 77.8291 0.857996 5.39723 0
M  V30 803 H 74.9231 0.0946085 0.821571 0
M  V30 804 H 77.4691 0.913827 1.42994 0
M  V30 805 H 76.2411 1.8196 3.46419 0
M  V30 806 H 75.8641 0.181444 3.97186 0
M  V30 807 N 76.8612 -1.46375 0.584142 0
M  V30 808 C 77.7942 -2.27351 -0.196676 0
M  V30 809 C 78.7722 -1.35715 -0.895561 0
M  V30 810 O 79.9562 -1.65126 -0.90916 0
M  V30 811 C 77.0832 -3.13486 -1.28235 0
M  V30 812 C 76.1292 -4.20896 -0.689145 0
M  V30 813 S 76.9622 -5.33299 0.48507 0
M  V30 814 C 78.1182 -6.23 -0.601767 0
M  V30 815 H 78.3512 -2.93228 0.490395 0
M  V30 816 H 75.8842 -1.49875 0.371071 0
M  V30 817 H 77.8422 -3.63676 -1.90395 0
M  V30 818 H 76.5032 -2.4692 -1.94138 0
M  V30 819 H 75.6962 -4.80997 -1.50527 0
M  V30 820 H 75.2982 -3.73726 -0.143181 0
M  V30 821 H 77.5902 -6.60979 -1.48705 0
M  V30 822 H 78.5332 -7.0809 -0.0374799 0
M  V30 823 H 78.9412 -5.57173 -0.906557 0
M  V30 824 N 78.3393 -0.321999 -1.54275 0
M  V30 825 C 79.5853 0.281461 -2.00837 0
M  V30 826 C 79.9183 1.51909 -1.20985 0
M  V30 827 O 79.1933 1.923 -0.291733 0
M  V30 828 C 79.4763 0.617162 -3.54772 0
M  V30 829 C 79.3293 -0.631064 -4.45351 0
M  V30 830 C 80.6483 1.43542 -4.16033 0
M  V30 831 H 77.7673 0.100826 -0.730071 0
M  V30 832 H 80.4093 -0.438268 -1.84876 0
M  V30 833 H 78.5593 1.23034 -3.68504 0
M  V30 834 H 80.2313 -1.26934 -4.43492 0
M  V30 835 H 78.4743 -1.26025 -4.15091 0
M  V30 836 H 79.1453 -0.351735 -5.50878 0
M  V30 837 H 81.6213 0.917134 -4.05867 0
M  V30 838 H 80.4973 1.63907 -5.23856 0
M  V30 839 H 80.7583 2.43108 -3.69257 0
M  V30 840 N 79.8174 1.5752 -0.0501392 0
M  V30 841 C 81.0664 1.91827 0.623328 0
M  V30 842 C 81.3794 0.930222 1.72065 0
M  V30 843 O 82.5854 1.1653 2.4522 0
M  V30 844 C 81.0414 3.40692 1.16003 0
M  V30 845 C 80.6494 4.479 0.0948811 0
M  V30 846 C 82.3934 3.84034 1.80881 0
M  V30 847 C 80.3004 5.87879 0.644411 0
M  V30 848 H 79.2304 0.715918 0.236596 0
M  V30 849 H 81.8814 1.83115 -0.118861 0
M  V30 850 H 80.2634 3.44405 1.9545 0
M  V30 851 H 81.4374 4.55775 -0.678675 0
M  V30 852 H 79.7524 4.13892 -0.45637 0
M  V30 853 H 82.3494 4.85984 2.22988 0
M  V30 854 H 82.6924 3.20225 2.6601 0
M  V30 855 H 83.2254 3.82833 1.0809 0
M  V30 856 H 79.9644 6.55282 -0.169229 0
M  V30 857 H 79.4844 5.83567 1.38598 0
M  V30 858 H 81.1634 6.37098 1.12763 0
M  V30 859 N 81.2955 -0.223234 1.56011 0
M  V30 860 C 82.2055 -1.29766 1.95443 0
M  V30 861 C 83.2215 -1.51373 0.858028 0
M  V30 862 O 84.3975 -1.64536 1.16146 0
M  V30 863 C 81.4625 -2.62772 2.26167 0
M  V30 864 C 80.5235 -2.49482 3.49367 0
M  V30 865 C 79.7565 -3.76145 3.78616 0
M  V30 866 O 79.9795 -4.79087 3.09568 0
M  V30 867 O 78.9135 -3.73358 4.72109 0
M  V30 868 H 82.7395 -0.99309 2.87004 0
M  V30 869 H 80.3245 -0.425958 1.43199 0
M  V30 870 H 82.2065 -3.41327 2.47131 0
M  V30 871 H 80.8815 -2.92913 1.37781 0
M  V30 872 H 79.7885 -1.69133 3.33684 0
M  V30 873 H 81.1215 -2.2428 4.38131 0
M  V30 874 N 82.7736 -1.49793 -0.48987 0
M  V30 875 C 83.7366 -1.66752 -1.57246 0
M  V30 876 C 84.7366 -0.538867 -1.51502 0
M  V30 877 O 85.9266 -0.805545 -1.54456 0
M  V30 878 C 83.0586 -1.67528 -2.96896 0
M  V30 879 H 84.2516 -2.63321 -1.43534 0
M  V30 880 H 81.8046 -1.38992 -0.714914 0
M  V30 881 H 82.5396 -0.725837 -3.16073 0
M  V30 882 H 82.3246 -2.49504 -3.02473 0
M  V30 883 H 83.8146 -1.82667 -3.7553 0
M  V30 884 N 84.2517 0.741722 -1.39055 0
M  V30 885 C 85.4817 1.52876 -1.3897 0
M  V30 886 C 85.8897 1.8919 0.0193266 0
M  V30 887 O 85.2327 1.54138 0.999356 0
M  V30 888 C 85.2947 2.84929 -2.19216 0
M  V30 889 C 84.9587 2.71086 -3.67915 0
M  V30 890 C 85.9557 2.40084 -4.61146 0
M  V30 891 C 83.6407 2.88168 -4.11418 0
M  V30 892 C 85.6347 2.26335 -5.95862 0
M  V30 893 C 83.3217 2.74037 -5.46211 0
M  V30 894 C 84.3197 2.43166 -6.38247 0
M  V30 895 O 84.0077 2.29115 -7.70559 0
M  V30 896 H 83.7397 0.479252 -0.476753 0
M  V30 897 H 86.2937 0.924751 -1.83405 0
M  V30 898 H 84.5237 3.47564 -1.69518 0
M  V30 899 H 86.2127 3.46509 -2.11392 0
M  V30 900 H 86.9787 2.26545 -4.28838 0
M  V30 901 H 82.8577 3.11191 -3.40119 0
M  V30 902 H 86.4017 2.0216 -6.67665 0
M  V30 903 H 82.2987 2.87153 -5.78112 0
M  V30 904 H 83.0667 2.44237 -7.81211 0
M  V30 905 N 85.7298 1.2412 0.971189 0
M  V30 906 C 86.9778 1.07668 1.71032 0
M  V30 907 C 87.2988 -0.385797 1.91146 0
M  V30 908 O 86.5688 -1.27569 1.4867 0
M  V30 909 H 85.1488 0.395429 0.633755 0
M  V30 910 H 87.8108 1.55984 1.16855 0
M  V30 911 H 86.9068 1.57195 2.69622 0
M  V30 912 N 87.2079 -1.17134 1.05439 0
M  V30 913 C 88.1579 -2.1919 0.627675 0
M  V30 914 C 89.1419 -1.57328 -0.337147 0
M  V30 915 O 90.3339 -1.76329 -0.153976 0
M  V30 916 C 87.4629 -3.43299 0.00651435 0
M  V30 917 C 86.5489 -4.12255 0.995312 0
M  V30 918 N 86.9399 -4.56997 2.16765 0
M  V30 919 C 85.2379 -4.38316 0.824336 0
M  V30 920 C 85.9389 -5.10239 2.7934 0
M  V30 921 N 84.9149 -5.02595 2.07122 0
M  V30 922 H 88.7169 -2.5149 1.52086 0
M  V30 923 H 86.2309 -1.33491 0.924868 0
M  V30 924 H 88.2279 -4.15693 -0.316965 0
M  V30 925 H 86.8879 -3.1249 -0.882033 0
M  V30 926 H 87.8989 -4.51006 2.54587 0
M  V30 927 H 84.5759 -4.17498 -0.0129526 0
M  V30 928 H 85.9659 -5.54961 3.78772 0
M  V30 929 N 88.686 -0.835752 -1.33615 0
M  V30 930 C 89.934 -0.429109 -1.97492 0
M  V30 931 C 90.255 1.01433 -1.66543 0
M  V30 932 O 89.525 1.70611 -0.962744 0
M  V30 933 H 88.105 -0.155686 -0.730596 0
M  V30 934 H 90.767 -1.06802 -1.63031 0
M  V30 935 H 89.863 -0.55861 -3.0706 0
M  V30 936 N 90.1641 1.46063 -0.591896 0
M  V30 937 C 91.0961 2.28539 0.174001 0
M  V30 938 C 92.1091 1.39047 0.846753 0
M  V30 939 O 93.2981 1.63564 0.714774 0
M  V30 940 C 90.3981 3.14347 1.26645 0
M  V30 941 C 89.5711 4.32021 0.683856 0
M  V30 942 C 88.6301 4.99157 1.66518 0
M  V30 943 O 87.6561 5.56458 1.19763 0
M  V30 944 N 88.8581 4.97005 2.99943 0
M  V30 945 H 91.6231 2.94911 -0.533633 0
M  V30 946 H 89.1841 1.56077 -0.430294 0
M  V30 947 H 91.1761 3.56125 1.92242 0
M  V30 948 H 89.7461 2.49988 1.87682 0
M  V30 949 H 88.9661 3.93915 -0.1498 0
M  V30 950 H 90.2541 5.08059 0.274567 0
M  V30 951 H 89.6521 4.51714 3.40545 0
M  V30 952 H 88.2091 5.42696 3.61004 0
M  V30 953 N 91.6422 0.330177 1.54103 0
M  V30 954 C 93.0582 -0.0222371 1.59585 0
M  V30 955 C 93.2582 -1.49902 1.34654 0
M  V30 956 O 92.3142 -2.25592 1.13421 0
M  V30 957 C 93.6272 0.401932 2.98002 0
M  V30 958 C 95.1752 0.353145 3.11001 0
M  V30 959 C 95.6502 0.752576 4.51775 0
M  V30 960 N 97.1412 0.706239 4.57784 0
M  V30 961 C 97.8762 0.987417 5.64834 0
M  V30 962 N 97.3722 1.33607 6.79795 0
M  V30 963 N 99.1652 0.91254 5.54643 0
M  V30 964 H 91.3162 1.29228 1.68564 0
M  V30 965 H 93.5792 0.525906 0.78875 0
M  V30 966 H 93.2852 1.4311 3.21267 0
M  V30 967 H 93.1592 -0.229699 3.765 0
M  V30 968 H 95.5462 -0.666822 2.87467 0
M  V30 969 H 95.6272 1.0198 2.34593 0
M  V30 970 H 95.2712 1.77049 4.76042 0
M  V30 971 H 95.2012 0.0635409 5.26562 0
M  V30 972 H 97.6922 0.44889 3.75224 0
M  V30 973 H 98.0052 1.53582 7.57385 0
M  V30 974 H 96.3502 1.37439 6.81275 0
M  V30 975 H 99.5412 0.639601 4.6371 0
M  V30 976 H 99.7142 1.13503 6.37982 0
M  V30 977 N 93.1203 -1.57491 0.0584922 0
M  V30 978 C 94.3483 -1.97296 -0.623037 0
M  V30 979 C 94.7633 -0.936338 -1.63946 0
M  V30 980 O 94.1203 0.0785981 -1.82331 0
M  V30 981 C 94.1713 -3.37183 -1.30345 0
M  V30 982 O 93.8923 -4.36872 -0.32773 0
M  V30 983 C 95.3933 -3.91788 -2.07406 0
M  V30 984 H 92.6133 -0.649153 -0.169826 0
M  V30 985 H 95.1573 -2.04106 0.12696 0
M  V30 986 H 93.3123 -3.31502 -2.00463 0
M  V30 987 H 93.7263 -5.18141 -0.814269 0
M  V30 988 H 95.2003 -4.91926 -2.50425 0
M  V30 989 H 95.6773 -3.27609 -2.92521 0
M  V30 990 H 96.2833 -4.00829 -1.42184 0
M  V30 991 N 94.5984 0.214957 -1.56127 0
M  V30 992 C 95.8454 0.938372 -1.79446 0
M  V30 993 C 96.1734 1.8407 -0.628378 0
M  V30 994 O 95.4284 1.91837 0.386925 0
M  V30 995 C 95.7274 1.80314 -3.0858 0
M  V30 996 C 95.3934 1.05349 -4.3842 0
M  V30 997 C 94.0554 0.846435 -4.73697 0
M  V30 998 C 96.4074 0.524588 -5.18553 0
M  V30 999 C 93.7354 0.098683 -5.86617 0
M  V30 1000 C 96.0874 -0.209853 -6.32252 0
M  V30 1001 C 94.7514 -0.428102 -6.66126 0
M  V30 1002 H 94.0214 0.343375 -0.656639 0
M  V30 1003 H 96.6684 0.206077 -1.90388 0
M  V30 1004 H 94.9734 2.6035 -2.92789 0
M  V30 1005 H 96.6704 2.36513 -3.23825 0
M  V30 1006 H 93.2604 1.22486 -4.10725 0
M  V30 1007 H 97.4444 0.672008 -4.91729 0
M  V30 1008 H 92.7004 -0.0805753 -6.11347 0
M  V30 1009 H 96.8744 -0.627157 -6.9357 0
M  V30 1010 H 94.5014 -1.00944 -7.53468 0
M  V30 1011 N 96.0765 1.50051 0.48192 0
M  V30 1012 C 97.3245 1.60181 1.23234 0
M  V30 1013 C 97.6455 0.299176 1.92691 0
M  V30 1014 O 96.9155 -0.682708 1.83619 0
M  V30 1015 H 95.4955 0.590232 0.457859 0
M  V30 1016 H 98.1575 1.86775 0.556881 0
M  V30 1017 H 97.2535 2.40753 1.98607 0
M  V30 1018 N 97.5546 -0.734337 1.39446 0
M  V30 1019 C 98.4646 -1.87879 1.40495 0
M  V30 1020 C 99.4806 -1.714 0.299672 0
M  V30 1021 O 100.657 -1.93991 0.541249 0
M  V30 1022 C 97.7216 -3.23477 1.24754 0
M  V30 1023 C 96.7826 -3.52344 2.45259 0
M  V30 1024 C 96.0156 -4.81473 2.30259 0
M  V30 1025 O 96.2386 -5.55237 1.30643 0
M  V30 1026 O 95.1726 -5.10254 3.19256 0
M  V30 1027 H 98.9986 -1.89949 2.36966 0
M  V30 1028 H 96.5836 -0.882243 1.20569 0
M  V30 1029 H 98.4656 -4.04509 1.18111 0
M  V30 1030 H 97.1406 -3.22176 0.313781 0
M  V30 1031 H 96.0476 -2.71396 2.57478 0
M  V30 1032 H 97.3806 -3.58426 3.37331 0
M  V30 1033 N 99.0327 -1.24633 -0.964593 0
M  V30 1034 C 99.9807 -1.03917 -2.08096 0
M  V30 1035 C 100.975 0.0268581 -1.69379 0
M  V30 1036 O 102.181 -0.127952 -1.79545 0
M  V30 1037 H 98.5557 -0.319044 -0.680966 0
M  V30 1038 H 100.527 -1.98581 -2.22729 0
M  V30 1039 C 99.2757 -0.663983 -3.41301 0
M  V30 1040 H 98.5987 -1.47605 -3.71555 0
M  V30 1041 H 100.039 -0.558663 -4.20303 0
M  V30 1042 C 98.4977 0.629169 -3.30973 0
M  V30 1043 O 99.0277 1.67404 -3.65156 0
M  V30 1044 N 97.2337 0.611057 -2.84103 0
M  V30 1045 H 96.7807 -0.239593 -2.56483 0
M  V30 1046 H 96.7387 1.47647 -2.77575 0
M  V30 1047 N 100.511 1.16574 -1.06058 0
M  V30 1048 C 101.741 1.90675 -0.795397 0
M  V30 1049 C 102.149 1.77547 0.653735 0
M  V30 1050 O 101.492 1.11611 1.45907 0
M  V30 1051 C 101.554 3.42011 -1.10764 0
M  V30 1052 C 101.218 3.78924 -2.55471 0
M  V30 1053 C 102.215 3.81042 -3.53699 0
M  V30 1054 C 99.8998 4.09626 -2.90708 0
M  V30 1055 C 101.894 4.13346 -4.85205 0
M  V30 1056 C 99.5808 4.41597 -4.22416 0
M  V30 1057 C 100.579 4.43436 -5.19474 0
M  V30 1058 O 100.267 4.74649 -6.48817 0
M  V30 1059 H 99.9988 0.611554 -0.288058 0
M  V30 1060 H 102.553 1.48711 -1.41683 0
M  V30 1061 H 100.783 3.84312 -0.429128 0
M  V30 1062 H 102.472 3.97384 -0.827077 0
M  V30 1063 H 103.238 3.57437 -3.27817 0
M  V30 1064 H 99.1168 4.07361 -2.15819 0
M  V30 1065 H 102.661 4.14696 -5.60957 0
M  V30 1066 H 98.5578 4.64667 -4.48056 0
M  V30 1067 H 99.3258 4.9247 -6.5377 0
M  V30 1068 N 101.989 0.842826 1.3317 0
M  V30 1069 C 103.235 0.441099 1.97945 0
M  V30 1070 C 103.568 -0.998024 1.66593 0
M  V30 1071 O 102.843 -1.69839 0.947898 0
M  V30 1072 C 103.126 0.666841 3.53872 0
M  V30 1073 C 102.979 2.15352 3.94897 0
M  V30 1074 C 104.298 0.115544 4.39948 0
M  V30 1075 H 101.417 0.161739 0.719034 0
M  V30 1076 H 104.059 1.05907 1.57746 0
M  V30 1077 H 102.209 0.140828 3.88245 0
M  V30 1078 H 103.881 2.7447 3.70761 0
M  V30 1079 H 102.124 2.63653 3.44484 0
M  V30 1080 H 102.795 2.26221 5.03516 0
M  V30 1081 H 105.271 0.565213 4.12243 0
M  V30 1082 H 104.147 0.303152 5.48062 0
M  V30 1083 H 104.408 -0.980935 4.3108 0
M  V30 1084 N 103.467 -1.45747 0.599634 0
M  V30 1085 C 104.399 -2.28628 -0.161879 0
M  V30 1086 C 105.412 -1.39494 -0.839367 0
M  V30 1087 O 106.601 -1.63941 -0.706089 0
M  V30 1088 C 103.701 -3.15014 -1.24976 0
M  V30 1089 C 102.874 -4.32378 -0.660935 0
M  V30 1090 C 101.933 -5.00033 -1.63869 0
M  V30 1091 O 100.959 -5.57085 -1.1681 0
M  V30 1092 N 102.161 -4.98589 -2.97303 0
M  V30 1093 H 104.926 -2.94624 0.549265 0
M  V30 1094 H 102.487 -1.55847 0.438565 0
M  V30 1095 H 104.479 -3.5714 -1.9035 0
M  V30 1096 H 103.049 -2.5098 -1.86354 0
M  V30 1097 H 102.269 -3.9383 0.170688 0
M  V30 1098 H 103.557 -5.08197 -0.247619 0
M  V30 1099 H 102.955 -4.53514 -3.38145 0
M  V30 1100 H 101.512 -5.44603 -3.58121 0
M  V30 1101 N 104.945 -0.338344 -1.53925 0
M  V30 1102 C 105.855 0.529421 -2.28548 0
M  V30 1103 C 106.871 1.11645 -1.3346 0
M  V30 1104 O 108.047 1.13325 -1.66492 0
M  V30 1105 C 105.112 1.66713 -3.03987 0
M  V30 1106 C 104.173 1.11041 -4.14691 0
M  V30 1107 C 103.406 2.19389 -4.86522 0
M  V30 1108 O 103.629 3.40013 -4.57982 0
M  V30 1109 O 102.563 1.83976 -5.73094 0
M  V30 1110 H 106.389 -0.0770399 -3.03602 0
M  V30 1111 H 103.974 -0.103555 -1.49041 0
M  V30 1112 H 105.856 2.32918 -3.5118 0
M  V30 1113 H 104.531 2.25949 -2.31794 0
M  V30 1114 H 103.438 0.413024 -3.71813 0
M  V30 1115 H 104.771 0.562975 -4.8897 0
M  V30 1116 N 106.423 1.57458 -0.0668435 0
M  V30 1117 C 107.353 2.15468 0.899764 0
M  V30 1118 C 108.334 1.08042 1.31381 0
M  V30 1119 O 109.519 1.36054 1.38574 0
M  V30 1120 C 106.649 2.71232 2.16911 0
M  V30 1121 C 105.603 3.83781 1.89463 0
M  V30 1122 C 104.929 4.26127 3.22986 0
M  V30 1123 C 106.229 5.08238 1.20381 0
M  V30 1124 H 107.923 2.96488 0.416529 0
M  V30 1125 H 105.469 1.4262 0.198908 0
M  V30 1126 H 107.422 3.10458 2.84945 0
M  V30 1127 H 106.146 1.87426 2.67468 0
M  V30 1128 H 104.805 3.45051 1.23836 0
M  V30 1129 H 104.453 3.39249 3.71374 0
M  V30 1130 H 104.153 5.01993 3.05413 0
M  V30 1131 H 105.677 4.67966 3.92225 0
M  V30 1132 H 107.091 5.44811 1.78475 0
M  V30 1133 H 105.488 5.89349 1.13083 0
M  V30 1134 H 106.558 4.84558 0.182153 0
M  V30 1135 N 107.901 -0.206675 1.56239 0
M  V30 1136 C 108.831 -1.25909 1.96645 0
M  V30 1137 C 109.812 -1.48097 0.836734 0
M  V30 1138 O 110.997 -1.6003 1.10019 0
M  V30 1139 C 108.127 -2.6058 2.29599 0
M  V30 1140 C 107.081 -2.53024 3.452 0
M  V30 1141 C 106.407 -3.91861 3.63798 0
M  V30 1142 C 107.707 -2.06524 4.79734 0
M  V30 1143 H 109.401 -0.923369 2.84806 0
M  V30 1144 H 106.947 -0.442735 1.37025 0
M  V30 1145 H 108.9 -3.34375 2.56459 0
M  V30 1146 H 107.624 -2.95869 1.38307 0
M  V30 1147 H 106.283 -1.81684 3.18412 0
M  V30 1148 H 105.931 -4.24483 2.69857 0
M  V30 1149 H 105.631 -3.87683 4.4156 0
M  V30 1150 H 107.155 -4.67296 3.93022 0
M  V30 1151 H 108.569 -2.70072 5.05702 0
M  V30 1152 H 106.966 -2.13374 5.60885 0
M  V30 1153 H 108.036 -1.01802 4.74093 0
M  V30 1154 N 109.379 -1.50304 -0.473955 0
M  V30 1155 C 110.289 -1.7174 -1.5982 0
M  V30 1156 C 111.305 -0.600457 -1.63311 0
M  V30 1157 O 112.481 -0.878441 -1.81233 0
M  V30 1158 C 109.546 -1.80427 -2.96052 0
M  V30 1159 C 108.607 -3.04148 -3.02972 0
M  V30 1160 C 107.84 -3.12411 -4.32706 0
M  V30 1161 O 108.063 -2.27542 -5.23049 0
M  V30 1162 O 106.997 -4.05113 -4.45159 0
M  V30 1163 H 110.823 -2.67035 -1.44657 0
M  V30 1164 H 108.408 -1.34366 -0.653148 0
M  V30 1165 H 110.29 -1.88338 -3.7697 0
M  V30 1166 H 108.965 -0.883156 -3.11419 0
M  V30 1167 H 107.872 -3.0174 -2.21142 0
M  V30 1168 H 109.205 -3.95829 -2.92541 0
M  V30 1169 N 110.857 0.726932 -1.39834 0
M  V30 1170 C 111.804 1.841 -1.39197 0
M  V30 1171 C 112.774 1.642 -0.250502 0
M  V30 1172 O 113.959 1.85494 -0.446846 0
M  V30 1173 C 111.099 3.21697 -1.24919 0
M  V30 1174 C 110.212 3.53247 -2.48678 0
M  V30 1175 C 109.347 4.80289 -2.26928 0
M  V30 1176 C 108.386 5.04707 -3.4632 0
M  V30 1177 N 107.523 6.22956 -3.23836 0
M  V30 1178 H 112.363 1.83979 -2.34427 0
M  V30 1179 H 109.9 0.898876 -1.16442 0
M  V30 1180 H 111.858 4.01137 -1.1465 0
M  V30 1181 H 110.488 3.21076 -0.333153 0
M  V30 1182 H 109.54 2.68447 -2.69519 0
M  V30 1183 H 110.852 3.67205 -3.37582 0
M  V30 1184 H 110.006 5.67725 -2.13947 0
M  V30 1185 H 108.745 4.68519 -1.35431 0
M  V30 1186 H 107.75 4.1573 -3.5979 0
M  V30 1187 H 108.975 5.18357 -4.38729 0
M  V30 1188 H 106.921 6.12459 -2.35011 0
M  V30 1189 H 106.838 6.37539 -4.063 0
M  V30 1190 H 108.106 7.1321 -3.14566 0
M  V30 1191 N 112.336 1.25143 0.95797 0
M  V30 1192 C 113.299 1.05321 2.03569 0
M  V30 1193 C 114.299 0.007152 1.60798 0
M  V30 1194 O 115.489 0.24903 1.72411 0
M  V30 1195 C 112.621 0.598394 3.35607 0
M  V30 1196 H 113.814 2.00986 2.22586 0
M  V30 1197 H 111.367 1.07502 1.13459 0
M  V30 1198 H 112.102 -0.361014 3.22284 0
M  V30 1199 H 111.887 1.35351 3.67998 0
M  V30 1200 H 113.377 0.48104 4.1482 0
M  V30 1201 N 113.814 -1.1601 1.06675 0
M  V30 1202 C 115.039 -1.91068 0.806706 0
M  V30 1203 C 115.464 -1.77112 -0.633485 0
M  V30 1204 O 114.822 -1.09908 -1.44187 0
M  V30 1205 C 114.87 -3.39655 1.21106 0
M  V30 1206 O 113.974 -4.10893 0.352189 0
M  V30 1207 H 113.315 -0.595125 0.294486 0
M  V30 1208 H 115.845 -1.46955 1.42356 0
M  V30 1209 H 115.855 -3.90434 1.18428 0
M  V30 1210 H 114.53 -3.49132 2.26008 0
M  V30 1211 H 113.107 -3.70285 0.440868 0
M  V30 1212 N 115.292 -0.849877 -1.32721 0
M  V30 1213 C 116.24 -0.279745 -2.30912 0
M  V30 1214 C 117.234 0.594278 -1.58634 0
M  V30 1215 O 118.44 0.482613 -1.73409 0
M  V30 1216 H 114.815 -0.0717521 -0.748569 0
M  V30 1217 H 116.786 -1.12222 -2.76494 0
M  V30 1218 C 115.535 0.521108 -3.43773 0
M  V30 1219 H 114.858 -0.142141 -3.99547 0
M  V30 1220 H 116.298 0.885693 -4.14646 0
M  V30 1221 C 114.757 1.70442 -2.90605 0
M  V30 1222 O 115.287 2.8034 -2.87702 0
M  V30 1223 N 113.493 1.52991 -2.47067 0
M  V30 1224 H 113.04 0.635914 -2.49628 0
M  V30 1225 H 112.998 2.32311 -2.11847 0
M  V30 1226 N 116.77 1.45427 -0.607355 0
M  V30 1227 C 118.181 1.85756 -0.187535 0
M  V30 1228 C 118.532 1.5077 1.25551 0
M  V30 1229 O 117.657 0.93427 1.95193 0
M  V30 1230 C 118.252 3.37154 -0.333572 0
M  V30 1231 C 116.811 3.76387 0.0315542 0
M  V30 1232 C 115.958 2.69377 -0.658117 0
M  V30 1233 H 118.909 1.36231 -0.81405 0
M  V30 1234 H 118.93 3.78014 0.43428 0
M  V30 1235 H 118.442 3.62586 -1.38393 0
M  V30 1236 H 116.543 3.56571 1.0811 0
M  V30 1237 H 116.656 4.77731 -0.361935 0
M  V30 1238 H 115.02 2.5452 -0.0957873 0
M  V30 1239 H 115.803 2.97646 -1.7106 0
M  V30 1240 N 118.248 0.346503 1.53744 0
M  V30 1241 C 119.195 -0.508914 2.25119 0
M  V30 1242 C 120.165 -1.09315 1.25058 0
M  V30 1243 O 121.35 -1.12921 1.53797 0
M  V30 1244 C 118.49 -1.65246 3.02965 0
M  V30 1245 C 117.603 -1.09525 4.17886 0
M  V30 1246 C 116.738 -2.20634 4.83212 0
M  V30 1247 C 115.777 -1.62279 5.90196 0
M  V30 1248 N 114.914 -2.67143 6.49291 0
M  V30 1249 H 119.754 0.106283 2.9781 0
M  V30 1250 H 117.291 0.0642227 1.4696 0
M  V30 1251 H 119.249 -2.32574 3.4636 0
M  V30 1252 H 117.879 -2.2386 2.32565 0
M  V30 1253 H 116.931 -0.312818 3.79112 0
M  V30 1254 H 118.243 -0.628444 4.94825 0
M  V30 1255 H 117.397 -2.95821 5.29693 0
M  V30 1256 H 116.136 -2.70659 4.05703 0
M  V30 1257 H 115.141 -0.855989 5.43096 0
M  V30 1258 H 116.366 -1.13102 6.69615 0
M  V30 1259 H 114.312 -3.16417 5.74645 0
M  V30 1260 H 114.229 -2.25093 7.21713 0
M  V30 1261 H 115.497 -3.4209 7.00425 0
M  V30 1262 N 119.726 -1.57421 0.075193 0
M  V30 1263 C 120.975 -1.92794 -0.592731 0
M  V30 1264 C 121.288 -0.957478 -1.70563 0
M  V30 1265 O 122.494 -1.20417 -2.43335 0
M  V30 1266 C 120.95 -3.42495 -1.10569 0
M  V30 1267 C 120.558 -4.47994 -0.0236121 0
M  V30 1268 C 122.302 -3.86864 -1.74748 0
M  V30 1269 C 120.209 -5.88829 -0.550803 0
M  V30 1270 H 119.139 -0.719591 -0.225177 0
M  V30 1271 H 121.79 -1.82902 0.147978 0
M  V30 1272 H 120.172 -3.47471 -1.89947 0
M  V30 1273 H 121.346 -4.54637 0.751099 0
M  V30 1274 H 119.661 -4.13113 0.522159 0
M  V30 1275 H 122.258 -4.8947 -2.15229 0
M  V30 1276 H 122.601 -3.24417 -2.60882 0
M  V30 1277 H 123.134 -3.84504 -1.01986 0
M  V30 1278 H 119.873 -6.54929 0.273457 0
M  V30 1279 H 119.393 -5.85698 -1.29296 0
M  V30 1280 H 121.072 -6.38811 -1.02613 0
M  V30 1281 N 121.204 0.198386 -1.56346 0
M  V30 1282 C 122.134 1.24865 -1.9731 0
M  V30 1283 C 123.115 1.47651 -0.844576 0
M  V30 1284 O 124.3 1.59444 -1.10866 0
M  V30 1285 C 121.43 2.59358 -2.30977 0
M  V30 1286 C 120.384 2.5119 -3.46537 0
M  V30 1287 C 119.71 3.89926 -3.65871 0
M  V30 1288 C 121.01 2.03977 -4.80823 0
M  V30 1289 H 122.704 0.908252 -2.85291 0
M  V30 1290 H 120.25 0.435462 -1.37258 0
M  V30 1291 H 122.203 3.33011 -2.58228 0
M  V30 1292 H 120.927 2.95132 -1.39874 0
M  V30 1293 H 119.586 1.79993 -3.19371 0
M  V30 1294 H 119.234 4.23046 -2.72105 0
M  V30 1295 H 118.934 3.85336 -4.4361 0
M  V30 1296 H 120.458 4.65205 -3.95495 0
M  V30 1297 H 121.872 2.67386 -5.07127 0
M  V30 1298 H 120.269 2.10397 -5.62008 0
M  V30 1299 H 121.339 0.992861 -4.74626 0
M  V30 1300 N 122.682 1.50554 0.465978 0
M  V30 1301 C 123.907 1.65838 1.24549 0
M  V30 1302 C 124.332 0.343486 1.84937 0
M  V30 1303 O 123.69 -0.69324 1.67523 0
M  V30 1304 C 123.738 2.75533 2.32624 0
M  V30 1305 O 122.842 2.37142 3.37398 0
M  V30 1306 H 122.183 0.553893 0.366194 0
M  V30 1307 H 124.713 1.96959 0.553927 0
M  V30 1308 H 124.723 2.98763 2.77857 0
M  V30 1309 H 123.398 3.70962 1.88043 0
M  V30 1310 H 121.975 2.24377 2.97841 0
M  V30 1311 N 124.16 -0.719506 1.40217 0
M  V30 1312 C 125.09 -1.8465 1.42922 0
M  V30 1313 C 126.071 -1.67599 0.29062 0
M  V30 1314 O 127.256 -1.87688 0.498677 0
M  V30 1315 C 124.386 -3.22565 1.28722 0
M  V30 1316 C 123.34 -3.54281 2.40144 0
M  V30 1317 C 122.666 -4.91298 2.11023 0
M  V30 1318 C 123.966 -3.55676 3.82481 0
M  V30 1319 H 125.66 -1.82644 2.37237 0
M  V30 1320 H 123.206 -0.877305 1.1419 0
M  V30 1321 H 125.159 -4.01095 1.29232 0
M  V30 1322 H 123.883 -3.25137 0.308811 0
M  V30 1323 H 122.542 -2.78088 2.38877 0
M  V30 1324 H 122.19 -4.90468 1.11582 0
M  V30 1325 H 121.89 -5.13485 2.8567 0
M  V30 1326 H 123.414 -5.72166 2.13209 0
M  V30 1327 H 124.828 -4.24254 3.85592 0
M  V30 1328 H 123.225 -3.89388 4.56614 0
M  V30 1329 H 124.295 -2.55144 4.12346 0
M  V30 1330 N 125.638 -1.25649 -0.95132 0
M  V30 1331 C 126.878 -1.11802 -1.71113 0
M  V30 1332 C 127.242 0.334758 -1.89059 0
M  V30 1333 O 128.443 0.595121 -2.62129 0
M  V30 1334 C 126.714 -1.85512 -3.05483 0
M  V30 1335 S 128.273 -1.87597 -3.96677 0
M  V30 1336 H 125.091 -0.399552 -0.588115 0
M  V30 1337 H 127.693 -1.59222 -1.1344 0
M  V30 1338 H 126.397 -2.90299 -2.90094 0
M  V30 1339 H 125.928 -1.38493 -3.68216 0
M  V30 1340 H 127.943 -0.955389 -4.86916 0
M  V30 1341 N 127.117 1.15442 -1.07289 0
M  V30 1342 C 128.528 1.67803 -0.818475 0
M  V30 1343 C 128.879 1.8489 0.656507 0
M  V30 1344 O 128.004 1.55176 1.50829 0
M  V30 1345 C 128.599 3.04805 -1.47917 0
M  V30 1346 C 127.158 3.54245 -1.27229 0
M  V30 1347 C 126.305 2.29986 -1.54925 0
M  V30 1348 H 129.256 0.996646 -1.23502 0
M  V30 1349 H 129.277 3.69702 -0.90005 0
M  V30 1350 H 128.789 2.92336 -2.55267 0
M  V30 1351 H 126.89 3.71956 -0.21899 0
M  V30 1352 H 127.003 4.35723 -1.99203 0
M  V30 1353 H 125.367 2.35496 -0.970242 0
M  V30 1354 H 126.15 2.20105 -2.63455 0
M  V30 1355 N 128.595 0.856903 1.32268 0
M  V30 1356 C 129.505 0.306131 2.32594 0
M  V30 1357 C 130.521 -0.577209 1.64147 0
M  V30 1358 O 131.697 -0.477043 1.95669 0
M  V30 1359 C 128.762 -0.494561 3.43154 0
M  V30 1360 C 127.823 0.415186 4.27288 0
M  V30 1361 C 127.056 -0.347387 5.32568 0
M  V30 1362 O 127.279 -1.57708 5.48165 0
M  V30 1363 O 126.213 0.287982 6.01211 0
M  V30 1364 H 130.039 1.13737 2.81598 0
M  V30 1365 H 127.624 0.619902 1.35932 0
M  V30 1366 H 129.506 -0.948944 4.10576 0
M  V30 1367 H 128.181 -1.30257 2.96336 0
M  V30 1368 H 127.088 0.917793 3.62667 0
M  V30 1369 H 128.421 1.18844 4.77637 0
M  V30 1370 N 130.073 -1.45103 0.615059 0
M  V30 1371 C 131.322 -2.01396 0.110718 0
M  V30 1372 C 131.635 -1.48834 -1.26916 0
M  V30 1373 O 132.841 -1.97152 -1.86664 0
M  V30 1374 C 131.297 -3.59599 0.14723 0
M  V30 1375 C 130.905 -4.21158 1.52743 0
M  V30 1376 C 132.649 -4.23428 -0.30148 0
M  V30 1377 C 130.556 -5.71535 1.51992 0
M  V30 1378 H 129.486 -0.753061 0.0376241 0
M  V30 1379 H 132.137 -1.66494 0.77149 0
M  V30 1380 H 130.519 -3.91724 -0.580339 0
M  V30 1381 H 131.693 -4.00594 2.2773 0
M  V30 1382 H 130.008 -3.69552 1.91886 0
M  V30 1383 H 132.605 -5.33703 -0.326392 0
M  V30 1384 H 132.948 -3.94629 -1.32565 0
M  V30 1385 H 133.481 -3.96047 0.373065 0
M  V30 1386 H 130.22 -6.05044 2.52193 0
M  V30 1387 H 129.74 -5.94268 0.81274 0
M  V30 1388 H 131.419 -6.34873 1.24681 0
M  V30 1389 N 131.551 -0.354651 -1.53558 0
M  V30 1390 C 132.498 0.496968 -2.25386 0
M  V30 1391 C 133.468 1.0865 -1.25636 0
M  V30 1392 O 134.653 1.12104 -1.54394 0
M  V30 1393 C 131.793 1.63637 -3.03837 0
M  V30 1394 C 130.906 1.07307 -4.18461 0
M  V30 1395 C 130.041 2.18068 -4.84376 0
M  V30 1396 C 129.08 1.59147 -5.91049 0
M  V30 1397 N 128.217 2.63695 -6.50699 0
M  V30 1398 H 133.057 -0.122075 -2.9775 0
M  V30 1399 H 130.594 -0.0720154 -1.46924 0
M  V30 1400 H 132.552 2.30734 -3.47589 0
M  V30 1401 H 131.182 2.22623 -2.33749 0
M  V30 1402 H 130.234 0.292708 -3.79272 0
M  V30 1403 H 131.546 0.602193 -4.95152 0
M  V30 1404 H 130.7 2.93007 -5.31255 0
M  V30 1405 H 129.439 2.68504 -4.07133 0
M  V30 1406 H 128.444 0.827175 -5.43542 0
M  V30 1407 H 129.669 1.09549 -6.70206 0
M  V30 1408 H 127.615 3.13365 -5.76315 0
M  V30 1409 H 127.532 2.21263 -7.22896 0
M  V30 1410 H 128.8 3.3837 -7.02229 0
M  V30 1411 N 133.029 1.57378 -0.0835403 0
M  V30 1412 C 134.275 1.95025 0.577664 0
M  V30 1413 C 134.63 0.964049 1.66505 0
M  V30 1414 O 133.923 -0.0118235 1.91596 0
M  V30 1415 C 134.117 3.37063 1.1884 0
M  V30 1416 C 133.946 4.49409 0.16171 0
M  V30 1417 C 132.716 5.04642 -0.257756 0
M  V30 1418 C 134.914 5.10722 -0.605634 0
M  V30 1419 N 132.896 6.00537 -1.27393 0
M  V30 1420 C 134.267 6.02225 -1.47395 0
M  V30 1421 C 136.322 4.93501 -0.660418 0
M  V30 1422 C 135.025 6.78355 -2.39221 0
M  V30 1423 C 137.051 5.70283 -1.56623 0
M  V30 1424 C 136.413 6.61444 -2.4222 0
M  V30 1425 H 132.512 0.760512 0.182058 0
M  V30 1426 H 135.096 1.94013 -0.163419 0
M  V30 1427 H 133.267 3.3879 1.89936 0
M  V30 1428 H 134.999 3.61917 1.81103 0
M  V30 1429 H 131.754 4.73428 0.127702 0
M  V30 1430 H 132.178 6.53184 -1.77987 0
M  V30 1431 H 136.82 4.22798 -0.0128221 0
M  V30 1432 H 134.538 7.48327 -3.05011 0
M  V30 1433 H 138.124 5.58976 -1.61361 0
M  V30 1434 H 137.004 7.1982 -3.11174 0
M  V30 1435 N 134.507 -0.190092 1.56449 0
M  V30 1436 C 135.457 -1.23977 1.91347 0
M  V30 1437 C 136.441 -1.40747 0.779693 0
M  V30 1438 O 137.633 -1.43033 1.04262 0
M  V30 1439 C 134.762 -2.58347 2.26079 0
M  V30 1440 C 133.848 -2.4535 3.45925 0
M  V30 1441 N 134.239 -2.02039 4.63696 0
M  V30 1442 C 132.537 -2.76229 3.50162 0
M  V30 1443 C 133.238 -2.01053 5.4585 0
M  V30 1444 N 132.214 -2.42747 4.8639 0
M  V30 1445 H 136.016 -0.896318 2.79899 0
M  V30 1446 H 133.53 -0.398496 1.57435 0
M  V30 1447 H 135.527 -3.34173 2.49267 0
M  V30 1448 H 134.187 -2.93512 1.38856 0
M  V30 1449 H 135.198 -1.7267 4.88268 0
M  V30 1450 H 131.875 -3.15556 2.73369 0
M  V30 1451 H 133.265 -1.69426 6.50188 0
M  V30 1452 N 135.985 -1.50799 -0.457987 0
M  V30 1453 C 137.232 -1.62442 -1.20908 0
M  V30 1454 C 137.56 -0.330865 -1.91665 0
M  V30 1455 O 136.815 0.68401 -1.83357 0
M  V30 1456 C 137.114 -2.76358 -2.2663 0
M  V30 1457 C 136.78 -4.16378 -1.73033 0
M  V30 1458 C 135.442 -4.54473 -1.58138 0
M  V30 1459 C 137.794 -5.03836 -1.33413 0
M  V30 1460 C 135.122 -5.77754 -1.02065 0
M  V30 1461 C 137.474 -6.27676 -0.78778 0
M  V30 1462 C 136.138 -6.64562 -0.625561 0
M  V30 1463 H 135.408 -0.594417 -0.442435 0
M  V30 1464 H 138.055 -1.84772 -0.503136 0
M  V30 1465 H 136.36 -2.48167 -3.03184 0
M  V30 1466 H 138.057 -2.82568 -2.84528 0
M  V30 1467 H 134.647 -3.86331 -1.85598 0
M  V30 1468 H 138.831 -4.75026 -1.4375 0
M  V30 1469 H 134.087 -6.04997 -0.882547 0
M  V30 1470 H 138.261 -6.94797 -0.472177 0
M  V30 1471 H 135.888 -7.59965 -0.188926 0
M  V30 1472 N 137.463 0.71206 -1.40597 0
M  V30 1473 C 138.712 1.46754 -1.38369 0
M  V30 1474 C 139.025 1.95598 0.0097839 0
M  V30 1475 O 140.231 2.71059 0.154677 0
M  V30 1476 C 138.687 2.65289 -2.43207 0
M  V30 1477 C 138.295 2.23301 -3.88382 0
M  V30 1478 C 140.039 3.43008 -2.50091 0
M  V30 1479 C 137.946 3.38696 -4.84808 0
M  V30 1480 H 136.876 0.55118 -0.514506 0
M  V30 1481 H 139.527 0.774616 -1.66349 0
M  V30 1482 H 137.909 3.36769 -2.08332 0
M  V30 1483 H 139.083 1.59218 -4.32419 0
M  V30 1484 H 137.398 1.58618 -3.85006 0
M  V30 1485 H 139.995 4.28881 -3.1932 0
M  V30 1486 H 140.338 3.87065 -1.53253 0
M  V30 1487 H 140.871 2.78574 -2.83974 0
M  V30 1488 H 137.61 2.99668 -5.82992 0
M  V30 1489 H 137.13 4.01683 -4.45433 0
M  V30 1490 H 138.809 4.04712 -5.04794 0
M  V30 1491 N 138.941 1.26152 0.944643 0
M  V30 1492 C 140.189 1.11271 1.6871 0
M  V30 1493 C 140.51 -0.345166 1.91921 0
M  V30 1494 O 139.78 -1.24387 1.51343 0
M  V30 1495 H 138.36 0.408783 0.625224 0
M  V30 1496 H 141.022 1.58427 1.1352 0
M  V30 1497 H 140.118 1.62879 2.66227 0
M  V30 1498 N 140.419 -1.14872 1.07899 0
M  V30 1499 C 141.369 -2.17809 0.674027 0
M  V30 1500 C 142.353 -1.58008 -0.303699 0
M  V30 1501 O 143.545 -1.76616 -0.11654 0
M  V30 1502 C 140.674 -3.43208 0.0793318 0
M  V30 1503 C 139.76 -4.10051 1.08253 0
M  V30 1504 N 140.151 -4.52296 2.2641 0
M  V30 1505 C 138.449 -4.36469 0.917124 0
M  V30 1506 C 139.15 -5.04199 2.901 0
M  V30 1507 N 138.126 -4.98088 2.17736 0
M  V30 1508 H 141.928 -2.48207 1.57386 0
M  V30 1509 H 139.442 -1.315 0.952976 0
M  V30 1510 H 141.439 -4.16272 -0.228719 0
M  V30 1511 H 140.099 -3.14291 -0.815551 0
M  V30 1512 H 141.11 -4.45504 2.64096 0
M  V30 1513 H 137.787 -4.17432 0.0756078 0
M  V30 1514 H 139.177 -5.46802 3.90458 0
M  V30 1515 N 141.898 -0.863906 -1.31812 0
M  V30 1516 C 142.828 -0.330843 -2.31144 0
M  V30 1517 C 143.809 0.575005 -1.60087 0
M  V30 1518 O 144.994 0.493304 -1.8783 0
M  V30 1519 C 142.124 0.47374 -3.44054 0
M  V30 1520 C 141.078 -0.338481 -4.26659 0
M  V30 1521 C 140.404 0.591412 -5.31419 0
M  V30 1522 C 141.704 -1.56926 -4.98168 0
M  V30 1523 H 143.398 -1.16086 -2.75979 0
M  V30 1524 H 140.944 -0.559657 -1.32679 0
M  V30 1525 H 142.897 0.857143 -4.12591 0
M  V30 1526 H 141.621 1.33721 -2.9797 0
M  V30 1527 H 140.28 -0.703754 -3.59782 0
M  V30 1528 H 139.928 1.45199 -4.81587 0
M  V30 1529 H 139.628 0.0519022 -5.87577 0
M  V30 1530 H 141.152 0.97179 -6.02817 0
M  V30 1531 H 142.566 -1.25764 -5.59336 0
M  V30 1532 H 140.963 -2.04739 -5.64094 0
M  V30 1533 H 142.033 -2.32544 -4.25501 0
M  V30 1534 N 143.376 1.44774 -0.622745 0
M  V30 1535 C 144.308 2.28856 0.125485 0
M  V30 1536 C 145.321 1.40811 0.817069 0
M  V30 1537 O 146.51 1.65044 0.679918 0
M  V30 1538 C 143.61 3.16963 1.19949 0
M  V30 1539 C 142.783 4.33374 0.592064 0
M  V30 1540 C 141.842 5.02577 1.55893 0
M  V30 1541 O 140.868 5.58873 1.07933 0
M  V30 1542 N 142.07 5.03256 2.89334 0
M  V30 1543 H 144.835 2.93713 -0.596068 0
M  V30 1544 H 142.396 1.55129 -0.463303 0
M  V30 1545 H 144.388 3.60123 1.84644 0
M  V30 1546 H 142.958 2.53913 1.82337 0
M  V30 1547 H 142.178 3.93509 -0.233322 0
M  V30 1548 H 143.466 5.08527 0.166738 0
M  V30 1549 H 142.864 4.58836 3.30887 0
M  V30 1550 H 141.421 5.50232 3.49412 0
M  V30 1551 N 144.854 0.36279 1.53368 0
M  V30 1552 C 145.801 -0.485008 2.25646 0
M  V30 1553 C 146.771 -1.07982 1.2621 0
M  V30 1554 O 147.956 -1.11284 1.54986 0
M  V30 1555 C 145.096 -1.62023 3.04701 0
M  V30 1556 C 144.209 -1.05086 4.19024 0
M  V30 1557 C 143.344 -2.15496 4.85525 0
M  V30 1558 C 142.383 -1.5601 5.91884 0
M  V30 1559 N 141.52 -2.60241 6.52088 0
M  V30 1560 H 146.36 0.137864 2.97681 0
M  V30 1561 H 143.897 0.0798061 1.46883 0
M  V30 1562 H 145.855 -2.28887 3.48807 0
M  V30 1563 H 144.485 -2.2138 2.34927 0
M  V30 1564 H 143.537 -0.27259 3.79422 0
M  V30 1565 H 144.849 -0.575926 4.95464 0
M  V30 1566 H 144.003 -2.90186 5.32801 0
M  V30 1567 H 142.742 -2.66341 4.08551 0
M  V30 1568 H 141.747 -0.798338 5.43973 0
M  V30 1569 H 142.972 -1.05994 6.70777 0
M  V30 1570 H 140.918 -3.10304 5.77968 0
M  V30 1571 H 140.835 -2.17426 7.24059 0
M  V30 1572 H 142.103 -3.34641 7.04014 0
M  V30 1573 N 146.332 -1.57332 0.0918853 0
M  V30 1574 C 147.264 -2.10869 -0.898168 0
M  V30 1575 C 148.277 -1.04521 -1.24817 0
M  V30 1576 O 149.466 -1.31977 -1.20184 0
M  V30 1577 C 146.566 -2.57083 -2.2082 0
M  V30 1578 C 145.739 -3.87229 -2.03402 0
M  V30 1579 C 144.798 -4.19324 -3.17889 0
M  V30 1580 O 143.824 -4.88598 -2.91994 0
M  V30 1581 N 145.026 -3.74471 -4.43567 0
M  V30 1582 H 147.791 -2.96439 -0.440943 0
M  V30 1583 H 145.352 -1.61631 -0.0933064 0
M  V30 1584 H 147.344 -2.75602 -2.96354 0
M  V30 1585 H 145.914 -1.76541 -2.57977 0
M  V30 1586 H 145.134 -3.7789 -1.12218 0
M  V30 1587 H 146.422 -4.72379 -1.89038 0
M  V30 1588 H 145.82 -3.18546 -4.67488 0
M  V30 1589 H 144.377 -3.98151 -5.16061 0
M  V30 1590 N 147.81 0.181792 -1.56548 0
M  V30 1591 C 148.758 1.24461 -1.965 0
M  V30 1592 C 149.752 1.464 -0.852261 0
M  V30 1593 O 150.958 1.47103 -1.03733 0
M  V30 1594 H 147.333 0.418138 -0.625031 0
M  V30 1595 H 149.304 0.880714 -2.85107 0
M  V30 1596 C 148.053 2.57891 -2.33212 0
M  V30 1597 H 147.376 2.41829 -3.18369 0
M  V30 1598 H 148.816 3.3097 -2.65019 0
M  V30 1599 C 147.275 3.15871 -1.17163 0
M  V30 1600 O 147.805 3.9913 -0.453708 0
M  V30 1601 N 146.011 2.74808 -0.944936 0
M  V30 1602 H 145.558 2.07205 -1.53049 0
M  V30 1603 H 145.516 3.13939 -0.170286 0
M  V30 1604 N 149.288 1.51039 0.449983 0
M  V30 1605 C 150.534 1.63322 1.20223 0
M  V30 1606 C 150.867 0.34241 1.91158 0
M  V30 1607 O 150.142 -0.657344 1.83055 0
M  V30 1608 C 150.425 2.82801 2.22925 0
M  V30 1609 C 150.278 4.21823 1.56157 0
M  V30 1610 C 151.597 2.97807 3.24035 0
M  V30 1611 H 148.716 0.594407 0.435718 0
M  V30 1612 H 151.358 1.83489 0.493136 0
M  V30 1613 H 149.508 2.65738 2.834 0
M  V30 1614 H 151.18 4.50526 0.991162 0
M  V30 1615 H 149.423 4.25105 0.864172 0
M  V30 1616 H 150.094 5.01391 2.30891 0
M  V30 1617 H 152.57 3.13497 2.73603 0
M  V30 1618 H 151.446 3.82992 3.93202 0
M  V30 1619 H 151.707 2.09328 3.89402 0
M  V30 1620 N 150.766 -0.704594 1.40972 0
M  V30 1621 C 151.714 -1.83994 1.42299 0
M  V30 1622 C 152.708 -1.66684 0.302111 0
M  V30 1623 O 153.914 -1.73655 0.473697 0
M  V30 1624 H 150.289 -0.606171 0.44504 0
M  V30 1625 H 152.26 -1.79992 2.38003 0
M  V30 1626 C 151.009 -3.21946 1.31323 0
M  V30 1627 H 150.332 -3.35878 2.16855 0
M  V30 1628 H 151.772 -4.01491 1.36311 0
M  V30 1629 C 150.231 -3.36891 0.0245977 0
M  V30 1630 O 150.761 -3.90687 -0.934153 0
M  V30 1631 N 148.967 -2.90559 -0.0485243 0
M  V30 1632 H 148.514 -2.46968 0.732419 0
M  V30 1633 H 148.472 -3.00937 -0.910171 0
M  V30 1634 N 152.244 -1.26651 -0.937939 0
M  V30 1635 C 153.191 -1.0849 -2.03712 0
M  V30 1636 C 154.161 0.011033 -1.66096 0
M  V30 1637 O 155.346 -0.149353 -1.90215 0
M  V30 1638 C 152.486 -0.72735 -3.37348 0
M  V30 1639 C 151.599 -1.89986 -3.87981 0
M  V30 1640 C 150.734 -1.48513 -5.10017 0
M  V30 1641 C 149.773 -2.62575 -5.5292 0
M  V30 1642 N 148.91 -2.21762 -6.66158 0
M  V30 1643 H 153.75 -2.02551 -2.18579 0
M  V30 1644 H 151.287 -1.00844 -1.07093 0
M  V30 1645 H 153.245 -0.50092 -4.14182 0
M  V30 1646 H 151.875 0.176298 -3.22318 0
M  V30 1647 H 150.927 -2.23913 -3.07518 0
M  V30 1648 H 152.239 -2.75586 -4.15757 0
M  V30 1649 H 151.393 -1.21934 -5.94321 0
M  V30 1650 H 150.132 -0.60009 -4.83994 0
M  V30 1651 H 149.137 -2.8988 -4.67172 0
M  V30 1652 H 150.362 -3.51685 -5.80943 0
M  V30 1653 H 148.308 -1.35696 -6.41812 0
M  V30 1654 H 148.225 -3.00903 -6.93537 0
M  V30 1655 H 149.493 -1.98403 -7.53828 0
M  V30 1656 N 153.722 1.14298 -1.08507 0
M  V30 1657 C 154.652 2.21542 -0.737646 0
M  V30 1658 C 155.633 1.67773 0.280377 0
M  V30 1659 O 156.818 1.93616 0.150521 0
M  V30 1660 C 153.948 3.46988 -0.147259 0
M  V30 1661 C 152.902 4.13789 -1.09374 0
M  V30 1662 C 152.228 5.33449 -0.365524 0
M  V30 1663 C 153.528 4.62208 -2.4323 0
M  V30 1664 H 155.222 2.5086 -1.6343 0
M  V30 1665 H 152.768 1.20576 -0.787243 0
M  V30 1666 H 154.721 4.21262 0.107808 0
M  V30 1667 H 153.445 3.17037 0.784538 0
M  V30 1668 H 152.104 3.4147 -1.33393 0
M  V30 1669 H 151.752 4.99759 0.57011 0
M  V30 1670 H 151.452 5.79088 -0.996512 0
M  V30 1671 H 152.976 6.10485 -0.118534 0
M  V30 1672 H 154.39 5.27952 -2.23472 0
M  V30 1673 H 152.787 5.18553 -3.02031 0
M  V30 1674 H 153.857 3.77224 -3.04681 0
M  V30 1675 N 155.201 0.870884 1.31352 0
M  V30 1676 C 156.134 0.271983 2.26573 0
M  V30 1677 C 157.112 -0.599385 1.51149 0
M  V30 1678 O 158.296 -0.552605 1.80218 0
M  V30 1679 C 155.423 -0.614801 3.33073 0
M  V30 1680 C 154.469 0.185342 4.26097 0
M  V30 1681 S 155.302 1.56444 5.12138 0
M  V30 1682 C 156.458 0.683807 6.22153 0
M  V30 1683 H 156.691 1.07916 2.77023 0
M  V30 1684 H 154.224 0.669459 1.39132 0
M  V30 1685 H 156.182 -1.12074 3.94905 0
M  V30 1686 H 154.843 -1.39593 2.81376 0
M  V30 1687 H 154.036 -0.490771 5.01605 0
M  V30 1688 H 153.638 0.623415 3.68768 0
M  V30 1689 H 155.93 -0.10521 6.77418 0
M  V30 1690 H 156.873 1.41004 6.93919 0
M  V30 1691 H 157.281 0.250952 5.63942 0
M  V30 1692 N 156.679 -1.44442 0.630414 0
M  V30 1693 C 157.642 -2.29107 -0.0652523 0
M  V30 1694 C 158.642 -1.41002 -0.772995 0
M  V30 1695 O 159.832 -1.62881 -0.617692 0
M  V30 1696 C 156.964 -3.22564 -1.10296 0
M  V30 1697 H 158.157 -2.92103 0.679401 0
M  V30 1698 H 155.71 -1.51343 0.390517 0
M  V30 1699 H 156.445 -2.64416 -1.87762 0
M  V30 1700 H 156.23 -3.87491 -0.59941 0
M  V30 1701 H 157.72 -3.86167 -1.5895 0
M  V30 1702 N 158.157 -0.370918 -1.53173 0
M  V30 1703 C 159.403 0.217423 -2.01631 0
M  V30 1704 C 159.736 1.47983 -1.25756 0
M  V30 1705 O 159.011 1.91274 -0.352764 0
M  V30 1706 C 159.294 0.503982 -3.56556 0
M  V30 1707 C 159.147 -0.77243 -4.43118 0
M  V30 1708 C 160.466 1.30234 -4.20389 0
M  V30 1709 H 157.585 0.0775486 -0.732909 0
M  V30 1710 H 160.227 -0.496863 -1.83388 0
M  V30 1711 H 158.377 1.11248 -3.72231 0
M  V30 1712 H 160.049 -1.4098 -4.39229 0
M  V30 1713 H 158.292 -1.39167 -4.10871 0
M  V30 1714 H 158.963 -0.526815 -5.4948 0
M  V30 1715 H 161.439 0.787546 -4.08579 0
M  V30 1716 H 160.315 1.47158 -5.28806 0
M  V30 1717 H 160.576 2.31237 -3.76805 0
M  V30 1718 N 159.635 1.57281 -0.100228 0
M  V30 1719 C 161.046 1.81725 0.428107 0
M  V30 1720 C 161.397 1.01619 1.67833 0
M  V30 1721 O 160.522 0.247098 2.14985 0
M  V30 1722 C 161.117 3.29617 0.78347 0
M  V30 1723 C 159.676 3.54808 1.25653 0
M  V30 1724 C 158.823 2.76118 0.255752 0
M  V30 1725 H 161.774 1.55324 -0.325608 0
M  V30 1726 H 161.795 3.4322 1.64256 0
M  V30 1727 H 161.307 3.87893 -0.12665 0
M  V30 1728 H 159.408 3.01868 2.18418 0
M  V30 1729 H 159.521 4.63443 1.21482 0
M  V30 1730 H 157.885 2.43745 0.738956 0
M  V30 1731 H 158.668 3.37145 -0.647136 0
M  V30 1732 N 161.113 -0.173488 1.56642 0
M  V30 1733 C 162.061 -1.23417 1.97157 0
M  V30 1734 C 163.055 -1.45946 0.860013 0
M  V30 1735 O 164.261 -1.46551 1.04512 0
M  V30 1736 H 160.636 -0.414818 0.62724 0
M  V30 1737 H 162.607 -0.865582 2.8557 0
M  V30 1738 C 161.356 -2.5665 2.34576 0
M  V30 1739 H 160.679 -2.40137 3.19647 0
M  V30 1740 H 162.119 -3.2956 2.6677 0
M  V30 1741 C 160.578 -3.15245 1.18836 0
M  V30 1742 O 161.108 -3.98883 0.474869 0
M  V30 1743 N 159.314 -2.74303 0.959497 0
M  V30 1744 H 158.861 -2.0639 1.54146 0
M  V30 1745 H 158.819 -3.13844 0.186932 0
M  V30 1746 N 162.591 -1.51276 -0.441967 0
M  V30 1747 C 163.521 -1.752 -1.54361 0
M  V30 1748 C 164.502 -0.601682 -1.59103 0
M  V30 1749 O 165.687 -0.843913 -1.74905 0
M  V30 1750 C 162.817 -1.87282 -2.92477 0
M  V30 1751 C 161.771 -3.02687 -3.02596 0
M  V30 1752 C 161.097 -2.99947 -4.42647 0
M  V30 1753 C 162.397 -4.4273 -2.77106 0
M  V30 1754 H 164.091 -2.67442 -1.34592 0
M  V30 1755 H 161.637 -1.28694 -0.646048 0
M  V30 1756 H 163.59 -2.02602 -3.695 0
M  V30 1757 H 162.314 -0.916844 -3.13467 0
M  V30 1758 H 160.973 -2.87065 -2.28012 0
M  V30 1759 H 160.621 -2.02136 -4.60597 0
M  V30 1760 H 160.321 -3.77439 -4.50348 0
M  V30 1761 H 161.845 -3.17354 -5.2165 0
M  V30 1762 H 163.259 -4.58727 -3.43864 0
M  V30 1763 H 161.656 -5.21893 -2.96222 0
M  V30 1764 H 162.726 -4.53087 -1.72744 0
M  V30 1765 N 164.069 0.697108 -1.41344 0
M  V30 1766 C 165.316 1.45714 -1.40619 0
M  V30 1767 C 165.644 1.94494 -0.0147907 0
M  V30 1768 O 164.899 1.69794 0.973066 0
M  V30 1769 C 165.198 2.68553 -2.35826 0
M  V30 1770 C 164.864 2.38438 -3.82698 0
M  V30 1771 C 163.526 2.29936 -4.22709 0
M  V30 1772 C 165.878 2.13567 -4.75435 0
M  V30 1773 C 163.206 1.94656 -5.53467 0
M  V30 1774 C 165.558 1.79797 -6.06511 0
M  V30 1775 C 164.222 1.69789 -6.45545 0
M  V30 1776 H 163.492 0.533206 -0.51456 0
M  V30 1777 H 166.139 0.796901 -1.74131 0
M  V30 1778 H 164.444 3.39503 -1.95563 0
M  V30 1779 H 166.141 3.2669 -2.32539 0
M  V30 1780 H 162.731 2.4595 -3.51008 0
M  V30 1781 H 166.915 2.19082 -4.45328 0
M  V30 1782 H 162.171 1.8546 -5.82593 0
M  V30 1783 H 166.345 1.59572 -6.77872 0
M  V30 1784 H 163.972 1.4222 -7.46778 0
M  V30 1785 N 165.547 1.27147 0.931209 0
M  V30 1786 C 166.48 1.0389 2.0318 0
M  V30 1787 C 167.458 -0.0395716 1.62552 0
M  V30 1788 O 168.642 0.104867 1.88208 0
M  V30 1789 C 165.769 0.575227 3.3378 0
M  V30 1790 C 164.815 1.64774 3.93385 0
M  V30 1791 S 165.648 3.23933 4.26413 0
M  V30 1792 C 166.804 2.79358 5.60098 0
M  V30 1793 H 167.037 1.97075 2.22596 0
M  V30 1794 H 164.57 1.10938 1.07387 0
M  V30 1795 H 166.528 0.314385 4.09294 0
M  V30 1796 H 165.189 -0.336505 3.12292 0
M  V30 1797 H 164.382 1.27454 4.87618 0
M  V30 1798 H 163.984 1.86048 3.24441 0
M  V30 1799 H 166.276 2.24443 6.39243 0
M  V30 1800 H 167.219 3.72322 6.02314 0
M  V30 1801 H 167.627 2.1861 5.20452 0
M  V30 1802 N 167.025 -1.13721 1.09112 0
M  V30 1803 C 167.955 -2.21148 0.749385 0
M  V30 1804 C 168.936 -1.6792 -0.271475 0
M  V30 1805 O 170.121 -1.93693 -0.140251 0
M  V30 1806 C 167.251 -3.46905 0.165659 0
M  V30 1807 C 166.205 -4.13203 1.11567 0
M  V30 1808 C 165.531 -5.33248 0.393809 0
M  V30 1809 C 166.831 -4.60912 2.45678 0
M  V30 1810 H 168.525 -2.4999 1.64758 0
M  V30 1811 H 166.071 -1.20156 0.793626 0
M  V30 1812 H 168.024 -4.21313 -0.085466 0
M  V30 1813 H 166.748 -3.17449 -0.767714 0
M  V30 1814 H 165.407 -3.40758 1.35202 0
M  V30 1815 H 165.055 -5.00054 -0.543599 0
M  V30 1816 H 164.755 -5.78552 1.02721 0
M  V30 1817 H 166.279 -6.10413 0.150908 0
M  V30 1818 H 167.693 -5.26759 2.26269 0
M  V30 1819 H 166.09 -5.16944 3.04776 0
M  V30 1820 H 167.16 -3.75603 3.06677 0
M  V30 1821 N 168.503 -0.877838 -1.30888 0
M  V30 1822 C 169.413 -0.343096 -2.32078 0
M  V30 1823 C 170.429 0.551022 -1.65045 0
M  V30 1824 O 171.605 0.445854 -1.96403 0
M  V30 1825 C 168.67 0.439905 -3.43898 0
M  V30 1826 C 167.731 -0.483111 -4.26573 0
M  V30 1827 C 166.964 0.262616 -5.33053 0
M  V30 1828 O 167.187 1.48967 -5.50604 0
M  V30 1829 O 166.121 -0.383593 -6.00676 0
M  V30 1830 H 169.947 -1.18203 -2.79753 0
M  V30 1831 H 167.532 -0.64145 -1.34929 0
M  V30 1832 H 169.414 0.883504 -4.12034 0
M  V30 1833 H 168.089 1.25526 -2.98371 0
M  V30 1834 H 166.996 -0.975374 -3.61161 0
M  V30 1835 H 168.329 -1.26427 -4.75686 0
M  V30 1836 N 169.982 1.44106 -0.638065 0
M  V30 1837 C 171.21 2.06336 -0.152615 0
M  V30 1838 C 171.625 1.47731 1.17563 0
M  V30 1839 O 170.982 0.602806 1.72257 0
M  V30 1840 C 171.033 3.61479 -0.0391491 0
M  V30 1841 O 170.754 4.17903 -1.31487 0
M  V30 1842 C 172.255 4.40757 0.474176 0
M  V30 1843 H 169.475 0.665862 -0.0828776 0
M  V30 1844 H 172.019 1.84862 -0.87443 0
M  V30 1845 H 170.174 3.82191 0.633142 0
M  V30 1846 H 170.588 5.11416 -1.16421 0
M  V30 1847 H 172.062 5.49707 0.502562 0
M  V30 1848 H 172.539 4.12697 1.50258 0
M  V30 1849 H 173.145 4.24979 -0.165102 0
M  V30 1850 N 171.46 0.379036 1.52974 0
M  V30 1851 C 172.706 -0.206727 2.01744 0
M  V30 1852 C 173.039 -1.47314 1.26539 0
M  V30 1853 O 172.314 -1.91084 0.362903 0
M  V30 1854 C 172.597 -0.485066 3.56818 0
M  V30 1855 C 172.45 0.795919 4.42702 0
M  V30 1856 C 173.769 -1.28003 4.21074 0
M  V30 1857 H 170.888 -0.0736607 0.73331 0
M  V30 1858 H 173.53 0.506581 1.83122 0
M  V30 1859 H 171.68 -1.09272 3.72816 0
M  V30 1860 H 173.352 1.43307 4.38476 0
M  V30 1861 H 171.595 1.41344 4.10127 0
M  V30 1862 H 172.266 0.555947 5.49193 0
M  V30 1863 H 174.742 -0.765867 4.08991 0
M  V30 1864 H 173.618 -1.44352 5.29579 0
M  V30 1865 H 173.879 -2.29236 3.78026 0
M  V30 1866 N 172.938 -1.57226 0.108567 0
M  V30 1867 C 174.215 -1.86333 -0.594939 0
M  V30 1868 C 174.595 -1.00788 -1.85486 0
M  V30 1869 O 173.943 -0.0839293 -2.28346 0
M  V30 1870 C 174.153 -3.37265 -0.897405 0
M  V30 1871 C 175.501 -4.05629 -1.25501 0
M  V30 1872 O 176.525 -3.42224 -0.987998 0
M  V30 1873 O 175.384 -5.17531 -1.75567 0
M  V30 1874 H 172.478 -0.771018 -0.2991 0
M  V30 1875 H 175.024 -1.69102 0.142283 0
M  V30 1876 H 173.796 -3.913 -0.00413806 0
M  V30 1877 H 173.419 -3.59889 -1.69014 0
M  V30 1878 N 174.416 0.165178 -1.56732 0
M  V30 1879 C 175.641 0.900253 -1.86843 0
M  V30 1880 C 176.066 1.74766 -0.695596 0
M  V30 1881 O 175.424 1.77786 0.35522 0
M  V30 1882 C 175.472 1.74777 -3.15413 0
M  V30 1883 O 174.576 2.85007 -2.98068 0
M  V30 1884 H 173.917 0.251832 -0.614391 0
M  V30 1885 H 176.447 0.161468 -2.03962 0
M  V30 1886 H 176.457 2.14646 -3.46974 0
M  V30 1887 H 175.132 1.12537 -4.00385 0
M  V30 1888 H 173.709 2.48676 -2.77875 0
M  V30 1889 N 175.894 1.51508 0.433938 0
M  V30 1890 C 177.14 1.64588 1.18484 0
M  V30 1891 C 177.473 0.362666 1.90784 0
M  V30 1892 O 176.748 -0.637892 1.83742 0
M  V30 1893 C 177.031 2.85149 2.19913 0
M  V30 1894 C 176.884 4.23456 1.51674 0
M  V30 1895 C 178.203 3.01227 3.20858 0
M  V30 1896 H 175.322 0.598994 0.429389 0
M  V30 1897 H 177.964 1.84002 0.473647 0
M  V30 1898 H 176.114 2.68729 2.80566 0
M  V30 1899 H 177.786 4.51552 0.943322 0
M  V30 1900 H 176.029 4.25998 0.819035 0
M  V30 1901 H 176.7 5.03812 2.2556 0
M  V30 1902 H 179.176 3.16382 2.70263 0
M  V30 1903 H 178.052 3.87141 3.89118 0
M  V30 1904 H 178.313 2.13447 3.8716 0
M  V30 1905 N 177.372 -0.689602 1.41712 0
M  V30 1906 C 178.319 -1.80345 1.44029 0
M  V30 1907 C 179.289 -1.63478 0.293948 0
M  V30 1908 O 180.474 -1.84244 0.495869 0
M  V30 1909 C 177.614 -3.18272 1.33405 0
M  V30 1910 C 176.727 -3.46529 2.57956 0
M  V30 1911 C 175.862 -4.74103 2.39582 0
M  V30 1912 C 174.901 -4.95347 3.5958 0
M  V30 1913 N 174.038 -6.14151 3.40239 0
M  V30 1914 H 178.878 -1.77698 2.39222 0
M  V30 1915 H 176.415 -0.867688 1.18784 0
M  V30 1916 H 178.373 -3.97956 1.25246 0
M  V30 1917 H 177.003 -3.2008 0.418164 0
M  V30 1918 H 176.055 -2.61207 2.76542 0
M  V30 1919 H 177.367 -3.58126 3.47199 0
M  V30 1920 H 176.521 -5.61853 2.28924 0
M  V30 1921 H 175.26 -4.64763 1.47805 0
M  V30 1922 H 174.265 -4.06044 3.70686 0
M  V30 1923 H 175.49 -5.06542 4.52318 0
M  V30 1924 H 173.436 -6.06013 2.51167 0
M  V30 1925 H 173.353 -6.26543 4.23061 0
M  V30 1926 H 174.621 -7.04619 3.33365 0
M  V30 1927 N 178.85 -1.27639 -0.924453 0
M  V30 1928 C 179.78 -1.13166 -2.04244 0
M  V30 1929 C 180.761 -0.032256 -1.70069 0
M  V30 1930 O 181.946 -0.207328 -1.9309 0
M  V30 1931 C 179.076 -0.781496 -3.38393 0
M  V30 1932 C 178.03 -1.83449 -3.86692 0
M  V30 1933 C 177.356 -1.33822 -5.17683 0
M  V30 1934 C 178.656 -3.23917 -4.09726 0
M  V30 1935 H 180.35 -2.06689 -2.1661 0
M  V30 1936 H 177.896 -0.995136 -1.04082 0
M  V30 1937 H 179.849 -0.667057 -4.16087 0
M  V30 1938 H 178.573 0.189439 -3.2605 0
M  V30 1939 H 177.232 -1.93789 -3.11193 0
M  V30 1940 H 176.88 -0.35665 -5.01734 0
M  V30 1941 H 176.58 -2.04224 -5.50968 0
M  V30 1942 H 178.104 -1.23679 -5.97943 0
M  V30 1943 H 179.518 -3.16559 -4.77978 0
M  V30 1944 H 177.915 -3.92059 -4.54324 0
M  V30 1945 H 178.985 -3.68729 -3.14908 0
M  V30 1946 N 180.328 1.1314 -1.09713 0
M  V30 1947 C 181.291 2.16831 -0.742751 0
M  V30 1948 C 182.291 1.59159 0.229129 0
M  V30 1949 O 183.481 1.74199 0.00693237 0
M  V30 1950 C 180.613 3.40756 -0.0989168 0
M  V30 1951 H 181.806 2.49695 -1.66109 0
M  V30 1952 H 179.359 1.2802 -0.896699 0
M  V30 1953 H 180.094 3.13485 0.830514 0
M  V30 1954 H 179.879 3.83888 -0.798265 0
M  V30 1955 H 181.369 4.17386 0.133524 0
M  V30 1956 N 181.806 0.884767 1.30421 0
M  V30 1957 C 183.083 0.423185 1.90967 0
M  V30 1958 C 183.463 -1.09605 1.80416 0
M  V30 1959 O 182.811 -1.93126 1.22125 0
M  V30 1960 C 183.021 0.921056 3.36627 0
M  V30 1961 C 184.369 0.955903 4.137 0
M  V30 1962 O 185.393 0.867706 3.4547 0
M  V30 1963 O 184.252 1.08614 5.35598 0
M  V30 1964 H 181.346 0.129369 0.816819 0
M  V30 1965 H 183.892 0.973653 1.3899 0
M  V30 1966 H 182.664 1.96489 3.3839 0
M  V30 1967 H 182.287 0.349741 3.96059 0
M  V30 1968 N 183.284 -1.43765 0.645699 0
M  V30 1969 C 184.231 -2.30745 -0.0504648 0
M  V30 1970 C 185.201 -1.4432 -0.822241 0
M  V30 1971 O 186.386 -1.73202 -0.800358 0
M  V30 1972 C 183.526 -3.29802 -1.0161 0
M  V30 1973 C 182.639 -4.31326 -0.241219 0
M  V30 1974 C 181.774 -5.17469 -1.19998 0
M  V30 1975 C 180.813 -6.10691 -0.415094 0
M  V30 1976 N 179.95 -6.89483 -1.32506 0
M  V30 1977 H 184.79 -2.8973 0.697155 0
M  V30 1978 H 182.327 -1.42738 0.355563 0
M  V30 1979 H 184.285 -3.85734 -1.58949 0
M  V30 1980 H 182.915 -2.72483 -1.73069 0
M  V30 1981 H 181.967 -3.77749 0.448334 0
M  V30 1982 H 183.279 -4.9743 0.369437 0
M  V30 1983 H 182.433 -5.7799 -1.84424 0
M  V30 1984 H 181.172 -4.51473 -1.84455 0
M  V30 1985 H 180.177 -5.49265 0.242565 0
M  V30 1986 H 181.402 -6.78727 0.224966 0
M  V30 1987 H 179.348 -6.26142 -1.95657 0
M  V30 1988 H 179.265 -7.52081 -0.768783 0
M  V30 1989 H 180.533 -7.54516 -1.9577 0
M  V30 1990 N 184.763 -0.387143 -1.52771 0
M  V30 1991 C 186.009 0.196025 -2.0185 0
M  V30 1992 C 186.342 1.46641 -1.27319 0
M  V30 1993 O 185.617 1.90889 -0.373032 0
M  V30 1994 C 185.9 0.466136 -3.5707 0
M  V30 1995 C 185.753 -0.819385 -4.42274 0
M  V30 1996 C 187.072 1.25768 -4.21747 0
M  V30 1997 H 184.191 0.0697708 -0.73369 0
M  V30 1998 H 186.833 -0.516286 -1.82851 0
M  V30 1999 H 184.983 1.07293 -3.7339 0
M  V30 2000 H 186.655 -1.4563 -4.37709 0
M  V30 2001 H 184.898 -1.43517 -4.09372 0
M  V30 2002 H 185.569 -0.585065 -5.48891 0
M  V30 2003 H 188.045 0.744167 -4.09391 0
M  V30 2004 H 186.921 1.41541 -5.30337 0
M  V30 2005 H 187.182 2.27228 -3.79236 0
M  V30 2006 N 186.241 1.57166 -0.116904 0
M  V30 2007 C 187.189 2.16457 0.851418 0
M  V30 2008 C 188.183 1.11323 1.27686 0
M  V30 2009 O 189.389 1.2963 1.24884 0
M  V30 2010 H 185.764 0.69271 0.292672 0
M  V30 2011 H 187.735 2.96605 0.32685 0
M  V30 2012 C 186.484 2.77689 2.09246 0
M  V30 2013 H 185.807 3.58285 1.77402 0
M  V30 2014 H 187.247 3.22716 2.7501 0
M  V30 2015 C 185.706 1.74667 2.88085 0
M  V30 2016 O 186.236 1.19877 3.83396 0
M  V30 2017 N 184.442 1.44656 2.52038 0
M  V30 2018 H 183.989 1.89402 1.74599 0
M  V30 2019 H 183.947 0.759675 3.05084 0
M  V30 2020 N 187.719 -0.156864 1.56817 0
M  V30 2021 C 188.944 -0.890331 1.87318 0
M  V30 2022 C 189.369 -1.74394 0.704855 0
M  V30 2023 O 188.727 -1.77972 -0.345786 0
M  V30 2024 C 188.775 -1.73102 3.16336 0
M  V30 2025 O 187.879 -2.83422 2.99576 0
M  V30 2026 H 187.22 -0.24857 0.615718 0
M  V30 2027 H 189.75 -0.150649 2.04045 0
M  V30 2028 H 189.76 -2.12803 3.48107 0
M  V30 2029 H 188.435 -1.10412 4.00976 0
M  V30 2030 H 187.012 -2.47199 2.7919 0
M  V30 2031 N 189.197 -1.51736 -0.425897 0
M  V30 2032 C 190.422 -1.69082 -1.20108 0
M  V30 2033 C 190.847 -0.392398 -1.83962 0
M  V30 2034 O 190.205 0.64858 -1.69302 0
M  V30 2035 C 190.253 -2.81604 -2.25237 0
M  V30 2036 O 189.357 -2.46004 -3.30992 0
M  V30 2037 H 188.698 -0.563408 -0.35138 0
M  V30 2038 H 191.228 -1.98358 -0.501512 0
M  V30 2039 H 191.238 -3.06025 -2.69838 0
M  V30 2040 H 189.913 -3.75817 -1.78142 0
M  V30 2041 H 188.49 -2.32195 -2.91787 0
M  V30 2042 N 190.675 0.682077 -1.42076 0
M  V30 2043 C 191.921 1.44283 -1.43366 0
M  V30 2044 C 192.276 1.92344 -0.0465775 0
M  V30 2045 O 191.569 1.67517 0.929973 0
M  V30 2046 C 191.763 2.66036 -2.38662 0
M  V30 2047 C 191.592 2.29889 -3.86499 0
M  V30 2048 C 190.362 2.19599 -4.55087 0
M  V30 2049 C 192.56 1.91999 -4.77117 0
M  V30 2050 N 190.542 1.76478 -5.87987 0
M  V30 2051 C 191.913 1.59741 -5.99068 0
M  V30 2052 C 193.968 1.78927 -4.64639 0
M  V30 2053 C 192.671 1.15723 -7.0993 0
M  V30 2054 C 194.697 1.36314 -5.75476 0
M  V30 2055 C 194.059 1.04975 -6.96534 0
M  V30 2056 H 190.158 0.524739 -0.579805 0
M  V30 2057 H 192.742 0.787834 -1.78048 0
M  V30 2058 H 190.913 3.29237 -2.06053 0
M  V30 2059 H 192.645 3.32588 -2.30581 0
M  V30 2060 H 189.4 2.38433 -4.09202 0
M  V30 2061 H 189.824 1.57362 -6.58458 0
M  V30 2062 H 194.466 2.01805 -3.7153 0
M  V30 2063 H 192.184 0.91591 -8.02893 0
M  V30 2064 H 195.77 1.26731 -5.6783 0
M  V30 2065 H 194.65 0.725017 -7.80841 0
M  V30 2066 N 192.153 1.28127 0.917671 0
M  V30 2067 C 193.085 1.07517 2.02417 0
M  V30 2068 C 194.098 0.0281099 1.62776 0
M  V30 2069 O 195.287 0.270748 1.76435 0
M  V30 2070 C 192.387 0.610957 3.33347 0
M  V30 2071 C 191.56 1.73255 4.01624 0
M  V30 2072 C 190.619 1.26238 5.10833 0
M  V30 2073 O 189.645 1.96389 5.34247 0
M  V30 2074 N 190.847 0.123448 5.80369 0
M  V30 2075 H 193.612 2.02806 2.20658 0
M  V30 2076 H 191.173 1.19827 1.08871 0
M  V30 2077 H 193.165 0.280101 4.0373 0
M  V30 2078 H 191.735 -0.24898 3.11607 0
M  V30 2079 H 190.955 2.23319 3.24842 0
M  V30 2080 H 192.243 2.48503 4.43986 0
M  V30 2081 H 191.641 -0.461847 5.63812 0
M  V30 2082 H 190.198 -0.148158 6.51632 0
M  V30 2083 N 193.631 -1.12557 1.10312 0
M  V30 2084 C 195.047 -1.36036 0.834649 0
M  V30 2085 C 195.247 -1.93946 -0.546539 0
M  V30 2086 O 194.303 -2.16484 -1.29966 0
M  V30 2087 C 195.616 -2.30312 1.9333 0
M  V30 2088 C 197.164 -2.43906 1.9616 0
M  V30 2089 C 197.639 -3.41496 3.05195 0
M  V30 2090 N 199.13 -3.49053 3.04494 0
M  V30 2091 C 199.865 -4.24471 3.85502 0
M  V30 2092 N 199.361 -5.02966 4.76442 0
M  V30 2093 N 201.154 -4.19864 3.73725 0
M  V30 2094 H 193.305 -0.733246 1.99342 0
M  V30 2095 H 195.568 -0.385234 0.866198 0
M  V30 2096 H 195.274 -1.94933 2.92735 0
M  V30 2097 H 195.148 -3.30421 1.81939 0
M  V30 2098 H 197.535 -2.78567 0.973886 0
M  V30 2099 H 197.616 -1.4369 2.11629 0
M  V30 2100 H 197.26 -3.07565 4.04186 0
M  V30 2101 H 197.19 -4.41539 2.86968 0
M  V30 2102 H 199.681 -2.93053 2.38596 0
M  V30 2103 H 199.994 -5.57846 5.34815 0
M  V30 2104 H 198.339 -5.02167 4.80472 0
M  V30 2105 H 201.53 -3.57623 3.02032 0
M  V30 2106 H 201.703 -4.78386 4.37093 0
M  V30 2107 N 195.109 -0.891671 -1.2995 0
M  V30 2108 C 196.056 -0.361736 -2.27948 0
M  V30 2109 C 197.026 0.551761 -1.56668 0
M  V30 2110 O 198.211 0.478736 -1.84696 0
M  V30 2111 C 195.351 0.411825 -3.42634 0
M  V30 2112 C 194.464 -0.531651 -4.28716 0
M  V30 2113 C 193.599 0.258167 -5.30572 0
M  V30 2114 C 192.638 -0.680349 -6.08307 0
M  V30 2115 N 191.775 0.0745613 -7.0206 0
M  V30 2116 H 196.615 -1.20254 -2.72659 0
M  V30 2117 H 194.152 -0.604352 -1.34112 0
M  V30 2118 H 196.11 0.876304 -4.07893 0
M  V30 2119 H 194.74 1.21715 -2.98974 0
M  V30 2120 H 193.792 -1.11463 -3.63703 0
M  V30 2121 H 195.104 -1.25038 -4.82874 0
M  V30 2122 H 194.258 0.784204 -6.0161 0
M  V30 2123 H 192.997 1.01008 -4.77126 0
M  V30 2124 H 192.002 -1.21796 -5.3614 0
M  V30 2125 H 193.227 -1.43145 -6.63842 0
M  V30 2126 H 191.173 0.808883 -6.50994 0
M  V30 2127 H 191.09 -0.584409 -7.53738 0
M  V30 2128 H 192.358 0.581123 -7.77331 0
M  V30 2129 N 196.587 1.43421 -0.653314 0
M  V30 2130 C 197.835 2.01414 -0.166415 0
M  V30 2131 C 198.156 1.51803 1.22397 0
M  V30 2132 O 197.426 0.730693 1.81763 0
M  V30 2133 H 196.006 0.744703 -0.0585319 0
M  V30 2134 H 198.668 1.75629 -0.845003 0
M  V30 2135 H 197.764 3.11734 -0.151111 0
M  V30 2136 N 198.065 0.39524 1.52563 0
M  V30 2137 C 199.29 -0.187456 2.06551 0
M  V30 2138 C 199.715 -1.39249 1.26457 0
M  V30 2139 O 199.073 -1.78947 0.291151 0
M  V30 2140 C 199.121 -0.529985 3.56684 0
M  V30 2141 O 198.225 -1.62307 3.79118 0
M  V30 2142 H 197.566 -0.0202537 0.663691 0
M  V30 2143 H 200.096 0.564426 1.96661 0
M  V30 2144 H 200.106 -0.792598 4.00227 0
M  V30 2145 H 198.781 0.350987 4.14416 0
M  V30 2146 H 197.358 -1.3537 3.47461 0
M  V30 2147 N 199.544 -1.57102 0.125237 0
M  V30 2148 C 200.955 -1.82384 -0.399142 0
M  V30 2149 C 201.306 -1.04276 -1.66195 0
M  V30 2150 O 200.431 -0.281269 -2.14564 0
M  V30 2151 C 201.026 -3.30821 -0.730932 0
M  V30 2152 C 199.585 -3.56762 -1.19992 0
M  V30 2153 C 198.732 -2.7649 -0.211792 0
M  V30 2154 H 201.683 -1.54786 0.350277 0
M  V30 2155 H 201.704 -3.4579 -1.58775 0
M  V30 2156 H 201.216 -3.87643 0.188345 0
M  V30 2157 H 199.317 -3.05305 -2.13588 0
M  V30 2158 H 199.43 -4.65317 -1.14093 0
M  V30 2159 H 197.794 -2.4489 -0.700085 0
M  V30 2160 H 198.577 -3.36073 0.700691 0
M  V30 2161 N 201.022 0.148545 -1.56898 0
M  V30 2162 C 201.932 1.20293 -2.01412 0
M  V30 2163 C 202.948 1.47107 -0.929273 0
M  V30 2164 O 204.124 1.58807 -1.23863 0
M  V30 2165 C 201.189 2.51682 -2.38447 0
M  V30 2166 C 200.25 2.32529 -3.60872 0
M  V30 2167 C 199.483 3.57653 -3.96132 0
M  V30 2168 O 199.706 4.63771 -3.32073 0
M  V30 2169 O 198.64 3.50408 -4.89385 0
M  V30 2170 H 202.466 0.855025 -2.91416 0
M  V30 2171 H 200.051 0.357151 -1.45068 0
M  V30 2172 H 201.933 3.29147 -2.63135 0
M  V30 2173 H 200.608 2.86006 -1.51599 0
M  V30 2174 H 199.515 1.53019 -3.41373 0
M  V30 2175 H 200.848 2.03121 -4.48333 0
M  V30 2176 N 202.5 1.5196 0.417844 0
M  V30 2177 C 203.916 1.40569 0.755816 0
M  V30 2178 C 204.116 0.503316 1.95113 0
M  V30 2179 O 203.172 -0.0341925 2.52477 0
M  V30 2180 C 204.485 2.82947 1.01791 0
M  V30 2181 C 206.033 2.92231 1.12116 0
M  V30 2182 C 206.508 4.35559 1.41608 0
M  V30 2183 N 207.999 4.38753 1.48491 0
M  V30 2184 C 208.734 5.46705 1.7292 0
M  V30 2185 N 208.23 6.64788 1.95011 0
M  V30 2186 N 210.023 5.34209 1.74863 0
M  V30 2187 H 202.174 2.09168 -0.369098 0
M  V30 2188 H 204.437 0.942409 -0.102809 0
M  V30 2189 H 204.143 3.5106 0.212081 0
M  V30 2190 H 204.017 3.23462 1.94042 0
M  V30 2191 H 206.404 2.24304 1.9176 0
M  V30 2192 H 206.485 2.55185 0.177225 0
M  V30 2193 H 206.129 5.04042 0.624848 0
M  V30 2194 H 206.059 4.70133 2.37239 0
M  V30 2195 H 208.55 3.5363 1.33244 0
M  V30 2196 H 208.863 7.42845 2.13076 0
M  V30 2197 H 207.208 6.67869 1.92293 0
M  V30 2198 H 210.399 4.40937 1.57137 0
M  V30 2199 H 210.572 6.18415 1.93563 0
M  V30 2200 N 203.978 -0.674533 1.42435 0
M  V30 2201 C 204.908 -1.80009 1.48724 0
M  V30 2202 C 205.889 -1.6659 0.343793 0
M  V30 2203 O 207.074 -1.86007 0.558137 0
M  V30 2204 C 204.204 -3.18306 1.38919 0
M  V30 2205 C 203.158 -3.46461 2.51294 0
M  V30 2206 C 202.484 -4.84335 2.26547 0
M  V30 2207 C 203.784 -3.43328 3.93603 0
M  V30 2208 H 205.478 -1.75004 2.42928 0
M  V30 2209 H 203.024 -0.840533 1.16923 0
M  V30 2210 H 204.977 -3.9678 1.41927 0
M  V30 2211 H 203.701 -3.2399 0.412094 0
M  V30 2212 H 202.36 -2.70348 2.47604 0
M  V30 2213 H 202.008 -4.86669 1.2713 0
M  V30 2214 H 201.708 -5.04136 3.01861 0
M  V30 2215 H 203.232 -5.65094 2.31304 0
M  V30 2216 H 204.646 -4.11772 3.98894 0
M  V30 2217 H 203.043 -3.74664 4.68771 0
M  V30 2218 H 204.113 -2.41897 4.20255 0
M  V30 2219 N 205.456 -1.28612 -0.910864 0
M  V30 2220 C 206.403 -1.12786 -2.01365 0
M  V30 2221 C 207.373 -0.024201 -1.66082 0
M  V30 2222 O 208.558 -0.189667 -1.89855 0
M  V30 2223 C 205.698 -0.798743 -3.35729 0
M  V30 2224 C 204.811 -1.98173 -3.83864 0
M  V30 2225 C 203.946 -1.59298 -5.06752 0
M  V30 2226 C 202.985 -2.74245 -5.47226 0
M  V30 2227 N 202.122 -2.35842 -6.61304 0
M  V30 2228 H 206.962 -2.07142 -2.14234 0
M  V30 2229 H 204.499 -1.03093 -1.0493 0
M  V30 2230 H 206.457 -0.588662 -4.13026 0
M  V30 2231 H 205.087 0.10789 -3.2262 0
M  V30 2232 H 204.139 -2.30386 -3.02699 0
M  V30 2233 H 205.451 -2.84343 -4.09818 0
M  V30 2234 H 204.605 -1.34513 -5.916 0
M  V30 2235 H 203.344 -0.702618 -4.82612 0
M  V30 2236 H 202.349 -2.99725 -4.60918 0
M  V30 2237 H 203.574 -3.63928 -5.73353 0
M  V30 2238 H 201.52 -1.49279 -6.38789 0
M  V30 2239 H 201.437 -3.15546 -6.86998 0
M  V30 2240 H 202.705 -2.14348 -7.4945 0
M  V30 2241 N 206.934 1.1197 -1.10907 0
M  V30 2242 C 208.18 1.8386 -0.855773 0
M  V30 2243 C 208.513 1.84134 0.617103 0
M  V30 2244 O 207.788 1.29041 1.45529 0
M  V30 2245 C 208.071 3.31305 -1.411 0
M  V30 2246 C 207.924 3.39456 -2.9511 0
M  V30 2247 C 209.243 4.2721 -1.05736 0
M  V30 2248 H 206.362 0.667545 -0.312334 0
M  V30 2249 H 209.004 1.31331 -1.37303 0
M  V30 2250 H 207.154 3.76169 -0.97105 0
M  V30 2251 H 208.826 3.03191 -3.47668 0
M  V30 2252 H 207.069 2.79849 -3.31462 0
M  V30 2253 H 207.74 4.43209 -3.29044 0
M  V30 2254 H 210.216 3.90497 -1.43706 0
M  V30 2255 H 209.092 5.28775 -1.47269 0
M  V30 2256 H 209.353 4.42088 0.0325958 0
M  V30 2257 N 208.412 0.89855 1.29475 0
M  V30 2258 C 209.345 0.319981 2.25945 0
M  V30 2259 C 210.323 -0.567189 1.52387 0
M  V30 2260 O 211.507 -0.514254 1.8135 0
M  V30 2261 C 208.634 -0.544013 3.34303 0
M  V30 2262 C 207.68 0.275682 4.25608 0
M  V30 2263 S 208.513 1.67272 5.08704 0
M  V30 2264 C 209.669 0.815621 6.20563 0
M  V30 2265 H 209.902 1.13767 2.74671 0
M  V30 2266 H 207.435 0.69882 1.3768 0
M  V30 2267 H 209.393 -1.03673 3.97193 0
M  V30 2268 H 208.054 -1.33593 2.84274 0
M  V30 2269 H 207.247 -0.384263 5.02533 0
M  V30 2270 H 206.849 0.701496 3.67362 0
M  V30 2271 H 209.141 0.0385042 6.77489 0
M  V30 2272 H 210.084 1.55691 6.90772 0
M  V30 2273 H 210.492 0.370516 5.63283 0
M  V30 2274 N 209.89 -1.43072 0.660911 0
M  V30 2275 C 211.136 -2.0202 0.177708 0
M  V30 2276 C 211.469 -1.52066 -1.20787 0
M  V30 2277 O 210.744 -0.716987 -1.80802 0
M  V30 2278 C 211.027 -3.59561 0.197019 0
M  V30 2279 C 210.88 -4.19727 1.61706 0
M  V30 2280 C 212.199 -4.37664 -0.462396 0
M  V30 2281 H 209.318 -0.734034 0.0660494 0
M  V30 2282 H 211.96 -1.70272 0.843058 0
M  V30 2283 H 210.11 -3.86739 -0.369527 0
M  V30 2284 H 211.782 -4.03553 2.23479 0
M  V30 2285 H 210.025 -3.76084 2.16201 0
M  V30 2286 H 210.696 -5.28834 1.58237 0
M  V30 2287 H 213.172 -4.16095 0.0197215 0
M  V30 2288 H 212.048 -5.47305 -0.418188 0
M  V30 2289 H 212.309 -4.14493 -1.53778 0
M  V30 2290 N 211.368 -0.403325 -1.52352 0
M  V30 2291 C 212.3 0.4603 -2.2453 0
M  V30 2292 C 213.313 1.01505 -1.27282 0
M  V30 2293 O 214.502 0.914982 -1.53266 0
M  V30 2294 C 211.602 1.65208 -2.95905 0
M  V30 2295 C 210.775 1.22224 -4.19976 0
M  V30 2296 C 209.834 2.28028 -4.74226 0
M  V30 2297 O 208.86 1.88857 -5.36956 0
M  V30 2298 N 210.062 3.6012 -4.55295 0
M  V30 2299 H 212.827 -0.158156 -2.99282 0
M  V30 2300 H 210.388 -0.230402 -1.60252 0
M  V30 2301 H 212.38 2.35541 -3.29093 0
M  V30 2302 H 210.95 2.17658 -2.24374 0
M  V30 2303 H 210.17 0.34725 -3.92668 0
M  V30 2304 H 211.458 0.911924 -5.00561 0
M  V30 2305 H 210.856 3.94698 -4.05253 0
M  V30 2306 H 209.413 4.26447 -4.92936 0
M  V30 2307 N 212.846 1.57033 -0.133567 0
M  V30 2308 C 214.095 1.94861 0.520768 0
M  V30 2309 C 214.408 1.02012 1.66892 0
M  V30 2310 O 215.614 1.29365 2.38699 0
M  V30 2311 C 214.07 3.46362 0.977809 0
M  V30 2312 C 213.678 4.47773 -0.142674 0
M  V30 2313 C 215.422 3.93083 1.60269 0
M  V30 2314 C 213.329 5.90468 0.331883 0
M  V30 2315 H 212.259 0.727453 0.198315 0
M  V30 2316 H 214.91 1.82227 -0.215759 0
M  V30 2317 H 213.292 3.54282 1.7692 0
M  V30 2318 H 214.466 4.51536 -0.919317 0
M  V30 2319 H 212.781 4.10891 -0.675124 0
M  V30 2320 H 215.378 4.97121 1.96914 0
M  V30 2321 H 215.721 3.33876 2.48662 0
M  V30 2322 H 216.254 3.88025 0.876453 0
M  V30 2323 H 212.993 6.53463 -0.516341 0
M  V30 2324 H 212.513 5.90094 1.07469 0
M  V30 2325 H 214.192 6.42179 0.788332 0
M  V30 2326 N 214.325 -0.140222 1.56975 0
M  V30 2327 C 215.273 -1.19207 1.99731 0
M  V30 2328 C 216.267 -1.44089 0.890777 0
M  V30 2329 O 217.473 -1.44301 1.07597 0
M  V30 2330 H 213.848 -0.40142 0.635898 0
M  V30 2331 H 215.819 -0.804813 2.87342 0
M  V30 2332 C 214.568 -2.51617 2.39967 0
M  V30 2333 H 213.891 -2.33303 3.24669 0
M  V30 2334 H 215.331 -3.23827 2.73701 0
M  V30 2335 C 213.79 -3.12654 1.25496 0
M  V30 2336 O 214.32 -3.97786 0.559371 0
M  V30 2337 N 212.526 -2.72206 1.01746 0
M  V30 2338 H 212.073 -2.03074 1.58489 0
M  V30 2339 H 212.031 -3.13377 0.253461 0
M  V30 2340 N 215.803 -1.52179 -0.40978 0
M  V30 2341 C 217.031 -1.70054 -1.17853 0
M  V30 2342 C 217.446 -0.409735 -1.843 0
M  V30 2343 O 216.803 0.614183 -1.71855 0
M  V30 2344 C 216.854 -2.83568 -2.24213 0
M  V30 2345 O 216.575 -4.0765 -1.60478 0
M  V30 2346 C 218.076 -3.12947 -3.13973 0
M  V30 2347 H 215.296 -0.569917 -0.354169 0
M  V30 2348 H 217.84 -1.98734 -0.482198 0
M  V30 2349 H 215.995 -2.57409 -2.89516 0
M  V30 2350 H 216.409 -4.70899 -2.30986 0
M  V30 2351 H 217.883 -3.95889 -3.84677 0
M  V30 2352 H 218.36 -2.26472 -3.76307 0
M  V30 2353 H 218.966 -3.40868 -2.5434 0
M  V30 2354 N 217.281 0.66697 -1.42791 0
M  V30 2355 C 218.506 1.46004 -1.47301 0
M  V30 2356 C 218.931 1.87894 -0.0880317 0
M  V30 2357 O 218.289 1.56502 0.915253 0
M  V30 2358 C 218.337 2.68031 -2.41229 0
M  V30 2359 O 217.441 3.6659 -1.88906 0
M  V30 2360 H 216.782 0.43832 -0.49877 0
M  V30 2361 H 219.312 0.817391 -1.87563 0
M  V30 2362 H 219.322 3.1601 -2.58073 0
M  V30 2363 H 217.997 2.36883 -3.41847 0
M  V30 2364 H 216.574 3.25661 -1.81656 0
M  V30 2365 N 218.759 1.29093 0.90403 0
M  V30 2366 C 220.007 1.16583 1.65085 0
M  V30 2367 C 220.328 -0.283933 1.92922 0
M  V30 2368 O 219.598 -1.19509 1.55224 0
M  V30 2369 H 218.178 0.428467 0.611903 0
M  V30 2370 H 220.84 1.61959 1.08422 0
M  V30 2371 H 219.936 1.71266 2.6091 0
M  V30 2372 N 220.237 -1.11381 1.11499 0
M  V30 2373 C 221.147 -2.21019 0.786628 0
M  V30 2374 C 222.163 -1.72597 -0.220507 0
M  V30 2375 O 223.339 -2.01321 -0.0565251 0
M  V30 2376 C 220.404 -3.459 0.235333 0
M  V30 2377 C 219.465 -4.09107 1.30115 0
M  V30 2378 C 218.698 -5.28027 0.776068 0
M  V30 2379 O 218.921 -5.6904 -0.393661 0
M  V30 2380 O 217.855 -5.81835 1.54114 0
M  V30 2381 H 221.681 -2.51521 1.70209 0
M  V30 2382 H 219.266 -1.19928 0.890928 0
M  V30 2383 H 221.148 -4.21346 -0.067715 0
M  V30 2384 H 219.823 -3.17049 -0.652828 0
M  V30 2385 H 218.73 -3.35391 1.65722 0
M  V30 2386 H 220.063 -4.42139 2.16273 0
M  V30 2387 N 221.715 -0.905404 -1.28997 0
M  V30 2388 C 222.625 -0.392246 -2.31298 0
M  V30 2389 C 223.641 0.515889 -1.66176 0
M  V30 2390 O 224.817 0.404093 -1.97304 0
M  V30 2391 C 221.882 0.36686 -3.44754 0
M  V30 2392 C 220.943 -0.573485 -4.25452 0
M  V30 2393 C 220.176 0.149488 -5.33491 0
M  V30 2394 O 220.399 1.37255 -5.5364 0
M  V30 2395 O 219.333 -0.510919 -5.99728 0
M  V30 2396 H 223.159 -1.2411 -2.77183 0
M  V30 2397 H 220.744 -0.669926 -1.33538 0
M  V30 2398 H 222.626 0.795907 -4.13816 0
M  V30 2399 H 221.301 1.19169 -3.00966 0
M  V30 2400 H 220.208 -1.05176 -3.59011 0
M  V30 2401 H 221.541 -1.36489 -4.72897 0
M  V30 2402 N 223.193 1.4272 -0.668489 0
M  V30 2403 C 224.418 2.06484 -0.194758 0
M  V30 2404 C 224.843 1.49862 1.13679 0
M  V30 2405 O 224.201 0.614582 1.70565 0
M  V30 2406 C 224.249 3.60353 -0.133546 0
M  V30 2407 O 223.353 4.02464 0.899806 0
M  V30 2408 H 222.694 0.656137 -0.10188 0
M  V30 2409 H 225.224 1.82964 -0.915722 0
M  V30 2410 H 225.234 4.07976 0.0447041 0
M  V30 2411 H 223.909 4.00938 -1.1055 0
M  V30 2412 H 222.486 3.66402 0.693109 0
M  V30 2413 N 224.671 0.411399 1.52136 0
M  V30 2414 C 225.618 -0.412975 2.27075 0
M  V30 2415 C 226.588 -1.03912 1.29582 0
M  V30 2416 O 227.773 -1.06296 1.58448 0
M  V30 2417 C 224.913 -1.52247 3.09701 0
M  V30 2418 C 224.026 -0.917021 4.22155 0
M  V30 2419 C 223.161 -1.9994 4.92135 0
M  V30 2420 C 222.2 -1.37101 5.96548 0
M  V30 2421 N 221.337 -2.39364 6.60038 0
M  V30 2422 H 226.177 0.232499 2.97092 0
M  V30 2423 H 223.714 0.126496 1.46555 0
M  V30 2424 H 225.672 -2.17674 3.55913 0
M  V30 2425 H 224.302 -2.13794 2.41851 0
M  V30 2426 H 223.354 -0.151742 3.80097 0
M  V30 2427 H 224.666 -0.418006 4.97045 0
M  V30 2428 H 223.82 -2.73088 5.41763 0
M  V30 2429 H 222.559 -2.53208 4.16818 0
M  V30 2430 H 221.564 -0.624873 5.46237 0
M  V30 2431 H 222.789 -0.845998 6.7381 0
M  V30 2432 H 220.735 -2.91759 5.87548 0
M  V30 2433 H 220.652 -1.9428 7.3061 0
M  V30 2434 H 221.92 -3.12074 7.14304 0
M  V30 2435 N 226.149 -1.5696 0.141893 0
M  V30 2436 C 227.099 -2.13074 -0.811383 0
M  V30 2437 C 228.083 -1.05726 -1.21288 0
M  V30 2438 O 229.275 -1.31914 -1.18015 0
M  V30 2439 C 226.404 -2.75186 -2.0525 0
M  V30 2440 C 225.49 -3.8965 -1.67432 0
M  V30 2441 N 225.881 -4.95733 -1.0041 0
M  V30 2442 C 224.179 -4.00262 -1.96739 0
M  V30 2443 C 224.88 -5.75858 -0.822345 0
M  V30 2444 N 223.856 -5.26452 -1.3546 0
M  V30 2445 H 227.658 -2.92465 -0.290031 0
M  V30 2446 H 225.172 -1.6229 -0.0598218 0
M  V30 2447 H 227.169 -3.13745 -2.74535 0
M  V30 2448 H 225.829 -1.97266 -2.57907 0
M  V30 2449 H 226.84 -5.13607 -0.665441 0
M  V30 2450 H 223.517 -3.33412 -2.51282 0
M  V30 2451 H 224.907 -6.71254 -0.294496 0
M  V30 2452 N 227.627 0.131896 -1.57047 0
M  V30 2453 C 228.875 0.840269 -1.83804 0
M  V30 2454 C 229.196 1.81017 -0.72512 0
M  V30 2455 O 228.466 1.94272 0.251995 0
M  V30 2456 H 227.046 0.313294 -0.678127 0
M  V30 2457 H 229.708 0.122294 -1.94516 0
M  V30 2458 H 228.804 1.39335 -2.79271 0
M  V30 2459 N 229.106 1.52395 0.401703 0
M  V30 2460 C 230.036 1.79231 1.49661 0
M  V30 2461 C 231.017 0.643654 1.57452 0
M  V30 2462 O 232.202 0.889989 1.72606 0
M  V30 2463 C 229.332 1.94971 2.87409 0
M  V30 2464 C 228.286 3.10604 2.94465 0
M  V30 2465 C 227.612 3.11577 4.34538 0
M  V30 2466 C 228.912 4.49921 2.6527 0
M  V30 2467 H 230.606 2.70917 1.27454 0
M  V30 2468 H 228.152 1.30362 0.6117 0
M  V30 2469 H 230.105 2.12328 3.63999 0
M  V30 2470 H 228.829 0.999632 3.10926 0
M  V30 2471 H 227.488 2.93009 2.20321 0
M  V30 2472 H 227.136 2.14277 4.55076 0
M  V30 2473 H 226.836 3.89247 4.40183 0
M  V30 2474 H 228.36 3.31073 5.13053 0
M  V30 2475 H 229.774 4.67683 3.31581 0
M  V30 2476 H 228.171 5.29564 2.82281 0
M  V30 2477 H 229.241 4.57507 1.60671 0
M  V30 2478 N 230.584 -0.659388 1.43143 0
M  V30 2479 C 231.995 -1.24041 1.39537 0
M  V30 2480 C 232.346 -1.95963 0.0963364 0
M  V30 2481 O 231.471 -2.00892 -0.804438 0
M  V30 2482 C 232.066 -2.25601 2.52764 0
M  V30 2483 C 230.625 -2.79195 2.52443 0
M  V30 2484 C 229.772 -1.53743 2.30778 0
M  V30 2485 H 232.723 -0.451792 1.52133 0
M  V30 2486 H 232.744 -3.07651 2.23899 0
M  V30 2487 H 232.256 -1.73226 3.47296 0
M  V30 2488 H 230.357 -3.35649 1.61773 0
M  V30 2489 H 230.47 -3.2716 3.50004 0
M  V30 2490 H 228.834 -1.80869 1.79328 0
M  V30 2491 H 229.617 -1.03312 3.27386 0
M  V30 2492 N 232.062 -1.29571 -0.897171 0
M  V30 2493 C 233.473 -1.15964 -1.46319 0
M  V30 2494 C 233.824 0.244267 -1.94674 0
M  V30 2495 O 232.949 1.13998 -1.83939 0
M  V30 2496 C 233.544 -2.09906 -2.65942 0
M  V30 2497 C 232.103 -2.00314 -3.18671 0
M  V30 2498 C 231.25 -2.00687 -1.91363 0
M  V30 2499 H 234.201 -1.42019 -0.708268 0
M  V30 2500 H 234.222 -1.67276 -3.41759 0
M  V30 2501 H 233.734 -3.12075 -2.30718 0
M  V30 2502 H 231.835 -1.01242 -3.58582 0
M  V30 2503 H 231.948 -2.88102 -3.82798 0
M  V30 2504 H 230.312 -1.45319 -2.09175 0
M  V30 2505 H 231.095 -3.04566 -1.58413 0
M  V30 2506 N 233.54 1.10788 -1.12088 0
M  V30 2507 C 234.765 1.87002 -0.896949 0
M  V30 2508 C 235.19 1.79933 0.548261 0
M  V30 2509 O 234.548 1.16662 1.38779 0
M  V30 2510 C 234.596 3.3349 -1.37174 0
M  V30 2511 O 233.7 4.08745 -0.547831 0
M  V30 2512 H 233.041 0.580397 -0.322545 0
M  V30 2513 H 235.571 1.39996 -1.49206 0
M  V30 2514 H 235.581 3.84339 -1.36922 0
M  V30 2515 H 234.256 3.37951 -2.42408 0
M  V30 2516 H 232.833 3.6776 -0.617034 0
M  V30 2517 N 235.018 0.912232 1.28515 0
M  V30 2518 C 235.928 0.404506 2.31086 0
M  V30 2519 C 236.944 -0.50707 1.66448 0
M  V30 2520 O 238.12 -0.393624 1.97516 0
M  V30 2521 C 235.185 -0.348572 3.44943 0
M  V30 2522 C 234.246 0.59604 4.25142 0
M  V30 2523 C 233.479 -0.121194 5.33562 0
M  V30 2524 O 233.702 -1.34317 5.5436 0
M  V30 2525 O 232.636 0.542716 5.99448 0
M  V30 2526 H 236.462 1.25579 2.76521 0
M  V30 2527 H 234.047 0.676998 1.33181 0
M  V30 2528 H 235.929 -0.77395 4.14232 0
M  V30 2529 H 234.604 -1.17571 3.01594 0
M  V30 2530 H 233.511 1.07079 3.58448 0
M  V30 2531 H 234.844 1.38995 4.72167 0
M  V30 2532 N 236.496 -1.42363 0.676048 0
M  V30 2533 C 237.724 -2.05859 0.207268 0
M  V30 2534 C 238.139 -1.50796 -1.13605 0
M  V30 2535 O 237.496 -0.648265 -1.70598 0
M  V30 2536 C 237.547 -3.61248 0.134975 0
M  V30 2537 O 237.268 -4.1427 1.42521 0
M  V30 2538 C 238.769 -4.41859 -0.357151 0
M  V30 2539 H 235.989 -0.663431 0.100503 0
M  V30 2540 H 238.533 -1.82479 0.923136 0
M  V30 2541 H 236.688 -3.83735 -0.531588 0
M  V30 2542 H 237.102 -5.0815 1.29939 0
M  V30 2543 H 238.576 -5.50847 -0.356641 0
M  V30 2544 H 239.053 -4.16536 -1.39264 0
M  V30 2545 H 239.659 -4.24392 0.27772 0
M  V30 2546 N 237.974 -0.419461 -1.51915 0
M  V30 2547 C 239.223 0.154346 -2.01109 0
M  V30 2548 C 239.536 1.45338 -1.30905 0
M  V30 2549 O 240.742 2.10906 -1.7097 0
M  V30 2550 C 239.198 0.325615 -3.58424 0
M  V30 2551 C 238.806 -0.961934 -4.37551 0
M  V30 2552 C 240.55 0.854155 -4.15818 0
M  V30 2553 C 238.457 -0.757287 -5.86531 0
M  V30 2554 H 237.387 0.0614563 -0.751491 0
M  V30 2555 H 240.038 -0.54649 -1.75173 0
M  V30 2556 H 238.42 1.08903 -3.80731 0
M  V30 2557 H 239.594 -1.7323 -4.26999 0
M  V30 2558 H 237.909 -1.41766 -3.91524 0
M  V30 2559 H 240.506 1.02346 -5.24814 0
M  V30 2560 H 240.849 1.83172 -3.73837 0
M  V30 2561 H 241.382 0.149528 -3.97519 0
M  V30 2562 H 238.121 -1.70671 -6.32892 0
M  V30 2563 H 237.641 -0.0264061 -5.99794 0
M  V30 2564 H 239.32 -0.403482 -6.45741 0
M  V30 2565 N 239.452 1.56882 -0.150215 0
M  V30 2566 C 240.415 2.1573 0.774157 0
M  V30 2567 C 241.415 1.0999 1.17298 0
M  V30 2568 O 242.605 1.35613 1.09338 0
M  V30 2569 C 239.737 2.72302 2.05096 0
M  V30 2570 H 240.93 2.98752 0.262201 0
M  V30 2571 H 238.483 1.55985 0.099248 0
M  V30 2572 H 239.218 1.92956 2.6065 0
M  V30 2573 H 239.003 3.49665 1.77416 0
M  V30 2574 H 240.493 3.17632 2.71109 0
M  V30 2575 N 240.93 -0.123565 1.57115 0
M  V30 2576 C 242.179 -0.830704 1.83799 0
M  V30 2577 C 242.492 -1.81259 0.735158 0
M  V30 2578 O 243.698 -2.56558 0.888278 0
M  V30 2579 C 242.154 -1.52802 3.25852 0
M  V30 2580 C 241.762 -0.587356 4.44133 0
M  V30 2581 C 243.506 -2.22056 3.61789 0
M  V30 2582 C 241.413 -1.28764 5.77212 0
M  V30 2583 H 240.343 -0.313967 0.685522 0
M  V30 2584 H 242.994 -0.0834359 1.8331 0
M  V30 2585 H 241.376 -2.32175 3.20797 0
M  V30 2586 H 242.55 0.172829 4.60476 0
M  V30 2587 H 240.865 -0.00201892 4.164 0
M  V30 2588 H 243.462 -2.75131 4.58483 0
M  V30 2589 H 243.805 -2.99644 2.88997 0
M  V30 2590 H 244.338 -1.49576 3.68608 0
M  V30 2591 H 241.077 -0.55314 6.53162 0
M  V30 2592 H 240.597 -2.01995 5.64764 0
M  V30 2593 H 242.276 -1.8221 6.20813 0
M  V30 2594 N 242.408 -1.52605 -0.393616 0
M  V30 2595 C 243.654 -1.67672 -1.14079 0
M  V30 2596 C 243.987 -0.413121 -1.89755 0
M  V30 2597 O 243.262 0.588952 -1.85369 0
M  V30 2598 C 243.545 -2.9088 -2.12276 0
M  V30 2599 C 243.398 -4.27329 -1.40394 0
M  V30 2600 C 244.717 -3.09628 -3.12759 0
M  V30 2601 H 241.836 -0.610168 -0.413356 0
M  V30 2602 H 244.478 -1.85193 -0.424696 0
M  V30 2603 H 242.628 -2.76073 -2.73342 0
M  V30 2604 H 244.3 -4.53894 -0.82327 0
M  V30 2605 H 242.543 -4.2802 -0.705801 0
M  V30 2606 H 243.214 -5.09615 -2.12123 0
M  V30 2607 H 245.69 -3.23436 -2.61779 0
M  V30 2608 H 244.566 -3.97322 -3.78717 0
M  V30 2609 H 244.827 -2.23637 -3.81365 0
M  V30 2610 N 243.887 0.651787 -1.4349 0
M  V30 2611 C 244.797 1.79368 -1.5121 0
M  V30 2612 C 245.813 1.69361 -0.399093 0
M  V30 2613 O 246.989 1.90505 -0.653431 0
M  V30 2614 C 244.054 3.15653 -1.43401 0
M  V30 2615 C 243.115 3.37446 -2.65384 0
M  V30 2616 C 242.348 4.67229 -2.57939 0
M  V30 2617 O 242.571 5.46676 -1.62792 0
M  V30 2618 O 241.505 4.90773 -3.48462 0
M  V30 2619 H 245.331 1.7581 -2.47638 0
M  V30 2620 H 242.916 0.810447 -1.25507 0
M  V30 2621 H 244.798 3.96935 -1.41494 0
M  V30 2622 H 243.473 3.19798 -0.501085 0
M  V30 2623 H 242.38 2.55923 -2.72863 0
M  V30 2624 H 243.713 3.38148 -3.57654 0
M  V30 2625 N 245.365 1.30045 0.890287 0
M  V30 2626 C 246.315 1.12592 1.9826 0
M  V30 2627 C 247.299 0.0426021 1.60844 0
M  V30 2628 O 248.491 0.265346 1.75 0
M  V30 2629 C 245.62 0.814301 3.33503 0
M  V30 2630 C 244.706 1.93761 3.7725 0
M  V30 2631 N 245.097 3.18232 3.93143 0
M  V30 2632 C 243.395 1.83277 4.06602 0
M  V30 2633 C 244.096 3.9158 4.30163 0
M  V30 2634 N 243.072 3.19591 4.3973 0
M  V30 2635 H 246.874 2.07003 2.08631 0
M  V30 2636 H 244.388 1.21307 1.07974 0
M  V30 2637 H 246.385 0.67029 4.11476 0
M  V30 2638 H 245.045 -0.121797 3.24471 0
M  V30 2639 H 246.056 3.53581 3.78419 0
M  V30 2640 H 242.733 0.97001 4.06075 0
M  V30 2641 H 244.123 4.98744 4.50226 0
M  V30 2642 N 246.843 -1.10192 1.12674 0
M  V30 2643 C 248.092 -1.81573 0.8783 0
M  V30 2644 C 248.405 -1.86249 -0.597557 0
M  V30 2645 O 249.611 -2.5386 -0.962681 0
M  V30 2646 C 248.067 -3.26149 1.52167 0
M  V30 2647 C 247.675 -3.29763 3.03249 0
M  V30 2648 C 249.419 -4.0234 1.3536 0
M  V30 2649 C 247.326 -4.68815 3.60508 0
M  V30 2650 H 246.256 -0.680394 0.324931 0
M  V30 2651 H 248.907 -1.23902 1.35353 0
M  V30 2652 H 247.289 -3.83832 0.974104 0
M  V30 2653 H 248.463 -2.8189 3.6452 0
M  V30 2654 H 246.778 -2.67059 3.19481 0
M  V30 2655 H 249.375 -5.05058 1.75559 0
M  V30 2656 H 249.718 -4.15235 0.297554 0
M  V30 2657 H 250.251 -3.51079 1.87052 0
M  V30 2658 H 246.99 -4.61121 4.65884 0
M  V30 2659 H 246.51 -5.17045 3.04014 0
M  V30 2660 H 248.189 -5.37785 3.59717 0
M  V30 2661 N 248.321 -0.919034 -1.28029 0
M  V30 2662 C 249.269 -0.401753 -2.29104 0
M  V30 2663 C 250.263 0.509354 -1.61561 0
M  V30 2664 O 251.469 0.390014 -1.75724 0
M  V30 2665 H 247.844 -0.111331 -0.743713 0
M  V30 2666 H 249.815 -1.2672 -2.70156 0
M  V30 2667 C 248.564 0.338148 -3.46052 0
M  V30 2668 H 247.887 -0.353732 -3.98232 0
M  V30 2669 H 249.327 0.664653 -4.18758 0
M  V30 2670 C 247.786 1.54798 -2.99231 0
M  V30 2671 O 248.316 2.64696 -3.02157 0
M  V30 2672 N 246.522 1.3968 -2.54829 0
M  V30 2673 H 246.069 0.502698 -2.52647 0
M  V30 2674 H 246.027 2.20755 -2.23863 0
M  V30 2675 N 249.799 1.42003 -0.683588 0
M  V30 2676 C 250.762 2.29191 -0.0198243 0
M  V30 2677 C 251.762 1.43773 0.72013 0
M  V30 2678 O 252.952 1.65061 0.556815 0
M  V30 2679 C 250.084 3.26435 0.982487 0
M  V30 2680 H 251.277 2.8938 -0.787345 0
M  V30 2681 H 248.83 1.49789 -0.446418 0
M  V30 2682 H 249.565 2.71203 1.77819 0
M  V30 2683 H 249.35 3.89449 0.455182 0
M  V30 2684 H 250.84 3.918 1.44508 0
M  V30 2685 N 251.277 0.427512 1.51691 0
M  V30 2686 C 252.224 -0.388867 2.275 0
M  V30 2687 C 253.194 -1.02532 1.30677 0
M  V30 2688 O 254.379 -1.0461 1.59566 0
M  V30 2689 C 251.519 -1.48954 3.11298 0
M  V30 2690 C 250.632 -0.872194 4.23104 0
M  V30 2691 C 249.767 -1.94709 4.94228 0
M  V30 2692 C 248.806 -1.30766 5.97969 0
M  V30 2693 N 247.943 -2.32349 6.62539 0
M  V30 2694 H 252.783 0.263997 2.96828 0
M  V30 2695 H 250.32 0.142033 1.46413 0
M  V30 2696 H 252.278 -2.13887 3.58201 0
M  V30 2697 H 250.908 -2.11217 2.44105 0
M  V30 2698 H 249.96 -0.111419 3.80237 0
M  V30 2699 H 251.272 -0.365264 4.97461 0
M  V30 2700 H 250.426 -2.67327 5.44629 0
M  V30 2701 H 249.165 -2.48773 4.1948 0
M  V30 2702 H 248.17 -0.566902 5.4687 0
M  V30 2703 H 249.395 -0.774483 6.74669 0
M  V30 2704 H 247.341 -2.85511 5.90609 0
M  V30 2705 H 247.258 -1.8652 7.3263 0
M  V30 2706 H 248.526 -3.04481 7.17574 0
M  V30 2707 N 252.755 -1.56801 0.158532 0
M  V30 2708 C 253.995 -1.98383 -0.49229 0
M  V30 2709 C 254.359 -1.04184 -1.61275 0
M  V30 2710 O 255.56 -1.34856 -2.32524 0
M  V30 2711 C 253.831 -3.4385 -0.974766 0
M  V30 2712 S 255.39 -4.07459 -1.62857 0
M  V30 2713 H 252.208 -0.693041 -0.158794 0
M  V30 2714 H 254.81 -1.93856 0.252974 0
M  V30 2715 H 253.514 -4.10131 -0.148688 0
M  V30 2716 H 253.045 -3.52115 -1.75438 0
M  V30 2717 H 255.06 -4.01458 -2.91627 0
M  V30 2718 N 254.233 0.115231 -1.57178 0
M  V30 2719 C 255.644 0.67197 -1.74188 0
M  V30 2720 C 255.995 1.80125 -0.777777 0
M  V30 2721 O 255.12 2.16346 0.0484376 0
M  V30 2722 C 255.715 1.22573 -3.1585 0
M  V30 2723 C 254.274 1.72872 -3.34353 0
M  V30 2724 C 253.421 0.629972 -2.70049 0
M  V30 2725 H 256.372 -0.110712 -1.58313 0
M  V30 2726 H 256.393 2.09535 -3.17609 0
M  V30 2727 H 255.905 0.403598 -3.85996 0
M  V30 2728 H 254.006 2.5755 -2.69256 0
M  V30 2729 H 254.119 1.83557 -4.42542 0
M  V30 2730 H 252.483 1.0645 -2.31388 0
M  V30 2731 H 253.266 -0.181241 -3.42821 0
M  V30 2732 N 255.711 1.52812 0.385517 0
M  V30 2733 C 256.659 1.78482 1.49155 0
M  V30 2734 C 257.653 0.652914 1.56312 0
M  V30 2735 O 258.859 0.835464 1.59436 0
M  V30 2736 H 255.234 0.5648 0.496493 0
M  V30 2737 H 257.205 2.71095 1.24699 0
M  V30 2738 C 255.954 1.97378 2.86247 0
M  V30 2739 H 255.277 2.83907 2.81491 0
M  V30 2740 H 256.717 2.19327 3.62866 0
M  V30 2741 C 255.176 0.74728 3.28508 0
M  V30 2742 O 255.706 -0.0736232 4.01633 0
M  V30 2743 N 253.912 0.576396 2.84826 0
M  V30 2744 H 253.459 1.24555 2.25486 0
M  V30 2745 H 253.417 -0.24288 3.1346 0
M  V30 2746 N 257.189 -0.644168 1.43834 0
M  V30 2747 C 258.119 -1.76814 1.52509 0
M  V30 2748 C 259.1 -1.65823 0.379052 0
M  V30 2749 O 260.285 -1.84781 0.597466 0
M  V30 2750 C 257.415 -3.15288 1.4564 0
M  V30 2751 C 256.369 -3.41053 2.58586 0
M  V30 2752 C 255.695 -4.79421 2.36769 0
M  V30 2753 C 256.995 -3.34902 4.00797 0
M  V30 2754 H 258.689 -1.69812 2.46586 0
M  V30 2755 H 256.235 -0.815542 1.1868 0
M  V30 2756 H 258.188 -3.93681 1.50311 0
M  V30 2757 H 256.912 -3.23043 0.480725 0
M  V30 2758 H 255.571 -2.65035 2.53282 0
M  V30 2759 H 255.219 -4.83863 1.37424 0
M  V30 2760 H 254.919 -4.9762 3.12487 0
M  V30 2761 H 256.443 -5.6006 2.43238 0
M  V30 2762 H 257.857 -4.03218 4.07539 0
M  V30 2763 H 256.254 -3.64637 4.76613 0
M  V30 2764 H 257.324 -2.32928 4.25291 0
M  V30 2765 N 258.668 -1.30515 -0.883378 0
M  V30 2766 C 259.578 -1.18959 -2.02203 0
M  V30 2767 C 260.594 -0.109172 -1.73657 0
M  V30 2768 O 261.77 -0.324413 -1.9877 0
M  V30 2769 C 258.835 -0.883871 -3.35244 0
M  V30 2770 C 257.896 -2.04982 -3.77201 0
M  V30 2771 C 257.129 -1.75859 -5.03894 0
M  V30 2772 O 257.352 -0.687276 -5.66244 0
M  V30 2773 O 256.286 -2.61146 -5.42297 0
M  V30 2774 H 260.112 -2.14616 -2.1488 0
M  V30 2775 H 257.697 -1.10124 -1.0096 0
M  V30 2776 H 259.579 -0.728644 -4.15053 0
M  V30 2777 H 258.254 0.0427798 -3.23672 0
M  V30 2778 H 257.161 -2.26038 -2.9809 0
M  V30 2779 H 258.494 -2.95825 -3.93381 0
M  V30 2780 N 260.146 1.09593 -1.13257 0
M  V30 2781 C 261.393 1.81734 -0.893257 0
M  V30 2782 C 261.721 1.8563 0.580656 0
M  V30 2783 O 260.976 1.31906 1.44566 0
M  V30 2784 C 261.275 3.27802 -1.42411 0
M  V30 2785 C 260.941 3.44041 -2.91456 0
M  V30 2786 C 259.603 3.48181 -3.3215 0
M  V30 2787 C 261.955 3.48719 -3.87356 0
M  V30 2788 C 259.283 3.54575 -4.67433 0
M  V30 2789 C 261.635 3.56648 -5.2248 0
M  V30 2790 C 260.299 3.59055 -5.62704 0
M  V30 2791 H 259.569 0.665011 -0.326866 0
M  V30 2792 H 262.216 1.2912 -1.41422 0
M  V30 2793 H 260.521 3.83042 -0.823795 0
M  V30 2794 H 262.218 3.82149 -1.21503 0
M  V30 2795 H 258.808 3.41502 -2.58987 0
M  V30 2796 H 262.992 3.44763 -3.57004 0
M  V30 2797 H 258.248 3.54725 -4.97976 0
M  V30 2798 H 262.422 3.59212 -5.96607 0
M  V30 2799 H 260.049 3.63763 -6.67518 0
M  V30 2800 N 261.624 0.925811 1.2754 0
M  V30 2801 C 262.87 0.566092 1.94739 0
M  V30 2802 C 263.203 -0.890057 1.72603 0
M  V30 2803 O 262.478 -1.63467 1.05399 0
M  V30 2804 C 262.761 0.89054 3.48915 0
M  V30 2805 C 262.614 2.4003 3.80402 0
M  V30 2806 C 263.933 0.395101 4.38323 0
M  V30 2807 H 261.052 0.20714 0.707292 0
M  V30 2808 H 263.694 1.15725 1.50691 0
M  V30 2809 H 261.844 0.387452 3.86563 0
M  V30 2810 H 263.516 2.97494 3.52555 0
M  V30 2811 H 261.759 2.85028 3.2702 0
M  V30 2812 H 262.43 2.57785 4.8811 0
M  V30 2813 H 264.906 0.826241 4.07814 0
M  V30 2814 H 263.782 0.651086 5.45025 0
M  V30 2815 H 264.043 -0.704798 4.36446 0
M  V30 2816 N 263.102 -1.41638 0.69111 0
M  V30 2817 C 264.35 -2.00902 0.219758 0
M  V30 2818 C 264.671 -1.54994 -1.18329 0
M  V30 2819 O 263.941 -0.778628 -1.79762 0
M  V30 2820 H 262.521 -0.74289 0.0782558 0
M  V30 2821 H 265.183 -1.73327 0.891271 0
M  V30 2822 H 264.279 -3.11224 0.233708 0
M  V30 2823 N 264.58 -0.43555 -1.51462 0
M  V30 2824 C 265.51 0.367376 -2.30592 0
M  V30 2825 C 266.491 1.02263 -1.35928 0
M  V30 2826 O 267.676 1.02661 -1.64847 0
M  V30 2827 C 264.806 1.46983 -3.14664 0
M  V30 2828 C 263.76 0.938161 -4.17591 0
M  V30 2829 C 263.086 2.13622 -4.90173 0
M  V30 2830 C 264.386 -0.0261621 -5.22293 0
M  V30 2831 H 266.08 -0.292969 -2.97963 0
M  V30 2832 H 263.626 -0.14234 -1.43295 0
M  V30 2833 H 265.579 2.03873 -3.688 0
M  V30 2834 H 264.303 2.15843 -2.4511 0
M  V30 2835 H 262.962 0.391481 -3.64504 0
M  V30 2836 H 262.61 2.81098 -4.17124 0
M  V30 2837 H 262.31 1.78688 -5.59772 0
M  V30 2838 H 263.834 2.7107 -5.47132 0
M  V30 2839 H 265.248 0.452384 -5.71512 0
M  V30 2840 H 263.645 -0.287992 -5.99409 0
M  V30 2841 H 264.715 -0.963391 -4.75233 0
M  V30 2842 N 266.058 1.56714 -0.166846 0
M  V30 2843 C 266.991 2.13577 0.80375 0
M  V30 2844 C 267.969 1.06464 1.22899 0
M  V30 2845 O 269.153 1.34413 1.32157 0
M  V30 2846 C 266.28 2.67168 2.0818 0
M  V30 2847 C 265.326 3.86612 1.80093 0
M  V30 2848 S 266.159 5.26565 0.97416 0
M  V30 2849 C 267.315 5.83558 2.26297 0
M  V30 2850 H 267.548 2.9557 0.320267 0
M  V30 2851 H 265.081 1.54326 0.0477555 0
M  V30 2852 H 267.039 2.98692 2.8159 0
M  V30 2853 H 265.7 1.85269 2.53642 0
M  V30 2854 H 264.893 4.22422 2.7491 0
M  V30 2855 H 264.495 3.55951 1.14781 0
M  V30 2856 H 266.787 5.962 3.21795 0
M  V30 2857 H 267.73 6.80731 1.94962 0
M  V30 2858 H 268.138 5.11944 2.37853 0
M  V30 2859 N 267.536 -0.106894 1.57237 0
M  V30 2860 C 268.764 -0.826389 1.8968 0
M  V30 2861 C 269.179 -1.72856 0.759353 0
M  V30 2862 O 268.536 -1.80503 -0.269263 0
M  V30 2863 C 268.587 -1.64967 3.21665 0
M  V30 2864 O 268.308 -0.783804 4.31031 0
M  V30 2865 C 269.809 -2.47326 3.67892 0
M  V30 2866 H 267.029 -0.236927 0.627779 0
M  V30 2867 H 269.573 -0.0876593 2.04312 0
M  V30 2868 H 267.728 -2.34103 3.08666 0
M  V30 2869 H 268.142 -1.35284 5.06753 0
M  V30 2870 H 269.616 -3.00604 4.6297 0
M  V30 2871 H 270.093 -3.25247 2.95146 0
M  V30 2872 H 270.699 -1.83411 3.83719 0
M  V30 2873 N 269.014 -1.53014 -0.377408 0
M  V30 2874 C 270.263 -1.67845 -1.11853 0
M  V30 2875 C 270.576 -0.430625 -1.90801 0
M  V30 2876 O 271.782 -0.459261 -2.67587 0
M  V30 2877 C 270.238 -2.96668 -2.03756 0
M  V30 2878 C 269.846 -4.28671 -1.30175 0
M  V30 2879 C 271.59 -3.20865 -2.77932 0
M  V30 2880 C 269.497 -5.48591 -2.20911 0
M  V30 2881 H 268.427 -0.625343 -0.421263 0
M  V30 2882 H 271.078 -1.79514 -0.380409 0
M  V30 2883 H 269.46 -2.78773 -2.8125 0
M  V30 2884 H 270.634 -4.57157 -0.578259 0
M  V30 2885 H 268.949 -4.10825 -0.679108 0
M  V30 2886 H 271.546 -4.07642 -3.46024 0
M  V30 2887 H 271.889 -2.36424 -3.4265 0
M  V30 2888 H 272.422 -3.39379 -2.07525 0
M  V30 2889 H 269.161 -6.35474 -1.6079 0
M  V30 2890 H 268.681 -5.244 -2.91144 0
M  V30 2891 H 270.36 -5.8292 -2.80736 0
M  V30 2892 N 270.492 0.636531 -1.44174 0
M  V30 2893 C 271.74 1.39343 -1.46383 0
M  V30 2894 C 272.061 1.94766 -0.0955715 0
M  V30 2895 O 271.331 1.75452 0.871395 0
M  V30 2896 H 269.911 0.517199 -0.538994 0
M  V30 2897 H 272.573 0.74957 -1.7991 0
M  V30 2898 H 271.669 2.22746 -2.18611 0
M  V30 2899 N 271.97 1.30982 0.876444 0
M  V30 2900 C 273.195 1.23373 1.66715 0
M  V30 2901 C 273.62 -0.19885 1.87046 0
M  V30 2902 O 272.978 -1.1427 1.40756 0
M  V30 2903 C 273.026 1.97644 3.01611 0
M  V30 2904 O 272.13 1.30935 3.91062 0
M  V30 2905 H 271.471 0.426279 0.509099 0
M  V30 2906 H 274.001 1.72944 1.09323 0
M  V30 2907 H 274.011 2.06992 3.51594 0
M  V30 2908 H 272.686 3.01829 2.86133 0
M  V30 2909 H 271.263 1.29996 3.49507 0
M  V30 2910 N 273.449 -1.08991 1.13837 0
M  V30 2911 C 274.696 -1.81258 0.902882 0
M  V30 2912 C 275.024 -1.85936 -0.570803 0
M  V30 2913 O 274.279 -1.3267 -1.43865 0
M  V30 2914 C 274.578 -3.27042 1.44147 0
M  V30 2915 C 274.244 -3.4249 2.93276 0
M  V30 2916 C 272.906 -3.46414 3.33992 0
M  V30 2917 C 275.258 -3.4666 3.892 0
M  V30 2918 C 272.586 -3.52091 4.69307 0
M  V30 2919 C 274.938 -3.53872 5.24364 0
M  V30 2920 C 273.602 -3.56066 5.646 0
M  V30 2921 H 272.872 -0.663268 0.330388 0
M  V30 2922 H 275.519 -1.28368 1.42105 0
M  V30 2923 H 273.824 -3.82599 0.844097 0
M  V30 2924 H 275.521 -3.81499 1.23528 0
M  V30 2925 H 272.111 -3.40124 2.60794 0
M  V30 2926 H 276.295 -3.42865 3.58828 0
M  V30 2927 H 271.551 -3.52079 4.9985 0
M  V30 2928 H 275.725 -3.56043 5.98503 0
M  V30 2929 H 273.352 -3.60218 6.69438 0
M  V30 2930 N 274.927 -0.932562 -1.27047 0
M  V30 2931 C 276.175 -0.574422 -1.93765 0
M  V30 2932 C 276.496 0.887993 -1.73608 0
M  V30 2933 O 275.766 1.62999 -1.08665 0
M  V30 2934 H 274.346 -0.209451 -0.717035 0
M  V30 2935 H 277.008 -1.18601 -1.5466 0
M  V30 2936 H 276.104 -0.784841 -3.02071 0
M  V30 2937 N 276.405 1.4127 -0.698611 0
M  V30 2938 C 277.355 2.27997 -0.0119836 0
M  V30 2939 C 278.339 1.42363 0.749765 0
M  V30 2940 O 279.531 1.65607 0.624758 0
M  V30 2941 C 276.66 3.30702 0.921458 0
M  V30 2942 C 275.746 4.23814 0.155796 0
M  V30 2943 N 276.137 4.98572 -0.852015 0
M  V30 2944 C 274.435 4.44284 0.390836 0
M  V30 2945 C 275.136 5.66744 -1.3106 0
M  V30 2946 N 274.112 5.39867 -0.635944 0
M  V30 2947 H 277.914 2.83232 -0.784649 0
M  V30 2948 H 275.428 1.53518 -0.529711 0
M  V30 2949 H 277.425 3.91661 1.42854 0
M  V30 2950 H 276.085 2.77028 1.69369 0
M  V30 2951 H 277.096 5.03024 -1.23235 0
M  V30 2952 H 273.773 4.01614 1.14071 0
M  V30 2953 H 275.163 6.36672 -2.14707 0
M  V30 2954 N 277.883 0.443576 1.51229 0
M  V30 2955 C 279.16 -0.181038 1.9476 0
M  V30 2956 C 279.54 -1.59523 1.38259 0
M  V30 2957 O 278.888 -2.2122 0.572198 0
M  V30 2958 C 279.098 -0.152422 3.48667 0
M  V30 2959 C 280.446 -0.354923 4.23114 0
M  V30 2960 O 281.47 -0.230257 3.55455 0
M  V30 2961 O 280.329 -0.603674 5.43156 0
M  V30 2962 H 277.423 -0.1266 0.817252 0
M  V30 2963 H 279.969 0.502004 1.62105 0
M  V30 2964 H 278.741 0.836022 3.82265 0
M  V30 2965 H 278.364 -0.878107 3.87782 0
M  V30 2966 N 279.361 -1.56624 0.175154 0
M  V30 2967 C 280.291 -2.21155 -0.749195 0
M  V30 2968 C 281.272 -1.16836 -1.23626 0
M  V30 2969 O 282.457 -1.45277 -1.28873 0
M  V30 2970 C 279.587 -2.8553 -1.97711 0
M  V30 2971 C 278.541 -3.95921 -1.62575 0
M  V30 2972 C 277.867 -4.47365 -2.92864 0
M  V30 2973 C 279.167 -5.15323 -0.850838 0
M  V30 2974 H 280.861 -2.98653 -0.211295 0
M  V30 2975 H 278.407 -1.43651 -0.100188 0
M  V30 2976 H 280.36 -3.2935 -2.62881 0
M  V30 2977 H 279.084 -2.05406 -2.53921 0
M  V30 2978 H 277.743 -3.52762 -0.997719 0
M  V30 2979 H 277.391 -3.64027 -3.47122 0
M  V30 2980 H 277.091 -5.21839 -2.70106 0
M  V30 2981 H 278.615 -4.93873 -3.59056 0
M  V30 2982 H 280.029 -5.55812 -1.40521 0
M  V30 2983 H 278.426 -5.95739 -0.722154 0
M  V30 2984 H 279.496 -4.84661 0.152082 0
M  V30 2985 N 280.839 0.0985539 -1.57292 0
M  V30 2986 C 282.064 0.820196 -1.90493 0
M  V30 2987 C 282.489 1.71658 -0.769094 0
M  V30 2988 O 281.847 1.79133 0.279495 0
M  V30 2989 C 281.895 1.61242 -3.22542 0
M  V30 2990 O 280.999 2.72108 -3.09888 0
M  V30 2991 H 280.34 0.225547 -0.62452 0
M  V30 2992 H 282.87 0.0748159 -2.04463 0
M  V30 2993 H 282.88 1.99737 -3.55766 0
M  V30 2994 H 281.555 0.954535 -4.04798 0
M  V30 2995 H 280.132 2.36667 -2.88172 0
M  V30 2996 N 282.317 1.53212 0.369288 0
M  V30 2997 C 283.249 1.75668 1.47219 0
M  V30 2998 C 284.262 0.637387 1.49804 0
M  V30 2999 O 285.451 0.913561 1.5335 0
M  V30 3000 C 282.551 1.81818 2.85999 0
M  V30 3001 C 281.724 3.11409 3.07153 0
M  V30 3002 C 280.783 3.08849 4.26026 0
M  V30 3003 O 279.809 3.82659 4.2138 0
M  V30 3004 N 281.011 2.29409 5.33246 0
M  V30 3005 H 283.776 2.70832 1.28337 0
M  V30 3006 H 281.337 1.51944 0.55898 0
M  V30 3007 H 283.329 1.77588 3.63655 0
M  V30 3008 H 281.899 0.939544 2.98146 0
M  V30 3009 H 281.119 3.28971 2.1719 0
M  V30 3010 H 282.407 3.97059 3.18154 0
M  V30 3011 H 281.805 1.68946 5.39883 0
M  V30 3012 H 280.362 2.31001 6.09493 0
M  V30 3013 N 283.795 -0.628877 1.44509 0
M  V30 3014 C 285.043 -1.38565 1.4712 0
M  V30 3015 C 285.364 -1.94712 0.105899 0
M  V30 3016 O 284.634 -1.75912 -0.862079 0
M  V30 3017 H 283.214 -0.514333 0.541729 0
M  V30 3018 H 285.876 -0.740018 1.80305 0
M  V30 3019 H 284.972 -2.21583 2.19789 0
M  V30 3020 N 285.273 -1.31445 -0.869486 0
M  V30 3021 C 286.684 -1.19042 -1.43826 0
M  V30 3022 C 287.035 0.202919 -1.95148 0
M  V30 3023 O 286.16 1.10071 -1.86315 0
M  V30 3024 C 286.755 -2.15499 -2.6143 0
M  V30 3025 C 285.314 -2.07028 -3.14351 0
M  V30 3026 C 284.461 -2.04701 -1.87063 0
M  V30 3027 H 287.412 -1.43489 -0.677984 0
M  V30 3028 H 287.433 -1.74488 -3.38134 0
M  V30 3029 H 286.945 -3.16899 -2.24046 0
M  V30 3030 H 285.046 -1.08825 -3.56354 0
M  V30 3031 H 285.159 -2.96157 -3.766 0
M  V30 3032 H 283.523 -1.49724 -2.06046 0
M  V30 3033 H 284.306 -3.07857 -1.51917 0
M  V30 3034 N 286.751 1.08385 -1.14413 0
M  V30 3035 C 287.699 2.17406 -0.826888 0
M  V30 3036 C 288.693 1.6827 0.195312 0
M  V30 3037 O 289.899 1.79927 0.0513892 0
M  V30 3038 H 286.274 0.70934 -0.249681 0
M  V30 3039 H 288.245 2.41388 -1.75426 0
M  V30 3040 C 286.994 3.46215 -0.320979 0
M  V30 3041 H 286.317 3.84401 -1.0989 0
M  V30 3042 H 287.757 4.23777 -0.137549 0
M  V30 3043 C 286.216 3.23067 0.955472 0
M  V30 3044 O 286.746 3.4668 2.02918 0
M  V30 3045 N 284.952 2.7661 0.890798 0
M  V30 3046 H 284.499 2.57594 0.0168815 0
M  V30 3047 H 284.457 2.61501 1.74542 0
M  V30 3048 N 288.23 0.939286 1.26551 0
M  V30 3049 C 289.641 0.628782 1.75793 0
M  V30 3050 C 289.992 -0.856046 1.7654 0
M  V30 3051 O 289.117 -1.66994 1.3763 0
M  V30 3052 C 289.712 1.13465 3.19235 0
M  V30 3053 C 288.271 0.874601 3.66098 0
M  V30 3054 C 287.418 1.28667 2.45642 0
M  V30 3055 H 290.369 1.1178 1.12654 0
M  V30 3056 H 290.39 0.487609 3.77363 0
M  V30 3057 H 289.902 2.21535 3.1866 0
M  V30 3058 H 288.003 -0.191793 3.72106 0
M  V30 3059 H 288.116 1.50028 4.55004 0
M  V30 3060 H 286.48 0.705109 2.44745 0
M  V30 3061 H 287.263 2.37625 2.47769 0
M  V30 3062 N 289.708 -1.40897 0.706093 0
M  V30 3063 C 290.985 -1.94868 0.169099 0
M  V30 3064 C 291.365 -1.64485 -1.32318 0
M  V30 3065 O 290.713 -0.95744 -2.07474 0
M  V30 3066 C 290.923 -3.45798 0.471654 0
M  V30 3067 C 292.271 -4.22663 0.405127 0
M  V30 3068 O 293.295 -3.53865 0.407168 0
M  V30 3069 O 292.154 -5.45216 0.374383 0
M  V30 3070 H 289.248 -0.82673 0.0211352 0
M  V30 3071 H 291.794 -1.50558 0.782976 0
M  V30 3072 H 290.566 -3.61235 1.50416 0
M  V30 3073 H 290.189 -3.97225 -0.172666 0
M  V30 3074 N 291.186 -0.45159 -1.50991 0
M  V30 3075 C 292.433 0.110074 -2.02201 0
M  V30 3076 C 292.761 1.4146 -1.33489 0
M  V30 3077 O 292.016 1.90617 -0.443125 0
M  V30 3078 C 292.315 0.361728 -3.55565 0
M  V30 3079 C 291.981 -0.858717 -4.42648 0
M  V30 3080 C 290.643 -1.19338 -4.66167 0
M  V30 3081 C 292.995 -1.67221 -4.93646 0
M  V30 3082 C 290.323 -2.34195 -5.37931 0
M  V30 3083 C 292.675 -2.8119 -5.6667 0
M  V30 3084 C 291.339 -3.15094 -5.88449 0
M  V30 3085 H 290.609 0.040279 -0.739904 0
M  V30 3086 H 293.256 -0.601696 -1.81802 0
M  V30 3087 H 291.561 1.15554 -3.74372 0
M  V30 3088 H 293.258 0.80996 -3.92735 0
M  V30 3089 H 289.848 -0.58796 -4.24548 0
M  V30 3090 H 294.032 -1.42686 -4.75347 0
M  V30 3091 H 289.288 -2.6076 -5.53005 0
M  V30 3092 H 293.462 -3.44585 -6.05173 0
M  V30 3093 H 291.089 -4.04204 -6.43835 0
M  V30 3094 N 292.664 1.56529 -0.183458 0
M  V30 3095 C 293.596 2.15747 0.773697 0
M  V30 3096 C 294.609 1.1162 1.1851 0
M  V30 3097 O 295.798 1.3876 1.12285 0
M  V30 3098 C 292.898 2.6952 2.05456 0
M  V30 3099 C 292.071 3.98429 1.8048 0
M  V30 3100 C 291.13 4.37145 2.92901 0
M  V30 3101 O 290.156 5.04791 2.6301 0
M  V30 3102 N 291.358 3.99695 4.2098 0
M  V30 3103 H 294.123 2.98505 0.26736 0
M  V30 3104 H 291.684 1.619 -0.0010878 0
M  V30 3105 H 293.676 2.92412 2.79781 0
M  V30 3106 H 292.246 1.91282 2.47245 0
M  V30 3107 H 291.466 3.8379 0.899947 0
M  V30 3108 H 292.754 4.82597 1.61175 0
M  V30 3109 H 292.152 3.4526 4.48121 0
M  V30 3110 H 290.709 4.27562 4.9197 0
M  V30 3111 N 294.142 -0.090211 1.57342 0
M  V30 3112 C 295.072 -1.10976 2.05443 0
M  V30 3113 C 296.053 -1.41482 0.944284 0
M  V30 3114 O 297.238 -1.51428 1.21586 0
M  V30 3115 C 294.368 -2.42831 2.48295 0
M  V30 3116 C 293.322 -2.26721 3.63018 0
M  V30 3117 C 292.648 -3.63796 3.91863 0
M  V30 3118 C 293.948 -1.7037 4.93732 0
M  V30 3119 H 295.642 -0.709564 2.9087 0
M  V30 3120 H 293.188 -0.339874 1.39932 0
M  V30 3121 H 295.141 -3.14431 2.80555 0
M  V30 3122 H 293.865 -2.84795 1.59873 0
M  V30 3123 H 292.524 -1.57565 3.31012 0
M  V30 3124 H 292.172 -4.03297 3.00601 0
M  V30 3125 H 291.872 -3.53861 4.69101 0
M  V30 3126 H 293.396 -4.36855 4.26603 0
M  V30 3127 H 294.81 -2.31816 5.24342 0
M  V30 3128 H 293.207 -1.71181 5.75167 0
M  V30 3129 H 294.277 -0.663542 4.80339 0
M  V30 3130 N 295.62 -1.53406 -0.361157 0
M  V30 3131 C 296.55 -1.83136 -1.44857 0
M  V30 3132 C 297.531 -0.685174 -1.5569 0
M  V30 3133 O 298.716 -0.93544 -1.70186 0
M  V30 3134 C 295.846 -2.02522 -2.82138 0
M  V30 3135 C 294.8 -3.18302 -2.86126 0
M  V30 3136 C 294.126 -3.22989 -4.26125 0
M  V30 3137 C 295.426 -4.56796 -2.53248 0
M  V30 3138 H 297.12 -2.74201 -1.20226 0
M  V30 3139 H 294.666 -1.31938 -0.576922 0
M  V30 3140 H 296.619 -2.21904 -3.58241 0
M  V30 3141 H 295.343 -1.08172 -3.08166 0
M  V30 3142 H 294.002 -2.98747 -2.12475 0
M  V30 3143 H 293.65 -2.26267 -4.49235 0
M  V30 3144 H 293.35 -4.00781 -4.29708 0
M  V30 3145 H 294.874 -3.44559 -5.04094 0
M  V30 3146 H 296.288 -4.7631 -3.19064 0
M  V30 3147 H 294.685 -5.36862 -2.68141 0
M  V30 3148 H 295.755 -4.61606 -1.48484 0
M  V30 3149 N 297.098 0.621204 -1.44841 0
M  V30 3150 C 298.028 1.74366 -1.55303 0
M  V30 3151 C 299.009 1.65199 -0.405385 0
M  V30 3152 O 300.194 1.83807 -0.626787 0
M  V30 3153 C 297.324 3.12931 -1.50637 0
M  V30 3154 C 296.278 3.36896 -2.63979 0
M  V30 3155 C 295.604 4.75594 -2.44366 0
M  V30 3156 C 296.904 3.28483 -4.06074 0
M  V30 3157 H 298.598 1.65867 -2.49256 0
M  V30 3158 H 296.144 0.796558 -1.19962 0
M  V30 3159 H 298.097 3.9124 -1.56555 0
M  V30 3160 H 296.821 3.22237 -0.532057 0
M  V30 3161 H 295.48 2.60972 -2.57467 0
M  V30 3162 H 295.128 4.81616 -1.45105 0
M  V30 3163 H 294.828 4.92586 -3.20364 0
M  V30 3164 H 296.352 5.5612 -2.52117 0
M  V30 3165 H 297.766 3.96684 -4.13902 0
M  V30 3166 H 296.163 3.57008 -4.82354 0
M  V30 3167 H 297.233 2.26133 -4.28943 0
M  V30 3168 N 298.576 1.31904 0.862503 0
M  V30 3169 C 299.801 1.25135 1.65397 0
M  V30 3170 C 300.226 -0.179 1.87246 0
M  V30 3171 O 299.584 -1.1277 1.4196 0
M  V30 3172 C 299.632 2.00832 2.99498 0
M  V30 3173 O 298.736 1.35075 3.89652 0
M  V30 3174 H 298.077 0.431655 0.504549 0
M  V30 3175 H 300.607 1.74094 1.07483 0
M  V30 3176 H 300.617 2.10709 3.49379 0
M  V30 3177 H 299.292 3.04847 2.82916 0
M  V30 3178 H 297.869 1.33696 3.48109 0
M  V30 3179 N 300.054 -1.07777 1.14986 0
M  V30 3180 C 300.984 -2.16865 0.865557 0
M  V30 3181 C 301.965 -1.69123 -0.182083 0
M  V30 3182 O 303.15 -1.94164 -0.0373815 0
M  V30 3183 C 300.28 -3.45539 0.349313 0
M  V30 3184 C 299.234 -4.06708 1.33313 0
M  V30 3185 C 298.56 -5.30411 0.675918 0
M  V30 3186 C 299.86 -4.47241 2.69764 0
M  V30 3187 H 301.554 -2.40905 1.77778 0
M  V30 3188 H 299.1 -1.15781 0.856203 0
M  V30 3189 H 301.053 -4.21174 0.137983 0
M  V30 3190 H 299.777 -3.21072 -0.598362 0
M  V30 3191 H 298.436 -3.33112 1.53075 0
M  V30 3192 H 298.084 -5.02232 -0.277767 0
M  V30 3193 H 297.784 -5.72293 1.33244 0
M  V30 3194 H 299.308 -6.08755 0.474262 0
M  V30 3195 H 300.722 -5.14025 2.53873 0
M  V30 3196 H 299.119 -5.00062 3.3175 0
M  V30 3197 H 300.189 -3.58818 3.26156 0
M  V30 3198 N 301.532 -0.945985 -1.26051 0
M  V30 3199 C 302.948 -0.649045 -1.45807 0
M  V30 3200 C 303.148 0.796158 -1.85104 0
M  V30 3201 O 302.204 1.57233 -1.97571 0
M  V30 3202 C 303.517 -1.61458 -2.53677 0
M  V30 3203 C 305.065 -1.62481 -2.67524 0
M  V30 3204 C 305.54 -2.57776 -3.7857 0
M  V30 3205 N 307.031 -2.5609 -3.85969 0
M  V30 3206 C 307.766 -3.26508 -4.7136 0
M  V30 3207 N 307.262 -4.0637 -5.61102 0
M  V30 3208 N 309.055 -3.15437 -4.65248 0
M  V30 3209 H 301.206 -1.88005 -0.988328 0
M  V30 3210 H 303.469 -0.808198 -0.4955 0
M  V30 3211 H 303.175 -2.64644 -2.31638 0
M  V30 3212 H 303.049 -1.37036 -3.51427 0
M  V30 3213 H 305.436 -0.600167 -2.88933 0
M  V30 3214 H 305.517 -1.90958 -1.70202 0
M  V30 3215 H 305.161 -3.60361 -3.57913 0
M  V30 3216 H 305.091 -2.26587 -4.75359 0
M  V30 3217 H 307.582 -1.98105 -3.21812 0
M  V30 3218 H 307.895 -4.57042 -6.23164 0
M  V30 3219 H 306.24 -4.10469 -5.60839 0
M  V30 3220 H 309.431 -2.52525 -3.94143 0
M  V30 3221 H 309.604 -3.70584 -5.31575 0
M  V30 3222 N 303.011 1.40521 -0.713556 0
M  V30 3223 C 303.921 2.34522 -0.0606667 0
M  V30 3224 C 304.937 1.57193 0.74607 0
M  V30 3225 O 306.113 1.89591 0.679493 0
M  V30 3226 C 303.178 3.36081 0.851491 0
M  V30 3227 C 302.239 4.29286 0.0349339 0
M  V30 3228 C 301.472 5.25994 0.903649 0
M  V30 3229 O 301.695 5.28616 2.14292 0
M  V30 3230 O 300.629 6.00918 0.343723 0
M  V30 3231 H 304.455 2.91968 -0.835972 0
M  V30 3232 H 302.04 1.41681 -0.47402 0
M  V30 3233 H 303.922 3.98369 1.37404 0
M  V30 3234 H 302.597 2.81052 1.60598 0
M  V30 3235 H 301.504 3.70289 -0.532633 0
M  V30 3236 H 302.837 4.87462 -0.681287 0
M  V30 3237 N 304.489 0.459591 1.5075 0
M  V30 3238 C 305.399 -0.34613 2.32033 0
M  V30 3239 C 306.415 -1.00686 1.41909 0
M  V30 3240 O 307.591 -0.997361 1.7497 0
M  V30 3241 C 304.656 -1.42029 3.16273 0
M  V30 3242 C 303.717 -0.777362 4.22203 0
M  V30 3243 C 302.95 -1.80034 5.02418 0
M  V30 3244 O 303.173 -3.02544 4.83553 0
M  V30 3245 O 302.107 -1.37853 5.85901 0
M  V30 3246 H 305.933 0.318054 3.0203 0
M  V30 3247 H 303.518 0.221663 1.47746 0
M  V30 3248 H 305.4 -2.04275 3.68578 0
M  V30 3249 H 304.075 -2.06815 2.49016 0
M  V30 3250 H 302.982 -0.116256 3.73919 0
M  V30 3251 H 304.315 -0.172634 4.91897 0
M  V30 3252 N 305.967 -1.56429 0.191757 0
M  V30 3253 C 306.897 -2.21937 -0.725696 0
M  V30 3254 C 307.878 -1.1814 -1.2238 0
M  V30 3255 O 309.063 -1.46636 -1.27325 0
M  V30 3256 C 306.193 -2.87611 -1.94672 0
M  V30 3257 C 305.147 -3.97623 -1.58366 0
M  V30 3258 C 304.473 -4.50446 -2.88102 0
M  V30 3259 C 305.773 -5.16197 -0.796133 0
M  V30 3260 H 307.467 -2.98861 -0.179606 0
M  V30 3261 H 305.013 -1.43749 -0.0849464 0
M  V30 3262 H 306.966 -3.3212 -2.59373 0
M  V30 3263 H 305.69 -2.08087 -2.51728 0
M  V30 3264 H 304.349 -3.53801 -0.960247 0
M  V30 3265 H 303.997 -3.67688 -3.43241 0
M  V30 3266 H 303.697 -5.24675 -2.64556 0
M  V30 3267 H 305.221 -4.97654 -3.53798 0
M  V30 3268 H 306.635 -5.57271 -1.34618 0
M  V30 3269 H 305.032 -5.96471 -0.658928 0
M  V30 3270 H 306.102 -4.84473 0.203478 0
M  V30 3271 N 307.445 0.0818655 -1.57387 0
M  V30 3272 C 308.685 0.788375 -1.88584 0
M  V30 3273 C 309.049 1.75248 -0.784351 0
M  V30 3274 O 310.25 2.50334 -0.979105 0
M  V30 3275 C 308.521 1.48654 -3.25018 0
M  V30 3276 S 310.08 2.22951 -3.7794 0
M  V30 3277 H 306.898 0.262383 -0.660815 0
M  V30 3278 H 309.5 0.0448995 -1.95448 0
M  V30 3279 H 308.204 0.770919 -4.03094 0
M  V30 3280 H 307.735 2.26965 -3.21326 0
M  V30 3281 H 309.75 3.49309 -3.52417 0
M  V30 3282 N 308.923 1.53595 0.353017 0
M  V30 3283 C 309.87 1.80919 1.43308 0
M  V30 3284 C 310.84 0.654288 1.5267 0
M  V30 3285 O 312.025 0.897759 1.6836 0
M  V30 3286 C 309.165 2.01605 2.80089 0
M  V30 3287 C 308.278 3.29321 2.79593 0
M  V30 3288 C 307.413 3.40125 4.0803 0
M  V30 3289 C 306.452 4.61826 4.01725 0
M  V30 3290 N 305.589 4.69716 5.21834 0
M  V30 3291 H 310.429 2.73074 1.19308 0
M  V30 3292 H 307.966 1.35263 0.578131 0
M  V30 3293 H 309.924 2.11586 3.59565 0
M  V30 3294 H 308.554 1.12772 3.0246 0
M  V30 3295 H 307.606 3.28229 1.92276 0
M  V30 3296 H 308.918 4.18884 2.70809 0
M  V30 3297 H 308.072 3.49488 4.95927 0
M  V30 3298 H 306.811 2.48601 4.19582 0
M  V30 3299 H 305.816 4.52552 3.12213 0
M  V30 3300 H 307.041 5.54705 3.91764 0
M  V30 3301 H 304.987 3.81097 5.33948 0
M  V30 3302 H 304.904 5.53202 5.1527 0
M  V30 3303 H 306.172 4.83376 6.11529 0
M  V30 3304 N 310.401 -0.613514 1.45168 0
M  V30 3305 C 311.348 -1.72456 1.53387 0
M  V30 3306 C 312.318 -1.6169 0.380191 0
M  V30 3307 O 313.503 -1.81356 0.592836 0
M  V30 3308 C 310.643 -3.10753 1.50088 0
M  V30 3309 C 309.756 -3.32368 2.75963 0
M  V30 3310 C 308.891 -4.60737 2.64376 0
M  V30 3311 C 307.93 -4.7559 3.85332 0
M  V30 3312 N 307.067 -5.95253 3.72315 0
M  V30 3313 H 311.907 -1.64768 2.48305 0
M  V30 3314 H 309.444 -0.803503 1.23216 0
M  V30 3315 H 311.402 -3.90758 1.46164 0
M  V30 3316 H 310.032 -3.17413 0.587243 0
M  V30 3317 H 309.084 -2.4618 2.89999 0
M  V30 3318 H 310.396 -3.39218 3.65695 0
M  V30 3319 H 309.55 -5.48928 2.58385 0
M  V30 3320 H 308.289 -4.56275 1.72233 0
M  V30 3321 H 307.294 -3.85824 3.91688 0
M  V30 3322 H 308.519 -4.81854 4.78533 0
M  V30 3323 H 306.465 -5.91847 2.82937 0
M  V30 3324 H 306.382 -6.03236 4.55677 0
M  V30 3325 H 307.65 -6.85958 3.70246 0
M  V30 3326 N 311.879 -1.3236 -0.855495 0
M  V30 3327 C 312.809 -1.23833 -1.97958 0
M  V30 3328 C 313.79 -0.122361 -1.69659 0
M  V30 3329 O 314.975 -0.30939 -1.9172 0
M  V30 3330 C 312.105 -0.959772 -3.33775 0
M  V30 3331 C 311.059 -2.03689 -3.76424 0
M  V30 3332 C 310.385 -1.61075 -5.09862 0
M  V30 3333 C 311.685 -3.4518 -3.9198 0
M  V30 3334 H 313.379 -2.1788 -2.0535 0
M  V30 3335 H 310.925 -1.04891 -0.986605 0
M  V30 3336 H 312.878 -0.886678 -4.11966 0
M  V30 3337 H 311.602 0.0163404 -3.26596 0
M  V30 3338 H 310.261 -2.10012 -3.00484 0
M  V30 3339 H 309.909 -0.622107 -4.99138 0
M  V30 3340 H 309.609 -2.33143 -5.39368 0
M  V30 3341 H 311.133 -1.55201 -5.90546 0
M  V30 3342 H 312.547 -3.4145 -4.60526 0
M  V30 3343 H 310.944 -4.1559 -4.32903 0
M  V30 3344 H 312.014 -3.84903 -2.94919 0
M  V30 3345 N 313.357 1.07166 -1.15556 0
M  V30 3346 C 314.305 2.16517 -0.8499 0
M  V30 3347 C 315.299 1.68468 0.177454 0
M  V30 3348 O 316.505 1.79971 0.0323026 0
M  V30 3349 H 312.88 0.706652 -0.25719 0
M  V30 3350 H 314.851 2.39514 -1.77976 0
M  V30 3351 C 313.6 3.45855 -0.357682 0
M  V30 3352 H 312.923 3.83214 -1.13961 0
M  V30 3353 H 314.363 4.23607 -0.182489 0
M  V30 3354 C 312.822 3.24062 0.921152 0
M  V30 3355 O 313.352 3.48813 1.9923 0
M  V30 3356 N 311.558 2.77539 0.86141 0
M  V30 3357 H 311.105 2.57598 -0.0104408 0
M  V30 3358 H 311.063 2.63337 1.71758 0
M  V30 3359 N 314.835 0.952656 1.25548 0
M  V30 3360 C 316.084 0.602053 1.92505 0
M  V30 3361 C 316.397 -0.864663 1.75451 0
M  V30 3362 O 317.603 -1.32514 2.36965 0
M  V30 3363 C 316.059 1.02607 3.44963 0
M  V30 3364 C 315.667 2.51519 3.70732 0
M  V30 3365 C 317.411 0.747905 4.1786 0
M  V30 3366 C 315.318 2.87732 5.16686 0
M  V30 3367 H 314.248 0.22146 0.720744 0
M  V30 3368 H 316.899 1.15684 1.42441 0
M  V30 3369 H 315.281 0.399712 3.93978 0
M  V30 3370 H 316.455 3.19157 3.32378 0
M  V30 3371 H 314.77 2.76786 3.11092 0
M  V30 3372 H 317.367 0.994647 5.25367 0
M  V30 3373 H 317.71 -0.315629 4.15102 0
M  V30 3374 H 318.243 1.33452 3.74747 0
M  V30 3375 H 314.982 3.93095 5.24554 0
M  V30 3376 H 314.502 2.24765 5.56094 0
M  V30 3377 H 316.181 2.76817 5.84792 0
M  V30 3378 N 316.313 -1.40141 0.720998 0
M  V30 3379 C 317.724 -1.83678 0.334553 0
M  V30 3380 C 318.075 -1.6027 -1.13173 0
M  V30 3381 O 317.2 -1.08643 -1.87152 0
M  V30 3382 C 317.795 -3.33437 0.600437 0
M  V30 3383 C 316.354 -3.75447 0.267642 0
M  V30 3384 C 315.501 -2.63296 0.870097 0
M  V30 3385 H 318.452 -1.29331 0.919732 0
M  V30 3386 H 318.473 -3.80269 -0.132517 0
M  V30 3387 H 317.985 -3.50442 1.66768 0
M  V30 3388 H 316.086 -3.64035 -0.794329 0
M  V30 3389 H 316.199 -4.73344 0.74042 0
M  V30 3390 H 314.563 -2.52954 0.297739 0
M  V30 3391 H 315.346 -2.83112 1.94172 0
M  V30 3392 N 317.792 -0.46758 -1.50504 0
M  V30 3393 C 318.755 0.317059 -2.26996 0
M  V30 3394 C 319.755 0.923513 -1.31635 0
M  V30 3395 O 320.945 0.793239 -1.55091 0
M  V30 3396 C 318.077 1.45134 -3.08462 0
M  V30 3397 H 319.27 -0.353723 -2.97807 0
M  V30 3398 H 316.823 -0.221545 -1.54722 0
M  V30 3399 H 317.558 2.15728 -2.4214 0
M  V30 3400 H 317.343 1.02232 -3.78538 0
M  V30 3401 H 318.833 2.00493 -3.66323 0
M  V30 3402 N 319.27 1.56325 -0.20005 0
M  V30 3403 C 320.547 1.89484 0.48529 0
M  V30 3404 C 320.927 1.1143 1.79294 0
M  V30 3405 O 320.275 0.216919 2.27468 0
M  V30 3406 C 320.485 3.41923 0.699243 0
M  V30 3407 C 321.833 4.12256 1.01638 0
M  V30 3408 O 322.857 3.47402 0.786792 0
M  V30 3409 O 321.716 5.26887 1.45095 0
M  V30 3410 H 318.81 0.787144 0.253639 0
M  V30 3411 H 321.356 1.67985 -0.240633 0
M  V30 3412 H 320.128 3.90658 -0.224008 0
M  V30 3413 H 319.751 3.69131 1.47744 0
M  V30 3414 N 320.748 -0.0735177 1.57428 0
M  V30 3415 C 321.68 -1.11423 2.00294 0
M  V30 3416 C 322.693 -1.35084 0.908637 0
M  V30 3417 O 323.882 -1.33355 1.18654 0
M  V30 3418 C 320.982 -2.46548 2.32523 0
M  V30 3419 C 320.155 -2.42867 3.63778 0
M  V30 3420 C 319.214 -3.60087 3.83697 0
M  V30 3421 O 318.24 -3.41595 4.55304 0
M  V30 3422 N 319.442 -4.80372 3.25919 0
M  V30 3423 H 322.207 -0.749206 2.90184 0
M  V30 3424 H 319.768 -0.262195 1.59763 0
M  V30 3425 H 321.76 -3.23607 2.43024 0
M  V30 3426 H 320.33 -2.75059 1.48531 0
M  V30 3427 H 319.55 -1.51206 3.64047 0
M  V30 3428 H 320.838 -2.37506 4.49965 0
M  V30 3429 H 320.236 -4.983 2.67795 0
M  V30 3430 H 318.793 -5.54948 3.41871 0
M  V30 3431 N 322.226 -1.5378 -0.344866 0
M  V30 3432 C 323.472 -1.71216 -1.08687 0
M  V30 3433 C 323.805 -0.473281 -1.88345 0
M  V30 3434 O 323.08 0.52968 -1.87149 0
M  V30 3435 C 323.363 -2.97486 -2.02914 0
M  V30 3436 C 323.216 -4.31579 -1.26727 0
M  V30 3437 C 324.535 -3.19422 -3.0275 0
M  V30 3438 H 321.654 -0.62301 -0.393735 0
M  V30 3439 H 324.296 -1.8645 -0.365563 0
M  V30 3440 H 322.446 -2.84629 -2.64421 0
M  V30 3441 H 324.118 -4.56284 -0.67845 0
M  V30 3442 H 322.361 -4.30049 -0.569273 0
M  V30 3443 H 323.032 -5.16106 -1.95803 0
M  V30 3444 H 325.508 -3.316 -2.51357 0
M  V30 3445 H 324.384 -4.09169 -3.65885 0
M  V30 3446 H 324.645 -2.35656 -3.74057 0
M  V30 3447 N 323.704 0.605807 -1.45491 0
M  V30 3448 C 324.614 1.74466 -1.56839 0
M  V30 3449 C 325.63 1.68006 -0.452772 0
M  V30 3450 O 326.806 1.8833 -0.713708 0
M  V30 3451 C 323.871 3.10931 -1.53371 0
M  V30 3452 C 322.932 3.28832 -2.75986 0
M  V30 3453 C 322.165 4.58787 -2.72673 0
M  V30 3454 O 322.388 5.4122 -1.80102 0
M  V30 3455 O 321.322 4.79438 -3.63899 0
M  V30 3456 H 325.148 1.67843 -2.53106 0
M  V30 3457 H 322.733 0.770108 -1.28022 0
M  V30 3458 H 324.615 3.92233 -1.54051 0
M  V30 3459 H 323.29 3.18042 -0.602572 0
M  V30 3460 H 322.197 2.47112 -2.80867 0
M  V30 3461 H 323.53 3.26599 -3.68231 0
M  V30 3462 N 325.182 1.32811 0.848464 0
M  V30 3463 C 326.112 1.24882 1.97299 0
M  V30 3464 C 327.093 0.131357 1.69592 0
M  V30 3465 O 328.278 0.319553 1.91553 0
M  V30 3466 C 325.408 0.97746 3.33261 0
M  V30 3467 C 324.362 2.05682 3.75338 0
M  V30 3468 C 323.688 1.63777 5.09 0
M  V30 3469 C 324.988 3.47254 3.90144 0
M  V30 3470 H 326.682 2.18966 2.04191 0
M  V30 3471 H 324.228 1.05413 0.981029 0
M  V30 3472 H 326.181 0.908513 4.1149 0
M  V30 3473 H 324.905 0.000980011 3.266 0
M  V30 3474 H 323.564 2.11603 2.99366 0
M  V30 3475 H 323.212 0.648569 4.98801 0
M  V30 3476 H 322.912 2.36 5.38124 0
M  V30 3477 H 324.436 1.5833 5.89715 0
M  V30 3478 H 325.85 3.43888 4.58709 0
M  V30 3479 H 324.247 4.1788 4.30693 0
M  V30 3480 H 325.317 3.86462 2.92874 0
M  V30 3481 N 326.66 -1.06551 1.16123 0
M  V30 3482 C 327.885 -1.83544 0.965735 0
M  V30 3483 C 328.31 -1.81843 -0.481102 0
M  V30 3484 O 327.668 -1.21732 -1.34354 0
M  V30 3485 C 327.716 -3.28169 1.49457 0
M  V30 3486 O 326.82 -4.0643 0.699157 0
M  V30 3487 H 326.161 -0.568026 0.343864 0
M  V30 3488 H 328.691 -1.34362 1.54299 0
M  V30 3489 H 328.701 -3.78992 1.51092 0
M  V30 3490 H 327.376 -3.28722 2.54784 0
M  V30 3491 H 325.953 -3.65216 0.7531 0
M  V30 3492 N 328.138 -0.959301 -1.25041 0
M  V30 3493 C 329.071 -0.427418 -2.24161 0
M  V30 3494 C 330.049 0.493837 -1.54919 0
M  V30 3495 O 331.233 0.427144 -1.83597 0
M  V30 3496 C 328.36 0.383893 -3.36517 0
M  V30 3497 C 327.406 -0.478431 -4.23808 0
M  V30 3498 S 328.239 -1.91353 -5.00144 0
M  V30 3499 C 329.395 -1.11077 -6.15965 0
M  V30 3500 H 329.628 -1.26743 -2.6893 0
M  V30 3501 H 327.161 -0.763714 -1.34189 0
M  V30 3502 H 329.119 0.846039 -4.01687 0
M  V30 3503 H 327.78 1.19878 -2.90324 0
M  V30 3504 H 326.973 0.14406 -5.03794 0
M  V30 3505 H 326.575 -0.87597 -3.63597 0
M  V30 3506 H 328.867 -0.361699 -6.76534 0
M  V30 3507 H 329.81 -1.88472 -6.82557 0
M  V30 3508 H 330.218 -0.638843 -5.60873 0
M  V30 3509 N 329.616 1.39756 -0.72842 0
M  V30 3510 C 330.864 2.00248 -0.272946 0
M  V30 3511 C 331.185 1.58077 1.14178 0
M  V30 3512 O 330.455 0.826014 1.77634 0
M  V30 3513 H 329.035 0.740554 -0.0979247 0
M  V30 3514 H 331.697 1.70903 -0.936912 0
M  V30 3515 H 330.793 3.10495 -0.316142 0
M  V30 3516 N 331.094 0.475555 1.50254 0
M  V30 3517 C 332.027 -0.362381 2.25304 0
M  V30 3518 C 333.005 -0.992393 1.28803 0
M  V30 3519 O 334.189 -1.02746 1.58036 0
M  V30 3520 C 331.316 -1.50813 3.03271 0
M  V30 3521 C 330.362 -0.995044 4.1473 0
M  V30 3522 S 331.195 0.0938436 5.35418 0
M  V30 3523 C 332.351 -1.05567 6.16933 0
M  V30 3524 H 332.584 0.274686 2.96028 0
M  V30 3525 H 330.117 0.260495 1.52187 0
M  V30 3526 H 332.075 -2.16476 3.48781 0
M  V30 3527 H 330.736 -2.11672 2.32064 0
M  V30 3528 H 329.929 -1.85293 4.68703 0
M  V30 3529 H 329.531 -0.416052 3.71679 0
M  V30 3530 H 331.823 -1.96636 6.48337 0
M  V30 3531 H 332.766 -0.555109 7.05921 0
M  V30 3532 H 333.174 -1.31151 5.49053 0
M  V30 3533 N 332.573 -1.56217 0.208337 0
M  V30 3534 C 333.798 -2.02782 -0.435222 0
M  V30 3535 C 334.223 -1.08738 -1.53485 0
M  V30 3536 O 333.581 -0.0731855 -1.81152 0
M  V30 3537 C 333.629 -3.47687 -0.956335 0
M  V30 3538 O 332.733 -3.56773 -2.06849 0
M  V30 3539 H 332.074 -0.656403 -0.100158 0
M  V30 3540 H 334.604 -2.02033 0.3231 0
M  V30 3541 H 334.614 -3.87745 -1.26955 0
M  V30 3542 H 333.289 -4.15624 -0.15143 0
M  V30 3543 H 331.866 -3.28597 -1.76292 0
M  V30 3544 N 334.051 0.0651679 -1.57465 0
M  V30 3545 C 335.014 1.06117 -2.03155 0
M  V30 3546 C 336.014 1.31204 -0.929632 0
M  V30 3547 O 337.204 1.26813 -1.19432 0
M  V30 3548 C 334.336 2.4032 -2.41783 0
M  V30 3549 H 335.529 0.667231 -2.92383 0
M  V30 3550 H 333.082 0.311075 -1.53173 0
M  V30 3551 H 333.817 2.84532 -1.55601 0
M  V30 3552 H 333.602 2.23451 -3.22199 0
M  V30 3553 H 335.092 3.11898 -2.77685 0
M  V30 3554 N 335.529 1.53961 0.336706 0
M  V30 3555 C 336.806 1.62171 1.09361 0
M  V30 3556 C 337.186 0.447263 2.06307 0
M  V30 3557 O 336.534 -0.559802 2.21537 0
M  V30 3558 C 336.744 2.98565 1.80721 0
M  V30 3559 C 338.092 3.54157 2.34218 0
M  V30 3560 O 339.116 3.00784 1.90807 0
M  V30 3561 O 337.975 4.47528 3.13657 0
M  V30 3562 H 335.069 0.6562 0.503319 0
M  V30 3563 H 337.615 1.66307 0.33765 0
M  V30 3564 H 336.387 3.75482 1.10132 0
M  V30 3565 H 336.01 2.9805 2.63158 0
M  V30 3566 N 337.007 -0.598083 1.45811 0
M  V30 3567 C 338.254 -1.35681 1.50323 0
M  V30 3568 C 338.582 -1.9393 0.148739 0
M  V30 3569 O 337.837 -1.76094 -0.853787 0
M  V30 3570 C 338.136 -2.51669 2.53766 0
M  V30 3571 C 337.802 -2.11508 3.98215 0
M  V30 3572 C 336.464 -2.0027 4.37545 0
M  V30 3573 C 338.816 -1.80308 4.89018 0
M  V30 3574 C 336.144 -1.56067 5.65562 0
M  V30 3575 C 338.496 -1.37589 6.17456 0
M  V30 3576 C 337.16 -1.24916 6.55708 0
M  V30 3577 H 336.43 -0.496492 0.550069 0
M  V30 3578 H 339.077 -0.675052 1.79207 0
M  V30 3579 H 337.382 -3.25225 2.18486 0
M  V30 3580 H 339.079 -3.09895 2.54492 0
M  V30 3581 H 335.669 -2.21185 3.67117 0
M  V30 3582 H 339.853 -1.87884 4.59362 0
M  V30 3583 H 335.109 -1.44886 5.93985 0
M  V30 3584 H 339.283 -1.12495 6.87254 0
M  V30 3585 H 336.91 -0.904386 7.54801 0
M  V30 3586 N 338.485 -1.33259 -0.841409 0
M  V30 3587 C 339.417 -1.19136 -1.95804 0
M  V30 3588 C 340.43 -0.122965 -1.62335 0
M  V30 3589 O 341.619 -0.373154 -1.74556 0
M  V30 3590 C 338.719 -0.804268 -3.29218 0
M  V30 3591 C 337.892 -1.96376 -3.90839 0
M  V30 3592 C 336.951 -1.55806 -5.02604 0
M  V30 3593 O 335.977 -2.27203 -5.21888 0
M  V30 3594 N 337.179 -0.461609 -5.78662 0
M  V30 3595 H 339.944 -2.15326 -2.08458 0
M  V30 3596 H 337.505 -1.25971 -1.017 0
M  V30 3597 H 339.497 -0.51501 -4.0141 0
M  V30 3598 H 338.067 0.0668809 -3.12528 0
M  V30 3599 H 337.287 -2.41879 -3.11269 0
M  V30 3600 H 338.575 -2.73966 -4.28742 0
M  V30 3601 H 337.973 0.132343 -5.65545 0
M  V30 3602 H 336.53 -0.232013 -6.51387 0
M  V30 3603 N 339.963 1.05934 -1.16686 0
M  V30 3604 C 340.913 2.11764 -0.844978 0
M  V30 3605 C 341.897 1.59922 0.177178 0
M  V30 3606 O 343.089 1.76983 -0.0241768 0
M  V30 3607 C 340.218 3.41493 -0.351812 0
M  V30 3608 C 339.304 4.00152 -1.40496 0
M  V30 3609 N 339.695 4.32874 -2.61636 0
M  V30 3610 C 337.993 4.278 -1.26106 0
M  V30 3611 C 338.694 4.79552 -3.29249 0
M  V30 3612 N 337.67 4.79211 -2.56628 0
M  V30 3613 H 341.472 2.34916 -1.76612 0
M  V30 3614 H 338.986 1.23511 -1.05446 0
M  V30 3615 H 340.983 4.16773 -0.102796 0
M  V30 3616 H 339.643 3.19778 0.56322 0
M  V30 3617 H 340.654 4.23109 -2.98663 0
M  V30 3618 H 337.331 4.15511 -0.407081 0
M  V30 3619 H 338.721 5.14045 -4.32675 0
M  V30 3620 N 341.441 0.965919 1.2453 0
M  V30 3621 C 342.404 0.499547 2.2369 0
M  V30 3622 C 343.404 -0.40294 1.5567 0
M  V30 3623 O 344.594 -0.19865 1.73064 0
M  V30 3624 C 341.726 -0.276792 3.39774 0
M  V30 3625 H 342.919 1.37613 2.66463 0
M  V30 3626 H 340.472 0.750324 1.37112 0
M  V30 3627 H 341.207 -1.17055 3.02438 0
M  V30 3628 H 340.992 0.370826 3.90343 0
M  V30 3629 H 342.482 -0.592175 4.1338 0
M  V30 3630 N 342.919 -1.39368 0.735821 0
M  V30 3631 C 344.165 -2.00794 0.284544 0
M  V30 3632 C 344.498 -1.58255 -1.12557 0
M  V30 3633 O 343.773 -0.811819 -1.76748 0
M  V30 3634 C 344.056 -3.58011 0.387337 0
M  V30 3635 C 343.909 -4.10566 1.83728 0
M  V30 3636 C 345.228 -4.395 -0.22975 0
M  V30 3637 H 342.347 -0.729501 0.104866 0
M  V30 3638 H 344.989 -1.65564 0.93213 0
M  V30 3639 H 343.139 -3.88154 -0.164006 0
M  V30 3640 H 344.811 -3.91139 2.44556 0
M  V30 3641 H 343.054 -3.64095 2.35833 0
M  V30 3642 H 343.725 -5.19702 1.86047 0
M  V30 3643 H 346.201 -4.15406 0.240257 0
M  V30 3644 H 345.077 -5.48752 -0.127485 0
M  V30 3645 H 345.338 -4.22062 -1.3159 0
M  V30 3646 N 344.397 -0.483516 -1.5 0
M  V30 3647 C 345.307 0.309172 -2.32554 0
M  V30 3648 C 346.323 0.984159 -1.43493 0
M  V30 3649 O 347.499 0.969399 -1.76535 0
M  V30 3650 C 344.564 1.36979 -3.18493 0
M  V30 3651 C 343.625 0.710095 -4.23387 0
M  V30 3652 C 342.858 1.72018 -5.05218 0
M  V30 3653 O 343.081 2.94813 -4.88305 0
M  V30 3654 O 342.015 1.28515 -5.8802 0
M  V30 3655 H 345.841 -0.366064 -3.01486 0
M  V30 3656 H 343.426 -0.24514 -1.47375 0
M  V30 3657 H 345.308 1.98385 -3.71781 0
M  V30 3658 H 343.983 2.02828 -2.52275 0
M  V30 3659 H 342.89 0.0567539 -3.74057 0
M  V30 3660 H 344.223 0.0943557 -4.9211 0
M  V30 3661 N 345.875 1.56104 -0.216619 0
M  V30 3662 C 347.121 1.98466 0.417033 0
M  V30 3663 C 347.454 1.10403 1.59765 0
M  V30 3664 O 346.729 0.160632 1.93836 0
M  V30 3665 C 347.012 3.49769 0.85637 0
M  V30 3666 C 346.865 4.48606 -0.327546 0
M  V30 3667 C 348.184 4.05339 1.7143 0
M  V30 3668 H 345.303 0.721551 0.150112 0
M  V30 3669 H 347.945 1.87423 -0.311864 0
M  V30 3670 H 346.095 3.5931 1.47745 0
M  V30 3671 H 347.767 4.5108 -0.965618 0
M  V30 3672 H 346.01 4.22682 -0.975805 0
M  V30 3673 H 346.681 5.51995 0.0227149 0
M  V30 3674 H 349.157 3.98712 1.19031 0
M  V30 3675 H 348.033 5.11533 1.99061 0
M  V30 3676 H 348.294 3.51918 2.67593 0
M  V30 3677 N 347.353 -0.0568162 1.57498 0
M  V30 3678 C 348.601 -0.751617 1.87604 0
M  V30 3679 C 348.922 -1.77351 0.81066 0
M  V30 3680 O 348.192 -1.95254 -0.159018 0
M  V30 3681 H 346.772 -0.280583 0.692302 0
M  V30 3682 H 349.434 -0.0293483 1.94878 0
M  V30 3683 H 348.53 -1.25852 2.856 0
M  V30 3684 N 348.832 -1.54138 -0.328536 0
M  V30 3685 C 350.057 -1.76378 -1.09112 0
M  V30 3686 C 350.482 -0.508596 -1.81094 0
M  V30 3687 O 349.84 0.539598 -1.73084 0
M  V30 3688 C 349.888 -2.95358 -2.06872 0
M  V30 3689 O 348.992 -2.66556 -3.14677 0
M  V30 3690 H 348.333 -0.584614 -0.314838 0
M  V30 3691 H 350.863 -2.01146 -0.374348 0
M  V30 3692 H 350.873 -3.22566 -2.4983 0
M  V30 3693 H 349.548 -3.86385 -1.5388 0
M  V30 3694 H 348.125 -2.50282 -2.7643 0
M  V30 3695 N 350.31 0.590341 -1.46126 0
M  V30 3696 C 351.538 1.37504 -1.54597 0
M  V30 3697 C 351.953 1.87897 -0.184447 0
M  V30 3698 O 351.31 1.63192 0.816984 0
M  V30 3699 C 351.361 2.56779 -2.54454 0
M  V30 3700 O 351.082 2.08476 -3.85317 0
M  V30 3701 C 352.583 3.49427 -2.72792 0
M  V30 3702 H 349.803 0.420325 -0.523037 0
M  V30 3703 H 352.347 0.718383 -1.91467 0
M  V30 3704 H 350.502 3.1845 -2.20609 0
M  V30 3705 H 350.916 2.86097 -4.396 0
M  V30 3706 H 352.39 4.29619 -3.466 0
M  V30 3707 H 352.867 4.00876 -1.79429 0
M  V30 3708 H 353.473 2.93598 -3.07702 0
M  V30 3709 N 351.788 1.33704 0.83433 0
M  V30 3710 C 352.736 1.24323 1.96587 0
M  V30 3711 C 353.73 0.143659 1.6879 0
M  V30 3712 O 354.936 0.30791 1.77347 0
M  V30 3713 H 351.311 0.385925 0.645419 0
M  V30 3714 H 353.282 2.19978 2.01624 0
M  V30 3715 C 352.031 1.00394 3.32891 0
M  V30 3716 H 351.354 1.84231 3.54822 0
M  V30 3717 H 352.794 0.97862 4.12552 0
M  V30 3718 C 351.253 -0.293047 3.35623 0
M  V30 3719 O 351.783 -1.29823 3.80143 0
M  V30 3720 N 349.989 -0.322174 2.88809 0
M  V30 3721 H 349.536 0.496379 2.52772 0
M  V30 3722 H 349.494 -1.18977 2.91019 0
M  V30 3723 N 353.266 -1.05314 1.17247 0
M  V30 3724 C 354.512 -1.78557 0.961513 0
M  V30 3725 C 354.845 -1.87419 -0.508697 0
M  V30 3726 O 354.12 -1.37307 -1.37757 0
M  V30 3727 C 354.403 -3.22514 1.60176 0
M  V30 3728 C 354.256 -3.21673 3.14399 0
M  V30 3729 C 355.575 -4.20318 1.30463 0
M  V30 3730 H 352.694 -0.6482 0.350723 0
M  V30 3731 H 355.336 -1.23102 1.44727 0
M  V30 3732 H 353.486 -3.69867 1.18871 0
M  V30 3733 H 355.158 -2.82405 3.64753 0
M  V30 3734 H 353.401 -2.60048 3.47214 0
M  V30 3735 H 354.072 -4.23271 3.54324 0
M  V30 3736 H 356.548 -3.81454 1.66229 0
M  V30 3737 H 355.424 -5.19289 1.77848 0
M  V30 3738 H 355.685 -4.41526 0.22521 0
M  V30 3739 N 354.744 -0.972509 -1.24016 0
M  V30 3740 C 356.16 -0.679827 -1.44397 0
M  V30 3741 C 356.36 0.756716 -1.86751 0
M  V30 3742 O 355.416 1.53007 -2.00861 0
M  V30 3743 C 356.729 -1.66803 -2.50195 0
M  V30 3744 C 358.277 -1.68119 -2.64017 0
M  V30 3745 C 358.752 -2.65748 -3.73017 0
M  V30 3746 N 360.243 -2.64219 -3.8045 0
M  V30 3747 C 360.978 -3.36433 -4.64328 0
M  V30 3748 N 360.474 -4.1818 -5.52356 0
M  V30 3749 N 362.267 -3.25235 -4.58453 0
M  V30 3750 H 354.418 -1.90059 -0.948228 0
M  V30 3751 H 356.681 -0.818527 -0.478245 0
M  V30 3752 H 356.387 -2.69498 -2.25973 0
M  V30 3753 H 356.261 -1.4446 -3.48441 0
M  V30 3754 H 358.648 -0.661319 -2.87594 0
M  V30 3755 H 358.729 -1.94525 -1.66113 0
M  V30 3756 H 358.373 -3.67872 -3.50189 0
M  V30 3757 H 358.303 -2.36619 -4.70446 0
M  V30 3758 H 360.794 -2.04887 -3.17537 0
M  V30 3759 H 361.107 -4.70157 -6.13329 0
M  V30 3760 H 359.452 -4.22273 -5.52006 0
M  V30 3761 H 362.643 -2.60829 -3.88698 0
M  V30 3762 H 362.816 -3.81776 -5.23594 0
M  V30 3763 N 356.222 1.38976 -0.743202 0
M  V30 3764 C 357.471 1.99581 -0.291592 0
M  V30 3765 C 357.784 1.59656 1.13001 0
M  V30 3766 O 358.99 2.13157 1.68156 0
M  V30 3767 C 357.446 3.56813 -0.470391 0
M  V30 3768 C 357.054 4.05695 -1.90041 0
M  V30 3769 C 358.798 4.24423 -0.0809709 0
M  V30 3770 C 356.705 5.5553 -2.02832 0
M  V30 3771 H 355.635 0.746615 -0.105272 0
M  V30 3772 H 358.286 1.58872 -0.918258 0
M  V30 3773 H 356.668 3.95359 0.225299 0
M  V30 3774 H 357.842 3.78464 -2.62872 0
M  V30 3775 H 356.157 3.50775 -2.24379 0
M  V30 3776 H 358.754 5.34474 -0.155445 0
M  V30 3777 H 359.097 4.04962 0.96497 0
M  V30 3778 H 359.63 3.9108 -0.728124 0
M  V30 3779 H 356.369 5.79881 -3.05643 0
M  V30 3780 H 355.889 5.84537 -1.34448 0
M  V30 3781 H 357.568 6.21069 -1.81335 0
M  V30 3782 N 357.7 0.491464 1.49741 0
M  V30 3783 C 358.948 -0.0563141 2.02022 0
M  V30 3784 C 359.269 -1.38363 1.37407 0
M  V30 3785 O 358.539 -1.88702 0.526166 0
M  V30 3786 H 357.119 -0.0238014 0.746621 0
M  V30 3787 H 359.781 0.646533 1.83864 0
M  V30 3788 H 358.877 -0.192967 3.11503 0
M  V30 3789 N 359.178 -1.55987 0.224894 0
M  V30 3790 C 360.403 -2.03232 -0.41369 0
M  V30 3791 C 360.828 -1.10359 -1.52323 0
M  V30 3792 O 360.186 -0.092395 -1.81064 0
M  V30 3793 C 360.234 -3.48682 -0.919405 0
M  V30 3794 O 359.338 -3.58947 -2.03054 0
M  V30 3795 H 358.679 -0.657428 -0.0931903 0
M  V30 3796 H 361.209 -2.01679 0.34451 0
M  V30 3797 H 361.219 -3.8907 -1.22835 0
M  V30 3798 H 359.894 -4.15761 -0.107339 0
M  V30 3799 H 358.471 -3.30448 -1.72796 0
M  V30 3800 N 360.656 0.0484629 -1.57525 0
M  V30 3801 C 361.884 0.755421 -1.92616 0
M  V30 3802 C 362.299 1.69919 -0.822984 0
M  V30 3803 O 361.656 1.81378 0.202085 0
M  V30 3804 C 361.707 1.52915 -3.27566 0
M  V30 3805 O 361.428 0.62329 -4.33644 0
M  V30 3806 C 362.929 2.33502 -3.76818 0
M  V30 3807 H 360.149 0.213465 -0.63614 0
M  V30 3808 H 362.693 0.0117698 -2.04497 0
M  V30 3809 H 360.848 2.22486 -3.17142 0
M  V30 3810 H 361.262 1.16383 -5.11425 0
M  V30 3811 H 362.736 2.83214 -4.73808 0
M  V30 3812 H 363.213 3.14068 -3.07014 0
M  V30 3813 H 363.819 1.69043 -3.90262 0
M  V30 3814 N 362.134 1.5431 0.320358 0
M  V30 3815 C 363.383 1.7188 1.05546 0
M  V30 3816 C 363.696 0.501143 1.89071 0
M  V30 3817 O 364.902 0.558258 2.65699 0
M  V30 3818 C 363.358 3.04025 1.92605 0
M  V30 3819 C 362.966 4.33207 1.14176 0
M  V30 3820 C 364.71 3.30959 2.65832 0
M  V30 3821 C 362.617 5.56412 2.00399 0
M  V30 3822 H 361.547 0.640547 0.397763 0
M  V30 3823 H 364.198 1.80802 0.313522 0
M  V30 3824 H 362.58 2.89019 2.7071 0
M  V30 3825 H 363.754 4.58989 0.40819 0
M  V30 3826 H 362.069 4.13062 0.526165 0
M  V30 3827 H 364.666 4.20203 3.30656 0
M  V30 3828 H 365.009 2.48979 3.33639 0
M  V30 3829 H 365.542 3.46847 1.94787 0
M  V30 3830 H 362.281 6.41004 1.37094 0
M  V30 3831 H 361.801 5.34844 2.7148 0
M  V30 3832 H 363.48 5.92938 2.58908 0
M  V30 3833 N 363.613 -0.582584 1.46437 0
M  V30 3834 C 364.86 -1.34079 1.51753 0
M  V30 3835 C 365.188 -1.93762 0.169299 0
M  V30 3836 O 364.443 -1.76989 -0.835062 0
M  V30 3837 C 364.742 -2.48964 2.56421 0
M  V30 3838 C 364.408 -2.07273 4.00436 0
M  V30 3839 C 363.07 -1.95618 4.39644 0
M  V30 3840 C 365.422 -1.75111 4.90903 0
M  V30 3841 C 362.75 -1.5006 5.67185 0
M  V30 3842 C 365.102 -1.31032 6.18881 0
M  V30 3843 C 363.766 -1.17954 6.56996 0
M  V30 3844 H 363.036 -0.49063 0.555304 0
M  V30 3845 H 365.683 -0.656007 1.79913 0
M  V30 3846 H 363.988 -3.22889 2.21923 0
M  V30 3847 H 365.685 -3.07178 2.57765 0
M  V30 3848 H 362.275 -2.17279 3.69443 0
M  V30 3849 H 366.459 -1.83001 4.61329 0
M  V30 3850 H 361.715 -1.38577 5.95488 0
M  V30 3851 H 365.889 -1.052 6.88408 0
M  V30 3852 H 363.516 -0.824279 7.55718 0
M  V30 3853 N 365.091 -1.34144 -0.827227 0
M  V30 3854 C 366.339 -1.26009 -1.58007 0
M  V30 3855 C 366.66 0.170971 -1.94249 0
M  V30 3856 O 365.93 1.10256 -1.61927 0
M  V30 3857 H 364.51 -0.463414 -0.585881 0
M  V30 3858 H 367.172 -1.68005 -0.987951 0
M  V30 3859 H 366.268 -1.86187 -2.50481 0
M  V30 3860 N 366.569 1.04691 -1.17803 0
M  V30 3861 C 367.479 2.16057 -0.914151 0
M  V30 3862 C 368.495 1.73589 0.119503 0
M  V30 3863 O 369.671 2.01308 -0.0609468 0
M  V30 3864 C 366.736 3.4394 -0.436603 0
M  V30 3865 C 365.797 4.00825 -1.53746 0
M  V30 3866 C 365.03 5.22604 -1.0826 0
M  V30 3867 O 365.253 5.70367 0.0612244 0
M  V30 3868 O 364.187 5.7186 -1.87775 0
M  V30 3869 H 368.013 2.41169 -1.84584 0
M  V30 3870 H 365.598 1.1453 -0.959334 0
M  V30 3871 H 367.48 4.21024 -0.178057 0
M  V30 3872 H 366.155 3.20316 0.466869 0
M  V30 3873 H 365.062 3.25158 -1.84995 0
M  V30 3874 H 366.395 4.28778 -2.41683 0
M  V30 3875 N 368.047 0.979072 1.23499 0
M  V30 3876 C 369.463 0.687475 1.44034 0
M  V30 3877 C 369.663 -0.746801 1.8715 0
M  V30 3878 O 368.719 -1.51939 2.0167 0
M  V30 3879 C 370.032 1.68127 2.49307 0
M  V30 3880 C 371.58 1.69516 2.63122 0
M  V30 3881 C 372.055 2.67723 3.71603 0
M  V30 3882 N 373.546 2.66233 3.79044 0
M  V30 3883 C 374.281 3.38891 4.62537 0
M  V30 3884 N 373.777 4.21103 5.50131 0
M  V30 3885 N 375.57 3.27661 4.56721 0
M  V30 3886 H 367.721 1.90559 0.938135 0
M  V30 3887 H 369.984 0.821051 0.473897 0
M  V30 3888 H 369.69 2.70693 2.2454 0
M  V30 3889 H 369.564 1.46306 3.4767 0
M  V30 3890 H 371.951 0.676561 2.8724 0
M  V30 3891 H 372.032 1.95404 1.65079 0
M  V30 3892 H 371.676 3.69724 3.48233 0
M  V30 3893 H 371.606 2.39111 4.69184 0
M  V30 3894 H 374.097 2.06568 3.16446 0
M  V30 3895 H 374.41 4.73403 6.10827 0
M  V30 3896 H 372.755 4.25195 5.49759 0
M  V30 3897 H 375.946 2.62887 3.87309 0
M  V30 3898 H 376.119 3.84547 5.21562 0
M  V30 3899 N 369.525 -1.3858 0.750561 0
M  V30 3900 C 370.802 -1.94231 0.231009 0
M  V30 3901 C 371.182 -1.68611 -1.27018 0
M  V30 3902 O 370.53 -1.02296 -2.04323 0
M  V30 3903 C 370.74 -3.44123 0.581428 0
M  V30 3904 C 372.088 -4.2116 0.539389 0
M  V30 3905 O 373.112 -3.52391 0.519541 0
M  V30 3906 O 371.971 -5.43749 0.54765 0
M  V30 3907 H 369.065 -0.825639 0.0474263 0
M  V30 3908 H 371.611 -1.4799 0.830478 0
M  V30 3909 H 370.383 -3.56267 1.61833 0
M  V30 3910 H 370.006 -3.97573 -0.0462047 0
M  V30 3911 N 371.003 -0.499398 -1.49478 0
M  V30 3912 C 372.233 0.0424839 -2.06556 0
M  V30 3913 C 372.641 1.31514 -1.36018 0
M  V30 3914 O 371.984 1.78555 -0.431718 0
M  V30 3915 C 372.046 0.368074 -3.57611 0
M  V30 3916 C 371.71 -0.806631 -4.49825 0
M  V30 3917 C 372.707 -1.69667 -4.91436 0
M  V30 3918 C 370.392 -1.00498 -4.92144 0
M  V30 3919 C 372.386 -2.76923 -5.74101 0
M  V30 3920 C 370.073 -2.08072 -5.74586 0
M  V30 3921 C 371.071 -2.96119 -6.15469 0
M  V30 3922 O 370.759 -4.01836 -6.96264 0
M  V30 3923 H 370.491 -0.0165165 -0.675798 0
M  V30 3924 H 373.045 -0.695497 -1.93267 0
M  V30 3925 H 371.275 1.15963 -3.68903 0
M  V30 3926 H 372.964 0.848381 -3.96935 0
M  V30 3927 H 373.73 -1.55524 -4.59388 0
M  V30 3928 H 369.609 -0.329036 -4.59824 0
M  V30 3929 H 373.153 -3.45676 -6.05932 0
M  V30 3930 H 369.05 -2.22211 -6.06047 0
M  V30 3931 H 369.818 -3.9917 -7.14567 0
M  V30 3932 N 372.481 1.55866 -0.233164 0
M  V30 3933 C 373.706 2.03449 0.402906 0
M  V30 3934 C 374.131 1.11166 1.51736 0
M  V30 3935 O 373.489 0.101996 1.81013 0
M  V30 3936 C 373.537 3.49165 0.9009 0
M  V30 3937 O 372.641 3.60019 2.01147 0
M  V30 3938 H 371.982 0.657913 0.0897025 0
M  V30 3939 H 374.512 2.01493 -0.355201 0
M  V30 3940 H 374.522 3.89716 1.2077 0
M  V30 3941 H 373.197 4.15813 0.0852889 0
M  V30 3942 H 371.774 3.3136 1.71042 0
M  V30 3943 N 373.959 -0.0401083 1.57549 0
M  V30 3944 C 374.906 -1.04413 2.05831 0
M  V30 3945 C 375.876 -1.36585 0.945184 0
M  V30 3946 O 377.061 -1.47112 1.21502 0
M  V30 3947 C 374.201 -2.34336 2.53339 0
M  V30 3948 C 373.314 -2.08419 3.78398 0
M  V30 3949 C 372.449 -3.32133 4.14561 0
M  V30 3950 C 371.488 -3.01721 5.3257 0
M  V30 3951 N 370.625 -4.17855 5.64218 0
M  V30 3952 H 375.465 -0.625442 2.91363 0
M  V30 3953 H 373.002 -0.297218 1.44066 0
M  V30 3954 H 374.96 -3.10234 2.78946 0
M  V30 3955 H 373.59 -2.73948 1.7074 0
M  V30 3956 H 372.642 -1.23069 3.59942 0
M  V30 3957 H 373.954 -1.81978 4.64419 0
M  V30 3958 H 373.108 -4.16406 4.41238 0
M  V30 3959 H 371.847 -3.61678 3.2717 0
M  V30 3960 H 370.852 -2.15849 5.05657 0
M  V30 3961 H 372.077 -2.73466 6.21605 0
M  V30 3962 H 370.023 -4.47372 4.79786 0
M  V30 3963 H 369.94 -3.94798 6.44725 0
M  V30 3964 H 371.208 -5.03033 5.95465 0
M  V30 3965 N 375.437 -1.54477 -0.31217 0
M  V30 3966 C 376.384 -1.84655 -1.38461 0
M  V30 3967 C 377.354 -0.694536 -1.50882 0
M  V30 3968 O 378.539 -0.942081 -1.6592 0
M  V30 3969 C 375.679 -2.0896 -2.74645 0
M  V30 3970 C 374.792 -3.36618 -2.70763 0
M  V30 3971 C 373.927 -3.50824 -3.98868 0
M  V30 3972 C 372.966 -4.72315 -3.89339 0
M  V30 3973 N 372.103 -4.83387 -5.09197 0
M  V30 3974 H 376.943 -2.76142 -1.12026 0
M  V30 3975 H 374.48 -1.36748 -0.542065 0
M  V30 3976 H 376.438 -2.21045 -3.53829 0
M  V30 3977 H 375.068 -1.20752 -2.99364 0
M  V30 3978 H 374.12 -3.33211 -1.83506 0
M  V30 3979 H 375.432 -4.25917 -2.59608 0
M  V30 3980 H 374.586 -3.62513 -4.86486 0
M  V30 3981 H 373.325 -2.59638 -4.12843 0
M  V30 3982 H 372.33 -4.6067 -3.00105 0
M  V30 3983 H 373.555 -5.64897 -3.76919 0
M  V30 3984 H 371.501 -3.9512 -5.23657 0
M  V30 3985 H 371.418 -5.66669 -5.00422 0
M  V30 3986 H 372.686 -4.9942 -5.98498 0
M  V30 3987 N 376.915 0.57481 -1.46744 0
M  V30 3988 C 378.326 1.15695 -1.46532 0
M  V30 3989 C 378.677 1.95068 -0.210425 0
M  V30 3990 O 377.802 2.05241 0.685944 0
M  V30 3991 C 378.397 2.1048 -2.65487 0
M  V30 3992 C 376.956 2.64002 -2.68291 0
M  V30 3993 C 376.103 1.40026 -2.39349 0
M  V30 3994 H 379.054 0.362325 -1.54509 0
M  V30 3995 H 379.075 2.94074 -2.41455 0
M  V30 3996 H 378.587 1.52683 -3.56805 0
M  V30 3997 H 376.688 3.25646 -1.81067 0
M  V30 3998 H 376.801 3.06197 -3.68483 0
M  V30 3999 H 375.165 1.70106 -1.89568 0
M  V30 4000 H 375.948 0.840485 -3.32852 0
M  V30 4001 N 378.394 1.34581 0.820102 0
M  V30 4002 C 379.622 1.3018 1.60813 0
M  V30 4003 C 380.037 -0.123551 1.88395 0
M  V30 4004 O 379.394 -1.07148 1.47735 0
M  V30 4005 C 379.445 2.09312 2.94739 0
M  V30 4006 O 379.166 3.46288 2.68358 0
M  V30 4007 C 380.667 2.1234 3.89136 0
M  V30 4008 H 377.887 0.447726 0.499782 0
M  V30 4009 H 380.431 1.77237 1.02017 0
M  V30 4010 H 378.586 1.65889 3.50085 0
M  V30 4011 H 379 3.87227 3.53774 0
M  V30 4012 H 380.474 2.72126 4.80262 0
M  V30 4013 H 380.951 1.11854 4.24718 0
M  V30 4014 H 381.557 2.55864 3.39726 0
M  V30 4015 N 379.872 -1.04064 1.18357 0
M  V30 4016 C 381.283 -1.58719 0.98312 0
M  V30 4017 C 381.634 -1.90556 -0.467193 0
M  V30 4018 O 380.759 -1.69561 -1.34454 0
M  V30 4019 C 381.354 -2.88379 1.77828 0
M  V30 4020 C 379.913 -3.3965 1.62218 0
M  V30 4021 C 379.06 -2.13235 1.77274 0
M  V30 4022 H 382.011 -0.867359 1.32901 0
M  V30 4023 H 382.032 -3.58773 1.26737 0
M  V30 4024 H 381.544 -2.65176 2.83379 0
M  V30 4025 H 379.645 -3.67866 0.592036 0
M  V30 4026 H 379.758 -4.13475 2.42023 0
M  V30 4027 H 378.122 -2.24542 1.20221 0
M  V30 4028 H 378.905 -1.92487 2.8426 0
M  V30 4029 N 381.35 -0.985608 -1.22978 0
M  V30 4030 C 382.627 -0.573599 -1.87001 0
M  V30 4031 C 383.007 0.949213 -1.88555 0
M  V30 4032 O 382.355 1.82811 -1.37086 0
M  V30 4033 C 382.565 -1.18564 -3.28243 0
M  V30 4034 C 383.913 -1.28163 -4.04796 0
M  V30 4035 O 384.937 -1.13949 -3.37482 0
M  V30 4036 O 383.796 -1.50832 -5.25273 0
M  V30 4037 H 380.89 -0.193868 -0.803955 0
M  V30 4038 H 383.436 -1.08102 -1.30813 0
M  V30 4039 H 382.208 -2.22758 -3.21706 0
M  V30 4040 H 381.831 -0.663363 -3.92027 0
M  V30 4041 N 382.828 1.3818 -0.7579 0
M  V30 4042 C 383.775 2.30416 -0.133057 0
M  V30 4043 C 384.745 1.50398 0.704957 0
M  V30 4044 O 385.93 1.79014 0.660192 0
M  V30 4045 C 383.07 3.36834 0.750813 0
M  V30 4046 C 382.183 4.31879 -0.102297 0
M  V30 4047 C 381.318 5.25368 0.784979 0
M  V30 4048 C 380.357 6.12058 -0.0715046 0
M  V30 4049 N 379.494 6.97832 0.772972 0
M  V30 4050 H 384.334 2.83274 -0.925186 0
M  V30 4051 H 381.871 1.39461 -0.467866 0
M  V30 4052 H 383.829 3.97145 1.27794 0
M  V30 4053 H 382.459 2.85374 1.50868 0
M  V30 4054 H 381.511 3.72991 -0.747095 0
M  V30 4055 H 382.823 4.92921 -0.763552 0
M  V30 4056 H 381.977 5.90818 1.37911 0
M  V30 4057 H 380.716 4.64703 1.47996 0
M  V30 4058 H 379.721 5.456 -0.678272 0
M  V30 4059 H 380.946 6.74793 -0.763606 0
M  V30 4060 H 378.892 6.3971 1.45282 0
M  V30 4061 H 378.809 7.55812 0.168709 0
M  V30 4062 H 380.077 7.67687 1.35194 0
M  V30 4063 N 384.306 0.507319 1.49211 0
M  V30 4064 C 385.546 -0.0332372 2.04373 0
M  V30 4065 C 385.91 -1.33694 1.37804 0
M  V30 4066 O 387.111 -1.96213 1.83722 0
M  V30 4067 C 385.382 -0.17599 3.56966 0
M  V30 4068 S 386.941 -0.669882 4.33657 0
M  V30 4069 H 383.759 0.00123603 0.710999 0
M  V30 4070 H 386.361 0.682725 1.83191 0
M  V30 4071 H 385.065 0.778053 4.02957 0
M  V30 4072 H 384.596 -0.917005 3.82563 0
M  V30 4073 H 386.611 -1.93806 4.56786 0
M  V30 4074 N 385.784 -1.5574 0.241426 0
M  V30 4075 C 386.747 -2.19877 -0.647063 0
M  V30 4076 C 387.747 -1.16642 -1.10686 0
M  V30 4077 O 388.937 -1.41757 -1.01245 0
M  V30 4078 C 386.069 -2.83797 -1.88871 0
M  V30 4079 H 387.262 -2.99772 -0.087574 0
M  V30 4080 H 384.815 -1.56298 -0.00813574 0
M  V30 4081 H 385.55 -2.07824 -2.48957 0
M  V30 4082 H 385.335 -3.59414 -1.56728 0
M  V30 4083 H 386.825 -3.32898 -2.52129 0
M  V30 4084 N 387.262 0.0317525 -1.57568 0
M  V30 4085 C 388.225 1.01783 -2.0536 0
M  V30 4086 C 389.225 1.29203 -0.957253 0
M  V30 4087 O 390.415 1.24251 -1.22095 0
M  V30 4088 C 387.547 2.35137 -2.46827 0
M  V30 4089 H 388.74 0.605062 -2.93733 0
M  V30 4090 H 386.293 0.278514 -1.53799 0
M  V30 4091 H 387.028 2.81168 -1.61602 0
M  V30 4092 H 386.813 2.16566 -3.26866 0
M  V30 4093 H 388.303 3.05938 -2.84239 0
M  V30 4094 N 388.74 1.54641 0.303973 0
M  V30 4095 C 390.017 1.64455 1.05896 0
M  V30 4096 C 390.397 0.490923 2.05312 0
M  V30 4097 O 389.745 -0.512685 2.22674 0
M  V30 4098 C 389.955 3.02331 1.74347 0
M  V30 4099 C 391.303 3.59045 2.26653 0
M  V30 4100 O 392.327 3.04764 1.84384 0
M  V30 4101 O 391.186 4.54081 3.04093 0
M  V30 4102 H 388.28 0.666729 0.489287 0
M  V30 4103 H 390.826 1.66986 0.302298 0
M  V30 4104 H 389.598 3.77734 1.02142 0
M  V30 4105 H 389.221 3.03565 2.56777 0
M  V30 4106 N 390.218 -0.567019 1.47046 0
M  V30 4107 C 391.464 -1.32658 1.53394 0
M  V30 4108 C 391.797 -1.93254 0.19148 0
M  V30 4109 O 391.072 -1.77338 -0.798844 0
M  V30 4110 C 391.355 -2.44412 2.64452 0
M  V30 4111 C 391.208 -1.88749 4.08282 0
M  V30 4112 C 392.527 -3.46387 2.71485 0
M  V30 4113 H 389.646 -0.48098 0.558415 0
M  V30 4114 H 392.288 -0.635481 1.79058 0
M  V30 4115 H 390.438 -3.03363 2.427 0
M  V30 4116 H 392.11 -1.34134 4.41368 0
M  V30 4117 H 390.353 -1.19481 4.17021 0
M  V30 4118 H 391.024 -2.69491 4.81745 0
M  V30 4119 H 393.5 -2.9734 2.91081 0
M  V30 4120 H 392.376 -4.2202 3.50985 0
M  V30 4121 H 392.637 -4.04616 1.78153 0
M  V30 4122 N 391.696 -1.35014 -0.812953 0
M  V30 4123 C 392.643 -1.27412 -1.92444 0
M  V30 4124 C 393.613 -0.14733 -1.65445 0
M  V30 4125 O 394.798 -0.329974 -1.87925 0
M  V30 4126 C 391.938 -1.04558 -3.28879 0
M  V30 4127 C 391.051 -2.26101 -3.68106 0
M  V30 4128 C 390.186 -1.96449 -4.9354 0
M  V30 4129 C 389.225 -3.14081 -5.25376 0
M  V30 4130 N 388.362 -2.84246 -6.41988 0
M  V30 4131 H 393.202 -2.22463 -1.98278 0
M  V30 4132 H 390.739 -1.10593 -0.969933 0
M  V30 4133 H 392.697 -0.893413 -4.07522 0
M  V30 4134 H 391.327 -0.131719 -3.22531 0
M  V30 4135 H 390.379 -2.52204 -2.84775 0
M  V30 4136 H 391.691 -3.13959 -3.87597 0
M  V30 4137 H 390.845 -1.78026 -5.79993 0
M  V30 4138 H 389.584 -1.05867 -4.76071 0
M  V30 4139 H 388.589 -3.33089 -4.37415 0
M  V30 4140 H 389.814 -4.05455 -5.44778 0
M  V30 4141 H 387.76 -1.96252 -6.25956 0
M  V30 4142 H 387.677 -3.65637 -6.61699 0
M  V30 4143 H 388.945 -2.6935 -7.31485 0
M  V30 4144 N 393.175 1.03435 -1.18907 0
M  V30 4145 C 394.138 2.09756 -0.923844 0
M  V30 4146 C 395.138 1.60528 0.093416 0
M  V30 4147 O 396.328 1.73631 -0.140727 0
M  V30 4148 C 393.46 3.38692 -0.387354 0
M  V30 4149 H 394.653 2.34719 -1.86674 0
M  V30 4150 H 392.206 1.19959 -1.00197 0
M  V30 4151 H 392.941 3.19396 0.561845 0
M  V30 4152 H 392.726 3.75742 -1.12074 0
M  V30 4153 H 394.216 4.17016 -0.220694 0
M  V30 4154 N 394.653 0.992116 1.22453 0
M  V30 4155 C 396.064 0.702776 1.72968 0
M  V30 4156 C 396.415 -0.780399 1.80012 0
M  V30 4157 O 395.54 -1.61007 1.44589 0
M  V30 4158 C 396.135 1.26903 3.14135 0
M  V30 4159 C 394.694 1.02909 3.62059 0
M  V30 4160 C 393.841 1.38969 2.39964 0
M  V30 4161 H 396.792 1.16457 1.07812 0
M  V30 4162 H 396.813 0.647223 3.74955 0
M  V30 4163 H 396.325 2.34851 3.08977 0
M  V30 4164 H 394.426 -0.0337979 3.72585 0
M  V30 4165 H 394.539 1.69191 4.48231 0
M  V30 4166 H 392.903 0.808279 2.41535 0
M  V30 4167 H 393.686 2.4792 2.37467 0
M  V30 4168 N 396.131 -1.37776 0.765217 0
M  V30 4169 C 397.061 -2.32945 0.160953 0
M  V30 4170 C 398.042 -1.55454 -0.690516 0
M  V30 4171 O 399.227 -1.83721 -0.629318 0
M  V30 4172 C 396.357 -3.39669 -0.724031 0
M  V30 4173 C 395.311 -4.27992 0.0256173 0
M  V30 4174 C 394.637 -5.25673 -0.978383 0
M  V30 4175 C 395.937 -5.08309 1.20082 0
M  V30 4176 H 397.631 -2.83728 0.955969 0
M  V30 4177 H 395.177 -1.36416 0.461149 0
M  V30 4178 H 397.13 -4.05219 -1.15652 0
M  V30 4179 H 395.854 -2.87396 -1.5515 0
M  V30 4180 H 394.513 -3.63964 0.438812 0
M  V30 4181 H 394.161 -4.69682 -1.80022 0
M  V30 4182 H 393.861 -5.85625 -0.481378 0
M  V30 4183 H 395.385 -5.94098 -1.40995 0
M  V30 4184 H 396.799 -5.67034 0.845307 0
M  V30 4185 H 395.196 -5.77554 1.62947 0
M  V30 4186 H 396.266 -4.41365 2.00811 0
M  V30 4187 N 397.609 -0.515225 -1.4894 0
M  V30 4188 C 398.519 0.259774 -2.33157 0
M  V30 4189 C 399.535 0.953501 -1.45548 0
M  V30 4190 O 400.711 0.931735 -1.78552 0
M  V30 4191 C 397.776 1.30193 -3.21326 0
M  V30 4192 C 396.837 0.620129 -4.24797 0
M  V30 4193 C 396.07 1.61263 -5.08753 0
M  V30 4194 O 396.293 2.84389 -4.94448 0
M  V30 4195 O 395.227 1.16013 -5.90614 0
M  V30 4196 H 399.053 -0.429932 -3.00641 0
M  V30 4197 H 396.638 -0.276346 -1.46822 0
M  V30 4198 H 398.52 1.90455 -3.75905 0
M  V30 4199 H 397.195 1.97431 -2.56521 0
M  V30 4200 H 396.102 -0.0226019 -3.74093 0
M  V30 4201 H 397.435 -0.0100493 -4.92199 0
M  V30 4202 N 399.087 1.5561 -0.249682 0
M  V30 4203 C 400.333 1.99306 0.374841 0
M  V30 4204 C 400.666 1.13767 1.57387 0
M  V30 4205 O 399.941 0.201711 1.93451 0
M  V30 4206 C 400.224 3.51507 0.781986 0
M  V30 4207 C 400.077 4.4781 -0.422629 0
M  V30 4208 C 401.396 4.08884 1.62793 0
M  V30 4209 H 398.515 0.724572 0.134773 0
M  V30 4210 H 401.157 1.86719 -0.351549 0
M  V30 4211 H 399.307 3.62363 1.4009 0
M  V30 4212 H 400.979 4.48931 -1.06108 0
M  V30 4213 H 399.222 4.20518 -1.06524 0
M  V30 4214 H 399.893 5.51919 -0.0943766 0
M  V30 4215 H 402.369 4.01147 1.10547 0
M  V30 4216 H 401.245 5.1564 1.88166 0
M  V30 4217 H 401.506 3.57515 2.60068 0
M  V30 4218 N 400.565 -0.0233959 1.57583 0
M  V30 4219 C 401.528 -1.00693 2.05897 0
M  V30 4220 C 402.528 -1.28693 0.964092 0
M  V30 4221 O 403.718 -1.23602 1.22753 0
M  V30 4222 C 400.85 -2.33825 2.4807 0
M  V30 4223 H 402.043 -0.589476 2.9405 0
M  V30 4224 H 399.596 -0.270354 1.53944 0
M  V30 4225 H 400.331 -2.80307 1.6309 0
M  V30 4226 H 400.116 -2.1483 3.2801 0
M  V30 4227 H 401.606 -3.04426 2.85857 0
M  V30 4228 N 402.043 -1.548 -0.295768 0
M  V30 4229 C 402.975 -1.82492 -1.3867 0
M  V30 4230 C 403.988 -0.708134 -1.46592 0
M  V30 4231 O 405.177 -0.985686 -1.48817 0
M  V30 4232 C 402.277 -1.95256 -2.76999 0
M  V30 4233 C 401.45 -3.25709 -2.91946 0
M  V30 4234 C 400.509 -3.28824 -4.10806 0
M  V30 4235 O 399.535 -4.02328 -4.02643 0
M  V30 4236 N 400.737 -2.5459 -5.21694 0
M  V30 4237 H 403.502 -2.76646 -1.15269 0
M  V30 4238 H 401.063 -1.54438 -0.485849 0
M  V30 4239 H 403.055 -1.94736 -3.54768 0
M  V30 4240 H 401.625 -1.08072 -2.93324 0
M  V30 4241 H 400.845 -3.38959 -2.01247 0
M  V30 4242 H 402.133 -4.11786 -2.98847 0
M  V30 4243 H 401.531 -1.94512 -5.31208 0
M  V30 4244 H 400.088 -2.59818 -5.97778 0
M  V30 4245 N 403.521 0.559213 -1.47345 0
M  V30 4246 C 404.431 1.69388 -1.62311 0
M  V30 4247 C 405.447 1.6648 -0.505993 0
M  V30 4248 O 406.623 1.85964 -0.773262 0
M  V30 4249 C 403.688 3.05894 -1.63185 0
M  V30 4250 C 402.749 3.19885 -2.86307 0
M  V30 4251 C 401.982 4.49879 -2.87131 0
M  V30 4252 O 402.205 5.35217 -1.97229 0
M  V30 4253 O 401.139 4.67618 -3.78968 0
M  V30 4254 H 404.965 1.59706 -2.58317 0
M  V30 4255 H 402.55 0.728989 -1.30407 0
M  V30 4256 H 404.432 3.87133 -1.66451 0
M  V30 4257 H 403.107 3.15964 -0.70345 0
M  V30 4258 H 402.014 2.38052 -2.88587 0
M  V30 4259 H 403.347 3.14718 -3.78435 0
M  V30 4260 N 404.999 1.35443 0.805782 0
M  V30 4261 C 405.949 1.24972 1.90699 0
M  V30 4262 C 406.933 0.144806 1.60247 0
M  V30 4263 O 408.125 0.376102 1.72958 0
M  V30 4264 C 405.254 1.02475 3.27649 0
M  V30 4265 C 404.34 2.17361 3.64164 0
M  V30 4266 N 404.731 3.42591 3.72109 0
M  V30 4267 C 403.029 2.08765 3.94123 0
M  V30 4268 C 403.73 4.18144 4.04389 0
M  V30 4269 N 402.706 3.4691 4.18515 0
M  V30 4270 H 406.508 2.19852 1.95044 0
M  V30 4271 H 404.022 1.27928 1.00041 0
M  V30 4272 H 406.019 0.930617 4.06381 0
M  V30 4273 H 404.679 0.0848009 3.24589 0
M  V30 4274 H 405.69 3.76932 3.55166 0
M  V30 4275 H 402.367 1.22629 3.99084 0
M  V30 4276 H 403.757 5.26367 4.17597 0
M  V30 4277 O 406.516 -0.944775 1.30982 0
M  V30 4278 H 407.207 -1.57432 1.12848 0
M  V30 END ATOM
M  V30 BEGIN BOND
M  V30 END BOND
M  V30 END CTAB
M  END
$$$$
