drugbank_target|P0A6I0 Cytidylate kinase (DB02456; DB02883; DB03403; DB04555)
 OpenBabel12092119563D

  0  0  0     0  0            999 V3000
M  V30 BEGIN CTAB
M  V30 COUNTS 3513 3538 0 0 0
M  V30 BEGIN ATOM
M  V30 1 H -0.908 1.98254 -0.117106 0
M  V30 2 N 0 1.576 0 0
M  V30 3 C 0.933 2.03868 1.02534 0
M  V30 4 C 1.911 0.928543 1.3348 0
M  V30 5 O 3.095 1.19667 1.45644 0
M  V30 6 C 0.222 2.43627 2.35294 0
M  V30 7 C -0.732 3.65373 2.2001 0
M  V30 8 S 0.101 5.13292 1.52614 0
M  V30 9 C 1.257 5.56322 2.86805 0
M  V30 10 H 1.49 2.90518 0.631377 0
M  V30 11 H -0.977 1.52953 0.210867 0
M  V30 12 H 0.981 2.67203 3.11629 0
M  V30 13 H -0.358 1.57376 2.7183 0
M  V30 14 H -1.165 3.90944 3.18086 0
M  V30 15 H -1.563 3.418 1.51819 0
M  V30 16 H 0.729 5.58782 3.83104 0
M  V30 17 H 1.672 6.56266 2.65933 0
M  V30 18 H 2.08 4.83886 2.90714 0
M  V30 19 N 1.4781 -0.272755 1.55222 0
M  V30 20 C 2.7061 -1.02255 1.79865 0
M  V30 21 C 3.1211 -1.79924 0.572088 0
M  V30 22 O 2.4781 -1.76638 -0.458842 0
M  V30 23 C 2.5291 -1.98094 3.02392 0
M  V30 24 O 2.2501 -1.23572 4.20311 0
M  V30 25 C 3.7511 -2.84884 3.39641 0
M  V30 26 H 0.9711 -0.302057 0.599168 0
M  V30 27 H 3.5151 -0.303465 2.02236 0
M  V30 28 H 1.6701 -2.65465 2.82147 0
M  V30 29 H 2.0841 -1.88172 4.89583 0
M  V30 30 H 3.5581 -3.47927 4.28545 0
M  V30 31 H 4.0351 -3.54665 2.59055 0
M  V30 32 H 4.6411 -2.23003 3.62146 0
M  V30 33 N 2.9562 -1.48159 -0.537278 0
M  V30 34 C 3.9192 -1.61665 -1.62472 0
M  V30 35 C 4.9192 -0.490395 -1.5314 0
M  V30 36 O 6.1092 -0.755998 -1.5694 0
M  V30 37 C 3.2412 -1.57997 -3.02076 0
M  V30 38 H 4.4342 -2.58621 -1.51839 0
M  V30 39 H 1.9872 -1.36647 -0.758771 0
M  V30 40 H 2.7222 -0.624913 -3.18222 0
M  V30 41 H 2.5072 -2.39755 -3.10258 0
M  V30 42 H 3.9972 -1.70627 -3.81151 0
M  V30 43 N 4.4343 0.785586 -1.36625 0
M  V30 44 C 5.6833 1.53883 -1.30396 0
M  V30 45 C 5.9963 1.95271 0.113452 0
M  V30 46 O 7.2023 2.69858 0.298142 0
M  V30 47 C 5.6583 2.77808 -2.28802 0
M  V30 48 C 5.2663 2.43574 -3.75999 0
M  V30 49 C 7.0103 3.55783 -2.31558 0
M  V30 50 C 4.9173 3.63919 -4.66173 0
M  V30 51 H 3.8473 0.577678 -0.484566 0
M  V30 52 H 6.4983 0.861705 -1.62009 0
M  V30 53 H 4.8803 3.47339 -1.90188 0
M  V30 54 H 6.0543 1.81916 -4.23371 0
M  V30 55 H 4.3693 1.78803 -3.76056 0
M  V30 56 H 6.9663 4.45205 -2.96137 0
M  V30 57 H 7.3093 3.94644 -1.3252 0
M  V30 58 H 7.8423 2.93235 -2.68809 0
M  V30 59 H 4.5813 3.3015 -5.66287 0
M  V30 60 H 4.1013 4.2473 -4.23515 0
M  V30 61 H 5.7803 4.30901 -4.82632 0
M  V30 62 N 5.9124 1.20967 1.01018 0
M  V30 63 C 6.8754 0.965918 2.07853 0
M  V30 64 C 7.8754 -0.0610545 1.60684 0
M  V30 65 O 9.0654 0.175681 1.73312 0
M  V30 66 C 6.1974 0.455513 3.37843 0
M  V30 67 H 7.3904 1.91365 2.3091 0
M  V30 68 H 4.9434 1.02594 1.17916 0
M  V30 69 H 5.6784 -0.497381 3.20463 0
M  V30 70 H 5.4634 1.19622 3.73407 0
M  V30 71 H 6.9534 0.304667 4.16487 0
M  V30 72 N 7.3905 -1.2043 1.01659 0
M  V30 73 C 8.8015 -1.71517 0.737482 0
M  V30 74 C 9.1525 -1.81547 -0.743973 0
M  V30 75 O 8.2775 -1.47803 -1.58061 0
M  V30 76 C 8.8725 -3.11515 1.33206 0
M  V30 77 C 7.4315 -3.59912 1.10183 0
M  V30 78 C 6.5785 -2.37116 1.43776 0
M  V30 79 H 9.5295 -1.05444 1.18606 0
M  V30 80 H 9.5505 -3.73575 0.722636 0
M  V30 81 H 9.0625 -3.04182 2.41028 0
M  V30 82 H 7.1635 -3.72577 0.0412756 0
M  V30 83 H 7.2765 -4.44731 1.78188 0
M  V30 84 H 5.6405 -2.39857 0.856778 0
M  V30 85 H 6.4235 -2.32424 2.52654 0
M  V30 86 N 8.8686 -0.792821 -1.36206 0
M  V30 87 C 10.1146 -0.36733 -1.99446 0
M  V30 88 C 10.4476 1.05917 -1.62774 0
M  V30 89 O 9.7226 1.7324 -0.88421 0
M  V30 90 C 10.0056 -0.535044 -3.56103 0
M  V30 91 C 9.8586 -2.00548 -4.02617 0
M  V30 92 C 11.1776 0.0478191 -4.40074 0
M  V30 93 H 8.2966 -0.134941 -0.724541 0
M  V30 94 H 10.9386 -0.999794 -1.61568 0
M  V30 95 H 9.0886 0.00336329 -3.885 0
M  V30 96 H 10.7606 -2.60521 -3.80692 0
M  V30 97 H 9.0036 -2.50686 -3.54032 0
M  V30 98 H 9.6746 -2.07377 -5.11565 0
M  V30 99 H 12.1506 -0.411822 -4.14057 0
M  V30 100 H 11.0266 -0.0995336 -5.4881 0
M  V30 101 H 11.2876 1.14025 -4.27142 0
M  V30 102 N 10.3467 1.47872 -0.545128 0
M  V30 103 C 11.5957 2.01695 -0.0145033 0
M  V30 104 C 11.9087 1.42609 1.33873 0
M  V30 105 O 13.1147 1.88021 1.95858 0
M  V30 106 C 11.5707 3.59892 0.0245068 0
M  V30 107 C 11.1787 4.27966 -1.32475 0
M  V30 108 C 12.9227 4.21507 0.50316 0
M  V30 109 C 10.8297 5.78136 -1.2455 0
M  V30 110 H 9.7597 0.753998 -0.00165172 0
M  V30 111 H 12.4107 1.69985 -0.691175 0
M  V30 112 H 10.7927 3.88509 0.766575 0
M  V30 113 H 11.9667 4.11003 -2.08357 0
M  V30 114 H 10.2817 3.78286 -1.74036 0
M  V30 115 H 12.8787 5.31538 0.580656 0
M  V30 116 H 13.2217 3.87855 1.51243 0
M  V30 117 H 13.7547 3.97376 -0.183681 0
M  V30 118 H 10.4937 6.16388 -2.23039 0
M  V30 119 H 10.0137 5.97469 -0.528282 0
M  V30 120 H 11.6927 6.40099 -0.942488 0
M  V30 121 N 11.8248 0.280983 1.55075 0
M  V30 122 C 13.0528 -0.337293 2.04132 0
M  V30 123 C 13.4678 -1.4903 1.15912 0
M  V30 124 O 12.8248 -1.81606 0.180459 0
M  V30 125 C 12.8758 -0.812706 3.52246 0
M  V30 126 O 12.5968 0.294387 4.3711 0
M  V30 127 C 14.0978 -1.4982 4.17216 0
M  V30 128 H 11.3178 -0.0761638 0.666663 0
M  V30 129 H 13.8618 0.414787 2.00249 0
M  V30 130 H 12.0168 -1.51486 3.56554 0
M  V30 131 H 12.4308 -0.0721325 5.2445 0
M  V30 132 H 13.9048 -1.7822 5.22438 0
M  V30 133 H 14.3818 -2.43168 3.65741 0
M  V30 134 H 14.9878 -0.839742 4.16927 0
M  V30 135 N 13.3029 -1.57598 0.00835791 0
M  V30 136 C 14.5519 -1.90107 -0.673968 0
M  V30 137 C 14.8649 -0.884275 -1.7447 0
M  V30 138 O 16.0709 -1.09987 -2.48224 0
M  V30 139 C 14.5269 -3.37497 -1.24995 0
M  V30 140 C 14.1349 -4.47491 -0.2136 0
M  V30 141 C 15.8789 -3.79104 -1.90999 0
M  V30 142 C 13.7859 -5.85963 -0.80005 0
M  V30 143 H 12.7159 -0.709393 -0.255495 0
M  V30 144 H 15.3669 -1.83365 0.0702693 0
M  V30 145 H 13.7489 -3.39102 -2.04513 0
M  V30 146 H 14.9229 -4.57414 0.557596 0
M  V30 147 H 13.2379 -4.14956 0.346474 0
M  V30 148 H 15.8349 -4.79901 -2.35795 0
M  V30 149 H 16.1779 -3.1306 -2.74407 0
M  V30 150 H 16.7109 -3.79833 -1.18203 0
M  V30 151 H 13.4499 -6.555 -0.00456708 0
M  V30 152 H 12.9699 -5.79687 -1.54021 0
M  V30 153 H 14.6489 -6.33884 -1.29615 0
M  V30 154 N 14.781 0.264519 -1.55364 0
M  V30 155 C 16.058 1.01677 -1.67096 0
M  V30 156 C 16.438 2.03996 -0.543015 0
M  V30 157 O 15.786 2.23907 0.45585 0
M  V30 158 C 15.996 1.66596 -3.0667 0
M  V30 159 C 17.344 2.17442 -3.64697 0
M  V30 160 O 18.368 1.76568 -3.09358 0
M  V30 161 O 17.227 2.92439 -4.61673 0
M  V30 162 H 14.321 0.472161 -0.678965 0
M  V30 163 H 16.867 0.259703 -1.67701 0
M  V30 164 H 15.639 0.924962 -3.80211 0
M  V30 165 H 15.262 2.48968 -3.10001 0
M  V30 166 N 16.2591 1.48442 0.529413 0
M  V30 167 C 17.5071 1.56179 1.28267 0
M  V30 168 C 17.8281 0.237721 1.93546 0
M  V30 169 O 17.0981 -0.740779 1.81354 0
M  V30 170 H 15.6781 0.575367 0.476405 0
M  V30 171 H 18.3401 1.84909 0.61602 0
M  V30 172 H 17.4361 2.34312 2.06165 0
M  V30 173 N 17.7372 -0.778329 1.37039 0
M  V30 174 C 19.1482 -1.35421 1.28523 0
M  V30 175 C 19.4992 -1.96075 -0.0700901 0
M  V30 176 O 18.6242 -1.93352 -0.971801 0
M  V30 177 C 19.2192 -2.46211 2.32735 0
M  V30 178 C 17.7782 -2.99585 2.27873 0
M  V30 179 C 16.9252 -1.72748 2.16918 0
M  V30 180 H 19.8762 -0.5791 1.47757 0
M  V30 181 H 19.8972 -3.2552 1.9702 0
M  V30 182 H 19.4092 -2.02036 3.31365 0
M  V30 183 H 17.5102 -3.48152 1.32745 0
M  V30 184 H 17.6232 -3.55646 3.21018 0
M  V30 185 H 15.9872 -1.95416 1.63354 0
M  V30 186 H 16.7702 -1.30686 3.17452 0
M  V30 187 N 19.2153 -1.21501 -1.00376 0
M  V30 188 C 20.4403 -1.05977 -1.78279 0
M  V30 189 C 20.8653 0.385994 -1.84097 0
M  V30 190 O 20.2233 1.27849 -1.28547 0
M  V30 191 C 20.2713 -1.66302 -3.19963 0
M  V30 192 O 19.3753 -0.909333 -4.0225 0
M  V30 193 H 18.7163 -0.372906 -0.549397 0
M  V30 194 H 21.2463 -1.6107 -1.26165 0
M  V30 195 H 21.2563 -1.70574 -3.70632 0
M  V30 196 H 19.9313 -2.71515 -3.15043 0
M  V30 197 H 18.5083 -0.941795 -3.60811 0
M  V30 198 N 20.6934 1.19889 -1.02296 0
M  V30 199 C 21.9414 1.89046 -0.714558 0
M  V30 200 C 22.2624 1.79636 0.758681 0
M  V30 201 O 21.5324 1.20292 1.54618 0
M  V30 202 H 20.1124 0.699802 -0.261317 0
M  V30 203 H 22.7744 1.45574 -1.29592 0
M  V30 204 H 21.8704 2.95524 -1.0036 0
M  V30 205 N 22.1715 0.800033 1.35784 0
M  V30 206 C 23.1345 0.211565 2.28221 0
M  V30 207 C 24.1345 -0.59728 1.49296 0
M  V30 208 O 25.3245 -0.416721 1.69142 0
M  V30 209 C 22.4565 -0.705846 3.33513 0
M  V30 210 H 23.6495 1.02677 2.81776 0
M  V30 211 H 21.2025 0.570211 1.45528 0
M  V30 212 H 21.9375 -1.54498 2.85133 0
M  V30 213 H 21.7225 -0.127655 3.91892 0
M  V30 214 H 23.2125 -1.11211 4.02519 0
M  V30 215 N 23.6496 -1.47581 0.552962 0
M  V30 216 C 24.8976 -2.02082 0.0272703 0
M  V30 217 C 25.2186 -1.4301 -1.32563 0
M  V30 218 O 24.4886 -0.603745 -1.86365 0
M  V30 219 H 23.0686 -0.746966 0.00709182 0
M  V30 220 H 25.7306 -1.81033 0.722008 0
M  V30 221 H 24.8266 -3.12034 -0.0639951 0
M  V30 222 N 25.1277 -0.289203 -1.54924 0
M  V30 223 C 26.0747 0.592115 -2.23075 0
M  V30 224 C 27.0447 1.13881 -1.20915 0
M  V30 225 O 28.2297 1.18551 -1.495 0
M  V30 226 C 25.3697 1.76376 -2.96623 0
M  V30 227 C 24.4827 1.24959 -4.13533 0
M  V30 228 C 23.6177 2.38416 -4.74691 0
M  V30 229 C 22.6567 1.84072 -5.83767 0
M  V30 230 N 21.7937 2.91057 -6.38929 0
M  V30 231 H 26.6337 0.00432038 -2.98 0
M  V30 232 H 24.1707 -0.00963529 -1.47097 0
M  V30 233 H 26.1287 2.45268 -3.3749 0
M  V30 234 H 24.7587 2.32337 -2.24097 0
M  V30 235 H 23.8107 0.453307 -3.77689 0
M  V30 236 H 25.1227 0.811662 -4.92152 0
M  V30 237 H 24.2767 3.15276 -5.18349 0
M  V30 238 H 23.0157 2.8553 -3.95378 0
M  V30 239 H 22.0207 1.05697 -5.39545 0
M  V30 240 H 23.2457 1.37877 -6.64956 0
M  V30 241 H 21.1917 3.37526 -5.62505 0
M  V30 242 H 21.1087 2.51724 -7.12861 0
M  V30 243 H 22.3767 3.6785 -6.87246 0
M  V30 244 N 26.6058 1.57591 -0.0167156 0
M  V30 245 C 27.8538 1.90906 0.663285 0
M  V30 246 C 28.1748 0.892509 1.73376 0
M  V30 247 O 27.4448 -0.0677623 1.95783 0
M  V30 248 H 26.0248 0.704637 0.247983 0
M  V30 249 H 28.6868 1.94803 -0.0615909 0
M  V30 250 H 27.7828 2.9116 1.12393 0
M  V30 251 N 28.0839 -0.256276 1.55502 0
M  V30 252 C 29.3119 -1.00342 1.8094 0
M  V30 253 C 29.7269 -1.79307 0.59114 0
M  V30 254 O 29.0839 -1.77114 -0.440081 0
M  V30 255 C 29.1349 -1.94875 3.04476 0
M  V30 256 O 28.8559 -1.19107 4.21598 0
M  V30 257 C 30.3569 -2.81266 3.42644 0
M  V30 258 H 27.5769 -0.295685 0.602338 0
M  V30 259 H 30.1209 -0.281998 2.02546 0
M  V30 260 H 28.2759 -2.62457 2.84947 0
M  V30 261 H 28.6899 -1.82969 4.91551 0
M  V30 262 H 30.1639 -3.43362 4.32211 0
M  V30 263 H 30.6409 -3.51897 2.62802 0
M  V30 264 H 31.2469 -2.1915 3.64491 0
M  V30 265 N 29.562 -1.4872 -0.521534 0
M  V30 266 C 30.492 -1.66771 -1.63431 0
M  V30 267 C 31.473 -0.516499 -1.62069 0
M  V30 268 O 32.658 -0.750013 -1.79132 0
M  V30 269 C 29.788 -1.71515 -3.01993 0
M  V30 270 C 28.742 -2.86222 -3.18216 0
M  V30 271 C 28.068 -2.76061 -4.57924 0
M  V30 272 C 29.368 -4.27419 -3.00184 0
M  V30 273 H 31.062 -2.59932 -1.48579 0
M  V30 274 H 28.608 -1.25089 -0.713358 0
M  V30 275 H 30.561 -1.82731 -3.7972 0
M  V30 276 H 29.285 -0.749393 -3.17886 0
M  V30 277 H 27.944 -2.74575 -2.42908 0
M  V30 278 H 27.592 -1.77437 -4.70665 0
M  V30 279 H 27.292 -3.53037 -4.69722 0
M  V30 280 H 28.816 -2.89256 -5.37739 0
M  V30 281 H 30.23 -4.39855 -3.67697 0
M  V30 282 H 28.627 -5.05458 -3.2347 0
M  V30 283 H 29.697 -4.43293 -1.96518 0
M  V30 284 N 31.0401 0.771051 -1.3745 0
M  V30 285 C 32.2801 1.54264 -1.34096 0
M  V30 286 C 32.6441 1.91858 0.0737639 0
M  V30 287 O 33.8451 2.67797 0.23203 0
M  V30 288 C 32.1161 2.77326 -2.25445 0
M  V30 289 S 33.6751 3.67383 -2.39948 0
M  V30 290 H 30.4931 0.528122 -0.476034 0
M  V30 291 H 33.0951 0.906633 -1.73206 0
M  V30 292 H 31.7991 2.47788 -3.27153 0
M  V30 293 H 31.3301 3.45886 -1.87421 0
M  V30 294 H 33.3451 4.69334 -1.61059 0
M  V30 295 N 32.5182 1.22032 0.997298 0
M  V30 296 C 33.4652 0.986467 2.08656 0
M  V30 297 C 34.4352 -0.0902671 1.65855 0
M  V30 298 O 35.6202 0.0584294 1.90711 0
M  V30 299 C 32.7602 0.565569 3.40434 0
M  V30 300 C 31.8732 1.71259 3.96604 0
M  V30 301 C 31.0082 1.24011 5.16522 0
M  V30 302 C 30.0472 2.35896 5.64818 0
M  V30 303 N 29.1842 1.89726 6.7598 0
M  V30 304 H 34.0242 1.91892 2.27994 0
M  V30 305 H 31.5612 0.956199 1.11782 0
M  V30 306 H 33.5192 0.302738 4.161 0
M  V30 307 H 32.1492 -0.329879 3.2111 0
M  V30 308 H 31.2012 2.08986 3.17851 0
M  V30 309 H 32.5132 2.55436 4.28432 0
M  V30 310 H 31.6672 0.934395 5.99461 0
M  V30 311 H 30.4062 0.368487 4.86306 0
M  V30 312 H 29.4112 2.67261 4.8047 0
M  V30 313 H 30.6362 3.23567 5.97061 0
M  V30 314 H 28.5822 1.0492 6.47555 0
M  V30 315 H 28.4992 2.67471 7.07103 0
M  V30 316 H 29.7672 1.62211 7.62435 0
M  V30 317 N 33.9963 -1.19345 1.0293 0
M  V30 318 C 34.9593 -2.20793 0.615069 0
M  V30 319 C 35.9593 -1.57553 -0.321533 0
M  V30 320 O 37.1493 -1.73862 -0.108483 0
M  V30 321 C 34.2813 -3.40754 -0.0999222 0
M  V30 322 H 35.4743 -2.58955 1.51269 0
M  V30 323 H 33.0273 -1.3303 0.820534 0
M  V30 324 H 33.7623 -3.0811 -1.01187 0
M  V30 325 H 33.5473 -3.87889 0.57309 0
M  V30 326 H 35.0373 -4.15898 -0.376645 0
M  V30 327 N 35.4744 -0.807222 -1.35358 0
M  V30 328 C 36.4074 -0.163572 -2.27613 0
M  V30 329 C 37.3854 0.670817 -1.48118 0
M  V30 330 O 38.5694 0.63796 -1.77376 0
M  V30 331 C 35.6964 0.773015 -3.29761 0
M  V30 332 C 34.7424 0.0181653 -4.26496 0
M  V30 333 S 35.5754 -1.31831 -5.19019 0
M  V30 334 C 36.7314 -0.38619 -6.24707 0
M  V30 335 H 36.9644 -0.945757 -2.81856 0
M  V30 336 H 34.4974 -0.602315 -1.42167 0
M  V30 337 H 36.4554 1.30788 -3.89108 0
M  V30 338 H 35.1164 1.52859 -2.74396 0
M  V30 339 H 34.3094 0.729534 -4.98692 0
M  V30 340 H 33.9114 -0.446761 -3.71322 0
M  V30 341 H 36.2034 0.428295 -6.76145 0
M  V30 342 H 37.1464 -1.07736 -6.99856 0
M  V30 343 H 37.5544 0.018398 -5.64497 0
M  V30 344 N 36.9525 1.47285 -0.560781 0
M  V30 345 C 37.9155 2.28535 0.174488 0
M  V30 346 C 38.9155 1.37153 0.839388 0
M  V30 347 O 40.1055 1.59748 0.694702 0
M  V30 348 C 37.2375 3.16934 1.25561 0
M  V30 349 H 38.4305 2.95012 -0.539262 0
M  V30 350 H 35.9835 1.53034 -0.317865 0
M  V30 351 H 36.7185 2.55157 2.00164 0
M  V30 352 H 36.5035 3.8419 0.783604 0
M  V30 353 H 37.9935 3.78143 1.77193 0
M  V30 354 N 38.4306 0.297415 1.54768 0
M  V30 355 C 39.3406 -0.58983 2.27064 0
M  V30 356 C 40.3566 -1.15144 1.30453 0
M  V30 357 O 41.5326 -1.17699 1.63428 0
M  V30 358 C 38.5976 -1.74714 2.9946 0
M  V30 359 C 37.6586 -1.21997 4.11601 0
M  V30 360 C 36.8916 -2.32212 4.80535 0
M  V30 361 O 37.1146 -3.52036 4.48806 0
M  V30 362 O 36.0486 -1.99106 5.68014 0
M  V30 363 H 39.8746 -0.00348199 3.037 0
M  V30 364 H 37.4596 0.0640035 1.49263 0
M  V30 365 H 39.3416 -2.42147 3.44881 0
M  V30 366 H 38.0166 -2.32016 2.25722 0
M  V30 367 H 36.9236 -0.511458 3.70587 0
M  V30 368 H 38.2566 -0.692419 4.87305 0
M  V30 369 N 39.9087 -1.5758 0.0250728 0
M  V30 370 C 40.8717 -2.08896 -0.943139 0
M  V30 371 C 41.8717 -1.00321 -1.25668 0
M  V30 372 O 43.0617 -1.26495 -1.19769 0
M  V30 373 C 40.1937 -2.55143 -2.26086 0
M  V30 374 H 41.3867 -2.95723 -0.498775 0
M  V30 375 H 38.9397 -1.54703 -0.222888 0
M  V30 376 H 39.6747 -1.71633 -2.75159 0
M  V30 377 H 39.4597 -3.34461 -2.04641 0
M  V30 378 H 40.9497 -2.95083 -2.95492 0
M  V30 379 N 41.3868 0.248026 -1.55636 0
M  V30 380 C 42.3168 1.31079 -1.93237 0
M  V30 381 C 43.2978 1.50264 -0.797174 0
M  V30 382 O 44.4828 1.62891 -1.05737 0
M  V30 383 C 41.6128 2.66575 -2.22609 0
M  V30 384 C 40.5668 2.62087 -3.3837 0
M  V30 385 C 39.8928 4.01369 -3.53281 0
M  V30 386 C 41.1928 2.19171 -4.7409 0
M  V30 387 H 42.8868 0.998556 -2.82257 0
M  V30 388 H 40.4328 0.47891 -1.35803 0
M  V30 389 H 42.3858 3.41057 -2.47503 0
M  V30 390 H 41.1098 2.99432 -1.30414 0
M  V30 391 H 39.7688 1.90063 -3.13483 0
M  V30 392 H 39.4168 4.31489 -2.58508 0
M  V30 393 H 39.1168 3.99254 -4.31127 0
M  V30 394 H 40.6408 4.77552 -3.80495 0
M  V30 395 H 42.0548 2.83384 -4.98363 0
M  V30 396 H 40.4518 2.2817 -5.5503 0
M  V30 397 H 41.5218 1.14336 -4.71227 0
M  V30 398 N 42.8649 1.48995 0.513639 0
M  V30 399 C 43.7969 1.60836 1.63293 0
M  V30 400 C 44.8099 0.491701 1.55197 0
M  V30 401 O 45.9989 0.763238 1.6136 0
M  V30 402 C 43.0989 1.53731 3.02027 0
M  V30 403 C 42.2719 2.80715 3.35437 0
M  V30 404 C 41.3309 2.66837 4.53525 0
M  V30 405 O 40.3569 3.40753 4.55934 0
M  V30 406 N 41.5589 1.77539 5.52684 0
M  V30 407 H 44.3239 2.57366 1.53566 0
M  V30 408 H 41.8849 1.45925 0.701259 0
M  V30 409 H 43.8769 1.42118 3.78926 0
M  V30 410 H 42.4469 0.651092 3.05744 0
M  V30 411 H 41.6669 3.06772 2.47557 0
M  V30 412 H 42.9549 3.64927 3.54551 0
M  V30 413 H 42.3529 1.16719 5.53528 0
M  V30 414 H 40.9099 1.71856 6.28736 0
M  V30 415 N 44.343 -0.763751 1.37857 0
M  V30 416 C 45.589 -1.52396 1.3471 0
M  V30 417 C 45.944 -1.92288 -0.0656435 0
M  V30 418 O 45.237 -1.6181 -1.02606 0
M  V30 419 C 45.431 -2.79499 2.22745 0
M  V30 420 C 45.26 -2.52031 3.72438 0
M  V30 421 C 44.03 -2.45759 4.4151 0
M  V30 422 C 46.228 -2.19489 4.65112 0
M  V30 423 N 44.21 -2.1046 5.76697 0
M  V30 424 C 45.581 -1.94396 5.88736 0
M  V30 425 C 47.636 -2.05712 4.53417 0
M  V30 426 C 46.339 -1.56917 7.01975 0
M  V30 427 C 48.365 -1.69634 5.66549 0
M  V30 428 C 47.727 -1.45407 6.89229 0
M  V30 429 H 43.826 -0.55765 0.548225 0
M  V30 430 H 46.41 -0.890302 1.73152 0
M  V30 431 H 44.581 -3.4069 1.86507 0
M  V30 432 H 46.313 -3.45465 2.10798 0
M  V30 433 H 43.068 -2.61885 3.94605 0
M  V30 434 H 43.492 -1.95484 6.48163 0
M  V30 435 H 48.134 -2.23123 3.59133 0
M  V30 436 H 45.852 -1.38246 7.96187 0
M  V30 437 H 49.438 -1.59621 5.59475 0
M  V30 438 H 48.318 -1.17904 7.75286 0
M  V30 439 N 45.8211 -1.22559 -0.990812 0
M  V30 440 C 46.7711 -0.964807 -2.0658 0
M  V30 441 C 47.7551 0.0853472 -1.60673 0
M  V30 442 O 48.9471 -0.125443 -1.76555 0
M  V30 443 C 46.0761 -0.546707 -3.38919 0
M  V30 444 C 45.1621 -1.6317 -3.91454 0
M  V30 445 N 45.5531 -2.85985 -4.17189 0
M  V30 446 C 43.8511 -1.50387 -4.19881 0
M  V30 447 C 44.5521 -3.56159 -4.59919 0
M  V30 448 N 43.5281 -2.83637 -4.63736 0
M  V30 449 H 47.3301 -1.89769 -2.24421 0
M  V30 450 H 44.8441 -1.12343 -1.17273 0
M  V30 451 H 46.8411 -0.34119 -4.15502 0
M  V30 452 H 45.5011 0.379254 -3.22478 0
M  V30 453 H 46.5121 -3.22392 -4.05319 0
M  V30 454 H 43.1891 -0.644254 -4.12499 0
M  V30 455 H 44.5791 -4.6139 -4.88435 0
M  V30 456 N 47.2992 1.18797 -1.03562 0
M  V30 457 C 48.2292 2.24472 -0.643019 0
M  V30 458 C 49.2102 1.66433 0.351283 0
M  V30 459 O 50.3952 1.92803 0.232505 0
M  V30 460 C 47.5252 3.473 4.24935e-05 0
M  V30 461 C 46.4792 4.18055 -0.917257 0
M  V30 462 C 45.8052 5.34519 -0.138941 0
M  V30 463 C 47.1052 4.72109 -2.23407 0
M  V30 464 H 48.7992 2.57566 -1.52643 0
M  V30 465 H 46.3452 1.23806 -0.735394 0
M  V30 466 H 48.2982 4.20426 0.286383 0
M  V30 467 H 47.0222 3.13424 0.918299 0
M  V30 468 H 45.6812 3.46821 -1.1879 0
M  V30 469 H 45.3292 4.96891 0.781562 0
M  V30 470 H 45.0292 5.82794 -0.750005 0
M  V30 471 H 46.5532 6.10438 0.1405 0
M  V30 472 H 47.9672 5.36955 -2.00879 0
M  V30 473 H 46.3642 5.30897 -2.79765 0
M  V30 474 H 47.4342 3.89807 -2.88407 0
M  V30 475 N 48.7773 0.814389 1.34928 0
M  V30 476 C 49.7073 0.244827 2.32213 0
M  V30 477 C 50.6883 -0.634024 1.57842 0
M  V30 478 O 51.8733 -0.562676 1.8587 0
M  V30 479 C 49.0033 -0.601106 3.42058 0
M  V30 480 C 47.9573 0.179896 4.27622 0
M  V30 481 C 47.2833 -0.788237 5.28858 0
M  V30 482 C 48.5833 1.38329 5.03649 0
M  V30 483 H 50.2773 1.05763 2.80097 0
M  V30 484 H 47.8233 0.510029 1.34665 0
M  V30 485 H 49.7763 -1.00968 4.09125 0
M  V30 486 H 48.5003 -1.44688 2.92802 0
M  V30 487 H 47.1593 0.569739 3.62146 0
M  V30 488 H 46.8073 -1.62973 4.75866 0
M  V30 489 H 46.5073 -0.269942 5.8698 0
M  V30 490 H 48.0313 -1.19485 5.98795 0
M  V30 491 H 49.4453 1.04918 5.63618 0
M  V30 492 H 47.8423 1.83662 5.71304 0
M  V30 493 H 48.9123 2.16592 4.33839 0
M  V30 494 N 50.2554 -1.46986 0.568584 0
M  V30 495 C 51.5324 -1.95592 -0.0174074 0
M  V30 496 C 51.9124 -1.51124 -1.47393 0
M  V30 497 O 51.2604 -0.755329 -2.15655 0
M  V30 498 C 51.4704 -3.48719 0.139913 0
M  V30 499 C 52.8184 -4.246 0.000426376 0
M  V30 500 O 53.8424 -3.56135 0.0680316 0
M  V30 501 O 52.7014 -5.46302 -0.146988 0
M  V30 502 H 49.7954 -0.82498 -0.0577599 0
M  V30 503 H 52.3414 -1.57335 0.635909 0
M  V30 504 H 51.1134 -3.73927 1.15301 0
M  V30 505 H 50.7364 -3.93771 -0.550491 0
M  V30 506 N 51.7335 -0.305618 -1.54608 0
M  V30 507 C 52.9585 0.307562 -2.05107 0
M  V30 508 C 53.3835 1.46385 -1.18123 0
M  V30 509 O 52.7415 1.8034 -0.186324 0
M  V30 510 C 52.7895 0.73704 -3.52987 0
M  V30 511 O 51.8935 1.84134 -3.6901 0
M  V30 512 H 51.2345 0.0589143 -0.661381 0
M  V30 513 H 53.7645 -0.448807 -1.99617 0
M  V30 514 H 53.7745 1.02459 -3.94925 0
M  V30 515 H 52.4495 -0.108773 -4.15758 0
M  V30 516 H 51.0265 1.55398 -3.38978 0
M  V30 517 N 53.2116 1.57565 -0.0334293 0
M  V30 518 C 54.4596 1.91598 0.642999 0
M  V30 519 C 54.7806 0.910847 1.7242 0
M  V30 520 O 54.0506 -0.0469931 1.95844 0
M  V30 521 H 52.6306 0.707228 0.240496 0
M  V30 522 H 55.2926 1.94726 -0.0822488 0
M  V30 523 H 54.3886 2.92336 1.09298 0
M  V30 524 N 54.6897 -0.239769 1.55765 0
M  V30 525 C 55.6527 -1.28038 1.90103 0
M  V30 526 C 56.6527 -1.40723 0.778055 0
M  V30 527 O 57.8427 -1.39301 1.04599 0
M  V30 528 C 54.9747 -2.65702 2.13577 0
M  V30 529 H 56.1677 -0.988048 2.83157 0
M  V30 530 H 53.7207 -0.479382 1.48767 0
M  V30 531 H 54.4557 -3.00063 1.23015 0
M  V30 532 H 54.2407 -2.57875 2.95369 0
M  V30 533 H 55.7307 -3.40828 2.41301 0
M  V30 534 N 56.1678 -1.49265 -0.50573 0
M  V30 535 C 57.4168 -1.57761 -1.25675 0
M  V30 536 C 57.7298 -0.267371 -1.93764 0
M  V30 537 O 58.9358 -0.230827 -2.70517 0
M  V30 538 C 57.3918 -2.78332 -2.28165 0
M  V30 539 C 56.9998 -4.16096 -1.66037 0
M  V30 540 C 58.7438 -2.96155 -3.04125 0
M  V30 541 C 56.6508 -5.27895 -2.6661 0
M  V30 542 H 55.5808 -0.587391 -0.472745 0
M  V30 543 H 58.2318 -1.75644 -0.53118 0
M  V30 544 H 56.6138 -2.53934 -3.03865 0
M  V30 545 H 57.7878 -4.50612 -0.963622 0
M  V30 546 H 56.1028 -4.03591 -1.02484 0
M  V30 547 H 58.6998 -3.76849 -3.79327 0
M  V30 548 H 59.0428 -2.06534 -3.61455 0
M  V30 549 H 59.5758 -3.2057 -2.35541 0
M  V30 550 H 56.3148 -6.1956 -2.14068 0
M  V30 551 H 55.8348 -4.97839 -3.34539 0
M  V30 552 H 57.5138 -5.57031 -3.29129 0
M  V30 553 N 57.6459 0.756429 -1.3826 0
M  V30 554 C 58.8759 1.54341 -1.3734 0
M  V30 555 C 59.2839 1.89159 0.0393917 0
M  V30 556 O 58.6269 1.5307 1.01565 0
M  V30 557 C 58.6889 2.87238 -2.16182 0
M  V30 558 C 58.3529 2.74973 -3.65019 0
M  V30 559 C 59.3499 2.44962 -4.58574 0
M  V30 560 C 57.0349 2.92515 -4.08338 0
M  V30 561 C 59.0289 2.32642 -5.93428 0
M  V30 562 C 56.7159 2.79815 -5.43274 0
M  V30 563 C 57.7139 2.49921 -6.35632 0
M  V30 564 O 57.4019 2.37275 -7.68086 0
M  V30 565 H 57.1339 0.484281 -0.471643 0
M  V30 566 H 59.6879 0.944152 -1.82414 0
M  V30 567 H 57.9179 3.49342 -1.65822 0
M  V30 568 H 59.6069 3.48731 -2.07705 0
M  V30 569 H 60.3729 2.31081 -4.26412 0
M  V30 570 H 56.2519 3.14781 -3.368 0
M  V30 571 H 59.7959 2.0923 -6.65484 0
M  V30 572 H 55.6929 2.93269 -5.75034 0
M  V30 573 H 56.4609 2.52509 -7.78577 0
M  V30 574 N 59.124 1.23083 0.984299 0
M  V30 575 C 60.54 0.992637 1.24975 0
M  V30 576 C 60.74 -0.308618 1.99123 0
M  V30 577 O 59.796 -1.02905 2.30579 0
M  V30 578 C 61.109 2.19698 2.05312 0
M  V30 579 C 62.657 2.24147 2.18465 0
M  V30 580 C 63.132 3.44157 3.02192 0
M  V30 581 N 64.623 3.44372 3.09777 0
M  V30 582 C 65.358 4.33886 3.74874 0
M  V30 583 N 64.854 5.3363 4.41827 0
M  V30 584 N 66.647 4.21639 3.71721 0
M  V30 585 H 58.798 2.06731 0.487453 0
M  V30 586 H 61.061 0.906339 0.277944 0
M  V30 587 H 60.767 3.1411 1.58201 0
M  V30 588 H 60.641 2.20465 3.06064 0
M  V30 589 H 63.028 1.30277 2.64786 0
M  V30 590 H 63.109 2.27415 1.17115 0
M  V30 591 H 62.753 4.38332 2.56568 0
M  V30 592 H 62.683 3.3813 4.03702 0
M  V30 593 H 65.174 2.72201 2.62135 0
M  V30 594 H 65.487 5.98196 4.89266 0
M  V30 595 H 63.832 5.37534 4.40548 0
M  V30 596 H 67.023 3.42962 3.18582 0
M  V30 597 H 67.196 4.91604 4.22173 0
M  V30 598 N 60.6021 -1.18246 1.0419 0
M  V30 599 C 61.8481 -1.88536 0.747122 0
M  V30 600 C 62.1811 -1.80223 -0.723409 0
M  V30 601 O 61.4561 -1.20337 -1.52804 0
M  V30 602 C 61.7391 -3.38968 1.21544 0
M  V30 603 C 61.5921 -3.56084 2.74816 0
M  V30 604 C 62.9111 -4.32648 0.806482 0
M  V30 605 H 60.0301 -0.684619 0.272883 0
M  V30 606 H 62.6721 -1.39113 1.29413 0
M  V30 607 H 60.8221 -3.8119 0.750081 0
M  V30 608 H 62.4941 -3.22946 3.29399 0
M  V30 609 H 60.7371 -2.98699 3.14582 0
M  V30 610 H 61.4081 -4.61639 3.02644 0
M  V30 611 H 63.8841 -3.98211 1.20695 0
M  V30 612 H 62.7601 -5.36462 1.1619 0
M  V30 613 H 63.0211 -4.41146 -0.29029 0
M  V30 614 N 62.0802 -0.821533 -1.34494 0
M  V30 615 C 63.0102 -0.257138 -2.3208 0
M  V30 616 C 63.9912 0.625645 -1.58176 0
M  V30 617 O 65.1762 0.552811 -1.86166 0
M  V30 618 C 62.3062 0.582958 -3.42372 0
M  V30 619 C 61.2602 -0.202571 -4.2752 0
M  V30 620 C 60.5862 0.760179 -5.29269 0
M  V30 621 C 61.8862 -1.40998 -5.02908 0
M  V30 622 H 63.5802 -1.07247 -2.79532 0
M  V30 623 H 61.1262 -0.517163 -1.34393 0
M  V30 624 H 63.0792 0.987972 -4.09655 0
M  V30 625 H 61.8032 1.43133 -2.93565 0
M  V30 626 H 60.4622 -0.588936 -3.61838 0
M  V30 627 H 60.1102 1.60447 -4.76724 0
M  V30 628 H 59.8102 0.238809 -5.87115 0
M  V30 629 H 61.3342 1.16308 -5.9942 0
M  V30 630 H 62.7482 -1.07905 -5.63054 0
M  V30 631 H 61.1452 -1.86689 -5.70322 0
M  V30 632 H 62.2152 -2.1889 -4.32684 0
M  V30 633 N 63.5583 1.46682 -0.576371 0
M  V30 634 C 64.5213 2.28707 0.150239 0
M  V30 635 C 65.5213 1.38035 0.824794 0
M  V30 636 O 66.7113 1.60476 0.677719 0
M  V30 637 C 63.8433 3.18248 1.22192 0
M  V30 638 H 65.0363 2.94423 -0.570521 0
M  V30 639 H 62.5893 1.52688 -0.334078 0
M  V30 640 H 63.3243 2.57265 1.97447 0
M  V30 641 H 63.1093 3.85 0.742812 0
M  V30 642 H 64.5993 3.80001 1.73172 0
M  V30 643 N 65.0364 0.313813 1.54444 0
M  V30 644 C 65.9664 -0.549454 2.26943 0
M  V30 645 C 66.9474 -1.12741 1.27372 0
M  V30 646 O 68.1324 -1.15436 1.56167 0
M  V30 647 C 65.2624 -1.71523 3.01989 0
M  V30 648 C 64.2164 -1.26703 4.08816 0
M  V30 649 C 63.5424 -2.51898 4.71647 0
M  V30 650 C 64.8424 -0.388962 5.2085 0
M  V30 651 H 66.5364 0.0552661 2.99349 0
M  V30 652 H 64.0824 0.0280207 1.43973 0
M  V30 653 H 66.0354 -2.32535 3.51433 0
M  V30 654 H 64.7594 -2.34639 2.27183 0
M  V30 655 H 63.4184 -0.679896 3.6024 0
M  V30 656 H 63.0664 -3.13356 3.93468 0
M  V30 657 H 62.7664 -2.22605 5.43802 0
M  V30 658 H 64.2904 -3.1369 5.23861 0
M  V30 659 H 65.7044 -0.905107 5.6611 0
M  V30 660 H 64.1014 -0.18924 5.99802 0
M  V30 661 H 65.1714 0.582699 4.81386 0
M  V30 662 N 66.5145 -1.57545 0.0417849 0
M  V30 663 C 67.4775 -2.09885 -0.92093 0
M  V30 664 C 68.4775 -1.01648 -1.24596 0
M  V30 665 O 69.6675 -1.27759 -1.1842 0
M  V30 666 C 66.7995 -2.57527 -2.23367 0
M  V30 667 H 67.9925 -2.96236 -0.467382 0
M  V30 668 H 65.5455 -1.5493 -0.206467 0
M  V30 669 H 66.2805 -1.74542 -2.73323 0
M  V30 670 H 66.0655 -3.36613 -2.01083 0
M  V30 671 H 67.5555 -2.98201 -2.92346 0
M  V30 672 N 67.9926 0.231505 -1.5589 0
M  V30 673 C 68.9556 1.27028 -1.90779 0
M  V30 674 C 69.9556 1.40308 -0.785507 0
M  V30 675 O 71.1456 1.38744 -1.05336 0
M  V30 676 C 68.2776 2.64566 -2.14983 0
M  V30 677 H 69.4706 0.973017 -2.83677 0
M  V30 678 H 67.0236 0.471486 -1.49019 0
M  V30 679 H 67.7586 2.99406 -1.24604 0
M  V30 680 H 67.5436 2.56305 -2.96732 0
M  V30 681 H 69.0336 3.39543 -2.43105 0
M  V30 682 N 69.4707 1.49531 0.497807 0
M  V30 683 C 70.4007 1.6935 1.60757 0
M  V30 684 C 71.3817 0.542218 1.61227 0
M  V30 685 O 72.5667 0.778417 1.77917 0
M  V30 686 C 69.6967 1.76298 2.99226 0
M  V30 687 C 68.6507 2.91248 3.13622 0
M  V30 688 C 67.9767 2.83312 4.53474 0
M  V30 689 C 69.2767 4.3214 2.93346 0
M  V30 690 H 70.9707 2.62263 1.44425 0
M  V30 691 H 68.5167 1.26208 0.693367 0
M  V30 692 H 70.4697 1.88749 3.76765 0
M  V30 693 H 69.1937 0.799871 3.16654 0
M  V30 694 H 67.8527 2.78404 2.38509 0
M  V30 695 H 67.5007 1.84902 4.67782 0
M  V30 696 H 67.2007 3.60465 4.64046 0
M  V30 697 H 68.7247 2.97775 5.33069 0
M  V30 698 H 70.1387 4.45649 3.60652 0
M  V30 699 H 68.5357 5.1054 3.15387 0
M  V30 700 H 69.6057 4.46363 1.89441 0
M  V30 701 N 70.9488 -0.749086 1.3866 0
M  V30 702 C 71.8988 -1.85368 1.32751 0
M  V30 703 C 72.8828 -1.59511 0.210945 0
M  V30 704 O 74.0748 -1.71255 0.447299 0
M  V30 705 C 71.2038 -3.23131 1.15935 0
M  V30 706 C 70.2898 -3.54864 2.32233 0
M  V30 707 N 70.6808 -3.57625 3.57684 0
M  V30 708 C 68.9788 -3.85154 2.24883 0
M  V30 709 C 69.6798 -3.86753 4.34508 0
M  V30 710 N 68.6558 -4.03812 3.63918 0
M  V30 711 H 72.4578 -1.85787 2.27729 0
M  V30 712 H 69.9718 -0.946658 1.31955 0
M  V30 713 H 71.9688 -4.02185 1.09786 0
M  V30 714 H 70.6288 -3.23961 0.218947 0
M  V30 715 H 71.6398 -3.39276 3.91295 0
M  V30 716 H 68.3168 -3.93672 1.39027 0
M  V30 717 H 69.7068 -3.95474 5.43185 0
M  V30 718 N 72.4269 -1.23603 -0.977757 0
M  V30 719 C 73.3769 -0.986664 -2.05545 0
M  V30 720 C 74.3609 0.0683009 -1.60755 0
M  V30 721 O 75.5529 -0.144162 -1.76412 0
M  V30 722 C 72.6819 -0.582623 -3.3832 0
M  V30 723 C 71.7679 -1.67313 -3.89701 0
M  V30 724 N 72.1589 -2.90394 -4.14132 0
M  V30 725 C 70.4569 -1.54832 -4.18262 0
M  V30 726 C 71.1579 -3.61017 -4.56116 0
M  V30 727 N 70.1339 -2.8854 -4.60701 0
M  V30 728 H 73.9359 -1.92139 -2.22396 0
M  V30 729 H 71.4499 -1.1358 -1.16074 0
M  V30 730 H 73.4469 -0.38524 -4.15116 0
M  V30 731 H 72.1069 0.34503 -3.22862 0
M  V30 732 H 73.1179 -3.26673 -4.01877 0
M  V30 733 H 69.7949 -0.687969 -4.11793 0
M  V30 734 H 71.1849 -4.66544 -4.83514 0
M  V30 735 N 73.905 1.17692 -1.04816 0
M  V30 736 C 74.855 2.1952 -0.616042 0
M  V30 737 C 75.839 1.57147 0.345485 0
M  V30 738 O 77.031 1.76245 0.163325 0
M  V30 739 C 74.16 3.43298 0.0116917 0
M  V30 740 C 73.246 4.12777 -0.973435 0
M  V30 741 N 73.637 4.5814 -2.14339 0
M  V30 742 C 71.935 4.38747 -0.80108 0
M  V30 743 C 72.636 5.11713 -2.7663 0
M  V30 744 N 71.612 5.03686 -2.04453 0
M  V30 745 H 75.414 2.52293 -1.5075 0
M  V30 746 H 72.928 1.3398 -0.917776 0
M  V30 747 H 74.925 4.15519 0.339006 0
M  V30 748 H 73.585 3.12018 0.898593 0
M  V30 749 H 74.596 4.52349 -2.52191 0
M  V30 750 H 71.273 4.17485 0.0350934 0
M  V30 751 H 72.663 5.56962 -3.75823 0
M  V30 752 N 75.3831 0.828654 1.34056 0
M  V30 753 C 76.6291 0.42008 1.98402 0
M  V30 754 C 76.9621 -1.01564 1.65525 0
M  V30 755 O 76.2371 -1.70834 0.929831 0
M  V30 756 C 76.5201 0.62927 3.54559 0
M  V30 757 C 76.3731 2.11152 3.97159 0
M  V30 758 C 77.6921 0.0688756 4.40046 0
M  V30 759 H 74.8111 0.154104 0.720709 0
M  V30 760 H 77.4531 1.04228 1.5886 0
M  V30 761 H 75.6031 0.0996418 3.88372 0
M  V30 762 H 77.2751 2.70522 3.73651 0
M  V30 763 H 75.5181 2.59985 3.47261 0
M  V30 764 H 76.1891 2.20868 5.05887 0
M  V30 765 H 78.6651 0.521458 4.1282 0
M  V30 766 H 77.5411 0.245006 5.48353 0
M  V30 767 H 77.8021 -1.0266 4.30015 0
M  V30 768 N 76.8612 -1.46375 0.584142 0
M  V30 769 C 78.1382 -1.956 0.0033388 0
M  V30 770 C 78.5182 -1.52679 -1.45782 0
M  V30 771 O 77.8662 -0.77816 -2.14842 0
M  V30 772 C 78.0762 -3.48551 0.176891 0
M  V30 773 C 79.4242 -4.24576 0.0454609 0
M  V30 774 O 80.4482 -3.56043 0.105801 0
M  V30 775 O 79.3072 -5.46427 -0.0890376 0
M  V30 776 H 76.4012 -0.825547 -0.0490066 0
M  V30 777 H 78.9472 -1.56652 0.65256 0
M  V30 778 H 77.7192 -3.72683 1.1926 0
M  V30 779 H 77.3422 -3.94332 -0.508695 0
M  V30 780 N 78.3393 -0.321999 -1.54275 0
M  V30 781 C 79.5853 0.281461 -2.00837 0
M  V30 782 C 79.9183 1.51909 -1.20985 0
M  V30 783 O 79.1933 1.923 -0.291733 0
M  V30 784 C 79.4763 0.617162 -3.54772 0
M  V30 785 C 79.3293 -0.631064 -4.45351 0
M  V30 786 C 80.6483 1.43542 -4.16033 0
M  V30 787 H 77.7673 0.100826 -0.730071 0
M  V30 788 H 80.4093 -0.438268 -1.84876 0
M  V30 789 H 78.5593 1.23034 -3.68504 0
M  V30 790 H 80.2313 -1.26934 -4.43492 0
M  V30 791 H 78.4743 -1.26025 -4.15091 0
M  V30 792 H 79.1453 -0.351735 -5.50878 0
M  V30 793 H 81.6213 0.917134 -4.05867 0
M  V30 794 H 80.4973 1.63907 -5.23856 0
M  V30 795 H 80.7583 2.43108 -3.69257 0
M  V30 796 N 79.8174 1.5752 -0.0501392 0
M  V30 797 C 80.7804 2.1037 0.909786 0
M  V30 798 C 81.7804 1.02308 1.24056 0
M  V30 799 O 82.9704 1.28385 1.17741 0
M  V30 800 C 80.1024 2.58708 2.21998 0
M  V30 801 H 81.2954 2.96479 0.451665 0
M  V30 802 H 78.8484 1.55038 0.198248 0
M  V30 803 H 79.5834 1.75989 2.72394 0
M  V30 804 H 79.3684 3.37675 1.99295 0
M  V30 805 H 80.8584 2.99747 2.9076 0
M  V30 806 N 81.2955 -0.223234 1.56011 0
M  V30 807 C 82.5205 -0.968978 1.83373 0
M  V30 808 C 82.9455 -1.77227 0.630254 0
M  V30 809 O 82.3035 -1.76345 -0.420959 0
M  V30 810 C 82.3515 -1.86363 3.08709 0
M  V30 811 O 81.4555 -2.95873 2.87285 0
M  V30 812 H 80.7965 -0.274461 0.604622 0
M  V30 813 H 83.3265 -0.237056 2.03222 0
M  V30 814 H 83.3365 -2.27376 3.38768 0
M  V30 815 H 82.0115 -1.27319 3.95933 0
M  V30 816 H 80.5885 -2.58818 2.68454 0
M  V30 817 N 82.7736 -1.49793 -0.48987 0
M  V30 818 C 83.6836 -1.70036 -1.61632 0
M  V30 819 C 84.6996 -0.583102 -1.63939 0
M  V30 820 O 85.8756 -0.859169 -1.82154 0
M  V30 821 C 82.9406 -1.77277 -2.97949 0
M  V30 822 C 82.0016 -3.00918 -3.06181 0
M  V30 823 C 81.2346 -3.07804 -4.35996 0
M  V30 824 O 81.4576 -2.21982 -5.25433 0
M  V30 825 O 80.3916 -4.00369 -4.49431 0
M  V30 826 H 84.2176 -2.65486 -1.47482 0
M  V30 827 H 81.8026 -1.33666 -0.667362 0
M  V30 828 H 83.6846 -1.84329 -3.78947 0
M  V30 829 H 82.3596 -0.850076 -3.12339 0
M  V30 830 H 81.2666 -2.99377 -2.2433 0
M  V30 831 H 82.5996 -3.92704 -2.96723 0
M  V30 832 N 84.2517 0.741722 -1.39055 0
M  V30 833 C 85.5287 1.49252 -1.26425 0
M  V30 834 C 85.9087 2.10705 0.129144 0
M  V30 835 O 85.2567 1.98045 1.13976 0
M  V30 836 C 85.4667 2.54934 -2.38347 0
M  V30 837 C 86.8147 3.21506 -2.77343 0
M  V30 838 O 87.8387 2.65245 -2.37747 0
M  V30 839 O 86.6977 4.23294 -3.45665 0
M  V30 840 H 83.7917 0.662451 -0.495064 0
M  V30 841 H 86.3377 0.776121 -1.50912 0
M  V30 842 H 85.1097 2.07857 -3.31529 0
M  V30 843 H 84.7327 3.34141 -2.15489 0
M  V30 844 N 85.7298 1.2412 0.971189 0
M  V30 845 C 86.6928 1.03156 2.04674 0
M  V30 846 C 87.6928 -0.00990322 1.60797 0
M  V30 847 O 88.8828 0.230729 1.72665 0
M  V30 848 C 86.0148 0.562765 3.36223 0
M  V30 849 H 87.2078 1.98614 2.24705 0
M  V30 850 H 84.7608 1.06293 1.14593 0
M  V30 851 H 85.4958 -0.395176 3.21883 0
M  V30 852 H 85.2808 1.31441 3.69413 0
M  V30 853 H 86.7708 0.437015 4.15307 0
M  V30 854 N 87.2079 -1.17134 1.05439 0
M  V30 855 C 88.1379 -2.2342 0.678649 0
M  V30 856 C 89.1189 -1.66971 -0.32476 0
M  V30 857 O 90.3039 -1.93149 -0.201802 0
M  V30 858 C 87.4339 -3.47256 0.0552099 0
M  V30 859 C 86.3879 -4.16543 0.98365 0
M  V30 860 C 85.7139 -5.34231 0.223961 0
M  V30 861 C 87.0139 -4.68495 2.3089 0
M  V30 862 H 88.7079 -2.55105 1.56722 0
M  V30 863 H 86.2539 -1.2262 0.754998 0
M  V30 864 H 88.2069 -4.20828 -0.21946 0
M  V30 865 H 86.9309 -3.14846 -0.868319 0
M  V30 866 H 85.5899 -3.44887 1.24293 0
M  V30 867 H 85.2379 -4.98071 -0.702412 0
M  V30 868 H 84.9379 -5.81527 0.842627 0
M  V30 869 H 86.4619 -6.10585 -0.0433671 0
M  V30 870 H 87.8759 -5.33691 2.09396 0
M  V30 871 H 86.2729 -5.26379 2.88176 0
M  V30 872 H 87.3429 -3.85169 2.94572 0
M  V30 873 N 88.686 -0.835752 -1.33615 0
M  V30 874 C 89.932 -0.430596 -1.98176 0
M  V30 875 C 90.265 1.00684 -1.66061 0
M  V30 876 O 89.54 1.70339 -0.938877 0
M  V30 877 C 89.823 -0.648065 -3.5422 0
M  V30 878 C 89.676 -2.13255 -3.96033 0
M  V30 879 C 90.995 -0.0922113 -4.40003 0
M  V30 880 H 88.114 -0.157924 -0.719881 0
M  V30 881 H 90.756 -1.05069 -1.58305 0
M  V30 882 H 88.906 -0.120237 -3.88314 0
M  V30 883 H 90.578 -2.725 -3.72211 0
M  V30 884 H 88.821 -2.61823 -3.45878 0
M  V30 885 H 89.492 -2.23547 -5.04708 0
M  V30 886 H 91.968 -0.543343 -4.12537 0
M  V30 887 H 90.844 -0.274083 -5.48215 0
M  V30 888 H 91.105 1.00378 -4.30554 0
M  V30 889 N 90.1641 1.46063 -0.591896 0
M  V30 890 C 91.5751 1.85944 -0.167822 0
M  V30 891 C 91.9261 1.49429 1.27143 0
M  V30 892 O 91.0511 0.913515 1.96173 0
M  V30 893 C 91.6461 3.37489 -0.297794 0
M  V30 894 C 90.2051 3.76332 0.0714732 0
M  V30 895 C 89.3521 2.7006 -0.629509 0
M  V30 896 H 92.3031 1.37087 -0.799555 0
M  V30 897 H 92.3241 3.77532 0.474349 0
M  V30 898 H 91.8361 3.64034 -1.3454 0
M  V30 899 H 89.9371 3.55405 1.11886 0
M  V30 900 H 90.0501 4.78088 -0.311245 0
M  V30 901 H 88.4141 2.54607 -0.0687867 0
M  V30 902 H 89.1971 2.99444 -1.67894 0
M  V30 903 N 91.6422 0.330177 1.54103 0
M  V30 904 C 92.5722 -0.525353 2.27513 0
M  V30 905 C 93.5532 -1.11383 1.2856 0
M  V30 906 O 94.7382 -1.13773 1.57383 0
M  V30 907 C 91.8682 -1.6831 3.03791 0
M  V30 908 C 90.8222 -1.2236 4.10137 0
M  V30 909 C 90.1482 -2.46882 4.74293 0
M  V30 910 C 91.4482 -0.333697 5.21233 0
M  V30 911 H 93.1422 0.087013 2.99274 0
M  V30 912 H 90.6882 0.0432893 1.43935 0
M  V30 913 H 92.6412 -2.28795 3.5388 0
M  V30 914 H 91.3652 -2.32216 2.29659 0
M  V30 915 H 90.0242 -0.64165 3.60941 0
M  V30 916 H 89.6722 -3.09165 3.96769 0
M  V30 917 H 89.3722 -2.16825 5.46133 0
M  V30 918 H 90.8962 -3.08117 5.27159 0
M  V30 919 H 92.3102 -0.845013 5.67038 0
M  V30 920 H 90.7072 -0.125612 5.99969 0
M  V30 921 H 91.7772 0.633724 4.80741 0
M  V30 922 N 93.1203 -1.57491 0.0584922 0
M  V30 923 C 94.0833 -2.1085 -0.898617 0
M  V30 924 C 95.0833 -1.02964 -1.23511 0
M  V30 925 O 96.2733 -1.29007 -1.17059 0
M  V30 926 C 93.4053 -2.59881 -2.20623 0
M  V30 927 H 94.5983 -2.96715 -0.435936 0
M  V30 928 H 92.1513 -1.55141 -0.190023 0
M  V30 929 H 92.8863 -1.77431 -2.71457 0
M  V30 930 H 92.6713 -3.38727 -1.97501 0
M  V30 931 H 94.1613 -3.01285 -2.89166 0
M  V30 932 N 94.5984 0.214957 -1.56127 0
M  V30 933 C 95.8234 0.95924 -1.83884 0
M  V30 934 C 96.2484 1.7689 -0.639644 0
M  V30 935 O 95.6064 1.76566 0.411601 0
M  V30 936 C 95.6544 1.84723 -3.09693 0
M  V30 937 O 94.7584 2.94346 -2.8885 0
M  V30 938 H 94.0994 0.27125 -0.606069 0
M  V30 939 H 96.6294 0.226276 -2.03345 0
M  V30 940 H 96.6394 2.25576 -3.39969 0
M  V30 941 H 95.3144 1.25218 -3.96602 0
M  V30 942 H 93.8914 2.57391 -2.69823 0
M  V30 943 N 96.0765 1.50051 0.48192 0
M  V30 944 C 97.0265 1.64512 1.5786 0
M  V30 945 C 98.0105 0.500073 1.52932 0
M  V30 946 O 99.2025 0.753964 1.60139 0
M  V30 947 C 96.3315 1.73263 2.9637 0
M  V30 948 C 95.4175 2.93409 3.06222 0
M  V30 949 N 95.8085 4.17236 2.85915 0
M  V30 950 C 94.1065 2.91742 3.37346 0
M  V30 951 C 94.8075 4.981 3.00451 0
M  V30 952 N 93.7835 4.3184 3.30174 0
M  V30 953 H 97.5855 2.57955 1.40842 0
M  V30 954 H 95.0995 1.47086 0.688439 0
M  V30 955 H 97.0965 1.81724 3.75209 0
M  V30 956 H 95.7565 0.809711 3.14442 0
M  V30 957 H 96.7675 4.46909 2.6171 0
M  V30 958 H 93.4445 2.08907 3.61475 0
M  V30 959 H 94.8345 6.06532 2.89082 0
M  V30 960 N 97.5546 -0.734337 1.39446 0
M  V30 961 C 98.4846 -1.86155 1.40955 0
M  V30 962 C 99.4656 -1.67898 0.272827 0
M  V30 963 O 100.651 -1.88207 0.478743 0
M  V30 964 C 97.7806 -3.23912 1.25294 0
M  V30 965 C 96.7346 -3.56808 2.36373 0
M  V30 966 C 96.0606 -4.93508 2.058 0
M  V30 967 C 97.3606 -3.59713 3.78687 0
M  V30 968 H 99.0546 -1.8515 2.35287 0
M  V30 969 H 96.6006 -0.889367 1.13253 0
M  V30 970 H 98.5536 -4.02443 1.2497 0
M  V30 971 H 97.2776 -3.25446 0.274308 0
M  V30 972 H 95.9366 -2.80606 2.35914 0
M  V30 973 H 95.5846 -4.91623 1.06374 0
M  V30 974 H 95.2846 -5.16486 2.80208 0
M  V30 975 H 96.8086 -5.74396 2.07128 0
M  V30 976 H 98.2226 -4.2832 3.81071 0
M  V30 977 H 96.6196 -3.94209 4.52459 0
M  V30 978 H 97.6896 -2.59504 4.09617 0
M  V30 979 N 99.0327 -1.24633 -0.964593 0
M  V30 980 C 100.31 -0.995809 -1.68354 0
M  V30 981 C 100.69 0.480964 -2.05548 0
M  V30 982 O 100.038 1.45599 -1.76105 0
M  V30 983 C 100.248 -1.92177 -2.91323 0
M  V30 984 C 101.596 -2.19446 -3.63495 0
M  V30 985 O 102.62 -1.89855 -3.01386 0
M  V30 986 O 101.479 -2.69714 -4.75307 0
M  V30 987 H 98.5727 -0.376854 -0.736146 0
M  V30 988 H 101.119 -1.35745 -1.0184 0
M  V30 989 H 99.8907 -2.91938 -2.60553 0
M  V30 990 H 99.5137 -1.56349 -3.65569 0
M  V30 991 N 100.511 1.16574 -1.06058 0
M  V30 992 C 101.757 1.87324 -0.777022 0
M  V30 993 C 102.09 1.81351 0.694645 0
M  V30 994 O 101.365 1.22753 1.50871 0
M  V30 995 C 101.648 3.36991 -1.26922 0
M  V30 996 C 101.501 3.51667 -2.80447 0
M  V30 997 C 102.82 4.3131 -0.87521 0
M  V30 998 H 99.9388 0.680191 -0.28374 0
M  V30 999 H 102.581 1.37036 -1.3161 0
M  V30 1000 H 100.731 3.79949 -0.81063 0
M  V30 1001 H 102.403 3.17664 -3.34495 0
M  V30 1002 H 100.646 2.93656 -3.19294 0
M  V30 1003 H 101.317 4.56766 -3.0995 0
M  V30 1004 H 103.793 3.9624 -1.27014 0
M  V30 1005 H 102.669 5.34545 -1.2471 0
M  V30 1006 H 102.93 4.41552 0.220071 0
M  V30 1007 N 101.989 0.842826 1.3317 0
M  V30 1008 C 103.405 0.531128 1.50503 0
M  V30 1009 C 103.605 -0.940734 1.78192 0
M  V30 1010 O 102.661 -1.72436 1.84451 0
M  V30 1011 C 103.974 1.40789 2.65705 0
M  V30 1012 C 105.522 1.40708 2.79589 0
M  V30 1013 C 105.997 2.26878 3.97857 0
M  V30 1014 N 107.488 2.24609 4.05099 0
M  V30 1015 C 108.223 2.88019 4.95815 0
M  V30 1016 N 107.719 3.60496 5.9162 0
M  V30 1017 N 109.512 2.77469 4.88843 0
M  V30 1018 H 101.663 1.79557 1.1346 0
M  V30 1019 H 103.926 0.766267 0.558156 0
M  V30 1020 H 103.632 2.454 2.51936 0
M  V30 1021 H 103.506 1.08677 3.61205 0
M  V30 1022 H 105.893 0.368668 2.92788 0
M  V30 1023 H 105.974 1.76829 1.84838 0
M  V30 1024 H 105.618 3.3078 3.85418 0
M  V30 1025 H 105.548 1.88096 4.91861 0
M  V30 1026 H 108.039 1.71906 3.36536 0
M  V30 1027 H 108.352 4.06076 6.57512 0
M  V30 1028 H 106.697 3.64604 5.91683 0
M  V30 1029 H 109.888 2.20406 4.12963 0
M  V30 1030 H 110.061 3.2717 5.59342 0
M  V30 1031 N 103.467 -1.45747 0.599634 0
M  V30 1032 C 104.714 -2.02292 0.0917284 0
M  V30 1033 C 105.042 -1.46906 -1.27472 0
M  V30 1034 O 104.297 -0.630652 -1.8526 0
M  V30 1035 C 104.596 -3.57399 -0.00602758 0
M  V30 1036 C 104.262 -4.31902 1.29503 0
M  V30 1037 C 102.924 -4.51974 1.65144 0
M  V30 1038 C 105.276 -4.74551 2.15525 0
M  V30 1039 C 102.604 -5.11949 2.86574 0
M  V30 1040 C 104.956 -5.35868 3.36196 0
M  V30 1041 C 103.62 -5.54165 3.72099 0
M  V30 1042 H 102.89 -0.740239 0.0335658 0
M  V30 1043 H 105.537 -1.7491 0.779661 0
M  V30 1044 H 103.842 -3.84014 -0.777183 0
M  V30 1045 H 105.539 -3.98846 -0.415038 0
M  V30 1046 H 102.129 -4.16588 1.00761 0
M  V30 1047 H 106.313 -4.58784 1.8929 0
M  V30 1048 H 101.569 -5.24305 3.14507 0
M  V30 1049 H 105.743 -5.6787 4.03109 0
M  V30 1050 H 103.37 -6.00406 4.6628 0
M  V30 1051 N 104.945 -0.338344 -1.53925 0
M  V30 1052 C 106.191 0.260143 -2.01125 0
M  V30 1053 C 106.524 1.50617 -1.22589 0
M  V30 1054 O 105.799 1.91979 -0.312113 0
M  V30 1055 C 106.082 0.579499 -3.55407 0
M  V30 1056 C 105.935 -0.678264 -4.44657 0
M  V30 1057 C 107.254 1.39122 -4.17532 0
M  V30 1058 H 104.373 0.0930772 -0.731099 0
M  V30 1059 H 107.015 -0.457852 -1.84401 0
M  V30 1060 H 105.165 1.19118 -3.69788 0
M  V30 1061 H 106.837 -1.31631 -4.42121 0
M  V30 1062 H 105.08 -1.3042 -4.13731 0
M  V30 1063 H 105.751 -0.410143 -5.50474 0
M  V30 1064 H 108.227 0.874035 -4.06817 0
M  V30 1065 H 107.103 1.58342 -5.25565 0
M  V30 1066 H 107.364 2.39178 -3.71815 0
M  V30 1067 N 106.423 1.57458 -0.0668435 0
M  V30 1068 C 107.648 1.9804 0.616027 0
M  V30 1069 C 108.073 0.944771 1.62652 0
M  V30 1070 O 107.431 -0.0902094 1.81075 0
M  V30 1071 C 107.479 3.37665 1.26549 0
M  V30 1072 O 106.583 3.36701 2.38131 0
M  V30 1073 H 105.924 0.644719 0.158849 0
M  V30 1074 H 108.454 2.04121 -0.139891 0
M  V30 1075 H 108.464 3.7474 1.6135 0
M  V30 1076 H 107.139 4.12573 0.525016 0
M  V30 1077 H 105.716 3.1139 2.0516 0
M  V30 1078 N 107.901 -0.206675 1.56239 0
M  V30 1079 C 109.129 -0.945345 1.8404 0
M  V30 1080 C 109.544 -1.77336 0.647885 0
M  V30 1081 O 108.901 -1.78425 -0.383511 0
M  V30 1082 C 108.952 -1.8509 3.10522 0
M  V30 1083 O 108.673 -1.05634 4.25174 0
M  V30 1084 C 110.174 -2.70222 3.51418 0
M  V30 1085 H 107.394 -0.276372 0.61144 0
M  V30 1086 H 109.938 -0.217417 2.03341 0
M  V30 1087 H 108.093 -2.53259 2.93153 0
M  V30 1088 H 108.507 -1.67238 4.97124 0
M  V30 1089 H 109.981 -3.29438 4.42916 0
M  V30 1090 H 110.458 -3.43358 2.73864 0
M  V30 1091 H 111.064 -2.07443 3.71278 0
M  V30 1092 N 109.379 -1.50304 -0.473955 0
M  V30 1093 C 110.327 -1.69482 -1.59307 0
M  V30 1094 C 111.321 -0.560669 -1.59853 0
M  V30 1095 O 112.527 -0.741087 -1.64036 0
M  V30 1096 H 108.902 -0.534892 -0.528578 0
M  V30 1097 H 110.873 -2.63364 -1.40293 0
M  V30 1098 C 109.622 -1.80354 -2.97267 0
M  V30 1099 H 108.945 -2.67012 -2.97564 0
M  V30 1100 H 110.385 -1.97798 -3.75036 0
M  V30 1101 C 108.844 -0.55448 -3.32306 0
M  V30 1102 O 109.374 0.307661 -4.0052 0
M  V30 1103 N 107.58 -0.409354 -2.87702 0
M  V30 1104 H 107.127 -1.11196 -2.32364 0
M  V30 1105 H 107.085 0.425223 -3.11511 0
M  V30 1106 N 110.857 0.726932 -1.39834 0
M  V30 1107 C 112.105 1.4837 -1.37225 0
M  V30 1108 C 112.426 1.94979 0.0284857 0
M  V30 1109 O 111.696 1.69555 0.981213 0
M  V30 1110 H 110.276 0.55043 -0.505011 0
M  V30 1111 H 112.938 0.862468 -1.74778 0
M  V30 1112 H 112.034 2.36198 -2.04003 0
M  V30 1113 N 112.336 1.25143 0.95797 0
M  V30 1114 C 113.284 1.05019 2.07542 0
M  V30 1115 C 114.278 -0.0178751 1.69391 0
M  V30 1116 O 115.484 0.137472 1.79474 0
M  V30 1117 H 111.859 0.32265 0.679265 0
M  V30 1118 H 113.83 1.99759 2.21673 0
M  V30 1119 C 112.579 0.682074 3.40944 0
M  V30 1120 H 111.902 1.49573 3.70767 0
M  V30 1121 H 113.342 0.580945 4.20001 0
M  V30 1122 C 111.801 -0.611608 3.31302 0
M  V30 1123 O 112.331 -1.65465 3.66038 0
M  V30 1124 N 110.537 -0.595982 2.84423 0
M  V30 1125 H 110.084 0.253192 2.56353 0
M  V30 1126 H 110.042 -1.46173 2.78354 0
M  V30 1127 N 113.814 -1.1601 1.06675 0
M  V30 1128 C 114.744 -2.22688 0.702307 0
M  V30 1129 C 115.725 -1.67306 -0.307032 0
M  V30 1130 O 116.91 -1.93352 -0.181305 0
M  V30 1131 C 114.04 -3.47178 0.092038 0
M  V30 1132 C 112.994 -4.15477 1.02777 0
M  V30 1133 C 112.32 -5.33963 0.28061 0
M  V30 1134 C 113.62 -4.66019 2.35846 0
M  V30 1135 H 115.314 -2.53429 1.59419 0
M  V30 1136 H 112.86 -1.21813 0.767961 0
M  V30 1137 H 114.813 -4.21037 -0.174814 0
M  V30 1138 H 113.537 -3.15749 -0.834877 0
M  V30 1139 H 112.196 -3.43549 1.27944 0
M  V30 1140 H 111.844 -4.98788 -0.649545 0
M  V30 1141 H 111.544 -5.806 0.904258 0
M  V30 1142 H 113.068 -6.10596 0.021396 0
M  V30 1143 H 114.482 -5.3144 2.15045 0
M  V30 1144 H 112.879 -5.23293 2.93743 0
M  V30 1145 H 113.949 -3.82023 2.98641 0
M  V30 1146 N 115.292 -0.849877 -1.32721 0
M  V30 1147 C 116.202 -0.293791 -2.32753 0
M  V30 1148 C 117.218 0.585906 -1.63839 0
M  V30 1149 O 118.394 0.487413 -1.95413 0
M  V30 1150 C 115.459 0.512752 -3.42887 0
M  V30 1151 C 114.52 -0.39252 -4.27502 0
M  V30 1152 C 113.753 0.375625 -5.32377 0
M  V30 1153 O 113.976 1.60613 -5.4732 0
M  V30 1154 O 112.91 -0.256094 -6.01355 0
M  V30 1155 H 116.736 -1.12242 -2.82197 0
M  V30 1156 H 114.321 -0.612685 -1.36259 0
M  V30 1157 H 116.203 0.970704 -4.10067 0
M  V30 1158 H 114.878 1.31826 -2.95641 0
M  V30 1159 H 113.785 -0.898547 -3.63149 0
M  V30 1160 H 115.118 -1.16309 -4.7826 0
M  V30 1161 N 116.77 1.45427 -0.607355 0
M  V30 1162 C 118.016 2.0254 -0.102607 0
M  V30 1163 C 118.349 1.47478 1.26348 0
M  V30 1164 O 117.624 0.64939 1.83339 0
M  V30 1165 C 117.907 3.60044 -0.0634347 0
M  V30 1166 C 117.76 4.2544 -1.46017 0
M  V30 1167 C 119.079 4.35646 0.624514 0
M  V30 1168 H 116.198 0.73598 -0.0387607 0
M  V30 1169 H 118.84 1.73284 -0.779282 0
M  V30 1170 H 116.99 3.85101 0.512808 0
M  V30 1171 H 118.662 4.11569 -2.08347 0
M  V30 1172 H 116.905 3.83849 -2.02094 0
M  V30 1173 H 117.576 5.34342 -1.385 0
M  V30 1174 H 120.052 4.15882 0.134723 0
M  V30 1175 H 118.928 5.45376 0.621028 0
M  V30 1176 H 119.189 4.08501 1.69055 0
M  V30 1177 N 118.248 0.346503 1.53744 0
M  V30 1178 C 119.497 -0.250122 2.00143 0
M  V30 1179 C 119.81 -1.51418 1.23822 0
M  V30 1180 O 121.016 -2.18823 1.60713 0
M  V30 1181 C 119.472 -0.496252 3.56462 0
M  V30 1182 C 119.08 0.752077 4.41642 0
M  V30 1183 C 120.824 -1.05157 4.11269 0
M  V30 1184 C 118.731 0.476583 5.89477 0
M  V30 1185 H 117.661 -0.0972409 0.747703 0
M  V30 1186 H 120.312 0.46229 1.77581 0
M  V30 1187 H 118.694 -1.26944 3.75102 0
M  V30 1188 H 119.868 1.5266 4.34778 0
M  V30 1189 H 118.183 1.22925 3.97842 0
M  V30 1190 H 120.78 -1.27269 5.19333 0
M  V30 1191 H 121.123 -2.00799 3.64672 0
M  V30 1192 H 121.656 -0.339019 3.96353 0
M  V30 1193 H 118.395 1.4028 6.40314 0
M  V30 1194 H 117.915 -0.259794 5.99237 0
M  V30 1195 H 119.594 0.0949315 6.4693 0
M  V30 1196 N 119.726 -1.57421 0.075193 0
M  V30 1197 C 120.656 -2.15942 -0.888324 0
M  V30 1198 C 121.637 -1.08737 -1.30806 0
M  V30 1199 O 122.822 -1.36787 -1.37851 0
M  V30 1200 C 119.952 -2.72379 -2.1547 0
M  V30 1201 C 118.906 -3.8478 -1.87425 0
M  V30 1202 C 118.232 -4.27834 -3.20721 0
M  V30 1203 C 119.532 -5.08869 -1.17684 0
M  V30 1204 H 121.226 -2.96705 -0.400799 0
M  V30 1205 H 118.772 -1.42723 -0.191342 0
M  V30 1206 H 120.725 -3.11965 -2.83295 0
M  V30 1207 H 119.449 -1.88841 -2.6647 0
M  V30 1208 H 118.108 -3.45703 -1.22004 0
M  V30 1209 H 117.756 -3.41214 -3.6957 0
M  V30 1210 H 117.456 -5.03605 -3.02746 0
M  V30 1211 H 118.98 -4.70039 -3.89738 0
M  V30 1212 H 120.394 -5.4575 -1.75584 0
M  V30 1213 H 118.791 -5.8994 -1.09956 0
M  V30 1214 H 119.861 -4.84648 -0.156453 0
M  V30 1215 N 121.204 0.198386 -1.56346 0
M  V30 1216 C 122.114 1.2664 -1.97483 0
M  V30 1217 C 123.13 1.49989 -0.882002 0
M  V30 1218 O 124.306 1.62668 -1.18748 0
M  V30 1219 C 121.371 2.59141 -2.30319 0
M  V30 1220 C 120.432 2.43892 -3.53292 0
M  V30 1221 C 119.665 3.70074 -3.84553 0
M  V30 1222 O 119.888 4.74101 -3.1715 0
M  V30 1223 O 118.822 3.658 -4.7799 0
M  V30 1224 H 122.648 0.947304 -2.88548 0
M  V30 1225 H 120.233 0.403123 -1.43859 0
M  V30 1226 H 122.115 3.37352 -2.5253 0
M  V30 1227 H 120.79 2.90684 -1.42423 0
M  V30 1228 H 119.697 1.63803 -3.36332 0
M  V30 1229 H 121.03 2.17282 -4.41644 0
M  V30 1230 N 122.682 1.50554 0.465978 0
M  V30 1231 C 123.93 1.61479 1.21528 0
M  V30 1232 C 124.251 0.319596 1.92363 0
M  V30 1233 O 123.521 -0.663194 1.84333 0
M  V30 1234 H 122.101 0.595055 0.451573 0
M  V30 1235 H 124.763 1.87355 0.53704 0
M  V30 1236 H 123.859 2.42846 1.96042 0
M  V30 1237 N 124.16 -0.719506 1.40217 0
M  V30 1238 C 125.07 -1.86378 1.42479 0
M  V30 1239 C 126.086 -1.71073 0.317834 0
M  V30 1240 O 127.262 -1.93406 0.561794 0
M  V30 1241 C 124.327 -3.22136 1.28178 0
M  V30 1242 C 123.388 -3.49723 2.48982 0
M  V30 1243 C 122.621 -4.79004 2.35353 0
M  V30 1244 O 122.844 -5.53821 1.36524 0
M  V30 1245 O 121.778 -5.06839 3.2465 0
M  V30 1246 H 125.604 -1.87425 2.38968 0
M  V30 1247 H 123.189 -0.869405 1.21498 0
M  V30 1248 H 125.071 -4.03234 1.22395 0
M  V30 1249 H 123.746 -3.21825 0.347934 0
M  V30 1250 H 122.653 -2.6865 2.60342 0
M  V30 1251 H 123.986 -3.54828 3.41113 0
M  V30 1252 N 125.638 -1.25649 -0.95132 0
M  V30 1253 C 126.915 -1.01361 -1.67288 0
M  V30 1254 C 127.295 0.459135 -2.06046 0
M  V30 1255 O 126.643 1.43723 -1.7764 0
M  V30 1256 C 126.853 -1.95256 -2.89268 0
M  V30 1257 C 128.201 -2.23289 -3.61147 0
M  V30 1258 O 129.225 -1.93041 -2.99355 0
M  V30 1259 O 128.084 -2.74741 -4.72419 0
M  V30 1260 H 125.178 -0.38464 -0.732107 0
M  V30 1261 H 127.724 -1.36817 -1.00395 0
M  V30 1262 H 126.496 -2.94685 -2.57442 0
M  V30 1263 H 126.119 -1.60218 -3.6389 0
M  V30 1264 N 127.117 1.15442 -1.07289 0
M  V30 1265 C 128.363 1.86489 -0.796846 0
M  V30 1266 C 128.696 1.82078 0.675371 0
M  V30 1267 O 127.971 1.24346 1.4956 0
M  V30 1268 C 128.254 3.35626 -1.30489 0
M  V30 1269 C 128.107 3.48673 -2.84161 0
M  V30 1270 C 129.426 4.30357 -0.920907 0
M  V30 1271 H 126.545 0.677144 -0.290939 0
M  V30 1272 H 129.187 1.35633 -1.33056 0
M  V30 1273 H 127.337 3.79068 -0.850883 0
M  V30 1274 H 129.009 3.14099 -3.37846 0
M  V30 1275 H 127.252 2.90253 -3.22391 0
M  V30 1276 H 127.923 4.53453 -3.14777 0
M  V30 1277 H 130.399 3.94871 -1.3121 0
M  V30 1278 H 129.275 5.33193 -1.30372 0
M  V30 1279 H 129.536 4.4176 0.173226 0
M  V30 1280 N 128.595 0.856903 1.32268 0
M  V30 1281 C 129.82 0.474569 2.01897 0
M  V30 1282 C 130.245 -0.921766 1.63967 0
M  V30 1283 O 129.603 -1.60589 0.84148 0
M  V30 1284 C 129.651 0.623799 3.55164 0
M  V30 1285 O 128.755 -0.342459 4.10976 0
M  V30 1286 H 128.096 0.190422 0.63611 0
M  V30 1287 H 130.626 1.15672 1.68764 0
M  V30 1288 H 130.636 0.512169 4.04773 0
M  V30 1289 H 129.311 1.64202 3.82113 0
M  V30 1290 H 127.888 -0.18688 3.72431 0
M  V30 1291 N 130.073 -1.45103 0.615059 0
M  V30 1292 C 131.321 -2.01784 0.112955 0
M  V30 1293 C 131.642 -1.48504 -1.26378 0
M  V30 1294 O 130.912 -0.682245 -1.83636 0
M  V30 1295 H 129.492 -0.745993 0.0387668 0
M  V30 1296 H 132.154 -1.77808 0.798141 0
M  V30 1297 H 131.25 -3.12025 0.0684069 0
M  V30 1298 N 131.551 -0.354651 -1.53558 0
M  V30 1299 C 132.461 0.50515 -2.29097 0
M  V30 1300 C 133.477 1.10223 -1.34636 0
M  V30 1301 O 134.653 1.11553 -1.67684 0
M  V30 1302 C 131.718 1.63479 -3.05738 0
M  V30 1303 C 130.779 1.06636 -4.15845 0
M  V30 1304 C 130.012 2.14217 -4.88822 0
M  V30 1305 O 130.235 3.35137 -4.61562 0
M  V30 1306 O 129.169 1.77887 -5.75013 0
M  V30 1307 H 132.995 -0.109237 -3.03503 0
M  V30 1308 H 130.58 -0.119357 -1.48922 0
M  V30 1309 H 132.462 2.2918 -3.5363 0
M  V30 1310 H 131.137 2.23478 -2.34178 0
M  V30 1311 H 130.044 0.373565 -3.7223 0
M  V30 1312 H 131.377 0.511081 -4.89539 0
M  V30 1313 N 133.029 1.57378 -0.0835403 0
M  V30 1314 C 134.278 1.93106 0.582498 0
M  V30 1315 C 134.591 0.96651 1.70053 0
M  V30 1316 O 135.797 1.21705 2.42693 0
M  V30 1317 C 134.253 3.43076 1.08751 0
M  V30 1318 C 133.861 4.48 -0.000146404 0
M  V30 1319 C 135.605 3.87785 1.72694 0
M  V30 1320 C 133.512 5.89113 0.519568 0
M  V30 1321 H 132.442 0.720775 0.221358 0
M  V30 1322 H 135.093 1.82821 -0.157675 0
M  V30 1323 H 133.475 3.48474 1.88101 0
M  V30 1324 H 134.649 4.54233 -0.775199 0
M  V30 1325 H 132.964 4.1283 -0.54406 0
M  V30 1326 H 135.561 4.90604 2.1263 0
M  V30 1327 H 135.904 3.25796 2.59158 0
M  V30 1328 H 136.437 3.8504 0.999457 0
M  V30 1329 H 133.176 6.54775 -0.308186 0
M  V30 1330 H 132.696 5.86376 1.26188 0
M  V30 1331 H 134.375 6.39346 0.992237 0
M  V30 1332 N 134.507 -0.190092 1.56449 0
M  V30 1333 C 135.923 -0.54113 1.50146 0
M  V30 1334 C 136.123 -1.85603 0.784465 0
M  V30 1335 O 135.179 -2.5024 0.337051 0
M  V30 1336 C 136.492 -0.591241 2.9483 0
M  V30 1337 C 138.04 -0.679732 3.0553 0
M  V30 1338 C 138.515 -0.760908 4.51635 0
M  V30 1339 N 140.006 -0.824302 4.55806 0
M  V30 1340 C 140.741 -0.907365 5.66175 0
M  V30 1341 N 140.237 -0.952422 6.86222 0
M  V30 1342 N 142.03 -0.94494 5.541 0
M  V30 1343 H 134.181 0.67235 2.01478 0
M  V30 1344 H 136.444 0.240127 0.917084 0
M  V30 1345 H 136.15 0.305905 3.50367 0
M  V30 1346 H 136.024 -1.44422 3.48457 0
M  V30 1347 H 138.411 -1.56731 2.50039 0
M  V30 1348 H 138.492 0.199549 2.5502 0
M  V30 1349 H 138.136 0.122336 5.07753 0
M  V30 1350 H 138.066 -1.65606 4.99882 0
M  V30 1351 H 140.557 -0.798526 3.69367 0
M  V30 1352 H 140.87 -1.01645 7.66086 0
M  V30 1353 H 139.215 -0.921014 6.8887 0
M  V30 1354 H 142.406 -0.906612 4.59236 0
M  V30 1355 H 142.579 -1.00622 6.4014 0
M  V30 1356 N 135.985 -1.50799 -0.457987 0
M  V30 1357 C 137.213 -1.66218 -1.23203 0
M  V30 1358 C 137.628 -0.350894 -1.85511 0
M  V30 1359 O 136.985 0.668546 -1.69814 0
M  V30 1360 C 137.036 -2.76291 -2.33121 0
M  V30 1361 O 136.757 -4.02338 -1.73366 0
M  V30 1362 C 138.258 -3.028 -3.2377 0
M  V30 1363 H 135.478 -0.558361 -0.372121 0
M  V30 1364 H 138.022 -1.97099 -0.545179 0
M  V30 1365 H 136.177 -2.48068 -2.97558 0
M  V30 1366 H 136.591 -4.63312 -2.4585 0
M  V30 1367 H 138.065 -3.8345 -3.97077 0
M  V30 1368 H 138.542 -2.14385 -3.83322 0
M  V30 1369 H 139.148 -3.32604 -2.65056 0
M  V30 1370 N 137.463 0.71206 -1.40597 0
M  V30 1371 C 138.395 1.83704 -1.37061 0
M  V30 1372 C 139.408 1.60453 -0.275426 0
M  V30 1373 O 140.597 1.70262 -0.53602 0
M  V30 1374 C 137.697 3.20172 -1.11099 0
M  V30 1375 C 136.87 3.7059 -2.3234 0
M  V30 1376 C 135.929 4.85681 -2.02485 0
M  V30 1377 O 134.955 4.9815 -2.75382 0
M  V30 1378 N 136.157 5.71735 -1.00497 0
M  V30 1379 H 138.922 1.87235 -2.34016 0
M  V30 1380 H 136.483 0.893739 -1.34996 0
M  V30 1381 H 138.475 3.94768 -0.891064 0
M  V30 1382 H 137.045 3.11767 -0.227989 0
M  V30 1383 H 136.265 2.87085 -2.7014 0
M  V30 1384 H 137.553 4.01011 -3.13157 0
M  V30 1385 H 136.951 5.64275 -0.401298 0
M  V30 1386 H 135.508 6.463 -0.844942 0
M  V30 1387 N 138.941 1.26152 0.944643 0
M  V30 1388 C 139.851 1.09176 2.07648 0
M  V30 1389 C 140.867 0.0261935 1.7398 0
M  V30 1390 O 142.043 0.229208 2.00091 0
M  V30 1391 C 139.108 0.722915 3.39079 0
M  V30 1392 C 138.169 1.86752 3.86552 0
M  V30 1393 C 137.402 1.51617 5.11711 0
M  V30 1394 O 137.625 0.416331 5.68879 0
M  V30 1395 O 136.559 2.34975 5.54139 0
M  V30 1396 H 140.385 2.0412 2.24875 0
M  V30 1397 H 137.97 1.05182 1.061 0
M  V30 1398 H 139.852 0.529787 4.18056 0
M  V30 1399 H 138.527 -0.197159 3.23099 0
M  V30 1400 H 137.434 2.11558 3.08535 0
M  V30 1401 H 138.767 2.76719 4.07047 0
M  V30 1402 N 140.419 -1.14872 1.07899 0
M  V30 1403 C 141.665 -1.86064 0.806725 0
M  V30 1404 C 141.998 -1.82434 -0.665706 0
M  V30 1405 O 141.273 -1.25138 -1.48899 0
M  V30 1406 C 141.556 -3.34929 1.32267 0
M  V30 1407 C 141.409 -3.47161 2.86006 0
M  V30 1408 C 142.728 -4.29863 0.943717 0
M  V30 1409 H 139.847 -0.675591 0.294526 0
M  V30 1410 H 142.489 -1.34925 1.33773 0
M  V30 1411 H 140.639 -3.78611 0.870974 0
M  V30 1412 H 142.311 -3.12302 3.39507 0
M  V30 1413 H 140.554 -2.88539 3.23925 0
M  V30 1414 H 141.225 -4.51777 3.17177 0
M  V30 1415 H 143.701 -3.9417 1.33302 0
M  V30 1416 H 142.577 -5.32494 1.33198 0
M  V30 1417 H 142.838 -4.41846 -0.149796 0
M  V30 1418 N 141.898 -0.863906 -1.31812 0
M  V30 1419 C 142.861 -0.320212 -2.26952 0
M  V30 1420 C 143.861 0.525369 -1.51975 0
M  V30 1421 O 145.051 0.335547 -1.70938 0
M  V30 1422 C 142.183 0.545919 -3.365 0
M  V30 1423 H 143.376 -1.16004 -2.76556 0
M  V30 1424 H 140.929 -0.638995 -1.42641 0
M  V30 1425 H 141.664 1.40718 -2.92179 0
M  V30 1426 H 141.449 -0.0594674 -3.92055 0
M  V30 1427 H 142.939 0.918796 -4.07367 0
M  V30 1428 N 143.376 1.44774 -0.622745 0
M  V30 1429 C 144.324 2.32387 0.0994683 0
M  V30 1430 C 145.318 1.46859 0.844326 0
M  V30 1431 O 146.524 1.63254 0.758174 0
M  V30 1432 H 142.899 0.750273 0.0509291 0
M  V30 1433 H 144.87 2.91062 -0.65767 0
M  V30 1434 C 143.619 3.30723 1.07319 0
M  V30 1435 H 142.942 3.96541 0.509462 0
M  V30 1436 H 144.382 3.94725 1.54817 0
M  V30 1437 C 142.841 2.59021 2.15429 0
M  V30 1438 O 143.371 2.38286 3.23393 0
M  V30 1439 N 141.577 2.189 1.91131 0
M  V30 1440 H 141.124 2.35964 1.03337 0
M  V30 1441 H 141.082 1.71251 2.63668 0
M  V30 1442 N 144.854 0.36279 1.53368 0
M  V30 1443 C 145.817 -0.472679 2.24273 0
M  V30 1444 C 146.817 -1.012 1.24961 0
M  V30 1445 O 148.007 -0.898194 1.49259 0
M  V30 1446 C 145.139 -1.66039 2.97731 0
M  V30 1447 H 146.332 0.14773 2.99536 0
M  V30 1448 H 143.885 0.114434 1.55881 0
M  V30 1449 H 144.62 -2.31896 2.26704 0
M  V30 1450 H 144.405 -1.28066 3.70596 0
M  V30 1451 H 145.895 -2.25252 3.51641 0
M  V30 1452 N 146.332 -1.57332 0.0918853 0
M  V30 1453 C 147.295 -2.12708 -0.85369 0
M  V30 1454 C 148.295 -1.05561 -1.213 0
M  V30 1455 O 149.485 -1.31461 -1.14296 0
M  V30 1456 C 146.617 -2.64503 -2.15061 0
M  V30 1457 H 147.81 -2.97573 -0.3729 0
M  V30 1458 H 145.363 -1.55509 -0.157072 0
M  V30 1459 H 146.098 -1.83149 -2.67632 0
M  V30 1460 H 145.883 -3.4284 -1.90272 0
M  V30 1461 H 147.373 -3.07351 -2.82711 0
M  V30 1462 N 147.81 0.181792 -1.56548 0
M  V30 1463 C 149.035 0.920019 -1.85877 0
M  V30 1464 C 149.46 1.75494 -0.677021 0
M  V30 1465 O 148.818 1.77399 0.374056 0
M  V30 1466 C 148.866 1.78112 -3.13542 0
M  V30 1467 O 147.97 2.88152 -2.95029 0
M  V30 1468 H 147.311 0.258334 -0.611686 0
M  V30 1469 H 149.841 0.183092 -2.03779 0
M  V30 1470 H 149.851 2.18314 -3.44678 0
M  V30 1471 H 148.526 1.16777 -3.99169 0
M  V30 1472 H 147.103 2.51609 -2.75222 0
M  V30 1473 N 149.288 1.51039 0.449983 0
M  V30 1474 C 150.22 1.67617 1.56324 0
M  V30 1475 C 151.233 0.557083 1.52972 0
M  V30 1476 O 152.422 0.830989 1.57977 0
M  V30 1477 C 149.522 1.66402 2.95235 0
M  V30 1478 C 148.695 2.9469 3.23229 0
M  V30 1479 C 147.754 2.85832 4.41799 0
M  V30 1480 O 146.78 3.59785 4.41071 0
M  V30 1481 N 147.982 2.00821 5.44657 0
M  V30 1482 H 150.747 2.63648 1.42512 0
M  V30 1483 H 148.308 1.48767 0.638737 0
M  V30 1484 H 150.3 1.58062 3.72557 0
M  V30 1485 H 148.87 0.780182 3.02708 0
M  V30 1486 H 148.09 3.16996 2.34323 0
M  V30 1487 H 149.378 3.79636 3.38754 0
M  V30 1488 H 148.776 1.40091 5.48079 0
M  V30 1489 H 147.333 1.98368 6.20881 0
M  V30 1490 N 150.766 -0.704594 1.40972 0
M  V30 1491 C 152.012 -1.46675 1.40051 0
M  V30 1492 C 152.345 -1.94199 0.00641102 0
M  V30 1493 O 151.62 -1.68916 -0.964235 0
M  V30 1494 C 151.903 -2.68505 2.39952 0
M  V30 1495 C 151.756 -2.26805 3.88432 0
M  V30 1496 C 153.075 -3.70686 2.37233 0
M  V30 1497 H 150.194 -0.532015 0.510028 0
M  V30 1498 H 152.836 -0.803255 1.72185 0
M  V30 1499 H 150.986 -3.25114 2.1268 0
M  V30 1500 H 152.658 -1.75592 4.26574 0
M  V30 1501 H 150.901 -1.58685 4.03734 0
M  V30 1502 H 151.572 -3.14181 4.53866 0
M  V30 1503 H 154.048 -3.23731 2.61415 0
M  V30 1504 H 152.924 -4.53553 3.09162 0
M  V30 1505 H 153.185 -4.19754 1.38777 0
M  V30 1506 N 152.244 -1.26651 -0.937939 0
M  V30 1507 C 153.207 -1.08546 -2.01867 0
M  V30 1508 C 154.207 -0.0327327 -1.60767 0
M  V30 1509 O 155.397 -0.276427 -1.71993 0
M  V30 1510 C 152.529 -0.651711 -3.34613 0
M  V30 1511 H 153.722 -2.04502 -2.1936 0
M  V30 1512 H 151.275 -1.09294 -1.11734 0
M  V30 1513 H 152.01 0.309696 -3.22818 0
M  V30 1514 H 151.795 -1.41189 -3.65798 0
M  V30 1515 H 153.285 -0.546973 -4.14002 0
M  V30 1516 N 153.722 1.14298 -1.08507 0
M  V30 1517 C 154.685 2.17607 -0.719711 0
M  V30 1518 C 155.685 1.58907 0.245997 0
M  V30 1519 O 156.875 1.74181 0.0254081 0
M  V30 1520 C 154.007 3.40842 -0.0627695 0
M  V30 1521 H 155.2 2.51443 -1.63452 0
M  V30 1522 H 152.753 1.28963 -0.88307 0
M  V30 1523 H 153.488 3.12587 0.863716 0
M  V30 1524 H 153.273 3.84713 -0.757504 0
M  V30 1525 H 154.763 4.17221 0.177786 0
M  V30 1526 N 155.201 0.870884 1.31352 0
M  V30 1527 C 156.448 0.482273 1.96673 0
M  V30 1528 C 156.776 -0.965638 1.68836 0
M  V30 1529 O 156.031 -1.69514 0.977937 0
M  V30 1530 C 156.33 0.687157 3.50732 0
M  V30 1531 C 155.996 2.108 3.9859 0
M  V30 1532 C 154.658 2.49656 4.1137 0
M  V30 1533 C 157.01 3.03459 4.23748 0
M  V30 1534 C 154.338 3.80412 4.46659 0
M  V30 1535 C 156.69 4.3373 4.60501 0
M  V30 1536 C 155.354 4.725 4.71487 0
M  V30 1537 H 154.624 0.176476 0.719679 0
M  V30 1538 H 157.271 1.10405 1.56471 0
M  V30 1539 H 155.576 -0.0177476 3.91796 0
M  V30 1540 H 157.273 0.366284 3.99324 0
M  V30 1541 H 153.863 1.79633 3.8914 0
M  V30 1542 H 158.047 2.74665 4.13368 0
M  V30 1543 H 153.303 4.1021 4.53362 0
M  V30 1544 H 157.477 5.05578 4.78919 0
M  V30 1545 H 155.104 5.73859 4.98588 0
M  V30 1546 N 156.679 -1.44442 0.630414 0
M  V30 1547 C 158.09 -1.85434 0.217063 0
M  V30 1548 C 158.441 -1.52748 -1.23136 0
M  V30 1549 O 157.566 -0.965205 -1.93682 0
M  V30 1550 C 158.161 -3.36581 0.387168 0
M  V30 1551 C 156.72 -3.76389 0.0283297 0
M  V30 1552 C 155.867 -2.68296 0.700889 0
M  V30 1553 H 158.818 -1.34919 0.83562 0
M  V30 1554 H 158.839 -3.78657 -0.374086 0
M  V30 1555 H 158.351 -3.60339 1.44144 0
M  V30 1556 H 156.452 -3.58246 -1.02423 0
M  V30 1557 H 156.565 -4.77095 0.437892 0
M  V30 1558 H 154.929 -2.54335 0.136267 0
M  V30 1559 H 155.712 -2.94887 1.75774 0
M  V30 1560 N 158.157 -0.370918 -1.53173 0
M  V30 1561 C 159.573 -0.0200818 -1.59587 0
M  V30 1562 C 159.773 1.46279 -1.38581 0
M  V30 1563 O 158.829 2.22506 -1.19363 0
M  V30 1564 C 160.142 -0.4808 -2.96831 0
M  V30 1565 C 161.69 -0.435477 -3.09956 0
M  V30 1566 C 162.165 -0.872092 -4.4962 0
M  V30 1567 N 163.656 -0.827364 -4.55751 0
M  V30 1568 C 164.391 -1.13683 -5.62018 0
M  V30 1569 N 163.887 -1.51584 -6.76014 0
M  V30 1570 N 165.68 -1.05927 -5.52029 0
M  V30 1571 H 157.831 -1.33652 -1.65079 0
M  V30 1572 H 160.094 -0.546634 -0.774529 0
M  V30 1573 H 159.8 -1.51577 -3.1736 0
M  V30 1574 H 159.674 0.129796 -3.76977 0
M  V30 1575 H 162.061 0.590371 -2.89134 0
M  V30 1576 H 162.142 -1.08164 -2.31806 0
M  V30 1577 H 161.786 -1.89608 -4.71181 0
M  V30 1578 H 161.716 -0.203127 -5.26208 0
M  V30 1579 H 164.207 -0.548216 -3.73902 0
M  V30 1580 H 164.52 -1.73609 -7.53047 0
M  V30 1581 H 162.865 -1.55454 -6.77391 0
M  V30 1582 H 166.056 -0.762321 -4.61851 0
M  V30 1583 H 166.229 -1.30378 -6.34749 0
M  V30 1584 N 159.635 1.57281 -0.100228 0
M  V30 1585 C 160.881 1.94826 0.563101 0
M  V30 1586 C 161.214 0.982475 1.67514 0
M  V30 1587 O 160.489 0.0164069 1.94493 0
M  V30 1588 C 160.772 3.42453 1.11346 0
M  V30 1589 C 160.625 4.498 0.00612081 0
M  V30 1590 C 161.944 3.91506 2.01024 0
M  V30 1591 H 159.063 0.708428 0.203221 0
M  V30 1592 H 161.705 1.8922 -0.171979 0
M  V30 1593 H 159.855 3.47361 1.7399 0
M  V30 1594 H 161.527 4.57 -0.628357 0
M  V30 1595 H 159.77 4.28756 -0.659581 0
M  V30 1596 H 160.441 5.50306 0.432109 0
M  V30 1597 H 162.917 3.88784 1.48278 0
M  V30 1598 H 161.793 4.95358 2.36457 0
M  V30 1599 H 162.054 3.31099 2.92961 0
M  V30 1600 N 161.113 -0.173488 1.56642 0
M  V30 1601 C 162.529 -0.525174 1.50712 0
M  V30 1602 C 162.729 -1.8476 0.804107 0
M  V30 1603 O 161.785 -2.49869 0.363574 0
M  V30 1604 C 163.098 -0.559937 2.95441 0
M  V30 1605 C 164.646 -0.647288 3.06234 0
M  V30 1606 C 165.121 -0.712963 4.52417 0
M  V30 1607 N 166.612 -0.775911 4.56655 0
M  V30 1608 C 167.347 -0.847264 5.67106 0
M  V30 1609 N 166.843 -0.879585 6.87194 0
M  V30 1610 N 168.636 -0.886117 5.55071 0
M  V30 1611 H 160.787 0.693681 2.00753 0
M  V30 1612 H 163.05 0.249841 0.914485 0
M  V30 1613 H 162.756 0.343049 3.50023 0
M  V30 1614 H 162.63 -1.40718 3.49969 0
M  V30 1615 H 165.017 -1.5407 2.51687 0
M  V30 1616 H 165.098 0.226586 2.54794 0
M  V30 1617 H 164.742 0.176183 5.07594 0
M  V30 1618 H 164.672 -1.60295 5.0161 0
M  V30 1619 H 167.163 -0.759304 3.70193 0
M  V30 1620 H 167.476 -0.935144 7.67121 0
M  V30 1621 H 165.821 -0.847898 6.89808 0
M  V30 1622 H 169.012 -0.857853 4.60172 0
M  V30 1623 H 169.185 -0.938263 6.41171 0
M  V30 1624 N 162.591 -1.51276 -0.441967 0
M  V30 1625 C 163.501 -1.75092 -1.56141 0
M  V30 1626 C 164.517 -0.634963 -1.62001 0
M  V30 1627 O 165.693 -0.916686 -1.79329 0
M  V30 1628 C 162.758 -1.86666 -2.92158 0
M  V30 1629 C 161.819 -3.10506 -2.96453 0
M  V30 1630 C 161.052 -3.21519 -4.25982 0
M  V30 1631 O 161.275 -2.38586 -5.18105 0
M  V30 1632 O 160.209 -4.14465 -4.36466 0
M  V30 1633 H 164.035 -2.70044 -1.38961 0
M  V30 1634 H 161.62 -1.35722 -0.624499 0
M  V30 1635 H 163.502 -1.96292 -3.72891 0
M  V30 1636 H 162.177 -0.949014 -3.09476 0
M  V30 1637 H 161.084 -3.06363 -2.14692 0
M  V30 1638 H 162.417 -4.01945 -2.84079 0
M  V30 1639 N 164.069 0.697108 -1.41344 0
M  V30 1640 C 165.032 1.79281 -1.42797 0
M  V30 1641 C 166.032 1.57607 -0.318837 0
M  V30 1642 O 167.222 1.64309 -0.578642 0
M  V30 1643 C 164.354 3.17632 -1.23785 0
M  V30 1644 H 165.547 1.79385 -2.40335 0
M  V30 1645 H 163.1 0.904582 -1.27464 0
M  V30 1646 H 163.835 3.23167 -0.270814 0
M  V30 1647 H 163.62 3.34765 -2.04144 0
M  V30 1648 H 165.11 3.97617 -1.27633 0
M  V30 1649 N 165.547 1.27147 0.931209 0
M  V30 1650 C 166.477 1.12081 2.04842 0
M  V30 1651 C 167.458 0.0232364 1.70084 0
M  V30 1652 O 168.643 0.197085 1.93197 0
M  V30 1653 C 165.773 0.76354 3.38803 0
M  V30 1654 C 164.727 1.81396 3.87659 0
M  V30 1655 C 164.053 1.31075 5.18385 0
M  V30 1656 C 165.353 3.21739 4.11438 0
M  V30 1657 H 167.047 2.05537 2.17703 0
M  V30 1658 H 164.593 0.989603 1.04608 0
M  V30 1659 H 166.546 0.644982 4.16435 0
M  V30 1660 H 165.27 -0.206727 3.25945 0
M  V30 1661 H 163.929 1.92136 3.12217 0
M  V30 1662 H 163.577 0.330037 5.01916 0
M  V30 1663 H 163.277 2.013 5.52044 0
M  V30 1664 H 164.801 1.20506 5.98591 0
M  V30 1665 H 166.215 3.14019 4.79651 0
M  V30 1666 H 164.612 3.89644 4.56397 0
M  V30 1667 H 165.682 3.67054 3.16859 0
M  V30 1668 N 167.025 -1.13721 1.09112 0
M  V30 1669 C 167.955 -2.21148 0.749385 0
M  V30 1670 C 168.936 -1.6792 -0.271475 0
M  V30 1671 O 170.121 -1.93693 -0.140251 0
M  V30 1672 C 167.251 -3.46905 0.165659 0
M  V30 1673 C 166.205 -4.13203 1.11567 0
M  V30 1674 C 165.531 -5.33248 0.393809 0
M  V30 1675 C 166.831 -4.60912 2.45678 0
M  V30 1676 H 168.525 -2.4999 1.64758 0
M  V30 1677 H 166.071 -1.20156 0.793626 0
M  V30 1678 H 168.024 -4.21313 -0.085466 0
M  V30 1679 H 166.748 -3.17449 -0.767714 0
M  V30 1680 H 165.407 -3.40758 1.35202 0
M  V30 1681 H 165.055 -5.00054 -0.543599 0
M  V30 1682 H 164.755 -5.78552 1.02721 0
M  V30 1683 H 166.279 -6.10413 0.150908 0
M  V30 1684 H 167.693 -5.26759 2.26269 0
M  V30 1685 H 166.09 -5.16944 3.04776 0
M  V30 1686 H 167.16 -3.75603 3.06677 0
M  V30 1687 N 168.503 -0.877838 -1.30888 0
M  V30 1688 C 169.919 -0.570844 -1.49042 0
M  V30 1689 C 170.119 0.893159 -1.80624 0
M  V30 1690 O 169.175 1.67485 -1.88958 0
M  V30 1691 C 170.488 -1.47784 -2.61878 0
M  V30 1692 C 172.036 -1.48071 -2.75761 0
M  V30 1693 C 172.511 -2.37347 -3.91702 0
M  V30 1694 N 174.002 -2.35271 -3.99001 0
M  V30 1695 C 174.737 -3.01063 -4.88004 0
M  V30 1696 N 174.233 -3.76055 -5.81854 0
M  V30 1697 N 176.026 -2.90332 -4.81315 0
M  V30 1698 H 168.177 -1.82502 -1.0866 0
M  V30 1699 H 170.44 -0.780797 -0.537644 0
M  V30 1700 H 170.146 -2.51993 -2.45341 0
M  V30 1701 H 170.02 -1.18215 -3.58197 0
M  V30 1702 H 172.407 -0.446166 -2.91708 0
M  V30 1703 H 172.488 -1.81668 -1.80085 0
M  V30 1704 H 172.132 -3.40883 -3.76512 0
M  V30 1705 H 172.062 -2.01071 -4.86701 0
M  V30 1706 H 174.553 -1.80768 -3.3186 0
M  V30 1707 H 174.866 -4.23366 -6.46514 0
M  V30 1708 H 173.211 -3.80163 -5.81808 0
M  V30 1709 H 176.402 -2.31278 -4.06974 0
M  V30 1710 H 176.575 -3.41885 -5.50471 0
M  V30 1711 N 169.982 1.44106 -0.638065 0
M  V30 1712 C 171.398 1.56672 -0.304286 0
M  V30 1713 C 171.598 1.6244 1.19228 0
M  V30 1714 O 170.654 1.57121 1.9766 0
M  V30 1715 C 171.967 2.83503 -1.00231 0
M  V30 1716 C 173.515 2.97226 -0.981116 0
M  V30 1717 C 173.99 4.26868 -1.65974 0
M  V30 1718 N 175.481 4.33698 -1.62666 0
M  V30 1719 C 176.216 5.32745 -2.12063 0
M  V30 1720 N 175.712 6.38157 -2.6968 0
M  V30 1721 N 177.505 5.24299 -2.02651 0
M  V30 1722 H 169.656 1.38605 -1.60942 0
M  V30 1723 H 171.919 0.664661 -0.675965 0
M  V30 1724 H 171.625 2.85251 -2.0573 0
M  V30 1725 H 171.499 3.73251 -0.54439 0
M  V30 1726 H 173.886 2.95027 0.0654188 0
M  V30 1727 H 173.967 2.08808 -1.47759 0
M  V30 1728 H 173.611 4.29826 -2.70576 0
M  V30 1729 H 173.541 5.14156 -1.13804 0
M  V30 1730 H 176.032 3.58138 -1.20606 0
M  V30 1731 H 176.345 7.10029 -3.05087 0
M  V30 1732 H 174.69 6.38823 -2.73734 0
M  V30 1733 H 177.881 4.4086 -1.57353 0
M  V30 1734 H 178.054 6.01334 -2.41457 0
M  V30 1735 N 171.46 0.379036 1.52974 0
M  V30 1736 C 172.392 -0.495963 2.2377 0
M  V30 1737 C 173.405 -1.03517 1.25651 0
M  V30 1738 O 174.594 -0.939249 1.51791 0
M  V30 1739 C 171.694 -1.69894 2.93239 0
M  V30 1740 C 170.867 -1.2889 4.17979 0
M  V30 1741 C 169.926 -2.35543 4.70538 0
M  V30 1742 O 168.952 -1.97375 5.33883 0
M  V30 1743 N 170.154 -3.67318 4.49508 0
M  V30 1744 H 172.919 0.110523 2.99496 0
M  V30 1745 H 170.48 0.204878 1.60598 0
M  V30 1746 H 172.472 -2.40747 3.25304 0
M  V30 1747 H 171.042 -2.212 2.20883 0
M  V30 1748 H 170.262 -0.409676 3.92065 0
M  V30 1749 H 171.55 -0.991443 4.99047 0
M  V30 1750 H 170.948 -4.01095 3.98923 0
M  V30 1751 H 169.505 -4.34235 4.8609 0
M  V30 1752 N 172.938 -1.57226 0.108567 0
M  V30 1753 C 174.354 -1.5766 -0.248058 0
M  V30 1754 C 174.554 -1.12063 -1.67464 0
M  V30 1755 O 173.61 -0.803236 -2.39383 0
M  V30 1756 C 174.923 -3.0069 -0.0242287 0
M  V30 1757 C 176.471 -3.12868 -0.0909372 0
M  V30 1758 C 176.946 -4.57879 0.105067 0
M  V30 1759 N 178.437 -4.63172 0.0506846 0
M  V30 1760 C 179.172 -5.73126 0.177396 0
M  V30 1761 N 178.668 -6.91866 0.359696 0
M  V30 1762 N 180.461 -5.61977 0.117709 0
M  V30 1763 H 172.612 -1.85169 1.04049 0
M  V30 1764 H 174.875 -0.85529 0.40888 0
M  V30 1765 H 174.581 -3.38299 0.961604 0
M  V30 1766 H 174.455 -3.6945 -0.76068 0
M  V30 1767 H 176.842 -2.75124 -1.06729 0
M  V30 1768 H 176.923 -2.46672 0.677225 0
M  V30 1769 H 176.567 -4.96321 1.07834 0
M  V30 1770 H 176.497 -5.22153 -0.682954 0
M  V30 1771 H 178.988 -3.778 -0.0871266 0
M  V30 1772 H 179.301 -7.71503 0.447529 0
M  V30 1773 H 177.646 -6.93874 0.395536 0
M  V30 1774 H 180.837 -4.68094 -0.0236741 0
M  V30 1775 H 181.01 -6.47627 0.219905 0
M  V30 1776 N 174.416 0.165178 -1.56732 0
M  V30 1777 C 175.379 1.18822 -1.95995 0
M  V30 1778 C 176.379 1.3685 -0.84431 0
M  V30 1779 O 177.569 1.34152 -1.11126 0
M  V30 1780 C 174.701 2.5521 -2.26011 0
M  V30 1781 H 175.894 0.851825 -2.87548 0
M  V30 1782 H 173.447 0.407857 -1.50885 0
M  V30 1783 H 174.182 2.93852 -1.37191 0
M  V30 1784 H 173.967 2.43489 -3.07336 0
M  V30 1785 H 175.457 3.28927 -2.57288 0
M  V30 1786 N 175.894 1.51508 0.433938 0
M  V30 1787 C 177.141 1.64345 1.18309 0
M  V30 1788 C 177.469 0.361315 1.91115 0
M  V30 1789 O 176.724 -0.654753 1.84422 0
M  V30 1790 C 177.023 2.79928 2.22205 0
M  V30 1791 C 176.689 4.19078 1.66387 0
M  V30 1792 C 175.351 4.56932 1.50887 0
M  V30 1793 C 177.703 5.05894 1.25381 0
M  V30 1794 C 175.031 5.79305 0.928608 0
M  V30 1795 C 177.383 6.2885 0.687823 0
M  V30 1796 C 176.047 6.65473 0.519755 0
M  V30 1797 H 175.317 0.601381 0.432923 0
M  V30 1798 H 177.964 1.85549 0.473676 0
M  V30 1799 H 176.269 2.52959 2.99197 0
M  V30 1800 H 177.966 2.87059 2.79997 0
M  V30 1801 H 174.556 3.89234 1.79428 0
M  V30 1802 H 178.74 4.77253 1.36175 0
M  V30 1803 H 173.996 6.06324 0.786186 0
M  V30 1804 H 178.17 6.95461 0.361581 0
M  V30 1805 H 175.797 7.6017 0.0679979 0
M  V30 1806 N 177.372 -0.689602 1.41712 0
M  V30 1807 C 178.788 -1.00093 1.24312 0
M  V30 1808 C 178.988 -2.01036 0.136729 0
M  V30 1809 O 178.044 -2.47562 -0.496918 0
M  V30 1810 C 179.357 -1.51985 2.59463 0
M  V30 1811 C 180.905 -1.63838 2.66695 0
M  V30 1812 C 181.38 -2.1913 4.02177 0
M  V30 1813 N 182.871 -2.26483 4.04054 0
M  V30 1814 C 183.606 -2.70306 5.0569 0
M  V30 1815 N 183.102 -3.13691 6.17713 0
M  V30 1816 N 184.895 -2.69923 4.9305 0
M  V30 1817 H 177.046 -0.0210029 2.1239 0
M  V30 1818 H 179.309 -0.0718733 0.945272 0
M  V30 1819 H 179.015 -0.85269 3.41207 0
M  V30 1820 H 178.889 -2.50103 2.82362 0
M  V30 1821 H 181.276 -2.29664 1.85306 0
M  V30 1822 H 181.357 -0.642492 2.476 0
M  V30 1823 H 181.001 -1.53918 4.84016 0
M  V30 1824 H 180.931 -3.19482 4.18615 0
M  V30 1825 H 183.422 -1.95874 3.23174 0
M  V30 1826 H 183.735 -3.45773 6.9113 0
M  V30 1827 H 182.08 -3.11585 6.21241 0
M  V30 1828 H 185.271 -2.35382 4.04614 0
M  V30 1829 H 185.444 -3.03758 5.72394 0
M  V30 1830 N 178.85 -1.27639 -0.924453 0
M  V30 1831 C 179.76 -1.12466 -2.05885 0
M  V30 1832 C 180.776 -0.053869 -1.73917 0
M  V30 1833 O 181.952 -0.261012 -1.99702 0
M  V30 1834 C 179.017 -0.776768 -3.37886 0
M  V30 1835 C 178.078 -1.92878 -3.83532 0
M  V30 1836 C 177.311 -1.59739 -5.09234 0
M  V30 1837 O 177.534 -0.506782 -5.68144 0
M  V30 1838 O 176.468 -2.43761 -5.50331 0
M  V30 1839 H 180.294 -2.07671 -2.21599 0
M  V30 1840 H 177.879 -1.06857 -1.04413 0
M  V30 1841 H 179.761 -0.596229 -4.17161 0
M  V30 1842 H 178.436 0.145732 -3.23372 0
M  V30 1843 H 177.343 -2.1644 -3.0513 0
M  V30 1844 H 178.676 -2.8316 -4.02593 0
M  V30 1845 N 180.328 1.1314 -1.09713 0
M  V30 1846 C 181.258 2.20748 -0.761102 0
M  V30 1847 C 182.239 1.68061 0.262566 0
M  V30 1848 O 183.424 1.93765 0.129977 0
M  V30 1849 C 180.554 3.46812 -0.184054 0
M  V30 1850 C 179.508 4.12606 -1.13757 0
M  V30 1851 C 178.834 5.33031 -0.422083 0
M  V30 1852 C 180.134 4.59603 -2.48118 0
M  V30 1853 H 181.828 2.49113 -1.66082 0
M  V30 1854 H 179.374 1.19734 -0.799987 0
M  V30 1855 H 181.327 4.21353 0.0631215 0
M  V30 1856 H 180.051 3.17851 0.750868 0
M  V30 1857 H 178.71 3.40036 -1.37007 0
M  V30 1858 H 178.358 5.00335 0.517072 0
M  V30 1859 H 178.058 5.77999 -1.05788 0
M  V30 1860 H 179.582 6.10325 -0.183277 0
M  V30 1861 H 180.996 5.25552 -2.29059 0
M  V30 1862 H 179.393 5.15321 -3.07514 0
M  V30 1863 H 180.463 3.73971 -3.08665 0
M  V30 1864 N 181.806 0.884767 1.30421 0
M  V30 1865 C 183.217 0.553656 1.78302 0
M  V30 1866 C 183.568 -0.930153 1.7275 0
M  V30 1867 O 182.693 -1.72681 1.30423 0
M  V30 1868 C 183.288 0.998234 3.2376 0
M  V30 1869 C 181.847 0.71854 3.69478 0
M  V30 1870 C 180.994 1.18132 2.50879 0
M  V30 1871 H 183.945 1.06901 1.17294 0
M  V30 1872 H 183.966 0.327118 3.79091 0
M  V30 1873 H 183.478 2.0782 3.27769 0
M  V30 1874 H 181.579 -0.349444 3.70958 0
M  V30 1875 H 181.692 1.30595 4.60958 0
M  V30 1876 H 180.056 0.600669 2.47516 0
M  V30 1877 H 180.839 2.26902 2.57624 0
M  V30 1878 N 183.284 -1.43765 0.645699 0
M  V30 1879 C 184.532 -2.01499 0.155731 0
M  V30 1880 C 184.853 -1.51151 -1.232 0
M  V30 1881 O 184.123 -0.721044 -1.82148 0
M  V30 1882 H 182.703 -0.745003 0.0545817 0
M  V30 1883 H 185.365 -1.76075 0.835677 0
M  V30 1884 H 184.461 -3.1181 0.134577 0
M  V30 1885 N 184.763 -0.387143 -1.52771 0
M  V30 1886 C 185.693 0.440551 -2.29306 0
M  V30 1887 C 186.674 1.06535 -1.32606 0
M  V30 1888 O 187.859 1.07853 -1.61497 0
M  V30 1889 C 184.989 1.56919 -3.09829 0
M  V30 1890 C 183.943 1.07054 -4.14395 0
M  V30 1891 C 183.269 2.29109 -4.83129 0
M  V30 1892 C 184.569 0.140015 -5.22112 0
M  V30 1893 H 186.263 -0.198026 -2.98744 0
M  V30 1894 H 183.809 -0.09668 -1.43675 0
M  V30 1895 H 185.762 2.15503 -3.62128 0
M  V30 1896 H 184.486 2.23532 -2.3812 0
M  V30 1897 H 183.145 0.507247 -3.63074 0
M  V30 1898 H 182.793 2.94227 -4.0797 0
M  V30 1899 H 182.493 1.96406 -5.53804 0
M  V30 1900 H 184.017 2.88339 -5.38231 0
M  V30 1901 H 185.431 0.633978 -5.69784 0
M  V30 1902 H 183.828 -0.0971485 -6.00021 0
M  V30 1903 H 184.898 -0.811711 -4.78058 0
M  V30 1904 N 186.241 1.57166 -0.116904 0
M  V30 1905 C 187.49 1.94298 0.541407 0
M  V30 1906 C 187.803 1.00236 1.67964 0
M  V30 1907 O 189.009 1.26826 2.40057 0
M  V30 1908 C 187.465 3.45306 1.01449 0
M  V30 1909 C 187.073 4.47899 -0.0951738 0
M  V30 1910 C 188.817 3.91361 1.6443 0
M  V30 1911 C 186.724 5.90083 0.394491 0
M  V30 1912 H 185.654 0.725308 0.206019 0
M  V30 1913 H 188.305 1.82446 -0.196419 0
M  V30 1914 H 186.687 3.52385 1.80667 0
M  V30 1915 H 187.861 4.52486 -0.871374 0
M  V30 1916 H 186.176 4.11583 -0.631505 0
M  V30 1917 H 188.773 4.95004 2.02176 0
M  V30 1918 H 189.116 3.3122 2.52189 0
M  V30 1919 H 189.649 3.87073 0.917559 0
M  V30 1920 H 186.388 6.53974 -0.447004 0
M  V30 1921 H 185.908 5.88921 1.13722 0
M  V30 1922 H 187.587 6.41307 0.856399 0
M  V30 1923 N 187.719 -0.156864 1.56817 0
M  V30 1924 C 188.682 -1.17781 1.96622 0
M  V30 1925 C 189.682 -1.36401 0.851555 0
M  V30 1926 O 190.872 -1.33561 1.11836 0
M  V30 1927 C 188.004 -2.54008 2.27361 0
M  V30 1928 H 189.197 -0.836564 2.87996 0
M  V30 1929 H 186.75 -0.39985 1.51099 0
M  V30 1930 H 187.485 -2.9312 1.38748 0
M  V30 1931 H 187.27 -2.41856 3.08623 0
M  V30 1932 H 188.76 -3.27558 2.59029 0
M  V30 1933 N 189.197 -1.51736 -0.425897 0
M  V30 1934 C 190.474 -1.55519 -1.1863 0
M  V30 1935 C 190.854 -0.326219 -2.08564 0
M  V30 1936 O 190.202 0.688012 -2.17896 0
M  V30 1937 C 190.412 -2.87521 -1.9782 0
M  V30 1938 C 191.76 -3.39899 -2.54468 0
M  V30 1939 O 192.784 -2.89148 -2.08019 0
M  V30 1940 O 191.643 -4.2848 -3.39215 0
M  V30 1941 H 188.737 -0.625739 -0.540721 0
M  V30 1942 H 191.283 -1.64055 -0.434038 0
M  V30 1943 H 190.055 -3.68422 -1.31836 0
M  V30 1944 H 189.678 -2.822 -2.80088 0
M  V30 1945 N 190.675 0.682077 -1.42076 0
M  V30 1946 C 191.923 1.4393 -1.41876 0
M  V30 1947 C 192.244 1.94971 -0.0335599 0
M  V30 1948 O 191.514 1.72591 0.926773 0
M  V30 1949 H 190.094 0.534085 -0.522267 0
M  V30 1950 H 192.756 0.806427 -1.77434 0
M  V30 1951 H 191.852 2.29588 -2.11414 0
M  V30 1952 N 192.153 1.28127 0.917671 0
M  V30 1953 C 193.569 1.05749 1.19538 0
M  V30 1954 C 193.769 -0.202633 2.00479 0
M  V30 1955 O 192.825 -0.905382 2.3571 0
M  V30 1956 C 194.138 2.30273 1.93378 0
M  V30 1957 C 195.686 2.35412 2.06277 0
M  V30 1958 C 196.161 3.59692 2.83524 0
M  V30 1959 N 197.652 3.60309 2.91087 0
M  V30 1960 C 198.387 4.53147 3.51348 0
M  V30 1961 N 197.883 5.563 4.12919 0
M  V30 1962 N 199.676 4.40751 3.48849 0
M  V30 1963 H 191.827 2.09024 0.377184 0
M  V30 1964 H 194.09 0.919798 0.22951 0
M  V30 1965 H 193.796 3.22055 1.41328 0
M  V30 1966 H 193.67 2.36378 2.93947 0
M  V30 1967 H 196.057 1.4413 2.57508 0
M  V30 1968 H 196.138 2.33304 1.04895 0
M  V30 1969 H 195.782 4.51316 2.32973 0
M  V30 1970 H 195.712 3.59054 3.85211 0
M  V30 1971 H 198.203 2.85714 2.47338 0
M  V30 1972 H 198.516 6.2329 4.56869 0
M  V30 1973 H 196.861 5.60131 4.11435 0
M  V30 1974 H 200.052 3.59367 2.99955 0
M  V30 1975 H 200.225 5.13291 3.9552 0
M  V30 1976 N 193.631 -1.12557 1.10312 0
M  V30 1977 C 194.908 -1.80363 0.756878 0
M  V30 1978 C 195.288 -1.97067 -0.756824 0
M  V30 1979 O 194.636 -1.54601 -1.68259 0
M  V30 1980 C 194.846 -3.14812 1.50647 0
M  V30 1981 C 196.194 -3.90029 1.67817 0
M  V30 1982 O 197.218 -3.24464 1.46974 0
M  V30 1983 O 196.077 -5.07652 2.02365 0
M  V30 1984 H 193.171 -0.780667 0.272926 0
M  V30 1985 H 195.717 -1.19404 1.20586 0
M  V30 1986 H 194.489 -2.97936 2.53672 0
M  V30 1987 H 194.112 -3.83478 1.05026 0
M  V30 1988 N 195.109 -0.891671 -1.2995 0
M  V30 1989 C 196.042 -0.307994 -2.26112 0
M  V30 1990 C 197.02 0.575262 -1.52084 0
M  V30 1991 O 198.204 0.523864 -1.81074 0
M  V30 1992 C 195.331 0.561734 -3.34009 0
M  V30 1993 C 194.377 -0.253107 -4.25748 0
M  V30 1994 S 195.21 -1.64572 -5.09584 0
M  V30 1995 C 196.366 -0.782699 -6.20987 0
M  V30 1996 H 196.599 -1.12309 -2.75271 0
M  V30 1997 H 194.132 -0.691509 -1.38049 0
M  V30 1998 H 196.09 1.05777 -3.96638 0
M  V30 1999 H 194.751 1.35099 -2.83561 0
M  V30 2000 H 193.944 0.410908 -5.02322 0
M  V30 2001 H 193.546 -0.682004 -3.67729 0
M  V30 2002 H 195.838 -0.00257476 -6.775 0
M  V30 2003 H 196.781 -1.52026 -6.91588 0
M  V30 2004 H 197.189 -0.340638 -5.63471 0
M  V30 2005 N 196.587 1.43421 -0.653314 0
M  V30 2006 C 197.835 2.01414 -0.166415 0
M  V30 2007 C 198.156 1.51803 1.22397 0
M  V30 2008 O 197.426 0.730693 1.81763 0
M  V30 2009 H 196.006 0.744703 -0.0585319 0
M  V30 2010 H 198.668 1.75629 -0.845003 0
M  V30 2011 H 197.764 3.11734 -0.151111 0
M  V30 2012 N 198.065 0.39524 1.52563 0
M  V30 2013 C 199.293 -0.184943 2.06072 0
M  V30 2014 C 199.708 -1.40021 1.26647 0
M  V30 2015 O 199.065 -1.79767 0.314672 0
M  V30 2016 C 199.116 -0.549179 3.57304 0
M  V30 2017 O 198.837 0.617813 4.33722 0
M  V30 2018 C 200.338 -1.18459 4.2718 0
M  V30 2019 H 197.558 -0.0265025 0.670476 0
M  V30 2020 H 200.102 0.562184 1.96621 0
M  V30 2021 H 198.257 -1.2462 3.66809 0
M  V30 2022 H 198.671 0.317091 5.23541 0
M  V30 2023 H 200.145 -1.38976 5.34219 0
M  V30 2024 H 200.622 -2.15368 3.82771 0
M  V30 2025 H 201.228 -0.528163 4.22008 0
M  V30 2026 N 199.544 -1.57102 0.125237 0
M  V30 2027 C 200.79 -1.95697 -0.532035 0
M  V30 2028 C 201.123 -1.009 -1.6593 0
M  V30 2029 O 200.398 -0.047347 -1.94442 0
M  V30 2030 C 200.681 -3.44181 -1.05884 0
M  V30 2031 C 200.534 -4.49752 0.0654392 0
M  V30 2032 C 201.853 -3.94655 -1.9477 0
M  V30 2033 H 198.972 -0.711571 -0.191925 0
M  V30 2034 H 201.614 -1.88923 0.20206 0
M  V30 2035 H 199.764 -3.50085 -1.68442 0
M  V30 2036 H 201.436 -4.55943 0.700982 0
M  V30 2037 H 199.679 -4.27653 0.727709 0
M  V30 2038 H 200.35 -5.50924 -0.344505 0
M  V30 2039 H 202.826 -3.91094 -1.42074 0
M  V30 2040 H 201.702 -4.99057 -2.28546 0
M  V30 2041 H 201.963 -3.35718 -2.87656 0
M  V30 2042 N 201.022 0.148545 -1.56898 0
M  V30 2043 C 202.268 0.862694 -1.83536 0
M  V30 2044 C 202.601 1.80889 -0.706604 0
M  V30 2045 O 201.876 1.92328 0.289885 0
M  V30 2046 C 202.159 1.63853 -3.20662 0
M  V30 2047 C 202.012 0.713925 -4.44098 0
M  V30 2048 C 203.331 2.60133 -3.54991 0
M  V30 2049 H 200.45 0.312179 -0.667618 0
M  V30 2050 H 203.092 0.127953 -1.89569 0
M  V30 2051 H 201.242 2.26489 -3.1565 0
M  V30 2052 H 202.914 0.098686 -4.61194 0
M  V30 2053 H 201.157 0.0234019 -4.33794 0
M  V30 2054 H 201.828 1.29278 -5.36648 0
M  V30 2055 H 204.304 2.07616 -3.60603 0
M  V30 2056 H 203.18 3.11468 -4.51972 0
M  V30 2057 H 203.441 3.41417 -2.80868 0
M  V30 2058 N 202.5 1.5196 0.417844 0
M  V30 2059 C 203.747 1.65591 1.16559 0
M  V30 2060 C 204.075 0.381565 1.90721 0
M  V30 2061 O 203.33 -0.635156 1.85106 0
M  V30 2062 C 203.629 2.82269 2.19223 0
M  V30 2063 C 203.295 4.20819 1.61933 0
M  V30 2064 C 201.957 4.58506 1.46033 0
M  V30 2065 C 204.309 5.07196 1.20008 0
M  V30 2066 C 201.637 5.80257 0.867113 0
M  V30 2067 C 203.989 6.29544 0.621086 0
M  V30 2068 C 202.653 6.65987 0.449144 0
M  V30 2069 H 201.923 0.605939 0.42652 0
M  V30 2070 H 204.57 1.86041 0.45397 0
M  V30 2071 H 202.875 2.56118 2.96498 0
M  V30 2072 H 204.572 2.90012 2.76936 0
M  V30 2073 H 201.162 3.91116 1.7529 0
M  V30 2074 H 205.346 4.7867 1.31105 0
M  V30 2075 H 200.602 6.07124 0.721833 0
M  V30 2076 H 204.776 6.95805 0.287798 0
M  V30 2077 H 202.403 7.60199 -0.012632 0
M  V30 2078 N 203.978 -0.674533 1.42435 0
M  V30 2079 C 205.389 -1.25514 1.38214 0
M  V30 2080 C 205.74 -1.96055 0.0755464 0
M  V30 2081 O 204.865 -2.00028 -0.8257 0
M  V30 2082 C 205.46 -2.28269 2.50357 0
M  V30 2083 C 204.019 -2.81856 2.49467 0
M  V30 2084 C 203.166 -1.56182 2.29134 0
M  V30 2085 H 206.117 -0.467902 1.51646 0
M  V30 2086 H 206.138 -3.10009 2.20624 0
M  V30 2087 H 205.65 -1.769 3.45439 0
M  V30 2088 H 203.751 -3.37346 1.58204 0
M  V30 2089 H 203.864 -3.30854 3.46515 0
M  V30 2090 H 202.228 -1.82761 1.774 0
M  V30 2091 H 203.011 -1.06778 3.26272 0
M  V30 2092 N 205.456 -1.28612 -0.910864 0
M  V30 2093 C 206.733 -1.06632 -1.63979 0
M  V30 2094 C 207.113 0.393351 -2.07403 0
M  V30 2095 O 206.461 1.37999 -1.82122 0
M  V30 2096 C 206.671 -2.0436 -2.8291 0
M  V30 2097 C 208.019 -2.34666 -3.5386 0
M  V30 2098 O 209.043 -2.02467 -2.93062 0
M  V30 2099 O 207.902 -2.89631 -4.63439 0
M  V30 2100 H 204.996 -0.407737 -0.7195 0
M  V30 2101 H 207.542 -1.39942 -0.959914 0
M  V30 2102 H 206.314 -3.02727 -2.47936 0
M  V30 2103 H 205.937 -1.71714 -3.58609 0
M  V30 2104 N 206.934 1.1197 -1.10907 0
M  V30 2105 C 207.897 2.16031 -0.765707 0
M  V30 2106 C 208.897 1.59393 0.212235 0
M  V30 2107 O 210.087 1.74196 -0.0115441 0
M  V30 2108 C 207.219 3.40632 -0.135053 0
M  V30 2109 H 208.412 2.47919 -1.68748 0
M  V30 2110 H 205.965 1.27061 -0.910226 0
M  V30 2111 H 206.7 3.14348 0.797218 0
M  V30 2112 H 206.485 3.8302 -0.838937 0
M  V30 2113 H 207.975 4.17505 0.0892469 0
M  V30 2114 N 208.412 0.89855 1.29475 0
M  V30 2115 C 209.823 0.572537 1.77705 0
M  V30 2116 C 210.174 -0.911778 1.73727 0
M  V30 2117 O 209.299 -1.71288 1.32247 0
M  V30 2118 C 209.894 1.03252 3.22683 0
M  V30 2119 C 208.453 0.757687 3.68695 0
M  V30 2120 C 207.6 1.20787 2.49612 0
M  V30 2121 H 210.551 1.08139 1.16153 0
M  V30 2122 H 210.572 0.367307 3.78723 0
M  V30 2123 H 210.084 2.11285 3.25546 0
M  V30 2124 H 208.185 -0.310079 3.71308 0
M  V30 2125 H 208.298 1.35476 4.59547 0
M  V30 2126 H 206.662 0.626888 2.46865 0
M  V30 2127 H 207.445 2.29622 2.55203 0
M  V30 2128 N 209.89 -1.43072 0.660911 0
M  V30 2129 C 211.136 -2.0202 0.177708 0
M  V30 2130 C 211.469 -1.52066 -1.20787 0
M  V30 2131 O 210.744 -0.716987 -1.80802 0
M  V30 2132 C 211.027 -3.59561 0.197019 0
M  V30 2133 C 210.88 -4.19727 1.61706 0
M  V30 2134 C 212.199 -4.37664 -0.462396 0
M  V30 2135 H 209.318 -0.734034 0.0660494 0
M  V30 2136 H 211.96 -1.70272 0.843058 0
M  V30 2137 H 210.11 -3.86739 -0.369527 0
M  V30 2138 H 211.782 -4.03553 2.23479 0
M  V30 2139 H 210.025 -3.76084 2.16201 0
M  V30 2140 H 210.696 -5.28834 1.58237 0
M  V30 2141 H 213.172 -4.16095 0.0197215 0
M  V30 2142 H 212.048 -5.47305 -0.418188 0
M  V30 2143 H 212.309 -4.14493 -1.53778 0
M  V30 2144 N 211.368 -0.403325 -1.52352 0
M  V30 2145 C 212.315 0.425011 -2.26853 0
M  V30 2146 C 213.285 1.04598 -1.29029 0
M  V30 2147 O 214.47 1.07135 -1.57882 0
M  V30 2148 C 211.61 1.53888 -3.08889 0
M  V30 2149 C 210.723 0.939396 -4.21663 0
M  V30 2150 C 209.858 2.02547 -4.91068 0
M  V30 2151 C 208.897 1.40263 -5.95813 0
M  V30 2152 N 208.034 2.4286 -6.58759 0
M  V30 2153 H 212.874 -0.21674 -2.97211 0
M  V30 2154 H 210.411 -0.118722 -1.4662 0
M  V30 2155 H 212.369 2.19558 -3.54753 0
M  V30 2156 H 210.999 2.15074 -2.40714 0
M  V30 2157 H 210.051 0.171898 -3.80011 0
M  V30 2158 H 211.363 0.44436 -4.96817 0
M  V30 2159 H 210.517 2.75958 -5.40308 0
M  V30 2160 H 209.256 2.55415 -4.15469 0
M  V30 2161 H 208.261 0.653833 -5.45898 0
M  V30 2162 H 209.486 0.881719 -6.73352 0
M  V30 2163 H 207.432 2.94871 -5.85992 0
M  V30 2164 H 207.349 1.98152 -7.2957 0
M  V30 2165 H 208.617 3.15858 -7.12639 0
M  V30 2166 N 212.846 1.57033 -0.133567 0
M  V30 2167 C 214.095 1.94861 0.520768 0
M  V30 2168 C 214.408 1.02012 1.66892 0
M  V30 2169 O 215.614 1.29365 2.38699 0
M  V30 2170 C 214.07 3.46362 0.977809 0
M  V30 2171 C 213.678 4.47773 -0.142674 0
M  V30 2172 C 215.422 3.93083 1.60269 0
M  V30 2173 C 213.329 5.90468 0.331883 0
M  V30 2174 H 212.259 0.727453 0.198315 0
M  V30 2175 H 214.91 1.82227 -0.215759 0
M  V30 2176 H 213.292 3.54282 1.7692 0
M  V30 2177 H 214.466 4.51536 -0.919317 0
M  V30 2178 H 212.781 4.10891 -0.675124 0
M  V30 2179 H 215.378 4.97121 1.96914 0
M  V30 2180 H 215.721 3.33876 2.48662 0
M  V30 2181 H 216.254 3.88025 0.876453 0
M  V30 2182 H 212.993 6.53463 -0.516341 0
M  V30 2183 H 212.513 5.90094 1.07469 0
M  V30 2184 H 214.192 6.42179 0.788332 0
M  V30 2185 N 214.325 -0.140222 1.56975 0
M  V30 2186 C 215.572 -0.851687 1.83719 0
M  V30 2187 C 215.9 -1.80862 0.715485 0
M  V30 2188 O 215.155 -1.93464 -0.294956 0
M  V30 2189 C 215.454 -1.65386 3.16832 0
M  V30 2190 C 215.12 -0.843112 4.42947 0
M  V30 2191 C 213.782 -0.619464 4.77196 0
M  V30 2192 C 216.134 -0.276582 5.20466 0
M  V30 2193 C 213.462 0.181312 5.8642 0
M  V30 2194 C 215.814 0.51127 6.30531 0
M  V30 2195 C 214.478 0.745432 6.63325 0
M  V30 2196 H 213.748 -0.311654 0.672274 0
M  V30 2197 H 216.395 -0.115006 1.91154 0
M  V30 2198 H 214.7 -2.46084 3.04877 0
M  V30 2199 H 216.397 -2.20793 3.34741 0
M  V30 2200 H 212.987 -1.0275 4.16101 0
M  V30 2201 H 217.171 -0.436632 4.94376 0
M  V30 2202 H 212.427 0.372165 6.10266 0
M  V30 2203 H 216.601 0.957354 6.89788 0
M  V30 2204 H 214.228 1.36778 7.47794 0
M  V30 2205 N 215.803 -1.52179 -0.40978 0
M  V30 2206 C 216.733 -1.78435 -1.5061 0
M  V30 2207 C 217.714 -0.635295 -1.57791 0
M  V30 2208 O 218.899 -0.880823 -1.73076 0
M  V30 2209 C 216.029 -1.93444 -2.88439 0
M  V30 2210 C 214.983 -3.09038 -2.96108 0
M  V30 2211 C 214.309 -3.09268 -4.36185 0
M  V30 2212 C 215.609 -4.48508 -2.67652 0
M  V30 2213 H 217.303 -2.70237 -1.28889 0
M  V30 2214 H 214.849 -1.30036 -0.618605 0
M  V30 2215 H 216.802 -2.10394 -3.65119 0
M  V30 2216 H 215.526 -0.983129 -3.11452 0
M  V30 2217 H 214.185 -2.91837 -2.21872 0
M  V30 2218 H 213.833 -2.11861 -4.56206 0
M  V30 2219 H 213.533 -3.86907 -4.42241 0
M  V30 2220 H 215.057 -3.28348 -5.14801 0
M  V30 2221 H 216.471 -4.65918 -3.34056 0
M  V30 2222 H 214.868 -5.28059 -2.85085 0
M  V30 2223 H 215.938 -4.56649 -1.63095 0
M  V30 2224 N 217.281 0.66697 -1.42791 0
M  V30 2225 C 218.558 1.4234 -1.34159 0
M  V30 2226 C 218.938 2.11093 0.0172729 0
M  V30 2227 O 218.286 2.03808 1.03318 0
M  V30 2228 C 218.496 2.41942 -2.51526 0
M  V30 2229 C 219.844 3.06353 -2.93995 0
M  V30 2230 O 220.868 2.52269 -2.51473 0
M  V30 2231 O 219.727 4.04376 -3.67617 0
M  V30 2232 H 216.821 0.635277 -0.529483 0
M  V30 2233 H 219.367 0.695034 -1.54814 0
M  V30 2234 H 218.139 1.89991 -3.42081 0
M  V30 2235 H 217.762 3.22249 -2.32898 0
M  V30 2236 N 218.759 1.29093 0.90403 0
M  V30 2237 C 219.722 1.1386 1.98919 0
M  V30 2238 C 220.722 0.0753457 1.60623 0
M  V30 2239 O 221.912 0.321931 1.71199 0
M  V30 2240 C 219.044 0.740198 3.32767 0
M  V30 2241 H 220.237 2.10246 2.13861 0
M  V30 2242 H 217.79 1.12218 1.08797 0
M  V30 2243 H 218.525 -0.223997 3.23525 0
M  V30 2244 H 218.31 1.50838 3.61926 0
M  V30 2245 H 219.8 0.656546 4.12407 0
M  V30 2246 N 220.237 -1.11381 1.11499 0
M  V30 2247 C 221.462 -1.87475 0.887019 0
M  V30 2248 C 221.887 -1.79639 -0.557796 0
M  V30 2249 O 221.245 -1.15924 -1.39396 0
M  V30 2250 C 221.293 -3.34213 1.35403 0
M  V30 2251 O 220.397 -4.0903 0.526146 0
M  V30 2252 H 219.738 -0.582099 0.319463 0
M  V30 2253 H 222.268 -1.40785 1.48461 0
M  V30 2254 H 222.278 -3.8506 1.34881 0
M  V30 2255 H 220.953 -3.39232 2.40612 0
M  V30 2256 H 219.53 -3.68082 0.597522 0
M  V30 2257 N 221.715 -0.905404 -1.28997 0
M  V30 2258 C 222.94 -0.549175 -1.99997 0
M  V30 2259 C 223.365 0.860276 -1.67275 0
M  V30 2260 O 222.723 1.57355 -0.900502 0
M  V30 2261 C 222.771 -0.755185 -3.52604 0
M  V30 2262 O 221.875 0.189692 -4.11964 0
M  V30 2263 H 221.216 -0.213899 -0.628604 0
M  V30 2264 H 223.746 -1.21856 -1.64354 0
M  V30 2265 H 223.756 -0.662045 -4.02593 0
M  V30 2266 H 222.431 -1.78271 -3.75755 0
M  V30 2267 H 221.008 0.0485257 -3.72868 0
M  V30 2268 N 223.193 1.4272 -0.668489 0
M  V30 2269 C 224.103 2.34596 0.0139753 0
M  V30 2270 C 225.119 1.5474 0.795703 0
M  V30 2271 O 226.295 1.87334 0.739466 0
M  V30 2272 C 223.36 3.33202 0.957982 0
M  V30 2273 C 222.421 4.28957 0.17149 0
M  V30 2274 C 221.654 5.22853 1.07053 0
M  V30 2275 O 221.877 5.21531 2.31001 0
M  V30 2276 O 220.811 5.9952 0.534727 0
M  V30 2277 H 224.637 2.9448 -0.742661 0
M  V30 2278 H 222.222 1.43117 -0.428705 0
M  V30 2279 H 224.104 3.93796 1.50008 0
M  V30 2280 H 222.779 2.758 1.69458 0
M  V30 2281 H 221.686 3.71796 -0.414558 0
M  V30 2282 H 223.019 4.89383 -0.52586 0
M  V30 2283 N 224.671 0.411399 1.52136 0
M  V30 2284 C 225.581 -0.419774 2.30814 0
M  V30 2285 C 226.597 -1.0515 1.38634 0
M  V30 2286 O 227.773 -1.05252 1.71709 0
M  V30 2287 C 224.838 -1.52019 3.11594 0
M  V30 2288 C 223.899 -0.91129 4.19516 0
M  V30 2289 C 223.132 -1.95927 4.96436 0
M  V30 2290 O 223.355 -3.17775 4.73683 0
M  V30 2291 O 222.289 -1.56423 5.81219 0
M  V30 2292 H 226.115 0.221805 3.02889 0
M  V30 2293 H 223.7 0.174547 1.48377 0
M  V30 2294 H 225.582 -2.15898 3.61892 0
M  V30 2295 H 224.257 -2.14633 2.42311 0
M  V30 2296 H 223.164 -0.235157 3.7336 0
M  V30 2297 H 224.497 -0.32904 4.91099 0
M  V30 2298 N 226.149 -1.5696 0.141893 0
M  V30 2299 C 227.565 -1.58151 -0.21456 0
M  V30 2300 C 227.765 -1.1559 -1.65049 0
M  V30 2301 O 226.821 -0.853832 -2.37626 0
M  V30 2302 C 228.134 -3.00674 0.0395576 0
M  V30 2303 C 229.682 -3.1299 -0.0245529 0
M  V30 2304 C 230.157 -4.57554 0.202167 0
M  V30 2305 N 231.648 -4.62961 0.148919 0
M  V30 2306 C 232.383 -5.7262 0.298924 0
M  V30 2307 N 231.879 -6.90947 0.50637 0
M  V30 2308 N 233.672 -5.61601 0.236886 0
M  V30 2309 H 225.823 -1.8292 1.07953 0
M  V30 2310 H 228.086 -0.846425 0.42693 0
M  V30 2311 H 227.792 -3.36183 1.03315 0
M  V30 2312 H 227.666 -3.70981 -0.682143 0
M  V30 2313 H 230.053 -2.77326 -1.00869 0
M  V30 2314 H 230.134 -2.4518 0.729396 0
M  V30 2315 H 229.778 -4.93922 1.18338 0
M  V30 2316 H 229.708 -5.23484 -0.572044 0
M  V30 2317 H 232.199 -3.77899 -0.00697015 0
M  V30 2318 H 232.512 -7.7038 0.611076 0
M  V30 2319 H 230.857 -6.92878 0.542628 0
M  V30 2320 H 234.048 -4.68039 0.0756209 0
M  V30 2321 H 234.221 -6.47015 0.357227 0
M  V30 2322 N 227.627 0.131896 -1.57047 0
M  V30 2323 C 228.59 1.14638 -1.98471 0
M  V30 2324 C 229.59 1.35029 -0.873148 0
M  V30 2325 O 230.78 1.31764 -1.13946 0
M  V30 2326 C 227.912 2.50358 -2.31373 0
M  V30 2327 H 229.105 0.79064 -2.8929 0
M  V30 2328 H 226.658 0.375761 -1.51716 0
M  V30 2329 H 227.393 2.90876 -1.43393 0
M  V30 2330 H 227.178 2.36915 -3.12432 0
M  V30 2331 H 228.668 3.23395 -2.64207 0
M  V30 2332 N 229.106 1.52395 0.401703 0
M  V30 2333 C 230.056 1.72649 1.48917 0
M  V30 2334 C 231.04 0.580436 1.50066 0
M  V30 2335 O 232.232 0.83779 1.55917 0
M  V30 2336 C 229.361 1.88729 2.86769 0
M  V30 2337 C 228.447 3.09228 2.90239 0
M  V30 2338 N 228.838 4.31805 2.63396 0
M  V30 2339 C 227.136 3.09214 3.21408 0
M  V30 2340 C 227.837 5.13326 2.73625 0
M  V30 2341 N 226.813 4.48735 3.06819 0
M  V30 2342 H 230.615 2.65058 1.26971 0
M  V30 2343 H 228.129 1.50528 0.609504 0
M  V30 2344 H 230.126 2.01358 3.65049 0
M  V30 2345 H 228.786 0.975252 3.09708 0
M  V30 2346 H 229.797 4.60154 2.37653 0
M  V30 2347 H 226.474 2.27774 3.49893 0
M  V30 2348 H 227.864 6.21003 2.56524 0
M  V30 2349 N 230.584 -0.659388 1.43143 0
M  V30 2350 C 232 -0.974337 1.26407 0
M  V30 2351 C 232.2 -2.007 0.179341 0
M  V30 2352 O 231.256 -2.4856 -0.444295 0
M  V30 2353 C 232.569 -1.46447 2.62628 0
M  V30 2354 C 234.117 -1.58144 2.7011 0
M  V30 2355 C 234.592 -2.1055 4.06734 0
M  V30 2356 N 236.083 -2.17861 4.08767 0
M  V30 2357 C 236.818 -2.59519 5.1131 0
M  V30 2358 N 236.314 -3.00518 6.24228 0
M  V30 2359 N 238.107 -2.59404 4.98664 0
M  V30 2360 H 230.258 0.0240528 2.12386 0
M  V30 2361 H 232.521 -0.0518065 0.946583 0
M  V30 2362 H 232.227 -0.780123 3.42939 0
M  V30 2363 H 232.101 -2.44058 2.87603 0
M  V30 2364 H 234.488 -2.25682 1.90136 0
M  V30 2365 H 234.569 -0.589828 2.48907 0
M  V30 2366 H 234.213 -1.43616 4.87172 0
M  V30 2367 H 234.143 -3.10531 4.25298 0
M  V30 2368 H 236.634 -1.88975 3.27257 0
M  V30 2369 H 236.947 -3.31036 6.98309 0
M  V30 2370 H 235.292 -2.98337 6.2771 0
M  V30 2371 H 238.483 -2.26747 4.09516 0
M  V30 2372 H 238.656 -2.91548 5.78709 0
M  V30 2373 N 232.062 -1.29571 -0.897171 0
M  V30 2374 C 233.478 -1.07637 -1.17841 0
M  V30 2375 C 233.678 0.170713 -2.00776 0
M  V30 2376 O 232.734 0.867768 -2.3712 0
M  V30 2377 C 234.047 -2.3332 -1.8969 0
M  V30 2378 C 235.595 -2.38664 -2.02505 0
M  V30 2379 C 236.07 -3.64157 -2.77765 0
M  V30 2380 N 237.561 -3.64894 -2.85318 0
M  V30 2381 C 238.296 -4.58679 -3.44094 0
M  V30 2382 N 237.792 -5.62799 -4.04017 0
M  V30 2383 N 239.585 -4.46245 -3.41793 0
M  V30 2384 H 231.736 -2.09598 -0.343883 0
M  V30 2385 H 233.999 -0.923333 -0.214848 0
M  V30 2386 H 233.705 -3.24262 -1.36187 0
M  V30 2387 H 233.579 -2.41025 -2.9015 0
M  V30 2388 H 235.966 -1.48208 -2.55183 0
M  V30 2389 H 236.047 -2.34943 -1.01171 0
M  V30 2390 H 235.691 -4.54965 -2.25763 0
M  V30 2391 H 235.621 -3.65137 -3.7945 0
M  V30 2392 H 238.112 -2.89613 -2.42761 0
M  V30 2393 H 238.425 -6.3048 -4.46895 0
M  V30 2394 H 236.77 -5.66605 -4.02472 0
M  V30 2395 H 239.961 -3.64094 -2.94199 0
M  V30 2396 H 240.134 -5.19518 -3.87304 0
M  V30 2397 N 233.54 1.10788 -1.12088 0
M  V30 2398 C 234.473 2.16237 -0.729168 0
M  V30 2399 C 235.451 1.60207 0.277921 0
M  V30 2400 O 236.635 1.87707 0.172737 0
M  V30 2401 C 233.762 3.38609 -0.0786848 0
M  V30 2402 C 232.808 4.13322 -1.05201 0
M  V30 2403 S 233.641 4.69371 -2.57781 0
M  V30 2404 C 234.797 5.95058 -1.94053 0
M  V30 2405 H 235.03 2.4913 -1.62239 0
M  V30 2406 H 232.563 1.22519 -0.939603 0
M  V30 2407 H 234.521 4.09473 0.290254 0
M  V30 2408 H 233.182 3.03962 0.791593 0
M  V30 2409 H 232.375 5.01051 -0.544433 0
M  V30 2410 H 231.977 3.48251 -1.36371 0
M  V30 2411 H 234.269 6.65278 -1.28107 0
M  V30 2412 H 235.212 6.50472 -2.79807 0
M  V30 2413 H 235.62 5.46918 -1.39787 0
M  V30 2414 N 235.018 0.912232 1.28515 0
M  V30 2415 C 235.948 0.416403 2.29757 0
M  V30 2416 C 236.929 -0.515194 1.6211 0
M  V30 2417 O 238.114 -0.423253 1.89532 0
M  V30 2418 C 235.244 -0.34572 3.45575 0
M  V30 2419 C 234.198 0.496599 4.25109 0
M  V30 2420 C 233.524 -0.393771 5.33248 0
M  V30 2421 C 234.824 1.75307 4.92001 0
M  V30 2422 H 236.518 1.26249 2.7148 0
M  V30 2423 H 234.064 0.608515 1.30511 0
M  V30 2424 H 236.017 -0.703422 4.15488 0
M  V30 2425 H 234.741 -1.2257 3.02728 0
M  V30 2426 H 233.4 0.8368 3.56922 0
M  V30 2427 H 233.048 -1.27225 4.86644 0
M  V30 2428 H 232.748 0.166209 5.87365 0
M  V30 2429 H 234.272 -0.747389 6.06009 0
M  V30 2430 H 235.686 1.46437 5.54283 0
M  V30 2431 H 234.083 2.25534 5.56106 0
M  V30 2432 H 235.153 2.48176 4.16577 0
M  V30 2433 N 236.496 -1.42363 0.676048 0
M  V30 2434 C 237.428 -2.29164 -0.0404605 0
M  V30 2435 C 238.441 -1.43747 -0.764245 0
M  V30 2436 O 239.63 -1.67453 -0.618195 0
M  V30 2437 C 236.73 -3.21196 -1.08103 0
M  V30 2438 C 235.903 -4.35273 -0.430812 0
M  V30 2439 C 234.962 -5.08017 -1.37133 0
M  V30 2440 O 233.988 -5.62494 -0.87116 0
M  V30 2441 N 235.19 -5.13647 -2.70456 0
M  V30 2442 H 237.955 -2.91298 0.704667 0
M  V30 2443 H 235.516 -1.53303 0.520559 0
M  V30 2444 H 237.508 -3.66728 -1.71152 0
M  V30 2445 H 236.078 -2.60505 -1.72788 0
M  V30 2446 H 235.298 -3.92372 0.379209 0
M  V30 2447 H 236.586 -5.08795 0.0221132 0
M  V30 2448 H 235.984 -4.708 -3.1363 0
M  V30 2449 H 234.541 -5.62821 -3.28749 0
M  V30 2450 N 237.974 -0.419461 -1.51915 0
M  V30 2451 C 238.904 0.391813 -2.30189 0
M  V30 2452 C 239.885 1.03699 -1.34836 0
M  V30 2453 O 241.07 1.04403 -1.63748 0
M  V30 2454 C 238.2 1.50312 -3.13087 0
M  V30 2455 C 237.154 0.9824 -4.16573 0
M  V30 2456 C 236.48 2.18809 -4.8788 0
M  V30 2457 C 237.78 0.0292356 -5.22292 0
M  V30 2458 H 239.474 -0.26135 -2.98257 0
M  V30 2459 H 237.02 -0.127134 -1.43438 0
M  V30 2460 H 238.973 2.07773 -3.66617 0
M  V30 2461 H 237.697 2.18431 -2.42807 0
M  V30 2462 H 236.356 0.430119 -3.64068 0
M  V30 2463 H 236.004 2.85507 -4.14119 0
M  V30 2464 H 235.704 1.84615 -5.57845 0
M  V30 2465 H 237.228 2.76858 -5.44226 0
M  V30 2466 H 238.642 0.512976 -5.71 0
M  V30 2467 H 237.039 -0.2244 -5.9968 0
M  V30 2468 H 238.109 -0.912931 -4.76228 0
M  V30 2469 N 239.452 1.56882 -0.150215 0
M  V30 2470 C 240.384 2.14057 0.819286 0
M  V30 2471 C 241.397 1.09082 1.20851 0
M  V30 2472 O 242.586 1.36347 1.15203 0
M  V30 2473 C 239.686 2.65102 2.11127 0
M  V30 2474 C 238.859 3.94511 1.88891 0
M  V30 2475 C 237.918 4.30834 3.02107 0
M  V30 2476 O 236.944 4.99099 2.73659 0
M  V30 2477 N 238.146 3.90676 4.29363 0
M  V30 2478 H 240.911 2.97871 0.330618 0
M  V30 2479 H 238.472 1.61866 0.0332538 0
M  V30 2480 H 240.464 2.86411 2.85921 0
M  V30 2481 H 239.034 1.85994 2.51247 0
M  V30 2482 H 238.254 3.81795 0.981152 0
M  V30 2483 H 239.542 4.7907 1.71376 0
M  V30 2484 H 238.94 3.35677 4.55343 0
M  V30 2485 H 237.497 4.1703 5.00928 0
M  V30 2486 N 240.93 -0.123565 1.57115 0
M  V30 2487 C 241.84 -1.17074 2.033 0
M  V30 2488 C 242.856 -1.4561 0.952559 0
M  V30 2489 O 244.032 -1.56817 1.26374 0
M  V30 2490 C 241.097 -2.47857 2.42421 0
M  V30 2491 C 240.158 -2.26758 3.64526 0
M  V30 2492 C 239.391 -3.51305 4.01771 0
M  V30 2493 O 239.614 -4.5843 3.39409 0
M  V30 2494 O 238.548 -3.42578 4.94898 0
M  V30 2495 H 242.374 -0.808555 2.92739 0
M  V30 2496 H 239.959 -0.334027 1.45618 0
M  V30 2497 H 241.841 -3.2492 2.68338 0
M  V30 2498 H 240.516 -2.83558 1.5613 0
M  V30 2499 H 239.423 -1.47569 3.43765 0
M  V30 2500 H 240.756 -1.95963 4.51508 0
M  V30 2501 N 242.408 -1.52605 -0.393616 0
M  V30 2502 C 243.355 -1.77055 -1.48054 0
M  V30 2503 C 244.325 -0.61358 -1.54352 0
M  V30 2504 O 245.51 -0.852806 -1.70681 0
M  V30 2505 C 242.65 -1.94108 -2.85335 0
M  V30 2506 C 241.763 -3.21792 -2.88226 0
M  V30 2507 C 240.898 -3.29188 -4.16904 0
M  V30 2508 C 239.937 -4.51013 -4.13828 0
M  V30 2509 N 239.074 -4.55716 -5.34105 0
M  V30 2510 H 243.914 -2.69815 -1.26506 0
M  V30 2511 H 241.451 -1.33683 -0.61379 0
M  V30 2512 H 243.409 -2.01979 -3.65049 0
M  V30 2513 H 242.039 -1.04713 -3.05344 0
M  V30 2514 H 241.091 -3.23015 -2.00911 0
M  V30 2515 H 242.403 -4.11557 -2.8182 0
M  V30 2516 H 241.557 -3.36216 -5.05018 0
M  V30 2517 H 240.296 -2.37389 -4.26026 0
M  V30 2518 H 239.301 -4.44115 -3.24102 0
M  V30 2519 H 240.526 -5.44123 -4.06333 0
M  V30 2520 H 238.472 -3.66807 -5.43865 0
M  V30 2521 H 238.389 -5.39346 -5.29756 0
M  V30 2522 H 239.657 -4.66993 -6.2413 0
M  V30 2523 N 243.887 0.651787 -1.4349 0
M  V30 2524 C 245.135 1.40888 -1.44897 0
M  V30 2525 C 245.456 1.94856 -0.0749086 0
M  V30 2526 O 244.726 1.74518 0.889956 0
M  V30 2527 H 243.306 0.522887 -0.533478 0
M  V30 2528 H 245.968 0.768609 -1.79104 0
M  V30 2529 H 245.064 2.25052 -2.16236 0
M  V30 2530 N 245.365 1.30045 0.890287 0
M  V30 2531 C 246.612 1.18561 1.64163 0
M  V30 2532 C 246.94 -0.260852 1.92743 0
M  V30 2533 O 246.195 -1.20376 1.54299 0
M  V30 2534 C 246.494 1.95409 2.99249 0
M  V30 2535 C 246.16 3.45066 2.90242 0
M  V30 2536 C 244.822 3.85878 2.87492 0
M  V30 2537 C 247.174 4.4039 2.78758 0
M  V30 2538 C 244.502 5.20314 2.7109 0
M  V30 2539 C 246.854 5.74928 2.63894 0
M  V30 2540 C 245.518 6.14986 2.59516 0
M  V30 2541 H 244.788 0.433846 0.600715 0
M  V30 2542 H 247.435 1.61088 1.03552 0
M  V30 2543 H 245.74 1.45501 3.63781 0
M  V30 2544 H 247.437 1.8392 3.56334 0
M  V30 2545 H 244.027 3.12631 2.93189 0
M  V30 2546 H 248.211 4.09806 2.79952 0
M  V30 2547 H 243.467 5.50449 2.66112 0
M  V30 2548 H 247.641 6.48434 2.53981 0
M  V30 2549 H 245.268 7.19104 2.46565 0
M  V30 2550 N 246.843 -1.10192 1.12674 0
M  V30 2551 C 248.068 -1.86523 0.906853 0
M  V30 2552 C 248.493 -1.80221 -0.538711 0
M  V30 2553 O 247.851 -1.17396 -1.38158 0
M  V30 2554 C 247.899 -3.32758 1.3894 0
M  V30 2555 O 247.003 -4.08449 0.5695 0
M  V30 2556 H 246.344 -0.578678 0.325619 0
M  V30 2557 H 248.874 -1.39203 1.49946 0
M  V30 2558 H 248.884 -3.83608 1.38958 0
M  V30 2559 H 247.559 -3.36661 2.44197 0
M  V30 2560 H 246.136 -3.67427 0.636528 0
M  V30 2561 N 248.321 -0.919034 -1.28029 0
M  V30 2562 C 249.567 -0.555757 -1.95036 0
M  V30 2563 C 249.9 0.899198 -1.72128 0
M  V30 2564 O 249.175 1.64023 -1.04531 0
M  V30 2565 C 249.458 -0.872024 -3.49382 0
M  V30 2566 C 249.311 -2.3801 -3.81669 0
M  V30 2567 C 250.63 -0.37185 -4.38526 0
M  V30 2568 H 247.749 -0.203386 -0.708381 0
M  V30 2569 H 250.391 -1.14924 -1.51303 0
M  V30 2570 H 248.541 -0.366946 -3.86763 0
M  V30 2571 H 250.213 -2.9562 -3.54128 0
M  V30 2572 H 248.456 -2.83289 -3.28526 0
M  V30 2573 H 249.127 -2.55192 -4.8947 0
M  V30 2574 H 251.603 -0.804602 -4.08247 0
M  V30 2575 H 250.479 -0.622173 -5.45362 0
M  V30 2576 H 250.74 0.727934 -4.36066 0
M  V30 2577 N 249.799 1.42003 -0.683588 0
M  V30 2578 C 250.747 2.326 0.000815408 0
M  V30 2579 C 251.741 1.50308 0.781278 0
M  V30 2580 O 252.947 1.66322 0.688251 0
M  V30 2581 H 249.322 0.751758 0.0190616 0
M  V30 2582 H 251.293 2.88011 -0.780528 0
M  V30 2583 C 250.042 3.34978 0.93195 0
M  V30 2584 H 249.365 3.98345 0.340817 0
M  V30 2585 H 250.805 4.00936 1.37936 0
M  V30 2586 C 249.264 2.67925 2.04249 0
M  V30 2587 O 249.794 2.51788 3.12995 0
M  V30 2588 N 248 2.2681 1.81675 0
M  V30 2589 H 247.547 2.40135 0.932363 0
M  V30 2590 H 247.505 1.8228 2.56167 0
M  V30 2591 N 251.277 0.427512 1.51691 0
M  V30 2592 C 252.524 -0.142229 2.02 0
M  V30 2593 C 252.852 -1.43566 1.31221 0
M  V30 2594 O 252.107 -1.91298 0.412744 0
M  V30 2595 C 252.406 -0.418249 3.54944 0
M  V30 2596 C 252.072 0.788187 4.43958 0
M  V30 2597 C 250.734 1.11906 4.68007 0
M  V30 2598 C 253.086 1.59347 4.96244 0
M  V30 2599 C 250.414 2.25608 5.41588 0
M  V30 2600 C 252.766 2.7214 5.71072 0
M  V30 2601 C 251.43 3.05692 5.93387 0
M  V30 2602 H 250.7 -0.0520451 0.73917 0
M  V30 2603 H 253.347 0.572697 1.82736 0
M  V30 2604 H 251.652 -1.21496 3.72486 0
M  V30 2605 H 253.349 -0.872339 3.91397 0
M  V30 2606 H 249.939 0.520344 4.2543 0
M  V30 2607 H 254.123 1.35106 4.77556 0
M  V30 2608 H 249.379 2.51929 5.57083 0
M  V30 2609 H 253.553 3.34914 6.10578 0
M  V30 2610 H 251.18 3.9391 6.50184 0
M  V30 2611 N 252.755 -1.56801 0.158532 0
M  V30 2612 C 253.665 -2.20916 -0.789518 0
M  V30 2613 C 254.681 -1.1969 -1.26294 0
M  V30 2614 O 255.857 -1.52308 -1.31773 0
M  V30 2615 C 252.922 -2.82727 -2.00665 0
M  V30 2616 C 251.983 -3.99114 -1.58134 0
M  V30 2617 C 251.216 -4.57968 -2.74045 0
M  V30 2618 O 251.439 -4.15704 -3.90572 0
M  V30 2619 O 250.373 -5.48047 -2.48855 0
M  V30 2620 H 254.199 -3.02464 -0.273681 0
M  V30 2621 H 251.784 -1.4924 -0.0690548 0
M  V30 2622 H 253.666 -3.21968 -2.71872 0
M  V30 2623 H 252.341 -2.04184 -2.51179 0
M  V30 2624 H 251.248 -3.64567 -0.839155 0
M  V30 2625 H 252.581 -4.79212 -1.12325 0
M  V30 2626 N 254.233 0.115231 -1.57178 0
M  V30 2627 C 255.649 0.468877 -1.52557 0
M  V30 2628 C 255.849 1.81649 -0.872125 0
M  V30 2629 O 254.905 2.48347 -0.45606 0
M  V30 2630 C 256.218 0.4499 -2.97315 0
M  V30 2631 C 257.766 0.533185 -3.08425 0
M  V30 2632 C 258.241 0.54456 -4.54751 0
M  V30 2633 N 259.732 0.605892 -4.5922 0
M  V30 2634 C 260.467 0.636203 -5.6986 0
M  V30 2635 N 259.963 0.623931 -6.89985 0
M  V30 2636 N 261.756 0.679496 -5.57978 0
M  V30 2637 H 253.907 -0.767712 -1.9804 0
M  V30 2638 H 256.17 -0.283609 -0.904583 0
M  V30 2639 H 255.876 -0.472721 -3.48509 0
M  V30 2640 H 255.75 1.27632 -3.5495 0
M  V30 2641 H 258.137 1.44623 -2.57232 0
M  V30 2642 H 258.218 -0.320995 -2.53778 0
M  V30 2643 H 257.862 -0.364452 -5.06591 0
M  V30 2644 H 257.792 1.41568 -5.07214 0
M  V30 2645 H 260.283 0.621386 -3.72756 0
M  V30 2646 H 260.596 0.649787 -7.70063 0
M  V30 2647 H 258.941 0.591296 -6.9248 0
M  V30 2648 H 262.132 0.686472 -4.63039 0
M  V30 2649 H 262.305 0.69965 -6.44212 0
M  V30 2650 N 255.711 1.52812 0.385517 0
M  V30 2651 C 256.641 1.80808 1.47752 0
M  V30 2652 C 257.622 0.660318 1.5676 0
M  V30 2653 O 258.807 0.908246 1.71652 0
M  V30 2654 C 255.937 1.98008 2.85324 0
M  V30 2655 C 254.891 3.13709 2.91154 0
M  V30 2656 C 254.217 3.16169 4.31209 0
M  V30 2657 C 255.517 4.52709 2.60483 0
M  V30 2658 H 257.211 2.72253 1.24573 0
M  V30 2659 H 254.757 1.31003 0.597839 0
M  V30 2660 H 256.71 2.16176 3.61726 0
M  V30 2661 H 255.434 1.03255 3.09848 0
M  V30 2662 H 254.093 2.95329 2.17201 0
M  V30 2663 H 253.741 2.19092 4.52778 0
M  V30 2664 H 253.441 3.93894 4.36029 0
M  V30 2665 H 254.965 3.36496 5.09512 0
M  V30 2666 H 256.379 4.71173 3.26602 0
M  V30 2667 H 254.776 5.32528 2.76648 0
M  V30 2668 H 255.846 4.59186 1.55809 0
M  V30 2669 N 257.189 -0.644168 1.43834 0
M  V30 2670 C 258.119 -1.76814 1.52509 0
M  V30 2671 C 259.1 -1.65823 0.379052 0
M  V30 2672 O 260.285 -1.84781 0.597466 0
M  V30 2673 C 257.415 -3.15288 1.4564 0
M  V30 2674 C 256.369 -3.41053 2.58586 0
M  V30 2675 C 255.695 -4.79421 2.36769 0
M  V30 2676 C 256.995 -3.34902 4.00797 0
M  V30 2677 H 258.689 -1.69812 2.46586 0
M  V30 2678 H 256.235 -0.815542 1.1868 0
M  V30 2679 H 258.188 -3.93681 1.50311 0
M  V30 2680 H 256.912 -3.23043 0.480725 0
M  V30 2681 H 255.571 -2.65035 2.53282 0
M  V30 2682 H 255.219 -4.83863 1.37424 0
M  V30 2683 H 254.919 -4.9762 3.12487 0
M  V30 2684 H 256.443 -5.6006 2.43238 0
M  V30 2685 H 257.857 -4.03218 4.07539 0
M  V30 2686 H 256.254 -3.64637 4.76613 0
M  V30 2687 H 257.324 -2.32928 4.25291 0
M  V30 2688 N 258.668 -1.30515 -0.883378 0
M  V30 2689 C 259.631 -1.1701 -1.97082 0
M  V30 2690 C 260.631 -0.10089 -1.60483 0
M  V30 2691 O 261.821 -0.349127 -1.70666 0
M  V30 2692 C 258.953 -0.793045 -3.31547 0
M  V30 2693 H 260.146 -2.13622 -2.10489 0
M  V30 2694 H 257.699 -1.13935 -1.06998 0
M  V30 2695 H 258.434 0.172499 -3.23841 0
M  V30 2696 H 258.219 -1.56576 -3.5948 0
M  V30 2697 H 259.709 -0.722073 -4.1131 0
M  V30 2698 N 260.146 1.09593 -1.13257 0
M  V30 2699 C 261.056 2.19739 -0.821691 0
M  V30 2700 C 262.072 1.72926 0.19302 0
M  V30 2701 O 263.248 2.01385 0.0244895 0
M  V30 2702 C 260.313 3.45482 -0.290333 0
M  V30 2703 C 259.374 4.06985 -1.36607 0
M  V30 2704 C 258.607 5.26726 -0.859975 0
M  V30 2705 O 258.83 5.69594 0.303082 0
M  V30 2706 O 257.764 5.7931 -1.63351 0
M  V30 2707 H 261.59 2.48781 -1.74189 0
M  V30 2708 H 259.175 1.18496 -0.909894 0
M  V30 2709 H 261.057 4.214 0.000674022 0
M  V30 2710 H 259.732 3.18047 0.602306 0
M  V30 2711 H 258.639 3.32712 -1.71037 0
M  V30 2712 H 259.972 4.38643 -2.23279 0
M  V30 2713 N 261.624 0.925811 1.2754 0
M  V30 2714 C 262.873 0.561084 1.93739 0
M  V30 2715 C 263.186 -0.901685 1.73577 0
M  V30 2716 O 264.392 -1.37511 2.34101 0
M  V30 2717 C 262.848 0.952668 3.47062 0
M  V30 2718 C 262.456 2.43599 3.75983 0
M  V30 2719 C 264.2 0.659103 4.19352 0
M  V30 2720 C 262.107 2.76707 5.22673 0
M  V30 2721 H 261.037 0.206122 0.725279 0
M  V30 2722 H 263.688 1.12637 1.44863 0
M  V30 2723 H 262.07 0.316053 3.94737 0
M  V30 2724 H 263.244 3.12035 3.39073 0
M  V30 2725 H 261.559 2.70125 3.16893 0
M  V30 2726 H 264.156 0.882985 5.27359 0
M  V30 2727 H 264.499 -0.403607 4.14339 0
M  V30 2728 H 265.032 1.25473 3.77494 0
M  V30 2729 H 261.771 3.8188 5.32774 0
M  V30 2730 H 261.291 2.12919 5.60737 0
M  V30 2731 H 262.97 2.6435 5.90532 0
M  V30 2732 N 263.102 -1.41638 0.69111 0
M  V30 2733 C 264.049 -2.30789 0.0229705 0
M  V30 2734 C 265.019 -1.46863 -0.775911 0
M  V30 2735 O 266.204 -1.75661 -0.74485 0
M  V30 2736 C 263.344 -3.32868 -0.910666 0
M  V30 2737 C 262.457 -4.31875 -0.103874 0
M  V30 2738 C 261.592 -5.21024 -1.03475 0
M  V30 2739 C 260.631 -6.11702 -0.220598 0
M  V30 2740 N 259.768 -6.93349 -1.10504 0
M  V30 2741 H 264.608 -2.87366 0.788978 0
M  V30 2742 H 262.145 -1.41535 0.400794 0
M  V30 2743 H 264.103 -3.90596 -1.46597 0
M  V30 2744 H 262.733 -2.77851 -1.64312 0
M  V30 2745 H 261.785 -3.76131 0.568285 0
M  V30 2746 H 263.097 -4.96003 0.527504 0
M  V30 2747 H 262.251 -5.83565 -1.65943 0
M  V30 2748 H 260.99 -4.57112 -1.69999 0
M  V30 2749 H 259.995 -5.48215 0.417187 0
M  V30 2750 H 261.22 -6.77668 0.440784 0
M  V30 2751 H 259.166 -6.3205 -1.75638 0
M  V30 2752 H 259.083 -7.54146 -0.529125 0
M  V30 2753 H 260.351 -7.60362 -1.71667 0
M  V30 2754 N 264.58 -0.43555 -1.51462 0
M  V30 2755 C 265.49 0.383001 -2.31453 0
M  V30 2756 C 266.506 1.02931 -1.4029 0
M  V30 2757 O 267.682 1.02507 -1.73362 0
M  V30 2758 C 264.747 1.47043 -3.13973 0
M  V30 2759 C 263.808 0.844433 -4.20913 0
M  V30 2760 C 263.041 1.88004 -4.9949 0
M  V30 2761 O 263.264 3.10199 -4.78678 0
M  V30 2762 O 262.198 1.47157 -5.83634 0
M  V30 2763 H 266.024 -0.269964 -3.02498 0
M  V30 2764 H 263.609 -0.19813 -1.4808 0
M  V30 2765 H 265.491 2.10113 -3.65281 0
M  V30 2766 H 264.166 2.10751 -2.45695 0
M  V30 2767 H 263.073 0.175729 -3.73687 0
M  V30 2768 H 264.406 0.250869 -4.9156 0
M  V30 2769 N 266.058 1.56714 -0.166846 0
M  V30 2770 C 267.474 1.58473 0.189372 0
M  V30 2771 C 267.674 1.18201 1.63189 0
M  V30 2772 O 266.73 0.891528 2.36237 0
M  V30 2773 C 268.043 3.00573 -0.0873872 0
M  V30 2774 C 269.591 3.1299 -0.0252443 0
M  V30 2775 C 270.066 4.57174 -0.274934 0
M  V30 2776 N 271.557 4.62665 -0.222553 0
M  V30 2777 C 272.292 5.72072 -0.389985 0
M  V30 2778 N 271.788 6.90054 -0.616229 0
M  V30 2779 N 273.581 5.61153 -0.326202 0
M  V30 2780 H 265.732 1.8118 -1.10849 0
M  V30 2781 H 267.995 0.839525 -0.440342 0
M  V30 2782 H 267.701 3.34497 -1.0865 0
M  V30 2783 H 267.575 3.72019 0.623037 0
M  V30 2784 H 269.962 2.78895 0.96444 0
M  V30 2785 H 270.043 2.43989 -0.768309 0
M  V30 2786 H 269.687 4.91976 -1.26181 0
M  V30 2787 H 269.617 5.24328 0.48869 0
M  V30 2788 H 272.108 3.77863 -0.0531512 0
M  V30 2789 H 272.421 7.69311 -0.733559 0
M  V30 2790 H 270.766 6.91927 -0.652791 0
M  V30 2791 H 273.957 4.67859 -0.150072 0
M  V30 2792 H 274.13 6.46364 -0.460116 0
M  V30 2793 N 267.536 -0.106894 1.57237 0
M  V30 2794 C 268.813 -0.843526 1.76477 0
M  V30 2795 C 269.193 -1.97499 0.745464 0
M  V30 2796 O 268.541 -2.27357 -0.228306 0
M  V30 2797 C 268.751 -1.34903 3.21873 0
M  V30 2798 C 270.099 -1.79654 3.8472 0
M  V30 2799 O 271.123 -1.44554 3.2555 0
M  V30 2800 O 269.982 -2.44515 4.88748 0
M  V30 2801 H 267.076 -0.401468 0.723016 0
M  V30 2802 H 269.622 -0.0896927 1.69463 0
M  V30 2803 H 268.394 -0.53781 3.87586 0
M  V30 2804 H 268.017 -2.16522 3.33473 0
M  V30 2805 N 269.014 -1.53014 -0.377408 0
M  V30 2806 C 270.291 -1.59215 -1.13622 0
M  V30 2807 C 270.671 -0.392407 -2.07421 0
M  V30 2808 O 270.019 0.618342 -2.19975 0
M  V30 2809 C 270.229 -2.93669 -1.88573 0
M  V30 2810 C 271.577 -3.47822 -2.43526 0
M  V30 2811 O 272.601 -2.9562 -1.98715 0
M  V30 2812 O 271.46 -4.39055 -3.25412 0
M  V30 2813 H 268.554 -0.642625 -0.52054 0
M  V30 2814 H 271.1 -1.65353 -0.381625 0
M  V30 2815 H 269.872 -3.7243 -1.20048 0
M  V30 2816 H 269.495 -2.90968 -2.70968 0
M  V30 2817 N 270.492 0.636531 -1.44174 0
M  V30 2818 C 271.908 0.954104 -1.27941 0
M  V30 2819 C 272.108 2.0039 -0.211248 0
M  V30 2820 O 271.164 2.49236 0.404695 0
M  V30 2821 C 272.477 1.4225 -2.64925 0
M  V30 2822 C 274.025 1.53827 -2.72592 0
M  V30 2823 C 274.5 2.04053 -4.10032 0
M  V30 2824 N 275.991 2.11331 -4.12182 0
M  V30 2825 C 276.726 2.51352 -5.15374 0
M  V30 2826 N 276.222 2.90549 -6.2893 0
M  V30 2827 N 278.015 2.51438 -5.02728 0
M  V30 2828 H 270.166 -0.0578386 -2.12321 0
M  V30 2829 H 272.429 0.0367406 -0.947288 0
M  V30 2830 H 272.135 0.725466 -3.44136 0
M  V30 2831 H 272.009 2.39451 -2.9145 0
M  V30 2832 H 274.396 2.22628 -1.93702 0
M  V30 2833 H 274.477 0.550154 -2.49814 0
M  V30 2834 H 274.121 1.35848 -4.89395 0
M  V30 2835 H 274.051 3.03726 -4.30184 0
M  V30 2836 H 276.542 1.83745 -3.30222 0
M  V30 2837 H 276.855 3.19884 -7.03487 0
M  V30 2838 H 275.2 2.88313 -6.32377 0
M  V30 2839 H 278.391 2.20203 -4.13072 0
M  V30 2840 H 278.564 2.82304 -5.83274 0
M  V30 2841 N 271.97 1.30982 0.876444 0
M  V30 2842 C 273.247 1.10942 1.61094 0
M  V30 2843 C 273.627 -0.338223 2.08373 0
M  V30 2844 O 272.975 -1.33122 1.85717 0
M  V30 2845 C 273.185 2.11789 2.77392 0
M  V30 2846 C 274.533 2.43965 3.47514 0
M  V30 2847 O 275.557 2.10166 2.87591 0
M  V30 2848 O 274.416 3.01817 4.55597 0
M  V30 2849 H 271.51 0.42667 0.708436 0
M  V30 2850 H 274.056 1.42438 0.922474 0
M  V30 2851 H 272.828 3.09194 2.39823 0
M  V30 2852 H 272.451 1.81161 3.5393 0
M  V30 2853 N 273.449 -1.08991 1.13837 0
M  V30 2854 C 274.865 -1.33312 0.877506 0
M  V30 2855 C 275.065 -1.95587 -0.48456 0
M  V30 2856 O 274.121 -2.20509 -1.23013 0
M  V30 2857 C 275.434 -2.24045 2.0056 0
M  V30 2858 C 276.982 -2.37542 2.03821 0
M  V30 2859 C 277.457 -3.31614 3.15905 0
M  V30 2860 N 278.948 -3.39189 3.15445 0
M  V30 2861 C 279.683 -4.11992 3.98811 0
M  V30 2862 N 279.179 -4.87553 4.92203 0
M  V30 2863 N 280.972 -4.07762 3.86894 0
M  V30 2864 H 273.123 -0.669456 2.01574 0
M  V30 2865 H 275.386 -0.357482 0.878015 0
M  V30 2866 H 275.092 -1.85521 2.98789 0
M  V30 2867 H 274.966 -3.24466 1.92359 0
M  V30 2868 H 277.353 -2.75327 1.06202 0
M  V30 2869 H 277.434 -1.36884 2.16093 0
M  V30 2870 H 277.078 -2.94551 4.13766 0
M  V30 2871 H 277.008 -4.32186 3.0087 0
M  V30 2872 H 279.499 -2.85314 2.47799 0
M  V30 2873 H 279.812 -5.40549 5.52292 0
M  V30 2874 H 278.157 -4.86627 4.96205 0
M  V30 2875 H 281.348 -3.47833 3.13257 0
M  V30 2876 H 281.521 -4.64238 4.52092 0
M  V30 2877 N 274.927 -0.932562 -1.27047 0
M  V30 2878 C 275.875 -0.42603 -2.28665 0
M  V30 2879 C 276.869 0.49219 -1.62092 0
M  V30 2880 O 278.075 0.371355 -1.76128 0
M  V30 2881 H 274.45 -0.119213 -0.742491 0
M  V30 2882 H 276.421 -1.29579 -2.68797 0
M  V30 2883 C 275.17 0.301426 -3.46391 0
M  V30 2884 H 274.493 -0.39595 -3.97834 0
M  V30 2885 H 275.933 0.6202 -4.1944 0
M  V30 2886 C 274.392 1.51616 -3.00856 0
M  V30 2887 O 274.922 2.61476 -3.04948 0
M  V30 2888 N 273.128 1.36969 -2.56296 0
M  V30 2889 H 272.675 0.475873 -2.53166 0
M  V30 2890 H 272.633 2.18368 -2.26192 0
M  V30 2891 N 276.405 1.4127 -0.698611 0
M  V30 2892 C 277.821 1.55241 -0.370462 0
M  V30 2893 C 278.021 1.67351 1.12231 0
M  V30 2894 O 277.077 1.65363 1.90818 0
M  V30 2895 C 278.39 2.78997 -1.12165 0
M  V30 2896 C 279.938 2.92797 -1.1063 0
M  V30 2897 C 280.413 4.19445 -1.8393 0
M  V30 2898 N 281.904 4.26409 -1.80914 0
M  V30 2899 C 282.639 5.23271 -2.34467 0
M  V30 2900 N 282.135 6.26145 -2.96504 0
M  V30 2901 N 283.928 5.15232 -2.24706 0
M  V30 2902 H 276.079 1.31654 -1.66676 0
M  V30 2903 H 278.342 0.635393 -0.703548 0
M  V30 2904 H 278.048 2.76268 -2.17644 0
M  V30 2905 H 277.922 3.70606 -0.702209 0
M  V30 2906 H 280.309 2.95039 -0.0597713 0
M  V30 2907 H 280.39 2.02353 -1.56483 0
M  V30 2908 H 280.034 4.17964 -2.88563 0
M  V30 2909 H 279.964 5.08866 -1.35509 0
M  V30 2910 H 282.455 3.527 -1.35687 0
M  V30 2911 H 282.768 6.96451 -3.34927 0
M  V30 2912 H 281.113 6.26638 -3.00583 0
M  V30 2913 H 284.304 4.33789 -1.7591 0
M  V30 2914 H 284.477 5.90552 -2.66745 0
M  V30 2915 N 277.883 0.443576 1.51229 0
M  V30 2916 C 278.846 -0.353132 2.26463 0
M  V30 2917 C 279.846 -0.944338 1.3015 0
M  V30 2918 O 281.036 -0.817813 1.5381 0
M  V30 2919 C 278.168 -1.50023 3.06114 0
M  V30 2920 H 279.361 0.3063 2.98332 0
M  V30 2921 H 276.914 0.196902 1.55055 0
M  V30 2922 H 277.649 -2.19553 2.38677 0
M  V30 2923 H 277.434 -1.08241 3.76864 0
M  V30 2924 H 278.924 -2.06296 3.63087 0
M  V30 2925 N 279.361 -1.56624 0.175154 0
M  V30 2926 C 280.607 -1.9729 -0.469506 0
M  V30 2927 C 280.94 -1.06128 -1.62636 0
M  V30 2928 O 280.215 -0.109183 -1.94193 0
M  V30 2929 C 280.498 -3.47375 -0.948804 0
M  V30 2930 C 280.351 -4.49317 0.208491 0
M  V30 2931 C 281.67 -4.00652 -1.82116 0
M  V30 2932 H 278.789 -0.717317 -0.16919 0
M  V30 2933 H 281.431 -1.88184 0.262062 0
M  V30 2934 H 279.581 -3.55267 -1.57219 0
M  V30 2935 H 281.253 -4.53482 0.845682 0
M  V30 2936 H 279.496 -4.25121 0.863395 0
M  V30 2937 H 280.167 -5.51741 -0.169059 0
M  V30 2938 H 282.643 -3.95416 -1.2956 0
M  V30 2939 H 281.519 -5.06075 -2.12554 0
M  V30 2940 H 281.78 -3.44699 -2.7683 0
M  V30 2941 N 280.839 0.0985539 -1.57292 0
M  V30 2942 C 281.802 1.10402 -2.00858 0
M  V30 2943 C 282.802 1.33146 -0.901593 0
M  V30 2944 O 283.992 1.29318 -1.16716 0
M  V30 2945 C 281.124 2.45394 -2.36632 0
M  V30 2946 H 282.317 0.729099 -2.90902 0
M  V30 2947 H 279.87 0.343495 -1.52479 0
M  V30 2948 H 280.605 2.87769 -1.49531 0
M  V30 2949 H 280.39 2.30235 -3.17387 0
M  V30 2950 H 281.88 3.17718 -2.71007 0
M  V30 2951 N 282.317 1.53212 0.369288 0
M  V30 2952 C 283.728 1.60943 0.946276 0
M  V30 2953 C 284.079 0.47452 1.90375 0
M  V30 2954 O 283.204 -0.399597 2.12679 0
M  V30 2955 C 283.799 2.91715 1.72302 0
M  V30 2956 C 282.358 3.01792 2.24941 0
M  V30 2957 C 281.505 2.56211 1.06072 0
M  V30 2958 H 284.456 1.58007 0.148198 0
M  V30 2959 H 284.477 2.79309 2.58393 0
M  V30 2960 H 283.989 3.74295 1.0259 0
M  V30 2961 H 282.09 2.23791 2.97906 0
M  V30 2962 H 282.203 4.06803 2.53077 0
M  V30 2963 H 280.567 2.10998 1.4266 0
M  V30 2964 H 281.35 3.41206 0.378639 0
M  V30 2965 N 283.795 -0.628877 1.44509 0
M  V30 2966 C 284.725 -1.75187 1.54376 0
M  V30 2967 C 285.706 -1.65411 0.396618 0
M  V30 2968 O 286.891 -1.84137 0.617031 0
M  V30 2969 C 284.021 -3.13725 1.48976 0
M  V30 2970 C 282.975 -3.38291 2.62189 0
M  V30 2971 C 282.301 -4.76883 2.41841 0
M  V30 2972 C 283.601 -3.30632 4.04326 0
M  V30 2973 H 285.295 -1.67187 2.48373 0
M  V30 2974 H 282.841 -0.802909 1.19538 0
M  V30 2975 H 284.794 -3.92064 1.54478 0
M  V30 2976 H 283.518 -3.22515 0.514961 0
M  V30 2977 H 282.177 -2.62334 2.56079 0
M  V30 2978 H 281.825 -4.82378 1.42548 0
M  V30 2979 H 281.525 -4.94278 3.17747 0
M  V30 2980 H 283.049 -5.57449 2.49165 0
M  V30 2981 H 284.463 -3.98873 4.11793 0
M  V30 2982 H 282.86 -3.59561 4.80454 0
M  V30 2983 H 283.93 -2.28404 4.27738 0
M  V30 2984 N 285.273 -1.31445 -0.869486 0
M  V30 2985 C 286.519 -1.21337 -1.62496 0
M  V30 2986 C 286.852 0.227872 -1.92858 0
M  V30 2987 O 286.127 1.16094 -1.56053 0
M  V30 2988 C 286.41 -2.05814 -2.95487 0
M  V30 2989 C 286.263 -3.5824 -2.72 0
M  V30 2990 C 287.582 -1.9079 -3.96594 0
M  V30 2991 H 284.701 -0.442135 -0.589649 0
M  V30 2992 H 287.343 -1.6124 -1.00507 0
M  V30 2993 H 285.493 -1.71913 -3.48394 0
M  V30 2994 H 287.165 -4.0228 -2.25762 0
M  V30 2995 H 285.408 -3.81647 -2.06224 0
M  V30 2996 H 286.079 -4.12657 -3.66631 0
M  V30 2997 H 288.555 -2.20459 -3.52898 0
M  V30 2998 H 287.431 -2.52199 -4.87531 0
M  V30 2999 H 287.692 -0.871341 -4.33428 0
M  V30 3000 N 286.751 1.08385 -1.14413 0
M  V30 3001 C 288.162 1.62258 -0.923535 0
M  V30 3002 C 288.513 1.88691 0.537595 0
M  V30 3003 O 287.638 1.64454 1.40655 0
M  V30 3004 C 288.233 2.94781 -1.67002 0
M  V30 3005 C 286.792 3.45437 -1.495 0
M  V30 3006 C 285.939 2.19668 -1.69238 0
M  V30 3007 H 288.89 0.916086 -1.2959 0
M  V30 3008 H 288.911 3.63229 -1.13334 0
M  V30 3009 H 288.423 2.7551 -2.73342 0
M  V30 3010 H 286.524 3.6981 -0.455097 0
M  V30 3011 H 286.637 4.22173 -2.2651 0
M  V30 3012 H 285.001 2.28849 -1.11804 0
M  V30 3013 H 285.784 2.02905 -2.7692 0
M  V30 3014 N 288.23 0.939286 1.26551 0
M  V30 3015 C 289.193 0.451987 2.24699 0
M  V30 3016 C 290.193 -0.435869 1.5478 0
M  V30 3017 O 291.383 -0.235314 1.72603 0
M  V30 3018 C 288.515 -0.348801 3.39111 0
M  V30 3019 H 289.708 1.3193 2.69322 0
M  V30 3020 H 287.261 0.721072 1.38673 0
M  V30 3021 H 287.996 -1.23444 2.99887 0
M  V30 3022 H 287.781 0.287945 3.91041 0
M  V30 3023 H 289.271 -0.679726 4.12031 0
M  V30 3024 N 289.708 -1.40897 0.706093 0
M  V30 3025 C 290.671 -2.29131 0.0562841 0
M  V30 3026 C 291.671 -1.44901 -0.697166 0
M  V30 3027 O 292.861 -1.65926 -0.530484 0
M  V30 3028 C 289.993 -3.27957 -0.93043 0
M  V30 3029 H 291.186 -2.88091 0.833284 0
M  V30 3030 H 288.739 -1.4906 0.470192 0
M  V30 3031 H 289.474 -2.73997 -1.73482 0
M  V30 3032 H 289.259 -3.90124 -0.393166 0
M  V30 3033 H 290.749 -3.94049 -1.38256 0
M  V30 3034 N 291.186 -0.45159 -1.50991 0
M  V30 3035 C 292.463 0.170707 -1.94854 0
M  V30 3036 C 292.843 1.58788 -1.39103 0
M  V30 3037 O 292.191 2.20913 -0.583921 0
M  V30 3038 C 292.401 0.133929 -3.48743 0
M  V30 3039 C 293.749 0.33248 -4.23296 0
M  V30 3040 O 294.773 0.211403 -3.55572 0
M  V30 3041 O 293.632 0.57486 -5.43468 0
M  V30 3042 H 290.726 0.122264 -0.817912 0
M  V30 3043 H 293.272 -0.510594 -1.61836 0
M  V30 3044 H 292.044 -0.856283 -3.81816 0
M  V30 3045 H 291.667 0.857529 -3.88242 0
M  V30 3046 N 292.664 1.56529 -0.183458 0
M  V30 3047 C 293.627 2.17324 0.728223 0
M  V30 3048 C 294.627 1.12453 1.14939 0
M  V30 3049 O 295.817 1.37902 1.06437 0
M  V30 3050 C 292.949 2.76591 1.99274 0
M  V30 3051 H 294.142 2.99241 0.198772 0
M  V30 3052 H 291.695 1.5616 0.0661391 0
M  V30 3053 H 292.43 1.98441 2.56499 0
M  V30 3054 H 292.215 3.5335 1.69959 0
M  V30 3055 H 293.705 3.23311 2.6431 0
M  V30 3056 N 294.142 -0.090211 1.57342 0
M  V30 3057 C 295.072 -1.10976 2.05443 0
M  V30 3058 C 296.053 -1.41482 0.944284 0
M  V30 3059 O 297.238 -1.51428 1.21586 0
M  V30 3060 C 294.368 -2.42831 2.48295 0
M  V30 3061 C 293.322 -2.26721 3.63018 0
M  V30 3062 C 292.648 -3.63796 3.91863 0
M  V30 3063 C 293.948 -1.7037 4.93732 0
M  V30 3064 H 295.642 -0.709564 2.9087 0
M  V30 3065 H 293.188 -0.339874 1.39932 0
M  V30 3066 H 295.141 -3.14431 2.80555 0
M  V30 3067 H 293.865 -2.84795 1.59873 0
M  V30 3068 H 292.524 -1.57565 3.31012 0
M  V30 3069 H 292.172 -4.03297 3.00601 0
M  V30 3070 H 291.872 -3.53861 4.69101 0
M  V30 3071 H 293.396 -4.36855 4.26603 0
M  V30 3072 H 294.81 -2.31816 5.24342 0
M  V30 3073 H 293.207 -1.71181 5.75167 0
M  V30 3074 H 294.277 -0.663542 4.80339 0
M  V30 3075 N 295.62 -1.53406 -0.361157 0
M  V30 3076 C 296.866 -1.70054 -1.10496 0
M  V30 3077 C 297.199 -0.453278 -1.88836 0
M  V30 3078 O 296.474 0.5495 -1.86576 0
M  V30 3079 C 296.757 -2.95317 -2.06058 0
M  V30 3080 C 296.61 -4.3021 -1.31298 0
M  V30 3081 C 297.929 -3.16193 -3.06121 0
M  V30 3082 H 295.048 -0.618799 -0.400321 0
M  V30 3083 H 297.69 -1.86052 -0.385318 0
M  V30 3084 H 295.84 -2.81809 -2.67425 0
M  V30 3085 H 297.512 -4.55538 -0.726807 0
M  V30 3086 H 295.755 -4.29421 -0.614853 0
M  V30 3087 H 296.426 -5.14 -2.01265 0
M  V30 3088 H 298.902 -3.28916 -2.5486 0
M  V30 3089 H 297.778 -4.05266 -3.70204 0
M  V30 3090 H 298.039 -2.31676 -3.76535 0
M  V30 3091 N 297.098 0.621204 -1.44841 0
M  V30 3092 C 298.028 1.74366 -1.55303 0
M  V30 3093 C 299.009 1.65199 -0.405385 0
M  V30 3094 O 300.194 1.83807 -0.626787 0
M  V30 3095 C 297.324 3.12931 -1.50637 0
M  V30 3096 C 296.278 3.36896 -2.63979 0
M  V30 3097 C 295.604 4.75594 -2.44366 0
M  V30 3098 C 296.904 3.28483 -4.06074 0
M  V30 3099 H 298.598 1.65867 -2.49256 0
M  V30 3100 H 296.144 0.796558 -1.19962 0
M  V30 3101 H 298.097 3.9124 -1.56555 0
M  V30 3102 H 296.821 3.22237 -0.532057 0
M  V30 3103 H 295.48 2.60972 -2.57467 0
M  V30 3104 H 295.128 4.81616 -1.45105 0
M  V30 3105 H 294.828 4.92586 -3.20364 0
M  V30 3106 H 296.352 5.5612 -2.52117 0
M  V30 3107 H 297.766 3.96684 -4.13902 0
M  V30 3108 H 296.163 3.57008 -4.82354 0
M  V30 3109 H 297.233 2.26133 -4.28943 0
M  V30 3110 N 298.576 1.31904 0.862503 0
M  V30 3111 C 299.853 1.12644 1.59908 0
M  V30 3112 C 300.233 -0.316104 2.0872 0
M  V30 3113 O 299.581 -1.31145 1.87118 0
M  V30 3114 C 299.791 2.1472 2.7513 0
M  V30 3115 C 301.139 2.47637 3.44907 0
M  V30 3116 O 302.163 2.13205 2.85346 0
M  V30 3117 O 301.022 3.06632 4.52371 0
M  V30 3118 H 298.116 0.43416 0.703871 0
M  V30 3119 H 300.662 1.43408 0.907314 0
M  V30 3120 H 299.434 3.1172 2.3653 0
M  V30 3121 H 299.057 1.84905 3.51989 0
M  V30 3122 N 300.054 -1.07777 1.14986 0
M  V30 3123 C 301.279 -1.84558 0.946213 0
M  V30 3124 C 301.704 -1.81323 -0.500362 0
M  V30 3125 O 301.062 -1.20301 -1.35637 0
M  V30 3126 C 301.11 -3.29736 1.45968 0
M  V30 3127 O 300.214 -4.07149 0.65601 0
M  V30 3128 H 299.555 -0.571641 0.33782 0
M  V30 3129 H 302.085 -1.35991 1.52865 0
M  V30 3130 H 302.095 -3.80574 1.47063 0
M  V30 3131 H 300.77 -3.31406 2.51283 0
M  V30 3132 H 299.347 -3.65994 0.714322 0
M  V30 3133 N 301.532 -0.945985 -1.26051 0
M  V30 3134 C 302.76 -0.613025 -1.9761 0
M  V30 3135 C 303.175 0.813035 -1.70397 0
M  V30 3136 O 302.532 1.54274 -0.974979 0
M  V30 3137 C 302.583 -0.85159 -3.51326 0
M  V30 3138 O 302.304 -2.22157 -3.77595 0
M  V30 3139 C 303.805 -0.529831 -4.40122 0
M  V30 3140 H 301.025 -0.230593 -0.630133 0
M  V30 3141 H 303.569 -1.268 -1.60443 0
M  V30 3142 H 301.724 -0.243151 -3.86636 0
M  V30 3143 H 302.138 -2.2852 -4.721 0
M  V30 3144 H 303.612 -0.747348 -5.46917 0
M  V30 3145 H 304.089 0.535341 -4.35925 0
M  V30 3146 H 304.695 -1.11721 -4.10364 0
M  V30 3147 N 303.011 1.40521 -0.713556 0
M  V30 3148 C 304.239 2.05237 -0.261775 0
M  V30 3149 C 304.654 1.53755 1.09567 0
M  V30 3150 O 304.011 0.693268 1.6882 0
M  V30 3151 C 304.062 3.60763 -0.230706 0
M  V30 3152 O 303.783 4.10345 -1.53455 0
M  V30 3153 C 305.284 4.42651 0.239874 0
M  V30 3154 H 302.504 0.660533 -0.118057 0
M  V30 3155 H 305.048 1.79967 -0.971192 0
M  V30 3156 H 303.203 3.8501 0.429661 0
M  V30 3157 H 303.617 5.04526 -1.43366 0
M  V30 3158 H 305.091 5.51599 0.210468 0
M  V30 3159 H 305.568 4.20082 1.28171 0
M  V30 3160 H 306.174 4.23507 -0.390142 0
M  V30 3161 N 304.489 0.459591 1.5075 0
M  V30 3162 C 305.419 -0.330644 2.31147 0
M  V30 3163 C 306.4 -1.00087 1.37538 0
M  V30 3164 O 307.585 -1.00025 1.66459 0
M  V30 3165 C 304.715 -1.41958 3.16962 0
M  V30 3166 C 303.669 -0.871608 4.19031 0
M  V30 3167 C 302.995 -2.05797 4.9351 0
M  V30 3168 C 304.295 0.109251 5.22186 0
M  V30 3169 H 305.989 0.340336 2.97459 0
M  V30 3170 H 303.535 0.165119 1.4305 0
M  V30 3171 H 305.488 -1.9798 3.71997 0
M  V30 3172 H 304.212 -2.11917 2.48513 0
M  V30 3173 H 302.871 -0.333442 3.6508 0
M  V30 3174 H 302.519 -2.74427 4.21544 0
M  V30 3175 H 302.219 -1.6976 5.62544 0
M  V30 3176 H 303.743 -2.62331 5.51375 0
M  V30 3177 H 305.157 -0.361405 5.7216 0
M  V30 3178 H 303.554 0.383316 5.98875 0
M  V30 3179 H 304.624 1.03887 4.73641 0
M  V30 3180 N 305.967 -1.56429 0.191757 0
M  V30 3181 C 307.192 -2.02309 -0.456706 0
M  V30 3182 C 307.617 -1.07103 -1.5463 0
M  V30 3183 O 306.975 -0.0539677 -1.8122 0
M  V30 3184 C 307.023 -3.46654 -0.993159 0
M  V30 3185 O 306.127 -3.54559 -2.10622 0
M  V30 3186 H 305.468 -0.655303 -0.107114 0
M  V30 3187 H 307.998 -2.02364 0.301653 0
M  V30 3188 H 308.008 -3.86377 -1.31061 0
M  V30 3189 H 306.683 -4.1544 -0.195504 0
M  V30 3190 H 305.26 -3.26708 -1.79767 0
M  V30 3191 N 307.445 0.0818655 -1.57387 0
M  V30 3192 C 308.694 0.781681 -1.85937 0
M  V30 3193 C 309.007 1.79246 -0.782957 0
M  V30 3194 O 310.213 2.54112 -0.955987 0
M  V30 3195 C 308.669 1.44109 -3.29789 0
M  V30 3196 C 308.277 0.469396 -4.45534 0
M  V30 3197 C 310.021 2.12386 -3.67549 0
M  V30 3198 C 307.928 1.13415 -5.80423 0
M  V30 3199 H 306.858 0.295682 -0.693605 0
M  V30 3200 H 309.509 0.0348051 -1.83467 0
M  V30 3201 H 307.891 2.23588 -3.2684 0
M  V30 3202 H 309.065 -0.294856 -4.59856 0
M  V30 3203 H 307.38 -0.108383 -4.16259 0
M  V30 3204 H 309.977 2.62878 -4.65617 0
M  V30 3205 H 310.32 2.91877 -2.96839 0
M  V30 3206 H 310.853 1.39751 -3.72444 0
M  V30 3207 H 307.592 0.379771 -6.54399 0
M  V30 3208 H 307.112 1.8695 -5.69921 0
M  V30 3209 H 308.791 1.65686 -6.25426 0
M  V30 3210 N 308.923 1.53595 0.353017 0
M  V30 3211 C 309.833 1.83897 1.45667 0
M  V30 3212 C 310.849 0.728334 1.58023 0
M  V30 3213 O 312.025 1.01968 1.73679 0
M  V30 3214 C 309.09 2.03383 2.80778 0
M  V30 3215 C 308.151 3.27262 2.77845 0
M  V30 3216 C 307.384 3.45809 4.06512 0
M  V30 3217 O 307.607 2.68387 5.03314 0
M  V30 3218 O 306.541 4.39207 4.11559 0
M  V30 3219 H 310.367 2.77686 1.2298 0
M  V30 3220 H 307.952 1.39132 0.544308 0
M  V30 3221 H 309.834 2.17698 3.60812 0
M  V30 3222 H 308.509 1.12783 3.03417 0
M  V30 3223 H 307.416 3.18359 1.96465 0
M  V30 3224 H 308.749 4.17824 2.60161 0
M  V30 3225 N 310.401 -0.613514 1.45168 0
M  V30 3226 C 311.333 -1.73825 1.4939 0
M  V30 3227 C 312.346 -1.58175 0.385304 0
M  V30 3228 O 313.535 -1.66165 0.652036 0
M  V30 3229 C 310.635 -3.11758 1.32891 0
M  V30 3230 C 309.808 -3.53704 2.57317 0
M  V30 3231 C 308.867 -4.70579 2.35462 0
M  V30 3232 O 307.893 -4.77996 3.09044 0
M  V30 3233 N 309.095 -5.63454 1.39644 0
M  V30 3234 H 311.86 -1.70669 2.46358 0
M  V30 3235 H 309.421 -0.79862 1.40832 0
M  V30 3236 H 311.413 -3.87692 1.1609 0
M  V30 3237 H 309.983 -3.09456 0.442218 0
M  V30 3238 H 309.203 -2.67794 2.89275 0
M  V30 3239 H 310.491 -3.78486 3.40038 0
M  V30 3240 H 309.889 -5.6017 0.789062 0
M  V30 3241 H 308.446 -6.38944 1.28816 0
M  V30 3242 N 311.879 -1.3236 -0.855495 0
M  V30 3243 C 313.125 -1.23054 -1.612 0
M  V30 3244 C 313.458 0.207404 -1.93089 0
M  V30 3245 O 312.733 1.14432 -1.57275 0
M  V30 3246 C 313.016 -2.08937 -2.93287 0
M  V30 3247 C 312.869 -3.61105 -2.68185 0
M  V30 3248 C 314.188 -1.94986 -3.94549 0
M  V30 3249 H 311.307 -0.448364 -0.584926 0
M  V30 3250 H 313.949 -1.62297 -0.987917 0
M  V30 3251 H 312.099 -1.75599 -3.46551 0
M  V30 3252 H 313.771 -4.04652 -2.21483 0
M  V30 3253 H 312.014 -3.83813 -2.02164 0
M  V30 3254 H 312.685 -4.16522 -3.62234 0
M  V30 3255 H 315.161 -2.24189 -3.5054 0
M  V30 3256 H 314.037 -2.57356 -4.84829 0
M  V30 3257 H 314.298 -0.917263 -4.3248 0
M  V30 3258 N 313.357 1.07166 -1.15556 0
M  V30 3259 C 314.606 1.79181 -0.926132 0
M  V30 3260 C 314.919 1.87768 0.547967 0
M  V30 3261 O 316.125 2.56323 0.895036 0
M  V30 3262 C 314.581 3.22 -1.60761 0
M  V30 3263 C 314.189 3.21607 -3.11886 0
M  V30 3264 C 315.933 3.9861 -1.4598 0
M  V30 3265 C 313.84 4.59092 -3.72812 0
M  V30 3266 H 312.77 0.67154 -0.342856 0
M  V30 3267 H 315.421 1.2027 -1.3859 0
M  V30 3268 H 313.803 3.81115 -1.07553 0
M  V30 3269 H 314.977 2.72127 -3.71865 0
M  V30 3270 H 313.292 2.58495 -3.2645 0
M  V30 3271 H 315.889 5.00225 -1.88888 0
M  V30 3272 H 316.232 4.143 -0.407541 0
M  V30 3273 H 316.765 3.45996 -1.96295 0
M  V30 3274 H 313.504 4.48606 -4.77946 0
M  V30 3275 H 313.024 5.08803 -3.17616 0
M  V30 3276 H 314.703 5.28059 -3.73848 0
M  V30 3277 N 314.835 0.952656 1.25548 0
M  V30 3278 C 315.745 0.47782 2.29682 0
M  V30 3279 C 316.761 -0.453859 1.67977 0
M  V30 3280 O 317.937 -0.330587 1.98668 0
M  V30 3281 C 315.002 -0.238655 3.45878 0
M  V30 3282 C 314.063 0.730994 4.23031 0
M  V30 3283 C 313.296 0.0486165 5.33678 0
M  V30 3284 O 313.519 -1.16612 5.58353 0
M  V30 3285 O 312.453 0.733152 5.97418 0
M  V30 3286 H 316.279 1.34312 2.72386 0
M  V30 3287 H 313.864 0.719026 1.30959 0
M  V30 3288 H 315.746 -0.641774 4.16484 0
M  V30 3289 H 314.421 -1.07916 3.05181 0
M  V30 3290 H 313.328 1.18428 3.5486 0
M  V30 3291 H 314.661 1.53946 4.67506 0
M  V30 3292 N 316.313 -1.40141 0.720998 0
M  V30 3293 C 317.26 -2.30688 0.071919 0
M  V30 3294 C 318.23 -1.48476 -0.744584 0
M  V30 3295 O 319.415 -1.77201 -0.707423 0
M  V30 3296 C 316.555 -3.34724 -0.839855 0
M  V30 3297 C 315.668 -4.31998 -0.0122438 0
M  V30 3298 C 314.803 -5.23102 -0.923995 0
M  V30 3299 C 313.842 -6.12033 -0.0907969 0
M  V30 3300 N 312.979 -6.95537 -0.957718 0
M  V30 3301 H 317.819 -2.85628 0.849755 0
M  V30 3302 H 315.356 -1.40653 0.430726 0
M  V30 3303 H 317.314 -3.93618 -1.38279 0
M  V30 3304 H 315.944 -2.81274 -1.58381 0
M  V30 3305 H 314.996 -3.74841 0.64794 0
M  V30 3306 H 316.308 -4.94772 0.632595 0
M  V30 3307 H 315.462 -5.86953 -1.53527 0
M  V30 3308 H 314.201 -4.60615 -1.60264 0
M  V30 3309 H 313.206 -5.47207 0.533377 0
M  V30 3310 H 314.431 -6.76581 0.584428 0
M  V30 3311 H 312.377 -6.35633 -1.62192 0
M  V30 3312 H 312.294 -7.55099 -0.36904 0
M  V30 3313 H 313.562 -7.63832 -1.555 0
M  V30 3314 N 317.792 -0.46758 -1.50504 0
M  V30 3315 C 318.755 0.317059 -2.26996 0
M  V30 3316 C 319.755 0.923513 -1.31635 0
M  V30 3317 O 320.945 0.793239 -1.55091 0
M  V30 3318 C 318.077 1.45134 -3.08462 0
M  V30 3319 H 319.27 -0.353723 -2.97807 0
M  V30 3320 H 316.823 -0.221545 -1.54722 0
M  V30 3321 H 317.558 2.15728 -2.4214 0
M  V30 3322 H 317.343 1.02232 -3.78538 0
M  V30 3323 H 318.833 2.00493 -3.66323 0
M  V30 3324 N 319.27 1.56325 -0.20005 0
M  V30 3325 C 320.2 2.22318 0.713916 0
M  V30 3326 C 321.181 1.18788 1.21752 0
M  V30 3327 O 322.366 1.47309 1.26545 0
M  V30 3328 C 319.496 2.88639 1.93144 0
M  V30 3329 C 318.45 3.98457 1.56255 0
M  V30 3330 C 317.776 4.51967 2.85709 0
M  V30 3331 C 319.076 5.16612 0.768747 0
M  V30 3332 H 320.77 2.98952 0.163755 0
M  V30 3333 H 318.316 1.43792 0.0773219 0
M  V30 3334 H 320.269 3.33491 2.57608 0
M  V30 3335 H 318.993 2.09419 2.50621 0
M  V30 3336 H 317.652 3.54305 0.941471 0
M  V30 3337 H 317.3 3.69503 3.41287 0
M  V30 3338 H 317 5.26071 2.6177 0
M  V30 3339 H 318.524 4.99523 3.51154 0
M  V30 3340 H 319.938 5.57977 1.3166 0
M  V30 3341 H 318.335 5.96812 0.627286 0
M  V30 3342 H 319.405 4.84358 -0.229168 0
M  V30 3343 N 320.748 -0.0735177 1.57428 0
M  V30 3344 C 321.68 -1.11423 2.00294 0
M  V30 3345 C 322.693 -1.35084 0.908637 0
M  V30 3346 O 323.882 -1.33355 1.18654 0
M  V30 3347 C 320.982 -2.46548 2.32523 0
M  V30 3348 C 320.155 -2.42867 3.63778 0
M  V30 3349 C 319.214 -3.60087 3.83697 0
M  V30 3350 O 318.24 -3.41595 4.55304 0
M  V30 3351 N 319.442 -4.80372 3.25919 0
M  V30 3352 H 322.207 -0.749206 2.90184 0
M  V30 3353 H 319.768 -0.262195 1.59763 0
M  V30 3354 H 321.76 -3.23607 2.43024 0
M  V30 3355 H 320.33 -2.75059 1.48531 0
M  V30 3356 H 319.55 -1.51206 3.64047 0
M  V30 3357 H 320.838 -2.37506 4.49965 0
M  V30 3358 H 320.236 -4.983 2.67795 0
M  V30 3359 H 318.793 -5.54948 3.41871 0
M  V30 3360 N 322.226 -1.5378 -0.344866 0
M  V30 3361 C 323.456 -1.74646 -1.10374 0
M  V30 3362 C 323.864 -0.48491 -1.8288 0
M  V30 3363 O 323.207 0.553062 -1.75177 0
M  V30 3364 C 323.269 -2.87145 -2.16306 0
M  V30 3365 C 322.933 -4.26795 -1.63386 0
M  V30 3366 C 323.93 -5.08412 -1.08688 0
M  V30 3367 C 321.615 -4.73276 -1.68272 0
M  V30 3368 C 323.609 -6.34609 -0.595792 0
M  V30 3369 C 321.296 -5.99446 -1.18776 0
M  V30 3370 C 322.294 -6.79946 -0.645215 0
M  V30 3371 O 321.982 -8.03745 -0.157626 0
M  V30 3372 H 321.714 -0.587112 -0.335075 0
M  V30 3373 H 324.268 -2.01403 -0.403252 0
M  V30 3374 H 322.498 -2.55909 -2.89909 0
M  V30 3375 H 324.187 -2.95992 -2.77747 0
M  V30 3376 H 324.953 -4.73666 -1.04236 0
M  V30 3377 H 320.832 -4.10677 -2.09442 0
M  V30 3378 H 324.376 -6.97389 -0.171654 0
M  V30 3379 H 320.273 -6.33687 -1.22928 0
M  V30 3380 H 321.041 -8.18038 -0.275037 0
M  V30 3381 N 323.704 0.605807 -1.45491 0
M  V30 3382 C 324.667 1.69836 -1.5391 0
M  V30 3383 C 325.667 1.55261 -0.418424 0
M  V30 3384 O 326.857 1.60296 -0.681965 0
M  V30 3385 C 323.989 3.09117 -1.43734 0
M  V30 3386 H 325.182 1.63738 -2.51257 0
M  V30 3387 H 322.735 0.821689 -1.32959 0
M  V30 3388 H 323.47 3.20791 -0.475788 0
M  V30 3389 H 323.255 3.21104 -2.25021 0
M  V30 3390 H 324.745 3.88696 -1.52661 0
M  V30 3391 N 325.182 1.32811 0.848464 0
M  V30 3392 C 326.598 1.11937 1.13764 0
M  V30 3393 C 326.798 -0.0960789 2.01271 0
M  V30 3394 O 325.854 -0.779165 2.40178 0
M  V30 3395 C 327.167 2.402 1.809 0
M  V30 3396 C 328.715 2.46016 1.93508 0
M  V30 3397 C 329.19 3.74215 2.64059 0
M  V30 3398 N 330.681 3.75232 2.71579 0
M  V30 3399 C 331.416 4.71134 3.26833 0
M  V30 3400 N 330.912 5.77406 3.8285 0
M  V30 3401 N 332.705 4.58623 3.24995 0
M  V30 3402 H 324.856 2.1073 0.265855 0
M  V30 3403 H 327.119 0.930671 0.180431 0
M  V30 3404 H 326.825 3.29093 1.24058 0
M  V30 3405 H 326.699 2.51628 2.81004 0
M  V30 3406 H 329.086 1.57577 2.49506 0
M  V30 3407 H 329.167 2.38536 0.923811 0
M  V30 3408 H 328.811 4.63031 2.08722 0
M  V30 3409 H 328.741 3.78968 3.65637 0
M  V30 3410 H 331.232 2.98423 2.31845 0
M  V30 3411 H 331.545 6.46632 4.23187 0
M  V30 3412 H 329.89 5.81152 3.81165 0
M  V30 3413 H 333.081 3.74762 2.80484 0
M  V30 3414 H 333.254 5.33535 3.67756 0
M  V30 3415 N 326.66 -1.06551 1.16123 0
M  V30 3416 C 327.592 -2.13908 0.823171 0
M  V30 3417 C 328.605 -1.61926 -0.16843 0
M  V30 3418 O 329.794 -1.78412 0.055962 0
M  V30 3419 C 326.894 -3.38283 0.204424 0
M  V30 3420 C 326.067 -4.19589 1.23548 0
M  V30 3421 C 325.126 -5.2233 0.637011 0
M  V30 3422 O 324.152 -5.54034 1.30516 0
M  V30 3423 N 325.354 -5.77621 -0.577474 0
M  V30 3424 H 328.119 -2.43508 1.74711 0
M  V30 3425 H 325.68 -1.2253 1.05821 0
M  V30 3426 H 327.672 -4.0416 -0.208909 0
M  V30 3427 H 326.242 -3.06329 -0.623012 0
M  V30 3428 H 325.462 -3.49406 1.82507 0
M  V30 3429 H 326.75 -4.70718 1.93137 0
M  V30 3430 H 326.148 -5.54125 -1.13853 0
M  V30 3431 H 324.705 -6.45087 -0.933053 0
M  V30 3432 N 328.138 -0.959301 -1.25041 0
M  V30 3433 C 329.085 -0.482057 -2.2571 0
M  V30 3434 C 330.055 0.467939 -1.59372 0
M  V30 3435 O 331.24 0.380159 -1.86974 0
M  V30 3436 C 328.38 0.229623 -3.44335 0
M  V30 3437 C 327.493 -0.758156 -4.25295 0
M  V30 3438 C 326.628 -0.0234403 -5.31195 0
M  V30 3439 C 325.667 -1.00184 -6.03846 0
M  V30 3440 N 324.804 -0.29769 -7.01469 0
M  V30 3441 H 329.644 -1.34538 -2.65901 0
M  V30 3442 H 327.181 -0.674592 -1.3072 0
M  V30 3443 H 329.139 0.658856 -4.11965 0
M  V30 3444 H 327.769 1.05696 -3.05005 0
M  V30 3445 H 326.821 -1.30586 -3.57284 0
M  V30 3446 H 328.133 -1.50458 -4.75567 0
M  V30 3447 H 327.287 0.464201 -6.04922 0
M  V30 3448 H 326.026 0.755741 -4.81809 0
M  V30 3449 H 325.031 -1.50044 -5.2893 0
M  V30 3450 H 326.256 -1.78133 -6.55321 0
M  V30 3451 H 324.202 0.462668 -6.54366 0
M  V30 3452 H 324.119 -0.983128 -7.4958 0
M  V30 3453 H 325.387 0.16826 -7.79318 0
M  V30 3454 N 329.616 1.39756 -0.72842 0
M  V30 3455 C 330.546 2.33289 -0.0991354 0
M  V30 3456 C 331.527 1.53568 0.731489 0
M  V30 3457 O 332.712 1.81987 0.677807 0
M  V30 3458 C 329.842 3.3763 0.813834 0
M  V30 3459 C 328.796 4.2791 0.0878663 0
M  V30 3460 C 328.122 5.22894 1.11741 0
M  V30 3461 C 329.422 5.11314 -1.06563 0
M  V30 3462 H 331.116 2.86163 -0.880408 0
M  V30 3463 H 328.662 1.37591 -0.424819 0
M  V30 3464 H 330.615 4.0201 1.26355 0
M  V30 3465 H 329.339 2.83181 1.62715 0
M  V30 3466 H 327.998 3.65 -0.342159 0
M  V30 3467 H 327.646 4.64744 1.92412 0
M  V30 3468 H 327.346 5.84143 0.636477 0
M  V30 3469 H 328.87 5.90151 1.56697 0
M  V30 3470 H 330.284 5.69076 -0.694671 0
M  V30 3471 H 328.681 5.81671 -1.47577 0
M  V30 3472 H 329.751 4.46534 -1.89038 0
M  V30 3473 N 331.094 0.475555 1.50254 0
M  V30 3474 C 332.057 -0.305016 2.27161 0
M  V30 3475 C 333.057 -0.916519 1.32123 0
M  V30 3476 O 334.247 -0.785003 1.5551 0
M  V30 3477 C 331.379 -1.43496 3.09227 0
M  V30 3478 H 332.572 0.369511 2.97615 0
M  V30 3479 H 330.125 0.229747 1.54602 0
M  V30 3480 H 330.86 -2.14441 2.43281 0
M  V30 3481 H 330.645 -1.00223 3.79075 0
M  V30 3482 H 332.135 -1.98548 3.67381 0
M  V30 3483 N 332.573 -1.56217 0.208337 0
M  V30 3484 C 333.503 -2.22694 -0.702116 0
M  V30 3485 C 334.484 -1.19432 -1.2112 0
M  V30 3486 O 335.669 -1.47978 -1.25762 0
M  V30 3487 C 332.799 -2.8966 -1.9161 0
M  V30 3488 C 331.753 -3.9928 -1.5414 0
M  V30 3489 C 331.079 -4.53476 -2.83308 0
M  V30 3490 C 332.379 -5.17012 -0.741339 0
M  V30 3491 H 334.073 -2.99034 -0.147898 0
M  V30 3492 H 331.619 -1.43831 -0.0696951 0
M  V30 3493 H 333.572 -3.34852 -2.55836 0
M  V30 3494 H 332.296 -2.10746 -2.49507 0
M  V30 3495 H 330.955 -3.54799 -0.922668 0
M  V30 3496 H 330.603 -3.71308 -3.39322 0
M  V30 3497 H 330.303 -5.27451 -2.58976 0
M  V30 3498 H 331.827 -5.01378 -3.485 0
M  V30 3499 H 333.241 -5.58667 -1.28699 0
M  V30 3500 H 331.638 -5.97137 -0.595627 0
M  V30 3501 H 332.708 -4.8423 0.254851 0
M  V30 3502 N 334.051 0.0651679 -1.57465 0
M  V30 3503 C 335.014 1.06117 -2.03155 0
M  V30 3504 C 336.014 1.31204 -0.929632 0
M  V30 3505 O 337.204 1.26813 -1.19432 0
M  V30 3506 C 334.336 2.4032 -2.41783 0
M  V30 3507 H 335.529 0.667231 -2.92383 0
M  V30 3508 H 333.082 0.311075 -1.53173 0
M  V30 3509 H 333.817 2.84532 -1.55601 0
M  V30 3510 H 333.602 2.23451 -3.22199 0
M  V30 3511 H 335.092 3.11898 -2.77685 0
M  V30 3512 O 335.568 1.60146 0.208664 0
M  V30 3513 H 336.259 1.74115 0.848742 0
M  V30 END ATOM
M  V30 BEGIN BOND
M  V30 END BOND
M  V30 END CTAB
M  END
$$$$
