drugbank_target|Q16445 Gamma-aminobutyric acid receptor subunit alpha-6 (DB00186; DB00189; DB00228; DB00231; DB00237; DB00241; DB00252; DB00292; DB00306; DB00312; DB00349; DB00371; DB00402; DB00404; DB00463; DB00475; DB00543; DB00546; DB00555; DB00603; DB00628; DB00659; DB00683; DB00690; DB00753; DB00794; DB00801; DB00818; DB00829; DB00842; DB00897; DB01028; DB01043; DB01068; DB01107; DB01159; DB01189; DB01205; DB01215; DB01236; DB01437; DB01489; DB01511; DB01544; DB01545; DB01553; DB01558; DB01559; DB01587; DB01588; DB01589; DB01594; DB01595; DB01708; DB01956; DB09017; DB09118; DB09166; DB11582; DB11859; DB11901; DB12404; DB12537; DB13335; DB13437; DB13643; DB13837; DB13872; DB14028; DB14672; DB14715; DB14719; DB15489)
 OpenBabel12092119393D

  0  0  0     0  0            999 V3000
M  V30 BEGIN CTAB
M  V30 COUNTS 7216 7310 0 0 0
M  V30 BEGIN ATOM
M  V30 1 H -0.908 1.98254 -0.117106 0
M  V30 2 N 0 1.576 0 0
M  V30 3 C 0.933 2.03868 1.02534 0
M  V30 4 C 1.911 0.928543 1.3348 0
M  V30 5 O 3.095 1.19667 1.45644 0
M  V30 6 C 0.222 2.43627 2.35294 0
M  V30 7 C -0.732 3.65373 2.2001 0
M  V30 8 S 0.101 5.13292 1.52614 0
M  V30 9 C 1.257 5.56322 2.86805 0
M  V30 10 H 1.49 2.90518 0.631377 0
M  V30 11 H -0.977 1.52953 0.210867 0
M  V30 12 H 0.981 2.67203 3.11629 0
M  V30 13 H -0.358 1.57376 2.7183 0
M  V30 14 H -1.165 3.90944 3.18086 0
M  V30 15 H -1.563 3.418 1.51819 0
M  V30 16 H 0.729 5.58782 3.83104 0
M  V30 17 H 1.672 6.56266 2.65933 0
M  V30 18 H 2.08 4.83886 2.90714 0
M  V30 19 N 1.4781 -0.272755 1.55222 0
M  V30 20 C 2.4411 -1.32041 1.87344 0
M  V30 21 C 3.4411 -1.42342 0.74803 0
M  V30 22 O 4.6311 -1.41488 1.0162 0
M  V30 23 C 1.7631 -2.70173 2.07893 0
M  V30 24 H 2.9561 -1.04789 2.80997 0
M  V30 25 H 0.5091 -0.51083 1.47717 0
M  V30 26 H 1.2441 -3.02605 1.16622 0
M  V30 27 H 1.0291 -2.64082 2.89833 0
M  V30 28 H 2.5191 -3.45869 2.34017 0
M  V30 29 N 2.9562 -1.48159 -0.537278 0
M  V30 30 C 4.1812 -1.59707 -1.32319 0
M  V30 31 C 4.6062 -0.254859 -1.86365 0
M  V30 32 O 3.9642 0.772378 -1.64024 0
M  V30 33 C 4.0122 -2.6412 -2.45505 0
M  V30 34 O 3.1162 -2.20774 -3.48328 0
M  V30 35 H 2.4572 -0.535791 -0.392204 0
M  V30 36 H 4.9872 -1.94092 -0.647268 0
M  V30 37 H 4.9972 -2.85166 -2.91795 0
M  V30 38 H 3.6722 -3.61567 -2.05528 0
M  V30 39 H 2.2492 -2.09911 -3.08207 0
M  V30 40 N 4.4343 0.785586 -1.36625 0
M  V30 41 C 5.6593 1.57963 -1.34397 0
M  V30 42 C 6.0843 1.87964 0.071526 0
M  V30 43 O 5.4423 1.48182 1.0446 0
M  V30 44 C 5.4903 2.87511 -2.17646 0
M  V30 45 O 4.5943 3.81281 -1.57158 0
M  V30 46 H 3.9353 0.479014 -0.459828 0
M  V30 47 H 6.4653 0.973411 -1.79961 0
M  V30 48 H 6.4753 3.36745 -2.30362 0
M  V30 49 H 5.1503 2.65002 -3.20541 0
M  V30 50 H 3.7273 3.39885 -1.53403 0
M  V30 51 N 5.9124 1.20967 1.01018 0
M  V30 52 C 6.8424 0.988272 2.11555 0
M  V30 53 C 7.8234 -0.0849778 1.69888 0
M  V30 54 O 9.0084 0.0738202 1.9406 0
M  V30 55 C 6.1384 0.546528 3.42973 0
M  V30 56 C 5.0924 1.56375 3.9841 0
M  V30 57 C 4.4184 0.97842 5.25672 0
M  V30 58 C 5.7184 2.94922 4.31066 0
M  V30 59 H 7.4124 1.91276 2.30334 0
M  V30 60 H 4.9584 0.921073 1.1069 0
M  V30 61 H 6.9114 0.378839 4.19694 0
M  V30 62 H 5.6354 -0.413598 3.23971 0
M  V30 63 H 4.2944 1.71891 3.23804 0
M  V30 64 H 3.9424 0.0101688 5.02999 0
M  V30 65 H 3.6424 1.65784 5.63728 0
M  V30 66 H 5.1664 0.821939 6.05043 0
M  V30 67 H 6.5804 2.8288 4.9865 0
M  V30 68 H 4.9774 3.5983 4.80253 0
M  V30 69 H 6.0474 3.4616 3.39561 0
M  V30 70 N 7.3905 -1.2043 1.01659 0
M  V30 71 C 8.8015 -1.71517 0.737482 0
M  V30 72 C 9.1525 -1.81547 -0.743973 0
M  V30 73 O 8.2775 -1.47803 -1.58061 0
M  V30 74 C 8.8725 -3.11515 1.33206 0
M  V30 75 C 7.4315 -3.59912 1.10183 0
M  V30 76 C 6.5785 -2.37116 1.43776 0
M  V30 77 H 9.5295 -1.05444 1.18606 0
M  V30 78 H 9.5505 -3.73575 0.722636 0
M  V30 79 H 9.0625 -3.04182 2.41028 0
M  V30 80 H 7.1635 -3.72577 0.0412756 0
M  V30 81 H 7.2765 -4.44731 1.78188 0
M  V30 82 H 5.6405 -2.39857 0.856778 0
M  V30 83 H 6.4235 -2.32424 2.52654 0
M  V30 84 N 8.8686 -0.792821 -1.36206 0
M  V30 85 C 10.1146 -0.376415 -1.99887 0
M  V30 86 C 10.4696 1.04127 -1.61788 0
M  V30 87 O 9.7626 1.71004 -0.864193 0
M  V30 88 C 9.9566 -0.481501 -3.54142 0
M  V30 89 C 9.7856 -1.90786 -4.07223 0
M  V30 90 C 8.5556 -2.53322 -4.37214 0
M  V30 91 C 10.7536 -2.87048 -4.26741 0
M  V30 92 N 8.7356 -3.8751 -4.7614 0
M  V30 93 C 10.1066 -4.06077 -4.6851 0
M  V30 94 C 12.1616 -2.8406 -4.08918 0
M  V30 95 C 10.8646 -5.22532 -4.94321 0
M  V30 96 C 12.8906 -3.99705 -4.35878 0
M  V30 97 C 12.2526 -5.1748 -4.77906 0
M  V30 98 H 8.3516 -0.185226 -0.759747 0
M  V30 99 H 10.9356 -1.03114 -1.65153 0
M  V30 100 H 9.1066 0.143154 -3.88136 0
M  V30 101 H 10.8386 -0.0410128 -4.04679 0
M  V30 102 H 7.5936 -2.04777 -4.2704 0
M  V30 103 H 8.0176 -4.5656 -4.99882 0
M  V30 104 H 12.6596 -1.94165 -3.75579 0
M  V30 105 H 10.3776 -6.1301 -5.2654 0
M  V30 106 H 13.9636 -3.98758 -4.23655 0
M  V30 107 H 12.8436 -6.05478 -4.98363 0
M  V30 108 N 10.3467 1.47872 -0.545128 0
M  V30 109 C 11.2767 2.32661 0.197793 0
M  V30 110 C 12.2577 1.43041 0.920504 0
M  V30 111 O 13.4427 1.71912 0.90333 0
M  V30 112 C 10.5727 3.24569 1.23582 0
M  V30 113 C 9.5267 4.23333 0.630323 0
M  V30 114 C 8.8527 5.0448 1.77211 0
M  V30 115 C 10.1527 5.20704 -0.407974 0
M  V30 116 H 11.8467 2.95024 -0.510045 0
M  V30 117 H 9.3927 1.4187 -0.246731 0
M  V30 118 H 11.3457 3.8272 1.76362 0
M  V30 119 H 10.0697 2.60236 1.97344 0
M  V30 120 H 8.7287 3.6639 0.123922 0
M  V30 121 H 8.3767 4.36561 2.49847 0
M  V30 122 H 8.0767 5.71339 1.37281 0
M  V30 123 H 9.6007 5.65487 2.3034 0
M  V30 124 H 11.0147 5.7329 0.033305 0
M  V30 125 H 9.4117 5.95699 -0.725486 0
M  V30 126 H 10.4817 4.66917 -1.30828 0
M  V30 127 N 11.8248 0.280983 1.55075 0
M  V30 128 C 13.0648 -0.335234 2.01632 0
M  V30 129 C 13.4288 -1.5261 1.16508 0
M  V30 130 O 14.6298 -2.21235 1.52672 0
M  V30 131 C 12.9008 -0.702172 3.50434 0
M  V30 132 S 14.4598 -1.30409 4.18974 0
M  V30 133 H 11.2778 -0.103967 0.703358 0
M  V30 134 H 13.8798 0.404187 1.91276 0
M  V30 135 H 12.5838 0.17333 4.10034 0
M  V30 136 H 12.1148 -1.4729 3.64786 0
M  V30 137 H 14.1298 -2.59253 4.23087 0
M  V30 138 N 13.3029 -1.57598 0.00835791 0
M  V30 139 C 14.5519 -1.90107 -0.673968 0
M  V30 140 C 14.8649 -0.884275 -1.7447 0
M  V30 141 O 16.0709 -1.09987 -2.48224 0
M  V30 142 C 14.5269 -3.37497 -1.24995 0
M  V30 143 C 14.1349 -4.47491 -0.2136 0
M  V30 144 C 15.8789 -3.79104 -1.90999 0
M  V30 145 C 13.7859 -5.85963 -0.80005 0
M  V30 146 H 12.7159 -0.709393 -0.255495 0
M  V30 147 H 15.3669 -1.83365 0.0702693 0
M  V30 148 H 13.7489 -3.39102 -2.04513 0
M  V30 149 H 14.9229 -4.57414 0.557596 0
M  V30 150 H 13.2379 -4.14956 0.346474 0
M  V30 151 H 15.8349 -4.79901 -2.35795 0
M  V30 152 H 16.1779 -3.1306 -2.74407 0
M  V30 153 H 16.7109 -3.79833 -1.18203 0
M  V30 154 H 13.4499 -6.555 -0.00456708 0
M  V30 155 H 12.9699 -5.79687 -1.54021 0
M  V30 156 H 14.6489 -6.33884 -1.29615 0
M  V30 157 N 14.781 0.264519 -1.55364 0
M  V30 158 C 16.03 0.992812 -1.75574 0
M  V30 159 C 16.343 1.87142 -0.568979 0
M  V30 160 O 17.549 2.63513 -0.653682 0
M  V30 161 C 16.005 1.81519 -3.10771 0
M  V30 162 C 15.613 0.984839 -4.37041 0
M  V30 163 C 17.357 2.53727 -3.40327 0
M  V30 164 C 15.264 1.80209 -5.63275 0
M  V30 165 H 14.194 0.374412 -0.65447 0
M  V30 166 H 16.845 0.248138 -1.81815 0
M  V30 167 H 15.227 2.60115 -2.98591 0
M  V30 168 H 16.401 0.242455 -4.60162 0
M  V30 169 H 14.716 0.37691 -4.14691 0
M  V30 170 H 17.313 3.15292 -4.3185 0
M  V30 171 H 17.656 3.24447 -2.60845 0
M  V30 172 H 18.189 1.82156 -3.53644 0
M  V30 173 H 14.928 1.13896 -6.45529 0
M  V30 174 H 14.448 2.52022 -5.44284 0
M  V30 175 H 16.127 2.37364 -6.01887 0
M  V30 176 N 16.2591 1.48442 0.529413 0
M  V30 177 C 17.1891 1.65902 1.64313 0
M  V30 178 C 18.1701 0.507897 1.6234 0
M  V30 179 O 19.3551 0.740503 1.79528 0
M  V30 180 C 16.4851 1.69911 3.02898 0
M  V30 181 C 15.4391 2.8453 3.19729 0
M  V30 182 C 14.7651 2.73629 4.59381 0
M  V30 183 C 16.0651 4.25821 3.02447 0
M  V30 184 H 17.7591 2.5914 1.49955 0
M  V30 185 H 15.3051 1.24709 0.719982 0
M  V30 186 H 17.2581 1.80715 3.80684 0
M  V30 187 H 15.9821 0.732524 3.18279 0
M  V30 188 H 14.6411 2.73283 2.44361 0
M  V30 189 H 14.2891 1.74938 4.71599 0
M  V30 190 H 13.9891 3.50541 4.71588 0
M  V30 191 H 15.5131 2.86401 5.39265 0
M  V30 192 H 16.9271 4.37898 3.70024 0
M  V30 193 H 15.3241 5.03735 3.26146 0
M  V30 194 H 16.3941 4.42244 1.98867 0
M  V30 195 N 17.7372 -0.778329 1.37039 0
M  V30 196 C 18.9832 -1.53817 1.33086 0
M  V30 197 C 19.3382 -1.92208 -0.0860346 0
M  V30 198 O 18.6312 -1.60713 -1.04316 0
M  V30 199 C 18.8252 -2.81845 2.19768 0
M  V30 200 C 18.6542 -2.55967 3.69744 0
M  V30 201 C 17.4242 -2.50428 4.38878 0
M  V30 202 C 19.6222 -2.2441 4.62758 0
M  V30 203 N 17.6042 -2.16564 5.74433 0
M  V30 204 C 18.9752 -2.0063 5.86641 0
M  V30 205 C 21.0302 -2.1051 4.5121 0
M  V30 206 C 19.7332 -1.64354 7.00272 0
M  V30 207 C 21.7592 -1.75634 5.64718 0
M  V30 208 C 21.1212 -1.52709 6.87648 0
M  V30 209 H 17.2202 -0.563434 0.542279 0
M  V30 210 H 19.8042 -0.908617 1.72198 0
M  V30 211 H 17.9752 -3.42649 1.82883 0
M  V30 212 H 19.7072 -3.47682 2.07122 0
M  V30 213 H 16.4622 -2.66056 3.91805 0
M  V30 214 H 16.8862 -2.02348 6.46053 0
M  V30 215 H 21.5282 -2.26919 3.56746 0
M  V30 216 H 19.2462 -1.46683 7.94676 0
M  V30 217 H 22.8322 -1.65546 5.57751 0
M  V30 218 H 21.7122 -1.2612 7.73992 0
M  V30 219 N 19.2153 -1.21501 -1.00376 0
M  V30 220 C 20.1453 -0.999478 -2.11028 0
M  V30 221 C 21.1263 0.0759671 -1.6993 0
M  V30 222 O 22.3113 -0.0841106 -1.94018 0
M  V30 223 C 19.4413 -0.564709 -3.42678 0
M  V30 224 C 18.3953 -1.58486 -3.97576 0
M  V30 225 C 17.7213 -1.00628 -5.25146 0
M  V30 226 C 19.0213 -2.97204 -4.29496 0
M  V30 227 H 20.7153 -1.92495 -2.29317 0
M  V30 228 H 18.2613 -0.92693 -1.102 0
M  V30 229 H 20.2143 -0.401091 -4.19487 0
M  V30 230 H 18.9383 0.396411 -3.24185 0
M  V30 231 H 17.5973 -1.73606 -3.22888 0
M  V30 232 H 17.2453 -0.0368439 -5.02987 0
M  V30 233 H 16.9453 -1.68771 -5.62841 0
M  V30 234 H 18.4693 -0.854015 -6.04598 0
M  V30 235 H 19.8833 -2.8552 -4.97143 0
M  V30 236 H 18.2803 -3.62372 -4.78338 0
M  V30 237 H 19.3503 -3.47956 -3.3772 0
M  V30 238 N 20.6934 1.19889 -1.02296 0
M  V30 239 C 21.6034 2.26571 -0.608508 0
M  V30 240 C 22.6194 1.70299 0.356964 0
M  V30 241 O 23.7954 2.00235 0.216326 0
M  V30 242 C 20.8604 3.46677 0.0402814 0
M  V30 243 C 19.9214 4.18153 -0.97194 0
M  V30 244 C 19.1544 5.32525 -0.354016 0
M  V30 245 O 19.3774 5.64112 0.844604 0
M  V30 246 O 18.3114 5.92242 -1.07391 0
M  V30 247 H 22.1374 2.64251 -1.49684 0
M  V30 248 H 19.7224 1.26629 -0.792809 0
M  V30 249 H 21.6044 4.19475 0.402324 0
M  V30 250 H 20.2794 3.10858 0.902707 0
M  V30 251 H 19.1864 3.47499 -1.38546 0
M  V30 252 H 20.5194 4.57927 -1.80454 0
M  V30 253 N 22.1715 0.800033 1.35784 0
M  V30 254 C 23.1195 0.193851 2.31791 0
M  V30 255 C 24.1135 -0.652744 1.56319 0
M  V30 256 O 25.3195 -0.546641 1.71499 0
M  V30 257 H 21.6945 0.04392 0.750716 0
M  V30 258 H 23.6655 1.01883 2.80468 0
M  V30 259 C 22.4145 -0.648338 3.41602 0
M  V30 260 H 21.7375 -0.00624665 3.998 0
M  V30 261 H 23.1775 -1.03898 4.11073 0
M  V30 262 C 21.6365 -1.8111 2.84079 0
M  V30 263 O 22.1665 -2.90825 2.77099 0
M  V30 264 N 20.3725 -1.62056 2.41218 0
M  V30 265 H 19.9195 -0.728123 2.47095 0
M  V30 266 H 19.8775 -2.40013 2.03079 0
M  V30 267 N 23.6496 -1.47581 0.552962 0
M  V30 268 C 24.6126 -2.28439 -0.186605 0
M  V30 269 C 25.6126 -1.36706 -0.84665 0
M  V30 270 O 26.8026 -1.59378 -0.703164 0
M  V30 271 C 23.9346 -3.16264 -1.2724 0
M  V30 272 H 25.1276 -2.95294 0.523609 0
M  V30 273 H 22.6806 -1.532 0.309745 0
M  V30 274 H 23.4156 -2.54091 -2.01514 0
M  V30 275 H 23.2006 -3.83769 -0.803968 0
M  V30 276 H 24.6906 -3.77198 -1.79196 0
M  V30 277 N 25.1277 -0.289203 -1.54924 0
M  V30 278 C 26.0577 0.58549 -2.2604 0
M  V30 279 C 27.0387 1.14753 -1.25562 0
M  V30 280 O 28.2237 1.17906 -1.54311 0
M  V30 281 C 25.3537 1.76305 -2.99222 0
M  V30 282 C 24.3077 1.33191 -4.06748 0
M  V30 283 C 23.6337 2.5937 -4.6758 0
M  V30 284 C 24.9337 0.471775 -5.20165 0
M  V30 285 H 26.6277 -0.00763532 -2.99399 0
M  V30 286 H 24.1737 -0.00511229 -1.43999 0
M  V30 287 H 26.1267 2.38097 -3.47689 0
M  V30 288 H 24.8507 2.38223 -2.23422 0
M  V30 289 H 23.5097 0.737121 -3.59113 0
M  V30 290 H 23.1577 3.19576 -3.88433 0
M  V30 291 H 22.8577 2.31228 -5.40192 0
M  V30 292 H 24.3817 3.21985 -5.18804 0
M  V30 293 H 25.7957 0.995056 -5.64599 0
M  V30 294 H 24.1927 0.284639 -5.99425 0
M  V30 295 H 25.2627 -0.506041 -4.82252 0
M  V30 296 N 26.6058 1.57591 -0.0167156 0
M  V30 297 C 27.8538 1.90906 0.663285 0
M  V30 298 C 28.1748 0.892509 1.73376 0
M  V30 299 O 27.4448 -0.0677623 1.95783 0
M  V30 300 H 26.0248 0.704637 0.247983 0
M  V30 301 H 28.6868 1.94803 -0.0615909 0
M  V30 302 H 27.7828 2.9116 1.12393 0
M  V30 303 N 28.0839 -0.256276 1.55502 0
M  V30 304 C 29.0309 -1.31714 1.89526 0
M  V30 305 C 30.0009 -1.4828 0.748479 0
M  V30 306 O 31.1859 -1.62416 1.00128 0
M  V30 307 C 28.3259 -2.66933 2.18725 0
M  V30 308 C 27.4389 -2.58452 3.4616 0
M  V30 309 C 26.5739 -3.85961 3.64976 0
M  V30 310 C 25.6129 -3.72059 4.86044 0
M  V30 311 N 24.7499 -4.9144 5.01429 0
M  V30 312 H 29.5899 -1.01998 2.80001 0
M  V30 313 H 27.1269 -0.492413 1.38613 0
M  V30 314 H 29.0849 -3.4563 2.33657 0
M  V30 315 H 27.7149 -2.94816 1.31466 0
M  V30 316 H 26.7669 -1.71374 3.3961 0
M  V30 317 H 28.0789 -2.44085 4.34999 0
M  V30 318 H 27.2329 -4.73101 3.79816 0
M  V30 319 H 25.9719 -4.03215 2.74353 0
M  V30 320 H 24.9769 -2.83302 4.7119 0
M  V30 321 H 26.2019 -3.56309 5.78118 0
M  V30 322 H 24.1479 -5.09072 4.13741 0
M  V30 323 H 24.0649 -4.79668 5.84341 0
M  V30 324 H 25.3329 -5.80104 5.20672 0
M  V30 325 N 29.562 -1.4872 -0.521534 0
M  V30 326 C 30.492 -1.66771 -1.63431 0
M  V30 327 C 31.473 -0.516499 -1.62069 0
M  V30 328 O 32.658 -0.750013 -1.79132 0
M  V30 329 C 29.788 -1.71515 -3.01993 0
M  V30 330 C 28.742 -2.86222 -3.18216 0
M  V30 331 C 28.068 -2.76061 -4.57924 0
M  V30 332 C 29.368 -4.27419 -3.00184 0
M  V30 333 H 31.062 -2.59932 -1.48579 0
M  V30 334 H 28.608 -1.25089 -0.713358 0
M  V30 335 H 30.561 -1.82731 -3.7972 0
M  V30 336 H 29.285 -0.749393 -3.17886 0
M  V30 337 H 27.944 -2.74575 -2.42908 0
M  V30 338 H 27.592 -1.77437 -4.70665 0
M  V30 339 H 27.292 -3.53037 -4.69722 0
M  V30 340 H 28.816 -2.89256 -5.37739 0
M  V30 341 H 30.23 -4.39855 -3.67697 0
M  V30 342 H 28.627 -5.05458 -3.2347 0
M  V30 343 H 29.697 -4.43293 -1.96518 0
M  V30 344 N 31.0401 0.771051 -1.3745 0
M  V30 345 C 31.9501 1.91538 -1.35464 0
M  V30 346 C 32.9661 1.72134 -0.254123 0
M  V30 347 O 34.1421 1.95358 -0.489626 0
M  V30 348 C 31.2071 3.26671 -1.16134 0
M  V30 349 C 30.2681 3.58723 -2.35831 0
M  V30 350 C 29.5011 4.87409 -2.17413 0
M  V30 351 O 29.7241 5.58506 -1.15876 0
M  V30 352 O 28.6581 5.18539 -3.05615 0
M  V30 353 H 32.4841 1.96165 -2.31847 0
M  V30 354 H 30.0691 0.9139 -1.18187 0
M  V30 355 H 31.9511 4.07499 -1.07345 0
M  V30 356 H 30.6261 3.22894 -0.228251 0
M  V30 357 H 29.5331 2.78127 -2.50192 0
M  V30 358 H 30.8661 3.67243 -3.27709 0
M  V30 359 N 32.5182 1.22032 0.997298 0
M  V30 360 C 33.7642 1.04376 1.73878 0
M  V30 361 C 34.0972 -0.420716 1.89588 0
M  V30 362 O 33.3722 -1.31202 1.43583 0
M  V30 363 C 33.6552 1.75047 3.14691 0
M  V30 364 C 33.5082 3.29062 3.06656 0
M  V30 365 C 34.8272 1.49928 4.13775 0
M  V30 366 H 31.9462 0.380578 0.631133 0
M  V30 367 H 34.5882 1.50312 1.16217 0
M  V30 368 H 32.7382 1.35996 3.63919 0
M  V30 369 H 34.4102 3.7753 2.65083 0
M  V30 370 H 32.6532 3.58967 2.43568 0
M  V30 371 H 33.3242 3.73683 4.06282 0
M  V30 372 H 35.8002 1.83842 3.73285 0
M  V30 373 H 34.6762 2.01878 5.10428 0
M  V30 374 H 34.9372 0.430929 4.39995 0
M  V30 375 N 33.9963 -1.19345 1.0293 0
M  V30 376 C 34.9063 -2.26245 0.620515 0
M  V30 377 C 35.9223 -1.70486 -0.347928 0
M  V30 378 O 37.0983 -2.00347 -0.205704 0
M  V30 379 C 34.1633 -3.46693 -0.0218957 0
M  V30 380 C 33.2243 -4.17632 0.994102 0
M  V30 381 C 32.4573 -5.32329 0.382253 0
M  V30 382 O 32.6803 -5.64552 -0.814676 0
M  V30 383 O 31.6143 -5.91664 1.10531 0
M  V30 384 H 35.4403 -2.63453 1.51083 0
M  V30 385 H 33.0253 -1.26207 0.799513 0
M  V30 386 H 34.9073 -4.19683 -0.380072 0
M  V30 387 H 33.5823 -3.11333 -0.886209 0
M  V30 388 H 32.4893 -3.4676 1.40387 0
M  V30 389 H 33.8223 -4.56964 1.8288 0
M  V30 390 N 35.4744 -0.807222 -1.35358 0
M  V30 391 C 36.7224 -0.387122 -1.98358 0
M  V30 392 C 37.0434 1.04942 -1.64354 0
M  V30 393 O 36.3134 1.72615 -0.926339 0
M  V30 394 H 34.8934 -0.140154 -0.733734 0
M  V30 395 H 37.5554 -1.0332 -1.6526 0
M  V30 396 H 36.6514 -0.493352 -3.08176 0
M  V30 397 N 36.9525 1.47285 -0.560781 0
M  V30 398 C 37.9005 2.31756 0.197942 0
M  V30 399 C 38.8945 1.43146 0.905854 0
M  V30 400 O 40.1005 1.59891 0.826733 0
M  V30 401 H 36.4755 0.747438 0.0827049 0
M  V30 402 H 38.4465 2.9359 -0.533629 0
M  V30 403 C 37.1955 3.25874 1.21249 0
M  V30 404 H 36.5185 3.94023 0.67719 0
M  V30 405 H 37.9585 3.87803 1.71419 0
M  V30 406 C 36.4175 2.49651 2.26221 0
M  V30 407 O 36.9475 2.24355 3.33208 0
M  V30 408 N 35.1535 2.10597 2.00243 0
M  V30 409 H 34.7005 2.31369 1.13252 0
M  V30 410 H 34.6585 1.59913 2.70694 0
M  V30 411 N 38.4306 0.297415 1.54768 0
M  V30 412 C 39.6776 -0.312913 2.00068 0
M  V30 413 C 40.0056 -1.54171 1.18582 0
M  V30 414 O 39.2606 -1.94108 0.249133 0
M  V30 415 C 39.5596 -0.717561 3.50123 0
M  V30 416 C 39.2256 0.409095 4.4904 0
M  V30 417 C 37.8876 0.718399 4.75807 0
M  V30 418 C 40.2396 1.16717 5.07963 0
M  V30 419 C 37.5676 1.78896 5.5876 0
M  V30 420 C 39.9196 2.22762 5.92081 0
M  V30 421 C 38.5836 2.54303 6.1716 0
M  V30 422 H 37.8536 -0.114503 0.7321 0
M  V30 423 H 40.5006 0.415767 1.86932 0
M  V30 424 H 38.8056 -1.52627 3.60849 0
M  V30 425 H 40.5026 -1.20091 3.82595 0
M  V30 426 H 37.0926 0.157918 4.28309 0
M  V30 427 H 41.2766 0.941466 4.87289 0
M  V30 428 H 36.5326 2.0381 5.7643 0
M  V30 429 H 40.7066 2.81962 6.36765 0
M  V30 430 H 38.3336 3.3739 6.81229 0
M  V30 431 N 39.9087 -1.5758 0.0250728 0
M  V30 432 C 41.1387 -1.95646 -0.663783 0
M  V30 433 C 41.5467 -0.899935 -1.66427 0
M  V30 434 O 40.8897 0.127191 -1.83259 0
M  V30 435 C 40.9517 -3.29835 -1.43 0
M  V30 436 C 40.6157 -4.53197 -0.588305 0
M  V30 437 C 41.6127 -5.19726 0.13469 0
M  V30 438 C 39.2977 -4.99529 -0.526897 0
M  V30 439 C 41.2917 -6.30902 0.90781 0
M  V30 440 C 38.9787 -6.10589 0.24993 0
M  V30 441 C 39.9767 -6.76134 0.965994 0
M  V30 442 O 39.6647 -7.85062 1.7301 0
M  V30 443 H 39.3967 -0.649282 -0.188174 0
M  V30 444 H 41.9507 -2.05245 0.0799006 0
M  V30 445 H 40.1807 -3.16716 -2.21873 0
M  V30 446 H 41.8697 -3.52833 -2.00658 0
M  V30 447 H 42.6357 -4.84904 0.0965562 0
M  V30 448 H 38.5147 -4.48319 -1.07381 0
M  V30 449 H 42.0587 -6.81995 1.46724 0
M  V30 450 H 37.9557 -6.44849 0.289795 0
M  V30 451 H 38.7237 -8.01708 1.64944 0
M  V30 452 N 41.3868 0.248026 -1.55636 0
M  V30 453 C 42.6118 0.998028 -1.81808 0
M  V30 454 C 43.0368 1.78207 -0.601979 0
M  V30 455 O 42.3948 1.75653 0.448961 0
M  V30 456 C 42.4428 1.9125 -3.05705 0
M  V30 457 O 41.5468 3.00406 -2.82542 0
M  V30 458 H 40.8878 0.284045 -0.600179 0
M  V30 459 H 43.4178 0.269357 -2.02819 0
M  V30 460 H 43.4278 2.32737 -3.35108 0
M  V30 461 H 42.1028 1.33602 -3.93857 0
M  V30 462 H 40.6798 2.63056 -2.64303 0
M  V30 463 N 42.8649 1.48995 0.513639 0
M  V30 464 C 43.7749 1.67443 1.64317 0
M  V30 465 C 44.7909 0.556947 1.64846 0
M  V30 466 O 45.9669 0.830082 1.83498 0
M  V30 467 C 43.0319 1.72515 3.00732 0
M  V30 468 C 42.0929 2.96009 3.1093 0
M  V30 469 C 41.3259 3.00829 4.40837 0
M  V30 470 O 41.5489 2.13594 5.28898 0
M  V30 471 O 40.4829 3.93168 4.55744 0
M  V30 472 H 44.3089 2.63106 1.51687 0
M  V30 473 H 41.8939 1.32588 0.688543 0
M  V30 474 H 43.7759 1.78277 3.81831 0
M  V30 475 H 42.4509 0.800278 3.13651 0
M  V30 476 H 41.3579 2.9577 2.29065 0
M  V30 477 H 42.6909 3.87934 3.02933 0
M  V30 478 N 44.343 -0.763751 1.37857 0
M  V30 479 C 45.291 -1.89864 1.34367 0
M  V30 480 C 46.285 -1.67816 0.231143 0
M  V30 481 O 47.491 -1.75508 0.399617 0
M  V30 482 H 43.866 -0.624501 0.41893 0
M  V30 483 H 45.837 -1.89925 2.30155 0
M  V30 484 C 44.586 -3.27227 1.1755 0
M  V30 485 H 43.909 -3.44773 2.02414 0
M  V30 486 H 45.349 -4.06911 1.1916 0
M  V30 487 C 43.808 -3.36692 -0.118311 0
M  V30 488 O 44.338 -3.86374 -1.09902 0
M  V30 489 N 42.544 -2.90092 -0.171717 0
M  V30 490 H 42.091 -2.49853 0.627012 0
M  V30 491 H 42.049 -2.96806 -1.03699 0
M  V30 492 N 45.8211 -1.22559 -0.990812 0
M  V30 493 C 47.0671 -1.05297 -1.73322 0
M  V30 494 C 47.4001 0.410655 -1.89808 0
M  V30 495 O 46.6751 1.30439 -1.44277 0
M  V30 496 C 46.9581 -1.76713 -3.13759 0
M  V30 497 C 46.8111 -3.30684 -3.04907 0
M  V30 498 C 48.1301 -1.52121 -4.12974 0
M  V30 499 H 45.2491 -0.38392 -0.629106 0
M  V30 500 H 47.8911 -1.50926 -1.15418 0
M  V30 501 H 46.0411 -1.37924 -3.63193 0
M  V30 502 H 47.7131 -3.7893 -2.63077 0
M  V30 503 H 45.9561 -3.60253 -2.41661 0
M  V30 504 H 46.6271 -3.75833 -4.04294 0
M  V30 505 H 49.1031 -1.85819 -3.72304 0
M  V30 506 H 47.9791 -2.04582 -5.0935 0
M  V30 507 H 48.2401 -0.454257 -4.3976 0
M  V30 508 N 47.2992 1.18797 -1.03562 0
M  V30 509 C 48.5242 1.9314 -0.755764 0
M  V30 510 C 48.9492 1.7537 0.68022 0
M  V30 511 O 48.3072 1.06046 1.47051 0
M  V30 512 C 48.3552 3.42747 -1.12058 0
M  V30 513 O 47.4592 4.11683 -0.243124 0
M  V30 514 H 46.8002 0.602724 -0.278604 0
M  V30 515 H 49.3302 1.50678 -1.3841 0
M  V30 516 H 49.3402 3.93437 -1.08035 0
M  V30 517 H 48.0152 3.55002 -2.16672 0
M  V30 518 H 46.5922 3.71323 -0.342539 0
M  V30 519 N 48.7773 0.814389 1.34928 0
M  V30 520 C 50.1933 0.499084 1.51596 0
M  V30 521 C 50.3933 -0.978319 1.76157 0
M  V30 522 O 49.4493 -1.76309 1.80752 0
M  V30 523 C 50.7623 1.35121 2.68631 0
M  V30 524 C 52.3103 1.34746 2.82511 0
M  V30 525 C 52.7853 2.18388 4.0258 0
M  V30 526 N 54.2763 2.15966 4.09772 0
M  V30 527 C 55.0113 2.77437 5.01813 0
M  V30 528 N 54.5073 3.47866 5.99134 0
M  V30 529 N 56.3003 2.67037 4.94619 0
M  V30 530 H 48.4513 1.7711 1.17243 0
M  V30 531 H 50.7143 0.754256 0.574284 0
M  V30 532 H 50.4203 2.40001 2.57085 0
M  V30 533 H 50.2943 1.00991 3.63429 0
M  V30 534 H 52.6813 0.30648 2.93504 0
M  V30 535 H 52.7623 1.72869 1.88547 0
M  V30 536 H 52.4063 3.2253 3.92347 0
M  V30 537 H 52.3363 1.77621 4.9574 0
M  V30 538 H 54.8273 1.64729 3.40107 0
M  V30 539 H 55.1403 3.92038 6.65977 0
M  V30 540 H 53.4853 3.51972 5.99284 0
M  V30 541 H 56.6763 2.11597 4.17546 0
M  V30 542 H 56.8493 3.15232 5.66156 0
M  V30 543 N 50.2554 -1.46986 0.568584 0
M  V30 544 C 51.5044 -2.01646 0.0465894 0
M  V30 545 C 51.8174 -1.44721 -1.31587 0
M  V30 546 O 53.0234 -1.91113 -1.92842 0
M  V30 547 C 51.4794 -3.59885 0.032752 0
M  V30 548 C 51.0874 -4.25804 1.39266 0
M  V30 549 C 52.8314 -4.22255 -0.436038 0
M  V30 550 C 50.7384 -5.76081 1.33732 0
M  V30 551 H 49.6684 -0.753876 0.013647 0
M  V30 552 H 52.3194 -1.68864 0.718131 0
M  V30 553 H 50.7014 -3.8968 -0.704669 0
M  V30 554 H 51.8754 -4.07637 2.1487 0
M  V30 555 H 50.1904 -3.7547 1.80032 0
M  V30 556 H 52.7874 -5.32394 -0.49602 0
M  V30 557 H 53.1304 -3.90212 -1.45053 0
M  V30 558 H 53.6634 -3.97033 0.246877 0
M  V30 559 H 50.4024 -6.12761 2.32817 0
M  V30 560 H 49.9224 -5.96553 0.623267 0
M  V30 561 H 51.6014 -6.38518 1.0442 0
M  V30 562 N 51.7335 -0.305618 -1.54608 0
M  V30 563 C 52.6635 0.561482 -2.26649 0
M  V30 564 C 53.6445 1.13415 -1.26772 0
M  V30 565 O 54.8295 1.16262 -1.55553 0
M  V30 566 C 51.9595 1.73122 -3.01075 0
M  V30 567 C 50.9135 1.2887 -4.08138 0
M  V30 568 C 50.2395 2.54396 -4.70305 0
M  V30 569 C 51.5395 0.416578 -5.20636 0
M  V30 570 H 53.2335 -0.0393902 -2.99374 0
M  V30 571 H 50.7795 -0.020385 -1.43986 0
M  V30 572 H 52.7325 2.34396 -3.50195 0
M  V30 573 H 51.4565 2.3584 -2.25936 0
M  V30 574 H 50.1155 0.698991 -3.59875 0
M  V30 575 H 49.7635 3.15439 -3.918 0
M  V30 576 H 49.4635 2.25486 -5.42614 0
M  V30 577 H 50.9875 3.16464 -5.2219 0
M  V30 578 H 52.4015 0.935116 -5.65622 0
M  V30 579 H 50.7985 0.221046 -5.99693 0
M  V30 580 H 51.8685 -0.557162 -4.81688 0
M  V30 581 N 53.2116 1.57565 -0.0334293 0
M  V30 582 C 54.4886 1.83282 0.683163 0
M  V30 583 C 54.8686 0.91823 1.90084 0
M  V30 584 O 54.2166 -0.025113 2.28486 0
M  V30 585 C 54.4266 3.32599 1.0573 0
M  V30 586 C 55.7746 3.99179 1.44711 0
M  V30 587 O 56.7986 3.3712 1.15015 0
M  V30 588 O 55.6576 5.08565 2.0006 0
M  V30 589 H 52.7516 0.755869 0.335546 0
M  V30 590 H 55.2976 1.69589 -0.0614402 0
M  V30 591 H 54.0696 3.90834 0.190828 0
M  V30 592 H 53.6926 3.51415 1.85993 0
M  V30 593 N 54.6897 -0.239769 1.55765 0
M  V30 594 C 55.6377 -1.31668 1.91745 0
M  V30 595 C 56.6317 -1.49462 0.797338 0
M  V30 596 O 57.8377 -1.50852 0.982021 0
M  V30 597 H 54.2127 -0.441048 0.609082 0
M  V30 598 H 56.1837 -0.985923 2.81642 0
M  V30 599 C 54.9327 -2.66368 2.2348 0
M  V30 600 H 54.2557 -2.53478 3.09175 0
M  V30 601 H 55.6957 -3.40578 2.52553 0
M  V30 602 C 54.1547 -3.20002 1.05359 0
M  V30 603 O 54.6847 -4.00538 0.305261 0
M  V30 604 N 52.8907 -2.78126 0.842292 0
M  V30 605 H 52.4377 -2.12742 1.45253 0
M  V30 606 H 52.3957 -3.14354 0.053652 0
M  V30 607 N 56.1678 -1.49265 -0.50573 0
M  V30 608 C 57.0978 -1.68495 -1.61653 0
M  V30 609 C 58.0788 -0.53366 -1.61512 0
M  V30 610 O 59.2638 -0.76897 -1.78327 0
M  V30 611 C 56.3938 -1.74709 -3.00157 0
M  V30 612 C 55.3478 -2.89581 -3.15162 0
M  V30 613 C 54.6738 -2.80903 -4.5497 0
M  V30 614 C 55.9738 -4.30578 -2.95634 0
M  V30 615 H 57.6678 -2.61493 -1.45814 0
M  V30 616 H 55.2138 -1.25838 -0.70005 0
M  V30 617 H 57.1668 -1.86748 -3.77761 0
M  V30 618 H 55.8908 -0.783067 -3.17074 0
M  V30 619 H 54.5498 -2.77136 -2.39982 0
M  V30 620 H 54.1978 -1.82419 -4.68756 0
M  V30 621 H 53.8978 -3.57999 -4.65951 0
M  V30 622 H 55.4218 -2.94944 -5.34641 0
M  V30 623 H 56.8358 -4.4373 -3.63011 0
M  V30 624 H 55.2328 -5.0886 -3.18091 0
M  V30 625 H 56.3028 -4.45352 -1.91806 0
M  V30 626 N 57.6459 0.756429 -1.3826 0
M  V30 627 C 58.5759 1.88374 -1.37976 0
M  V30 628 C 59.5569 1.68311 -0.246082 0
M  V30 629 O 60.7419 1.88944 -0.44874 0
M  V30 630 C 57.8719 3.25864 -1.20125 0
M  V30 631 C 56.8259 3.60523 -2.30666 0
M  V30 632 C 56.1519 4.9672 -1.97923 0
M  V30 633 C 57.4519 3.65692 -3.72916 0
M  V30 634 H 59.1459 1.88869 -2.32312 0
M  V30 635 H 56.6919 0.907272 -1.11824 0
M  V30 636 H 58.6449 4.0438 -1.18552 0
M  V30 637 H 57.3689 3.25841 -0.222498 0
M  V30 638 H 56.0279 2.84324 -2.3142 0
M  V30 639 H 55.6759 4.93253 -0.985393 0
M  V30 640 H 55.3759 5.20878 -2.71955 0
M  V30 641 H 56.8999 5.77618 -1.97964 0
M  V30 642 H 58.3139 4.34328 -3.74208 0
M  V30 643 H 56.7109 4.01358 -4.4613 0
M  V30 644 H 57.7809 2.65987 -4.05436 0
M  V30 645 N 59.124 1.23083 0.984299 0
M  V30 646 C 60.034 1.02515 2.11016 0
M  V30 647 C 61.05 -0.0291702 1.73976 0
M  V30 648 O 62.226 0.165434 2.00719 0
M  V30 649 C 59.291 0.614673 3.41208 0
M  V30 650 C 58.352 1.74359 3.92297 0
M  V30 651 C 57.585 1.35261 5.16275 0
M  V30 652 O 57.808 0.235136 5.69915 0
M  V30 653 O 56.742 2.17227 5.61334 0
M  V30 654 H 60.568 1.96862 2.31255 0
M  V30 655 H 58.153 1.01753 1.09392 0
M  V30 656 H 60.035 0.396518 4.1953 0
M  V30 657 H 58.71 -0.299851 3.22308 0
M  V30 658 H 57.617 2.01635 3.1511 0
M  V30 659 H 58.95 2.63629 4.15645 0
M  V30 660 N 60.6021 -1.18246 1.0419 0
M  V30 661 C 61.8501 -1.87886 0.744543 0
M  V30 662 C 62.1711 -1.8082 -0.730006 0
M  V30 663 O 61.4411 -1.22736 -1.52685 0
M  V30 664 H 60.0211 -0.695556 0.272417 0
M  V30 665 H 62.6831 -1.43494 1.31892 0
M  V30 666 H 61.7791 -2.9389 1.05049 0
M  V30 667 N 62.0802 -0.821533 -1.34494 0
M  V30 668 C 63.3102 -0.421272 -2.02259 0
M  V30 669 C 63.7182 0.977047 -1.6202 0
M  V30 670 O 63.0612 1.64348 -0.820703 0
M  V30 671 C 63.1232 -0.44231 -3.56769 0
M  V30 672 C 62.7872 -1.79372 -4.20327 0
M  V30 673 C 63.7842 -2.75435 -4.40944 0
M  V30 674 C 61.4692 -2.08182 -4.57127 0
M  V30 675 C 63.4632 -3.98482 -4.97484 0
M  V30 676 C 61.1502 -3.31489 -5.13379 0
M  V30 677 C 62.1482 -4.26457 -5.33501 0
M  V30 678 O 61.8362 -5.47585 -5.88562 0
M  V30 679 H 61.5682 -0.167473 -0.654927 0
M  V30 680 H 64.1222 -1.11073 -1.72777 0
M  V30 681 H 62.3522 0.303836 -3.85505 0
M  V30 682 H 64.0412 -0.0622925 -4.05852 0
M  V30 683 H 64.8072 -2.54473 -4.12878 0
M  V30 684 H 60.6862 -1.35066 -4.4077 0
M  V30 685 H 64.2302 -4.72618 -5.13106 0
M  V30 686 H 60.1272 -3.52316 -5.40873 0
M  V30 687 H 60.8952 -5.49086 -6.06998 0
M  V30 688 N 63.5583 1.46682 -0.576371 0
M  V30 689 C 64.8353 1.95599 0.00703437 0
M  V30 690 C 65.2153 1.51904 1.46589 0
M  V30 691 O 64.5633 0.766755 2.15251 0
M  V30 692 C 64.7733 3.4864 -0.158404 0
M  V30 693 C 66.1213 4.24594 -0.0229439 0
M  V30 694 O 67.1453 3.56094 -0.0869173 0
M  V30 695 O 66.0043 5.46373 0.118015 0
M  V30 696 H 63.0983 0.825275 0.053384 0
M  V30 697 H 65.6443 1.56996 -0.644244 0
M  V30 698 H 64.4163 3.7331 -1.17282 0
M  V30 699 H 64.0393 3.94057 0.5296 0
M  V30 700 N 65.0364 0.313813 1.54444 0
M  V30 701 C 65.9844 -0.572171 2.25453 0
M  V30 702 C 66.9784 -1.12657 1.2651 0
M  V30 703 O 68.1844 -1.07573 1.44319 0
M  V30 704 H 64.5594 -0.203146 0.724041 0
M  V30 705 H 66.5304 0.0491145 2.9836 0
M  V30 706 C 65.2794 -1.72626 3.0182 0
M  V30 707 H 64.6024 -1.30891 3.77767 0
M  V30 708 H 66.0424 -2.32199 3.54767 0
M  V30 709 C 64.5014 -2.63806 2.09542 0
M  V30 710 O 65.0314 -3.65256 1.67185 0
M  V30 711 N 63.2374 -2.31824 1.75232 0
M  V30 712 H 62.7844 -1.49368 2.09873 0
M  V30 713 H 62.7424 -2.93095 1.13767 0
M  V30 714 N 66.5145 -1.57545 0.0417849 0
M  V30 715 C 67.9305 -1.56467 -0.314704 0
M  V30 716 C 68.1305 -1.04859 -1.72066 0
M  V30 717 O 67.1865 -0.700983 -2.42575 0
M  V30 718 C 68.4995 -3.00317 -0.15174 0
M  V30 719 C 70.0475 -3.12201 -0.223553 0
M  V30 720 C 70.5225 -4.57913 -0.0892295 0
M  V30 721 N 72.0135 -4.6297 -0.145808 0
M  V30 722 C 72.7485 -5.73362 -0.0658459 0
M  V30 723 N 72.2445 -6.92769 0.0659282 0
M  V30 724 N 74.0375 -5.6197 -0.12075 0
M  V30 725 H 66.1885 -1.89416 0.961014 0
M  V30 726 H 68.4515 -0.871862 0.372237 0
M  V30 727 H 68.1575 -3.42073 0.817254 0
M  V30 728 H 68.0315 -3.65892 -0.916692 0
M  V30 729 H 70.4185 -2.70349 -1.18301 0
M  V30 730 H 70.4995 -2.49323 0.571994 0
M  V30 731 H 70.1435 -5.00448 0.866867 0
M  V30 732 H 70.0735 -5.18786 -0.903802 0
M  V30 733 H 72.5645 -3.7709 -0.247286 0
M  V30 734 H 72.8775 -7.72707 0.119905 0
M  V30 735 H 71.2225 -6.94927 0.100885 0
M  V30 736 H 74.4135 -4.67572 -0.222187 0
M  V30 737 H 74.5865 -6.47977 -0.0549735 0
M  V30 738 N 67.9926 0.231505 -1.5589 0
M  V30 739 C 68.9226 1.29022 -1.94617 0
M  V30 740 C 69.9036 1.4941 -0.813067 0
M  V30 741 O 71.0886 1.6176 -1.07459 0
M  V30 742 C 68.2186 2.64199 -2.25424 0
M  V30 743 C 67.1726 2.58484 -3.41131 0
M  V30 744 C 66.4986 3.97599 -3.57518 0
M  V30 745 C 67.7986 2.1413 -4.76388 0
M  V30 746 H 69.4926 0.968563 -2.83301 0
M  V30 747 H 67.0386 0.464479 -1.36303 0
M  V30 748 H 68.9916 3.38413 -2.51107 0
M  V30 749 H 67.7156 2.98032 -1.33583 0
M  V30 750 H 66.3746 1.86727 -3.15481 0
M  V30 751 H 66.0226 4.28723 -2.6307 0
M  V30 752 H 65.7226 3.94659 -4.35337 0
M  V30 753 H 67.2466 4.7349 -3.85538 0
M  V30 754 H 68.6606 2.78083 -5.01341 0
M  V30 755 H 67.0576 2.2227 -5.57419 0
M  V30 756 H 68.1276 1.09331 -4.72414 0
M  V30 757 N 69.4707 1.49531 0.497807 0
M  V30 758 C 70.8867 1.36365 0.829266 0
M  V30 759 C 71.0867 0.399184 1.97506 0
M  V30 760 O 70.1427 -0.167977 2.51941 0
M  V30 761 C 71.4557 2.77153 1.16647 0
M  V30 762 C 73.0037 2.85877 1.27449 0
M  V30 763 C 73.4787 4.2744 1.64497 0
M  V30 764 N 74.9697 4.30265 1.7154 0
M  V30 765 C 75.7047 5.3677 2.01656 0
M  V30 766 N 75.2007 6.53516 2.29976 0
M  V30 767 N 76.9937 5.24189 2.02934 0
M  V30 768 H 69.1447 2.10831 -0.257703 0
M  V30 769 H 71.4077 0.946534 -0.0527091 0
M  V30 770 H 71.1137 3.49442 0.397872 0
M  V30 771 H 70.9877 3.12722 2.10915 0
M  V30 772 H 73.3747 2.13824 2.0338 0
M  V30 773 H 73.4557 2.53887 0.312244 0
M  V30 774 H 73.0997 5.00021 0.891151 0
M  V30 775 H 73.0297 4.56896 2.61827 0
M  V30 776 H 75.5207 3.4607 1.51802 0
M  V30 777 H 75.8337 7.30506 2.52153 0
M  V30 778 H 74.1787 6.56737 2.27425 0
M  V30 779 H 77.3697 4.31988 1.80289 0
M  V30 780 H 77.5427 6.07286 2.26071 0
M  V30 781 N 70.9488 -0.749086 1.3866 0
M  V30 782 C 72.3598 -1.32664 1.31366 0
M  V30 783 C 72.7108 -1.96179 -0.028484 0
M  V30 784 O 71.8358 -1.9537 -0.93057 0
M  V30 785 C 72.4308 -2.41219 2.37905 0
M  V30 786 C 70.9898 -2.94684 2.34176 0
M  V30 787 C 70.1368 -1.68108 2.20533 0
M  V30 788 H 73.0878 -0.547628 1.48952 0
M  V30 789 H 73.1088 -3.21268 2.0388 0
M  V30 790 H 72.6208 -1.94962 3.35576 0
M  V30 791 H 70.7218 -3.45258 1.401 0
M  V30 792 H 70.8348 -3.48757 3.2849 0
M  V30 793 H 69.1988 -1.91907 1.67463 0
M  V30 794 H 69.9818 -1.23923 3.20153 0
M  V30 795 N 72.4269 -1.23603 -0.977757 0
M  V30 796 C 73.6749 -1.06759 -1.71601 0
M  V30 797 C 73.9959 0.395929 -1.90938 0
M  V30 798 O 73.2659 1.28356 -1.47992 0
M  V30 799 H 71.8459 -0.392062 -0.635843 0
M  V30 800 H 74.5079 -1.55362 -1.1768 0
M  V30 801 H 73.6039 -1.55763 -2.70452 0
M  V30 802 N 73.905 1.17692 -1.04816 0
M  V30 803 C 75.152 1.87859 -0.75599 0
M  V30 804 C 75.48 1.80812 0.716752 0
M  V30 805 O 74.735 1.20819 1.53952 0
M  V30 806 C 75.034 3.37462 -1.17703 0
M  V30 807 C 74.7 3.64713 -2.65133 0
M  V30 808 C 73.362 3.71859 -3.05408 0
M  V30 809 C 75.714 3.76492 -3.60421 0
M  V30 810 C 73.042 3.88271 -4.39843 0
M  V30 811 C 75.394 3.94421 -4.94585 0
M  V30 812 C 74.058 3.99806 -5.3452 0
M  V30 813 H 73.328 0.687425 -0.276636 0
M  V30 814 H 75.975 1.39255 -1.31455 0
M  V30 815 H 74.28 3.88097 -0.537395 0
M  V30 816 H 75.977 3.90109 -0.928218 0
M  V30 817 H 72.567 3.59772 -2.32942 0
M  V30 818 H 76.751 3.70295 -3.30447 0
M  V30 819 H 72.007 3.90687 -4.70291 0
M  V30 820 H 76.181 4.02477 -5.68318 0
M  V30 821 H 73.808 4.12276 -6.38696 0
M  V30 822 N 75.3831 0.828654 1.34056 0
M  V30 823 C 76.6311 0.41863 1.97717 0
M  V30 824 C 76.9521 -1.02314 1.66002 0
M  V30 825 O 76.2221 -1.71119 0.953683 0
M  V30 826 H 74.8021 0.151809 0.731412 0
M  V30 827 H 77.4641 1.05936 1.63596 0
M  V30 828 H 76.5601 0.542318 3.07352 0
M  V30 829 N 76.8612 -1.46375 0.584142 0
M  V30 830 C 78.1092 -2.01978 0.0701287 0
M  V30 831 C 78.4302 -1.4579 -1.295 0
M  V30 832 O 77.7002 -0.64314 -1.85042 0
M  V30 833 H 76.2802 -0.746648 0.0229345 0
M  V30 834 H 78.9422 -1.79461 0.760245 0
M  V30 835 H 78.0382 -3.121 0.0022064 0
M  V30 836 N 78.3393 -0.321999 -1.54275 0
M  V30 837 C 79.3023 0.531975 -2.22941 0
M  V30 838 C 80.3023 1.04478 -1.22234 0
M  V30 839 O 81.4923 0.937452 -1.46825 0
M  V30 840 C 78.6243 1.73874 -2.93224 0
M  V30 841 H 79.8173 -0.0682612 -2.99822 0
M  V30 842 H 77.3703 -0.0730644 -1.56129 0
M  V30 843 H 78.1053 2.37825 -2.20476 0
M  V30 844 H 77.8903 1.37847 -3.6707 0
M  V30 845 H 79.3803 2.34496 -3.45545 0
M  V30 846 N 79.8174 1.5752 -0.0501392 0
M  V30 847 C 81.0634 1.92936 0.624798 0
M  V30 848 C 81.3964 0.928685 1.70555 0
M  V30 849 O 80.6714 -0.0454779 1.94447 0
M  V30 850 C 80.9544 3.38737 1.22185 0
M  V30 851 C 80.8074 4.49552 0.149218 0
M  V30 852 C 82.1264 3.84913 2.13378 0
M  V30 853 H 79.2454 0.701604 0.225657 0
M  V30 854 H 81.8874 1.89671 -0.111693 0
M  V30 855 H 80.0374 3.4165 1.84953 0
M  V30 856 H 81.7094 4.58768 -0.482648 0
M  V30 857 H 79.9524 4.30638 -0.522841 0
M  V30 858 H 80.6234 5.48653 0.606966 0
M  V30 859 H 83.0994 3.8387 1.60572 0
M  V30 860 H 81.9754 4.87584 2.52097 0
M  V30 861 H 82.2364 3.21611 3.03346 0
M  V30 862 N 81.2955 -0.223234 1.56011 0
M  V30 863 C 82.5235 -0.964812 1.83027 0
M  V30 864 C 82.9385 -1.78013 0.62904 0
M  V30 865 O 82.2955 -1.78008 -0.402414 0
M  V30 866 C 82.3465 -1.88373 3.08542 0
M  V30 867 O 82.0675 -1.10137 4.2403 0
M  V30 868 C 83.5685 -2.73934 3.48533 0
M  V30 869 H 80.7885 -0.282842 0.608475 0
M  V30 870 H 83.3325 -0.238971 2.03099 0
M  V30 871 H 81.4875 -2.56354 2.9045 0
M  V30 872 H 81.9015 -1.72501 4.95322 0
M  V30 873 H 83.3755 -3.34117 4.39397 0
M  V30 874 H 83.8525 -3.46244 2.70207 0
M  V30 875 H 84.4585 -2.11369 3.69057 0
M  V30 876 N 82.7736 -1.49793 -0.48987 0
M  V30 877 C 83.6836 -1.70036 -1.61632 0
M  V30 878 C 84.6996 -0.583102 -1.63939 0
M  V30 879 O 85.8756 -0.859169 -1.82154 0
M  V30 880 C 82.9406 -1.77277 -2.97949 0
M  V30 881 C 82.0016 -3.00918 -3.06181 0
M  V30 882 C 81.2346 -3.07804 -4.35996 0
M  V30 883 O 81.4576 -2.21982 -5.25433 0
M  V30 884 O 80.3916 -4.00369 -4.49431 0
M  V30 885 H 84.2176 -2.65486 -1.47482 0
M  V30 886 H 81.8026 -1.33666 -0.667362 0
M  V30 887 H 83.6846 -1.84329 -3.78947 0
M  V30 888 H 82.3596 -0.850076 -3.12339 0
M  V30 889 H 81.2666 -2.99377 -2.2433 0
M  V30 890 H 82.5996 -3.92704 -2.96723 0
M  V30 891 N 84.2517 0.741722 -1.39055 0
M  V30 892 C 85.4977 1.50336 -1.36113 0
M  V30 893 C 85.8307 1.94148 0.0450796 0
M  V30 894 O 85.1057 1.66301 1.00868 0
M  V30 895 C 85.3887 2.74773 -2.32749 0
M  V30 896 C 85.2417 2.37023 -3.82283 0
M  V30 897 C 86.5607 3.76846 -2.27322 0
M  V30 898 H 83.6797 0.545351 -0.495743 0
M  V30 899 H 86.3217 0.848624 -1.69995 0
M  V30 900 H 84.4717 3.30639 -2.03986 0
M  V30 901 H 86.1437 1.8684 -4.21768 0
M  V30 902 H 84.3867 1.69334 -3.99385 0
M  V30 903 H 85.0577 3.26104 -4.45376 0
M  V30 904 H 87.5337 3.30548 -2.5274 0
M  V30 905 H 86.4097 4.6159 -2.97028 0
M  V30 906 H 86.6707 4.23286 -1.27599 0
M  V30 907 N 85.7298 1.2412 0.971189 0
M  V30 908 C 86.6768 1.0305 2.06517 0
M  V30 909 C 87.6468 -0.0550666 1.66009 0
M  V30 910 O 88.8318 0.0988688 1.90544 0
M  V30 911 C 85.9718 0.637653 3.39158 0
M  V30 912 C 85.0848 1.79633 3.92882 0
M  V30 913 C 84.2198 1.34939 5.13775 0
M  V30 914 C 83.2588 2.47823 5.59687 0
M  V30 915 N 82.3958 2.04022 6.71803 0
M  V30 916 H 87.2358 1.96685 2.23873 0
M  V30 917 H 84.7728 0.979694 1.09729 0
M  V30 918 H 86.7308 0.390931 4.15364 0
M  V30 919 H 85.3608 -0.261693 3.21737 0
M  V30 920 H 84.4128 2.15681 3.13346 0
M  V30 921 H 85.7248 2.64466 4.22918 0
M  V30 922 H 84.8788 1.06134 5.97345 0
M  V30 923 H 83.6178 0.471557 4.85415 0
M  V30 924 H 82.6228 2.77392 4.74693 0
M  V30 925 H 83.8478 3.36158 5.90063 0
M  V30 926 H 81.7938 1.18632 6.45184 0
M  V30 927 H 81.7108 2.82409 7.01271 0
M  V30 928 H 82.9788 1.78347 7.58823 0
M  V30 929 N 87.2079 -1.17134 1.05439 0
M  V30 930 C 88.4359 -1.91372 0.786414 0
M  V30 931 C 88.8509 -1.76955 -0.658202 0
M  V30 932 O 88.2079 -1.10838 -1.44987 0
M  V30 933 C 88.2589 -3.42356 1.1608 0
M  V30 934 O 87.9799 -3.56332 2.54871 0
M  V30 935 C 89.4809 -4.33663 0.919322 0
M  V30 936 H 86.7009 -0.607118 0.285743 0
M  V30 937 H 89.2449 -1.48525 1.40572 0
M  V30 938 H 87.3999 -3.82939 0.586191 0
M  V30 939 H 87.8139 -4.49896 2.69618 0
M  V30 940 H 89.2879 -5.38099 1.231 0
M  V30 941 H 89.7649 -4.38959 -0.145359 0
M  V30 942 H 90.3709 -3.98796 1.47789 0
M  V30 943 N 88.686 -0.835752 -1.33615 0
M  V30 944 C 89.963 -0.352017 -1.92406 0
M  V30 945 C 90.343 1.16225 -1.76224 0
M  V30 946 O 89.691 1.97526 -1.14873 0
M  V30 947 C 89.901 -0.795485 -3.39813 0
M  V30 948 C 91.249 -0.801703 -4.16963 0
M  V30 949 O 92.273 -0.738889 -3.48452 0
M  V30 950 O 91.132 -0.886607 -5.3926 0
M  V30 951 H 88.226 -0.0989641 -0.821057 0
M  V30 952 H 90.772 -0.921397 -1.42507 0
M  V30 953 H 89.544 -1.83795 -3.45449 0
M  V30 954 H 89.167 -0.202505 -3.97084 0
M  V30 955 N 90.1641 1.46063 -0.591896 0
M  V30 956 C 91.4131 2.01547 -0.0786637 0
M  V30 957 C 91.7261 1.46796 1.29268 0
M  V30 958 O 92.9321 1.94157 1.89777 0
M  V30 959 C 91.3881 3.59787 -0.0900024 0
M  V30 960 C 90.9961 4.23534 -1.46023 0
M  V30 961 C 92.7401 4.22895 0.368806 0
M  V30 962 C 90.6471 5.73881 -1.4288 0
M  V30 963 H 89.5771 0.753564 -0.0256388 0
M  V30 964 H 92.2281 1.677 -0.744905 0
M  V30 965 H 90.6101 3.90752 0.642586 0
M  V30 966 H 91.7841 4.04167 -2.21328 0
M  V30 967 H 90.0991 3.72558 -1.85982 0
M  V30 968 H 92.6961 5.33116 0.411258 0
M  V30 969 H 93.0391 3.9247 1.38827 0
M  V30 970 H 93.5721 3.9659 -0.31001 0
M  V30 971 H 90.3111 6.0898 -2.42536 0
M  V30 972 H 89.8311 5.95486 -0.718095 0
M  V30 973 H 91.5101 6.36776 -1.14565 0
M  V30 974 N 91.6422 0.330177 1.54103 0
M  V30 975 C 92.8722 -0.271784 2.04805 0
M  V30 976 C 93.2802 -1.45816 1.20559 0
M  V30 977 O 92.6232 -1.82247 0.2306 0
M  V30 978 C 92.6852 -0.763238 3.51305 0
M  V30 979 C 92.3492 0.301705 4.56003 0
M  V30 980 C 93.3462 1.13999 5.07248 0
M  V30 981 C 91.0312 0.451793 5.00264 0
M  V30 982 C 93.0252 2.11402 6.01322 0
M  V30 983 C 90.7122 1.42924 5.94151 0
M  V30 984 C 91.7102 2.25882 6.44567 0
M  V30 985 O 91.3982 3.21965 7.3661 0
M  V30 986 H 91.1302 -0.058693 0.673447 0
M  V30 987 H 93.6842 0.476395 1.99799 0
M  V30 988 H 91.9142 -1.56244 3.5373 0
M  V30 989 H 93.6032 -1.28427 3.85047 0
M  V30 990 H 94.3692 1.03505 4.73827 0
M  V30 991 H 90.2482 -0.184044 4.60632 0
M  V30 992 H 93.7922 2.76192 6.40596 0
M  V30 993 H 89.6892 1.53479 6.26988 0
M  V30 994 H 90.4572 3.17281 7.54503 0
M  V30 995 N 93.1203 -1.57491 0.0584922 0
M  V30 996 C 94.3663 -1.93264 -0.614558 0
M  V30 997 C 94.6993 -0.937717 -1.7006 0
M  V30 998 O 93.9743 0.0351652 -1.94468 0
M  V30 999 C 94.2573 -3.3938 -1.20386 0
M  V30 1000 C 94.1103 -4.49625 -0.125375 0
M  V30 1001 C 95.4293 -3.86039 -2.11334 0
M  V30 1002 H 92.5483 -0.702791 -0.221933 0
M  V30 1003 H 95.1903 -1.8961 0.12175 0
M  V30 1004 H 93.3403 -3.42626 -1.83139 0
M  V30 1005 H 95.0123 -4.58506 0.506971 0
M  V30 1006 H 93.2553 -4.30354 0.545672 0
M  V30 1007 H 93.9263 -5.48967 -0.577861 0
M  V30 1008 H 96.4023 -3.84716 -1.58534 0
M  V30 1009 H 95.2783 -4.88914 -2.49507 0
M  V30 1010 H 95.5393 -3.23215 -3.01636 0
M  V30 1011 N 94.5984 0.214957 -1.56127 0
M  V30 1012 C 95.8264 0.955092 -1.83536 0
M  V30 1013 C 96.2414 1.77677 -0.638472 0
M  V30 1014 O 95.5984 1.78219 0.392968 0
M  V30 1015 C 95.6494 1.86734 -3.09536 0
M  V30 1016 O 95.3704 1.07887 -4.24608 0
M  V30 1017 C 96.8714 2.72082 -3.4998 0
M  V30 1018 H 94.0914 0.279611 -0.609966 0
M  V30 1019 H 96.6354 0.228197 -2.03223 0
M  V30 1020 H 94.7904 2.5481 -2.91806 0
M  V30 1021 H 95.2044 1.69872 -4.9623 0
M  V30 1022 H 96.6784 3.31782 -4.41163 0
M  V30 1023 H 97.1554 3.44806 -2.7204 0
M  V30 1024 H 97.7614 2.09409 -3.70173 0
M  V30 1025 N 96.0765 1.50051 0.48192 0
M  V30 1026 C 97.3015 1.64508 1.26301 0
M  V30 1027 C 97.7265 0.323851 1.85291 0
M  V30 1028 O 97.0845 -0.710969 1.66778 0
M  V30 1029 C 97.1325 2.7305 2.35533 0
M  V30 1030 O 96.2365 2.3355 3.39895 0
M  V30 1031 H 95.5775 0.549978 0.372048 0
M  V30 1032 H 98.1075 1.9636 0.574786 0
M  V30 1033 H 98.1175 2.95799 2.8101 0
M  V30 1034 H 96.7925 3.68946 1.91967 0
M  V30 1035 H 95.3695 2.21205 3.00204 0
M  V30 1036 N 97.5546 -0.734337 1.39446 0
M  V30 1037 C 98.8016 -1.49391 1.36706 0
M  V30 1038 C 99.1296 -1.94465 -0.0367813 0
M  V30 1039 O 98.3846 -1.67154 -1.01774 0
M  V30 1040 C 98.6836 -2.74711 2.28623 0
M  V30 1041 C 98.3496 -2.48501 3.76242 0
M  V30 1042 C 97.0116 -2.41062 4.16464 0
M  V30 1043 C 99.3636 -2.26098 4.69606 0
M  V30 1044 C 96.6916 -2.09262 5.48112 0
M  V30 1045 C 99.0436 -1.95814 6.01531 0
M  V30 1046 C 97.7076 -1.86845 6.40816 0
M  V30 1047 H 96.9776 -0.546661 0.500243 0
M  V30 1048 H 99.6246 -0.842788 1.71957 0
M  V30 1049 H 97.9296 -3.44569 1.86492 0
M  V30 1050 H 99.6266 -3.32741 2.23796 0
M  V30 1051 H 96.2166 -2.55169 3.44364 0
M  V30 1052 H 100.401 -2.30812 4.39363 0
M  V30 1053 H 95.6566 -2.00841 5.77471 0
M  V30 1054 H 99.8306 -1.77488 6.73403 0
M  V30 1055 H 97.4576 -1.6197 7.42745 0
M  V30 1056 N 99.0327 -1.24633 -0.964593 0
M  V30 1057 C 100.281 -1.08573 -1.70459 0
M  V30 1058 C 100.602 0.375655 -1.91347 0
M  V30 1059 O 99.8717 1.26779 -1.49345 0
M  V30 1060 H 98.4517 -0.398784 -0.631649 0
M  V30 1061 H 101.114 -1.56601 -1.16026 0
M  V30 1062 H 100.21 -1.58623 -2.68785 0
M  V30 1063 N 100.511 1.16574 -1.06058 0
M  V30 1064 C 101.922 1.68662 -0.800632 0
M  V30 1065 C 102.273 1.84184 0.67608 0
M  V30 1066 O 101.398 1.53568 1.52466 0
M  V30 1067 C 101.993 3.06356 -1.44676 0
M  V30 1068 C 100.552 3.55575 -1.23465 0
M  V30 1069 C 99.6988 2.31616 -1.52477 0
M  V30 1070 H 102.65 1.00969 -1.22438 0
M  V30 1071 H 102.671 3.70636 -0.860788 0
M  V30 1072 H 102.183 2.95027 -2.52152 0
M  V30 1073 H 100.284 3.72167 -0.179527 0
M  V30 1074 H 100.397 4.37812 -1.94571 0
M  V30 1075 H 98.7608 2.36512 -0.945209 0
M  V30 1076 H 99.5438 2.22887 -2.61106 0
M  V30 1077 N 101.989 0.842826 1.3317 0
M  V30 1078 C 103.235 0.441099 1.97945 0
M  V30 1079 C 103.568 -0.998024 1.66593 0
M  V30 1080 O 102.843 -1.69839 0.947898 0
M  V30 1081 C 103.126 0.666841 3.53872 0
M  V30 1082 C 102.979 2.15352 3.94897 0
M  V30 1083 C 104.298 0.115544 4.39948 0
M  V30 1084 H 101.417 0.161739 0.719034 0
M  V30 1085 H 104.059 1.05907 1.57746 0
M  V30 1086 H 102.209 0.140828 3.88245 0
M  V30 1087 H 103.881 2.7447 3.70761 0
M  V30 1088 H 102.124 2.63653 3.44484 0
M  V30 1089 H 102.795 2.26221 5.03516 0
M  V30 1090 H 105.271 0.565213 4.12243 0
M  V30 1091 H 104.147 0.303152 5.48062 0
M  V30 1092 H 104.408 -0.980935 4.3108 0
M  V30 1093 N 103.467 -1.45747 0.599634 0
M  V30 1094 C 104.692 -2.07178 0.0960198 0
M  V30 1095 C 105.117 -1.44268 -1.207 0
M  V30 1096 O 104.475 -0.532503 -1.73303 0
M  V30 1097 C 104.523 -3.60579 -0.0385348 0
M  V30 1098 O 103.627 -3.97713 -1.0908 0
M  V30 1099 H 102.968 -0.660251 0.0704593 0
M  V30 1100 H 105.498 -1.87124 0.827385 0
M  V30 1101 H 105.508 -4.07298 -0.239304 0
M  V30 1102 H 104.183 -4.05756 0.912947 0
M  V30 1103 H 102.76 -3.62678 -0.867135 0
M  V30 1104 N 104.945 -0.338344 -1.53925 0
M  V30 1105 C 106.222 0.314774 -1.93051 0
M  V30 1106 C 106.602 1.68669 -1.26941 0
M  V30 1107 O 105.95 2.24636 -0.418445 0
M  V30 1108 C 106.16 0.392249 -3.46789 0
M  V30 1109 C 107.508 0.645554 -4.19664 0
M  V30 1110 O 108.532 0.474575 -3.53024 0
M  V30 1111 O 107.391 0.976408 -5.37707 0
M  V30 1112 H 104.485 0.182598 -0.80659 0
M  V30 1113 H 107.031 -0.389141 -1.65178 0
M  V30 1114 H 105.803 -0.570702 -3.87116 0
M  V30 1115 H 105.426 1.14316 -3.80812 0
M  V30 1116 N 106.423 1.57458 -0.0668435 0
M  V30 1117 C 107.669 1.93587 0.6043 0
M  V30 1118 C 108.002 0.946722 1.69561 0
M  V30 1119 O 107.277 -0.0248516 1.94484 0
M  V30 1120 C 107.56 3.40014 1.18585 0
M  V30 1121 C 107.413 4.49685 0.101529 0
M  V30 1122 C 108.732 3.87154 2.09284 0
M  V30 1123 H 105.851 0.703958 0.218202 0
M  V30 1124 H 108.493 1.89542 -0.131804 0
M  V30 1125 H 106.643 3.43592 1.81319 0
M  V30 1126 H 108.315 4.5823 -0.531279 0
M  V30 1127 H 106.558 4.30059 -0.568487 0
M  V30 1128 H 107.229 5.49266 0.54874 0
M  V30 1129 H 109.705 3.85551 1.56491 0
M  V30 1130 H 108.581 4.90231 2.46911 0
M  V30 1131 H 108.842 3.2481 2.99918 0
M  V30 1132 N 107.901 -0.206675 1.56239 0
M  V30 1133 C 108.811 -1.27686 1.96808 0
M  V30 1134 C 109.827 -1.50455 0.874035 0
M  V30 1135 O 111.003 -1.63295 1.17884 0
M  V30 1136 C 108.068 -2.60358 2.28942 0
M  V30 1137 C 107.129 -2.45762 3.51994 0
M  V30 1138 C 106.362 -3.72108 3.82585 0
M  V30 1139 O 106.585 -4.75776 3.14631 0
M  V30 1140 O 105.519 -3.6833 4.76043 0
M  V30 1141 H 109.345 -0.962593 2.88041 0
M  V30 1142 H 106.93 -0.410746 1.43643 0
M  V30 1143 H 108.812 -3.38687 2.50737 0
M  V30 1144 H 107.487 -2.91435 1.4088 0
M  V30 1145 H 106.394 -1.65584 3.35459 0
M  V30 1146 H 107.727 -2.19621 4.40486 0
M  V30 1147 N 109.379 -1.50304 -0.473955 0
M  V30 1148 C 110.312 -1.63595 -1.59097 0
M  V30 1149 C 111.29 -0.484142 -1.55225 0
M  V30 1150 O 112.474 -0.703271 -1.7489 0
M  V30 1151 C 109.601 -1.61589 -2.97669 0
M  V30 1152 C 108.647 -2.82295 -3.19705 0
M  V30 1153 S 109.48 -4.43635 -2.99913 0
M  V30 1154 C 110.636 -4.44317 -4.40832 0
M  V30 1155 H 110.869 -2.58082 -1.47583 0
M  V30 1156 H 108.402 -1.39531 -0.661087 0
M  V30 1157 H 110.36 -1.61116 -3.7756 0
M  V30 1158 H 109.021 -0.683421 -3.06575 0
M  V30 1159 H 108.214 -2.77188 -4.20931 0
M  V30 1160 H 107.816 -2.8032 -2.47582 0
M  V30 1161 H 110.108 -4.17703 -5.33414 0
M  V30 1162 H 111.051 -5.45911 -4.50984 0
M  V30 1163 H 111.459 -3.74059 -4.22777 0
M  V30 1164 N 110.857 0.726932 -1.39834 0
M  V30 1165 C 111.767 1.87131 -1.41489 0
M  V30 1166 C 112.783 1.71239 -0.308757 0
M  V30 1167 O 113.959 1.93701 -0.551529 0
M  V30 1168 C 111.024 3.22811 -1.26468 0
M  V30 1169 C 110.085 3.51039 -2.47124 0
M  V30 1170 C 109.318 4.80245 -2.3281 0
M  V30 1171 O 109.541 5.54537 -1.33585 0
M  V30 1172 O 108.475 5.08554 -3.21957 0
M  V30 1173 H 112.301 1.8869 -2.3797 0
M  V30 1174 H 109.886 0.875837 -1.21035 0
M  V30 1175 H 111.768 4.03877 -1.20255 0
M  V30 1176 H 110.443 3.22005 -0.330862 0
M  V30 1177 H 109.35 2.70027 -2.58914 0
M  V30 1178 H 110.683 3.56632 -3.39227 0
M  V30 1179 N 112.336 1.25143 0.95797 0
M  V30 1180 C 113.566 1.12261 1.73439 0
M  V30 1181 C 113.974 -0.326715 1.86358 0
M  V30 1182 O 113.317 -1.2367 1.35836 0
M  V30 1183 C 113.379 1.69966 3.16784 0
M  V30 1184 C 113.043 3.18936 3.27305 0
M  V30 1185 C 114.04 4.15968 3.11877 0
M  V30 1186 C 111.725 3.59083 3.51234 0
M  V30 1187 C 113.719 5.51126 3.20217 0
M  V30 1188 C 111.406 4.9438 3.5921 0
M  V30 1189 C 112.404 5.90211 3.43716 0
M  V30 1190 O 112.092 7.23046 3.51368 0
M  V30 1191 H 111.824 0.392476 0.550399 0
M  V30 1192 H 114.378 1.65927 1.21068 0
M  V30 1193 H 112.608 1.10744 3.70503 0
M  V30 1194 H 114.297 1.52232 3.76272 0
M  V30 1195 H 115.063 3.86292 2.93264 0
M  V30 1196 H 110.942 2.84989 3.62356 0
M  V30 1197 H 114.486 6.25905 3.0804 0
M  V30 1198 H 110.383 5.23723 3.77339 0
M  V30 1199 H 111.151 7.31097 3.6802 0
M  V30 1200 N 113.814 -1.1601 1.06675 0
M  V30 1201 C 115.042 -1.90527 0.806667 0
M  V30 1202 C 115.457 -1.77643 -0.639396 0
M  V30 1203 O 114.814 -1.12369 -1.43803 0
M  V30 1204 C 114.865 -3.41106 1.19705 0
M  V30 1205 O 114.586 -3.53608 2.58636 0
M  V30 1206 C 116.087 -4.32663 0.965266 0
M  V30 1207 H 113.307 -0.604053 0.292166 0
M  V30 1208 H 115.851 -1.47026 1.4214 0
M  V30 1209 H 114.006 -3.82296 0.626774 0
M  V30 1210 H 114.42 -4.47011 2.74375 0
M  V30 1211 H 115.894 -5.36763 1.288 0
M  V30 1212 H 116.371 -4.39089 -0.0987936 0
M  V30 1213 H 116.977 -3.97206 1.52011 0
M  V30 1214 N 115.292 -0.849877 -1.32721 0
M  V30 1215 C 116.225 -0.235903 -2.26977 0
M  V30 1216 C 117.203 0.623355 -1.50177 0
M  V30 1217 O 118.387 0.581207 -1.79316 0
M  V30 1218 C 115.514 0.667712 -3.32053 0
M  V30 1219 C 114.56 -0.11753 -4.26338 0
M  V30 1220 S 115.393 -1.48277 -5.14562 0
M  V30 1221 C 116.549 -0.584741 -6.23163 0
M  V30 1222 H 116.782 -1.03495 -2.78704 0
M  V30 1223 H 114.315 -0.64724 -1.40179 0
M  V30 1224 H 116.273 1.18343 -3.93072 0
M  V30 1225 H 114.934 1.44052 -2.7912 0
M  V30 1226 H 114.127 0.57051 -5.00761 0
M  V30 1227 H 113.729 -0.564668 -3.69713 0
M  V30 1228 H 116.021 0.212968 -6.77165 0
M  V30 1229 H 116.964 -1.29947 -6.96074 0
M  V30 1230 H 117.372 -0.161202 -5.6427 0
M  V30 1231 N 116.77 1.45427 -0.607355 0
M  V30 1232 C 118.047 1.9557 -0.0344566 0
M  V30 1233 C 118.427 1.54979 1.43334 0
M  V30 1234 O 117.775 0.812241 2.13576 0
M  V30 1235 C 117.985 3.48226 -0.232321 0
M  V30 1236 C 119.333 4.2445 -0.113001 0
M  V30 1237 O 120.357 3.55829 -0.162431 0
M  V30 1238 O 119.216 5.465 0.00209442 0
M  V30 1239 H 116.31 0.826222 0.0358667 0
M  V30 1240 H 118.856 1.55594 -0.6774 0
M  V30 1241 H 117.628 3.70739 -1.25174 0
M  V30 1242 H 117.251 3.95092 0.445896 0
M  V30 1243 N 118.248 0.346503 1.53744 0
M  V30 1244 C 119.494 -0.249473 2.0126 0
M  V30 1245 C 119.827 -1.49965 1.23386 0
M  V30 1246 O 119.102 -1.91811 0.32229 0
M  V30 1247 C 119.385 -0.560643 3.55709 0
M  V30 1248 C 119.238 0.701836 4.44291 0
M  V30 1249 C 120.557 -1.36905 4.18264 0
M  V30 1250 H 117.676 -0.0891987 0.731582 0
M  V30 1251 H 120.318 0.467624 1.84156 0
M  V30 1252 H 118.468 -1.17156 3.70414 0
M  V30 1253 H 120.14 1.33974 4.41417 0
M  V30 1254 H 118.383 1.32612 4.13033 0
M  V30 1255 H 119.054 0.43933 5.50249 0
M  V30 1256 H 121.53 -0.852448 4.07275 0
M  V30 1257 H 120.406 -1.55553 5.26398 0
M  V30 1258 H 120.667 -2.37203 3.73078 0
M  V30 1259 N 119.726 -1.57421 0.075193 0
M  V30 1260 C 120.973 -1.93618 -0.593146 0
M  V30 1261 C 121.301 -0.955484 -1.69413 0
M  V30 1262 O 120.556 0.0283251 -1.9568 0
M  V30 1263 C 120.855 -3.36428 -1.20626 0
M  V30 1264 C 120.521 -4.50307 -0.231078 0
M  V30 1265 C 119.183 -4.81186 0.0371936 0
M  V30 1266 C 121.535 -5.19374 0.435888 0
M  V30 1267 C 118.863 -5.78466 0.979461 0
M  V30 1268 C 121.215 -6.17665 1.3665 0
M  V30 1269 C 119.879 -6.46958 1.6432 0
M  V30 1270 H 119.149 -0.708499 -0.217047 0
M  V30 1271 H 121.796 -1.90937 0.146793 0
M  V30 1272 H 120.101 -3.35592 -2.02201 0
M  V30 1273 H 121.798 -3.61727 -1.73073 0
M  V30 1274 H 118.388 -4.26227 -0.450357 0
M  V30 1275 H 122.572 -4.95711 0.241748 0
M  V30 1276 H 117.828 -5.99487 1.20106 0
M  V30 1277 H 122.002 -6.70284 1.88924 0
M  V30 1278 H 119.629 -7.2215 2.37494 0
M  V30 1279 N 121.204 0.198386 -1.56346 0
M  V30 1280 C 122.451 0.919286 -1.80431 0
M  V30 1281 C 122.779 1.83393 -0.647866 0
M  V30 1282 O 122.034 1.92236 0.366556 0
M  V30 1283 C 122.333 1.77031 -3.10475 0
M  V30 1284 C 121.999 1.00693 -4.39513 0
M  V30 1285 C 120.661 0.796145 -4.74568 0
M  V30 1286 C 123.013 0.469559 -5.19081 0
M  V30 1287 C 120.341 0.0364588 -5.86689 0
M  V30 1288 C 122.693 -0.2769 -6.31994 0
M  V30 1289 C 121.357 -0.49873 -6.65634 0
M  V30 1290 H 120.627 0.336391 -0.660244 0
M  V30 1291 H 123.274 0.185872 -1.90596 0
M  V30 1292 H 121.579 2.5723 -2.95533 0
M  V30 1293 H 123.276 2.33065 -3.26315 0
M  V30 1294 H 119.866 1.18122 -4.12001 0
M  V30 1295 H 124.05 0.619816 -4.92414 0
M  V30 1296 H 119.306 -0.145412 -6.11227 0
M  V30 1297 H 123.48 -0.700684 -6.92866 0
M  V30 1298 H 121.107 -1.0893 -7.52355 0
M  V30 1299 N 122.682 1.50554 0.465978 0
M  V30 1300 C 124.098 1.38093 0.800154 0
M  V30 1301 C 124.298 0.440988 1.96615 0
M  V30 1302 O 123.354 -0.114499 2.5224 0
M  V30 1303 C 124.667 2.79565 1.10742 0
M  V30 1304 C 126.215 2.88516 1.21357 0
M  V30 1305 C 126.69 4.30833 1.55393 0
M  V30 1306 N 128.181 4.33807 1.62375 0
M  V30 1307 C 128.916 5.40927 1.90225 0
M  V30 1308 N 128.412 6.58247 2.16062 0
M  V30 1309 N 130.205 5.28376 1.9177 0
M  V30 1310 H 122.356 2.10237 -0.302366 0
M  V30 1311 H 124.619 0.945203 -0.0727746 0
M  V30 1312 H 124.325 3.50208 0.323661 0
M  V30 1313 H 124.199 3.17125 2.04234 0
M  V30 1314 H 126.586 2.1809 1.98799 0
M  V30 1315 H 126.667 2.54492 0.258321 0
M  V30 1316 H 126.311 5.01799 0.784889 0
M  V30 1317 H 126.241 4.62347 2.52076 0
M  V30 1318 H 128.732 3.49212 1.44427 0
M  V30 1319 H 129.045 7.3569 2.36601 0
M  V30 1320 H 127.39 6.61413 2.13444 0
M  V30 1321 H 130.581 4.35715 1.71085 0
M  V30 1322 H 130.754 6.11944 2.13139 0
M  V30 1323 N 124.16 -0.719506 1.40217 0
M  V30 1324 C 125.092 -1.84428 1.36084 0
M  V30 1325 C 126.105 -1.60597 0.266913 0
M  V30 1326 O 127.294 -1.70544 0.526983 0
M  V30 1327 C 124.394 -3.20757 1.094 0
M  V30 1328 C 123.567 -3.71817 2.30372 0
M  V30 1329 C 122.626 -4.86748 1.99907 0
M  V30 1330 O 121.652 -4.99603 2.72737 0
M  V30 1331 N 122.854 -5.7226 0.974635 0
M  V30 1332 H 125.619 -1.88473 2.33019 0
M  V30 1333 H 123.18 -0.900885 1.3452 0
M  V30 1334 H 125.172 -3.95235 0.870116 0
M  V30 1335 H 123.742 -3.11884 0.211452 0
M  V30 1336 H 122.962 -2.88514 2.68614 0
M  V30 1337 H 124.25 -4.02666 3.11026 0
M  V30 1338 H 123.648 -5.6448 0.371368 0
M  V30 1339 H 122.205 -6.46739 0.810656 0
M  V30 1340 N 125.638 -1.25649 -0.95132 0
M  V30 1341 C 126.866 -1.13343 -1.73092 0
M  V30 1342 C 127.281 0.312434 -1.86197 0
M  V30 1343 O 126.638 1.21465 -1.36207 0
M  V30 1344 C 126.689 -1.78602 -3.14299 0
M  V30 1345 O 126.41 -3.17537 -3.01831 0
M  V30 1346 C 127.911 -1.72119 -4.08522 0
M  V30 1347 H 125.131 -0.395181 -0.542285 0
M  V30 1348 H 127.675 -1.66076 -1.19328 0
M  V30 1349 H 125.83 -1.29832 -3.64996 0
M  V30 1350 H 126.244 -3.49676 -3.90931 0
M  V30 1351 H 127.718 -2.22435 -5.052 0
M  V30 1352 H 128.195 -0.685635 -4.33815 0
M  V30 1353 H 128.801 -2.20393 -3.63741 0
M  V30 1354 N 127.117 1.15442 -1.07289 0
M  V30 1355 C 128.363 1.8672 -0.806679 0
M  V30 1356 C 128.718 1.80723 0.660084 0
M  V30 1357 O 128.011 1.21902 1.47819 0
M  V30 1358 C 128.205 3.3489 -1.24834 0
M  V30 1359 C 128.034 3.55313 -2.7565 0
M  V30 1360 C 126.804 3.7082 -3.4325 0
M  V30 1361 C 129.002 3.53188 -3.73848 0
M  V30 1362 N 126.984 3.7929 -4.82713 0
M  V30 1363 C 128.355 3.67765 -4.99149 0
M  V30 1364 C 130.41 3.36459 -3.67015 0
M  V30 1365 C 129.113 3.6734 -6.18428 0
M  V30 1366 C 131.139 3.37333 -4.85758 0
M  V30 1367 C 130.501 3.52438 -6.09891 0
M  V30 1368 H 126.6 0.700433 -0.347733 0
M  V30 1369 H 129.184 1.38441 -1.36902 0
M  V30 1370 H 127.355 3.81786 -0.713713 0
M  V30 1371 H 129.087 3.93875 -0.929745 0
M  V30 1372 H 125.842 3.71568 -2.93656 0
M  V30 1373 H 126.266 3.8727 -5.55294 0
M  V30 1374 H 130.908 3.237 -2.71989 0
M  V30 1375 H 128.626 3.78878 -7.13777 0
M  V30 1376 H 132.212 3.25617 -4.82146 0
M  V30 1377 H 131.092 3.53047 -7.00234 0
M  V30 1378 N 128.595 0.856903 1.32268 0
M  V30 1379 C 129.823 0.475439 2.01363 0
M  V30 1380 C 130.238 -0.928486 1.64392 0
M  V30 1381 O 129.595 -1.60624 0.866387 0
M  V30 1382 C 129.646 0.607545 3.56358 0
M  V30 1383 O 129.367 1.95617 3.92002 0
M  V30 1384 C 130.868 0.225382 4.42727 0
M  V30 1385 H 128.088 0.186636 0.644521 0
M  V30 1386 H 130.632 1.15446 1.68797 0
M  V30 1387 H 128.787 -0.0237719 3.87393 0
M  V30 1388 H 129.201 1.95455 4.86721 0
M  V30 1389 H 130.675 0.368813 5.50767 0
M  V30 1390 H 131.152 -0.834369 4.31202 0
M  V30 1391 H 131.758 0.831864 4.17085 0
M  V30 1392 N 130.073 -1.45103 0.615059 0
M  V30 1393 C 131.35 -1.95549 0.0448276 0
M  V30 1394 C 131.73 -1.55737 -1.4251 0
M  V30 1395 O 131.078 -0.823556 -2.13143 0
M  V30 1396 C 131.288 -3.48098 0.250785 0
M  V30 1397 C 132.636 -4.24384 0.135509 0
M  V30 1398 O 133.66 -3.55738 0.181299 0
M  V30 1399 O 132.519 -5.46493 0.0268878 0
M  V30 1400 H 129.613 -0.8264 -0.0314845 0
M  V30 1401 H 132.159 -1.55232 0.685642 0
M  V30 1402 H 130.931 -3.7007 1.27139 0
M  V30 1403 H 130.554 -3.95323 -0.424937 0
M  V30 1404 N 131.551 -0.354651 -1.53558 0
M  V30 1405 C 132.461 0.50515 -2.29097 0
M  V30 1406 C 133.477 1.10223 -1.34636 0
M  V30 1407 O 134.653 1.11553 -1.67684 0
M  V30 1408 C 131.718 1.63479 -3.05738 0
M  V30 1409 C 130.779 1.06636 -4.15845 0
M  V30 1410 C 130.012 2.14217 -4.88822 0
M  V30 1411 O 130.235 3.35137 -4.61562 0
M  V30 1412 O 129.169 1.77887 -5.75013 0
M  V30 1413 H 132.995 -0.109237 -3.03503 0
M  V30 1414 H 130.58 -0.119357 -1.48922 0
M  V30 1415 H 132.462 2.2918 -3.5363 0
M  V30 1416 H 131.137 2.23478 -2.34178 0
M  V30 1417 H 130.044 0.373565 -3.7223 0
M  V30 1418 H 131.377 0.511081 -4.89539 0
M  V30 1419 N 133.029 1.57378 -0.0835403 0
M  V30 1420 C 134.445 1.57246 0.273109 0
M  V30 1421 C 134.645 1.09385 1.69225 0
M  V30 1422 O 133.701 0.765051 2.40631 0
M  V30 1423 C 135.014 3.00614 0.0720628 0
M  V30 1424 C 136.562 3.12684 0.1407 0
M  V30 1425 C 137.037 4.57989 -0.0322094 0
M  V30 1426 N 138.528 4.63194 0.0230085 0
M  V30 1427 C 139.263 5.73335 -0.0861941 0
M  V30 1428 N 138.759 6.9235 -0.24958 0
M  V30 1429 N 140.552 5.62093 -0.0282886 0
M  V30 1430 H 132.703 1.86801 -1.0109 0
M  V30 1431 H 134.966 0.861687 -0.395222 0
M  V30 1432 H 134.672 3.39786 -0.907662 0
M  V30 1433 H 134.546 3.68193 0.81936 0
M  V30 1434 H 136.933 2.73391 1.11092 0
M  V30 1435 H 137.014 2.47719 -0.637896 0
M  V30 1436 H 136.658 4.97973 -0.999247 0
M  V30 1437 H 136.588 5.21 0.765937 0
M  V30 1438 H 139.079 3.77613 0.14722 0
M  V30 1439 H 139.392 7.72117 -0.324733 0
M  V30 1440 H 137.737 6.94415 -0.285097 0
M  V30 1441 H 140.928 4.67997 0.0981408 0
M  V30 1442 H 141.101 6.47895 -0.116845 0
M  V30 1443 N 134.507 -0.190092 1.56449 0
M  V30 1444 C 135.437 -1.23816 1.97969 0
M  V30 1445 C 136.418 -1.47201 0.852395 0
M  V30 1446 O 137.603 -1.58854 1.1171 0
M  V30 1447 C 134.733 -2.5813 2.3235 0
M  V30 1448 C 133.687 -2.49348 3.47864 0
M  V30 1449 C 133.013 -3.8798 3.67934 0
M  V30 1450 C 134.313 -2.01424 4.81898 0
M  V30 1451 H 136.007 -0.89311 2.85769 0
M  V30 1452 H 133.553 -0.428177 1.37487 0
M  V30 1453 H 135.506 -3.31637 2.59991 0
M  V30 1454 H 134.23 -2.94386 1.41438 0
M  V30 1455 H 132.889 -1.78297 3.20321 0
M  V30 1456 H 132.537 -4.21597 2.74344 0
M  V30 1457 H 132.237 -3.82978 4.45648 0
M  V30 1458 H 133.761 -4.63101 3.97957 0
M  V30 1459 H 135.175 -2.64693 5.08538 0
M  V30 1460 H 133.572 -2.07413 5.63116 0
M  V30 1461 H 134.642 -0.967677 4.75146 0
M  V30 1462 N 135.985 -1.50799 -0.457987 0
M  V30 1463 C 136.932 -1.70617 -1.5543 0
M  V30 1464 C 137.902 -0.547562 -1.56815 0
M  V30 1465 O 139.087 -0.779647 -1.74144 0
M  V30 1466 C 136.227 -1.81831 -2.93311 0
M  V30 1467 C 135.34 -3.09278 -3.01615 0
M  V30 1468 C 134.475 -3.11209 -4.30491 0
M  V30 1469 C 133.514 -4.33055 -4.32585 0
M  V30 1470 N 132.651 -4.32652 -5.52952 0
M  V30 1471 H 137.491 -2.64207 -1.37836 0
M  V30 1472 H 135.028 -1.30959 -0.669937 0
M  V30 1473 H 136.986 -1.86314 -3.73287 0
M  V30 1474 H 135.616 -0.916685 -3.0951 0
M  V30 1475 H 134.668 -3.14203 -2.1443 0
M  V30 1476 H 135.98 -3.99233 -2.99022 0
M  V30 1477 H 135.134 -3.14494 -5.18824 0
M  V30 1478 H 133.873 -2.19106 -4.35711 0
M  V30 1479 H 132.878 -4.29969 -3.42647 0
M  V30 1480 H 134.103 -5.264 -4.29046 0
M  V30 1481 H 132.049 -3.43409 -5.58933 0
M  V30 1482 H 131.966 -5.16392 -5.52155 0
M  V30 1483 H 133.234 -4.40101 -6.43375 0
M  V30 1484 N 137.463 0.71206 -1.40597 0
M  V30 1485 C 138.71 1.47197 -1.39065 0
M  V30 1486 C 139.038 1.94499 0.00583891 0
M  V30 1487 O 138.293 1.68752 0.99102 0
M  V30 1488 C 138.592 2.71039 -2.32965 0
M  V30 1489 C 138.258 2.42484 -3.80148 0
M  V30 1490 C 136.92 2.34406 -4.20247 0
M  V30 1491 C 139.272 2.18598 -4.73143 0
M  V30 1492 C 136.6 2.00516 -5.51371 0
M  V30 1493 C 138.952 1.8622 -6.0457 0
M  V30 1494 C 137.616 1.76626 -6.43708 0
M  V30 1495 H 136.886 0.538634 -0.508876 0
M  V30 1496 H 139.533 0.815325 -1.73276 0
M  V30 1497 H 137.838 3.41558 -1.91951 0
M  V30 1498 H 139.535 3.29138 -2.29061 0
M  V30 1499 H 136.125 2.49659 -3.4838 0
M  V30 1500 H 140.309 2.23793 -4.42979 0
M  V30 1501 H 135.565 1.91628 -5.80593 0
M  V30 1502 H 139.739 1.66752 -6.76141 0
M  V30 1503 H 137.366 1.50133 -7.45228 0
M  V30 1504 N 138.941 1.26152 0.944643 0
M  V30 1505 C 140.189 1.11271 1.6871 0
M  V30 1506 C 140.51 -0.345166 1.91921 0
M  V30 1507 O 139.78 -1.24387 1.51343 0
M  V30 1508 H 138.36 0.408783 0.625224 0
M  V30 1509 H 141.022 1.58427 1.1352 0
M  V30 1510 H 140.118 1.62879 2.66227 0
M  V30 1511 N 140.419 -1.14872 1.07899 0
M  V30 1512 C 141.667 -1.85422 0.803941 0
M  V30 1513 C 141.988 -1.83051 -0.67211 0
M  V30 1514 O 141.258 -1.27532 -1.48703 0
M  V30 1515 H 139.838 -0.686537 0.294408 0
M  V30 1516 H 142.5 -1.39226 1.3639 0
M  V30 1517 H 141.596 -2.90399 1.14346 0
M  V30 1518 N 141.898 -0.863906 -1.31812 0
M  V30 1519 C 143.309 -0.52522 -1.7916 0
M  V30 1520 C 143.66 0.957518 -1.71248 0
M  V30 1521 O 142.785 1.74734 -1.27659 0
M  V30 1522 C 143.38 -0.9466 -3.25307 0
M  V30 1523 C 141.939 -0.659668 -3.70574 0
M  V30 1524 C 141.086 -1.14126 -2.52726 0
M  V30 1525 H 144.037 -1.05022 -1.1898 0
M  V30 1526 H 144.058 -0.266766 -3.79564 0
M  V30 1527 H 143.57 -2.02579 -3.31034 0
M  V30 1528 H 141.671 0.408416 -3.70355 0
M  V30 1529 H 141.784 -1.23245 -4.62977 0
M  V30 1530 H 140.148 -0.561216 -2.4844 0
M  V30 1531 H 140.931 -2.22775 -2.61201 0
M  V30 1532 N 143.376 1.44774 -0.622745 0
M  V30 1533 C 144.604 2.06487 -0.130722 0
M  V30 1534 C 145.019 1.46476 1.19123 0
M  V30 1535 O 144.376 0.584502 1.72887 0
M  V30 1536 C 144.427 3.615 -0.000807207 0
M  V30 1537 O 144.148 4.19274 -1.27048 0
M  V30 1538 C 145.649 4.40229 0.520898 0
M  V30 1539 H 142.869 0.666704 -0.0758106 0
M  V30 1540 H 145.413 1.85779 -0.854774 0
M  V30 1541 H 143.568 3.81498 0.673643 0
M  V30 1542 H 143.982 5.12622 -1.1099 0
M  V30 1543 H 145.456 5.49144 0.560838 0
M  V30 1544 H 145.933 4.1108 1.54627 0
M  V30 1545 H 146.539 4.25131 -0.120018 0
M  V30 1546 N 144.854 0.36279 1.53368 0
M  V30 1547 C 145.764 -0.492994 2.29362 0
M  V30 1548 C 146.78 -1.09507 1.35219 0
M  V30 1549 O 147.956 -1.10662 1.68273 0
M  V30 1550 C 145.021 -1.61855 3.066 0
M  V30 1551 C 144.082 -1.04429 4.16405 0
M  V30 1552 C 143.315 -2.11621 4.89951 0
M  V30 1553 O 143.538 -3.32684 4.63333 0
M  V30 1554 O 142.472 -1.74835 5.75948 0
M  V30 1555 H 146.298 0.125331 3.03441 0
M  V30 1556 H 143.883 0.127253 1.48857 0
M  V30 1557 H 145.765 -2.27302 3.54841 0
M  V30 1558 H 144.44 -2.22233 2.3536 0
M  V30 1559 H 143.347 -0.353819 3.72423 0
M  V30 1560 H 144.68 -0.485113 4.89804 0
M  V30 1561 N 146.332 -1.57332 0.0918853 0
M  V30 1562 C 147.581 -1.93412 -0.572249 0
M  V30 1563 C 147.894 -0.975515 -1.69538 0
M  V30 1564 O 149.1 -1.22991 -2.42045 0
M  V30 1565 C 147.556 -3.43648 -1.0693 0
M  V30 1566 C 147.164 -4.47994 0.0239049 0
M  V30 1567 C 148.908 -3.88695 -1.70635 0
M  V30 1568 C 146.815 -5.89381 -0.488319 0
M  V30 1569 H 145.745 -0.721939 -0.217532 0
M  V30 1570 H 148.396 -1.82735 0.167369 0
M  V30 1571 H 146.778 -3.49466 -1.8625 0
M  V30 1572 H 147.952 -4.53815 0.799277 0
M  V30 1573 H 146.267 -4.12536 0.565946 0
M  V30 1574 H 148.864 -4.91725 -2.10025 0
M  V30 1575 H 149.207 -3.27166 -2.57426 0
M  V30 1576 H 149.74 -3.85564 -0.979023 0
M  V30 1577 H 146.479 -6.54602 0.342906 0
M  V30 1578 H 145.999 -5.87037 -1.23077 0
M  V30 1579 H 147.678 -6.39863 -0.958317 0
M  V30 1580 N 147.81 0.181792 -1.56548 0
M  V30 1581 C 148.74 1.22765 -1.98623 0
M  V30 1582 C 149.721 1.46747 -0.860189 0
M  V30 1583 O 150.906 1.58259 -1.12551 0
M  V30 1584 C 148.036 2.56894 -2.33715 0
M  V30 1585 C 146.99 2.475 -3.49182 0
M  V30 1586 C 146.316 3.86023 -3.69986 0
M  V30 1587 C 147.616 1.98866 -4.82959 0
M  V30 1588 H 149.31 0.877942 -2.86239 0
M  V30 1589 H 146.856 0.42088 -1.37712 0
M  V30 1590 H 148.809 3.30253 -2.61746 0
M  V30 1591 H 147.533 2.93632 -1.42997 0
M  V30 1592 H 146.192 1.76596 -3.21262 0
M  V30 1593 H 145.84 4.20136 -2.76576 0
M  V30 1594 H 145.54 3.80609 -4.47672 0
M  V30 1595 H 147.064 4.60984 -4.00407 0
M  V30 1596 H 148.478 2.61992 -5.09934 0
M  V30 1597 H 146.875 2.04424 -5.64208 0
M  V30 1598 H 147.945 0.942465 -4.75653 0
M  V30 1599 N 149.288 1.51039 0.449983 0
M  V30 1600 C 150.513 1.6715 1.22783 0
M  V30 1601 C 150.938 0.363081 1.84563 0
M  V30 1602 O 150.296 -0.675433 1.68249 0
M  V30 1603 C 150.344 2.77985 2.29689 0
M  V30 1604 O 149.448 2.40707 3.34864 0
M  V30 1605 H 148.789 0.557746 0.360299 0
M  V30 1606 H 151.319 1.97535 0.533005 0
M  V30 1607 H 151.329 3.01693 2.74673 0
M  V30 1608 H 150.004 3.72935 1.84098 0
M  V30 1609 H 148.581 2.27523 2.95445 0
M  V30 1610 N 150.766 -0.704594 1.40972 0
M  V30 1611 C 151.696 -1.83124 1.44872 0
M  V30 1612 C 152.677 -1.67281 0.30838 0
M  V30 1613 O 153.862 -1.87149 0.518556 0
M  V30 1614 C 150.992 -3.21181 1.32136 0
M  V30 1615 C 149.946 -3.51714 2.43888 0
M  V30 1616 C 149.272 -4.89032 2.16222 0
M  V30 1617 C 150.572 -3.516 3.86232 0
M  V30 1618 H 152.266 -1.80117 2.39161 0
M  V30 1619 H 149.812 -0.865145 1.15114 0
M  V30 1620 H 151.765 -3.99702 1.33479 0
M  V30 1621 H 150.489 -3.24791 0.343279 0
M  V30 1622 H 149.148 -2.75539 2.41813 0
M  V30 1623 H 148.796 -4.89256 1.16778 0
M  V30 1624 H 148.496 -5.10426 2.911 0
M  V30 1625 H 150.02 -5.69873 2.19265 0
M  V30 1626 H 151.434 -4.2014 3.9007 0
M  V30 1627 H 149.831 -3.84523 4.60719 0
M  V30 1628 H 150.901 -2.50757 4.15029 0
M  V30 1629 N 152.244 -1.26651 -0.937939 0
M  V30 1630 C 153.192 -1.08308 -2.05845 0
M  V30 1631 C 154.186 -0.0090757 -1.69398 0
M  V30 1632 O 155.392 -0.166007 -1.79233 0
M  V30 1633 H 151.767 -0.333416 -0.674046 0
M  V30 1634 H 153.738 -2.03261 -2.18467 0
M  V30 1635 C 152.487 -0.736229 -3.39816 0
M  V30 1636 H 151.81 -1.55453 -3.6834 0
M  V30 1637 H 153.25 -0.64769 -4.19024 0
M  V30 1638 C 151.709 0.558824 -3.32233 0
M  V30 1639 O 152.239 1.59621 -3.68624 0
M  V30 1640 N 150.445 0.550657 -2.85335 0
M  V30 1641 H 149.992 -0.293943 -2.55917 0
M  V30 1642 H 149.95 1.41726 -2.80644 0
M  V30 1643 N 153.722 1.14298 -1.08507 0
M  V30 1644 C 154.67 2.21483 -0.710483 0
M  V30 1645 C 155.664 1.66998 0.284234 0
M  V30 1646 O 156.87 1.79401 0.146692 0
M  V30 1647 H 153.245 0.721578 -0.211729 0
M  V30 1648 H 155.216 2.50348 -1.62384 0
M  V30 1649 C 153.965 3.4743 -0.137007 0
M  V30 1650 H 153.288 3.89686 -0.893592 0
M  V30 1651 H 154.728 4.2391 0.0872789 0
M  V30 1652 C 153.187 3.17548 1.12538 0
M  V30 1653 O 153.717 3.35437 2.21009 0
M  V30 1654 N 151.923 2.71499 1.03617 0
M  V30 1655 H 151.47 2.57143 0.153403 0
M  V30 1656 H 151.428 2.51881 1.88158 0
M  V30 1657 N 155.201 0.870884 1.31352 0
M  V30 1658 C 156.131 0.343096 2.30966 0
M  V30 1659 C 157.112 -0.566507 1.60389 0
M  V30 1660 O 158.297 -0.483336 1.88089 0
M  V30 1661 C 155.427 -0.455487 3.443 0
M  V30 1662 C 154.381 0.361103 4.26474 0
M  V30 1663 C 153.707 -0.563221 5.31725 0
M  V30 1664 C 155.007 1.59566 4.97329 0
M  V30 1665 H 156.701 1.17548 2.75359 0
M  V30 1666 H 154.247 0.566686 1.32381 0
M  V30 1667 H 156.2 -0.83525 4.13039 0
M  V30 1668 H 154.924 -1.32139 2.98675 0
M  V30 1669 H 153.583 0.722825 3.59403 0
M  V30 1670 H 153.231 -1.42643 4.82351 0
M  V30 1671 H 152.931 -0.0207409 5.87596 0
M  V30 1672 H 154.455 -0.939808 6.03324 0
M  V30 1673 H 155.869 1.28728 5.58661 0
M  V30 1674 H 154.266 2.07728 5.63 0
M  V30 1675 H 155.336 2.34798 4.24262 0
M  V30 1676 N 156.679 -1.44442 0.630414 0
M  V30 1677 C 157.612 -2.27862 -0.124247 0
M  V30 1678 C 158.59 -1.38495 -0.851931 0
M  V30 1679 O 159.774 -1.67935 -0.856166 0
M  V30 1680 C 156.901 -3.17407 -1.18197 0
M  V30 1681 C 155.947 -4.22875 -0.554892 0
M  V30 1682 S 156.78 -5.31485 0.654489 0
M  V30 1683 C 157.936 -6.246 -0.40326 0
M  V30 1684 H 158.169 -2.91519 0.583435 0
M  V30 1685 H 155.702 -1.48618 0.418565 0
M  V30 1686 H 157.66 -3.69549 -1.78728 0
M  V30 1687 H 156.321 -2.52971 -1.86184 0
M  V30 1688 H 155.514 -4.85542 -1.35148 0
M  V30 1689 H 155.116 -3.73992 -0.0242105 0
M  V30 1690 H 157.408 -6.65375 -1.27602 0
M  V30 1691 H 158.351 -7.07851 0.187813 0
M  V30 1692 H 158.759 -5.59775 -0.728837 0
M  V30 1693 N 158.157 -0.370918 -1.53173 0
M  V30 1694 C 159.403 0.217423 -2.01631 0
M  V30 1695 C 159.736 1.47983 -1.25756 0
M  V30 1696 O 159.011 1.91274 -0.352764 0
M  V30 1697 C 159.294 0.503982 -3.56556 0
M  V30 1698 C 159.147 -0.77243 -4.43118 0
M  V30 1699 C 160.466 1.30234 -4.20389 0
M  V30 1700 H 157.585 0.0775486 -0.732909 0
M  V30 1701 H 160.227 -0.496863 -1.83388 0
M  V30 1702 H 158.377 1.11248 -3.72231 0
M  V30 1703 H 160.049 -1.4098 -4.39229 0
M  V30 1704 H 158.292 -1.39167 -4.10871 0
M  V30 1705 H 158.963 -0.526815 -5.4948 0
M  V30 1706 H 161.439 0.787546 -4.08579 0
M  V30 1707 H 160.315 1.47158 -5.28806 0
M  V30 1708 H 160.576 2.31237 -3.76805 0
M  V30 1709 N 159.635 1.57281 -0.100228 0
M  V30 1710 C 160.86 1.99302 0.573881 0
M  V30 1711 C 161.285 0.979059 1.60611 0
M  V30 1712 O 160.643 -0.0517803 1.81226 0
M  V30 1713 C 160.691 3.40274 1.19358 0
M  V30 1714 O 159.795 3.41676 2.30935 0
M  V30 1715 H 159.136 0.647944 0.145138 0
M  V30 1716 H 161.666 2.03779 -0.183156 0
M  V30 1717 H 161.676 3.78078 1.53365 0
M  V30 1718 H 160.351 4.13594 0.437385 0
M  V30 1719 H 158.928 3.15672 1.98509 0
M  V30 1720 N 161.113 -0.173488 1.56642 0
M  V30 1721 C 162.06 -1.21482 1.96242 0
M  V30 1722 C 163.03 -1.44104 0.826027 0
M  V30 1723 O 164.215 -1.5688 1.08597 0
M  V30 1724 C 161.355 -2.54964 2.32567 0
M  V30 1725 C 160.468 -2.39739 3.59373 0
M  V30 1726 C 159.603 -3.66072 3.84921 0
M  V30 1727 C 158.642 -3.45771 5.05083 0
M  V30 1728 N 157.779 -4.64169 5.26775 0
M  V30 1729 H 162.619 -0.870123 2.85014 0
M  V30 1730 H 160.156 -0.418245 1.41029 0
M  V30 1731 H 162.114 -3.32758 2.5165 0
M  V30 1732 H 160.744 -2.87433 1.46908 0
M  V30 1733 H 159.796 -1.53131 3.48217 0
M  V30 1734 H 161.108 -2.20683 4.47326 0
M  V30 1735 H 160.262 -4.52303 4.0436 0
M  V30 1736 H 159.001 -3.88105 2.9534 0
M  V30 1737 H 158.006 -2.57927 4.85545 0
M  V30 1738 H 159.231 -3.25163 5.96193 0
M  V30 1739 H 157.177 -4.86425 4.40144 0
M  V30 1740 H 157.094 -4.48019 6.08946 0
M  V30 1741 H 158.362 -5.51689 5.5069 0
M  V30 1742 N 162.591 -1.51276 -0.441967 0
M  V30 1743 C 163.84 -1.6295 -1.18871 0
M  V30 1744 C 164.153 -0.349312 -1.92456 0
M  V30 1745 O 165.359 -0.345355 -2.69295 0
M  V30 1746 C 163.815 -2.87759 -2.16155 0
M  V30 1747 C 163.423 -4.22764 -1.48239 0
M  V30 1748 C 165.167 -3.08788 -2.91291 0
M  V30 1749 C 163.074 -5.38728 -2.4398 0
M  V30 1750 H 162.004 -0.606913 -0.447406 0
M  V30 1751 H 164.655 -1.77739 -0.456205 0
M  V30 1752 H 163.037 -2.66593 -2.92821 0
M  V30 1753 H 164.211 -4.54293 -0.771635 0
M  V30 1754 H 162.526 -4.07575 -0.852741 0
M  V30 1755 H 165.123 -3.92599 -3.63002 0
M  V30 1756 H 165.466 -2.21679 -3.5237 0
M  V30 1757 H 165.999 -3.30272 -2.21733 0
M  V30 1758 H 162.738 -6.28082 -1.87598 0
M  V30 1759 H 162.258 -5.1158 -3.13123 0
M  V30 1760 H 163.937 -5.70489 -3.05207 0
M  V30 1761 N 164.069 0.697108 -1.41344 0
M  V30 1762 C 165.315 1.45796 -1.41828 0
M  V30 1763 C 165.67 1.92382 -0.0261743 0
M  V30 1764 O 164.963 1.66522 0.947688 0
M  V30 1765 C 165.157 2.68553 -2.35826 0
M  V30 1766 C 164.986 2.33975 -3.84039 0
M  V30 1767 C 163.756 2.24414 -4.52732 0
M  V30 1768 C 165.954 1.97048 -4.75054 0
M  V30 1769 N 163.936 1.82705 -5.86082 0
M  V30 1770 C 165.307 1.66086 -5.9734 0
M  V30 1771 C 167.362 1.83845 -4.62715 0
M  V30 1772 C 166.065 1.23246 -7.08663 0
M  V30 1773 C 168.091 1.4241 -5.73998 0
M  V30 1774 C 167.453 1.12357 -6.95381 0
M  V30 1775 H 163.552 0.530859 -0.574206 0
M  V30 1776 H 166.136 0.806674 -1.77203 0
M  V30 1777 H 164.307 3.31404 -2.02549 0
M  V30 1778 H 166.039 3.35015 -2.2704 0
M  V30 1779 H 162.794 2.4276 -4.0665 0
M  V30 1780 H 163.218 1.64337 -6.56751 0
M  V30 1781 H 167.86 2.05734 -3.69369 0
M  V30 1782 H 165.578 1.00102 -8.01876 0
M  V30 1783 H 169.164 1.32746 -5.66454 0
M  V30 1784 H 168.044 0.807795 -7.80028 0
M  V30 1785 N 165.547 1.27147 0.931209 0
M  V30 1786 C 166.775 1.16082 1.71267 0
M  V30 1787 C 167.19 -0.282772 1.8667 0
M  V30 1788 O 166.547 -1.19283 1.38122 0
M  V30 1789 C 166.598 1.8358 3.11417 0
M  V30 1790 O 166.319 3.22299 2.96741 0
M  V30 1791 C 167.82 1.78597 4.05732 0
M  V30 1792 H 165.04 0.403758 0.535929 0
M  V30 1793 H 167.584 1.67953 1.16671 0
M  V30 1794 H 165.739 1.35623 3.62885 0
M  V30 1795 H 166.153 3.55851 3.85319 0
M  V30 1796 H 167.627 2.30444 5.01597 0
M  V30 1797 H 168.104 0.754564 4.3267 0
M  V30 1798 H 168.71 2.26152 3.60188 0
M  V30 1799 N 167.025 -1.13721 1.09112 0
M  V30 1800 C 168.436 -1.6648 0.845068 0
M  V30 1801 C 168.787 -1.85911 -0.62701 0
M  V30 1802 O 167.912 -1.57556 -1.48341 0
M  V30 1803 C 168.507 -3.02413 1.52748 0
M  V30 1804 C 167.066 -3.52176 1.32849 0
M  V30 1805 C 166.213 -2.27492 1.58564 0
M  V30 1806 H 169.164 -0.976872 1.25072 0
M  V30 1807 H 169.185 -3.68223 0.958752 0
M  V30 1808 H 168.697 -2.88238 2.59885 0
M  V30 1809 H 166.798 -3.7156 0.278137 0
M  V30 1810 H 166.911 -4.32499 2.0611 0
M  V30 1811 H 165.275 -2.33923 1.00758 0
M  V30 1812 H 166.058 -2.15886 2.66924 0
M  V30 1813 N 168.503 -0.877838 -1.30888 0
M  V30 1814 C 169.78 -0.413052 -1.91189 0
M  V30 1815 C 170.16 1.1056 -1.79832 0
M  V30 1816 O 169.508 1.93771 -1.21099 0
M  V30 1817 C 169.718 -0.903191 -3.3711 0
M  V30 1818 C 171.066 -0.93395 -4.14201 0
M  V30 1819 O 172.09 -0.849373 -3.45925 0
M  V30 1820 O 170.949 -1.05772 -5.36167 0
M  V30 1821 H 168.043 -0.125035 -0.817493 0
M  V30 1822 H 170.589 -0.966269 -1.39504 0
M  V30 1823 H 169.361 -1.94692 -3.39427 0
M  V30 1824 H 168.984 -0.328732 -3.96239 0
M  V30 1825 N 169.982 1.44106 -0.638065 0
M  V30 1826 C 171.21 2.06336 -0.152615 0
M  V30 1827 C 171.625 1.47731 1.17563 0
M  V30 1828 O 170.982 0.602806 1.72257 0
M  V30 1829 C 171.033 3.61479 -0.0391491 0
M  V30 1830 O 170.754 4.17903 -1.31487 0
M  V30 1831 C 172.255 4.40757 0.474176 0
M  V30 1832 H 169.475 0.665862 -0.0828776 0
M  V30 1833 H 172.019 1.84862 -0.87443 0
M  V30 1834 H 170.174 3.82191 0.633142 0
M  V30 1835 H 170.588 5.11416 -1.16421 0
M  V30 1836 H 172.062 5.49707 0.502562 0
M  V30 1837 H 172.539 4.12697 1.50258 0
M  V30 1838 H 173.145 4.24979 -0.165102 0
M  V30 1839 N 171.46 0.379036 1.52974 0
M  V30 1840 C 172.707 -0.206421 2.01445 0
M  V30 1841 C 173.035 -1.47668 1.26587 0
M  V30 1842 O 172.29 -1.92514 0.351675 0
M  V30 1843 C 172.589 -0.53096 3.53434 0
M  V30 1844 C 172.255 0.646546 4.46241 0
M  V30 1845 C 170.917 0.969604 4.7133 0
M  V30 1846 C 173.269 1.43479 5.01062 0
M  V30 1847 C 170.597 2.08263 5.48492 0
M  V30 1848 C 172.949 2.53834 5.7944 0
M  V30 1849 C 171.613 2.86659 6.02812 0
M  V30 1850 H 170.883 -0.0755349 0.73714 0
M  V30 1851 H 173.53 0.514271 1.84465 0
M  V30 1852 H 171.835 -1.33285 3.68432 0
M  V30 1853 H 173.532 -0.996417 3.88423 0
M  V30 1854 H 170.122 0.384734 4.2687 0
M  V30 1855 H 174.306 1.19844 4.81613 0
M  V30 1856 H 169.562 2.34078 5.64816 0
M  V30 1857 H 173.736 3.15319 6.20924 0
M  V30 1858 H 171.363 3.73026 6.62387 0
M  V30 1859 N 172.938 -1.57226 0.108567 0
M  V30 1860 C 174.185 -1.94833 -0.551943 0
M  V30 1861 C 174.513 -0.991204 -1.67348 0
M  V30 1862 O 173.768 -0.0131878 -1.95696 0
M  V30 1863 C 174.067 -3.38911 -1.13463 0
M  V30 1864 C 173.733 -4.50696 -0.135509 0
M  V30 1865 C 172.395 -4.80998 0.139252 0
M  V30 1866 C 174.747 -5.18333 0.545957 0
M  V30 1867 C 172.075 -5.76259 1.10194 0
M  V30 1868 C 174.427 -6.14627 1.49721 0
M  V30 1869 C 173.091 -6.43327 1.78006 0
M  V30 1870 H 172.361 -0.712944 -0.20197 0
M  V30 1871 H 175.008 -1.90582 0.18726 0
M  V30 1872 H 173.313 -3.39805 -1.95037 0
M  V30 1873 H 175.01 -3.65317 -1.65362 0
M  V30 1874 H 171.6 -4.27087 -0.359846 0
M  V30 1875 H 175.784 -4.95087 0.346842 0
M  V30 1876 H 171.04 -5.96804 1.32795 0
M  V30 1877 H 175.214 -6.66126 2.03099 0
M  V30 1878 H 172.841 -7.1695 2.52759 0
M  V30 1879 N 174.416 0.165178 -1.56732 0
M  V30 1880 C 175.832 0.517174 -1.50988 0
M  V30 1881 C 176.032 1.84331 -0.813894 0
M  V30 1882 O 175.088 2.49672 -0.37682 0
M  V30 1883 C 176.401 0.544261 -2.95733 0
M  V30 1884 C 177.949 0.631039 -3.06573 0
M  V30 1885 C 178.424 0.68896 -4.52788 0
M  V30 1886 N 179.915 0.751683 -4.5706 0
M  V30 1887 C 180.65 0.817177 -5.67547 0
M  V30 1888 N 180.146 0.843129 -6.8765 0
M  V30 1889 N 181.939 0.856668 -5.55534 0
M  V30 1890 H 174.09 -0.704318 -2.00382 0
M  V30 1891 H 176.353 -0.254687 -0.913148 0
M  V30 1892 H 176.059 -0.361607 -3.49836 0
M  V30 1893 H 175.933 1.3886 -3.5071 0
M  V30 1894 H 178.32 1.52733 -2.52501 0
M  V30 1895 H 178.401 -0.240095 -2.54671 0
M  V30 1896 H 178.045 -0.2031 -5.07494 0
M  V30 1897 H 177.975 1.57633 -5.02454 0
M  V30 1898 H 180.466 0.739661 -3.70591 0
M  V30 1899 H 180.779 0.894448 -7.67606 0
M  V30 1900 H 179.124 0.811304 -6.90248 0
M  V30 1901 H 182.315 0.833437 -4.60621 0
M  V30 1902 H 182.488 0.904247 -6.4166 0
M  V30 1903 N 175.894 1.51508 0.433938 0
M  V30 1904 C 176.842 1.73646 1.54757 0
M  V30 1905 C 177.836 0.602854 1.5831 0
M  V30 1906 O 179.042 0.784318 1.62014 0
M  V30 1907 H 175.417 0.548718 0.51421 0
M  V30 1908 H 177.388 2.66991 1.33261 0
M  V30 1909 C 176.137 1.88172 2.92381 0
M  V30 1910 H 175.46 2.74808 2.90381 0
M  V30 1911 H 176.9 2.07672 3.6966 0
M  V30 1912 C 175.359 0.64239 3.30719 0
M  V30 1913 O 175.889 -0.201362 4.01195 0
M  V30 1914 N 174.095 0.485489 2.86516 0
M  V30 1915 H 173.642 1.17318 2.29334 0
M  V30 1916 H 173.6 -0.342482 3.12529 0
M  V30 1917 N 177.372 -0.689602 1.41712 0
M  V30 1918 C 178.62 -1.4468 1.4111 0
M  V30 1919 C 178.941 -1.94986 0.0232196 0
M  V30 1920 O 178.211 -1.72097 -0.935913 0
M  V30 1921 H 176.791 -0.536847 0.519427 0
M  V30 1922 H 179.453 -0.815825 1.77004 0
M  V30 1923 H 178.549 -2.30706 2.10193 0
M  V30 1924 N 178.85 -1.27639 -0.924453 0
M  V30 1925 C 179.797 -1.10644 -2.0255 0
M  V30 1926 C 180.767 -0.00658438 -1.66099 0
M  V30 1927 O 181.952 -0.16952 -1.90045 0
M  V30 1928 C 179.092 -0.76309 -3.36557 0
M  V30 1929 C 178.205 -1.94091 -3.85944 0
M  V30 1930 C 177.34 -1.53914 -5.08413 0
M  V30 1931 C 176.379 -2.68425 -5.50104 0
M  V30 1932 N 175.516 -2.28815 -6.63768 0
M  V30 1933 H 180.356 -2.04858 -2.16419 0
M  V30 1934 H 177.893 -1.01974 -1.06017 0
M  V30 1935 H 179.851 -0.544822 -4.13627 0
M  V30 1936 H 178.481 0.142102 -3.22487 0
M  V30 1937 H 177.533 -2.27162 -3.05125 0
M  V30 1938 H 178.845 -2.7998 -4.12811 0
M  V30 1939 H 177.999 -1.28231 -5.92994 0
M  V30 1940 H 176.738 -0.651391 -4.8333 0
M  V30 1941 H 175.743 -2.94819 -4.64071 0
M  V30 1942 H 176.968 -3.57826 -5.7718 0
M  V30 1943 H 174.914 -1.42495 -6.40337 0
M  V30 1944 H 174.831 -3.08242 -6.90306 0
M  V30 1945 H 176.099 -2.06387 -7.51681 0
M  V30 1946 N 180.328 1.1314 -1.09713 0
M  V30 1947 C 181.275 2.18642 -0.739196 0
M  V30 1948 C 182.245 1.63706 0.280978 0
M  V30 1949 O 183.43 1.90111 0.161946 0
M  V30 1950 C 180.57 3.44685 -0.169102 0
M  V30 1951 C 179.683 4.13711 -1.24367 0
M  V30 1952 C 178.818 5.27379 -0.636019 0
M  V30 1953 C 177.857 5.88259 -1.69169 0
M  V30 1954 N 176.994 6.93352 -1.10485 0
M  V30 1955 H 181.834 2.48607 -1.64312 0
M  V30 1956 H 179.371 1.22066 -0.820875 0
M  V30 1957 H 181.329 4.16815 0.179256 0
M  V30 1958 H 179.959 3.15161 0.698079 0
M  V30 1959 H 179.011 3.39835 -1.70927 0
M  V30 1960 H 180.323 4.55037 -2.04311 0
M  V30 1961 H 179.477 6.06238 -0.236677 0
M  V30 1962 H 178.216 4.8731 0.194928 0
M  V30 1963 H 177.221 5.08092 -2.10055 0
M  V30 1964 H 178.446 6.30399 -2.52536 0
M  V30 1965 H 176.392 6.55335 -0.295234 0
M  V30 1966 H 176.309 7.33236 -1.84121 0
M  V30 1967 H 177.577 7.76057 -0.73181 0
M  V30 1968 N 181.806 0.884767 1.30421 0
M  V30 1969 C 183.031 0.517288 2.00845 0
M  V30 1970 C 183.456 -0.886779 1.65885 0
M  V30 1971 O 182.814 -1.58768 0.875354 0
M  V30 1972 C 182.862 0.698994 3.5376 0
M  V30 1973 O 181.966 -0.255208 4.1161 0
M  V30 1974 H 181.307 0.203872 0.631927 0
M  V30 1975 H 183.837 1.19225 1.66272 0
M  V30 1976 H 183.847 0.597912 4.03595 0
M  V30 1977 H 182.522 1.72271 3.78544 0
M  V30 1978 H 181.099 -0.10784 3.72744 0
M  V30 1979 N 183.284 -1.43765 0.645699 0
M  V30 1980 C 184.533 -2.01116 0.153412 0
M  V30 1981 C 184.846 -1.51493 -1.23731 0
M  V30 1982 O 186.052 -2.01067 -1.8244 0
M  V30 1983 C 184.508 -3.59206 0.223473 0
M  V30 1984 C 184.116 -4.17823 1.61642 0
M  V30 1985 C 185.86 -4.23972 -0.211597 0
M  V30 1986 C 183.767 -5.68183 1.64081 0
M  V30 1987 H 182.697 -0.752093 0.0535891 0
M  V30 1988 H 185.348 -1.6482 0.806633 0
M  V30 1989 H 183.73 -3.92867 -0.497118 0
M  V30 1990 H 184.904 -3.95674 2.36176 0
M  V30 1991 H 183.219 -3.65399 1.99681 0
M  V30 1992 H 185.816 -5.34275 -0.213112 0
M  V30 1993 H 186.159 -3.97352 -1.24165 0
M  V30 1994 H 186.692 -3.95166 0.456988 0
M  V30 1995 H 183.431 -5.99559 2.64971 0
M  V30 1996 H 182.951 -5.9241 0.938611 0
M  V30 1997 H 184.63 -6.32085 1.3812 0
M  V30 1998 N 184.763 -0.387143 -1.52771 0
M  V30 1999 C 185.726 0.436939 -2.24997 0
M  V30 2000 C 186.726 0.991991 -1.26555 0
M  V30 2001 O 187.916 0.874335 -1.50669 0
M  V30 2002 C 185.048 1.61281 -3.00335 0
M  V30 2003 H 186.241 -0.195365 -2.99263 0
M  V30 2004 H 183.794 -0.139218 -1.55679 0
M  V30 2005 H 184.529 2.2826 -2.30364 0
M  V30 2006 H 184.314 1.22154 -3.72587 0
M  V30 2007 H 185.804 2.19629 -3.5518 0
M  V30 2008 N 186.241 1.57166 -0.116904 0
M  V30 2009 C 187.191 2.11756 0.845178 0
M  V30 2010 C 188.175 1.03783 1.22955 0
M  V30 2011 O 189.367 1.3002 1.20099 0
M  V30 2012 C 186.496 2.71886 2.09602 0
M  V30 2013 C 185.582 3.86937 1.7361 0
M  V30 2014 N 185.973 4.94073 1.08284 0
M  V30 2015 C 184.271 3.97082 2.03082 0
M  V30 2016 C 184.972 5.74477 0.913855 0
M  V30 2017 N 183.948 5.2423 1.43818 0
M  V30 2018 H 187.75 2.91967 0.336523 0
M  V30 2019 H 185.264 1.62174 0.0856332 0
M  V30 2020 H 187.261 3.09338 2.79492 0
M  V30 2021 H 185.921 1.93138 2.61013 0
M  V30 2022 H 186.932 5.12483 0.747067 0
M  V30 2023 H 183.609 3.29372 2.56554 0
M  V30 2024 H 184.999 6.70701 0.40125 0
M  V30 2025 N 187.719 -0.156864 1.56817 0
M  V30 2026 C 188.667 -1.21319 1.98455 0
M  V30 2027 C 189.661 -1.45025 0.875444 0
M  V30 2028 O 190.867 -1.45435 1.0606 0
M  V30 2029 H 187.242 -0.408142 0.631605 0
M  V30 2030 H 189.213 -0.835244 2.86472 0
M  V30 2031 C 187.962 -2.54148 2.37285 0
M  V30 2032 H 187.285 -2.36733 3.22176 0
M  V30 2033 H 188.725 -3.26712 2.70251 0
M  V30 2034 C 187.184 -3.13967 1.22173 0
M  V30 2035 O 187.714 -3.98357 0.517149 0
M  V30 2036 N 185.92 -2.7327 0.988536 0
M  V30 2037 H 185.467 -2.04744 1.56326 0
M  V30 2038 H 185.425 -3.13628 0.220209 0
M  V30 2039 N 189.197 -1.51736 -0.425897 0
M  V30 2040 C 190.13 -1.68574 -1.53812 0
M  V30 2041 C 191.108 -0.53328 -1.53606 0
M  V30 2042 O 192.292 -0.758555 -1.72564 0
M  V30 2043 C 189.419 -1.70977 -2.92377 0
M  V30 2044 C 188.465 -2.92324 -3.10563 0
M  V30 2045 S 189.298 -4.52952 -2.85648 0
M  V30 2046 C 190.454 -4.58117 -4.26474 0
M  V30 2047 H 190.687 -2.62647 -1.39298 0
M  V30 2048 H 188.22 -1.41564 -0.616361 0
M  V30 2049 H 190.178 -1.73047 -3.72243 0
M  V30 2050 H 188.839 -0.78061 -3.04245 0
M  V30 2051 H 188.032 -2.90439 -4.11899 0
M  V30 2052 H 187.634 -2.88055 -2.38538 0
M  V30 2053 H 189.926 -4.34462 -5.19855 0
M  V30 2054 H 190.869 -5.59983 -4.33388 0
M  V30 2055 H 191.277 -3.8732 -4.10662 0
M  V30 2056 N 190.675 0.682077 -1.42076 0
M  V30 2057 C 191.903 1.47057 -1.4554 0
M  V30 2058 C 192.318 1.8869 -0.0645779 0
M  V30 2059 O 191.675 1.57666 0.919115 0
M  V30 2060 C 191.726 2.72442 -2.37609 0
M  V30 2061 O 191.447 2.32559 -3.71279 0
M  V30 2062 C 192.948 3.66069 -2.50017 0
M  V30 2063 H 190.168 0.452737 -0.495248 0
M  V30 2064 H 192.712 0.838695 -1.8651 0
M  V30 2065 H 190.867 3.31835 -1.9991 0
M  V30 2066 H 191.281 3.13475 -4.20516 0
M  V30 2067 H 192.755 4.50792 -3.18576 0
M  V30 2068 H 193.232 4.11476 -1.53572 0
M  V30 2069 H 193.838 3.12572 -2.88407 0
M  V30 2070 N 192.153 1.28127 0.917671 0
M  V30 2071 C 193.381 1.17892 1.70026 0
M  V30 2072 C 193.796 -0.262958 1.8696 0
M  V30 2073 O 193.153 -1.17811 1.3938 0
M  V30 2074 C 193.204 1.86872 3.09453 0
M  V30 2075 O 192.925 3.25428 2.93306 0
M  V30 2076 C 194.426 1.8289 4.03815 0
M  V30 2077 H 191.646 0.40942 0.531617 0
M  V30 2078 H 194.19 1.69181 1.14883 0
M  V30 2079 H 192.345 1.39464 3.61426 0
M  V30 2080 H 192.759 3.59918 3.81523 0
M  V30 2081 H 194.233 2.35751 4.99125 0
M  V30 2082 H 194.71 0.800412 4.31845 0
M  V30 2083 H 195.316 2.29959 3.57769 0
M  V30 2084 N 193.631 -1.12557 1.10312 0
M  V30 2085 C 195.042 -1.65574 0.862678 0
M  V30 2086 C 195.393 -1.86566 -0.607256 0
M  V30 2087 O 194.518 -1.59121 -1.46662 0
M  V30 2088 C 195.113 -3.00776 1.55947 0
M  V30 2089 C 193.672 -3.50748 1.36576 0
M  V30 2090 C 192.819 -2.25797 1.60968 0
M  V30 2091 H 195.77 -0.963552 1.26101 0
M  V30 2092 H 195.791 -3.67185 0.997753 0
M  V30 2093 H 195.303 -2.85465 2.62928 0
M  V30 2094 H 193.404 -3.71245 0.317531 0
M  V30 2095 H 193.517 -4.30289 2.10686 0
M  V30 2096 H 191.881 -2.32841 1.03234 0
M  V30 2097 H 192.664 -2.13043 2.69198 0
M  V30 2098 N 195.109 -0.891671 -1.2995 0
M  V30 2099 C 196.057 -0.353066 -2.29905 0
M  V30 2100 C 197.051 0.543509 -1.60444 0
M  V30 2101 O 198.257 0.4272 -1.74857 0
M  V30 2102 H 194.632 -0.095531 -0.745907 0
M  V30 2103 H 196.603 -1.20961 -2.72784 0
M  V30 2104 C 195.352 0.411475 -3.45257 0
M  V30 2105 H 194.675 -0.269182 -3.98893 0
M  V30 2106 H 196.115 0.753328 -4.17254 0
M  V30 2107 C 194.574 1.6111 -2.9588 0
M  V30 2108 O 195.104 2.71045 -2.96475 0
M  V30 2109 N 193.31 1.45054 -2.51809 0
M  V30 2110 H 192.857 0.556175 -2.51524 0
M  V30 2111 H 192.815 2.25453 -2.1913 0
M  V30 2112 N 196.587 1.43421 -0.653314 0
M  V30 2113 C 197.534 2.30768 0.0382271 0
M  V30 2114 C 198.504 1.44755 0.814576 0
M  V30 2115 O 199.689 1.73624 0.791162 0
M  V30 2116 C 196.829 3.30336 0.998599 0
M  V30 2117 C 195.942 4.31448 0.218342 0
M  V30 2118 C 195.077 5.18098 1.17252 0
M  V30 2119 C 194.116 6.10902 0.382702 0
M  V30 2120 N 193.253 6.90176 1.28848 0
M  V30 2121 H 198.093 2.89357 -0.712511 0
M  V30 2122 H 195.63 1.42548 -0.363128 0
M  V30 2123 H 197.588 3.86572 1.56901 0
M  V30 2124 H 196.218 2.73397 1.71621 0
M  V30 2125 H 195.27 3.77506 -0.46836 0
M  V30 2126 H 196.582 4.97227 -0.395812 0
M  V30 2127 H 195.736 5.7896 1.81356 0
M  V30 2128 H 194.475 4.52444 1.82058 0
M  V30 2129 H 193.48 5.49128 -0.27169 0
M  V30 2130 H 194.705 6.78598 -0.260957 0
M  V30 2131 H 192.651 6.27171 1.92334 0
M  V30 2132 H 192.568 7.52478 0.728887 0
M  V30 2133 H 193.836 7.55543 1.91766 0
M  V30 2134 N 198.065 0.39524 1.52563 0
M  V30 2135 C 198.995 -0.428384 2.29537 0
M  V30 2136 C 199.976 -1.05831 1.33169 0
M  V30 2137 O 201.161 -1.06995 1.62067 0
M  V30 2138 C 198.291 -1.55274 3.10656 0
M  V30 2139 C 197.245 -1.04855 4.14957 0
M  V30 2140 C 196.571 -2.26543 4.84337 0
M  V30 2141 C 197.871 -0.112324 5.22179 0
M  V30 2142 H 199.565 0.213867 2.98635 0
M  V30 2143 H 197.111 0.104298 1.43622 0
M  V30 2144 H 199.064 -2.1358 3.63265 0
M  V30 2145 H 197.788 -2.22266 2.39302 0
M  V30 2146 H 196.447 -0.487985 3.63338 0
M  V30 2147 H 196.095 -2.92059 4.09525 0
M  V30 2148 H 195.795 -1.93466 5.54837 0
M  V30 2149 H 197.319 -2.85481 5.39753 0
M  V30 2150 H 198.733 -0.603752 5.70112 0
M  V30 2151 H 197.13 0.128968 5.99961 0
M  V30 2152 H 198.2 0.837052 4.77621 0
M  V30 2153 N 199.544 -1.57102 0.125237 0
M  V30 2154 C 200.791 -1.95407 -0.531248 0
M  V30 2155 C 201.119 -1.0089 -1.66287 0
M  V30 2156 O 200.374 -0.0339431 -1.95671 0
M  V30 2157 C 200.673 -3.40096 -1.09862 0
M  V30 2158 C 200.339 -4.50815 -0.0876989 0
M  V30 2159 C 199.001 -4.80824 0.19026 0
M  V30 2160 C 201.353 -5.17724 0.600902 0
M  V30 2161 C 198.681 -5.75058 1.163 0
M  V30 2162 C 201.033 -6.13005 1.56231 0
M  V30 2163 C 199.697 -6.41403 1.8482 0
M  V30 2164 H 198.967 -0.715046 -0.194397 0
M  V30 2165 H 201.614 -1.90373 0.207463 0
M  V30 2166 H 199.919 -3.41855 -1.91422 0
M  V30 2167 H 201.616 -3.6705 -1.61478 0
M  V30 2168 H 198.206 -4.27444 -0.314528 0
M  V30 2169 H 202.39 -4.94691 0.399333 0
M  V30 2170 H 197.646 -5.95362 1.39117 0
M  V30 2171 H 201.82 -6.63934 2.10153 0
M  V30 2172 H 199.447 -7.14229 2.60349 0
M  V30 2173 N 201.022 0.148545 -1.56898 0
M  V30 2174 C 202.438 0.501131 -1.51528 0
M  V30 2175 C 202.638 1.83458 -0.833399 0
M  V30 2176 O 201.694 2.49259 -0.40328 0
M  V30 2177 C 203.007 0.512864 -2.96294 0
M  V30 2178 C 204.555 0.598487 -3.07225 0
M  V30 2179 C 205.03 0.640897 -4.53494 0
M  V30 2180 N 206.521 0.703163 -4.57832 0
M  V30 2181 C 207.256 0.756935 -5.68382 0
M  V30 2182 N 206.752 0.770147 -6.88506 0
M  V30 2183 N 208.545 0.797698 -5.56411 0
M  V30 2184 H 200.696 -0.725532 -1.99624 0
M  V30 2185 H 202.959 -0.264358 -0.910395 0
M  V30 2186 H 202.665 -0.398691 -3.49433 0
M  V30 2187 H 202.539 1.35133 -3.52163 0
M  V30 2188 H 204.926 1.50046 -2.54106 0
M  V30 2189 H 205.007 -0.267093 -2.54402 0
M  V30 2190 H 204.651 -0.256915 -5.0725 0
M  V30 2191 H 204.581 1.52295 -5.04097 0
M  V30 2192 H 207.072 0.700314 -3.71354 0
M  V30 2193 H 207.385 0.812983 -7.68512 0
M  V30 2194 H 205.73 0.738049 -6.9107 0
M  V30 2195 H 208.921 0.784535 -4.61479 0
M  V30 2196 H 209.094 0.83614 -6.42583 0
M  V30 2197 N 202.5 1.5196 0.417844 0
M  V30 2198 C 203.749 1.6482 1.16264 0
M  V30 2199 C 204.062 0.379886 1.91876 0
M  V30 2200 O 205.268 0.388154 2.68711 0
M  V30 2201 C 203.724 2.91161 2.1155 0
M  V30 2202 C 203.332 4.25068 1.41495 0
M  V30 2203 C 205.076 3.13383 2.86341 0
M  V30 2204 C 202.983 5.42541 2.35379 0
M  V30 2205 H 201.913 0.613954 0.437694 0
M  V30 2206 H 204.564 1.78442 0.427871 0
M  V30 2207 H 202.946 2.71218 2.88543 0
M  V30 2208 H 204.12 4.55463 0.699263 0
M  V30 2209 H 202.435 4.0888 0.787792 0
M  V30 2210 H 205.032 3.98324 3.5671 0
M  V30 2211 H 205.375 2.27256 3.48798 0
M  V30 2212 H 205.908 3.33757 2.1645 0
M  V30 2213 H 202.647 6.30987 1.77582 0
M  V30 2214 H 202.167 5.16497 3.04945 0
M  V30 2215 H 203.846 5.75272 2.96093 0
M  V30 2216 N 203.978 -0.674533 1.42435 0
M  V30 2217 C 204.911 -1.79924 1.40366 0
M  V30 2218 C 205.889 -1.60378 0.267899 0
M  V30 2219 O 207.073 -1.82847 0.458159 0
M  V30 2220 C 204.2 -3.16927 1.19478 0
M  V30 2221 C 203.246 -3.55221 2.36051 0
M  V30 2222 S 204.079 -3.5762 3.98583 0
M  V30 2223 C 205.235 -4.97315 3.80038 0
M  V30 2224 H 205.468 -1.81405 2.35541 0
M  V30 2225 H 203.001 -0.845221 1.29211 0
M  V30 2226 H 204.959 -3.96007 1.08114 0
M  V30 2227 H 203.62 -3.13031 0.258883 0
M  V30 2228 H 202.813 -4.54804 2.17185 0
M  V30 2229 H 202.415 -2.83502 2.43932 0
M  V30 2230 H 204.707 -5.85401 3.41045 0
M  V30 2231 H 205.65 -5.21228 4.79298 0
M  V30 2232 H 206.058 -4.69845 3.12899 0
M  V30 2233 N 205.456 -1.28612 -0.910864 0
M  V30 2234 C 206.388 -1.08589 -2.01844 0
M  V30 2235 C 207.401 -0.0367419 -1.62759 0
M  V30 2236 O 208.59 -0.280101 -1.76289 0
M  V30 2237 C 205.69 -0.628626 -3.33019 0
M  V30 2238 C 204.863 -1.75382 -4.00699 0
M  V30 2239 C 203.922 -1.28945 -5.10156 0
M  V30 2240 O 202.948 -1.9922 -5.33198 0
M  V30 2241 N 204.15 -0.154224 -5.80295 0
M  V30 2242 H 206.915 -2.03973 -2.19579 0
M  V30 2243 H 204.476 -1.20403 -1.08234 0
M  V30 2244 H 206.468 -0.301508 -4.03575 0
M  V30 2245 H 205.038 0.232451 -3.11735 0
M  V30 2246 H 204.258 -2.25039 -3.23653 0
M  V30 2247 H 205.546 -2.50854 -4.42662 0
M  V30 2248 H 204.944 0.43194 -5.64049 0
M  V30 2249 H 203.501 0.113599 -6.51701 0
M  V30 2250 N 206.934 1.1197 -1.10907 0
M  V30 2251 C 207.882 2.19927 -0.757303 0
M  V30 2252 C 208.876 1.67564 0.248747 0
M  V30 2253 O 210.082 1.79672 0.108605 0
M  V30 2254 H 206.457 0.716925 -0.226987 0
M  V30 2255 H 208.428 2.46847 -1.67658 0
M  V30 2256 C 207.177 3.47061 -0.210671 0
M  V30 2257 H 206.5 3.87703 -0.976049 0
M  V30 2258 H 207.94 4.24 -0.0026584 0
M  V30 2259 C 206.399 3.19864 1.05777 0
M  V30 2260 O 206.929 3.40049 2.13845 0
M  V30 2261 N 205.135 2.73636 0.978349 0
M  V30 2262 H 204.682 2.5741 0.0988246 0
M  V30 2263 H 204.64 2.55815 1.82773 0
M  V30 2264 N 208.412 0.89855 1.29475 0
M  V30 2265 C 209.66 0.522847 1.9522 0
M  V30 2266 C 209.981 -0.93371 1.71192 0
M  V30 2267 O 209.251 -1.65823 1.04305 0
M  V30 2268 H 207.831 0.190366 0.722336 0
M  V30 2269 H 210.493 1.14459 1.5775 0
M  V30 2270 H 209.589 0.704476 3.04045 0
M  V30 2271 N 209.89 -1.43072 0.660911 0
M  V30 2272 C 211.118 -2.06067 0.185422 0
M  V30 2273 C 211.533 -1.49582 -1.15198 0
M  V30 2274 O 210.89 -0.630134 -1.71276 0
M  V30 2275 C 210.941 -3.61371 0.0966523 0
M  V30 2276 O 210.662 -4.15758 1.38119 0
M  V30 2277 C 212.163 -4.41455 -0.403996 0
M  V30 2278 H 209.383 -0.664459 0.0934604 0
M  V30 2279 H 211.927 -1.83447 0.90373 0
M  V30 2280 H 210.082 -3.8315 -0.572259 0
M  V30 2281 H 210.496 -5.09499 1.24542 0
M  V30 2282 H 211.97 -5.50437 -0.415045 0
M  V30 2283 H 212.447 -4.15036 -1.43674 0
M  V30 2284 H 213.053 -4.24663 0.232691 0
M  V30 2285 N 211.368 -0.403325 -1.52352 0
M  V30 2286 C 212.617 0.175668 -2.00934 0
M  V30 2287 C 212.93 1.46718 -1.29356 0
M  V30 2288 O 214.136 2.12708 -1.68724 0
M  V30 2289 C 212.592 0.363612 -3.58058 0
M  V30 2290 C 212.2 -0.915472 -4.38547 0
M  V30 2291 C 213.944 0.89821 -4.14888 0
M  V30 2292 C 211.851 -0.695035 -5.87302 0
M  V30 2293 H 210.781 0.0694234 -0.750797 0
M  V30 2294 H 213.432 -0.527879 -1.75743 0
M  V30 2295 H 211.814 1.12935 -3.79555 0
M  V30 2296 H 212.988 -1.68691 -4.28812 0
M  V30 2297 H 211.303 -1.37606 -3.93006 0
M  V30 2298 H 213.9 1.07907 -5.23699 0
M  V30 2299 H 214.243 1.87126 -3.71873 0
M  V30 2300 H 214.776 0.191681 -3.97338 0
M  V30 2301 H 211.515 -1.63948 -6.34666 0
M  V30 2302 H 211.035 0.0372116 -5.99788 0
M  V30 2303 H 212.714 -0.33497 -6.46132 0
M  V30 2304 N 212.846 1.57033 -0.133567 0
M  V30 2305 C 213.776 2.1909 0.807567 0
M  V30 2306 C 214.757 1.13517 1.26681 0
M  V30 2307 O 215.942 1.41809 1.32679 0
M  V30 2308 C 213.072 2.80188 2.05212 0
M  V30 2309 C 212.026 3.91471 1.73015 0
M  V30 2310 C 211.352 4.39443 3.04622 0
M  V30 2311 C 212.652 5.12886 0.987168 0
M  V30 2312 H 214.346 2.97988 0.290403 0
M  V30 2313 H 211.892 1.43335 0.138239 0
M  V30 2314 H 213.845 3.22264 2.71521 0
M  V30 2315 H 212.569 1.98601 2.59278 0
M  V30 2316 H 211.228 3.49993 1.0909 0
M  V30 2317 H 210.876 3.54695 3.56651 0
M  V30 2318 H 210.576 5.14495 2.83847 0
M  V30 2319 H 212.1 4.8418 3.72024 0
M  V30 2320 H 213.514 5.51891 1.55208 0
M  V30 2321 H 211.911 5.93615 0.87985 0
M  V30 2322 H 212.981 4.84894 -0.0235286 0
M  V30 2323 N 214.325 -0.140222 1.56975 0
M  V30 2324 C 215.555 -0.865181 1.87612 0
M  V30 2325 C 215.963 -1.74942 0.72055 0
M  V30 2326 O 215.306 -1.80917 -0.318561 0
M  V30 2327 C 215.368 -1.76782 3.13031 0
M  V30 2328 C 215.032 -1.06005 4.44536 0
M  V30 2329 C 216.029 -0.410768 5.18275 0
M  V30 2330 C 213.714 -1.04754 4.91255 0
M  V30 2331 C 215.708 0.241572 6.36942 0
M  V30 2332 C 213.395 -0.391394 6.09845 0
M  V30 2333 C 214.393 0.252029 6.82535 0
M  V30 2334 O 214.081 0.897757 7.98871 0
M  V30 2335 H 213.813 -0.255188 0.625983 0
M  V30 2336 H 216.367 -0.135653 2.04952 0
M  V30 2337 H 214.597 -2.53846 2.91718 0
M  V30 2338 H 216.286 -2.36533 3.29859 0
M  V30 2339 H 217.052 -0.412195 4.83245 0
M  V30 2340 H 212.931 -1.53777 4.34596 0
M  V30 2341 H 216.475 0.744375 6.93617 0
M  V30 2342 H 212.372 -0.387656 6.44335 0
M  V30 2343 H 213.14 0.800102 8.1458 0
M  V30 2344 N 215.803 -1.52179 -0.40978 0
M  V30 2345 C 217.031 -1.70054 -1.17853 0
M  V30 2346 C 217.446 -0.409735 -1.843 0
M  V30 2347 O 216.803 0.614183 -1.71855 0
M  V30 2348 C 216.854 -2.83568 -2.24213 0
M  V30 2349 O 216.575 -4.0765 -1.60478 0
M  V30 2350 C 218.076 -3.12947 -3.13973 0
M  V30 2351 H 215.296 -0.569917 -0.354169 0
M  V30 2352 H 217.84 -1.98734 -0.482198 0
M  V30 2353 H 215.995 -2.57409 -2.89516 0
M  V30 2354 H 216.409 -4.70899 -2.30986 0
M  V30 2355 H 217.883 -3.95889 -3.84677 0
M  V30 2356 H 218.36 -2.26472 -3.76307 0
M  V30 2357 H 218.966 -3.40868 -2.5434 0
M  V30 2358 N 217.281 0.66697 -1.42791 0
M  V30 2359 C 218.214 1.79177 -1.41318 0
M  V30 2360 C 219.192 1.60234 -0.276401 0
M  V30 2361 O 220.376 1.82602 -0.46785 0
M  V30 2362 C 217.503 3.16289 -1.21157 0
M  V30 2363 C 216.549 3.53964 -2.37932 0
M  V30 2364 S 217.382 3.55501 -4.00474 0
M  V30 2365 C 218.538 4.95292 -3.8267 0
M  V30 2366 H 218.771 1.80153 -2.365 0
M  V30 2367 H 216.304 0.838357 -1.29657 0
M  V30 2368 H 218.262 3.95428 -1.10212 0
M  V30 2369 H 216.923 3.1289 -0.275481 0
M  V30 2370 H 216.116 4.53646 -2.19594 0
M  V30 2371 H 215.718 2.82204 -2.45432 0
M  V30 2372 H 218.01 5.83584 -3.44145 0
M  V30 2373 H 218.953 5.18679 -4.82055 0
M  V30 2374 H 219.361 4.68179 -3.15386 0
M  V30 2375 N 218.759 1.29093 0.90403 0
M  V30 2376 C 220.175 1.07011 1.1841 0
M  V30 2377 C 220.375 -0.181358 2.00682 0
M  V30 2378 O 219.431 -0.880331 2.36657 0
M  V30 2379 C 220.744 2.32311 1.90924 0
M  V30 2380 C 222.292 2.37587 2.03768 0
M  V30 2381 C 222.767 3.62679 2.79693 0
M  V30 2382 N 224.258 3.63376 2.87249 0
M  V30 2383 C 224.993 4.56848 3.46522 0
M  V30 2384 N 224.489 5.60648 4.06996 0
M  V30 2385 N 226.282 4.44426 3.44154 0
M  V30 2386 H 218.433 2.09412 0.354993 0
M  V30 2387 H 220.696 0.922181 0.219742 0
M  V30 2388 H 220.402 3.23536 1.37905 0
M  V30 2389 H 220.276 2.39483 2.91424 0
M  V30 2390 H 222.663 1.46853 2.55965 0
M  V30 2391 H 222.744 2.34403 1.02415 0
M  V30 2392 H 222.388 4.53762 2.28173 0
M  V30 2393 H 222.318 3.63119 3.81381 0
M  V30 2394 H 224.809 2.88321 2.44293 0
M  V30 2395 H 225.122 6.28101 4.50232 0
M  V30 2396 H 223.467 5.64463 4.05471 0
M  V30 2397 H 226.658 3.62529 2.96126 0
M  V30 2398 H 226.831 5.17457 3.90054 0
M  V30 2399 N 220.237 -1.11381 1.11499 0
M  V30 2400 C 221.167 -2.19509 0.796125 0
M  V30 2401 C 222.148 -1.68458 -0.235796 0
M  V30 2402 O 223.333 -1.93947 -0.0991344 0
M  V30 2403 C 220.463 -3.46475 0.239205 0
M  V30 2404 C 219.417 -4.10744 1.20307 0
M  V30 2405 C 218.743 -5.32293 0.50683 0
M  V30 2406 C 220.043 -4.55597 2.55399 0
M  V30 2407 H 221.737 -2.46439 1.70024 0
M  V30 2408 H 219.283 -1.18446 0.818935 0
M  V30 2409 H 221.236 -4.214 0.00392006 0
M  V30 2410 H 219.96 -3.19006 -0.700206 0
M  V30 2411 H 218.619 -3.37813 1.42399 0
M  V30 2412 H 218.267 -5.01095 -0.437408 0
M  V30 2413 H 217.967 -5.76243 1.1497 0
M  V30 2414 H 219.491 -6.09956 0.280351 0
M  V30 2415 H 220.905 -5.21841 2.37391 0
M  V30 2416 H 219.302 -5.10363 3.15673 0
M  V30 2417 H 220.372 -3.69013 3.14575 0
M  V30 2418 N 221.715 -0.905404 -1.28997 0
M  V30 2419 C 222.943 -0.549846 -1.9946 0
M  V30 2420 C 223.358 0.866834 -1.67724 0
M  V30 2421 O 222.715 1.57298 -0.925404 0
M  V30 2422 C 222.766 -0.739387 -3.53858 0
M  V30 2423 O 222.487 -2.10031 -3.84472 0
M  V30 2424 C 223.988 -0.389541 -4.41585 0
M  V30 2425 H 221.208 -0.210429 -0.637151 0
M  V30 2426 H 223.752 -1.21632 -1.64396 0
M  V30 2427 H 221.907 -0.120023 -3.87214 0
M  V30 2428 H 222.321 -2.13385 -4.79132 0
M  V30 2429 H 223.795 -0.572972 -5.49018 0
M  V30 2430 H 224.272 0.673756 -4.34001 0
M  V30 2431 H 224.878 -0.986089 -4.1371 0
M  V30 2432 N 223.193 1.4272 -0.668489 0
M  V30 2433 C 224.442 2.00846 -0.185389 0
M  V30 2434 C 224.755 1.53442 1.21305 0
M  V30 2435 O 225.961 2.03944 1.79218 0
M  V30 2436 C 224.417 3.58805 -0.280591 0
M  V30 2437 C 224.025 4.15198 -1.68268 0
M  V30 2438 C 225.769 4.24255 0.14412 0
M  V30 2439 C 223.676 5.655 -1.73099 0
M  V30 2440 H 222.606 0.751145 -0.0655475 0
M  V30 2441 H 225.257 1.63516 -0.832752 0
M  V30 2442 H 223.639 3.93608 0.434553 0
M  V30 2443 H 224.813 3.91866 -2.42441 0
M  V30 2444 H 223.128 3.62176 -2.05469 0
M  V30 2445 H 225.725 5.34547 0.128086 0
M  V30 2446 H 226.068 3.99277 1.17827 0
M  V30 2447 H 226.601 3.94389 -0.519798 0
M  V30 2448 H 223.34 5.95268 -2.74475 0
M  V30 2449 H 222.86 5.90842 -1.03274 0
M  V30 2450 H 224.539 6.29808 -1.48158 0
M  V30 2451 N 224.671 0.411399 1.52136 0
M  V30 2452 C 225.619 -0.427633 2.28635 0
M  V30 2453 C 226.613 -1.04383 1.33419 0
M  V30 2454 O 227.819 -0.981772 1.50868 0
M  V30 2455 H 224.194 -0.156689 0.735495 0
M  V30 2456 H 226.165 0.238761 2.97443 0
M  V30 2457 C 224.914 -1.53082 3.12188 0
M  V30 2458 H 224.237 -1.06601 3.85326 0
M  V30 2459 H 225.677 -2.09167 3.68816 0
M  V30 2460 C 224.136 -2.49946 2.25895 0
M  V30 2461 O 224.666 -3.53884 1.90076 0
M  V30 2462 N 222.872 -2.2021 1.8962 0
M  V30 2463 H 222.419 -1.35719 2.18948 0
M  V30 2464 H 222.377 -2.85266 1.32176 0
M  V30 2465 N 226.149 -1.5696 0.141893 0
M  V30 2466 C 227.112 -2.15316 -0.785587 0
M  V30 2467 C 228.112 -1.09366 -1.1788 0
M  V30 2468 O 229.302 -1.35031 -1.10056 0
M  V30 2469 C 226.434 -2.71211 -2.06537 0
M  V30 2470 H 227.627 -2.98608 -0.278041 0
M  V30 2471 H 225.18 -1.5593 -0.107519 0
M  V30 2472 H 225.915 -1.91571 -2.6167 0
M  V30 2473 H 225.7 -3.4872 -1.79268 0
M  V30 2474 H 227.19 -3.16189 -2.72789 0
M  V30 2475 N 227.627 0.131896 -1.57047 0
M  V30 2476 C 228.904 0.871495 -1.75112 0
M  V30 2477 C 229.284 1.9866 -0.713949 0
M  V30 2478 O 228.632 2.26965 0.264447 0
M  V30 2479 C 228.842 1.40007 -3.19686 0
M  V30 2480 C 230.19 1.85752 -3.81813 0
M  V30 2481 O 231.214 1.49715 -3.23209 0
M  V30 2482 O 230.073 2.5226 -4.84796 0
M  V30 2483 H 227.167 0.412919 -0.716538 0
M  V30 2484 H 229.713 0.116641 -1.69299 0
M  V30 2485 H 228.485 0.599404 -3.86682 0
M  V30 2486 H 228.108 2.218 -3.29986 0
M  V30 2487 N 229.106 1.52395 0.401703 0
M  V30 2488 C 230.346 1.68498 1.15705 0
M  V30 2489 C 230.71 0.409748 1.87577 0
M  V30 2490 O 231.911 0.446983 2.65058 0
M  V30 2491 C 230.182 2.87789 2.11924 0
M  V30 2492 S 231.741 3.24415 2.95466 0
M  V30 2493 H 228.559 0.593267 0.391862 0
M  V30 2494 H 231.161 1.90408 0.443282 0
M  V30 2495 H 229.865 3.7884 1.57824 0
M  V30 2496 H 229.396 2.68175 2.87829 0
M  V30 2497 H 231.411 2.73614 4.13944 0
M  V30 2498 N 230.584 -0.659388 1.43143 0
M  V30 2499 C 231.995 -1.24041 1.39537 0
M  V30 2500 C 232.346 -1.95963 0.0963364 0
M  V30 2501 O 231.471 -2.00892 -0.804438 0
M  V30 2502 C 232.066 -2.25601 2.52764 0
M  V30 2503 C 230.625 -2.79195 2.52443 0
M  V30 2504 C 229.772 -1.53743 2.30778 0
M  V30 2505 H 232.723 -0.451792 1.52133 0
M  V30 2506 H 232.744 -3.07651 2.23899 0
M  V30 2507 H 232.256 -1.73226 3.47296 0
M  V30 2508 H 230.357 -3.35649 1.61773 0
M  V30 2509 H 230.47 -3.2716 3.50004 0
M  V30 2510 H 228.834 -1.80869 1.79328 0
M  V30 2511 H 229.617 -1.03312 3.27386 0
M  V30 2512 N 232.062 -1.29571 -0.897171 0
M  V30 2513 C 232.995 -1.0924 -2.00354 0
M  V30 2514 C 233.973 -0.00354011 -1.626 0
M  V30 2515 O 235.157 -0.15473 -1.87864 0
M  V30 2516 C 232.284 -0.66352 -3.32137 0
M  V30 2517 C 231.33 -1.75146 -3.88878 0
M  V30 2518 S 232.163 -3.35124 -4.17674 0
M  V30 2519 C 233.319 -2.9411 -5.52494 0
M  V30 2520 H 233.552 -2.02907 -2.17292 0
M  V30 2521 H 231.085 -1.13746 -1.04408 0
M  V30 2522 H 233.043 -0.422791 -4.08317 0
M  V30 2523 H 231.704 0.253588 -3.13075 0
M  V30 2524 H 230.897 -1.40337 -4.84068 0
M  V30 2525 H 230.499 -1.94584 -3.19395 0
M  V30 2526 H 232.791 -2.41312 -6.33068 0
M  V30 2527 H 233.734 -3.88161 -5.9223 0
M  V30 2528 H 234.142 -2.32332 -5.14473 0
M  V30 2529 N 233.54 1.10788 -1.12088 0
M  V30 2530 C 234.956 1.34691 -0.856186 0
M  V30 2531 C 235.156 1.94791 0.515615 0
M  V30 2532 O 234.212 2.18524 1.26505 0
M  V30 2533 C 235.525 2.27208 -1.9697 0
M  V30 2534 C 237.073 2.40755 -2.00016 0
M  V30 2535 C 237.548 3.36598 -3.1059 0
M  V30 2536 N 239.039 3.44164 -3.10008 0
M  V30 2537 C 239.774 4.18284 -3.92206 0
M  V30 2538 N 239.27 4.95322 -4.84384 0
M  V30 2539 N 241.063 4.13865 -3.80357 0
M  V30 2540 H 233.214 0.70144 -2.00483 0
M  V30 2541 H 235.477 0.371405 -0.872217 0
M  V30 2542 H 235.183 1.90251 -2.958 0
M  V30 2543 H 235.057 3.27485 -1.87172 0
M  V30 2544 H 237.444 2.76982 -1.01808 0
M  V30 2545 H 237.525 1.40305 -2.13888 0
M  V30 2546 H 237.169 3.01096 -4.09028 0
M  V30 2547 H 237.099 4.36918 -2.93956 0
M  V30 2548 H 239.59 2.8922 -2.43228 0
M  V30 2549 H 239.903 5.49267 -5.43623 0
M  V30 2550 H 238.248 4.94459 -4.884 0
M  V30 2551 H 241.439 3.52773 -3.07683 0
M  V30 2552 H 241.612 4.71372 -4.44649 0
M  V30 2553 N 235.018 0.912232 1.28515 0
M  V30 2554 C 235.948 0.416403 2.29757 0
M  V30 2555 C 236.929 -0.515194 1.6211 0
M  V30 2556 O 238.114 -0.423253 1.89532 0
M  V30 2557 C 235.244 -0.34572 3.45575 0
M  V30 2558 C 234.198 0.496599 4.25109 0
M  V30 2559 C 233.524 -0.393771 5.33248 0
M  V30 2560 C 234.824 1.75307 4.92001 0
M  V30 2561 H 236.518 1.26249 2.7148 0
M  V30 2562 H 234.064 0.608515 1.30511 0
M  V30 2563 H 236.017 -0.703422 4.15488 0
M  V30 2564 H 234.741 -1.2257 3.02728 0
M  V30 2565 H 233.4 0.8368 3.56922 0
M  V30 2566 H 233.048 -1.27225 4.86644 0
M  V30 2567 H 232.748 0.166209 5.87365 0
M  V30 2568 H 234.272 -0.747389 6.06009 0
M  V30 2569 H 235.686 1.46437 5.54283 0
M  V30 2570 H 234.083 2.25534 5.56106 0
M  V30 2571 H 235.153 2.48176 4.16577 0
M  V30 2572 N 236.496 -1.42363 0.676048 0
M  V30 2573 C 237.742 -2.0182 0.199125 0
M  V30 2574 C 238.075 -1.53339 -1.19168 0
M  V30 2575 O 237.35 -0.736124 -1.80032 0
M  V30 2576 C 237.633 -3.59331 0.235144 0
M  V30 2577 C 237.486 -4.17989 1.66149 0
M  V30 2578 C 238.805 -4.3813 -0.41595 0
M  V30 2579 H 235.924 -0.733293 0.0738311 0
M  V30 2580 H 238.566 -1.69368 0.86107 0
M  V30 2581 H 236.716 -3.87109 -0.328487 0
M  V30 2582 H 238.388 -4.0116 2.27747 0
M  V30 2583 H 236.631 -3.7377 2.20178 0
M  V30 2584 H 237.302 -5.27126 1.63837 0
M  V30 2585 H 239.778 -4.16051 0.0638529 0
M  V30 2586 H 238.654 -5.47717 -0.360115 0
M  V30 2587 H 238.915 -4.16101 -1.49373 0
M  V30 2588 N 237.974 -0.419461 -1.51915 0
M  V30 2589 C 238.922 0.415502 -2.28859 0
M  V30 2590 C 239.916 1.03674 -1.3397 0
M  V30 2591 O 241.122 0.973757 -1.51387 0
M  V30 2592 H 237.497 0.152786 -0.736315 0
M  V30 2593 H 239.468 -0.254531 -2.97312 0
M  V30 2594 C 238.217 1.51425 -3.12995 0
M  V30 2595 H 237.54 1.04556 -3.85886 0
M  V30 2596 H 238.98 2.07208 -3.6992 0
M  V30 2597 C 237.439 2.48745 -2.27217 0
M  V30 2598 O 237.969 3.52871 -1.9195 0
M  V30 2599 N 236.175 2.19202 -1.90785 0
M  V30 2600 H 235.722 1.34556 -2.19664 0
M  V30 2601 H 235.68 2.84561 -1.33687 0
M  V30 2602 N 239.452 1.56882 -0.150215 0
M  V30 2603 C 240.699 1.96228 0.500093 0
M  V30 2604 C 241.027 1.03522 1.64661 0
M  V30 2605 O 240.282 0.0650683 1.95592 0
M  V30 2606 C 240.581 3.41801 1.04437 0
M  V30 2607 C 240.247 4.50897 0.0159671 0
M  V30 2608 C 238.909 4.8046 -0.266731 0
M  V30 2609 C 241.261 5.16703 -0.683192 0
M  V30 2610 C 238.589 5.73135 -1.25434 0
M  V30 2611 C 240.941 6.10441 -1.65964 0
M  V30 2612 C 239.605 6.38382 -1.95 0
M  V30 2613 H 238.875 0.718048 0.182997 0
M  V30 2614 H 241.522 1.90019 -0.237724 0
M  V30 2615 H 239.827 3.44857 1.85959 0
M  V30 2616 H 241.524 3.69573 1.55618 0
M  V30 2617 H 238.114 4.27891 0.246485 0
M  V30 2618 H 242.298 4.93993 -0.477983 0
M  V30 2619 H 237.554 5.93074 -1.48571 0
M  V30 2620 H 241.728 6.60507 -2.20689 0
M  V30 2621 H 239.355 7.09996 -2.71679 0
M  V30 2622 N 240.93 -0.123565 1.57115 0
M  V30 2623 C 242.341 -0.681198 1.73829 0
M  V30 2624 C 242.692 -1.80535 0.768214 0
M  V30 2625 O 241.817 -2.16317 -0.0599103 0
M  V30 2626 C 242.412 -1.24246 3.15196 0
M  V30 2627 C 240.971 -1.74643 3.33432 0
M  V30 2628 C 240.118 -0.644284 2.69711 0
M  V30 2629 H 243.069 0.102315 1.5837 0
M  V30 2630 H 243.09 -2.11216 3.16493 0
M  V30 2631 H 242.602 -0.424062 3.85776 0
M  V30 2632 H 240.703 -2.58974 2.67886 0
M  V30 2633 H 240.816 -1.85902 4.41562 0
M  V30 2634 H 239.18 -1.07676 2.3082 0
M  V30 2635 H 239.963 0.163058 3.42913 0
M  V30 2636 N 242.408 -1.52605 -0.393616 0
M  V30 2637 C 243.341 -1.71798 -1.50202 0
M  V30 2638 C 244.319 -0.565743 -1.52441 0
M  V30 2639 O 245.503 -0.794987 -1.70916 0
M  V30 2640 C 242.63 -1.7714 -2.88685 0
M  V30 2641 C 241.676 -2.98845 -3.04292 0
M  V30 2642 S 242.509 -4.58909 -2.75976 0
M  V30 2643 C 243.665 -4.6706 -4.1666 0
M  V30 2644 H 243.898 -2.65542 -1.33696 0
M  V30 2645 H 241.431 -1.42839 -0.586195 0
M  V30 2646 H 243.389 -1.80903 -3.68489 0
M  V30 2647 H 242.05 -0.844969 -3.02521 0
M  V30 2648 H 241.243 -2.99111 -4.05646 0
M  V30 2649 H 240.845 -2.9305 -2.32374 0
M  V30 2650 H 243.137 -4.45391 -5.10523 0
M  V30 2651 H 244.08 -5.6905 -4.21412 0
M  V30 2652 H 244.488 -3.95944 -4.02354 0
M  V30 2653 N 243.887 0.651787 -1.4349 0
M  V30 2654 C 245.164 1.40909 -1.35661 0
M  V30 2655 C 245.544 2.11099 -0.00511733 0
M  V30 2656 O 244.892 2.04892 1.0115 0
M  V30 2657 C 245.102 2.3926 -2.54078 0
M  V30 2658 C 246.45 3.03217 -2.97228 0
M  V30 2659 O 247.474 2.49588 -2.54135 0
M  V30 2660 O 246.333 4.00455 -3.71885 0
M  V30 2661 H 243.427 0.629625 -0.536191 0
M  V30 2662 H 245.973 0.678575 -1.55542 0
M  V30 2663 H 244.745 1.86352 -3.44076 0
M  V30 2664 H 244.368 3.1976 -2.36303 0
M  V30 2665 N 245.365 1.30045 0.890287 0
M  V30 2666 C 246.613 1.18327 1.63839 0
M  V30 2667 C 246.934 -0.263455 1.93212 0
M  V30 2668 O 246.204 -1.17856 1.56482 0
M  V30 2669 H 244.784 0.434933 0.607324 0
M  V30 2670 H 247.446 1.631 1.06698 0
M  V30 2671 H 246.542 1.74024 2.59079 0
M  V30 2672 N 246.843 -1.10192 1.12674 0
M  V30 2673 C 247.793 -2.14754 0.765801 0
M  V30 2674 C 248.777 -1.59154 -0.236409 0
M  V30 2675 O 249.969 -1.76951 -0.0415261 0
M  V30 2676 C 247.098 -3.42563 0.224827 0
M  V30 2677 C 246.184 -4.05091 1.25548 0
M  V30 2678 N 246.575 -4.42287 2.4539 0
M  V30 2679 C 244.873 -4.32186 1.10142 0
M  V30 2680 C 245.574 -4.91441 3.11224 0
M  V30 2681 N 244.55 -4.88405 2.38666 0
M  V30 2682 H 248.352 -2.41309 1.67772 0
M  V30 2683 H 245.866 -1.27339 1.00789 0
M  V30 2684 H 247.863 -4.16868 -0.0519578 0
M  V30 2685 H 246.523 -3.17467 -0.681515 0
M  V30 2686 H 247.534 -4.33902 2.82754 0
M  V30 2687 H 244.211 -4.16735 0.252587 0
M  V30 2688 H 245.601 -5.29749 4.13298 0
M  V30 2689 N 248.321 -0.919034 -1.28029 0
M  V30 2690 C 249.284 -0.416182 -2.2539 0
M  V30 2691 C 250.284 0.460438 -1.54067 0
M  V30 2692 O 251.474 0.262744 -1.72207 0
M  V30 2693 C 248.606 0.402707 -3.38513 0
M  V30 2694 H 249.799 -1.27629 -2.71387 0
M  V30 2695 H 247.352 -0.698919 -1.39803 0
M  V30 2696 H 248.087 1.282 -2.97885 0
M  V30 2697 H 247.872 -0.225698 -3.9145 0
M  V30 2698 H 249.362 0.745191 -4.10897 0
M  V30 2699 N 249.799 1.42003 -0.683588 0
M  V30 2700 C 251.039 2.03282 -0.213513 0
M  V30 2701 C 251.403 1.52924 1.16097 0
M  V30 2702 O 252.604 2.06048 1.7262 0
M  V30 2703 C 250.875 3.56483 -0.255856 0
M  V30 2704 S 252.434 4.3857 0.14193 0
M  V30 2705 H 249.252 0.705659 -0.0869853 0
M  V30 2706 H 251.854 1.73619 -0.8987 0
M  V30 2707 H 250.558 3.90631 -1.25841 0
M  V30 2708 H 250.089 3.90831 0.448875 0
M  V30 2709 H 252.104 4.76828 1.37295 0
M  V30 2710 N 251.277 0.427512 1.51691 0
M  V30 2711 C 252.688 -0.0378867 1.86662 0
M  V30 2712 C 253.039 -1.42819 1.34525 0
M  V30 2713 O 252.164 -2.05037 0.692014 0
M  V30 2714 C 252.759 -0.0755266 3.38716 0
M  V30 2715 C 251.318 -0.485309 3.73258 0
M  V30 2716 C 250.465 0.328399 2.75349 0
M  V30 2717 H 253.416 0.64379 1.45055 0
M  V30 2718 H 253.437 -0.887056 3.70016 0
M  V30 2719 H 252.949 0.936487 3.76632 0
M  V30 2720 H 251.05 -1.50329 3.40928 0
M  V30 2721 H 251.163 -0.21693 4.78609 0
M  V30 2722 H 249.527 -0.211905 2.53817 0
M  V30 2723 H 250.31 1.3391 3.16106 0
M  V30 2724 N 252.755 -1.56801 0.158532 0
M  V30 2725 C 253.685 -2.20347 -0.772609 0
M  V30 2726 C 254.666 -1.15518 -1.24859 0
M  V30 2727 O 255.851 -1.43902 -1.30406 0
M  V30 2728 C 252.981 -2.83417 -2.00729 0
M  V30 2729 C 251.935 -3.94174 -1.66765 0
M  V30 2730 C 251.261 -4.44233 -2.97592 0
M  V30 2731 C 252.561 -5.14392 -0.905447 0
M  V30 2732 H 254.255 -2.98413 -0.242959 0
M  V30 2733 H 251.801 -1.43537 -0.115419 0
M  V30 2734 H 253.754 -3.26543 -2.6636 0
M  V30 2735 H 252.478 -2.02701 -2.56086 0
M  V30 2736 H 251.137 -3.51684 -1.03508 0
M  V30 2737 H 250.785 -3.60325 -3.50963 0
M  V30 2738 H 250.485 -5.18945 -2.75626 0
M  V30 2739 H 252.009 -4.90037 -3.64274 0
M  V30 2740 H 253.423 -5.5429 -1.46408 0
M  V30 2741 H 251.82 -5.9494 -0.7853 0
M  V30 2742 H 252.89 -4.84795 0.100668 0
M  V30 2743 N 254.233 0.115231 -1.57178 0
M  V30 2744 C 255.18 1.14115 -2.00615 0
M  V30 2745 C 256.15 1.40939 -0.878941 0
M  V30 2746 O 257.335 1.52741 -1.14345 0
M  V30 2747 C 254.475 2.46156 -2.4187 0
M  V30 2748 C 253.588 2.26236 -3.68024 0
M  V30 2749 C 252.723 3.51534 -3.98243 0
M  V30 2750 C 251.762 3.26787 -5.17568 0
M  V30 2751 N 250.899 4.44298 -5.43639 0
M  V30 2752 H 255.739 0.763743 -2.88047 0
M  V30 2753 H 253.276 0.365615 -1.42484 0
M  V30 2754 H 255.234 3.23189 -2.63827 0
M  V30 2755 H 253.864 2.81783 -1.57475 0
M  V30 2756 H 252.916 1.40102 -3.5366 0
M  V30 2757 H 254.228 2.03929 -4.55208 0
M  V30 2758 H 253.382 4.36984 -4.20868 0
M  V30 2759 H 252.121 3.76876 -3.09541 0
M  V30 2760 H 251.126 2.39729 -4.94783 0
M  V30 2761 H 252.351 3.02812 -6.0785 0
M  V30 2762 H 250.297 4.69754 -4.57895 0
M  V30 2763 H 250.214 4.25109 -6.25154 0
M  V30 2764 H 251.482 5.3087 -5.70786 0
M  V30 2765 N 255.711 1.52812 0.385517 0
M  V30 2766 C 256.958 1.68026 1.1302 0
M  V30 2767 C 257.286 0.421934 1.89868 0
M  V30 2768 O 256.541 -0.595749 1.86412 0
M  V30 2769 C 256.84 2.86856 2.13187 0
M  V30 2770 C 256.506 4.24159 1.5297 0
M  V30 2771 C 255.168 4.61501 1.36274 0
M  V30 2772 C 257.52 5.09627 1.09223 0
M  V30 2773 C 254.848 5.81966 0.743837 0
M  V30 2774 C 257.2 6.30719 0.487411 0
M  V30 2775 C 255.864 6.6679 0.307777 0
M  V30 2776 H 255.134 0.614849 0.413571 0
M  V30 2777 H 257.781 1.86962 0.414405 0
M  V30 2778 H 256.086 2.6235 2.90998 0
M  V30 2779 H 257.783 2.95821 2.70722 0
M  V30 2780 H 254.373 3.94746 1.66954 0
M  V30 2781 H 258.557 4.81343 1.20922 0
M  V30 2782 H 253.813 6.08519 0.592891 0
M  V30 2783 H 257.987 6.96259 0.140143 0
M  V30 2784 H 255.614 7.60001 -0.173879 0
M  V30 2785 N 257.189 -0.644168 1.43834 0
M  V30 2786 C 258.437 -1.40117 1.45642 0
M  V30 2787 C 258.758 -1.94814 0.0852413 0
M  V30 2788 O 258.028 -1.74988 -0.880688 0
M  V30 2789 H 256.608 -0.52005 0.536243 0
M  V30 2790 H 259.27 -0.7591 1.7951 0
M  V30 2791 H 258.366 -2.23902 2.17427 0
M  V30 2792 N 258.668 -1.30515 -0.883378 0
M  V30 2793 C 259.893 -1.22487 -1.67367 0
M  V30 2794 C 260.318 0.208767 -1.86938 0
M  V30 2795 O 259.676 1.15015 -1.40148 0
M  V30 2796 C 259.724 -1.96041 -3.02655 0
M  V30 2797 O 258.828 -1.28859 -3.91751 0
M  V30 2798 H 258.169 -0.423573 -0.511353 0
M  V30 2799 H 260.699 -1.72362 -1.10239 0
M  V30 2800 H 260.709 -2.05124 -3.52687 0
M  V30 2801 H 259.384 -3.00307 -2.8773 0
M  V30 2802 H 257.961 -1.28141 -3.50192 0
M  V30 2803 N 260.146 1.09593 -1.13257 0
M  V30 2804 C 261.376 1.85231 -0.915049 0
M  V30 2805 C 261.784 1.81345 0.539498 0
M  V30 2806 O 261.127 1.20664 1.38513 0
M  V30 2807 C 261.189 3.34275 -1.3229 0
M  V30 2808 C 260.853 3.6191 -2.79052 0
M  V30 2809 C 261.85 3.57777 -3.77216 0
M  V30 2810 C 259.535 3.90309 -3.16171 0
M  V30 2811 C 261.529 3.81652 -5.1051 0
M  V30 2812 C 259.216 4.13839 -4.49644 0
M  V30 2813 C 260.214 4.09502 -5.46623 0
M  V30 2814 O 259.902 4.32426 -6.77689 0
M  V30 2815 H 259.634 0.591997 -0.326367 0
M  V30 2816 H 262.188 1.394 -1.50854 0
M  V30 2817 H 260.418 3.80805 -0.672667 0
M  V30 2818 H 262.107 3.9132 -1.07812 0
M  V30 2819 H 262.873 3.35865 -3.49885 0
M  V30 2820 H 258.752 3.92811 -2.41289 0
M  V30 2821 H 262.296 3.78182 -5.86195 0
M  V30 2822 H 258.193 4.35232 -4.767 0
M  V30 2823 H 258.961 4.49896 -6.83766 0
M  V30 2824 N 261.624 0.925811 1.2754 0
M  V30 2825 C 262.587 0.428129 2.25166 0
M  V30 2826 C 263.587 -0.452261 1.54309 0
M  V30 2827 O 264.777 -0.253608 1.72344 0
M  V30 2828 C 261.909 -0.384749 3.38722 0
M  V30 2829 H 263.102 1.29066 2.70706 0
M  V30 2830 H 260.655 0.706323 1.3943 0
M  V30 2831 H 261.39 -1.26618 2.98561 0
M  V30 2832 H 261.175 0.246454 3.91325 0
M  V30 2833 H 262.665 -0.723389 4.11287 0
M  V30 2834 N 263.102 -1.41638 0.69111 0
M  V30 2835 C 264.332 -2.0533 0.228758 0
M  V30 2836 C 264.74 -1.52089 -1.12541 0
M  V30 2837 O 264.083 -0.662145 -1.71351 0
M  V30 2838 C 264.145 -3.59349 0.10407 0
M  V30 2839 C 263.809 -4.35362 1.38956 0
M  V30 2840 C 264.806 -4.64942 2.32648 0
M  V30 2841 C 262.491 -4.74714 1.64169 0
M  V30 2842 C 264.485 -5.32828 3.49818 0
M  V30 2843 C 262.172 -5.42338 2.81625 0
M  V30 2844 C 263.17 -5.71322 3.74273 0
M  V30 2845 O 262.858 -6.37554 4.89673 0
M  V30 2846 H 262.59 -0.667796 0.104997 0
M  V30 2847 H 265.144 -1.82477 0.942938 0
M  V30 2848 H 263.374 -3.80924 -0.665839 0
M  V30 2849 H 265.063 -4.04633 -0.320519 0
M  V30 2850 H 265.829 -4.35025 2.14425 0
M  V30 2851 H 261.708 -4.51538 0.929202 0
M  V30 2852 H 265.252 -5.55368 4.22152 0
M  V30 2853 H 261.149 -5.71673 2.99768 0
M  V30 2854 H 261.917 -6.56049 4.8943 0
M  V30 2855 N 264.58 -0.43555 -1.51462 0
M  V30 2856 C 265.991 0.0279871 -1.86679 0
M  V30 2857 C 266.342 1.42104 -1.35281 0
M  V30 2858 O 265.467 2.04667 -0.702878 0
M  V30 2859 C 266.062 0.0575626 -3.38751 0
M  V30 2860 C 264.621 0.465507 -3.7351 0
M  V30 2861 C 263.768 -0.342996 -2.75171 0
M  V30 2862 H 266.719 -0.651473 -1.44712 0
M  V30 2863 H 266.74 0.867421 -3.70481 0
M  V30 2864 H 266.252 -0.956448 -3.7613 0
M  V30 2865 H 264.353 1.48519 -3.41721 0
M  V30 2866 H 264.466 0.191546 -4.78717 0
M  V30 2867 H 262.83 0.198442 -2.53926 0
M  V30 2868 H 263.613 -1.35585 -3.15391 0
M  V30 2869 N 266.058 1.56714 -0.166846 0
M  V30 2870 C 267.005 2.17746 0.765193 0
M  V30 2871 C 267.975 1.11614 1.23011 0
M  V30 2872 O 269.16 1.39745 1.29908 0
M  V30 2873 C 266.3 2.81882 1.9909 0
M  V30 2874 C 265.413 4.02462 1.56997 0
M  V30 2875 C 264.548 4.54537 2.749 0
M  V30 2876 C 263.587 5.67538 2.29275 0
M  V30 2877 N 262.724 6.14142 3.40255 0
M  V30 2878 H 267.564 2.97048 0.237952 0
M  V30 2879 H 265.101 1.4672 0.105725 0
M  V30 2880 H 267.059 3.17221 2.70974 0
M  V30 2881 H 265.689 2.05191 2.49192 0
M  V30 2882 H 264.741 3.72973 0.748037 0
M  V30 2883 H 266.053 4.84273 1.19503 0
M  V30 2884 H 265.207 4.92035 3.54946 0
M  V30 2885 H 263.946 3.71774 3.1565 0
M  V30 2886 H 262.951 5.29597 1.47674 0
M  V30 2887 H 264.176 6.52099 1.89588 0
M  V30 2888 H 262.122 5.3431 3.8059 0
M  V30 2889 H 262.039 6.9093 3.06841 0
M  V30 2890 H 263.307 6.56289 4.206 0
M  V30 2891 N 267.536 -0.106894 1.57237 0
M  V30 2892 C 268.761 -0.830287 1.90055 0
M  V30 2893 C 269.186 -1.72064 0.75998 0
M  V30 2894 O 268.544 -1.78982 -0.288991 0
M  V30 2895 C 268.592 -1.6295 3.21683 0
M  V30 2896 O 267.696 -2.73748 3.08441 0
M  V30 2897 H 267.037 -0.228855 0.623315 0
M  V30 2898 H 269.567 -0.085658 2.04421 0
M  V30 2899 H 269.577 -2.01621 3.54701 0
M  V30 2900 H 268.252 -0.975989 4.04286 0
M  V30 2901 H 266.829 -2.38192 2.86913 0
M  V30 2902 N 269.014 -1.53014 -0.377408 0
M  V30 2903 C 269.924 -1.81557 -1.48574 0
M  V30 2904 C 270.94 -0.703102 -1.59162 0
M  V30 2905 O 272.116 -0.99192 -1.75279 0
M  V30 2906 C 269.181 -1.9889 -2.83978 0
M  V30 2907 C 268.242 -3.22801 -2.83016 0
M  V30 2908 C 267.475 -3.39298 -4.11962 0
M  V30 2909 O 267.698 -2.60345 -5.0752 0
M  V30 2910 O 266.632 -4.32604 -4.18494 0
M  V30 2911 H 270.458 -2.75695 -1.27382 0
M  V30 2912 H 268.043 -1.38248 -0.566373 0
M  V30 2913 H 269.925 -2.11931 -3.6423 0
M  V30 2914 H 268.6 -1.07942 -3.05172 0
M  V30 2915 H 267.507 -3.15193 -2.01505 0
M  V30 2916 H 268.84 -4.13632 -2.66775 0
M  V30 2917 N 270.492 0.636531 -1.44174 0
M  V30 2918 C 271.741 1.39213 -1.45954 0
M  V30 2919 C 272.054 1.95374 -0.0939119 0
M  V30 2920 O 273.26 2.71498 0.0107767 0
M  V30 2921 C 271.716 2.52025 -2.56927 0
M  V30 2922 C 271.324 2.024 -3.99673 0
M  V30 2923 C 273.068 3.29269 -2.67922 0
M  V30 2924 C 270.975 3.12521 -5.0208 0
M  V30 2925 H 269.905 0.523132 -0.542999 0
M  V30 2926 H 272.556 0.685349 -1.70221 0
M  V30 2927 H 270.938 3.25253 -2.25891 0
M  V30 2928 H 272.112 1.36073 -4.40251 0
M  V30 2929 H 270.427 1.37987 -3.92872 0
M  V30 2930 H 273.024 4.11352 -3.41605 0
M  V30 2931 H 273.367 3.78397 -1.73555 0
M  V30 2932 H 273.9 2.63129 -2.98342 0
M  V30 2933 H 270.639 2.68343 -5.98057 0
M  V30 2934 H 270.159 3.77507 -4.66099 0
M  V30 2935 H 271.838 3.77385 -5.25538 0
M  V30 2936 N 271.97 1.30982 0.876444 0
M  V30 2937 C 273.219 1.19658 1.62373 0
M  V30 2938 C 273.532 -0.245636 1.94052 0
M  V30 2939 O 274.738 -0.48049 2.67214 0
M  V30 2940 C 273.194 2.09433 2.92687 0
M  V30 2941 C 272.802 3.58613 2.68516 0
M  V30 2942 C 274.546 2.06893 3.70669 0
M  V30 2943 C 272.453 4.40416 3.94699 0
M  V30 2944 H 271.383 0.444268 0.609214 0
M  V30 2945 H 274.034 1.55791 0.969605 0
M  V30 2946 H 272.416 1.66191 3.59439 0
M  V30 2947 H 273.59 4.10058 2.10212 0
M  V30 2948 H 271.905 3.63063 2.03898 0
M  V30 2949 H 274.502 2.65258 4.64265 0
M  V30 2950 H 274.845 1.05448 4.02724 0
M  V30 2951 H 275.378 2.48301 3.10792 0
M  V30 2952 H 272.117 5.42591 3.67798 0
M  V30 2953 H 271.637 3.93731 4.52477 0
M  V30 2954 H 273.316 4.52294 4.62644 0
M  V30 2955 N 273.449 -1.08991 1.13837 0
M  V30 2956 C 274.679 -1.84743 0.924859 0
M  V30 2957 C 275.087 -1.81629 -0.529874 0
M  V30 2958 O 274.43 -1.21397 -1.37872 0
M  V30 2959 C 274.492 -3.33568 1.34061 0
M  V30 2960 C 274.156 -3.60425 2.80968 0
M  V30 2961 C 275.153 -3.55771 3.79108 0
M  V30 2962 C 272.838 -3.88627 3.18236 0
M  V30 2963 C 274.832 -3.78939 5.12527 0
M  V30 2964 C 272.519 -4.11449 4.51833 0
M  V30 2965 C 273.517 -4.06598 5.48787 0
M  V30 2966 O 273.205 -4.28826 6.79973 0
M  V30 2967 H 272.937 -0.590258 0.329502 0
M  V30 2968 H 275.491 -1.38598 1.51591 0
M  V30 2969 H 273.721 -3.80442 0.692853 0
M  V30 2970 H 275.41 -3.90743 1.09886 0
M  V30 2971 H 276.176 -3.34005 3.51661 0
M  V30 2972 H 272.055 -3.91526 2.43369 0
M  V30 2973 H 275.599 -3.75068 5.88192 0
M  V30 2974 H 271.496 -4.32698 4.79002 0
M  V30 2975 H 272.264 -4.46264 6.86142 0
M  V30 2976 N 274.927 -0.932562 -1.27047 0
M  V30 2977 C 276.155 -0.592031 -1.98249 0
M  V30 2978 C 276.57 0.831062 -1.69525 0
M  V30 2979 O 275.927 1.55299 -0.958561 0
M  V30 2980 C 275.978 -0.814279 -3.5221 0
M  V30 2981 O 275.699 -2.18139 -3.7993 0
M  V30 2982 C 277.2 -0.483121 -4.4066 0
M  V30 2983 H 274.42 -0.223896 -0.632544 0
M  V30 2984 H 276.964 -1.25091 -1.61779 0
M  V30 2985 H 275.119 -0.20213 -3.86872 0
M  V30 2986 H 275.533 -2.235 -4.74498 0
M  V30 2987 H 277.007 -0.689298 -5.47679 0
M  V30 2988 H 277.484 0.581546 -4.35333 0
M  V30 2989 H 278.09 -1.07362 -4.11526 0
M  V30 2990 N 276.405 1.4127 -0.698611 0
M  V30 2991 C 277.651 2.01979 -0.239972 0
M  V30 2992 C 278.006 1.54353 1.14861 0
M  V30 2993 O 277.299 0.746218 1.76471 0
M  V30 2994 C 277.493 3.56592 -0.240192 0
M  V30 2995 C 277.322 4.19226 -1.62726 0
M  V30 2996 C 276.092 4.53389 -2.23084 0
M  V30 2997 C 278.29 4.45228 -2.57443 0
M  V30 2998 N 276.272 5.01327 -3.54323 0
M  V30 2999 C 277.643 4.94973 -3.73365 0
M  V30 3000 C 279.698 4.27243 -2.55671 0
M  V30 3001 C 278.401 5.28624 -4.878 0
M  V30 3002 C 280.427 4.61985 -3.69221 0
M  V30 3003 C 279.789 5.11904 -4.83873 0
M  V30 3004 H 275.888 0.770561 -0.133269 0
M  V30 3005 H 278.472 1.71767 -0.916748 0
M  V30 3006 H 276.643 3.86271 0.406082 0
M  V30 3007 H 278.375 4.04025 0.23356 0
M  V30 3008 H 275.13 4.39946 -1.75341 0
M  V30 3009 H 275.554 5.29697 -4.21604 0
M  V30 3010 H 280.196 3.87884 -1.68243 0
M  V30 3011 H 277.914 5.66905 -5.75885 0
M  V30 3012 H 281.5 4.49725 -3.69105 0
M  V30 3013 H 280.38 5.38282 -5.70282 0
M  V30 3014 N 277.883 0.443576 1.51229 0
M  V30 3015 C 278.83 -0.364716 2.279 0
M  V30 3016 C 279.8 -1.0114 1.31757 0
M  V30 3017 O 280.985 -1.02912 1.60667 0
M  V30 3018 C 278.125 -1.45644 3.12861 0
M  V30 3019 C 277.238 -0.827269 4.24005 0
M  V30 3020 C 276.373 -1.89456 4.96266 0
M  V30 3021 C 275.412 -1.24416 5.99322 0
M  V30 3022 N 274.549 -2.25309 6.64966 0
M  V30 3023 H 279.389 0.295464 2.96532 0
M  V30 3024 H 276.926 0.157554 1.46254 0
M  V30 3025 H 278.884 -2.10076 3.6045 0
M  V30 3026 H 277.514 -2.08616 2.46331 0
M  V30 3027 H 276.566 -0.0710839 3.80334 0
M  V30 3028 H 277.878 -0.312481 4.9782 0
M  V30 3029 H 277.032 -2.61535 5.47434 0
M  V30 3030 H 275.771 -2.4431 4.22095 0
M  V30 3031 H 274.776 -0.508868 5.4744 0
M  V30 3032 H 276.001 -0.702882 6.75453 0
M  V30 3033 H 273.947 -2.79231 5.93604 0
M  V30 3034 H 273.864 -1.78739 7.34567 0
M  V30 3035 H 275.132 -2.96853 7.20763 0
M  V30 3036 N 279.361 -1.56624 0.175154 0
M  V30 3037 C 280.308 -2.18149 -0.753634 0
M  V30 3038 C 281.278 -1.12265 -1.22417 0
M  V30 3039 O 282.463 -1.40432 -1.29165 0
M  V30 3040 C 279.603 -2.82933 -1.97592 0
M  V30 3041 C 278.716 -4.03289 -1.5486 0
M  V30 3042 C 277.851 -4.55988 -2.72485 0
M  V30 3043 C 276.89 -5.68746 -2.26262 0
M  V30 3044 N 276.027 -6.15938 -3.36994 0
M  V30 3045 H 280.867 -2.9717 -0.222195 0
M  V30 3046 H 278.404 -1.46774 -0.0979422 0
M  V30 3047 H 280.362 -3.18653 -2.69288 0
M  V30 3048 H 278.992 -2.06509 -2.481 0
M  V30 3049 H 278.044 -3.73364 -0.728246 0
M  V30 3050 H 279.356 -4.849 -1.16933 0
M  V30 3051 H 278.51 -4.9391 -3.52332 0
M  V30 3052 H 277.249 -3.73443 -3.13674 0
M  V30 3053 H 276.254 -5.30372 -1.44863 0
M  V30 3054 H 277.479 -6.53095 -1.86127 0
M  V30 3055 H 275.425 -5.36321 -3.77751 0
M  V30 3056 H 275.342 -6.92548 -3.03172 0
M  V30 3057 H 276.61 -6.58511 -4.17114 0
M  V30 3058 N 280.839 0.0985539 -1.57292 0
M  V30 3059 C 282.087 0.801092 -1.85545 0
M  V30 3060 C 282.408 1.79438 -0.763353 0
M  V30 3061 O 281.678 1.94763 0.21073 0
M  V30 3062 H 280.258 0.29884 -0.684619 0
M  V30 3063 H 282.92 0.0810064 -1.94732 0
M  V30 3064 H 282.016 1.3338 -2.82163 0
M  V30 3065 N 282.317 1.53212 0.369288 0
M  V30 3066 C 283.728 1.60943 0.946276 0
M  V30 3067 C 284.079 0.47452 1.90375 0
M  V30 3068 O 283.204 -0.399597 2.12679 0
M  V30 3069 C 283.799 2.91715 1.72302 0
M  V30 3070 C 282.358 3.01792 2.24941 0
M  V30 3071 C 281.505 2.56211 1.06072 0
M  V30 3072 H 284.456 1.58007 0.148198 0
M  V30 3073 H 284.477 2.79309 2.58393 0
M  V30 3074 H 283.989 3.74295 1.0259 0
M  V30 3075 H 282.09 2.23791 2.97906 0
M  V30 3076 H 282.203 4.06803 2.53077 0
M  V30 3077 H 280.567 2.10998 1.4266 0
M  V30 3078 H 281.35 3.41206 0.378639 0
M  V30 3079 N 283.795 -0.628877 1.44509 0
M  V30 3080 C 284.725 -1.75187 1.54376 0
M  V30 3081 C 285.706 -1.65411 0.396618 0
M  V30 3082 O 286.891 -1.84137 0.617031 0
M  V30 3083 C 284.021 -3.13725 1.48976 0
M  V30 3084 C 282.975 -3.38291 2.62189 0
M  V30 3085 C 282.301 -4.76883 2.41841 0
M  V30 3086 C 283.601 -3.30632 4.04326 0
M  V30 3087 H 285.295 -1.67187 2.48373 0
M  V30 3088 H 282.841 -0.802909 1.19538 0
M  V30 3089 H 284.794 -3.92064 1.54478 0
M  V30 3090 H 283.518 -3.22515 0.514961 0
M  V30 3091 H 282.177 -2.62334 2.56079 0
M  V30 3092 H 281.825 -4.82378 1.42548 0
M  V30 3093 H 281.525 -4.94278 3.17747 0
M  V30 3094 H 283.049 -5.57449 2.49165 0
M  V30 3095 H 284.463 -3.98873 4.11793 0
M  V30 3096 H 282.86 -3.59561 4.80454 0
M  V30 3097 H 283.93 -2.28404 4.27738 0
M  V30 3098 N 285.273 -1.31445 -0.869486 0
M  V30 3099 C 286.503 -1.23942 -1.65294 0
M  V30 3100 C 286.911 0.197561 -1.88166 0
M  V30 3101 O 286.254 1.14019 -1.44033 0
M  V30 3102 C 286.316 -1.91385 -3.04322 0
M  V30 3103 C 285.98 -3.40726 -3.04557 0
M  V30 3104 C 286.977 -4.36464 -2.82481 0
M  V30 3105 C 284.662 -3.82425 -3.25663 0
M  V30 3106 C 286.656 -5.71876 -2.8149 0
M  V30 3107 C 284.343 -5.1795 -3.243 0
M  V30 3108 C 285.341 -6.12486 -3.02241 0
M  V30 3109 O 285.029 -7.45534 -3.00724 0
M  V30 3110 H 284.761 -0.429459 -0.522054 0
M  V30 3111 H 287.315 -1.73873 -1.0935 0
M  V30 3112 H 285.545 -1.36004 -3.61994 0
M  V30 3113 H 287.234 -1.77791 -3.64891 0
M  V30 3114 H 288 -4.05576 -2.65956 0
M  V30 3115 H 283.879 -3.09274 -3.41863 0
M  V30 3116 H 287.423 -6.45638 -2.64191 0
M  V30 3117 H 283.32 -5.48473 -3.40365 0
M  V30 3118 H 284.088 -7.54713 -3.16782 0
M  V30 3119 N 286.751 1.08385 -1.14413 0
M  V30 3120 C 287.976 1.85057 -0.936413 0
M  V30 3121 C 288.401 1.81055 0.509971 0
M  V30 3122 O 287.759 1.1958 1.36273 0
M  V30 3123 C 287.807 3.30505 -1.44217 0
M  V30 3124 O 286.911 4.07491 -0.634409 0
M  V30 3125 H 286.252 0.573425 -0.334784 0
M  V30 3126 H 288.782 1.36799 -1.52142 0
M  V30 3127 H 288.792 3.81348 -1.45043 0
M  V30 3128 H 287.467 3.32734 -2.49522 0
M  V30 3129 H 286.044 3.66368 -0.694902 0
M  V30 3130 N 288.23 0.939286 1.26551 0
M  V30 3131 C 289.476 0.586715 1.94128 0
M  V30 3132 C 289.809 -0.8717 1.73537 0
M  V30 3133 O 289.084 -1.62339 1.07127 0
M  V30 3134 C 289.367 0.927497 3.4795 0
M  V30 3135 C 289.22 2.44052 3.77834 0
M  V30 3136 C 290.539 0.441569 4.37879 0
M  V30 3137 H 287.658 0.21463 0.705055 0
M  V30 3138 H 290.3 1.17316 1.49455 0
M  V30 3139 H 288.45 0.428431 3.8613 0
M  V30 3140 H 290.122 3.01216 3.4938 0
M  V30 3141 H 288.365 2.8848 3.23978 0
M  V30 3142 H 289.036 2.62947 4.85348 0
M  V30 3143 H 291.512 0.869448 4.06915 0
M  V30 3144 H 290.388 0.708856 5.44304 0
M  V30 3145 H 290.649 -0.658467 4.37169 0
M  V30 3146 N 289.708 -1.40897 0.706093 0
M  V30 3147 C 290.618 -2.3455 0.0482286 0
M  V30 3148 C 291.634 -1.56796 -0.754396 0
M  V30 3149 O 292.81 -1.89228 -0.689538 0
M  V30 3150 C 289.875 -3.35625 -0.869303 0
M  V30 3151 C 288.936 -4.29261 -0.0576994 0
M  V30 3152 C 288.169 -5.25508 -0.931531 0
M  V30 3153 O 288.392 -5.27472 -2.17092 0
M  V30 3154 O 287.326 -6.00727 -0.375587 0
M  V30 3155 H 291.152 -2.92407 0.820476 0
M  V30 3156 H 288.737 -1.4193 0.4665 0
M  V30 3157 H 290.619 -3.97635 -1.39514 0
M  V30 3158 H 289.294 -2.80196 -1.62086 0
M  V30 3159 H 288.201 -3.70566 0.512988 0
M  V30 3160 H 289.534 -4.87817 0.655426 0
M  V30 3161 N 291.186 -0.45159 -1.50991 0
M  V30 3162 C 292.432 0.110237 -2.025 0
M  V30 3163 C 292.765 1.41109 -1.33424 0
M  V30 3164 O 292.04 1.89135 -0.453659 0
M  V30 3165 C 292.323 0.314271 -3.58726 0
M  V30 3166 C 292.176 -1.00623 -4.38401 0
M  V30 3167 C 293.495 1.07767 -4.26702 0
M  V30 3168 H 290.614 0.0385897 -0.735989 0
M  V30 3169 H 293.256 -0.593374 -1.80497 0
M  V30 3170 H 291.406 0.913601 -3.77605 0
M  V30 3171 H 293.078 -1.64064 -4.31139 0
M  V30 3172 H 291.321 -1.6075 -4.02917 0
M  V30 3173 H 291.992 -0.817341 -5.45915 0
M  V30 3174 H 294.468 0.56986 -4.12179 0
M  V30 3175 H 293.344 1.18921 -5.35863 0
M  V30 3176 H 293.605 2.10939 -3.88532 0
M  V30 3177 N 292.664 1.56529 -0.183458 0
M  V30 3178 C 294.075 1.83739 0.331177 0
M  V30 3179 C 294.426 1.10373 1.62211 0
M  V30 3180 O 293.551 0.36071 2.13373 0
M  V30 3181 C 294.146 3.33306 0.607646 0
M  V30 3182 C 292.705 3.60969 1.06668 0
M  V30 3183 C 291.852 2.77086 0.109029 0
M  V30 3184 H 294.803 1.53379 -0.407484 0
M  V30 3185 H 294.824 3.51444 1.45832 0
M  V30 3186 H 294.336 3.86677 -0.332086 0
M  V30 3187 H 292.437 3.13021 2.0211 0
M  V30 3188 H 292.55 4.69231 0.967447 0
M  V30 3189 H 290.914 2.47319 0.608714 0
M  V30 3190 H 291.697 3.33241 -0.82494 0
M  V30 3191 N 294.142 -0.090211 1.57342 0
M  V30 3192 C 295.052 -1.12735 2.05738 0
M  V30 3193 C 296.068 -1.43557 0.983231 0
M  V30 3194 O 297.244 -1.54101 1.29672 0
M  V30 3195 C 294.309 -2.42659 2.47624 0
M  V30 3196 C 293.37 -2.18975 3.69254 0
M  V30 3197 C 292.603 -3.42704 4.09133 0
M  V30 3198 O 292.826 -4.51127 3.49057 0
M  V30 3199 O 291.76 -3.32003 5.02053 0
M  V30 3200 H 295.586 -0.746279 2.94388 0
M  V30 3201 H 293.171 -0.303064 1.46294 0
M  V30 3202 H 295.053 -3.19155 2.7517 0
M  V30 3203 H 293.728 -2.80182 1.62109 0
M  V30 3204 H 292.635 -1.40244 3.46818 0
M  V30 3205 H 293.968 -1.86342 4.55563 0
M  V30 3206 N 295.62 -1.53406 -0.361157 0
M  V30 3207 C 296.53 -1.83122 -1.4664 0
M  V30 3208 C 297.546 -0.719943 -1.58407 0
M  V30 3209 O 298.722 -1.01046 -1.74218 0
M  V30 3210 C 295.787 -2.01891 -2.81853 0
M  V30 3211 C 294.848 -3.25784 -2.79577 0
M  V30 3212 C 294.081 -3.43648 -4.0834 0
M  V30 3213 O 294.304 -2.65714 -5.0473 0
M  V30 3214 O 293.238 -4.37018 -4.13883 0
M  V30 3215 H 297.064 -2.7703 -1.24451 0
M  V30 3216 H 294.649 -1.38841 -0.551678 0
M  V30 3217 H 296.531 -2.15782 -3.61962 0
M  V30 3218 H 295.206 -1.11173 -3.0401 0
M  V30 3219 H 294.113 -3.17312 -1.98151 0
M  V30 3220 H 295.446 -4.16439 -2.62373 0
M  V30 3221 N 297.098 0.621204 -1.44841 0
M  V30 3222 C 298.323 1.41244 -1.51871 0
M  V30 3223 C 298.748 1.87519 -0.147764 0
M  V30 3224 O 298.106 1.59334 0.865 0
M  V30 3225 C 298.154 2.60221 -2.49634 0
M  V30 3226 O 297.258 3.60395 -2.00473 0
M  V30 3227 H 296.599 0.42223 -0.512463 0
M  V30 3228 H 299.129 0.757305 -1.90069 0
M  V30 3229 H 299.139 3.0764 -2.67996 0
M  V30 3230 H 297.814 2.25887 -3.4921 0
M  V30 3231 H 296.391 3.19717 -1.91925 0
M  V30 3232 N 298.576 1.31904 0.862503 0
M  V30 3233 C 299.801 1.25135 1.65397 0
M  V30 3234 C 300.226 -0.179 1.87246 0
M  V30 3235 O 299.584 -1.1277 1.4196 0
M  V30 3236 C 299.632 2.00832 2.99498 0
M  V30 3237 O 298.736 1.35075 3.89652 0
M  V30 3238 H 298.077 0.431655 0.504549 0
M  V30 3239 H 300.607 1.74094 1.07483 0
M  V30 3240 H 300.617 2.10709 3.49379 0
M  V30 3241 H 299.292 3.04847 2.82916 0
M  V30 3242 H 297.869 1.33696 3.48109 0
M  V30 3243 N 300.054 -1.07777 1.14986 0
M  V30 3244 C 301.279 -1.84558 0.946213 0
M  V30 3245 C 301.704 -1.81323 -0.500362 0
M  V30 3246 O 301.062 -1.20301 -1.35637 0
M  V30 3247 C 301.11 -3.29736 1.45968 0
M  V30 3248 O 300.214 -4.07149 0.65601 0
M  V30 3249 H 299.555 -0.571641 0.33782 0
M  V30 3250 H 302.085 -1.35991 1.52865 0
M  V30 3251 H 302.095 -3.80574 1.47063 0
M  V30 3252 H 300.77 -3.31406 2.51283 0
M  V30 3253 H 299.347 -3.65994 0.714322 0
M  V30 3254 N 301.532 -0.945985 -1.26051 0
M  V30 3255 C 302.462 -0.477172 -2.28572 0
M  V30 3256 C 303.443 0.472032 -1.63419 0
M  V30 3257 O 304.628 0.372853 -1.90587 0
M  V30 3258 C 301.758 0.253975 -3.4637 0
M  V30 3259 C 300.712 -0.609135 -4.23643 0
M  V30 3260 C 300.038 0.252252 -5.34105 0
M  V30 3261 C 301.338 -1.8829 -4.8718 0
M  V30 3262 H 303.032 -1.33402 -2.68038 0
M  V30 3263 H 300.578 -0.642904 -1.28852 0
M  V30 3264 H 302.531 0.593016 -4.17207 0
M  V30 3265 H 301.255 1.145 -3.05871 0
M  V30 3266 H 299.914 -0.931138 -3.54578 0
M  V30 3267 H 299.562 1.14278 -4.89846 0
M  V30 3268 H 299.262 -0.32188 -5.86718 0
M  V30 3269 H 300.786 0.586454 -6.07777 0
M  V30 3270 H 302.2 -1.61081 -5.50205 0
M  V30 3271 H 300.597 -2.40199 -5.49931 0
M  V30 3272 H 301.667 -2.59134 -4.09851 0
M  V30 3273 N 303.011 1.40521 -0.713556 0
M  V30 3274 C 303.941 2.33381 -0.0743864 0
M  V30 3275 C 304.922 1.52784 0.747735 0
M  V30 3276 O 306.107 1.81258 0.697071 0
M  V30 3277 C 303.237 3.36748 0.849598 0
M  V30 3278 C 302.191 4.27793 0.133247 0
M  V30 3279 C 301.517 5.21679 1.17281 0
M  V30 3280 C 302.817 5.12415 -1.01134 0
M  V30 3281 H 304.511 2.87081 -0.850007 0
M  V30 3282 H 302.057 1.38034 -0.410201 0
M  V30 3283 H 304.01 4.00648 1.30612 0
M  V30 3284 H 302.734 2.81439 1.65709 0
M  V30 3285 H 301.393 3.65342 -0.303426 0
M  V30 3286 H 301.041 4.62677 1.9733 0
M  V30 3287 H 300.741 5.83435 0.698397 0
M  V30 3288 H 302.265 5.88456 1.62947 0
M  V30 3289 H 303.679 5.69781 -0.634274 0
M  V30 3290 H 302.076 5.83203 -1.41399 0
M  V30 3291 H 303.146 4.48514 -1.84292 0
M  V30 3292 N 304.489 0.459591 1.5075 0
M  V30 3293 C 305.421 -0.37665 2.26084 0
M  V30 3294 C 306.434 -0.967109 1.30961 0
M  V30 3295 O 307.623 -0.857468 1.56556 0
M  V30 3296 C 304.723 -1.54112 3.01832 0
M  V30 3297 C 303.896 -1.06553 4.24223 0
M  V30 3298 C 302.955 -2.1027 4.82362 0
M  V30 3299 O 301.981 -1.68798 5.43595 0
M  V30 3300 N 303.183 -3.42974 4.68347 0
M  V30 3301 H 305.948 0.269124 2.98489 0
M  V30 3302 H 303.509 0.28972 1.59287 0
M  V30 3303 H 305.501 -2.23165 3.37608 0
M  V30 3304 H 304.071 -2.0918 2.32298 0
M  V30 3305 H 303.291 -0.201274 3.93686 0
M  V30 3306 H 304.579 -0.725516 5.03601 0
M  V30 3307 H 303.977 -3.79385 4.19623 0
M  V30 3308 H 302.534 -4.07858 5.08424 0
M  V30 3309 N 305.967 -1.56429 0.191757 0
M  V30 3310 C 307.197 -2.01574 -0.452928 0
M  V30 3311 C 307.605 -1.07107 -1.55964 0
M  V30 3312 O 306.948 -0.067534 -1.83576 0
M  V30 3313 C 307.01 -3.43121 -1.07278 0
M  V30 3314 C 306.674 -4.56879 -0.105214 0
M  V30 3315 C 307.671 -5.15379 0.684149 0
M  V30 3316 C 305.356 -5.023 0.00489824 0
M  V30 3317 C 307.35 -6.17746 1.57062 0
M  V30 3318 C 305.037 -6.04511 0.894935 0
M  V30 3319 C 306.035 -6.62108 1.67637 0
M  V30 3320 O 305.723 -7.62335 2.55149 0
M  V30 3321 H 305.455 -0.665554 -0.118379 0
M  V30 3322 H 308.009 -2.03245 0.296737 0
M  V30 3323 H 306.239 -3.38425 -1.87097 0
M  V30 3324 H 307.928 -3.72093 -1.62177 0
M  V30 3325 H 308.694 -4.81157 0.609365 0
M  V30 3326 H 304.573 -4.57168 -0.593156 0
M  V30 3327 H 308.117 -6.6263 2.181 0
M  V30 3328 H 304.014 -6.38157 0.970847 0
M  V30 3329 H 304.782 -7.79741 2.48892 0
M  V30 3330 N 307.445 0.0818655 -1.57387 0
M  V30 3331 C 308.722 0.815343 -1.77796 0
M  V30 3332 C 309.102 1.96289 -0.77679 0
M  V30 3333 O 308.45 2.27691 0.192106 0
M  V30 3334 C 308.66 1.29765 -3.23978 0
M  V30 3335 C 310.008 1.7351 -3.8753 0
M  V30 3336 O 311.032 1.39356 -3.27808 0
M  V30 3337 O 309.891 2.36708 -4.92576 0
M  V30 3338 H 306.985 0.389914 -0.729312 0
M  V30 3339 H 309.531 0.0627213 -1.69584 0
M  V30 3340 H 308.303 0.47608 -3.88393 0
M  V30 3341 H 307.926 2.11189 -3.36875 0
M  V30 3342 N 308.923 1.53595 0.353017 0
M  V30 3343 C 309.853 1.83902 1.43883 0
M  V30 3344 C 310.834 0.693421 1.55324 0
M  V30 3345 O 312.019 0.944452 1.69687 0
M  V30 3346 C 309.149 2.04016 2.8106 0
M  V30 3347 C 308.103 3.19814 2.84434 0
M  V30 3348 C 307.429 3.25244 4.24406 0
M  V30 3349 C 308.729 4.58133 2.50822 0
M  V30 3350 H 310.423 2.74835 1.1877 0
M  V30 3351 H 307.969 1.32242 0.569917 0
M  V30 3352 H 309.922 2.238 3.57059 0
M  V30 3353 H 308.646 1.09804 3.07588 0
M  V30 3354 H 307.305 2.9987 2.10887 0
M  V30 3355 H 306.953 2.28646 4.48029 0
M  V30 3356 H 306.653 4.03054 4.27576 0
M  V30 3357 H 308.177 3.47228 5.0226 0
M  V30 3358 H 309.591 4.77995 3.16534 0
M  V30 3359 H 307.988 5.38276 2.6529 0
M  V30 3360 H 309.058 4.62387 1.46034 0
M  V30 3361 N 310.401 -0.613514 1.45168 0
M  V30 3362 C 311.65 -1.36874 1.4815 0
M  V30 3363 C 311.963 -1.952 0.124982 0
M  V30 3364 O 313.169 -2.71481 0.0324176 0
M  V30 3365 C 311.625 -2.47905 2.60904 0
M  V30 3366 C 311.233 -1.96016 4.02842 0
M  V30 3367 C 312.977 -3.24965 2.73126 0
M  V30 3368 C 310.884 -3.04494 5.06988 0
M  V30 3369 H 309.814 -0.514428 0.551253 0
M  V30 3370 H 312.465 -0.658182 1.7129 0
M  V30 3371 H 310.847 -3.21618 2.31037 0
M  V30 3372 H 312.021 -1.29051 4.4236 0
M  V30 3373 H 310.336 -1.31719 3.95018 0
M  V30 3374 H 312.933 -4.05865 3.48106 0
M  V30 3375 H 313.276 -3.75588 1.79553 0
M  V30 3376 H 313.809 -2.5835 3.0249 0
M  V30 3377 H 310.548 -2.58795 6.0225 0
M  V30 3378 H 310.068 -3.70044 4.72046 0
M  V30 3379 H 311.747 -3.68976 5.31475 0
M  V30 3380 N 311.879 -1.3236 -0.855495 0
M  V30 3381 C 313.127 -1.22629 -1.60644 0
M  V30 3382 C 313.448 0.212136 -1.93843 0
M  V30 3383 O 312.718 1.13666 -1.59552 0
M  V30 3384 H 311.298 -0.450882 -0.595579 0
M  V30 3385 H 313.96 -1.65871 -1.02337 0
M  V30 3386 H 313.056 -1.80832 -2.54374 0
M  V30 3387 N 313.357 1.07166 -1.15556 0
M  V30 3388 C 314.289 2.14341 -0.811815 0
M  V30 3389 C 315.302 1.61835 0.177015 0
M  V30 3390 O 316.491 1.78439 -0.0464996 0
M  V30 3391 C 313.591 3.38387 -0.186481 0
M  V30 3392 C 312.764 4.20238 -1.21321 0
M  V30 3393 C 311.823 5.2266 -0.609302 0
M  V30 3394 O 310.849 5.54719 -1.27576 0
M  V30 3395 N 312.051 5.77306 0.608099 0
M  V30 3396 H 314.816 2.44431 -1.73417 0
M  V30 3397 H 312.377 1.23089 -1.0517 0
M  V30 3398 H 314.369 4.04044 0.230339 0
M  V30 3399 H 312.939 3.05994 0.639249 0
M  V30 3400 H 312.159 3.50369 -1.80652 0
M  V30 3401 H 313.447 4.71736 -1.90638 0
M  V30 3402 H 312.845 5.53513 1.1679 0
M  V30 3403 H 311.402 6.44583 0.96725 0
M  V30 3404 N 314.835 0.952656 1.25548 0
M  V30 3405 C 316.063 0.623496 1.97282 0
M  V30 3406 C 316.478 -0.803987 1.70826 0
M  V30 3407 O 315.835 -1.53755 0.983147 0
M  V30 3408 C 315.886 0.870209 3.5087 0
M  V30 3409 O 315.607 2.24156 3.76412 0
M  V30 3410 C 317.108 0.553164 4.39835 0
M  V30 3411 H 314.328 0.233931 0.628902 0
M  V30 3412 H 316.872 1.27649 1.59768 0
M  V30 3413 H 315.027 0.263652 3.86502 0
M  V30 3414 H 315.441 2.31021 4.70882 0
M  V30 3415 H 316.915 0.776342 5.46513 0
M  V30 3416 H 317.392 -0.512215 4.36203 0
M  V30 3417 H 317.998 1.13896 4.09766 0
M  V30 3418 N 316.313 -1.40141 0.720998 0
M  V30 3419 C 317.559 -2.01084 0.263231 0
M  V30 3420 C 317.892 -1.57052 -1.14229 0
M  V30 3421 O 317.167 -0.793027 -1.77599 0
M  V30 3422 C 317.45 -3.58401 0.349344 0
M  V30 3423 C 317.303 -4.12491 1.79363 0
M  V30 3424 C 318.622 -4.39231 -0.276351 0
M  V30 3425 H 315.741 -0.730572 0.0971228 0
M  V30 3426 H 318.383 -1.66543 0.914518 0
M  V30 3427 H 316.533 -3.87958 -0.205165 0
M  V30 3428 H 318.205 -3.93711 2.40394 0
M  V30 3429 H 316.448 -3.66576 2.31958 0
M  V30 3430 H 317.119 -5.21646 1.80524 0
M  V30 3431 H 319.595 -4.15637 0.196184 0
M  V30 3432 H 318.471 -5.48586 -0.185681 0
M  V30 3433 H 318.732 -4.20643 -1.36059 0
M  V30 3434 N 317.792 -0.46758 -1.50504 0
M  V30 3435 C 319.017 0.0886943 -2.0721 0
M  V30 3436 C 319.442 1.33057 -1.32956 0
M  V30 3437 O 318.8 1.77354 -0.376197 0
M  V30 3438 C 318.848 0.359202 -3.58806 0
M  V30 3439 O 317.952 1.44034 -3.8643 0
M  V30 3440 H 317.293 -0.0114349 -0.663902 0
M  V30 3441 H 319.823 -0.657613 -1.93744 0
M  V30 3442 H 319.833 0.600742 -4.03553 0
M  V30 3443 H 318.508 -0.548311 -4.1227 0
M  V30 3444 H 317.085 1.18638 -3.53524 0
M  V30 3445 N 319.27 1.56325 -0.20005 0
M  V30 3446 C 320.495 2.02548 0.44597 0
M  V30 3447 C 320.92 1.07922 1.5406 0
M  V30 3448 O 320.278 0.0635775 1.81188 0
M  V30 3449 C 320.326 3.47175 0.974761 0
M  V30 3450 O 319.43 3.55671 2.08739 0
M  V30 3451 H 318.771 0.655862 0.103638 0
M  V30 3452 H 321.301 2.02201 -0.312381 0
M  V30 3453 H 321.311 3.87067 1.2901 0
M  V30 3454 H 319.986 4.15538 0.17347 0
M  V30 3455 H 318.563 3.27657 1.78032 0
M  V30 3456 N 320.748 -0.0735177 1.57428 0
M  V30 3457 C 321.658 -1.10547 2.06922 0
M  V30 3458 C 322.674 -1.42506 0.998402 0
M  V30 3459 O 323.85 -1.52717 1.31299 0
M  V30 3460 C 320.915 -2.40019 2.50184 0
M  V30 3461 C 319.976 -2.15046 3.71556 0
M  V30 3462 C 319.209 -3.38345 4.12745 0
M  V30 3463 O 319.432 -4.47399 3.53822 0
M  V30 3464 O 318.366 -3.2666 5.05546 0
M  V30 3465 H 322.192 -0.715013 2.95163 0
M  V30 3466 H 319.777 -0.287531 1.46607 0
M  V30 3467 H 321.659 -3.16218 2.78539 0
M  V30 3468 H 320.334 -2.78447 1.65072 0
M  V30 3469 H 319.241 -1.36558 3.48285 0
M  V30 3470 H 320.574 -1.81499 4.57514 0
M  V30 3471 N 322.226 -1.5378 -0.344866 0
M  V30 3472 C 323.454 -1.74899 -1.10534 0
M  V30 3473 C 323.869 -0.487534 -1.82397 0
M  V30 3474 O 323.226 0.540741 -1.74305 0
M  V30 3475 C 323.277 -2.92822 -2.11984 0
M  V30 3476 O 322.998 -4.14089 -1.43044 0
M  V30 3477 C 324.499 -3.25982 -3.00417 0
M  V30 3478 H 321.719 -0.584426 -0.329678 0
M  V30 3479 H 324.263 -2.006 -0.397474 0
M  V30 3480 H 322.418 -2.69457 -2.78338 0
M  V30 3481 H 322.832 -4.80272 -2.10805 0
M  V30 3482 H 324.306 -4.11848 -3.67539 0
M  V30 3483 H 324.783 -2.42228 -3.66363 0
M  V30 3484 H 325.389 -3.51349 -2.39654 0
M  V30 3485 N 323.704 0.605807 -1.45491 0
M  V30 3486 C 324.953 1.36086 -1.48874 0
M  V30 3487 C 325.266 1.95131 -0.135333 0
M  V30 3488 O 326.472 2.7146 -0.0468144 0
M  V30 3489 C 324.928 2.46518 -2.62215 0
M  V30 3490 C 324.536 1.93877 -4.03876 0
M  V30 3491 C 326.28 3.23512 -2.74846 0
M  V30 3492 C 324.187 3.01801 -5.08596 0
M  V30 3493 H 323.117 0.511497 -0.553974 0
M  V30 3494 H 325.768 0.649089 -1.71636 0
M  V30 3495 H 324.15 3.20388 -2.32739 0
M  V30 3496 H 325.324 1.26704 -4.43038 0
M  V30 3497 H 323.639 1.29622 -3.95711 0
M  V30 3498 H 326.236 4.04013 -3.50253 0
M  V30 3499 H 326.579 3.74631 -1.81542 0
M  V30 3500 H 327.112 2.56742 -3.03856 0
M  V30 3501 H 323.851 2.55597 -6.03614 0
M  V30 3502 H 323.371 3.67535 -4.74002 0
M  V30 3503 H 325.05 3.66152 -5.33424 0
M  V30 3504 N 325.182 1.32811 0.848464 0
M  V30 3505 C 326.129 1.22265 1.95755 0
M  V30 3506 C 327.099 0.103413 1.65778 0
M  V30 3507 O 328.284 0.280033 1.88734 0
M  V30 3508 C 325.424 0.958014 3.31536 0
M  V30 3509 C 324.537 2.16262 3.73971 0
M  V30 3510 C 323.672 1.83295 4.98575 0
M  V30 3511 C 322.711 3.00041 5.33518 0
M  V30 3512 N 321.848 2.67125 6.49299 0
M  V30 3513 H 326.688 2.17128 2.04107 0
M  V30 3514 H 324.225 1.07982 0.998913 0
M  V30 3515 H 326.183 0.785052 4.09747 0
M  V30 3516 H 324.813 0.046159 3.22767 0
M  V30 3517 H 323.865 2.44565 2.91362 0
M  V30 3518 H 325.177 3.03572 3.95785 0
M  V30 3519 H 324.331 1.62586 5.84509 0
M  V30 3520 H 323.07 0.932078 4.7871 0
M  V30 3521 H 322.075 3.21374 4.46093 0
M  V30 3522 H 323.3 3.90869 5.55336 0
M  V30 3523 H 321.246 1.79586 6.3094 0
M  V30 3524 H 321.163 3.47965 6.71161 0
M  V30 3525 H 322.431 2.49861 7.3837 0
M  V30 3526 N 326.66 -1.06551 1.16123 0
M  V30 3527 C 327.885 -1.83544 0.965735 0
M  V30 3528 C 328.31 -1.81843 -0.481102 0
M  V30 3529 O 327.668 -1.21732 -1.34354 0
M  V30 3530 C 327.716 -3.28169 1.49457 0
M  V30 3531 O 326.82 -4.0643 0.699157 0
M  V30 3532 H 326.161 -0.568026 0.343864 0
M  V30 3533 H 328.691 -1.34362 1.54299 0
M  V30 3534 H 328.701 -3.78992 1.51092 0
M  V30 3535 H 327.376 -3.28722 2.54784 0
M  V30 3536 H 325.953 -3.65216 0.7531 0
M  V30 3537 N 328.138 -0.959301 -1.25041 0
M  V30 3538 C 329.086 -0.474437 -2.2771 0
M  V30 3539 C 330.08 0.457697 -1.631 0
M  V30 3540 O 331.286 0.333912 -1.76876 0
M  V30 3541 H 327.661 -0.134936 -0.739795 0
M  V30 3542 H 329.632 -1.35251 -2.65988 0
M  V30 3543 C 328.381 0.227884 -3.46952 0
M  V30 3544 H 327.704 -0.480248 -3.96905 0
M  V30 3545 H 329.144 0.531091 -4.20661 0
M  V30 3546 C 327.603 1.452 -3.04004 0
M  V30 3547 O 328.133 2.54949 -3.10426 0
M  V30 3548 N 326.339 1.31502 -2.59144 0
M  V30 3549 H 325.886 0.422065 -2.54119 0
M  V30 3550 H 325.844 2.13521 -2.30773 0
M  V30 3551 N 329.616 1.39756 -0.72842 0
M  V30 3552 C 330.844 2.04948 -0.283528 0
M  V30 3553 C 331.259 1.54908 1.0793 0
M  V30 3554 O 330.616 0.711135 1.68075 0
M  V30 3555 C 330.667 3.60498 -0.268957 0
M  V30 3556 O 330.388 4.08695 -1.57798 0
M  V30 3557 C 331.889 4.4288 0.192912 0
M  V30 3558 H 329.109 0.659243 -0.125056 0
M  V30 3559 H 331.653 1.78927 -0.990226 0
M  V30 3560 H 329.808 3.85444 0.388801 0
M  V30 3561 H 330.222 5.02977 -1.48709 0
M  V30 3562 H 331.696 5.51791 0.151952 0
M  V30 3563 H 332.173 4.21418 1.23708 0
M  V30 3564 H 332.779 4.23069 -0.435039 0
M  V30 3565 N 331.094 0.475555 1.50254 0
M  V30 3566 C 332.342 -0.077738 2.0195 0
M  V30 3567 C 332.663 -1.39813 1.35931 0
M  V30 3568 O 331.933 -1.89249 0.506123 0
M  V30 3569 H 330.513 -0.031719 0.746326 0
M  V30 3570 H 333.175 0.626995 1.84539 0
M  V30 3571 H 332.271 -0.225995 3.11281 0
M  V30 3572 N 332.573 -1.56217 0.208337 0
M  V30 3573 C 333.483 -2.23316 -0.718836 0
M  V30 3574 C 334.499 -1.23648 -1.22422 0
M  V30 3575 O 335.675 -1.56423 -1.26861 0
M  V30 3576 C 332.74 -2.88968 -1.91568 0
M  V30 3577 C 331.801 -4.03943 -1.45357 0
M  V30 3578 C 331.034 -4.66455 -2.59337 0
M  V30 3579 O 331.257 -4.27919 -3.77149 0
M  V30 3580 O 330.191 -5.55686 -2.31293 0
M  V30 3581 H 334.017 -3.03182 -0.177315 0
M  V30 3582 H 331.602 -1.49384 -0.0215402 0
M  V30 3583 H 333.484 -3.30455 -2.61491 0
M  V30 3584 H 332.159 -2.12071 -2.44556 0
M  V30 3585 H 331.066 -3.67052 -0.722746 0
M  V30 3586 H 332.399 -4.82543 -0.970219 0
M  V30 3587 N 334.051 0.0651679 -1.57465 0
M  V30 3588 C 335.281 0.774683 -1.91526 0
M  V30 3589 C 335.689 1.71305 -0.803196 0
M  V30 3590 O 335.032 1.82231 0.231881 0
M  V30 3591 C 335.094 1.61645 -3.21109 0
M  V30 3592 C 334.758 0.846753 -4.49087 0
M  V30 3593 C 335.755 0.163024 -5.19644 0
M  V30 3594 C 333.44 0.811966 -4.95694 0
M  V30 3595 C 335.434 -0.54519 -6.35064 0
M  V30 3596 C 333.121 0.0999836 -6.11018 0
M  V30 3597 C 334.119 -0.577388 -6.80555 0
M  V30 3598 O 333.807 -1.27789 -7.93678 0
M  V30 3599 H 333.539 0.225031 -0.637446 0
M  V30 3600 H 336.093 0.0377134 -2.05365 0
M  V30 3601 H 334.323 2.39638 -3.03497 0
M  V30 3602 H 336.012 2.20525 -3.40769 0
M  V30 3603 H 336.778 0.181163 -4.84662 0
M  V30 3604 H 332.657 1.32867 -4.41438 0
M  V30 3605 H 336.201 -1.07446 -6.89276 0
M  V30 3606 H 332.098 0.0797945 -6.45451 0
M  V30 3607 H 332.866 -1.18784 -8.09835 0
M  V30 3608 N 335.529 1.53961 0.336706 0
M  V30 3609 C 336.775 1.7179 1.07777 0
M  V30 3610 C 337.108 0.483263 1.88091 0
M  V30 3611 O 336.383 -0.519747 1.87427 0
M  V30 3612 C 336.666 2.98558 2.01334 0
M  V30 3613 C 336.519 4.32245 1.24437 0
M  V30 3614 C 337.838 3.21023 3.01052 0
M  V30 3615 H 334.957 0.625089 0.390426 0
M  V30 3616 H 337.599 1.86641 0.35567 0
M  V30 3617 H 335.749 2.86028 2.62908 0
M  V30 3618 H 337.421 4.56637 0.654243 0
M  V30 3619 H 335.664 4.30344 0.546458 0
M  V30 3620 H 336.335 5.17137 1.93063 0
M  V30 3621 H 338.811 3.32929 2.49595 0
M  V30 3622 H 337.687 4.11104 3.6371 0
M  V30 3623 H 337.948 2.37637 3.72802 0
M  V30 3624 N 337.007 -0.598083 1.45811 0
M  V30 3625 C 338.256 -1.35295 1.49594 0
M  V30 3626 C 338.569 -1.95057 0.145679 0
M  V30 3627 O 339.775 -2.71431 0.0612099 0
M  V30 3628 C 338.231 -2.45124 2.63519 0
M  V30 3629 C 337.839 -1.91732 4.04899 0
M  V30 3630 C 339.583 -3.2205 2.76558 0
M  V30 3631 C 337.49 -2.991 5.1019 0
M  V30 3632 H 336.42 -0.508552 0.556679 0
M  V30 3633 H 339.071 -0.639977 1.71978 0
M  V30 3634 H 337.453 -3.19149 2.34435 0
M  V30 3635 H 338.627 -1.24352 4.43704 0
M  V30 3636 H 336.942 -1.27522 3.96393 0
M  V30 3637 H 339.539 -4.0215 3.52391 0
M  V30 3638 H 339.882 -3.73663 1.83526 0
M  V30 3639 H 340.415 -2.55127 3.05213 0
M  V30 3640 H 337.154 -2.52393 6.04961 0
M  V30 3641 H 336.674 -3.65017 4.75944 0
M  V30 3642 H 338.353 -3.63318 5.35359 0
M  V30 3643 N 338.485 -1.33259 -0.841409 0
M  V30 3644 C 339.418 -1.1764 -1.95541 0
M  V30 3645 C 340.396 -0.072501 -1.62438 0
M  V30 3646 O 341.58 -0.23427 -1.87039 0
M  V30 3647 C 338.707 -0.803794 -3.29024 0
M  V30 3648 C 337.753 -1.91482 -3.81099 0
M  V30 3649 S 338.586 -3.52538 -4.03085 0
M  V30 3650 C 339.742 -3.17279 -5.39523 0
M  V30 3651 H 339.975 -2.11941 -2.08491 0
M  V30 3652 H 337.508 -1.18072 -0.9949 0
M  V30 3653 H 339.466 -0.595592 -4.06156 0
M  V30 3654 H 338.127 0.120574 -3.13868 0
M  V30 3655 H 337.32 -1.60742 -4.7768 0
M  V30 3656 H 336.922 -2.07956 -3.10854 0
M  V30 3657 H 339.214 -2.67946 -6.22263 0
M  V30 3658 H 340.157 -4.1293 -5.75234 0
M  V30 3659 H 340.565 -2.53943 -5.04156 0
M  V30 3660 N 339.963 1.05934 -1.16686 0
M  V30 3661 C 341.191 1.8249 -0.974929 0
M  V30 3662 C 341.606 1.82679 0.476861 0
M  V30 3663 O 340.963 1.2486 1.33103 0
M  V30 3664 C 341.014 3.28943 -1.49929 0
M  V30 3665 O 340.735 3.28886 -2.89423 0
M  V30 3666 C 342.236 4.22215 -1.35089 0
M  V30 3667 H 339.456 0.575295 -0.345365 0
M  V30 3668 H 342 1.33631 -1.548 0
M  V30 3669 H 340.155 3.751 -0.968423 0
M  V30 3670 H 340.569 4.20493 -3.13506 0
M  V30 3671 H 342.043 5.22987 -1.76603 0
M  V30 3672 H 342.52 4.38195 -0.296935 0
M  V30 3673 H 343.126 3.81907 -1.87155 0
M  V30 3674 N 341.441 0.965919 1.2453 0
M  V30 3675 C 342.687 0.62776 1.92839 0
M  V30 3676 C 343.02 -0.834694 1.75347 0
M  V30 3677 O 342.295 -1.60031 1.10546 0
M  V30 3678 C 342.578 1.00109 3.45905 0
M  V30 3679 C 342.431 2.52011 3.72573 0
M  V30 3680 C 343.75 0.53435 4.36844 0
M  V30 3681 H 340.869 0.229537 0.700344 0
M  V30 3682 H 343.511 1.2046 1.46933 0
M  V30 3683 H 341.661 0.510238 3.85135 0
M  V30 3684 H 343.333 3.08559 3.42912 0
M  V30 3685 H 341.576 2.95287 3.17786 0
M  V30 3686 H 342.247 2.73183 4.79661 0
M  V30 3687 H 344.723 0.955565 4.04979 0
M  V30 3688 H 343.599 0.824152 5.42678 0
M  V30 3689 H 343.86 -0.565589 4.38467 0
M  V30 3690 N 342.919 -1.39368 0.735821 0
M  V30 3691 C 344.149 -2.04498 0.293967 0
M  V30 3692 C 344.557 -1.55593 -1.07645 0
M  V30 3693 O 343.9 -0.716324 -1.69158 0
M  V30 3694 C 343.962 -3.58836 0.218342 0
M  V30 3695 C 343.626 -4.30721 1.52736 0
M  V30 3696 C 344.623 -4.57305 2.47322 0
M  V30 3697 C 342.308 -4.69251 1.79189 0
M  V30 3698 C 344.302 -5.21429 3.66593 0
M  V30 3699 C 341.989 -5.33104 2.98737 0
M  V30 3700 C 342.987 -5.59125 3.9226 0
M  V30 3701 O 342.675 -6.21653 5.09708 0
M  V30 3702 H 342.407 -0.664118 0.126189 0
M  V30 3703 H 344.961 -1.79385 1.00051 0
M  V30 3704 H 343.191 -3.8285 -0.544314 0
M  V30 3705 H 344.88 -4.05447 -0.191626 0
M  V30 3706 H 345.646 -4.27983 2.28156 0
M  V30 3707 H 341.525 -4.48354 1.07239 0
M  V30 3708 H 345.069 -5.41656 4.39607 0
M  V30 3709 H 340.966 -5.61846 3.17803 0
M  V30 3710 H 341.734 -6.40146 5.10054 0
M  V30 3711 N 344.397 -0.483516 -1.5 0
M  V30 3712 C 345.644 0.0671597 -2.02389 0
M  V30 3713 C 345.972 1.38597 -1.36459 0
M  V30 3714 O 345.227 1.89634 -0.483458 0
M  V30 3715 C 345.526 0.286226 -3.56252 0
M  V30 3716 C 345.192 -0.952416 -4.40726 0
M  V30 3717 C 343.854 -1.29199 -4.63531 0
M  V30 3718 C 346.206 -1.77655 -4.89988 0
M  V30 3719 C 343.534 -2.45553 -5.32842 0
M  V30 3720 C 345.886 -2.93147 -5.60578 0
M  V30 3721 C 344.55 -3.27505 -5.81633 0
M  V30 3722 H 343.82 0.0245755 -0.740592 0
M  V30 3723 H 346.467 -0.640124 -1.80485 0
M  V30 3724 H 344.772 1.07587 -3.76739 0
M  V30 3725 H 346.469 0.726473 -3.94365 0
M  V30 3726 H 343.059 -0.677881 -4.23205 0
M  V30 3727 H 347.243 -1.52737 -4.72213 0
M  V30 3728 H 342.499 -2.72431 -5.47349 0
M  V30 3729 H 346.673 -3.57344 -5.97727 0
M  V30 3730 H 344.3 -4.1777 -6.35116 0
M  V30 3731 N 345.875 1.56104 -0.216619 0
M  V30 3732 C 346.825 2.16703 0.708798 0
M  V30 3733 C 347.809 1.11392 1.16106 0
M  V30 3734 O 349.001 1.37395 1.11587 0
M  V30 3735 C 346.13 2.84666 1.91886 0
M  V30 3736 C 345.216 3.97195 1.48651 0
M  V30 3737 N 345.607 4.99959 0.766434 0
M  V30 3738 C 343.905 4.09193 1.77418 0
M  V30 3739 C 344.606 5.79126 0.546659 0
M  V30 3740 N 343.582 5.32315 1.10188 0
M  V30 3741 H 347.384 2.93516 0.150162 0
M  V30 3742 H 344.898 1.6239 -0.0176768 0
M  V30 3743 H 346.895 3.26486 2.59253 0
M  V30 3744 H 345.555 2.09347 2.48202 0
M  V30 3745 H 346.566 5.16197 0.419634 0
M  V30 3746 H 343.243 3.45021 2.35088 0
M  V30 3747 H 344.633 6.71895 -0.026103 0
M  V30 3748 N 347.353 -0.0568162 1.57498 0
M  V30 3749 C 348.283 -1.06593 2.0775 0
M  V30 3750 C 349.264 -1.39448 0.974082 0
M  V30 3751 O 350.449 -1.48815 1.24771 0
M  V30 3752 C 347.579 -2.37509 2.5339 0
M  V30 3753 C 346.533 -2.1897 3.67745 0
M  V30 3754 C 345.859 -3.55402 3.99492 0
M  V30 3755 C 347.159 -1.59859 4.97235 0
M  V30 3756 H 348.853 -0.647706 2.9231 0
M  V30 3757 H 346.399 -0.310116 1.40621 0
M  V30 3758 H 348.352 -3.08409 2.87162 0
M  V30 3759 H 347.076 -2.8134 1.65878 0
M  V30 3760 H 345.735 -1.50508 3.3428 0
M  V30 3761 H 345.383 -3.9683 3.09088 0
M  V30 3762 H 345.083 -3.43831 4.76502 0
M  V30 3763 H 346.607 -4.27708 4.35773 0
M  V30 3764 H 348.021 -2.20642 5.29141 0
M  V30 3765 H 346.418 -1.58942 5.78669 0
M  V30 3766 H 347.488 -0.561506 4.81638 0
M  V30 3767 N 348.832 -1.54138 -0.328536 0
M  V30 3768 C 349.764 -1.79509 -1.4251 0
M  V30 3769 C 350.777 -0.67688 -1.48061 0
M  V30 3770 O 351.966 -0.953898 -1.50874 0
M  V30 3771 C 349.066 -1.89337 -2.81078 0
M  V30 3772 C 348.239 -3.19443 -2.98789 0
M  V30 3773 C 347.298 -3.20036 -4.17688 0
M  V30 3774 O 346.324 -3.93697 -4.11086 0
M  V30 3775 N 347.526 -2.43467 -5.26976 0
M  V30 3776 H 350.291 -2.74139 -1.21111 0
M  V30 3777 H 347.852 -1.53373 -0.518499 0
M  V30 3778 H 349.844 -1.87167 -3.58818 0
M  V30 3779 H 348.414 -1.01826 -2.95551 0
M  V30 3780 H 347.634 -3.34614 -2.08391 0
M  V30 3781 H 348.922 -4.05354 -3.07515 0
M  V30 3782 H 348.32 -1.83201 -5.35214 0
M  V30 3783 H 346.877 -2.4708 -6.03154 0
M  V30 3784 N 350.31 0.590341 -1.46126 0
M  V30 3785 C 351.726 0.912917 -1.30912 0
M  V30 3786 C 351.926 1.99616 -0.274893 0
M  V30 3787 O 350.982 2.50397 0.325197 0
M  V30 3788 C 352.295 1.3375 -2.69317 0
M  V30 3789 C 353.843 1.45077 -2.77348 0
M  V30 3790 C 354.318 1.90904 -4.16317 0
M  V30 3791 N 355.809 1.9811 -4.18696 0
M  V30 3792 C 356.544 2.34828 -5.23109 0
M  V30 3793 N 356.04 2.70393 -6.37856 0
M  V30 3794 N 357.833 2.35317 -5.10473 0
M  V30 3795 H 349.984 -0.125358 -2.1203 0
M  V30 3796 H 352.247 0.00658481 -0.947977 0
M  V30 3797 H 351.953 0.615614 -3.4627 0
M  V30 3798 H 351.827 2.30058 -2.9892 0
M  V30 3799 H 354.214 2.16353 -2.00687 0
M  V30 3800 H 354.295 0.4704 -2.51438 0
M  V30 3801 H 353.939 1.20209 -4.9347 0
M  V30 3802 H 353.869 2.89886 -4.39629 0
M  V30 3803 H 356.36 1.73146 -3.359 0
M  V30 3804 H 356.673 2.97341 -7.13308 0
M  V30 3805 H 355.018 2.68048 -6.41229 0
M  V30 3806 H 358.209 2.0695 -4.19868 0
M  V30 3807 H 358.382 2.63605 -5.9196 0
M  V30 3808 N 351.788 1.33704 0.83433 0
M  V30 3809 C 352.735 1.24335 1.94447 0
M  V30 3810 C 353.705 0.120991 1.65659 0
M  V30 3811 O 354.89 0.300035 1.88426 0
M  V30 3812 C 352.03 0.993124 3.30501 0
M  V30 3813 C 351.143 2.20217 3.71657 0
M  V30 3814 C 350.278 1.88572 4.96602 0
M  V30 3815 C 349.317 3.05683 5.30306 0
M  V30 3816 N 348.454 2.73997 6.46429 0
M  V30 3817 H 353.294 2.1928 2.01792 0
M  V30 3818 H 350.831 1.09035 0.987404 0
M  V30 3819 H 352.789 0.828467 4.08892 0
M  V30 3820 H 351.419 0.0803902 3.227 0
M  V30 3821 H 350.471 2.47642 2.88752 0
M  V30 3822 H 351.783 3.07752 3.92543 0
M  V30 3823 H 350.937 1.68776 5.82752 0
M  V30 3824 H 349.676 0.982799 4.77695 0
M  V30 3825 H 348.681 3.26088 4.42659 0
M  V30 3826 H 349.906 3.96737 5.51159 0
M  V30 3827 H 347.852 1.86268 6.28999 0
M  V30 3828 H 347.769 3.55064 6.67432 0
M  V30 3829 H 349.037 2.57679 7.35678 0
M  V30 3830 N 353.266 -1.05314 1.17247 0
M  V30 3831 C 354.199 -2.12512 0.831507 0
M  V30 3832 C 355.177 -1.61351 -0.201168 0
M  V30 3833 O 356.361 -1.88317 -0.0829831 0
M  V30 3834 C 353.488 -3.37848 0.24015 0
M  V30 3835 C 352.534 -4.07832 1.24801 0
M  V30 3836 S 353.367 -4.56537 2.79882 0
M  V30 3837 C 354.523 -5.85122 2.22223 0
M  V30 3838 H 354.756 -2.41106 1.7394 0
M  V30 3839 H 352.289 -1.17896 0.996988 0
M  V30 3840 H 354.247 -4.10391 -0.0945588 0
M  V30 3841 H 352.908 -3.07392 -0.645668 0
M  V30 3842 H 352.101 -4.97883 0.78287 0
M  V30 3843 H 351.703 -3.41348 1.52831 0
M  V30 3844 H 353.995 -6.58408 1.59703 0
M  V30 3845 H 354.938 -6.36381 3.10523 0
M  V30 3846 H 355.346 -5.39626 1.65722 0
M  V30 3847 N 354.744 -0.972509 -1.24016 0
M  V30 3848 C 355.992 -0.635776 -1.91839 0
M  V30 3849 C 356.313 0.832312 -1.76345 0
M  V30 3850 O 355.583 1.5946 -1.13795 0
M  V30 3851 H 354.163 -0.232157 -0.710009 0
M  V30 3852 H 356.825 -1.23462 -1.50809 0
M  V30 3853 H 355.921 -0.880545 -2.99421 0
M  V30 3854 N 356.222 1.38976 -0.743202 0
M  V30 3855 C 357.452 2.04339 -0.304807 0
M  V30 3856 C 357.86 1.56162 1.06819 0
M  V30 3857 O 357.203 0.725284 1.68776 0
M  V30 3858 C 357.265 3.58716 -0.237369 0
M  V30 3859 C 356.929 4.29905 -1.55018 0
M  V30 3860 C 357.926 4.55987 -2.49744 0
M  V30 3861 C 355.611 4.68294 -1.81675 0
M  V30 3862 C 357.605 5.19478 -3.69353 0
M  V30 3863 C 355.292 5.31512 -3.0156 0
M  V30 3864 C 356.29 5.57037 -3.9522 0
M  V30 3865 O 355.978 6.18941 -5.12998 0
M  V30 3866 H 355.71 0.663439 -0.12971 0
M  V30 3867 H 358.264 1.78852 -1.01001 0
M  V30 3868 H 356.494 3.83133 0.524003 0
M  V30 3869 H 358.183 4.05543 0.170121 0
M  V30 3870 H 358.949 4.26767 -2.30423 0
M  V30 3871 H 354.828 4.47779 -1.09615 0
M  V30 3872 H 358.372 5.39318 -4.42473 0
M  V30 3873 H 354.269 5.60153 -3.20778 0
M  V30 3874 H 355.037 6.37433 -5.13441 0
M  V30 3875 N 357.7 0.491464 1.49741 0
M  V30 3876 C 358.947 -0.0564256 2.02421 0
M  V30 3877 C 359.275 -1.37872 1.37192 0
M  V30 3878 O 358.53 -1.89375 0.493508 0
M  V30 3879 C 358.829 -0.267329 3.56399 0
M  V30 3880 C 358.495 0.975775 4.40215 0
M  V30 3881 C 357.157 1.31655 4.62839 0
M  V30 3882 C 359.509 1.80251 4.89039 0
M  V30 3883 C 356.837 2.48375 5.31532 0
M  V30 3884 C 359.189 2.96116 5.59015 0
M  V30 3885 C 357.853 3.30585 5.79888 0
M  V30 3886 H 357.123 -0.0206476 0.740712 0
M  V30 3887 H 359.77 0.649686 1.80143 0
M  V30 3888 H 358.075 -1.05588 3.77304 0
M  V30 3889 H 359.772 -0.705549 3.94744 0
M  V30 3890 H 356.362 0.700315 4.2284 0
M  V30 3891 H 360.546 1.55239 4.71396 0
M  V30 3892 H 355.802 2.7533 5.45897 0
M  V30 3893 H 359.976 3.60509 5.95824 0
M  V30 3894 H 357.603 4.21132 6.32892 0
M  V30 3895 N 359.178 -1.55987 0.224894 0
M  V30 3896 C 360.111 -2.16413 -0.723929 0
M  V30 3897 C 361.089 -1.10952 -1.18863 0
M  V30 3898 O 362.273 -1.39225 -1.27077 0
M  V30 3899 C 359.4 -2.74711 -1.98121 0
M  V30 3900 C 358.446 -3.9303 -1.6562 0
M  V30 3901 S 359.279 -5.29817 -0.778058 0
M  V30 3902 C 360.435 -5.91555 -2.04483 0
M  V30 3903 H 360.668 -2.96555 -0.210347 0
M  V30 3904 H 358.201 -1.54397 0.00955457 0
M  V30 3905 H 360.159 -3.08938 -2.70311 0
M  V30 3906 H 358.82 -1.94555 -2.46591 0
M  V30 3907 H 358.013 -4.32334 -2.59043 0
M  V30 3908 H 357.615 -3.59966 -1.01491 0
M  V30 3909 H 359.907 -6.07732 -2.99446 0
M  V30 3910 H 360.85 -6.87498 -1.69563 0
M  V30 3911 H 361.258 -5.20419 -2.18688 0
M  V30 3912 N 360.656 0.0484629 -1.57525 0
M  V30 3913 C 361.905 0.742065 -1.87553 0
M  V30 3914 C 362.218 1.77545 -0.820802 0
M  V30 3915 O 363.424 2.52027 -1.00967 0
M  V30 3916 C 361.88 1.37081 -3.32771 0
M  V30 3917 C 361.488 0.374786 -4.4643 0
M  V30 3918 C 363.232 2.04542 -3.71972 0
M  V30 3919 C 361.139 1.01077 -5.82698 0
M  V30 3920 H 360.069 0.280903 -0.699721 0
M  V30 3921 H 362.72 -0.00411877 -1.835 0
M  V30 3922 H 361.102 2.16605 -3.31509 0
M  V30 3923 H 362.276 -0.392331 -4.59127 0
M  V30 3924 H 360.591 -0.196653 -4.15935 0
M  V30 3925 H 363.188 2.52943 -4.71088 0
M  V30 3926 H 363.531 2.85515 -3.02964 0
M  V30 3927 H 364.064 1.31819 -3.75325 0
M  V30 3928 H 360.803 0.240878 -6.55057 0
M  V30 3929 H 360.323 1.74819 -5.73758 0
M  V30 3930 H 362.002 1.52383 -6.28799 0
M  V30 3931 N 362.134 1.5431 0.320358 0
M  V30 3932 C 363.066 1.80262 1.41556 0
M  V30 3933 C 364.079 0.684723 1.477 0
M  V30 3934 O 365.268 0.961886 1.50366 0
M  V30 3935 C 362.368 1.90825 2.8007 0
M  V30 3936 C 361.541 3.21023 2.97091 0
M  V30 3937 C 360.6 3.22247 4.15985 0
M  V30 3938 O 359.626 3.95871 4.08992 0
M  V30 3939 N 360.828 2.46258 5.25678 0
M  V30 3940 H 363.593 2.74778 1.19655 0
M  V30 3941 H 361.154 1.53646 0.510358 0
M  V30 3942 H 363.146 1.89067 3.57821 0
M  V30 3943 H 361.716 1.03392 2.95006 0
M  V30 3944 H 360.936 3.35715 2.06614 0
M  V30 3945 H 362.224 4.0698 3.05361 0
M  V30 3946 H 361.622 1.86037 5.34235 0
M  V30 3947 H 360.179 2.50275 6.01835 0
M  V30 3948 N 363.613 -0.582584 1.46437 0
M  V30 3949 C 364.862 -1.337 1.5102 0
M  V30 3950 C 365.175 -1.94891 0.166359 0
M  V30 3951 O 366.381 -2.71351 0.0899954 0
M  V30 3952 C 364.837 -2.42315 2.66104 0
M  V30 3953 C 364.445 -1.87427 4.06909 0
M  V30 3954 C 366.189 -3.19099 2.79958 0
M  V30 3955 C 364.096 -2.93672 5.13333 0
M  V30 3956 H 363.026 -0.502619 0.562041 0
M  V30 3957 H 365.677 -0.621701 1.72647 0
M  V30 3958 H 364.059 -3.16645 2.37807 0
M  V30 3959 H 365.233 -1.19639 4.44998 0
M  V30 3960 H 363.548 -1.2331 3.97723 0
M  V30 3961 H 366.145 -3.9839 3.56636 0
M  V30 3962 H 366.488 -3.71695 1.87479 0
M  V30 3963 H 367.021 -2.51875 3.07902 0
M  V30 3964 H 363.76 -2.45962 6.07604 0
M  V30 3965 H 363.28 -3.59948 4.79789 0
M  V30 3966 H 364.959 -3.5762 5.39182 0
M  V30 3967 N 365.091 -1.34144 -0.827227 0
M  V30 3968 C 366.321 -1.29138 -1.61267 0
M  V30 3969 C 366.729 0.137597 -1.88699 0
M  V30 3970 O 366.072 1.09379 -1.47587 0
M  V30 3971 C 366.134 -2.0097 -2.9808 0
M  V30 3972 C 365.798 -3.50242 -2.93563 0
M  V30 3973 C 366.795 -4.4523 -2.68452 0
M  V30 3974 C 364.48 -3.92592 -3.13331 0
M  V30 3975 C 366.474 -5.80542 -2.63154 0
M  V30 3976 C 364.161 -5.28005 -3.07658 0
M  V30 3977 C 365.159 -6.21792 -2.82602 0
M  V30 3978 O 364.847 -7.54723 -2.76853 0
M  V30 3979 H 364.579 -0.445851 -0.508127 0
M  V30 3980 H 367.133 -1.77263 -1.03763 0
M  V30 3981 H 365.363 -1.47451 -3.57484 0
M  V30 3982 H 367.052 -1.89309 -3.5905 0
M  V30 3983 H 367.818 -4.13832 -2.52919 0
M  V30 3984 H 363.697 -3.19994 -3.31851 0
M  V30 3985 H 367.241 -6.53717 -2.43516 0
M  V30 3986 H 363.138 -5.59023 -3.22743 0
M  V30 3987 H 363.906 -7.64409 -2.92611 0
M  V30 3988 N 366.569 1.04691 -1.17803 0
M  V30 3989 C 367.797 1.81446 -0.99423 0
M  V30 3990 C 368.212 1.83174 0.457459 0
M  V30 3991 O 367.569 1.26265 1.31771 0
M  V30 3992 C 367.62 3.27334 -1.5341 0
M  V30 3993 O 367.341 3.25798 -2.92895 0
M  V30 3994 C 368.842 4.20759 -1.39559 0
M  V30 3995 H 366.062 0.571599 -0.351447 0
M  V30 3996 H 368.606 1.31982 -1.56208 0
M  V30 3997 H 366.761 3.74052 -1.00815 0
M  V30 3998 H 367.175 4.17144 -3.17949 0
M  V30 3999 H 368.649 5.21084 -1.82141 0
M  V30 4000 H 369.126 4.37856 -0.343394 0
M  V30 4001 H 369.732 3.79901 -1.91195 0
M  V30 4002 N 368.047 0.979072 1.23499 0
M  V30 4003 C 369.458 0.684391 1.73704 0
M  V30 4004 C 369.809 -0.799448 1.79174 0
M  V30 4005 O 368.934 -1.62531 1.42873 0
M  V30 4006 C 369.529 1.23564 3.15464 0
M  V30 4007 C 368.088 0.99063 3.6313 0
M  V30 4008 C 367.235 1.36416 2.41425 0
M  V30 4009 H 370.186 1.15307 1.09041 0
M  V30 4010 H 370.207 0.607417 3.7562 0
M  V30 4011 H 369.719 2.31561 3.1145 0
M  V30 4012 H 367.82 -0.0733136 3.72528 0
M  V30 4013 H 367.933 1.64427 4.5 0
M  V30 4014 H 366.297 0.782616 2.42378 0
M  V30 4015 H 367.08 2.45387 2.40083 0
M  V30 4016 N 369.525 -1.3858 0.750561 0
M  V30 4017 C 370.765 -2.02032 0.310258 0
M  V30 4018 C 371.129 -1.58288 -1.08668 0
M  V30 4019 O 372.33 -2.14049 -1.62593 0
M  V30 4020 C 370.601 -3.54856 0.425647 0
M  V30 4021 S 372.16 -4.38748 0.0674797 0
M  V30 4022 H 368.978 -0.700705 0.120554 0
M  V30 4023 H 371.58 -1.69134 0.980512 0
M  V30 4024 H 370.284 -3.84182 1.44335 0
M  V30 4025 H 369.815 -3.92527 -0.261894 0
M  V30 4026 H 371.83 -4.82835 -1.14388 0
M  V30 4027 N 371.003 -0.499398 -1.49478 0
M  V30 4028 C 372.252 0.0475259 -2.01644 0
M  V30 4029 C 372.565 1.38195 -1.38425 0
M  V30 4030 O 373.771 2.01547 -1.8191 0
M  V30 4031 C 372.227 0.135164 -3.59646 0
M  V30 4032 C 371.835 -1.19252 -4.31837 0
M  V30 4033 C 373.579 0.632538 -4.19761 0
M  V30 4034 C 371.486 -1.06713 -5.81693 0
M  V30 4035 H 370.416 0.0215349 -0.753692 0
M  V30 4036 H 373.067 -0.638577 -1.7203 0
M  V30 4037 H 371.449 0.885681 -3.85969 0
M  V30 4038 H 372.623 -1.9562 -4.17216 0
M  V30 4039 H 370.938 -1.62321 -3.83459 0
M  V30 4040 H 373.535 0.743833 -5.29501 0
M  V30 4041 H 373.878 1.63098 -3.83021 0
M  V30 4042 H 374.411 -0.0613987 -3.97753 0
M  V30 4043 H 371.15 -2.03979 -6.22955 0
M  V30 4044 H 370.67 -0.344307 -5.98811 0
M  V30 4045 H 372.349 -0.745208 -6.42694 0
M  V30 4046 N 372.481 1.55866 -0.233164 0
M  V30 4047 C 373.414 2.16794 0.712442 0
M  V30 4048 C 374.392 1.1158 1.18273 0
M  V30 4049 O 375.576 1.39897 1.26337 0
M  V30 4050 C 372.703 2.75757 1.96661 0
M  V30 4051 C 371.749 3.93902 1.63533 0
M  V30 4052 S 372.582 5.30223 0.74995 0
M  V30 4053 C 373.738 5.92631 2.01343 0
M  V30 4054 H 373.971 2.96662 0.194617 0
M  V30 4055 H 371.504 1.5439 -0.0177425 0
M  V30 4056 H 373.462 3.10367 2.68668 0
M  V30 4057 H 372.123 1.9586 2.45556 0
M  V30 4058 H 371.316 4.33702 2.56747 0
M  V30 4059 H 370.918 3.60499 0.995804 0
M  V30 4060 H 373.21 6.09312 2.96219 0
M  V30 4061 H 374.153 6.88388 1.65915 0
M  V30 4062 H 374.561 5.21571 2.15925 0
M  V30 4063 N 373.959 -0.0401083 1.57549 0
M  V30 4064 C 375.187 -0.745196 1.93014 0
M  V30 4065 C 375.602 -1.6948 0.831984 0
M  V30 4066 O 374.959 -1.81482 -0.192463 0
M  V30 4067 C 375.01 -1.51176 3.28372 0
M  V30 4068 O 374.731 -0.600284 4.33968 0
M  V30 4069 C 376.232 -2.315 3.78051 0
M  V30 4070 H 373.452 -0.210088 0.637263 0
M  V30 4071 H 375.996 -0.000924689 2.045 0
M  V30 4072 H 374.151 -2.20801 3.18317 0
M  V30 4073 H 374.565 -1.13669 5.12035 0
M  V30 4074 H 376.039 -2.80697 4.75303 0
M  V30 4075 H 376.516 -3.12436 3.08675 0
M  V30 4076 H 377.122 -1.66971 3.91153 0
M  V30 4077 N 375.437 -1.54477 -0.31217 0
M  V30 4078 C 376.683 -1.73483 -1.0503 0
M  V30 4079 C 377.016 -0.513125 -1.87298 0
M  V30 4080 O 376.291 0.489864 -1.8823 0
M  V30 4081 C 376.574 -3.01723 -1.96558 0
M  V30 4082 C 376.427 -4.3417 -1.17545 0
M  V30 4083 C 377.746 -3.25772 -2.95907 0
M  V30 4084 H 374.865 -0.631222 -0.380432 0
M  V30 4085 H 377.507 -1.87184 -0.325932 0
M  V30 4086 H 375.657 -2.90174 -2.58324 0
M  V30 4087 H 377.329 -4.5762 -0.581513 0
M  V30 4088 H 375.572 -4.31159 -0.477925 0
M  V30 4089 H 376.243 -5.20143 -1.84811 0
M  V30 4090 H 378.719 -3.36857 -2.44267 0
M  V30 4091 H 377.595 -4.16838 -3.57123 0
M  V30 4092 H 377.856 -2.43537 -3.68974 0
M  V30 4093 N 376.915 0.57481 -1.46744 0
M  V30 4094 C 378.164 1.32898 -1.51727 0
M  V30 4095 C 378.477 1.948 -0.176692 0
M  V30 4096 O 379.683 2.71299 -0.104385 0
M  V30 4097 C 378.139 2.40901 -2.67385 0
M  V30 4098 C 377.747 1.85266 -4.07898 0
M  V30 4099 C 379.491 3.17609 -2.81646 0
M  V30 4100 C 377.398 2.90945 -5.14883 0
M  V30 4101 H 376.328 0.499631 -0.564699 0
M  V30 4102 H 378.979 0.612536 -1.72975 0
M  V30 4103 H 377.361 3.15379 -2.39483 0
M  V30 4104 H 378.535 1.17278 -4.45626 0
M  V30 4105 H 376.85 1.21199 -3.98371 0
M  V30 4106 H 379.447 3.96493 -3.58744 0
M  V30 4107 H 379.79 3.70696 -1.89448 0
M  V30 4108 H 380.323 2.50239 -3.09233 0
M  V30 4109 H 377.062 2.42736 -6.089 0
M  V30 4110 H 376.582 3.57398 -4.81691 0
M  V30 4111 H 378.261 3.54755 -5.41071 0
M  V30 4112 N 378.394 1.34581 0.820102 0
M  V30 4113 C 379.324 1.29038 1.94606 0
M  V30 4114 C 380.305 0.1673 1.69275 0
M  V30 4115 O 381.49 0.360112 1.90832 0
M  V30 4116 C 378.62 1.04793 3.31113 0
M  V30 4117 C 377.574 2.13597 3.70891 0
M  V30 4118 C 376.9 1.74537 5.05412 0
M  V30 4119 C 378.2 3.55451 3.8269 0
M  V30 4120 H 379.894 2.23248 1.99501 0
M  V30 4121 H 377.44 1.0747 0.958449 0
M  V30 4122 H 379.393 0.995592 4.0947 0
M  V30 4123 H 378.117 0.0702565 3.26524 0
M  V30 4124 H 376.776 2.17905 2.9481 0
M  V30 4125 H 376.424 0.754226 4.97313 0
M  V30 4126 H 376.124 2.47361 5.32997 0
M  V30 4127 H 377.648 1.70803 5.86224 0
M  V30 4128 H 379.062 3.5354 4.51312 0
M  V30 4129 H 377.459 4.26922 4.21732 0
M  V30 4130 H 378.529 3.92587 2.84611 0
M  V30 4131 N 379.872 -1.04064 1.18357 0
M  V30 4132 C 381.097 -1.81454 1.00445 0
M  V30 4133 C 381.522 -1.82823 -0.442423 0
M  V30 4134 O 380.88 -1.24555 -1.31741 0
M  V30 4135 C 380.928 -3.24925 1.56384 0
M  V30 4136 O 380.032 -4.04856 0.785209 0
M  V30 4137 H 379.373 -0.560604 0.355835 0
M  V30 4138 H 381.903 -1.31059 1.57114 0
M  V30 4139 H 381.913 -3.75702 1.59097 0
M  V30 4140 H 380.588 -3.23244 2.61699 0
M  V30 4141 H 379.165 -3.63537 0.830399 0
M  V30 4142 N 381.35 -0.985608 -1.22978 0
M  V30 4143 C 382.282 -0.488154 -2.23941 0
M  V30 4144 C 383.295 0.41282 -1.57479 0
M  V30 4145 O 384.484 0.216121 -1.77187 0
M  V30 4146 C 381.584 0.312611 -3.37455 0
M  V30 4147 C 380.757 -0.582741 -4.33501 0
M  V30 4148 C 379.816 0.165064 -5.25941 0
M  V30 4149 O 378.842 -0.447077 -5.67442 0
M  V30 4150 N 380.044 1.44953 -5.62111 0
M  V30 4151 H 382.809 -1.3563 -2.67254 0
M  V30 4152 H 380.37 -0.859477 -1.37203 0
M  V30 4153 H 382.362 0.821357 -3.96277 0
M  V30 4154 H 380.932 1.0818 -2.93285 0
M  V30 4155 H 380.152 -1.27225 -3.73105 0
M  V30 4156 H 381.44 -1.19275 -4.94622 0
M  V30 4157 H 380.838 1.9683 -5.30353 0
M  V30 4158 H 379.395 1.90361 -6.23383 0
M  V30 4159 N 382.828 1.3818 -0.7579 0
M  V30 4160 C 384.074 2.00316 -0.316453 0
M  V30 4161 C 384.407 1.60026 1.10025 0
M  V30 4162 O 383.682 0.839835 1.75434 0
M  V30 4163 C 383.965 3.57349 -0.444245 0
M  V30 4164 C 383.818 4.07591 -1.90236 0
M  V30 4165 C 385.137 4.3981 0.1598 0
M  V30 4166 H 382.256 0.727741 -0.116459 0
M  V30 4167 H 384.898 1.6406 -0.958352 0
M  V30 4168 H 383.048 3.88365 0.102233 0
M  V30 4169 H 384.72 3.87199 -2.50748 0
M  V30 4170 H 382.963 3.60297 -2.41595 0
M  V30 4171 H 383.634 5.16677 -1.94291 0
M  V30 4172 H 386.11 4.14971 -0.306314 0
M  V30 4173 H 384.986 5.48885 0.0401675 0
M  V30 4174 H 385.247 4.24102 1.24859 0
M  V30 4175 N 384.306 0.507319 1.49211 0
M  V30 4176 C 385.531 -0.033725 2.07373 0
M  V30 4177 C 385.956 -1.29485 1.36437 0
M  V30 4178 O 385.314 -1.76294 0.423087 0
M  V30 4179 C 385.362 -0.263945 3.59633 0
M  V30 4180 O 384.466 -1.33737 3.90113 0
M  V30 4181 H 383.807 0.0290331 0.663365 0
M  V30 4182 H 386.337 0.708749 1.91932 0
M  V30 4183 H 386.347 -0.493536 4.05004 0
M  V30 4184 H 385.022 0.657424 4.10671 0
M  V30 4185 H 383.599 -1.09224 3.56545 0
M  V30 4186 N 385.784 -1.5574 0.241426 0
M  V30 4187 C 387.031 -1.9881 -0.384836 0
M  V30 4188 C 387.359 -1.12947 -1.58346 0
M  V30 4189 O 386.614 -0.178993 -1.9488 0
M  V30 4190 C 386.913 -3.47308 -0.843317 0
M  V30 4191 C 386.579 -4.50223 0.246946 0
M  V30 4192 C 385.241 -4.78088 0.546399 0
M  V30 4193 C 387.593 -5.11841 0.983282 0
M  V30 4194 C 384.921 -5.64846 1.58636 0
M  V30 4195 C 387.273 -5.99727 2.01272 0
M  V30 4196 C 385.937 -6.25927 2.31888 0
M  V30 4197 H 385.207 -0.727496 -0.140821 0
M  V30 4198 H 387.854 -1.8831 0.348106 0
M  V30 4199 H 386.159 -3.55112 -1.65537 0
M  V30 4200 H 387.856 -3.78017 -1.33806 0
M  V30 4201 H 384.446 -4.286 0.00340639 0
M  V30 4202 H 388.63 -4.90366 0.765182 0
M  V30 4203 H 383.886 -5.83403 1.82896 0
M  V30 4204 H 388.06 -6.46517 2.58823 0
M  V30 4205 H 385.687 -6.92949 3.12611 0
M  V30 4206 N 387.262 0.0317525 -1.57568 0
M  V30 4207 C 388.508 0.718712 -1.90279 0
M  V30 4208 C 388.863 1.73108 -0.839727 0
M  V30 4209 O 388.156 1.90997 0.15188 0
M  V30 4210 C 388.35 1.43167 -3.27472 0
M  V30 4211 C 388.179 0.489869 -4.47024 0
M  V30 4212 C 386.949 0.111909 -5.05176 0
M  V30 4213 C 389.147 -0.230592 -5.13783 0
M  V30 4214 N 387.129 -0.831427 -6.08244 0
M  V30 4215 C 388.5 -1.02968 -6.1139 0
M  V30 4216 C 390.555 -0.297821 -4.97008 0
M  V30 4217 C 389.258 -1.88982 -6.9403 0
M  V30 4218 C 391.284 -1.14507 -5.80209 0
M  V30 4219 C 390.646 -1.9321 -6.77384 0
M  V30 4220 H 386.745 0.237177 -0.745165 0
M  V30 4221 H 389.329 -0.0211267 -1.94689 0
M  V30 4222 H 387.5 2.14199 -3.23996 0
M  V30 4223 H 389.232 2.0708 -3.47707 0
M  V30 4224 H 385.987 0.473513 -4.71227 0
M  V30 4225 H 386.411 -1.29752 -6.6445 0
M  V30 4226 H 391.053 0.296346 -4.2176 0
M  V30 4227 H 388.771 -2.4948 -7.68626 0
M  V30 4228 H 392.357 -1.20059 -5.69278 0
M  V30 4229 H 391.237 -2.57711 -7.40645 0
M  V30 4230 N 388.74 1.54641 0.303973 0
M  V30 4231 C 389.989 1.7299 1.03717 0
M  V30 4232 C 390.302 0.521168 1.88529 0
M  V30 4233 O 391.508 0.586408 2.65092 0
M  V30 4234 C 389.964 3.06051 1.89369 0
M  V30 4235 C 389.572 4.34393 1.09574 0
M  V30 4236 C 391.316 3.3376 2.62306 0
M  V30 4237 C 389.223 5.58506 1.94486 0
M  V30 4238 H 388.153 0.64473 0.390947 0
M  V30 4239 H 390.804 1.81124 0.294328 0
M  V30 4240 H 389.186 2.91874 2.67629 0
M  V30 4241 H 390.36 4.59396 0.359485 0
M  V30 4242 H 388.675 4.13597 0.482324 0
M  V30 4243 H 391.272 4.23687 3.26181 0
M  V30 4244 H 391.615 2.52503 3.3098 0
M  V30 4245 H 392.148 3.48894 1.91097 0
M  V30 4246 H 388.887 6.42422 1.30287 0
M  V30 4247 H 388.407 5.37694 2.65792 0
M  V30 4248 H 390.086 5.95651 2.52605 0
M  V30 4249 N 390.218 -0.567019 1.47046 0
M  V30 4250 C 391.166 -1.69593 1.59188 0
M  V30 4251 C 392.16 -1.63046 0.459609 0
M  V30 4252 O 393.366 -1.6835 0.637058 0
M  V30 4253 H 389.741 -0.560993 0.500791 0
M  V30 4254 H 391.712 -1.56488 2.54075 0
M  V30 4255 C 390.461 -3.07964 1.61411 0
M  V30 4256 H 389.784 -3.13679 2.47881 0
M  V30 4257 H 391.224 -3.86671 1.73958 0
M  V30 4258 C 389.683 -3.35123 0.34559 0
M  V30 4259 O 390.213 -3.97812 -0.557521 0
M  V30 4260 N 388.419 -2.89699 0.22864 0
M  V30 4261 H 387.966 -2.38863 0.964479 0
M  V30 4262 H 387.924 -3.08242 -0.619192 0
M  V30 4263 N 391.696 -1.35014 -0.812953 0
M  V30 4264 C 392.643 -1.27412 -1.92444 0
M  V30 4265 C 393.613 -0.14733 -1.65445 0
M  V30 4266 O 394.798 -0.329974 -1.87925 0
M  V30 4267 C 391.938 -1.04558 -3.28879 0
M  V30 4268 C 391.051 -2.26101 -3.68106 0
M  V30 4269 C 390.186 -1.96449 -4.9354 0
M  V30 4270 C 389.225 -3.14081 -5.25376 0
M  V30 4271 N 388.362 -2.84246 -6.41988 0
M  V30 4272 H 393.202 -2.22463 -1.98278 0
M  V30 4273 H 390.739 -1.10593 -0.969933 0
M  V30 4274 H 392.697 -0.893413 -4.07522 0
M  V30 4275 H 391.327 -0.131719 -3.22531 0
M  V30 4276 H 390.379 -2.52204 -2.84775 0
M  V30 4277 H 391.691 -3.13959 -3.87597 0
M  V30 4278 H 390.845 -1.78026 -5.79993 0
M  V30 4279 H 389.584 -1.05867 -4.76071 0
M  V30 4280 H 388.589 -3.33089 -4.37415 0
M  V30 4281 H 389.814 -4.05455 -5.44778 0
M  V30 4282 H 387.76 -1.96252 -6.25956 0
M  V30 4283 H 387.677 -3.65637 -6.61699 0
M  V30 4284 H 388.945 -2.6935 -7.31485 0
M  V30 4285 N 393.175 1.03435 -1.18907 0
M  V30 4286 C 394.085 2.15075 -0.937015 0
M  V30 4287 C 395.101 1.73706 0.101085 0
M  V30 4288 O 396.277 2.01232 -0.0822948 0
M  V30 4289 C 393.342 3.43458 -0.473057 0
M  V30 4290 C 392.403 3.99172 -1.57989 0
M  V30 4291 C 391.636 5.21427 -1.13797 0
M  V30 4292 O 391.859 5.704 0.000725941 0
M  V30 4293 O 390.793 5.69837 -1.9383 0
M  V30 4294 H 394.619 2.39198 -1.87131 0
M  V30 4295 H 392.204 1.13506 -0.971427 0
M  V30 4296 H 394.086 4.20811 -0.222702 0
M  V30 4297 H 392.761 3.20793 0.432869 0
M  V30 4298 H 391.668 3.23178 -1.88433 0
M  V30 4299 H 393.001 4.2619 -2.46217 0
M  V30 4300 N 394.653 0.992116 1.22453 0
M  V30 4301 C 395.878 0.685644 1.95739 0
M  V30 4302 C 396.303 -0.743 1.72804 0
M  V30 4303 O 395.661 -1.50778 1.00676 0
M  V30 4304 C 395.709 0.996293 3.46564 0
M  V30 4305 O 394.813 0.0945512 4.12292 0
M  V30 4306 H 394.154 0.256694 0.612376 0
M  V30 4307 H 396.684 1.32888 1.5557 0
M  V30 4308 H 396.694 0.93781 3.97076 0
M  V30 4309 H 395.369 2.03733 3.62582 0
M  V30 4310 H 393.946 0.208451 3.72317 0
M  V30 4311 N 396.131 -1.37776 0.765217 0
M  V30 4312 C 397.377 -2.00145 0.327072 0
M  V30 4313 C 397.71 -1.60607 -1.09175 0
M  V30 4314 O 396.985 -0.849127 -1.74986 0
M  V30 4315 C 397.268 -3.57109 0.46319 0
M  V30 4316 C 397.121 -4.06576 1.92395 0
M  V30 4317 C 398.44 -4.39888 -0.136473 0
M  V30 4318 H 395.559 -0.727113 0.120316 0
M  V30 4319 H 398.201 -1.63549 0.967039 0
M  V30 4320 H 396.351 -3.88414 -0.0816358 0
M  V30 4321 H 398.023 -3.85864 2.52798 0
M  V30 4322 H 396.266 -3.59011 2.43503 0
M  V30 4323 H 396.937 -5.15639 1.97028 0
M  V30 4324 H 399.413 -4.14803 0.328317 0
M  V30 4325 H 398.289 -5.48899 -0.0110582 0
M  V30 4326 H 398.55 -4.24758 -1.22608 0
M  V30 4327 N 397.609 -0.515225 -1.4894 0
M  V30 4328 C 399.02 -0.0710067 -1.86565 0
M  V30 4329 C 399.371 1.34733 -1.42623 0
M  V30 4330 O 398.496 2.00653 -0.810379 0
M  V30 4331 C 399.091 -0.122083 -3.3858 0
M  V30 4332 C 397.65 0.266863 -3.75453 0
M  V30 4333 C 396.797 -0.488376 -2.72966 0
M  V30 4334 H 399.748 -0.727266 -1.41055 0
M  V30 4335 H 399.769 0.669818 -3.74558 0
M  V30 4336 H 399.281 -1.15448 -3.70531 0
M  V30 4337 H 397.382 1.30196 -3.49113 0
M  V30 4338 H 397.495 -0.0624811 -4.79059 0
M  V30 4339 H 395.859 0.0635622 -2.54621 0
M  V30 4340 H 396.642 -1.52113 -3.07761 0
M  V30 4341 N 399.087 1.5561 -0.249682 0
M  V30 4342 C 400.05 2.20217 0.635394 0
M  V30 4343 C 401.05 1.17227 1.10066 0
M  V30 4344 O 402.24 1.42292 1.00492 0
M  V30 4345 C 399.372 2.84794 1.87363 0
M  V30 4346 H 400.565 2.99814 0.0716752 0
M  V30 4347 H 398.118 1.563 -0.000153234 0
M  V30 4348 H 398.853 2.09142 2.47851 0
M  V30 4349 H 398.638 3.60241 1.5482 0
M  V30 4350 H 400.128 3.3423 2.5036 0
M  V30 4351 N 400.565 -0.0233959 1.57583 0
M  V30 4352 C 401.981 -0.379134 1.55031 0
M  V30 4353 C 402.181 -1.76255 0.976548 0
M  V30 4354 O 401.237 -2.45266 0.600078 0
M  V30 4355 C 402.55 -0.275792 2.99433 0
M  V30 4356 C 404.098 -0.352458 3.11009 0
M  V30 4357 C 404.573 -0.278501 4.57152 0
M  V30 4358 N 406.064 -0.337123 4.61972 0
M  V30 4359 C 406.799 -0.302876 5.726 0
M  V30 4360 N 406.295 -0.220589 6.92449 0
M  V30 4361 N 408.088 -0.353023 5.6099 0
M  V30 4362 H 400.239 0.881869 1.93227 0
M  V30 4363 H 402.502 0.335867 0.886509 0
M  V30 4364 H 402.208 0.675108 3.4516 0
M  V30 4365 H 402.082 -1.06721 3.61788 0
M  V30 4366 H 404.469 -1.29379 2.65226 0
M  V30 4367 H 404.55 0.468409 2.51475 0
M  V30 4368 H 404.194 0.659189 5.03604 0
M  V30 4369 H 404.124 -1.11755 5.14605 0
M  V30 4370 H 406.615 -0.403002 3.75745 0
M  V30 4371 H 406.928 -0.199713 7.72542 0
M  V30 4372 H 405.273 -0.186555 6.9475 0
M  V30 4373 H 408.464 -0.415339 4.66254 0
M  V30 4374 H 408.637 -0.322866 6.47195 0
M  V30 4375 N 402.043 -1.548 -0.295768 0
M  V30 4376 C 403.271 -1.78327 -1.04914 0
M  V30 4377 C 403.686 -0.545316 -1.80753 0
M  V30 4378 O 403.043 0.485013 -1.75937 0
M  V30 4379 C 403.094 -2.99418 -2.02561 0
M  V30 4380 O 402.815 -4.18431 -1.29798 0
M  V30 4381 C 404.316 -3.35375 -2.89895 0
M  V30 4382 H 401.536 -0.594618 -0.310918 0
M  V30 4383 H 404.08 -2.01763 -0.333454 0
M  V30 4384 H 402.235 -2.78175 -2.69624 0
M  V30 4385 H 402.649 -4.86736 -1.95419 0
M  V30 4386 H 404.123 -4.23332 -3.54251 0
M  V30 4387 H 404.6 -2.53761 -3.58472 0
M  V30 4388 H 405.206 -3.58796 -2.28355 0
M  V30 4389 N 403.521 0.559213 -1.47345 0
M  V30 4390 C 404.767 1.31843 -1.54095 0
M  V30 4391 C 405.1 1.93149 -0.201726 0
M  V30 4392 O 404.375 1.77759 0.789428 0
M  V30 4393 C 404.658 2.43006 -2.65744 0
M  V30 4394 C 404.511 1.86581 -4.09277 0
M  V30 4395 C 405.83 3.44943 -2.73318 0
M  V30 4396 H 402.949 0.478012 -0.560957 0
M  V30 4397 H 405.591 0.625977 -1.79392 0
M  V30 4398 H 403.741 3.02072 -2.44305 0
M  V30 4399 H 405.413 1.31792 -4.42073 0
M  V30 4400 H 403.656 1.17268 -4.17649 0
M  V30 4401 H 404.327 2.66933 -4.83168 0
M  V30 4402 H 406.803 2.95793 -2.92653 0
M  V30 4403 H 405.679 4.20153 -3.53218 0
M  V30 4404 H 405.94 4.03665 -1.80296 0
M  V30 4405 N 404.999 1.35443 0.805782 0
M  V30 4406 C 406.246 1.28761 1.56291 0
M  V30 4407 C 406.574 -0.137747 1.94012 0
M  V30 4408 O 405.829 -1.1032 1.61642 0
M  V30 4409 C 406.128 2.14045 2.86216 0
M  V30 4410 C 405.794 3.62826 2.67709 0
M  V30 4411 C 404.456 4.0338 2.6237 0
M  V30 4412 C 406.808 4.57227 2.50186 0
M  V30 4413 C 404.136 5.36501 2.37451 0
M  V30 4414 C 406.488 5.90547 2.26797 0
M  V30 4415 C 405.152 6.30245 2.1988 0
M  V30 4416 H 404.422 0.471171 0.571908 0
M  V30 4417 H 407.069 1.67347 0.930974 0
M  V30 4418 H 405.374 1.68342 3.53791 0
M  V30 4419 H 407.071 2.0621 3.43917 0
M  V30 4420 H 403.661 3.30644 2.72713 0
M  V30 4421 H 407.845 4.2678 2.53323 0
M  V30 4422 H 403.101 5.66259 2.30567 0
M  V30 4423 H 407.275 6.63274 2.12228 0
M  V30 4424 H 404.902 7.33328 2.00333 0
M  V30 4425 N 406.477 -1.02803 1.19454 0
M  V30 4426 C 407.725 -1.75869 0.995722 0
M  V30 4427 C 408.046 -1.89138 -0.474543 0
M  V30 4428 O 407.316 -1.42558 -1.34366 0
M  V30 4429 H 405.896 -0.651511 0.365435 0
M  V30 4430 H 408.558 -1.24004 1.50363 0
M  V30 4431 H 407.654 -2.76661 1.44447 0
M  V30 4432 N 407.956 -0.998596 -1.21925 0
M  V30 4433 C 409.205 -0.673085 -1.90138 0
M  V30 4434 C 409.518 0.79895 -1.78539 0
M  V30 4435 O 410.724 1.23628 -2.4172 0
M  V30 4436 C 409.18 -1.15339 -3.40918 0
M  V30 4437 C 408.788 -2.65106 -3.61141 0
M  V30 4438 C 410.532 -0.902476 -4.14796 0
M  V30 4439 C 408.439 -3.0671 -5.05651 0
M  V30 4440 H 407.369 -0.248057 -0.712028 0
M  V30 4441 H 410.02 -1.20891 -1.38049 0
M  V30 4442 H 408.402 -0.545658 -3.92223 0
M  V30 4443 H 409.576 -3.31274 -3.20304 0
M  V30 4444 H 407.891 -2.88142 -3.00605 0
M  V30 4445 H 410.488 -1.18895 -5.21314 0
M  V30 4446 H 410.831 0.161349 -4.15987 0
M  V30 4447 H 411.364 -1.47269 -3.69536 0
M  V30 4448 H 408.103 -4.12292 -5.09603 0
M  V30 4449 H 407.623 -2.45249 -5.47369 0
M  V30 4450 H 409.302 -2.9833 -5.74115 0
M  V30 4451 N 409.434 1.37368 -0.772513 0
M  V30 4452 C 410.662 2.03942 -0.348588 0
M  V30 4453 C 411.077 1.58264 1.02947 0
M  V30 4454 O 410.434 0.764246 1.65727 0
M  V30 4455 C 410.485 3.5946 -0.38351 0
M  V30 4456 O 410.206 4.03468 -1.70721 0
M  V30 4457 C 411.707 4.4327 0.0519152 0
M  V30 4458 H 408.927 0.654931 -0.145966 0
M  V30 4459 H 411.471 1.75686 -1.04665 0
M  V30 4460 H 409.626 3.86486 0.265978 0
M  V30 4461 H 410.04 4.97991 -1.64636 0
M  V30 4462 H 411.514 5.51995 -0.0236733 0
M  V30 4463 H 411.991 4.2514 1.10238 0
M  V30 4464 H 412.597 4.21471 -0.569415 0
M  V30 4465 N 410.912 0.523116 1.48665 0
M  V30 4466 C 412.14 -0.0096312 2.06898 0
M  V30 4467 C 412.555 -1.28784 1.38059 0
M  V30 4468 O 411.912 -1.76453 0.465893 0
M  V30 4469 C 411.963 -0.244386 3.60673 0
M  V30 4470 O 411.684 0.983172 4.26925 0
M  V30 4471 C 413.185 -0.818289 4.35682 0
M  V30 4472 H 410.405 0.0304161 0.67031 0
M  V30 4473 H 412.949 0.726799 1.91149 0
M  V30 4474 H 411.104 -0.930847 3.76051 0
M  V30 4475 H 411.518 0.759653 5.1897 0
M  V30 4476 H 412.992 -0.93201 5.44075 0
M  V30 4477 H 413.469 -1.82153 3.99646 0
M  V30 4478 H 414.075 -0.168609 4.24966 0
M  V30 4479 N 412.39 -1.55475 0.257931 0
M  V30 4480 C 413.636 -1.99502 -0.364266 0
M  V30 4481 C 413.969 -1.146 -1.56782 0
M  V30 4482 O 413.244 -0.211968 -1.93342 0
M  V30 4483 C 413.527 -3.51917 -0.763333 0
M  V30 4484 C 413.38 -4.4758 0.446371 0
M  V30 4485 C 414.699 -4.09742 -1.60623 0
M  V30 4486 H 411.818 -0.725277 -0.130929 0
M  V30 4487 H 414.46 -1.8653 0.361446 0
M  V30 4488 H 412.61 -3.63101 -1.38166 0
M  V30 4489 H 414.282 -4.48362 1.08487 0
M  V30 4490 H 412.525 -4.19947 1.08753 0
M  V30 4491 H 413.196 -5.51862 0.123645 0
M  V30 4492 H 415.672 -4.01727 -1.08418 0
M  V30 4493 H 414.548 -5.16631 -1.85429 0
M  V30 4494 H 414.809 -3.58889 -2.58169 0
M  V30 4495 N 413.868 0.0150385 -1.57593 0
M  V30 4496 C 414.798 1.01047 -2.10503 0
M  V30 4497 C 415.779 1.36816 -1.01071 0
M  V30 4498 O 416.964 1.45455 -1.28672 0
M  V30 4499 C 414.094 2.30708 -2.59598 0
M  V30 4500 C 413.048 2.09142 -3.73421 0
M  V30 4501 C 412.374 3.44685 -4.08774 0
M  V30 4502 C 413.674 1.46619 -5.01298 0
M  V30 4503 H 415.368 0.569978 -2.93925 0
M  V30 4504 H 412.914 0.272724 -1.41394 0
M  V30 4505 H 414.867 3.00687 -2.95238 0
M  V30 4506 H 413.591 2.76843 -1.73279 0
M  V30 4507 H 412.25 1.41592 -3.38153 0
M  V30 4508 H 411.898 3.88495 -3.195 0
M  V30 4509 H 411.598 3.31077 -4.8545 0
M  V30 4510 H 413.122 4.16004 -4.4696 0
M  V30 4511 H 414.536 2.06535 -5.34805 0
M  V30 4512 H 412.933 1.43544 -5.82679 0
M  V30 4513 H 414.003 0.433611 -4.82957 0
M  V30 4514 N 415.346 1.54954 0.287554 0
M  V30 4515 C 416.574 1.78881 1.03967 0
M  V30 4516 C 416.989 0.554894 1.80462 0
M  V30 4517 O 416.346 -0.475676 1.76192 0
M  V30 4518 C 416.397 3.00488 2.0097 0
M  V30 4519 O 416.118 4.19113 1.27577 0
M  V30 4520 C 417.619 3.36907 2.88112 0
M  V30 4521 H 414.839 0.596259 0.307761 0
M  V30 4522 H 417.383 2.01937 0.322749 0
M  V30 4523 H 415.538 2.79601 2.68145 0
M  V30 4524 H 415.952 4.87765 1.92835 0
M  V30 4525 H 417.426 4.25205 3.52001 0
M  V30 4526 H 417.903 2.55659 3.57121 0
M  V30 4527 H 418.509 3.60001 2.26449 0
M  V30 4528 N 416.824 -0.551391 1.4764 0
M  V30 4529 C 417.757 -1.6738 1.5511 0
M  V30 4530 C 418.735 -1.5753 0.402856 0
M  V30 4531 O 419.919 -1.78307 0.611475 0
M  V30 4532 C 417.046 -3.05661 1.45908 0
M  V30 4533 C 416.092 -3.33938 2.65307 0
M  V30 4534 S 416.925 -3.22553 4.27457 0
M  V30 4535 C 418.081 -4.63317 4.20818 0
M  V30 4536 H 418.314 -1.6079 2.50068 0
M  V30 4537 H 415.847 -0.732674 1.35909 0
M  V30 4538 H 417.805 -3.8542 1.41286 0
M  V30 4539 H 416.466 -3.09711 0.523248 0
M  V30 4540 H 415.659 -4.34761 2.54948 0
M  V30 4541 H 415.261 -2.61809 2.67081 0
M  V30 4542 H 417.553 -5.54391 3.89431 0
M  V30 4543 H 418.496 -4.78732 5.21748 0
M  V30 4544 H 418.904 -4.41636 3.51593 0
M  V30 4545 N 418.302 -1.35869 -0.798587 0
M  V30 4546 C 419.53 -1.32722 -1.58722 0
M  V30 4547 C 419.945 0.0935631 -1.88568 0
M  V30 4548 O 419.302 1.04784 -1.49421 0
M  V30 4549 C 419.353 -2.13974 -2.91371 0
M  V30 4550 O 419.074 -3.50514 -2.62815 0
M  V30 4551 C 420.575 -2.18504 -3.85708 0
M  V30 4552 H 417.795 -0.45562 -0.492596 0
M  V30 4553 H 420.339 -1.78837 -0.991843 0
M  V30 4554 H 418.494 -1.71438 -3.47402 0
M  V30 4555 H 418.908 -3.92806 -3.47568 0
M  V30 4556 H 420.382 -2.79732 -4.75872 0
M  V30 4557 H 420.859 -1.18597 -4.22885 0
M  V30 4558 H 421.465 -2.61236 -3.35612 0
M  V30 4559 N 419.78 1.02168 -1.19998 0
M  V30 4560 C 421.008 1.79296 -1.03249 0
M  V30 4561 C 421.423 1.84103 0.418502 0
M  V30 4562 O 420.78 1.29031 1.29063 0
M  V30 4563 C 420.831 3.24007 -1.60319 0
M  V30 4564 O 420.552 3.19512 -2.99739 0
M  V30 4565 C 422.053 4.17704 -1.48453 0
M  V30 4566 H 419.273 0.564016 -0.363493 0
M  V30 4567 H 421.817 1.28639 -1.58973 0
M  V30 4568 H 419.972 3.7183 -1.08727 0
M  V30 4569 H 420.386 4.10306 -3.26725 0
M  V30 4570 H 421.86 5.17104 -1.93153 0
M  V30 4571 H 422.337 4.37029 -0.436193 0
M  V30 4572 H 422.943 3.7576 -1.99211 0
M  V30 4573 N 421.258 1.00505 1.21394 0
M  V30 4574 C 422.188 0.585684 2.26035 0
M  V30 4575 C 423.169 -0.393525 1.65485 0
M  V30 4576 O 424.354 -0.281497 1.92149 0
M  V30 4577 C 421.484 -0.0884283 3.47187 0
M  V30 4578 C 420.438 0.810567 4.20254 0
M  V30 4579 C 419.764 0.00286382 5.347 0
M  V30 4580 C 421.064 2.1132 4.77641 0
M  V30 4581 H 422.758 1.46039 2.61368 0
M  V30 4582 H 420.304 0.703648 1.25638 0
M  V30 4583 H 422.257 -0.393286 4.19561 0
M  V30 4584 H 420.981 -0.997766 3.10986 0
M  V30 4585 H 419.64 1.09925 3.49731 0
M  V30 4586 H 419.288 -0.907765 4.94741 0
M  V30 4587 H 418.988 0.601444 5.84514 0
M  V30 4588 H 420.512 -0.295808 6.09883 0
M  V30 4589 H 421.926 1.87148 5.41893 0
M  V30 4590 H 420.323 2.66164 5.37845 0
M  V30 4591 H 421.393 2.78393 3.9702 0
M  V30 4592 N 422.737 -1.36956 0.779787 0
M  V30 4593 C 423.962 -2.04283 0.358224 0
M  V30 4594 C 424.387 -1.58422 -1.01411 0
M  V30 4595 O 423.745 -0.748179 -1.65142 0
M  V30 4596 C 423.793 -3.58152 0.419479 0
M  V30 4597 O 422.897 -4.08342 -0.577142 0
M  V30 4598 H 422.238 -0.645967 0.153698 0
M  V30 4599 H 424.768 -1.75108 1.05822 0
M  V30 4600 H 424.778 -4.07041 0.279636 0
M  V30 4601 H 423.453 -3.90886 1.42061 0
M  V30 4602 H 422.03 -3.70751 -0.399755 0
M  V30 4603 N 424.215 -0.530993 -1.48385 0
M  V30 4604 C 425.464 0.00474348 -2.01699 0
M  V30 4605 C 425.777 1.35227 -1.41325 0
M  V30 4606 O 426.983 1.97643 -1.86144 0
M  V30 4607 C 425.439 0.0588473 -3.59852 0
M  V30 4608 C 425.047 -1.28385 -4.2921 0
M  V30 4609 C 426.791 0.543358 -4.21008 0
M  V30 4610 C 424.698 -1.19028 -5.79298 0
M  V30 4611 H 423.628 0.00554317 -0.75398 0
M  V30 4612 H 426.279 -0.674924 -1.70637 0
M  V30 4613 H 424.661 0.803612 -3.8776 0
M  V30 4614 H 425.835 -2.04426 -4.12973 0
M  V30 4615 H 424.15 -1.70418 -3.7993 0
M  V30 4616 H 426.747 0.631351 -5.3096 0
M  V30 4617 H 427.09 1.54937 -3.86394 0
M  V30 4618 H 427.623 -0.145754 -3.97533 0
M  V30 4619 H 424.362 -2.17147 -6.18488 0
M  V30 4620 H 423.882 -0.471246 -5.97946 0
M  V30 4621 H 425.561 -0.881365 -6.40969 0
M  V30 4622 N 425.693 1.55336 -0.266172 0
M  V30 4623 C 426.918 2.04258 0.359661 0
M  V30 4624 C 427.343 1.14359 1.49344 0
M  V30 4625 O 426.701 0.140369 1.80756 0
M  V30 4626 C 426.749 3.50997 0.826635 0
M  V30 4627 O 425.853 3.64204 1.93466 0
M  V30 4628 H 425.194 0.659668 0.075727 0
M  V30 4629 H 427.724 2.00694 -0.39786 0
M  V30 4630 H 427.734 3.9219 1.12477 0
M  V30 4631 H 426.409 4.159 -0.00293032 0
M  V30 4632 H 424.986 3.34913 1.63974 0
M  V30 4633 N 427.171 -0.0066808 1.57599 0
M  V30 4634 C 428.134 -0.985035 2.06953 0
M  V30 4635 C 429.134 -1.27663 0.977687 0
M  V30 4636 O 430.324 -1.22293 1.24057 0
M  V30 4637 C 427.456 -2.3118 2.50536 0
M  V30 4638 H 428.649 -0.558255 2.94658 0
M  V30 4639 H 426.202 -0.254011 1.54222 0
M  V30 4640 H 426.937 -2.78561 1.66054 0
M  V30 4641 H 426.722 -2.11338 3.3027 0
M  V30 4642 H 428.212 -3.01377 2.8907 0
M  V30 4643 N 428.649 -1.55105 -0.279332 0
M  V30 4644 C 430.065 -1.46803 -0.626187 0
M  V30 4645 C 430.265 -0.676939 -1.89789 0
M  V30 4646 O 429.321 -0.19326 -2.51759 0
M  V30 4647 C 430.634 -2.90962 -0.759034 0
M  V30 4648 C 432.182 -3.01138 -0.853504 0
M  V30 4649 C 432.657 -4.46539 -1.01818 0
M  V30 4650 N 434.148 -4.50341 -1.08386 0
M  V30 4651 C 434.883 -5.60053 -1.22996 0
M  V30 4652 N 434.379 -6.79645 -1.34366 0
M  V30 4653 N 436.172 -5.47783 -1.26056 0
M  V30 4654 H 428.323 -2.04996 0.555921 0
M  V30 4655 H 430.586 -0.929325 0.187239 0
M  V30 4656 H 430.292 -3.51544 0.104852 0
M  V30 4657 H 430.166 -3.39619 -1.64131 0
M  V30 4658 H 432.553 -2.40658 -1.70786 0
M  V30 4659 H 432.634 -2.55745 0.0532466 0
M  V30 4660 H 432.278 -5.0762 -0.168504 0
M  V30 4661 H 432.208 -4.89583 -1.93948 0
M  V30 4662 H 434.699 -3.64191 -1.00864 0
M  V30 4663 H 435.012 -7.59012 -1.4533 0
M  V30 4664 H 433.357 -6.82469 -1.31382 0
M  V30 4665 H 436.548 -4.53294 -1.168 0
M  V30 4666 H 436.721 -6.33331 -1.37098 0
M  V30 4667 N 430.127 0.543554 -1.4793 0
M  V30 4668 C 431.077 1.64527 -1.57844 0
M  V30 4669 C 432.061 1.54869 -0.436408 0
M  V30 4670 O 433.253 1.63119 -0.687101 0
M  V30 4671 C 430.382 3.03281 -1.6086 0
M  V30 4672 C 429.468 3.18093 -2.80495 0
M  V30 4673 N 429.859 3.02923 -4.05057 0
M  V30 4674 C 428.157 3.49121 -2.77543 0
M  V30 4675 C 428.858 3.20791 -4.85251 0
M  V30 4676 N 427.834 3.47749 -4.17818 0
M  V30 4677 H 431.636 1.51388 -2.5191 0
M  V30 4678 H 429.15 0.748671 -1.44113 0
M  V30 4679 H 431.147 3.82403 -1.66054 0
M  V30 4680 H 429.807 3.17521 -0.678996 0
M  V30 4681 H 430.818 2.79966 -4.35705 0
M  V30 4682 H 427.495 3.69804 -1.93781 0
M  V30 4683 H 428.885 3.13915 -5.9406 0
M  V30 4684 N 431.605 1.3629 0.791371 0
M  V30 4685 C 432.83 1.33726 1.58531 0
M  V30 4686 C 433.255 -0.0794933 1.87932 0
M  V30 4687 O 432.613 -1.05087 1.47738 0
M  V30 4688 C 432.661 2.16425 2.88431 0
M  V30 4689 O 431.765 1.5554 3.81944 0
M  V30 4690 H 431.106 0.457793 0.480959 0
M  V30 4691 H 433.636 1.79547 0.981031 0
M  V30 4692 H 433.646 2.28933 3.37718 0
M  V30 4693 H 432.321 3.19415 2.66359 0
M  V30 4694 H 430.898 1.51961 3.40532 0
M  V30 4695 N 433.083 -1.0153 1.20538 0
M  V30 4696 C 434.013 -2.11972 0.979295 0
M  V30 4697 C 434.994 -1.6985 -0.0921787 0
M  V30 4698 O 436.179 -1.94089 0.0655932 0
M  V30 4699 C 433.309 -3.43201 0.531984 0
M  V30 4700 C 432.263 -3.9907 1.54685 0
M  V30 4701 C 431.589 -5.26082 0.956127 0
M  V30 4702 C 432.889 -4.32313 2.93092 0
M  V30 4703 H 434.583 -2.31143 1.90298 0
M  V30 4704 H 432.129 -1.11079 0.916372 0
M  V30 4705 H 434.082 -4.1985 0.361044 0
M  V30 4706 H 432.806 -3.23792 -0.427327 0
M  V30 4707 H 431.465 -3.2453 1.70517 0
M  V30 4708 H 431.113 -5.02999 -0.0111538 0
M  V30 4709 H 430.813 -5.64426 1.63393 0
M  V30 4710 H 432.337 -6.05386 0.796284 0
M  V30 4711 H 433.751 -4.99845 2.80763 0
M  V30 4712 H 432.148 -4.81774 3.57791 0
M  V30 4713 H 433.218 -3.41025 3.44717 0
M  V30 4714 N 434.561 -1.01147 -1.20859 0
M  V30 4715 C 435.972 -0.730205 -1.71828 0
M  V30 4716 C 436.323 0.751662 -1.8123 0
M  V30 4717 O 435.448 1.58686 -1.47132 0
M  V30 4718 C 436.043 -1.31885 -3.12077 0
M  V30 4719 C 434.602 -1.08656 -3.60376 0
M  V30 4720 C 433.749 -1.42769 -2.37723 0
M  V30 4721 H 436.7 -1.18158 -1.05945 0
M  V30 4722 H 436.721 -0.706793 -3.73878 0
M  V30 4723 H 436.233 -2.39737 -3.05201 0
M  V30 4724 H 434.334 -0.0254814 -3.72591 0
M  V30 4725 H 434.447 -1.76301 -4.45483 0
M  V30 4726 H 432.811 -0.846603 -2.40218 0
M  V30 4727 H 433.594 -2.51666 -2.33493 0
M  V30 4728 N 436.039 1.36541 -0.78704 0
M  V30 4729 C 436.986 2.30082 -0.181901 0
M  V30 4730 C 437.956 1.5186 0.672896 0
M  V30 4731 O 439.141 1.80374 0.622072 0
M  V30 4732 C 436.281 3.3835 0.679197 0
M  V30 4733 C 435.394 4.31565 -0.193882 0
M  V30 4734 C 434.529 5.26915 0.673364 0
M  V30 4735 C 433.568 6.11769 -0.201315 0
M  V30 4736 N 432.705 6.99315 0.624777 0
M  V30 4737 H 437.545 2.81248 -0.985064 0
M  V30 4738 H 435.082 1.38437 -0.497342 0
M  V30 4739 H 437.04 3.99767 1.19341 0
M  V30 4740 H 435.67 2.8851 1.44781 0
M  V30 4741 H 434.722 3.71323 -0.826044 0
M  V30 4742 H 436.034 4.91191 -0.867937 0
M  V30 4743 H 435.188 5.9361 1.25348 0
M  V30 4744 H 433.927 4.67737 1.38105 0
M  V30 4745 H 432.932 5.44039 -0.793849 0
M  V30 4746 H 434.157 6.73022 -0.906568 0
M  V30 4747 H 432.103 6.42648 1.3168 0
M  V30 4748 H 432.02 7.56 0.00835237 0
M  V30 4749 H 433.288 7.70382 1.18879 0
M  V30 4750 N 437.518 0.538854 1.48102 0
M  V30 4751 C 438.764 0.00801365 2.02798 0
M  V30 4752 C 439.097 -1.3309 1.41424 0
M  V30 4753 O 438.372 -1.86169 0.563158 0
M  V30 4754 C 438.655 -0.104589 3.59948 0
M  V30 4755 C 438.508 1.26012 4.31788 0
M  V30 4756 C 439.827 -0.827055 4.32259 0
M  V30 4757 H 436.946 0.00438624 0.736987 0
M  V30 4758 H 439.588 0.6976 1.7673 0
M  V30 4759 H 437.738 -0.691893 3.82289 0
M  V30 4760 H 439.41 1.88922 4.2084 0
M  V30 4761 H 437.653 1.83968 3.92859 0
M  V30 4762 H 438.324 1.13424 5.40221 0
M  V30 4763 H 440.8 -0.328578 4.14801 0
M  V30 4764 H 439.676 -0.87476 5.41885 0
M  V30 4765 H 439.937 -1.87927 4.0017 0
M  V30 4766 N 438.996 -1.55193 0.274407 0
M  V30 4767 C 440.221 -2.04446 -0.348824 0
M  V30 4768 C 440.646 -1.15149 -1.48735 0
M  V30 4769 O 440.004 -0.149952 -1.80679 0
M  V30 4770 C 440.052 -3.51431 -0.808009 0
M  V30 4771 O 439.156 -3.65225 -1.91531 0
M  V30 4772 H 438.497 -0.66006 -0.0722276 0
M  V30 4773 H 441.027 -2.00481 0.408498 0
M  V30 4774 H 441.037 -3.92781 -1.10395 0
M  V30 4775 H 439.712 -4.15892 0.0249865 0
M  V30 4776 H 438.289 -3.35778 -1.62196 0
M  V30 4777 N 440.474 -0.00167713 -1.576 0
M  V30 4778 C 441.704 0.692754 -1.94639 0
M  V30 4779 C 442.112 1.67744 -0.87513 0
M  V30 4780 O 441.455 1.8305 0.154382 0
M  V30 4781 C 441.517 1.47881 -3.27676 0
M  V30 4782 C 441.181 0.655518 -4.52274 0
M  V30 4783 C 442.178 -0.0575214 -5.19868 0
M  V30 4784 C 439.863 0.600994 -4.98692 0
M  V30 4785 C 441.857 -0.814052 -6.3218 0
M  V30 4786 C 439.544 -0.15926 -6.10892 0
M  V30 4787 C 440.542 -0.865515 -6.77494 0
M  V30 4788 O 440.23 -1.61336 -7.87544 0
M  V30 4789 H 439.962 0.197792 -0.646417 0
M  V30 4790 H 442.516 -0.049423 -2.05341 0
M  V30 4791 H 440.746 2.2655 -3.13388 0
M  V30 4792 H 442.435 2.05874 -3.49816 0
M  V30 4793 H 443.201 -0.0245611 -4.84994 0
M  V30 4794 H 439.08 1.14025 -4.46676 0
M  V30 4795 H 442.624 -1.36584 -6.84098 0
M  V30 4796 H 438.521 -0.194035 -6.45208 0
M  V30 4797 H 439.289 -1.53025 -8.04068 0
M  V30 4798 N 441.952 1.55251 0.271103 0
M  V30 4799 C 442.915 1.87484 1.31842 0
M  V30 4800 C 443.915 0.749545 1.42262 0
M  V30 4801 O 445.105 1.01771 1.4138 0
M  V30 4802 C 442.237 2.0818 2.69951 0
M  V30 4803 H 443.43 2.81108 1.0449 0
M  V30 4804 H 440.983 1.47771 0.509258 0
M  V30 4805 H 441.718 1.16944 3.02481 0
M  V30 4806 H 441.503 2.90114 2.63774 0
M  V30 4807 H 442.993 2.34385 3.4562 0
M  V30 4808 N 443.43 -0.535701 1.48216 0
M  V30 4809 C 444.658 -1.31671 1.59594 0
M  V30 4810 C 445.073 -1.87083 0.254056 0
M  V30 4811 O 444.43 -1.66112 -0.755854 0
M  V30 4812 C 444.481 -2.47158 2.63809 0
M  V30 4813 O 444.202 -1.94032 3.92789 0
M  V30 4814 C 445.703 -3.39062 2.85573 0
M  V30 4815 H 442.923 -0.400623 0.538277 0
M  V30 4816 H 445.467 -0.646827 1.94001 0
M  V30 4817 H 443.622 -3.10043 2.32276 0
M  V30 4818 H 444.036 -2.69585 4.49916 0
M  V30 4819 H 445.51 -4.16459 3.62306 0
M  V30 4820 H 445.987 -3.93941 1.94184 0
M  V30 4821 H 446.593 -2.81975 3.18387 0
M  V30 4822 N 444.908 -1.36708 -0.784132 0
M  V30 4823 C 445.871 -1.31307 -1.87859 0
M  V30 4824 C 446.871 -0.219654 -1.59293 0
M  V30 4825 O 448.061 -0.47476 -1.67606 0
M  V30 4826 C 445.193 -1.03679 -3.24751 0
M  V30 4827 H 446.386 -2.28647 -1.94064 0
M  V30 4828 H 443.939 -1.21558 -0.98252 0
M  V30 4829 H 444.674 -0.0681936 -3.24228 0
M  V30 4830 H 444.459 -1.82811 -3.46876 0
M  V30 4831 H 445.949 -1.02518 -4.04821 0
M  V30 4832 N 446.386 1.0089 -1.21074 0
M  V30 4833 C 447.319 2.09279 -0.909806 0
M  V30 4834 C 448.297 1.61986 0.141145 0
M  V30 4835 O 449.481 1.88495 0.0130332 0
M  V30 4836 C 446.608 3.36723 -0.365374 0
M  V30 4837 C 445.654 4.02919 -1.39852 0
M  V30 4838 S 446.487 4.45835 -2.96633 0
M  V30 4839 C 447.643 5.76471 -2.43786 0
M  V30 4840 H 447.876 2.34484 -1.82769 0
M  V30 4841 H 445.409 1.14115 -1.04006 0
M  V30 4842 H 447.367 4.10459 -0.0578203 0
M  V30 4843 H 446.028 3.09577 0.531136 0
M  V30 4844 H 445.221 4.94634 -0.967117 0
M  V30 4845 H 444.823 3.35441 -1.65395 0
M  V30 4846 H 447.115 6.52027 -1.84029 0
M  V30 4847 H 448.058 6.24418 -3.33928 0
M  V30 4848 H 448.466 5.33104 -1.85636 0
M  V30 4849 N 447.864 1.01787 1.20321 0
M  V30 4850 C 449.141 0.622978 1.85414 0
M  V30 4851 C 449.521 -0.898887 1.91006 0
M  V30 4852 O 448.869 -1.79112 1.41884 0
M  V30 4853 C 449.079 1.27226 3.24984 0
M  V30 4854 C 450.427 1.3885 4.01255 0
M  V30 4855 O 451.451 1.22857 3.34342 0
M  V30 4856 O 450.31 1.64705 5.2109 0
M  V30 4857 H 447.404 0.215116 0.798533 0
M  V30 4858 H 449.95 1.11533 1.27901 0
M  V30 4859 H 448.722 2.31209 3.15687 0
M  V30 4860 H 448.345 0.767069 3.90131 0
M  V30 4861 N 449.342 -1.36122 0.79427 0
M  V30 4862 C 450.588 -1.99846 0.378542 0
M  V30 4863 C 450.943 -1.61898 -1.03955 0
M  V30 4864 O 450.236 -0.866013 -1.70912 0
M  V30 4865 C 450.43 -3.5409 0.48527 0
M  V30 4866 C 450.259 -4.0702 1.91219 0
M  V30 4867 C 449.029 -4.36944 2.53787 0
M  V30 4868 C 451.227 -4.26435 2.87502 0
M  V30 4869 N 449.209 -4.75727 3.88017 0
M  V30 4870 C 450.58 -4.68077 4.06576 0
M  V30 4871 C 452.635 -4.08616 2.84495 0
M  V30 4872 C 451.338 -4.93765 5.23057 0
M  V30 4873 C 453.364 -4.35453 4.00169 0
M  V30 4874 C 452.726 -4.77355 5.17988 0
M  V30 4875 H 448.825 -0.759549 0.186034 0
M  V30 4876 H 451.409 -1.65043 1.0329 0
M  V30 4877 H 449.58 -3.88151 -0.139023 0
M  V30 4878 H 451.312 -4.04675 0.0453192 0
M  V30 4879 H 448.067 -4.26822 2.05231 0
M  V30 4880 H 448.491 -4.99396 4.57092 0
M  V30 4881 H 453.133 -3.75373 1.94564 0
M  V30 4882 H 450.851 -5.25887 6.1357 0
M  V30 4883 H 454.437 -4.2323 3.99208 0
M  V30 4884 H 453.317 -4.97718 6.06008 0
M  V30 4885 N 450.82 -0.546701 -1.47814 0
M  V30 4886 C 452.067 -0.0187407 -2.02491 0
M  V30 4887 C 452.395 1.32685 -1.42215 0
M  V30 4888 O 451.65 1.87413 -0.563454 0
M  V30 4889 C 451.949 0.134869 -3.57145 0
M  V30 4890 C 451.615 -1.13849 -4.3629 0
M  V30 4891 C 450.277 -1.48743 -4.57634 0
M  V30 4892 C 452.629 -1.98277 -4.82012 0
M  V30 4893 C 449.957 -2.67932 -5.21948 0
M  V30 4894 C 452.309 -3.16659 -5.4764 0
M  V30 4895 C 450.973 -3.51879 -5.67219 0
M  V30 4896 H 450.243 -0.0068577 -0.740968 0
M  V30 4897 H 452.89 -0.716097 -1.77607 0
M  V30 4898 H 451.195 0.915118 -3.80963 0
M  V30 4899 H 452.892 0.558556 -3.97091 0
M  V30 4900 H 449.482 -0.856767 -4.19949 0
M  V30 4901 H 453.666 -1.72628 -4.6531 0
M  V30 4902 H 448.922 -2.95401 -5.35302 0
M  V30 4903 H 453.096 -3.82374 -5.82033 0
M  V30 4904 H 450.723 -4.44331 -6.16825 0
M  V30 4905 N 452.299 1.55045 -0.282633 0
M  V30 4906 C 453.548 1.98938 0.332667 0
M  V30 4907 C 453.861 1.17455 1.56409 0
M  V30 4908 O 455.067 1.51527 2.25282 0
M  V30 4909 C 453.523 3.54105 0.643226 0
M  V30 4910 C 453.131 4.44374 -0.568814 0
M  V30 4911 C 454.875 4.06569 1.22074 0
M  V30 4912 C 452.782 5.90943 -0.232426 0
M  V30 4913 H 451.712 0.743043 0.128075 0
M  V30 4914 H 454.363 1.79341 -0.388464 0
M  V30 4915 H 452.745 3.69532 1.42346 0
M  V30 4916 H 453.919 4.40718 -1.34551 0
M  V30 4917 H 452.234 4.02585 -1.06369 0
M  V30 4918 H 454.831 5.13626 1.48635 0
M  V30 4919 H 455.174 3.56057 2.15707 0
M  V30 4920 H 455.707 3.94612 0.502621 0
M  V30 4921 H 452.446 6.45567 -1.13683 0
M  V30 4922 H 451.966 5.9765 0.507357 0
M  V30 4923 H 453.645 6.4677 0.172657 0
M  V30 4924 N 453.777 0.010035 1.57597 0
M  V30 4925 C 454.74 -0.963029 2.07986 0
M  V30 4926 C 455.74 -1.26619 0.991173 0
M  V30 4927 O 456.93 -1.2097 1.25347 0
M  V30 4928 C 454.062 -2.2851 2.52974 0
M  V30 4929 H 455.255 -0.526971 2.95234 0
M  V30 4930 H 452.808 -0.237639 1.54483 0
M  V30 4931 H 453.543 -2.76784 1.69 0
M  V30 4932 H 453.328 -2.07824 3.32493 0
M  V30 4933 H 454.818 -2.98294 2.9225 0
M  V30 4934 N 455.255 -1.55392 -0.262866 0
M  V30 4935 C 456.501 -1.76737 -0.99458 0
M  V30 4936 C 456.834 -0.572453 -1.85571 0
M  V30 4937 O 456.109 0.429732 -1.89693 0
M  V30 4938 C 456.392 -3.07824 -1.8686 0
M  V30 4939 C 456.245 -4.3769 -1.03672 0
M  V30 4940 C 457.564 -3.35021 -2.85393 0
M  V30 4941 H 454.683 -0.643005 -0.360157 0
M  V30 4942 H 457.325 -1.88126 -0.266216 0
M  V30 4943 H 455.475 -2.98245 -2.48962 0
M  V30 4944 H 457.147 -4.59238 -0.43563 0
M  V30 4945 H 455.39 -4.32461 -0.340513 0
M  V30 4946 H 456.061 -5.25759 -1.6817 0
M  V30 4947 H 458.537 -3.44458 -2.33426 0
M  V30 4948 H 457.413 -4.27989 -3.43681 0
M  V30 4949 H 457.674 -2.55153 -3.61039 0
M  V30 4950 N 456.733 0.527833 -1.48498 0
M  V30 4951 C 457.973 1.29401 -1.58224 0
M  V30 4952 C 458.337 1.90348 -0.251327 0
M  V30 4953 O 459.538 2.67868 -0.223588 0
M  V30 4954 C 457.809 2.35266 -2.69044 0
M  V30 4955 S 459.368 3.2158 -2.98549 0
M  V30 4956 H 456.186 0.440138 -0.558391 0
M  V30 4957 H 458.788 0.601079 -1.8603 0
M  V30 4958 H 457.492 1.88975 -3.64303 0
M  V30 4959 H 457.023 3.09263 -2.43146 0
M  V30 4960 H 459.038 4.35391 -2.38011 0
M  V30 4961 N 458.211 1.37122 0.776871 0
M  V30 4962 C 459.458 1.32047 1.53524 0
M  V30 4963 C 459.786 -0.0965631 1.9426 0
M  V30 4964 O 459.041 -1.06866 1.63945 0
M  V30 4965 C 459.34 2.20068 2.81611 0
M  V30 4966 C 459.006 3.68423 2.59953 0
M  V30 4967 C 457.668 4.08854 2.53755 0
M  V30 4968 C 460.02 4.62431 2.40431 0
M  V30 4969 C 457.348 5.41417 2.26018 0
M  V30 4970 C 459.7 5.95225 2.14219 0
M  V30 4971 C 458.364 6.34767 2.06462 0
M  V30 4972 H 457.634 0.483196 0.561785 0
M  V30 4973 H 460.281 1.69284 0.895268 0
M  V30 4974 H 458.586 1.75809 3.50141 0
M  V30 4975 H 460.283 2.13458 3.39465 0
M  V30 4976 H 456.873 3.36354 2.65638 0
M  V30 4977 H 461.057 4.32057 2.44213 0
M  V30 4978 H 456.313 5.71022 2.18504 0
M  V30 4979 H 460.487 6.67626 1.98112 0
M  V30 4980 H 458.114 7.37413 1.84733 0
M  V30 4981 N 459.689 -1.00246 1.21608 0
M  V30 4982 C 460.652 -2.07233 0.979133 0
M  V30 4983 C 461.652 -1.6072 -0.0508219 0
M  V30 4984 O 462.842 -1.73196 0.186712 0
M  V30 4985 C 459.974 -3.37546 0.477016 0
M  V30 4986 H 461.167 -2.29687 1.92831 0
M  V30 4987 H 458.72 -1.17261 1.03342 0
M  V30 4988 H 459.455 -3.20773 -0.476966 0
M  V30 4989 H 459.24 -3.72638 1.21997 0
M  V30 4990 H 460.73 -4.16285 0.331181 0
M  V30 4991 N 461.167 -1.02423 -1.1978 0
M  V30 4992 C 462.414 -0.717988 -1.89344 0
M  V30 4993 C 462.742 0.753036 -1.79331 0
M  V30 4994 O 461.997 1.56355 -1.17692 0
M  V30 4995 C 462.296 -1.1088 -3.39765 0
M  V30 4996 C 461.962 -2.57731 -3.6998 0
M  V30 4997 C 460.624 -2.97854 -3.77937 0
M  V30 4998 C 462.976 -3.52763 -3.83677 0
M  V30 4999 C 460.304 -4.31931 -3.97054 0
M  V30 5000 C 462.656 -4.86538 -4.04306 0
M  V30 5001 C 461.32 -5.26356 -4.10494 0
M  V30 5002 H 460.59 -0.26273 -0.692859 0
M  V30 5003 H 463.237 -1.28623 -1.41875 0
M  V30 5004 H 461.542 -0.459094 -3.89101 0
M  V30 5005 H 463.239 -0.849432 -3.919 0
M  V30 5006 H 459.829 -2.25646 -3.64393 0
M  V30 5007 H 464.013 -3.2292 -3.76877 0
M  V30 5008 H 459.269 -4.62324 -4.00083 0
M  V30 5009 H 463.443 -5.60093 -4.13846 0
M  V30 5010 H 461.07 -6.3026 -4.2506 0
M  V30 5011 N 462.645 1.35699 -0.801477 0
M  V30 5012 C 463.891 1.99208 -0.380022 0
M  V30 5013 C 464.224 1.63445 1.04878 0
M  V30 5014 O 463.499 0.895223 1.72673 0
M  V30 5015 C 463.782 3.55755 -0.557708 0
M  V30 5016 C 463.635 4.01332 -2.03107 0
M  V30 5017 C 464.954 4.40096 0.0197968 0
M  V30 5018 H 462.073 0.723667 -0.139552 0
M  V30 5019 H 464.715 1.60928 -1.01006 0
M  V30 5020 H 462.865 3.88494 -0.0213741 0
M  V30 5021 H 464.537 3.79026 -2.62939 0
M  V30 5022 H 462.78 3.52429 -2.52936 0
M  V30 5023 H 463.451 5.10234 -2.1063 0
M  V30 5024 H 465.927 4.13786 -0.438179 0
M  V30 5025 H 464.803 5.48735 -0.134477 0
M  V30 5026 H 465.064 4.2786 1.11303 0
M  V30 5027 N 464.123 0.554532 1.47522 0
M  V30 5028 C 465.37 0.029479 2.02479 0
M  V30 5029 C 465.698 -1.31929 1.42916 0
M  V30 5030 O 464.953 -1.87112 0.573385 0
M  V30 5031 C 465.252 -0.115927 3.57212 0
M  V30 5032 C 464.918 1.16161 4.3568 0
M  V30 5033 C 463.58 1.51168 4.56839 0
M  V30 5034 C 465.932 2.0083 4.80954 0
M  V30 5035 C 463.26 2.70696 5.2052 0
M  V30 5036 C 465.612 3.19559 5.45953 0
M  V30 5037 C 464.276 3.54882 5.65345 0
M  V30 5038 H 463.546 0.0107871 0.740921 0
M  V30 5039 H 466.193 0.725506 1.77225 0
M  V30 5040 H 464.498 -0.894902 3.81443 0
M  V30 5041 H 466.195 -0.53749 3.97381 0
M  V30 5042 H 462.785 0.879026 4.19489 0
M  V30 5043 H 466.969 1.75093 4.64388 0
M  V30 5044 H 462.225 2.98236 5.33728 0
M  V30 5045 H 466.399 3.85456 5.79997 0
M  V30 5046 H 464.026 4.47596 6.1446 0
M  V30 5047 N 465.601 -1.54893 0.290851 0
M  V30 5048 C 466.826 -2.04804 -0.32712 0
M  V30 5049 C 467.251 -1.16721 -1.47506 0
M  V30 5050 O 466.609 -0.169107 -1.8051 0
M  V30 5051 C 466.657 -3.52268 -0.770689 0
M  V30 5052 O 465.761 -3.67236 -1.87647 0
M  V30 5053 H 465.102 -0.660789 -0.0652227 0
M  V30 5054 H 467.632 -2.00036 0.429739 0
M  V30 5055 H 467.642 -3.9393 -1.06223 0
M  V30 5056 H 466.317 -4.15843 0.069096 0
M  V30 5057 H 464.894 -3.37479 -1.58626 0
M  V30 5058 N 467.08 -0.0183926 -1.57589 0
M  V30 5059 C 468.043 0.951986 -2.08494 0
M  V30 5060 C 469.043 1.26092 -0.997874 0
M  V30 5061 O 470.233 1.20304 -1.25987 0
M  V30 5062 C 467.365 2.27165 -2.54182 0
M  V30 5063 H 468.558 0.511307 -2.95509 0
M  V30 5064 H 466.111 0.229444 -1.54607 0
M  V30 5065 H 466.846 2.75884 -1.70465 0
M  V30 5066 H 466.631 2.06057 -3.33591 0
M  V30 5067 H 468.121 2.9674 -2.93828 0
M  V30 5068 N 468.558 1.5553 0.254621 0
M  V30 5069 C 469.488 1.9268 1.31897 0
M  V30 5070 C 470.469 0.790797 1.506 0
M  V30 5071 O 471.654 1.05045 1.63337 0
M  V30 5072 C 468.784 2.21477 2.67517 0
M  V30 5073 C 467.738 3.37256 2.63519 0
M  V30 5074 C 467.064 3.51576 4.02862 0
M  V30 5075 C 468.364 4.73157 2.21179 0
M  V30 5076 H 470.058 2.81832 1.01051 0
M  V30 5077 H 467.604 1.35599 0.484662 0
M  V30 5078 H 469.557 2.46055 3.42104 0
M  V30 5079 H 468.281 1.29144 2.99982 0
M  V30 5080 H 466.94 3.12675 1.9139 0
M  V30 5081 H 466.588 2.56676 4.32581 0
M  V30 5082 H 466.288 4.2943 4.01078 0
M  V30 5083 H 467.812 3.78467 4.79161 0
M  V30 5084 H 469.226 4.97158 2.85494 0
M  V30 5085 H 467.623 5.54058 2.30521 0
M  V30 5086 H 468.693 4.70739 1.16332 0
M  V30 5087 N 470.036 -0.519951 1.48776 0
M  V30 5088 C 471.285 -1.27175 1.56555 0
M  V30 5089 C 471.598 -1.9401 0.248869 0
M  V30 5090 O 472.804 -2.70725 0.205004 0
M  V30 5091 C 471.26 -2.30811 2.76142 0
M  V30 5092 C 470.868 -1.7 4.14493 0
M  V30 5093 C 472.612 -3.06937 2.9324 0
M  V30 5094 C 470.519 -2.71635 5.25327 0
M  V30 5095 H 469.449 -0.478329 0.582853 0
M  V30 5096 H 472.1 -0.547916 1.75129 0
M  V30 5097 H 470.482 -3.06274 2.51023 0
M  V30 5098 H 471.656 -1.00658 4.49672 0
M  V30 5099 H 469.971 -1.06331 4.02595 0
M  V30 5100 H 472.568 -3.82905 3.73213 0
M  V30 5101 H 472.911 -3.63409 2.03075 0
M  V30 5102 H 473.444 -2.38589 3.18308 0
M  V30 5103 H 470.183 -2.1997 6.1749 0
M  V30 5104 H 469.703 -3.39275 4.94624 0
M  V30 5105 H 471.382 -3.34429 5.53865 0
M  V30 5106 N 471.514 -1.37532 -0.769588 0
M  V30 5107 C 472.424 -1.35668 -1.91393 0
M  V30 5108 C 473.44 -0.255954 -1.72107 0
M  V30 5109 O 474.616 -0.491704 -1.95305 0
M  V30 5110 C 471.681 -1.16481 -3.26547 0
M  V30 5111 C 470.742 -2.36212 -3.58472 0
M  V30 5112 C 469.975 -2.17932 -4.87177 0
M  V30 5113 O 470.198 -1.1647 -5.58382 0
M  V30 5114 O 469.132 -3.06167 -5.18214 0
M  V30 5115 H 472.958 -2.32055 -1.95918 0
M  V30 5116 H 470.543 -1.18284 -0.912641 0
M  V30 5117 H 472.425 -1.07778 -4.07384 0
M  V30 5118 H 471.1 -0.231687 -3.2287 0
M  V30 5119 H 470.007 -2.50488 -2.77861 0
M  V30 5120 H 471.34 -3.281 -3.66894 0
M  V30 5121 N 472.992 0.995999 -1.22138 0
M  V30 5122 C 474.239 1.7351 -1.04406 0
M  V30 5123 C 474.567 1.89884 0.421244 0
M  V30 5124 O 473.822 1.43683 1.32867 0
M  V30 5125 C 474.121 3.14553 -1.6968 0
M  V30 5126 C 473.787 3.18102 -3.19565 0
M  V30 5127 C 472.449 3.18778 -3.60464 0
M  V30 5128 C 474.801 3.14636 -4.15516 0
M  V30 5129 C 472.129 3.13684 -4.95801 0
M  V30 5130 C 474.481 3.11084 -5.50826 0
M  V30 5131 C 473.145 3.10074 -5.91109 0
M  V30 5132 H 472.415 0.634916 -0.38205 0
M  V30 5133 H 475.062 1.1667 -1.51857 0
M  V30 5134 H 473.367 3.74682 -1.14546 0
M  V30 5135 H 475.064 3.70477 -1.53454 0
M  V30 5136 H 471.654 3.18324 -2.86998 0
M  V30 5137 H 475.838 3.13266 -3.84939 0
M  V30 5138 H 471.094 3.11245 -5.26247 0
M  V30 5139 H 475.268 3.07357 -6.24904 0
M  V30 5140 H 472.895 3.05882 -6.95946 0
M  V30 5141 N 474.47 1.03057 1.19235 0
M  V30 5142 C 475.433 0.617418 2.20727 0
M  V30 5143 C 476.433 -0.319856 1.57587 0
M  V30 5144 O 477.623 -0.106633 1.73873 0
M  V30 5145 C 474.755 -0.096296 3.40764 0
M  V30 5146 H 475.948 1.51544 2.58794 0
M  V30 5147 H 473.501 0.821949 1.32942 0
M  V30 5148 H 474.236 -1.00859 3.08217 0
M  V30 5149 H 474.021 0.577217 3.87828 0
M  V30 5150 H 475.511 -0.372219 4.15938 0
M  V30 5151 N 475.948 -1.35272 0.808662 0
M  V30 5152 C 476.911 -2.28082 0.226093 0
M  V30 5153 C 477.911 -1.49673 -0.587762 0
M  V30 5154 O 479.101 -1.69404 -0.405943 0
M  V30 5155 C 476.233 -3.33955 -0.684596 0
M  V30 5156 H 477.426 -2.81116 1.04469 0
M  V30 5157 H 474.979 -1.45162 0.579466 0
M  V30 5158 H 475.714 -2.86111 -1.5268 0
M  V30 5159 H 475.499 -3.91965 -0.102699 0
M  V30 5160 H 476.989 -4.03219 -1.08646 0
M  V30 5161 N 477.426 -0.562348 -1.47226 0
M  V30 5162 C 478.672 -0.0402761 -2.0276 0
M  V30 5163 C 479.005 1.30823 -1.43523 0
M  V30 5164 O 478.28 1.85249 -0.592705 0
M  V30 5165 C 478.563 0.047311 -3.60069 0
M  V30 5166 C 478.416 -1.32865 -4.29729 0
M  V30 5167 C 479.735 0.758182 -4.3352 0
M  V30 5168 H 476.854 -0.0161105 -0.736824 0
M  V30 5169 H 479.496 -0.725628 -1.75598 0
M  V30 5170 H 477.646 0.630986 -3.83342 0
M  V30 5171 H 479.318 -1.95593 -4.17781 0
M  V30 5172 H 477.561 -1.90195 -3.89882 0
M  V30 5173 H 478.232 -1.22004 -5.38349 0
M  V30 5174 H 480.708 0.262546 -4.15271 0
M  V30 5175 H 479.584 0.78844 -5.43208 0
M  V30 5176 H 479.845 1.81537 -4.03109 0
M  V30 5177 N 478.904 1.54736 -0.299062 0
M  V30 5178 C 479.852 2.24897 0.593658 0
M  V30 5179 C 480.846 1.25429 1.13859 0
M  V30 5180 O 482.052 1.43286 1.08945 0
M  V30 5181 H 478.427 0.72207 0.210046 0
M  V30 5182 H 480.398 2.98393 -0.0206421 0
M  V30 5183 C 479.147 3.00159 1.75499 0
M  V30 5184 H 478.47 3.76501 1.34489 0
M  V30 5185 H 479.91 3.52535 2.35574 0
M  V30 5186 C 478.369 2.07015 2.65794 0
M  V30 5187 O 478.899 1.63692 3.66835 0
M  V30 5188 N 477.105 1.73012 2.33485 0
M  V30 5189 H 476.652 2.08439 1.51364 0
M  V30 5190 H 476.61 1.10965 2.94167 0
M  V30 5191 N 480.382 0.0267497 1.57577 0
M  V30 5192 C 481.612 -0.6617 1.95717 0
M  V30 5193 C 482.02 -1.66331 0.901706 0
M  V30 5194 O 481.363 -1.83273 -0.125241 0
M  V30 5195 C 481.425 -1.42649 3.29987 0
M  V30 5196 C 481.089 -0.583482 4.5326 0
M  V30 5197 C 482.086 0.140221 5.19711 0
M  V30 5198 C 479.771 -0.521581 4.99585 0
M  V30 5199 C 481.765 0.914523 6.30805 0
M  V30 5200 C 479.452 0.256428 6.10562 0
M  V30 5201 C 480.45 0.973189 6.76031 0
M  V30 5202 O 480.138 1.73845 7.84878 0
M  V30 5203 H 479.87 -0.187483 0.649481 0
M  V30 5204 H 482.424 0.0820847 2.05236 0
M  V30 5205 H 480.654 -2.21536 3.16952 0
M  V30 5206 H 482.343 -2.00282 3.53047 0
M  V30 5207 H 483.109 0.101716 4.84893 0
M  V30 5208 H 478.988 -1.06904 4.48433 0
M  V30 5209 H 482.532 1.4745 6.81839 0
M  V30 5210 H 478.429 0.296657 6.44818 0
M  V30 5211 H 479.197 1.65797 8.01532 0
M  V30 5212 N 481.861 -1.55662 -0.24637 0
M  V30 5213 C 483.108 -1.77519 -0.974335 0
M  V30 5214 C 483.436 -0.591165 -1.85298 0
M  V30 5215 O 482.691 0.425497 -1.91018 0
M  V30 5216 C 482.99 -3.04885 -1.86494 0
M  V30 5217 C 482.656 -4.36209 -1.14161 0
M  V30 5218 C 481.318 -4.71896 -0.941701 0
M  V30 5219 C 483.67 -5.17391 -0.628957 0
M  V30 5220 C 480.998 -5.86299 -0.216852 0
M  V30 5221 C 483.35 -6.32546 0.0824273 0
M  V30 5222 C 482.014 -6.66853 0.293807 0
M  V30 5223 H 481.284 -0.649588 -0.356535 0
M  V30 5224 H 483.931 -1.89934 -0.244394 0
M  V30 5225 H 482.236 -2.87484 -2.66196 0
M  V30 5226 H 483.933 -3.18994 -2.42989 0
M  V30 5227 H 480.523 -4.08174 -1.30736 0
M  V30 5228 H 484.707 -4.90276 -0.770943 0
M  V30 5229 H 479.963 -6.11385 -0.0426124 0
M  V30 5230 H 484.137 -6.94693 0.487292 0
M  V30 5231 H 481.764 -7.55349 0.857428 0
M  V30 5232 N 483.339 0.512053 -1.4905 0
M  V30 5233 C 484.567 1.29116 -1.61669 0
M  V30 5234 C 484.982 1.86655 -0.283787 0
M  V30 5235 O 484.339 1.67293 0.729331 0
M  V30 5236 C 484.39 2.4293 -2.67707 0
M  V30 5237 O 484.111 1.87758 -3.95826 0
M  V30 5238 C 485.612 3.34476 -2.90931 0
M  V30 5239 H 482.832 0.392009 -0.544583 0
M  V30 5240 H 485.376 0.615881 -1.95006 0
M  V30 5241 H 483.531 3.06308 -2.37179 0
M  V30 5242 H 483.945 2.62393 -4.54148 0
M  V30 5243 H 485.419 4.10642 -3.68886 0
M  V30 5244 H 485.896 3.90801 -2.00427 0
M  V30 5245 H 486.502 2.76874 -3.22832 0
M  V30 5246 N 484.817 1.37938 0.762283 0
M  V30 5247 C 485.765 1.34569 1.89721 0
M  V30 5248 C 486.759 0.232929 1.67791 0
M  V30 5249 O 487.965 0.401485 1.75465 0
M  V30 5250 H 484.34 0.419594 0.624055 0
M  V30 5251 H 486.311 2.30357 1.8968 0
M  V30 5252 C 485.06 1.17898 3.27101 0
M  V30 5253 H 484.383 2.02781 3.44558 0
M  V30 5254 H 485.823 1.19593 4.06784 0
M  V30 5255 C 484.282 -0.114728 3.36705 0
M  V30 5256 O 484.812 -1.0949 3.8649 0
M  V30 5257 N 483.018 -0.16863 2.9011 0
M  V30 5258 H 482.565 0.62967 2.49786 0
M  V30 5259 H 482.523 -1.03383 2.96916 0
M  V30 5260 N 486.295 -0.989507 1.22664 0
M  V30 5261 C 487.225 -2.09847 1.02404 0
M  V30 5262 C 488.206 -1.70007 -0.0561303 0
M  V30 5263 O 489.391 -1.93906 0.106748 0
M  V30 5264 C 486.521 -3.41996 0.604663 0
M  V30 5265 C 485.475 -3.95699 1.63115 0
M  V30 5266 C 484.801 -5.23936 1.0675 0
M  V30 5267 C 486.101 -4.25999 3.02196 0
M  V30 5268 H 487.795 -2.27054 1.95158 0
M  V30 5269 H 485.341 -1.09111 0.939727 0
M  V30 5270 H 487.294 -4.1899 0.45002 0
M  V30 5271 H 486.018 -3.24626 -0.35855 0
M  V30 5272 H 484.677 -3.2084 1.77362 0
M  V30 5273 H 484.325 -5.02909 0.0955422 0
M  V30 5274 H 484.025 -5.60833 1.75328 0
M  V30 5275 H 485.549 -6.0356 0.924516 0
M  V30 5276 H 486.963 -4.93777 2.91303 0
M  V30 5277 H 485.36 -4.74076 3.67929 0
M  V30 5278 H 486.43 -3.33636 3.51873 0
M  V30 5279 N 487.773 -1.03688 -1.18687 0
M  V30 5280 C 488.705 -0.582696 -2.21669 0
M  V30 5281 C 489.718 0.345656 -1.59088 0
M  V30 5282 O 490.907 0.140776 -1.77944 0
M  V30 5283 C 488.007 0.169204 -3.38477 0
M  V30 5284 C 487.18 -0.766079 -4.30639 0
M  V30 5285 C 486.239 -0.0581541 -5.26168 0
M  V30 5286 O 485.265 -0.687346 -5.65035 0
M  V30 5287 N 486.467 1.20981 -5.67753 0
M  V30 5288 H 489.232 -1.46843 -2.61261 0
M  V30 5289 H 486.793 -0.916896 -1.33434 0
M  V30 5290 H 488.785 0.652543 -3.99405 0
M  V30 5291 H 487.355 0.956435 -2.97609 0
M  V30 5292 H 486.575 -1.42935 -3.67373 0
M  V30 5293 H 487.863 -1.40146 -4.89118 0
M  V30 5294 H 487.261 1.74159 -5.38224 0
M  V30 5295 H 485.818 1.6375 -6.30896 0
M  V30 5296 N 489.251 1.34841 -0.815825 0
M  V30 5297 C 490.479 2.0273 -0.413294 0
M  V30 5298 C 490.894 1.61459 0.978599 0
M  V30 5299 O 490.251 0.816584 1.63212 0
M  V30 5300 C 490.302 3.58058 -0.497676 0
M  V30 5301 O 490.023 3.97832 -1.8347 0
M  V30 5302 C 491.524 4.4321 -0.0891339 0
M  V30 5303 H 488.744 0.649956 -0.166728 0
M  V30 5304 H 491.288 1.72267 -1.10201 0
M  V30 5305 H 489.443 3.87136 0.142886 0
M  V30 5306 H 489.857 4.92501 -1.80396 0
M  V30 5307 H 491.331 5.5164 -0.199274 0
M  V30 5308 H 491.808 4.28432 0.966571 0
M  V30 5309 H 492.414 4.19446 -0.703214 0
M  V30 5310 N 490.729 0.570148 1.46925 0
M  V30 5311 C 491.661 -0.207909 2.28255 0
M  V30 5312 C 492.674 -0.867301 1.37774 0
M  V30 5313 O 493.863 -0.738976 1.62485 0
M  V30 5314 C 490.963 -1.31298 3.12433 0
M  V30 5315 C 490.136 -0.747915 4.30958 0
M  V30 5316 C 489.195 -1.7391 4.9663 0
M  V30 5317 O 488.221 -1.2801 5.54619 0
M  V30 5318 N 489.423 -3.07288 4.92498 0
M  V30 5319 H 492.188 0.489794 2.95671 0
M  V30 5320 H 489.749 0.407076 1.56699 0
M  V30 5321 H 491.741 -1.97507 3.53232 0
M  V30 5322 H 490.311 -1.91373 2.47175 0
M  V30 5323 H 489.531 0.0913066 3.94094 0
M  V30 5324 H 490.819 -0.349958 5.07595 0
M  V30 5325 H 490.217 -3.47213 4.46609 0
M  V30 5326 H 488.774 -3.69021 5.37277 0
M  V30 5327 N 492.207 -1.54576 0.307264 0
M  V30 5328 C 493.154 -2.23751 -0.56604 0
M  V30 5329 C 494.124 -1.22235 -1.12462 0
M  V30 5330 O 495.309 -1.50873 -1.16799 0
M  V30 5331 C 492.449 -2.98661 -1.72903 0
M  V30 5332 C 491.562 -4.14963 -1.20124 0
M  V30 5333 C 490.697 -4.77441 -2.3286 0
M  V30 5334 C 489.736 -5.85875 -1.77247 0
M  V30 5335 N 488.873 -6.42282 -2.8358 0
M  V30 5336 H 493.713 -2.97984 0.0304578 0
M  V30 5337 H 491.25 -1.47076 0.0268015 0
M  V30 5338 H 493.208 -3.40329 -2.41313 0
M  V30 5339 H 491.838 -2.26793 -2.29706 0
M  V30 5340 H 490.89 -3.78193 -0.409198 0
M  V30 5341 H 492.202 -4.93066 -0.754171 0
M  V30 5342 H 491.356 -5.21993 -3.09205 0
M  V30 5343 H 490.095 -3.98684 -2.80896 0
M  V30 5344 H 489.1 -5.40741 -0.993926 0
M  V30 5345 H 490.325 -6.6652 -1.30107 0
M  V30 5346 H 488.271 -5.66406 -3.30939 0
M  V30 5347 H 488.188 -7.1575 -2.43388 0
M  V30 5348 H 489.456 -6.91492 -3.59804 0
M  V30 5349 N 493.685 -0.035106 -1.57561 0
M  V30 5350 C 494.648 0.929819 -2.09492 0
M  V30 5351 C 495.648 1.25026 -1.01119 0
M  V30 5352 O 496.838 1.18961 -1.27255 0
M  V30 5353 C 493.97 2.24457 -2.56577 0
M  V30 5354 H 495.163 0.479935 -2.96035 0
M  V30 5355 H 492.716 0.213033 -1.54841 0
M  V30 5356 H 493.451 2.74061 -1.73382 0
M  V30 5357 H 493.236 2.02508 -3.35757 0
M  V30 5358 H 494.726 2.93607 -2.96959 0
M  V30 5359 N 495.163 1.55791 0.238111 0
M  V30 5360 C 496.11 1.9105 1.29493 0
M  V30 5361 C 497.08 0.765733 1.47397 0
M  V30 5362 O 498.265 1.02017 1.61236 0
M  V30 5363 C 495.405 2.21826 2.64362 0
M  V30 5364 C 494.518 3.49153 2.54394 0
M  V30 5365 C 493.653 3.69455 3.81676 0
M  V30 5366 C 492.692 4.90353 3.66361 0
M  V30 5367 N 491.829 5.07131 4.85554 0
M  V30 5368 H 496.669 2.81172 0.987233 0
M  V30 5369 H 494.206 1.39179 0.476203 0
M  V30 5370 H 496.164 2.37675 3.4288 0
M  V30 5371 H 494.794 1.34897 2.93262 0
M  V30 5372 H 493.846 3.41587 1.67399 0
M  V30 5373 H 495.158 4.37818 2.38991 0
M  V30 5374 H 494.312 3.85311 4.68636 0
M  V30 5375 H 493.051 2.7904 3.99985 0
M  V30 5376 H 492.056 4.74464 2.77784 0
M  V30 5377 H 493.281 5.82237 3.49538 0
M  V30 5378 H 491.227 4.19654 5.04209 0
M  V30 5379 H 491.144 5.89899 4.72816 0
M  V30 5380 H 492.412 5.27407 5.73988 0
M  V30 5381 N 496.642 -0.504142 1.49319 0
M  V30 5382 C 498.058 -0.835039 1.36012 0
M  V30 5383 C 498.258 -1.97674 0.390808 0
M  V30 5384 O 497.314 -2.51867 -0.178655 0
M  V30 5385 C 498.627 -1.17821 2.76656 0
M  V30 5386 C 500.175 -1.2866 2.85334 0
M  V30 5387 C 500.65 -1.66307 4.26739 0
M  V30 5388 N 502.141 -1.73362 4.29534 0
M  V30 5389 C 502.876 -2.0393 5.35911 0
M  V30 5390 N 502.372 -2.32744 6.52535 0
M  V30 5391 N 504.165 -2.05155 5.23324 0
M  V30 5392 H 496.316 0.248764 2.10938 0
M  V30 5393 H 498.579 0.0486962 0.946748 0
M  V30 5394 H 498.285 -0.412682 3.4927 0
M  V30 5395 H 498.159 -2.12239 3.11825 0
M  V30 5396 H 500.546 -2.04285 2.1296 0
M  V30 5397 H 500.627 -0.323004 2.53752 0
M  V30 5398 H 500.271 -0.91234 4.99639 0
M  V30 5399 H 500.201 -2.63761 4.55782 0
M  V30 5400 H 502.692 -1.53268 3.45424 0
M  V30 5401 H 503.005 -2.55248 7.2943 0
M  V30 5402 H 501.35 -2.30207 6.55767 0
M  V30 5403 H 504.541 -1.82119 4.3122 0
M  V30 5404 H 504.714 -2.28644 6.06322 0
M  V30 5405 N 498.12 -1.38341 -0.754957 0
M  V30 5406 C 499.067 -1.3546 -1.86867 0
M  V30 5407 C 500.037 -0.217369 -1.64672 0
M  V30 5408 O 501.222 -0.409383 -1.86356 0
M  V30 5409 C 498.362 -1.18413 -3.24149 0
M  V30 5410 C 497.475 -2.41511 -3.58185 0
M  V30 5411 C 496.61 -2.17205 -4.84763 0
M  V30 5412 C 495.649 -3.36081 -5.11582 0
M  V30 5413 N 494.786 -3.11219 -6.29354 0
M  V30 5414 H 499.626 -2.30672 -1.88664 0
M  V30 5415 H 497.163 -1.14607 -0.922154 0
M  V30 5416 H 499.121 -1.06545 -4.03366 0
M  V30 5417 H 497.751 -0.268397 -3.21682 0
M  V30 5418 H 496.803 -2.64056 -2.73822 0
M  V30 5419 H 498.115 -3.30115 -3.73932 0
M  V30 5420 H 497.269 -2.02465 -5.7192 0
M  V30 5421 H 496.008 -1.25964 -4.71152 0
M  V30 5422 H 495.013 -3.51341 -4.22894 0
M  V30 5423 H 496.238 -4.28196 -5.27091 0
M  V30 5424 H 494.184 -2.22624 -6.17069 0
M  V30 5425 H 494.101 -3.93373 -6.45596 0
M  V30 5426 H 495.369 -3.00132 -7.19403 0
M  V30 5427 N 499.598 0.982988 -1.23187 0
M  V30 5428 C 500.561 2.05649 -1.01198 0
M  V30 5429 C 501.561 1.6078 0.0252464 0
M  V30 5430 O 502.751 1.72878 -0.214243 0
M  V30 5431 C 499.883 3.36744 -0.530656 0
M  V30 5432 H 501.076 2.2659 -1.96461 0
M  V30 5433 H 498.629 1.15602 -1.05195 0
M  V30 5434 H 499.364 3.21492 0.425873 0
M  V30 5435 H 499.149 3.7065 -1.2791 0
M  V30 5436 H 500.639 4.15705 -0.397366 0
M  V30 5437 N 501.076 1.04316 1.18135 0
M  V30 5438 C 502.008 0.594444 2.21357 0
M  V30 5439 C 503.021 -0.337215 1.59269 0
M  V30 5440 O 504.21 -0.131337 1.78016 0
M  V30 5441 C 501.31 -0.151251 3.38562 0
M  V30 5442 C 500.483 0.788907 4.30227 0
M  V30 5443 C 499.542 0.0860572 5.2613 0
M  V30 5444 O 498.568 0.717302 5.64662 0
M  V30 5445 N 499.77 -1.17969 5.68387 0
M  V30 5446 H 502.535 1.48227 2.60478 0
M  V30 5447 H 500.096 0.92396 1.32946 0
M  V30 5448 H 502.088 -0.631352 3.99745 0
M  V30 5449 H 500.658 -0.940639 2.98112 0
M  V30 5450 H 499.878 1.44882 3.6661 0
M  V30 5451 H 501.166 1.42738 4.88368 0
M  V30 5452 H 500.564 -1.71302 5.3914 0
M  V30 5453 H 499.121 -1.60402 6.31755 0
M  V30 5454 N 502.554 -1.34406 0.822964 0
M  V30 5455 C 503.801 -1.98284 0.411057 0
M  V30 5456 C 504.129 -1.65245 -1.02588 0
M  V30 5457 O 503.384 -0.91619 -1.72929 0
M  V30 5458 C 503.683 -3.52981 0.560268 0
M  V30 5459 C 503.349 -4.05931 1.96293 0
M  V30 5460 C 502.011 -4.20103 2.34664 0
M  V30 5461 C 504.363 -4.34412 2.87985 0
M  V30 5462 C 501.691 -4.60082 3.64062 0
M  V30 5463 C 504.043 -4.75838 4.16847 0
M  V30 5464 C 502.707 -4.88215 4.55195 0
M  V30 5465 H 501.977 -0.725573 0.150416 0
M  V30 5466 H 504.624 -1.60349 1.04692 0
M  V30 5467 H 502.929 -3.91477 -0.158982 0
M  V30 5468 H 504.626 -4.00385 0.222087 0
M  V30 5469 H 501.216 -3.95363 1.65487 0
M  V30 5470 H 505.4 -4.23001 2.59584 0
M  V30 5471 H 500.656 -4.67856 3.93599 0
M  V30 5472 H 504.83 -4.96834 4.87984 0
M  V30 5473 H 502.457 -5.18952 5.55512 0
M  V30 5474 N 504.032 -0.577932 -1.46621 0
M  V30 5475 C 504.995 0.147805 -2.28723 0
M  V30 5476 C 505.995 0.823325 -1.38123 0
M  V30 5477 O 507.185 0.676011 -1.60548 0
M  V30 5478 C 504.317 1.21853 -3.18378 0
M  V30 5479 H 505.51 -0.573654 -2.94362 0
M  V30 5480 H 503.063 -0.335703 -1.52652 0
M  V30 5481 H 503.798 1.97173 -2.57475 0
M  V30 5482 H 503.583 0.738714 -3.85078 0
M  V30 5483 H 505.073 1.72768 -3.80186 0
M  V30 5484 N 505.51 1.54411 -0.315457 0
M  V30 5485 C 506.473 2.22713 0.54142 0
M  V30 5486 C 507.473 1.2179 1.04995 0
M  V30 5487 O 508.663 1.46426 0.943667 0
M  V30 5488 C 505.795 2.92485 1.75116 0
M  V30 5489 H 506.988 2.99849 -0.0555508 0
M  V30 5490 H 504.541 1.56159 -0.0664453 0
M  V30 5491 H 505.276 2.19466 2.38758 0
M  V30 5492 H 505.061 3.66483 1.39401 0
M  V30 5493 H 506.551 3.44548 2.35959 0
M  V30 5494 N 506.988 0.0434614 1.5754 0
M  V30 5495 C 508.399 -0.493343 1.80064 0
M  V30 5496 C 508.75 -1.71388 0.955023 0
M  V30 5497 O 507.875 -2.15736 0.169434 0
M  V30 5498 C 508.47 -0.90179 3.26578 0
M  V30 5499 C 507.029 -1.38362 3.50047 0
M  V30 5500 C 506.176 -0.355129 2.75017 0
M  V30 5501 H 509.127 0.2694 1.56397 0
M  V30 5502 H 509.148 -1.76523 3.37075 0
M  V30 5503 H 508.66 -0.013271 3.88098 0
M  V30 5504 H 506.761 -2.29159 2.93798 0
M  V30 5505 H 506.874 -1.3811 4.58762 0
M  V30 5506 H 505.238 -0.826348 2.40922 0
M  V30 5507 H 506.021 0.525172 3.39259 0
M  V30 5508 N 508.466 -1.55915 -0.229846 0
M  V30 5509 C 509.877 -1.68809 -0.797531 0
M  V30 5510 C 510.228 -0.643995 -1.8533 0
M  V30 5511 O 509.353 0.206492 -2.15413 0
M  V30 5512 C 509.948 -3.06043 -1.45338 0
M  V30 5513 C 508.507 -3.20819 -1.96856 0
M  V30 5514 C 507.654 -2.6472 -0.825736 0
M  V30 5515 H 510.605 -1.58699 -0.00533733 0
M  V30 5516 H 510.626 -3.01438 -2.32196 0
M  V30 5517 H 510.138 -3.82012 -0.684743 0
M  V30 5518 H 508.239 -2.49704 -2.76548 0
M  V30 5519 H 508.352 -4.27937 -2.15423 0
M  V30 5520 H 506.716 -2.22985 -1.23084 0
M  V30 5521 H 507.499 -3.43229 -0.0699019 0
M  V30 5522 N 509.944 0.496216 -1.49584 0
M  V30 5523 C 511.172 1.27394 -1.63029 0
M  V30 5524 C 511.587 1.86344 -0.303569 0
M  V30 5525 O 510.944 1.68057 0.711547 0
M  V30 5526 C 510.995 2.40077 -2.70269 0
M  V30 5527 O 510.716 1.83549 -3.97796 0
M  V30 5528 C 512.217 3.31372 -2.94462 0
M  V30 5529 H 509.437 0.386211 -0.54871 0
M  V30 5530 H 511.981 0.595163 -1.95648 0
M  V30 5531 H 510.136 3.03775 -2.40415 0
M  V30 5532 H 510.55 2.57561 -4.56905 0
M  V30 5533 H 512.024 4.06707 -3.73221 0
M  V30 5534 H 512.501 3.88654 -2.0456 0
M  V30 5535 H 513.107 2.73435 -3.25751 0
M  V30 5536 N 511.423 1.38739 0.74761 0
M  V30 5537 C 512.669 1.35475 1.50912 0
M  V30 5538 C 513.002 -0.0533093 1.94127 0
M  V30 5539 O 512.277 -1.01572 1.65871 0
M  V30 5540 C 512.56 2.31582 2.75757 0
M  V30 5541 C 512.413 3.81274 2.38642 0
M  V30 5542 C 513.732 2.25722 3.77806 0
M  V30 5543 H 510.851 0.493427 0.547447 0
M  V30 5544 H 513.493 1.69634 0.855823 0
M  V30 5545 H 511.643 2.02582 3.31501 0
M  V30 5546 H 513.315 4.20972 1.88626 0
M  V30 5547 H 511.558 3.98664 1.71025 0
M  V30 5548 H 512.229 4.4399 3.27989 0
M  V30 5549 H 514.705 2.51336 3.31616 0
M  V30 5550 H 513.581 2.95069 4.62845 0
M  V30 5551 H 513.842 1.25803 4.23823 0
M  V30 5552 N 512.901 -0.976442 1.23707 0
M  V30 5553 C 514.129 -1.75341 1.09833 0
M  V30 5554 C 514.544 -1.8553 -0.349885 0
M  V30 5555 O 513.901 -1.33732 -1.24185 0
M  V30 5556 C 513.952 -3.17833 1.72233 0
M  V30 5557 O 513.673 -3.08167 3.11391 0
M  V30 5558 C 515.174 -4.11906 1.63853 0
M  V30 5559 H 512.394 -0.550137 0.384175 0
M  V30 5560 H 514.938 -1.2265 1.63638 0
M  V30 5561 H 513.093 -3.67538 1.22452 0
M  V30 5562 H 513.507 -3.97897 3.41729 0
M  V30 5563 H 514.981 -5.09579 2.12211 0
M  V30 5564 H 515.458 -4.35109 0.598092 0
M  V30 5565 H 516.064 -3.68107 2.13019 0
M  V30 5566 N 514.379 -1.04941 -1.1758 0
M  V30 5567 C 515.628 -0.753124 -1.87112 0
M  V30 5568 C 515.941 0.722507 -1.81767 0
M  V30 5569 O 517.147 1.13265 -2.46746 0
M  V30 5570 C 515.603 -1.29695 -3.35719 0
M  V30 5571 C 515.211 -2.80184 -3.49572 0
M  V30 5572 C 516.955 -1.07759 -4.10595 0
M  V30 5573 C 514.862 -3.2788 -4.92187 0
M  V30 5574 H 513.792 -0.278034 -0.700866 0
M  V30 5575 H 516.443 -1.26637 -1.32798 0
M  V30 5576 H 514.825 -0.711522 -3.89555 0
M  V30 5577 H 515.999 -3.44561 -3.05965 0
M  V30 5578 H 514.314 -3.00632 -2.88113 0
M  V30 5579 H 516.911 -1.40899 -5.15802 0
M  V30 5580 H 517.254 -0.0152302 -4.16297 0
M  V30 5581 H 517.787 -1.62809 -3.62957 0
M  V30 5582 H 514.526 -4.33535 -4.91658 0
M  V30 5583 H 514.046 -2.68245 -5.36475 0
M  V30 5584 H 515.725 -3.22412 -5.60945 0
M  V30 5585 N 515.857 1.33968 -0.830081 0
M  V30 5586 C 517.082 2.02813 -0.433796 0
M  V30 5587 C 517.507 1.62076 0.954614 0
M  V30 5588 O 516.865 0.808955 1.62252 0
M  V30 5589 C 516.913 3.56348 -0.552115 0
M  V30 5590 O 516.017 4.10202 0.425191 0
M  V30 5591 H 515.358 0.639817 -0.177567 0
M  V30 5592 H 517.888 1.7106 -1.12248 0
M  V30 5593 H 517.898 4.05722 -0.430513 0
M  V30 5594 H 516.573 3.85344 -1.56471 0
M  V30 5595 H 515.15 3.71979 0.261878 0
M  V30 5596 N 517.335 0.585699 1.46312 0
M  V30 5597 C 518.282 -0.145835 2.30339 0
M  V30 5598 C 519.252 -0.881215 1.40797 0
M  V30 5599 O 520.437 -0.871293 1.69744 0
M  V30 5600 C 517.577 -1.15161 3.25318 0
M  V30 5601 C 516.69 -0.419367 4.2996 0
M  V30 5602 C 515.825 -1.41293 5.12064 0
M  V30 5603 C 514.864 -0.667261 6.08452 0
M  V30 5604 N 514.001 -1.60903 6.83414 0
M  V30 5605 H 518.841 0.576755 2.92365 0
M  V30 5606 H 516.378 0.296237 1.44086 0
M  V30 5607 H 518.336 -1.74763 3.78832 0
M  V30 5608 H 516.966 -1.84188 2.65094 0
M  V30 5609 H 516.018 0.291751 3.7928 0
M  V30 5610 H 517.33 0.163433 4.98532 0
M  V30 5611 H 516.484 -2.08167 5.6987 0
M  V30 5612 H 515.223 -2.02966 4.43459 0
M  V30 5613 H 514.228 0.0152356 5.49798 0
M  V30 5614 H 515.453 -0.0558817 6.79077 0
M  V30 5615 H 513.399 -2.21381 6.17516 0
M  V30 5616 H 513.316 -1.07911 7.48259 0
M  V30 5617 H 514.584 -2.26802 7.45775 0
M  V30 5618 N 518.813 -1.54241 0.323641 0
M  V30 5619 C 519.776 -2.22997 -0.529602 0
M  V30 5620 C 520.776 -1.22345 -1.04347 0
M  V30 5621 O 521.966 -1.46924 -0.935889 0
M  V30 5622 C 519.098 -2.93409 -1.73562 0
M  V30 5623 H 520.291 -2.99815 0.0714518 0
M  V30 5624 H 517.844 -1.56121 0.0747258 0
M  V30 5625 H 518.579 -2.20729 -2.37591 0
M  V30 5626 H 518.364 -3.67217 -1.37456 0
M  V30 5627 H 519.854 -3.45794 -2.34128 0
M  V30 5628 N 520.291 -0.0518155 -1.57515 0
M  V30 5629 C 521.519 0.631395 -1.9703 0
M  V30 5630 C 521.934 1.64341 -0.92938 0
M  V30 5631 O 521.291 1.82296 0.0863266 0
M  V30 5632 C 521.342 1.31774 -3.36627 0
M  V30 5633 O 521.063 0.346247 -4.3673 0
M  V30 5634 C 522.564 2.09065 -3.90905 0
M  V30 5635 H 519.784 0.172576 -0.648428 0
M  V30 5636 H 522.328 -0.118306 -2.04158 0
M  V30 5637 H 520.483 2.01867 -3.30649 0
M  V30 5638 H 520.897 0.836226 -5.17791 0
M  V30 5639 H 522.371 2.52508 -4.9086 0
M  V30 5640 H 522.848 2.93908 -3.26366 0
M  V30 5641 H 523.454 1.43882 -4.00223 0
M  V30 5642 N 521.769 1.56035 0.221574 0
M  V30 5643 C 522.679 1.95581 1.29558 0
M  V30 5644 C 523.695 0.859639 1.51282 0
M  V30 5645 O 524.871 1.16321 1.64413 0
M  V30 5646 C 521.936 2.26447 2.62531 0
M  V30 5647 C 520.997 3.49632 2.4911 0
M  V30 5648 C 520.23 3.79017 3.75742 0
M  V30 5649 O 520.453 3.10077 4.78757 0
M  V30 5650 O 519.387 4.72507 3.72855 0
M  V30 5651 H 523.213 2.8711 0.990035 0
M  V30 5652 H 520.798 1.43244 0.424434 0
M  V30 5653 H 522.68 2.47494 3.41064 0
M  V30 5654 H 521.355 1.38092 2.92766 0
M  V30 5655 H 520.262 3.33864 1.68777 0
M  V30 5656 H 521.595 4.3837 2.23814 0
M  V30 5657 N 523.247 -0.488276 1.49845 0
M  V30 5658 C 524.658 -1.06955 1.53028 0
M  V30 5659 C 525.009 -1.9351 0.323797 0
M  V30 5660 O 524.134 -2.08891 -0.565116 0
M  V30 5661 C 524.729 -1.94643 2.77307 0
M  V30 5662 C 523.288 -2.4791 2.83227 0
M  V30 5663 C 522.435 -1.25833 2.47106 0
M  V30 5664 H 525.386 -0.271626 1.56358 0
M  V30 5665 H 525.407 -2.79496 2.5819 0
M  V30 5666 H 524.919 -1.31621 3.65099 0
M  V30 5667 H 523.02 -3.14535 1.99745 0
M  V30 5668 H 523.133 -2.84193 3.85709 0
M  V30 5669 H 521.497 -1.58764 1.99163 0
M  V30 5670 H 522.28 -0.644993 3.37186 0
M  V30 5671 N 524.725 -1.39134 -0.740242 0
M  V30 5672 C 525.655 -1.40165 -1.86751 0
M  V30 5673 C 526.636 -0.265708 -1.68012 0
M  V30 5674 O 527.821 -0.47076 -1.88408 0
M  V30 5675 C 524.951 -1.2392 -3.2444 0
M  V30 5676 C 523.905 -2.34858 -3.57807 0
M  V30 5677 C 523.231 -2.03707 -4.94376 0
M  V30 5678 C 524.531 -3.77159 -3.61315 0
M  V30 5679 H 526.225 -2.345 -1.86145 0
M  V30 5680 H 523.771 -1.12875 -0.89416 0
M  V30 5681 H 525.724 -1.23263 -4.02969 0
M  V30 5682 H 524.448 -0.26051 -3.25559 0
M  V30 5683 H 523.107 -2.34723 -2.81604 0
M  V30 5684 H 522.755 -1.04289 -4.9207 0
M  V30 5685 H 522.455 -2.78016 -5.17669 0
M  V30 5686 H 523.979 -2.04691 -5.75268 0
M  V30 5687 H 525.393 -3.79252 -4.29931 0
M  V30 5688 H 523.79 -4.50784 -3.96124 0
M  V30 5689 H 524.86 -4.08513 -2.61238 0
M  V30 5690 N 526.204 0.969867 -1.24223 0
M  V30 5691 C 527.114 2.09806 -1.0497 0
M  V30 5692 C 528.13 1.73998 0.00886455 0
M  V30 5693 O 529.306 2.00513 -0.188848 0
M  V30 5694 C 526.371 3.40467 -0.654452 0
M  V30 5695 C 525.432 3.90236 -1.78926 0
M  V30 5696 C 524.665 5.14662 -1.41277 0
M  V30 5697 O 524.888 5.69602 -0.301632 0
M  V30 5698 O 523.822 5.58761 -2.23763 0
M  V30 5699 H 527.648 2.28942 -1.99548 0
M  V30 5700 H 525.233 1.08197 -1.03023 0
M  V30 5701 H 527.115 4.19039 -0.445452 0
M  V30 5702 H 525.79 3.22636 0.262216 0
M  V30 5703 H 524.697 3.12735 -2.05299 0
M  V30 5704 H 526.03 4.1254 -2.68462 0
M  V30 5705 N 527.682 1.05563 1.17022 0
M  V30 5706 C 528.645 0.664098 2.19368 0
M  V30 5707 C 529.645 -0.286358 1.5823 0
M  V30 5708 O 530.835 -0.069728 1.7406 0
M  V30 5709 C 527.967 -0.0239932 3.40892 0
M  V30 5710 H 529.16 1.57 2.55521 0
M  V30 5711 H 526.713 0.849964 1.31169 0
M  V30 5712 H 527.448 -0.942988 3.10287 0
M  V30 5713 H 527.233 0.659351 3.86516 0
M  V30 5714 H 528.723 -0.283909 4.16634 0
M  V30 5715 N 529.16 -1.33526 0.837174 0
M  V30 5716 C 530.07 -2.33023 0.271568 0
M  V30 5717 C 531.086 -1.63272 -0.601514 0
M  V30 5718 O 532.262 -1.94939 -0.506038 0
M  V30 5719 C 529.327 -3.42382 -0.545448 0
M  V30 5720 C 528.388 -4.27857 0.351709 0
M  V30 5721 C 527.621 -5.31994 -0.426409 0
M  V30 5722 O 527.844 -5.45763 -1.65828 0
M  V30 5723 O 526.778 -6.01572 0.1987 0
M  V30 5724 H 530.604 -2.83256 1.09545 0
M  V30 5725 H 528.189 -1.36837 0.599655 0
M  V30 5726 H 530.071 -4.09122 -1.00979 0
M  V30 5727 H 528.746 -2.94369 -1.34641 0
M  V30 5728 H 527.653 -3.6399 0.863853 0
M  V30 5729 H 528.986 -4.79349 1.1174 0
M  V30 5730 N 530.638 -0.59345 -1.46 0
M  V30 5731 C 531.887 -0.0808084 -2.01538 0
M  V30 5732 C 532.2 1.29112 -1.46934 0
M  V30 5733 O 533.406 1.8957 -1.94359 0
M  V30 5734 C 531.862 -0.0938311 -3.59778 0
M  V30 5735 C 531.47 -1.46474 -4.23379 0
M  V30 5736 C 533.214 0.364306 -4.22934 0
M  V30 5737 C 531.121 -1.4349 -5.73729 0
M  V30 5738 H 530.051 -0.0264407 -0.753536 0
M  V30 5739 H 532.702 -0.746689 -1.67621 0
M  V30 5740 H 531.084 0.638427 -3.9082 0
M  V30 5741 H 532.258 -2.21758 -4.03931 0
M  V30 5742 H 530.573 -1.86379 -3.7236 0
M  V30 5743 H 533.17 0.405584 -5.3316 0
M  V30 5744 H 533.513 1.38409 -3.92618 0
M  V30 5745 H 534.046 -0.31423 -3.96557 0
M  V30 5746 H 530.785 -2.43184 -6.08722 0
M  V30 5747 H 530.305 -0.724431 -5.95409 0
M  V30 5748 H 531.984 -1.15243 -6.36654 0
M  V30 5749 N 532.116 1.54067 -0.331816 0
M  V30 5750 C 533.362 2.01012 0.268667 0
M  V30 5751 C 533.695 1.2195 1.51136 0
M  V30 5752 O 532.97 0.303972 1.9211 0
M  V30 5753 C 533.253 3.55158 0.59456 0
M  V30 5754 C 533.106 4.4494 -0.659409 0
M  V30 5755 C 534.425 4.16939 1.4089 0
M  V30 5756 H 531.544 0.730698 0.0961756 0
M  V30 5757 H 534.186 1.84593 -0.450031 0
M  V30 5758 H 532.336 3.6928 1.20685 0
M  V30 5759 H 534.008 4.42675 -1.29756 0
M  V30 5760 H 532.251 4.1428 -1.28665 0
M  V30 5761 H 532.922 5.50643 -0.386804 0
M  V30 5762 H 535.398 4.06443 0.891272 0
M  V30 5763 H 534.274 5.24889 1.60569 0
M  V30 5764 H 534.535 3.70798 2.40752 0
M  V30 5765 N 533.594 0.0601682 1.57485 0
M  V30 5766 C 534.524 -0.90889 2.15085 0
M  V30 5767 C 535.505 -1.31838 1.07484 0
M  V30 5768 O 536.69 -1.3915 1.35466 0
M  V30 5769 C 533.82 -2.18059 2.7031 0
M  V30 5770 C 532.774 -1.91088 3.82974 0
M  V30 5771 C 532.1 -3.24789 4.24754 0
M  V30 5772 C 533.4 -1.22535 5.07723 0
M  V30 5773 H 535.094 -0.429093 2.96309 0
M  V30 5774 H 532.64 -0.204952 1.42534 0
M  V30 5775 H 534.593 -2.86258 3.09248 0
M  V30 5776 H 533.317 -2.6826 1.8629 0
M  V30 5777 H 531.976 -1.25297 3.44523 0
M  V30 5778 H 531.624 -3.72809 3.37672 0
M  V30 5779 H 531.324 -3.07538 5.00694 0
M  V30 5780 H 532.848 -3.94205 4.66299 0
M  V30 5781 H 534.262 -1.80783 5.4405 0
M  V30 5782 H 532.659 -1.1558 5.88864 0
M  V30 5783 H 533.729 -0.202692 4.84476 0
M  V30 5784 N 535.072 -1.5615 -0.213296 0
M  V30 5785 C 536.022 -1.89485 -1.26804 0
M  V30 5786 C 537.006 -0.758713 -1.41889 0
M  V30 5787 O 538.198 -1.02127 -1.44565 0
M  V30 5788 C 535.327 -2.22219 -2.61675 0
M  V30 5789 C 534.413 -3.42245 -2.50458 0
M  V30 5790 N 534.804 -4.60645 -2.089 0
M  V30 5791 C 533.102 -3.46023 -2.81397 0
M  V30 5792 C 533.803 -5.42805 -2.09135 0
M  V30 5793 N 532.779 -4.82732 -2.49941 0
M  V30 5794 H 536.581 -2.78537 -0.937771 0
M  V30 5795 H 534.095 -1.56826 -0.421824 0
M  V30 5796 H 536.092 -2.44278 -3.37837 0
M  V30 5797 H 534.752 -1.34484 -2.95541 0
M  V30 5798 H 535.763 -4.85651 -1.79899 0
M  V30 5799 H 532.44 -2.68654 -3.1958 0
M  V30 5800 H 533.83 -6.47601 -1.79059 0
M  V30 5801 N 536.55 0.480323 -1.50102 0
M  V30 5802 C 537.961 1.06142 -1.53593 0
M  V30 5803 C 538.312 1.93335 -0.334055 0
M  V30 5804 O 537.437 2.09188 0.55403 0
M  V30 5805 C 538.032 1.9317 -2.78336 0
M  V30 5806 C 536.591 2.46405 -2.84538 0
M  V30 5807 C 535.738 1.24521 -2.4777 0
M  V30 5808 H 538.689 0.26333 -1.565 0
M  V30 5809 H 538.71 2.78123 -2.59669 0
M  V30 5810 H 538.222 1.29683 -3.65792 0
M  V30 5811 H 536.323 3.13472 -2.01411 0
M  V30 5812 H 536.436 2.82143 -3.87211 0
M  V30 5813 H 534.8 1.57706 -2.00003 0
M  V30 5814 H 535.583 0.627102 -3.37524 0
M  V30 5815 N 538.028 1.39524 0.732853 0
M  V30 5816 C 539.305 1.27373 1.48444 0
M  V30 5817 C 539.685 -0.115725 2.10783 0
M  V30 5818 O 539.033 -1.12713 1.98766 0
M  V30 5819 C 539.243 2.39966 2.53412 0
M  V30 5820 C 540.591 2.79384 3.19733 0
M  V30 5821 O 541.615 2.39431 2.63725 0
M  V30 5822 O 540.474 3.48353 4.21085 0
M  V30 5823 H 537.568 0.499272 0.659285 0
M  V30 5824 H 540.114 1.51403 0.766496 0
M  V30 5825 H 538.886 3.32845 2.05742 0
M  V30 5826 H 538.509 2.17612 3.32762 0
M  V30 5827 N 539.506 -0.963266 1.24736 0
M  V30 5828 C 540.731 -1.74699 1.11781 0
M  V30 5829 C 541.156 -1.85267 -0.325258 0
M  V30 5830 O 540.514 -1.32681 -1.23553 0
M  V30 5831 C 540.562 -3.14322 1.76731 0
M  V30 5832 O 539.666 -3.99043 1.04109 0
M  V30 5833 H 539.007 -0.53684 0.390767 0
M  V30 5834 H 541.537 -1.20801 1.65131 0
M  V30 5835 H 541.547 -3.64824 1.82668 0
M  V30 5836 H 540.222 -3.05946 2.81726 0
M  V30 5837 H 538.799 -3.5752 1.05991 0
M  V30 5838 N 540.985 -1.06182 -1.16461 0
M  V30 5839 C 541.932 -0.671613 -2.20812 0
M  V30 5840 C 542.902 0.331186 -1.62765 0
M  V30 5841 O 544.087 0.22033 -1.89524 0
M  V30 5842 C 541.227 -0.063029 -3.45042 0
M  V30 5843 C 540.34 -1.11587 -4.1734 0
M  V30 5844 C 539.475 -0.473546 -5.29085 0
M  V30 5845 C 538.514 -1.51 -5.93182 0
M  V30 5846 N 537.651 -0.891118 -6.96422 0
M  V30 5847 H 542.491 -1.56589 -2.53542 0
M  V30 5848 H 540.028 -0.782951 -1.24532 0
M  V30 5849 H 541.986 0.307344 -4.16066 0
M  V30 5850 H 540.616 0.794663 -3.12866 0
M  V30 5851 H 539.668 -1.60396 -3.44931 0
M  V30 5852 H 540.98 -1.90221 -4.61104 0
M  V30 5853 H 540.134 -0.0501432 -6.06679 0
M  V30 5854 H 538.873 0.344687 -4.8648 0
M  V30 5855 H 537.878 -1.94331 -5.14311 0
M  V30 5856 H 539.103 -2.33031 -6.37866 0
M  V30 5857 H 537.049 -0.0935753 -6.55933 0
M  V30 5858 H 536.966 -1.61486 -7.38551 0
M  V30 5859 H 538.234 -0.492822 -7.77941 0
M  V30 5860 N 542.463 1.3308 -0.844243 0
M  V30 5861 C 543.693 2.01515 -0.455541 0
M  V30 5862 C 544.101 1.63655 0.949406 0
M  V30 5863 O 543.444 0.84848 1.62931 0
M  V30 5864 C 543.506 3.55967 -0.502801 0
M  V30 5865 C 543.17 4.17222 -1.86481 0
M  V30 5866 C 544.167 4.36205 -2.8288 0
M  V30 5867 C 541.852 4.53528 -2.15911 0
M  V30 5868 C 543.846 4.90649 -4.06869 0
M  V30 5869 C 541.533 5.07679 -3.40155 0
M  V30 5870 C 542.531 5.26186 -4.35451 0
M  V30 5871 O 542.219 5.79183 -5.57496 0
M  V30 5872 H 541.951 0.65199 -0.178565 0
M  V30 5873 H 544.505 1.70867 -1.1399 0
M  V30 5874 H 542.735 3.85965 0.23836 0
M  V30 5875 H 544.424 4.05688 -0.131169 0
M  V30 5876 H 545.19 4.085 -2.61444 0
M  V30 5877 H 541.069 4.38414 -1.42528 0
M  V30 5878 H 544.613 5.0501 -4.81259 0
M  V30 5879 H 540.51 5.34815 -3.61446 0
M  V30 5880 H 541.278 5.97591 -5.5931 0
M  V30 5881 N 543.941 0.601185 1.45683 0
M  V30 5882 C 544.891 -0.142686 2.27553 0
M  V30 5883 C 545.875 -0.844598 1.3695 0
M  V30 5884 O 547.067 -0.735644 1.60988 0
M  V30 5885 C 544.196 -1.14364 3.23691 0
M  V30 5886 C 543.282 -0.442894 4.21781 0
M  V30 5887 N 543.673 0.51189 5.03203 0
M  V30 5888 C 541.971 -0.691277 4.4061 0
M  V30 5889 C 542.672 0.92318 5.74328 0
M  V30 5890 N 541.648 0.268308 5.42937 0
M  V30 5891 H 545.45 0.590736 2.87902 0
M  V30 5892 H 542.964 0.424365 1.56757 0
M  V30 5893 H 544.961 -1.6909 3.8107 0
M  V30 5894 H 543.621 -1.87768 2.64902 0
M  V30 5895 H 544.632 0.888329 5.10225 0
M  V30 5896 H 541.309 -1.41049 3.92952 0
M  V30 5897 H 542.699 1.71029 6.49768 0
M  V30 5898 N 545.419 -1.53889 0.339982 0
M  V30 5899 C 546.349 -2.27843 -0.510856 0
M  V30 5900 C 547.33 -1.29267 -1.10563 0
M  V30 5901 O 548.515 -1.58104 -1.12768 0
M  V30 5902 C 545.645 -3.04857 -1.66372 0
M  V30 5903 C 544.599 -4.10907 -1.19746 0
M  V30 5904 C 543.925 -4.75855 -2.43857 0
M  V30 5905 C 545.225 -5.21435 -0.300501 0
M  V30 5906 H 546.919 -2.99212 0.106067 0
M  V30 5907 H 544.465 -1.43904 0.0524533 0
M  V30 5908 H 546.418 -3.5533 -2.26537 0
M  V30 5909 H 545.142 -2.31133 -2.30749 0
M  V30 5910 H 543.801 -3.61342 -0.618654 0
M  V30 5911 H 543.449 -3.9873 -3.06633 0
M  V30 5912 H 543.149 -5.47502 -2.13343 0
M  V30 5913 H 544.673 -5.2911 -3.04754 0
M  V30 5914 H 546.087 -5.67565 -0.80889 0
M  V30 5915 H 544.484 -6.00036 -0.0874076 0
M  V30 5916 H 545.554 -4.80328 0.664321 0
M  V30 5917 N 546.897 -0.0685191 -1.57451 0
M  V30 5918 C 547.844 0.899861 -2.12535 0
M  V30 5919 C 548.814 1.29749 -1.03703 0
M  V30 5920 O 549.999 1.38392 -1.31348 0
M  V30 5921 C 547.139 2.16328 -2.6888 0
M  V30 5922 C 546.252 1.81857 -3.91857 0
M  V30 5923 C 545.387 3.02786 -4.36457 0
M  V30 5924 C 544.426 2.64317 -5.5209 0
M  V30 5925 N 543.563 3.77994 -5.91663 0
M  V30 5926 H 548.403 0.423243 -2.94979 0
M  V30 5927 H 545.94 0.197268 -1.45771 0
M  V30 5928 H 547.898 2.90281 -2.99655 0
M  V30 5929 H 546.528 2.61536 -1.89206 0
M  V30 5930 H 545.58 0.979808 -3.67565 0
M  V30 5931 H 546.892 1.49553 -4.75852 0
M  V30 5932 H 546.046 3.85021 -4.68875 0
M  V30 5933 H 544.785 3.38281 -3.51308 0
M  V30 5934 H 543.79 1.80503 -5.19325 0
M  V30 5935 H 545.015 2.29995 -6.38967 0
M  V30 5936 H 542.961 4.13258 -5.09464 0
M  V30 5937 H 542.878 3.49447 -6.7039 0
M  V30 5938 H 544.146 4.60818 -6.28703 0
M  V30 5939 N 548.375 1.56261 0.205012 0
M  V30 5940 C 549.322 1.93754 1.25411 0
M  V30 5941 C 550.292 0.796826 1.45739 0
M  V30 5942 O 551.477 1.05414 1.59036 0
M  V30 5943 C 548.617 2.27383 2.59598 0
M  V30 5944 C 547.73 3.5447 2.46931 0
M  V30 5945 C 546.865 3.77468 3.73753 0
M  V30 5946 C 545.904 4.98014 3.55877 0
M  V30 5947 N 545.041 5.17316 4.74688 0
M  V30 5948 H 549.881 2.83203 0.92737 0
M  V30 5949 H 547.418 1.40158 0.446574 0
M  V30 5950 H 549.376 2.44895 3.37761 0
M  V30 5951 H 548.006 1.41088 2.90335 0
M  V30 5952 H 547.058 3.45061 1.60116 0
M  V30 5953 H 548.37 4.42789 2.29651 0
M  V30 5954 H 547.524 3.95165 4.60358 0
M  V30 5955 H 546.263 2.87461 3.93976 0
M  V30 5956 H 545.268 4.80249 2.67657 0
M  V30 5957 H 546.493 5.8952 3.37109 0
M  V30 5958 H 544.439 4.30255 4.95194 0
M  V30 5959 H 544.356 5.99796 4.60197 0
M  V30 5960 H 545.624 5.39463 5.62672 0
M  V30 5961 N 549.853 -0.472356 1.50355 0
M  V30 5962 C 551.269 -0.806001 1.37753 0
M  V30 5963 C 551.469 -1.968 0.432649 0
M  V30 5964 O 550.525 -2.52189 -0.12519 0
M  V30 5965 C 551.838 -1.11926 2.79093 0
M  V30 5966 C 553.386 -1.22579 2.87999 0
M  V30 5967 C 553.861 -1.57218 4.3017 0
M  V30 5968 N 555.352 -1.64212 4.33115 0
M  V30 5969 C 556.087 -1.92517 5.40116 0
M  V30 5970 N 555.583 -2.1885 6.57325 0
M  V30 5971 N 557.376 -1.94008 5.27558 0
M  V30 5972 H 549.527 0.293451 2.10363 0
M  V30 5973 H 551.79 0.0687672 0.945503 0
M  V30 5974 H 551.496 -0.338504 3.50067 0
M  V30 5975 H 551.37 -2.05577 3.16256 0
M  V30 5976 H 553.757 -1.99722 2.17245 0
M  V30 5977 H 553.838 -0.269107 2.54381 0
M  V30 5978 H 553.482 -0.806154 5.01461 0
M  V30 5979 H 553.412 -2.54034 4.61275 0
M  V30 5980 H 555.903 -1.45906 3.48597 0
M  V30 5981 H 556.216 -2.39718 7.3468 0
M  V30 5982 H 554.561 -2.16245 6.60502 0
M  V30 5983 H 557.752 -1.72931 4.34986 0
M  V30 5984 H 557.925 -2.15731 6.11035 0
M  V30 5985 N 551.331 -1.39911 -0.725443 0
M  V30 5986 C 552.58 -1.36963 -1.48068 0
M  V30 5987 C 552.893 0.0284478 -1.95579 0
M  V30 5988 O 554.099 0.180535 -2.70899 0
M  V30 5989 C 552.555 -2.40664 -2.67598 0
M  V30 5990 C 552.163 -3.86234 -2.26997 0
M  V30 5991 C 553.907 -2.46807 -3.45379 0
M  V30 5992 C 551.814 -4.81554 -3.43307 0
M  V30 5993 H 550.744 -0.509223 -0.556065 0
M  V30 5994 H 553.395 -1.65602 -0.790454 0
M  V30 5995 H 551.777 -2.05109 -3.38742 0
M  V30 5996 H 552.951 -4.3088 -1.63337 0
M  V30 5997 H 551.266 -3.83475 -1.62284 0
M  V30 5998 H 553.863 -3.15213 -4.31909 0
M  V30 5999 H 554.206 -1.49552 -3.8851 0
M  V30 6000 H 554.739 -2.81303 -2.81271 0
M  V30 6001 H 551.478 -5.80106 -3.05217 0
M  V30 6002 H 550.998 -4.4158 -4.05915 0
M  V30 6003 H 552.677 -5.0091 -4.0951 0
M  V30 6004 N 552.809 0.956637 -1.25245 0
M  V30 6005 C 554.037 1.73571 -1.12608 0
M  V30 6006 C 554.452 1.86063 0.320324 0
M  V30 6007 O 553.809 1.35691 1.22042 0
M  V30 6008 C 553.86 3.15053 -1.77268 0
M  V30 6009 O 553.581 3.03174 -3.16255 0
M  V30 6010 C 555.082 4.09248 -1.70386 0
M  V30 6011 H 552.302 0.543955 -0.392879 0
M  V30 6012 H 554.846 1.20031 -1.65568 0
M  V30 6013 H 553.001 3.65543 -1.28284 0
M  V30 6014 H 553.415 3.9241 -3.48015 0
M  V30 6015 H 554.889 5.06138 -2.20291 0
M  V30 6016 H 555.366 4.34102 -0.667239 0
M  V30 6017 H 555.972 3.64672 -2.18849 0
M  V30 6018 N 554.287 1.06798 1.15896 0
M  V30 6019 C 555.512 0.808739 1.90982 0
M  V30 6020 C 555.937 -0.6316 1.77179 0
M  V30 6021 O 555.295 -1.4407 1.10061 0
M  V30 6022 C 555.343 1.21468 3.39526 0
M  V30 6023 O 554.447 0.356562 4.10856 0
M  V30 6024 H 553.788 0.29512 0.594811 0
M  V30 6025 H 556.318 1.42513 1.46804 0
M  V30 6026 H 556.328 1.18844 3.90308 0
M  V30 6027 H 555.003 2.26379 3.48891 0
M  V30 6028 H 553.58 0.444808 3.70238 0
M  V30 6029 N 555.766 -1.3263 0.851289 0
M  V30 6030 C 556.696 -2.31449 0.308771 0
M  V30 6031 C 557.677 -1.59531 -0.590255 0
M  V30 6032 O 558.862 -1.87351 -0.511205 0
M  V30 6033 C 555.992 -3.43586 -0.506548 0
M  V30 6034 C 554.946 -4.26963 0.297753 0
M  V30 6035 C 554.272 -5.30831 -0.642094 0
M  V30 6036 C 555.572 -4.99643 1.52166 0
M  V30 6037 H 557.266 -2.77074 1.13447 0
M  V30 6038 H 554.812 -1.33207 0.546971 0
M  V30 6039 H 556.765 -4.11754 -0.896474 0
M  V30 6040 H 555.489 -2.96681 -1.36558 0
M  V30 6041 H 554.148 -3.60437 0.669391 0
M  V30 6042 H 553.796 -4.8018 -1.49788 0
M  V30 6043 H 553.496 -5.87501 -0.107968 0
M  V30 6044 H 555.02 -6.01862 -1.02927 0
M  V30 6045 H 556.434 -5.6051 1.20421 0
M  V30 6046 H 554.831 -5.66022 1.99347 0
M  V30 6047 H 555.901 -4.27701 2.28474 0
M  V30 6048 N 557.244 -0.608902 -1.45362 0
M  V30 6049 C 558.469 -0.10921 -2.07112 0
M  V30 6050 C 558.894 1.19779 -1.45033 0
M  V30 6051 O 558.252 1.72961 -0.543527 0
M  V30 6052 C 558.3 0.0155745 -3.60597 0
M  V30 6053 O 557.404 1.06546 -3.98399 0
M  V30 6054 H 556.745 -0.0746619 -0.659789 0
M  V30 6055 H 559.275 -0.839283 -1.86594 0
M  V30 6056 H 559.285 0.213364 -4.07442 0
M  V30 6057 H 557.96 -0.938765 -4.05167 0
M  V30 6058 H 556.537 0.844024 -3.63223 0
M  V30 6059 N 558.722 1.53707 -0.348139 0
M  V30 6060 C 559.652 2.28111 0.498766 0
M  V30 6061 C 560.633 1.29851 1.09876 0
M  V30 6062 O 561.818 1.587 1.11928 0
M  V30 6063 C 558.948 3.05735 1.64753 0
M  V30 6064 C 557.902 4.11537 1.17565 0
M  V30 6065 C 557.228 4.77142 2.4133 0
M  V30 6066 C 558.528 5.21587 0.272844 0
M  V30 6067 H 560.222 2.99152 -0.121934 0
M  V30 6068 H 557.768 1.43875 -0.0600842 0
M  V30 6069 H 559.721 3.56526 2.24649 0
M  V30 6070 H 558.445 2.32354 2.2952 0
M  V30 6071 H 557.104 3.61665 0.599483 0
M  V30 6072 H 556.752 4.0035 3.04514 0
M  V30 6073 H 556.452 5.48626 2.10436 0
M  V30 6074 H 557.976 5.30719 3.01943 0
M  V30 6075 H 559.39 5.67986 0.778779 0
M  V30 6076 H 557.787 6.00074 0.0555849 0
M  V30 6077 H 558.857 4.79969 -0.689785 0
M  V30 6078 N 560.2 0.0768682 1.57412 0
M  V30 6079 C 561.611 -0.455037 1.8107 0
M  V30 6080 C 561.962 -1.69323 0.991162 0
M  V30 6081 O 561.087 -2.15328 0.215156 0
M  V30 6082 C 561.682 -0.832316 3.28417 0
M  V30 6083 C 560.241 -1.30906 3.52903 0
M  V30 6084 C 559.388 -0.296714 2.75708 0
M  V30 6085 H 562.339 0.302514 1.5579 0
M  V30 6086 H 562.36 -1.69333 3.40744 0
M  V30 6087 H 561.872 0.0690532 3.88039 0
M  V30 6088 H 559.973 -2.22875 2.98592 0
M  V30 6089 H 560.086 -1.28348 4.61588 0
M  V30 6090 H 558.45 -0.775059 2.42621 0
M  V30 6091 H 559.233 0.597015 3.38069 0
M  V30 6092 N 561.678 -1.56367 -0.196722 0
M  V30 6093 C 562.927 -1.79724 -0.915539 0
M  V30 6094 C 563.24 -0.649804 -1.84491 0
M  V30 6095 O 564.446 -0.767631 -2.60422 0
M  V30 6096 C 562.902 -3.18369 -1.67836 0
M  V30 6097 C 562.51 -4.4091 -0.793897 0
M  V30 6098 C 564.254 -3.51037 -2.38691 0
M  V30 6099 C 562.161 -5.70577 -1.55549 0
M  V30 6100 H 561.091 -0.67013 -0.345604 0
M  V30 6101 H 563.742 -1.82721 -0.168856 0
M  V30 6102 H 562.124 -3.09617 -2.46887 0
M  V30 6103 H 563.298 -4.60781 -0.042163 0
M  V30 6104 H 561.613 -4.15937 -0.19626 0
M  V30 6105 H 564.21 -4.4515 -2.96219 0
M  V30 6106 H 564.553 -2.74704 -3.12799 0
M  V30 6107 H 565.086 -3.61229 -1.66608 0
M  V30 6108 H 561.825 -6.49871 -0.857226 0
M  V30 6109 H 561.345 -5.54726 -2.2812 0
M  V30 6110 H 563.024 -6.11637 -2.10971 0
M  V30 6111 N 563.156 0.464375 -1.50603 0
M  V30 6112 C 564.402 1.21776 -1.62168 0
M  V30 6113 C 564.735 1.91476 -0.324154 0
M  V30 6114 O 564.01 1.8242 0.674782 0
M  V30 6115 C 564.293 2.25614 -2.80661 0
M  V30 6116 C 564.146 1.60175 -4.20314 0
M  V30 6117 C 565.465 3.26862 -2.94702 0
M  V30 6118 H 562.584 0.44137 -0.590222 0
M  V30 6119 H 565.226 0.510623 -1.8301 0
M  V30 6120 H 563.376 2.85923 -2.63021 0
M  V30 6121 H 565.048 1.03411 -4.4956 0
M  V30 6122 H 563.291 0.904697 -4.24261 0
M  V30 6123 H 563.962 2.35665 -4.99165 0
M  V30 6124 H 566.438 2.76582 -3.10872 0
M  V30 6125 H 565.314 3.96839 -3.79223 0
M  V30 6126 H 565.575 3.91382 -2.05603 0
M  V30 6127 N 564.634 1.40294 0.718013 0
M  V30 6128 C 565.859 1.41941 1.5122 0
M  V30 6129 C 566.284 0.0202371 1.88089 0
M  V30 6130 O 565.642 -0.971078 1.53101 0
M  V30 6131 C 565.69 2.3141 2.76554 0
M  V30 6132 O 564.794 1.75567 3.73162 0
M  V30 6133 H 564.135 0.482644 0.456016 0
M  V30 6134 H 566.665 1.84494 0.884478 0
M  V30 6135 H 566.675 2.46513 3.25108 0
M  V30 6136 H 565.35 3.33085 2.49053 0
M  V30 6137 H 563.927 1.69798 3.31999 0
M  V30 6138 N 566.112 -0.949982 1.2575 0
M  V30 6139 C 567.337 -1.73503 1.13628 0
M  V30 6140 C 567.762 -1.85601 -0.30559 0
M  V30 6141 O 567.12 -1.33984 -1.22139 0
M  V30 6142 C 567.168 -3.1243 1.80055 0
M  V30 6143 O 566.272 -3.97916 1.08336 0
M  V30 6144 H 565.613 -0.532665 0.396439 0
M  V30 6145 H 568.143 -1.19043 1.66403 0
M  V30 6146 H 568.153 -3.62866 1.86527 0
M  V30 6147 H 566.828 -3.02941 2.84956 0
M  V30 6148 H 565.405 -3.56375 1.09777 0
M  V30 6149 N 567.59 -1.07411 -1.15328 0
M  V30 6150 C 568.815 -0.818856 -1.90551 0
M  V30 6151 C 569.24 0.622194 -1.77512 0
M  V30 6152 O 568.598 1.43484 -1.10824 0
M  V30 6153 C 568.646 -1.23267 -3.38877 0
M  V30 6154 O 567.75 -0.378345 -4.10661 0
M  V30 6155 H 567.091 -0.29827 -0.593238 0
M  V30 6156 H 569.621 -1.43289 -1.46046 0
M  V30 6157 H 569.631 -1.20912 -3.89672 0
M  V30 6158 H 568.306 -2.28226 -3.47686 0
M  V30 6159 H 566.883 -0.464437 -3.69996 0
M  V30 6160 N 569.068 1.32177 -0.85831 0
M  V30 6161 C 569.978 2.32561 -0.308606 0
M  V30 6162 C 570.994 1.64209 0.575462 0
M  V30 6163 O 572.17 1.95719 0.474961 0
M  V30 6164 C 569.235 3.43207 0.490909 0
M  V30 6165 C 568.296 4.27243 -0.419733 0
M  V30 6166 C 567.529 5.32605 0.341719 0
M  V30 6167 O 567.752 5.48332 1.57125 0
M  V30 6168 O 566.686 6.0118 -0.294379 0
M  V30 6169 H 570.512 2.81477 -1.14037 0
M  V30 6170 H 568.097 1.35866 -0.621349 0
M  V30 6171 H 569.979 4.10677 0.944574 0
M  V30 6172 H 568.654 2.96474 1.29941 0
M  V30 6173 H 567.561 3.62569 -0.921652 0
M  V30 6174 H 568.894 4.7751 -1.19352 0
M  V30 6175 N 570.547 0.616602 1.45037 0
M  V30 6176 C 571.51 -0.0871112 2.29034 0
M  V30 6177 C 572.51 -0.786414 1.40258 0
M  V30 6178 O 573.7 -0.633207 1.62284 0
M  V30 6179 C 570.832 -1.13369 3.21497 0
M  V30 6180 H 572.025 0.651497 2.92738 0
M  V30 6181 H 569.578 0.376058 1.51709 0
M  V30 6182 H 570.313 -1.90277 2.62612 0
M  V30 6183 H 570.098 -0.636358 3.86902 0
M  V30 6184 H 571.588 -1.62627 3.84633 0
M  V30 6185 N 572.025 -1.5352 0.356285 0
M  V30 6186 C 572.973 -2.26945 -0.50978 0
M  V30 6187 C 573.967 -1.29569 -1.09125 0
M  V30 6188 O 575.173 -1.47231 -1.03552 0
M  V30 6189 H 571.548 -0.729368 -0.183102 0
M  V30 6190 H 573.519 -2.98111 0.131374 0
M  V30 6191 C 572.268 -3.06466 -1.64237 0
M  V30 6192 H 571.591 -3.81233 -1.20423 0
M  V30 6193 H 573.031 -3.61035 -2.22327 0
M  V30 6194 C 571.49 -2.16737 -2.57928 0
M  V30 6195 O 572.02 -1.77195 -3.60507 0
M  V30 6196 N 570.226 -1.81558 -2.26903 0
M  V30 6197 H 569.773 -2.13913 -1.43524 0
M  V30 6198 H 569.731 -1.21806 -2.89846 0
M  V30 6199 N 573.503 -0.0852151 -1.57369 0
M  V30 6200 C 574.45 0.877268 -2.13478 0
M  V30 6201 C 575.42 1.28642 -1.05073 0
M  V30 6202 O 576.605 1.36992 -1.32808 0
M  V30 6203 C 573.745 2.13464 -2.71159 0
M  V30 6204 C 572.858 1.77691 -3.93764 0
M  V30 6205 C 571.993 2.98139 -4.39643 0
M  V30 6206 C 571.032 2.58447 -5.54862 0
M  V30 6207 N 570.169 3.71698 -5.95639 0
M  V30 6208 H 575.009 0.391933 -2.95411 0
M  V30 6209 H 572.546 0.181796 -1.45972 0
M  V30 6210 H 574.504 2.87086 -3.02717 0
M  V30 6211 H 573.134 2.59514 -1.91969 0
M  V30 6212 H 572.186 0.940768 -3.68583 0
M  V30 6213 H 573.498 1.44497 -4.77412 0
M  V30 6214 H 572.652 3.80026 -4.72933 0
M  V30 6215 H 571.391 3.34536 -3.54876 0
M  V30 6216 H 570.396 1.74984 -5.21211 0
M  V30 6217 H 571.621 2.23205 -6.41371 0
M  V30 6218 H 569.567 4.07831 -5.13819 0
M  V30 6219 H 569.484 3.42317 -6.74059 0
M  V30 6220 H 570.752 4.54123 -6.33555 0
M  V30 6221 N 574.981 1.5647 0.188427 0
M  V30 6222 C 576.227 1.81281 0.909124 0
M  V30 6223 C 576.56 0.66034 1.82628 0
M  V30 6224 O 575.835 -0.338737 1.91528 0
M  V30 6225 C 576.118 3.16388 1.7196 0
M  V30 6226 C 575.971 4.42137 0.826714 0
M  V30 6227 C 577.29 3.48256 2.69083 0
M  V30 6228 H 574.409 0.659457 0.329068 0
M  V30 6229 H 577.051 1.89182 0.176156 0
M  V30 6230 H 575.201 3.09784 2.34448 0
M  V30 6231 H 576.873 4.60794 0.216025 0
M  V30 6232 H 575.116 4.33594 0.133792 0
M  V30 6233 H 575.787 5.33184 1.42893 0
M  V30 6234 H 578.263 3.55203 2.16726 0
M  V30 6235 H 577.139 4.43899 3.2287 0
M  V30 6236 H 577.4 2.72088 3.48455 0
M  V30 6237 N 576.459 -0.456382 1.50847 0
M  V30 6238 C 577.389 -1.56025 1.73719 0
M  V30 6239 C 578.37 -1.5967 0.586473 0
M  V30 6240 O 579.555 -1.75702 0.827185 0
M  V30 6241 C 576.685 -2.94251 1.84483 0
M  V30 6242 C 575.639 -3.05471 2.99786 0
M  V30 6243 C 574.965 -4.45489 2.95709 0
M  V30 6244 C 576.265 -2.81318 4.40065 0
M  V30 6245 H 577.959 -1.37138 2.66146 0
M  V30 6246 H 575.505 -0.658299 1.28072 0
M  V30 6247 H 577.458 -3.71417 1.99067 0
M  V30 6248 H 576.182 -3.14328 0.886891 0
M  V30 6249 H 574.841 -2.30741 2.84876 0
M  V30 6250 H 574.489 -4.62505 1.97732 0
M  V30 6251 H 574.189 -4.53929 3.73125 0
M  V30 6252 H 575.713 -5.24655 3.12362 0
M  V30 6253 H 577.127 -3.48226 4.55425 0
M  V30 6254 H 575.524 -3.01188 5.19043 0
M  V30 6255 H 576.594 -1.7706 4.51418 0
M  V30 6256 N 577.937 -1.40673 -0.710563 0
M  V30 6257 C 579.165 -1.42547 -1.4996 0
M  V30 6258 C 579.58 -0.0265485 -1.88781 0
M  V30 6259 O 578.937 0.950694 -1.55782 0
M  V30 6260 C 578.988 -2.32071 -2.77173 0
M  V30 6261 O 578.709 -3.66518 -2.39992 0
M  V30 6262 C 580.21 -2.42591 -3.71032 0
M  V30 6263 H 577.43 -0.486025 -0.462623 0
M  V30 6264 H 579.974 -1.84783 -0.876102 0
M  V30 6265 H 578.129 -1.93184 -3.35795 0
M  V30 6266 H 578.543 -4.14115 -3.21884 0
M  V30 6267 H 580.017 -3.09429 -4.57119 0
M  V30 6268 H 580.494 -1.4525 -4.14486 0
M  V30 6269 H 581.1 -2.82051 -3.18319 0
M  V30 6270 N 579.415 0.9433 -1.26252 0
M  V30 6271 C 580.831 1.21644 -1.03319 0
M  V30 6272 C 581.031 2.0003 0.242983 0
M  V30 6273 O 580.087 2.33838 0.952688 0
M  V30 6274 C 581.4 1.97978 -2.2633 0
M  V30 6275 C 582.948 2.10978 -2.31209 0
M  V30 6276 C 583.423 2.90713 -3.53907 0
M  V30 6277 N 584.914 2.98287 -3.54371 0
M  V30 6278 C 585.649 3.60406 -4.45976 0
M  V30 6279 N 585.145 4.24043 -5.47868 0
M  V30 6280 N 586.938 3.57658 -4.33633 0
M  V30 6281 H 579.089 0.419221 -2.08222 0
M  V30 6282 H 581.352 0.247995 -0.914988 0
M  V30 6283 H 581.058 1.47788 -3.19142 0
M  V30 6284 H 580.932 2.9865 -2.30408 0
M  V30 6285 H 583.319 2.6036 -1.38913 0
M  V30 6286 H 583.4 1.09575 -2.31143 0
M  V30 6287 H 583.044 2.42018 -4.46531 0
M  V30 6288 H 582.974 3.92367 -3.5122 0
M  V30 6289 H 585.465 2.53044 -2.80673 0
M  V30 6290 H 585.778 4.69334 -6.13959 0
M  V30 6291 H 584.123 4.22637 -5.51728 0
M  V30 6292 H 587.314 3.07134 -3.53251 0
M  V30 6293 H 587.487 4.05782 -5.05218 0
M  V30 6294 N 580.893 1.08022 1.14757 0
M  V30 6295 C 581.856 0.71048 2.1791 0
M  V30 6296 C 582.856 -0.252731 1.58801 0
M  V30 6297 O 584.046 -0.0327915 1.74169 0
M  V30 6298 C 581.178 0.0483203 3.40866 0
M  V30 6299 H 582.371 1.62384 2.52134 0
M  V30 6300 H 579.924 0.877595 1.29337 0
M  V30 6301 H 580.659 -0.876959 3.12218 0
M  V30 6302 H 580.444 0.741189 3.85031 0
M  V30 6303 H 581.934 -0.195471 4.17142 0
M  V30 6304 N 582.371 -1.3172 0.865308 0
M  V30 6305 C 583.782 -1.79104 0.527126 0
M  V30 6306 C 584.133 -1.7135 -0.955695 0
M  V30 6307 O 583.258 -1.27845 -1.74598 0
M  V30 6308 C 583.853 -3.25207 0.950061 0
M  V30 6309 C 582.412 -3.70504 0.663611 0
M  V30 6310 C 581.559 -2.52605 1.14395 0
M  V30 6311 H 584.51 -1.18868 1.05148 0
M  V30 6312 H 584.531 -3.79535 0.270805 0
M  V30 6313 H 584.043 -3.30818 2.02931 0
M  V30 6314 H 582.144 -3.70398 -0.404474 0
M  V30 6315 H 582.257 -4.62845 1.23737 0
M  V30 6316 H 580.621 -2.4838 0.563859 0
M  V30 6317 H 581.404 -2.60964 2.23053 0
M  V30 6318 N 583.85 -0.624285 -1.44708 0
M  V30 6319 C 585.099 -0.123539 -2.01321 0
M  V30 6320 C 585.412 1.25966 -1.49639 0
M  V30 6321 O 586.618 1.85405 -1.98336 0
M  V30 6322 C 585.074 -0.170124 -3.59498 0
M  V30 6323 C 584.682 -1.55421 -4.20176 0
M  V30 6324 C 586.426 0.274513 -4.23611 0
M  V30 6325 C 584.332 -1.55628 -5.70556 0
M  V30 6326 H 583.263 -0.0424183 -0.752806 0
M  V30 6327 H 585.913 -0.782076 -1.65999 0
M  V30 6328 H 584.296 0.555385 -3.92086 0
M  V30 6329 H 585.47 -2.30276 -3.99136 0
M  V30 6330 H 583.784 -1.94235 -3.68323 0
M  V30 6331 H 586.382 0.292402 -5.339 0
M  V30 6332 H 586.725 1.3005 -3.95465 0
M  V30 6333 H 587.258 -0.398275 -3.95801 0
M  V30 6334 H 583.997 -2.56041 -6.03426 0
M  V30 6335 H 583.517 -0.850563 -5.93739 0
M  V30 6336 H 585.196 -1.28721 -6.34066 0
M  V30 6337 N 585.328 1.53329 -0.364422 0
M  V30 6338 C 586.258 2.28627 0.474543 0
M  V30 6339 C 587.239 1.31009 1.08492 0
M  V30 6340 O 588.424 1.59878 1.10239 0
M  V30 6341 C 585.554 3.07465 1.61501 0
M  V30 6342 C 584.508 4.1276 1.13194 0
M  V30 6343 C 583.834 4.79674 2.36255 0
M  V30 6344 C 585.134 5.21847 0.217507 0
M  V30 6345 H 586.828 2.99005 -0.153656 0
M  V30 6346 H 584.374 1.43803 -0.0753406 0
M  V30 6347 H 586.327 3.58889 2.20855 0
M  V30 6348 H 585.051 2.34775 2.27042 0
M  V30 6349 H 583.71 3.62281 0.56109 0
M  V30 6350 H 583.358 4.03557 3.00251 0
M  V30 6351 H 583.058 5.50827 2.04606 0
M  V30 6352 H 584.582 5.33892 2.96297 0
M  V30 6353 H 585.996 5.6878 0.718493 0
M  V30 6354 H 584.393 6.00099 -0.00806408 0
M  V30 6355 H 585.463 4.7921 -0.740653 0
M  V30 6356 N 586.806 0.0935595 1.57322 0
M  V30 6357 C 587.738 -0.895923 2.10964 0
M  V30 6358 C 588.751 -1.24705 1.04654 0
M  V30 6359 O 589.94 -1.20044 1.32105 0
M  V30 6360 C 587.04 -2.20546 2.57318 0
M  V30 6361 C 586.213 -2.0299 3.87445 0
M  V30 6362 C 585.272 -3.17443 4.19662 0
M  V30 6363 O 584.298 -2.91474 4.88909 0
M  V30 6364 N 585.5 -4.43168 3.74943 0
M  V30 6365 H 588.265 -0.437788 2.96485 0
M  V30 6366 H 585.826 -0.0915863 1.61641 0
M  V30 6367 H 587.818 -2.9606 2.75917 0
M  V30 6368 H 586.388 -2.57789 1.76816 0
M  V30 6369 H 585.608 -1.11815 3.78009 0
M  V30 6370 H 586.896 -1.88535 4.7258 0
M  V30 6371 H 586.294 -4.67149 3.19043 0
M  V30 6372 H 584.851 -5.15637 3.987 0
M  V30 6373 N 588.284 -1.56567 -0.180126 0
M  V30 6374 C 589.509 -1.85975 -0.918041 0
M  V30 6375 C 589.934 -0.678888 -1.75422 0
M  V30 6376 O 589.292 0.372168 -1.77439 0
M  V30 6377 C 589.34 -3.13731 -1.77779 0
M  V30 6378 O 588.444 -2.95335 -2.87838 0
M  V30 6379 H 587.785 -0.61196 -0.257683 0
M  V30 6380 H 590.315 -2.03798 -0.180923 0
M  V30 6381 H 590.325 -3.4491 -2.17948 0
M  V30 6382 H 589 -3.99293 -1.16352 0
M  V30 6383 H 587.577 -2.7549 -2.51316 0
M  V30 6384 N 589.762 0.448376 -1.51087 0
M  V30 6385 C 590.99 1.22143 -1.66999 0
M  V30 6386 C 591.405 1.85283 -0.362699 0
M  V30 6387 O 590.762 1.70236 0.65772 0
M  V30 6388 C 590.813 2.31357 -2.7777 0
M  V30 6389 O 590.534 1.70801 -4.03434 0
M  V30 6390 C 592.035 3.21836 -3.04855 0
M  V30 6391 H 589.255 0.368558 -0.560719 0
M  V30 6392 H 591.799 0.532618 -1.97442 0
M  V30 6393 H 589.954 2.95973 -2.49958 0
M  V30 6394 H 590.368 2.42895 -4.64868 0
M  V30 6395 H 591.842 3.94627 -3.85971 0
M  V30 6396 H 592.319 3.81949 -2.16821 0
M  V30 6397 H 592.925 2.62933 -3.34285 0
M  V30 6398 N 591.24 1.41047 0.703093 0
M  V30 6399 C 592.651 1.35657 1.28274 0
M  V30 6400 C 593.002 0.0360309 1.96167 0
M  V30 6401 O 592.127 -0.865833 1.98324 0
M  V30 6402 C 592.722 2.45707 2.33267 0
M  V30 6403 C 591.281 2.43738 2.86825 0
M  V30 6404 C 590.428 2.25941 1.60767 0
M  V30 6405 H 593.379 1.50672 0.49836 0
M  V30 6406 H 593.4 2.14333 3.14391 0
M  V30 6407 H 592.912 3.41805 1.83824 0
M  V30 6408 H 591.013 1.51375 3.40465 0
M  V30 6409 H 591.126 3.39779 3.37768 0
M  V30 6410 H 589.49 1.73681 1.86298 0
M  V30 6411 H 590.273 3.24054 1.1333 0
M  V30 6412 N 592.718 -0.936591 1.26751 0
M  V30 6413 C 593.964 -1.6858 1.12733 0
M  V30 6414 C 594.297 -1.91414 -0.327745 0
M  V30 6415 O 593.572 -1.49812 -1.24043 0
M  V30 6416 C 593.855 -3.05779 1.90187 0
M  V30 6417 C 593.708 -2.90242 3.43627 0
M  V30 6418 C 595.027 -4.0597 1.69931 0
M  V30 6419 H 592.146 -0.61182 0.410908 0
M  V30 6420 H 594.788 -1.08747 1.55801 0
M  V30 6421 H 592.938 -3.56853 1.53584 0
M  V30 6422 H 594.61 -2.46354 3.9001 0
M  V30 6423 H 592.853 -2.2577 3.70419 0
M  V30 6424 H 593.524 -3.87572 3.93055 0
M  V30 6425 H 596 -3.63874 2.0183 0
M  V30 6426 H 594.876 -4.99974 2.26534 0
M  V30 6427 H 595.137 -4.37369 0.64502 0
M  V30 6428 N 594.196 -1.08629 -1.14182 0
M  V30 6429 C 595.424 -0.838889 -1.8913 0
M  V30 6430 C 595.839 0.609153 -1.78703 0
M  V30 6431 O 595.196 1.41876 -1.14794 0
M  V30 6432 C 595.247 -1.25477 -3.39025 0
M  V30 6433 O 594.968 -2.64601 -3.49167 0
M  V30 6434 C 596.469 -1.03856 -4.30963 0
M  V30 6435 H 593.689 -0.302377 -0.599007 0
M  V30 6436 H 596.233 -1.44615 -1.44592 0
M  V30 6437 H 594.388 -0.691571 -3.81177 0
M  V30 6438 H 594.802 -2.81922 -4.42289 0
M  V30 6439 H 596.276 -1.37892 -5.345 0
M  V30 6440 H 596.753 0.0242522 -4.39193 0
M  V30 6441 H 597.359 -1.58731 -3.94569 0
M  V30 6442 N 595.674 1.31259 -0.872281 0
M  V30 6443 C 597.085 1.78822 -0.536617 0
M  V30 6444 C 597.436 1.71855 0.946594 0
M  V30 6445 O 596.561 1.28769 1.73918 0
M  V30 6446 C 597.156 3.24698 -0.967294 0
M  V30 6447 C 595.715 3.70147 -0.683251 0
M  V30 6448 C 594.862 2.51994 -1.15733 0
M  V30 6449 H 597.813 1.18308 -1.05777 0
M  V30 6450 H 597.834 3.79386 -0.290929 0
M  V30 6451 H 597.346 3.29737 -2.04683 0
M  V30 6452 H 595.447 3.70607 0.384825 0
M  V30 6453 H 595.56 4.62183 -1.2619 0
M  V30 6454 H 593.924 2.48078 -0.577024 0
M  V30 6455 H 594.707 2.59778 -2.24434 0
M  V30 6456 N 597.152 0.631951 1.44375 0
M  V30 6457 C 598.563 0.219036 1.85411 0
M  V30 6458 C 598.914 -1.22974 1.52879 0
M  V30 6459 O 598.039 -1.93579 0.967266 0
M  V30 6460 C 598.634 0.39075 3.36539 0
M  V30 6461 C 597.193 0.0323351 3.76386 0
M  V30 6462 C 596.34 0.703744 2.68221 0
M  V30 6463 H 599.291 0.837056 1.3483 0
M  V30 6464 H 599.312 -0.370056 3.78696 0
M  V30 6465 H 598.824 1.44527 3.60185 0
M  V30 6466 H 596.925 -1.02042 3.58355 0
M  V30 6467 H 597.038 0.442969 4.77048 0
M  V30 6468 H 595.402 0.138974 2.54321 0
M  V30 6469 H 596.185 1.76088 2.947 0
M  V30 6470 N 598.631 -1.53133 0.372548 0
M  V30 6471 C 600.042 -1.86404 -0.105155 0
M  V30 6472 C 600.393 -1.29289 -1.47576 0
M  V30 6473 O 599.518 -0.617646 -2.07398 0
M  V30 6474 C 600.113 -3.38223 -0.197588 0
M  V30 6475 C 598.672 -3.71266 -0.619556 0
M  V30 6476 C 597.819 -2.76353 0.228919 0
M  V30 6477 H 600.77 -1.47282 0.591077 0
M  V30 6478 H 600.791 -3.66577 -1.01987 0
M  V30 6479 H 600.303 -3.79763 0.800099 0
M  V30 6480 H 598.404 -3.35287 -1.62522 0
M  V30 6481 H 598.517 -4.77515 -0.389332 0
M  V30 6482 H 596.881 -2.52888 -0.303271 0
M  V30 6483 H 597.664 -3.20728 1.22428 0
M  V30 6484 N 600.109 -0.101901 -1.5727 0
M  V30 6485 C 601.039 0.851544 -2.17419 0
M  V30 6486 C 602.02 1.28942 -1.10941 0
M  V30 6487 O 603.205 1.35509 -1.39107 0
M  V30 6488 C 600.335 2.10816 -2.75996 0
M  V30 6489 C 599.289 1.80867 -3.87906 0
M  V30 6490 C 598.615 3.13413 -4.33216 0
M  V30 6491 C 599.915 1.0903 -5.10793 0
M  V30 6492 H 601.609 0.350381 -2.97343 0
M  V30 6493 H 599.155 0.16709 -1.43027 0
M  V30 6494 H 601.108 2.77959 -3.16729 0
M  V30 6495 H 599.832 2.63227 -1.93337 0
M  V30 6496 H 598.491 1.16119 -3.47724 0
M  V30 6497 H 598.139 3.63725 -3.47438 0
M  V30 6498 H 597.839 2.94155 -5.08671 0
M  V30 6499 H 599.363 3.81704 -4.76586 0
M  V30 6500 H 600.777 1.66295 -5.48652 0
M  V30 6501 H 599.174 0.99927 -5.91722 0
M  V30 6502 H 600.244 0.0741704 -4.84843 0
M  V30 6503 N 601.587 1.56661 0.17182 0
M  V30 6504 C 602.812 1.86459 0.908165 0
M  V30 6505 C 603.237 0.688181 1.75059 0
M  V30 6506 O 602.595 -0.362753 1.77634 0
M  V30 6507 C 602.643 3.14669 1.76112 0
M  V30 6508 O 601.747 2.96858 2.86268 0
M  V30 6509 H 601.088 0.613318 0.254434 0
M  V30 6510 H 603.618 2.03892 0.170113 0
M  V30 6511 H 603.628 3.46061 2.16115 0
M  V30 6512 H 602.303 3.99905 1.14233 0
M  V30 6513 H 600.88 2.76819 2.49852 0
M  V30 6514 N 603.065 -0.440357 1.51323 0
M  V30 6515 C 604.476 -1.02032 1.56353 0
M  V30 6516 C 604.827 -1.92382 0.385197 0
M  V30 6517 O 603.952 -2.10583 -0.498373 0
M  V30 6518 C 604.547 -1.85723 2.83359 0
M  V30 6519 C 603.106 -2.38774 2.90971 0
M  V30 6520 C 602.253 -1.17908 2.50984 0
M  V30 6521 H 605.204 -0.221744 1.57143 0
M  V30 6522 H 605.225 -2.71141 2.66951 0
M  V30 6523 H 604.737 -1.19939 3.69102 0
M  V30 6524 H 602.838 -3.08021 2.09651 0
M  V30 6525 H 602.951 -2.71778 3.94555 0
M  V30 6526 H 601.315 -1.52347 2.04114 0
M  V30 6527 H 602.098 -0.537393 3.39068 0
M  V30 6528 N 604.543 -1.41418 -0.695603 0
M  V30 6529 C 605.506 -1.42988 -1.79129 0
M  V30 6530 C 606.506 -0.320514 -1.57573 0
M  V30 6531 O 607.696 -0.58039 -1.64247 0
M  V30 6532 C 604.828 -1.24122 -3.175 0
M  V30 6533 H 606.021 -2.40526 -1.7913 0
M  V30 6534 H 603.574 -1.2756 -0.903225 0
M  V30 6535 H 604.309 -0.274253 -3.23138 0
M  V30 6536 H 604.094 -2.045 -3.34547 0
M  V30 6537 H 605.584 -1.28056 -3.97481 0
M  V30 6538 N 606.021 0.929856 -1.27246 0
M  V30 6539 C 607.268 1.67731 -1.13457 0
M  V30 6540 C 607.596 1.9185 0.319998 0
M  V30 6541 O 606.851 1.50524 1.25064 0
M  V30 6542 C 607.15 3.05116 -1.86115 0
M  V30 6543 C 606.816 3.00715 -3.35978 0
M  V30 6544 C 605.478 2.99222 -3.76855 0
M  V30 6545 C 607.83 2.92168 -4.3161 0
M  V30 6546 C 605.158 2.86962 -5.11732 0
M  V30 6547 C 607.51 2.81449 -5.66542 0
M  V30 6548 C 606.174 2.78305 -6.06715 0
M  V30 6549 H 605.444 0.613772 -0.415168 0
M  V30 6550 H 608.091 1.08456 -1.57827 0
M  V30 6551 H 606.396 3.68083 -1.34246 0
M  V30 6552 H 608.093 3.61822 -1.72876 0
M  V30 6553 H 604.683 3.02664 -3.03468 0
M  V30 6554 H 608.867 2.92421 -4.01003 0
M  V30 6555 H 604.123 2.82913 -5.42006 0
M  V30 6556 H 608.297 2.738 -6.40317 0
M  V30 6557 H 605.924 2.68561 -7.11181 0
M  V30 6558 N 607.499 1.09233 1.13605 0
M  V30 6559 C 608.747 0.825525 1.84471 0
M  V30 6560 C 609.068 -0.650702 1.83823 0
M  V30 6561 O 608.338 -1.47204 1.29259 0
M  V30 6562 H 606.918 0.3024 0.683054 0
M  V30 6563 H 609.58 1.38006 1.37624 0
M  V30 6564 H 608.676 1.17727 2.89045 0
M  V30 6565 N 608.977 -1.30795 0.87923 0
M  V30 6566 C 610.225 -1.95974 0.493809 0
M  V30 6567 C 610.546 -1.69787 -0.959021 0
M  V30 6568 O 609.816 -1.01832 -1.67353 0
M  V30 6569 H 608.396 -0.725083 0.179622 0
M  V30 6570 H 611.058 -1.59432 1.12105 0
M  V30 6571 H 610.154 -3.05058 0.659263 0
M  V30 6572 N 610.455 -0.639598 -1.44038 0
M  V30 6573 C 611.683 -0.154811 -2.0632 0
M  V30 6574 C 612.098 1.17406 -1.47856 0
M  V30 6575 O 611.455 1.72193 -0.604638 0
M  V30 6576 C 611.506 -0.0429958 -3.61474 0
M  V30 6577 O 611.227 -1.31932 -4.17763 0
M  V30 6578 C 612.728 0.469486 -4.40807 0
M  V30 6579 H 609.948 -0.0835862 -0.665773 0
M  V30 6580 H 612.492 -0.876397 -1.84769 0
M  V30 6581 H 610.647 0.629075 -3.82258 0
M  V30 6582 H 611.061 -1.16965 -5.11292 0
M  V30 6583 H 612.535 0.496712 -5.49761 0
M  V30 6584 H 613.012 1.49819 -4.12857 0
M  V30 6585 H 613.618 -0.169624 -4.24962 0
M  V30 6586 N 611.933 1.52934 -0.380664 0
M  V30 6587 C 613.158 2.06363 0.207157 0
M  V30 6588 C 613.583 1.25122 1.4045 0
M  V30 6589 O 612.941 0.274062 1.79217 0
M  V30 6590 C 612.989 3.56162 0.563996 0
M  V30 6591 O 612.093 3.77552 1.65917 0
M  V30 6592 H 611.434 0.663468 0.0265859 0
M  V30 6593 H 613.964 1.9719 -0.545635 0
M  V30 6594 H 613.974 3.99453 0.830752 0
M  V30 6595 H 612.649 4.14732 -0.311427 0
M  V30 6596 H 611.226 3.46154 1.3868 0
M  V30 6597 N 613.412 0.11024 1.57214 0
M  V30 6598 C 614.359 -0.843195 2.14846 0
M  V30 6599 C 615.329 -1.26954 1.07107 0
M  V30 6600 O 616.514 -1.34861 1.34971 0
M  V30 6601 C 613.654 -2.09123 2.74521 0
M  V30 6602 C 612.767 -1.71404 3.96541 0
M  V30 6603 C 611.902 -2.91107 4.44331 0
M  V30 6604 C 610.941 -2.49586 5.58903 0
M  V30 6605 N 610.078 -3.62175 6.01477 0
M  V30 6606 H 614.918 -0.344886 2.95998 0
M  V30 6607 H 612.455 -0.15855 1.46243 0
M  V30 6608 H 614.413 -2.82234 3.07246 0
M  V30 6609 H 613.043 -2.56427 1.96074 0
M  V30 6610 H 612.095 -0.88201 3.70033 0
M  V30 6611 H 613.407 -1.36884 4.7965 0
M  V30 6612 H 612.561 -3.72454 4.78919 0
M  V30 6613 H 611.3 -3.28848 3.60153 0
M  V30 6614 H 610.305 -1.6667 5.23929 0
M  V30 6615 H 611.53 -2.12973 6.4484 0
M  V30 6616 H 609.476 -3.99605 5.20242 0
M  V30 6617 H 609.393 -3.3155 6.79419 0
M  V30 6618 H 610.661 -4.43987 6.407 0
M  V30 6619 N 614.89 -1.56749 -0.16351 0
M  V30 6620 C 616.139 -1.81626 -0.877211 0
M  V30 6621 C 616.452 -0.688791 -1.83071 0
M  V30 6622 O 617.658 -0.822697 -2.58735 0
M  V30 6623 C 616.114 -3.21858 -1.61045 0
M  V30 6624 C 615.722 -4.42494 -0.700195 0
M  V30 6625 C 617.466 -3.56021 -2.31192 0
M  V30 6626 C 615.373 -5.73748 -1.43412 0
M  V30 6627 H 614.303 -0.67731 -0.331312 0
M  V30 6628 H 616.954 -1.83039 -0.13006 0
M  V30 6629 H 615.336 -3.14784 -2.40264 0
M  V30 6630 H 616.51 -4.60766 0.0555849 0
M  V30 6631 H 614.825 -4.1626 -0.10799 0
M  V30 6632 H 617.422 -4.51333 -2.8671 0
M  V30 6633 H 617.765 -2.81277 -3.06902 0
M  V30 6634 H 618.298 -3.64682 -1.58909 0
M  V30 6635 H 615.037 -6.51543 -0.719186 0
M  V30 6636 H 614.557 -5.5944 -2.16302 0
M  V30 6637 H 616.236 -6.15975 -1.9795 0
M  V30 6638 N 616.368 0.432326 -1.51554 0
M  V30 6639 C 617.645 1.19288 -1.55015 0
M  V30 6640 C 618.025 2.08701 -0.317375 0
M  V30 6641 O 617.373 2.17602 0.697243 0
M  V30 6642 C 617.583 1.99037 -2.86679 0
M  V30 6643 C 618.931 2.55907 -3.38817 0
M  V30 6644 O 619.955 2.09243 -2.88263 0
M  V30 6645 O 618.814 3.41029 -4.27038 0
M  V30 6646 H 615.908 0.543369 -0.623441 0
M  V30 6647 H 618.454 0.440988 -1.6387 0
M  V30 6648 H 617.226 1.33397 -3.6786 0
M  V30 6649 H 616.849 2.81281 -2.8101 0
M  V30 6650 N 617.846 1.41785 0.688094 0
M  V30 6651 C 618.778 1.40159 1.81351 0
M  V30 6652 C 619.791 0.30262 1.59963 0
M  V30 6653 O 620.98 0.564841 1.69327 0
M  V30 6654 C 618.08 1.16517 3.1824 0
M  V30 6655 C 617.253 2.38597 3.66593 0
M  V30 6656 C 616.312 2.10699 4.82174 0
M  V30 6657 O 615.338 2.83798 4.93404 0
M  V30 6658 N 616.54 1.10187 5.69947 0
M  V30 6659 H 619.305 2.3716 1.83236 0
M  V30 6660 H 616.866 1.36494 0.870697 0
M  V30 6661 H 618.858 0.957941 3.93199 0
M  V30 6662 H 617.428 0.280873 3.11336 0
M  V30 6663 H 616.648 2.74974 2.82459 0
M  V30 6664 H 617.936 3.19919 3.95638 0
M  V30 6665 H 617.334 0.497016 5.63512 0
M  V30 6666 H 615.891 0.954518 6.44773 0
M  V30 6667 N 619.324 -0.923095 1.27737 0
M  V30 6668 C 620.554 -1.70277 1.17001 0
M  V30 6669 C 620.962 -1.87188 -0.275199 0
M  V30 6670 O 620.305 -1.39195 -1.19877 0
M  V30 6671 C 620.367 -3.11976 1.78637 0
M  V30 6672 C 620.031 -3.18386 3.27841 0
M  V30 6673 C 621.028 -3.00287 4.2441 0
M  V30 6674 C 618.713 -3.41198 3.68632 0
M  V30 6675 C 620.707 -3.04896 5.59747 0
M  V30 6676 C 618.394 -3.4544 5.04097 0
M  V30 6677 C 619.392 -3.27309 5.99465 0
M  V30 6678 O 619.08 -3.31295 7.32461 0
M  V30 6679 H 618.812 -0.539366 0.407505 0
M  V30 6680 H 621.366 -1.16446 1.69202 0
M  V30 6681 H 619.596 -3.67308 1.20919 0
M  V30 6682 H 621.285 -3.7193 1.6255 0
M  V30 6683 H 622.051 -2.825 3.94232 0
M  V30 6684 H 617.93 -3.54359 2.94873 0
M  V30 6685 H 621.474 -2.90662 6.34162 0
M  V30 6686 H 617.371 -3.62753 5.33929 0
M  V30 6687 H 618.139 -3.47719 7.40968 0
M  V30 6688 N 620.802 -1.09834 -1.13024 0
M  V30 6689 C 622.027 -0.85909 -1.88771 0
M  V30 6690 C 622.452 0.584402 -1.78791 0
M  V30 6691 O 621.81 1.41101 -1.13842 0
M  V30 6692 C 621.858 -1.30427 -3.36186 0
M  V30 6693 O 620.962 -0.465368 -4.09766 0
M  V30 6694 H 620.303 -0.310786 -0.586778 0
M  V30 6695 H 622.833 -1.46355 -1.42973 0
M  V30 6696 H 622.843 -1.2915 -3.8702 0
M  V30 6697 H 621.518 -2.3555 -3.42767 0
M  V30 6698 H 620.095 -0.542814 -3.68928 0
M  V30 6699 N 622.28 1.30327 -0.886154 0
M  V30 6700 C 623.696 1.48676 -0.580323 0
M  V30 6701 C 623.896 1.81189 0.881639 0
M  V30 6702 O 622.952 1.90021 1.66278 0
M  V30 6703 C 624.265 2.60932 -1.49449 0
M  V30 6704 C 625.813 2.74812 -1.49824 0
M  V30 6705 C 626.288 3.90183 -2.39836 0
M  V30 6706 N 627.779 3.97495 -2.37806 0
M  V30 6707 C 628.514 4.86078 -3.04165 0
M  V30 6708 N 628.01 5.79448 -3.79753 0
M  V30 6709 N 629.803 4.79456 -2.93391 0
M  V30 6710 H 621.954 1.07495 -1.8319 0
M  V30 6711 H 624.217 0.532661 -0.784204 0
M  V30 6712 H 623.923 2.43731 -2.5355 0
M  V30 6713 H 623.797 3.57437 -1.20494 0
M  V30 6714 H 626.184 2.91418 -0.464731 0
M  V30 6715 H 626.265 1.78924 -1.82811 0
M  V30 6716 H 625.909 3.74334 -3.43273 0
M  V30 6717 H 625.839 4.85411 -2.04166 0
M  V30 6718 H 628.33 3.30703 -1.82877 0
M  V30 6719 H 628.643 6.43805 -4.27475 0
M  V30 6720 H 626.988 5.79376 -3.8386 0
M  V30 6721 H 630.179 4.05494 -2.33864 0
M  V30 6722 H 630.352 5.48283 -3.45383 0
M  V30 6723 N 623.758 0.647228 1.43697 0
M  V30 6724 C 625.007 0.155552 2.01099 0
M  V30 6725 C 625.32 -1.23569 1.51624 0
M  V30 6726 O 626.526 -1.82226 2.01261 0
M  V30 6727 C 624.982 0.227296 3.59182 0
M  V30 6728 C 624.59 1.62086 4.17651 0
M  V30 6729 C 626.334 -0.207085 4.23995 0
M  V30 6730 C 624.241 1.64685 5.68008 0
M  V30 6731 H 623.171 0.0543895 0.752036 0
M  V30 6732 H 625.822 0.808386 1.64734 0
M  V30 6733 H 624.204 -0.492937 3.9292 0
M  V30 6734 H 625.378 2.36597 3.95422 0
M  V30 6735 H 623.693 2.0007 3.65186 0
M  V30 6736 H 626.29 -0.207426 5.34298 0
M  V30 6737 H 626.633 -1.23742 3.97484 0
M  V30 6738 H 627.166 0.461193 3.95118 0
M  V30 6739 H 623.905 2.65608 5.99277 0
M  V30 6740 H 623.425 0.944914 5.9231 0
M  V30 6741 H 625.104 1.38792 6.31938 0
M  V30 6742 N 625.236 -1.5273 0.388769 0
M  V30 6743 C 626.166 -2.29353 -0.438111 0
M  V30 6744 C 627.147 -1.32719 -1.06394 0
M  V30 6745 O 628.332 -1.61612 -1.07681 0
M  V30 6746 C 625.462 -3.09995 -1.56589 0
M  V30 6747 C 624.416 -4.14509 -1.06613 0
M  V30 6748 C 623.742 -4.83372 -2.28594 0
M  V30 6749 C 625.042 -5.22127 -0.134459 0
M  V30 6750 H 626.736 -2.98723 0.201206 0
M  V30 6751 H 624.282 -1.43665 0.0982089 0
M  V30 6752 H 626.235 -3.62357 -2.15118 0
M  V30 6753 H 624.959 -2.38357 -2.23279 0
M  V30 6754 H 623.618 -3.63128 -0.503383 0
M  V30 6755 H 623.266 -4.08283 -2.93792 0
M  V30 6756 H 622.966 -5.54012 -1.95817 0
M  V30 6757 H 624.49 -5.38538 -2.87766 0
M  V30 6758 H 625.904 -5.69851 -0.627914 0
M  V30 6759 H 624.301 -6.00011 0.103534 0
M  V30 6760 H 625.371 -4.77971 0.816798 0
M  V30 6761 N 626.714 -0.118576 -1.57153 0
M  V30 6762 C 627.961 0.539526 -1.9518 0
M  V30 6763 C 628.289 1.66714 -1.00184 0
M  V30 6764 O 627.544 1.95683 -0.0256482 0
M  V30 6765 C 627.843 1.11303 -3.39627 0
M  V30 6766 C 627.509 0.106809 -4.50773 0
M  V30 6767 C 626.171 -0.169876 -4.809 0
M  V30 6768 C 628.523 -0.57895 -5.17975 0
M  V30 6769 C 625.851 -1.13861 -5.75545 0
M  V30 6770 C 628.203 -1.53631 -6.13661 0
M  V30 6771 C 626.867 -1.82099 -6.42181 0
M  V30 6772 H 626.137 0.197427 -0.714215 0
M  V30 6773 H 628.784 -0.199391 -1.90459 0
M  V30 6774 H 627.089 1.92869 -3.4104 0
M  V30 6775 H 628.786 1.63032 -3.66363 0
M  V30 6776 H 625.376 0.332645 -4.27307 0
M  V30 6777 H 629.56 -0.378359 -4.94856 0
M  V30 6778 H 624.816 -1.36592 -5.95947 0
M  V30 6779 H 628.99 -2.07337 -6.64819 0
M  V30 6780 H 626.617 -2.57319 -7.15326 0
M  V30 6781 N 628.193 1.56834 0.155195 0
M  V30 6782 C 629.604 1.72421 0.716082 0
M  V30 6783 C 629.955 0.731685 1.82046 0
M  V30 6784 O 629.08 -0.103481 2.16152 0
M  V30 6785 C 629.675 3.12629 1.30571 0
M  V30 6786 C 628.234 3.29846 1.81325 0
M  V30 6787 C 627.381 2.68359 0.698494 0
M  V30 6788 H 630.332 1.58544 -0.0703861 0
M  V30 6789 H 630.353 3.12174 2.1755 0
M  V30 6790 H 629.865 3.84844 0.501701 0
M  V30 6791 H 627.966 2.62614 2.64319 0
M  V30 6792 H 628.079 4.37727 1.9476 0
M  V30 6793 H 626.443 2.28604 1.12305 0
M  V30 6794 H 627.226 3.43171 -0.0939366 0
M  V30 6795 N 629.671 -0.424282 1.51781 0
M  V30 6796 C 630.917 -1.17434 1.6534 0
M  V30 6797 C 631.25 -1.90549 0.374806 0
M  V30 6798 O 630.525 -1.84145 -0.626179 0
M  V30 6799 C 630.808 -2.18093 2.86544 0
M  V30 6800 C 630.661 -1.48975 4.24413 0
M  V30 6801 C 631.98 -3.18934 3.03264 0
M  V30 6802 H 629.099 -0.425566 0.601716 0
M  V30 6803 H 631.741 -0.461921 1.84299 0
M  V30 6804 H 629.891 -2.78849 2.7051 0
M  V30 6805 H 631.563 -0.914551 4.52143 0
M  V30 6806 H 629.806 -0.791893 4.26511 0
M  V30 6807 H 630.477 -2.22347 5.05238 0
M  V30 6808 H 632.953 -2.68243 3.18096 0
M  V30 6809 H 631.829 -3.86645 3.89611 0
M  V30 6810 H 632.09 -3.85793 2.15908 0
M  V30 6811 N 631.149 -1.42148 -0.680565 0
M  V30 6812 C 632.112 -1.4488 -1.77602 0
M  V30 6813 C 633.112 -0.337209 -1.57224 0
M  V30 6814 O 634.302 -0.597778 -1.63622 0
M  V30 6815 C 631.434 -1.27483 -3.16166 0
M  V30 6816 H 632.627 -2.42412 -1.76568 0
M  V30 6817 H 630.18 -1.28511 -0.889645 0
M  V30 6818 H 630.915 -0.30851 -3.22829 0
M  V30 6819 H 630.7 -2.08037 -3.3236 0
M  V30 6820 H 632.19 -1.32265 -3.96101 0
M  V30 6821 N 632.627 0.916307 -1.28225 0
M  V30 6822 C 633.874 1.66518 -1.1523 0
M  V30 6823 C 634.202 1.92178 0.299632 0
M  V30 6824 O 633.457 1.51842 1.2346 0
M  V30 6825 C 633.756 3.03125 -1.8934 0
M  V30 6826 C 633.422 2.97135 -3.39148 0
M  V30 6827 C 632.084 2.95208 -3.80007 0
M  V30 6828 C 634.436 2.87574 -4.34685 0
M  V30 6829 C 631.764 2.81518 -5.14747 0
M  V30 6830 C 634.116 2.75424 -5.69495 0
M  V30 6831 C 632.78 2.71854 -6.09632 0
M  V30 6832 H 632.05 0.609334 -0.421655 0
M  V30 6833 H 634.697 1.06776 -1.58969 0
M  V30 6834 H 633.002 3.66639 -1.38143 0
M  V30 6835 H 634.699 3.59968 -1.76704 0
M  V30 6836 H 631.289 2.99428 -3.06661 0
M  V30 6837 H 635.473 2.88152 -4.04082 0
M  V30 6838 H 630.729 2.77148 -5.44976 0
M  V30 6839 H 634.903 2.66993 -6.43185 0
M  V30 6840 H 632.53 2.61003 -7.1399 0
M  V30 6841 N 634.105 1.10431 1.1244 0
M  V30 6842 C 635.068 0.756542 2.16354 0
M  V30 6843 C 636.068 -0.21899 1.59302 0
M  V30 6844 O 637.258 0.00415969 1.742 0
M  V30 6845 C 634.39 0.120612 3.40687 0
M  V30 6846 H 635.583 1.67696 2.48632 0
M  V30 6847 H 633.136 0.904832 1.27446 0
M  V30 6848 H 633.871 -0.810536 3.14008 0
M  V30 6849 H 633.656 0.822693 3.83372 0
M  V30 6850 H 635.146 -0.106945 4.17463 0
M  V30 6851 N 635.583 -1.29855 0.893053 0
M  V30 6852 C 636.831 -1.9544 0.514566 0
M  V30 6853 C 637.152 -1.70795 -0.940959 0
M  V30 6854 O 636.422 -1.03601 -1.66264 0
M  V30 6855 H 635.002 -0.723137 0.187302 0
M  V30 6856 H 637.664 -1.58234 1.13789 0
M  V30 6857 H 636.76 -3.04341 0.691581 0
M  V30 6858 N 637.061 -0.65484 -1.43351 0
M  V30 6859 C 638.308 -0.168892 -2.01794 0
M  V30 6860 C 638.636 1.2177 -1.51665 0
M  V30 6861 O 637.891 1.82717 -0.70092 0
M  V30 6862 C 638.19 -0.130424 -3.57162 0
M  V30 6863 C 637.856 -1.45898 -4.26643 0
M  V30 6864 C 636.518 -1.82279 -4.4534 0
M  V30 6865 C 638.87 -2.33485 -4.65976 0
M  V30 6866 C 636.198 -3.0591 -5.00635 0
M  V30 6867 C 638.55 -3.5641 -5.22642 0
M  V30 6868 C 637.214 -3.92985 -5.39555 0
M  V30 6869 H 636.484 -0.061802 -0.738418 0
M  V30 6870 H 639.131 -0.845869 -1.71806 0
M  V30 6871 H 637.436 0.630008 -3.86702 0
M  V30 6872 H 639.133 0.262465 -4.0014 0
M  V30 6873 H 635.723 -1.16591 -4.12437 0
M  V30 6874 H 639.907 -2.06668 -4.51223 0
M  V30 6875 H 635.163 -3.34295 -5.11915 0
M  V30 6876 H 639.337 -4.24495 -5.52066 0
M  V30 6877 H 636.964 -4.88862 -5.82167 0
M  V30 6878 N 638.539 1.52521 -0.396863 0
M  V30 6879 C 639.487 2.28217 0.44943 0
M  V30 6880 C 640.481 1.32416 1.05652 0
M  V30 6881 O 641.687 1.49925 0.996124 0
M  V30 6882 H 638.062 0.733966 0.1637 0
M  V30 6883 H 640.033 2.97658 -0.210367 0
M  V30 6884 C 638.782 3.10713 1.56054 0
M  V30 6885 H 638.105 3.84291 1.10273 0
M  V30 6886 H 639.545 3.66803 2.12677 0
M  V30 6887 C 638.004 2.23499 2.52091 0
M  V30 6888 O 638.534 1.8669 3.55682 0
M  V30 6889 N 636.74 1.8751 2.2201 0
M  V30 6890 H 636.287 2.17643 1.37802 0
M  V30 6891 H 636.245 1.29448 2.86514 0
M  V30 6892 N 640.017 0.126909 1.57088 0
M  V30 6893 C 640.947 -0.816847 2.18746 0
M  V30 6894 C 641.928 -1.27161 1.12979 0
M  V30 6895 O 643.113 -1.33279 1.41246 0
M  V30 6896 C 640.243 -2.06398 2.79315 0
M  V30 6897 C 639.197 -1.74673 3.90735 0
M  V30 6898 C 638.523 -3.06482 4.38147 0
M  V30 6899 C 639.823 -1.0089 5.12463 0
M  V30 6900 H 641.517 -0.303032 2.97863 0
M  V30 6901 H 639.063 -0.144314 1.43275 0
M  V30 6902 H 641.016 -2.72885 3.2111 0
M  V30 6903 H 639.74 -2.60118 1.975 0
M  V30 6904 H 638.399 -1.10572 3.49527 0
M  V30 6905 H 638.047 -3.58152 3.5318 0
M  V30 6906 H 637.747 -2.86025 5.13287 0
M  V30 6907 H 639.271 -3.74073 4.82599 0
M  V30 6908 H 640.685 -1.57546 5.51228 0
M  V30 6909 H 639.082 -0.905006 5.93237 0
M  V30 6910 H 640.152 0.00297335 4.849 0
M  V30 6911 N 641.495 -1.56914 -0.146875 0
M  V30 6912 C 642.741 -1.83628 -0.860741 0
M  V30 6913 C 643.074 -0.708528 -1.80813 0
M  V30 6914 O 642.349 0.287838 -1.92358 0
M  V30 6915 C 642.632 -3.20836 -1.63511 0
M  V30 6916 C 642.485 -4.44174 -0.709199 0
M  V30 6917 C 643.804 -3.55268 -2.59756 0
M  V30 6918 H 640.923 -0.667949 -0.311468 0
M  V30 6919 H 643.565 -1.89582 -0.125936 0
M  V30 6920 H 641.715 -3.15891 -2.26153 0
M  V30 6921 H 643.387 -4.61205 -0.0937781 0
M  V30 6922 H 641.63 -4.33796 -0.0187856 0
M  V30 6923 H 642.301 -5.36785 -1.28707 0
M  V30 6924 H 644.777 -3.60824 -2.07232 0
M  V30 6925 H 643.653 -4.52303 -3.10987 0
M  V30 6926 H 643.914 -2.81231 -3.41118 0
M  V30 6927 N 642.974 0.416227 -1.52004 0
M  V30 6928 C 644.204 1.18401 -1.69307 0
M  V30 6929 C 644.612 1.84943 -0.399072 0
M  V30 6930 O 643.955 1.72406 0.634177 0
M  V30 6931 C 644.017 2.29465 -2.76742 0
M  V30 6932 C 643.681 1.83117 -4.18709 0
M  V30 6933 C 644.678 1.32286 -5.02789 0
M  V30 6934 C 642.363 1.90167 -4.64911 0
M  V30 6935 C 644.357 0.891178 -6.31139 0
M  V30 6936 C 642.044 1.4661 -5.93253 0
M  V30 6937 C 643.042 0.961696 -6.76196 0
M  V30 6938 O 642.73 0.532388 -8.02135 0
M  V30 6939 H 642.462 0.362098 -0.570843 0
M  V30 6940 H 645.016 0.496764 -1.99302 0
M  V30 6941 H 643.246 3.01531 -2.42107 0
M  V30 6942 H 644.935 2.91252 -2.82713 0
M  V30 6943 H 645.701 1.26218 -4.68288 0
M  V30 6944 H 641.58 2.28371 -4.00459 0
M  V30 6945 H 645.124 0.496788 -6.95829 0
M  V30 6946 H 641.021 1.52355 -6.27263 0
M  V30 6947 H 641.789 0.656339 -8.15864 0
M  V30 6948 N 644.452 1.42507 0.673017 0
M  V30 6949 C 645.698 1.44282 1.43367 0
M  V30 6950 C 646.053 0.0588239 1.9231 0
M  V30 6951 O 645.346 -0.919288 1.68106 0
M  V30 6952 C 645.54 2.40351 2.64511 0
M  V30 6953 C 645.369 3.87955 2.27423 0
M  V30 6954 C 644.139 4.56476 2.16697 0
M  V30 6955 C 646.337 4.7833 1.88957 0
M  V30 6956 N 644.319 5.89099 1.72731 0
M  V30 6957 C 645.69 6.00073 1.55923 0
M  V30 6958 C 647.745 4.65769 1.75965 0
M  V30 6959 C 646.448 7.10652 1.112 0
M  V30 6960 C 648.474 5.76332 1.32647 0
M  V30 6961 C 647.836 6.97188 1.00538 0
M  V30 6962 H 643.935 0.583134 0.521036 0
M  V30 6963 H 646.519 1.78547 0.776481 0
M  V30 6964 H 644.69 2.08145 3.27918 0
M  V30 6965 H 646.422 2.32694 3.31113 0
M  V30 6966 H 643.177 4.10712 2.35823 0
M  V30 6967 H 643.601 6.59446 1.53166 0
M  V30 6968 H 648.243 3.72808 1.99435 0
M  V30 6969 H 645.961 8.0346 0.864768 0
M  V30 6970 H 649.547 5.68625 1.23112 0
M  V30 6971 H 648.427 7.81287 0.675283 0
M  V30 6972 N 645.93 -0.909495 1.28709 0
M  V30 6973 C 647.176 -1.66151 1.16283 0
M  V30 6974 C 647.509 -1.92067 -0.287069 0
M  V30 6975 O 646.784 -1.52409 -1.20837 0
M  V30 6976 C 647.067 -3.01676 1.9663 0
M  V30 6977 C 646.92 -2.82888 3.49707 0
M  V30 6978 C 648.239 -4.02274 1.78504 0
M  V30 6979 H 645.358 -0.602966 0.423793 0
M  V30 6980 H 648 -1.05418 1.58073 0
M  V30 6981 H 646.15 -3.53515 1.61119 0
M  V30 6982 H 647.822 -2.38026 3.95147 0
M  V30 6983 H 646.065 -2.17862 3.75125 0
M  V30 6984 H 646.736 -3.79147 4.01187 0
M  V30 6985 H 649.212 -3.59511 2.09503 0
M  V30 6986 H 648.088 -4.95056 2.37088 0
M  V30 6987 H 648.349 -4.35903 0.737647 0
M  V30 6988 N 647.408 -1.11026 -1.11852 0
M  V30 6989 C 648.654 -0.857729 -1.83768 0
M  V30 6990 C 648.987 0.615143 -1.842 0
M  V30 6991 O 648.262 1.45391 -1.29196 0
M  V30 6992 C 648.545 -1.41453 -3.31154 0
M  V30 6993 C 648.398 -2.95471 -3.39142 0
M  V30 6994 C 649.717 -1.0619 -4.27097 0
M  V30 6995 H 646.836 -0.313044 -0.667212 0
M  V30 6996 H 649.478 -1.37443 -1.31185 0
M  V30 6997 H 647.628 -0.975052 -3.76065 0
M  V30 6998 H 649.3 -3.4799 -3.02821 0
M  V30 6999 H 647.543 -3.31759 -2.79497 0
M  V30 7000 H 648.214 -3.29515 -4.42859 0
M  V30 7001 H 650.69 -1.44122 -3.90344 0
M  V30 7002 H 649.566 -1.47832 -5.28618 0
M  V30 7003 H 649.827 0.0278912 -4.42091 0
M  V30 7004 N 648.886 1.2938 -0.899927 0
M  V30 7005 C 650.116 1.99402 -0.540601 0
M  V30 7006 C 650.524 1.67534 0.87914 0
M  V30 7007 O 649.867 0.916821 1.59186 0
M  V30 7008 C 649.929 3.53514 -0.653326 0
M  V30 7009 C 649.593 4.08937 -2.04009 0
M  V30 7010 C 650.59 4.23815 -3.01126 0
M  V30 7011 C 648.275 4.43962 -2.34953 0
M  V30 7012 C 650.269 4.72951 -4.27313 0
M  V30 7013 C 647.956 4.92795 -3.61382 0
M  V30 7014 C 648.954 5.07244 -4.57376 0
M  V30 7015 O 648.642 5.55017 -5.8156 0
M  V30 7016 H 648.374 0.64383 -0.206057 0
M  V30 7017 H 650.928 1.65878 -1.21134 0
M  V30 7018 H 649.158 3.86628 0.0744449 0
M  V30 7019 H 650.847 4.04767 -0.303118 0
M  V30 7020 H 651.613 3.97043 -2.78535 0
M  V30 7021 H 647.492 4.31974 -1.60994 0
M  V30 7022 H 651.036 4.84144 -5.02245 0
M  V30 7023 H 646.933 5.19004 -3.83804 0
M  V30 7024 H 647.701 5.73331 -5.84153 0
M  V30 7025 N 650.364 0.662433 1.43002 0
M  V30 7026 C 651.294 -0.00979809 2.33498 0
M  V30 7027 C 652.275 -0.802329 1.49989 0
M  V30 7028 O 653.46 -0.761964 1.78627 0
M  V30 7029 C 650.59 -0.970446 3.33466 0
M  V30 7030 C 649.544 -0.287383 4.27034 0
M  V30 7031 C 648.87 -1.36012 5.17112 0
M  V30 7032 C 650.17 0.82595 5.15728 0
M  V30 7033 H 651.864 0.745959 2.89958 0
M  V30 7034 H 649.41 0.360172 1.39423 0
M  V30 7035 H 651.363 -1.44971 3.95679 0
M  V30 7036 H 650.087 -1.75748 2.75282 0
M  V30 7037 H 648.746 0.17152 3.66199 0
M  V30 7038 H 648.394 -2.13882 4.55262 0
M  V30 7039 H 648.094 -0.908276 5.80538 0
M  V30 7040 H 649.618 -1.84056 5.82199 0
M  V30 7041 H 651.032 0.42845 5.71697 0
M  V30 7042 H 649.429 1.20282 5.87922 0
M  V30 7043 H 650.499 1.68003 4.54866 0
M  V30 7044 N 651.842 -1.52309 0.404946 0
M  V30 7045 C 653.067 -2.06666 -0.1743 0
M  V30 7046 C 653.492 -1.27341 -1.38441 0
M  V30 7047 O 652.85 -0.302539 -1.78758 0
M  V30 7048 C 652.898 -3.57014 -0.507262 0
M  V30 7049 O 652.002 -3.80144 -1.59889 0
M  V30 7050 H 651.343 -0.663807 -0.0160273 0
M  V30 7051 H 653.873 -1.96297 0.576937 0
M  V30 7052 H 653.883 -4.00724 -0.767098 0
M  V30 7053 H 652.558 -4.14184 0.377368 0
M  V30 7054 H 651.135 -3.48316 -1.33155 0
M  V30 7055 N 653.32 -0.135238 -1.57019 0
M  V30 7056 C 654.267 0.808908 -2.1616 0
M  V30 7057 C 655.237 1.25234 -1.09113 0
M  V30 7058 O 656.422 1.32697 -1.37099 0
M  V30 7059 C 653.562 2.04729 -2.77813 0
M  V30 7060 C 652.675 1.65074 -3.99218 0
M  V30 7061 C 651.81 2.84002 -4.48906 0
M  V30 7062 C 650.849 2.40663 -5.62803 0
M  V30 7063 N 649.986 3.5256 -6.07162 0
M  V30 7064 H 654.826 0.297751 -2.96509 0
M  V30 7065 H 652.363 0.135264 -1.46477 0
M  V30 7066 H 654.321 2.7731 -3.11697 0
M  V30 7067 H 652.951 2.53275 -2.00128 0
M  V30 7068 H 652.003 0.823029 -3.7139 0
M  V30 7069 H 653.315 1.29236 -4.81767 0
M  V30 7070 H 652.469 3.64788 -4.84783 0
M  V30 7071 H 651.208 3.23076 -3.65339 0
M  V30 7072 H 650.213 1.58314 -5.26514 0
M  V30 7073 H 651.438 2.02687 -6.48147 0
M  V30 7074 H 649.384 3.91278 -5.26534 0
M  V30 7075 H 649.301 3.20699 -6.84608 0
M  V30 7076 H 650.569 4.33738 -6.47682 0
M  V30 7077 N 654.798 1.5699 0.138552 0
M  V30 7078 C 656.075 1.74741 0.87891 0
M  V30 7079 C 656.455 0.705522 1.98961 0
M  V30 7080 O 655.803 -0.274066 2.2685 0
M  V30 7081 C 656.013 3.1909 1.4136 0
M  V30 7082 C 657.361 3.81023 1.87368 0
M  V30 7083 O 658.385 3.22571 1.51084 0
M  V30 7084 O 657.244 4.83722 2.54312 0
M  V30 7085 H 654.338 0.714781 0.415953 0
M  V30 7086 H 656.884 1.69248 0.123817 0
M  V30 7087 H 655.656 3.86424 0.61579 0
M  V30 7088 H 655.279 3.29043 2.23196 0
M  V30 7089 N 656.276 -0.40816 1.52223 0
M  V30 7090 C 657.504 -1.17672 1.70179 0
M  V30 7091 C 657.919 -1.84257 0.411696 0
M  V30 7092 O 657.276 -1.7192 -0.612354 0
M  V30 7093 C 657.327 -2.23911 2.83806 0
M  V30 7094 O 657.048 -1.60044 4.0782 0
M  V30 7095 C 658.549 -3.1364 3.13281 0
M  V30 7096 H 655.769 -0.353562 0.570293 0
M  V30 7097 H 658.313 -0.480083 1.98785 0
M  V30 7098 H 656.468 -2.89242 2.57717 0
M  V30 7099 H 656.882 -2.30484 4.71145 0
M  V30 7100 H 658.356 -3.84255 3.96298 0
M  V30 7101 H 658.833 -3.76066 2.26872 0
M  V30 7102 H 659.439 -2.53977 3.41139 0
M  V30 7103 N 657.755 -1.42862 -0.66545 0
M  V30 7104 C 658.688 -1.41509 -1.79026 0
M  V30 7105 C 659.666 -0.278106 -1.60204 0
M  V30 7106 O 660.85 -0.469792 -1.82552 0
M  V30 7107 C 657.977 -1.21494 -3.1616 0
M  V30 7108 C 657.023 -2.38308 -3.53711 0
M  V30 7109 S 657.856 -4.00852 -3.55075 0
M  V30 7110 C 659.012 -3.83197 -4.94885 0
M  V30 7111 H 659.245 -2.36691 -1.79902 0
M  V30 7112 H 656.778 -1.29746 -0.836977 0
M  V30 7113 H 658.736 -1.10633 -3.95311 0
M  V30 7114 H 657.397 -0.27881 -3.1286 0
M  V30 7115 H 656.59 -2.20076 -4.53412 0
M  V30 7116 H 656.192 -2.45732 -2.81943 0
M  V30 7117 H 658.484 -3.44765 -5.83218 0
M  V30 7118 H 659.427 -4.82607 -5.18166 0
M  V30 7119 H 659.835 -3.15884 -4.67843 0
M  V30 7120 N 659.233 0.902656 -1.29189 0
M  V30 7121 C 660.143 2.03946 -1.15944 0
M  V30 7122 C 661.159 1.738 -0.0833803 0
M  V30 7123 O 662.335 1.9923 -0.29487 0
M  V30 7124 C 659.4 3.36519 -0.834006 0
M  V30 7125 C 658.461 3.80203 -1.9936 0
M  V30 7126 C 657.694 5.06449 -1.68359 0
M  V30 7127 O 657.917 5.67202 -0.603141 0
M  V30 7128 O 656.851 5.46114 -2.53067 0
M  V30 7129 H 660.677 2.18043 -2.11403 0
M  V30 7130 H 658.262 1.02584 -1.08613 0
M  V30 7131 H 660.144 4.16089 -0.666949 0
M  V30 7132 H 658.819 3.23573 0.0908245 0
M  V30 7133 H 657.726 3.01413 -2.21588 0
M  V30 7134 H 659.059 3.97729 -2.89952 0
M  V30 7135 N 660.711 1.11618 1.11262 0
M  V30 7136 C 661.957 0.867463 1.83311 0
M  V30 7137 C 662.29 -0.605366 1.84524 0
M  V30 7138 O 661.565 -1.44704 1.29965 0
M  V30 7139 C 661.848 1.43207 3.30399 0
M  V30 7140 C 661.701 2.97265 3.3757 0
M  V30 7141 C 663.02 1.08454 4.26528 0
M  V30 7142 H 660.139 0.316578 0.665543 0
M  V30 7143 H 662.781 1.38137 1.30454 0
M  V30 7144 H 660.931 0.994982 3.75543 0
M  V30 7145 H 662.603 3.49591 3.00971 0
M  V30 7146 H 660.846 3.33237 2.77733 0
M  V30 7147 H 661.517 3.31859 4.41105 0
M  V30 7148 H 663.993 1.4619 3.89574 0
M  V30 7149 H 662.869 1.50633 5.27826 0
M  V30 7150 H 663.13 -0.00444568 4.421 0
M  V30 7151 N 662.189 -1.289 0.906776 0
M  V30 7152 C 663.414 -1.99939 0.551303 0
M  V30 7153 C 663.839 -1.67366 -0.858496 0
M  V30 7154 O 663.197 -0.902176 -1.57259 0
M  V30 7155 C 663.245 -3.52523 0.758937 0
M  V30 7156 O 662.349 -4.11983 -0.185308 0
M  V30 7157 H 661.69 -0.628376 0.214568 0
M  V30 7158 H 664.22 -1.64225 1.2203 0
M  V30 7159 H 664.23 -4.02522 0.666329 0
M  V30 7160 H 662.905 -3.75566 1.78671 0
M  V30 7161 H 661.482 -3.72873 -0.0445577 0
M  V30 7162 N 663.667 -0.670007 -1.42649 0
M  V30 7163 C 664.892 -0.196955 -2.06463 0
M  V30 7164 C 665.317 1.1352 -1.49983 0
M  V30 7165 O 664.675 1.705 -0.616397 0
M  V30 7166 C 664.723 -0.137381 -3.60338 0
M  V30 7167 O 663.827 0.895523 -4.02559 0
M  V30 7168 H 663.168 -0.102579 -0.656029 0
M  V30 7169 H 665.698 -0.917669 -1.82866 0
M  V30 7170 H 665.708 0.0403625 -4.0798 0
M  V30 7171 H 664.383 -1.10977 -4.0082 0
M  V30 7172 H 662.96 0.689209 -3.66476 0
M  V30 7173 N 665.145 1.52092 -0.413018 0
M  V30 7174 C 666.37 2.06756 0.163338 0
M  V30 7175 C 666.795 1.28073 1.37764 0
M  V30 7176 O 666.153 0.312015 1.78595 0
M  V30 7177 C 666.201 3.57278 0.488322 0
M  V30 7178 O 665.305 3.80986 1.57871 0
M  V30 7179 H 664.646 0.663882 0.0125068 0
M  V30 7180 H 667.176 1.95988 -0.587339 0
M  V30 7181 H 667.186 4.01125 0.745836 0
M  V30 7182 H 665.861 4.13978 -0.399327 0
M  V30 7183 H 664.438 3.49017 1.31306 0
M  V30 7184 N 666.623 0.143563 1.56945 0
M  V30 7185 C 667.869 -0.50916 1.96304 0
M  V30 7186 C 668.202 -1.64741 1.0283 0
M  V30 7187 O 667.477 -1.94374 0.0700361 0
M  V30 7188 C 667.76 -1.0186 3.45393 0
M  V30 7189 C 667.613 0.117923 4.49645 0
M  V30 7190 C 668.932 -1.90151 3.96901 0
M  V30 7191 H 666.051 -0.183608 0.713763 0
M  V30 7192 H 668.693 0.224095 1.88674 0
M  V30 7193 H 666.843 -1.64345 3.52027 0
M  V30 7194 H 668.515 0.754145 4.55094 0
M  V30 7195 H 666.758 0.777568 4.26774 0
M  V30 7196 H 667.429 -0.280187 5.51288 0
M  V30 7197 H 669.905 -1.375 3.92725 0
M  V30 7198 H 668.781 -2.22707 5.0169 0
M  V30 7199 H 669.042 -2.83718 3.39052 0
M  V30 7200 N 668.101 -1.57061 -0.130224 0
M  V30 7201 C 669.011 -2.02802 -1.17934 0
M  V30 7202 C 670.027 -0.946378 -1.46013 0
M  V30 7203 O 671.203 -1.25708 -1.57351 0
M  V30 7204 C 668.268 -2.41368 -2.48882 0
M  V30 7205 C 667.329 -3.63561 -2.28301 0
M  V30 7206 C 666.562 -4.00279 -3.53005 0
M  V30 7207 O 666.785 -3.37463 -4.59864 0
M  V30 7208 O 665.719 -4.93441 -3.44673 0
M  V30 7209 H 669.545 -2.92394 -0.820958 0
M  V30 7210 H 667.13 -1.45475 -0.340197 0
M  V30 7211 H 669.012 -2.66958 -3.26054 0
M  V30 7212 H 667.687 -1.54926 -2.84217 0
M  V30 7213 H 666.594 -3.43136 -1.49025 0
M  V30 7214 H 667.927 -4.50673 -1.97875 0
M  V30 7215 O 669.618 0.274706 -1.59147 0
M  V30 7216 H 670.309 0.920013 -1.70457 0
M  V30 END ATOM
M  V30 BEGIN BOND
M  V30 END BOND
M  V30 END CTAB
M  END
$$$$
