drugbank_target|O43674 NADH dehydrogenase [ubiquinone] 1 beta subcomplex subunit 5, mitochondrial (DB00157)
 OpenBabel12092119273D

  0  0  0     0  0            999 V3000
M  V30 BEGIN CTAB
M  V30 COUNTS 3103 3146 0 0 0
M  V30 BEGIN ATOM
M  V30 1 H -0.908 1.98254 -0.117106 0
M  V30 2 N 0 1.576 0 0
M  V30 3 C 0.933 2.03868 1.02534 0
M  V30 4 C 1.911 0.928543 1.3348 0
M  V30 5 O 3.095 1.19667 1.45644 0
M  V30 6 C 0.222 2.43627 2.35294 0
M  V30 7 C -0.732 3.65373 2.2001 0
M  V30 8 S 0.101 5.13292 1.52614 0
M  V30 9 C 1.257 5.56322 2.86805 0
M  V30 10 H 1.49 2.90518 0.631377 0
M  V30 11 H -0.977 1.52953 0.210867 0
M  V30 12 H 0.981 2.67203 3.11629 0
M  V30 13 H -0.358 1.57376 2.7183 0
M  V30 14 H -1.165 3.90944 3.18086 0
M  V30 15 H -1.563 3.418 1.51819 0
M  V30 16 H 0.729 5.58782 3.83104 0
M  V30 17 H 1.672 6.56266 2.65933 0
M  V30 18 H 2.08 4.83886 2.90714 0
M  V30 19 N 1.4781 -0.272755 1.55222 0
M  V30 20 C 2.4411 -1.32041 1.87344 0
M  V30 21 C 3.4411 -1.42342 0.74803 0
M  V30 22 O 4.6311 -1.41488 1.0162 0
M  V30 23 C 1.7631 -2.70173 2.07893 0
M  V30 24 H 2.9561 -1.04789 2.80997 0
M  V30 25 H 0.5091 -0.51083 1.47717 0
M  V30 26 H 1.2441 -3.02605 1.16622 0
M  V30 27 H 1.0291 -2.64082 2.89833 0
M  V30 28 H 2.5191 -3.45869 2.34017 0
M  V30 29 N 2.9562 -1.48159 -0.537278 0
M  V30 30 C 3.9192 -1.61665 -1.62472 0
M  V30 31 C 4.9192 -0.490395 -1.5314 0
M  V30 32 O 6.1092 -0.755998 -1.5694 0
M  V30 33 C 3.2412 -1.57997 -3.02076 0
M  V30 34 H 4.4342 -2.58621 -1.51839 0
M  V30 35 H 1.9872 -1.36647 -0.758771 0
M  V30 36 H 2.7222 -0.624913 -3.18222 0
M  V30 37 H 2.5072 -2.39755 -3.10258 0
M  V30 38 H 3.9972 -1.70627 -3.81151 0
M  V30 39 N 4.4343 0.785586 -1.36625 0
M  V30 40 C 5.3673 1.90509 -1.25625 0
M  V30 41 C 6.3453 1.62 -0.139607 0
M  V30 42 O 7.5293 1.8591 -0.31141 0
M  V30 43 C 4.6563 3.25419 -0.939158 0
M  V30 44 C 3.7023 3.72856 -2.07077 0
M  V30 45 S 4.5353 3.88162 -3.68904 0
M  V30 46 C 5.6913 5.25942 -3.39317 0
M  V30 47 H 5.9243 1.99549 -2.20381 0
M  V30 48 H 3.4573 0.945226 -1.22085 0
M  V30 49 H 5.4153 4.03346 -0.763029 0
M  V30 50 H 4.0763 3.14099 -0.00931402 0
M  V30 51 H 3.2693 4.70624 -1.80357 0
M  V30 52 H 2.8713 3.01989 -2.20632 0
M  V30 53 H 5.1633 6.10651 -2.93447 0
M  V30 54 H 6.1063 5.57668 -4.36363 0
M  V30 55 H 6.5143 4.93224 -2.74573 0
M  V30 56 N 5.9124 1.20967 1.01018 0
M  V30 57 C 7.1374 1.0503 1.78839 0
M  V30 58 C 7.5624 -0.395752 1.8389 0
M  V30 59 O 6.9204 -1.28529 1.27867 0
M  V30 60 C 6.9684 1.64602 3.2084 0
M  V30 61 O 6.0724 0.887988 4.02726 0
M  V30 62 H 5.4134 0.369987 0.551367 0
M  V30 63 H 7.9434 1.60399 1.27018 0
M  V30 64 H 7.9534 1.68607 3.71532 0
M  V30 65 H 6.6284 2.69841 3.16479 0
M  V30 66 H 5.2054 0.922648 3.61305 0
M  V30 67 N 7.3905 -1.2043 1.01659 0
M  V30 68 C 8.3205 -2.25466 0.607226 0
M  V30 69 C 9.3015 -1.65853 -0.377716 0
M  V30 70 O 10.4865 -1.92409 -0.263149 0
M  V30 71 C 7.6165 -3.47256 -0.0552949 0
M  V30 72 C 6.5705 -4.19462 0.850632 0
M  V30 73 C 5.8965 -5.34673 0.0538859 0
M  V30 74 C 7.1965 -4.75603 2.15868 0
M  V30 75 H 8.8905 -2.59962 1.48526 0
M  V30 76 H 6.4365 -1.2496 0.715605 0
M  V30 77 H 8.3895 -4.19917 -0.353233 0
M  V30 78 H 7.1135 -3.11924 -0.968045 0
M  V30 79 H 5.7725 -3.48667 1.13257 0
M  V30 80 H 5.4205 -4.95585 -0.860514 0
M  V30 81 H 5.1205 -5.83913 0.657192 0
M  V30 82 H 6.6445 -6.10138 -0.237598 0
M  V30 83 H 8.0585 -5.40083 1.92311 0
M  V30 84 H 6.4555 -5.3528 2.71284 0
M  V30 85 H 7.5255 -3.94346 2.82169 0
M  V30 86 N 8.8686 -0.792821 -1.36206 0
M  V30 87 C 9.7986 -0.207853 -2.32573 0
M  V30 88 C 10.7796 0.659055 -1.56813 0
M  V30 89 O 11.9646 0.592176 -1.84951 0
M  V30 90 C 9.0946 0.655449 -3.41059 0
M  V30 91 C 8.0486 -0.111842 -4.27854 0
M  V30 92 C 7.3746 0.872274 -5.27537 0
M  V30 93 C 8.6746 -1.30299 -5.05786 0
M  V30 94 H 10.3686 -1.01294 -2.81744 0
M  V30 95 H 7.9146 -0.48854 -1.3546 0
M  V30 96 H 9.8676 1.07464 -4.07467 0
M  V30 97 H 8.5916 1.49328 -2.90463 0
M  V30 98 H 7.2506 -0.512053 -3.63006 0
M  V30 99 H 6.8986 1.70523 -4.73214 0
M  V30 100 H 6.5986 0.363291 -5.86476 0
M  V30 101 H 8.1226 1.28996 -5.96818 0
M  V30 102 H 9.5366 -0.959379 -5.65216 0
M  V30 103 H 7.9336 -1.7455 -5.74154 0
M  V30 104 H 9.0036 -2.09663 -4.37229 0
M  V30 105 N 10.3467 1.47872 -0.545128 0
M  V30 106 C 11.7627 1.5829 -0.204032 0
M  V30 107 C 11.9627 1.54529 1.29317 0
M  V30 108 O 11.0187 1.44232 2.07252 0
M  V30 109 C 12.3317 2.89304 -0.819987 0
M  V30 110 C 13.8797 3.02864 -0.790105 0
M  V30 111 C 14.3547 4.3656 -1.38491 0
M  V30 112 N 15.8457 4.43165 -1.34755 0
M  V30 113 C 16.5807 5.45153 -1.77753 0
M  V30 114 N 16.0767 6.54016 -2.2855 0
M  V30 115 N 17.8697 5.36125 -1.68897 0
M  V30 116 H 10.0207 1.4856 -1.51802 0
M  V30 117 H 12.2837 0.706305 -0.632327 0
M  V30 118 H 11.9897 2.97757 -1.87173 0
M  V30 119 H 11.8637 3.75957 -0.305915 0
M  V30 120 H 14.2507 2.94014 0.252913 0
M  V30 121 H 14.3317 2.17782 -1.34181 0
M  V30 122 H 13.9757 4.46164 -2.42693 0
M  V30 123 H 13.9057 5.20353 -0.808754 0
M  V30 124 H 16.3967 3.65083 -0.975855 0
M  V30 125 H 16.7097 7.27994 -2.59314 0
M  V30 126 H 15.0547 6.54938 -2.32553 0
M  V30 127 H 18.2457 4.49975 -1.28998 0
M  V30 128 H 18.4187 6.15472 -2.02726 0
M  V30 129 N 11.8248 0.280983 1.55075 0
M  V30 130 C 13.2408 -0.0729964 1.59433 0
M  V30 131 C 13.4408 -1.5411 1.29817 0
M  V30 132 O 12.4968 -2.29086 1.06187 0
M  V30 133 C 13.8098 0.306921 2.9913 0
M  V30 134 C 15.3578 0.254023 3.11968 0
M  V30 135 C 15.8328 0.608467 4.5394 0
M  V30 136 N 17.3238 0.560241 4.59799 0
M  V30 137 C 18.0588 0.80722 5.6769 0
M  V30 138 N 17.5548 1.11912 6.83701 0
M  V30 139 N 19.3478 0.735623 5.57266 0
M  V30 140 H 11.4988 1.238 1.7259 0
M  V30 141 H 13.7618 0.500547 0.805082 0
M  V30 142 H 13.4678 1.32816 3.25657 0
M  V30 143 H 13.3418 -0.349363 3.75579 0
M  V30 144 H 15.7288 -0.75794 2.852 0
M  V30 145 H 15.8098 0.944649 2.37718 0
M  V30 146 H 15.4538 1.61814 4.81434 0
M  V30 147 H 15.3838 -0.104013 5.26497 0
M  V30 148 H 17.8748 0.329288 3.76463 0
M  V30 149 H 18.1878 1.29409 7.61888 0
M  V30 150 H 16.5328 1.15695 6.85303 0
M  V30 151 H 19.7238 0.491752 4.6551 0
M  V30 152 H 19.8968 0.931482 6.4127 0
M  V30 153 N 13.3029 -1.57598 0.00835791 0
M  V30 154 C 14.5489 -1.91211 -0.675732 0
M  V30 155 C 14.8819 -0.883139 -1.72958 0
M  V30 156 O 14.1569 0.097016 -1.94258 0
M  V30 157 C 14.4399 -3.35379 -1.31123 0
M  V30 158 C 14.2929 -4.48999 -0.268356 0
M  V30 159 C 15.6119 -3.7912 -2.23508 0
M  V30 160 H 12.7309 -0.695374 -0.244179 0
M  V30 161 H 15.3729 -1.89901 0.0613655 0
M  V30 162 H 13.5229 -3.36626 -1.93946 0
M  V30 163 H 15.1949 -4.59887 0.360844 0
M  V30 164 H 13.4379 -4.31873 0.408482 0
M  V30 165 H 14.1089 -5.46851 -0.752218 0
M  V30 166 H 16.5849 -3.79477 -1.70693 0
M  V30 167 H 15.4609 -4.80729 -2.64936 0
M  V30 168 H 15.7219 -3.13455 -3.11766 0
M  V30 169 N 14.781 0.264519 -1.55364 0
M  V30 170 C 16.006 1.01726 -1.80739 0
M  V30 171 C 16.431 1.78836 -0.583044 0
M  V30 172 O 15.789 1.75167 0.467566 0
M  V30 173 C 15.837 1.94482 -3.03659 0
M  V30 174 O 14.941 3.03386 -2.7934 0
M  V30 175 H 14.282 0.290395 -0.597132 0
M  V30 176 H 16.812 0.290854 -2.02522 0
M  V30 177 H 16.822 2.36278 -3.32621 0
M  V30 178 H 15.497 1.37772 -3.92418 0
M  V30 179 H 14.074 2.65844 -2.61498 0
M  V30 180 N 16.2591 1.48442 0.529413 0
M  V30 181 C 17.5051 1.5672 1.28711 0
M  V30 182 C 17.8381 0.2406 1.92704 0
M  V30 183 O 17.1131 -0.753454 1.79313 0
M  V30 184 C 17.3961 2.70587 2.37603 0
M  V30 185 C 17.2491 4.12953 1.78297 0
M  V30 186 C 18.5681 2.80212 3.39366 0
M  V30 187 H 15.6871 0.570474 0.466613 0
M  V30 188 H 18.3291 1.80617 0.589706 0
M  V30 189 H 16.4791 2.50342 2.97088 0
M  V30 190 H 18.1511 4.44639 1.22858 0
M  V30 191 H 16.3941 4.19927 1.0883 0
M  V30 192 H 17.0651 4.88448 2.57144 0
M  V30 193 H 19.5411 2.98553 2.89836 0
M  V30 194 H 18.4171 3.61611 4.12951 0
M  V30 195 H 18.6781 1.88393 3.99951 0
M  V30 196 N 17.7372 -0.778329 1.37039 0
M  V30 197 C 18.9652 -1.56734 1.35063 0
M  V30 198 C 19.3802 -1.88686 -0.0655597 0
M  V30 199 O 18.7372 -1.5096 -1.02554 0
M  V30 200 C 18.7882 -2.88163 2.18276 0
M  V30 201 O 18.5092 -2.57583 3.54376 0
M  V30 202 C 20.0102 -3.82422 2.24206 0
M  V30 203 H 17.2302 -0.485778 0.462883 0
M  V30 204 H 19.7742 -0.965185 1.8029 0
M  V30 205 H 17.9292 -3.44818 1.76576 0
M  V30 206 H 18.3432 -3.41699 3.97922 0
M  V30 207 H 19.8172 -4.71667 2.86765 0
M  V30 208 H 20.2942 -4.21078 1.24861 0
M  V30 209 H 20.9002 -3.31697 2.6619 0
M  V30 210 N 19.2153 -1.21501 -1.00376 0
M  V30 211 C 20.1783 -0.976927 -2.07337 0
M  V30 212 C 21.1783 0.0525322 -1.60714 0
M  V30 213 O 22.3683 -0.184869 -1.73216 0
M  V30 214 C 19.5003 -0.473423 -3.37597 0
M  V30 215 H 20.6933 -1.92587 -2.29892 0
M  V30 216 H 18.2463 -1.03217 -1.17371 0
M  V30 217 H 18.9813 0.480379 -3.20722 0
M  V30 218 H 18.7663 -1.216 -3.72768 0
M  V30 219 H 20.2563 -0.32675 -4.1632 0
M  V30 220 N 20.6934 1.19889 -1.02296 0
M  V30 221 C 21.9394 1.89701 -0.717033 0
M  V30 222 C 22.2724 1.7905 0.751989 0
M  V30 223 O 21.5474 1.17891 1.547 0
M  V30 224 C 21.8304 3.40858 -1.16136 0
M  V30 225 C 21.6834 3.60411 -2.69117 0
M  V30 226 C 23.0024 4.33876 -0.737549 0
M  V30 227 H 20.1214 0.688874 -0.261957 0
M  V30 228 H 22.7634 1.41154 -1.27183 0
M  V30 229 H 20.9134 3.82335 -0.689342 0
M  V30 230 H 22.5854 3.28145 -3.2422 0
M  V30 231 H 20.8284 3.03665 -3.0979 0
M  V30 232 H 21.4994 4.66396 -2.95261 0
M  V30 233 H 23.9754 4.00081 -1.14344 0
M  V30 234 H 22.8514 5.38242 -1.0764 0
M  V30 235 H 23.1124 4.40628 0.360436 0
M  V30 236 N 22.1715 0.800033 1.35784 0
M  V30 237 C 23.1345 0.211565 2.28221 0
M  V30 238 C 24.1345 -0.59728 1.49296 0
M  V30 239 O 25.3245 -0.416721 1.69142 0
M  V30 240 C 22.4565 -0.705846 3.33513 0
M  V30 241 H 23.6495 1.02677 2.81776 0
M  V30 242 H 21.2025 0.570211 1.45528 0
M  V30 243 H 21.9375 -1.54498 2.85133 0
M  V30 244 H 21.7225 -0.127655 3.91892 0
M  V30 245 H 23.2125 -1.11211 4.02519 0
M  V30 246 N 23.6496 -1.47581 0.552962 0
M  V30 247 C 24.6126 -2.28439 -0.186605 0
M  V30 248 C 25.6126 -1.36706 -0.84665 0
M  V30 249 O 26.8026 -1.59378 -0.703164 0
M  V30 250 C 23.9346 -3.16264 -1.2724 0
M  V30 251 H 25.1276 -2.95294 0.523609 0
M  V30 252 H 22.6806 -1.532 0.309745 0
M  V30 253 H 23.4156 -2.54091 -2.01514 0
M  V30 254 H 23.2006 -3.83769 -0.803968 0
M  V30 255 H 24.6906 -3.77198 -1.79196 0
M  V30 256 N 25.1277 -0.289203 -1.54924 0
M  V30 257 C 26.0577 0.58549 -2.2604 0
M  V30 258 C 27.0387 1.14753 -1.25562 0
M  V30 259 O 28.2237 1.17906 -1.54311 0
M  V30 260 C 25.3537 1.76305 -2.99222 0
M  V30 261 C 24.3077 1.33191 -4.06748 0
M  V30 262 C 23.6337 2.5937 -4.6758 0
M  V30 263 C 24.9337 0.471775 -5.20165 0
M  V30 264 H 26.6277 -0.00763532 -2.99399 0
M  V30 265 H 24.1737 -0.00511229 -1.43999 0
M  V30 266 H 26.1267 2.38097 -3.47689 0
M  V30 267 H 24.8507 2.38223 -2.23422 0
M  V30 268 H 23.5097 0.737121 -3.59113 0
M  V30 269 H 23.1577 3.19576 -3.88433 0
M  V30 270 H 22.8577 2.31228 -5.40192 0
M  V30 271 H 24.3817 3.21985 -5.18804 0
M  V30 272 H 25.7957 0.995056 -5.64599 0
M  V30 273 H 24.1927 0.284639 -5.99425 0
M  V30 274 H 25.2627 -0.506041 -4.82252 0
M  V30 275 N 26.6058 1.57591 -0.0167156 0
M  V30 276 C 27.8308 1.9598 0.67872 0
M  V30 277 C 28.2558 0.892546 1.65575 0
M  V30 278 O 27.6138 -0.147772 1.80697 0
M  V30 279 C 27.6618 3.33468 1.37227 0
M  V30 280 O 26.7658 3.28954 2.48722 0
M  V30 281 H 26.1068 0.639339 0.17928 0
M  V30 282 H 28.6368 2.04463 -0.0748802 0
M  V30 283 H 28.6468 3.69417 1.7319 0
M  V30 284 H 27.3218 4.10694 0.656007 0
M  V30 285 H 25.8988 3.04705 2.14963 0
M  V30 286 N 28.0839 -0.256276 1.55502 0
M  V30 287 C 29.3319 -0.983672 1.76545 0
M  V30 288 C 29.6529 -1.86206 0.578982 0
M  V30 289 O 28.9229 -1.91656 -0.405577 0
M  V30 290 H 27.5029 -0.366191 0.651086 0
M  V30 291 H 30.1649 -0.276479 1.92929 0
M  V30 292 H 29.2609 -1.61087 2.67315 0
M  V30 293 N 29.562 -1.4872 -0.521534 0
M  V30 294 C 30.978 -1.35028 -0.850855 0
M  V30 295 C 31.178 -0.367712 -1.98116 0
M  V30 296 O 30.234 0.208037 -2.51642 0
M  V30 297 C 31.547 -2.75263 -1.21041 0
M  V30 298 C 33.095 -2.83813 -1.31981 0
M  V30 299 C 33.57 -4.24769 -1.71276 0
M  V30 300 N 35.061 -4.27482 -1.78363 0
M  V30 301 C 35.796 -5.33494 -2.1017 0
M  V30 302 N 35.292 -6.49775 -2.40343 0
M  V30 303 N 37.085 -5.20894 -2.11248 0
M  V30 304 H 29.236 -2.11214 0.22413 0
M  V30 305 H 31.499 -0.947252 0.0376439 0
M  V30 306 H 31.205 -3.48765 -0.453415 0
M  V30 307 H 31.079 -3.09327 -2.15863 0
M  V30 308 H 33.466 -2.10561 -2.06756 0
M  V30 309 H 33.547 -2.53358 -0.352596 0
M  V30 310 H 33.191 -4.9854 -0.970588 0
M  V30 311 H 33.121 -4.52673 -2.69062 0
M  V30 312 H 35.612 -3.43611 -1.57288 0
M  V30 313 H 35.925 -7.26402 -2.63743 0
M  V30 314 H 34.27 -6.53035 -2.37844 0
M  V30 315 H 37.461 -4.29065 -1.87139 0
M  V30 316 H 37.634 -6.03612 -2.35704 0
M  V30 317 N 31.0401 0.771051 -1.3745 0
M  V30 318 C 32.4511 1.34737 -1.29239 0
M  V30 319 C 32.8021 1.96109 0.0596908 0
M  V30 320 O 31.9271 1.93865 0.961534 0
M  V30 321 C 32.5221 2.44973 -2.34037 0
M  V30 322 C 31.0811 2.98372 -2.29458 0
M  V30 323 C 30.2281 1.71595 -2.17831 0
M  V30 324 H 33.1791 0.571256 -1.48062 0
M  V30 325 H 33.2001 3.24471 -1.98744 0
M  V30 326 H 32.7121 2.00276 -3.32432 0
M  V30 327 H 30.8131 3.47443 -1.34589 0
M  V30 328 H 30.9261 3.53939 -3.229 0
M  V30 329 H 29.2901 1.94547 -1.64388 0
M  V30 330 H 30.0731 1.29001 -3.18141 0
M  V30 331 N 32.5182 1.22032 0.997298 0
M  V30 332 C 33.4482 1.01065 2.10495 0
M  V30 333 C 34.4292 -0.0669542 1.69968 0
M  V30 334 O 35.6142 0.0943987 1.9397 0
M  V30 335 C 32.7442 0.582874 3.42374 0
M  V30 336 C 31.6982 1.60592 3.96729 0
M  V30 337 C 31.0242 1.03412 5.24605 0
M  V30 338 C 32.3242 2.99478 4.27914 0
M  V30 339 H 34.0182 1.93708 2.28292 0
M  V30 340 H 31.5642 0.932761 1.09707 0
M  V30 341 H 33.5172 0.423332 4.19268 0
M  V30 342 H 32.2412 -0.379213 3.24391 0
M  V30 343 H 30.9002 1.75316 3.21963 0
M  V30 344 H 30.5482 0.063518 5.0296 0
M  V30 345 H 30.2482 1.71754 5.61938 0
M  V30 346 H 31.7722 0.886066 6.04137 0
M  V30 347 H 33.1862 2.88153 4.95622 0
M  V30 348 H 31.5832 3.64903 4.76409 0
M  V30 349 H 32.6532 3.49742 3.3587 0
M  V30 350 N 33.9963 -1.19345 1.0293 0
M  V30 351 C 35.2443 -1.88665 0.724574 0
M  V30 352 C 35.5653 -1.80036 -0.749144 0
M  V30 353 O 34.8353 -1.2111 -1.53978 0
M  V30 354 H 33.4153 -0.698406 0.265025 0
M  V30 355 H 36.0773 -1.44885 1.30362 0
M  V30 356 H 35.1733 -2.94987 1.01926 0
M  V30 357 N 35.4744 -0.807222 -1.35358 0
M  V30 358 C 36.7024 -0.400377 -2.02989 0
M  V30 359 C 37.1174 0.988859 -1.60832 0
M  V30 360 O 36.4744 1.63729 -0.806175 0
M  V30 361 C 36.5254 -0.474867 -3.58368 0
M  V30 362 O 36.2464 -1.80933 -3.98992 0
M  V30 363 C 37.7474 -0.0609112 -4.43258 0
M  V30 364 H 34.9674 -0.162587 -0.651004 0
M  V30 365 H 37.5114 -1.09102 -1.72965 0
M  V30 366 H 35.6664 0.167534 -3.87038 0
M  V30 367 H 36.0804 -1.77256 -4.9364 0
M  V30 368 H 37.5544 -0.164145 -5.51756 0
M  V30 369 H 38.0314 0.993831 -4.27808 0
M  V30 370 H 38.6374 -0.676492 -4.19885 0
M  V30 371 N 36.9525 1.47285 -0.560781 0
M  V30 372 C 38.3685 1.58065 -0.22081 0
M  V30 373 C 38.5685 1.55892 1.27671 0
M  V30 374 O 37.6245 1.46422 2.0571 0
M  V30 375 C 38.9375 2.88418 -0.850625 0
M  V30 376 C 40.4855 3.02009 -0.822184 0
M  V30 377 C 40.9605 4.35066 -1.43113 0
M  V30 378 N 42.4515 4.41711 -1.39448 0
M  V30 379 C 43.1865 5.43237 -1.83525 0
M  V30 380 N 42.6825 6.51555 -2.35474 0
M  V30 381 N 44.4755 5.34304 -1.74574 0
M  V30 382 H 36.6265 1.46941 -1.53369 0
M  V30 383 H 38.8895 0.699558 -0.639783 0
M  V30 384 H 38.5955 2.95755 -1.9032 0
M  V30 385 H 38.4695 3.75612 -0.345773 0
M  V30 386 H 40.8565 2.94266 0.221714 0
M  V30 387 H 40.9375 2.16347 -1.36483 0
M  V30 388 H 40.5815 4.43565 -2.47412 0
M  V30 389 H 40.5115 5.19465 -0.863899 0
M  V30 390 H 43.0025 3.64027 -1.01452 0
M  V30 391 H 43.3155 7.25203 -2.67021 0
M  V30 392 H 41.6605 6.52435 -2.39487 0
M  V30 393 H 44.8515 4.48581 -1.33763 0
M  V30 394 H 45.0245 6.13288 -2.09242 0
M  V30 395 N 38.4306 0.297415 1.54768 0
M  V30 396 C 39.3606 -0.573494 2.26348 0
M  V30 397 C 40.3416 -1.14085 1.26169 0
M  V30 398 O 41.5266 -1.17086 1.54934 0
M  V30 399 C 38.6566 -1.74716 3.00153 0
M  V30 400 C 37.6106 -1.31032 4.07449 0
M  V30 401 C 36.9366 -2.56887 4.68949 0
M  V30 402 C 38.2366 -0.444183 5.20408 0
M  V30 403 H 39.9306 0.0235131 2.99391 0
M  V30 404 H 37.4766 0.0127488 1.43994 0
M  V30 405 H 39.4296 -2.3625 3.48947 0
M  V30 406 H 38.1536 -2.37035 2.24682 0
M  V30 407 H 36.8126 -0.718066 3.59499 0
M  V30 408 H 36.4606 -3.17512 3.90122 0
M  V30 409 H 36.1606 -2.2836 5.41411 0
M  V30 410 H 37.6846 -3.19229 5.20505 0
M  V30 411 H 39.0986 -0.9651 5.65118 0
M  V30 412 H 37.4956 -0.252846 5.99567 0
M  V30 413 H 38.5656 0.531609 4.81977 0
M  V30 414 N 39.9087 -1.5758 0.0250728 0
M  V30 415 C 41.1567 -1.91255 -0.653151 0
M  V30 416 C 41.4777 -0.901691 -1.729 0
M  V30 417 O 40.7477 0.0573785 -1.95816 0
M  V30 418 H 39.3277 -0.705942 -0.244243 0
M  V30 419 H 41.9897 -1.94767 0.0719209 0
M  V30 420 H 41.0857 -2.91752 -1.10847 0
M  V30 421 N 41.3868 0.248026 -1.55636 0
M  V30 422 C 42.6338 0.976224 -1.77415 0
M  V30 423 C 42.9618 1.85361 -0.589193 0
M  V30 424 O 42.2168 1.90973 0.427529 0
M  V30 425 C 42.5158 1.86819 -3.04686 0
M  V30 426 C 42.1818 1.14625 -4.36087 0
M  V30 427 C 40.8438 0.946723 -4.71795 0
M  V30 428 C 43.1958 0.634463 -5.17324 0
M  V30 429 C 40.5238 0.223091 -5.86276 0
M  V30 430 C 42.8758 -0.0756959 -6.32555 0
M  V30 431 C 41.5398 -0.286711 -6.66884 0
M  V30 432 H 40.8098 0.357226 -0.649208 0
M  V30 433 H 43.4568 0.246415 -1.89908 0
M  V30 434 H 41.7618 2.66502 -2.872 0
M  V30 435 H 43.4588 2.43329 -3.18735 0
M  V30 436 H 40.0488 1.3117 -4.08035 0
M  V30 437 H 44.2328 0.77616 -4.90193 0
M  V30 438 H 39.4888 0.0491185 -6.1138 0
M  V30 439 H 43.6628 -0.479899 -6.94745 0
M  V30 440 H 41.2898 -0.849389 -7.5544 0
M  V30 441 N 42.8649 1.48995 0.513639 0
M  V30 442 C 44.1129 1.57531 1.26604 0
M  V30 443 C 44.4339 0.258236 1.93283 0
M  V30 444 O 43.7039 -0.721502 1.8213 0
M  V30 445 H 42.2839 0.580387 0.470276 0
M  V30 446 H 44.9459 1.85552 0.596373 0
M  V30 447 H 44.0419 2.36486 2.03669 0
M  V30 448 N 44.343 -0.763751 1.37857 0
M  V30 449 C 45.591 -1.51957 1.33243 0
M  V30 450 C 45.912 -1.94835 -0.0801709 0
M  V30 451 O 45.182 -1.66894 -1.02582 0
M  V30 452 H 43.762 -0.563626 0.49024 0
M  V30 453 H 46.424 -0.908504 1.7243 0
M  V30 454 H 45.52 -2.41523 1.97669 0
M  V30 455 N 45.8211 -1.22559 -0.990812 0
M  V30 456 C 47.0681 -1.05141 -1.73065 0
M  V30 457 C 47.3961 0.413191 -1.9006 0
M  V30 458 O 46.6511 1.32257 -1.44245 0
M  V30 459 C 46.9501 -1.71011 -3.13831 0
M  V30 460 C 46.6161 -3.20911 -3.16745 0
M  V30 461 C 45.2781 -3.61812 -3.17247 0
M  V30 462 C 47.6301 -4.16846 -3.12872 0
M  V30 463 C 44.9581 -4.97127 -3.1158 0
M  V30 464 C 47.3101 -5.5214 -3.08746 0
M  V30 465 C 45.9741 -5.92419 -3.07565 0
M  V30 466 H 45.2441 -0.384738 -0.633291 0
M  V30 467 H 47.8911 -1.5235 -1.16025 0
M  V30 468 H 46.1961 -1.16133 -3.74193 0
M  V30 469 H 47.8931 -1.55023 -3.69823 0
M  V30 470 H 44.4831 -2.88344 -3.17105 0
M  V30 471 H 48.6671 -3.86263 -3.11632 0
M  V30 472 H 43.9231 -5.27562 -3.09012 0
M  V30 473 H 48.0971 -6.26201 -3.04705 0
M  V30 474 H 45.7241 -6.97236 -3.02929 0
M  V30 475 N 47.2992 1.18797 -1.03562 0
M  V30 476 C 48.2292 2.24472 -0.643019 0
M  V30 477 C 49.2102 1.66433 0.351283 0
M  V30 478 O 50.3952 1.92803 0.232505 0
M  V30 479 C 47.5252 3.473 4.24935e-05 0
M  V30 480 C 46.4792 4.18055 -0.917257 0
M  V30 481 C 45.8052 5.34519 -0.138941 0
M  V30 482 C 47.1052 4.72109 -2.23407 0
M  V30 483 H 48.7992 2.57566 -1.52643 0
M  V30 484 H 46.3452 1.23806 -0.735394 0
M  V30 485 H 48.2982 4.20426 0.286383 0
M  V30 486 H 47.0222 3.13424 0.918299 0
M  V30 487 H 45.6812 3.46821 -1.1879 0
M  V30 488 H 45.3292 4.96891 0.781562 0
M  V30 489 H 45.0292 5.82794 -0.750005 0
M  V30 490 H 46.5532 6.10438 0.1405 0
M  V30 491 H 47.9672 5.36955 -2.00879 0
M  V30 492 H 46.3642 5.30897 -2.79765 0
M  V30 493 H 47.4342 3.89807 -2.88407 0
M  V30 494 N 48.7773 0.814389 1.34928 0
M  V30 495 C 50.0053 0.411136 2.02774 0
M  V30 496 C 50.4203 -0.980316 1.61354 0
M  V30 497 O 49.7773 -1.63299 0.814847 0
M  V30 498 C 49.8283 0.493865 3.58111 0
M  V30 499 O 49.5493 1.83047 3.98027 0
M  V30 500 C 51.0503 0.0844174 4.4322 0
M  V30 501 H 48.2703 0.166037 0.650133 0
M  V30 502 H 50.8143 1.10018 1.72384 0
M  V30 503 H 48.9693 -0.147006 3.87121 0
M  V30 504 H 49.3833 1.79872 4.92693 0
M  V30 505 H 50.8573 0.193404 5.51661 0
M  V30 506 H 51.3343 -0.97113 4.28329 0
M  V30 507 H 51.9403 0.69875 4.19521 0
M  V30 508 N 50.2554 -1.46986 0.568584 0
M  V30 509 C 51.6714 -1.57946 0.229189 0
M  V30 510 C 51.8714 -1.56567 -1.26843 0
M  V30 511 O 50.9274 -1.47511 -2.04931 0
M  V30 512 C 52.2404 -2.87963 0.865909 0
M  V30 513 C 53.7884 -3.01568 0.838188 0
M  V30 514 C 54.2634 -4.34301 1.45419 0
M  V30 515 N 55.7544 -4.40965 1.41788 0
M  V30 516 C 56.4894 -5.42256 1.86403 0
M  V30 517 N 55.9854 -6.50297 2.38926 0
M  V30 518 N 57.7784 -5.3337 1.77405 0
M  V30 519 H 49.9294 -1.46126 1.54146 0
M  V30 520 H 52.1924 -0.696156 0.643484 0
M  V30 521 H 51.8984 -2.94742 1.91886 0
M  V30 522 H 51.7724 -3.75423 0.365687 0
M  V30 523 H 54.1594 -2.94379 -0.206106 0
M  V30 524 H 54.2404 -2.1562 1.37629 0
M  V30 525 H 53.8844 -4.42247 2.49761 0
M  V30 526 H 53.8144 -5.19 0.891435 0
M  V30 527 H 56.3054 -3.63484 1.03381 0
M  V30 528 H 56.6184 -7.23777 2.70863 0
M  V30 529 H 54.9634 -6.51155 2.42944 0
M  V30 530 H 58.1544 -4.47865 1.3614 0
M  V30 531 H 58.3274 -6.12169 2.12492 0
M  V30 532 N 51.7335 -0.305618 -1.54608 0
M  V30 533 C 52.9815 0.301701 -1.99835 0
M  V30 534 C 53.3025 1.54054 -1.19551 0
M  V30 535 O 52.5725 1.93702 -0.292658 0
M  V30 536 H 51.1525 0.114468 -0.738178 0
M  V30 537 H 53.8145 -0.418016 -1.90364 0
M  V30 538 H 52.9105 0.570548 -3.06841 0
M  V30 539 N 53.2116 1.57565 -0.0334293 0
M  V30 540 C 54.4586 1.91978 0.644272 0
M  V30 541 C 54.7866 0.910231 1.71887 0
M  V30 542 O 54.0416 -0.0801961 1.95536 0
M  V30 543 C 54.3406 3.33112 1.29504 0
M  V30 544 C 54.0066 4.49537 0.350388 0
M  V30 545 C 52.6686 4.81115 0.0903974 0
M  V30 546 C 55.0206 5.20347 -0.298032 0
M  V30 547 C 52.3486 5.8086 -0.825746 0
M  V30 548 C 54.7006 6.2107 -1.20226 0
M  V30 549 C 53.3646 6.51088 -1.4711 0
M  V30 550 H 52.6346 0.702496 0.235756 0
M  V30 551 H 55.2816 1.91259 -0.0961176 0
M  V30 552 H 53.5866 3.30113 2.11028 0
M  V30 553 H 55.2836 3.57011 1.82603 0
M  V30 554 H 51.8736 4.24883 0.563205 0
M  V30 555 H 56.0576 4.96178 -0.110234 0
M  V30 556 H 51.3136 6.02461 -1.04169 0
M  V30 557 H 55.4876 6.75057 -1.71086 0
M  V30 558 H 53.1146 7.28193 -2.18264 0
M  V30 559 N 54.6897 -0.239769 1.55765 0
M  V30 560 C 56.1007 -0.808263 1.68297 0
M  V30 561 C 56.4517 -1.85736 0.632181 0
M  V30 562 O 55.5767 -2.15277 -0.220204 0
M  V30 563 C 56.1717 -1.47284 3.05111 0
M  V30 564 C 54.7307 -1.98895 3.19559 0
M  V30 565 C 53.8777 -0.842575 2.64189 0
M  V30 566 H 56.8287 -0.0154422 1.58692 0
M  V30 567 H 56.8497 -2.34111 2.99954 0
M  V30 568 H 56.3617 -0.709053 3.81568 0
M  V30 569 H 54.4627 -2.78132 2.47938 0
M  V30 570 H 54.5757 -2.18143 4.26556 0
M  V30 571 H 52.9397 -1.24501 2.22197 0
M  V30 572 H 53.7227 -0.0917552 3.43177 0
M  V30 573 N 56.1678 -1.49265 -0.50573 0
M  V30 574 C 57.1148 -1.65585 -1.6078 0
M  V30 575 C 58.0848 -0.497396 -1.58478 0
M  V30 576 O 59.2698 -0.72385 -1.76536 0
M  V30 577 C 56.4098 -1.72408 -2.98948 0
M  V30 578 C 55.5228 -2.99525 -3.11301 0
M  V30 579 C 54.6578 -2.97356 -4.40174 0
M  V30 580 C 53.6968 -4.19074 -4.46143 0
M  V30 581 N 52.8338 -4.14841 -5.66437 0
M  V30 582 H 57.6738 -2.59688 -1.46172 0
M  V30 583 H 55.2108 -1.28761 -0.711261 0
M  V30 584 H 57.1688 -1.74344 -3.79025 0
M  V30 585 H 55.7988 -0.817753 -3.1227 0
M  V30 586 H 54.8508 -3.07222 -2.24318 0
M  V30 587 H 56.1628 -3.89518 -3.11572 0
M  V30 588 H 55.3168 -2.97829 -5.28567 0
M  V30 589 H 54.0558 -2.05133 -4.42461 0
M  V30 590 H 53.0608 -4.1885 -3.56153 0
M  V30 591 H 54.2858 -5.12483 -4.45575 0
M  V30 592 H 52.2318 -3.25453 -5.69575 0
M  V30 593 H 52.1488 -4.98564 -5.68304 0
M  V30 594 H 53.4168 -4.1941 -6.57051 0
M  V30 595 N 57.6459 0.756429 -1.3826 0
M  V30 596 C 58.6089 1.85176 -1.35065 0
M  V30 597 C 59.6089 1.58818 -0.251703 0
M  V30 598 O 60.7989 1.66615 -0.508433 0
M  V30 599 C 57.9309 3.22596 -1.10201 0
M  V30 600 H 59.1239 1.89417 -2.3251 0
M  V30 601 H 56.6769 0.95783 -1.23512 0
M  V30 602 H 57.4119 3.24025 -0.133504 0
M  V30 603 H 57.1969 3.43122 -1.89762 0
M  V30 604 H 58.6869 4.02673 -1.10654 0
M  V30 605 N 59.124 1.23083 0.984299 0
M  V30 606 C 60.087 1.00979 2.05757 0
M  V30 607 C 61.087 -0.0269573 1.60777 0
M  V30 608 O 62.277 0.212403 1.729 0
M  V30 609 C 59.409 0.527072 3.36801 0
M  V30 610 H 60.602 1.9622 2.26799 0
M  V30 611 H 58.155 1.05072 1.15714 0
M  V30 612 H 58.89 -0.429294 3.21446 0
M  V30 613 H 58.675 1.27515 3.70786 0
M  V30 614 H 60.165 0.392942 4.15747 0
M  V30 615 N 60.6021 -1.18246 1.0419 0
M  V30 616 C 61.5651 -2.20128 0.638452 0
M  V30 617 C 62.5651 -1.57885 -0.304805 0
M  V30 618 O 63.7551 -1.73967 -0.0900369 0
M  V30 619 C 60.8871 -3.4084 -0.0637751 0
M  V30 620 H 62.0801 -2.57336 1.54007 0
M  V30 621 H 59.6331 -1.32152 0.834598 0
M  V30 622 H 60.3681 -3.09166 -0.979136 0
M  V30 623 H 60.1531 -3.8726 0.614198 0
M  V30 624 H 61.6431 -4.16274 -0.332512 0
M  V30 625 N 62.0802 -0.821533 -1.34494 0
M  V30 626 C 63.4912 -0.467956 -1.8074 0
M  V30 627 C 63.8422 1.01151 -1.68116 0
M  V30 628 O 62.9672 1.78707 -1.22036 0
M  V30 629 C 63.5622 -0.842627 -3.28154 0
M  V30 630 C 62.1212 -0.541439 -3.72485 0
M  V30 631 C 61.2682 -1.06028 -2.56229 0
M  V30 632 H 64.2192 -1.01183 -1.22261 0
M  V30 633 H 64.2402 -0.145876 -3.8022 0
M  V30 634 H 63.7522 -1.91945 -3.37311 0
M  V30 635 H 61.8532 0.526034 -3.68868 0
M  V30 636 H 61.9662 -1.08453 -4.66663 0
M  V30 637 H 60.3302 -0.481892 -2.501 0
M  V30 638 H 61.1132 -2.14352 -2.68157 0
M  V30 639 N 63.5583 1.46682 -0.576371 0
M  V30 640 C 64.8043 2.02712 -0.0596221 0
M  V30 641 C 65.1373 1.44765 1.29448 0
M  V30 642 O 64.4123 0.610355 1.84675 0
M  V30 643 C 64.6953 3.60098 0.0129503 0
M  V30 644 C 64.5483 4.28441 -1.3696 0
M  V30 645 C 65.8673 4.34224 0.71678 0
M  V30 646 H 62.9863 0.736637 -0.0231407 0
M  V30 647 H 65.6283 1.74898 -0.742351 0
M  V30 648 H 63.7783 3.83926 0.594378 0
M  V30 649 H 65.4503 4.15896 -1.9957 0
M  V30 650 H 63.6933 3.8805 -1.93907 0
M  V30 651 H 64.3643 5.3716 -1.27135 0
M  V30 652 H 66.8403 4.15503 0.222908 0
M  V30 653 H 65.7163 5.43936 0.73657 0
M  V30 654 H 65.9773 4.04823 1.77682 0
M  V30 655 N 65.0364 0.313813 1.54444 0
M  V30 656 C 66.4524 -0.0391619 1.59552 0
M  V30 657 C 66.6524 -1.51322 1.33056 0
M  V30 658 O 65.7084 -2.26782 1.11022 0
M  V30 659 C 67.0214 0.370302 2.98411 0
M  V30 660 C 68.5694 0.320139 3.11358 0
M  V30 661 C 69.0444 0.704617 4.52547 0
M  V30 662 N 70.5354 0.657645 4.58508 0
M  V30 663 C 71.2704 0.927453 5.6585 0
M  V30 664 N 70.7664 1.26389 6.81174 0
M  V30 665 N 72.5594 0.853662 5.5558 0
M  V30 666 H 64.7104 1.27433 1.69925 0
M  V30 667 H 66.9734 0.517511 0.794284 0
M  V30 668 H 66.6794 1.39694 3.22767 0
M  V30 669 H 66.5534 -0.269619 3.76235 0
M  V30 670 H 68.9404 -0.697275 2.86744 0
M  V30 671 H 69.0214 0.99486 2.35661 0
M  V30 672 H 68.6654 1.7199 4.77893 0
M  V30 673 H 68.5954 0.00768843 5.26599 0
M  V30 674 H 71.0864 0.409067 3.75679 0
M  V30 675 H 71.3994 1.4554 7.58972 0
M  V30 676 H 69.7444 1.30206 6.82694 0
M  V30 677 H 72.9354 0.590383 4.64362 0
M  V30 678 H 73.1084 1.0673 6.3915 0
M  V30 679 N 66.5145 -1.57545 0.0417849 0
M  V30 680 C 67.4645 -2.07483 -0.945247 0
M  V30 681 C 68.4485 -0.977983 -1.27767 0
M  V30 682 O 69.6405 -1.24142 -1.26166 0
M  V30 683 C 66.7695 -2.61576 -2.22335 0
M  V30 684 C 65.8555 -3.78213 -1.91874 0
M  V30 685 N 66.2465 -4.88344 -1.31733 0
M  V30 686 C 64.5445 -3.8694 -2.21796 0
M  V30 687 C 65.2455 -5.69462 -1.1869 0
M  V30 688 N 64.2215 -5.16771 -1.68666 0
M  V30 689 H 68.0235 -2.90029 -0.475441 0
M  V30 690 H 65.5375 -1.61581 -0.162911 0
M  V30 691 H 67.5345 -2.95651 -2.93932 0
M  V30 692 H 66.1945 -1.80465 -2.69931 0
M  V30 693 H 67.2055 -5.08335 -0.990729 0
M  V30 694 H 63.8825 -3.16757 -2.71977 0
M  V30 695 H 65.2725 -6.68023 -0.720793 0
M  V30 696 N 67.9926 0.231505 -1.5589 0
M  V30 697 C 69.2176 0.978689 -1.82856 0
M  V30 698 C 69.6426 1.77559 -0.620846 0
M  V30 699 O 69.0006 1.76119 0.430305 0
M  V30 700 C 69.0486 1.87997 -3.07716 0
M  V30 701 O 68.1526 2.97393 -2.85712 0
M  V30 702 H 67.4936 0.277663 -0.603158 0
M  V30 703 H 70.0236 0.24783 -2.03093 0
M  V30 704 H 70.0336 2.2917 -3.37558 0
M  V30 705 H 68.7086 1.29417 -3.95252 0
M  V30 706 H 67.2856 2.60238 -2.67078 0
M  V30 707 N 69.4707 1.49531 0.497807 0
M  V30 708 C 70.7187 1.58865 1.24926 0
M  V30 709 C 71.0397 0.278721 1.92998 0
M  V30 710 O 70.3097 -0.702144 1.82885 0
M  V30 711 H 68.8897 0.585343 0.464094 0
M  V30 712 H 71.5517 1.86174 0.57666 0
M  V30 713 H 70.6477 2.38633 2.01149 0
M  V30 714 N 70.9488 -0.749086 1.3866 0
M  V30 715 C 72.2258 -1.4992 1.25632 0
M  V30 716 C 72.6058 -2.10633 -0.140317 0
M  V30 717 O 71.9538 -1.97437 -1.15025 0
M  V30 718 C 72.1638 -2.56195 2.36992 0
M  V30 719 C 73.5118 -3.22972 2.75634 0
M  V30 720 O 74.5358 -2.66502 2.36337 0
M  V30 721 O 73.3948 -4.25122 3.43415 0
M  V30 722 H 70.4888 -0.665067 0.491544 0
M  V30 723 H 73.0348 -0.784113 1.50498 0
M  V30 724 H 71.8068 -2.09612 3.30422 0
M  V30 725 H 71.4298 -3.35279 2.13714 0
M  V30 726 N 72.4269 -1.23603 -0.977757 0
M  V30 727 C 73.3769 -0.986664 -2.05545 0
M  V30 728 C 74.3609 0.0683009 -1.60755 0
M  V30 729 O 75.5529 -0.144162 -1.76412 0
M  V30 730 C 72.6819 -0.582623 -3.3832 0
M  V30 731 C 71.7679 -1.67313 -3.89701 0
M  V30 732 N 72.1589 -2.90394 -4.14132 0
M  V30 733 C 70.4569 -1.54832 -4.18262 0
M  V30 734 C 71.1579 -3.61017 -4.56116 0
M  V30 735 N 70.1339 -2.8854 -4.60701 0
M  V30 736 H 73.9359 -1.92139 -2.22396 0
M  V30 737 H 71.4499 -1.1358 -1.16074 0
M  V30 738 H 73.4469 -0.38524 -4.15116 0
M  V30 739 H 72.1069 0.34503 -3.22862 0
M  V30 740 H 73.1179 -3.26673 -4.01877 0
M  V30 741 H 69.7949 -0.687969 -4.11793 0
M  V30 742 H 71.1849 -4.66544 -4.83514 0
M  V30 743 N 73.905 1.17692 -1.04816 0
M  V30 744 C 75.153 1.87488 -0.754497 0
M  V30 745 C 75.474 1.81205 0.720407 0
M  V30 746 O 74.744 1.23544 1.52032 0
M  V30 747 H 73.324 0.694101 -0.276102 0
M  V30 748 H 75.986 1.42793 -1.32651 0
M  V30 749 H 75.082 2.93328 -1.06606 0
M  V30 750 N 75.3831 0.828654 1.34056 0
M  V30 751 C 76.3301 0.252567 2.29414 0
M  V30 752 C 77.3001 -0.62588 1.53857 0
M  V30 753 O 78.4851 -0.566312 1.82202 0
M  V30 754 C 75.6251 -0.574831 3.40279 0
M  V30 755 C 74.7381 0.326499 4.30764 0
M  V30 756 C 73.8731 -0.511016 5.28736 0
M  V30 757 C 72.9121 0.389342 6.1086 0
M  V30 758 N 72.0491 -0.409439 7.00905 0
M  V30 759 H 76.8891 1.07108 2.78086 0
M  V30 760 H 74.4261 0.539677 1.36843 0
M  V30 761 H 76.3841 -1.06992 4.03248 0
M  V30 762 H 75.0141 -1.35841 2.92826 0
M  V30 763 H 74.0661 0.939837 3.68607 0
M  V30 764 H 75.3781 1.01857 4.88289 0
M  V30 765 H 74.5321 -1.07035 5.97184 0
M  V30 766 H 73.2711 -1.23657 4.71763 0
M  V30 767 H 72.2761 0.960769 5.4134 0
M  V30 768 H 73.5011 1.1131 6.69916 0
M  V30 769 H 71.4471 -1.11856 6.46393 0
M  V30 770 H 71.3641 0.224126 7.55668 0
M  V30 771 H 72.6321 -0.951336 7.73673 0
M  V30 772 N 76.8612 -1.46375 0.584142 0
M  V30 773 C 78.2772 -1.57694 0.245929 0
M  V30 774 C 78.4772 -1.57903 -1.25175 0
M  V30 775 O 77.5332 -1.49676 -2.03355 0
M  V30 776 C 78.8462 -2.87028 0.896402 0
M  V30 777 C 80.3942 -3.00662 0.870127 0
M  V30 778 C 80.8692 -4.32734 1.50017 0
M  V30 779 N 82.3602 -4.39436 1.46458 0
M  V30 780 C 83.0952 -5.40248 1.92144 0
M  V30 781 N 82.5912 -6.47726 2.4581 0
M  V30 782 N 84.3842 -5.31459 1.83052 0
M  V30 783 H 76.5352 -1.44483 1.55687 0
M  V30 784 H 78.7982 -0.689291 0.650831 0
M  V30 785 H 78.5042 -2.9269 1.95002 0
M  V30 786 H 78.3782 -3.75014 0.405486 0
M  V30 787 H 80.7652 -2.94581 -0.174871 0
M  V30 788 H 80.8462 -2.14148 1.39908 0
M  V30 789 H 80.4902 -4.39573 2.54437 0
M  V30 790 H 80.4202 -5.18025 0.946432 0
M  V30 791 H 82.9112 -3.62367 1.07231 0
M  V30 792 H 83.2242 -7.20863 2.78525 0
M  V30 793 H 81.5692 -6.48542 2.49836 0
M  V30 794 H 84.7602 -4.46396 1.40883 0
M  V30 795 H 84.9332 -6.09881 2.18973 0
M  V30 796 N 78.3393 -0.321999 -1.54275 0
M  V30 797 C 79.2693 0.537411 -2.27231 0
M  V30 798 C 80.2503 1.12064 -1.27968 0
M  V30 799 O 81.4353 1.14606 -1.56777 0
M  V30 800 C 78.5653 1.69919 -3.02894 0
M  V30 801 C 77.5193 1.24534 -4.09482 0
M  V30 802 C 76.8453 2.49394 -4.72977 0
M  V30 803 C 78.1453 0.361335 -5.21049 0
M  V30 804 H 79.8393 -0.0711406 -2.99315 0
M  V30 805 H 77.3853 -0.0356555 -1.43956 0
M  V30 806 H 79.3383 2.30668 -3.52662 0
M  V30 807 H 78.0623 2.33431 -2.28424 0
M  V30 808 H 76.7213 0.660782 -3.60596 0
M  V30 809 H 76.3693 3.11265 -3.95124 0
M  V30 810 H 76.0693 2.19718 -5.44975 0
M  V30 811 H 77.5933 3.10908 -5.25517 0
M  V30 812 H 79.0073 0.875072 -5.66582 0
M  V30 813 H 77.4043 0.157428 -5.99893 0
M  V30 814 H 78.4743 -0.60822 -4.8107 0
M  V30 815 N 79.8174 1.5752 -0.0501392 0
M  V30 816 C 81.0644 1.9265 0.623874 0
M  V30 817 C 81.3924 0.928411 1.70912 0
M  V30 818 O 80.6474 -0.0594525 1.9561 0
M  V30 819 C 80.9464 3.34467 1.25963 0
M  V30 820 C 80.6124 4.49883 0.302689 0
M  V30 821 C 79.2744 4.81184 0.0393636 0
M  V30 822 C 81.6264 5.20002 -0.353205 0
M  V30 823 C 78.9544 5.79951 -0.887308 0
M  V30 824 C 81.3064 6.1976 -1.26806 0
M  V30 825 C 79.9704 6.49491 -1.54007 0
M  V30 826 H 79.2404 0.704957 0.228292 0
M  V30 827 H 81.8874 1.91146 -0.116398 0
M  V30 828 H 80.1924 3.32333 2.07514 0
M  V30 829 H 81.8894 3.58928 1.78806 0
M  V30 830 H 78.4794 4.25457 0.518109 0
M  V30 831 H 82.6634 4.96033 -0.162854 0
M  V30 832 H 77.9194 6.01322 -1.10553 0
M  V30 833 H 82.0934 6.73205 -1.78236 0
M  V30 834 H 79.7204 7.25837 -2.25976 0
M  V30 835 N 81.2955 -0.223234 1.56011 0
M  V30 836 C 82.5415 -0.949279 1.79211 0
M  V30 837 C 82.8745 -1.84054 0.619494 0
M  V30 838 O 82.1495 -1.90726 -0.381317 0
M  V30 839 C 82.4325 -1.78965 3.12479 0
M  V30 840 C 82.2855 -0.924997 4.40186 0
M  V30 841 C 83.6045 -2.76774 3.42175 0
M  V30 842 H 80.7235 -0.343676 0.651963 0
M  V30 843 H 83.3655 -0.218253 1.88742 0
M  V30 844 H 81.5155 -2.41291 3.04485 0
M  V30 845 H 83.1875 -0.318615 4.60198 0
M  V30 846 H 81.4305 -0.230344 4.33188 0
M  V30 847 H 82.1015 -1.54735 5.29869 0
M  V30 848 H 84.5775 -2.24584 3.50287 0
M  V30 849 H 83.4535 -3.32678 4.36597 0
M  V30 850 H 83.7145 -3.54429 2.64258 0
M  V30 851 N 82.7736 -1.49793 -0.48987 0
M  V30 852 C 84.0226 -1.59085 -1.23995 0
M  V30 853 C 84.3356 -0.287907 -1.9347 0
M  V30 854 O 85.5416 -0.259506 -2.70257 0
M  V30 855 C 83.9976 -2.80736 -2.252 0
M  V30 856 C 83.6056 -4.17833 -1.61614 0
M  V30 857 C 85.3496 -2.99364 -3.00967 0
M  V30 858 C 83.2566 -5.30693 -2.60996 0
M  V30 859 H 82.1866 -0.592372 -0.466488 0
M  V30 860 H 84.8376 -1.76197 -0.51252 0
M  V30 861 H 83.2196 -2.57142 -3.01154 0
M  V30 862 H 84.3936 -4.51608 -0.915774 0
M  V30 863 H 82.7086 -4.04656 -0.981977 0
M  V30 864 H 85.3056 -3.80851 -3.75308 0
M  V30 865 H 85.6486 -2.10356 -3.59244 0
M  V30 866 H 86.1816 -3.2305 -2.32128 0
M  V30 867 H 82.9206 -6.21796 -2.07485 0
M  V30 868 H 82.4406 -5.01359 -3.2924 0
M  V30 869 H 84.1196 -5.6049 -3.23202 0
M  V30 870 N 84.2517 0.741722 -1.39055 0
M  V30 871 C 85.6677 1.04638 -1.20512 0
M  V30 872 C 85.8677 2.01405 -0.0620218 0
M  V30 873 O 84.9237 2.45547 0.588457 0
M  V30 874 C 86.2367 1.6151 -2.53643 0
M  V30 875 C 87.7847 1.73623 -2.6043 0
M  V30 876 C 88.2597 2.33906 -3.93767 0
M  V30 877 N 89.7507 2.41323 -3.9537 0
M  V30 878 C 90.4857 2.88888 -4.95309 0
M  V30 879 N 89.9817 3.36401 -6.05645 0
M  V30 880 N 91.7747 2.88037 -4.82692 0
M  V30 881 H 83.9257 0.0998155 -2.12165 0
M  V30 882 H 86.1887 0.106907 -0.941953 0
M  V30 883 H 85.8947 0.978739 -3.37807 0
M  V30 884 H 85.7687 2.60411 -2.72885 0
M  V30 885 H 88.1557 2.36384 -1.76655 0
M  V30 886 H 88.2367 0.733945 -2.45045 0
M  V30 887 H 87.8807 1.71776 -4.7797 0
M  V30 888 H 87.8107 3.34799 -4.06469 0
M  V30 889 H 90.3017 2.07734 -3.15682 0
M  V30 890 H 90.6147 3.71186 -6.77821 0
M  V30 891 H 88.9597 3.34427 -6.09248 0
M  V30 892 H 92.1507 2.50237 -3.95599 0
M  V30 893 H 92.3237 3.24792 -5.60726 0
M  V30 894 N 85.7298 1.2412 0.971189 0
M  V30 895 C 87.1408 1.07236 1.52831 0
M  V30 896 C 87.4918 -0.357352 1.92918 0
M  V30 897 O 86.6168 -1.24528 1.76979 0
M  V30 898 C 87.2118 1.94043 2.77728 0
M  V30 899 C 85.7708 1.81394 3.29808 0
M  V30 900 C 84.9178 1.89189 2.02738 0
M  V30 901 H 87.8688 1.37648 0.789864 0
M  V30 902 H 87.8898 1.47066 3.5093 0
M  V30 903 H 87.4018 2.98093 2.4852 0
M  V30 904 H 85.5028 0.801634 3.63874 0
M  V30 905 H 85.6158 2.65294 3.98944 0
M  V30 906 H 83.9798 1.32877 2.17292 0
M  V30 907 H 84.7628 2.94812 1.759 0
M  V30 908 N 87.2079 -1.17134 1.05439 0
M  V30 909 C 88.4329 -1.91913 0.786396 0
M  V30 910 C 88.8579 -1.7643 -0.652234 0
M  V30 911 O 88.2159 -1.08372 -1.45345 0
M  V30 912 C 88.2639 -3.40921 1.17497 0
M  V30 913 O 87.3679 -4.11244 0.308589 0
M  V30 914 H 86.7089 -0.598215 0.288158 0
M  V30 915 H 89.2389 -1.48457 1.4079 0
M  V30 916 H 89.2489 -3.91668 1.14281 0
M  V30 917 H 87.9239 -3.5151 2.22292 0
M  V30 918 H 86.5009 -3.70731 0.40157 0
M  V30 919 N 88.686 -0.835752 -1.33615 0
M  V30 920 C 90.102 -0.523139 -1.50783 0
M  V30 921 C 90.302 0.950171 -1.77691 0
M  V30 922 O 89.358 1.73411 -1.83534 0
M  V30 923 C 90.671 -1.39378 -2.66448 0
M  V30 924 C 92.219 -1.39223 -2.80332 0
M  V30 925 C 92.694 -2.24765 -3.99055 0
M  V30 926 N 94.185 -2.22458 -4.06284 0
M  V30 927 C 94.92 -2.85386 -4.97336 0
M  V30 928 N 94.416 -3.57354 -5.93523 0
M  V30 929 N 96.209 -2.74872 -4.90308 0
M  V30 930 H 88.36 -1.78952 -1.14411 0
M  V30 931 H 90.623 -0.763297 -0.562212 0
M  V30 932 H 90.329 -2.44061 -2.53234 0
M  V30 933 H 90.203 -1.0676 -3.61776 0
M  V30 934 H 92.59 -0.353136 -2.92979 0
M  V30 935 H 92.671 -1.75846 -1.85773 0
M  V30 936 H 92.315 -3.28732 -3.87167 0
M  V30 937 H 92.245 -1.85485 -4.92852 0
M  V30 938 H 94.736 -1.70119 -3.37443 0
M  V30 939 H 95.049 -4.02584 -6.59656 0
M  V30 940 H 93.394 -3.61461 -5.93608 0
M  V30 941 H 96.585 -2.18213 -4.14126 0
M  V30 942 H 96.758 -3.24199 -5.61069 0
M  V30 943 N 90.1641 1.46063 -0.591896 0
M  V30 944 C 91.4111 2.02338 -0.0809991 0
M  V30 945 C 91.7391 1.46228 1.28249 0
M  V30 946 O 90.9941 0.620818 1.85592 0
M  V30 947 C 91.2931 3.57391 0.0249813 0
M  V30 948 C 90.9591 4.32583 -1.27211 0
M  V30 949 C 89.6211 4.52844 -1.62745 0
M  V30 950 C 91.9731 4.75687 -2.13005 0
M  V30 951 C 89.3011 5.13462 -2.83855 0
M  V30 952 C 91.6531 5.37644 -3.3335 0
M  V30 953 C 90.3171 5.5613 -3.69155 0
M  V30 954 H 89.5871 0.740407 -0.0296397 0
M  V30 955 H 92.2341 1.75321 -0.770374 0
M  V30 956 H 90.5391 3.83597 0.797537 0
M  V30 957 H 92.2361 3.98621 0.436184 0
M  V30 958 H 88.8261 4.17116 -0.985499 0
M  V30 959 H 93.0101 4.59782 -1.86855 0
M  V30 960 H 88.2661 5.25965 -3.11722 0
M  V30 961 H 92.4401 5.7 -4.00092 0
M  V30 962 H 90.0671 6.0287 -4.63089 0
M  V30 963 N 91.6422 0.330177 1.54103 0
M  V30 964 C 92.8722 -0.271784 2.04805 0
M  V30 965 C 93.2802 -1.45816 1.20559 0
M  V30 966 O 92.6232 -1.82247 0.2306 0
M  V30 967 C 92.6852 -0.763238 3.51305 0
M  V30 968 C 92.3492 0.301705 4.56003 0
M  V30 969 C 93.3462 1.13999 5.07248 0
M  V30 970 C 91.0312 0.451793 5.00264 0
M  V30 971 C 93.0252 2.11402 6.01322 0
M  V30 972 C 90.7122 1.42924 5.94151 0
M  V30 973 C 91.7102 2.25882 6.44567 0
M  V30 974 O 91.3982 3.21965 7.3661 0
M  V30 975 H 91.1302 -0.058693 0.673447 0
M  V30 976 H 93.6842 0.476395 1.99799 0
M  V30 977 H 91.9142 -1.56244 3.5373 0
M  V30 978 H 93.6032 -1.28427 3.85047 0
M  V30 979 H 94.3692 1.03505 4.73827 0
M  V30 980 H 90.2482 -0.184044 4.60632 0
M  V30 981 H 93.7922 2.76192 6.40596 0
M  V30 982 H 89.6892 1.53479 6.26988 0
M  V30 983 H 90.4572 3.17281 7.54503 0
M  V30 984 N 93.1203 -1.57491 0.0584922 0
M  V30 985 C 94.3973 -1.84346 -0.653918 0
M  V30 986 C 94.7773 -0.948355 -1.88599 0
M  V30 987 O 94.1253 -0.0112403 -2.28497 0
M  V30 988 C 94.3353 -3.34239 -1.00425 0
M  V30 989 C 95.6833 -4.01431 -1.38342 0
M  V30 990 O 96.7073 -3.38907 -1.09637 0
M  V30 991 O 95.5663 -5.11683 -1.91943 0
M  V30 992 H 92.6603 -0.761112 -0.323478 0
M  V30 993 H 95.2063 -1.6947 0.0884125 0
M  V30 994 H 93.9783 -3.91089 -0.128625 0
M  V30 995 H 93.6013 -3.54329 -1.80378 0
M  V30 996 N 94.5984 0.214957 -1.56127 0
M  V30 997 C 96.0144 0.564948 -1.49267 0
M  V30 998 C 96.2144 1.86827 -0.754838 0
M  V30 999 O 95.2704 2.50745 -0.297198 0
M  V30 1000 C 96.5834 0.638071 -2.93852 0
M  V30 1001 C 98.1314 0.728253 -3.0441 0
M  V30 1002 C 98.6064 0.832663 -4.50367 0
M  V30 1003 N 100.097 0.896712 -4.54437 0
M  V30 1004 C 100.832 0.997324 -5.6466 0
M  V30 1005 N 100.328 1.06147 -6.8462 0
M  V30 1006 N 102.121 1.03297 -5.52527 0
M  V30 1007 H 94.2724 -0.640211 -2.02522 0
M  V30 1008 H 96.5354 -0.225507 -0.920788 0
M  V30 1009 H 96.2414 -0.250126 -3.50809 0
M  V30 1010 H 96.1154 1.49947 -3.46115 0
M  V30 1011 H 98.5024 1.60689 -2.47514 0
M  V30 1012 H 98.5834 -0.158952 -2.55306 0
M  V30 1013 H 98.2274 -0.0415417 -5.07883 0
M  V30 1014 H 98.1574 1.73538 -4.97184 0
M  V30 1015 H 100.648 0.857188 -3.6805 0
M  V30 1016 H 100.961 1.1382 -7.64372 0
M  V30 1017 H 99.3064 1.03049 -6.87318 0
M  V30 1018 H 102.497 0.979558 -4.57736 0
M  V30 1019 H 102.67 1.10793 -6.38458 0
M  V30 1020 N 96.0765 1.50051 0.48192 0
M  V30 1021 C 97.4925 1.37237 0.814756 0
M  V30 1022 C 97.6925 0.420109 1.97072 0
M  V30 1023 O 96.7485 -0.141246 2.52105 0
M  V30 1024 C 98.0615 2.78375 1.13701 0
M  V30 1025 C 99.6095 2.87213 1.2441 0
M  V30 1026 C 100.084 4.29161 1.59954 0
M  V30 1027 N 101.575 4.32061 1.66967 0
M  V30 1028 C 102.31 5.38879 1.95952 0
M  V30 1029 N 101.806 6.55918 2.23031 0
M  V30 1030 N 103.599 5.26312 1.97363 0
M  V30 1031 H 95.7505 2.10546 -0.28005 0
M  V30 1032 H 98.0135 0.945921 -0.0627454 0
M  V30 1033 H 97.7195 3.49845 0.360787 0
M  V30 1034 H 97.5935 3.14941 2.07586 0
M  V30 1035 H 99.9805 2.15969 2.01101 0
M  V30 1036 H 100.061 2.54204 0.285299 0
M  V30 1037 H 99.7055 5.00938 0.838067 0
M  V30 1038 H 99.6355 4.59648 2.56966 0
M  V30 1039 H 102.126 3.47661 1.48123 0
M  V30 1040 H 102.439 7.33139 2.44391 0
M  V30 1041 H 100.784 6.59112 2.20447 0
M  V30 1042 H 103.975 4.33876 1.75697 0
M  V30 1043 H 104.148 6.09649 2.19618 0
M  V30 1044 N 97.5546 -0.734337 1.39446 0
M  V30 1045 C 98.8016 -1.49391 1.36706 0
M  V30 1046 C 99.1296 -1.94465 -0.0367813 0
M  V30 1047 O 98.3846 -1.67154 -1.01774 0
M  V30 1048 C 98.6836 -2.74711 2.28623 0
M  V30 1049 C 98.3496 -2.48501 3.76242 0
M  V30 1050 C 97.0116 -2.41062 4.16464 0
M  V30 1051 C 99.3636 -2.26098 4.69606 0
M  V30 1052 C 96.6916 -2.09262 5.48112 0
M  V30 1053 C 99.0436 -1.95814 6.01531 0
M  V30 1054 C 97.7076 -1.86845 6.40816 0
M  V30 1055 H 96.9776 -0.546661 0.500243 0
M  V30 1056 H 99.6246 -0.842788 1.71957 0
M  V30 1057 H 97.9296 -3.44569 1.86492 0
M  V30 1058 H 99.6266 -3.32741 2.23796 0
M  V30 1059 H 96.2166 -2.55169 3.44364 0
M  V30 1060 H 100.401 -2.30812 4.39363 0
M  V30 1061 H 95.6566 -2.00841 5.77471 0
M  V30 1062 H 99.8306 -1.77488 6.73403 0
M  V30 1063 H 97.4576 -1.6197 7.42745 0
M  V30 1064 N 99.0327 -1.24633 -0.964593 0
M  V30 1065 C 99.9627 -1.06611 -2.07741 0
M  V30 1066 C 100.944 0.0218666 -1.70086 0
M  V30 1067 O 102.129 -0.145793 -1.93652 0
M  V30 1068 C 99.2587 -0.673444 -3.40708 0
M  V30 1069 C 98.2127 -1.71054 -3.92332 0
M  V30 1070 C 97.5387 -1.17285 -5.21678 0
M  V30 1071 C 98.8387 -3.10718 -4.19824 0
M  V30 1072 H 100.533 -1.99693 -2.23076 0
M  V30 1073 H 98.0787 -0.96152 -1.07195 0
M  V30 1074 H 100.032 -0.534345 -4.17998 0
M  V30 1075 H 98.7557 0.293073 -3.25282 0
M  V30 1076 H 97.4147 -1.83791 -3.17201 0
M  V30 1077 H 97.0627 -0.196847 -5.02615 0
M  V30 1078 H 96.7627 -1.86592 -5.57187 0
M  V30 1079 H 98.2867 -1.04593 -6.01575 0
M  V30 1080 H 99.7007 -3.01192 -4.87808 0
M  V30 1081 H 98.0977 -3.77406 -4.66567 0
M  V30 1082 H 99.1677 -3.58524 -3.26479 0
M  V30 1083 N 100.511 1.16574 -1.06058 0
M  V30 1084 C 101.458 2.20883 -0.669263 0
M  V30 1085 C 102.428 1.62729 0.332918 0
M  V30 1086 O 103.613 1.895 0.222346 0
M  V30 1087 C 100.753 3.45049 -0.0593572 0
M  V30 1088 C 99.8658 4.17458 -1.11143 0
M  V30 1089 C 99.0008 5.29135 -0.467916 0
M  V30 1090 C 98.0398 5.93343 -1.50369 0
M  V30 1091 N 97.1768 6.96516 -0.883706 0
M  V30 1092 H 102.017 2.53709 -1.5632 0
M  V30 1093 H 99.5538 1.24616 -0.781625 0
M  V30 1094 H 101.512 4.16033 0.311771 0
M  V30 1095 H 100.142 3.12781 0.797992 0
M  V30 1096 H 99.1938 3.45101 -1.60029 0
M  V30 1097 H 100.506 4.61307 -1.89731 0
M  V30 1098 H 99.6598 6.06684 -0.0436871 0
M  V30 1099 H 98.3988 4.86443 0.349864 0
M  V30 1100 H 97.4038 5.14517 -1.93784 0
M  V30 1101 H 98.6288 6.38114 -2.32352 0
M  V30 1102 H 96.5748 6.55943 -0.086595 0
M  V30 1103 H 96.4918 7.38723 -1.607 0
M  V30 1104 H 97.7598 7.77993 -0.484543 0
M  V30 1105 N 101.989 0.842826 1.3317 0
M  V30 1106 C 102.919 0.294028 2.31641 0
M  V30 1107 C 103.9 -0.600401 1.59151 0
M  V30 1108 O 105.085 -0.523124 1.87022 0
M  V30 1109 C 102.215 -0.528416 3.43257 0
M  V30 1110 C 101.169 0.27056 4.27144 0
M  V30 1111 C 100.495 -0.675881 5.30411 0
M  V30 1112 C 101.795 1.48981 5.00602 0
M  V30 1113 H 103.489 1.11681 2.77791 0
M  V30 1114 H 101.035 0.538478 1.33553 0
M  V30 1115 H 102.988 -0.922674 4.11175 0
M  V30 1116 H 101.712 -1.38445 2.95805 0
M  V30 1117 H 100.371 0.646427 3.60856 0
M  V30 1118 H 100.019 -1.52842 4.79216 0
M  V30 1119 H 99.7189 -0.145374 5.8742 0
M  V30 1120 H 101.243 -1.06757 6.01195 0
M  V30 1121 H 102.657 1.16849 5.61266 0
M  V30 1122 H 101.054 1.95739 5.6728 0
M  V30 1123 H 102.124 2.25746 4.29147 0
M  V30 1124 N 103.467 -1.45747 0.599634 0
M  V30 1125 C 104.397 -2.33235 -0.111306 0
M  V30 1126 C 105.378 -1.46359 -0.866781 0
M  V30 1127 O 106.563 -1.75146 -0.838904 0
M  V30 1128 C 103.693 -3.28932 -1.11451 0
M  V30 1129 C 102.647 -4.25381 -0.472772 0
M  V30 1130 C 101.973 -5.1071 -1.58365 0
M  V30 1131 C 103.273 -5.18831 0.600948 0
M  V30 1132 H 104.967 -2.92927 0.61919 0
M  V30 1133 H 102.513 -1.40857 0.299215 0
M  V30 1134 H 104.466 -3.89002 -1.62036 0
M  V30 1135 H 103.19 -2.67381 -1.8755 0
M  V30 1136 H 101.849 -3.66598 0.0121472 0
M  V30 1137 H 101.497 -4.45533 -2.33473 0
M  V30 1138 H 101.197 -5.7604 -1.15982 0
M  V30 1139 H 102.721 -5.73647 -2.09194 0
M  V30 1140 H 104.135 -5.73019 0.179491 0
M  V30 1141 H 102.532 -5.92595 0.946076 0
M  V30 1142 H 103.602 -4.6174 1.48068 0
M  V30 1143 N 104.945 -0.338344 -1.53925 0
M  V30 1144 C 106.361 0.0137736 -1.59594 0
M  V30 1145 C 106.561 1.49186 -1.35447 0
M  V30 1146 O 105.617 2.24987 -1.14616 0
M  V30 1147 C 106.93 -0.41773 -2.97784 0
M  V30 1148 C 108.478 -0.369633 -3.1081 0
M  V30 1149 C 108.953 -0.776524 -4.51369 0
M  V30 1150 N 110.444 -0.730506 -4.57403 0
M  V30 1151 C 111.179 -1.01736 -5.64303 0
M  V30 1152 N 110.675 -1.3721 -6.79077 0
M  V30 1153 N 112.468 -0.941942 -5.54151 0
M  V30 1154 H 104.619 -1.3012 -1.67876 0
M  V30 1155 H 106.882 -0.530082 -0.78595 0
M  V30 1156 H 106.588 -1.44811 -3.20504 0
M  V30 1157 H 106.462 0.209729 -3.76616 0
M  V30 1158 H 108.849 0.651568 -2.87817 0
M  V30 1159 H 108.93 -1.03223 -2.34049 0
M  V30 1160 H 108.574 -1.79571 -4.75096 0
M  V30 1161 H 108.504 -0.0914649 -5.26521 0
M  V30 1162 H 110.995 -0.468783 -3.74981 0
M  V30 1163 H 111.308 -1.57597 -7.5656 0
M  V30 1164 H 109.653 -1.4105 -6.80536 0
M  V30 1165 H 112.844 -0.664184 -4.63364 0
M  V30 1166 H 113.017 -1.16884 -6.37371 0
M  V30 1167 N 106.423 1.57458 -0.0668435 0
M  V30 1168 C 107.67 1.93301 0.603406 0
M  V30 1169 C 107.998 0.946486 1.69917 0
M  V30 1170 O 107.253 -0.0387021 1.95662 0
M  V30 1171 C 107.552 3.35784 1.22409 0
M  V30 1172 C 107.218 4.50179 0.254955 0
M  V30 1173 C 105.88 4.81199 -0.0116746 0
M  V30 1174 C 108.232 5.19598 -0.408338 0
M  V30 1175 C 105.56 5.78978 -0.94877 0
M  V30 1176 C 107.912 6.18381 -1.33372 0
M  V30 1177 C 106.576 6.47821 -1.60887 0
M  V30 1178 H 105.846 0.707338 0.220802 0
M  V30 1179 H 108.493 1.91012 -0.136665 0
M  V30 1180 H 106.798 3.34515 2.03978 0
M  V30 1181 H 108.495 3.60804 1.74989 0
M  V30 1182 H 105.085 4.25983 0.472954 0
M  V30 1183 H 109.269 4.95832 -0.215456 0
M  V30 1184 H 104.525 6.00115 -1.16925 0
M  V30 1185 H 108.699 6.71277 -1.85367 0
M  V30 1186 H 106.326 7.23399 -2.33661 0
M  V30 1187 N 107.901 -0.206675 1.56239 0
M  V30 1188 C 109.131 -0.943975 1.83773 0
M  V30 1189 C 109.539 -1.77841 0.645703 0
M  V30 1190 O 108.882 -1.79403 -0.395008 0
M  V30 1191 C 108.944 -1.899 3.05251 0
M  V30 1192 C 108.608 -1.24764 4.39639 0
M  V30 1193 C 109.605 -0.630216 5.16066 0
M  V30 1194 C 107.29 -1.25496 4.8637 0
M  V30 1195 C 109.284 -0.0287946 6.37393 0
M  V30 1196 C 106.971 -0.649698 6.07637 0
M  V30 1197 C 107.969 -0.0376845 6.8299 0
M  V30 1198 O 107.657 0.55812 8.0196 0
M  V30 1199 H 107.389 -0.281508 0.614597 0
M  V30 1200 H 109.943 -0.222458 2.04192 0
M  V30 1201 H 108.173 -2.6599 2.80689 0
M  V30 1202 H 109.862 -2.5031 3.1953 0
M  V30 1203 H 110.628 -0.616785 4.81062 0
M  V30 1204 H 106.507 -1.72072 4.27683 0
M  V30 1205 H 110.051 0.449518 6.9615 0
M  V30 1206 H 105.948 -0.660592 6.42111 0
M  V30 1207 H 106.716 0.453891 8.17241 0
M  V30 1208 N 109.379 -1.50304 -0.473955 0
M  V30 1209 C 110.628 -1.60392 -1.22301 0
M  V30 1210 C 110.941 -0.308411 -1.93153 0
M  V30 1211 O 112.147 -0.288156 -2.69966 0
M  V30 1212 C 110.603 -2.83109 -2.2221 0
M  V30 1213 C 110.211 -4.19524 -1.57173 0
M  V30 1214 C 111.955 -3.0254 -2.97775 0
M  V30 1215 C 109.862 -5.33431 -2.55353 0
M  V30 1216 H 108.792 -0.597286 -0.460179 0
M  V30 1217 H 111.443 -1.76731 -0.493803 0
M  V30 1218 H 109.825 -2.60322 -2.9841 0
M  V30 1219 H 110.999 -4.52554 -0.867824 0
M  V30 1220 H 109.314 -4.05674 -0.939002 0
M  V30 1221 H 111.911 -3.84811 -3.71248 0
M  V30 1222 H 112.254 -2.14154 -3.56992 0
M  V30 1223 H 112.787 -3.25494 -2.28688 0
M  V30 1224 H 109.526 -6.23962 -2.00878 0
M  V30 1225 H 109.046 -5.04823 -3.23904 0
M  V30 1226 H 110.725 -5.63887 -3.17239 0
M  V30 1227 N 110.857 0.726932 -1.39834 0
M  V30 1228 C 111.82 1.82269 -1.38962 0
M  V30 1229 C 112.82 1.58248 -0.285334 0
M  V30 1230 O 114.01 1.65499 -0.54366 0
M  V30 1231 C 111.142 3.20186 -1.17019 0
M  V30 1232 H 112.335 1.84443 -2.36476 0
M  V30 1233 H 109.888 0.931416 -1.25516 0
M  V30 1234 H 110.623 3.23669 -0.202204 0
M  V30 1235 H 110.408 3.3902 -1.96998 0
M  V30 1236 H 111.898 4.00235 -1.1917 0
M  V30 1237 N 112.336 1.25143 0.95797 0
M  V30 1238 C 113.266 1.07711 2.07173 0
M  V30 1239 C 114.247 -0.0128462 1.70095 0
M  V30 1240 O 115.432 0.156061 1.93572 0
M  V30 1241 C 112.562 0.691503 3.40346 0
M  V30 1242 C 111.516 1.73132 3.9142 0
M  V30 1243 C 110.842 1.20049 5.21049 0
M  V30 1244 C 112.142 3.1294 4.1817 0
M  V30 1245 H 113.836 2.00873 2.22014 0
M  V30 1246 H 111.382 0.967191 1.06684 0
M  V30 1247 H 113.335 0.556505 4.17709 0
M  V30 1248 H 112.059 -0.275819 3.25433 0
M  V30 1249 H 110.718 1.8547 3.16222 0
M  V30 1250 H 110.366 0.223499 5.02503 0
M  V30 1251 H 110.066 1.89545 5.56189 0
M  V30 1252 H 111.59 1.07782 6.01012 0
M  V30 1253 H 113.004 3.03775 4.86203 0
M  V30 1254 H 111.401 3.79875 4.64559 0
M  V30 1255 H 112.471 3.6025 3.24573 0
M  V30 1256 N 113.814 -1.1601 1.06675 0
M  V30 1257 C 115.042 -1.90527 0.806667 0
M  V30 1258 C 115.457 -1.77643 -0.639396 0
M  V30 1259 O 114.814 -1.12369 -1.43803 0
M  V30 1260 C 114.865 -3.41106 1.19705 0
M  V30 1261 O 114.586 -3.53608 2.58636 0
M  V30 1262 C 116.087 -4.32663 0.965266 0
M  V30 1263 H 113.307 -0.604053 0.292166 0
M  V30 1264 H 115.851 -1.47026 1.4214 0
M  V30 1265 H 114.006 -3.82296 0.626774 0
M  V30 1266 H 114.42 -4.47011 2.74375 0
M  V30 1267 H 115.894 -5.36763 1.288 0
M  V30 1268 H 116.371 -4.39089 -0.0987936 0
M  V30 1269 H 116.977 -3.97206 1.52011 0
M  V30 1270 N 115.292 -0.849877 -1.32721 0
M  V30 1271 C 116.54 -0.450032 -1.97026 0
M  V30 1272 C 116.861 0.996604 -1.67609 0
M  V30 1273 O 116.131 1.6958 -0.980786 0
M  V30 1274 H 114.711 -0.163426 -0.728904 0
M  V30 1275 H 117.373 -1.08526 -1.6189 0
M  V30 1276 H 116.469 -0.591146 -3.0645 0
M  V30 1277 N 116.77 1.45427 -0.607355 0
M  V30 1278 C 118.019 2.01452 -0.100036 0
M  V30 1279 C 118.332 1.48159 1.27704 0
M  V30 1280 O 119.538 1.96159 1.87707 0
M  V30 1281 C 117.994 3.59672 -0.128158 0
M  V30 1282 C 117.602 4.21962 -1.50507 0
M  V30 1283 C 119.346 4.23262 0.323932 0
M  V30 1284 C 117.253 5.72333 -1.48959 0
M  V30 1285 H 116.183 0.75325 -0.0336299 0
M  V30 1286 H 118.834 1.66901 -0.76265 0
M  V30 1287 H 117.216 3.91411 0.601105 0
M  V30 1288 H 118.39 4.01796 -2.25602 0
M  V30 1289 H 116.705 3.70565 -1.89923 0
M  V30 1290 H 119.302 5.33522 0.354691 0
M  V30 1291 H 119.645 3.93921 1.34656 0
M  V30 1292 H 120.178 3.96239 -0.352056 0
M  V30 1293 H 116.917 6.06373 -2.48981 0
M  V30 1294 H 116.437 5.94691 -0.781214 0
M  V30 1295 H 118.116 6.35525 -1.21313 0
M  V30 1296 N 118.248 0.346503 1.53744 0
M  V30 1297 C 119.659 -0.136779 1.86198 0
M  V30 1298 C 120.01 -1.49749 1.26766 0
M  V30 1299 O 119.135 -2.08417 0.582355 0
M  V30 1300 C 119.73 -0.254966 3.37839 0
M  V30 1301 C 118.289 -0.682482 3.70161 0
M  V30 1302 C 117.436 0.181981 2.76702 0
M  V30 1303 H 120.387 0.565994 1.48264 0
M  V30 1304 H 120.408 -1.08195 3.64793 0
M  V30 1305 H 119.92 0.735526 3.81066 0
M  V30 1306 H 118.021 -1.68189 3.3248 0
M  V30 1307 H 118.134 -0.470326 4.76786 0
M  V30 1308 H 116.498 -0.34615 2.52337 0
M  V30 1309 H 117.281 1.16966 3.2276 0
M  V30 1310 N 119.726 -1.57421 0.075193 0
M  V30 1311 C 120.972 -1.93905 -0.594025 0
M  V30 1312 C 121.305 -0.955701 -1.69056 0
M  V30 1313 O 120.58 0.0145373 -1.94495 0
M  V30 1314 C 120.863 -3.40638 -1.1678 0
M  V30 1315 C 120.716 -4.49733 -0.0776792 0
M  V30 1316 C 122.035 -3.88259 -2.07228 0
M  V30 1317 H 119.154 -0.705105 -0.214466 0
M  V30 1318 H 121.796 -1.8947 0.141854 0
M  V30 1319 H 119.946 -3.44549 -1.79494 0
M  V30 1320 H 121.618 -4.57942 0.555573 0
M  V30 1321 H 119.861 -4.29751 0.591286 0
M  V30 1322 H 120.532 -5.49549 -0.519603 0
M  V30 1323 H 123.008 -3.86376 -1.54445 0
M  V30 1324 H 121.884 -4.91533 -2.44308 0
M  V30 1325 H 122.145 -3.26396 -2.98191 0
M  V30 1326 N 121.204 0.198386 -1.56346 0
M  V30 1327 C 122.167 1.22952 -1.93431 0
M  V30 1328 C 123.167 1.38611 -0.815092 0
M  V30 1329 O 124.357 1.36479 -1.08255 0
M  V30 1330 C 121.489 2.59946 -2.20546 0
M  V30 1331 H 122.682 0.912626 -2.85677 0
M  V30 1332 H 120.235 0.43977 -1.49986 0
M  V30 1333 H 120.97 2.96696 -1.30927 0
M  V30 1334 H 120.755 2.49953 -3.02102 0
M  V30 1335 H 122.245 3.3431 -2.50253 0
M  V30 1336 N 122.682 1.50554 0.465978 0
M  V30 1337 C 123.931 1.61038 1.21448 0
M  V30 1338 C 124.244 0.31865 1.92987 0
M  V30 1339 O 125.45 0.302469 2.6981 0
M  V30 1340 C 123.906 2.84283 2.20706 0
M  V30 1341 C 123.514 4.20352 1.54946 0
M  V30 1342 C 125.258 3.04115 2.96166 0
M  V30 1343 C 123.165 5.34778 2.5252 0
M  V30 1344 H 122.095 0.599718 0.457005 0
M  V30 1345 H 124.746 1.7699 0.484424 0
M  V30 1346 H 123.128 2.61901 2.97025 0
M  V30 1347 H 124.302 4.53008 0.843811 0
M  V30 1348 H 122.617 4.06167 0.917475 0
M  V30 1349 H 125.214 3.86774 3.69202 0
M  V30 1350 H 125.557 2.16045 3.55852 0
M  V30 1351 H 126.09 3.26702 2.26959 0
M  V30 1352 H 122.829 6.25018 1.97566 0
M  V30 1353 H 122.349 5.06534 3.21222 0
M  V30 1354 H 124.028 5.65561 3.14245 0
M  V30 1355 N 124.16 -0.719506 1.40217 0
M  V30 1356 C 125.407 -1.47933 1.38283 0
M  V30 1357 C 125.735 -1.94493 -0.0161536 0
M  V30 1358 O 124.99 -1.68224 -0.999956 0
M  V30 1359 C 125.289 -2.72271 2.31524 0
M  V30 1360 C 124.955 -2.44496 3.78857 0
M  V30 1361 C 123.617 -2.36631 4.18998 0
M  V30 1362 C 125.969 -2.21104 4.71977 0
M  V30 1363 C 123.297 -2.03437 5.503 0
M  V30 1364 C 125.649 -1.89423 6.03574 0
M  V30 1365 C 124.313 -1.80038 6.42762 0
M  V30 1366 H 123.583 -0.541325 0.506012 0
M  V30 1367 H 126.23 -0.824502 1.72842 0
M  V30 1368 H 124.535 -3.42572 1.90137 0
M  V30 1369 H 126.232 -3.30348 2.27313 0
M  V30 1370 H 122.822 -2.51503 3.47051 0
M  V30 1371 H 127.006 -2.26139 4.41786 0
M  V30 1372 H 122.262 -1.94705 5.79569 0
M  V30 1373 H 126.436 -1.70336 6.75247 0
M  V30 1374 H 124.063 -1.54083 7.44421 0
M  V30 1375 N 125.638 -1.25649 -0.95132 0
M  V30 1376 C 126.887 -1.09988 -1.69073 0
M  V30 1377 C 127.2 0.358355 -1.92289 0
M  V30 1378 O 128.406 0.635466 -2.63958 0
M  V30 1379 C 126.862 -1.92012 -3.044 0
M  V30 1380 C 126.47 -3.42347 -2.88968 0
M  V30 1381 C 128.214 -1.8493 -3.82101 0
M  V30 1382 C 126.121 -4.16655 -4.19705 0
M  V30 1383 H 125.051 -0.407993 -0.63408 0
M  V30 1384 H 127.702 -1.49873 -1.05879 0
M  V30 1385 H 126.084 -1.44952 -3.68517 0
M  V30 1386 H 127.258 -3.97104 -2.33762 0
M  V30 1387 H 125.573 -3.50557 -2.24719 0
M  V30 1388 H 128.17 -2.37739 -4.78941 0
M  V30 1389 H 128.513 -0.817883 -4.08187 0
M  V30 1390 H 129.046 -2.29758 -3.2474 0
M  V30 1391 H 125.785 -5.20224 -3.98807 0
M  V30 1392 H 125.305 -3.66681 -4.74663 0
M  V30 1393 H 126.984 -4.24551 -4.88227 0
M  V30 1394 N 127.117 1.15442 -1.07289 0
M  V30 1395 C 128.345 1.90096 -0.81676 0
M  V30 1396 C 128.76 1.7798 0.629966 0
M  V30 1397 O 128.117 1.1313 1.43206 0
M  V30 1398 C 128.168 3.40466 -1.21512 0
M  V30 1399 O 127.889 3.52232 -2.60508 0
M  V30 1400 C 129.39 4.32145 -0.988198 0
M  V30 1401 H 126.61 0.602495 -0.295366 0
M  V30 1402 H 129.154 1.4627 -1.42918 0
M  V30 1403 H 127.309 3.81958 -0.647039 0
M  V30 1404 H 127.723 4.45549 -2.76742 0
M  V30 1405 H 129.197 5.36072 -1.31645 0
M  V30 1406 H 129.674 4.39135 0.0755063 0
M  V30 1407 H 130.28 3.96395 -1.54115 0
M  V30 1408 N 128.595 0.856903 1.32268 0
M  V30 1409 C 129.525 0.31858 2.31316 0
M  V30 1410 C 130.506 -0.583487 1.59779 0
M  V30 1411 O 131.691 -0.503259 1.87566 0
M  V30 1412 C 128.821 -0.491979 3.43798 0
M  V30 1413 C 127.775 0.315849 4.26833 0
M  V30 1414 C 127.101 -0.619586 5.31098 0
M  V30 1415 C 128.401 1.54282 4.98993 0
M  V30 1416 H 130.095 1.14621 2.76591 0
M  V30 1417 H 127.641 0.552613 1.32974 0
M  V30 1418 H 129.594 -0.879012 4.1213 0
M  V30 1419 H 128.318 -1.35299 2.97257 0
M  V30 1420 H 126.977 0.684664 3.6015 0
M  V30 1421 H 126.625 -1.47751 4.8081 0
M  V30 1422 H 126.325 -0.0830621 5.87541 0
M  V30 1423 H 127.849 -1.00375 6.02293 0
M  V30 1424 H 129.263 1.22796 5.59995 0
M  V30 1425 H 127.66 2.01745 5.65172 0
M  V30 1426 H 128.73 2.30285 4.26728 0
M  V30 1427 N 130.073 -1.45103 0.615059 0
M  V30 1428 C 131.319 -2.02483 0.113347 0
M  V30 1429 C 131.652 -1.48146 -1.25564 0
M  V30 1430 O 130.927 -0.659104 -1.82992 0
M  V30 1431 C 131.21 -3.60005 0.0825278 0
M  V30 1432 C 131.063 -4.2466 1.48271 0
M  V30 1433 C 132.382 -4.35972 -0.601401 0
M  V30 1434 H 129.501 -0.735764 0.0426632 0
M  V30 1435 H 132.143 -1.72868 0.788461 0
M  V30 1436 H 130.293 -3.85367 -0.492378 0
M  V30 1437 H 131.965 -4.10458 2.10527 0
M  V30 1438 H 130.208 -3.82772 2.04127 0
M  V30 1439 H 130.879 -5.336 1.41332 0
M  V30 1440 H 133.355 -4.15947 -0.112666 0
M  V30 1441 H 132.231 -5.45697 -0.592097 0
M  V30 1442 H 132.492 -4.09391 -1.66887 0
M  V30 1443 N 131.551 -0.354651 -1.53558 0
M  V30 1444 C 132.499 0.512195 -2.26891 0
M  V30 1445 C 133.493 1.09263 -1.29452 0
M  V30 1446 O 134.699 1.03709 -1.47121 0
M  V30 1447 H 131.074 0.183878 -0.729173 0
M  V30 1448 H 133.045 -0.128202 -2.98124 0
M  V30 1449 C 131.794 1.64563 -3.06291 0
M  V30 1450 H 131.117 1.20829 -3.81104 0
M  V30 1451 H 132.557 2.22711 -3.60799 0
M  V30 1452 C 131.016 2.58158 -2.16462 0
M  V30 1453 O 131.546 3.60695 -1.76811 0
M  V30 1454 N 129.752 2.27096 -1.81317 0
M  V30 1455 H 129.299 1.43751 -2.1376 0
M  V30 1456 H 129.257 2.89975 -1.21498 0
M  V30 1457 N 133.029 1.57378 -0.0835403 0
M  V30 1458 C 134.275 1.94217 0.583733 0
M  V30 1459 C 134.608 0.964653 1.68547 0
M  V30 1460 O 133.883 -0.00422258 1.945 0
M  V30 1461 C 134.166 3.41253 1.14972 0
M  V30 1462 C 134.019 4.49768 0.0538277 0
M  V30 1463 C 135.338 3.89352 2.05166 0
M  V30 1464 H 132.457 0.706233 0.210724 0
M  V30 1465 H 135.099 1.89392 -0.1519 0
M  V30 1466 H 133.249 3.45496 1.77665 0
M  V30 1467 H 134.921 4.57641 -0.579851 0
M  V30 1468 H 133.164 4.29432 -0.614068 0
M  V30 1469 H 133.835 5.49817 0.490452 0
M  V30 1470 H 136.311 3.87189 1.52393 0
M  V30 1471 H 135.187 4.92822 2.41698 0
M  V30 1472 H 135.448 3.27973 2.96456 0
M  V30 1473 N 134.507 -0.190092 1.56449 0
M  V30 1474 C 135.754 -0.909705 1.80916 0
M  V30 1475 C 136.082 -1.83047 0.657583 0
M  V30 1476 O 135.337 -1.92428 -0.356356 0
M  V30 1477 C 135.636 -1.75382 3.1141 0
M  V30 1478 C 135.302 -0.983606 4.40041 0
M  V30 1479 C 133.964 -0.770967 4.74984 0
M  V30 1480 C 136.316 -0.442024 5.19322 0
M  V30 1481 C 133.644 -0.0053448 5.867 0
M  V30 1482 C 135.996 0.310412 6.31838 0
M  V30 1483 C 134.66 0.534023 6.6536 0
M  V30 1484 H 133.93 -0.332885 0.662019 0
M  V30 1485 H 136.577 -0.175762 1.90692 0
M  V30 1486 H 134.882 -2.55659 2.96893 0
M  V30 1487 H 136.579 -2.31331 3.27547 0
M  V30 1488 H 133.169 -1.15936 4.12622 0
M  V30 1489 H 137.353 -0.593693 4.92736 0
M  V30 1490 H 132.609 0.177825 6.11141 0
M  V30 1491 H 136.783 0.737419 6.92485 0
M  V30 1492 H 134.41 1.12918 7.51767 0
M  V30 1493 N 135.985 -1.50799 -0.457987 0
M  V30 1494 C 137.234 -1.6168 -1.20593 0
M  V30 1495 C 137.547 -0.32888 -1.92815 0
M  V30 1496 O 138.753 -0.316773 -2.69646 0
M  V30 1497 C 137.209 -2.8545 -2.19195 0
M  V30 1498 C 136.817 -4.21168 -1.52715 0
M  V30 1499 C 138.561 -3.05681 -2.94549 0
M  V30 1500 C 136.468 -5.3611 -2.4968 0
M  V30 1501 H 135.398 -0.602134 -0.453818 0
M  V30 1502 H 138.049 -1.77245 -0.475031 0
M  V30 1503 H 136.431 -2.63472 -2.95632 0
M  V30 1504 H 137.605 -4.53449 -0.819775 0
M  V30 1505 H 135.92 -4.06648 -0.895922 0
M  V30 1506 H 138.517 -3.88727 -3.67145 0
M  V30 1507 H 138.86 -2.17929 -3.54701 0
M  V30 1508 H 139.393 -3.27901 -2.25223 0
M  V30 1509 H 136.132 -6.26057 -1.94249 0
M  V30 1510 H 135.652 -5.0823 -3.18532 0
M  V30 1511 H 137.331 -5.6722 -3.11241 0
M  V30 1512 N 137.463 0.71206 -1.40597 0
M  V30 1513 C 138.711 1.46907 -1.38791 0
M  V30 1514 C 139.032 1.94998 0.00780391 0
M  V30 1515 O 138.302 1.70587 0.963174 0
M  V30 1516 H 136.882 0.545043 -0.51082 0
M  V30 1517 H 139.544 0.843882 -1.75683 0
M  V30 1518 H 138.64 2.34021 -2.06496 0
M  V30 1519 N 138.941 1.26152 0.944643 0
M  V30 1520 C 139.873 1.03199 2.04652 0
M  V30 1521 C 140.886 -0.00642356 1.62799 0
M  V30 1522 O 142.075 0.233263 1.76969 0
M  V30 1523 C 139.175 0.540111 3.34568 0
M  V30 1524 C 138.348 1.64697 4.05208 0
M  V30 1525 C 137.407 1.15374 5.13396 0
M  V30 1526 O 136.433 1.85013 5.38293 0
M  V30 1527 N 137.635 0.00031529 5.805 0
M  V30 1528 H 140.4 1.9808 2.2491 0
M  V30 1529 H 137.961 1.17491 1.11389 0
M  V30 1530 H 139.953 0.194401 4.04233 0
M  V30 1531 H 138.523 -0.315021 3.11009 0
M  V30 1532 H 137.743 2.16379 3.29506 0
M  V30 1533 H 139.031 2.3903 4.49157 0
M  V30 1534 H 138.429 -0.581336 5.62705 0
M  V30 1535 H 136.986 -0.286346 6.51171 0
M  V30 1536 N 140.419 -1.14872 1.07899 0
M  V30 1537 C 141.382 -2.17986 0.708161 0
M  V30 1538 C 142.382 -1.58775 -0.25442 0
M  V30 1539 O 143.572 -1.74166 -0.034645 0
M  V30 1540 C 140.704 -3.40871 0.0446929 0
M  V30 1541 H 141.897 -2.52306 1.62116 0
M  V30 1542 H 139.45 -1.2943 0.876218 0
M  V30 1543 H 140.185 -3.12124 -0.880281 0
M  V30 1544 H 139.97 -3.8511 0.737091 0
M  V30 1545 H 141.46 -4.17121 -0.19991 0
M  V30 1546 N 141.898 -0.863906 -1.31812 0
M  V30 1547 C 142.808 -0.318461 -2.32428 0
M  V30 1548 C 143.824 0.568496 -1.64451 0
M  V30 1549 O 145 0.46666 -1.95919 0
M  V30 1550 C 142.065 0.476355 -3.43412 0
M  V30 1551 C 141.126 -0.43784 -4.27061 0
M  V30 1552 C 140.359 0.319138 -5.32745 0
M  V30 1553 O 140.582 1.54799 -5.48993 0
M  V30 1554 O 139.516 -0.319861 -6.01049 0
M  V30 1555 H 143.342 -1.15229 -2.80991 0
M  V30 1556 H 140.927 -0.627103 -1.35602 0
M  V30 1557 H 142.809 0.927156 -4.11074 0
M  V30 1558 H 141.484 1.28683 -2.97022 0
M  V30 1559 H 140.391 -0.937013 -3.62175 0
M  V30 1560 H 141.724 -1.21375 -4.77 0
M  V30 1561 N 143.376 1.44774 -0.622745 0
M  V30 1562 C 144.306 2.33382 0.0741861 0
M  V30 1563 C 145.287 1.47719 0.843387 0
M  V30 1564 O 146.472 1.76458 0.810934 0
M  V30 1565 C 143.602 3.30663 1.06204 0
M  V30 1566 C 142.556 4.26079 0.405037 0
M  V30 1567 C 141.882 5.13165 1.5022 0
M  V30 1568 C 143.182 5.1781 -0.683414 0
M  V30 1569 H 144.876 2.91905 -0.665713 0
M  V30 1570 H 142.422 1.40363 -0.321587 0
M  V30 1571 H 144.375 3.9153 1.55827 0
M  V30 1572 H 143.099 2.70331 1.83272 0
M  V30 1573 H 141.758 3.66532 -0.0704683 0
M  V30 1574 H 141.406 4.49191 2.26355 0
M  V30 1575 H 141.106 5.77812 1.06803 0
M  V30 1576 H 142.63 5.76902 2.00041 0
M  V30 1577 H 144.044 5.72661 -0.270631 0
M  V30 1578 H 142.441 5.91015 -1.04023 0
M  V30 1579 H 143.511 4.59326 -1.55395 0
M  V30 1580 N 144.854 0.36279 1.53368 0
M  V30 1581 C 145.817 -0.472679 2.24273 0
M  V30 1582 C 146.817 -1.012 1.24961 0
M  V30 1583 O 148.007 -0.898194 1.49259 0
M  V30 1584 C 145.139 -1.66039 2.97731 0
M  V30 1585 H 146.332 0.14773 2.99536 0
M  V30 1586 H 143.885 0.114434 1.55881 0
M  V30 1587 H 144.62 -2.31896 2.26704 0
M  V30 1588 H 144.405 -1.28066 3.70596 0
M  V30 1589 H 145.895 -2.25252 3.51641 0
M  V30 1590 N 146.332 -1.57332 0.0918853 0
M  V30 1591 C 147.242 -2.17368 -0.882505 0
M  V30 1592 C 148.258 -1.14226 -1.31257 0
M  V30 1593 O 149.434 -1.46582 -1.38115 0
M  V30 1594 C 146.499 -2.73962 -2.12476 0
M  V30 1595 C 145.56 -3.92048 -1.7492 0
M  V30 1596 C 144.793 -4.45933 -2.93223 0
M  V30 1597 O 145.016 -3.98764 -4.07852 0
M  V30 1598 O 143.95 -5.36999 -2.71875 0
M  V30 1599 H 147.776 -3.01031 -0.40172 0
M  V30 1600 H 145.361 -1.48813 -0.132291 0
M  V30 1601 H 147.243 -3.10147 -2.85283 0
M  V30 1602 H 145.918 -1.93347 -2.59613 0
M  V30 1603 H 144.825 -3.6068 -0.993025 0
M  V30 1604 H 146.158 -4.74017 -1.32548 0
M  V30 1605 N 147.81 0.181792 -1.56548 0
M  V30 1606 C 149.059 0.898348 -1.8059 0
M  V30 1607 C 149.372 1.83862 -0.667379 0
M  V30 1608 O 150.578 2.59678 -0.792446 0
M  V30 1609 C 149.034 1.64791 -3.19956 0
M  V30 1610 C 148.642 0.751789 -4.41647 0
M  V30 1611 C 150.386 2.35331 -3.53298 0
M  V30 1612 C 148.293 1.50098 -5.72035 0
M  V30 1613 H 147.223 0.339194 -0.673397 0
M  V30 1614 H 149.874 0.151413 -1.82874 0
M  V30 1615 H 148.256 2.43921 -3.11959 0
M  V30 1616 H 149.43 -0.0018076 -4.608 0
M  V30 1617 H 147.745 0.156562 -4.16106 0
M  V30 1618 H 150.342 2.91958 -4.47956 0
M  V30 1619 H 150.685 3.10164 -2.77676 0
M  V30 1620 H 151.218 1.63154 -3.62803 0
M  V30 1621 H 147.957 0.795175 -6.50659 0
M  V30 1622 H 147.477 2.22817 -5.56878 0
M  V30 1623 H 149.156 2.05125 -6.13622 0
M  V30 1624 N 149.288 1.51039 0.449983 0
M  V30 1625 C 150.699 1.557 1.03026 0
M  V30 1626 C 151.05 0.372939 1.92623 0
M  V30 1627 O 150.175 -0.511771 2.10261 0
M  V30 1628 C 150.77 2.82171 1.87523 0
M  V30 1629 C 149.329 2.89444 2.40622 0
M  V30 1630 C 148.476 2.50228 1.19504 0
M  V30 1631 H 151.427 1.56999 0.231745 0
M  V30 1632 H 151.448 2.65219 2.72835 0
M  V30 1633 H 150.96 3.68331 1.22286 0
M  V30 1634 H 149.061 2.07685 3.0935 0
M  V30 1635 H 149.174 3.92816 2.74285 0
M  V30 1636 H 147.538 2.03139 1.53644 0
M  V30 1637 H 148.321 3.38719 0.558972 0
M  V30 1638 N 150.766 -0.704594 1.40972 0
M  V30 1639 C 151.676 -1.84856 1.44448 0
M  V30 1640 C 152.692 -1.70726 0.335961 0
M  V30 1641 O 153.868 -1.92799 0.582276 0
M  V30 1642 C 150.933 -3.20758 1.31587 0
M  V30 1643 C 149.994 -3.47063 2.52677 0
M  V30 1644 C 149.227 -4.76481 2.4042 0
M  V30 1645 O 149.45 -5.52341 1.42391 0
M  V30 1646 O 148.384 -5.03367 3.30007 0
M  V30 1647 H 152.21 -1.8488 2.40942 0
M  V30 1648 H 149.795 -0.85647 1.22413 0
M  V30 1649 H 151.677 -4.01913 1.26665 0
M  V30 1650 H 150.352 -3.21438 0.382049 0
M  V30 1651 H 149.259 -2.65873 2.63177 0
M  V30 1652 H 150.592 -3.5119 3.44858 0
M  V30 1653 N 152.244 -1.26651 -0.937939 0
M  V30 1654 C 153.492 -1.12165 -1.68118 0
M  V30 1655 C 153.813 0.334983 -1.92101 0
M  V30 1656 O 153.083 1.23583 -1.52 0
M  V30 1657 H 151.663 -0.412093 -0.623048 0
M  V30 1658 H 154.325 -1.59027 -1.12678 0
M  V30 1659 H 153.421 -1.64289 -2.6536 0
M  V30 1660 N 153.722 1.14298 -1.08507 0
M  V30 1661 C 154.952 1.88945 -0.835663 0
M  V30 1662 C 155.36 1.78894 0.615928 0
M  V30 1663 O 154.703 1.1468 1.43506 0
M  V30 1664 C 154.765 3.39585 -1.17994 0
M  V30 1665 C 154.429 3.7342 -2.63451 0
M  V30 1666 C 155.426 3.73454 -3.61702 0
M  V30 1667 C 153.111 4.03368 -2.99332 0
M  V30 1668 C 155.105 4.02961 -4.93864 0
M  V30 1669 C 152.792 4.32538 -4.31687 0
M  V30 1670 C 153.79 4.32318 -5.28763 0
M  V30 1671 O 153.478 4.6078 -6.58739 0
M  V30 1672 H 153.21 0.605307 -0.300965 0
M  V30 1673 H 155.764 1.45673 -1.44806 0
M  V30 1674 H 153.994 3.83315 -0.51055 0
M  V30 1675 H 155.683 3.9554 -0.911182 0
M  V30 1676 H 156.449 3.50403 -3.35325 0
M  V30 1677 H 152.328 4.02692 -2.24411 0
M  V30 1678 H 155.872 4.02704 -5.69627 0
M  V30 1679 H 151.769 4.55059 -4.57812 0
M  V30 1680 H 152.537 4.78492 -6.64069 0
M  V30 1681 N 155.201 0.870884 1.31352 0
M  V30 1682 C 156.447 0.482987 1.96965 0
M  V30 1683 C 156.78 -0.962462 1.68672 0
M  V30 1684 O 156.055 -1.6779 0.98371 0
M  V30 1685 C 156.338 0.741752 3.52378 0
M  V30 1686 C 156.191 2.2368 3.9024 0
M  V30 1687 C 157.51 0.208838 4.39604 0
M  V30 1688 H 154.629 0.176955 0.715441 0
M  V30 1689 H 157.271 1.09229 1.55464 0
M  V30 1690 H 155.421 0.223149 3.87859 0
M  V30 1691 H 157.093 2.82273 3.64856 0
M  V30 1692 H 155.336 2.70901 3.38814 0
M  V30 1693 H 156.007 2.3685 4.98604 0
M  V30 1694 H 158.483 0.652529 4.10952 0
M  V30 1695 H 157.359 0.419336 5.47296 0
M  V30 1696 H 157.62 -0.889275 4.33064 0
M  V30 1697 N 156.679 -1.44442 0.630414 0
M  V30 1698 C 158.09 -1.85434 0.217063 0
M  V30 1699 C 158.441 -1.52748 -1.23136 0
M  V30 1700 O 157.566 -0.965205 -1.93682 0
M  V30 1701 C 158.161 -3.36581 0.387168 0
M  V30 1702 C 156.72 -3.76389 0.0283297 0
M  V30 1703 C 155.867 -2.68296 0.700889 0
M  V30 1704 H 158.818 -1.34919 0.83562 0
M  V30 1705 H 158.839 -3.78657 -0.374086 0
M  V30 1706 H 158.351 -3.60339 1.44144 0
M  V30 1707 H 156.452 -3.58246 -1.02423 0
M  V30 1708 H 156.565 -4.77095 0.437892 0
M  V30 1709 H 154.929 -2.54335 0.136267 0
M  V30 1710 H 155.712 -2.94887 1.75774 0
M  V30 1711 N 158.157 -0.370918 -1.53173 0
M  V30 1712 C 159.067 0.480823 -2.2962 0
M  V30 1713 C 160.083 1.08789 -1.35798 0
M  V30 1714 O 161.259 1.09768 -1.68858 0
M  V30 1715 C 158.324 1.60227 -3.07454 0
M  V30 1716 C 157.385 1.0222 -4.16953 0
M  V30 1717 C 156.618 2.0902 -4.91066 0
M  V30 1718 O 156.841 3.30222 -4.65091 0
M  V30 1719 O 155.775 1.71778 -5.76867 0
M  V30 1720 H 159.601 -0.141421 -3.03371 0
M  V30 1721 H 157.186 -0.135146 -1.48787 0
M  V30 1722 H 159.068 2.25417 -3.56041 0
M  V30 1723 H 157.743 2.20982 -2.36535 0
M  V30 1724 H 156.65 0.334064 -3.72605 0
M  V30 1725 H 157.983 0.459131 -4.90054 0
M  V30 1726 N 159.635 1.57281 -0.100228 0
M  V30 1727 C 160.585 2.10848 0.86759 0
M  V30 1728 C 161.569 1.02473 1.24049 0
M  V30 1729 O 162.761 1.28739 1.21471 0
M  V30 1730 C 159.89 2.69648 2.12474 0
M  V30 1731 C 158.976 3.85074 1.77704 0
M  V30 1732 N 159.367 4.92897 1.13518 0
M  V30 1733 C 157.665 3.94905 2.07282 0
M  V30 1734 C 158.366 5.73475 0.974735 0
M  V30 1735 N 157.342 5.22675 1.4937 0
M  V30 1736 H 161.144 2.91594 0.367471 0
M  V30 1737 H 158.658 1.62074 0.102829 0
M  V30 1738 H 160.655 3.06356 2.82757 0
M  V30 1739 H 159.315 1.90359 2.63047 0
M  V30 1740 H 160.326 5.11662 0.801381 0
M  V30 1741 H 157.003 3.26633 2.60033 0
M  V30 1742 H 158.393 6.70238 0.472364 0
M  V30 1743 N 161.113 -0.173488 1.56642 0
M  V30 1744 C 162.359 -0.887108 1.83035 0
M  V30 1745 C 162.714 -1.79965 0.680461 0
M  V30 1746 O 162.007 -1.88854 -0.323225 0
M  V30 1747 C 162.201 -1.72069 3.13252 0
M  V30 1748 C 162.03 -0.89035 4.40798 0
M  V30 1749 C 160.8 -0.566282 5.02117 0
M  V30 1750 C 162.998 -0.232921 5.13772 0
M  V30 1751 N 160.98 0.280427 6.13259 0
M  V30 1752 C 162.351 0.475046 6.18177 0
M  V30 1753 C 164.406 -0.150863 4.97671 0
M  V30 1754 C 163.109 1.25729 7.08227 0
M  V30 1755 C 165.135 0.618039 5.88162 0
M  V30 1756 C 164.497 1.31438 6.92029 0
M  V30 1757 H 160.596 -0.303303 0.720785 0
M  V30 1758 H 163.18 -0.154244 1.94088 0
M  V30 1759 H 161.351 -2.42499 3.03395 0
M  V30 1760 H 163.083 -2.37545 3.2765 0
M  V30 1761 H 159.838 -0.895852 4.6505 0
M  V30 1762 H 160.262 0.694027 6.73433 0
M  V30 1763 H 164.904 -0.674868 4.17379 0
M  V30 1764 H 162.622 1.79265 7.87966 0
M  V30 1765 H 166.208 0.683173 5.77775 0
M  V30 1766 H 165.088 1.89981 7.6084 0
M  V30 1767 N 162.591 -1.51276 -0.441967 0
M  V30 1768 C 163.501 -1.75092 -1.56141 0
M  V30 1769 C 164.517 -0.634963 -1.62001 0
M  V30 1770 O 165.693 -0.916686 -1.79329 0
M  V30 1771 C 162.758 -1.86666 -2.92158 0
M  V30 1772 C 161.819 -3.10506 -2.96453 0
M  V30 1773 C 161.052 -3.21519 -4.25982 0
M  V30 1774 O 161.275 -2.38586 -5.18105 0
M  V30 1775 O 160.209 -4.14465 -4.36466 0
M  V30 1776 H 164.035 -2.70044 -1.38961 0
M  V30 1777 H 161.62 -1.35722 -0.624499 0
M  V30 1778 H 163.502 -1.96292 -3.72891 0
M  V30 1779 H 162.177 -0.949014 -3.09476 0
M  V30 1780 H 161.084 -3.06363 -2.14692 0
M  V30 1781 H 162.417 -4.01945 -2.84079 0
M  V30 1782 N 164.069 0.697108 -1.41344 0
M  V30 1783 C 165.299 1.48377 -1.43763 0
M  V30 1784 C 165.707 1.89156 -0.0408726 0
M  V30 1785 O 165.05 1.57239 0.949812 0
M  V30 1786 C 165.112 2.7781 -2.2817 0
M  V30 1787 C 164.776 2.59244 -3.76353 0
M  V30 1788 C 165.773 2.25292 -4.68551 0
M  V30 1789 C 163.458 2.74933 -4.20378 0
M  V30 1790 C 165.452 2.07264 -6.02761 0
M  V30 1791 C 163.139 2.56521 -5.54653 0
M  V30 1792 C 164.137 2.22737 -6.4566 0
M  V30 1793 O 163.825 2.04485 -7.77458 0
M  V30 1794 H 163.557 0.463842 -0.491759 0
M  V30 1795 H 166.111 0.865934 -1.86255 0
M  V30 1796 H 164.341 3.41995 -1.8049 0
M  V30 1797 H 166.03 3.39608 -2.22309 0
M  V30 1798 H 166.796 2.12787 -4.35829 0
M  V30 1799 H 162.675 3.00213 -3.49848 0
M  V30 1800 H 166.219 1.80817 -6.73759 0
M  V30 1801 H 162.116 2.68616 -5.86955 0
M  V30 1802 H 162.884 2.1926 -7.88586 0
M  V30 1803 N 165.547 1.27147 0.931209 0
M  V30 1804 C 166.777 1.15914 1.71019 0
M  V30 1805 C 167.185 -0.287112 1.87009 0
M  V30 1806 O 166.528 -1.20761 1.38429 0
M  V30 1807 C 166.59 1.76647 3.13107 0
M  V30 1808 C 166.254 3.25807 3.20467 0
M  V30 1809 C 167.251 4.22489 3.02983 0
M  V30 1810 C 164.936 3.66452 3.43538 0
M  V30 1811 C 166.93 5.57794 3.08454 0
M  V30 1812 C 164.617 5.01888 3.48643 0
M  V30 1813 C 165.615 5.97369 3.31119 0
M  V30 1814 O 165.303 7.30337 3.35952 0
M  V30 1815 H 165.035 0.404062 0.54195 0
M  V30 1816 H 167.589 1.68457 1.17521 0
M  V30 1817 H 165.819 1.18578 3.68071 0
M  V30 1818 H 167.508 1.60179 3.72958 0
M  V30 1819 H 168.274 3.92425 2.85004 0
M  V30 1820 H 164.153 2.92611 3.5623 0
M  V30 1821 H 167.697 6.32298 2.94694 0
M  V30 1822 H 163.594 5.31609 3.66145 0
M  V30 1823 H 164.362 7.38739 3.5243 0
M  V30 1824 N 167.025 -1.13721 1.09112 0
M  V30 1825 C 167.972 -2.19031 0.727591 0
M  V30 1826 C 168.942 -1.63555 -0.289656 0
M  V30 1827 O 170.127 -1.90023 -0.172026 0
M  V30 1828 C 167.267 -3.4477 0.15082 0
M  V30 1829 C 166.38 -4.14365 1.22172 0
M  V30 1830 C 165.515 -5.27709 0.608042 0
M  V30 1831 C 164.554 -5.89147 1.66047 0
M  V30 1832 N 163.691 -6.93929 1.06806 0
M  V30 1833 H 168.531 -2.49475 1.62991 0
M  V30 1834 H 166.068 -1.22499 0.81439 0
M  V30 1835 H 168.026 -4.16714 -0.201358 0
M  V30 1836 H 166.656 -3.14787 -0.714783 0
M  V30 1837 H 165.708 -3.40737 1.69122 0
M  V30 1838 H 167.02 -4.56114 2.01895 0
M  V30 1839 H 166.174 -6.06355 0.204523 0
M  V30 1840 H 164.913 -4.872 -0.220769 0
M  V30 1841 H 163.918 -5.09198 2.07357 0
M  V30 1842 H 165.143 -6.31729 2.49189 0
M  V30 1843 H 163.089 -6.55483 0.260476 0
M  V30 1844 H 163.006 -7.34202 1.8023 0
M  V30 1845 H 164.274 -7.76434 0.690644 0
M  V30 1846 N 168.503 -0.877838 -1.30888 0
M  V30 1847 C 169.453 -0.310872 -2.25871 0
M  V30 1848 C 170.437 0.556596 -1.50966 0
M  V30 1849 O 171.629 0.402187 -1.7237 0
M  V30 1850 C 168.758 0.479821 -3.3993 0
M  V30 1851 C 167.844 -0.401333 -4.22197 0
M  V30 1852 N 168.235 -1.49848 -4.83093 0
M  V30 1853 C 166.533 -0.195167 -4.45573 0
M  V30 1854 C 167.234 -2.0425 -5.44662 0
M  V30 1855 N 166.21 -1.33843 -5.26865 0
M  V30 1856 H 170.012 -1.1493 -2.70496 0
M  V30 1857 H 167.526 -0.726458 -1.45246 0
M  V30 1858 H 169.523 0.902582 -4.07012 0
M  V30 1859 H 168.183 1.31577 -2.96846 0
M  V30 1860 H 169.194 -1.88137 -4.82519 0
M  V30 1861 H 165.871 0.604192 -4.13105 0
M  V30 1862 H 167.261 -2.96345 -6.03017 0
M  V30 1863 N 169.982 1.44106 -0.638065 0
M  V30 1864 C 171.393 1.85316 -0.226894 0
M  V30 1865 C 171.744 1.53399 1.22324 0
M  V30 1866 O 170.869 0.975463 1.93167 0
M  V30 1867 C 171.464 3.3637 -0.405013 0
M  V30 1868 C 170.023 3.76369 -0.0482902 0
M  V30 1869 C 169.17 2.67921 -0.715108 0
M  V30 1870 H 172.121 1.34474 -0.842764 0
M  V30 1871 H 172.142 3.7885 0.354 0
M  V30 1872 H 171.654 3.59569 -1.46053 0
M  V30 1873 H 169.755 3.58784 1.00522 0
M  V30 1874 H 169.868 4.76856 -0.463187 0
M  V30 1875 H 168.232 2.54259 -0.149753 0
M  V30 1876 H 169.015 2.93951 -1.77335 0
M  V30 1877 N 171.46 0.379036 1.52974 0
M  V30 1878 C 172.709 -0.207612 2.00629 0
M  V30 1879 C 173.022 -1.48758 1.27006 0
M  V30 1880 O 174.228 -2.15365 1.65318 0
M  V30 1881 C 172.684 -0.42053 3.57435 0
M  V30 1882 C 172.292 0.845587 4.39948 0
M  V30 1883 C 174.036 -0.964102 4.13407 0
M  V30 1884 C 171.943 0.601513 5.88333 0
M  V30 1885 H 170.873 -0.0813591 0.749598 0
M  V30 1886 H 173.524 0.499853 1.76561 0
M  V30 1887 H 171.906 -1.18959 3.7771 0
M  V30 1888 H 173.08 1.61848 4.31442 0
M  V30 1889 H 171.395 1.31336 3.95145 0
M  V30 1890 H 173.992 -1.16225 5.21916 0
M  V30 1891 H 174.335 -1.93019 3.68849 0
M  V30 1892 H 174.868 -0.25487 3.96983 0
M  V30 1893 H 171.607 1.53831 6.37194 0
M  V30 1894 H 171.127 -0.132628 5.99653 0
M  V30 1895 H 172.806 0.232134 6.46583 0
M  V30 1896 N 172.938 -1.57226 0.108567 0
M  V30 1897 C 174.163 -1.99604 -0.563303 0
M  V30 1898 C 174.588 -0.987563 -1.6009 0
M  V30 1899 O 173.946 0.0421687 -1.81251 0
M  V30 1900 C 173.994 -3.40902 -1.17552 0
M  V30 1901 O 173.098 -3.42896 -2.2912 0
M  V30 1902 H 172.439 -0.648704 -0.1417 0
M  V30 1903 H 174.969 -2.03679 0.193961 0
M  V30 1904 H 174.979 -3.78886 -1.51357 0
M  V30 1905 H 173.654 -4.1382 -0.415445 0
M  V30 1906 H 172.231 -3.1672 -1.96832 0
M  V30 1907 N 174.416 0.165178 -1.56732 0
M  V30 1908 C 175.832 0.517174 -1.50988 0
M  V30 1909 C 176.032 1.84331 -0.813894 0
M  V30 1910 O 175.088 2.49672 -0.37682 0
M  V30 1911 C 176.401 0.544261 -2.95733 0
M  V30 1912 C 177.949 0.631039 -3.06573 0
M  V30 1913 C 178.424 0.68896 -4.52788 0
M  V30 1914 N 179.915 0.751683 -4.5706 0
M  V30 1915 C 180.65 0.817177 -5.67547 0
M  V30 1916 N 180.146 0.843129 -6.8765 0
M  V30 1917 N 181.939 0.856668 -5.55534 0
M  V30 1918 H 174.09 -0.704318 -2.00382 0
M  V30 1919 H 176.353 -0.254687 -0.913148 0
M  V30 1920 H 176.059 -0.361607 -3.49836 0
M  V30 1921 H 175.933 1.3886 -3.5071 0
M  V30 1922 H 178.32 1.52733 -2.52501 0
M  V30 1923 H 178.401 -0.240095 -2.54671 0
M  V30 1924 H 178.045 -0.2031 -5.07494 0
M  V30 1925 H 177.975 1.57633 -5.02454 0
M  V30 1926 H 180.466 0.739661 -3.70591 0
M  V30 1927 H 180.779 0.894448 -7.67606 0
M  V30 1928 H 179.124 0.811304 -6.90248 0
M  V30 1929 H 182.315 0.833437 -4.60621 0
M  V30 1930 H 182.488 0.904247 -6.4166 0
M  V30 1931 N 175.894 1.51508 0.433938 0
M  V30 1932 C 177.14 1.65549 1.18173 0
M  V30 1933 C 177.495 0.368751 1.88833 0
M  V30 1934 O 176.788 -0.635616 1.8075 0
M  V30 1935 C 176.982 2.79928 2.22205 0
M  V30 1936 C 176.811 4.19601 1.61756 0
M  V30 1937 C 175.581 4.85489 1.40101 0
M  V30 1938 C 177.779 5.02574 1.09194 0
M  V30 1939 N 175.761 6.09266 0.752859 0
M  V30 1940 C 177.132 6.17381 0.569255 0
M  V30 1941 C 179.187 4.88079 0.984025 0
M  V30 1942 C 177.89 7.19282 -0.0507472 0
M  V30 1943 C 179.916 5.90191 0.377912 0
M  V30 1944 C 179.278 7.04272 -0.134216 0
M  V30 1945 H 175.377 0.659653 0.419979 0
M  V30 1946 H 177.961 1.88746 0.477818 0
M  V30 1947 H 176.132 2.5839 2.89982 0
M  V30 1948 H 177.864 2.83132 2.89168 0
M  V30 1949 H 174.619 4.43417 1.66369 0
M  V30 1950 H 175.043 6.75528 0.446123 0
M  V30 1951 H 179.685 4.00131 1.36583 0
M  V30 1952 H 177.403 8.06876 -0.444676 0
M  V30 1953 H 180.989 5.81045 0.296269 0
M  V30 1954 H 179.869 7.81933 -0.59585 0
M  V30 1955 N 177.372 -0.689602 1.41712 0
M  V30 1956 C 178.621 -1.44534 1.40686 0
M  V30 1957 C 178.934 -1.95588 0.0213352 0
M  V30 1958 O 180.14 -2.71271 -0.111534 0
M  V30 1959 C 178.596 -2.61387 2.47396 0
M  V30 1960 C 178.204 -2.17094 3.91885 0
M  V30 1961 C 179.948 -3.38986 2.55517 0
M  V30 1962 C 177.855 -3.3094 4.90135 0
M  V30 1963 H 176.785 -0.542925 0.52321 0
M  V30 1964 H 179.436 -0.748054 1.6756 0
M  V30 1965 H 177.818 -3.33412 2.13664 0
M  V30 1966 H 178.992 -1.52318 4.34897 0
M  V30 1967 H 177.307 -1.52473 3.8748 0
M  V30 1968 H 179.904 -4.23747 3.26102 0
M  V30 1969 H 180.247 -3.84578 1.59391 0
M  V30 1970 H 180.78 -2.74021 2.8837 0
M  V30 1971 H 177.519 -2.90355 5.87685 0
M  V30 1972 H 177.039 -3.94546 4.51767 0
M  V30 1973 H 178.718 -3.9663 5.11169 0
M  V30 1974 N 178.85 -1.27639 -0.924453 0
M  V30 1975 C 179.813 -1.10681 -2.00705 0
M  V30 1976 C 180.813 -0.0497823 -1.60723 0
M  V30 1977 O 182.003 -0.294654 -1.7169 0
M  V30 1978 C 179.135 -0.687164 -3.33902 0
M  V30 1979 H 180.328 -2.06817 -2.17179 0
M  V30 1980 H 177.881 -1.10473 -1.10569 0
M  V30 1981 H 178.616 0.275439 -3.23128 0
M  V30 1982 H 178.401 -1.45061 -3.6428 0
M  V30 1983 H 179.891 -0.590853 -4.13399 0
M  V30 1984 N 180.328 1.1314 -1.09713 0
M  V30 1985 C 181.744 1.36477 -0.827423 0
M  V30 1986 C 181.944 1.93654 0.556817 0
M  V30 1987 O 181 2.15791 1.31112 0
M  V30 1988 C 182.313 2.31334 -1.92106 0
M  V30 1989 C 183.861 2.44943 -1.94864 0
M  V30 1990 C 184.336 3.4311 -3.0338 0
M  V30 1991 N 185.827 3.50662 -3.02639 0
M  V30 1992 C 186.562 4.2651 -3.83246 0
M  V30 1993 N 186.058 5.05485 -4.73768 0
M  V30 1994 N 187.851 4.2184 -3.71493 0
M  V30 1995 H 180.002 0.743807 -1.9895 0
M  V30 1996 H 182.265 0.389823 -0.864143 0
M  V30 1997 H 181.971 1.96483 -2.91698 0
M  V30 1998 H 181.845 3.31381 -1.80184 0
M  V30 1999 H 184.232 2.79079 -0.959099 0
M  V30 2000 H 184.313 1.4481 -2.10864 0
M  V30 2001 H 183.957 3.09704 -4.02549 0
M  V30 2002 H 183.887 4.43055 -2.84622 0
M  V30 2003 H 186.378 2.94315 -2.37039 0
M  V30 2004 H 186.691 5.60675 -5.3185 0
M  V30 2005 H 185.036 5.04708 -4.77802 0
M  V30 2006 H 188.227 3.5922 -3.00131 0
M  V30 2007 H 188.4 4.80697 -4.3455 0
M  V30 2008 N 181.806 0.884767 1.30421 0
M  V30 2009 C 182.754 0.340869 2.30089 0
M  V30 2010 C 183.748 -0.55201 1.60154 0
M  V30 2011 O 184.954 -0.436467 1.74628 0
M  V30 2012 H 181.329 0.0915739 0.746404 0
M  V30 2013 H 183.3 1.19513 2.73421 0
M  V30 2014 C 182.049 -0.429779 3.45034 0
M  V30 2015 H 181.372 0.248024 3.9903 0
M  V30 2016 H 182.812 -0.775445 4.16849 0
M  V30 2017 C 181.271 -1.62677 2.95022 0
M  V30 2018 O 181.801 -2.72614 2.95033 0
M  V30 2019 N 180.007 -1.46387 2.51036 0
M  V30 2020 H 179.554 -0.569506 2.51226 0
M  V30 2021 H 179.512 -2.26612 2.17932 0
M  V30 2022 N 183.284 -1.43765 0.645699 0
M  V30 2023 C 184.531 -2.01898 0.15604 0
M  V30 2024 C 184.859 -1.50887 -1.22733 0
M  V30 2025 O 184.114 -0.689271 -1.8316 0
M  V30 2026 C 184.413 -3.57238 0.107679 0
M  V30 2027 C 184.079 -4.27564 1.43178 0
M  V30 2028 C 182.741 -4.46492 1.7944 0
M  V30 2029 C 185.093 -4.67454 2.30513 0
M  V30 2030 C 182.421 -5.02573 3.02716 0
M  V30 2031 C 184.773 -5.24901 3.53074 0
M  V30 2032 C 183.437 -5.42046 3.89541 0
M  V30 2033 H 182.707 -0.738797 0.057099 0
M  V30 2034 H 185.354 -1.72341 0.834912 0
M  V30 2035 H 183.659 -3.86293 -0.654618 0
M  V30 2036 H 185.356 -3.99965 -0.287938 0
M  V30 2037 H 181.946 -4.13171 1.13963 0
M  V30 2038 H 186.13 -4.5253 2.0379 0
M  V30 2039 H 181.386 -5.14033 3.31028 0
M  V30 2040 H 185.56 -5.54758 4.20971 0
M  V30 2041 H 183.187 -5.85268 4.85145 0
M  V30 2042 N 184.763 -0.387143 -1.52771 0
M  V30 2043 C 185.993 0.195585 -2.05672 0
M  V30 2044 C 186.401 1.41241 -1.25887 0
M  V30 2045 O 185.744 1.81265 -0.298081 0
M  V30 2046 C 185.806 0.632327 -3.53895 0
M  V30 2047 C 185.47 -0.470739 -4.54569 0
M  V30 2048 C 186.467 -1.32746 -5.02667 0
M  V30 2049 C 184.152 -0.637151 -4.98243 0
M  V30 2050 C 186.146 -2.33574 -5.93061 0
M  V30 2051 C 183.833 -1.64877 -5.88438 0
M  V30 2052 C 184.831 -2.49649 -6.35739 0
M  V30 2053 O 184.519 -3.49082 -7.24153 0
M  V30 2054 H 184.251 0.033658 -0.675162 0
M  V30 2055 H 186.805 -0.550221 -1.97893 0
M  V30 2056 H 185.035 1.43008 -3.59285 0
M  V30 2057 H 186.724 1.14048 -3.89548 0
M  V30 2058 H 187.49 -1.21019 -4.69659 0
M  V30 2059 H 183.369 0.0129567 -4.60998 0
M  V30 2060 H 186.913 -2.99777 -6.29904 0
M  V30 2061 H 182.81 -1.76643 -6.2086 0
M  V30 2062 H 183.578 -3.45065 -7.42208 0
M  V30 2063 N 186.241 1.57166 -0.116904 0
M  V30 2064 C 187.518 1.86645 0.585049 0
M  V30 2065 C 187.898 1.0177 1.84949 0
M  V30 2066 O 187.246 0.0960379 2.28298 0
M  V30 2067 C 187.456 3.37736 0.879507 0
M  V30 2068 C 188.804 4.06289 1.23348 0
M  V30 2069 O 189.828 3.42743 0.969836 0
M  V30 2070 O 188.687 5.18455 1.7282 0
M  V30 2071 H 185.781 0.772593 0.295007 0
M  V30 2072 H 188.327 1.69025 -0.151249 0
M  V30 2073 H 187.099 3.91296 -0.0166136 0
M  V30 2074 H 186.722 3.6078 1.67103 0
M  V30 2075 N 187.719 -0.156864 1.56817 0
M  V30 2076 C 188.944 -0.890331 1.87318 0
M  V30 2077 C 189.369 -1.74394 0.704855 0
M  V30 2078 O 188.727 -1.77972 -0.345786 0
M  V30 2079 C 188.775 -1.73102 3.16336 0
M  V30 2080 O 187.879 -2.83422 2.99576 0
M  V30 2081 H 187.22 -0.24857 0.615718 0
M  V30 2082 H 189.75 -0.150649 2.04045 0
M  V30 2083 H 189.76 -2.12803 3.48107 0
M  V30 2084 H 188.435 -1.10412 4.00976 0
M  V30 2085 H 187.012 -2.47199 2.7919 0
M  V30 2086 N 189.197 -1.51736 -0.425897 0
M  V30 2087 C 190.608 -1.5732 -1.00536 0
M  V30 2088 C 190.959 -0.403537 -1.92005 0
M  V30 2089 O 190.084 0.478256 -2.11049 0
M  V30 2090 C 190.679 -2.85119 -1.8301 0
M  V30 2091 C 189.238 -2.93236 -2.35987 0
M  V30 2092 C 188.385 -2.52098 -1.15508 0
M  V30 2093 H 191.336 -1.57348 -0.206739 0
M  V30 2094 H 191.357 -2.69526 -2.68581 0
M  V30 2095 H 190.869 -3.7023 -1.16411 0
M  V30 2096 H 188.97 -2.12581 -3.06007 0
M  V30 2097 H 189.083 -3.9713 -2.68001 0
M  V30 2098 H 187.447 -2.05558 -1.50393 0
M  V30 2099 H 188.23 -3.39565 -0.505014 0
M  V30 2100 N 190.675 0.682077 -1.42076 0
M  V30 2101 C 191.585 1.82535 -1.47371 0
M  V30 2102 C 192.601 1.7017 -0.363079 0
M  V30 2103 O 193.777 1.91848 -0.612875 0
M  V30 2104 C 190.842 3.18624 -1.36674 0
M  V30 2105 C 189.903 3.42999 -2.58167 0
M  V30 2106 C 189.136 4.72595 -2.4797 0
M  V30 2107 O 189.359 5.50006 -1.5116 0
M  V30 2108 O 188.293 4.98054 -3.37974 0
M  V30 2109 H 192.119 1.81023 -2.43853 0
M  V30 2110 H 189.704 0.836887 -1.2376 0
M  V30 2111 H 191.586 3.99847 -1.33043 0
M  V30 2112 H 190.261 3.20789 -0.433138 0
M  V30 2113 H 189.168 2.61653 -2.67373 0
M  V30 2114 H 190.501 3.45659 -3.50401 0
M  V30 2115 N 192.153 1.28127 0.917671 0
M  V30 2116 C 193.1 1.11717 2.0196 0
M  V30 2117 C 194.07 0.0153929 1.66093 0
M  V30 2118 O 195.255 0.179596 1.89953 0
M  V30 2119 C 192.395 0.780927 3.36148 0
M  V30 2120 C 191.508 1.96135 3.84909 0
M  V30 2121 C 190.643 1.56609 5.0759 0
M  V30 2122 C 189.682 2.71339 5.48673 0
M  V30 2123 N 188.819 2.32332 6.62545 0
M  V30 2124 H 193.659 2.06003 2.15329 0
M  V30 2125 H 191.196 1.02535 1.05475 0
M  V30 2126 H 193.154 0.56675 4.13333 0
M  V30 2127 H 191.784 -0.124998 3.22558 0
M  V30 2128 H 190.836 2.28777 3.03916 0
M  V30 2129 H 192.148 2.82165 4.1132 0
M  V30 2130 H 191.302 1.31374 5.92305 0
M  V30 2131 H 190.041 0.677014 4.82978 0
M  V30 2132 H 189.046 2.97276 4.62501 0
M  V30 2133 H 190.271 3.60882 5.75274 0
M  V30 2134 H 188.217 1.45889 6.39572 0
M  V30 2135 H 188.134 3.11899 6.88662 0
M  V30 2136 H 189.402 2.10371 7.50576 0
M  V30 2137 N 193.631 -1.12557 1.10312 0
M  V30 2138 C 194.88 -1.83395 0.839588 0
M  V30 2139 C 195.193 -1.84939 -0.636929 0
M  V30 2140 O 196.399 -2.51761 -1.01631 0
M  V30 2141 C 194.855 -3.29303 1.45215 0
M  V30 2142 C 194.463 -3.36122 2.96186 0
M  V30 2143 C 196.207 -4.05121 1.26796 0
M  V30 2144 C 194.114 -4.76357 3.50483 0
M  V30 2145 H 193.044 -0.687133 0.310425 0
M  V30 2146 H 195.695 -1.26746 1.32694 0
M  V30 2147 H 194.077 -3.85812 0.892469 0
M  V30 2148 H 195.251 -2.89559 3.58458 0
M  V30 2149 H 193.566 -2.73776 3.13745 0
M  V30 2150 H 196.163 -5.08668 1.64806 0
M  V30 2151 H 196.506 -4.15773 0.209409 0
M  V30 2152 H 197.039 -3.54967 1.79563 0
M  V30 2153 H 193.778 -4.70899 4.55998 0
M  V30 2154 H 193.298 -5.23377 2.92978 0
M  V30 2155 H 194.977 -5.45294 3.48228 0
M  V30 2156 N 195.109 -0.891671 -1.2995 0
M  V30 2157 C 196.339 -0.527893 -1.99742 0
M  V30 2158 C 196.747 0.88979 -1.66971 0
M  V30 2159 O 196.09 1.59766 -0.906667 0
M  V30 2160 C 196.152 -0.630804 -3.53922 0
M  V30 2161 C 195.816 -2.01401 -4.10228 0
M  V30 2162 C 196.813 -2.98422 -4.25724 0
M  V30 2163 C 194.498 -2.32121 -4.45449 0
M  V30 2164 C 196.492 -4.24293 -4.75662 0
M  V30 2165 C 194.179 -3.58237 -4.95086 0
M  V30 2166 C 195.177 -4.54137 -5.10146 0
M  V30 2167 O 194.865 -5.78014 -5.58708 0
M  V30 2168 H 194.597 -0.201953 -0.645129 0
M  V30 2169 H 197.151 -1.20076 -1.66646 0
M  V30 2170 H 195.381 0.0990616 -3.86573 0
M  V30 2171 H 197.07 -0.277338 -4.04951 0
M  V30 2172 H 197.836 -2.76001 -3.98809 0
M  V30 2173 H 193.715 -1.5824 -4.32991 0
M  V30 2174 H 197.259 -4.99153 -4.87332 0
M  V30 2175 H 193.156 -3.80491 -5.21437 0
M  V30 2176 H 193.924 -5.8049 -5.77039 0
M  V30 2177 N 196.587 1.43421 -0.653314 0
M  V30 2178 C 197.497 2.34568 0.0388565 0
M  V30 2179 C 198.513 1.53888 0.81207 0
M  V30 2180 O 199.689 1.86539 0.759294 0
M  V30 2181 C 196.754 3.32167 0.993269 0
M  V30 2182 C 195.815 4.28751 0.216977 0
M  V30 2183 C 195.048 5.21688 1.12593 0
M  V30 2184 O 195.271 5.19052 2.36519 0
M  V30 2185 O 194.205 5.98919 0.598284 0
M  V30 2186 H 198.031 2.95251 -0.711386 0
M  V30 2187 H 195.616 1.43564 -0.413502 0
M  V30 2188 H 197.498 3.92183 1.54176 0
M  V30 2189 H 196.173 2.73987 1.72374 0
M  V30 2190 H 195.08 3.72215 -0.375101 0
M  V30 2191 H 196.413 4.89913 -0.473924 0
M  V30 2192 N 198.065 0.39524 1.52563 0
M  V30 2193 C 199.481 0.0454682 1.59535 0
M  V30 2194 C 199.681 -1.44056 1.4089 0
M  V30 2195 O 198.737 -2.20579 1.22888 0
M  V30 2196 C 200.05 0.527963 2.96029 0
M  V30 2197 C 201.598 0.484733 3.09224 0
M  V30 2198 C 202.073 0.943512 4.48176 0
M  V30 2199 N 203.564 0.899765 4.54377 0
M  V30 2200 C 204.299 1.22609 5.60138 0
M  V30 2201 N 203.795 1.62319 6.73516 0
M  V30 2202 N 205.588 1.14696 5.50274 0
M  V30 2203 H 197.739 1.36261 1.62931 0
M  V30 2204 H 200.002 0.558887 0.765735 0
M  V30 2205 H 199.708 1.56607 3.14908 0
M  V30 2206 H 199.582 -0.0698056 3.77135 0
M  V30 2207 H 201.969 -0.544298 2.90037 0
M  V30 2208 H 202.05 1.11838 2.30056 0
M  V30 2209 H 201.694 1.9708 4.68104 0
M  V30 2210 H 201.624 0.286817 5.25818 0
M  V30 2211 H 204.115 0.607632 3.72983 0
M  V30 2212 H 204.428 1.85567 7.5019 0
M  V30 2213 H 202.773 1.66211 6.74833 0
M  V30 2214 H 205.964 0.835701 4.6058 0
M  V30 2215 H 206.137 1.40459 6.32594 0
M  V30 2216 N 199.544 -1.57102 0.125237 0
M  V30 2217 C 200.772 -1.99761 -0.538797 0
M  V30 2218 C 201.187 -1.00503 -1.59827 0
M  V30 2219 O 200.544 0.00119474 -1.825 0
M  V30 2220 C 200.595 -3.42408 -1.15927 0
M  V30 2221 O 200.316 -4.37869 -0.142143 0
M  V30 2222 C 201.817 -4.00232 -1.90602 0
M  V30 2223 H 199.037 -0.655772 -0.14214 0
M  V30 2224 H 201.581 -2.03383 0.213413 0
M  V30 2225 H 199.736 -3.39706 -1.86223 0
M  V30 2226 H 200.15 -5.21128 -0.593775 0
M  V30 2227 H 201.624 -5.02105 -2.29335 0
M  V30 2228 H 202.101 -3.39721 -2.78363 0
M  V30 2229 H 202.707 -4.06499 -1.25055 0
M  V30 2230 N 201.022 0.148545 -1.56898 0
M  V30 2231 C 201.955 1.21293 -1.93296 0
M  V30 2232 C 202.933 1.41637 -0.798599 0
M  V30 2233 O 204.117 1.56275 -1.05406 0
M  V30 2234 C 201.244 2.5721 -2.20365 0
M  V30 2235 C 200.29 2.53469 -3.4301 0
M  V30 2236 S 201.123 2.00315 -4.96623 0
M  V30 2237 C 202.279 3.37964 -5.26812 0
M  V30 2238 H 202.512 0.902393 -2.83274 0
M  V30 2239 H 200.045 0.354094 -1.50285 0
M  V30 2240 H 202.003 3.35427 -2.36641 0
M  V30 2241 H 200.664 2.85454 -1.31054 0
M  V30 2242 H 199.857 3.53518 -3.59223 0
M  V30 2243 H 199.459 1.83359 -3.25968 0
M  V30 2244 H 201.751 4.34066 -5.20185 0
M  V30 2245 H 202.694 3.26606 -6.28279 0
M  V30 2246 H 203.102 3.35028 -4.54331 0
M  V30 2247 N 202.5 1.5196 0.417844 0
M  V30 2248 C 203.463 1.74065 1.49111 0
M  V30 2249 C 204.463 0.610537 1.48758 0
M  V30 2250 O 205.653 0.87832 1.50437 0
M  V30 2251 C 202.785 1.81502 2.88565 0
M  V30 2252 H 203.978 2.69869 1.30807 0
M  V30 2253 H 201.531 1.42244 0.647785 0
M  V30 2254 H 202.266 0.875813 3.1225 0
M  V30 2255 H 202.051 2.63651 2.90225 0
M  V30 2256 H 203.541 2.00376 3.66387 0
M  V30 2257 N 203.978 -0.674533 1.42435 0
M  V30 2258 C 205.224 -1.43671 1.43131 0
M  V30 2259 C 205.557 -1.94142 0.0476021 0
M  V30 2260 O 204.832 -1.70924 -0.928188 0
M  V30 2261 C 205.115 -2.63355 2.45594 0
M  V30 2262 C 204.968 -2.18514 3.93156 0
M  V30 2263 C 206.287 -3.65571 2.45043 0
M  V30 2264 H 203.406 -0.521077 0.521198 0
M  V30 2265 H 206.048 -0.766551 1.7385 0
M  V30 2266 H 204.198 -3.2053 2.19528 0
M  V30 2267 H 205.87 -1.66504 4.30202 0
M  V30 2268 H 204.113 -1.50086 4.07009 0
M  V30 2269 H 204.784 -3.04484 4.60428 0
M  V30 2270 H 207.26 -3.18113 2.68223 0
M  V30 2271 H 206.136 -4.46893 3.18713 0
M  V30 2272 H 206.397 -4.16716 1.47649 0
M  V30 2273 N 205.456 -1.28612 -0.910864 0
M  V30 2274 C 206.386 -1.15326 -2.03032 0
M  V30 2275 C 207.367 -0.0502924 -1.70026 0
M  V30 2276 O 208.552 -0.227797 -1.92859 0
M  V30 2277 C 205.682 -0.817343 -3.37545 0
M  V30 2278 C 204.636 -1.8754 -3.84724 0
M  V30 2279 C 203.962 -1.39305 -5.16235 0
M  V30 2280 C 205.262 -3.28244 -4.06267 0
M  V30 2281 H 206.956 -2.08975 -2.14406 0
M  V30 2282 H 204.502 -1.00612 -1.03021 0
M  V30 2283 H 206.455 -0.711151 -4.15356 0
M  V30 2284 H 205.179 0.154846 -3.26233 0
M  V30 2285 H 203.838 -1.97079 -3.09121 0
M  V30 2286 H 203.486 -0.409846 -5.01328 0
M  V30 2287 H 203.186 -2.10057 -5.48771 0
M  V30 2288 H 204.71 -1.30014 -5.96598 0
M  V30 2289 H 206.124 -3.21611 -4.74594 0
M  V30 2290 H 204.521 -3.96855 -4.5014 0
M  V30 2291 H 205.591 -3.72048 -3.10979 0
M  V30 2292 N 206.934 1.1197 -1.10907 0
M  V30 2293 C 207.866 2.17592 -0.720175 0
M  V30 2294 C 208.879 1.60938 0.245495 0
M  V30 2295 O 210.068 1.78476 0.0292245 0
M  V30 2296 C 207.168 3.38873 -0.0427917 0
M  V30 2297 C 206.341 4.25006 -1.03388 0
M  V30 2298 C 205.4 5.24774 -0.387075 0
M  V30 2299 O 204.426 5.59631 -1.03934 0
M  V30 2300 N 205.628 5.74208 0.852407 0
M  V30 2301 H 208.393 2.51567 -1.62893 0
M  V30 2302 H 205.954 1.27439 -0.998543 0
M  V30 2303 H 207.946 4.02703 0.401501 0
M  V30 2304 H 206.516 3.03007 0.768456 0
M  V30 2305 H 205.736 3.57716 -1.65629 0
M  V30 2306 H 207.024 4.79397 -1.70458 0
M  V30 2307 H 206.422 5.48062 1.40161 0
M  V30 2308 H 204.979 6.39901 1.23977 0
M  V30 2309 N 208.412 0.89855 1.29475 0
M  V30 2310 C 209.661 0.519863 1.94885 0
M  V30 2311 C 209.974 -0.9383 1.71625 0
M  V30 2312 O 211.18 -1.42445 2.31131 0
M  V30 2313 C 209.636 0.878836 3.49005 0
M  V30 2314 C 209.244 2.35569 3.81066 0
M  V30 2315 C 210.988 0.570004 4.20656 0
M  V30 2316 C 208.895 2.65558 5.28425 0
M  V30 2317 H 207.825 0.190692 0.729488 0
M  V30 2318 H 210.476 1.09539 1.47219 0
M  V30 2319 H 208.858 0.232253 3.95318 0
M  V30 2320 H 210.032 3.04773 3.45616 0
M  V30 2321 H 208.347 2.63343 3.22552 0
M  V30 2322 H 210.944 0.770925 5.29113 0
M  V30 2323 H 211.287 -0.491404 4.1339 0
M  V30 2324 H 211.82 1.17438 3.8007 0
M  V30 2325 H 208.559 3.70493 5.40754 0
M  V30 2326 H 208.079 2.00977 5.65127 0
M  V30 2327 H 209.758 2.51765 5.96006 0
M  V30 2328 N 209.89 -1.43072 0.660911 0
M  V30 2329 C 210.8 -2.34585 -0.0264163 0
M  V30 2330 C 211.816 -1.54316 -0.803898 0
M  V30 2331 O 212.992 -1.86939 -0.749391 0
M  V30 2332 C 210.057 -3.32689 -0.975639 0
M  V30 2333 C 209.118 -4.2886 -0.194236 0
M  V30 2334 C 208.351 -5.22278 -1.09825 0
M  V30 2335 O 208.574 -5.20299 -2.33763 0
M  V30 2336 O 207.508 -5.99228 -0.566513 0
M  V30 2337 H 211.334 -2.94869 0.727034 0
M  V30 2338 H 208.919 -1.43342 0.42111 0
M  V30 2339 H 210.801 -3.92995 -1.52094 0
M  V30 2340 H 209.476 -2.74898 -1.70918 0
M  V30 2341 H 208.383 -3.72011 0.394835 0
M  V30 2342 H 209.716 -4.89655 0.499899 0
M  V30 2343 N 211.368 -0.403325 -1.52352 0
M  V30 2344 C 212.331 0.413051 -2.25447 0
M  V30 2345 C 213.331 0.978513 -1.276 0
M  V30 2346 O 214.521 0.858305 -1.51587 0
M  V30 2347 C 211.653 1.58087 -3.02029 0
M  V30 2348 H 212.846 -0.227094 -2.99039 0
M  V30 2349 H 210.399 -0.155722 -1.55522 0
M  V30 2350 H 211.134 2.25804 -2.32772 0
M  V30 2351 H 210.919 1.18195 -3.73861 0
M  V30 2352 H 212.409 2.1585 -3.57489 0
M  V30 2353 N 212.846 1.57033 -0.133567 0
M  V30 2354 C 213.756 2.19632 0.824564 0
M  V30 2355 C 214.772 1.17666 1.28182 0
M  V30 2356 O 215.948 1.50193 1.3418 0
M  V30 2357 C 213.013 2.79499 2.05137 0
M  V30 2358 C 212.074 3.96548 1.64464 0
M  V30 2359 C 211.307 4.5355 2.81297 0
M  V30 2360 O 211.53 4.09438 3.97136 0
M  V30 2361 O 210.464 5.44018 2.57542 0
M  V30 2362 H 214.29 3.01991 0.321766 0
M  V30 2363 H 211.875 1.49112 0.0927889 0
M  V30 2364 H 213.757 3.17602 2.7696 0
M  V30 2365 H 212.432 2.00162 2.54395 0
M  V30 2366 H 211.339 3.63186 0.897048 0
M  V30 2367 H 212.672 4.77364 1.19934 0
M  V30 2368 N 214.325 -0.140222 1.56975 0
M  V30 2369 C 215.272 -1.17292 1.98774 0
M  V30 2370 C 216.242 -1.4232 0.856408 0
M  V30 2371 O 217.427 -1.54541 1.119 0
M  V30 2372 C 214.567 -2.49973 2.37923 0
M  V30 2373 C 213.68 -2.32062 3.64378 0
M  V30 2374 C 212.815 -3.57825 3.926 0
M  V30 2375 C 211.854 -3.3498 5.12303 0
M  V30 2376 N 210.991 -4.52891 5.36502 0
M  V30 2377 H 215.831 -0.809472 2.86795 0
M  V30 2378 H 213.368 -0.388237 1.41884 0
M  V30 2379 H 215.326 -3.27346 2.58652 0
M  V30 2380 H 213.956 -2.84252 1.52972 0
M  V30 2381 H 213.008 -1.45711 3.51387 0
M  V30 2382 H 214.32 -2.11145 4.51906 0
M  V30 2383 H 213.474 -4.43624 4.13863 0
M  V30 2384 H 212.213 -3.81753 3.03506 0
M  V30 2385 H 211.218 -2.4757 4.90906 0
M  V30 2386 H 212.443 -3.12444 6.02956 0
M  V30 2387 H 210.389 -4.76979 4.50363 0
M  V30 2388 H 210.306 -4.35001 6.18312 0
M  V30 2389 H 211.574 -5.39884 5.62268 0
M  V30 2390 N 215.803 -1.52179 -0.40978 0
M  V30 2391 C 216.766 -1.74853 -1.48186 0
M  V30 2392 C 217.766 -0.618417 -1.48433 0
M  V30 2393 O 218.956 -0.886286 -1.49969 0
M  V30 2394 C 216.088 -1.8303 -2.87598 0
M  V30 2395 H 217.281 -2.70559 -1.29374 0
M  V30 2396 H 214.834 -1.42586 -0.640233 0
M  V30 2397 H 215.569 -0.89236 -3.11781 0
M  V30 2398 H 215.354 -2.65187 -2.88822 0
M  V30 2399 H 216.844 -2.02316 -3.65319 0
M  V30 2400 N 217.281 0.66697 -1.42791 0
M  V30 2401 C 218.191 1.80962 -1.49299 0
M  V30 2402 C 219.207 1.69775 -0.381108 0
M  V30 2403 O 220.383 1.91188 -0.633188 0
M  V30 2404 C 217.448 3.17156 -1.40045 0
M  V30 2405 C 216.509 3.40242 -2.6179 0
M  V30 2406 C 215.742 4.69939 -2.52969 0
M  V30 2407 O 215.965 5.48372 -1.56985 0
M  V30 2408 O 214.899 4.94441 -3.43237 0
M  V30 2409 H 218.725 1.78427 -2.45759 0
M  V30 2410 H 216.31 0.823713 -1.24641 0
M  V30 2411 H 218.192 3.98413 -1.37276 0
M  V30 2412 H 216.867 3.20312 -0.467138 0
M  V30 2413 H 215.774 2.58802 -2.70134 0
M  V30 2414 H 217.107 3.41923 -3.54047 0
M  V30 2415 N 218.759 1.29093 0.90403 0
M  V30 2416 C 219.689 1.16401 2.02418 0
M  V30 2417 C 220.67 0.0593085 1.69997 0
M  V30 2418 O 221.855 0.238021 1.92736 0
M  V30 2419 C 218.985 0.835233 3.37107 0
M  V30 2420 C 217.939 1.89578 3.83724 0
M  V30 2421 C 217.265 1.42041 5.15489 0
M  V30 2422 C 218.565 3.30394 4.04521 0
M  V30 2423 H 220.259 2.10109 2.13295 0
M  V30 2424 H 217.805 1.01157 1.02486 0
M  V30 2425 H 219.758 0.733169 4.14973 0
M  V30 2426 H 218.482 -0.137543 3.2631 0
M  V30 2427 H 217.141 1.98715 3.08071 0
M  V30 2428 H 216.789 0.436426 5.01103 0
M  V30 2429 H 216.489 2.12964 5.4765 0
M  V30 2430 H 218.013 1.33176 5.959 0
M  V30 2431 H 219.427 3.24123 4.72882 0
M  V30 2432 H 217.824 3.99237 4.48029 0
M  V30 2433 H 218.894 3.73692 3.09002 0
M  V30 2434 N 220.237 -1.11381 1.11499 0
M  V30 2435 C 221.653 -1.35143 0.849031 0
M  V30 2436 C 221.853 -1.94515 -0.525938 0
M  V30 2437 O 220.909 -2.1785 -1.27662 0
M  V30 2438 C 222.222 -2.28249 1.95762 0
M  V30 2439 C 223.77 -2.41812 1.98736 0
M  V30 2440 C 224.245 -3.3824 3.088 0
M  V30 2441 N 225.736 -3.45803 3.08179 0
M  V30 2442 C 226.471 -4.20358 3.89982 0
M  V30 2443 N 225.967 -4.97884 4.8175 0
M  V30 2444 N 227.76 -4.15877 3.78157 0
M  V30 2445 H 219.911 -0.712062 2.00109 0
M  V30 2446 H 222.174 -0.376025 0.870235 0
M  V30 2447 H 221.88 -1.91817 2.94787 0
M  V30 2448 H 221.754 -3.28473 1.85433 0
M  V30 2449 H 224.141 -2.77518 1.00338 0
M  V30 2450 H 224.222 -1.41437 2.13141 0
M  V30 2451 H 223.866 -3.03261 4.07425 0
M  V30 2452 H 223.796 -4.38471 2.91635 0
M  V30 2453 H 226.287 -2.90506 2.41691 0
M  V30 2454 H 226.6 -5.52142 5.40702 0
M  V30 2455 H 224.945 -4.97043 4.85771 0
M  V30 2456 H 228.136 -3.544 3.05808 0
M  V30 2457 H 228.309 -4.73723 4.42143 0
M  V30 2458 N 221.715 -0.905404 -1.28997 0
M  V30 2459 C 222.961 -0.535039 -1.95615 0
M  V30 2460 C 223.294 0.917404 -1.71165 0
M  V30 2461 O 222.569 1.65123 -1.02785 0
M  V30 2462 C 222.852 -0.834918 -3.50287 0
M  V30 2463 C 222.705 -2.33948 -3.84172 0
M  V30 2464 C 224.024 -0.325318 -4.38896 0
M  V30 2465 H 221.143 -0.195861 -0.710498 0
M  V30 2466 H 223.785 -1.13313 -1.52513 0
M  V30 2467 H 221.935 -0.325904 -3.87131 0
M  V30 2468 H 223.607 -2.91847 -3.57243 0
M  V30 2469 H 221.85 -2.79789 -3.31513 0
M  V30 2470 H 222.521 -2.49987 -4.92149 0
M  V30 2471 H 224.997 -0.761256 -4.09077 0
M  V30 2472 H 223.873 -0.564295 -5.45992 0
M  V30 2473 H 224.134 0.774144 -4.35269 0
M  V30 2474 N 223.193 1.4272 -0.668489 0
M  V30 2475 C 224.14 2.30796 0.0137489 0
M  V30 2476 C 225.11 1.4561 0.799177 0
M  V30 2477 O 226.295 1.74453 0.772702 0
M  V30 2478 C 223.435 3.31377 0.963507 0
M  V30 2479 C 222.548 4.31655 0.172569 0
M  V30 2480 C 221.683 5.19312 1.1175 0
M  V30 2481 C 220.722 6.11274 0.317886 0
M  V30 2482 N 219.859 6.91504 1.2152 0
M  V30 2483 H 224.699 2.88585 -0.743161 0
M  V30 2484 H 222.236 1.42154 -0.378226 0
M  V30 2485 H 224.194 3.88214 1.52792 0
M  V30 2486 H 222.824 2.75202 1.68712 0
M  V30 2487 H 221.876 3.76988 -0.508374 0
M  V30 2488 H 223.188 4.96779 -0.448527 0
M  V30 2489 H 222.342 5.80851 1.75206 0
M  V30 2490 H 221.081 4.5435 1.77249 0
M  V30 2491 H 220.086 5.48809 -0.329918 0
M  V30 2492 H 221.311 6.78283 -0.332917 0
M  V30 2493 H 219.257 6.29176 1.85671 0
M  V30 2494 H 219.174 7.53209 0.649036 0
M  V30 2495 H 220.442 7.57535 1.83742 0
M  V30 2496 N 224.671 0.411399 1.52136 0
M  V30 2497 C 225.581 -0.419774 2.30814 0
M  V30 2498 C 226.597 -1.0515 1.38634 0
M  V30 2499 O 227.773 -1.05252 1.71709 0
M  V30 2500 C 224.838 -1.52019 3.11594 0
M  V30 2501 C 223.899 -0.91129 4.19516 0
M  V30 2502 C 223.132 -1.95927 4.96436 0
M  V30 2503 O 223.355 -3.17775 4.73683 0
M  V30 2504 O 222.289 -1.56423 5.81219 0
M  V30 2505 H 226.115 0.221805 3.02889 0
M  V30 2506 H 223.7 0.174547 1.48377 0
M  V30 2507 H 225.582 -2.15898 3.61892 0
M  V30 2508 H 224.257 -2.14633 2.42311 0
M  V30 2509 H 223.164 -0.235157 3.7336 0
M  V30 2510 H 224.497 -0.32904 4.91099 0
M  V30 2511 N 226.149 -1.5696 0.141893 0
M  V30 2512 C 227.079 -2.19516 -0.795936 0
M  V30 2513 C 228.06 -1.14187 -1.26077 0
M  V30 2514 O 229.245 -1.42511 -1.31925 0
M  V30 2515 C 226.375 -2.81272 -2.03723 0
M  V30 2516 C 225.329 -3.92384 -1.70936 0
M  V30 2517 C 224.655 -4.41052 -3.02287 0
M  V30 2518 C 225.955 -5.13403 -0.959954 0
M  V30 2519 H 227.649 -2.98138 -0.274596 0
M  V30 2520 H 225.195 -1.43406 -0.130636 0
M  V30 2521 H 227.148 -3.237 -2.69808 0
M  V30 2522 H 225.872 -1.99973 -2.58221 0
M  V30 2523 H 224.531 -3.50566 -1.07232 0
M  V30 2524 H 224.179 -3.56582 -3.54765 0
M  V30 2525 H 223.879 -5.15993 -2.81114 0
M  V30 2526 H 225.403 -4.86146 -3.69451 0
M  V30 2527 H 226.817 -5.52706 -1.52279 0
M  V30 2528 H 225.214 -5.94073 -0.848357 0
M  V30 2529 H 226.284 -4.84875 0.0492434 0
M  V30 2530 N 227.627 0.131896 -1.57047 0
M  V30 2531 C 228.537 1.1815 -2.02676 0
M  V30 2532 C 229.553 1.46113 -0.944824 0
M  V30 2533 O 230.729 1.57485 -1.25541 0
M  V30 2534 C 227.794 2.49139 -2.41103 0
M  V30 2535 C 226.855 2.28688 -3.63318 0
M  V30 2536 C 226.088 3.53431 -3.99903 0
M  V30 2537 O 226.311 4.60223 -3.36973 0
M  V30 2538 O 225.245 3.45198 -4.93074 0
M  V30 2539 H 229.071 0.824069 -2.92306 0
M  V30 2540 H 226.656 0.341745 -1.45439 0
M  V30 2541 H 228.538 3.26338 -2.66611 0
M  V30 2542 H 227.213 2.84382 -1.54624 0
M  V30 2543 H 226.12 1.4939 -3.42977 0
M  V30 2544 H 227.453 1.98355 -4.50462 0
M  V30 2545 N 229.106 1.52395 0.401703 0
M  V30 2546 C 230.352 1.67065 1.14966 0
M  V30 2547 C 230.685 0.403052 1.89971 0
M  V30 2548 O 229.96 -0.598774 1.85054 0
M  V30 2549 C 230.243 2.8975 2.13815 0
M  V30 2550 C 230.096 4.26578 1.42658 0
M  V30 2551 C 231.415 3.07965 3.14397 0
M  V30 2552 H 228.534 0.607968 0.416587 0
M  V30 2553 H 231.176 1.84965 0.434511 0
M  V30 2554 H 229.326 2.74619 2.74803 0
M  V30 2555 H 230.998 4.53451 0.847329 0
M  V30 2556 H 229.241 4.27639 0.72849 0
M  V30 2557 H 229.912 5.08483 2.14823 0
M  V30 2558 H 232.388 3.22043 2.63491 0
M  V30 2559 H 231.264 3.95308 3.80819 0
M  V30 2560 H 231.525 2.21611 3.82545 0
M  V30 2561 N 230.584 -0.659388 1.43143 0
M  V30 2562 C 232 -0.974337 1.26407 0
M  V30 2563 C 232.2 -2.007 0.179341 0
M  V30 2564 O 231.256 -2.4856 -0.444295 0
M  V30 2565 C 232.569 -1.46447 2.62628 0
M  V30 2566 C 234.117 -1.58144 2.7011 0
M  V30 2567 C 234.592 -2.1055 4.06734 0
M  V30 2568 N 236.083 -2.17861 4.08767 0
M  V30 2569 C 236.818 -2.59519 5.1131 0
M  V30 2570 N 236.314 -3.00518 6.24228 0
M  V30 2571 N 238.107 -2.59404 4.98664 0
M  V30 2572 H 230.258 0.0240528 2.12386 0
M  V30 2573 H 232.521 -0.0518065 0.946583 0
M  V30 2574 H 232.227 -0.780123 3.42939 0
M  V30 2575 H 232.101 -2.44058 2.87603 0
M  V30 2576 H 234.488 -2.25682 1.90136 0
M  V30 2577 H 234.569 -0.589828 2.48907 0
M  V30 2578 H 234.213 -1.43616 4.87172 0
M  V30 2579 H 234.143 -3.10531 4.25298 0
M  V30 2580 H 236.634 -1.88975 3.27257 0
M  V30 2581 H 236.947 -3.31036 6.98309 0
M  V30 2582 H 235.292 -2.98337 6.2771 0
M  V30 2583 H 238.483 -2.26747 4.09516 0
M  V30 2584 H 238.656 -2.91548 5.78709 0
M  V30 2585 N 232.062 -1.29571 -0.897171 0
M  V30 2586 C 233.009 -1.14916 -2.00158 0
M  V30 2587 C 233.979 -0.0418149 -1.66047 0
M  V30 2588 O 235.164 -0.209793 -1.89643 0
M  V30 2589 C 232.304 -0.834307 -3.34863 0
M  V30 2590 C 231.417 -2.02234 -3.8174 0
M  V30 2591 C 230.552 -1.64664 -5.05034 0
M  V30 2592 C 229.591 -2.80033 -5.44286 0
M  V30 2593 N 228.728 -2.42843 -6.58765 0
M  V30 2594 H 233.568 -2.09403 -2.12025 0
M  V30 2595 H 231.105 -1.042 -1.0383 0
M  V30 2596 H 233.063 -0.632436 -4.12379 0
M  V30 2597 H 231.693 0.0736656 -3.22716 0
M  V30 2598 H 230.745 -2.33583 -3.00238 0
M  V30 2599 H 232.057 -2.88673 -4.06779 0
M  V30 2600 H 231.211 -1.4078 -5.9014 0
M  V30 2601 H 229.95 -0.753766 -4.8184 0
M  V30 2602 H 228.955 -3.04596 -4.57713 0
M  V30 2603 H 230.18 -3.69989 -5.6946 0
M  V30 2604 H 228.126 -1.56046 -6.3717 0
M  V30 2605 H 228.043 -3.22815 -6.83613 0
M  V30 2606 H 229.311 -2.22285 -7.47134 0
M  V30 2607 N 233.54 1.10788 -1.12088 0
M  V30 2608 C 234.47 2.19083 -0.807755 0
M  V30 2609 C 235.451 1.6858 0.226859 0
M  V30 2610 O 236.636 1.93997 0.0888475 0
M  V30 2611 C 233.766 3.46344 -0.257576 0
M  V30 2612 C 232.72 4.101 -1.22483 0
M  V30 2613 C 232.046 5.32016 -0.535052 0
M  V30 2614 C 233.346 4.54236 -2.57811 0
M  V30 2615 H 235.04 2.45534 -1.71328 0
M  V30 2616 H 232.586 1.1801 -0.825205 0
M  V30 2617 H 234.539 4.21392 -0.0262679 0
M  V30 2618 H 233.263 3.19373 0.683278 0
M  V30 2619 H 231.922 3.37054 -1.44189 0
M  V30 2620 H 231.57 5.01319 0.410827 0
M  V30 2621 H 231.27 5.75625 -1.18024 0
M  V30 2622 H 232.794 6.09799 -0.312695 0
M  V30 2623 H 234.208 5.20575 -2.40155 0
M  V30 2624 H 232.605 5.08682 -3.18375 0
M  V30 2625 H 233.675 3.6734 -3.16528 0
M  V30 2626 N 235.018 0.912232 1.28515 0
M  V30 2627 C 235.951 0.343928 2.25593 0
M  V30 2628 C 236.929 -0.550994 1.5298 0
M  V30 2629 O 238.113 -0.494991 1.81885 0
M  V30 2630 C 235.24 -0.508525 3.34861 0
M  V30 2631 C 234.286 0.320808 4.25292 0
M  V30 2632 S 235.119 1.72658 5.06902 0
M  V30 2633 C 236.275 0.881394 6.19663 0
M  V30 2634 H 236.508 1.16674 2.73449 0
M  V30 2635 H 234.041 0.713384 1.36931 0
M  V30 2636 H 235.999 -0.994539 3.9827 0
M  V30 2637 H 234.66 -1.30571 2.85675 0
M  V30 2638 H 233.853 -0.330941 5.02912 0
M  V30 2639 H 233.455 0.74042 3.66598 0
M  V30 2640 H 235.747 0.110359 6.7741 0
M  V30 2641 H 236.69 1.63009 6.89082 0
M  V30 2642 H 237.098 0.430239 5.62858 0
M  V30 2643 N 236.496 -1.42363 0.676048 0
M  V30 2644 C 237.446 -2.27987 -0.0242903 0
M  V30 2645 C 238.43 -1.41153 -0.772319 0
M  V30 2646 O 239.622 -1.64592 -0.651025 0
M  V30 2647 C 236.751 -3.29195 -0.973953 0
M  V30 2648 C 235.837 -4.23512 -0.223202 0
M  V30 2649 N 236.228 -4.99865 0.772589 0
M  V30 2650 C 234.526 -4.43606 -0.461469 0
M  V30 2651 C 235.227 -5.68757 1.22027 0
M  V30 2652 N 234.203 -5.40811 0.549975 0
M  V30 2653 H 238.005 -2.84445 0.73949 0
M  V30 2654 H 235.519 -1.54341 0.50522 0
M  V30 2655 H 237.516 -3.89339 -1.49067 0
M  V30 2656 H 236.176 -2.74298 -1.73755 0
M  V30 2657 H 237.187 -5.04921 1.15217 0
M  V30 2658 H 233.864 -3.99749 -1.20446 0
M  V30 2659 H 235.254 -6.40007 2.0455 0
M  V30 2660 N 237.974 -0.419461 -1.51915 0
M  V30 2661 C 239.22 0.153166 -2.02221 0
M  V30 2662 C 239.553 1.43907 -1.30401 0
M  V30 2663 O 238.828 1.90055 -0.413438 0
M  V30 2664 C 239.111 0.390291 -3.57979 0
M  V30 2665 C 238.964 -0.913014 -4.40436 0
M  V30 2666 C 240.283 1.16794 -4.2432 0
M  V30 2667 H 237.402 0.0541924 -0.735005 0
M  V30 2668 H 240.044 -0.554955 -1.81715 0
M  V30 2669 H 238.194 0.993491 -3.75582 0
M  V30 2670 H 239.866 -1.54882 -4.34522 0
M  V30 2671 H 238.109 -1.52168 -4.06236 0
M  V30 2672 H 238.78 -0.701361 -5.47526 0
M  V30 2673 H 241.256 0.657161 -4.10878 0
M  V30 2674 H 240.132 1.3026 -5.3322 0
M  V30 2675 H 240.393 2.19132 -3.83971 0
M  V30 2676 N 239.452 1.56882 -0.150215 0
M  V30 2677 C 240.868 1.58263 0.20617 0
M  V30 2678 C 241.068 1.16464 1.64434 0
M  V30 2679 O 240.124 0.866422 2.3717 0
M  V30 2680 C 241.437 3.00649 -0.0555025 0
M  V30 2681 C 242.985 3.12999 0.00795388 0
M  V30 2682 C 243.46 4.5744 -0.226429 0
M  V30 2683 N 244.951 4.62875 -0.173469 0
M  V30 2684 C 245.686 5.72454 -0.329288 0
M  V30 2685 N 245.182 6.90669 -0.543005 0
M  V30 2686 N 246.975 5.61467 -0.266666 0
M  V30 2687 H 239.126 1.82345 -1.08922 0
M  V30 2688 H 241.389 0.844149 -0.431413 0
M  V30 2689 H 241.095 3.3563 -1.05096 0
M  V30 2690 H 240.969 3.71337 0.66246 0
M  V30 2691 H 243.356 2.77857 0.993966 0
M  V30 2692 H 243.437 2.4479 -0.742388 0
M  V30 2693 H 243.081 4.93287 -1.20956 0
M  V30 2694 H 243.011 5.2378 0.544274 0
M  V30 2695 H 245.502 3.77898 -0.0130709 0
M  V30 2696 H 245.815 7.70045 -0.651922 0
M  V30 2697 H 244.16 6.92581 -0.579366 0
M  V30 2698 H 247.351 4.67992 -0.100441 0
M  V30 2699 H 247.524 6.46816 -0.391535 0
M  V30 2700 N 240.93 -0.123565 1.57115 0
M  V30 2701 C 242.178 -0.83051 1.84247 0
M  V30 2702 C 242.499 -1.80629 0.73471 0
M  V30 2703 O 241.769 -1.94403 -0.241688 0
M  V30 2704 H 240.349 -0.309694 0.679778 0
M  V30 2705 H 243.011 -0.111976 1.94578 0
M  V30 2706 H 242.107 -1.37852 2.80006 0
M  V30 2707 N 242.408 -1.52605 -0.393616 0
M  V30 2708 C 243.685 -1.58001 -1.15304 0
M  V30 2709 C 244.065 -0.370385 -2.07825 0
M  V30 2710 O 243.413 0.641638 -2.19306 0
M  V30 2711 C 243.623 -2.91652 -1.91677 0
M  V30 2712 C 244.971 -3.4522 -2.47201 0
M  V30 2713 O 245.995 -2.93495 -2.01839 0
M  V30 2714 O 244.854 -4.35579 -3.3005 0
M  V30 2715 H 241.948 -0.637068 -0.527327 0
M  V30 2716 H 244.494 -1.64939 -0.399141 0
M  V30 2717 H 243.266 -3.71136 -1.23992 0
M  V30 2718 H 242.889 -2.88077 -2.74039 0
M  V30 2719 N 243.887 0.651787 -1.4349 0
M  V30 2720 C 245.135 1.40888 -1.44897 0
M  V30 2721 C 245.456 1.94856 -0.0749086 0
M  V30 2722 O 244.726 1.74518 0.889956 0
M  V30 2723 H 243.306 0.522887 -0.533478 0
M  V30 2724 H 245.968 0.768609 -1.79104 0
M  V30 2725 H 245.064 2.25052 -2.16236 0
M  V30 2726 N 245.365 1.30045 0.890287 0
M  V30 2727 C 246.776 1.16738 1.45702 0
M  V30 2728 C 247.127 -0.233939 1.948 0
M  V30 2729 O 246.252 -1.13021 1.84541 0
M  V30 2730 C 246.847 2.11313 2.64825 0
M  V30 2731 C 245.406 2.02001 3.17604 0
M  V30 2732 C 244.553 2.01699 1.90296 0
M  V30 2733 H 247.504 1.42392 0.700726 0
M  V30 2734 H 247.525 1.69086 3.40867 0
M  V30 2735 H 247.037 3.13294 2.2906 0
M  V30 2736 H 245.138 1.03142 3.5804 0
M  V30 2737 H 245.251 2.90128 3.81264 0
M  V30 2738 H 243.615 1.46427 2.08402 0
M  V30 2739 H 244.398 3.05402 1.56795 0
M  V30 2740 N 246.843 -1.10192 1.12674 0
M  V30 2741 C 248.089 -1.82658 0.894847 0
M  V30 2742 C 248.444 -1.83666 -0.573107 0
M  V30 2743 O 247.737 -1.28816 -1.41835 0
M  V30 2744 C 247.931 -3.28552 1.4067 0
M  V30 2745 C 247.76 -3.41756 2.92289 0
M  V30 2746 C 246.53 -3.54021 3.60551 0
M  V30 2747 C 248.728 -3.34949 3.90274 0
M  V30 2748 N 246.71 -3.55827 5.0026 0
M  V30 2749 C 248.081 -3.43531 5.16127 0
M  V30 2750 C 250.136 -3.18565 3.8265 0
M  V30 2751 C 248.839 -3.37416 6.3525 0
M  V30 2752 C 250.865 -3.13772 5.01299 0
M  V30 2753 C 250.227 -3.22938 6.26012 0
M  V30 2754 H 246.326 -0.683044 0.380756 0
M  V30 2755 H 248.91 -1.31752 1.43351 0
M  V30 2756 H 247.081 -3.77946 0.895055 0
M  V30 2757 H 248.813 -3.88991 1.11661 0
M  V30 2758 H 245.568 -3.57135 3.1105 0
M  V30 2759 H 245.992 -3.60335 5.73138 0
M  V30 2760 H 250.634 -3.10354 2.87124 0
M  V30 2761 H 248.352 -3.44391 7.3104 0
M  V30 2762 H 251.938 -3.02242 4.97133 0
M  V30 2763 H 250.818 -3.19235 7.16281 0
M  V30 2764 N 248.321 -0.919034 -1.28029 0
M  V30 2765 C 249.551 -0.570143 -1.98577 0
M  V30 2766 C 249.959 0.854172 -1.68821 0
M  V30 2767 O 249.302 1.57807 -0.940351 0
M  V30 2768 C 249.364 -0.705734 -3.52505 0
M  V30 2769 C 249.028 -2.10057 -4.05863 0
M  V30 2770 C 250.025 -3.07385 -4.19298 0
M  V30 2771 C 247.71 -2.41517 -4.40426 0
M  V30 2772 C 249.704 -4.34287 -4.66555 0
M  V30 2773 C 247.391 -3.68657 -4.87376 0
M  V30 2774 C 248.389 -4.64856 -5.00398 0
M  V30 2775 O 248.077 -5.89735 -5.46322 0
M  V30 2776 H 247.809 -0.215592 -0.6407 0
M  V30 2777 H 250.363 -1.23583 -1.64062 0
M  V30 2778 H 248.593 0.0170414 -3.86696 0
M  V30 2779 H 250.282 -0.363172 -4.04272 0
M  V30 2780 H 251.048 -2.84398 -3.92865 0
M  V30 2781 H 246.927 -1.67389 -4.29537 0
M  V30 2782 H 250.471 -5.09377 -4.76635 0
M  V30 2783 H 246.368 -3.91466 -5.13249 0
M  V30 2784 H 247.136 -5.92599 -5.64596 0
M  V30 2785 N 249.799 1.42003 -0.683588 0
M  V30 2786 C 251.029 2.05448 -0.217866 0
M  V30 2787 C 251.437 1.51491 1.13346 0
M  V30 2788 O 250.78 0.653048 1.717 0
M  V30 2789 C 250.842 3.59399 -0.0850118 0
M  V30 2790 C 250.506 4.36093 -1.36645 0
M  V30 2791 C 251.503 4.66169 -2.30179 0
M  V30 2792 C 249.188 4.75578 -1.61649 0
M  V30 2793 C 251.182 5.34676 -3.46988 0
M  V30 2794 C 248.869 5.43824 -2.78745 0
M  V30 2795 C 249.867 5.73299 -3.71238 0
M  V30 2796 O 249.555 6.40142 -4.86285 0
M  V30 2797 H 249.287 0.668344 -0.101454 0
M  V30 2798 H 251.841 1.82974 -0.933248 0
M  V30 2799 H 250.071 3.80566 0.686031 0
M  V30 2800 H 251.76 4.04457 0.341973 0
M  V30 2801 H 252.526 4.36156 -2.12115 0
M  V30 2802 H 248.405 4.52025 -0.905243 0
M  V30 2803 H 251.949 5.57599 -4.19201 0
M  V30 2804 H 247.846 5.73254 -2.96732 0
M  V30 2805 H 248.614 6.58636 -4.85944 0
M  V30 2806 N 251.277 0.427512 1.51691 0
M  V30 2807 C 252.507 -0.140986 2.06118 0
M  V30 2808 C 252.915 -1.37854 1.29588 0
M  V30 2809 O 252.258 -1.80411 0.346036 0
M  V30 2810 C 252.32 -0.538276 3.55447 0
M  V30 2811 C 251.984 0.591095 4.53161 0
M  V30 2812 C 252.981 1.46027 4.98971 0
M  V30 2813 C 250.666 0.769028 4.96378 0
M  V30 2814 C 252.66 2.49216 5.8666 0
M  V30 2815 C 250.347 1.80421 5.83859 0
M  V30 2816 C 251.345 2.66417 6.28897 0
M  V30 2817 O 251.033 3.68159 7.14643 0
M  V30 2818 H 250.765 -0.0157455 0.675817 0
M  V30 2819 H 253.319 0.602495 1.96365 0
M  V30 2820 H 251.549 -1.33432 3.6295 0
M  V30 2821 H 253.238 -1.0368 3.92435 0
M  V30 2822 H 254.004 1.33429 4.66285 0
M  V30 2823 H 249.883 0.109273 4.6087 0
M  V30 2824 H 253.427 3.16372 6.21735 0
M  V30 2825 H 249.324 1.93042 6.15959 0
M  V30 2826 H 250.092 3.64622 7.32798 0
M  V30 2827 N 252.755 -1.56801 0.158532 0
M  V30 2828 C 253.665 -2.20916 -0.789518 0
M  V30 2829 C 254.681 -1.1969 -1.26294 0
M  V30 2830 O 255.857 -1.52308 -1.31773 0
M  V30 2831 C 252.922 -2.82727 -2.00665 0
M  V30 2832 C 251.983 -3.99114 -1.58134 0
M  V30 2833 C 251.216 -4.57968 -2.74045 0
M  V30 2834 O 251.439 -4.15704 -3.90572 0
M  V30 2835 O 250.373 -5.48047 -2.48855 0
M  V30 2836 H 254.199 -3.02464 -0.273681 0
M  V30 2837 H 251.784 -1.4924 -0.0690548 0
M  V30 2838 H 253.666 -3.21968 -2.71872 0
M  V30 2839 H 252.341 -2.04184 -2.51179 0
M  V30 2840 H 251.248 -3.64567 -0.839155 0
M  V30 2841 H 252.581 -4.79212 -1.12325 0
M  V30 2842 N 254.233 0.115231 -1.57178 0
M  V30 2843 C 255.461 0.836437 -1.89239 0
M  V30 2844 C 255.876 1.73256 -0.750175 0
M  V30 2845 O 255.233 1.80357 0.278832 0
M  V30 2846 C 255.284 1.66671 -3.20785 0
M  V30 2847 O 255.005 0.806652 -4.3061 0
M  V30 2848 C 256.506 2.49274 -3.66575 0
M  V30 2849 H 253.726 0.240253 -0.626514 0
M  V30 2850 H 256.27 0.0984932 -2.04263 0
M  V30 2851 H 254.425 2.35737 -3.0742 0
M  V30 2852 H 254.839 1.37969 -5.06028 0
M  V30 2853 H 256.313 3.03055 -4.6137 0
M  V30 2854 H 256.79 3.26807 -2.93417 0
M  V30 2855 H 257.396 1.85443 -3.82741 0
M  V30 2856 N 255.711 1.52812 0.385517 0
M  V30 2857 C 256.96 1.67249 1.12741 0
M  V30 2858 C 257.273 0.4205 1.91027 0
M  V30 2859 O 258.479 0.445064 2.67827 0
M  V30 2860 C 256.935 2.95583 2.05326 0
M  V30 2861 C 256.543 4.27974 1.32447 0
M  V30 2862 C 258.287 3.19386 2.7963 0
M  V30 2863 C 256.194 5.47412 2.23818 0
M  V30 2864 H 255.124 0.6231 0.424573 0
M  V30 2865 H 257.775 1.79309 0.389924 0
M  V30 2866 H 256.157 2.77277 2.82725 0
M  V30 2867 H 257.331 4.56844 0.602495 0
M  V30 2868 H 255.646 4.10459 0.700885 0
M  V30 2869 H 258.243 4.05801 3.48181 0
M  V30 2870 H 258.586 2.34604 3.43899 0
M  V30 2871 H 259.119 3.38274 2.09322 0
M  V30 2872 H 255.858 6.34612 1.64157 0
M  V30 2873 H 255.378 5.22849 2.93921 0
M  V30 2874 H 257.057 5.81423 2.83824 0
M  V30 2875 N 257.189 -0.644168 1.43834 0
M  V30 2876 C 258.466 -1.40188 1.36406 0
M  V30 2877 C 258.846 -2.11094 0.0163124 0
M  V30 2878 O 258.194 -2.05426 -1.00062 0
M  V30 2879 C 258.404 -2.3791 2.55343 0
M  V30 2880 C 259.752 -3.01637 2.98832 0
M  V30 2881 O 260.776 -2.48237 2.55455 0
M  V30 2882 O 259.635 -3.98477 3.74003 0
M  V30 2883 H 256.729 -0.626773 0.539523 0
M  V30 2884 H 259.275 -0.670317 1.559 0
M  V30 2885 H 258.047 -1.84525 3.4506 0
M  V30 2886 H 257.67 -3.18503 2.37995 0
M  V30 2887 N 258.668 -1.30515 -0.883378 0
M  V30 2888 C 259.615 -1.17032 -1.98927 0
M  V30 2889 C 260.585 -0.0594241 -1.65994 0
M  V30 2890 O 261.77 -0.229895 -1.8941 0
M  V30 2891 C 258.91 -0.869777 -3.33959 0
M  V30 2892 C 258.023 -2.06271 -3.79574 0
M  V30 2893 C 257.158 -1.70011 -5.03259 0
M  V30 2894 C 256.197 -2.8579 -5.41286 0
M  V30 2895 N 255.334 -2.49816 -6.56153 0
M  V30 2896 H 260.174 -2.1164 -2.09792 0
M  V30 2897 H 257.711 -1.05296 -1.02719 0
M  V30 2898 H 259.669 -0.676138 -4.11685 0
M  V30 2899 H 258.299 0.0394332 -3.22776 0
M  V30 2900 H 257.351 -2.36755 -2.97744 0
M  V30 2901 H 258.663 -2.92971 -4.03694 0
M  V30 2902 H 257.817 -1.47032 -5.88614 0
M  V30 2903 H 256.556 -0.804829 -4.81013 0
M  V30 2904 H 255.561 -3.09434 -4.54456 0
M  V30 2905 H 256.786 -3.76008 -5.65504 0
M  V30 2906 H 254.732 -1.62795 -6.35479 0
M  V30 2907 H 254.649 -3.30048 -6.8015 0
M  V30 2908 H 255.917 -2.30197 -7.44735 0
M  V30 2909 N 260.146 1.09593 -1.13257 0
M  V30 2910 C 261.056 2.19739 -0.821691 0
M  V30 2911 C 262.072 1.72926 0.19302 0
M  V30 2912 O 263.248 2.01385 0.0244895 0
M  V30 2913 C 260.313 3.45482 -0.290333 0
M  V30 2914 C 259.374 4.06985 -1.36607 0
M  V30 2915 C 258.607 5.26726 -0.859975 0
M  V30 2916 O 258.83 5.69594 0.303082 0
M  V30 2917 O 257.764 5.7931 -1.63351 0
M  V30 2918 H 261.59 2.48781 -1.74189 0
M  V30 2919 H 259.175 1.18496 -0.909894 0
M  V30 2920 H 261.057 4.214 0.000674022 0
M  V30 2921 H 259.732 3.18047 0.602306 0
M  V30 2922 H 258.639 3.32712 -1.71037 0
M  V30 2923 H 259.972 4.38643 -2.23279 0
M  V30 2924 N 261.624 0.925811 1.2754 0
M  V30 2925 C 262.554 0.440748 2.29303 0
M  V30 2926 C 263.535 -0.497971 1.62648 0
M  V30 2927 O 264.72 -0.403126 1.8997 0
M  V30 2928 C 261.85 -0.309048 3.45922 0
M  V30 2929 C 260.804 0.54166 4.24559 0
M  V30 2930 C 260.13 -0.337191 5.33636 0
M  V30 2931 C 261.43 1.80516 4.90114 0
M  V30 2932 H 263.124 1.29121 2.70126 0
M  V30 2933 H 260.67 0.622323 1.29858 0
M  V30 2934 H 262.623 -0.659315 4.1621 0
M  V30 2935 H 261.347 -1.19352 3.04011 0
M  V30 2936 H 260.006 0.874609 3.56014 0
M  V30 2937 H 259.654 -1.22056 4.87966 0
M  V30 2938 H 259.354 0.228497 5.87156 0
M  V30 2939 H 260.878 -0.683072 6.06767 0
M  V30 2940 H 262.292 1.52307 5.52698 0
M  V30 2941 H 260.689 2.3142 5.53683 0
M  V30 2942 H 261.759 2.52581 4.13921 0
M  V30 2943 N 263.102 -1.41638 0.69111 0
M  V30 2944 C 264.351 -2.00526 0.217318 0
M  V30 2945 C 264.664 -1.55353 -1.18848 0
M  V30 2946 O 265.87 -2.06769 -1.75951 0
M  V30 2947 C 264.326 -3.58313 0.337639 0
M  V30 2948 C 263.934 -4.12469 1.74852 0
M  V30 2949 C 265.678 -4.24431 -0.0766066 0
M  V30 2950 C 263.585 -5.62675 1.82074 0
M  V30 2951 H 262.515 -0.750008 0.0774893 0
M  V30 2952 H 265.166 -1.6217 0.858661 0
M  V30 2953 H 263.548 -3.9425 -0.371879 0
M  V30 2954 H 264.722 -3.8796 2.48644 0
M  V30 2955 H 263.037 -3.58861 2.11205 0
M  V30 2956 H 265.634 -5.34683 -0.0430284 0
M  V30 2957 H 265.977 -4.01101 -1.1146 0
M  V30 2958 H 266.51 -3.93512 0.582476 0
M  V30 2959 H 263.249 -5.90826 2.83911 0
M  V30 2960 H 262.769 -5.89124 1.12661 0
M  V30 2961 H 264.448 -6.27371 1.58159 0
M  V30 2962 N 264.58 -0.43555 -1.51462 0
M  V30 2963 C 265.857 0.191364 -1.94662 0
M  V30 2964 C 266.237 1.60254 -1.37411 0
M  V30 2965 O 265.585 2.2152 -0.560458 0
M  V30 2966 C 265.795 0.17091 -3.48581 0
M  V30 2967 C 267.143 0.377357 -4.2292 0
M  V30 2968 O 268.167 0.249104 -3.55328 0
M  V30 2969 O 267.026 0.63247 -5.42828 0
M  V30 2970 H 264.12 0.130932 -0.816569 0
M  V30 2971 H 266.666 -0.4934 -1.62369 0
M  V30 2972 H 265.438 -0.815738 -3.82703 0
M  V30 2973 H 265.061 0.898659 -3.87311 0
M  V30 2974 N 266.058 1.56714 -0.166846 0
M  V30 2975 C 267.008 2.14338 0.777382 0
M  V30 2976 C 267.992 1.07642 1.19591 0
M  V30 2977 O 269.184 1.33775 1.15902 0
M  V30 2978 C 266.313 2.78417 2.00846 0
M  V30 2979 C 265.399 3.92264 1.61212 0
M  V30 2980 N 265.79 4.97268 0.925104 0
M  V30 2981 C 264.088 4.03342 1.90346 0
M  V30 2982 C 264.789 5.77093 0.730627 0
M  V30 2983 N 263.765 5.2854 1.27067 0
M  V30 2984 H 267.567 2.9289 0.243466 0
M  V30 2985 H 265.081 1.62364 0.0339954 0
M  V30 2986 H 267.078 3.18073 2.69509 0
M  V30 2987 H 265.738 2.01344 2.54736 0
M  V30 2988 H 266.749 5.14601 0.583646 0
M  V30 2989 H 263.426 3.37368 2.45946 0
M  V30 2990 H 264.816 6.71638 0.187668 0
M  V30 2991 N 267.536 -0.106894 1.57237 0
M  V30 2992 C 268.761 -0.830287 1.90055 0
M  V30 2993 C 269.186 -1.72064 0.75998 0
M  V30 2994 O 268.544 -1.78982 -0.288991 0
M  V30 2995 C 268.592 -1.6295 3.21683 0
M  V30 2996 O 267.696 -2.73748 3.08441 0
M  V30 2997 H 267.037 -0.228855 0.623315 0
M  V30 2998 H 269.567 -0.085658 2.04421 0
M  V30 2999 H 269.577 -2.01621 3.54701 0
M  V30 3000 H 268.252 -0.975989 4.04286 0
M  V30 3001 H 266.829 -2.38192 2.86913 0
M  V30 3002 N 269.014 -1.53014 -0.377408 0
M  V30 3003 C 270.425 -1.60438 -0.954798 0
M  V30 3004 C 270.776 -0.464418 -1.90624 0
M  V30 3005 O 269.901 0.41087 -2.12464 0
M  V30 3006 C 270.496 -2.90797 -1.73847 0
M  V30 3007 C 269.055 -3.00595 -2.26538 0
M  V30 3008 C 268.202 -2.55645 -1.07429 0
M  V30 3009 H 271.153 -1.57926 -0.156575 0
M  V30 3010 H 271.174 -2.77935 -2.5987 0
M  V30 3011 H 270.686 -3.73746 -1.04574 0
M  V30 3012 H 268.787 -2.22208 -2.99089 0
M  V30 3013 H 268.9 -4.05456 -2.5523 0
M  V30 3014 H 267.264 -2.10239 -1.43777 0
M  V30 3015 H 268.047 -3.41 -0.396728 0
M  V30 3016 N 270.492 0.636531 -1.44174 0
M  V30 3017 C 271.439 1.74875 -1.50624 0
M  V30 3018 C 272.409 1.62275 -0.35442 0
M  V30 3019 O 273.594 1.82276 -0.563908 0
M  V30 3020 C 270.734 3.13102 -1.45125 0
M  V30 3021 C 269.847 3.36717 -2.7064 0
M  V30 3022 C 268.982 4.64885 -2.57013 0
M  V30 3023 C 268.021 4.8166 -3.77717 0
M  V30 3024 N 267.158 6.01101 -3.62798 0
M  V30 3025 H 271.998 1.68697 -2.45653 0
M  V30 3026 H 269.535 0.823004 -1.21922 0
M  V30 3027 H 271.493 3.93034 -1.39929 0
M  V30 3028 H 270.123 3.18308 -0.536671 0
M  V30 3029 H 269.175 2.50763 -2.86046 0
M  V30 3030 H 270.487 3.44993 -3.60252 0
M  V30 3031 H 269.641 5.52969 -2.49619 0
M  V30 3032 H 268.38 4.58957 -1.64953 0
M  V30 3033 H 267.385 3.92007 -3.85501 0
M  V30 3034 H 268.61 4.89406 -4.70807 0
M  V30 3035 H 266.556 5.96273 -2.73486 0
M  V30 3036 H 266.473 6.10409 -4.46023 0
M  V30 3037 H 267.741 6.91761 -3.59286 0
M  V30 3038 N 271.97 1.30982 0.876444 0
M  V30 3039 C 272.933 1.18054 1.96459 0
M  V30 3040 C 273.933 0.109399 1.60427 0
M  V30 3041 O 275.123 0.358173 1.70478 0
M  V30 3042 C 272.255 0.810616 3.31122 0
M  V30 3043 H 273.448 2.14735 2.09354 0
M  V30 3044 H 271.001 1.145 1.06392 0
M  V30 3045 H 271.736 -0.155322 3.23928 0
M  V30 3046 H 271.521 1.58481 3.58645 0
M  V30 3047 H 273.011 0.743876 4.10921 0
M  V30 3048 N 273.449 -1.08991 1.13837 0
M  V30 3049 C 274.677 -1.85011 0.926202 0
M  V30 3050 C 275.092 -1.8135 -0.525127 0
M  V30 3051 O 274.449 -1.21287 -1.36366 0
M  V30 3052 C 274.5 -3.32802 1.41155 0
M  V30 3053 O 274.221 -3.36444 2.80601 0
M  V30 3054 C 275.722 -4.25649 1.23847 0
M  V30 3055 H 272.942 -0.584249 0.32999 0
M  V30 3056 H 275.486 -1.37688 1.51202 0
M  V30 3057 H 273.641 -3.77536 0.868631 0
M  V30 3058 H 274.055 -4.28657 3.02248 0
M  V30 3059 H 275.529 -5.27485 1.62675 0
M  V30 3060 H 276.006 -4.38828 0.18065 0
M  V30 3061 H 276.612 -3.86735 1.76964 0
M  V30 3062 N 274.927 -0.932562 -1.27047 0
M  V30 3063 C 276.338 -0.619451 -1.76124 0
M  V30 3064 C 276.689 0.865397 -1.76083 0
M  V30 3065 O 275.814 1.67722 -1.36742 0
M  V30 3066 C 276.409 -1.11771 -3.19832 0
M  V30 3067 C 274.968 -0.855174 -3.66557 0
M  V30 3068 C 274.115 -1.27362 -2.46321 0
M  V30 3069 H 277.066 -1.11181 -1.13245 0
M  V30 3070 H 277.087 -0.46759 -3.77616 0
M  V30 3071 H 276.599 -2.19842 -3.1983 0
M  V30 3072 H 274.7 0.211524 -3.71999 0
M  V30 3073 H 274.813 -1.47613 -4.55793 0
M  V30 3074 H 273.177 -0.692119 -2.45116 0
M  V30 3075 H 273.96 -2.36307 -2.49025 0
M  V30 3076 N 276.405 1.4127 -0.698611 0
M  V30 3077 C 277.682 1.94955 -0.158762 0
M  V30 3078 C 278.062 1.63781 1.33188 0
M  V30 3079 O 277.41 0.946423 2.07979 0
M  V30 3080 C 277.62 3.46044 -0.453309 0
M  V30 3081 C 278.968 4.22872 -0.382707 0
M  V30 3082 O 279.992 3.54076 -0.388396 0
M  V30 3083 O 278.851 5.45407 -0.345463 0
M  V30 3084 H 275.945 0.82683 -0.0167505 0
M  V30 3085 H 278.491 1.50971 -0.77498 0
M  V30 3086 H 277.263 3.62028 -1.48498 0
M  V30 3087 H 276.886 3.97128 0.19373 0
M  V30 3088 N 277.883 0.443576 1.51229 0
M  V30 3089 C 278.831 -0.37904 2.29491 0
M  V30 3090 C 279.825 -1.0153 1.35603 0
M  V30 3091 O 281.031 -0.94955 1.52917 0
M  V30 3092 H 277.406 -0.141053 0.738653 0
M  V30 3093 H 279.377 0.301799 2.9687 0
M  V30 3094 C 278.126 -1.46426 3.15364 0
M  V30 3095 H 277.449 -0.984037 3.87501 0
M  V30 3096 H 278.889 -2.01297 3.7317 0
M  V30 3097 C 277.348 -2.45099 2.31146 0
M  V30 3098 O 277.878 -3.49773 1.9754 0
M  V30 3099 N 276.084 -2.16139 1.94249 0
M  V30 3100 H 275.631 -1.31044 2.21777 0
M  V30 3101 H 275.589 -2.82398 1.38198 0
M  V30 3102 O 279.4 -1.58373 0.316273 0
M  V30 3103 H 280.091 -1.92143 -0.24513 0
M  V30 END ATOM
M  V30 BEGIN BOND
M  V30 END BOND
M  V30 END CTAB
M  END
$$$$
