drugbank_target|P09619 Platelet-derived growth factor receptor beta (DB00102; DB00398; DB00619; DB01254; DB01268; DB05014; DB05146; DB06589; DB06595; DB08896; DB09079; DB09221; DB09283; DB10770; DB12010; DB12147; DB12978; DB14840; DB15822)
 OpenBabel12092119263D

  0  0  0     0  0            999 V3000
M  V30 BEGIN CTAB
M  V30 COUNTS 17324 17525 0 0 0
M  V30 BEGIN ATOM
M  V30 1 H -0.908 1.98254 -0.117106 0
M  V30 2 N 0 1.576 0 0
M  V30 3 C 0.933 2.03868 1.02534 0
M  V30 4 C 1.911 0.928543 1.3348 0
M  V30 5 O 3.095 1.19667 1.45644 0
M  V30 6 C 0.222 2.43627 2.35294 0
M  V30 7 C -0.732 3.65373 2.2001 0
M  V30 8 S 0.101 5.13292 1.52614 0
M  V30 9 C 1.257 5.56322 2.86805 0
M  V30 10 H 1.49 2.90518 0.631377 0
M  V30 11 H -0.977 1.52953 0.210867 0
M  V30 12 H 0.981 2.67203 3.11629 0
M  V30 13 H -0.358 1.57376 2.7183 0
M  V30 14 H -1.165 3.90944 3.18086 0
M  V30 15 H -1.563 3.418 1.51819 0
M  V30 16 H 0.729 5.58782 3.83104 0
M  V30 17 H 1.672 6.56266 2.65933 0
M  V30 18 H 2.08 4.83886 2.90714 0
M  V30 19 N 1.4781 -0.272755 1.55222 0
M  V30 20 C 2.8941 -0.619959 1.47067 0
M  V30 21 C 3.0941 -1.895 0.684978 0
M  V30 22 O 2.1501 -2.51675 0.203931 0
M  V30 23 C 3.4631 -0.746693 2.91282 0
M  V30 24 C 5.0111 -0.840731 3.01497 0
M  V30 25 C 5.4861 -0.99924 4.46967 0
M  V30 26 N 6.9771 -1.06476 4.50796 0
M  V30 27 C 7.7121 -1.20621 5.6057 0
M  V30 28 N 7.2081 -1.31483 6.80209 0
M  V30 29 N 9.0011 -1.23733 5.48312 0
M  V30 30 H 1.1521 0.564606 2.04758 0
M  V30 31 H 3.4151 0.191177 0.928523 0
M  V30 32 H 3.1211 0.119753 3.51496 0
M  V30 33 H 2.9951 -1.6269 3.40311 0
M  V30 34 H 5.3821 -1.69764 2.41379 0
M  V30 35 H 5.4631 0.0640874 2.5572 0
M  V30 36 H 5.1071 -0.146984 5.07687 0
M  V30 37 H 5.0371 -1.91871 4.90401 0
M  V30 38 H 7.5281 -0.993196 3.64615 0
M  V30 39 H 7.8411 -1.42111 7.59621 0
M  V30 40 H 6.1861 -1.28487 6.8302 0
M  V30 41 H 9.3771 -1.14877 4.53785 0
M  V30 42 H 9.5501 -1.34412 6.33906 0
M  V30 43 N 2.9562 -1.48159 -0.537278 0
M  V30 44 C 3.8862 -1.65029 -1.6519 0
M  V30 45 C 4.8672 -0.499281 -1.62607 0
M  V30 46 O 6.0522 -0.730972 -1.79918 0
M  V30 47 C 3.1822 -1.68303 -3.03795 0
M  V30 48 C 2.1362 -2.8283 -3.21234 0
M  V30 49 C 1.4622 -2.71189 -4.60826 0
M  V30 50 C 2.7622 -4.24211 -3.04701 0
M  V30 51 H 4.4562 -2.58341 -1.51328 0
M  V30 52 H 2.0022 -1.24325 -0.726585 0
M  V30 53 H 3.9552 -1.78693 -3.81637 0
M  V30 54 H 2.6792 -0.715635 -3.18663 0
M  V30 55 H 1.3382 -2.71983 -2.45807 0
M  V30 56 H 0.9862 -1.72435 -4.7252 0
M  V30 57 H 0.6862 -3.48035 -4.7344 0
M  V30 58 H 2.2102 -2.83537 -5.40777 0
M  V30 59 H 3.6242 -4.3593 -3.72341 0
M  V30 60 H 2.0212 -5.01998 -3.28813 0
M  V30 61 H 3.0912 -4.41184 -2.01209 0
M  V30 62 N 4.4343 0.785586 -1.36625 0
M  V30 63 C 5.8453 1.36101 -1.27803 0
M  V30 64 C 6.1963 1.96035 0.0804875 0
M  V30 65 O 5.3213 1.92834 0.982042 0
M  V30 66 C 5.9163 2.47442 -2.31426 0
M  V30 67 C 4.4753 3.00789 -2.26281 0
M  V30 68 C 3.6223 1.73896 -2.15999 0
M  V30 69 H 6.5733 0.586928 -1.47448 0
M  V30 70 H 6.5943 3.2656 -1.95291 0
M  V30 71 H 6.1063 2.03791 -3.30289 0
M  V30 72 H 4.2073 3.48851 -1.30896 0
M  V30 73 H 4.3203 3.57343 -3.19128 0
M  V30 74 H 2.6843 1.9628 -1.62316 0
M  V30 75 H 3.4673 1.32368 -3.16755 0
M  V30 76 N 5.9124 1.20967 1.01018 0
M  V30 77 C 7.1604 1.02172 1.74371 0
M  V30 78 C 7.4814 -0.446414 1.89821 0
M  V30 79 O 6.7514 -1.32234 1.44537 0
M  V30 80 H 5.3314 0.375066 0.646014 0
M  V30 81 H 7.9934 1.52187 1.21758 0
M  V30 82 H 7.0894 1.48538 2.74487 0
M  V30 83 N 7.3905 -1.2043 1.01659 0
M  V30 84 C 8.3535 -2.21433 0.591616 0
M  V30 85 C 9.3535 -1.57203 -0.338226 0
M  V30 86 O 10.5435 -1.73737 -0.126918 0
M  V30 87 C 7.6755 -3.40628 -0.136058 0
M  V30 88 H 8.8685 -2.60545 1.48514 0
M  V30 89 H 6.4215 -1.33893 0.806379 0
M  V30 90 H 7.1565 -3.07019 -1.04449 0
M  V30 91 H 6.9415 -3.88475 0.531917 0
M  V30 92 H 8.4315 -4.15475 -0.420735 0
M  V30 93 N 8.8686 -0.792821 -1.36206 0
M  V30 94 C 9.8016 -0.139422 -2.27774 0
M  V30 95 C 10.7796 0.68649 -1.47398 0
M  V30 96 O 11.9636 0.656738 -1.7669 0
M  V30 97 C 9.0906 0.807947 -3.28922 0
M  V30 98 C 8.1366 0.0633999 -4.26453 0
M  V30 99 S 8.9696 -1.26319 -5.20388 0
M  V30 100 C 10.1256 -0.31991 -6.25082 0
M  V30 101 H 10.3586 -0.915809 -2.82843 0
M  V30 102 H 7.8916 -0.587203 -1.42798 0
M  V30 103 H 9.8496 1.34908 -3.87699 0
M  V30 104 H 8.5106 1.55761 -2.72759 0
M  V30 105 H 7.7036 0.782386 -4.9789 0
M  V30 106 H 7.3056 -0.407352 -3.71775 0
M  V30 107 H 9.5976 0.499985 -6.75653 0
M  V30 108 H 10.5406 -1.00307 -7.00959 0
M  V30 109 H 10.9486 0.0782694 -5.64446 0
M  V30 110 N 10.3467 1.47872 -0.545128 0
M  V30 111 C 11.7577 1.86384 -0.108581 0
M  V30 112 C 12.1087 1.45309 1.31832 0
M  V30 113 O 11.2337 0.850641 1.9898 0
M  V30 114 C 11.8287 3.38265 -0.190274 0
M  V30 115 C 10.3877 3.75914 0.191164 0
M  V30 116 C 9.5347 2.71926 -0.543273 0
M  V30 117 H 12.4857 1.39561 -0.755537 0
M  V30 118 H 12.5067 3.75831 0.594217 0
M  V30 119 H 12.0187 3.6813 -1.2289 0
M  V30 120 H 10.1197 3.51665 1.23136 0
M  V30 121 H 10.2327 4.78836 -0.158987 0
M  V30 122 H 8.5967 2.54697 0.0122495 0
M  V30 123 H 9.3797 3.04634 -1.58282 0
M  V30 124 N 11.8248 0.280983 1.55075 0
M  V30 125 C 12.7878 -0.590896 2.21452 0
M  V30 126 C 13.7878 -1.07682 1.19421 0
M  V30 127 O 14.9778 -0.97605 1.44288 0
M  V30 128 C 12.1098 -1.81587 2.88511 0
M  V30 129 H 13.3028 -0.0112554 2.99898 0
M  V30 130 H 10.8558 0.0316438 1.56268 0
M  V30 131 H 11.5908 -2.43587 2.14093 0
M  V30 132 H 11.3758 -1.4753 3.63287 0
M  V30 133 H 12.8658 -2.43575 3.39206 0
M  V30 134 N 13.3029 -1.57598 0.00835791 0
M  V30 135 C 14.2329 -2.1198 -0.979113 0
M  V30 136 C 15.2139 -1.03091 -1.35301 0
M  V30 137 O 16.3989 -1.30818 -1.43528 0
M  V30 138 C 13.5289 -2.62995 -2.26828 0
M  V30 139 C 12.4829 -3.76485 -2.03576 0
M  V30 140 C 11.8089 -4.13846 -3.38579 0
M  V30 141 C 13.1089 -5.0342 -1.39161 0
M  V30 142 H 14.8029 -2.94738 -0.526281 0
M  V30 143 H 12.3489 -1.41783 -0.251704 0
M  V30 144 H 14.3019 -2.99669 -2.96271 0
M  V30 145 H 13.0259 -1.7737 -2.7424 0
M  V30 146 H 11.6849 -3.40217 -1.36557 0
M  V30 147 H 11.3329 -3.25232 -3.83709 0
M  V30 148 H 11.0329 -4.90312 -3.23834 0
M  V30 149 H 12.5569 -4.53086 -4.09323 0
M  V30 150 H 13.9709 -5.37812 -1.98573 0
M  V30 151 H 12.3679 -5.84746 -1.34878 0
M  V30 152 H 13.4379 -4.83548 -0.361868 0
M  V30 153 N 14.781 0.264519 -1.55364 0
M  V30 154 C 15.744 1.31046 -1.88042 0
M  V30 155 C 16.744 1.41943 -0.755569 0
M  V30 156 O 17.934 1.40947 -1.02369 0
M  V30 157 C 15.066 2.69067 -2.09323 0
M  V30 158 H 16.259 1.03297 -2.81549 0
M  V30 159 H 13.812 0.502989 -1.47986 0
M  V30 160 H 14.547 3.01982 -1.18226 0
M  V30 161 H 14.332 2.62542 -2.91229 0
M  V30 162 H 15.822 3.44623 -2.35848 0
M  V30 163 N 16.2591 1.48442 0.529413 0
M  V30 164 C 17.1891 1.65902 1.64313 0
M  V30 165 C 18.1701 0.507897 1.6234 0
M  V30 166 O 19.3551 0.740503 1.79528 0
M  V30 167 C 16.4851 1.69911 3.02898 0
M  V30 168 C 15.4391 2.8453 3.19729 0
M  V30 169 C 14.7651 2.73629 4.59381 0
M  V30 170 C 16.0651 4.25821 3.02447 0
M  V30 171 H 17.7591 2.5914 1.49955 0
M  V30 172 H 15.3051 1.24709 0.719982 0
M  V30 173 H 17.2581 1.80715 3.80684 0
M  V30 174 H 15.9821 0.732524 3.18279 0
M  V30 175 H 14.6411 2.73283 2.44361 0
M  V30 176 H 14.2891 1.74938 4.71599 0
M  V30 177 H 13.9891 3.50541 4.71588 0
M  V30 178 H 15.5131 2.86401 5.39265 0
M  V30 179 H 16.9271 4.37898 3.70024 0
M  V30 180 H 15.3241 5.03735 3.26146 0
M  V30 181 H 16.3941 4.42244 1.98867 0
M  V30 182 N 17.7372 -0.778329 1.37039 0
M  V30 183 C 18.6842 -1.89139 1.32269 0
M  V30 184 C 19.6542 -1.65017 0.189387 0
M  V30 185 O 20.8392 -1.87024 0.377693 0
M  V30 186 C 17.9792 -3.26112 1.12894 0
M  V30 187 C 17.0922 -3.62233 2.35396 0
M  V30 188 C 16.2272 -4.8838 2.08946 0
M  V30 189 C 15.2662 -5.17212 3.2735 0
M  V30 190 N 14.4032 -6.34546 3.00492 0
M  V30 191 H 19.2432 -1.92552 2.27437 0
M  V30 192 H 16.7802 -0.941473 1.13025 0
M  V30 193 H 18.7382 -4.05116 0.996835 0
M  V30 194 H 17.3682 -3.22091 0.213758 0
M  V30 195 H 16.4202 -2.78265 2.5937 0
M  V30 196 H 17.7322 -3.79481 3.23721 0
M  V30 197 H 16.8862 -5.75274 1.92729 0
M  V30 198 H 15.6252 -4.73222 1.17949 0
M  V30 199 H 14.6302 -4.28796 3.44113 0
M  V30 200 H 15.8552 -5.34283 4.19188 0
M  V30 201 H 13.8012 -6.20759 2.12118 0
M  V30 202 H 13.7182 -6.52179 3.82358 0
M  V30 203 H 14.9862 -7.24394 2.87879 0
M  V30 204 N 19.2153 -1.21501 -1.00376 0
M  V30 205 C 20.4633 -1.03095 -1.73827 0
M  V30 206 C 20.7843 0.436341 -1.90055 0
M  V30 207 O 20.0543 1.31466 -1.45236 0
M  V30 208 H 18.6343 -0.378487 -0.644016 0
M  V30 209 H 21.2963 -1.52831 -1.20949 0
M  V30 210 H 20.3923 -1.49991 -2.73695 0
M  V30 211 N 20.6934 1.19889 -1.02296 0
M  V30 212 C 21.6034 2.26571 -0.608508 0
M  V30 213 C 22.6194 1.70299 0.356964 0
M  V30 214 O 23.7954 2.00235 0.216326 0
M  V30 215 C 20.8604 3.46677 0.0402814 0
M  V30 216 C 19.9214 4.18153 -0.97194 0
M  V30 217 C 19.1544 5.32525 -0.354016 0
M  V30 218 O 19.3774 5.64112 0.844604 0
M  V30 219 O 18.3114 5.92242 -1.07391 0
M  V30 220 H 22.1374 2.64251 -1.49684 0
M  V30 221 H 19.7224 1.26629 -0.792809 0
M  V30 222 H 21.6044 4.19475 0.402324 0
M  V30 223 H 20.2794 3.10858 0.902707 0
M  V30 224 H 19.1864 3.47499 -1.38546 0
M  V30 225 H 20.5194 4.57927 -1.80454 0
M  V30 226 N 22.1715 0.800033 1.35784 0
M  V30 227 C 23.1015 0.220184 2.3246 0
M  V30 228 C 24.0825 -0.65073 1.57161 0
M  V30 229 O 25.2675 -0.582359 1.85263 0
M  V30 230 C 22.3975 -0.637353 3.41402 0
M  V30 231 C 21.3515 0.134531 4.27789 0
M  V30 232 C 20.6775 -0.844285 5.27992 0
M  V30 233 C 21.9775 1.32979 5.05088 0
M  V30 234 H 23.6715 1.02787 2.81203 0
M  V30 235 H 21.2175 0.495717 1.35199 0
M  V30 236 H 23.1705 -1.05302 4.08031 0
M  V30 237 H 21.8945 -1.47785 2.91251 0
M  V30 238 H 20.5535 0.531296 3.6273 0
M  V30 239 H 20.2015 -1.68011 4.74111 0
M  V30 240 H 19.9015 -0.332184 5.8666 0
M  V30 241 H 21.4255 -1.2583 5.97494 0
M  V30 242 H 22.8395 0.98934 5.64699 0
M  V30 243 H 21.2365 1.77593 5.7322 0
M  V30 244 H 22.3065 2.11978 4.36111 0
M  V30 245 N 23.6496 -1.47581 0.552962 0
M  V30 246 C 24.5796 -2.32762 -0.185451 0
M  V30 247 C 25.5606 -1.43527 -0.912905 0
M  V30 248 O 26.7456 -1.72388 -0.894201 0
M  V30 249 C 23.8756 -3.25219 -1.21859 0
M  V30 250 C 22.8296 -4.23661 -0.607864 0
M  V30 251 C 22.1556 -5.05413 -1.74533 0
M  V30 252 C 23.4556 -5.20481 0.435582 0
M  V30 253 H 25.1496 -2.94749 0.525684 0
M  V30 254 H 22.6956 -1.41738 0.254251 0
M  V30 255 H 24.6486 -3.8365 -1.7433 0
M  V30 256 H 23.3726 -2.61279 -1.95961 0
M  V30 257 H 22.0316 -3.66451 -0.104489 0
M  V30 258 H 21.6796 -4.3788 -2.47529 0
M  V30 259 H 21.3796 -5.72059 -1.34249 0
M  V30 260 H 22.9036 -5.66701 -2.27338 0
M  V30 261 H 24.3176 -5.733 -0.00290157 0
M  V30 262 H 22.7146 -5.95305 0.757067 0
M  V30 263 H 23.7846 -4.66217 1.33303 0
M  V30 264 N 25.1277 -0.289203 -1.54924 0
M  V30 265 C 26.0577 0.58549 -2.2604 0
M  V30 266 C 27.0387 1.14753 -1.25562 0
M  V30 267 O 28.2237 1.17906 -1.54311 0
M  V30 268 C 25.3537 1.76305 -2.99222 0
M  V30 269 C 24.3077 1.33191 -4.06748 0
M  V30 270 C 23.6337 2.5937 -4.6758 0
M  V30 271 C 24.9337 0.471775 -5.20165 0
M  V30 272 H 26.6277 -0.00763532 -2.99399 0
M  V30 273 H 24.1737 -0.00511229 -1.43999 0
M  V30 274 H 26.1267 2.38097 -3.47689 0
M  V30 275 H 24.8507 2.38223 -2.23422 0
M  V30 276 H 23.5097 0.737121 -3.59113 0
M  V30 277 H 23.1577 3.19576 -3.88433 0
M  V30 278 H 22.8577 2.31228 -5.40192 0
M  V30 279 H 24.3817 3.21985 -5.18804 0
M  V30 280 H 25.7957 0.995056 -5.64599 0
M  V30 281 H 24.1927 0.284639 -5.99425 0
M  V30 282 H 25.2627 -0.506041 -4.82252 0
M  V30 283 N 26.6058 1.57591 -0.0167156 0
M  V30 284 C 27.5358 2.12496 0.967858 0
M  V30 285 C 28.5168 1.03807 1.34752 0
M  V30 286 O 29.7018 1.31577 1.42833 0
M  V30 287 C 26.8318 2.64194 2.25431 0
M  V30 288 C 25.7858 3.77559 2.01576 0
M  V30 289 C 25.1118 4.15636 3.36379 0
M  V30 290 C 26.4118 5.04151 1.36489 0
M  V30 291 H 28.1058 2.95013 0.510643 0
M  V30 292 H 25.6518 1.41915 0.244181 0
M  V30 293 H 27.6048 3.01236 2.94678 0
M  V30 294 H 26.3288 1.78821 2.73296 0
M  V30 295 H 24.9878 3.40937 1.34751 0
M  V30 296 H 24.6358 3.27263 3.81979 0
M  V30 297 H 24.3358 4.92022 3.21229 0
M  V30 298 H 25.8598 4.5525 4.06915 0
M  V30 299 H 27.2738 5.38857 1.95718 0
M  V30 300 H 25.6708 5.85453 1.31776 0
M  V30 301 H 26.7408 4.83733 0.336219 0
M  V30 302 N 28.0839 -0.256276 1.55502 0
M  V30 303 C 29.3089 -1.00766 1.81276 0
M  V30 304 C 29.7339 -1.78524 0.59252 0
M  V30 305 O 29.0919 -1.75413 -0.45827 0
M  V30 306 C 29.1399 -1.92869 3.04687 0
M  V30 307 O 28.2439 -3.019 2.80945 0
M  V30 308 H 27.5849 -0.287224 0.598664 0
M  V30 309 H 30.1149 -0.280109 2.02674 0
M  V30 310 H 30.1249 -2.34511 3.33869 0
M  V30 311 H 28.7999 -1.35689 3.93143 0
M  V30 312 H 27.3769 -2.64454 2.62904 0
M  V30 313 N 29.562 -1.4872 -0.521534 0
M  V30 314 C 30.492 -1.66771 -1.63431 0
M  V30 315 C 31.473 -0.516499 -1.62069 0
M  V30 316 O 32.658 -0.750013 -1.79132 0
M  V30 317 C 29.788 -1.71515 -3.01993 0
M  V30 318 C 28.742 -2.86222 -3.18216 0
M  V30 319 C 28.068 -2.76061 -4.57924 0
M  V30 320 C 29.368 -4.27419 -3.00184 0
M  V30 321 H 31.062 -2.59932 -1.48579 0
M  V30 322 H 28.608 -1.25089 -0.713358 0
M  V30 323 H 30.561 -1.82731 -3.7972 0
M  V30 324 H 29.285 -0.749393 -3.17886 0
M  V30 325 H 27.944 -2.74575 -2.42908 0
M  V30 326 H 27.592 -1.77437 -4.70665 0
M  V30 327 H 27.292 -3.53037 -4.69722 0
M  V30 328 H 28.816 -2.89256 -5.37739 0
M  V30 329 H 30.23 -4.39855 -3.67697 0
M  V30 330 H 28.627 -5.05458 -3.2347 0
M  V30 331 H 29.697 -4.43293 -1.96518 0
M  V30 332 N 31.0401 0.771051 -1.3745 0
M  V30 333 C 31.9701 1.89827 -1.3597 0
M  V30 334 C 32.9511 1.68562 -0.228216 0
M  V30 335 O 34.1361 1.8941 -0.428675 0
M  V30 336 C 31.2661 3.2712 -1.16662 0
M  V30 337 C 30.2201 3.6295 -2.2683 0
M  V30 338 C 29.5461 4.98791 -1.92644 0
M  V30 339 C 30.8461 3.69627 -3.69017 0
M  V30 340 H 32.5401 1.91323 -2.30295 0
M  V30 341 H 30.0861 0.919082 -1.10855 0
M  V30 342 H 32.0391 4.05615 -1.14256 0
M  V30 343 H 30.7631 3.26059 -0.187926 0
M  V30 344 H 29.4221 2.86763 -2.28392 0
M  V30 345 H 29.0701 4.94271 -0.933021 0
M  V30 346 H 28.7701 5.23733 -2.66416 0
M  V30 347 H 30.2941 5.79685 -1.91826 0
M  V30 348 H 31.7081 4.38273 -3.69581 0
M  V30 349 H 30.1051 4.06067 -4.41848 0
M  V30 350 H 31.1751 2.70273 -4.02592 0
M  V30 351 N 32.5182 1.22032 0.997298 0
M  V30 352 C 33.4482 1.01065 2.10495 0
M  V30 353 C 34.4292 -0.0669542 1.69968 0
M  V30 354 O 35.6142 0.0943987 1.9397 0
M  V30 355 C 32.7442 0.582874 3.42374 0
M  V30 356 C 31.6982 1.60592 3.96729 0
M  V30 357 C 31.0242 1.03412 5.24605 0
M  V30 358 C 32.3242 2.99478 4.27914 0
M  V30 359 H 34.0182 1.93708 2.28292 0
M  V30 360 H 31.5642 0.932761 1.09707 0
M  V30 361 H 33.5172 0.423332 4.19268 0
M  V30 362 H 32.2412 -0.379213 3.24391 0
M  V30 363 H 30.9002 1.75316 3.21963 0
M  V30 364 H 30.5482 0.063518 5.0296 0
M  V30 365 H 30.2482 1.71754 5.61938 0
M  V30 366 H 31.7722 0.886066 6.04137 0
M  V30 367 H 33.1862 2.88153 4.95622 0
M  V30 368 H 31.5832 3.64903 4.76409 0
M  V30 369 H 32.6532 3.49742 3.3587 0
M  V30 370 N 33.9963 -1.19345 1.0293 0
M  V30 371 C 34.9263 -2.2481 0.631105 0
M  V30 372 C 35.9073 -1.66245 -0.360104 0
M  V30 373 O 37.0923 -1.92677 -0.242726 0
M  V30 374 C 34.2223 -3.47295 -0.0184607 0
M  V30 375 C 33.1763 -4.18536 0.895073 0
M  V30 376 C 32.5023 -5.34586 0.110592 0
M  V30 377 C 33.8023 -4.73287 2.209 0
M  V30 378 H 35.4963 -2.58372 1.51275 0
M  V30 379 H 33.0423 -1.24194 0.728818 0
M  V30 380 H 34.9953 -4.20268 -0.308675 0
M  V30 381 H 33.7193 -3.12933 -0.934907 0
M  V30 382 H 32.3783 -3.47446 1.16949 0
M  V30 383 H 32.0263 -4.96469 -0.807902 0
M  V30 384 H 31.7263 -5.83183 0.719087 0
M  V30 385 H 33.2503 -6.10355 -0.172871 0
M  V30 386 H 34.6643 -5.38013 1.98028 0
M  V30 387 H 33.0613 -5.32373 2.76946 0
M  V30 388 H 34.1313 -3.91331 2.86336 0
M  V30 389 N 35.4744 -0.807222 -1.35358 0
M  V30 390 C 36.4044 -0.232509 -2.3234 0
M  V30 391 C 37.3854 0.642386 -1.57504 0
M  V30 392 O 38.5704 0.572526 -1.85569 0
M  V30 393 C 35.7004 0.619238 -3.41735 0
M  V30 394 C 34.6544 -0.157215 -4.27711 0
M  V30 395 C 33.9804 0.816273 -5.28433 0
M  V30 396 C 35.2804 -1.35656 -5.04376 0
M  V30 397 H 36.9744 -1.04276 -2.80654 0
M  V30 398 H 34.5204 -0.50288 -1.34934 0
M  V30 399 H 36.4734 1.03137 -4.08584 0
M  V30 400 H 35.1974 1.46239 -2.92031 0
M  V30 401 H 33.8564 -0.550525 -3.62443 0
M  V30 402 H 33.5044 1.65494 -4.74996 0
M  V30 403 H 33.2044 0.301067 -5.86828 0
M  V30 404 H 34.7284 1.22659 -5.98153 0
M  V30 405 H 36.1424 -1.01927 -5.64166 0
M  V30 406 H 34.5394 -1.8063 -5.7227 0
M  V30 407 H 35.6094 -2.14288 -4.34981 0
M  V30 408 N 36.9525 1.47285 -0.560781 0
M  V30 409 C 37.8625 2.33846 0.187954 0
M  V30 410 C 38.8785 1.48412 0.908293 0
M  V30 411 O 40.0545 1.81332 0.876388 0
M  V30 412 C 37.1195 3.25178 1.2025 0
M  V30 413 C 36.1805 4.26504 0.489208 0
M  V30 414 C 35.4135 5.13472 1.45542 0
M  V30 415 O 35.6365 5.02959 2.6905 0
M  V30 416 O 34.5705 5.93902 0.977963 0
M  V30 417 H 38.3965 2.99177 -0.522177 0
M  V30 418 H 35.9815 1.45903 -0.321364 0
M  V30 419 H 37.8635 3.81584 1.78805 0
M  V30 420 H 36.5385 2.6247 1.89449 0
M  V30 421 H 35.4455 3.73847 -0.137627 0
M  V30 422 H 36.7785 4.91935 -0.161399 0
M  V30 423 N 38.4306 0.297415 1.54768 0
M  V30 424 C 39.8416 -0.195947 1.85669 0
M  V30 425 C 40.1926 -1.53707 1.21937 0
M  V30 426 O 39.3176 -2.10164 0.515754 0
M  V30 427 C 39.9126 -0.362318 3.36857 0
M  V30 428 C 38.4716 -0.799901 3.67802 0
M  V30 429 C 37.6186 0.0938578 2.77141 0
M  V30 430 H 40.5696 0.518538 1.4999 0
M  V30 431 H 40.5906 -1.19745 3.61167 0
M  V30 432 H 40.1026 0.613921 3.83214 0
M  V30 433 H 38.2036 -1.78682 3.26961 0
M  V30 434 H 38.3166 -0.621773 4.75048 0
M  V30 435 H 36.6806 -0.426254 2.51108 0
M  V30 436 H 37.4636 1.06639 3.26318 0
M  V30 437 N 39.9087 -1.5758 0.0250728 0
M  V30 438 C 40.8407 -2.06869 -0.986796 0
M  V30 439 C 41.8537 -0.991332 -1.29137 0
M  V30 440 O 43.0427 -1.26761 -1.25674 0
M  V30 441 C 40.1427 -2.47486 -2.31525 0
M  V30 442 C 39.3157 -3.78253 -2.19643 0
M  V30 443 C 38.3747 -4.05464 -3.35388 0
M  V30 444 O 37.4007 -4.75774 -3.12454 0
M  V30 445 N 38.6027 -3.55321 -4.59051 0
M  V30 446 H 41.3677 -2.94302 -0.566276 0
M  V30 447 H 38.9287 -1.6109 -0.161776 0
M  V30 448 H 40.9207 -2.62785 -3.07776 0
M  V30 449 H 39.4907 -1.65441 -2.65232 0
M  V30 450 H 38.7107 -3.7279 -1.28144 0
M  V30 451 H 39.9987 -4.63936 -2.08903 0
M  V30 452 H 39.3967 -2.98431 -4.80578 0
M  V30 453 H 37.9537 -3.75905 -5.32483 0
M  V30 454 N 41.3868 0.248026 -1.55636 0
M  V30 455 C 42.6358 0.974134 -1.76617 0
M  V30 456 C 42.9488 1.86528 -0.588796 0
M  V30 457 O 44.1548 2.62805 -0.681594 0
M  V30 458 C 42.6108 1.78213 -3.12679 0
M  V30 459 C 42.2188 0.93843 -4.38061 0
M  V30 460 C 43.9628 2.50104 -3.42999 0
M  V30 461 C 41.8698 1.74225 -5.65155 0
M  V30 462 H 40.7998 0.36745 -0.658405 0
M  V30 463 H 43.4508 0.22884 -1.82067 0
M  V30 464 H 41.8328 2.56933 -3.01333 0
M  V30 465 H 43.0068 0.193635 -4.60393 0
M  V30 466 H 41.3218 0.332905 -4.15067 0
M  V30 467 H 43.9188 3.10694 -4.3517 0
M  V30 468 H 44.2618 3.21662 -2.64271 0
M  V30 469 H 44.7948 1.78395 -3.55556 0
M  V30 470 H 41.5338 1.07043 -6.46701 0
M  V30 471 H 41.0538 2.46235 -5.46926 0
M  V30 472 H 42.7328 2.30967 -6.0437 0
M  V30 473 N 42.8649 1.48995 0.513639 0
M  V30 474 C 44.0899 1.61792 1.29762 0
M  V30 475 C 44.5149 0.284475 1.85936 0
M  V30 476 O 43.8729 -0.746185 1.65232 0
M  V30 477 C 43.9209 2.67993 2.41272 0
M  V30 478 O 43.0249 2.26287 3.44772 0
M  V30 479 H 42.3659 0.541963 0.38363 0
M  V30 480 H 44.8959 1.95097 0.616307 0
M  V30 481 H 44.9059 2.89772 2.87221 0
M  V30 482 H 43.5809 3.64791 1.9975 0
M  V30 483 H 42.1579 2.14788 3.04829 0
M  V30 484 N 44.343 -0.763751 1.37857 0
M  V30 485 C 45.275 -1.88664 1.30148 0
M  V30 486 C 46.288 -1.61365 0.215685 0
M  V30 487 O 47.477 -1.72134 0.472459 0
M  V30 488 C 44.577 -3.24075 0.991396 0
M  V30 489 C 43.75 -3.78958 2.18426 0
M  V30 490 C 42.809 -4.92862 1.8432 0
M  V30 491 O 41.835 -5.08027 2.56704 0
M  V30 492 N 43.037 -5.75071 0.792081 0
M  V30 493 H 45.802 -1.95791 2.26905 0
M  V30 494 H 43.363 -0.943226 1.31586 0
M  V30 495 H 45.355 -3.97804 0.743935 0
M  V30 496 H 43.925 -3.12399 0.112122 0
M  V30 497 H 43.145 -2.96913 2.59299 0
M  V30 498 H 44.433 -4.12357 2.98058 0
M  V30 499 H 43.831 -5.65375 0.191595 0
M  V30 500 H 42.388 -6.48991 0.60449 0
M  V30 501 N 45.8211 -1.22559 -0.990812 0
M  V30 502 C 47.0691 -1.04933 -1.72724 0
M  V30 503 C 47.3901 0.416158 -1.90508 0
M  V30 504 O 46.6601 1.29918 -1.46622 0
M  V30 505 H 45.2401 -0.385296 -0.639965 0
M  V30 506 H 47.9021 -1.54105 -1.19322 0
M  V30 507 H 46.9981 -1.52886 -2.72089 0
M  V30 508 N 47.2992 1.18797 -1.03562 0
M  V30 509 C 48.2292 2.24472 -0.643019 0
M  V30 510 C 49.2102 1.66433 0.351283 0
M  V30 511 O 50.3952 1.92803 0.232505 0
M  V30 512 C 47.5252 3.473 4.24935e-05 0
M  V30 513 C 46.4792 4.18055 -0.917257 0
M  V30 514 C 45.8052 5.34519 -0.138941 0
M  V30 515 C 47.1052 4.72109 -2.23407 0
M  V30 516 H 48.7992 2.57566 -1.52643 0
M  V30 517 H 46.3452 1.23806 -0.735394 0
M  V30 518 H 48.2982 4.20426 0.286383 0
M  V30 519 H 47.0222 3.13424 0.918299 0
M  V30 520 H 45.6812 3.46821 -1.1879 0
M  V30 521 H 45.3292 4.96891 0.781562 0
M  V30 522 H 45.0292 5.82794 -0.750005 0
M  V30 523 H 46.5532 6.10438 0.1405 0
M  V30 524 H 47.9672 5.36955 -2.00879 0
M  V30 525 H 46.3642 5.30897 -2.79765 0
M  V30 526 H 47.4342 3.89807 -2.88407 0
M  V30 527 N 48.7773 0.814389 1.34928 0
M  V30 528 C 50.0233 0.399013 1.98836 0
M  V30 529 C 50.3563 -1.03314 1.64438 0
M  V30 530 O 49.6313 -1.71811 0.911659 0
M  V30 531 C 49.9143 0.591629 3.55207 0
M  V30 532 C 49.7673 2.06928 3.99376 0
M  V30 533 C 51.0863 0.022199 4.40094 0
M  V30 534 H 48.2053 0.146451 0.722303 0
M  V30 535 H 50.8473 1.02537 1.59957 0
M  V30 536 H 48.9973 0.0584441 3.88456 0
M  V30 537 H 50.6693 2.66544 3.76499 0
M  V30 538 H 48.9123 2.56287 3.49999 0
M  V30 539 H 49.5833 2.1549 5.08201 0
M  V30 540 H 52.0593 0.477643 4.13349 0
M  V30 541 H 50.9353 0.186832 5.48582 0
M  V30 542 H 51.1963 -1.07215 4.28902 0
M  V30 543 N 50.2554 -1.46986 0.568584 0
M  V30 544 C 51.5014 -2.02741 0.0488709 0
M  V30 545 C 51.8344 -1.44077 -1.30214 0
M  V30 546 O 51.1094 -0.600552 -1.84996 0
M  V30 547 C 51.3924 -3.60086 -0.032047 0
M  V30 548 C 51.2454 -4.29162 1.34686 0
M  V30 549 C 52.5644 -4.33838 -0.739798 0
M  V30 550 H 49.6834 -0.736749 0.0192338 0
M  V30 551 H 52.3254 -1.75289 0.733065 0
M  V30 552 H 50.4754 -3.83606 -0.61473 0
M  V30 553 H 52.1474 -4.16948 1.97362 0
M  V30 554 H 50.3904 -3.89073 1.91846 0
M  V30 555 H 51.0614 -5.37826 1.24285 0
M  V30 556 H 53.5374 -4.15378 -0.244939 0
M  V30 557 H 52.4134 -5.43537 -0.765406 0
M  V30 558 H 52.6744 -4.03875 -1.79827 0
M  V30 559 N 51.7335 -0.305618 -1.54608 0
M  V30 560 C 52.9615 0.304775 -2.04643 0
M  V30 561 C 53.3765 1.47167 -1.18268 0
M  V30 562 O 52.7335 1.81296 -0.209328 0
M  V30 563 C 52.7845 0.756564 -3.53495 0
M  V30 564 O 52.5055 -0.36389 -4.36586 0
M  V30 565 C 54.0065 1.43163 -4.19546 0
M  V30 566 H 51.2265 0.0655481 -0.667791 0
M  V30 567 H 53.7705 -0.446592 -1.99564 0
M  V30 568 H 51.9255 1.45794 -3.58919 0
M  V30 569 H 52.3395 -0.0113121 -5.24499 0
M  V30 570 H 53.8135 1.69886 -5.25207 0
M  V30 571 H 54.2905 2.37318 -3.69563 0
M  V30 572 H 54.8965 0.773307 -4.18211 0
M  V30 573 N 53.2116 1.57565 -0.0334293 0
M  V30 574 C 54.6226 1.79746 0.504798 0
M  V30 575 C 54.9736 0.944091 1.71992 0
M  V30 576 O 54.0986 0.155694 2.15839 0
M  V30 577 C 54.6936 3.25997 0.922567 0
M  V30 578 C 53.2526 3.49159 1.40588 0
M  V30 579 C 52.3996 2.74785 0.372633 0
M  V30 580 H 55.3506 1.56565 -0.259436 0
M  V30 581 H 55.3716 3.35945 1.78666 0
M  V30 582 H 54.8836 3.88081 0.0379825 0
M  V30 583 H 52.9846 2.92332 2.31025 0
M  V30 584 H 53.0976 4.57873 1.41028 0
M  V30 585 H 51.4616 2.40391 0.841672 0
M  V30 586 H 52.2446 3.39587 -0.503559 0
M  V30 587 N 54.6897 -0.239769 1.55765 0
M  V30 588 C 56.1007 -0.808263 1.68297 0
M  V30 589 C 56.4517 -1.85736 0.632181 0
M  V30 590 O 55.5767 -2.15277 -0.220204 0
M  V30 591 C 56.1717 -1.47284 3.05111 0
M  V30 592 C 54.7307 -1.98895 3.19559 0
M  V30 593 C 53.8777 -0.842575 2.64189 0
M  V30 594 H 56.8287 -0.0154422 1.58692 0
M  V30 595 H 56.8497 -2.34111 2.99954 0
M  V30 596 H 56.3617 -0.709053 3.81568 0
M  V30 597 H 54.4627 -2.78132 2.47938 0
M  V30 598 H 54.5757 -2.18143 4.26556 0
M  V30 599 H 52.9397 -1.24501 2.22197 0
M  V30 600 H 53.7227 -0.0917552 3.43177 0
M  V30 601 N 56.1678 -1.49265 -0.50573 0
M  V30 602 C 57.4158 -1.582 -1.25766 0
M  V30 603 C 57.7368 -0.268482 -1.93143 0
M  V30 604 O 57.0068 0.711833 -1.8251 0
M  V30 605 H 55.5868 -0.582873 -0.467191 0
M  V30 606 H 58.2488 -1.85865 -0.586525 0
M  V30 607 H 57.3448 -2.37563 -2.02412 0
M  V30 608 N 57.6459 0.756429 -1.3826 0
M  V30 609 C 59.0569 1.33359 -1.30661 0
M  V30 610 C 59.4079 1.96161 0.0388875 0
M  V30 611 O 58.5329 1.94874 0.940918 0
M  V30 612 C 59.1279 2.42477 -2.36622 0
M  V30 613 C 57.6869 2.95922 -2.3261 0
M  V30 614 C 56.8339 1.69275 -2.19639 0
M  V30 615 H 59.7849 0.55552 -1.4866 0
M  V30 616 H 59.8059 3.22345 -2.02174 0
M  V30 617 H 59.3179 1.96739 -3.34538 0
M  V30 618 H 57.4189 3.45996 -1.38267 0
M  V30 619 H 57.5319 3.50494 -3.26636 0
M  V30 620 H 55.8959 1.92793 -1.66442 0
M  V30 621 H 56.6789 1.25619 -3.19491 0
M  V30 622 N 59.124 1.23083 0.984299 0
M  V30 623 C 60.034 1.02515 2.11016 0
M  V30 624 C 61.05 -0.0291702 1.73976 0
M  V30 625 O 62.226 0.165434 2.00719 0
M  V30 626 C 59.291 0.614673 3.41208 0
M  V30 627 C 58.352 1.74359 3.92297 0
M  V30 628 C 57.585 1.35261 5.16275 0
M  V30 629 O 57.808 0.235136 5.69915 0
M  V30 630 O 56.742 2.17227 5.61334 0
M  V30 631 H 60.568 1.96862 2.31255 0
M  V30 632 H 58.153 1.01753 1.09392 0
M  V30 633 H 60.035 0.396518 4.1953 0
M  V30 634 H 58.71 -0.299851 3.22308 0
M  V30 635 H 57.617 2.01635 3.1511 0
M  V30 636 H 58.95 2.63629 4.15645 0
M  V30 637 N 60.6021 -1.18246 1.0419 0
M  V30 638 C 61.5321 -2.24127 0.654914 0
M  V30 639 C 62.5131 -1.66617 -0.342451 0
M  V30 640 O 63.6981 -1.92924 -0.222277 0
M  V30 641 C 60.8281 -3.47295 0.0183757 0
M  V30 642 C 59.7821 -4.17563 0.939414 0
M  V30 643 C 59.1081 -5.34438 0.167286 0
M  V30 644 C 60.4081 -4.70917 2.25908 0
M  V30 645 H 62.1021 -2.56753 1.54007 0
M  V30 646 H 59.6481 -1.23414 0.74195 0
M  V30 647 H 61.6011 -4.20572 -0.264082 0
M  V30 648 H 60.3251 -3.13907 -0.901664 0
M  V30 649 H 58.9841 -3.46186 1.20628 0
M  V30 650 H 58.6321 -4.97298 -0.7552 0
M  V30 651 H 58.3321 -5.82388 0.780901 0
M  V30 652 H 59.8561 -6.10504 -0.108125 0
M  V30 653 H 61.2701 -5.35882 2.03724 0
M  V30 654 H 59.6671 -5.29406 2.82577 0
M  V30 655 H 60.7371 -3.88272 2.9047 0
M  V30 656 N 62.0802 -0.821533 -1.34494 0
M  V30 657 C 63.3262 -0.409552 -1.98622 0
M  V30 658 C 63.6592 1.0244 -1.64984 0
M  V30 659 O 62.9342 1.71325 -0.920758 0
M  V30 660 C 63.2172 -0.610458 -3.54888 0
M  V30 661 C 63.0702 -2.09043 -3.98273 0
M  V30 662 C 64.3892 -0.0455379 -4.40076 0
M  V30 663 H 61.5082 -0.15028 -0.721516 0
M  V30 664 H 64.1502 -1.03384 -1.59411 0
M  V30 665 H 62.3002 -0.079044 -3.8842 0
M  V30 666 H 63.9722 -2.68537 -3.75081 0
M  V30 667 H 62.2152 -2.58139 -3.48635 0
M  V30 668 H 62.8862 -2.18182 -5.07051 0
M  V30 669 H 65.3622 -0.499557 -4.1309 0
M  V30 670 H 64.2382 -0.215922 -5.48475 0
M  V30 671 H 64.4992 1.04939 -4.29465 0
M  V30 672 N 63.5583 1.46682 -0.576371 0
M  V30 673 C 64.4883 2.33028 0.148397 0
M  V30 674 C 65.4693 1.44961 0.889956 0
M  V30 675 O 66.6543 1.73789 0.866662 0
M  V30 676 C 63.7843 3.27117 1.1667 0
M  V30 677 C 62.7383 4.24575 0.540386 0
M  V30 678 C 62.0643 5.08126 1.6647 0
M  V30 679 C 63.3643 5.19722 -0.518331 0
M  V30 680 H 65.0583 2.93875 -0.572509 0
M  V30 681 H 62.6043 1.41315 -0.276768 0
M  V30 682 H 64.5573 3.86374 1.68204 0
M  V30 683 H 63.2813 2.64364 1.9178 0
M  V30 684 H 61.9403 3.66571 0.0461769 0
M  V30 685 H 61.5883 4.41762 2.40531 0
M  V30 686 H 61.2883 5.74122 1.25131 0
M  V30 687 H 62.8123 5.70246 2.18293 0
M  V30 688 H 64.2263 5.73232 -0.0883058 0
M  V30 689 H 62.6233 5.94026 -0.851679 0
M  V30 690 H 63.6933 4.64037 -1.40703 0
M  V30 691 N 65.0364 0.313813 1.54444 0
M  V30 692 C 65.9844 -0.572171 2.25453 0
M  V30 693 C 66.9784 -1.12657 1.2651 0
M  V30 694 O 68.1844 -1.07573 1.44319 0
M  V30 695 H 64.5594 -0.203146 0.724041 0
M  V30 696 H 66.5304 0.0491145 2.9836 0
M  V30 697 C 65.2794 -1.72626 3.0182 0
M  V30 698 H 64.6024 -1.30891 3.77767 0
M  V30 699 H 66.0424 -2.32199 3.54767 0
M  V30 700 C 64.5014 -2.63806 2.09542 0
M  V30 701 O 65.0314 -3.65256 1.67185 0
M  V30 702 N 63.2374 -2.31824 1.75232 0
M  V30 703 H 62.7844 -1.49368 2.09873 0
M  V30 704 H 62.7424 -2.93095 1.13767 0
M  V30 705 N 66.5145 -1.57545 0.0417849 0
M  V30 706 C 67.7605 -1.92601 -0.635021 0
M  V30 707 C 68.0935 -0.919627 -1.71045 0
M  V30 708 O 67.3685 0.0557892 -1.9442 0
M  V30 709 C 67.6515 -3.38085 -1.23979 0
M  V30 710 C 67.5045 -4.49467 -0.173057 0
M  V30 711 C 68.8235 -3.83776 -2.15416 0
M  V30 712 H 65.9425 -0.700397 -0.229374 0
M  V30 713 H 68.5845 -1.89728 0.101633 0
M  V30 714 H 66.7345 -3.40664 -1.86762 0
M  V30 715 H 68.4065 -4.59018 0.458312 0
M  V30 716 H 66.6495 -4.30909 0.499996 0
M  V30 717 H 67.3205 -5.48323 -0.636054 0
M  V30 718 H 69.7965 -3.83013 -1.62605 0
M  V30 719 H 68.6725 -4.8624 -2.54679 0
M  V30 720 H 68.9335 -3.19998 -3.05047 0
M  V30 721 N 67.9926 0.231505 -1.5589 0
M  V30 722 C 69.2176 0.978689 -1.82856 0
M  V30 723 C 69.6426 1.77559 -0.620846 0
M  V30 724 O 69.0006 1.76119 0.430305 0
M  V30 725 C 69.0486 1.87997 -3.07716 0
M  V30 726 O 68.1526 2.97393 -2.85712 0
M  V30 727 H 67.4936 0.277663 -0.603158 0
M  V30 728 H 70.0236 0.24783 -2.03093 0
M  V30 729 H 70.0336 2.2917 -3.37558 0
M  V30 730 H 68.7086 1.29417 -3.95252 0
M  V30 731 H 67.2856 2.60238 -2.67078 0
M  V30 732 N 69.4707 1.49531 0.497807 0
M  V30 733 C 70.6957 1.63159 1.28039 0
M  V30 734 C 71.1207 0.30418 1.85624 0
M  V30 735 O 70.4787 -0.728618 1.66015 0
M  V30 736 C 70.5267 2.70537 2.38416 0
M  V30 737 O 69.6307 2.29931 3.42353 0
M  V30 738 H 68.9717 0.546001 0.377861 0
M  V30 739 H 71.5017 1.9574 0.59558 0
M  V30 740 H 71.5117 2.92802 2.84132 0
M  V30 741 H 70.1867 3.6689 1.95869 0
M  V30 742 H 68.7637 2.18009 3.02533 0
M  V30 743 N 70.9488 -0.749086 1.3866 0
M  V30 744 C 72.1768 -1.53834 1.38358 0
M  V30 745 C 72.5918 -1.88783 -0.0255219 0
M  V30 746 O 71.9488 -1.53101 -0.993292 0
M  V30 747 C 71.9998 -2.83468 2.2434 0
M  V30 748 O 71.7208 -2.50008 3.5976 0
M  V30 749 C 73.2218 -3.7758 2.32267 0
M  V30 750 H 70.4418 -0.47585 0.473083 0
M  V30 751 H 72.9858 -0.926726 1.82297 0
M  V30 752 H 71.1408 -3.40995 1.83851 0
M  V30 753 H 71.5548 -3.33182 4.05081 0
M  V30 754 H 73.0288 -4.65478 2.96706 0
M  V30 755 H 73.5058 -4.18334 1.33765 0
M  V30 756 H 74.1118 -3.25976 2.73166 0
M  V30 757 N 72.4269 -1.23603 -0.977757 0
M  V30 758 C 73.6739 -1.06971 -1.71941 0
M  V30 759 C 74.0019 0.393009 -1.90488 0
M  V30 760 O 73.2569 1.30719 -1.4564 0
M  V30 761 C 73.5559 -1.7433 -3.11999 0
M  V30 762 C 73.2219 -3.24252 -3.13323 0
M  V30 763 C 71.8839 -3.65156 -3.13392 0
M  V30 764 C 74.2359 -4.20141 -3.08433 0
M  V30 765 C 71.5639 -5.00403 -3.0629 0
M  V30 766 C 73.9159 -5.55384 -3.02873 0
M  V30 767 C 72.5799 -5.95647 -3.01265 0
M  V30 768 H 71.8499 -0.391433 -0.629175 0
M  V30 769 H 74.4969 -1.53572 -1.14403 0
M  V30 770 H 72.8019 -1.20096 -3.7294 0
M  V30 771 H 74.4989 -1.58936 -3.68158 0
M  V30 772 H 71.0889 -2.91692 -3.14029 0
M  V30 773 H 75.2729 -3.89547 -3.07517 0
M  V30 774 H 70.5289 -5.3081 -3.03399 0
M  V30 775 H 74.7029 -6.29398 -2.98046 0
M  V30 776 H 72.3299 -7.0041 -2.95516 0
M  V30 777 N 73.905 1.17692 -1.04816 0
M  V30 778 C 75.151 1.88137 -0.75711 0
M  V30 779 C 75.484 1.80604 0.713841 0
M  V30 780 O 74.759 1.21146 1.52164 0
M  V30 781 C 75.042 3.38318 -1.2334 0
M  V30 782 C 74.895 3.54622 -2.76701 0
M  V30 783 C 76.214 4.32214 -0.829415 0
M  V30 784 H 73.333 0.683163 -0.27651 0
M  V30 785 H 75.975 1.38424 -1.30149 0
M  V30 786 H 74.125 3.80787 -0.770286 0
M  V30 787 H 75.797 3.21194 -3.31107 0
M  V30 788 H 74.04 2.97026 -3.16161 0
M  V30 789 H 74.711 4.60028 -3.05088 0
M  V30 790 H 77.187 3.97565 -1.22805 0
M  V30 791 H 76.063 5.35838 -1.19033 0
M  V30 792 H 76.324 4.41294 0.266891 0
M  V30 793 N 75.3831 0.828654 1.34056 0
M  V30 794 C 76.3131 0.269443 2.3194 0
M  V30 795 C 77.2941 -0.617247 1.58506 0
M  V30 796 O 78.4791 -0.542931 1.86456 0
M  V30 797 C 75.6091 -0.564793 3.42677 0
M  V30 798 C 74.5631 0.225241 4.27407 0
M  V30 799 C 73.8891 -0.7321 5.29664 0
M  V30 800 C 75.1891 1.43663 5.02154 0
M  V30 801 H 76.8831 1.08728 2.7896 0
M  V30 802 H 74.4291 0.524283 1.34117 0
M  V30 803 H 76.3821 -0.966233 4.10173 0
M  V30 804 H 75.1061 -1.41574 2.9432 0
M  V30 805 H 73.7651 0.608117 3.61521 0
M  V30 806 H 73.4131 -1.57916 4.77568 0
M  V30 807 H 73.1131 -0.20767 5.87233 0
M  V30 808 H 74.6371 -1.13128 6.00029 0
M  V30 809 H 76.0511 1.1089 5.62473 0
M  V30 810 H 74.4481 1.89711 5.69324 0
M  V30 811 H 75.5181 2.21181 4.31517 0
M  V30 812 N 76.8612 -1.46375 0.584142 0
M  V30 813 C 78.0892 -2.06761 0.0759296 0
M  V30 814 C 78.5042 -1.43266 -1.22965 0
M  V30 815 O 77.8612 -0.538458 -1.74376 0
M  V30 816 C 77.9122 -3.61375 -0.0950384 0
M  V30 817 O 77.6332 -4.22495 1.15887 0
M  V30 818 C 79.1342 -4.38693 -0.637434 0
M  V30 819 H 76.3542 -0.668479 0.0581075 0
M  V30 820 H 78.8982 -1.8798 0.805218 0
M  V30 821 H 77.0532 -3.79578 -0.774554 0
M  V30 822 H 77.4672 -5.15385 0.973598 0
M  V30 823 H 78.9412 -5.47464 -0.706237 0
M  V30 824 H 79.4182 -4.06836 -1.65472 0
M  V30 825 H 80.0242 -4.25299 0.00725967 0
M  V30 826 N 78.3393 -0.321999 -1.54275 0
M  V30 827 C 79.5793 0.281657 -2.0245 0
M  V30 828 C 79.9433 1.49468 -1.20513 0
M  V30 829 O 81.1443 2.17109 -1.58484 0
M  V30 830 C 79.4153 0.609014 -3.52173 0
M  V30 831 S 80.9743 1.19255 -4.22284 0
M  V30 832 H 77.7923 0.0852825 -0.705867 0
M  V30 833 H 80.3943 -0.454758 -1.90137 0
M  V30 834 H 79.0983 -0.281982 -4.0943 0
M  V30 835 H 78.6293 1.37567 -3.68563 0
M  V30 836 H 80.6443 2.47944 -4.29812 0
M  V30 837 N 79.8174 1.5752 -0.0501392 0
M  V30 838 C 81.0424 1.97376 0.636997 0
M  V30 839 C 81.4674 0.927466 1.63645 0
M  V30 840 O 80.8254 -0.10941 1.8097 0
M  V30 841 C 80.8734 3.36304 1.30123 0
M  V30 842 O 79.9774 3.34156 2.41689 0
M  V30 843 H 79.3184 0.642998 0.165679 0
M  V30 844 H 81.8484 2.04258 -0.118233 0
M  V30 845 H 81.8584 3.73008 1.65315 0
M  V30 846 H 80.5334 4.11993 0.568746 0
M  V30 847 H 79.1104 3.09196 2.08451 0
M  V30 848 N 81.2955 -0.223234 1.56011 0
M  V30 849 C 82.5435 -0.946003 1.78592 0
M  V30 850 C 82.8645 -1.84936 0.618349 0
M  V30 851 O 82.1345 -1.92473 -0.364833 0
M  V30 852 H 80.7145 -0.352298 0.658707 0
M  V30 853 H 83.3765 -0.235494 1.93472 0
M  V30 854 H 82.4725 -1.55381 2.70672 0
M  V30 855 N 82.7736 -1.49793 -0.48987 0
M  V30 856 C 83.9986 -1.63836 -1.27172 0
M  V30 857 C 84.4236 -0.31402 -1.8546 0
M  V30 858 O 83.7816 0.719803 -1.66399 0
M  V30 859 C 83.8296 -2.71797 -2.36978 0
M  V30 860 O 82.9336 -2.31744 -3.41128 0
M  V30 861 H 82.2746 -0.547997 -0.37496 0
M  V30 862 H 84.8046 -1.96053 -0.585191 0
M  V30 863 H 84.8146 -2.94305 -2.82575 0
M  V30 864 H 83.4896 -3.67923 -1.93921 0
M  V30 865 H 82.0666 -2.1961 -3.01373 0
M  V30 866 N 84.2517 0.741722 -1.39055 0
M  V30 867 C 85.2147 1.83733 -1.37021 0
M  V30 868 C 86.2147 1.58542 -0.268534 0
M  V30 869 O 87.4047 1.66067 -0.526076 0
M  V30 870 C 84.5367 3.2141 -1.13617 0
M  V30 871 H 85.7297 1.86941 -2.34506 0
M  V30 872 H 83.2827 0.944676 -1.24521 0
M  V30 873 H 84.0177 3.23865 -0.167863 0
M  V30 874 H 83.8027 3.4109 -1.93391 0
M  V30 875 H 85.2927 4.01477 -1.14918 0
M  V30 876 N 85.7298 1.2412 0.971189 0
M  V30 877 C 87.1408 1.07236 1.52831 0
M  V30 878 C 87.4918 -0.357352 1.92918 0
M  V30 879 O 86.6168 -1.24528 1.76979 0
M  V30 880 C 87.2118 1.94043 2.77728 0
M  V30 881 C 85.7708 1.81394 3.29808 0
M  V30 882 C 84.9178 1.89189 2.02738 0
M  V30 883 H 87.8688 1.37648 0.789864 0
M  V30 884 H 87.8898 1.47066 3.5093 0
M  V30 885 H 87.4018 2.98093 2.4852 0
M  V30 886 H 85.5028 0.801634 3.63874 0
M  V30 887 H 85.6158 2.65294 3.98944 0
M  V30 888 H 83.9798 1.32877 2.17292 0
M  V30 889 H 84.7628 2.94812 1.759 0
M  V30 890 N 87.2079 -1.17134 1.05439 0
M  V30 891 C 88.4539 -1.87733 0.767077 0
M  V30 892 C 88.7869 -1.8098 -0.704253 0
M  V30 893 O 88.0619 -1.21951 -1.5152 0
M  V30 894 C 88.3449 -3.37659 1.25133 0
M  V30 895 C 88.1979 -3.53149 2.78578 0
M  V30 896 C 89.5169 -4.31768 0.852324 0
M  V30 897 H 86.6359 -0.681687 0.280129 0
M  V30 898 H 89.2779 -1.37732 1.30881 0
M  V30 899 H 87.4279 -3.80373 0.790469 0
M  V30 900 H 89.0999 -3.19434 3.32806 0
M  V30 901 H 87.3429 -2.95345 3.17732 0
M  V30 902 H 88.0139 -4.58403 3.07523 0
M  V30 903 H 90.4899 -3.96909 1.24911 0
M  V30 904 H 89.3659 -5.35199 1.21873 0
M  V30 905 H 89.6269 -4.41429 -0.243485 0
M  V30 906 N 88.686 -0.835752 -1.33615 0
M  V30 907 C 89.932 -0.430596 -1.98176 0
M  V30 908 C 90.265 1.00684 -1.66061 0
M  V30 909 O 89.54 1.70339 -0.938877 0
M  V30 910 C 89.823 -0.648065 -3.5422 0
M  V30 911 C 89.676 -2.13255 -3.96033 0
M  V30 912 C 90.995 -0.0922113 -4.40003 0
M  V30 913 H 88.114 -0.157924 -0.719881 0
M  V30 914 H 90.756 -1.05069 -1.58305 0
M  V30 915 H 88.906 -0.120237 -3.88314 0
M  V30 916 H 90.578 -2.725 -3.72211 0
M  V30 917 H 88.821 -2.61823 -3.45878 0
M  V30 918 H 89.492 -2.23547 -5.04708 0
M  V30 919 H 91.968 -0.543343 -4.12537 0
M  V30 920 H 90.844 -0.274083 -5.48215 0
M  V30 921 H 91.105 1.00378 -4.30554 0
M  V30 922 N 90.1641 1.46063 -0.591896 0
M  V30 923 C 91.4101 2.03203 -0.0894879 0
M  V30 924 C 91.7651 1.45407 1.25994 0
M  V30 925 O 91.0581 0.61326 1.8152 0
M  V30 926 C 91.2521 3.57391 0.0249813 0
M  V30 927 C 91.0811 4.30142 -1.3118 0
M  V30 928 C 89.8511 4.68688 -1.88838 0
M  V30 929 C 92.0491 4.63098 -2.23708 0
M  V30 930 N 90.0311 5.26228 -3.1616 0
M  V30 931 C 91.4021 5.21305 -3.3562 0
M  V30 932 C 93.4571 4.45031 -2.23274 0
M  V30 933 C 92.1601 5.63351 -4.47245 0
M  V30 934 C 94.1861 4.881 -3.33935 0
M  V30 935 C 93.5481 5.46386 -4.44569 0
M  V30 936 H 89.6471 0.778323 -0.0757431 0
M  V30 937 H 92.2311 1.78094 -0.78681 0
M  V30 938 H 90.4021 3.82195 0.69149 0
M  V30 939 H 92.1341 4.0118 0.532613 0
M  V30 940 H 88.8891 4.5174 -1.42223 0
M  V30 941 H 89.3131 5.59512 -3.8115 0
M  V30 942 H 93.9551 3.99295 -1.39008 0
M  V30 943 H 91.6731 6.08061 -5.32247 0
M  V30 944 H 95.2591 4.75866 -3.34728 0
M  V30 945 H 94.1391 5.79102 -5.28782 0
M  V30 946 N 91.6422 0.330177 1.54103 0
M  V30 947 C 92.5522 -0.541534 2.28264 0
M  V30 948 C 93.5682 -1.12351 1.32866 0
M  V30 949 O 94.7442 -1.14206 1.65888 0
M  V30 950 C 91.8092 -1.68322 3.03098 0
M  V30 951 C 90.8702 -1.13238 4.14096 0
M  V30 952 C 90.1032 -2.21966 4.85352 0
M  V30 953 O 90.3262 -3.42437 4.56172 0
M  V30 954 O 89.2602 -1.87013 5.7211 0
M  V30 955 H 93.0862 0.060938 3.03639 0
M  V30 956 H 90.6712 0.09565 1.49093 0
M  V30 957 H 92.5532 -2.34777 3.49939 0
M  V30 958 H 91.2282 -2.27176 2.30593 0
M  V30 959 H 90.1352 -0.432736 3.71589 0
M  V30 960 H 91.4682 -0.588898 4.88664 0
M  V30 961 N 93.1203 -1.57491 0.0584922 0
M  V30 962 C 94.5363 -1.56792 -0.298091 0
M  V30 963 C 94.7363 -1.06679 -1.70944 0
M  V30 964 O 93.7923 -0.726672 -2.41818 0
M  V30 965 C 95.1053 -3.00461 -0.119879 0
M  V30 966 C 96.6533 -3.1242 -0.190428 0
M  V30 967 C 97.1283 -4.57982 -0.0406567 0
M  V30 968 N 98.6193 -4.63099 -0.0966958 0
M  V30 969 C 99.3543 -5.734 -0.00502943 0
M  V30 970 N 98.8503 -6.9266 0.139402 0
M  V30 971 N 100.643 -5.62067 -0.0611391 0
M  V30 972 H 92.7943 -1.88386 0.98105 0
M  V30 973 H 95.0573 -0.867865 0.381463 0
M  V30 974 H 94.7633 -3.41187 0.85349 0
M  V30 975 H 94.6373 -3.66843 -0.877833 0
M  V30 976 H 97.0243 -2.71589 -1.15427 0
M  V30 977 H 97.1053 -2.48702 0.598405 0
M  V30 978 H 96.7493 -4.995 0.919897 0
M  V30 979 H 96.6793 -5.19715 -0.848727 0
M  V30 980 H 99.1703 -3.77331 -0.207277 0
M  V30 981 H 99.4833 -7.72536 0.201855 0
M  V30 982 H 97.8283 -6.94781 0.174586 0
M  V30 983 H 101.019 -4.67782 -0.172583 0
M  V30 984 H 101.192 -6.47999 0.0137562 0
M  V30 985 N 94.5984 0.214957 -1.56127 0
M  V30 986 C 95.5314 1.29382 -1.87977 0
M  V30 987 C 96.5094 1.44897 -0.737807 0
M  V30 988 O 97.6934 1.60605 -0.986833 0
M  V30 989 C 94.8204 2.66325 -2.09258 0
M  V30 990 C 93.8664 2.67789 -3.31951 0
M  V30 991 S 94.6994 2.21198 -4.8768 0
M  V30 992 C 95.8554 3.60003 -5.12004 0
M  V30 993 H 96.0884 1.02173 -2.79192 0
M  V30 994 H 93.6214 0.417516 -1.48648 0
M  V30 995 H 95.5794 3.45162 -2.22201 0
M  V30 996 H 94.2404 2.90755 -1.18829 0
M  V30 997 H 93.4334 3.68436 -3.43906 0
M  V30 998 H 93.0354 1.9702 -3.17898 0
M  V30 999 H 95.3274 4.55739 -5.01307 0
M  V30 1000 H 96.2704 3.52959 -6.13861 0
M  V30 1001 H 96.6784 3.53996 -4.39712 0
M  V30 1002 N 96.0765 1.50051 0.48192 0
M  V30 1003 C 97.3015 1.64508 1.26301 0
M  V30 1004 C 97.7265 0.323851 1.85291 0
M  V30 1005 O 97.0845 -0.710969 1.66778 0
M  V30 1006 C 97.1325 2.7305 2.35533 0
M  V30 1007 O 96.2365 2.3355 3.39895 0
M  V30 1008 H 95.5775 0.549978 0.372048 0
M  V30 1009 H 98.1075 1.9636 0.574786 0
M  V30 1010 H 98.1175 2.95799 2.8101 0
M  V30 1011 H 96.7925 3.68946 1.91967 0
M  V30 1012 H 95.3695 2.21205 3.00204 0
M  V30 1013 N 97.5546 -0.734337 1.39446 0
M  V30 1014 C 98.4866 -1.85861 1.34121 0
M  V30 1015 C 99.4996 -1.60871 0.249864 0
M  V30 1016 O 100.689 -1.71093 0.508865 0
M  V30 1017 C 97.7886 -3.21899 1.05991 0
M  V30 1018 C 96.9616 -3.74239 2.26415 0
M  V30 1019 C 96.0206 -4.88841 1.94733 0
M  V30 1020 O 95.0466 -5.02468 2.67422 0
M  V30 1021 N 96.2486 -5.73261 0.913884 0
M  V30 1022 H 99.0136 -1.90934 2.31007 0
M  V30 1023 H 96.5746 -0.915102 1.33557 0
M  V30 1024 H 98.5666 -3.96136 0.828147 0
M  V30 1025 H 97.1366 -3.12091 0.178361 0
M  V30 1026 H 96.3566 -2.91347 2.65539 0
M  V30 1027 H 97.6446 -4.05942 3.06738 0
M  V30 1028 H 97.0426 -5.64842 0.311476 0
M  V30 1029 H 95.5996 -6.47563 0.742015 0
M  V30 1030 N 99.0327 -1.24633 -0.964593 0
M  V30 1031 C 99.9427 -1.05859 -2.09359 0
M  V30 1032 C 100.959 0.00148855 -1.74 0
M  V30 1033 O 102.135 -0.197346 -2.00431 0
M  V30 1034 C 99.1997 -0.668879 -3.40187 0
M  V30 1035 C 98.2607 -1.80578 -3.89474 0
M  V30 1036 C 97.4937 -1.43457 -5.14058 0
M  V30 1037 O 97.7167 -0.325775 -5.69469 0
M  V30 1038 O 96.6507 -2.2613 -5.57807 0
M  V30 1039 H 100.477 -2.00516 -2.28094 0
M  V30 1040 H 98.0617 -1.03481 -1.0776 0
M  V30 1041 H 99.9437 -0.463211 -4.18846 0
M  V30 1042 H 98.6187 0.248536 -3.22744 0
M  V30 1043 H 97.5257 -2.06623 -3.11862 0
M  V30 1044 H 98.8587 -2.70208 -4.11398 0
M  V30 1045 N 100.511 1.16574 -1.06058 0
M  V30 1046 C 101.922 1.68662 -0.800632 0
M  V30 1047 C 102.273 1.84184 0.67608 0
M  V30 1048 O 101.398 1.53568 1.52466 0
M  V30 1049 C 101.993 3.06356 -1.44676 0
M  V30 1050 C 100.552 3.55575 -1.23465 0
M  V30 1051 C 99.6988 2.31616 -1.52477 0
M  V30 1052 H 102.65 1.00969 -1.22438 0
M  V30 1053 H 102.671 3.70636 -0.860788 0
M  V30 1054 H 102.183 2.95027 -2.52152 0
M  V30 1055 H 100.284 3.72167 -0.179527 0
M  V30 1056 H 100.397 4.37812 -1.94571 0
M  V30 1057 H 98.7608 2.36512 -0.945209 0
M  V30 1058 H 99.5438 2.22887 -2.61106 0
M  V30 1059 N 101.989 0.842826 1.3317 0
M  V30 1060 C 103.4 0.496651 1.79973 0
M  V30 1061 C 103.751 -0.984641 1.69703 0
M  V30 1062 O 102.876 -1.76743 1.24863 0
M  V30 1063 C 103.471 0.894727 3.26772 0
M  V30 1064 C 102.03 0.600629 3.71577 0
M  V30 1065 C 101.177 1.10091 2.5451 0
M  V30 1066 H 104.128 1.03116 1.20635 0
M  V30 1067 H 104.149 0.206347 3.7994 0
M  V30 1068 H 103.661 1.97287 3.34215 0
M  V30 1069 H 101.762 -0.467284 3.69658 0
M  V30 1070 H 101.875 1.15863 4.64879 0
M  V30 1071 H 100.239 0.52162 2.49301 0
M  V30 1072 H 101.022 2.18591 2.64713 0
M  V30 1073 N 103.467 -1.45747 0.599634 0
M  V30 1074 C 104.399 -2.28628 -0.161879 0
M  V30 1075 C 105.412 -1.39494 -0.839367 0
M  V30 1076 O 106.601 -1.63941 -0.706089 0
M  V30 1077 C 103.701 -3.15014 -1.24976 0
M  V30 1078 C 102.874 -4.32378 -0.660935 0
M  V30 1079 C 101.933 -5.00033 -1.63869 0
M  V30 1080 O 100.959 -5.57085 -1.1681 0
M  V30 1081 N 102.161 -4.98589 -2.97303 0
M  V30 1082 H 104.926 -2.94624 0.549265 0
M  V30 1083 H 102.487 -1.55847 0.438565 0
M  V30 1084 H 104.479 -3.5714 -1.9035 0
M  V30 1085 H 103.049 -2.5098 -1.86354 0
M  V30 1086 H 102.269 -3.9383 0.170688 0
M  V30 1087 H 103.557 -5.08197 -0.247619 0
M  V30 1088 H 102.955 -4.53514 -3.38145 0
M  V30 1089 H 101.512 -5.44603 -3.58121 0
M  V30 1090 N 104.945 -0.338344 -1.53925 0
M  V30 1091 C 105.855 0.529421 -2.28548 0
M  V30 1092 C 106.871 1.11645 -1.3346 0
M  V30 1093 O 108.047 1.13325 -1.66492 0
M  V30 1094 C 105.112 1.66713 -3.03987 0
M  V30 1095 C 104.173 1.11041 -4.14691 0
M  V30 1096 C 103.406 2.19389 -4.86522 0
M  V30 1097 O 103.629 3.40013 -4.57982 0
M  V30 1098 O 102.563 1.83976 -5.73094 0
M  V30 1099 H 106.389 -0.0770399 -3.03602 0
M  V30 1100 H 103.974 -0.103555 -1.49041 0
M  V30 1101 H 105.856 2.32918 -3.5118 0
M  V30 1102 H 104.531 2.25949 -2.31794 0
M  V30 1103 H 103.438 0.413024 -3.71813 0
M  V30 1104 H 104.771 0.562975 -4.8897 0
M  V30 1105 N 106.423 1.57458 -0.0668435 0
M  V30 1106 C 107.356 2.08033 0.93795 0
M  V30 1107 C 108.334 0.984321 1.29421 0
M  V30 1108 O 109.518 1.25736 1.40437 0
M  V30 1109 C 106.645 2.53388 2.24749 0
M  V30 1110 C 105.691 3.74376 2.04315 0
M  V30 1111 S 106.524 5.19303 1.30706 0
M  V30 1112 C 107.68 5.67986 2.62951 0
M  V30 1113 H 107.913 2.92935 0.50759 0
M  V30 1114 H 105.446 1.5371 0.145804 0
M  V30 1115 H 107.404 2.8018 3.00016 0
M  V30 1116 H 106.065 1.68763 2.64911 0
M  V30 1117 H 105.258 4.04083 3.01218 0
M  V30 1118 H 104.86 3.47931 1.37186 0
M  V30 1119 H 107.152 5.74528 3.5906 0
M  V30 1120 H 108.095 6.66955 2.3786 0
M  V30 1121 H 108.503 4.95781 2.69929 0
M  V30 1122 N 107.901 -0.206675 1.56239 0
M  V30 1123 C 108.864 -1.23976 1.92776 0
M  V30 1124 C 109.864 -1.39041 0.807729 0
M  V30 1125 O 111.054 -1.37051 1.0753 0
M  V30 1126 C 108.186 -2.61112 2.19165 0
M  V30 1127 H 109.379 -0.927764 2.85189 0
M  V30 1128 H 106.932 -0.447718 1.4975 0
M  V30 1129 H 107.667 -2.97386 1.29352 0
M  V30 1130 H 107.452 -2.51552 3.00772 0
M  V30 1131 H 108.942 -3.35633 2.48476 0
M  V30 1132 N 109.379 -1.50304 -0.473955 0
M  V30 1133 C 110.326 -1.68959 -1.57231 0
M  V30 1134 C 111.296 -0.530899 -1.57387 0
M  V30 1135 O 112.481 -0.761133 -1.74961 0
M  V30 1136 C 109.621 -1.7871 -2.95223 0
M  V30 1137 C 108.734 -3.06061 -3.04878 0
M  V30 1138 C 107.869 -3.06626 -4.33767 0
M  V30 1139 C 106.908 -4.28443 -4.37154 0
M  V30 1140 N 106.045 -4.26763 -5.5751 0
M  V30 1141 H 110.885 -2.6273 -1.40631 0
M  V30 1142 H 108.422 -1.30241 -0.683789 0
M  V30 1143 H 110.38 -1.82344 -3.75242 0
M  V30 1144 H 109.01 -0.883806 -3.10465 0
M  V30 1145 H 108.062 -3.11911 -2.17751 0
M  V30 1146 H 109.374 -3.96039 -3.0324 0
M  V30 1147 H 108.528 -3.08973 -5.22131 0
M  V30 1148 H 107.267 -2.14473 -4.3801 0
M  V30 1149 H 106.272 -4.2631 -3.47188 0
M  V30 1150 H 107.497 -5.2182 -4.34605 0
M  V30 1151 H 105.443 -3.37462 -5.62544 0
M  V30 1152 H 105.36 -5.10507 -5.57601 0
M  V30 1153 H 106.628 -4.33253 -6.48006 0
M  V30 1154 N 110.857 0.726932 -1.39834 0
M  V30 1155 C 111.82 1.82269 -1.38962 0
M  V30 1156 C 112.82 1.58248 -0.285334 0
M  V30 1157 O 114.01 1.65499 -0.54366 0
M  V30 1158 C 111.142 3.20186 -1.17019 0
M  V30 1159 H 112.335 1.84443 -2.36476 0
M  V30 1160 H 109.888 0.931416 -1.25516 0
M  V30 1161 H 110.623 3.23669 -0.202204 0
M  V30 1162 H 110.408 3.3902 -1.96998 0
M  V30 1163 H 111.898 4.00235 -1.1917 0
M  V30 1164 N 112.336 1.25143 0.95797 0
M  V30 1165 C 113.268 1.01023 2.05735 0
M  V30 1166 C 114.281 -0.0236902 1.62783 0
M  V30 1167 O 115.47 0.21448 1.77207 0
M  V30 1168 C 112.57 0.504595 3.35122 0
M  V30 1169 C 111.743 1.6039 4.06932 0
M  V30 1170 C 110.802 1.09922 5.14591 0
M  V30 1171 O 109.828 1.79293 5.40225 0
M  V30 1172 N 111.03 -0.0612545 5.80468 0
M  V30 1173 H 113.795 1.95683 2.26998 0
M  V30 1174 H 111.356 1.16303 1.12629 0
M  V30 1175 H 113.348 0.151516 4.04416 0
M  V30 1176 H 111.918 -0.347989 3.10657 0
M  V30 1177 H 111.138 2.12872 3.31782 0
M  V30 1178 H 112.426 2.34252 4.51667 0
M  V30 1179 H 111.824 -0.640985 5.62057 0
M  V30 1180 H 110.381 -0.355395 6.5083 0
M  V30 1181 N 113.814 -1.1601 1.06675 0
M  V30 1182 C 115.091 -1.82679 0.699114 0
M  V30 1183 C 115.471 -1.94559 -0.819137 0
M  V30 1184 O 114.819 -1.49169 -1.73092 0
M  V30 1185 C 115.029 -3.19445 1.40555 0
M  V30 1186 C 116.377 -3.95171 1.55323 0
M  V30 1187 O 117.401 -3.28976 1.36577 0
M  V30 1188 O 116.26 -5.13833 1.86112 0
M  V30 1189 H 113.354 -0.788954 0.247951 0
M  V30 1190 H 115.9 -1.23179 1.16726 0
M  V30 1191 H 114.672 -3.05856 2.44065 0
M  V30 1192 H 114.295 -3.86625 0.927733 0
M  V30 1193 N 115.292 -0.849877 -1.32721 0
M  V30 1194 C 116.54 -0.450032 -1.97026 0
M  V30 1195 C 116.861 0.996604 -1.67609 0
M  V30 1196 O 116.131 1.6958 -0.980786 0
M  V30 1197 H 114.711 -0.163426 -0.728904 0
M  V30 1198 H 117.373 -1.08526 -1.6189 0
M  V30 1199 H 116.469 -0.591146 -3.0645 0
M  V30 1200 N 116.77 1.45427 -0.607355 0
M  V30 1201 C 117.998 2.06614 -0.108814 0
M  V30 1202 C 118.413 1.45204 1.2067 0
M  V30 1203 O 117.77 0.566132 1.73497 0
M  V30 1204 C 117.821 3.61481 0.0375347 0
M  V30 1205 O 117.542 4.20598 -1.22593 0
M  V30 1206 C 119.043 4.39652 0.567561 0
M  V30 1207 H 116.263 0.66747 -0.0687351 0
M  V30 1208 H 118.807 1.86675 -0.835022 0
M  V30 1209 H 116.962 3.80762 0.714068 0
M  V30 1210 H 117.376 5.1377 -1.05547 0
M  V30 1211 H 118.85 5.48518 0.61905 0
M  V30 1212 H 119.327 4.09417 1.58978 0
M  V30 1213 H 119.933 4.25234 -0.0749202 0
M  V30 1214 N 118.248 0.346503 1.53744 0
M  V30 1215 C 119.495 -0.249104 2.00962 0
M  V30 1216 C 119.823 -1.5032 1.23426 0
M  V30 1217 O 119.078 -1.93217 0.310761 0
M  V30 1218 C 119.377 -0.605809 3.52228 0
M  V30 1219 C 119.043 0.551747 4.47512 0
M  V30 1220 C 117.705 0.86941 4.73281 0
M  V30 1221 C 120.057 1.32818 5.03993 0
M  V30 1222 C 117.385 1.96582 5.52786 0
M  V30 1223 C 119.737 2.41486 5.84694 0
M  V30 1224 C 118.401 2.73808 6.08757 0
M  V30 1225 H 117.671 -0.0911538 0.735372 0
M  V30 1226 H 120.318 0.475027 1.85515 0
M  V30 1227 H 118.623 -1.4107 3.65522 0
M  V30 1228 H 120.32 -1.07858 3.86222 0
M  V30 1229 H 116.91 0.294102 4.2759 0
M  V30 1230 H 121.094 1.09602 4.84047 0
M  V30 1231 H 116.35 2.22045 5.69654 0
M  V30 1232 H 120.524 3.02078 6.27473 0
M  V30 1233 H 118.151 3.58892 6.7015 0
M  V30 1234 N 119.726 -1.57421 0.075193 0
M  V30 1235 C 120.951 -1.98364 -0.605515 0
M  V30 1236 C 121.376 -0.953383 -1.62149 0
M  V30 1237 O 120.734 0.0806053 -1.81121 0
M  V30 1238 C 120.782 -3.38332 -1.24756 0
M  V30 1239 O 119.886 -3.37959 -2.36342 0
M  V30 1240 H 119.227 -0.645553 -0.155428 0
M  V30 1241 H 121.757 -2.04044 0.150714 0
M  V30 1242 H 121.767 -3.75591 -1.5936 0
M  V30 1243 H 120.442 -4.12846 -0.503129 0
M  V30 1244 H 119.019 -3.12474 -2.03506 0
M  V30 1245 N 121.204 0.198386 -1.56346 0
M  V30 1246 C 122.429 0.939682 -1.84891 0
M  V30 1247 C 122.854 1.76202 -0.658369 0
M  V30 1248 O 122.212 1.76993 0.392851 0
M  V30 1249 C 122.26 1.81428 -3.11635 0
M  V30 1250 O 121.364 2.91265 -2.91956 0
M  V30 1251 H 120.705 0.264807 -0.608912 0
M  V30 1252 H 123.235 0.204695 -2.03573 0
M  V30 1253 H 123.245 2.21958 -3.42343 0
M  V30 1254 H 121.92 1.21004 -3.97908 0
M  V30 1255 H 120.497 2.54514 -2.72538 0
M  V30 1256 N 122.682 1.50554 0.465978 0
M  V30 1257 C 123.928 1.62038 1.21949 0
M  V30 1258 C 124.261 0.322116 1.9151 0
M  V30 1259 O 123.536 -0.676723 1.82348 0
M  V30 1260 C 123.819 2.80421 2.25912 0
M  V30 1261 C 123.672 4.20144 1.60622 0
M  V30 1262 C 124.991 2.94354 3.27176 0
M  V30 1263 H 122.11 0.589752 0.441998 0
M  V30 1264 H 124.752 1.82956 0.51257 0
M  V30 1265 H 122.902 2.62717 2.86203 0
M  V30 1266 H 124.574 4.49449 1.03889 0
M  V30 1267 H 122.817 4.24165 0.909211 0
M  V30 1268 H 123.488 4.98914 2.36196 0
M  V30 1269 H 125.964 3.10578 2.76913 0
M  V30 1270 H 124.84 3.788 3.97242 0
M  V30 1271 H 125.101 2.05186 3.916 0
M  V30 1272 N 124.16 -0.719506 1.40217 0
M  V30 1273 C 125.09 -1.8465 1.42922 0
M  V30 1274 C 126.071 -1.67599 0.29062 0
M  V30 1275 O 127.256 -1.87688 0.498677 0
M  V30 1276 C 124.386 -3.22565 1.28722 0
M  V30 1277 C 123.34 -3.54281 2.40144 0
M  V30 1278 C 122.666 -4.91298 2.11023 0
M  V30 1279 C 123.966 -3.55676 3.82481 0
M  V30 1280 H 125.66 -1.82644 2.37237 0
M  V30 1281 H 123.206 -0.877305 1.1419 0
M  V30 1282 H 125.159 -4.01095 1.29232 0
M  V30 1283 H 123.883 -3.25137 0.308811 0
M  V30 1284 H 122.542 -2.78088 2.38877 0
M  V30 1285 H 122.19 -4.90468 1.11582 0
M  V30 1286 H 121.89 -5.13485 2.8567 0
M  V30 1287 H 123.414 -5.72166 2.13209 0
M  V30 1288 H 124.828 -4.24254 3.85592 0
M  V30 1289 H 123.225 -3.89388 4.56614 0
M  V30 1290 H 124.295 -2.55144 4.12346 0
M  V30 1291 N 125.638 -1.25649 -0.95132 0
M  V30 1292 C 126.866 -1.13343 -1.73092 0
M  V30 1293 C 127.281 0.312434 -1.86197 0
M  V30 1294 O 126.638 1.21465 -1.36207 0
M  V30 1295 C 126.689 -1.78602 -3.14299 0
M  V30 1296 O 126.41 -3.17537 -3.01831 0
M  V30 1297 C 127.911 -1.72119 -4.08522 0
M  V30 1298 H 125.131 -0.395181 -0.542285 0
M  V30 1299 H 127.675 -1.66076 -1.19328 0
M  V30 1300 H 125.83 -1.29832 -3.64996 0
M  V30 1301 H 126.244 -3.49676 -3.90931 0
M  V30 1302 H 127.718 -2.22435 -5.052 0
M  V30 1303 H 128.195 -0.685635 -4.33815 0
M  V30 1304 H 128.801 -2.20393 -3.63741 0
M  V30 1305 N 127.117 1.15442 -1.07289 0
M  V30 1306 C 128.047 2.22312 -0.714107 0
M  V30 1307 C 129.028 1.67467 0.298155 0
M  V30 1308 O 130.213 1.93445 0.171048 0
M  V30 1309 C 127.343 3.47124 -0.110448 0
M  V30 1310 C 126.297 4.14926 -1.04979 0
M  V30 1311 C 125.623 5.33807 -0.308924 0
M  V30 1312 C 126.923 4.64762 -2.38314 0
M  V30 1313 H 128.617 2.5258 -1.6076 0
M  V30 1314 H 126.163 1.21404 -0.77441 0
M  V30 1315 H 128.116 4.21124 0.152482 0
M  V30 1316 H 126.84 3.16187 0.81812 0
M  V30 1317 H 125.499 3.42866 -1.29764 0
M  V30 1318 H 125.147 4.99126 0.623084 0
M  V30 1319 H 124.847 5.80113 -0.935036 0
M  V30 1320 H 126.371 6.10576 -0.0537771 0
M  V30 1321 H 127.785 5.30292 -2.1786 0
M  V30 1322 H 126.182 5.21728 -2.96514 0
M  V30 1323 H 127.252 3.80434 -3.00663 0
M  V30 1324 N 128.595 0.856903 1.32268 0
M  V30 1325 C 129.823 0.475439 2.01363 0
M  V30 1326 C 130.238 -0.928486 1.64392 0
M  V30 1327 O 129.595 -1.60624 0.866387 0
M  V30 1328 C 129.646 0.607545 3.56358 0
M  V30 1329 O 129.367 1.95617 3.92002 0
M  V30 1330 C 130.868 0.225382 4.42727 0
M  V30 1331 H 128.088 0.186636 0.644521 0
M  V30 1332 H 130.632 1.15446 1.68797 0
M  V30 1333 H 128.787 -0.0237719 3.87393 0
M  V30 1334 H 129.201 1.95455 4.86721 0
M  V30 1335 H 130.675 0.368813 5.50767 0
M  V30 1336 H 131.152 -0.834369 4.31202 0
M  V30 1337 H 131.758 0.831864 4.17085 0
M  V30 1338 N 130.073 -1.45103 0.615059 0
M  V30 1339 C 131.021 -2.32331 -0.111791 0
M  V30 1340 C 132.015 -1.46409 -0.852102 0
M  V30 1341 O 133.221 -1.62849 -0.766821 0
M  V30 1342 H 129.596 -0.749993 -0.0549072 0
M  V30 1343 H 131.567 -2.91407 0.642225 0
M  V30 1344 C 130.316 -3.3015 -1.09071 0
M  V30 1345 H 129.639 -3.96265 -0.530485 0
M  V30 1346 H 131.079 -3.93898 -1.56908 0
M  V30 1347 C 129.538 -2.57875 -2.168 0
M  V30 1348 O 130.068 -2.36567 -3.24652 0
M  V30 1349 N 128.274 -2.17884 -1.92289 0
M  V30 1350 H 127.821 -2.35413 -1.04587 0
M  V30 1351 H 127.779 -1.6985 -2.64572 0
M  V30 1352 N 131.551 -0.354651 -1.53558 0
M  V30 1353 C 132.481 0.489091 -2.2832 0
M  V30 1354 C 133.462 1.09324 -1.30316 0
M  V30 1355 O 134.647 1.11255 -1.59173 0
M  V30 1356 C 131.777 1.63456 -3.0643 0
M  V30 1357 C 130.731 1.1582 -4.12031 0
M  V30 1358 C 130.057 2.39305 -4.7816 0
M  V30 1359 C 131.357 0.250731 -5.21698 0
M  V30 1360 H 133.051 -0.134614 -2.99097 0
M  V30 1361 H 130.597 -0.0661826 -1.43848 0
M  V30 1362 H 132.55 2.23136 -3.57475 0
M  V30 1363 H 131.274 2.28533 -2.33325 0
M  V30 1364 H 129.933 0.584146 -3.61916 0
M  V30 1365 H 129.581 3.02814 -4.01637 0
M  V30 1366 H 129.281 2.08109 -5.49513 0
M  V30 1367 H 130.805 2.99691 -5.31994 0
M  V30 1368 H 132.219 0.754695 -5.68311 0
M  V30 1369 H 130.616 0.0301468 -6.00092 0
M  V30 1370 H 131.686 -0.710125 -4.79672 0
M  V30 1371 N 133.029 1.57378 -0.0835403 0
M  V30 1372 C 134.257 1.98263 0.59157 0
M  V30 1373 C 134.672 0.962302 1.62435 0
M  V30 1374 O 134.029 -0.049581 1.82433 0
M  V30 1375 C 134.08 3.39214 1.24965 0
M  V30 1376 O 133.801 4.37339 0.258186 0
M  V30 1377 C 135.302 3.95038 2.01147 0
M  V30 1378 H 132.522 0.651773 0.159477 0
M  V30 1379 H 135.066 2.03878 -0.159415 0
M  V30 1380 H 133.221 3.34649 1.95164 0
M  V30 1381 H 133.635 5.19371 0.731734 0
M  V30 1382 H 135.109 4.95848 2.42567 0
M  V30 1383 H 135.586 3.32222 2.87272 0
M  V30 1384 H 136.192 4.0304 1.35789 0
M  V30 1385 N 134.507 -0.190092 1.56449 0
M  V30 1386 C 135.755 -0.907908 1.80559 0
M  V30 1387 C 136.076 -1.83583 0.657438 0
M  V30 1388 O 135.346 -1.93203 -0.323924 0
M  V30 1389 H 133.926 -0.338247 0.666032 0
M  V30 1390 H 136.588 -0.194403 1.93928 0
M  V30 1391 H 135.684 -1.49604 2.73907 0
M  V30 1392 N 135.985 -1.50799 -0.457987 0
M  V30 1393 C 136.915 -1.73553 -1.5621 0
M  V30 1394 C 137.896 -0.584774 -1.59732 0
M  V30 1395 O 139.081 -0.825314 -1.7579 0
M  V30 1396 C 136.211 -1.84169 -2.94447 0
M  V30 1397 C 135.165 -2.99461 -3.0579 0
M  V30 1398 C 134.491 -2.95235 -4.45803 0
M  V30 1399 C 135.791 -4.39766 -2.81786 0
M  V30 1400 H 137.485 -2.66 -1.37421 0
M  V30 1401 H 135.031 -1.28002 -0.659662 0
M  V30 1402 H 136.984 -1.98672 -3.71628 0
M  V30 1403 H 135.708 -0.883545 -3.14422 0
M  V30 1404 H 134.367 -2.8463 -2.31044 0
M  V30 1405 H 134.015 -1.97239 -4.62715 0
M  V30 1406 H 133.715 -3.72642 -4.54326 0
M  V30 1407 H 135.239 -3.11803 -5.24987 0
M  V30 1408 H 136.653 -4.55054 -3.4871 0
M  V30 1409 H 135.05 -5.18722 -3.0174 0
M  V30 1410 H 136.12 -4.51229 -1.7754 0
M  V30 1411 N 137.463 0.71206 -1.40597 0
M  V30 1412 C 138.74 1.46536 -1.29563 0
M  V30 1413 C 139.12 2.10931 0.0844217 0
M  V30 1414 O 138.468 2.00418 1.0975 0
M  V30 1415 C 138.678 2.49821 -2.43701 0
M  V30 1416 C 140.026 3.15551 -2.841 0
M  V30 1417 O 141.05 2.60142 -2.4332 0
M  V30 1418 O 139.909 4.15867 -3.54566 0
M  V30 1419 H 137.003 0.651801 -0.509004 0
M  V30 1420 H 139.549 0.743935 -1.52524 0
M  V30 1421 H 138.321 2.00778 -3.35863 0
M  V30 1422 H 137.944 3.29495 -2.22528 0
M  V30 1423 N 138.941 1.26152 0.944643 0
M  V30 1424 C 140.169 1.14259 1.72489 0
M  V30 1425 C 140.584 -0.302555 1.8636 0
M  V30 1426 O 139.941 -1.20741 1.36849 0
M  V30 1427 C 139.992 1.80266 3.13347 0
M  V30 1428 O 139.713 3.19133 3.00143 0
M  V30 1429 C 141.214 1.74283 4.07603 0
M  V30 1430 H 138.434 0.398051 0.540181 0
M  V30 1431 H 140.978 1.66706 1.18446 0
M  V30 1432 H 139.133 1.31766 3.64303 0
M  V30 1433 H 139.547 3.51744 3.89071 0
M  V30 1434 H 141.021 2.25111 5.04013 0
M  V30 1435 H 141.498 0.708631 4.33446 0
M  V30 1436 H 142.104 2.22319 3.62567 0
M  V30 1437 N 140.419 -1.14872 1.07899 0
M  V30 1438 C 141.667 -1.85422 0.803941 0
M  V30 1439 C 141.988 -1.83051 -0.67211 0
M  V30 1440 O 141.258 -1.27532 -1.48703 0
M  V30 1441 H 139.838 -0.686537 0.294408 0
M  V30 1442 H 142.5 -1.39226 1.3639 0
M  V30 1443 H 141.596 -2.90399 1.14346 0
M  V30 1444 N 141.898 -0.863906 -1.31812 0
M  V30 1445 C 142.808 -0.318461 -2.32428 0
M  V30 1446 C 143.824 0.568496 -1.64451 0
M  V30 1447 O 145 0.46666 -1.95919 0
M  V30 1448 C 142.065 0.476355 -3.43412 0
M  V30 1449 C 141.126 -0.43784 -4.27061 0
M  V30 1450 C 140.359 0.319138 -5.32745 0
M  V30 1451 O 140.582 1.54799 -5.48993 0
M  V30 1452 O 139.516 -0.319861 -6.01049 0
M  V30 1453 H 143.342 -1.15229 -2.80991 0
M  V30 1454 H 140.927 -0.627103 -1.35602 0
M  V30 1455 H 142.809 0.927156 -4.11074 0
M  V30 1456 H 141.484 1.28683 -2.97022 0
M  V30 1457 H 140.391 -0.937013 -3.62175 0
M  V30 1458 H 141.724 -1.21375 -4.77 0
M  V30 1459 N 143.376 1.44774 -0.622745 0
M  V30 1460 C 144.606 2.06187 -0.130532 0
M  V30 1461 C 145.014 1.46547 1.19669 0
M  V30 1462 O 144.357 0.579636 1.74316 0
M  V30 1463 C 144.419 3.59437 0.0674983 0
M  V30 1464 C 144.083 4.41496 -1.18026 0
M  V30 1465 C 145.08 4.75512 -2.102 0
M  V30 1466 C 142.765 4.82007 -1.41333 0
M  V30 1467 C 144.759 5.48912 -3.23998 0
M  V30 1468 C 142.446 5.55157 -2.55429 0
M  V30 1469 C 143.444 5.88528 -3.46589 0
M  V30 1470 O 143.132 6.60191 -4.58697 0
M  V30 1471 H 142.864 0.672045 -0.0730162 0
M  V30 1472 H 145.418 1.86768 -0.854802 0
M  V30 1473 H 143.648 3.77314 0.846825 0
M  V30 1474 H 145.337 4.02642 0.513209 0
M  V30 1475 H 146.103 4.4476 -1.93425 0
M  V30 1476 H 141.982 4.55457 -0.712709 0
M  V30 1477 H 145.526 5.74877 -3.95174 0
M  V30 1478 H 141.423 5.85324 -2.72151 0
M  V30 1479 H 142.191 6.78654 -4.57571 0
M  V30 1480 N 144.854 0.36279 1.53368 0
M  V30 1481 C 146.101 -0.227776 2.01215 0
M  V30 1482 C 146.429 -1.49003 1.25014 0
M  V30 1483 O 145.684 -1.92876 0.331236 0
M  V30 1484 C 145.983 -0.568417 3.52851 0
M  V30 1485 C 145.649 0.59918 4.46901 0
M  V30 1486 C 144.311 0.919559 4.72332 0
M  V30 1487 C 146.663 1.38156 5.02556 0
M  V30 1488 C 143.991 2.02434 5.5067 0
M  V30 1489 C 146.343 2.47674 5.821 0
M  V30 1490 C 145.007 2.8025 6.05819 0
M  V30 1491 H 144.277 -0.083349 0.736297 0
M  V30 1492 H 146.924 0.494677 1.85001 0
M  V30 1493 H 145.229 -1.37185 3.66998 0
M  V30 1494 H 146.926 -1.03756 3.87344 0
M  V30 1495 H 143.516 0.339437 4.27254 0
M  V30 1496 H 147.7 1.14729 4.82857 0
M  V30 1497 H 142.956 2.28075 5.67267 0
M  V30 1498 H 147.13 3.08716 6.24234 0
M  V30 1499 H 144.757 3.65979 6.66306 0
M  V30 1500 N 146.332 -1.57332 0.0918853 0
M  V30 1501 C 147.572 -1.96117 -0.575988 0
M  V30 1502 C 147.936 -0.972499 -1.65549 0
M  V30 1503 O 149.137 -1.24872 -2.38034 0
M  V30 1504 C 147.408 -3.39407 -1.11973 0
M  V30 1505 S 148.967 -4.00185 -1.79992 0
M  V30 1506 H 145.785 -0.685682 -0.188045 0
M  V30 1507 H 148.387 -1.94755 0.170525 0
M  V30 1508 H 147.091 -4.09131 -0.322504 0
M  V30 1509 H 146.622 -3.44358 -1.90214 0
M  V30 1510 H 148.637 -3.88728 -3.08391 0
M  V30 1511 N 147.81 0.181792 -1.56548 0
M  V30 1512 C 149.038 0.915947 -1.85521 0
M  V30 1513 C 149.453 1.76282 -0.676016 0
M  V30 1514 O 148.81 1.79012 0.355077 0
M  V30 1515 C 148.861 1.80126 -3.13427 0
M  V30 1516 O 148.582 0.988562 -4.26801 0
M  V30 1517 C 150.083 2.64597 -3.55673 0
M  V30 1518 H 147.303 0.26661 -0.61576 0
M  V30 1519 H 149.847 0.185039 -2.03661 0
M  V30 1520 H 148.002 2.48563 -2.97145 0
M  V30 1521 H 148.416 1.59308 -4.99721 0
M  V30 1522 H 149.89 3.2235 -4.48101 0
M  V30 1523 H 150.367 3.38958 -2.79292 0
M  V30 1524 H 150.973 2.0151 -3.74532 0
M  V30 1525 N 149.288 1.51039 0.449983 0
M  V30 1526 C 150.238 1.67824 1.54335 0
M  V30 1527 C 151.222 0.5324 1.51836 0
M  V30 1528 O 152.414 0.787762 1.58503 0
M  V30 1529 C 149.543 1.7951 2.92628 0
M  V30 1530 C 148.629 2.99838 2.9993 0
M  V30 1531 N 149.02 4.23207 2.77001 0
M  V30 1532 C 147.318 2.98832 3.31082 0
M  V30 1533 C 148.019 5.04361 2.89818 0
M  V30 1534 N 146.995 4.38746 3.2094 0
M  V30 1535 H 150.797 2.60884 1.35339 0
M  V30 1536 H 148.311 1.48513 0.657085 0
M  V30 1537 H 150.308 1.89642 3.7127 0
M  V30 1538 H 148.968 0.876227 3.12654 0
M  V30 1539 H 149.979 4.5236 2.52172 0
M  V30 1540 H 146.656 2.16527 3.56963 0
M  V30 1541 H 148.046 6.12528 2.76151 0
M  V30 1542 N 150.766 -0.704594 1.40972 0
M  V30 1543 C 151.714 -1.83994 1.42299 0
M  V30 1544 C 152.708 -1.66684 0.302111 0
M  V30 1545 O 153.914 -1.73655 0.473697 0
M  V30 1546 H 150.289 -0.606171 0.44504 0
M  V30 1547 H 152.26 -1.79992 2.38003 0
M  V30 1548 C 151.009 -3.21946 1.31323 0
M  V30 1549 H 150.332 -3.35878 2.16855 0
M  V30 1550 H 151.772 -4.01491 1.36311 0
M  V30 1551 C 150.231 -3.36891 0.0245977 0
M  V30 1552 O 150.761 -3.90687 -0.934153 0
M  V30 1553 N 148.967 -2.90559 -0.0485243 0
M  V30 1554 H 148.514 -2.46968 0.732419 0
M  V30 1555 H 148.472 -3.00937 -0.910171 0
M  V30 1556 N 152.244 -1.26651 -0.937939 0
M  V30 1557 C 153.521 -1.0313 -1.66204 0
M  V30 1558 C 153.901 0.437256 -2.06522 0
M  V30 1559 O 153.249 1.41831 -1.79154 0
M  V30 1560 C 153.459 -1.98314 -2.87181 0
M  V30 1561 C 154.807 -2.27107 -3.58758 0
M  V30 1562 O 155.831 -1.96205 -2.97291 0
M  V30 1563 O 154.69 -2.79736 -4.69479 0
M  V30 1564 H 151.784 -0.392384 -0.727986 0
M  V30 1565 H 154.33 -1.37874 -0.989382 0
M  V30 1566 H 153.102 -2.97399 -2.54302 0
M  V30 1567 H 152.725 -1.64068 -3.6217 0
M  V30 1568 N 153.722 1.14298 -1.08507 0
M  V30 1569 C 154.947 1.8976 -0.837001 0
M  V30 1570 C 155.372 1.78097 0.605228 0
M  V30 1571 O 154.73 1.12188 1.4242 0
M  V30 1572 C 154.778 3.37685 -1.26495 0
M  V30 1573 O 153.882 4.10281 -0.417514 0
M  V30 1574 H 153.223 0.590365 -0.303917 0
M  V30 1575 H 155.753 1.44672 -1.44676 0
M  V30 1576 H 155.763 3.88501 -1.24625 0
M  V30 1577 H 154.438 3.45492 -2.31534 0
M  V30 1578 H 153.015 3.69536 -0.499722 0
M  V30 1579 N 155.201 0.870884 1.31352 0
M  V30 1580 C 156.617 0.562932 1.49343 0
M  V30 1581 C 156.817 -0.902725 1.80148 0
M  V30 1582 O 155.873 -1.68484 1.88067 0
M  V30 1583 C 157.186 1.46393 2.62659 0
M  V30 1584 C 158.734 1.46607 2.76542 0
M  V30 1585 C 159.209 2.35266 3.92955 0
M  V30 1586 N 160.7 2.33151 4.00243 0
M  V30 1587 C 161.435 2.98471 4.89594 0
M  V30 1588 N 160.931 3.72964 5.8384 0
M  V30 1589 N 162.724 2.87775 4.82848 0
M  V30 1590 H 154.875 1.81923 1.09626 0
M  V30 1591 H 157.138 0.777934 0.541777 0
M  V30 1592 H 156.844 2.50689 2.46674 0
M  V30 1593 H 156.718 1.16314 3.58819 0
M  V30 1594 H 159.105 0.43069 2.9194 0
M  V30 1595 H 159.186 1.8071 1.81046 0
M  V30 1596 H 158.83 3.38881 3.78315 0
M  V30 1597 H 158.76 1.98487 4.87761 0
M  V30 1598 H 161.251 1.79006 3.32814 0
M  V30 1599 H 161.564 4.19932 6.4875 0
M  V30 1600 H 159.909 3.77073 5.83816 0
M  V30 1601 H 163.1 2.29116 4.08195 0
M  V30 1602 H 163.273 3.38961 5.52277 0
M  V30 1603 N 156.679 -1.44442 0.630414 0
M  V30 1604 C 157.927 -2.01653 0.134351 0
M  V30 1605 C 158.248 -1.49836 -1.24796 0
M  V30 1606 O 157.518 -0.701684 -1.82902 0
M  V30 1607 H 156.098 -0.74554 0.0466769 0
M  V30 1608 H 158.76 -1.76952 0.816955 0
M  V30 1609 H 157.856 -3.11935 0.101498 0
M  V30 1610 N 158.157 -0.370918 -1.53173 0
M  V30 1611 C 159.087 0.464847 -2.28826 0
M  V30 1612 C 160.068 1.07936 -1.31468 0
M  V30 1613 O 161.253 1.0956 -1.60344 0
M  V30 1614 C 158.383 1.60196 -3.08147 0
M  V30 1615 C 157.337 1.11443 -4.13237 0
M  V30 1616 C 156.663 2.3422 -4.80672 0
M  V30 1617 C 157.963 0.195384 -5.21934 0
M  V30 1618 H 159.657 -0.166329 -2.98938 0
M  V30 1619 H 157.203 -0.0814359 -1.4377 0
M  V30 1620 H 159.156 2.19332 -3.59822 0
M  V30 1621 H 157.88 2.26045 -2.35735 0
M  V30 1622 H 156.539 0.545727 -3.62515 0
M  V30 1623 H 156.187 2.98537 -4.04827 0
M  V30 1624 H 155.887 2.02269 -5.51689 0
M  V30 1625 H 157.411 2.94032 -5.35143 0
M  V30 1626 H 158.825 0.694375 -5.69079 0
M  V30 1627 H 157.222 -0.0335027 -6.00091 0
M  V30 1628 H 158.292 -0.760961 -4.78892 0
M  V30 1629 N 159.635 1.57281 -0.100228 0
M  V30 1630 C 160.545 2.17833 0.870965 0
M  V30 1631 C 161.561 1.14921 1.30649 0
M  V30 1632 O 162.737 1.47313 1.37335 0
M  V30 1633 C 159.802 2.75085 2.1102 0
M  V30 1634 C 158.863 3.9297 1.72838 0
M  V30 1635 C 158.096 4.47482 2.90854 0
M  V30 1636 O 158.319 4.00922 4.05731 0
M  V30 1637 O 157.253 5.38433 2.69023 0
M  V30 1638 H 161.079 3.0124 0.38575 0
M  V30 1639 H 158.664 1.48881 0.124397 0
M  V30 1640 H 160.546 3.11656 2.83634 0
M  V30 1641 H 159.221 1.94721 2.58584 0
M  V30 1642 H 158.128 3.61201 0.973883 0
M  V30 1643 H 159.461 4.74713 1.30033 0
M  V30 1644 N 161.113 -0.173488 1.56642 0
M  V30 1645 C 162.341 -0.906095 1.86004 0
M  V30 1646 C 162.756 -1.75921 0.685355 0
M  V30 1647 O 162.113 -1.79198 -0.345578 0
M  V30 1648 C 162.164 -1.78462 3.14378 0
M  V30 1649 O 161.885 -0.965914 4.27319 0
M  V30 1650 C 163.386 -2.62707 3.57071 0
M  V30 1651 H 160.606 -0.263341 0.617165 0
M  V30 1652 H 163.15 -0.174236 2.03756 0
M  V30 1653 H 161.305 -2.46984 2.98459 0
M  V30 1654 H 161.719 -1.56655 5.00559 0
M  V30 1655 H 163.193 -3.19969 4.49804 0
M  V30 1656 H 163.67 -3.37472 2.81086 0
M  V30 1657 H 164.276 -1.99521 3.75595 0
M  V30 1658 N 162.591 -1.51276 -0.441967 0
M  V30 1659 C 163.868 -1.54252 -1.20273 0
M  V30 1660 C 164.248 -0.30408 -2.08898 0
M  V30 1661 O 163.596 0.711084 -2.17154 0
M  V30 1662 C 163.806 -2.85406 -2.00859 0
M  V30 1663 C 165.154 -3.37181 -2.58059 0
M  V30 1664 O 166.178 -2.86925 -2.11074 0
M  V30 1665 O 165.037 -4.24858 -3.43741 0
M  V30 1666 H 162.131 -0.619969 -0.547328 0
M  V30 1667 H 164.677 -1.63586 -0.451413 0
M  V30 1668 H 163.449 -3.67003 -1.35736 0
M  V30 1669 H 163.072 -2.79213 -2.83065 0
M  V30 1670 N 164.069 0.697108 -1.41344 0
M  V30 1671 C 164.979 1.84088 -1.45427 0
M  V30 1672 C 165.995 1.70545 -0.34501 0
M  V30 1673 O 167.171 1.92488 -0.592492 0
M  V30 1674 C 164.236 3.20056 -1.33286 0
M  V30 1675 C 163.297 3.45718 -2.54514 0
M  V30 1676 C 162.53 4.75199 -2.42944 0
M  V30 1677 O 162.753 5.51579 -1.45318 0
M  V30 1678 O 161.687 5.0161 -3.32672 0
M  V30 1679 H 165.513 1.836 -2.41919 0
M  V30 1680 H 163.098 0.849966 -1.22866 0
M  V30 1681 H 164.98 4.01236 -1.28794 0
M  V30 1682 H 163.655 3.2123 -0.39909 0
M  V30 1683 H 162.562 2.64474 -2.64583 0
M  V30 1684 H 163.895 3.49356 -3.46715 0
M  V30 1685 N 165.547 1.27147 0.931209 0
M  V30 1686 C 166.963 1.04475 1.20653 0
M  V30 1687 C 167.163 -0.223885 2.00252 0
M  V30 1688 O 166.219 -0.930332 2.34736 0
M  V30 1689 C 167.532 2.28209 1.95809 0
M  V30 1690 C 169.08 2.33211 2.08762 0
M  V30 1691 C 169.555 3.56665 2.87323 0
M  V30 1692 N 171.046 3.57201 2.94892 0
M  V30 1693 C 171.781 4.49395 3.56134 0
M  V30 1694 N 171.277 5.51889 4.18796 0
M  V30 1695 N 173.07 4.37026 3.53504 0
M  V30 1696 H 165.221 2.08612 0.399333 0
M  V30 1697 H 167.484 0.917312 0.239253 0
M  V30 1698 H 167.19 3.20538 1.44736 0
M  V30 1699 H 167.064 2.33247 2.96438 0
M  V30 1700 H 169.451 1.41391 2.59023 0
M  V30 1701 H 169.532 2.32178 1.07364 0
M  V30 1702 H 169.176 4.4882 2.37746 0
M  V30 1703 H 169.106 3.54948 3.88998 0
M  V30 1704 H 171.597 2.83074 2.50354 0
M  V30 1705 H 171.91 6.18409 4.63454 0
M  V30 1706 H 170.255 5.55735 4.17353 0
M  V30 1707 H 173.446 3.56166 3.03749 0
M  V30 1708 H 173.619 5.09067 4.00942 0
M  V30 1709 N 167.025 -1.13721 1.09112 0
M  V30 1710 C 167.972 -2.19031 0.727591 0
M  V30 1711 C 168.942 -1.63555 -0.289656 0
M  V30 1712 O 170.127 -1.90023 -0.172026 0
M  V30 1713 C 167.267 -3.4477 0.15082 0
M  V30 1714 C 166.38 -4.14365 1.22172 0
M  V30 1715 C 165.515 -5.27709 0.608042 0
M  V30 1716 C 164.554 -5.89147 1.66047 0
M  V30 1717 N 163.691 -6.93929 1.06806 0
M  V30 1718 H 168.531 -2.49475 1.62991 0
M  V30 1719 H 166.068 -1.22499 0.81439 0
M  V30 1720 H 168.026 -4.16714 -0.201358 0
M  V30 1721 H 166.656 -3.14787 -0.714783 0
M  V30 1722 H 165.708 -3.40737 1.69122 0
M  V30 1723 H 167.02 -4.56114 2.01895 0
M  V30 1724 H 166.174 -6.06355 0.204523 0
M  V30 1725 H 164.913 -4.872 -0.220769 0
M  V30 1726 H 163.918 -5.09198 2.07357 0
M  V30 1727 H 165.143 -6.31729 2.49189 0
M  V30 1728 H 163.089 -6.55483 0.260476 0
M  V30 1729 H 163.006 -7.34202 1.8023 0
M  V30 1730 H 164.274 -7.76434 0.690644 0
M  V30 1731 N 168.503 -0.877838 -1.30888 0
M  V30 1732 C 169.919 -0.570844 -1.49042 0
M  V30 1733 C 170.119 0.893159 -1.80624 0
M  V30 1734 O 169.175 1.67485 -1.88958 0
M  V30 1735 C 170.488 -1.47784 -2.61878 0
M  V30 1736 C 172.036 -1.48071 -2.75761 0
M  V30 1737 C 172.511 -2.37347 -3.91702 0
M  V30 1738 N 174.002 -2.35271 -3.99001 0
M  V30 1739 C 174.737 -3.01063 -4.88004 0
M  V30 1740 N 174.233 -3.76055 -5.81854 0
M  V30 1741 N 176.026 -2.90332 -4.81315 0
M  V30 1742 H 168.177 -1.82502 -1.0866 0
M  V30 1743 H 170.44 -0.780797 -0.537644 0
M  V30 1744 H 170.146 -2.51993 -2.45341 0
M  V30 1745 H 170.02 -1.18215 -3.58197 0
M  V30 1746 H 172.407 -0.446166 -2.91708 0
M  V30 1747 H 172.488 -1.81668 -1.80085 0
M  V30 1748 H 172.132 -3.40883 -3.76512 0
M  V30 1749 H 172.062 -2.01071 -4.86701 0
M  V30 1750 H 174.553 -1.80768 -3.3186 0
M  V30 1751 H 174.866 -4.23366 -6.46514 0
M  V30 1752 H 173.211 -3.80163 -5.81808 0
M  V30 1753 H 176.402 -2.31278 -4.06974 0
M  V30 1754 H 176.575 -3.41885 -5.50471 0
M  V30 1755 N 169.982 1.44106 -0.638065 0
M  V30 1756 C 170.912 2.33448 0.0494287 0
M  V30 1757 C 171.893 1.48606 0.827672 0
M  V30 1758 O 173.078 1.77308 0.792173 0
M  V30 1759 C 170.208 3.31771 1.02691 0
M  V30 1760 C 169.162 4.26485 0.359823 0
M  V30 1761 C 168.488 5.14729 1.44769 0
M  V30 1762 C 169.788 5.17056 -0.738296 0
M  V30 1763 H 171.482 2.91183 -0.696636 0
M  V30 1764 H 169.028 1.40014 -0.336456 0
M  V30 1765 H 170.981 3.93161 1.51666 0
M  V30 1766 H 169.705 2.7226 1.80395 0
M  V30 1767 H 168.364 3.66437 -0.10934 0
M  V30 1768 H 168.012 4.51566 2.21578 0
M  V30 1769 H 167.712 5.78913 1.00668 0
M  V30 1770 H 169.236 5.78991 1.93911 0
M  V30 1771 H 170.65 5.72342 -0.331354 0
M  V30 1772 H 169.047 5.89879 -1.10286 0
M  V30 1773 H 170.117 4.57652 -1.60258 0
M  V30 1774 N 171.46 0.379036 1.52974 0
M  V30 1775 C 172.69 -0.20649 2.05566 0
M  V30 1776 C 173.098 -1.41906 1.25137 0
M  V30 1777 O 172.441 -1.81421 0.288464 0
M  V30 1778 C 172.503 -0.651086 3.53555 0
M  V30 1779 C 172.167 0.446626 4.54812 0
M  V30 1780 C 173.164 1.30079 5.03364 0
M  V30 1781 C 170.849 0.610719 4.98573 0
M  V30 1782 C 172.843 2.30426 5.94292 0
M  V30 1783 C 170.53 1.61754 5.89304 0
M  V30 1784 C 171.528 2.46274 6.37054 0
M  V30 1785 O 171.216 3.45237 7.25994 0
M  V30 1786 H 170.948 -0.0372381 0.674974 0
M  V30 1787 H 173.502 0.539718 1.98182 0
M  V30 1788 H 171.732 -1.44911 3.58522 0
M  V30 1789 H 173.421 -1.16112 3.88938 0
M  V30 1790 H 174.187 1.18527 4.70294 0
M  V30 1791 H 170.066 -0.0374044 4.60985 0
M  V30 1792 H 173.61 2.96432 6.31485 0
M  V30 1793 H 169.507 1.73348 6.21788 0
M  V30 1794 H 170.275 3.41124 7.44027 0
M  V30 1795 N 172.938 -1.57226 0.108567 0
M  V30 1796 C 174.187 -1.94008 -0.551703 0
M  V30 1797 C 174.5 -0.993442 -1.68494 0
M  V30 1798 O 175.706 -1.25551 -2.40726 0
M  V30 1799 C 174.162 -3.44763 -1.03279 0
M  V30 1800 C 173.77 -4.47943 0.0714193 0
M  V30 1801 C 175.514 -3.90483 -1.66503 0
M  V30 1802 C 173.421 -5.89865 -0.425779 0
M  V30 1803 H 172.351 -0.724206 -0.209863 0
M  V30 1804 H 175.002 -1.82547 0.186741 0
M  V30 1805 H 173.384 -3.51422 -1.82533 0
M  V30 1806 H 174.558 -4.52942 0.847365 0
M  V30 1807 H 172.873 -4.11913 0.609669 0
M  V30 1808 H 175.47 -4.93925 -2.04798 0
M  V30 1809 H 175.813 -3.29877 -2.53942 0
M  V30 1810 H 176.346 -3.86581 -0.938074 0
M  V30 1811 H 173.085 -6.54202 0.412316 0
M  V30 1812 H 172.605 -5.88309 -1.16843 0
M  V30 1813 H 174.284 -6.40844 -0.890397 0
M  V30 1814 N 174.416 0.165178 -1.56732 0
M  V30 1815 C 175.663 0.880807 -1.8234 0
M  V30 1816 C 175.991 1.81977 -0.686621 0
M  V30 1817 O 175.246 1.92971 0.325697 0
M  V30 1818 C 175.545 1.70405 -3.1416 0
M  V30 1819 C 175.211 0.913475 -4.4155 0
M  V30 1820 C 173.873 0.695303 -4.7615 0
M  V30 1821 C 176.225 0.359349 -5.1996 0
M  V30 1822 C 173.553 -0.0879947 -5.86634 0
M  V30 1823 C 175.905 -0.410893 -6.31264 0
M  V30 1824 C 174.569 -0.639808 -6.64427 0
M  V30 1825 H 173.839 0.32231 -0.667231 0
M  V30 1826 H 176.486 0.145402 -1.90947 0
M  V30 1827 H 174.791 2.50903 -3.00923 0
M  V30 1828 H 176.488 2.26091 -3.31186 0
M  V30 1829 H 173.078 1.09357 -4.14414 0
M  V30 1830 H 177.262 0.515228 -4.93618 0
M  V30 1831 H 172.518 -0.27503 -6.10781 0
M  V30 1832 H 176.692 -0.847494 -6.91224 0
M  V30 1833 H 174.319 -1.24864 -7.49875 0
M  V30 1834 N 175.894 1.51508 0.433938 0
M  V30 1835 C 177.14 1.64588 1.18484 0
M  V30 1836 C 177.473 0.362666 1.90784 0
M  V30 1837 O 176.748 -0.637892 1.83742 0
M  V30 1838 C 177.031 2.85149 2.19913 0
M  V30 1839 C 176.884 4.23456 1.51674 0
M  V30 1840 C 178.203 3.01227 3.20858 0
M  V30 1841 H 175.322 0.598994 0.429389 0
M  V30 1842 H 177.964 1.84002 0.473647 0
M  V30 1843 H 176.114 2.68729 2.80566 0
M  V30 1844 H 177.786 4.51552 0.943322 0
M  V30 1845 H 176.029 4.25998 0.819035 0
M  V30 1846 H 176.7 5.03812 2.2556 0
M  V30 1847 H 179.176 3.16382 2.70263 0
M  V30 1848 H 178.052 3.87141 3.89118 0
M  V30 1849 H 178.313 2.13447 3.8716 0
M  V30 1850 N 177.372 -0.689602 1.41712 0
M  V30 1851 C 178.783 -1.26973 1.36875 0
M  V30 1852 C 179.134 -1.96124 0.054748 0
M  V30 1853 O 178.259 -1.99141 -0.84687 0
M  V30 1854 C 178.854 -2.30912 2.47922 0
M  V30 1855 C 177.413 -2.84486 2.46464 0
M  V30 1856 C 176.56 -1.58603 2.27465 0
M  V30 1857 H 179.511 -0.48396 1.51141 0
M  V30 1858 H 179.532 -3.12331 2.17323 0
M  V30 1859 H 179.044 -1.80554 3.43543 0
M  V30 1860 H 177.145 -3.39005 1.54617 0
M  V30 1861 H 177.258 -3.34511 3.42986 0
M  V30 1862 H 175.622 -1.84632 1.75451 0
M  V30 1863 H 176.405 -1.10233 3.25121 0
M  V30 1864 N 178.85 -1.27639 -0.924453 0
M  V30 1865 C 180.127 -1.04887 -1.651 0
M  V30 1866 C 180.507 0.415327 -2.06974 0
M  V30 1867 O 179.855 1.39923 -1.80648 0
M  V30 1868 C 180.065 -2.01348 -2.85061 0
M  V30 1869 C 181.413 -2.30899 -3.56329 0
M  V30 1870 O 182.437 -1.99348 -2.95193 0
M  V30 1871 O 181.296 -2.84699 -4.66485 0
M  V30 1872 H 178.39 -0.400083 -0.723784 0
M  V30 1873 H 180.936 -1.38916 -0.974703 0
M  V30 1874 H 179.708 -3.0008 -2.51133 0
M  V30 1875 H 179.331 -1.679 -3.6041 0
M  V30 1876 N 180.328 1.1314 -1.09713 0
M  V30 1877 C 181.739 1.66029 -0.853885 0
M  V30 1878 C 182.09 1.86241 0.617142 0
M  V30 1879 O 181.215 1.5834 1.47503 0
M  V30 1880 C 181.81 3.01599 -1.5435 0
M  V30 1881 C 180.369 3.51467 -1.34714 0
M  V30 1882 C 179.516 2.26648 -1.59769 0
M  V30 1883 H 182.467 0.970226 -1.25588 0
M  V30 1884 H 182.488 3.67709 -0.978267 0
M  V30 1885 H 182 2.86856 -2.6141 0
M  V30 1886 H 180.101 3.71408 -0.297838 0
M  V30 1887 H 180.214 4.314 -2.08401 0
M  V30 1888 H 178.578 2.33385 -1.01998 0
M  V30 1889 H 179.361 2.14467 -2.68065 0
M  V30 1890 N 181.806 0.884767 1.30421 0
M  V30 1891 C 183.034 0.518044 2.0031 0
M  V30 1892 C 183.449 -0.893408 1.66324 0
M  V30 1893 O 182.806 -1.5875 0.900262 0
M  V30 1894 C 182.857 0.682997 3.54989 0
M  V30 1895 O 182.578 2.03888 3.87764 0
M  V30 1896 C 184.079 0.31924 4.42149 0
M  V30 1897 H 181.299 0.200265 0.640418 0
M  V30 1898 H 183.843 1.19001 1.6631 0
M  V30 1899 H 181.998 0.0584052 3.87356 0
M  V30 1900 H 182.412 2.05735 4.82466 0
M  V30 1901 H 183.886 0.485555 5.4986 0
M  V30 1902 H 184.363 -0.742717 4.32875 0
M  V30 1903 H 184.969 0.920147 4.15227 0
M  V30 1904 N 183.284 -1.43765 0.645699 0
M  V30 1905 C 184.53 -2.02197 0.156271 0
M  V30 1906 C 184.863 -1.50776 -1.22393 0
M  V30 1907 O 184.138 -0.697771 -1.81553 0
M  V30 1908 C 184.421 -3.59749 0.158872 0
M  V30 1909 C 184.274 -4.21419 1.57245 0
M  V30 1910 C 185.593 -4.37149 -0.50879 0
M  V30 1911 H 182.712 -0.734694 0.0582602 0
M  V30 1912 H 185.354 -1.71157 0.824951 0
M  V30 1913 H 183.504 -3.86325 -0.410525 0
M  V30 1914 H 185.176 -4.059 2.19186 0
M  V30 1915 H 183.419 -3.78356 2.122 0
M  V30 1916 H 184.09 -5.30482 1.52619 0
M  V30 1917 H 186.566 -4.16093 -0.024412 0
M  V30 1918 H 185.442 -5.4683 -0.476213 0
M  V30 1919 H 185.703 -4.12839 -1.58165 0
M  V30 1920 N 184.763 -0.387143 -1.52771 0
M  V30 1921 C 186.011 0.195349 -2.01154 0
M  V30 1922 C 186.332 1.475 -1.27549 0
M  V30 1923 O 185.602 1.91878 -0.394924 0
M  V30 1924 H 184.182 0.075178 -0.743207 0
M  V30 1925 H 186.844 -0.518337 -1.87881 0
M  V30 1926 H 185.94 0.407096 -3.09434 0
M  V30 1927 N 186.241 1.57166 -0.116904 0
M  V30 1928 C 187.488 1.95123 0.541603 0
M  V30 1929 C 187.816 1.00006 1.6682 0
M  V30 1930 O 187.071 0.0235658 1.95686 0
M  V30 1931 C 187.37 3.39508 1.11664 0
M  V30 1932 C 187.036 4.50762 0.111606 0
M  V30 1933 C 185.698 4.80918 -0.164758 0
M  V30 1934 C 188.05 5.18036 -0.573438 0
M  V30 1935 C 185.378 5.75666 -1.13249 0
M  V30 1936 C 187.73 6.13824 -1.52978 0
M  V30 1937 C 186.394 6.42374 -1.81415 0
M  V30 1938 H 185.664 0.714005 0.198187 0
M  V30 1939 H 188.311 1.9048 -0.197365 0
M  V30 1940 H 186.616 3.40835 1.93232 0
M  V30 1941 H 188.313 3.66189 1.63422 0
M  V30 1942 H 184.903 4.27272 0.337192 0
M  V30 1943 H 189.087 4.94896 -0.373092 0
M  V30 1944 H 184.343 5.96092 -1.35958 0
M  V30 1945 H 188.517 6.65039 -2.06629 0
M  V30 1946 H 186.144 7.15599 -2.56557 0
M  V30 1947 N 187.719 -0.156864 1.56817 0
M  V30 1948 C 188.649 -1.19589 2.00551 0
M  V30 1949 C 189.63 -1.4536 0.883426 0
M  V30 1950 O 190.815 -1.56449 1.15054 0
M  V30 1951 C 187.945 -2.53143 2.37773 0
M  V30 1952 C 186.899 -2.41913 3.53075 0
M  V30 1953 C 186.225 -3.80088 3.76081 0
M  V30 1954 C 187.525 -1.91157 4.86062 0
M  V30 1955 H 189.219 -0.832293 2.87599 0
M  V30 1956 H 186.765 -0.398918 1.38364 0
M  V30 1957 H 188.718 -3.26047 2.66967 0
M  V30 1958 H 187.442 -2.91319 1.4765 0
M  V30 1959 H 186.101 -1.71462 3.24031 0
M  V30 1960 H 185.749 -4.15683 2.83225 0
M  V30 1961 H 185.449 -3.73439 4.53671 0
M  V30 1962 H 186.973 -4.54556 4.0769 0
M  V30 1963 H 188.387 -2.53846 5.14038 0
M  V30 1964 H 186.784 -1.95422 5.67389 0
M  V30 1965 H 187.854 -0.866673 4.77092 0
M  V30 1966 N 189.197 -1.51736 -0.425897 0
M  V30 1967 C 190.608 -1.5732 -1.00536 0
M  V30 1968 C 190.959 -0.403537 -1.92005 0
M  V30 1969 O 190.084 0.478256 -2.11049 0
M  V30 1970 C 190.679 -2.85119 -1.8301 0
M  V30 1971 C 189.238 -2.93236 -2.35987 0
M  V30 1972 C 188.385 -2.52098 -1.15508 0
M  V30 1973 H 191.336 -1.57348 -0.206739 0
M  V30 1974 H 191.357 -2.69526 -2.68581 0
M  V30 1975 H 190.869 -3.7023 -1.16411 0
M  V30 1976 H 188.97 -2.12581 -3.06007 0
M  V30 1977 H 189.083 -3.9713 -2.68001 0
M  V30 1978 H 187.447 -2.05558 -1.50393 0
M  V30 1979 H 188.23 -3.39565 -0.505014 0
M  V30 1980 N 190.675 0.682077 -1.42076 0
M  V30 1981 C 191.623 1.81707 -1.45208 0
M  V30 1982 C 192.617 1.66183 -0.328591 0
M  V30 1983 O 193.823 1.7288 -0.501264 0
M  V30 1984 H 190.198 0.599014 -0.454628 0
M  V30 1985 H 192.169 1.76183 -2.40836 0
M  V30 1986 C 190.918 3.19816 -1.36428 0
M  V30 1987 H 190.241 3.32385 -2.22171 0
M  V30 1988 H 191.681 3.99272 -1.42681 0
M  V30 1989 C 190.14 3.36809 -0.078191 0
M  V30 1990 O 190.67 3.92124 0.87188 0
M  V30 1991 N 188.876 2.906 0.00229266 0
M  V30 1992 H 188.423 2.45772 -0.771616 0
M  V30 1993 H 188.381 3.02347 0.862179 0
M  V30 1994 N 192.153 1.28127 0.917671 0
M  V30 1995 C 193.43 1.05761 1.64542 0
M  V30 1996 C 193.81 -0.404344 2.07191 0
M  V30 1997 O 193.158 -1.38963 1.81388 0
M  V30 1998 C 193.368 2.02857 2.83989 0
M  V30 1999 C 194.716 2.32786 3.551 0
M  V30 2000 O 195.74 2.0091 2.94132 0
M  V30 2001 O 194.599 2.87169 4.64969 0
M  V30 2002 H 191.693 0.403916 0.721652 0
M  V30 2003 H 194.239 1.39431 0.967322 0
M  V30 2004 H 193.011 3.01407 2.49538 0
M  V30 2005 H 192.634 1.69809 3.59514 0
M  V30 2006 N 193.631 -1.12557 1.10312 0
M  V30 2007 C 194.594 -2.16434 0.75424 0
M  V30 2008 C 195.594 -1.59278 -0.220685 0
M  V30 2009 O 196.784 -1.742 0.00230591 0
M  V30 2010 C 193.916 -3.40699 0.116987 0
M  V30 2011 H 195.109 -2.48811 1.67431 0
M  V30 2012 H 192.662 -1.27542 0.903475 0
M  V30 2013 H 193.397 -3.13921 -0.813877 0
M  V30 2014 H 193.182 -3.83459 0.818613 0
M  V30 2015 H 194.672 -4.17451 -0.111387 0
M  V30 2016 N 195.109 -0.891671 -1.2995 0
M  V30 2017 C 196.019 -0.367691 -2.31701 0
M  V30 2018 C 197.035 0.533486 -1.6562 0
M  V30 2019 O 198.211 0.424997 -1.96865 0
M  V30 2020 C 195.276 0.403406 -3.44345 0
M  V30 2021 C 194.337 -0.528328 -4.26037 0
M  V30 2022 C 193.57 0.206063 -5.33302 0
M  V30 2023 O 193.793 1.43119 -5.52153 0
M  V30 2024 O 192.727 -0.447281 -6.00236 0
M  V30 2025 H 196.553 -1.21163 -2.78484 0
M  V30 2026 H 194.138 -0.655725 -1.34241 0
M  V30 2027 H 196.02 0.839753 -4.12948 0
M  V30 2028 H 194.695 1.22354 -2.99685 0
M  V30 2029 H 193.602 -1.01362 -3.60106 0
M  V30 2030 H 194.935 -1.31465 -4.74318 0
M  V30 2031 N 196.587 1.43421 -0.653314 0
M  V30 2032 C 197.497 2.34568 0.0388565 0
M  V30 2033 C 198.513 1.53888 0.81207 0
M  V30 2034 O 199.689 1.86539 0.759294 0
M  V30 2035 C 196.754 3.32167 0.993269 0
M  V30 2036 C 195.815 4.28751 0.216977 0
M  V30 2037 C 195.048 5.21688 1.12593 0
M  V30 2038 O 195.271 5.19052 2.36519 0
M  V30 2039 O 194.205 5.98919 0.598284 0
M  V30 2040 H 198.031 2.95251 -0.711386 0
M  V30 2041 H 195.616 1.43564 -0.413502 0
M  V30 2042 H 197.498 3.92183 1.54176 0
M  V30 2043 H 196.173 2.73987 1.72374 0
M  V30 2044 H 195.08 3.72215 -0.375101 0
M  V30 2045 H 196.413 4.89913 -0.473924 0
M  V30 2046 N 198.065 0.39524 1.52563 0
M  V30 2047 C 198.995 -0.428384 2.29537 0
M  V30 2048 C 199.976 -1.05831 1.33169 0
M  V30 2049 O 201.161 -1.06995 1.62067 0
M  V30 2050 C 198.291 -1.55274 3.10656 0
M  V30 2051 C 197.245 -1.04855 4.14957 0
M  V30 2052 C 196.571 -2.26543 4.84337 0
M  V30 2053 C 197.871 -0.112324 5.22179 0
M  V30 2054 H 199.565 0.213867 2.98635 0
M  V30 2055 H 197.111 0.104298 1.43622 0
M  V30 2056 H 199.064 -2.1358 3.63265 0
M  V30 2057 H 197.788 -2.22266 2.39302 0
M  V30 2058 H 196.447 -0.487985 3.63338 0
M  V30 2059 H 196.095 -2.92059 4.09525 0
M  V30 2060 H 195.795 -1.93466 5.54837 0
M  V30 2061 H 197.319 -2.85481 5.39753 0
M  V30 2062 H 198.733 -0.603752 5.70112 0
M  V30 2063 H 197.13 0.128968 5.99961 0
M  V30 2064 H 198.2 0.837052 4.77621 0
M  V30 2065 N 199.544 -1.57102 0.125237 0
M  V30 2066 C 200.791 -1.95407 -0.531248 0
M  V30 2067 C 201.119 -1.0089 -1.66287 0
M  V30 2068 O 200.374 -0.0339431 -1.95671 0
M  V30 2069 C 200.673 -3.40096 -1.09862 0
M  V30 2070 C 200.339 -4.50815 -0.0876989 0
M  V30 2071 C 199.001 -4.80824 0.19026 0
M  V30 2072 C 201.353 -5.17724 0.600902 0
M  V30 2073 C 198.681 -5.75058 1.163 0
M  V30 2074 C 201.033 -6.13005 1.56231 0
M  V30 2075 C 199.697 -6.41403 1.8482 0
M  V30 2076 H 198.967 -0.715046 -0.194397 0
M  V30 2077 H 201.614 -1.90373 0.207463 0
M  V30 2078 H 199.919 -3.41855 -1.91422 0
M  V30 2079 H 201.616 -3.6705 -1.61478 0
M  V30 2080 H 198.206 -4.27444 -0.314528 0
M  V30 2081 H 202.39 -4.94691 0.399333 0
M  V30 2082 H 197.646 -5.95362 1.39117 0
M  V30 2083 H 201.82 -6.63934 2.10153 0
M  V30 2084 H 199.447 -7.14229 2.60349 0
M  V30 2085 N 201.022 0.148545 -1.56898 0
M  V30 2086 C 202.271 0.85984 -1.82454 0
M  V30 2087 C 202.584 1.82406 -0.706229 0
M  V30 2088 O 203.79 2.57938 -0.847349 0
M  V30 2089 C 202.246 1.57967 -3.2338 0
M  V30 2090 C 201.854 0.65794 -4.43142 0
M  V30 2091 C 203.598 2.27784 -3.58211 0
M  V30 2092 C 201.505 1.3793 -5.75091 0
M  V30 2093 H 200.435 0.324834 -0.68044 0
M  V30 2094 H 203.086 0.112588 -1.83154 0
M  V30 2095 H 201.468 2.37249 -3.17063 0
M  V30 2096 H 202.642 -0.0995497 -4.60692 0
M  V30 2097 H 200.957 0.0682643 -4.16344 0
M  V30 2098 H 203.554 2.8239 -4.54048 0
M  V30 2099 H 203.897 3.04204 -2.84193 0
M  V30 2100 H 204.43 1.55421 -3.66182 0
M  V30 2101 H 201.169 0.656982 -6.52199 0
M  V30 2102 H 200.689 2.10954 -5.61479 0
M  V30 2103 H 202.368 1.92063 -6.17835 0
M  V30 2104 N 202.5 1.5196 0.417844 0
M  V30 2105 C 203.747 1.65591 1.16559 0
M  V30 2106 C 204.075 0.381565 1.90721 0
M  V30 2107 O 203.33 -0.635156 1.85106 0
M  V30 2108 C 203.629 2.82269 2.19223 0
M  V30 2109 C 203.295 4.20819 1.61933 0
M  V30 2110 C 201.957 4.58506 1.46033 0
M  V30 2111 C 204.309 5.07196 1.20008 0
M  V30 2112 C 201.637 5.80257 0.867113 0
M  V30 2113 C 203.989 6.29544 0.621086 0
M  V30 2114 C 202.653 6.65987 0.449144 0
M  V30 2115 H 201.923 0.605939 0.42652 0
M  V30 2116 H 204.57 1.86041 0.45397 0
M  V30 2117 H 202.875 2.56118 2.96498 0
M  V30 2118 H 204.572 2.90012 2.76936 0
M  V30 2119 H 201.162 3.91116 1.7529 0
M  V30 2120 H 205.346 4.7867 1.31105 0
M  V30 2121 H 200.602 6.07124 0.721833 0
M  V30 2122 H 204.776 6.95805 0.287798 0
M  V30 2123 H 202.403 7.60199 -0.012632 0
M  V30 2124 N 203.978 -0.674533 1.42435 0
M  V30 2125 C 204.908 -1.80009 1.48724 0
M  V30 2126 C 205.889 -1.6659 0.343793 0
M  V30 2127 O 207.074 -1.86007 0.558137 0
M  V30 2128 C 204.204 -3.18306 1.38919 0
M  V30 2129 C 203.158 -3.46461 2.51294 0
M  V30 2130 C 202.484 -4.84335 2.26547 0
M  V30 2131 C 203.784 -3.43328 3.93603 0
M  V30 2132 H 205.478 -1.75004 2.42928 0
M  V30 2133 H 203.024 -0.840533 1.16923 0
M  V30 2134 H 204.977 -3.9678 1.41927 0
M  V30 2135 H 203.701 -3.2399 0.412094 0
M  V30 2136 H 202.36 -2.70348 2.47604 0
M  V30 2137 H 202.008 -4.86669 1.2713 0
M  V30 2138 H 201.708 -5.04136 3.01861 0
M  V30 2139 H 203.232 -5.65094 2.31304 0
M  V30 2140 H 204.646 -4.11772 3.98894 0
M  V30 2141 H 203.043 -3.74664 4.68771 0
M  V30 2142 H 204.113 -2.41897 4.20255 0
M  V30 2143 N 205.456 -1.28612 -0.910864 0
M  V30 2144 C 206.684 -1.18792 -1.69399 0
M  V30 2145 C 207.099 0.253039 -1.87097 0
M  V30 2146 O 206.456 1.17071 -1.40003 0
M  V30 2147 C 206.507 -1.88511 -3.08457 0
M  V30 2148 O 206.228 -3.26979 -2.91576 0
M  V30 2149 C 207.729 -1.85029 -4.02839 0
M  V30 2150 H 204.949 -0.412233 -0.529438 0
M  V30 2151 H 207.493 -1.69788 -1.13984 0
M  V30 2152 H 205.648 -1.41379 -3.60681 0
M  V30 2153 H 206.062 -3.61936 -3.79608 0
M  V30 2154 H 207.536 -2.38395 -4.97867 0
M  V30 2155 H 208.013 -0.823303 -4.31414 0
M  V30 2156 H 208.619 -2.31853 -3.56545 0
M  V30 2157 N 206.934 1.1197 -1.10907 0
M  V30 2158 C 207.844 2.21433 -0.774896 0
M  V30 2159 C 208.86 1.72478 0.229657 0
M  V30 2160 O 210.036 2.01288 0.0672008 0
M  V30 2161 C 207.101 3.4602 -0.216986 0
M  V30 2162 C 206.162 4.09791 -1.27944 0
M  V30 2163 C 205.395 5.28431 -0.748055 0
M  V30 2164 O 205.618 5.68823 0.423833 0
M  V30 2165 O 204.552 5.82644 -1.51027 0
M  V30 2166 H 208.378 2.5242 -1.68873 0
M  V30 2167 H 205.963 1.20399 -0.884555 0
M  V30 2168 H 207.845 4.21304 0.090059 0
M  V30 2169 H 206.52 3.16698 0.669633 0
M  V30 2170 H 205.427 3.36265 -1.63941 0
M  V30 2171 H 206.76 4.4328 -2.13925 0
M  V30 2172 N 208.412 0.89855 1.29475 0
M  V30 2173 C 209.661 0.519863 1.94885 0
M  V30 2174 C 209.974 -0.9383 1.71625 0
M  V30 2175 O 211.18 -1.42445 2.31131 0
M  V30 2176 C 209.636 0.878836 3.49005 0
M  V30 2177 C 209.244 2.35569 3.81066 0
M  V30 2178 C 210.988 0.570004 4.20656 0
M  V30 2179 C 208.895 2.65558 5.28425 0
M  V30 2180 H 207.825 0.190692 0.729488 0
M  V30 2181 H 210.476 1.09539 1.47219 0
M  V30 2182 H 208.858 0.232253 3.95318 0
M  V30 2183 H 210.032 3.04773 3.45616 0
M  V30 2184 H 208.347 2.63343 3.22552 0
M  V30 2185 H 210.944 0.770925 5.29113 0
M  V30 2186 H 211.287 -0.491404 4.1339 0
M  V30 2187 H 211.82 1.17438 3.8007 0
M  V30 2188 H 208.559 3.70493 5.40754 0
M  V30 2189 H 208.079 2.00977 5.65127 0
M  V30 2190 H 209.758 2.51765 5.96006 0
M  V30 2191 N 209.89 -1.43072 0.660911 0
M  V30 2192 C 211.118 -2.06067 0.185422 0
M  V30 2193 C 211.533 -1.49582 -1.15198 0
M  V30 2194 O 210.89 -0.630134 -1.71276 0
M  V30 2195 C 210.941 -3.61371 0.0966523 0
M  V30 2196 O 210.662 -4.15758 1.38119 0
M  V30 2197 C 212.163 -4.41455 -0.403996 0
M  V30 2198 H 209.383 -0.664459 0.0934604 0
M  V30 2199 H 211.927 -1.83447 0.90373 0
M  V30 2200 H 210.082 -3.8315 -0.572259 0
M  V30 2201 H 210.496 -5.09499 1.24542 0
M  V30 2202 H 211.97 -5.50437 -0.415045 0
M  V30 2203 H 212.447 -4.15036 -1.43674 0
M  V30 2204 H 213.053 -4.24663 0.232691 0
M  V30 2205 N 211.368 -0.403325 -1.52352 0
M  V30 2206 C 212.278 0.432009 -2.30588 0
M  V30 2207 C 213.294 1.05884 -1.38075 0
M  V30 2208 O 214.47 1.06161 -1.71148 0
M  V30 2209 C 211.535 1.53669 -3.10784 0
M  V30 2210 C 210.596 0.933525 -4.19027 0
M  V30 2211 C 209.829 1.98557 -4.9539 0
M  V30 2212 O 210.052 3.20283 -4.71991 0
M  V30 2213 O 208.986 1.59504 -5.80381 0
M  V30 2214 H 212.812 -0.205739 -3.03002 0
M  V30 2215 H 210.397 -0.166675 -1.48467 0
M  V30 2216 H 212.279 2.17814 -3.60742 0
M  V30 2217 H 210.954 2.15915 -2.41169 0
M  V30 2218 H 209.861 0.254954 -3.7323 0
M  V30 2219 H 211.194 0.35508 -4.90918 0
M  V30 2220 N 212.846 1.57033 -0.133567 0
M  V30 2221 C 214.095 1.94861 0.520768 0
M  V30 2222 C 214.408 1.02012 1.66892 0
M  V30 2223 O 215.614 1.29365 2.38699 0
M  V30 2224 C 214.07 3.46362 0.977809 0
M  V30 2225 C 213.678 4.47773 -0.142674 0
M  V30 2226 C 215.422 3.93083 1.60269 0
M  V30 2227 C 213.329 5.90468 0.331883 0
M  V30 2228 H 212.259 0.727453 0.198315 0
M  V30 2229 H 214.91 1.82227 -0.215759 0
M  V30 2230 H 213.292 3.54282 1.7692 0
M  V30 2231 H 214.466 4.51536 -0.919317 0
M  V30 2232 H 212.781 4.10891 -0.675124 0
M  V30 2233 H 215.378 4.97121 1.96914 0
M  V30 2234 H 215.721 3.33876 2.48662 0
M  V30 2235 H 216.254 3.88025 0.876453 0
M  V30 2236 H 212.993 6.53463 -0.516341 0
M  V30 2237 H 212.513 5.90094 1.07469 0
M  V30 2238 H 214.192 6.42179 0.788332 0
M  V30 2239 N 214.325 -0.140222 1.56975 0
M  V30 2240 C 215.553 -0.866437 1.87884 0
M  V30 2241 C 215.968 -1.74428 0.722517 0
M  V30 2242 O 215.325 -1.79891 -0.30749 0
M  V30 2243 C 215.376 -1.71753 3.18093 0
M  V30 2244 O 215.097 -0.875056 4.29272 0
M  V30 2245 C 216.598 -2.55074 3.62563 0
M  V30 2246 H 213.818 -0.25019 0.622612 0
M  V30 2247 H 216.362 -0.130977 2.0408 0
M  V30 2248 H 214.517 -2.40598 3.03631 0
M  V30 2249 H 214.931 -1.46002 5.03769 0
M  V30 2250 H 216.405 -3.10356 4.5649 0
M  V30 2251 H 216.882 -3.31434 2.88181 0
M  V30 2252 H 217.488 -1.91509 3.79743 0
M  V30 2253 N 215.803 -1.52179 -0.40978 0
M  V30 2254 C 217.052 -1.65434 -1.15388 0
M  V30 2255 C 217.365 -0.390056 -1.91671 0
M  V30 2256 O 218.571 -0.402399 -2.68501 0
M  V30 2257 C 217.027 -2.92279 -2.10003 0
M  V30 2258 C 216.635 -4.25813 -1.39239 0
M  V30 2259 C 218.379 -3.14897 -2.84675 0
M  V30 2260 C 216.286 -5.43782 -2.32498 0
M  V30 2261 H 215.216 -0.616267 -0.434432 0
M  V30 2262 H 217.867 -1.78666 -0.418401 0
M  V30 2263 H 216.249 -2.72744 -2.871 0
M  V30 2264 H 217.423 -4.55828 -0.675099 0
M  V30 2265 H 215.738 -4.09292 -0.766097 0
M  V30 2266 H 218.335 -4.0021 -3.54593 0
M  V30 2267 H 218.678 -2.29103 -3.47588 0
M  V30 2268 H 219.211 -3.34901 -2.14677 0
M  V30 2269 H 215.95 -6.3192 -1.74233 0
M  V30 2270 H 215.47 -5.18106 -3.02201 0
M  V30 2271 H 217.149 -5.76834 -2.93038 0
M  V30 2272 N 217.281 0.66697 -1.42791 0
M  V30 2273 C 218.692 1.2478 -1.38877 0
M  V30 2274 C 219.043 1.96012 -0.0859426 0
M  V30 2275 O 218.168 2.00463 0.815081 0
M  V30 2276 C 218.763 2.26938 -2.51564 0
M  V30 2277 C 217.322 2.80529 -2.50959 0
M  V30 2278 C 216.469 1.54965 -2.29959 0
M  V30 2279 H 219.42 0.459853 -1.51892 0
M  V30 2280 H 219.441 3.08834 -2.22265 0
M  V30 2281 H 218.953 1.75065 -3.46372 0
M  V30 2282 H 217.054 3.36502 -1.59991 0
M  V30 2283 H 217.167 3.29012 -3.48265 0
M  V30 2284 H 215.531 1.81817 -1.78366 0
M  V30 2285 H 216.314 1.05047 -3.26833 0
M  V30 2286 N 218.759 1.29093 0.90403 0
M  V30 2287 C 219.999 1.18076 1.66845 0
M  V30 2288 C 220.363 -0.26436 1.90171 0
M  V30 2289 O 221.564 -0.497423 2.64157 0
M  V30 2290 C 219.835 1.96722 2.98388 0
M  V30 2291 S 221.394 2.0219 3.89441 0
M  V30 2292 H 218.212 0.421104 0.572881 0
M  V30 2293 H 220.814 1.63322 1.07453 0
M  V30 2294 H 219.518 3.00866 2.7912 0
M  V30 2295 H 219.049 1.52064 3.62823 0
M  V30 2296 H 221.064 1.13545 4.83034 0
M  V30 2297 N 220.237 -1.11381 1.11499 0
M  V30 2298 C 221.653 -1.35143 0.849031 0
M  V30 2299 C 221.853 -1.94515 -0.525938 0
M  V30 2300 O 220.909 -2.1785 -1.27662 0
M  V30 2301 C 222.222 -2.28249 1.95762 0
M  V30 2302 C 223.77 -2.41812 1.98736 0
M  V30 2303 C 224.245 -3.3824 3.088 0
M  V30 2304 N 225.736 -3.45803 3.08179 0
M  V30 2305 C 226.471 -4.20358 3.89982 0
M  V30 2306 N 225.967 -4.97884 4.8175 0
M  V30 2307 N 227.76 -4.15877 3.78157 0
M  V30 2308 H 219.911 -0.712062 2.00109 0
M  V30 2309 H 222.174 -0.376025 0.870235 0
M  V30 2310 H 221.88 -1.91817 2.94787 0
M  V30 2311 H 221.754 -3.28473 1.85433 0
M  V30 2312 H 224.141 -2.77518 1.00338 0
M  V30 2313 H 224.222 -1.41437 2.13141 0
M  V30 2314 H 223.866 -3.03261 4.07425 0
M  V30 2315 H 223.796 -4.38471 2.91635 0
M  V30 2316 H 226.287 -2.90506 2.41691 0
M  V30 2317 H 226.6 -5.52142 5.40702 0
M  V30 2318 H 224.945 -4.97043 4.85771 0
M  V30 2319 H 228.136 -3.544 3.05808 0
M  V30 2320 H 228.309 -4.73723 4.42143 0
M  V30 2321 N 221.715 -0.905404 -1.28997 0
M  V30 2322 C 222.961 -0.535039 -1.95615 0
M  V30 2323 C 223.294 0.917404 -1.71165 0
M  V30 2324 O 222.569 1.65123 -1.02785 0
M  V30 2325 C 222.852 -0.834918 -3.50287 0
M  V30 2326 C 222.705 -2.33948 -3.84172 0
M  V30 2327 C 224.024 -0.325318 -4.38896 0
M  V30 2328 H 221.143 -0.195861 -0.710498 0
M  V30 2329 H 223.785 -1.13313 -1.52513 0
M  V30 2330 H 221.935 -0.325904 -3.87131 0
M  V30 2331 H 223.607 -2.91847 -3.57243 0
M  V30 2332 H 221.85 -2.79789 -3.31513 0
M  V30 2333 H 222.521 -2.49987 -4.92149 0
M  V30 2334 H 224.997 -0.761256 -4.09077 0
M  V30 2335 H 223.873 -0.564295 -5.45992 0
M  V30 2336 H 224.134 0.774144 -4.35269 0
M  V30 2337 N 223.193 1.4272 -0.668489 0
M  V30 2338 C 224.421 2.05966 -0.196348 0
M  V30 2339 C 224.836 1.50191 1.14403 0
M  V30 2340 O 224.193 0.639208 1.7094 0
M  V30 2341 C 224.244 3.61314 -0.115815 0
M  V30 2342 O 223.965 4.1502 -1.40322 0
M  V30 2343 C 225.466 4.41663 0.380579 0
M  V30 2344 H 222.686 0.663954 -0.0969829 0
M  V30 2345 H 225.23 1.82966 -0.913446 0
M  V30 2346 H 223.385 3.83448 0.551931 0
M  V30 2347 H 223.799 5.08832 -1.27243 0
M  V30 2348 H 225.273 5.5065 0.385848 0
M  V30 2349 H 225.75 4.15792 1.41471 0
M  V30 2350 H 226.356 4.24534 -0.255209 0
M  V30 2351 N 224.671 0.411399 1.52136 0
M  V30 2352 C 225.948 -0.222308 1.94333 0
M  V30 2353 C 226.328 -1.6242 1.34844 0
M  V30 2354 O 225.676 -2.22384 0.525145 0
M  V30 2355 C 225.886 -0.226345 3.48265 0
M  V30 2356 C 227.234 -0.444592 4.22266 0
M  V30 2357 O 228.258 -0.305602 3.54887 0
M  V30 2358 O 227.117 -0.718749 5.41753 0
M  V30 2359 H 224.211 -0.143907 0.814383 0
M  V30 2360 H 226.757 0.467506 1.63133 0
M  V30 2361 H 225.529 0.75475 3.83952 0
M  V30 2362 H 225.152 -0.960163 3.85832 0
M  V30 2363 N 226.149 -1.5696 0.141893 0
M  V30 2364 C 227.56 -1.82797 -0.379776 0
M  V30 2365 C 227.911 -1.06033 -1.6508 0
M  V30 2366 O 227.036 -0.304011 -2.14254 0
M  V30 2367 C 227.631 -3.31578 -0.695802 0
M  V30 2368 C 226.19 -3.58014 -1.16201 0
M  V30 2369 C 225.337 -2.76699 -0.182455 0
M  V30 2370 H 228.288 -1.54406 0.366675 0
M  V30 2371 H 228.309 -3.47454 -1.55099 0
M  V30 2372 H 227.821 -3.87421 0.229449 0
M  V30 2373 H 225.922 -3.07553 -2.10338 0
M  V30 2374 H 226.035 -4.66501 -1.09151 0
M  V30 2375 H 224.399 -2.45618 -0.674072 0
M  V30 2376 H 225.182 -3.35311 0.736297 0
M  V30 2377 N 227.627 0.131896 -1.57047 0
M  V30 2378 C 228.559 1.1878 -1.9602 0
M  V30 2379 C 229.572 1.38363 -0.857875 0
M  V30 2380 O 230.761 1.37666 -1.13623 0
M  V30 2381 C 227.861 2.55008 -2.23213 0
M  V30 2382 C 227.034 2.56201 -3.54513 0
M  V30 2383 C 226.093 3.7408 -3.70069 0
M  V30 2384 O 225.119 3.58258 -4.42312 0
M  V30 2385 N 226.321 4.92137 -3.07866 0
M  V30 2386 H 229.086 0.85639 -2.87204 0
M  V30 2387 H 226.647 0.321309 -1.5868 0
M  V30 2388 H 228.639 3.32404 -2.30846 0
M  V30 2389 H 227.209 2.80382 -1.3822 0
M  V30 2390 H 226.429 1.64613 -3.58185 0
M  V30 2391 H 227.717 2.54043 -4.4084 0
M  V30 2392 H 227.115 5.07895 -2.49116 0
M  V30 2393 H 225.672 5.67254 -3.21039 0
M  V30 2394 N 229.106 1.52395 0.401703 0
M  V30 2395 C 230.036 1.79231 1.49661 0
M  V30 2396 C 231.017 0.643654 1.57452 0
M  V30 2397 O 232.202 0.889989 1.72606 0
M  V30 2398 C 229.332 1.94971 2.87409 0
M  V30 2399 C 228.286 3.10604 2.94465 0
M  V30 2400 C 227.612 3.11577 4.34538 0
M  V30 2401 C 228.912 4.49921 2.6527 0
M  V30 2402 H 230.606 2.70917 1.27454 0
M  V30 2403 H 228.152 1.30362 0.6117 0
M  V30 2404 H 230.105 2.12328 3.63999 0
M  V30 2405 H 228.829 0.999632 3.10926 0
M  V30 2406 H 227.488 2.93009 2.20321 0
M  V30 2407 H 227.136 2.14277 4.55076 0
M  V30 2408 H 226.836 3.89247 4.40183 0
M  V30 2409 H 228.36 3.31073 5.13053 0
M  V30 2410 H 229.774 4.67683 3.31581 0
M  V30 2411 H 228.171 5.29564 2.82281 0
M  V30 2412 H 229.241 4.57507 1.60671 0
M  V30 2413 N 230.584 -0.659388 1.43143 0
M  V30 2414 C 231.83 -1.42145 1.44647 0
M  V30 2415 C 232.163 -1.9408 0.0681907 0
M  V30 2416 O 231.438 -1.71899 -0.910007 0
M  V30 2417 C 231.721 -2.60735 2.48373 0
M  V30 2418 C 231.574 -2.14332 3.95451 0
M  V30 2419 C 232.893 -3.62951 2.48906 0
M  V30 2420 H 230.012 -0.51552 0.526696 0
M  V30 2421 H 232.654 -0.748069 1.74654 0
M  V30 2422 H 230.804 -3.18184 2.22916 0
M  V30 2423 H 232.476 -1.61932 4.31944 0
M  V30 2424 H 230.719 -1.4576 4.08578 0
M  V30 2425 H 231.39 -2.99583 4.63631 0
M  V30 2426 H 233.866 -3.1525 2.71582 0
M  V30 2427 H 232.742 -4.43487 3.23435 0
M  V30 2428 H 233.003 -4.15126 1.52061 0
M  V30 2429 N 232.062 -1.29571 -0.897171 0
M  V30 2430 C 233.308 -1.17863 -1.65034 0
M  V30 2431 C 233.641 0.268729 -1.92332 0
M  V30 2432 O 232.916 1.19378 -1.53555 0
M  V30 2433 C 233.199 -1.995 -2.99786 0
M  V30 2434 C 233.052 -3.5239 -2.79538 0
M  V30 2435 C 234.371 -1.82335 -4.00552 0
M  V30 2436 H 231.49 -0.429528 -0.598895 0
M  V30 2437 H 234.132 -1.59072 -1.03905 0
M  V30 2438 H 232.282 -1.64485 -3.51962 0
M  V30 2439 H 233.954 -3.97401 -2.34244 0
M  V30 2440 H 232.197 -3.77187 -2.14273 0
M  V30 2441 H 232.868 -4.04787 -3.75302 0
M  V30 2442 H 235.344 -2.12924 -3.57495 0
M  V30 2443 H 234.22 -2.41801 -4.92771 0
M  V30 2444 H 234.481 -0.779209 -4.35179 0
M  V30 2445 N 233.54 1.10788 -1.12088 0
M  V30 2446 C 234.768 1.86461 -0.896651 0
M  V30 2447 C 235.183 1.80492 0.553912 0
M  V30 2448 O 234.54 1.19102 1.38278 0
M  V30 2449 C 234.591 3.35006 -1.35843 0
M  V30 2450 O 234.312 3.40866 -2.75213 0
M  V30 2451 C 235.813 4.27565 -1.1706 0
M  V30 2452 H 233.033 0.589425 -0.320654 0
M  V30 2453 H 235.577 1.40076 -1.48993 0
M  V30 2454 H 233.732 3.7887 -0.808458 0
M  V30 2455 H 234.146 4.33411 -2.9539 0
M  V30 2456 H 235.62 5.30007 -1.54263 0
M  V30 2457 H 236.097 4.3906 -0.110814 0
M  V30 2458 H 236.703 3.89501 -1.70789 0
M  V30 2459 N 235.018 0.912232 1.28515 0
M  V30 2460 C 235.948 0.416403 2.29757 0
M  V30 2461 C 236.929 -0.515194 1.6211 0
M  V30 2462 O 238.114 -0.423253 1.89532 0
M  V30 2463 C 235.244 -0.34572 3.45575 0
M  V30 2464 C 234.198 0.496599 4.25109 0
M  V30 2465 C 233.524 -0.393771 5.33248 0
M  V30 2466 C 234.824 1.75307 4.92001 0
M  V30 2467 H 236.518 1.26249 2.7148 0
M  V30 2468 H 234.064 0.608515 1.30511 0
M  V30 2469 H 236.017 -0.703422 4.15488 0
M  V30 2470 H 234.741 -1.2257 3.02728 0
M  V30 2471 H 233.4 0.8368 3.56922 0
M  V30 2472 H 233.048 -1.27225 4.86644 0
M  V30 2473 H 232.748 0.166209 5.87365 0
M  V30 2474 H 234.272 -0.747389 6.06009 0
M  V30 2475 H 235.686 1.46437 5.54283 0
M  V30 2476 H 234.083 2.25534 5.56106 0
M  V30 2477 H 235.153 2.48176 4.16577 0
M  V30 2478 N 236.496 -1.42363 0.676048 0
M  V30 2479 C 237.446 -2.27987 -0.0242903 0
M  V30 2480 C 238.43 -1.41153 -0.772319 0
M  V30 2481 O 239.622 -1.64592 -0.651025 0
M  V30 2482 C 236.751 -3.29195 -0.973953 0
M  V30 2483 C 235.837 -4.23512 -0.223202 0
M  V30 2484 N 236.228 -4.99865 0.772589 0
M  V30 2485 C 234.526 -4.43606 -0.461469 0
M  V30 2486 C 235.227 -5.68757 1.22027 0
M  V30 2487 N 234.203 -5.40811 0.549975 0
M  V30 2488 H 238.005 -2.84445 0.73949 0
M  V30 2489 H 235.519 -1.54341 0.50522 0
M  V30 2490 H 237.516 -3.89339 -1.49067 0
M  V30 2491 H 236.176 -2.74298 -1.73755 0
M  V30 2492 H 237.187 -5.04921 1.15217 0
M  V30 2493 H 233.864 -3.99749 -1.20446 0
M  V30 2494 H 235.254 -6.40007 2.0455 0
M  V30 2495 N 237.974 -0.419461 -1.51915 0
M  V30 2496 C 238.884 0.407528 -2.31033 0
M  V30 2497 C 239.9 1.04413 -1.3919 0
M  V30 2498 O 241.076 1.0434 -1.72265 0
M  V30 2499 C 238.141 1.50365 -3.12396 0
M  V30 2500 C 237.202 0.889029 -4.19994 0
M  V30 2501 C 236.435 1.93291 -4.97468 0
M  V30 2502 O 236.658 3.15259 -4.75361 0
M  V30 2503 O 235.592 1.53339 -5.8204 0
M  V30 2504 H 239.418 -0.237865 -3.02767 0
M  V30 2505 H 237.003 -0.182413 -1.48282 0
M  V30 2506 H 238.885 2.13975 -3.63032 0
M  V30 2507 H 237.56 2.13345 -2.43445 0
M  V30 2508 H 236.467 0.215353 -3.7348 0
M  V30 2509 H 237.8 0.302991 -4.91267 0
M  V30 2510 N 239.452 1.56882 -0.150215 0
M  V30 2511 C 240.399 2.16922 0.788244 0
M  V30 2512 C 241.369 1.10303 1.24187 0
M  V30 2513 O 242.554 1.38359 1.31383 0
M  V30 2514 C 239.694 2.79754 2.02068 0
M  V30 2515 C 238.807 4.00775 1.61257 0
M  V30 2516 C 237.942 4.51595 2.79705 0
M  V30 2517 C 236.981 5.65074 2.35282 0
M  V30 2518 N 236.118 6.10499 3.4675 0
M  V30 2519 H 240.958 2.96779 0.269444 0
M  V30 2520 H 238.495 1.46599 0.12128 0
M  V30 2521 H 240.453 3.14329 2.74323 0
M  V30 2522 H 239.083 2.02536 2.51354 0
M  V30 2523 H 238.135 3.72158 0.787553 0
M  V30 2524 H 239.447 4.82978 1.24633 0
M  V30 2525 H 238.601 4.88242 3.60145 0
M  V30 2526 H 237.34 3.68406 3.19576 0
M  V30 2527 H 236.345 5.28 1.53283 0
M  V30 2528 H 237.57 6.50052 1.96493 0
M  V30 2529 H 235.516 5.30243 3.86236 0
M  V30 2530 H 235.433 6.87637 3.14152 0
M  V30 2531 H 236.701 6.51791 4.27537 0
M  V30 2532 N 240.93 -0.123565 1.57115 0
M  V30 2533 C 241.877 -1.15177 2.00007 0
M  V30 2534 C 242.847 -1.41403 0.871454 0
M  V30 2535 O 244.032 -1.53346 1.13533 0
M  V30 2536 C 241.172 -2.47436 2.40561 0
M  V30 2537 C 240.285 -2.28184 3.66819 0
M  V30 2538 C 239.42 -3.53641 3.96373 0
M  V30 2539 C 238.459 -3.29528 5.15827 0
M  V30 2540 N 237.596 -4.47175 5.41275 0
M  V30 2541 H 242.436 -0.779008 2.87638 0
M  V30 2542 H 239.973 -0.373166 1.42288 0
M  V30 2543 H 241.931 -3.24584 2.62109 0
M  V30 2544 H 240.561 -2.82614 1.55978 0
M  V30 2545 H 239.613 -1.41976 3.52912 0
M  V30 2546 H 240.925 -2.0634 4.5412 0
M  V30 2547 H 240.079 -4.39209 4.18545 0
M  V30 2548 H 238.818 -3.78512 3.07538 0
M  V30 2549 H 237.823 -2.42349 4.93505 0
M  V30 2550 H 239.048 -3.06031 6.06236 0
M  V30 2551 H 236.994 -4.72175 4.55397 0
M  V30 2552 H 236.911 -4.28419 6.22891 0
M  V30 2553 H 238.179 -5.3389 5.67963 0
M  V30 2554 N 242.408 -1.52605 -0.393616 0
M  V30 2555 C 243.656 -1.67093 -1.13685 0
M  V30 2556 C 243.977 -0.411011 -1.90619 0
M  V30 2557 O 243.247 0.574491 -1.87287 0
M  V30 2558 H 241.827 -0.615923 -0.422668 0
M  V30 2559 H 244.489 -1.89704 -0.447039 0
M  V30 2560 H 243.585 -2.51922 -1.84232 0
M  V30 2561 N 243.887 0.651787 -1.4349 0
M  V30 2562 C 245.164 1.40909 -1.35661 0
M  V30 2563 C 245.544 2.11099 -0.00511733 0
M  V30 2564 O 244.892 2.04892 1.0115 0
M  V30 2565 C 245.102 2.3926 -2.54078 0
M  V30 2566 C 246.45 3.03217 -2.97228 0
M  V30 2567 O 247.474 2.49588 -2.54135 0
M  V30 2568 O 246.333 4.00455 -3.71885 0
M  V30 2569 H 243.427 0.629625 -0.536191 0
M  V30 2570 H 245.973 0.678575 -1.55542 0
M  V30 2571 H 244.745 1.86352 -3.44076 0
M  V30 2572 H 244.368 3.1976 -2.36303 0
M  V30 2573 N 245.365 1.30045 0.890287 0
M  V30 2574 C 246.611 1.18737 1.64406 0
M  V30 2575 C 246.944 -0.258525 1.92472 0
M  V30 2576 O 246.219 -1.18562 1.54186 0
M  V30 2577 C 246.502 2.01087 2.98724 0
M  V30 2578 C 246.355 3.53867 2.77665 0
M  V30 2579 C 247.674 1.84457 3.9958 0
M  V30 2580 H 244.793 0.432698 0.596608 0
M  V30 2581 H 247.435 1.5962 1.0306 0
M  V30 2582 H 245.585 1.66349 3.51084 0
M  V30 2583 H 247.257 3.98637 2.32133 0
M  V30 2584 H 245.5 3.78318 2.12269 0
M  V30 2585 H 246.171 4.06772 3.7315 0
M  V30 2586 H 248.647 2.14817 3.56361 0
M  V30 2587 H 247.523 2.44411 4.91482 0
M  V30 2588 H 247.784 0.802276 4.3476 0
M  V30 2589 N 246.843 -1.10192 1.12674 0
M  V30 2590 C 247.806 -2.14786 0.799979 0
M  V30 2591 C 248.806 -1.59711 -0.18685 0
M  V30 2592 O 249.996 -1.74156 0.0392558 0
M  V30 2593 C 247.128 -3.40374 0.189228 0
M  V30 2594 H 248.321 -2.45203 1.72671 0
M  V30 2595 H 245.874 -1.25597 0.930326 0
M  V30 2596 H 246.609 -3.15577 -0.747107 0
M  V30 2597 H 246.394 -3.81637 0.899766 0
M  V30 2598 H 247.884 -4.17594 -0.0228143 0
M  V30 2599 N 248.321 -0.919034 -1.28029 0
M  V30 2600 C 249.251 -0.428581 -2.29533 0
M  V30 2601 C 250.232 0.50659 -1.62381 0
M  V30 2602 O 251.417 0.413195 -1.89753 0
M  V30 2603 C 248.547 0.327388 -3.45753 0
M  V30 2604 C 247.501 -0.519137 -4.2484 0
M  V30 2605 C 246.827 0.365486 -5.33449 0
M  V30 2606 C 248.127 -1.77914 -4.91064 0
M  V30 2607 H 249.821 -1.27687 -2.70807 0
M  V30 2608 H 247.367 -0.615428 -1.30186 0
M  V30 2609 H 249.32 0.681378 -4.15855 0
M  V30 2610 H 248.044 1.20963 -3.03374 0
M  V30 2611 H 246.703 -0.855717 -3.56473 0
M  V30 2612 H 246.351 1.24642 -4.87312 0
M  V30 2613 H 246.051 -0.197356 -5.87268 0
M  V30 2614 H 247.575 0.715241 -6.06396 0
M  V30 2615 H 248.989 -1.49374 -5.53498 0
M  V30 2616 H 247.386 -2.2848 -5.54903 0
M  V30 2617 H 248.456 -2.50382 -4.15255 0
M  V30 2618 N 249.799 1.42003 -0.683588 0
M  V30 2619 C 251.21 1.84501 -0.285736 0
M  V30 2620 C 251.561 1.57213 1.17382 0
M  V30 2621 O 250.686 1.03642 1.89966 0
M  V30 2622 C 251.281 3.34912 -0.511821 0
M  V30 2623 C 249.84 3.76025 -0.168005 0
M  V30 2624 C 248.987 2.6551 -0.799983 0
M  V30 2625 H 251.938 1.31724 -0.885119 0
M  V30 2626 H 251.959 3.79784 0.233292 0
M  V30 2627 H 251.471 3.54741 -1.57418 0
M  V30 2628 H 249.572 3.61801 0.890567 0
M  V30 2629 H 249.685 4.75141 -0.614661 0
M  V30 2630 H 248.049 2.53654 -0.230568 0
M  V30 2631 H 248.832 2.8816 -1.86597 0
M  V30 2632 N 251.277 0.427512 1.51691 0
M  V30 2633 C 252.523 -0.142439 2.02299 0
M  V30 2634 C 252.856 -1.43214 1.31162 0
M  V30 2635 O 252.131 -1.89833 0.423511 0
M  V30 2636 C 252.414 -0.371301 3.58181 0
M  V30 2637 C 252.267 0.936358 4.39946 0
M  V30 2638 C 253.586 -1.14542 4.24933 0
M  V30 2639 H 250.705 -0.0502937 0.735282 0
M  V30 2640 H 253.347 0.564584 1.81418 0
M  V30 2641 H 251.497 -0.973559 3.76104 0
M  V30 2642 H 253.169 1.57184 4.33694 0
M  V30 2643 H 251.412 1.5432 4.05423 0
M  V30 2644 H 252.083 0.730388 5.47147 0
M  V30 2645 H 254.559 -0.635362 4.11221 0
M  V30 2646 H 253.435 -1.27431 5.33903 0
M  V30 2647 H 253.696 -2.17093 3.85127 0
M  V30 2648 N 252.755 -1.56801 0.158532 0
M  V30 2649 C 254.166 -1.83189 -0.360366 0
M  V30 2650 C 254.517 -1.07778 -1.63946 0
M  V30 2651 O 253.642 -0.326718 -2.13919 0
M  V30 2652 C 254.237 -3.32297 -0.660595 0
M  V30 2653 C 252.796 -3.59227 -1.12398 0
M  V30 2654 C 251.943 -2.76877 -0.153097 0
M  V30 2655 H 254.894 -1.54008 0.383031 0
M  V30 2656 H 254.915 -3.4908 -1.51405 0
M  V30 2657 H 254.427 -3.87156 0.270527 0
M  V30 2658 H 252.528 -3.09766 -2.07064 0
M  V30 2659 H 252.641 -4.67632 -1.04197 0
M  V30 2660 H 251.005 -2.46319 -0.647983 0
M  V30 2661 H 251.788 -3.34511 0.77182 0
M  V30 2662 N 254.233 0.115231 -1.57178 0
M  V30 2663 C 255.463 0.835224 -1.88964 0
M  V30 2664 C 255.871 1.73774 -0.74829 0
M  V30 2665 O 255.214 1.81401 0.289739 0
M  V30 2666 C 255.276 1.7178 -3.15804 0
M  V30 2667 C 254.94 0.989198 -4.46166 0
M  V30 2668 C 255.937 0.328263 -5.18863 0
M  V30 2669 C 253.622 0.969256 -4.9286 0
M  V30 2670 C 255.616 -0.342873 -6.36477 0
M  V30 2671 C 253.303 0.294324 -6.10391 0
M  V30 2672 C 254.301 -0.360582 -6.82048 0
M  V30 2673 O 253.989 -1.02474 -7.97342 0
M  V30 2674 H 253.721 0.245197 -0.629964 0
M  V30 2675 H 256.275 0.10303 -2.05141 0
M  V30 2676 H 254.505 2.49173 -2.95719 0
M  V30 2677 H 256.194 2.31255 -3.33581 0
M  V30 2678 H 256.96 0.335263 -4.8384 0
M  V30 2679 H 252.839 1.46844 -4.36987 0
M  V30 2680 H 256.383 -0.854629 -6.92345 0
M  V30 2681 H 252.28 0.285099 -6.4487 0
M  V30 2682 H 253.048 -0.929594 -8.13204 0
M  V30 2683 N 255.711 1.52812 0.385517 0
M  V30 2684 C 256.988 1.5861 1.14465 0
M  V30 2685 C 257.368 0.381402 2.07626 0
M  V30 2686 O 256.716 -0.629999 2.19643 0
M  V30 2687 C 256.926 2.92664 1.90128 0
M  V30 2688 C 258.274 3.46526 2.45367 0
M  V30 2689 O 259.298 2.94562 2.0028 0
M  V30 2690 O 258.157 4.37323 3.27736 0
M  V30 2691 H 255.251 0.639855 0.523941 0
M  V30 2692 H 257.797 1.65149 0.390389 0
M  V30 2693 H 256.569 3.71788 1.22022 0
M  V30 2694 H 256.192 2.89527 2.72507 0
M  V30 2695 N 257.189 -0.644168 1.43834 0
M  V30 2696 C 258.139 -1.7501 1.46135 0
M  V30 2697 C 259.123 -1.57507 0.328685 0
M  V30 2698 O 260.315 -1.67465 0.5731 0
M  V30 2699 C 257.444 -3.13641 1.39585 0
M  V30 2700 C 256.53 -3.3666 2.57916 0
M  V30 2701 N 256.921 -3.30107 3.83227 0
M  V30 2702 C 255.219 -3.67411 2.52834 0
M  V30 2703 C 255.92 -3.53456 4.61999 0
M  V30 2704 N 254.896 -3.75705 3.9287 0
M  V30 2705 H 258.698 -1.68382 2.40883 0
M  V30 2706 H 256.212 -0.846169 1.38614 0
M  V30 2707 H 258.209 -3.92933 1.39317 0
M  V30 2708 H 256.869 -3.21444 0.45865 0
M  V30 2709 H 257.88 -3.09316 4.15384 0
M  V30 2710 H 254.557 -3.82275 1.67845 0
M  V30 2711 H 255.947 -3.54093 5.71024 0
M  V30 2712 N 258.668 -1.30515 -0.883378 0
M  V30 2713 C 259.6 -1.12846 -1.99496 0
M  V30 2714 C 260.613 -0.0712571 -1.62644 0
M  V30 2715 O 261.802 -0.317432 -1.75655 0
M  V30 2716 C 258.902 -0.699123 -3.3161 0
M  V30 2717 C 258.075 -1.83842 -3.96889 0
M  V30 2718 C 257.134 -1.39737 -5.07307 0
M  V30 2719 O 256.16 -2.10485 -5.28852 0
M  V30 2720 N 257.362 -0.277279 -5.79837 0
M  V30 2721 H 260.127 -2.08585 -2.15203 0
M  V30 2722 H 257.688 -1.22672 -1.05656 0
M  V30 2723 H 259.68 -0.387044 -4.02845 0
M  V30 2724 H 258.25 0.166276 -3.12157 0
M  V30 2725 H 257.47 -2.31853 -3.18807 0
M  V30 2726 H 258.758 -2.60187 -4.37241 0
M  V30 2727 H 258.156 0.3122 -5.64838 0
M  V30 2728 H 256.713 -0.0246623 -6.51795 0
M  V30 2729 N 260.146 1.09593 -1.13257 0
M  V30 2730 C 261.562 1.33775 -0.870423 0
M  V30 2731 C 261.762 1.95327 0.494926 0
M  V30 2732 O 260.818 2.19853 1.2418 0
M  V30 2733 C 262.131 2.25106 -1.99369 0
M  V30 2734 C 263.679 2.3862 -2.02558 0
M  V30 2735 C 264.154 3.33285 -3.14142 0
M  V30 2736 N 265.645 3.40857 -3.13641 0
M  V30 2737 C 266.38 4.14101 -3.96621 0
M  V30 2738 N 265.876 4.90157 -4.8961 0
M  V30 2739 N 267.669 4.09808 -3.84726 0
M  V30 2740 H 259.82 0.680136 -2.01216 0
M  V30 2741 H 262.083 0.362133 -0.876107 0
M  V30 2742 H 261.789 1.87103 -2.97801 0
M  V30 2743 H 261.663 3.25481 -1.90635 0
M  V30 2744 H 264.05 2.75887 -1.0474 0
M  V30 2745 H 264.131 1.38028 -2.15364 0
M  V30 2746 H 263.775 2.96741 -4.12198 0
M  V30 2747 H 263.705 4.33776 -2.98574 0
M  V30 2748 H 266.196 2.86624 -2.46282 0
M  V30 2749 H 266.509 5.4347 -5.49418 0
M  V30 2750 H 264.854 4.89251 -4.93617 0
M  V30 2751 H 268.045 3.4949 -3.11408 0
M  V30 2752 H 268.218 4.66629 -4.49623 0
M  V30 2753 N 261.624 0.925811 1.2754 0
M  V30 2754 C 262.872 0.564138 1.94067 0
M  V30 2755 C 263.193 -0.897188 1.73134 0
M  V30 2756 O 262.463 -1.63573 1.07799 0
M  V30 2757 H 261.043 0.205645 0.718136 0
M  V30 2758 H 263.705 1.1778 1.55287 0
M  V30 2759 H 262.801 0.76881 3.02483 0
M  V30 2760 N 263.102 -1.41638 0.69111 0
M  V30 2761 C 264.349 -2.01299 0.220193 0
M  V30 2762 C 264.677 -1.54715 -1.17871 0
M  V30 2763 O 263.932 -0.747193 -1.80874 0
M  V30 2764 C 264.231 -3.56714 0.221277 0
M  V30 2765 C 263.897 -4.22792 1.56709 0
M  V30 2766 C 262.559 -4.40557 1.93554 0
M  V30 2767 C 264.911 -4.59883 2.45268 0
M  V30 2768 C 262.239 -4.92688 3.18552 0
M  V30 2769 C 264.591 -5.13403 3.69595 0
M  V30 2770 C 263.255 -5.29379 4.06589 0
M  V30 2771 H 262.525 -0.736606 0.0805743 0
M  V30 2772 H 265.172 -1.69598 0.889319 0
M  V30 2773 H 263.477 -3.8818 -0.531391 0
M  V30 2774 H 265.174 -4.00678 -0.160547 0
M  V30 2775 H 261.764 -4.09336 1.2705 0
M  V30 2776 H 265.948 -4.45817 2.18084 0
M  V30 2777 H 261.204 -5.03242 3.47214 0
M  V30 2778 H 265.378 -5.41084 4.38407 0
M  V30 2779 H 263.005 -5.69537 5.03519 0
M  V30 2780 N 264.58 -0.43555 -1.51462 0
M  V30 2781 C 265.805 0.132627 -2.06976 0
M  V30 2782 C 266.23 1.35848 -1.30104 0
M  V30 2783 O 265.588 1.78112 -0.338493 0
M  V30 2784 C 265.636 0.43523 -3.57964 0
M  V30 2785 O 264.74 1.52198 -3.83288 0
M  V30 2786 H 264.081 0.00265 -0.663995 0
M  V30 2787 H 266.611 -0.616369 -1.95095 0
M  V30 2788 H 266.621 0.686206 -4.02188 0
M  V30 2789 H 265.296 -0.460739 -4.1334 0
M  V30 2790 H 263.873 1.2611 -3.50928 0
M  V30 2791 N 266.058 1.56714 -0.166846 0
M  V30 2792 C 267.306 1.96358 0.478305 0
M  V30 2793 C 267.627 1.0537 1.6408 0
M  V30 2794 O 266.897 0.119154 1.95537 0
M  V30 2795 H 265.477 0.725065 0.179692 0
M  V30 2796 H 268.139 1.93329 -0.246985 0
M  V30 2797 H 267.235 3.00547 0.841292 0
M  V30 2798 N 267.536 -0.106894 1.57237 0
M  V30 2799 C 268.785 -0.811163 1.8467 0
M  V30 2800 C 269.098 -1.80469 0.754342 0
M  V30 2801 O 270.304 -2.55601 0.915439 0
M  V30 2802 C 268.76 -1.49337 3.27454 0
M  V30 2803 C 268.368 -0.540217 4.44731 0
M  V30 2804 C 270.112 -2.18206 3.64124 0
M  V30 2805 C 268.019 -1.22634 5.78545 0
M  V30 2806 H 266.949 -0.306679 0.688813 0
M  V30 2807 H 269.6 -0.0639887 1.83388 0
M  V30 2808 H 267.982 -2.2876 3.23241 0
M  V30 2809 H 269.156 0.221659 4.60267 0
M  V30 2810 H 267.471 0.042146 4.16379 0
M  V30 2811 H 270.068 -2.70253 4.61376 0
M  V30 2812 H 270.411 -2.96562 2.92158 0
M  V30 2813 H 270.944 -1.45658 3.70174 0
M  V30 2814 H 267.683 -0.483832 6.53712 0
M  V30 2815 H 267.203 -1.95993 5.66874 0
M  V30 2816 H 268.882 -1.75615 6.2271 0
M  V30 2817 N 269.014 -1.53014 -0.377408 0
M  V30 2818 C 270.261 -1.68623 -1.12128 0
M  V30 2819 C 270.589 -0.431997 -1.89642 0
M  V30 2820 O 269.844 0.585855 -1.86725 0
M  V30 2821 C 270.143 -2.87982 -2.11663 0
M  V30 2822 C 269.809 -4.24964 -1.50719 0
M  V30 2823 C 268.471 -4.62217 -1.33825 0
M  V30 2824 C 270.823 -5.10199 -1.06519 0
M  V30 2825 C 268.151 -5.82352 -0.712963 0
M  V30 2826 C 270.503 -6.30969 -0.453955 0
M  V30 2827 C 269.167 -6.66944 -0.272411 0
M  V30 2828 H 268.437 -0.617034 -0.410305 0
M  V30 2829 H 271.084 -1.8718 -0.404484 0
M  V30 2830 H 269.389 -2.63889 -2.89603 0
M  V30 2831 H 271.086 -2.97253 -2.6915 0
M  V30 2832 H 267.676 -3.95626 -1.64858 0
M  V30 2833 H 271.86 -4.81978 -1.18368 0
M  V30 2834 H 267.116 -6.08824 -0.560611 0
M  V30 2835 H 271.29 -6.96324 -0.103217 0
M  V30 2836 H 268.917 -7.59898 0.214181 0
M  V30 2837 N 270.492 0.636531 -1.44174 0
M  V30 2838 C 271.402 1.77754 -1.53103 0
M  V30 2839 C 272.418 1.68928 -0.417034 0
M  V30 2840 O 273.594 1.89801 -0.6736 0
M  V30 2841 C 270.659 3.14115 -1.46741 0
M  V30 2842 C 269.72 3.34612 -2.68948 0
M  V30 2843 C 268.953 4.64467 -2.6288 0
M  V30 2844 O 269.176 5.44919 -1.68581 0
M  V30 2845 O 268.11 4.87049 -3.53648 0
M  V30 2846 H 271.936 1.73174 -2.49489 0
M  V30 2847 H 269.521 0.79709 -1.2636 0
M  V30 2848 H 271.403 3.95412 -1.45696 0
M  V30 2849 H 270.078 3.19249 -0.534975 0
M  V30 2850 H 268.985 2.53014 -2.75562 0
M  V30 2851 H 270.318 3.34336 -3.61221 0
M  V30 2852 N 271.97 1.30982 0.876444 0
M  V30 2853 C 273.247 1.10942 1.61094 0
M  V30 2854 C 273.627 -0.338223 2.08373 0
M  V30 2855 O 272.975 -1.33122 1.85717 0
M  V30 2856 C 273.185 2.11789 2.77392 0
M  V30 2857 C 274.533 2.43965 3.47514 0
M  V30 2858 O 275.557 2.10166 2.87591 0
M  V30 2859 O 274.416 3.01817 4.55597 0
M  V30 2860 H 271.51 0.42667 0.708436 0
M  V30 2861 H 274.056 1.42438 0.922474 0
M  V30 2862 H 272.828 3.09194 2.39823 0
M  V30 2863 H 272.451 1.81161 3.5393 0
M  V30 2864 N 273.449 -1.08991 1.13837 0
M  V30 2865 C 274.865 -1.33312 0.877506 0
M  V30 2866 C 275.065 -1.95587 -0.48456 0
M  V30 2867 O 274.121 -2.20509 -1.23013 0
M  V30 2868 C 275.434 -2.24045 2.0056 0
M  V30 2869 C 276.982 -2.37542 2.03821 0
M  V30 2870 C 277.457 -3.31614 3.15905 0
M  V30 2871 N 278.948 -3.39189 3.15445 0
M  V30 2872 C 279.683 -4.11992 3.98811 0
M  V30 2873 N 279.179 -4.87553 4.92203 0
M  V30 2874 N 280.972 -4.07762 3.86894 0
M  V30 2875 H 273.123 -0.669456 2.01574 0
M  V30 2876 H 275.386 -0.357482 0.878015 0
M  V30 2877 H 275.092 -1.85521 2.98789 0
M  V30 2878 H 274.966 -3.24466 1.92359 0
M  V30 2879 H 277.353 -2.75327 1.06202 0
M  V30 2880 H 277.434 -1.36884 2.16093 0
M  V30 2881 H 277.078 -2.94551 4.13766 0
M  V30 2882 H 277.008 -4.32186 3.0087 0
M  V30 2883 H 279.499 -2.85314 2.47799 0
M  V30 2884 H 279.812 -5.40549 5.52292 0
M  V30 2885 H 278.157 -4.86627 4.96205 0
M  V30 2886 H 281.348 -3.47833 3.13257 0
M  V30 2887 H 281.521 -4.64238 4.52092 0
M  V30 2888 N 274.927 -0.932562 -1.27047 0
M  V30 2889 C 276.152 -0.591474 -1.98787 0
M  V30 2890 C 276.577 0.824601 -1.69062 0
M  V30 2891 O 275.935 1.5541 -0.933677 0
M  V30 2892 C 275.983 -0.829808 -3.50922 0
M  V30 2893 O 275.087 0.102266 -4.12273 0
M  V30 2894 H 274.428 -0.227185 -0.623926 0
M  V30 2895 H 276.958 -1.25314 -1.61733 0
M  V30 2896 H 276.968 -0.747292 -4.01098 0
M  V30 2897 H 275.643 -1.86201 -3.7189 0
M  V30 2898 H 274.22 -0.0305761 -3.72887 0
M  V30 2899 N 276.405 1.4127 -0.698611 0
M  V30 2900 C 277.635 2.05205 -0.239644 0
M  V30 2901 C 278.043 1.52684 1.11733 0
M  V30 2902 O 277.386 0.671222 1.70998 0
M  V30 2903 C 277.448 3.59289 -0.123126 0
M  V30 2904 C 277.112 4.34619 -1.41263 0
M  V30 2905 C 278.109 4.63701 -2.35111 0
M  V30 2906 C 275.794 4.73837 -1.66684 0
M  V30 2907 C 277.788 5.30966 -3.52639 0
M  V30 2908 C 275.475 5.40837 -2.84498 0
M  V30 2909 C 276.473 5.69329 -3.77298 0
M  V30 2910 O 276.161 6.34949 -4.93047 0
M  V30 2911 H 275.893 0.66723 -0.108537 0
M  V30 2912 H 278.447 1.81974 -0.952602 0
M  V30 2913 H 276.677 3.81272 0.645628 0
M  V30 2914 H 278.366 4.04797 0.299056 0
M  V30 2915 H 279.132 4.33882 -2.16729 0
M  V30 2916 H 275.011 4.51039 -0.953135 0
M  V30 2917 H 278.555 5.53121 -4.25091 0
M  V30 2918 H 274.452 5.70075 -3.02795 0
M  V30 2919 H 275.22 6.53445 -4.92902 0
M  V30 2920 N 277.883 0.443576 1.51229 0
M  V30 2921 C 279.132 -0.122332 2.01329 0
M  V30 2922 C 279.445 -1.43237 1.33201 0
M  V30 2923 O 280.651 -2.0816 1.74304 0
M  V30 2924 C 279.107 -0.268551 3.58897 0
M  V30 2925 C 278.715 1.03142 4.35965 0
M  V30 2926 C 280.459 -0.787894 4.17124 0
M  V30 2927 C 278.366 0.850504 5.85252 0
M  V30 2928 H 277.296 -0.0494929 0.752374 0
M  V30 2929 H 279.947 0.574289 1.74282 0
M  V30 2930 H 278.329 -1.02832 3.82415 0
M  V30 2931 H 279.503 1.80001 4.24189 0
M  V30 2932 H 277.818 1.47977 3.89219 0
M  V30 2933 H 280.415 -0.939841 5.26375 0
M  V30 2934 H 280.758 -1.77201 3.76703 0
M  V30 2935 H 281.291 -0.0862669 3.97706 0
M  V30 2936 H 278.03 1.80718 6.30096 0
M  V30 2937 H 277.55 0.121825 5.99676 0
M  V30 2938 H 279.229 0.506163 6.45017 0
M  V30 2939 N 279.361 -1.56624 0.175154 0
M  V30 2940 C 280.601 -1.98894 -0.471221 0
M  V30 2941 C 280.965 -1.05889 -1.60161 0
M  V30 2942 O 282.166 -1.37315 -2.3108 0
M  V30 2943 C 280.437 -3.44865 -0.938241 0
M  V30 2944 S 281.996 -4.09164 -1.58526 0
M  V30 2945 H 278.814 -0.694686 -0.151434 0
M  V30 2946 H 281.416 -1.93577 0.27352 0
M  V30 2947 H 280.12 -4.10265 -0.10518 0
M  V30 2948 H 279.651 -3.53956 -1.71693 0
M  V30 2949 H 281.666 -4.04528 -2.87352 0
M  V30 2950 N 280.839 0.0985539 -1.57292 0
M  V30 2951 C 281.786 1.11981 -2.01814 0
M  V30 2952 C 282.756 1.39999 -0.89384 0
M  V30 2953 O 283.941 1.5152 -1.15958 0
M  V30 2954 C 281.081 2.43577 -2.44467 0
M  V30 2955 C 280.194 2.2232 -3.70402 0
M  V30 2956 C 279.329 3.4729 -4.01949 0
M  V30 2957 C 278.368 3.2128 -5.21005 0
M  V30 2958 N 277.505 4.38507 -5.48321 0
M  V30 2959 H 282.345 0.733149 -2.88841 0
M  V30 2960 H 279.882 0.350482 -1.42864 0
M  V30 2961 H 281.84 3.20373 -2.6724 0
M  V30 2962 H 280.47 2.80097 -1.60455 0
M  V30 2963 H 279.522 1.36343 -3.55126 0
M  V30 2964 H 280.834 1.99089 -4.57345 0
M  V30 2965 H 279.988 4.32495 -4.25479 0
M  V30 2966 H 278.727 3.73572 -3.13521 0
M  V30 2967 H 277.732 2.34468 -4.97298 0
M  V30 2968 H 278.957 2.96348 -6.11028 0
M  V30 2969 H 276.903 4.64871 -4.62851 0
M  V30 2970 H 276.82 4.18455 -6.29628 0
M  V30 2971 H 278.088 5.24787 -5.76385 0
M  V30 2972 N 282.317 1.53212 0.369288 0
M  V30 2973 C 283.545 1.73119 1.13303 0
M  V30 2974 C 283.96 0.458455 1.83149 0
M  V30 2975 O 283.317 -0.568403 1.73423 0
M  V30 2976 C 283.368 2.89413 2.16616 0
M  V30 2977 O 283.089 4.11761 1.49614 0
M  V30 2978 C 284.59 3.21161 3.05566 0
M  V30 2979 H 281.81 0.579107 0.338934 0
M  V30 2980 H 284.354 1.99942 0.429338 0
M  V30 2981 H 282.509 2.64994 2.82589 0
M  V30 2982 H 282.923 4.76858 2.18419 0
M  V30 2983 H 284.397 4.05949 3.74045 0
M  V30 2984 H 284.874 2.36369 3.70171 0
M  V30 2985 H 285.48 3.47492 2.45213 0
M  V30 2986 N 283.795 -0.628877 1.44509 0
M  V30 2987 C 285.023 -1.41554 1.50897 0
M  V30 2988 C 285.438 -1.8832 0.134564 0
M  V30 2989 O 284.795 -1.60969 -0.859965 0
M  V30 2990 C 284.846 -2.63435 2.47556 0
M  V30 2991 O 284.567 -2.18619 3.79654 0
M  V30 2992 C 286.068 -3.56537 2.63431 0
M  V30 2993 H 283.288 -0.434044 0.511709 0
M  V30 2994 H 285.832 -0.768895 1.89495 0
M  V30 2995 H 283.987 -3.24187 2.12089 0
M  V30 2996 H 284.401 -2.97652 4.31861 0
M  V30 2997 H 285.875 -4.38657 3.35088 0
M  V30 2998 H 286.352 -4.05493 1.68738 0
M  V30 2999 H 286.958 -3.01653 2.9981 0
M  V30 3000 N 285.273 -1.31445 -0.869486 0
M  V30 3001 C 286.522 -1.20517 -1.61736 0
M  V30 3002 C 286.835 0.235341 -1.94179 0
M  V30 3003 O 288.041 0.466312 -2.67465 0
M  V30 3004 C 286.497 -2.10982 -2.91573 0
M  V30 3005 C 286.105 -3.60032 -2.66611 0
M  V30 3006 C 287.849 -2.08856 -3.69567 0
M  V30 3007 C 285.756 -4.42503 -3.92358 0
M  V30 3008 H 284.686 -0.447493 -0.606849 0
M  V30 3009 H 287.337 -1.56303 -0.96133 0
M  V30 3010 H 285.719 -1.68095 -3.58553 0
M  V30 3011 H 286.893 -4.11167 -2.08035 0
M  V30 3012 H 285.208 -3.64139 -2.0197 0
M  V30 3013 H 287.805 -2.67716 -4.62852 0
M  V30 3014 H 288.148 -1.07582 -4.02159 0
M  V30 3015 H 288.681 -2.49945 -3.09471 0
M  V30 3016 H 285.42 -5.44533 -3.64916 0
M  V30 3017 H 284.94 -3.96125 -4.50383 0
M  V30 3018 H 286.619 -4.54741 -4.60238 0
M  V30 3019 N 286.751 1.08385 -1.14413 0
M  V30 3020 C 287.999 1.80419 -0.910679 0
M  V30 3021 C 288.32 1.86658 0.564243 0
M  V30 3022 O 287.59 1.35985 1.41014 0
M  V30 3023 H 286.17 0.668204 -0.333934 0
M  V30 3024 H 288.832 1.31037 -1.44275 0
M  V30 3025 H 287.928 2.83238 -1.31082 0
M  V30 3026 N 288.23 0.939286 1.26551 0
M  V30 3027 C 289.507 0.5038 1.89001 0
M  V30 3028 C 289.887 -1.01854 1.84903 0
M  V30 3029 O 289.235 -1.87773 1.30206 0
M  V30 3030 C 289.445 1.063 3.32417 0
M  V30 3031 C 290.793 1.13051 4.09273 0
M  V30 3032 O 291.817 1.01345 3.41479 0
M  V30 3033 O 290.676 1.31233 5.30509 0
M  V30 3034 H 287.77 0.163897 0.810597 0
M  V30 3035 H 290.316 1.03173 1.34735 0
M  V30 3036 H 289.088 2.10665 3.29752 0
M  V30 3037 H 288.711 0.517408 3.94219 0
M  V30 3038 N 289.708 -1.40897 0.706093 0
M  V30 3039 C 291.124 -1.55042 0.37869 0
M  V30 3040 C 291.324 -1.67944 -1.11342 0
M  V30 3041 O 290.38 -1.66372 -1.89938 0
M  V30 3042 C 291.693 -2.78398 1.13643 0
M  V30 3043 C 293.241 -2.92206 1.12181 0
M  V30 3044 C 293.716 -4.18463 1.86152 0
M  V30 3045 N 295.207 -4.25443 1.83173 0
M  V30 3046 C 295.942 -5.2202 2.37239 0
M  V30 3047 N 295.438 -6.24563 2.99821 0
M  V30 3048 N 297.231 -5.14033 2.27435 0
M  V30 3049 H 289.382 -1.30769 1.67372 0
M  V30 3050 H 291.645 -0.631653 0.706907 0
M  V30 3051 H 291.351 -2.7511 2.19106 0
M  V30 3052 H 291.225 -3.70228 0.721853 0
M  V30 3053 H 293.612 -2.95004 0.0754171 0
M  V30 3054 H 293.693 -2.01521 1.57554 0
M  V30 3055 H 293.337 -4.16427 2.90776 0
M  V30 3056 H 293.267 -5.08141 1.38206 0
M  V30 3057 H 295.758 -3.51976 1.37556 0
M  V30 3058 H 296.071 -6.94665 3.38616 0
M  V30 3059 H 294.416 -6.25035 3.03902 0
M  V30 3060 H 297.607 -4.3285 1.78208 0
M  V30 3061 H 297.78 -5.89129 2.69873 0
M  V30 3062 N 291.186 -0.45159 -1.50991 0
M  V30 3063 C 292.096 0.358431 -2.31846 0
M  V30 3064 C 293.112 1.01438 -1.41373 0
M  V30 3065 O 294.288 1.00663 -1.74439 0
M  V30 3066 C 291.353 1.43704 -3.15515 0
M  V30 3067 C 290.414 0.799742 -4.21785 0
M  V30 3068 C 289.647 1.82696 -5.01456 0
M  V30 3069 O 289.87 3.05105 -4.81941 0
M  V30 3070 O 288.804 1.40958 -5.85162 0
M  V30 3071 H 292.63 -0.302032 -3.02194 0
M  V30 3072 H 290.215 -0.213825 -1.47862 0
M  V30 3073 H 292.097 2.06227 -3.67489 0
M  V30 3074 H 290.772 2.08133 -2.47916 0
M  V30 3075 H 289.679 0.136084 -3.73852 0
M  V30 3076 H 291.012 0.198718 -4.91799 0
M  V30 3077 N 292.664 1.56529 -0.183458 0
M  V30 3078 C 293.91 1.97537 0.459036 0
M  V30 3079 C 294.243 1.06989 1.62071 0
M  V30 3080 O 293.518 0.11948 1.94133 0
M  V30 3081 C 293.801 3.47874 0.930368 0
M  V30 3082 C 293.654 4.492 -0.232317 0
M  V30 3083 C 294.973 4.01612 1.79989 0
M  V30 3084 H 292.092 0.718204 0.165383 0
M  V30 3085 H 294.734 1.88042 -0.272038 0
M  V30 3086 H 292.884 3.56095 1.55333 0
M  V30 3087 H 294.556 4.53027 -0.86972 0
M  V30 3088 H 292.799 4.24657 -0.885928 0
M  V30 3089 H 293.47 5.51823 0.139796 0
M  V30 3090 H 295.946 3.96097 1.27461 0
M  V30 3091 H 294.822 5.07195 2.09867 0
M  V30 3092 H 295.083 3.46163 2.74998 0
M  V30 3093 N 294.142 -0.090211 1.57342 0
M  V30 3094 C 295.419 -0.824761 1.77361 0
M  V30 3095 C 295.799 -1.96698 0.76637 0
M  V30 3096 O 295.147 -2.27586 -0.204179 0
M  V30 3097 C 295.357 -1.31481 3.23286 0
M  V30 3098 C 296.705 -1.75563 3.86604 0
M  V30 3099 O 297.729 -1.41093 3.27065 0
M  V30 3100 O 296.588 -2.39317 4.91314 0
M  V30 3101 H 293.682 -0.393776 0.727234 0
M  V30 3102 H 296.228 -0.0717138 1.69548 0
M  V30 3103 H 295 -0.496671 3.88135 0
M  V30 3104 H 294.623 -2.12973 3.35751 0
M  V30 3105 N 295.62 -1.53406 -0.361157 0
M  V30 3106 C 296.845 -1.74024 -1.12829 0
M  V30 3107 C 297.27 -0.470069 -1.82132 0
M  V30 3108 O 296.628 0.57619 -1.719 0
M  V30 3109 C 296.676 -2.90903 -2.13091 0
M  V30 3110 O 295.78 -2.59821 -3.20261 0
M  V30 3111 H 295.121 -0.577804 -0.327168 0
M  V30 3112 H 297.651 -2.00307 -0.41693 0
M  V30 3113 H 297.661 -3.17194 -2.56616 0
M  V30 3114 H 296.336 -3.83034 -1.62042 0
M  V30 3115 H 294.913 -2.44362 -2.81677 0
M  V30 3116 N 297.098 0.621204 -1.44841 0
M  V30 3117 C 298.375 1.38 -1.38619 0
M  V30 3118 C 298.755 2.11041 -0.0498935 0
M  V30 3119 O 298.103 2.06992 0.967816 0
M  V30 3120 C 298.313 2.33817 -2.59096 0
M  V30 3121 C 299.661 2.96844 -3.03593 0
M  V30 3122 O 300.685 2.44141 -2.59371 0
M  V30 3123 O 299.544 3.92476 -3.80296 0
M  V30 3124 H 296.638 0.61811 -0.549426 0
M  V30 3125 H 299.184 0.645429 -1.56947 0
M  V30 3126 H 297.956 1.79012 -3.47952 0
M  V30 3127 H 297.579 3.14676 -2.43032 0
M  V30 3128 N 298.576 1.31904 0.862503 0
M  V30 3129 C 299.539 1.20131 1.95195 0
M  V30 3130 C 300.539 0.126409 1.60302 0
M  V30 3131 O 301.729 0.376234 1.70089 0
M  V30 3132 C 298.861 0.845691 3.30244 0
M  V30 3133 H 300.054 2.16943 2.07064 0
M  V30 3134 H 297.607 1.15622 1.05172 0
M  V30 3135 H 298.342 -0.120957 3.24074 0
M  V30 3136 H 298.127 1.62276 3.56944 0
M  V30 3137 H 299.617 0.787418 4.10109 0
M  V30 3138 N 300.054 -1.07777 1.14986 0
M  V30 3139 C 301.284 -1.83752 0.944402 0
M  V30 3140 C 301.692 -1.8218 -0.51058 0
M  V30 3141 O 301.035 -1.22852 -1.36576 0
M  V30 3142 C 301.097 -3.32128 1.37592 0
M  V30 3143 C 300.761 -3.57425 2.84775 0
M  V30 3144 C 301.758 -3.5173 3.8286 0
M  V30 3145 C 299.443 -3.8523 3.2234 0
M  V30 3146 C 301.437 -3.73482 5.16517 0
M  V30 3147 C 299.124 -4.06634 4.56171 0
M  V30 3148 C 300.122 -4.00754 5.53069 0
M  V30 3149 O 299.81 -4.2159 6.84483 0
M  V30 3150 H 299.542 -0.58673 0.335744 0
M  V30 3151 H 302.096 -1.36982 1.53052 0
M  V30 3152 H 300.326 -3.79686 0.733165 0
M  V30 3153 H 302.015 -3.89555 1.14024 0
M  V30 3154 H 302.781 -3.30256 3.55184 0
M  V30 3155 H 298.66 -3.88923 2.47508 0
M  V30 3156 H 302.204 -3.68808 5.92137 0
M  V30 3157 H 298.101 -4.27593 4.83564 0
M  V30 3158 H 298.869 -4.38961 6.90837 0
M  V30 3159 N 301.532 -0.945985 -1.26051 0
M  V30 3160 C 302.762 -0.612136 -1.97323 0
M  V30 3161 C 303.17 0.818171 -1.70595 0
M  V30 3162 O 302.513 1.55777 -0.973613 0
M  V30 3163 C 302.575 -0.780347 -3.50929 0
M  V30 3164 C 302.239 -2.18619 -4.01317 0
M  V30 3165 C 303.236 -3.16209 -4.12683 0
M  V30 3166 C 300.921 -2.50805 -4.35203 0
M  V30 3167 C 302.915 -4.44085 -4.57238 0
M  V30 3168 C 300.602 -3.78912 -4.79446 0
M  V30 3169 C 301.6 -4.75365 -4.90425 0
M  V30 3170 O 301.288 -6.01191 -5.3369 0
M  V30 3171 H 301.02 -0.229134 -0.635982 0
M  V30 3172 H 303.574 -1.27036 -1.61404 0
M  V30 3173 H 301.804 -0.0649864 -3.86645 0
M  V30 3174 H 303.493 -0.448842 -4.03411 0
M  V30 3175 H 304.259 -2.92668 -3.86744 0
M  V30 3176 H 300.138 -1.76463 -4.2589 0
M  V30 3177 H 303.682 -5.19373 -4.65723 0
M  V30 3178 H 299.579 -4.02265 -5.0483 0
M  V30 3179 H 300.347 -6.04442 -5.51899 0
M  V30 3180 N 303.011 1.40521 -0.713556 0
M  V30 3181 C 304.257 2.01221 -0.252564 0
M  V30 3182 C 304.59 1.56444 1.1506 0
M  V30 3183 O 303.865 0.783597 1.78017 0
M  V30 3184 C 304.148 3.58582 -0.330332 0
M  V30 3185 C 304.001 4.13437 -1.77173 0
M  V30 3186 C 305.32 4.39079 0.299641 0
M  V30 3187 H 302.439 0.731077 -0.0932471 0
M  V30 3188 H 305.081 1.67026 -0.905673 0
M  V30 3189 H 303.231 3.87844 0.225737 0
M  V30 3190 H 304.903 3.9498 -2.38303 0
M  V30 3191 H 303.146 3.67801 -2.3001 0
M  V30 3192 H 303.817 5.22597 -1.77755 0
M  V30 3193 H 306.293 4.15735 -0.174139 0
M  V30 3194 H 305.169 5.4848 0.214771 0
M  V30 3195 H 305.43 4.19915 1.38288 0
M  V30 3196 N 304.489 0.459591 1.5075 0
M  V30 3197 C 305.719 -0.0972338 2.06371 0
M  V30 3198 C 306.127 -1.35074 1.32483 0
M  V30 3199 O 305.47 -1.79637 0.384226 0
M  V30 3200 C 305.532 -0.462759 3.56509 0
M  V30 3201 C 305.196 0.687084 4.51805 0
M  V30 3202 C 306.193 1.56578 4.95761 0
M  V30 3203 C 303.878 0.874144 4.94635 0
M  V30 3204 C 305.872 2.61604 5.81242 0
M  V30 3205 C 303.559 1.92765 5.79901 0
M  V30 3206 C 304.557 2.79697 6.23104 0
M  V30 3207 O 304.245 3.83235 7.06673 0
M  V30 3208 H 303.977 -0.00140687 0.675999 0
M  V30 3209 H 306.531 0.644011 1.95043 0
M  V30 3210 H 304.761 -1.25703 3.65699 0
M  V30 3211 H 306.45 -0.953323 3.94546 0
M  V30 3212 H 307.216 1.4329 4.6335 0
M  V30 3213 H 303.095 0.207006 4.60535 0
M  V30 3214 H 306.639 3.29489 6.14884 0
M  V30 3215 H 302.536 2.06064 6.11725 0
M  V30 3216 H 303.304 3.80084 7.24899 0
M  V30 3217 N 305.967 -1.56429 0.191757 0
M  V30 3218 C 307.383 -1.58754 -0.164137 0
M  V30 3219 C 307.583 -1.20782 -1.61288 0
M  V30 3220 O 306.639 -0.928999 -2.34789 0
M  V30 3221 C 307.952 -3.00396 0.135195 0
M  V30 3222 C 309.5 -3.1291 0.0750351 0
M  V30 3223 C 309.975 -4.56679 0.347632 0
M  V30 3224 N 311.466 -4.62252 0.296131 0
M  V30 3225 C 312.201 -5.71379 0.480948 0
M  V30 3226 N 311.697 -6.88986 0.725933 0
M  V30 3227 N 313.49 -5.60563 0.415435 0
M  V30 3228 H 305.641 -1.79393 1.13718 0
M  V30 3229 H 307.904 -0.832414 0.453643 0
M  V30 3230 H 307.61 -3.32726 1.13958 0
M  V30 3231 H 307.484 -3.72963 -0.563773 0
M  V30 3232 H 309.871 -2.80394 -0.919948 0
M  V30 3233 H 309.952 -2.42736 0.807029 0
M  V30 3234 H 309.596 -4.89907 1.33992 0
M  V30 3235 H 309.526 -5.25039 -0.405212 0
M  V30 3236 H 312.017 -3.7773 0.113259 0
M  V30 3237 H 312.33 -7.68046 0.855857 0
M  V30 3238 H 310.675 -6.90801 0.762788 0
M  V30 3239 H 313.866 -4.67561 0.224486 0
M  V30 3240 H 314.039 -6.45551 0.562889 0
M  V30 3241 N 307.445 0.0818655 -1.57387 0
M  V30 3242 C 308.375 1.09885 -2.06028 0
M  V30 3243 C 309.356 1.4098 -0.951774 0
M  V30 3244 O 310.541 1.50781 -1.22387 0
M  V30 3245 C 307.671 2.4151 -2.4958 0
M  V30 3246 C 306.625 2.24792 -3.64215 0
M  V30 3247 C 305.951 3.61712 -3.93787 0
M  V30 3248 C 307.251 1.67749 -4.94629 0
M  V30 3249 H 308.945 0.694128 -2.91243 0
M  V30 3250 H 306.491 0.332448 -1.4011 0
M  V30 3251 H 308.444 3.12939 -2.82219 0
M  V30 3252 H 307.168 2.83943 -1.61381 0
M  V30 3253 H 305.827 1.55807 -3.31843 0
M  V30 3254 H 305.475 4.01697 -3.02735 0
M  V30 3255 H 305.175 3.51368 -4.70971 0
M  V30 3256 H 306.699 4.34587 -4.28913 0
M  V30 3257 H 308.113 2.29032 -5.25564 0
M  V30 3258 H 306.51 1.68128 -5.76067 0
M  V30 3259 H 307.58 0.638059 -4.80684 0
M  V30 3260 N 308.923 1.53595 0.353017 0
M  V30 3261 C 309.855 1.77219 1.45348 0
M  V30 3262 C 310.868 0.65324 1.49119 0
M  V30 3263 O 312.057 0.929775 1.52373 0
M  V30 3264 C 309.157 1.84841 2.84055 0
M  V30 3265 C 308.33 3.14649 3.03833 0
M  V30 3266 C 307.389 3.13351 4.22727 0
M  V30 3267 O 306.415 3.87107 4.17297 0
M  V30 3268 N 307.617 2.35052 5.30783 0
M  V30 3269 H 310.382 2.72178 1.25457 0
M  V30 3270 H 307.943 1.52528 0.542833 0
M  V30 3271 H 309.935 1.81435 3.61751 0
M  V30 3272 H 308.505 0.971114 2.97133 0
M  V30 3273 H 307.725 3.31256 2.13689 0
M  V30 3274 H 309.013 4.00411 3.13925 0
M  V30 3275 H 308.411 1.74663 5.38061 0
M  V30 3276 H 306.968 2.37453 6.07009 0
M  V30 3277 N 310.401 -0.613514 1.45168 0
M  V30 3278 C 311.647 -1.37471 1.49096 0
M  V30 3279 C 311.98 -1.93765 0.129901 0
M  V30 3280 O 311.255 -1.74707 -0.854858 0
M  V30 3281 C 311.538 -2.52701 2.56542 0
M  V30 3282 C 311.391 -2.01643 4.0207 0
M  V30 3283 C 312.71 -3.54849 2.60327 0
M  V30 3284 H 309.829 -0.498502 0.54283 0
M  V30 3285 H 312.471 -0.692125 1.76945 0
M  V30 3286 H 310.621 -3.10931 2.32926 0
M  V30 3287 H 312.293 -1.48108 4.36877 0
M  V30 3288 H 310.536 -1.32688 4.13009 0
M  V30 3289 H 311.207 -2.84681 4.72928 0
M  V30 3290 H 313.683 -3.0645 2.81474 0
M  V30 3291 H 312.559 -4.32973 3.37381 0
M  V30 3292 H 312.82 -4.10079 1.6519 0
M  V30 3293 N 311.879 -1.3236 -0.855495 0
M  V30 3294 C 313.104 -1.2601 -1.64731 0
M  V30 3295 C 313.529 0.169068 -1.87339 0
M  V30 3296 O 312.887 1.12016 -1.42556 0
M  V30 3297 C 312.935 -2.02417 -2.98429 0
M  V30 3298 O 312.039 -1.3714 -3.8893 0
M  V30 3299 H 311.38 -0.434325 -0.502253 0
M  V30 3300 H 313.91 -1.74661 -1.06558 0
M  V30 3301 H 313.92 -2.12559 -3.48257 0
M  V30 3302 H 312.595 -3.06343 -2.81295 0
M  V30 3303 H 311.172 -1.3554 -3.47395 0
M  V30 3304 N 313.357 1.07166 -1.15556 0
M  V30 3305 C 314.582 1.84053 -0.955988 0
M  V30 3306 C 315.007 1.81586 0.490739 0
M  V30 3307 O 314.365 1.21018 1.34997 0
M  V30 3308 C 314.413 3.28957 -1.47714 0
M  V30 3309 O 313.517 4.06795 -0.677593 0
M  V30 3310 H 312.858 0.569842 -0.340847 0
M  V30 3311 H 315.388 1.35178 -1.53584 0
M  V30 3312 H 315.398 3.79788 -1.4908 0
M  V30 3313 H 314.073 3.30068 -2.53037 0
M  V30 3314 H 312.65 3.6561 -0.733721 0
M  V30 3315 N 314.835 0.952656 1.25548 0
M  V30 3316 C 316.084 0.602053 1.92505 0
M  V30 3317 C 316.397 -0.864663 1.75451 0
M  V30 3318 O 317.603 -1.32514 2.36965 0
M  V30 3319 C 316.059 1.02607 3.44963 0
M  V30 3320 C 315.667 2.51519 3.70732 0
M  V30 3321 C 317.411 0.747905 4.1786 0
M  V30 3322 C 315.318 2.87732 5.16686 0
M  V30 3323 H 314.248 0.22146 0.720744 0
M  V30 3324 H 316.899 1.15684 1.42441 0
M  V30 3325 H 315.281 0.399712 3.93978 0
M  V30 3326 H 316.455 3.19157 3.32378 0
M  V30 3327 H 314.77 2.76786 3.11092 0
M  V30 3328 H 317.367 0.994647 5.25367 0
M  V30 3329 H 317.71 -0.315629 4.15102 0
M  V30 3330 H 318.243 1.33452 3.74747 0
M  V30 3331 H 314.982 3.93095 5.24554 0
M  V30 3332 H 314.502 2.24765 5.56094 0
M  V30 3333 H 316.181 2.76817 5.84792 0
M  V30 3334 N 316.313 -1.40141 0.720998 0
M  V30 3335 C 317.261 -2.3252 0.0608547 0
M  V30 3336 C 318.255 -1.52326 -0.741152 0
M  V30 3337 O 319.461 -1.68089 -0.643911 0
M  V30 3338 H 315.836 -0.751999 0.000876664 0
M  V30 3339 H 317.807 -2.8584 0.856614 0
M  V30 3340 C 316.556 -3.37331 -0.842809 0
M  V30 3341 H 315.879 -3.99108 -0.235084 0
M  V30 3342 H 317.319 -4.04452 -1.27257 0
M  V30 3343 C 315.778 -2.73246 -1.97074 0
M  V30 3344 O 316.308 -2.59998 -3.06209 0
M  V30 3345 N 314.514 -2.31547 -1.75597 0
M  V30 3346 H 314.061 -2.42522 -0.868368 0
M  V30 3347 H 314.019 -1.89007 -2.51244 0
M  V30 3348 N 317.792 -0.46758 -1.50504 0
M  V30 3349 C 319.038 0.0887532 -2.02606 0
M  V30 3350 C 319.371 1.39686 -1.34913 0
M  V30 3351 O 318.646 1.88644 -0.473694 0
M  V30 3352 C 318.929 0.276206 -3.59039 0
M  V30 3353 C 318.782 -1.05267 -4.37309 0
M  V30 3354 C 320.101 1.03235 -4.27821 0
M  V30 3355 H 317.22 0.0307814 -0.736357 0
M  V30 3356 H 319.862 -0.612485 -1.79857 0
M  V30 3357 H 318.012 0.8735 -3.78553 0
M  V30 3358 H 319.684 -1.68628 -4.29374 0
M  V30 3359 H 317.927 -1.65015 -4.01189 0
M  V30 3360 H 318.598 -0.875197 -5.45018 0
M  V30 3361 H 321.074 0.526111 -4.12761 0
M  V30 3362 H 319.95 1.1323 -5.37094 0
M  V30 3363 H 320.211 2.06806 -3.90748 0
M  V30 3364 N 319.27 1.56325 -0.20005 0
M  V30 3365 C 320.495 2.02548 0.44597 0
M  V30 3366 C 320.92 1.07922 1.5406 0
M  V30 3367 O 320.278 0.0635775 1.81188 0
M  V30 3368 C 320.326 3.47175 0.974761 0
M  V30 3369 O 319.43 3.55671 2.08739 0
M  V30 3370 H 318.771 0.655862 0.103638 0
M  V30 3371 H 321.301 2.02201 -0.312381 0
M  V30 3372 H 321.311 3.87067 1.2901 0
M  V30 3373 H 319.986 4.15538 0.17347 0
M  V30 3374 H 318.563 3.27657 1.78032 0
M  V30 3375 N 320.748 -0.0735177 1.57428 0
M  V30 3376 C 321.994 -0.774145 1.87443 0
M  V30 3377 C 322.327 -1.77311 0.792103 0
M  V30 3378 O 321.602 -1.93492 -0.197793 0
M  V30 3379 C 321.885 -1.48367 3.28115 0
M  V30 3380 C 321.738 -0.501227 4.46999 0
M  V30 3381 C 323.057 -2.429 3.66998 0
M  V30 3382 H 320.176 -0.279971 0.681752 0
M  V30 3383 H 322.818 -0.0373616 1.89963 0
M  V30 3384 H 320.968 -2.11171 3.26097 0
M  V30 3385 H 322.64 0.121468 4.6114 0
M  V30 3386 H 320.883 0.183593 4.33411 0
M  V30 3387 H 321.554 -1.03526 5.42205 0
M  V30 3388 H 324.03 -1.90175 3.70098 0
M  V30 3389 H 322.906 -2.89549 4.66318 0
M  V30 3390 H 323.167 -3.27628 2.96837 0
M  V30 3391 N 322.226 -1.5378 -0.344866 0
M  V30 3392 C 323.174 -1.82373 -1.4437 0
M  V30 3393 C 324.168 -0.694128 -1.54526 0
M  V30 3394 O 325.374 -0.877442 -1.57165 0
M  V30 3395 H 321.749 -0.577765 -0.481344 0
M  V30 3396 H 323.72 -2.74306 -1.17468 0
M  V30 3397 C 322.469 -2.04898 -2.80913 0
M  V30 3398 H 321.792 -2.9127 -2.73865 0
M  V30 3399 H 323.232 -2.28871 -3.56923 0
M  V30 3400 C 321.691 -0.834116 -3.26411 0
M  V30 3401 O 322.221 -0.0328885 -4.01687 0
M  V30 3402 N 320.427 -0.65171 -2.83198 0
M  V30 3403 H 319.974 -1.30489 -2.22104 0
M  V30 3404 H 319.932 0.159686 -3.13994 0
M  V30 3405 N 323.704 0.605807 -1.45491 0
M  V30 3406 C 324.667 1.69836 -1.5391 0
M  V30 3407 C 325.667 1.55261 -0.418424 0
M  V30 3408 O 326.857 1.60296 -0.681965 0
M  V30 3409 C 323.989 3.09117 -1.43734 0
M  V30 3410 H 325.182 1.63738 -2.51257 0
M  V30 3411 H 322.735 0.821689 -1.32959 0
M  V30 3412 H 323.47 3.20791 -0.475788 0
M  V30 3413 H 323.255 3.21104 -2.25021 0
M  V30 3414 H 324.745 3.88696 -1.52661 0
M  V30 3415 N 325.182 1.32811 0.848464 0
M  V30 3416 C 326.428 1.23907 1.60546 0
M  V30 3417 C 326.761 -0.197161 1.93197 0
M  V30 3418 O 326.036 -1.13596 1.5788 0
M  V30 3419 C 326.319 2.10489 2.92175 0
M  V30 3420 C 326.172 3.62522 2.66266 0
M  V30 3421 C 327.491 1.97075 3.93509 0
M  V30 3422 H 324.61 0.451459 0.58254 0
M  V30 3423 H 327.252 1.62818 0.979296 0
M  V30 3424 H 325.402 1.77434 3.45614 0
M  V30 3425 H 327.074 4.05821 2.19334 0
M  V30 3426 H 325.317 3.84879 2.00126 0
M  V30 3427 H 325.988 4.18437 3.6002 0
M  V30 3428 H 328.464 2.26045 3.49346 0
M  V30 3429 H 327.34 2.59923 4.83457 0
M  V30 3430 H 327.601 0.940186 4.31987 0
M  V30 3431 N 326.66 -1.06551 1.16123 0
M  V30 3432 C 327.592 -2.13908 0.823171 0
M  V30 3433 C 328.605 -1.61926 -0.16843 0
M  V30 3434 O 329.794 -1.78412 0.055962 0
M  V30 3435 C 326.894 -3.38283 0.204424 0
M  V30 3436 C 326.067 -4.19589 1.23548 0
M  V30 3437 C 325.126 -5.2233 0.637011 0
M  V30 3438 O 324.152 -5.54034 1.30516 0
M  V30 3439 N 325.354 -5.77621 -0.577474 0
M  V30 3440 H 328.119 -2.43508 1.74711 0
M  V30 3441 H 325.68 -1.2253 1.05821 0
M  V30 3442 H 327.672 -4.0416 -0.208909 0
M  V30 3443 H 326.242 -3.06329 -0.623012 0
M  V30 3444 H 325.462 -3.49406 1.82507 0
M  V30 3445 H 326.75 -4.70718 1.93137 0
M  V30 3446 H 326.148 -5.54125 -1.13853 0
M  V30 3447 H 324.705 -6.45087 -0.933053 0
M  V30 3448 N 328.138 -0.959301 -1.25041 0
M  V30 3449 C 329.366 -0.633949 -1.96948 0
M  V30 3450 C 329.781 0.794916 -1.7125 0
M  V30 3451 O 329.138 1.53231 -0.991287 0
M  V30 3452 C 329.189 -0.888805 -3.50403 0
M  V30 3453 O 328.91 -2.26149 -3.75218 0
M  V30 3454 C 330.411 -0.576482 -4.39536 0
M  V30 3455 H 327.631 -0.237263 -0.627652 0
M  V30 3456 H 330.175 -1.28495 -1.59089 0
M  V30 3457 H 328.33 -0.284145 -3.86357 0
M  V30 3458 H 328.744 -2.33514 -4.6965 0
M  V30 3459 H 330.218 -0.805314 -5.46094 0
M  V30 3460 H 330.695 0.489075 -4.36468 0
M  V30 3461 H 331.301 -1.16067 -4.09156 0
M  V30 3462 N 329.616 1.39756 -0.72842 0
M  V30 3463 C 330.862 2.00942 -0.273892 0
M  V30 3464 C 331.195 1.57656 1.13394 0
M  V30 3465 O 330.47 0.802434 1.77176 0
M  V30 3466 C 330.753 3.58211 -0.368346 0
M  V30 3467 C 330.606 4.11534 -1.81548 0
M  V30 3468 C 331.925 4.39372 0.253054 0
M  V30 3469 H 329.044 0.730047 -0.100996 0
M  V30 3470 H 331.686 1.66056 -0.923337 0
M  V30 3471 H 329.836 3.88061 0.184588 0
M  V30 3472 H 331.508 3.92431 -2.42478 0
M  V30 3473 H 329.751 3.65341 -2.33898 0
M  V30 3474 H 330.422 5.20682 -1.83288 0
M  V30 3475 H 332.898 4.15527 -0.218224 0
M  V30 3476 H 331.774 5.48677 0.156585 0
M  V30 3477 H 332.035 4.21358 1.33826 0
M  V30 3478 N 331.094 0.475555 1.50254 0
M  V30 3479 C 332.34 -0.0780073 2.0265 0
M  V30 3480 C 332.673 -1.38968 1.35652 0
M  V30 3481 O 331.948 -1.8839 0.483691 0
M  V30 3482 C 332.231 -0.257161 3.59181 0
M  V30 3483 C 332.084 1.07585 4.36744 0
M  V30 3484 C 333.403 -1.00965 4.28362 0
M  V30 3485 H 330.522 -0.0268758 0.73651 0
M  V30 3486 H 333.164 0.622015 1.7953 0
M  V30 3487 H 331.314 -0.853412 3.79011 0
M  V30 3488 H 332.986 1.70902 4.28474 0
M  V30 3489 H 331.229 1.6714 4.00308 0
M  V30 3490 H 331.9 0.904088 5.44546 0
M  V30 3491 H 334.376 -0.504214 4.13034 0
M  V30 3492 H 333.252 -1.10381 5.37687 0
M  V30 3493 H 333.513 -2.04731 3.91839 0
M  V30 3494 N 332.573 -1.56217 0.208337 0
M  V30 3495 C 333.989 -1.58919 -0.14729 0
M  V30 3496 C 334.189 -1.22486 -1.59998 0
M  V30 3497 O 333.245 -0.953849 -2.3379 0
M  V30 3498 C 334.558 -3.00236 0.167048 0
M  V30 3499 C 336.106 -3.12813 0.108219 0
M  V30 3500 C 336.581 -4.56284 0.396049 0
M  V30 3501 N 338.072 -4.61912 0.345142 0
M  V30 3502 C 338.807 -5.70837 0.541523 0
M  V30 3503 N 338.303 -6.88178 0.798968 0
M  V30 3504 N 340.096 -5.60091 0.474867 0
M  V30 3505 H 332.247 -1.78177 1.15614 0
M  V30 3506 H 334.51 -0.827555 0.462446 0
M  V30 3507 H 334.216 -3.31499 1.1748 0
M  V30 3508 H 334.09 -3.7354 -0.524184 0
M  V30 3509 H 336.477 -2.81354 -0.890157 0
M  V30 3510 H 336.558 -2.41866 0.832729 0
M  V30 3511 H 336.202 -4.88458 1.3918 0
M  V30 3512 H 336.132 -5.25439 -0.349502 0
M  V30 3513 H 338.623 -3.77589 0.153316 0
M  V30 3514 H 338.936 -7.67095 0.93727 0
M  V30 3515 H 337.281 -6.89953 0.836013 0
M  V30 3516 H 340.472 -4.67297 0.274064 0
M  V30 3517 H 340.645 -6.44917 0.631326 0
M  V30 3518 N 334.051 0.0651679 -1.57465 0
M  V30 3519 C 334.983 1.10359 -2.00882 0
M  V30 3520 C 335.996 1.346 -0.915788 0
M  V30 3521 O 337.185 1.32723 -1.1936 0
M  V30 3522 C 334.285 2.45312 -2.33828 0
M  V30 3523 C 333.458 2.40934 -3.65061 0
M  V30 3524 C 332.517 3.58047 -3.85602 0
M  V30 3525 O 331.543 3.39175 -4.57109 0
M  V30 3526 N 332.745 4.78637 -3.28462 0
M  V30 3527 H 335.51 0.733807 -2.90578 0
M  V30 3528 H 333.071 0.253719 -1.599 0
M  V30 3529 H 335.063 3.22314 -2.44737 0
M  V30 3530 H 333.633 2.74267 -1.49988 0
M  V30 3531 H 332.853 1.49273 -3.64844 0
M  V30 3532 H 334.141 2.35117 -4.51218 0
M  V30 3533 H 333.539 4.96872 -2.70433 0
M  V30 3534 H 332.096 5.53127 -3.44809 0
M  V30 3535 N 335.529 1.53961 0.336706 0
M  V30 3536 C 336.777 1.71197 1.07405 0
M  V30 3537 C 337.098 0.481475 1.88962 0
M  V30 3538 O 336.368 -0.504585 1.8929 0
M  V30 3539 H 334.948 0.631185 0.399517 0
M  V30 3540 H 337.61 1.91232 0.376323 0
M  V30 3541 H 336.706 2.58587 1.74755 0
M  V30 3542 N 337.007 -0.598083 1.45811 0
M  V30 3543 C 337.917 -1.73632 1.57763 0
M  V30 3544 C 338.933 -1.67763 0.461676 0
M  V30 3545 O 340.109 -1.87949 0.723685 0
M  V30 3546 C 337.174 -3.10114 1.55018 0
M  V30 3547 C 336.235 -3.27364 2.77726 0
M  V30 3548 C 335.468 -4.57334 2.75102 0
M  V30 3549 O 335.691 -5.40258 1.8297 0
M  V30 3550 O 334.625 -4.77502 3.66437 0
M  V30 3551 H 338.451 -1.66498 2.53992 0
M  V30 3552 H 336.036 -0.763308 1.28429 0
M  V30 3553 H 337.918 -3.9141 1.56129 0
M  V30 3554 H 336.593 -3.17718 0.619431 0
M  V30 3555 H 335.5 -2.45619 2.82174 0
M  V30 3556 H 336.833 -3.24641 3.69958 0
M  V30 3557 N 338.485 -1.33259 -0.841409 0
M  V30 3558 C 339.433 -1.23279 -1.97244 0
M  V30 3559 C 340.427 -0.134706 -1.68864 0
M  V30 3560 O 341.633 -0.298501 -1.77508 0
M  V30 3561 H 338.008 -0.382497 -0.647457 0
M  V30 3562 H 339.979 -2.18906 -2.02787 0
M  V30 3563 C 338.728 -0.986268 -3.33419 0
M  V30 3564 H 338.051 -1.82347 -3.55794 0
M  V30 3565 H 339.491 -0.956728 -4.13065 0
M  V30 3566 C 337.95 0.310842 -3.35463 0
M  V30 3567 O 338.48 1.31838 -3.79449 0
M  V30 3568 N 336.686 0.337485 -2.88634 0
M  V30 3569 H 336.233 -0.482967 -2.53032 0
M  V30 3570 H 336.191 1.20518 -2.90384 0
M  V30 3571 N 339.963 1.05934 -1.16686 0
M  V30 3572 C 341.212 1.78188 -0.945085 0
M  V30 3573 C 341.525 1.88338 0.528021 0
M  V30 3574 O 342.731 2.57258 0.867799 0
M  V30 3575 C 341.187 3.20277 -1.64167 0
M  V30 3576 C 340.795 3.18281 -3.15279 0
M  V30 3577 C 342.539 3.97039 -1.502 0
M  V30 3578 C 340.446 4.55112 -3.7766 0
M  V30 3579 H 339.376 0.667866 -0.349959 0
M  V30 3580 H 342.027 1.18794 -1.39858 0
M  V30 3581 H 340.409 3.79952 -1.11589 0
M  V30 3582 H 341.583 2.68167 -3.74731 0
M  V30 3583 H 339.898 2.55018 -3.29173 0
M  V30 3584 H 342.495 4.98194 -1.94183 0
M  V30 3585 H 342.838 4.13845 -0.451461 0
M  V30 3586 H 343.371 3.43894 -1.99954 0
M  V30 3587 H 340.11 4.43512 -4.82677 0
M  V30 3588 H 339.63 5.05406 -3.22994 0
M  V30 3589 H 341.309 5.24064 -3.79428 0
M  V30 3590 N 341.441 0.965919 1.2453 0
M  V30 3591 C 342.669 0.644385 1.96609 0
M  V30 3592 C 343.084 -0.785823 1.71669 0
M  V30 3593 O 342.441 -1.52703 0.999399 0
M  V30 3594 C 342.492 0.907375 3.49927 0
M  V30 3595 O 342.213 2.28136 3.74013 0
M  V30 3596 C 343.714 0.599784 4.39224 0
M  V30 3597 H 340.934 0.240588 0.626385 0
M  V30 3598 H 343.478 1.29337 1.58405 0
M  V30 3599 H 341.633 0.304631 3.862 0
M  V30 3600 H 342.047 2.36002 4.68405 0
M  V30 3601 H 343.521 0.834263 5.45659 0
M  V30 3602 H 343.998 -0.465921 4.36722 0
M  V30 3603 H 344.604 1.18235 4.08535 0
M  V30 3604 N 342.919 -1.39368 0.735821 0
M  V30 3605 C 343.849 -2.33234 0.111506 0
M  V30 3606 C 344.83 -1.53954 -0.723334 0
M  V30 3607 O 346.015 -1.82344 -0.668147 0
M  V30 3608 C 343.145 -3.38057 -0.795917 0
M  V30 3609 C 342.099 -4.2795 -0.065172 0
M  V30 3610 C 341.425 -5.23479 -1.08967 0
M  V30 3611 C 342.725 -5.10741 1.09273 0
M  V30 3612 H 344.419 -2.85692 0.895571 0
M  V30 3613 H 341.965 -1.37364 0.432109 0
M  V30 3614 H 343.918 -4.02675 -1.24221 0
M  V30 3615 H 342.642 -2.8404 -1.61211 0
M  V30 3616 H 341.301 -3.64813 0.361511 0
M  V30 3617 H 340.949 -4.65758 -1.89944 0
M  V30 3618 H 340.649 -5.84472 -0.605489 0
M  V30 3619 H 342.173 -5.90974 -1.53565 0
M  V30 3620 H 343.587 -5.68699 0.724841 0
M  V30 3621 H 341.984 -5.8088 1.50659 0
M  V30 3622 H 343.054 -4.45525 1.91404 0
M  V30 3623 N 344.397 -0.483516 -1.5 0
M  V30 3624 C 345.33 0.350427 -2.25493 0
M  V30 3625 C 346.308 0.985549 -1.29328 0
M  V30 3626 O 347.492 1.01906 -1.58579 0
M  V30 3627 C 344.619 1.49202 -3.04066 0
M  V30 3628 C 343.665 0.973036 -4.15252 0
M  V30 3629 S 344.498 -0.122237 -5.3536 0
M  V30 3630 C 345.654 1.02294 -6.17484 0
M  V30 3631 H 345.887 -0.290381 -2.95878 0
M  V30 3632 H 343.42 -0.268562 -1.52046 0
M  V30 3633 H 345.378 2.14623 -3.49925 0
M  V30 3634 H 344.039 2.10438 -2.33183 0
M  V30 3635 H 343.232 1.82804 -4.69679 0
M  V30 3636 H 342.834 0.396335 -3.71894 0
M  V30 3637 H 345.126 1.93195 -6.49371 0
M  V30 3638 H 346.069 0.517664 -7.06205 0
M  V30 3639 H 346.477 1.28238 -5.49741 0
M  V30 3640 N 345.875 1.56104 -0.216619 0
M  V30 3641 C 347.115 2.00074 0.418322 0
M  V30 3642 C 347.479 1.10098 1.57297 0
M  V30 3643 O 348.68 1.43393 2.27359 0
M  V30 3644 C 346.951 3.47231 0.846477 0
M  V30 3645 S 348.51 4.13223 1.47622 0
M  V30 3646 H 345.328 0.698457 0.132962 0
M  V30 3647 H 347.93 1.92784 -0.324748 0
M  V30 3648 H 346.634 4.104 -0.0036319 0
M  V30 3649 H 346.165 3.58384 1.62248 0
M  V30 3650 H 348.18 4.12005 2.76526 0
M  V30 3651 N 347.353 -0.0568162 1.57498 0
M  V30 3652 C 348.602 -0.752001 1.87157 0
M  V30 3653 C 348.915 -1.77978 0.811375 0
M  V30 3654 O 350.121 -2.52559 0.996293 0
M  V30 3655 C 348.577 -1.38844 3.3204 0
M  V30 3656 C 348.185 -0.398456 4.46225 0
M  V30 3657 C 349.929 -2.06512 3.70882 0
M  V30 3658 C 347.836 -1.04166 5.82154 0
M  V30 3659 H 346.766 -0.28461 0.698222 0
M  V30 3660 H 349.417 -0.00561272 1.83499 0
M  V30 3661 H 347.799 -2.1836 3.30356 0
M  V30 3662 H 348.973 0.367977 4.59328 0
M  V30 3663 H 347.288 0.174592 4.16034 0
M  V30 3664 H 349.885 -2.55437 4.6974 0
M  V30 3665 H 350.228 -2.87117 3.01445 0
M  V30 3666 H 350.761 -1.33808 3.7462 0
M  V30 3667 H 347.5 -0.275614 6.5492 0
M  V30 3668 H 347.02 -1.7786 5.72823 0
M  V30 3669 H 348.699 -1.55715 6.27982 0
M  V30 3670 N 348.832 -1.54138 -0.328536 0
M  V30 3671 C 350.078 -1.7236 -1.06865 0
M  V30 3672 C 350.411 -0.493231 -1.87832 0
M  V30 3673 O 349.686 0.5098 -1.877 0
M  V30 3674 C 349.969 -2.99621 -1.99747 0
M  V30 3675 C 349.822 -4.32899 -1.22143 0
M  V30 3676 C 351.141 -3.22615 -2.99345 0
M  V30 3677 H 348.26 -0.627151 -0.387105 0
M  V30 3678 H 350.902 -1.86827 -0.345767 0
M  V30 3679 H 349.052 -2.87418 -2.61387 0
M  V30 3680 H 350.724 -4.56978 -0.630017 0
M  V30 3681 H 348.967 -4.30628 -0.523628 0
M  V30 3682 H 349.638 -5.18154 -1.90318 0
M  V30 3683 H 352.114 -3.34248 -2.47826 0
M  V30 3684 H 350.99 -4.13027 -3.61524 0
M  V30 3685 H 351.251 -2.3961 -3.71536 0
M  V30 3686 N 350.31 0.590341 -1.46126 0
M  V30 3687 C 351.559 1.34499 -1.50309 0
M  V30 3688 C 351.872 1.94977 -0.156021 0
M  V30 3689 O 353.078 2.71395 -0.0756037 0
M  V30 3690 C 351.534 2.43723 -2.64815 0
M  V30 3691 C 351.142 1.89582 -4.0591 0
M  V30 3692 C 352.886 3.20579 -2.78262 0
M  V30 3693 C 350.793 2.9639 -5.11769 0
M  V30 3694 H 349.723 0.505593 -0.559368 0
M  V30 3695 H 352.374 0.630848 -1.72315 0
M  V30 3696 H 350.756 3.17902 -2.36124 0
M  V30 3697 H 351.93 1.21997 -4.44357 0
M  V30 3698 H 350.245 1.25418 -3.97063 0
M  V30 3699 H 352.842 4.00276 -3.54519 0
M  V30 3700 H 353.185 3.72684 -1.85505 0
M  V30 3701 H 353.718 2.53505 -3.06562 0
M  V30 3702 H 350.457 2.49181 -6.06291 0
M  V30 3703 H 349.977 3.62487 -4.77873 0
M  V30 3704 H 351.656 3.60474 -5.37278 0
M  V30 3705 N 351.788 1.33704 0.83433 0
M  V30 3706 C 353.036 1.25169 1.58673 0
M  V30 3707 C 353.357 -0.18127 1.94156 0
M  V30 3708 O 352.627 -1.11113 1.6134 0
M  V30 3709 H 351.207 0.4603 0.58833 0
M  V30 3710 H 353.869 1.67478 0.996847 0
M  V30 3711 H 352.965 1.84856 2.51465 0
M  V30 3712 N 353.266 -1.05314 1.17247 0
M  V30 3713 C 354.214 -2.15137 0.884238 0
M  V30 3714 C 355.208 -1.68729 -0.15063 0
M  V30 3715 O 356.414 -1.8 -0.00366673 0
M  V30 3716 H 352.789 -0.702471 0.2684 0
M  V30 3717 H 354.76 -2.36652 1.81764 0
M  V30 3718 C 353.509 -3.45243 0.412659 0
M  V30 3719 H 352.832 -3.81352 1.20043 0
M  V30 3720 H 354.272 -4.23263 0.249858 0
M  V30 3721 C 352.731 -3.25487 -0.86948 0
M  V30 3722 O 353.261 -3.51938 -1.93655 0
M  V30 3723 N 351.467 -2.78875 -0.817147 0
M  V30 3724 H 351.014 -2.57549 0.0514211 0
M  V30 3725 H 350.972 -2.66036 -1.67547 0
M  V30 3726 N 354.744 -0.972509 -1.24016 0
M  V30 3727 C 355.654 -0.5143 -2.28893 0
M  V30 3728 C 356.67 0.427078 -1.68677 0
M  V30 3729 O 357.846 0.298939 -1.99169 0
M  V30 3730 C 354.911 0.183598 -3.46214 0
M  V30 3731 C 353.972 -0.798202 -4.21814 0
M  V30 3732 C 353.205 -0.133514 -5.33533 0
M  V30 3733 O 353.428 1.07714 -5.60137 0
M  V30 3734 O 352.362 -0.828103 -5.96176 0
M  V30 3735 H 356.188 -1.38629 -2.70214 0
M  V30 3736 H 353.773 -0.739769 -1.29799 0
M  V30 3737 H 355.655 0.575433 -4.17453 0
M  V30 3738 H 354.33 1.03048 -3.0686 0
M  V30 3739 H 353.237 -1.24059 -3.52931 0
M  V30 3740 H 354.57 -1.61364 -4.64997 0
M  V30 3741 N 356.222 1.38976 -0.743202 0
M  V30 3742 C 357.468 2.0064 -0.295189 0
M  V30 3743 C 357.801 1.5885 1.11716 0
M  V30 3744 O 357.076 0.821181 1.76315 0
M  V30 3745 C 357.359 3.578 -0.406318 0
M  V30 3746 C 357.212 4.09586 -1.85903 0
M  V30 3747 C 358.531 4.39616 0.206439 0
M  V30 3748 H 355.65 0.728935 -0.108733 0
M  V30 3749 H 358.292 1.65067 -0.940897 0
M  V30 3750 H 356.442 3.88235 0.143419 0
M  V30 3751 H 358.114 3.89837 -2.46627 0
M  V30 3752 H 356.357 3.6284 -2.3776 0
M  V30 3753 H 357.028 5.18708 -1.888 0
M  V30 3754 H 359.504 4.15273 -0.262283 0
M  V30 3755 H 358.38 5.48812 0.0983819 0
M  V30 3756 H 358.641 4.22754 1.2935 0
M  V30 3757 N 357.7 0.491464 1.49741 0
M  V30 3758 C 358.946 -0.0565092 2.02721 0
M  V30 3759 C 359.279 -1.37522 1.37118 0
M  V30 3760 O 358.554 -1.87866 0.503645 0
M  V30 3761 C 358.837 -0.219051 3.59433 0
M  V30 3762 C 358.69 1.12211 4.35579 0
M  V30 3763 C 360.009 -0.964157 4.29409 0
M  V30 3764 H 357.128 -0.0190627 0.736753 0
M  V30 3765 H 359.77 0.641021 1.7886 0
M  V30 3766 H 357.92 -0.813165 3.79895 0
M  V30 3767 H 359.592 1.75437 4.26637 0
M  V30 3768 H 357.835 1.71377 3.98513 0
M  V30 3769 H 358.506 0.961794 5.43556 0
M  V30 3770 H 360.982 -0.460378 4.13545 0
M  V30 3771 H 359.858 -1.04671 5.38828 0
M  V30 3772 H 360.119 -2.00563 3.93988 0
M  V30 3773 N 359.178 -1.55987 0.224894 0
M  V30 3774 C 360.126 -2.21808 -0.700283 0
M  V30 3775 C 361.12 -1.19854 -1.19714 0
M  V30 3776 O 362.326 -1.37925 -1.15658 0
M  V30 3777 H 358.701 -0.711226 -0.244258 0
M  V30 3778 H 360.672 -2.98152 -0.121749 0
M  V30 3779 C 359.421 -2.91444 -1.8962 0
M  V30 3780 H 358.744 -3.69655 -1.52299 0
M  V30 3781 H 360.184 -3.40894 -2.52125 0
M  V30 3782 C 358.643 -1.94098 -2.75368 0
M  V30 3783 O 359.173 -1.46004 -3.74227 0
M  V30 3784 N 357.379 -1.61675 -2.41474 0
M  V30 3785 H 356.926 -2.00979 -1.61137 0
M  V30 3786 H 356.884 -0.968036 -2.99126 0
M  V30 3787 N 360.656 0.0484629 -1.57525 0
M  V30 3788 C 361.903 0.743125 -1.88372 0
M  V30 3789 C 362.231 1.76383 -0.819715 0
M  V30 3790 O 361.486 1.94855 0.181659 0
M  V30 3791 C 361.785 1.46632 -3.25935 0
M  V30 3792 C 361.451 0.583427 -4.4711 0
M  V30 3793 C 360.113 0.340191 -4.79996 0
M  V30 3794 C 362.465 -0.0273345 -5.21193 0
M  V30 3795 C 359.793 -0.522903 -5.84365 0
M  V30 3796 C 362.145 -0.878017 -6.26477 0
M  V30 3797 C 360.809 -1.1309 -6.5785 0
M  V30 3798 H 360.079 0.271929 -0.689301 0
M  V30 3799 H 362.726 0.00336166 -1.915 0
M  V30 3800 H 361.031 2.2789 -3.18706 0
M  V30 3801 H 362.728 2.00902 -3.47044 0
M  V30 3802 H 359.318 0.783151 -4.21384 0
M  V30 3803 H 363.502 0.147654 -4.9608 0
M  V30 3804 H 358.758 -0.727335 -6.07058 0
M  V30 3805 H 362.932 -1.35789 -6.83033 0
M  V30 3806 H 360.559 -1.80144 -7.38547 0
M  V30 3807 N 362.134 1.5431 0.320358 0
M  V30 3808 C 363.044 1.86946 1.41734 0
M  V30 3809 C 364.06 0.761689 1.56443 0
M  V30 3810 O 365.236 1.05629 1.71477 0
M  V30 3811 C 362.301 2.09293 2.76401 0
M  V30 3812 C 361.362 3.33082 2.70841 0
M  V30 3813 C 360.595 3.54353 3.99086 0
M  V30 3814 O 360.818 2.79002 4.97508 0
M  V30 3815 O 359.752 4.47838 4.0215 0
M  V30 3816 H 363.578 2.80232 1.17062 0
M  V30 3817 H 361.163 1.40255 0.514673 0
M  V30 3818 H 363.045 2.25303 3.56113 0
M  V30 3819 H 361.72 1.19194 3.00956 0
M  V30 3820 H 360.627 3.22454 1.89668 0
M  V30 3821 H 361.96 4.23249 2.5124 0
M  V30 3822 N 363.613 -0.582584 1.46437 0
M  V30 3823 C 364.859 -1.34064 1.52965 0
M  V30 3824 C 365.214 -1.91566 0.178968 0
M  V30 3825 O 364.507 -1.73526 -0.812365 0
M  V30 3826 C 364.701 -2.48964 2.56421 0
M  V30 3827 C 364.53 -2.02717 4.01417 0
M  V30 3828 C 363.3 -1.87728 4.69134 0
M  V30 3829 C 365.498 -1.58675 4.8921 0
M  V30 3830 N 363.48 -1.35554 5.98747 0
M  V30 3831 C 364.851 -1.18093 6.08649 0
M  V30 3832 C 366.906 -1.46494 4.75861 0
M  V30 3833 C 365.609 -0.665427 7.16215 0
M  V30 3834 C 367.635 -0.96347 5.83499 0
M  V30 3835 C 366.997 -0.567432 7.02111 0
M  V30 3836 H 363.096 -0.483551 0.614575 0
M  V30 3837 H 365.68 -0.663309 1.83053 0
M  V30 3838 H 363.851 -3.1426 2.28244 0
M  V30 3839 H 365.583 -3.15913 2.52944 0
M  V30 3840 H 362.338 -2.09678 4.24655 0
M  V30 3841 H 362.762 -1.11628 6.67734 0
M  V30 3842 H 367.404 -1.75731 3.8455 0
M  V30 3843 H 365.122 -0.360639 8.07295 0
M  V30 3844 H 368.708 -0.873129 5.75211 0
M  V30 3845 H 367.588 -0.185389 7.83981 0
M  V30 3846 N 365.091 -1.34144 -0.827227 0
M  V30 3847 C 366.319 -1.29325 -1.61501 0
M  V30 3848 C 366.734 0.13354 -1.88327 0
M  V30 3849 O 366.091 1.0793 -1.47164 0
M  V30 3850 C 366.142 -2.07746 -2.95844 0
M  V30 3851 O 365.863 -3.4486 -2.70191 0
M  V30 3852 C 367.364 -2.10273 -3.90256 0
M  V30 3853 H 364.584 -0.445069 -0.50215 0
M  V30 3854 H 367.128 -1.76693 -1.02955 0
M  V30 3855 H 365.283 -1.6403 -3.5096 0
M  V30 3856 H 365.697 -3.85345 -3.55822 0
M  V30 3857 H 367.171 -2.69575 -4.81698 0
M  V30 3858 H 367.648 -1.096 -4.25305 0
M  V30 3859 H 368.254 -2.54059 -3.41078 0
M  V30 3860 N 366.569 1.04691 -1.17803 0
M  V30 3861 C 367.799 1.81183 -0.992788 0
M  V30 3862 C 368.207 1.8347 0.462098 0
M  V30 3863 O 367.55 1.2643 1.33271 0
M  V30 3864 C 367.612 3.28363 -1.46349 0
M  V30 3865 C 367.276 3.49749 -2.94151 0
M  V30 3866 C 368.273 3.41456 -3.92051 0
M  V30 3867 C 365.958 3.76548 -3.32441 0
M  V30 3868 C 367.952 3.59656 -5.26238 0
M  V30 3869 C 365.639 3.94396 -4.66792 0
M  V30 3870 C 366.637 3.8595 -5.635 0
M  V30 3871 O 366.325 4.03294 -6.9542 0
M  V30 3872 H 366.057 0.577622 -0.351182 0
M  V30 3873 H 368.611 1.32876 -1.5663 0
M  V30 3874 H 366.841 3.77609 -0.833574 0
M  V30 3875 H 368.53 3.86395 -1.24313 0
M  V30 3876 H 369.296 3.20723 -3.63815 0
M  V30 3877 H 365.175 3.82224 -2.57732 0
M  V30 3878 H 368.719 3.52979 -6.01707 0
M  V30 3879 H 364.616 4.14622 -4.94731 0
M  V30 3880 H 365.384 4.2049 -7.02232 0
M  V30 3881 N 368.047 0.979072 1.23499 0
M  V30 3882 C 369.458 0.684391 1.73704 0
M  V30 3883 C 369.809 -0.799448 1.79174 0
M  V30 3884 O 368.934 -1.62531 1.42873 0
M  V30 3885 C 369.529 1.23564 3.15464 0
M  V30 3886 C 368.088 0.99063 3.6313 0
M  V30 3887 C 367.235 1.36416 2.41425 0
M  V30 3888 H 370.186 1.15307 1.09041 0
M  V30 3889 H 370.207 0.607417 3.7562 0
M  V30 3890 H 369.719 2.31561 3.1145 0
M  V30 3891 H 367.82 -0.0733136 3.72528 0
M  V30 3892 H 367.933 1.64427 4.5 0
M  V30 3893 H 366.297 0.782616 2.42378 0
M  V30 3894 H 367.08 2.45387 2.40083 0
M  V30 3895 N 369.525 -1.3858 0.750561 0
M  V30 3896 C 370.941 -1.53759 0.427824 0
M  V30 3897 C 371.141 -1.71401 -1.05943 0
M  V30 3898 O 370.197 -1.72331 -1.84549 0
M  V30 3899 C 371.51 -2.74642 1.22443 0
M  V30 3900 C 373.058 -2.88489 1.2142 0
M  V30 3901 C 373.533 -4.12329 1.9937 0
M  V30 3902 N 375.024 -4.194 1.96616 0
M  V30 3903 C 375.759 -5.14209 2.53727 0
M  V30 3904 N 375.255 -6.14709 3.19539 0
M  V30 3905 N 377.048 -5.06537 2.43673 0
M  V30 3906 H 369.199 -1.25377 1.71447 0
M  V30 3907 H 371.462 -0.608844 0.726645 0
M  V30 3908 H 371.168 -2.68 2.27747 0
M  V30 3909 H 371.042 -3.67745 0.839273 0
M  V30 3910 H 373.429 -2.94614 0.169232 0
M  V30 3911 H 373.51 -1.96406 1.63885 0
M  V30 3912 H 373.154 -4.06966 3.03877 0
M  V30 3913 H 373.084 -5.03486 1.54302 0
M  V30 3914 H 375.575 -3.47421 1.48684 0
M  V30 3915 H 375.888 -6.8354 3.60545 0
M  V30 3916 H 374.233 -6.1505 3.23633 0
M  V30 3917 H 377.424 -4.26962 1.91889 0
M  V30 3918 H 377.597 -5.80245 2.88479 0
M  V30 3919 N 371.003 -0.499398 -1.49478 0
M  V30 3920 C 371.95 0.279881 -2.29097 0
M  V30 3921 C 372.92 0.961805 -1.3542 0
M  V30 3922 O 374.105 0.968777 -1.64376 0
M  V30 3923 C 371.245 1.33932 -3.18051 0
M  V30 3924 C 370.358 0.669333 -4.26783 0
M  V30 3925 C 369.493 1.70907 -5.02955 0
M  V30 3926 C 368.532 1.02087 -6.03527 0
M  V30 3927 N 367.669 2.00474 -6.7287 0
M  V30 3928 H 372.509 -0.405317 -2.95231 0
M  V30 3929 H 370.046 -0.211726 -1.45568 0
M  V30 3930 H 372.004 1.96553 -3.67998 0
M  V30 3931 H 370.634 1.9933 -2.53904 0
M  V30 3932 H 369.686 -0.0701234 -3.80335 0
M  V30 3933 H 370.998 0.127503 -4.98637 0
M  V30 3934 H 370.152 2.41037 -5.56764 0
M  V30 3935 H 368.891 2.28476 -4.30871 0
M  V30 3936 H 367.896 0.305338 -5.48951 0
M  V30 3937 H 369.121 0.451708 -6.77596 0
M  V30 3938 H 367.067 2.57007 -6.03559 0
M  V30 3939 H 366.984 1.51353 -7.40694 0
M  V30 3940 H 368.252 2.69897 -7.31284 0
M  V30 3941 N 372.481 1.55866 -0.233164 0
M  V30 3942 C 373.391 2.24431 0.683217 0
M  V30 3943 C 374.407 1.2558 1.2044 0
M  V30 3944 O 375.583 1.58422 1.24356 0
M  V30 3945 C 372.648 2.91979 1.86947 0
M  V30 3946 C 371.709 4.06204 1.38912 0
M  V30 3947 C 370.942 4.70522 2.51883 0
M  V30 3948 O 371.165 4.33865 3.70293 0
M  V30 3949 O 370.099 5.59296 2.22423 0
M  V30 3950 H 373.925 3.03426 0.129059 0
M  V30 3951 H 371.51 1.494 -0.0022283 0
M  V30 3952 H 373.392 3.34573 2.56201 0
M  V30 3953 H 372.067 2.15935 2.41151 0
M  V30 3954 H 370.974 3.68155 0.664259 0
M  V30 3955 H 372.307 4.84025 0.893328 0
M  V30 3956 N 373.959 -0.0401083 1.57549 0
M  V30 3957 C 375.184 -0.748931 1.93406 0
M  V30 3958 C 375.609 -1.68686 0.832274 0
M  V30 3959 O 374.967 -1.80047 -0.212818 0
M  V30 3960 C 375.015 -1.4916 3.28304 0
M  V30 3961 O 374.119 -2.6042 3.19774 0
M  V30 3962 H 373.46 -0.202212 0.63246 0
M  V30 3963 H 375.99 0.00112086 2.046 0
M  V30 3964 H 376 -1.86395 3.62934 0
M  V30 3965 H 374.675 -0.80364 4.08062 0
M  V30 3966 H 373.252 -2.25808 2.96758 0
M  V30 3967 N 375.437 -1.54477 -0.31217 0
M  V30 3968 C 376.685 -1.72884 -1.04668 0
M  V30 3969 C 377.006 -0.511477 -1.88173 0
M  V30 3970 O 376.276 0.474407 -1.90069 0
M  V30 3971 H 374.856 -0.637461 -0.389425 0
M  V30 3972 H 377.518 -1.91807 -0.345852 0
M  V30 3973 H 376.614 -2.61334 -1.70619 0
M  V30 3974 N 376.915 0.57481 -1.46744 0
M  V30 3975 C 378.331 0.898981 -1.31873 0
M  V30 3976 C 378.531 1.99313 -0.29605 0
M  V30 3977 O 377.587 2.50728 0.298621 0
M  V30 3978 C 378.9 1.30886 -2.7072 0
M  V30 3979 C 380.448 1.42127 -2.78871 0
M  V30 3980 C 380.923 1.86478 -4.18318 0
M  V30 3981 N 382.414 1.93658 -4.20774 0
M  V30 3982 C 383.149 2.29267 -5.2557 0
M  V30 3983 N 382.645 2.63612 -6.40688 0
M  V30 3984 N 384.438 2.29889 -5.1294 0
M  V30 3985 H 376.589 -0.147839 -2.11885 0
M  V30 3986 H 378.852 -0.00347013 -0.947994 0
M  V30 3987 H 378.558 0.578853 -3.46904 0
M  V30 3988 H 378.432 2.26874 -3.01343 0
M  V30 3989 H 380.819 2.14213 -2.0297 0
M  V30 3990 H 380.9 0.443705 -2.51922 0
M  V30 3991 H 380.544 1.14968 -4.94717 0
M  V30 3992 H 380.474 2.85207 -4.42679 0
M  V30 3993 H 382.965 1.69574 -3.37718 0
M  V30 3994 H 383.278 2.89759 -7.16421 0
M  V30 3995 H 381.623 2.61232 -6.44036 0
M  V30 3996 H 384.814 2.02485 -4.22039 0
M  V30 3997 H 384.987 2.57312 -5.94722 0
M  V30 3998 N 378.394 1.34581 0.820102 0
M  V30 3999 C 379.324 1.29038 1.94606 0
M  V30 4000 C 380.305 0.1673 1.69275 0
M  V30 4001 O 381.49 0.360112 1.90832 0
M  V30 4002 C 378.62 1.04793 3.31113 0
M  V30 4003 C 377.574 2.13597 3.70891 0
M  V30 4004 C 376.9 1.74537 5.05412 0
M  V30 4005 C 378.2 3.55451 3.8269 0
M  V30 4006 H 379.894 2.23248 1.99501 0
M  V30 4007 H 377.44 1.0747 0.958449 0
M  V30 4008 H 379.393 0.995592 4.0947 0
M  V30 4009 H 378.117 0.0702565 3.26524 0
M  V30 4010 H 376.776 2.17905 2.9481 0
M  V30 4011 H 376.424 0.754226 4.97313 0
M  V30 4012 H 376.124 2.47361 5.32997 0
M  V30 4013 H 377.648 1.70803 5.86224 0
M  V30 4014 H 379.062 3.5354 4.51312 0
M  V30 4015 H 377.459 4.26922 4.21732 0
M  V30 4016 H 378.529 3.92587 2.84611 0
M  V30 4017 N 379.872 -1.04064 1.18357 0
M  V30 4018 C 381.118 -1.77528 0.980397 0
M  V30 4019 C 381.451 -1.87948 -0.48879 0
M  V30 4020 O 380.726 -1.3876 -1.36293 0
M  V30 4021 C 381.009 -3.20797 1.63588 0
M  V30 4022 C 380.862 -3.1832 3.17793 0
M  V30 4023 C 382.181 -4.18911 1.34914 0
M  V30 4024 H 379.3 -0.644443 0.357578 0
M  V30 4025 H 381.942 -1.2156 1.46024 0
M  V30 4026 H 380.092 -3.68586 1.22788 0
M  V30 4027 H 381.764 -2.78521 3.67728 0
M  V30 4028 H 380.007 -2.56351 3.49952 0
M  V30 4029 H 380.678 -4.19489 3.58794 0
M  V30 4030 H 383.154 -3.7967 1.70265 0
M  V30 4031 H 382.03 -5.17374 1.83346 0
M  V30 4032 H 382.291 -4.41262 0.272027 0
M  V30 4033 N 381.35 -0.985608 -1.22978 0
M  V30 4034 C 382.26 -0.538548 -2.28335 0
M  V30 4035 C 383.276 0.409163 -1.69121 0
M  V30 4036 O 384.452 0.277797 -1.99475 0
M  V30 4037 C 381.517 0.146867 -3.46389 0
M  V30 4038 C 380.578 -0.842896 -4.20944 0
M  V30 4039 C 379.811 -0.190095 -5.33361 0
M  V30 4040 O 380.034 1.01767 -5.61248 0
M  V30 4041 O 378.968 -0.891289 -5.95264 0
M  V30 4042 H 382.794 -1.41487 -2.68729 0
M  V30 4043 H 380.379 -0.753495 -1.29007 0
M  V30 4044 H 382.261 0.531125 -4.1804 0
M  V30 4045 H 380.936 0.997871 -3.07935 0
M  V30 4046 H 379.843 -1.27795 -3.51595 0
M  V30 4047 H 381.176 -1.66287 -4.6326 0
M  V30 4048 N 382.828 1.3818 -0.7579 0
M  V30 4049 C 384.239 1.82726 -0.383134 0
M  V30 4050 C 384.59 1.63214 1.08884 0
M  V30 4051 O 383.715 1.13566 1.84205 0
M  V30 4052 C 384.31 3.31728 -0.688631 0
M  V30 4053 C 382.869 3.74606 -0.367091 0
M  V30 4054 C 382.016 2.60896 -0.939599 0
M  V30 4055 H 384.967 1.26847 -0.953699 0
M  V30 4056 H 384.988 3.80487 0.0316492 0
M  V30 4057 H 384.5 3.45898 -1.76001 0
M  V30 4058 H 382.601 3.66013 0.697532 0
M  V30 4059 H 382.714 4.71215 -0.865658 0
M  V30 4060 H 381.078 2.52075 -0.3647 0
M  V30 4061 H 381.861 2.77864 -2.0161 0
M  V30 4062 N 384.306 0.507319 1.49211 0
M  V30 4063 C 385.552 -0.0350047 2.0277 0
M  V30 4064 C 385.885 -1.3606 1.38569 0
M  V30 4065 O 385.16 -1.87321 0.523542 0
M  V30 4066 C 385.443 -0.180916 3.59645 0
M  V30 4067 C 385.296 1.16825 4.34364 0
M  V30 4068 C 386.615 -0.918558 4.30407 0
M  V30 4069 H 383.734 -0.0112473 0.736914 0
M  V30 4070 H 386.376 0.659956 1.7817 0
M  V30 4071 H 384.526 -0.772826 3.80736 0
M  V30 4072 H 386.198 1.79952 4.24753 0
M  V30 4073 H 384.441 1.75594 3.96673 0
M  V30 4074 H 385.112 1.01939 5.42506 0
M  V30 4075 H 387.588 -0.41649 4.1401 0
M  V30 4076 H 386.464 -0.989505 5.39907 0
M  V30 4077 H 386.725 -1.96373 3.96093 0
M  V30 4078 N 385.784 -1.5574 0.241426 0
M  V30 4079 C 387.012 -2.03208 -0.389134 0
M  V30 4080 C 387.427 -1.12082 -1.51931 0
M  V30 4081 O 386.784 -0.134183 -1.82006 0
M  V30 4082 C 386.835 -3.50064 -0.902087 0
M  V30 4083 O 386.556 -4.37717 0.18305 0
M  V30 4084 C 388.057 -4.13268 -1.60389 0
M  V30 4085 H 385.277 -0.664509 -0.0931053 0
M  V30 4086 H 387.821 -2.0124 0.36369 0
M  V30 4087 H 385.976 -3.52583 -1.60511 0
M  V30 4088 H 386.39 -5.24097 -0.205579 0
M  V30 4089 H 387.864 -5.17733 -1.91458 0
M  V30 4090 H 388.341 -3.59434 -2.52397 0
M  V30 4091 H 388.947 -4.14655 -0.945576 0
M  V30 4092 N 387.262 0.0317525 -1.57568 0
M  V30 4093 C 388.539 0.758366 -1.803 0
M  V30 4094 C 388.919 1.93718 -0.838845 0
M  V30 4095 O 388.267 2.28187 0.119571 0
M  V30 4096 C 388.477 1.19392 -3.27943 0
M  V30 4097 C 389.825 1.61094 -3.92854 0
M  V30 4098 O 390.849 1.28857 -3.32076 0
M  V30 4099 O 389.708 2.20918 -4.99858 0
M  V30 4100 H 386.802 0.366514 -0.741348 0
M  V30 4101 H 389.348 0.00873765 -1.69698 0
M  V30 4102 H 388.12 0.352275 -3.89711 0
M  V30 4103 H 387.743 2.00365 -3.43424 0
M  V30 4104 N 388.74 1.54641 0.303973 0
M  V30 4105 C 389.987 1.7378 1.03955 0
M  V30 4106 C 390.315 0.521986 1.87365 0
M  V30 4107 O 389.57 -0.496099 1.89308 0
M  V30 4108 C 389.869 2.97753 1.97681 0
M  V30 4109 C 389.535 4.31671 1.30271 0
M  V30 4110 C 388.197 4.68075 1.11619 0
M  V30 4111 C 390.549 5.147 0.82055 0
M  V30 4112 C 387.877 5.8509 0.434304 0
M  V30 4113 C 390.229 6.32416 0.152395 0
M  V30 4114 C 388.893 6.67484 -0.0461067 0
M  V30 4115 H 388.163 0.635908 0.380398 0
M  V30 4116 H 390.81 1.88896 0.314718 0
M  V30 4117 H 389.115 2.77406 2.76682 0
M  V30 4118 H 390.812 3.09756 2.54661 0
M  V30 4119 H 387.402 4.03041 1.45795 0
M  V30 4120 H 391.586 4.87077 0.952374 0
M  V30 4121 H 386.842 6.10806 0.269495 0
M  V30 4122 H 391.016 6.96023 -0.229126 0
M  V30 4123 H 388.643 7.58011 -0.576494 0
M  V30 4124 N 390.218 -0.567019 1.47046 0
M  V30 4125 C 391.148 -1.68482 1.61667 0
M  V30 4126 C 392.129 -1.6358 0.466418 0
M  V30 4127 O 393.314 -1.81354 0.694574 0
M  V30 4128 C 390.444 -3.07124 1.62148 0
M  V30 4129 C 389.398 -3.26867 2.76301 0
M  V30 4130 C 388.724 -4.66196 2.61849 0
M  V30 4131 C 390.024 -3.13186 4.17986 0
M  V30 4132 H 391.718 -1.56502 2.5524 0
M  V30 4133 H 389.264 -0.751486 1.22836 0
M  V30 4134 H 391.217 -3.8516 1.70968 0
M  V30 4135 H 389.941 -3.2004 0.651287 0
M  V30 4136 H 388.6 -2.51237 2.66975 0
M  V30 4137 H 388.248 -4.75898 1.62879 0
M  V30 4138 H 387.948 -4.80356 3.38425 0
M  V30 4139 H 389.472 -5.46379 2.72584 0
M  V30 4140 H 390.886 -3.81049 4.2834 0
M  V30 4141 H 389.283 -3.3886 4.95272 0
M  V30 4142 H 390.353 -2.10057 4.3704 0
M  V30 4143 N 391.696 -1.35014 -0.812953 0
M  V30 4144 C 392.626 -1.30069 -1.93919 0
M  V30 4145 C 393.607 -0.176275 -1.69184 0
M  V30 4146 O 394.792 -0.370227 -1.90638 0
M  V30 4147 C 391.922 -1.06547 -3.30552 0
M  V30 4148 C 390.876 -2.15561 -3.69753 0
M  V30 4149 C 390.202 -1.77214 -5.04479 0
M  V30 4150 C 391.502 -3.57476 -3.808 0
M  V30 4151 H 393.196 -2.24303 -1.98314 0
M  V30 4152 H 390.742 -1.07977 -0.952736 0
M  V30 4153 H 392.695 -1.01729 -4.08937 0
M  V30 4154 H 391.419 -0.0875719 -3.26483 0
M  V30 4155 H 390.078 -2.19466 -2.9365 0
M  V30 4156 H 389.726 -0.780589 -4.96906 0
M  V30 4157 H 389.426 -2.50184 -5.31678 0
M  V30 4158 H 390.95 -1.7391 -5.8531 0
M  V30 4159 H 392.364 -3.55929 -4.4943 0
M  V30 4160 H 390.761 -4.29152 -4.19462 0
M  V30 4161 H 391.831 -3.94091 -2.82525 0
M  V30 4162 N 393.175 1.03435 -1.18907 0
M  V30 4163 C 394.452 1.73778 -0.89781 0
M  V30 4164 C 394.832 2.02458 0.597832 0
M  V30 4165 O 394.18 1.67482 1.55441 0
M  V30 4166 C 394.39 3.01845 -1.75187 0
M  V30 4167 C 395.738 3.7546 -1.9828 0
M  V30 4168 O 396.762 3.11759 -1.72293 0
M  V30 4169 O 395.621 4.89966 -2.42065 0
M  V30 4170 H 392.715 0.75651 -0.334098 0
M  V30 4171 H 395.261 1.09444 -1.29693 0
M  V30 4172 H 394.033 2.76836 -2.76545 0
M  V30 4173 H 393.656 3.73919 -1.35167 0
M  V30 4174 N 394.653 0.992116 1.22453 0
M  V30 4175 C 395.586 0.486701 2.22949 0
M  V30 4176 C 396.564 -0.45259 1.56174 0
M  V30 4177 O 397.748 -0.378317 1.84665 0
M  V30 4178 C 394.875 -0.294537 3.37417 0
M  V30 4179 C 393.921 0.590628 4.22391 0
M  V30 4180 S 394.754 2.04546 4.94895 0
M  V30 4181 C 395.91 1.27369 6.12803 0
M  V30 4182 H 396.143 1.33828 2.65475 0
M  V30 4183 H 393.676 0.799023 1.32117 0
M  V30 4184 H 395.634 -0.739241 4.03789 0
M  V30 4185 H 394.295 -1.12139 2.934 0
M  V30 4186 H 393.488 -0.0104375 5.03999 0
M  V30 4187 H 393.09 0.972064 3.61147 0
M  V30 4188 H 395.382 0.540943 6.75337 0
M  V30 4189 H 396.325 2.06502 6.7732 0
M  V30 4190 H 396.733 0.787324 5.58983 0
M  V30 4191 N 396.131 -1.37776 0.765217 0
M  V30 4192 C 397.542 -1.82521 0.392819 0
M  V30 4193 C 397.893 -1.63789 -1.08017 0
M  V30 4194 O 397.018 -1.14542 -1.83601 0
M  V30 4195 C 397.613 -3.31358 0.706214 0
M  V30 4196 C 396.172 -3.74406 0.386952 0
M  V30 4197 C 395.319 -2.60394 0.953422 0
M  V30 4198 H 398.27 -1.2634 0.960412 0
M  V30 4199 H 398.291 -3.80498 -0.0114706 0
M  V30 4200 H 397.803 -3.44959 1.77833 0
M  V30 4201 H 395.904 -3.66377 -0.678112 0
M  V30 4202 H 396.017 -4.70749 0.890636 0
M  V30 4203 H 394.381 -2.51878 0.378064 0
M  V30 4204 H 395.164 -2.76791 2.03081 0
M  V30 4205 N 397.609 -0.515225 -1.4894 0
M  V30 4206 C 398.839 0.0205735 -2.0659 0
M  V30 4207 C 399.247 1.30064 -1.37405 0
M  V30 4208 O 398.59 1.78087 -0.450632 0
M  V30 4209 C 398.652 0.330124 -3.57981 0
M  V30 4210 C 398.316 -0.854295 -4.48944 0
M  V30 4211 C 399.313 -1.7487 -4.89609 0
M  V30 4212 C 396.998 -1.05712 -4.9105 0
M  V30 4213 C 398.992 -2.82996 -5.71132 0
M  V30 4214 C 396.679 -2.14154 -5.72347 0
M  V30 4215 C 397.677 -3.0263 -6.12294 0
M  V30 4216 O 397.365 -4.09198 -6.91962 0
M  V30 4217 H 397.097 -0.0236833 -0.675585 0
M  V30 4218 H 399.651 -0.715956 -1.92518 0
M  V30 4219 H 397.881 1.12044 -3.70112 0
M  V30 4220 H 399.57 0.806233 -3.97812 0
M  V30 4221 H 400.336 -1.60388 -4.57712 0
M  V30 4222 H 396.215 -0.377788 -4.59449 0
M  V30 4223 H 399.759 -3.52083 -6.02232 0
M  V30 4224 H 395.656 -2.28626 -6.03656 0
M  V30 4225 H 396.424 -4.06726 -7.10293 0
M  V30 4226 N 399.087 1.5561 -0.249682 0
M  V30 4227 C 400.037 2.18157 0.662673 0
M  V30 4228 C 401.021 1.1383 1.13717 0
M  V30 4229 O 402.213 1.39731 1.08648 0
M  V30 4230 C 399.342 2.88672 1.85805 0
M  V30 4231 C 398.428 4.00258 1.40193 0
M  V30 4232 N 398.819 5.01473 0.660213 0
M  V30 4233 C 397.117 4.12864 1.68698 0
M  V30 4234 C 397.818 5.80155 0.423695 0
M  V30 4235 N 396.794 5.34533 0.988721 0
M  V30 4236 H 400.596 2.93769 0.0878688 0
M  V30 4237 H 398.11 1.62316 -0.0521183 0
M  V30 4238 H 400.107 3.31912 2.5227 0
M  V30 4239 H 398.767 2.14564 2.43705 0
M  V30 4240 H 399.778 5.16971 0.310047 0
M  V30 4241 H 396.455 3.4993 2.27717 0
M  V30 4242 H 397.845 6.71688 -0.168616 0
M  V30 4243 N 400.565 -0.0233959 1.57583 0
M  V30 4244 C 401.814 -0.712133 1.8871 0
M  V30 4245 C 402.127 -1.76217 0.848944 0
M  V30 4246 O 403.333 -2.50389 1.04964 0
M  V30 4247 C 401.789 -1.3177 3.3491 0
M  V30 4248 C 401.397 -0.303715 4.46969 0
M  V30 4249 C 403.141 -1.98598 3.75179 0
M  V30 4250 C 401.048 -0.917945 5.84233 0
M  V30 4251 H 399.978 -0.269735 0.704101 0
M  V30 4252 H 402.629 0.0333114 1.8347 0
M  V30 4253 H 401.011 -2.11304 3.34913 0
M  V30 4254 H 402.185 0.465325 4.58445 0
M  V30 4255 H 400.5 0.2628 4.1557 0
M  V30 4256 H 403.097 -2.45416 4.75053 0
M  V30 4257 H 403.44 -2.80659 3.07468 0
M  V30 4258 H 403.973 -1.25831 3.77374 0
M  V30 4259 H 400.712 -0.136633 6.55358 0
M  V30 4260 H 400.232 -1.65669 5.76467 0
M  V30 4261 H 401.911 -1.4236 6.31144 0
M  V30 4262 N 402.043 -1.548 -0.295768 0
M  V30 4263 C 403.459 -1.4613 -0.641722 0
M  V30 4264 C 403.659 -0.656771 -1.90496 0
M  V30 4265 O 402.715 -0.166547 -2.5195 0
M  V30 4266 C 404.028 -2.90141 -0.789852 0
M  V30 4267 C 405.576 -3.00216 -0.885396 0
M  V30 4268 C 406.051 -4.45434 -1.06548 0
M  V30 4269 N 407.542 -4.49166 -1.13156 0
M  V30 4270 C 408.277 -5.58717 -1.28929 0
M  V30 4271 N 407.773 -6.78182 -1.41567 0
M  V30 4272 N 409.566 -5.46415 -1.31859 0
M  V30 4273 H 401.717 -2.05574 0.534147 0
M  V30 4274 H 403.98 -0.931259 0.177372 0
M  V30 4275 H 403.686 -3.51635 0.0675598 0
M  V30 4276 H 403.56 -3.37859 -1.67724 0
M  V30 4277 H 405.947 -2.38833 -1.73329 0
M  V30 4278 H 406.028 -2.55787 0.0261185 0
M  V30 4279 H 405.672 -5.07413 -0.222335 0
M  V30 4280 H 405.602 -4.87499 -1.9913 0
M  V30 4281 H 408.093 -3.631 -1.04721 0
M  V30 4282 H 408.406 -7.57428 -1.53372 0
M  V30 4283 H 406.751 -6.81037 -1.38613 0
M  V30 4284 H 409.942 -4.5203 -1.21601 0
M  V30 4285 H 410.115 -6.31841 -1.43808 0
M  V30 4286 N 403.521 0.559213 -1.47345 0
M  V30 4287 C 404.746 1.34676 -1.57725 0
M  V30 4288 C 405.171 1.86723 -0.227164 0
M  V30 4289 O 404.529 1.6286 0.796642 0
M  V30 4290 C 404.577 2.49399 -2.60447 0
M  V30 4291 O 403.681 3.51567 -2.15578 0
M  V30 4292 H 403.022 0.400115 -0.52991 0
M  V30 4293 H 405.552 0.676009 -1.93109 0
M  V30 4294 H 405.562 2.95996 -2.80803 0
M  V30 4295 H 404.237 2.10873 -3.58477 0
M  V30 4296 H 402.814 3.11289 -2.05313 0
M  V30 4297 N 404.999 1.35443 0.805782 0
M  V30 4298 C 406.248 1.28097 1.55801 0
M  V30 4299 C 406.561 -0.142428 1.95081 0
M  V30 4300 O 407.767 -0.33817 2.69386 0
M  V30 4301 C 406.223 2.24653 2.81174 0
M  V30 4302 C 405.831 3.72342 2.49129 0
M  V30 4303 C 407.575 2.2625 3.59181 0
M  V30 4304 C 405.482 4.60719 3.70799 0
M  V30 4305 H 404.412 0.475937 0.584808 0
M  V30 4306 H 407.063 1.60712 0.885661 0
M  V30 4307 H 405.445 1.85011 3.50124 0
M  V30 4308 H 406.619 4.20624 1.88181 0
M  V30 4309 H 404.934 3.73361 1.84366 0
M  V30 4310 H 407.531 2.89495 4.49552 0
M  V30 4311 H 407.874 1.26647 3.96568 0
M  V30 4312 H 408.407 2.64426 2.97193 0
M  V30 4313 H 405.146 5.61324 3.3852 0
M  V30 4314 H 404.666 4.17163 4.3097 0
M  V30 4315 H 406.345 4.76182 4.38018 0
M  V30 4316 N 406.477 -1.02803 1.19454 0
M  V30 4317 C 407.407 -2.12999 0.956758 0
M  V30 4318 C 408.388 -1.69743 -0.110188 0
M  V30 4319 O 409.573 -1.94148 0.0450038 0
M  V30 4320 C 406.703 -3.43746 0.495553 0
M  V30 4321 C 405.657 -4.00688 1.50443 0
M  V30 4322 C 404.983 -5.27067 0.900275 0
M  V30 4323 C 406.283 -4.35397 2.8849 0
M  V30 4324 H 407.977 -2.33148 1.87836 0
M  V30 4325 H 405.523 -1.12045 0.904539 0
M  V30 4326 H 407.476 -4.2021 0.316493 0
M  V30 4327 H 406.2 -3.23321 -0.461646 0
M  V30 4328 H 404.859 -3.2632 1.67065 0
M  V30 4329 H 404.507 -5.02959 -0.064503 0
M  V30 4330 H 404.207 -5.66127 1.57397 0
M  V30 4331 H 405.731 -6.06196 0.73203 0
M  V30 4332 H 407.145 -5.02795 2.75446 0
M  V30 4333 H 405.542 -4.85541 3.52661 0
M  V30 4334 H 406.612 -3.44662 3.41081 0
M  V30 4335 N 407.956 -0.998596 -1.21925 0
M  V30 4336 C 408.906 -0.524743 -2.21879 0
M  V30 4337 C 409.89 0.41017 -1.55584 0
M  V30 4338 O 411.082 0.236063 -1.75419 0
M  V30 4339 C 408.211 0.153636 -3.42956 0
M  V30 4340 C 407.297 -0.801918 -4.16449 0
M  V30 4341 N 407.688 -1.95211 -4.66611 0
M  V30 4342 C 405.986 -0.618972 -4.41684 0
M  V30 4343 C 406.687 -2.55234 -5.22715 0
M  V30 4344 N 405.663 -1.83451 -5.1171 0
M  V30 4345 H 409.465 -1.40189 -2.58311 0
M  V30 4346 H 406.979 -0.86159 -1.3766 0
M  V30 4347 H 408.976 0.510534 -4.13762 0
M  V30 4348 H 407.636 1.02684 -3.08036 0
M  V30 4349 H 408.647 -2.33271 -4.62391 0
M  V30 4350 H 405.324 0.207694 -4.16983 0
M  V30 4351 H 406.714 -3.52471 -5.72026 0
M  V30 4352 N 409.434 1.37368 -0.772513 0
M  V30 4353 C 410.683 1.98918 -0.333861 0
M  V30 4354 C 410.996 1.62017 1.09589 0
M  V30 4355 O 412.202 2.16676 1.63596 0
M  V30 4356 C 410.658 3.55735 -0.545971 0
M  V30 4357 C 410.266 4.01573 -1.98603 0
M  V30 4358 C 412.01 4.24156 -0.170979 0
M  V30 4359 C 409.917 5.51102 -2.1457 0
M  V30 4360 H 408.847 0.744214 -0.121085 0
M  V30 4361 H 411.498 1.56888 -0.95175 0
M  V30 4362 H 409.88 3.95748 0.141387 0
M  V30 4363 H 411.054 3.72803 -2.7084 0
M  V30 4364 H 409.369 3.45937 -2.31769 0
M  V30 4365 H 411.966 5.34024 -0.26878 0
M  V30 4366 H 412.309 4.06917 0.878855 0
M  V30 4367 H 412.842 3.89447 -0.810914 0
M  V30 4368 H 409.581 5.73268 -3.17875 0
M  V30 4369 H 409.101 5.81554 -1.46817 0
M  V30 4370 H 410.78 6.17083 -1.94468 0
M  V30 4371 N 410.912 0.523116 1.48665 0
M  V30 4372 C 412.323 0.0808997 1.86525 0
M  V30 4373 C 412.674 -1.33975 1.43336 0
M  V30 4374 O 411.799 -2.00221 0.821009 0
M  V30 4375 C 412.394 0.140037 3.3851 0
M  V30 4376 C 410.953 -0.246948 3.75589 0
M  V30 4377 C 410.1 0.502845 2.72703 0
M  V30 4378 H 413.051 0.734736 1.40667 0
M  V30 4379 H 413.072 -0.649945 3.74908 0
M  V30 4380 H 412.584 1.17412 3.69914 0
M  V30 4381 H 410.685 -1.28343 3.49798 0
M  V30 4382 H 410.798 0.0878859 4.79019 0
M  V30 4383 H 409.162 -0.0500581 2.54651 0
M  V30 4384 H 409.945 1.53743 3.0695 0
M  V30 4385 N 412.39 -1.55475 0.257931 0
M  V30 4386 C 413.615 -2.04064 -0.370488 0
M  V30 4387 C 414.04 -1.13565 -1.49948 0
M  V30 4388 O 413.398 -0.130781 -1.80828 0
M  V30 4389 C 413.446 -3.50554 -0.845237 0
M  V30 4390 O 412.55 -3.63173 -1.95394 0
M  V30 4391 H 411.891 -0.659257 -0.0792243 0
M  V30 4392 H 414.421 -2.00903 0.387212 0
M  V30 4393 H 414.431 -3.91588 -1.14555 0
M  V30 4394 H 413.106 -4.15896 -0.0191259 0
M  V30 4395 H 411.683 -3.34039 -1.65748 0
M  V30 4396 N 413.868 0.0150385 -1.57593 0
M  V30 4397 C 414.831 0.995996 -2.06428 0
M  V30 4398 C 415.831 1.2818 -0.970903 0
M  V30 4399 O 417.021 1.22949 -1.23406 0
M  V30 4400 C 414.153 2.32506 -2.49307 0
M  V30 4401 H 415.346 0.573873 -2.94358 0
M  V30 4402 H 412.899 0.262186 -1.54085 0
M  V30 4403 H 413.634 2.79438 -1.64575 0
M  V30 4404 H 413.419 2.13087 -3.29145 0
M  V30 4405 H 414.909 3.02906 -2.87468 0
M  V30 4406 N 415.346 1.54954 0.287554 0
M  V30 4407 C 416.256 1.8991 1.37736 0
M  V30 4408 C 417.272 0.794701 1.54792 0
M  V30 4409 O 418.448 1.09243 1.69198 0
M  V30 4410 C 415.513 2.15108 2.71899 0
M  V30 4411 C 414.574 3.38752 2.63715 0
M  V30 4412 C 413.807 3.62739 3.91479 0
M  V30 4413 O 414.03 2.89492 4.91478 0
M  V30 4414 O 412.964 4.56267 3.92561 0
M  V30 4415 H 416.79 2.82652 1.11092 0
M  V30 4416 H 414.375 1.41315 0.484807 0
M  V30 4417 H 416.257 2.32806 3.51254 0
M  V30 4418 H 414.932 1.25551 2.9836 0
M  V30 4419 H 413.839 3.26405 1.82786 0
M  V30 4420 H 415.172 4.28483 2.42205 0
M  V30 4421 N 416.824 -0.551391 1.4764 0
M  V30 4422 C 417.754 -1.66757 1.63445 0
M  V30 4423 C 418.735 -1.63077 0.483742 0
M  V30 4424 O 419.92 -1.80607 0.71377 0
M  V30 4425 C 417.05 -3.05387 1.65396 0
M  V30 4426 C 416.004 -3.23918 2.79752 0
M  V30 4427 C 415.33 -4.63393 2.66779 0
M  V30 4428 C 416.63 -3.08735 4.21284 0
M  V30 4429 H 418.324 -1.53786 2.56886 0
M  V30 4430 H 415.87 -0.738415 1.23626 0
M  V30 4431 H 417.823 -3.83325 1.75043 0
M  V30 4432 H 416.547 -3.19332 0.685195 0
M  V30 4433 H 415.206 -2.48391 2.69625 0
M  V30 4434 H 414.854 -4.74144 1.67918 0
M  V30 4435 H 414.554 -4.7674 3.43501 0
M  V30 4436 H 416.078 -5.43458 2.78364 0
M  V30 4437 H 417.492 -3.76484 4.32357 0
M  V30 4438 H 415.889 -3.33588 4.98838 0
M  V30 4439 H 416.959 -2.0541 4.39243 0
M  V30 4440 N 418.302 -1.35869 -0.798587 0
M  V30 4441 C 419.212 -1.31578 -1.94228 0
M  V30 4442 C 420.228 -0.21939 -1.72611 0
M  V30 4443 O 421.404 -0.450167 -1.96305 0
M  V30 4444 C 418.469 -1.09528 -3.28944 0
M  V30 4445 C 417.53 -2.28556 -3.63402 0
M  V30 4446 C 416.763 -2.07549 -4.9169 0
M  V30 4447 O 416.986 -1.046 -5.60727 0
M  V30 4448 O 415.92 -2.95106 -5.24591 0
M  V30 4449 H 419.746 -2.27847 -2.00796 0
M  V30 4450 H 417.331 -1.16322 -0.937526 0
M  V30 4451 H 419.213 -0.991127 -4.09579 0
M  V30 4452 H 417.888 -0.16315 -3.23289 0
M  V30 4453 H 416.795 -2.44538 -2.83112 0
M  V30 4454 H 418.128 -3.20244 -3.73771 0
M  V30 4455 N 419.78 1.02168 -1.19998 0
M  V30 4456 C 421.057 1.72816 -0.916191 0
M  V30 4457 C 421.437 2.03081 0.576325 0
M  V30 4458 O 420.785 1.69122 1.53656 0
M  V30 4459 C 420.995 2.9997 -1.78378 0
M  V30 4460 C 422.343 3.73336 -2.02251 0
M  V30 4461 O 423.367 3.09914 -1.75589 0
M  V30 4462 O 422.226 4.87371 -2.47249 0
M  V30 4463 H 419.32 0.752924 -0.342103 0
M  V30 4464 H 421.866 1.08062 -1.30846 0
M  V30 4465 H 420.638 2.73888 -2.79466 0
M  V30 4466 H 420.261 3.72464 -1.39126 0
M  V30 4467 N 421.258 1.00505 1.21394 0
M  V30 4468 C 422.483 0.706367 1.95001 0
M  V30 4469 C 422.908 -0.72463 1.73582 0
M  V30 4470 O 422.266 -1.49702 1.0227 0
M  V30 4471 C 422.314 1.03299 3.45487 0
M  V30 4472 O 421.418 0.138275 4.12168 0
M  V30 4473 H 420.759 0.263175 0.609619 0
M  V30 4474 H 423.289 1.34531 1.54151 0
M  V30 4475 H 423.299 0.979872 3.96059 0
M  V30 4476 H 421.974 2.07567 3.60401 0
M  V30 4477 H 420.551 0.247928 3.72075 0
M  V30 4478 N 422.737 -1.36956 0.779787 0
M  V30 4479 C 423.985 -1.99097 0.347079 0
M  V30 4480 C 424.306 -1.62206 -1.08232 0
M  V30 4481 O 423.576 -0.891373 -1.74446 0
M  V30 4482 H 422.156 -0.736409 0.125342 0
M  V30 4483 H 424.818 -1.67308 0.999696 0
M  V30 4484 H 423.914 -3.09107 0.431162 0
M  V30 4485 N 424.215 -0.530993 -1.48385 0
M  V30 4486 C 425.443 -0.00134122 -2.069 0
M  V30 4487 C 425.858 1.2805 -1.3874 0
M  V30 4488 O 425.215 1.76204 -0.475244 0
M  V30 4489 C 425.266 0.225256 -3.60798 0
M  V30 4490 O 424.987 -1.0058 -4.26398 0
M  V30 4491 C 426.488 0.795172 -4.3611 0
M  V30 4492 H 423.708 -0.0339704 -0.67014 0
M  V30 4493 H 426.252 -0.736926 -1.90761 0
M  V30 4494 H 424.407 0.910891 -3.76539 0
M  V30 4495 H 424.821 -0.787165 -5.1856 0
M  V30 4496 H 426.295 0.903143 -5.44562 0
M  V30 4497 H 426.772 1.80031 -4.00606 0
M  V30 4498 H 427.378 0.146069 -4.25049 0
M  V30 4499 N 425.693 1.55336 -0.266172 0
M  V30 4500 C 426.923 2.03506 0.356239 0
M  V30 4501 C 427.331 1.14426 1.50676 0
M  V30 4502 O 426.674 0.155043 1.83045 0
M  V30 4503 C 426.736 3.47848 0.90785 0
M  V30 4504 C 426.4 4.56861 -0.112888 0
M  V30 4505 C 427.397 5.11528 -0.929264 0
M  V30 4506 C 425.082 5.01704 -0.244546 0
M  V30 4507 C 427.076 6.09549 -1.86357 0
M  V30 4508 C 424.763 5.99553 -1.18234 0
M  V30 4509 C 425.761 6.53356 -1.99036 0
M  V30 4510 O 425.449 7.49293 -2.91231 0
M  V30 4511 H 425.181 0.670444 0.08649 0
M  V30 4512 H 427.735 2.01598 -0.39337 0
M  V30 4513 H 425.965 3.46967 1.70737 0
M  V30 4514 H 427.654 3.79407 1.44239 0
M  V30 4515 H 428.42 4.77701 -0.838237 0
M  V30 4516 H 424.299 4.59477 0.374359 0
M  V30 4517 H 427.843 6.51469 -2.49467 0
M  V30 4518 H 423.74 6.32799 -1.27421 0
M  V30 4519 H 424.508 7.66978 -2.8581 0
M  V30 4520 N 427.171 -0.0066808 1.57599 0
M  V30 4521 C 428.399 -0.704087 1.94551 0
M  V30 4522 C 428.814 -1.67677 0.867746 0
M  V30 4523 O 428.171 -1.8185 -0.153925 0
M  V30 4524 C 428.222 -1.44177 3.31505 0
M  V30 4525 O 427.943 -0.508097 4.35144 0
M  V30 4526 C 429.444 -2.23429 3.82876 0
M  V30 4527 H 426.664 -0.196523 0.641576 0
M  V30 4528 H 429.208 0.042453 2.04456 0
M  V30 4529 H 427.363 -2.13999 3.22929 0
M  V30 4530 H 427.777 -1.02782 5.14331 0
M  V30 4531 H 429.251 -2.70552 4.8115 0
M  V30 4532 H 429.728 -3.05818 3.15233 0
M  V30 4533 H 430.334 -1.58636 3.94607 0
M  V30 4534 N 428.649 -1.55105 -0.279332 0
M  V30 4535 C 429.889 -1.7716 -1.01949 0
M  V30 4536 C 430.253 -0.557511 -1.83728 0
M  V30 4537 O 431.454 -0.656198 -2.60667 0
M  V30 4538 C 429.725 -3.0372 -1.88385 0
M  V30 4539 S 431.284 -3.46868 -2.68752 0
M  V30 4540 H 428.102 -0.62253 -0.343478 0
M  V30 4541 H 430.704 -1.93329 -0.290572 0
M  V30 4542 H 429.408 -3.90184 -1.2722 0
M  V30 4543 H 428.939 -2.902 -2.65608 0
M  V30 4544 H 430.954 -3.05643 -3.90892 0
M  V30 4545 N 430.127 0.543554 -1.4793 0
M  V30 4546 C 431.075 1.67039 -1.61866 0
M  V30 4547 C 432.069 1.62294 -0.48549 0
M  V30 4548 O 433.275 1.67315 -0.66376 0
M  V30 4549 H 429.65 0.552954 -0.509652 0
M  V30 4550 H 431.621 1.52426 -2.56533 0
M  V30 4551 C 430.37 3.05357 -1.6629 0
M  V30 4552 H 429.693 3.09696 -2.5284 0
M  V30 4553 H 431.133 3.83855 -1.80088 0
M  V30 4554 C 429.592 3.34531 -0.398861 0
M  V30 4555 O 430.122 3.98649 0.494162 0
M  V30 4556 N 428.328 2.89299 -0.2747 0
M  V30 4557 H 427.875 2.37298 -1.00236 0
M  V30 4558 H 427.833 3.09188 0.570075 0
M  V30 4559 N 431.605 1.3629 0.791371 0
M  V30 4560 C 432.851 1.30605 1.55146 0
M  V30 4561 C 433.184 -0.115042 1.93859 0
M  V30 4562 O 432.459 -1.06798 1.62556 0
M  V30 4563 C 432.742 2.22692 2.82985 0
M  V30 4564 C 432.595 3.73489 2.50651 0
M  V30 4565 C 433.914 2.13588 3.84796 0
M  V30 4566 H 431.033 0.475761 0.562868 0
M  V30 4567 H 433.675 1.66825 0.909358 0
M  V30 4568 H 431.825 1.91933 3.37778 0
M  V30 4569 H 433.497 4.14758 2.01924 0
M  V30 4570 H 431.74 3.93021 1.83622 0
M  V30 4571 H 432.411 4.3333 3.41949 0
M  V30 4572 H 434.887 2.40659 3.39445 0
M  V30 4573 H 433.763 2.80195 4.71998 0
M  V30 4574 H 434.024 1.12256 4.27611 0
M  V30 4575 N 433.083 -1.0153 1.20538 0
M  V30 4576 C 434.311 -1.78746 1.04199 0
M  V30 4577 C 434.726 -1.84323 -0.408733 0
M  V30 4578 O 434.083 -1.29714 -1.28377 0
M  V30 4579 C 434.134 -3.23152 1.62035 0
M  V30 4580 O 433.855 -3.17918 3.0143 0
M  V30 4581 C 435.356 -4.16911 1.50666 0
M  V30 4582 H 432.576 -0.56208 0.366479 0
M  V30 4583 H 435.12 -1.27794 1.59653 0
M  V30 4584 H 433.275 -3.71248 1.10697 0
M  V30 4585 H 433.689 -4.08567 3.28897 0
M  V30 4586 H 435.163 -5.16072 1.95892 0
M  V30 4587 H 435.64 -4.36791 0.459363 0
M  V30 4588 H 436.246 -3.74698 2.01201 0
M  V30 4589 N 434.561 -1.01147 -1.20859 0
M  V30 4590 C 435.471 -0.58686 -2.27141 0
M  V30 4591 C 436.487 0.373198 -1.69951 0
M  V30 4592 O 437.663 0.235423 -2.00019 0
M  V30 4593 C 434.728 0.0733602 -3.46622 0
M  V30 4594 C 433.789 -0.931995 -4.19061 0
M  V30 4595 C 433.022 -0.303186 -5.32838 0
M  V30 4596 O 433.245 0.898395 -5.63281 0
M  V30 4597 O 432.179 -1.01735 -5.9324 0
M  V30 4598 H 436.005 -1.47155 -2.65667 0
M  V30 4599 H 433.59 -0.780689 -1.2738 0
M  V30 4600 H 435.472 0.442333 -4.19072 0
M  V30 4601 H 434.147 0.932329 -3.09983 0
M  V30 4602 H 433.054 -1.35224 -3.48805 0
M  V30 4603 H 434.387 -1.76076 -4.59628 0
M  V30 4604 N 436.039 1.36541 -0.78704 0
M  V30 4605 C 437.264 2.0409 -0.369053 0
M  V30 4606 C 437.689 1.58957 1.00569 0
M  V30 4607 O 437.047 0.756926 1.64743 0
M  V30 4608 C 437.095 3.57924 -0.438466 0
M  V30 4609 O 436.199 4.08642 0.555479 0
M  V30 4610 H 435.54 0.645142 -0.157122 0
M  V30 4611 H 438.07 1.74545 -1.06749 0
M  V30 4612 H 438.08 4.06887 -0.301218 0
M  V30 4613 H 436.755 3.90127 -1.44132 0
M  V30 4614 H 435.332 3.70958 0.380088 0
M  V30 4615 N 437.518 0.538854 1.48102 0
M  V30 4616 C 438.764 0.00801365 2.02798 0
M  V30 4617 C 439.097 -1.3309 1.41424 0
M  V30 4618 O 438.372 -1.86169 0.563158 0
M  V30 4619 C 438.655 -0.104589 3.59948 0
M  V30 4620 C 438.508 1.26012 4.31788 0
M  V30 4621 C 439.827 -0.827055 4.32259 0
M  V30 4622 H 436.946 0.00438624 0.736987 0
M  V30 4623 H 439.588 0.6976 1.7673 0
M  V30 4624 H 437.738 -0.691893 3.82289 0
M  V30 4625 H 439.41 1.88922 4.2084 0
M  V30 4626 H 437.653 1.83968 3.92859 0
M  V30 4627 H 438.324 1.13424 5.40221 0
M  V30 4628 H 440.8 -0.328578 4.14801 0
M  V30 4629 H 439.676 -0.87476 5.41885 0
M  V30 4630 H 439.937 -1.87927 4.0017 0
M  V30 4631 N 438.996 -1.55193 0.274407 0
M  V30 4632 C 439.944 -2.23924 -0.629362 0
M  V30 4633 C 440.938 -1.23602 -1.1584 0
M  V30 4634 O 442.144 -1.41535 -1.11211 0
M  V30 4635 H 438.519 -0.718637 -0.221507 0
M  V30 4636 H 440.49 -2.98388 -0.0268322 0
M  V30 4637 C 439.239 -2.97329 -1.80252 0
M  V30 4638 H 438.562 -3.74313 -1.40462 0
M  V30 4639 H 440.002 -3.48743 -2.41152 0
M  V30 4640 C 438.461 -2.0276 -2.69054 0
M  V30 4641 O 438.991 -1.57836 -3.69392 0
M  V30 4642 N 437.197 -1.69275 -2.36208 0
M  V30 4643 H 436.744 -2.06004 -1.54661 0
M  V30 4644 H 436.702 -1.06271 -2.95895 0
M  V30 4645 N 440.474 -0.00167713 -1.576 0
M  V30 4646 C 441.751 0.719951 -1.81868 0
M  V30 4647 C 442.131 1.91895 -0.879747 0
M  V30 4648 O 441.479 2.28389 0.0711423 0
M  V30 4649 C 441.689 1.12409 -3.30402 0
M  V30 4650 C 443.037 1.52724 -3.96182 0
M  V30 4651 O 444.061 1.21784 -3.34734 0
M  V30 4652 O 442.92 2.10265 -5.04431 0
M  V30 4653 H 440.014 0.350707 -0.748955 0
M  V30 4654 H 442.56 -0.0272597 -1.69678 0
M  V30 4655 H 441.332 0.269532 -3.90371 0
M  V30 4656 H 440.955 1.93035 -3.47596 0
M  V30 4657 N 441.952 1.55251 0.271103 0
M  V30 4658 C 442.902 1.84649 1.33749 0
M  V30 4659 C 443.886 0.705529 1.44607 0
M  V30 4660 O 445.078 0.966916 1.48256 0
M  V30 4661 C 442.207 2.12354 2.69742 0
M  V30 4662 C 441.293 3.32714 2.62988 0
M  V30 4663 N 441.684 4.52575 2.25853 0
M  V30 4664 C 439.982 3.35341 2.94045 0
M  V30 4665 C 440.683 5.34669 2.29136 0
M  V30 4666 N 439.659 4.73123 2.67685 0
M  V30 4667 H 443.461 2.74865 1.0405 0
M  V30 4668 H 440.975 1.55152 0.479738 0
M  V30 4669 H 442.972 2.31572 3.4667 0
M  V30 4670 H 441.632 1.23422 3.00328 0
M  V30 4671 H 442.643 4.78639 1.978 0
M  V30 4672 H 439.32 2.56608 3.2933 0
M  V30 4673 H 440.71 6.40509 2.02971 0
M  V30 4674 N 443.43 -0.535701 1.48216 0
M  V30 4675 C 444.362 -1.65662 1.58394 0
M  V30 4676 C 445.375 -1.5591 0.468607 0
M  V30 4677 O 446.564 -1.62475 0.7392 0
M  V30 4678 C 443.664 -3.04276 1.4923 0
M  V30 4679 C 442.837 -3.39567 2.75705 0
M  V30 4680 C 441.896 -4.57436 2.60075 0
M  V30 4681 O 440.922 -4.60942 3.33948 0
M  V30 4682 N 442.124 -5.55259 1.69315 0
M  V30 4683 H 444.889 -1.5737 2.55058 0
M  V30 4684 H 442.45 -0.722845 1.44867 0
M  V30 4685 H 444.442 -3.80994 1.36477 0
M  V30 4686 H 443.012 -3.06677 0.605632 0
M  V30 4687 H 442.232 -2.52083 3.03064 0
M  V30 4688 H 443.52 -3.59929 3.59623 0
M  V30 4689 H 442.918 -5.552 1.08489 0
M  V30 4690 H 441.475 -6.31218 1.62504 0
M  V30 4691 N 444.908 -1.36708 -0.784132 0
M  V30 4692 C 446.185 -1.21776 -1.53069 0
M  V30 4693 C 446.565 0.193876 -2.10208 0
M  V30 4694 O 445.913 1.20012 -1.94446 0
M  V30 4695 C 446.123 -2.30395 -2.62143 0
M  V30 4696 C 447.471 -2.67325 -3.29882 0
M  V30 4697 O 448.495 -2.29478 -2.7243 0
M  V30 4698 O 447.354 -3.32485 -4.33724 0
M  V30 4699 H 444.448 -0.474459 -0.677361 0
M  V30 4700 H 446.994 -1.48454 -0.82216 0
M  V30 4701 H 445.766 -3.2498 -2.17953 0
M  V30 4702 H 445.389 -2.05112 -3.40609 0
M  V30 4703 N 446.386 1.0089 -1.21074 0
M  V30 4704 C 447.296 2.13039 -0.982425 0
M  V30 4705 C 448.312 1.73881 0.0642161 0
M  V30 4706 O 449.488 2.01012 -0.12496 0
M  V30 4707 C 446.553 3.42377 -0.545803 0
M  V30 4708 C 445.614 3.95731 -1.6642 0
M  V30 4709 C 444.847 5.18896 -1.24832 0
M  V30 4710 O 445.07 5.70273 -0.120265 0
M  V30 4711 O 444.004 5.65597 -2.05873 0
M  V30 4712 H 447.83 2.35175 -1.92163 0
M  V30 4713 H 445.415 1.1142 -0.995285 0
M  V30 4714 H 447.297 4.20244 -0.311912 0
M  V30 4715 H 445.972 3.21639 0.364727 0
M  V30 4716 H 444.879 3.19108 -1.95246 0
M  V30 4717 H 446.212 4.20872 -2.55201 0
M  V30 4718 N 447.864 1.01787 1.20321 0
M  V30 4719 C 448.811 0.589197 2.23153 0
M  V30 4720 C 449.781 -0.391367 1.61423 0
M  V30 4721 O 450.966 -0.290518 1.88575 0
M  V30 4722 C 448.106 -0.0650747 3.45039 0
M  V30 4723 C 447.219 0.960207 4.21194 0
M  V30 4724 C 446.354 0.276854 5.30478 0
M  V30 4725 C 445.393 1.2888 5.98378 0
M  V30 4726 N 444.53 0.632031 6.99249 0
M  V30 4727 H 449.37 1.47071 2.59179 0
M  V30 4728 H 446.907 0.736192 1.27352 0
M  V30 4729 H 448.865 -0.461552 4.14639 0
M  V30 4730 H 447.495 -0.910233 3.09701 0
M  V30 4731 H 446.547 1.47484 3.50646 0
M  V30 4732 H 447.859 1.72977 4.67847 0
M  V30 4733 H 447.013 -0.175056 6.06447 0
M  V30 4734 H 445.752 -0.525004 4.84866 0
M  V30 4735 H 444.757 1.75109 5.21169 0
M  V30 4736 H 445.982 2.09196 6.46076 0
M  V30 4737 H 443.928 -0.149935 6.55829 0
M  V30 4738 H 443.845 1.33964 7.44036 0
M  V30 4739 H 445.113 0.203755 7.79234 0
M  V30 4740 N 449.342 -1.36122 0.79427 0
M  V30 4741 C 450.305 -2.28309 0.201889 0
M  V30 4742 C 451.305 -1.49041 -0.603603 0
M  V30 4743 O 452.495 -1.68964 -0.423888 0
M  V30 4744 C 449.627 -3.3321 -0.719978 0
M  V30 4745 H 450.82 -2.82208 1.01481 0
M  V30 4746 H 448.373 -1.45768 0.564037 0
M  V30 4747 H 449.108 -2.84475 -1.55706 0
M  V30 4748 H 448.893 -3.91835 -0.144266 0
M  V30 4749 H 450.383 -4.02044 -1.12916 0
M  V30 4750 N 450.82 -0.546701 -1.47814 0
M  V30 4751 C 452.069 -0.0166497 -2.01693 0
M  V30 4752 C 452.382 1.33721 -1.42752 0
M  V30 4753 O 453.588 1.95658 -1.8823 0
M  V30 4754 C 452.044 0.0206769 -3.59894 0
M  V30 4755 C 451.652 -1.3293 -4.27824 0
M  V30 4756 C 453.396 0.498674 -4.21561 0
M  V30 4757 C 451.303 -1.25165 -5.78003 0
M  V30 4758 H 450.233 -0.0024541 -0.753996 0
M  V30 4759 H 452.884 -0.692984 -1.69912 0
M  V30 4760 H 451.266 0.76244 -3.88591 0
M  V30 4761 H 452.44 -2.08795 -4.10781 0
M  V30 4762 H 450.755 -1.74438 -3.78101 0
M  V30 4763 H 453.352 0.575 -5.31599 0
M  V30 4764 H 453.695 1.5083 -3.88016 0
M  V30 4765 H 454.228 -0.18791 -3.97356 0
M  V30 4766 H 450.967 -2.23695 -6.1615 0
M  V30 4767 H 450.487 -0.53464 -5.97412 0
M  V30 4768 H 452.166 -0.949299 -6.39998 0
M  V30 4769 N 452.299 1.55045 -0.282633 0
M  V30 4770 C 453.247 2.24254 0.617478 0
M  V30 4771 C 454.241 1.24215 1.15183 0
M  V30 4772 O 455.447 1.42123 1.10459 0
M  V30 4773 H 451.822 0.719801 0.217693 0
M  V30 4774 H 453.793 2.98398 0.0110076 0
M  V30 4775 C 452.542 2.98281 1.78672 0
M  V30 4776 H 451.865 3.75053 1.38475 0
M  V30 4777 H 453.305 3.50017 2.393 0
M  V30 4778 C 451.764 2.04184 2.67975 0
M  V30 4779 O 452.294 1.59792 3.6855 0
M  V30 4780 N 450.5 1.70526 2.35307 0
M  V30 4781 H 450.047 2.06821 1.53567 0
M  V30 4782 H 450.005 1.07839 2.95327 0
M  V30 4783 N 453.777 0.010035 1.57597 0
M  V30 4784 C 455.026 -0.671945 1.90178 0
M  V30 4785 C 455.339 -1.74376 0.886131 0
M  V30 4786 O 456.545 -2.48107 1.10252 0
M  V30 4787 C 455.001 -1.24636 3.3763 0
M  V30 4788 C 454.609 -0.208838 4.47513 0
M  V30 4789 C 456.353 -1.90595 3.79307 0
M  V30 4790 C 454.26 -0.793814 5.86048 0
M  V30 4791 H 453.19 -0.25474 0.709665 0
M  V30 4792 H 455.841 0.0722206 1.83358 0
M  V30 4793 H 454.223 -2.04152 3.3932 0
M  V30 4794 H 455.397 0.562463 4.57354 0
M  V30 4795 H 453.712 0.350889 4.14919 0
M  V30 4796 H 456.309 -2.35284 4.80151 0
M  V30 4797 H 456.652 -2.74074 3.13352 0
M  V30 4798 H 457.185 -1.17798 3.79958 0
M  V30 4799 H 453.924 0.00240855 6.555 0
M  V30 4800 H 453.444 -1.53404 5.79851 0
M  V30 4801 H 455.123 -1.2894 6.34022 0
M  V30 4802 N 455.255 -1.55392 -0.262866 0
M  V30 4803 C 456.483 -1.80513 -1.01108 0
M  V30 4804 C 456.898 -0.583533 -1.79556 0
M  V30 4805 O 456.255 0.447585 -1.76926 0
M  V30 4806 C 456.306 -3.03648 -1.96164 0
M  V30 4807 O 456.027 -4.2109 -1.20893 0
M  V30 4808 C 457.528 -3.41448 -2.82715 0
M  V30 4809 H 454.748 -0.601079 -0.298236 0
M  V30 4810 H 457.292 -2.02425 -0.290582 0
M  V30 4811 H 455.447 -2.83832 -2.63663 0
M  V30 4812 H 455.861 -4.90771 -1.85051 0
M  V30 4813 H 457.335 -4.30751 -3.45192 0
M  V30 4814 H 457.812 -2.61308 -3.53008 0
M  V30 4815 H 458.418 -3.63559 -2.20693 0
M  V30 4816 N 456.733 0.527833 -1.48498 0
M  V30 4817 C 457.979 1.28545 -1.56857 0
M  V30 4818 C 458.312 1.92678 -0.242651 0
M  V30 4819 O 457.587 1.79394 0.751545 0
M  V30 4820 C 457.87 2.37314 -2.70839 0
M  V30 4821 C 457.723 1.77858 -4.13142 0
M  V30 4822 C 459.042 3.39068 -2.80573 0
M  V30 4823 H 456.161 0.466006 -0.570971 0
M  V30 4824 H 458.803 0.587784 -1.8068 0
M  V30 4825 H 456.953 2.96821 -2.50658 0
M  V30 4826 H 458.625 1.22385 -4.44769 0
M  V30 4827 H 456.868 1.08383 -4.20042 0
M  V30 4828 H 457.539 2.56624 -4.88721 0
M  V30 4829 H 460.015 2.89518 -2.98862 0
M  V30 4830 H 458.891 4.12566 -3.6205 0
M  V30 4831 H 459.152 3.9975 -1.88818 0
M  V30 4832 N 458.211 1.37122 0.776871 0
M  V30 4833 C 459.457 1.32243 1.53752 0
M  V30 4834 C 459.79 -0.0944745 1.9397 0
M  V30 4835 O 459.065 -1.05068 1.6368 0
M  V30 4836 C 459.348 2.25681 2.80607 0
M  V30 4837 C 459.201 3.76127 2.46676 0
M  V30 4838 C 460.52 2.17657 3.82509 0
M  V30 4839 H 457.639 0.481704 0.557791 0
M  V30 4840 H 460.281 1.6778 0.891612 0
M  V30 4841 H 458.431 1.95505 3.35723 0
M  V30 4842 H 460.103 4.16877 1.97513 0
M  V30 4843 H 458.346 3.94946 1.79443 0
M  V30 4844 H 459.017 4.36933 3.37333 0
M  V30 4845 H 461.493 2.44245 3.36873 0
M  V30 4846 H 460.369 2.85185 4.69 0
M  V30 4847 H 460.63 1.16785 4.26396 0
M  V30 4848 N 459.689 -1.00246 1.21608 0
M  V30 4849 C 460.599 -2.12515 0.993709 0
M  V30 4850 C 461.615 -1.73913 -0.0549939 0
M  V30 4851 O 462.791 -2.00943 0.135619 0
M  V30 4852 C 459.856 -3.42083 0.563953 0
M  V30 4853 C 458.917 -3.94843 1.68516 0
M  V30 4854 C 458.15 -5.18226 1.27582 0
M  V30 4855 O 458.373 -5.70201 0.150506 0
M  V30 4856 O 457.307 -5.64497 2.0887 0
M  V30 4857 H 461.133 -2.34152 1.93407 0
M  V30 4858 H 458.718 -1.10891 1.00118 0
M  V30 4859 H 460.6 -4.20073 0.334194 0
M  V30 4860 H 459.275 -3.21828 -0.347665 0
M  V30 4861 H 458.182 -3.18068 1.96935 0
M  V30 4862 H 459.515 -4.19512 2.5743 0
M  V30 4863 N 461.167 -1.02423 -1.1978 0
M  V30 4864 C 462.392 -0.7373 -1.93852 0
M  V30 4865 C 462.817 0.696923 -1.74713 0
M  V30 4866 O 462.175 1.48056 -1.04638 0
M  V30 4867 C 462.223 -1.08783 -3.438 0
M  V30 4868 O 461.327 -0.20383 -4.11896 0
M  V30 4869 H 460.668 -0.27284 -0.605355 0
M  V30 4870 H 463.198 -1.36966 -1.51992 0
M  V30 4871 H 463.208 -1.04276 -3.9445 0
M  V30 4872 H 461.883 -2.13274 -3.57053 0
M  V30 4873 H 460.46 -0.307091 -3.71633 0
M  V30 4874 N 462.645 1.35699 -0.801477 0
M  V30 4875 C 463.893 1.9852 -0.37871 0
M  V30 4876 C 464.214 1.63907 1.05638 0
M  V30 4877 O 463.484 0.919013 1.73006 0
M  V30 4878 H 462.064 0.734322 -0.137042 0
M  V30 4879 H 464.726 1.65697 -1.02619 0
M  V30 4880 H 463.822 3.08382 -0.480284 0
M  V30 4881 N 464.123 0.554532 1.47522 0
M  V30 4882 C 465.353 0.0342074 2.06572 0
M  V30 4883 C 465.761 -1.26375 1.40805 0
M  V30 4884 O 465.104 -1.7683 0.49769 0
M  V30 4885 C 465.166 -0.235096 3.5873 0
M  V30 4886 C 464.83 0.973024 4.46521 0
M  V30 4887 C 465.827 1.8779 4.848 0
M  V30 4888 C 463.512 1.18694 4.88075 0
M  V30 4889 C 465.506 2.98039 5.63428 0
M  V30 4890 C 463.193 2.29254 5.66468 0
M  V30 4891 C 464.191 3.18757 6.04055 0
M  V30 4892 O 463.879 4.27401 6.8087 0
M  V30 4893 H 463.611 0.041587 0.67472 0
M  V30 4894 H 466.165 0.766748 1.90552 0
M  V30 4895 H 464.395 -1.02191 3.72953 0
M  V30 4896 H 466.084 -0.700477 3.9981 0
M  V30 4897 H 466.85 1.72467 4.53299 0
M  V30 4898 H 462.729 0.49947 4.58286 0
M  V30 4899 H 466.273 3.67926 5.92685 0
M  V30 4900 H 462.17 2.4455 5.97382 0
M  V30 4901 H 462.938 4.25415 6.9926 0
M  V30 4902 N 465.601 -1.54893 0.290851 0
M  V30 4903 C 466.847 -2.0023 -0.321867 0
M  V30 4904 C 467.18 -1.179 -1.54316 0
M  V30 4905 O 466.455 -0.25293 -1.92848 0
M  V30 4906 C 466.738 -3.53456 -0.688515 0
M  V30 4907 C 466.591 -4.46532 0.541209 0
M  V30 4908 C 467.91 -4.13057 -1.51895 0
M  V30 4909 H 465.029 -0.727891 -0.115515 0
M  V30 4910 H 467.671 -1.85722 0.400931 0
M  V30 4911 H 465.821 -3.6595 -1.30433 0
M  V30 4912 H 467.493 -4.4596 1.17973 0
M  V30 4913 H 465.736 -4.17545 1.17636 0
M  V30 4914 H 466.407 -5.51475 0.240675 0
M  V30 4915 H 468.883 -4.03937 -0.99872 0
M  V30 4916 H 467.759 -5.20448 -1.74429 0
M  V30 4917 H 468.02 -3.64284 -2.50498 0
M  V30 4918 N 467.08 -0.0183926 -1.57589 0
M  V30 4919 C 468.496 0.337897 -1.55982 0
M  V30 4920 C 468.696 1.73604 -1.02294 0
M  V30 4921 O 467.752 2.43589 -0.664895 0
M  V30 4922 C 469.065 0.196305 -3.00059 0
M  V30 4923 C 470.613 0.269875 -3.11834 0
M  V30 4924 C 471.088 0.157197 -4.5773 0
M  V30 4925 N 472.579 0.214521 -4.62703 0
M  V30 4926 C 473.314 0.150955 -5.73201 0
M  V30 4927 N 472.81 0.0369212 -6.9279 0
M  V30 4928 N 474.603 0.204162 -5.61729 0
M  V30 4929 H 466.754 -0.93279 -1.90821 0
M  V30 4930 H 469.017 -0.359253 -0.877292 0
M  V30 4931 H 468.723 -0.766383 -3.43248 0
M  V30 4932 H 468.597 0.970908 -3.6449 0
M  V30 4933 H 470.984 1.22302 -2.68563 0
M  V30 4934 H 471.065 -0.534918 -2.50144 0
M  V30 4935 H 470.709 -0.792479 -5.01679 0
M  V30 4936 H 470.639 0.980717 -5.17387 0
M  V30 4937 H 473.13 0.303238 -3.76681 0
M  V30 4938 H 473.443 -0.00518321 -7.728 0
M  V30 4939 H 471.788 0.0022886 -6.95 0
M  V30 4940 H 474.979 0.291575 -4.67191 0
M  V30 4941 H 475.152 0.15116 -6.47824 0
M  V30 4942 N 468.558 1.5553 0.254621 0
M  V30 4943 C 469.488 1.9268 1.31897 0
M  V30 4944 C 470.469 0.790797 1.506 0
M  V30 4945 O 471.654 1.05045 1.63337 0
M  V30 4946 C 468.784 2.21477 2.67517 0
M  V30 4947 C 467.738 3.37256 2.63519 0
M  V30 4948 C 467.064 3.51576 4.02862 0
M  V30 4949 C 468.364 4.73157 2.21179 0
M  V30 4950 H 470.058 2.81832 1.01051 0
M  V30 4951 H 467.604 1.35599 0.484662 0
M  V30 4952 H 469.557 2.46055 3.42104 0
M  V30 4953 H 468.281 1.29144 2.99982 0
M  V30 4954 H 466.94 3.12675 1.9139 0
M  V30 4955 H 466.588 2.56676 4.32581 0
M  V30 4956 H 466.288 4.2943 4.01078 0
M  V30 4957 H 467.812 3.78467 4.79161 0
M  V30 4958 H 469.226 4.97158 2.85494 0
M  V30 4959 H 467.623 5.54058 2.30521 0
M  V30 4960 H 468.693 4.70739 1.16332 0
M  V30 4961 N 470.036 -0.519951 1.48776 0
M  V30 4962 C 470.966 -1.63253 1.66945 0
M  V30 4963 C 471.947 -1.62014 0.518224 0
M  V30 4964 O 473.132 -1.79053 0.751919 0
M  V30 4965 C 470.262 -3.0181 1.71836 0
M  V30 4966 C 469.216 -3.17911 2.8656 0
M  V30 4967 C 468.542 -4.5763 2.76548 0
M  V30 4968 C 469.842 -2.99729 4.27738 0
M  V30 4969 H 471.536 -1.48302 2.6009 0
M  V30 4970 H 469.082 -0.712026 1.25165 0
M  V30 4971 H 471.035 -3.79525 1.83135 0
M  V30 4972 H 469.759 -3.17806 0.752775 0
M  V30 4973 H 468.418 -2.42616 2.74833 0
M  V30 4974 H 468.066 -4.70476 1.77937 0
M  V30 4975 H 467.766 -4.69346 3.53536 0
M  V30 4976 H 469.29 -5.37431 2.89828 0
M  V30 4977 H 470.704 -3.67228 4.40246 0
M  V30 4978 H 469.101 -3.22932 5.05801 0
M  V30 4979 H 470.171 -1.96047 4.43502 0
M  V30 4980 N 471.514 -1.37532 -0.769588 0
M  V30 4981 C 472.762 -1.32597 -1.5252 0
M  V30 4982 C 473.083 0.0884294 -1.94799 0
M  V30 4983 O 472.353 1.03289 -1.66458 0
M  V30 4984 H 470.933 -0.487846 -0.565699 0
M  V30 4985 H 473.595 -1.72044 -0.915806 0
M  V30 4986 H 472.691 -1.96643 -2.42359 0
M  V30 4987 N 472.992 0.995999 -1.22138 0
M  V30 4988 C 473.902 2.11985 -1.00496 0
M  V30 4989 C 474.918 1.7394 0.0457701 0
M  V30 4990 O 476.094 2.00868 -0.146273 0
M  V30 4991 C 473.159 3.41779 -0.582086 0
M  V30 4992 C 472.22 3.93943 -1.70608 0
M  V30 4993 C 471.453 5.17542 -1.30328 0
M  V30 4994 O 471.676 5.70114 -0.180743 0
M  V30 4995 O 470.61 5.63382 -2.11861 0
M  V30 4996 H 474.436 2.33123 -1.94647 0
M  V30 4997 H 472.021 1.10358 -1.00705 0
M  V30 4998 H 473.903 4.1989 -0.356467 0
M  V30 4999 H 472.578 3.22007 0.330592 0
M  V30 5000 H 471.485 3.17019 -1.98619 0
M  V30 5001 H 472.818 4.18141 -2.59651 0
M  V30 5002 N 474.47 1.03057 1.19235 0
M  V30 5003 C 475.716 0.729098 1.89241 0
M  V30 5004 C 476.049 -0.740573 1.79525 0
M  V30 5005 O 475.324 -1.53946 1.18874 0
M  V30 5006 C 475.607 1.18304 3.40112 0
M  V30 5007 C 475.46 2.71406 3.5869 0
M  V30 5008 C 476.779 0.765161 4.33397 0
M  V30 5009 H 473.898 0.266338 0.687192 0
M  V30 5010 H 476.54 1.28079 1.40341 0
M  V30 5011 H 474.69 0.713672 3.81889 0
M  V30 5012 H 476.362 3.26303 3.26074 0
M  V30 5013 H 474.605 3.11717 3.01687 0
M  V30 5014 H 475.276 2.98225 4.64506 0
M  V30 5015 H 477.752 1.16889 3.99345 0
M  V30 5016 H 476.628 1.11065 5.37546 0
M  V30 5017 H 476.889 -0.332372 4.40849 0
M  V30 5018 N 475.948 -1.35272 0.808662 0
M  V30 5019 C 477.196 -1.98316 0.389233 0
M  V30 5020 C 477.517 -1.64465 -1.04767 0
M  V30 5021 O 476.787 -0.928175 -1.72516 0
M  V30 5022 H 475.367 -0.733585 0.140935 0
M  V30 5023 H 478.029 -1.6515 1.03496 0
M  V30 5024 H 477.125 -3.08123 0.496631 0
M  V30 5025 N 477.426 -0.562348 -1.47226 0
M  V30 5026 C 478.654 -0.0452275 -2.06851 0
M  V30 5027 C 479.069 1.25078 -1.41424 0
M  V30 5028 O 478.426 1.75156 -0.512513 0
M  V30 5029 C 478.477 0.148674 -3.61194 0
M  V30 5030 O 478.198 -1.09602 -4.24169 0
M  V30 5031 C 479.699 0.702488 -4.37699 0
M  V30 5032 H 476.919 -0.0481775 -0.669268 0
M  V30 5033 H 479.463 -0.777223 -1.89155 0
M  V30 5034 H 477.618 0.830817 -3.78386 0
M  V30 5035 H 478.032 -0.896982 -5.16773 0
M  V30 5036 H 479.506 0.78743 -5.46355 0
M  V30 5037 H 479.983 1.71493 -4.04335 0
M  V30 5038 H 480.589 0.0558772 -4.25263 0
M  V30 5039 N 478.904 1.54736 -0.299062 0
M  V30 5040 C 479.834 2.26409 0.571085 0
M  V30 5041 C 480.815 1.2629 1.13951 0
M  V30 5042 O 482 1.55059 1.16921 0
M  V30 5043 C 479.13 3.00338 1.74396 0
M  V30 5044 C 478.084 4.07588 1.30599 0
M  V30 5045 C 477.41 4.69222 2.56387 0
M  V30 5046 C 478.71 5.20455 0.438645 0
M  V30 5047 H 480.404 2.99388 -0.0266991 0
M  V30 5048 H 477.95 1.43993 -0.0142812 0
M  V30 5049 H 479.903 3.49198 2.35878 0
M  V30 5050 H 478.627 2.24934 2.36796 0
M  V30 5051 H 477.286 3.59575 0.71424 0
M  V30 5052 H 476.934 3.9046 3.17097 0
M  V30 5053 H 476.634 5.41653 2.27784 0
M  V30 5054 H 478.158 5.20844 3.18675 0
M  V30 5055 H 479.572 5.65221 0.959085 0
M  V30 5056 H 477.969 5.99594 0.246466 0
M  V30 5057 H 479.039 4.8192 -0.536738 0
M  V30 5058 N 480.382 0.0267497 1.57577 0
M  V30 5059 C 481.314 -0.984594 2.06974 0
M  V30 5060 C 482.327 -1.29032 0.992705 0
M  V30 5061 O 483.516 -1.25539 1.26895 0
M  V30 5062 C 480.616 -2.31262 2.47732 0
M  V30 5063 C 479.789 -2.1924 3.78487 0
M  V30 5064 C 478.848 -3.34956 4.05821 0
M  V30 5065 O 477.874 -3.11948 4.76106 0
M  V30 5066 N 479.076 -4.58672 3.55809 0
M  V30 5067 H 481.841 -0.563143 2.94362 0
M  V30 5068 H 479.402 -0.160061 1.61107 0
M  V30 5069 H 481.394 -3.07496 2.63112 0
M  V30 5070 H 479.964 -2.65056 1.65723 0
M  V30 5071 H 479.184 -1.27747 3.72927 0
M  V30 5072 H 480.472 -2.08409 4.64158 0
M  V30 5073 H 479.87 -4.8026 2.98942 0
M  V30 5074 H 478.427 -5.32083 3.76472 0
M  V30 5075 N 481.861 -1.55662 -0.24637 0
M  V30 5076 C 483.108 -1.77519 -0.974335 0
M  V30 5077 C 483.436 -0.591165 -1.85298 0
M  V30 5078 O 482.691 0.425497 -1.91018 0
M  V30 5079 C 482.99 -3.04885 -1.86494 0
M  V30 5080 C 482.656 -4.36209 -1.14161 0
M  V30 5081 C 481.318 -4.71896 -0.941701 0
M  V30 5082 C 483.67 -5.17391 -0.628957 0
M  V30 5083 C 480.998 -5.86299 -0.216852 0
M  V30 5084 C 483.35 -6.32546 0.0824273 0
M  V30 5085 C 482.014 -6.66853 0.293807 0
M  V30 5086 H 481.284 -0.649588 -0.356535 0
M  V30 5087 H 483.931 -1.89934 -0.244394 0
M  V30 5088 H 482.236 -2.87484 -2.66196 0
M  V30 5089 H 483.933 -3.18994 -2.42989 0
M  V30 5090 H 480.523 -4.08174 -1.30736 0
M  V30 5091 H 484.707 -4.90276 -0.770943 0
M  V30 5092 H 479.963 -6.11385 -0.0426124 0
M  V30 5093 H 484.137 -6.94693 0.487292 0
M  V30 5094 H 481.764 -7.55349 0.857428 0
M  V30 5095 N 483.339 0.512053 -1.4905 0
M  V30 5096 C 484.302 1.59704 -1.64399 0
M  V30 5097 C 485.302 1.52285 -0.516317 0
M  V30 5098 O 486.492 1.55635 -0.782527 0
M  V30 5099 C 483.624 2.9935 -1.63102 0
M  V30 5100 H 484.817 1.47428 -2.61161 0
M  V30 5101 H 482.37 0.735469 -1.37915 0
M  V30 5102 H 483.105 3.17116 -0.678836 0
M  V30 5103 H 482.89 3.06144 -2.44986 0
M  V30 5104 H 484.38 3.782 -1.77072 0
M  V30 5105 N 484.817 1.37938 0.762283 0
M  V30 5106 C 485.727 1.36681 1.90671 0
M  V30 5107 C 486.743 0.265078 1.71969 0
M  V30 5108 O 487.919 0.502055 1.95042 0
M  V30 5109 C 484.984 1.18211 3.25925 0
M  V30 5110 C 484.045 2.3811 3.57214 0
M  V30 5111 C 483.278 2.20512 4.86014 0
M  V30 5112 O 483.501 1.19429 5.57757 0
M  V30 5113 O 482.435 3.08911 5.16583 0
M  V30 5114 H 486.261 2.33091 1.94685 0
M  V30 5115 H 483.846 1.18767 0.906356 0
M  V30 5116 H 485.728 1.09937 4.06807 0
M  V30 5117 H 484.403 0.248807 3.22742 0
M  V30 5118 H 483.31 2.51958 2.76529 0
M  V30 5119 H 484.643 3.30041 3.65149 0
M  V30 5120 N 486.295 -0.989507 1.22664 0
M  V30 5121 C 487.225 -2.09847 1.02404 0
M  V30 5122 C 488.206 -1.70007 -0.0561303 0
M  V30 5123 O 489.391 -1.93906 0.106748 0
M  V30 5124 C 486.521 -3.41996 0.604663 0
M  V30 5125 C 485.475 -3.95699 1.63115 0
M  V30 5126 C 484.801 -5.23936 1.0675 0
M  V30 5127 C 486.101 -4.25999 3.02196 0
M  V30 5128 H 487.795 -2.27054 1.95158 0
M  V30 5129 H 485.341 -1.09111 0.939727 0
M  V30 5130 H 487.294 -4.1899 0.45002 0
M  V30 5131 H 486.018 -3.24626 -0.35855 0
M  V30 5132 H 484.677 -3.2084 1.77362 0
M  V30 5133 H 484.325 -5.02909 0.0955422 0
M  V30 5134 H 484.025 -5.60833 1.75328 0
M  V30 5135 H 485.549 -6.0356 0.924516 0
M  V30 5136 H 486.963 -4.93777 2.91303 0
M  V30 5137 H 485.36 -4.74076 3.67929 0
M  V30 5138 H 486.43 -3.33636 3.51873 0
M  V30 5139 N 487.773 -1.03688 -1.18687 0
M  V30 5140 C 488.723 -0.595067 -2.20098 0
M  V30 5141 C 489.707 0.360465 -1.5681 0
M  V30 5142 O 490.899 0.180136 -1.76081 0
M  V30 5143 C 488.028 0.0444495 -3.43271 0
M  V30 5144 C 487.114 -0.934002 -4.13687 0
M  V30 5145 N 487.505 -2.09957 -4.60165 0
M  V30 5146 C 485.803 -0.759177 -4.39491 0
M  V30 5147 C 486.504 -2.71735 -5.1433 0
M  V30 5148 N 485.48 -1.99638 -5.05614 0
M  V30 5149 H 489.282 -1.48336 -2.5372 0
M  V30 5150 H 486.796 -0.904949 -1.3485 0
M  V30 5151 H 488.793 0.37864 -4.15177 0
M  V30 5152 H 487.453 0.928325 -3.11147 0
M  V30 5153 H 488.464 -2.47863 -4.54735 0
M  V30 5154 H 485.141 0.0749292 -4.17433 0
M  V30 5155 H 486.531 -3.70492 -5.60523 0
M  V30 5156 N 489.251 1.34841 -0.815825 0
M  V30 5157 C 490.667 1.51543 -0.500697 0
M  V30 5158 C 490.867 1.76261 0.976444 0
M  V30 5159 O 489.923 1.8094 1.76117 0
M  V30 5160 C 491.236 2.68487 -1.35407 0
M  V30 5161 C 492.784 2.82368 -1.35046 0
M  V30 5162 C 493.259 4.02347 -2.18816 0
M  V30 5163 N 494.75 4.09542 -2.16402 0
M  V30 5164 C 495.485 5.01517 -2.77971 0
M  V30 5165 N 494.981 5.98763 -3.48503 0
M  V30 5166 N 496.774 4.94334 -2.67563 0
M  V30 5167 H 488.925 1.17055 -1.77234 0
M  V30 5168 H 491.188 0.573481 -0.754866 0
M  V30 5169 H 490.894 2.56829 -2.40274 0
M  V30 5170 H 490.768 3.63321 -1.01377 0
M  V30 5171 H 493.155 2.93471 -0.309604 0
M  V30 5172 H 493.236 1.88363 -1.73069 0
M  V30 5173 H 492.88 3.92004 -3.22948 0
M  V30 5174 H 492.81 4.95551 -1.78148 0
M  V30 5175 H 495.301 3.39932 -1.65091 0
M  V30 5176 H 495.614 6.6556 -3.92747 0
M  V30 5177 H 493.959 5.98909 -3.52609 0
M  V30 5178 H 497.15 4.1732 -2.12041 0
M  V30 5179 H 497.323 5.6582 -3.15834 0
M  V30 5180 N 490.729 0.570148 1.46925 0
M  V30 5181 C 491.954 0.0542592 2.07329 0
M  V30 5182 C 492.379 -1.23582 1.41806 0
M  V30 5183 O 491.737 -1.74341 0.497479 0
M  V30 5184 C 491.785 -0.111175 3.60429 0
M  V30 5185 O 490.889 -1.17071 3.95434 0
M  V30 5186 H 490.23 0.0571425 0.661537 0
M  V30 5187 H 492.76 0.789516 1.88753 0
M  V30 5188 H 492.77 -0.321315 4.06733 0
M  V30 5189 H 491.445 0.831012 4.07513 0
M  V30 5190 H 490.022 -0.940029 3.60857 0
M  V30 5191 N 492.207 -1.54576 0.307264 0
M  V30 5192 C 493.623 -1.59534 -0.0459251 0
M  V30 5193 C 493.823 -1.32414 -1.51884 0
M  V30 5194 O 492.879 -1.1006 -2.27251 0
M  V30 5195 C 494.192 -2.98566 0.357649 0
M  V30 5196 C 495.74 -3.11491 0.306937 0
M  V30 5197 C 496.215 -4.52842 0.685427 0
M  V30 5198 N 497.706 -4.58782 0.638203 0
M  V30 5199 C 498.441 -5.66238 0.903458 0
M  V30 5200 N 497.937 -6.81703 1.23501 0
M  V30 5201 N 499.73 -5.55937 0.830102 0
M  V30 5202 H 491.881 -1.70464 1.26712 0
M  V30 5203 H 494.144 -0.79647 0.514139 0
M  V30 5204 H 493.85 -3.23356 1.38325 0
M  V30 5205 H 493.724 -3.76117 -0.285565 0
M  V30 5206 H 496.111 -2.86446 -0.709424 0
M  V30 5207 H 496.192 -2.36081 0.984861 0
M  V30 5208 H 495.836 -4.78618 1.69963 0
M  V30 5209 H 495.766 -5.26598 -0.0146346 0
M  V30 5210 H 498.257 -3.75849 0.393138 0
M  V30 5211 H 498.57 -7.59582 1.42322 0
M  V30 5212 H 496.915 -6.8324 1.27311 0
M  V30 5213 H 500.106 -4.64608 0.570693 0
M  V30 5214 H 500.279 -6.39597 1.04019 0
M  V30 5215 N 493.685 -0.035106 -1.57561 0
M  V30 5216 C 494.913 0.652258 -1.9635 0
M  V30 5217 C 495.328 1.65317 -0.911897 0
M  V30 5218 O 494.685 1.82194 0.105657 0
M  V30 5219 C 494.736 1.35337 -3.35211 0
M  V30 5220 O 494.457 0.392548 -4.36338 0
M  V30 5221 C 495.958 2.13199 -3.88666 0
M  V30 5222 H 493.178 0.179444 -0.646561 0
M  V30 5223 H 495.722 -0.0966459 -2.04271 0
M  V30 5224 H 493.877 2.05362 -3.28489 0
M  V30 5225 H 494.291 0.891097 -5.16875 0
M  V30 5226 H 495.765 2.577 -4.88154 0
M  V30 5227 H 496.242 2.97353 -3.23231 0
M  V30 5228 H 496.848 1.48118 -3.98674 0
M  V30 5229 N 495.163 1.55791 0.238111 0
M  V30 5230 C 496.093 1.94068 1.29846 0
M  V30 5231 C 497.074 0.806726 1.49753 0
M  V30 5232 O 498.259 1.06772 1.62214 0
M  V30 5233 C 495.389 2.24302 2.65153 0
M  V30 5234 C 494.343 3.40032 2.59927 0
M  V30 5235 C 493.669 3.55829 3.99111 0
M  V30 5236 C 494.969 4.75476 2.16148 0
M  V30 5237 H 496.663 2.82887 0.980563 0
M  V30 5238 H 494.209 1.36105 0.470253 0
M  V30 5239 H 496.162 2.4967 3.39475 0
M  V30 5240 H 494.886 1.32318 2.98596 0
M  V30 5241 H 493.545 3.14687 1.88063 0
M  V30 5242 H 493.193 2.6125 4.29834 0
M  V30 5243 H 492.893 4.3366 3.96501 0
M  V30 5244 H 494.417 3.83528 4.7512 0
M  V30 5245 H 495.831 5.00158 2.80205 0
M  V30 5246 H 494.228 5.56472 2.24631 0
M  V30 5247 H 495.298 4.71946 1.11333 0
M  V30 5248 N 496.642 -0.504142 1.49319 0
M  V30 5249 C 497.574 -1.62265 1.61872 0
M  V30 5250 C 498.587 -1.54881 0.501573 0
M  V30 5251 O 499.776 -1.6087 0.773497 0
M  V30 5252 C 496.876 -3.01042 1.55651 0
M  V30 5253 C 496.049 -3.33642 2.82845 0
M  V30 5254 C 495.108 -4.51816 2.69719 0
M  V30 5255 O 494.134 -4.53755 3.4365 0
M  V30 5256 N 495.336 -5.51543 1.81055 0
M  V30 5257 H 498.101 -1.51924 2.58339 0
M  V30 5258 H 495.662 -0.691954 1.46368 0
M  V30 5259 H 497.654 -3.78013 1.44528 0
M  V30 5260 H 496.224 -3.05323 0.670546 0
M  V30 5261 H 495.444 -2.45598 3.08343 0
M  V30 5262 H 496.732 -3.5222 3.67177 0
M  V30 5263 H 496.13 -5.52774 1.20241 0
M  V30 5264 H 494.687 -6.27629 1.75856 0
M  V30 5265 N 498.12 -1.38341 -0.754957 0
M  V30 5266 C 499.366 -1.34672 -1.51628 0
M  V30 5267 C 499.699 0.0636036 -1.94096 0
M  V30 5268 O 498.974 1.0245 -1.6533 0
M  V30 5269 C 499.257 -2.30116 -2.76981 0
M  V30 5270 C 499.11 -3.80003 -2.4066 0
M  V30 5271 C 500.429 -2.23715 -3.78998 0
M  V30 5272 H 497.548 -0.490517 -0.550056 0
M  V30 5273 H 500.19 -1.69178 -0.864807 0
M  V30 5274 H 498.34 -2.00821 -3.3257 0
M  V30 5275 H 500.012 -4.19966 -1.90856 0
M  V30 5276 H 498.255 -3.97751 -1.73137 0
M  V30 5277 H 498.926 -4.42244 -3.30339 0
M  V30 5278 H 501.402 -2.49574 -3.32945 0
M  V30 5279 H 500.278 -2.9261 -4.64403 0
M  V30 5280 H 500.539 -1.23554 -4.24484 0
M  V30 5281 N 499.598 0.982988 -1.23187 0
M  V30 5282 C 500.844 1.72648 -1.06398 0
M  V30 5283 C 501.177 1.90066 0.398561 0
M  V30 5284 O 500.452 1.45105 1.29518 0
M  V30 5285 C 500.735 3.12627 -1.78707 0
M  V30 5286 C 500.588 3.02795 -3.32618 0
M  V30 5287 C 501.907 4.11997 -1.54747 0
M  V30 5288 H 499.026 0.626649 -0.387918 0
M  V30 5289 H 501.668 1.14455 -1.51658 0
M  V30 5290 H 499.818 3.62308 -1.40234 0
M  V30 5291 H 501.49 2.60659 -3.80598 0
M  V30 5292 H 499.733 2.39362 -3.61785 0
M  V30 5293 H 500.404 4.01893 -3.78399 0
M  V30 5294 H 502.88 3.71114 -1.88186 0
M  V30 5295 H 501.756 5.08037 -2.07821 0
M  V30 5296 H 502.017 4.39462 -0.482249 0
M  V30 5297 N 501.076 1.04316 1.18135 0
M  V30 5298 C 502.323 0.74802 1.88178 0
M  V30 5299 C 502.651 -0.72441 1.80506 0
M  V30 5300 O 501.906 -1.54463 1.20165 0
M  V30 5301 C 502.205 1.16271 3.37958 0
M  V30 5302 C 501.871 2.63585 3.65833 0
M  V30 5303 C 500.533 3.03829 3.73151 0
M  V30 5304 C 502.885 3.58822 3.78016 0
M  V30 5305 C 500.213 4.38194 3.90132 0
M  V30 5306 C 502.565 4.92909 3.96514 0
M  V30 5307 C 501.229 5.3282 4.02068 0
M  V30 5308 H 500.499 0.27372 0.688592 0
M  V30 5309 H 503.146 1.30863 1.39811 0
M  V30 5310 H 501.451 0.520938 3.88321 0
M  V30 5311 H 503.148 0.911672 3.90499 0
M  V30 5312 H 499.738 2.31414 3.60757 0
M  V30 5313 H 503.922 3.28875 3.71692 0
M  V30 5314 H 499.178 4.68631 3.92677 0
M  V30 5315 H 503.352 5.66606 4.04883 0
M  V30 5316 H 500.979 6.36943 4.14979 0
M  V30 5317 N 502.554 -1.34406 0.822964 0
M  V30 5318 C 503.464 -2.33298 0.246838 0
M  V30 5319 C 504.48 -1.62625 -0.618797 0
M  V30 5320 O 505.656 -1.94391 -0.526685 0
M  V30 5321 C 502.721 -3.41785 -0.581731 0
M  V30 5322 C 501.782 -4.28206 0.306309 0
M  V30 5323 C 501.015 -5.31512 -0.48281 0
M  V30 5324 O 501.238 -5.43973 -1.71607 0
M  V30 5325 O 500.172 -6.01749 0.134884 0
M  V30 5326 H 503.998 -2.84401 1.06534 0
M  V30 5327 H 501.583 -1.37466 0.585108 0
M  V30 5328 H 503.465 -4.08028 -1.05313 0
M  V30 5329 H 502.14 -2.92925 -1.37756 0
M  V30 5330 H 501.047 -3.64885 0.825199 0
M  V30 5331 H 502.38 -4.80507 1.06649 0
M  V30 5332 N 504.032 -0.577932 -1.46621 0
M  V30 5333 C 504.995 0.147805 -2.28723 0
M  V30 5334 C 505.995 0.823325 -1.38123 0
M  V30 5335 O 507.185 0.676011 -1.60548 0
M  V30 5336 C 504.317 1.21853 -3.18378 0
M  V30 5337 H 505.51 -0.573654 -2.94362 0
M  V30 5338 H 503.063 -0.335703 -1.52652 0
M  V30 5339 H 503.798 1.97173 -2.57475 0
M  V30 5340 H 503.583 0.738714 -3.85078 0
M  V30 5341 H 505.073 1.72768 -3.80186 0
M  V30 5342 N 505.51 1.54411 -0.315457 0
M  V30 5343 C 506.74 2.04536 0.291315 0
M  V30 5344 C 507.148 1.19162 1.4696 0
M  V30 5345 O 506.491 0.213199 1.82459 0
M  V30 5346 C 506.553 3.5056 0.796725 0
M  V30 5347 C 506.217 4.5627 -0.258178 0
M  V30 5348 C 507.214 5.08312 -1.09153 0
M  V30 5349 C 504.899 5.00672 -0.404036 0
M  V30 5350 C 506.893 6.03312 -2.05655 0
M  V30 5351 C 504.58 5.95488 -1.37248 0
M  V30 5352 C 505.578 6.46693 -2.19721 0
M  V30 5353 O 505.266 7.39648 -3.14921 0
M  V30 5354 H 504.998 0.672856 0.0651165 0
M  V30 5355 H 507.552 2.00244 -0.457308 0
M  V30 5356 H 505.782 3.52223 1.59612 0
M  V30 5357 H 507.471 3.83804 1.32096 0
M  V30 5358 H 508.237 4.74793 -0.98979 0
M  V30 5359 H 504.116 4.60436 0.22799 0
M  V30 5360 H 507.66 6.43203 -2.70067 0
M  V30 5361 H 503.557 6.28424 -1.47489 0
M  V30 5362 H 504.325 7.57496 -3.10067 0
M  V30 5363 N 506.988 0.0434614 1.5754 0
M  V30 5364 C 508.399 -0.493343 1.80064 0
M  V30 5365 C 508.75 -1.71388 0.955023 0
M  V30 5366 O 507.875 -2.15736 0.169434 0
M  V30 5367 C 508.47 -0.90179 3.26578 0
M  V30 5368 C 507.029 -1.38362 3.50047 0
M  V30 5369 C 506.176 -0.355129 2.75017 0
M  V30 5370 H 509.127 0.2694 1.56397 0
M  V30 5371 H 509.148 -1.76523 3.37075 0
M  V30 5372 H 508.66 -0.013271 3.88098 0
M  V30 5373 H 506.761 -2.29159 2.93798 0
M  V30 5374 H 506.874 -1.3811 4.58762 0
M  V30 5375 H 505.238 -0.826348 2.40922 0
M  V30 5376 H 506.021 0.525172 3.39259 0
M  V30 5377 N 508.466 -1.55915 -0.229846 0
M  V30 5378 C 509.877 -1.68809 -0.797531 0
M  V30 5379 C 510.228 -0.643995 -1.8533 0
M  V30 5380 O 509.353 0.206492 -2.15413 0
M  V30 5381 C 509.948 -3.06043 -1.45338 0
M  V30 5382 C 508.507 -3.20819 -1.96856 0
M  V30 5383 C 507.654 -2.6472 -0.825736 0
M  V30 5384 H 510.605 -1.58699 -0.00533733 0
M  V30 5385 H 510.626 -3.01438 -2.32196 0
M  V30 5386 H 510.138 -3.82012 -0.684743 0
M  V30 5387 H 508.239 -2.49704 -2.76548 0
M  V30 5388 H 508.352 -4.27937 -2.15423 0
M  V30 5389 H 506.716 -2.22985 -1.23084 0
M  V30 5390 H 507.499 -3.43229 -0.0699019 0
M  V30 5391 N 509.944 0.496216 -1.49584 0
M  V30 5392 C 511.355 1.07765 -1.52459 0
M  V30 5393 C 511.706 1.93679 -0.31353 0
M  V30 5394 O 510.831 2.08588 0.576186 0
M  V30 5395 C 511.426 1.96111 -2.76271 0
M  V30 5396 C 509.985 2.49409 -2.81908 0
M  V30 5397 C 509.132 1.27142 -2.46435 0
M  V30 5398 H 512.083 0.279914 -1.56212 0
M  V30 5399 H 512.104 2.80862 -2.56704 0
M  V30 5400 H 511.616 1.33555 -3.64396 0
M  V30 5401 H 509.717 3.1559 -1.98074 0
M  V30 5402 H 509.83 2.86234 -3.84196 0
M  V30 5403 H 508.194 1.59818 -1.98319 0
M  V30 5404 H 508.977 0.662866 -3.3684 0
M  V30 5405 N 511.423 1.38739 0.74761 0
M  V30 5406 C 512.651 1.38521 1.53686 0
M  V30 5407 C 513.066 -0.0235129 1.88785 0
M  V30 5408 O 512.423 -0.991662 1.53207 0
M  V30 5409 C 512.474 2.24641 2.83229 0
M  V30 5410 O 512.195 3.60026 2.49625 0
M  V30 5411 C 513.696 2.32669 3.77333 0
M  V30 5412 H 510.916 0.473589 0.475347 0
M  V30 5413 H 513.46 1.82395 0.924786 0
M  V30 5414 H 511.615 1.84213 3.40799 0
M  V30 5415 H 512.029 4.05435 3.3275 0
M  V30 5416 H 513.503 2.97201 4.65162 0
M  V30 5417 H 513.98 1.3421 4.18192 0
M  V30 5418 H 514.586 2.73512 3.25685 0
M  V30 5419 N 512.901 -0.976442 1.23707 0
M  V30 5420 C 514.147 -1.72081 1.07312 0
M  V30 5421 C 514.48 -1.90275 -0.388476 0
M  V30 5422 O 513.755 -1.4579 -1.28746 0
M  V30 5423 C 514.038 -3.11675 1.80363 0
M  V30 5424 C 513.891 -3.01027 3.3422 0
M  V30 5425 C 515.21 -4.1117 1.5693 0
M  V30 5426 H 512.329 -0.624583 0.391236 0
M  V30 5427 H 514.971 -1.13649 1.52263 0
M  V30 5428 H 513.121 -3.61559 1.42153 0
M  V30 5429 H 514.793 -2.58637 3.81975 0
M  V30 5430 H 513.036 -2.3744 3.63049 0
M  V30 5431 H 513.707 -3.9988 3.80525 0
M  V30 5432 H 516.183 -3.7011 1.90151 0
M  V30 5433 H 515.059 -5.06928 2.10513 0
M  V30 5434 H 515.32 -4.392 0.505548 0
M  V30 5435 N 514.379 -1.04941 -1.1758 0
M  V30 5436 C 515.309 -0.669172 -2.23706 0
M  V30 5437 C 516.29 0.331835 -1.66832 0
M  V30 5438 O 517.475 0.209988 -1.93061 0
M  V30 5439 C 514.605 -0.0404889 -3.47276 0
M  V30 5440 C 513.559 -0.965983 -4.16957 0
M  V30 5441 C 512.885 -0.201312 -5.34321 0
M  V30 5442 C 514.185 -2.28902 -4.69469 0
M  V30 5443 H 515.879 -1.55639 -2.55767 0
M  V30 5444 H 513.425 -0.749793 -1.22939 0
M  V30 5445 H 515.378 0.237298 -4.20731 0
M  V30 5446 H 514.102 0.881658 -3.14475 0
M  V30 5447 H 512.761 -1.22829 -3.45411 0
M  V30 5448 H 512.409 0.723519 -4.97769 0
M  V30 5449 H 512.109 -0.817968 -5.81879 0
M  V30 5450 H 513.633 0.0692499 -6.10561 0
M  V30 5451 H 515.047 -2.07132 -5.34574 0
M  V30 5452 H 513.444 -2.85942 -5.27596 0
M  V30 5453 H 514.514 -2.92937 -3.86414 0
M  V30 5454 N 515.857 1.33968 -0.830081 0
M  V30 5455 C 517.103 1.98773 -0.431394 0
M  V30 5456 C 517.458 1.64598 0.99626 0
M  V30 5457 O 516.751 0.911022 1.68555 0
M  V30 5458 C 516.945 3.52679 -0.57898 0
M  V30 5459 C 516.774 4.01807 -2.01943 0
M  V30 5460 C 515.544 4.30062 -2.65282 0
M  V30 5461 C 517.742 4.18663 -2.98707 0
M  V30 5462 N 515.724 4.65272 -4.00493 0
M  V30 5463 C 517.095 4.57133 -4.18843 0
M  V30 5464 C 519.15 4.00929 -2.95229 0
M  V30 5465 C 517.853 4.79723 -5.35965 0
M  V30 5466 C 519.879 4.2469 -4.11573 0
M  V30 5467 C 519.241 4.63454 -5.30462 0
M  V30 5468 H 515.34 0.75435 -0.206107 0
M  V30 5469 H 517.924 1.62247 -1.07629 0
M  V30 5470 H 516.095 3.88383 0.0360632 0
M  V30 5471 H 517.827 4.04412 -0.152596 0
M  V30 5472 H 514.582 4.21231 -2.16475 0
M  V30 5473 H 515.006 4.87101 -4.70172 0
M  V30 5474 H 519.648 3.70082 -2.04448 0
M  V30 5475 H 517.366 5.09434 -6.27297 0
M  V30 5476 H 520.952 4.12497 -4.10289 0
M  V30 5477 H 519.832 4.81476 -6.18992 0
M  V30 5478 N 517.335 0.585699 1.46312 0
M  V30 5479 C 518.582 0.0724211 2.0237 0
M  V30 5480 C 518.91 -1.28868 1.45683 0
M  V30 5481 O 518.165 -1.85853 0.612945 0
M  V30 5482 C 518.464 -0.0401312 3.57377 0
M  V30 5483 C 518.13 1.25376 4.33119 0
M  V30 5484 C 516.792 1.60824 4.5353 0
M  V30 5485 C 519.144 2.10987 4.76586 0
M  V30 5486 C 516.472 2.81676 5.14661 0
M  V30 5487 C 518.824 3.31068 5.39052 0
M  V30 5488 C 517.488 3.66794 5.5769 0
M  V30 5489 H 516.758 0.0265007 0.740526 0
M  V30 5490 H 519.405 0.762935 1.75646 0
M  V30 5491 H 517.71 -0.813791 3.83255 0
M  V30 5492 H 519.407 -0.453078 3.98432 0
M  V30 5493 H 515.997 0.967808 4.1753 0
M  V30 5494 H 520.181 1.84904 4.60569 0
M  V30 5495 H 515.437 3.0949 5.27282 0
M  V30 5496 H 519.611 3.97672 5.71691 0
M  V30 5497 H 517.238 4.60529 6.04828 0
M  V30 5498 N 518.813 -1.54241 0.323641 0
M  V30 5499 C 519.76 -2.24339 -0.542277 0
M  V30 5500 C 520.73 -1.23421 -1.11159 0
M  V30 5501 O 521.915 -1.52104 -1.15192 0
M  V30 5502 C 519.055 -3.00479 -1.69725 0
M  V30 5503 C 518.168 -4.16214 -1.15716 0
M  V30 5504 C 517.303 -4.79884 -2.27783 0
M  V30 5505 C 516.342 -5.87722 -1.71023 0
M  V30 5506 N 515.479 -6.45254 -2.76752 0
M  V30 5507 H 520.319 -2.97935 0.0620613 0
M  V30 5508 H 517.856 -1.47039 0.0423993 0
M  V30 5509 H 519.814 -3.42869 -2.3769 0
M  V30 5510 H 518.444 -2.29217 -2.27288 0
M  V30 5511 H 517.496 -3.78605 -0.369063 0
M  V30 5512 H 518.808 -4.93838 -0.701832 0
M  V30 5513 H 517.962 -5.25243 -3.03651 0
M  V30 5514 H 516.701 -4.01641 -2.76652 0
M  V30 5515 H 515.706 -5.41765 -0.936518 0
M  V30 5516 H 516.931 -6.67863 -1.2303 0
M  V30 5517 H 514.877 -5.69884 -3.24912 0
M  V30 5518 H 514.794 -7.18292 -2.35782 0
M  V30 5519 H 516.062 -6.95269 -3.5245 0
M  V30 5520 N 520.291 -0.0518155 -1.57515 0
M  V30 5521 C 521.568 0.661727 -1.84067 0
M  V30 5522 C 521.948 1.88999 -0.940351 0
M  V30 5523 O 521.296 2.285 -0.00155404 0
M  V30 5524 C 521.506 1.01841 -3.3381 0
M  V30 5525 C 522.854 1.40043 -4.00841 0
M  V30 5526 O 523.878 1.11073 -3.38439 0
M  V30 5527 O 522.737 1.94111 -5.10865 0
M  V30 5528 H 519.831 0.326702 -0.759733 0
M  V30 5529 H 522.377 -0.0812277 -1.69505 0
M  V30 5530 H 521.149 0.145202 -3.91031 0
M  V30 5531 H 520.772 1.81879 -3.53562 0
M  V30 5532 N 521.769 1.56035 0.221574 0
M  V30 5533 C 522.717 1.93269 1.29421 0
M  V30 5534 C 523.711 0.814727 1.48521 0
M  V30 5535 O 524.917 0.999559 1.49696 0
M  V30 5536 H 521.292 0.614188 0.43391 0
M  V30 5537 H 523.263 2.82773 0.952987 0
M  V30 5538 C 522.012 2.26573 2.63742 0
M  V30 5539 H 521.335 3.12112 2.49853 0
M  V30 5540 H 522.775 2.5651 3.37607 0
M  V30 5541 C 521.234 1.09086 3.1875 0
M  V30 5542 O 521.764 0.351985 4.00155 0
M  V30 5543 N 519.97 0.874693 2.77124 0
M  V30 5544 H 519.517 1.47726 2.11033 0
M  V30 5545 H 519.475 0.0903349 3.1427 0
M  V30 5546 N 523.247 -0.488276 1.49845 0
M  V30 5547 C 524.663 -0.820566 1.3689 0
M  V30 5548 C 524.863 -1.97248 0.411752 0
M  V30 5549 O 523.919 -2.52042 -0.151931 0
M  V30 5550 C 525.232 -1.1488 2.77891 0
M  V30 5551 C 526.78 -1.25626 2.86683 0
M  V30 5552 C 527.255 -1.61772 4.28479 0
M  V30 5553 N 528.746 -1.68797 4.31349 0
M  V30 5554 C 529.481 -1.98235 5.38043 0
M  V30 5555 N 528.977 -2.2581 6.54967 0
M  V30 5556 N 530.77 -1.99593 5.2547 0
M  V30 5557 H 522.921 0.271123 2.10662 0
M  V30 5558 H 525.184 0.058735 0.946179 0
M  V30 5559 H 524.89 -0.375614 3.49688 0
M  V30 5560 H 524.764 -2.08919 3.14058 0
M  V30 5561 H 527.151 -2.02014 2.15114 0
M  V30 5562 H 527.232 -0.296072 2.54081 0
M  V30 5563 H 526.876 -0.859295 5.00578 0
M  V30 5564 H 526.806 -2.58912 4.58554 0
M  V30 5565 H 529.297 -1.49595 3.4703 0
M  V30 5566 H 529.61 -2.47497 7.32096 0
M  V30 5567 H 527.955 -2.23239 6.58171 0
M  V30 5568 H 531.146 -1.77535 4.33127 0
M  V30 5569 H 531.319 -2.222 6.08713 0
M  V30 5570 N 524.725 -1.39134 -0.740242 0
M  V30 5571 C 525.953 -1.39334 -1.5295 0
M  V30 5572 C 526.368 0.0135008 -1.88795 0
M  V30 5573 O 525.725 0.983524 -1.5373 0
M  V30 5574 C 525.776 -2.2614 -2.82034 0
M  V30 5575 O 525.497 -3.61345 -2.47712 0
M  V30 5576 C 526.998 -2.34666 -3.76094 0
M  V30 5577 H 524.218 -0.476103 -0.472828 0
M  V30 5578 H 526.762 -1.82883 -0.9151 0
M  V30 5579 H 524.917 -1.86018 -3.39818 0
M  V30 5580 H 525.331 -4.07194 -3.30595 0
M  V30 5581 H 526.805 -2.99663 -4.63579 0
M  V30 5582 H 527.282 -1.36426 -4.17474 0
M  V30 5583 H 527.888 -2.75236 -3.2423 0
M  V30 5584 N 526.204 0.969867 -1.24223 0
M  V30 5585 C 527.134 2.08191 -1.05729 0
M  V30 5586 C 528.115 1.70075 0.0290765 0
M  V30 5587 O 529.3 1.93712 -0.137583 0
M  V30 5588 C 526.43 3.40991 -0.658995 0
M  V30 5589 C 525.384 3.93054 -1.69389 0
M  V30 5590 C 524.71 5.22171 -1.15072 0
M  V30 5591 C 526.01 4.21137 -3.08935 0
M  V30 5592 H 527.704 2.23921 -1.98746 0
M  V30 5593 H 525.25 1.07602 -0.956967 0
M  V30 5594 H 527.203 4.18221 -0.51662 0
M  V30 5595 H 525.927 3.25155 0.30686 0
M  V30 5596 H 524.586 3.17977 -1.82444 0
M  V30 5597 H 524.234 5.02694 -0.175539 0
M  V30 5598 H 523.934 5.57973 -1.84229 0
M  V30 5599 H 525.458 6.02013 -1.02042 0
M  V30 5600 H 526.872 4.8908 -2.99121 0
M  V30 5601 H 525.269 4.68163 -3.75425 0
M  V30 5602 H 526.339 3.27996 -3.57137 0
M  V30 5603 N 527.682 1.05563 1.17022 0
M  V30 5604 C 528.93 0.76642 1.87004 0
M  V30 5605 C 529.251 -0.708854 1.8166 0
M  V30 5606 O 528.521 -1.51242 1.2451 0
M  V30 5607 H 527.101 0.280516 0.692329 0
M  V30 5608 H 529.763 1.33557 1.41945 0
M  V30 5609 H 528.859 1.08472 2.92644 0
M  V30 5610 N 529.16 -1.33526 0.837174 0
M  V30 5611 C 530.437 -1.92369 0.354065 0
M  V30 5612 C 530.817 -1.76348 -1.16038 0
M  V30 5613 O 530.165 -1.15083 -1.97403 0
M  V30 5614 C 530.375 -3.39728 0.799101 0
M  V30 5615 C 531.723 -4.16877 0.806139 0
M  V30 5616 O 532.747 -3.48373 0.742597 0
M  V30 5617 O 531.606 -5.39166 0.892345 0
M  V30 5618 H 528.7 -0.820952 0.0998378 0
M  V30 5619 H 531.246 -1.42409 0.922913 0
M  V30 5620 H 530.018 -3.45254 1.84162 0
M  V30 5621 H 529.641 -3.97062 0.206731 0
M  V30 5622 N 530.638 -0.59345 -1.46 0
M  V30 5623 C 531.863 -0.0872365 -2.07216 0
M  V30 5624 C 532.288 1.2131 -1.43755 0
M  V30 5625 O 531.646 1.73528 -0.525152 0
M  V30 5626 C 531.694 0.0538197 -3.6056 0
M  V30 5627 O 530.798 1.10765 -3.97247 0
M  V30 5628 H 530.139 -0.0676598 -0.660544 0
M  V30 5629 H 532.669 -0.819445 -1.87473 0
M  V30 5630 H 532.679 0.256567 -4.07193 0
M  V30 5631 H 531.354 -0.895739 -4.0614 0
M  V30 5632 H 529.931 0.882501 -3.62307 0
M  V30 5633 N 532.116 1.54067 -0.331816 0
M  V30 5634 C 533.341 2.05599 0.272705 0
M  V30 5635 C 533.766 1.2059 1.44359 0
M  V30 5636 O 533.124 0.216907 1.79998 0
M  V30 5637 C 533.172 3.54188 0.677021 0
M  V30 5638 O 532.276 3.72082 1.77844 0
M  V30 5639 H 531.617 0.662286 0.0476801 0
M  V30 5640 H 534.147 1.98826 -0.482624 0
M  V30 5641 H 534.157 3.96608 0.957415 0
M  V30 5642 H 532.832 4.15513 -0.179325 0
M  V30 5643 H 531.409 3.41566 1.49622 0
M  V30 5644 N 533.594 0.0601682 1.57485 0
M  V30 5645 C 534.557 -0.896373 2.10945 0
M  V30 5646 C 535.557 -1.23402 1.03095 0
M  V30 5647 O 536.747 -1.16921 1.29132 0
M  V30 5648 C 533.879 -2.20346 2.60116 0
M  V30 5649 H 535.072 -0.432778 2.96761 0
M  V30 5650 H 532.625 -0.188372 1.55161 0
M  V30 5651 H 533.36 -2.71268 1.7772 0
M  V30 5652 H 533.145 -1.9714 3.38937 0
M  V30 5653 H 534.635 -2.88846 3.01592 0
M  V30 5654 N 535.072 -1.5615 -0.213296 0
M  V30 5655 C 536.32 -1.79191 -0.934612 0
M  V30 5656 C 536.641 -0.630112 -1.84539 0
M  V30 5657 O 535.911 0.35257 -1.92701 0
M  V30 5658 H 534.491 -0.660937 -0.348097 0
M  V30 5659 H 537.153 -1.93618 -0.22317 0
M  V30 5660 H 536.249 -2.71656 -1.53654 0
M  V30 5661 N 536.55 0.480323 -1.50102 0
M  V30 5662 C 537.46 1.60547 -1.71061 0
M  V30 5663 C 538.476 1.63564 -0.593529 0
M  V30 5664 O 539.652 1.81604 -0.870751 0
M  V30 5665 C 536.717 2.96814 -1.79171 0
M  V30 5666 C 535.778 3.04259 -3.02861 0
M  V30 5667 C 535.011 4.34027 -3.10574 0
M  V30 5668 O 535.234 5.24009 -2.25323 0
M  V30 5669 O 534.168 4.46873 -4.03223 0
M  V30 5670 H 537.994 1.45788 -2.6642 0
M  V30 5671 H 535.579 0.658838 -1.34088 0
M  V30 5672 H 537.461 3.77765 -1.86738 0
M  V30 5673 H 536.136 3.11791 -0.869947 0
M  V30 5674 H 535.043 2.22419 -3.008 0
M  V30 5675 H 536.376 2.94216 -3.94586 0
M  V30 5676 N 538.028 1.39524 0.732853 0
M  V30 5677 C 539.277 1.36175 1.48792 0
M  V30 5678 C 539.59 -0.0388195 1.95561 0
M  V30 5679 O 540.796 -0.194899 2.708 0
M  V30 5680 C 539.252 2.39242 2.68871 0
M  V30 5681 C 538.86 3.85024 2.29042 0
M  V30 5682 C 540.604 2.44972 3.46683 0
M  V30 5683 C 538.511 4.79727 3.45856 0
M  V30 5684 H 537.441 0.506267 0.558757 0
M  V30 5685 H 540.092 1.65181 0.799226 0
M  V30 5686 H 538.474 2.0331 3.39825 0
M  V30 5687 H 539.648 4.30008 1.6562 0
M  V30 5688 H 537.963 3.82609 1.64316 0
M  V30 5689 H 540.56 3.12918 4.33574 0
M  V30 5690 H 540.903 1.4749 3.89297 0
M  V30 5691 H 541.436 2.79808 2.82759 0
M  V30 5692 H 538.175 5.78479 3.08289 0
M  V30 5693 H 537.695 4.39421 4.08251 0
M  V30 5694 H 539.374 4.98731 4.12161 0
M  V30 5695 N 539.506 -0.963266 1.24736 0
M  V30 5696 C 540.469 -2.04013 1.04457 0
M  V30 5697 C 541.469 -1.608 0.000335555 0
M  V30 5698 O 542.659 -1.72515 0.241719 0
M  V30 5699 C 539.791 -3.35858 0.584162 0
M  V30 5700 H 540.984 -2.23436 2.00041 0
M  V30 5701 H 538.537 -1.13914 1.07021 0
M  V30 5702 H 539.272 -3.22128 -0.374673 0
M  V30 5703 H 539.057 -3.68568 1.3379 0
M  V30 5704 H 540.547 -4.1502 0.463451 0
M  V30 5705 N 540.985 -1.06182 -1.16461 0
M  V30 5706 C 541.915 -0.692861 -2.22984 0
M  V30 5707 C 542.896 0.314122 -1.67174 0
M  V30 5708 O 544.081 0.189499 -1.93273 0
M  V30 5709 C 541.211 -0.07732 -3.47214 0
M  V30 5710 C 540.165 -1.01015 -4.15909 0
M  V30 5711 C 539.491 -0.257973 -5.34077 0
M  V30 5712 C 540.791 -2.33868 -4.67015 0
M  V30 5713 H 542.485 -1.58343 -2.54102 0
M  V30 5714 H 540.031 -0.76279 -1.22137 0
M  V30 5715 H 541.984 0.19266 -4.20959 0
M  V30 5716 H 540.708 0.848254 -3.15392 0
M  V30 5717 H 539.367 -1.26486 -3.44088 0
M  V30 5718 H 539.015 0.670684 -4.98509 0
M  V30 5719 H 538.715 -0.879638 -5.80979 0
M  V30 5720 H 540.239 0.00448788 -6.106 0
M  V30 5721 H 541.653 -2.1279 -5.32347 0
M  V30 5722 H 540.05 -2.91522 -5.24533 0
M  V30 5723 H 541.12 -2.97019 -3.83286 0
M  V30 5724 N 542.463 1.3308 -0.844243 0
M  V30 5725 C 543.688 2.02341 -0.455282 0
M  V30 5726 C 544.113 1.6308 0.93737 0
M  V30 5727 O 543.471 0.826118 1.61385 0
M  V30 5728 C 543.519 3.55743 -0.58988 0
M  V30 5729 O 542.623 4.1063 0.38166 0
M  V30 5730 H 541.964 0.637898 -0.184343 0
M  V30 5731 H 544.494 1.6986 -1.14056 0
M  V30 5732 H 544.504 4.05243 -0.473522 0
M  V30 5733 H 543.179 3.83662 -1.60549 0
M  V30 5734 H 541.756 3.72236 0.22241 0
M  V30 5735 N 543.941 0.601185 1.45683 0
M  V30 5736 C 545.169 0.100054 2.06658 0
M  V30 5737 C 545.584 -1.21285 1.44691 0
M  V30 5738 O 544.941 -1.73735 0.558772 0
M  V30 5739 C 544.992 -0.0528579 3.61461 0
M  V30 5740 O 544.713 1.20809 4.21114 0
M  V30 5741 C 546.214 -0.586193 4.39407 0
M  V30 5742 H 543.434 0.065905 0.667756 0
M  V30 5743 H 545.978 0.827101 1.87028 0
M  V30 5744 H 544.133 -0.730203 3.80456 0
M  V30 5745 H 544.547 1.03368 5.14213 0
M  V30 5746 H 546.021 -0.642297 5.4825 0
M  V30 5747 H 546.498 -1.60713 4.0874 0
M  V30 5748 H 547.104 0.0568935 4.25262 0
M  V30 5749 N 545.419 -1.53889 0.339982 0
M  V30 5750 C 546.835 -1.59595 -0.0120752 0
M  V30 5751 C 547.035 -1.35605 -1.49042 0
M  V30 5752 O 546.091 -1.14856 -2.24865 0
M  V30 5753 C 547.404 -2.9774 0.420898 0
M  V30 5754 C 548.952 -3.1077 0.37294 0
M  V30 5755 C 549.427 -4.51286 0.781327 0
M  V30 5756 N 550.918 -4.57325 0.735374 0
M  V30 5757 C 551.653 -5.64194 1.02336 0
M  V30 5758 N 551.149 -6.7893 1.37933 0
M  V30 5759 N 552.942 -5.54051 0.947838 0
M  V30 5760 H 545.093 -1.67738 1.30299 0
M  V30 5761 H 547.356 -0.785385 0.530918 0
M  V30 5762 H 547.062 -3.20349 1.45152 0
M  V30 5763 H 546.936 -3.76639 -0.205721 0
M  V30 5764 H 549.323 -2.87886 -0.648505 0
M  V30 5765 H 549.404 -2.33939 1.03472 0
M  V30 5766 H 549.048 -4.74905 1.80077 0
M  V30 5767 H 548.978 -5.26511 0.0970679 0
M  V30 5768 H 551.469 -3.74931 0.472773 0
M  V30 5769 H 551.782 -7.56392 1.58402 0
M  V30 5770 H 550.127 -6.80386 1.41774 0
M  V30 5771 H 553.318 -4.63293 0.669115 0
M  V30 5772 H 553.491 -6.37246 1.17563 0
M  V30 5773 N 546.897 -0.0685191 -1.57451 0
M  V30 5774 C 547.845 0.917577 -2.13736 0
M  V30 5775 C 548.839 1.31049 -1.07344 0
M  V30 5776 O 550.045 1.28811 -1.25728 0
M  V30 5777 H 546.42 0.313835 -0.683382 0
M  V30 5778 H 548.391 0.417903 -2.95459 0
M  V30 5779 C 547.14 2.17686 -2.71123 0
M  V30 5780 H 546.463 1.88336 -3.52661 0
M  V30 5781 H 547.903 2.84803 -3.14107 0
M  V30 5782 C 546.362 2.9332 -1.65726 0
M  V30 5783 O 546.892 3.86901 -1.08031 0
M  V30 5784 N 545.098 2.56367 -1.36837 0
M  V30 5785 H 544.645 1.80341 -1.83943 0
M  V30 5786 H 544.603 3.07276 -0.665501 0
M  V30 5787 N 548.375 1.56261 0.205012 0
M  V30 5788 C 549.621 1.80306 0.9283 0
M  V30 5789 C 549.954 0.640932 1.83319 0
M  V30 5790 O 549.229 -0.359032 1.91158 0
M  V30 5791 C 549.512 3.14547 1.75306 0
M  V30 5792 C 549.365 4.41236 0.873562 0
M  V30 5793 C 550.684 3.45382 2.72762 0
M  V30 5794 H 547.803 0.655929 0.336044 0
M  V30 5795 H 550.445 1.88984 0.196211 0
M  V30 5796 H 548.595 3.0728 2.37721 0
M  V30 5797 H 550.267 4.60539 0.264887 0
M  V30 5798 H 548.51 4.33427 0.179773 0
M  V30 5799 H 549.181 5.31639 1.48541 0
M  V30 5800 H 551.657 3.52884 2.20481 0
M  V30 5801 H 550.533 4.40449 3.2756 0
M  V30 5802 H 550.794 2.68377 3.51321 0
M  V30 5803 N 549.853 -0.472356 1.50355 0
M  V30 5804 C 551.078 -1.25251 1.65309 0
M  V30 5805 C 551.503 -1.85081 0.335643 0
M  V30 5806 O 550.861 -1.67227 -0.700335 0
M  V30 5807 C 550.909 -2.3379 2.74544 0
M  V30 5808 O 550.013 -3.38401 2.35709 0
M  V30 5809 H 549.354 -0.368539 0.552336 0
M  V30 5810 H 551.884 -0.562271 1.96722 0
M  V30 5811 H 551.894 -2.79121 2.97583 0
M  V30 5812 H 550.569 -1.89614 3.70161 0
M  V30 5813 H 549.146 -2.9879 2.23112 0
M  V30 5814 N 551.331 -1.39911 -0.725443 0
M  V30 5815 C 552.241 -1.41688 -1.8698 0
M  V30 5816 C 553.257 -0.310579 -1.71206 0
M  V30 5817 O 554.433 -0.55359 -1.93642 0
M  V30 5818 C 551.498 -1.26811 -3.22676 0
M  V30 5819 C 550.559 -2.47497 -3.50776 0
M  V30 5820 C 549.792 -2.3332 -4.79997 0
M  V30 5821 O 550.015 -1.34175 -5.54394 0
M  V30 5822 O 548.949 -3.22498 -5.08211 0
M  V30 5823 H 552.775 -2.38171 -1.88436 0
M  V30 5824 H 550.36 -1.21128 -0.874548 0
M  V30 5825 H 552.242 -1.20684 -4.03749 0
M  V30 5826 H 550.917 -0.334289 -3.21969 0
M  V30 5827 H 549.824 -2.59201 -2.69751 0
M  V30 5828 H 551.157 -3.39606 -3.5627 0
M  V30 5829 N 552.809 0.956637 -1.25245 0
M  V30 5830 C 554.037 1.73571 -1.12608 0
M  V30 5831 C 554.452 1.86063 0.320324 0
M  V30 5832 O 553.809 1.35691 1.22042 0
M  V30 5833 C 553.86 3.15053 -1.77268 0
M  V30 5834 O 553.581 3.03174 -3.16255 0
M  V30 5835 C 555.082 4.09248 -1.70386 0
M  V30 5836 H 552.302 0.543955 -0.392879 0
M  V30 5837 H 554.846 1.20031 -1.65568 0
M  V30 5838 H 553.001 3.65543 -1.28284 0
M  V30 5839 H 553.415 3.9241 -3.48015 0
M  V30 5840 H 554.889 5.06138 -2.20291 0
M  V30 5841 H 555.366 4.34102 -0.667239 0
M  V30 5842 H 555.972 3.64672 -2.18849 0
M  V30 5843 N 554.287 1.06798 1.15896 0
M  V30 5844 C 555.703 0.792423 1.38538 0
M  V30 5845 C 555.903 -0.60592 1.92174 0
M  V30 5846 O 554.959 -1.36561 2.12385 0
M  V30 5847 C 556.272 1.86157 2.36149 0
M  V30 5848 C 557.82 1.88567 2.49823 0
M  V30 5849 C 558.295 2.9455 3.5072 0
M  V30 5850 N 559.786 2.93616 3.58251 0
M  V30 5851 C 560.521 3.72267 4.36125 0
M  V30 5852 N 560.017 4.60751 5.17379 0
M  V30 5853 N 561.81 3.60637 4.31158 0
M  V30 5854 H 553.961 1.96993 0.794198 0
M  V30 5855 H 556.224 0.853942 0.411688 0
M  V30 5856 H 555.93 2.86603 2.03843 0
M  V30 5857 H 555.804 1.71692 3.3586 0
M  V30 5858 H 558.191 0.887765 2.8143 0
M  V30 5859 H 558.272 2.0711 1.5013 0
M  V30 5860 H 557.916 3.94537 3.19849 0
M  V30 5861 H 557.846 2.73255 4.50155 0
M  V30 5862 H 560.337 2.29472 3.00252 0
M  V30 5863 H 560.65 5.17408 5.74028 0
M  V30 5864 H 558.995 4.64803 5.16704 0
M  V30 5865 H 562.186 2.90892 3.66742 0
M  V30 5866 H 562.359 4.22176 4.91601 0
M  V30 5867 N 555.766 -1.3263 0.851289 0
M  V30 5868 C 556.996 -2.01271 0.466222 0
M  V30 5869 C 557.404 -1.64156 -0.940714 0
M  V30 5870 O 556.747 -0.857109 -1.62479 0
M  V30 5871 C 556.809 -3.55695 0.521672 0
M  V30 5872 C 556.473 -4.16227 1.88691 0
M  V30 5873 C 557.47 -4.34699 2.85189 0
M  V30 5874 C 555.155 -4.52377 2.18313 0
M  V30 5875 C 557.149 -4.88484 4.09465 0
M  V30 5876 C 554.836 -5.05868 3.42843 0
M  V30 5877 C 555.834 -5.23869 4.38235 0
M  V30 5878 O 555.522 -5.76218 5.6056 0
M  V30 5879 H 555.254 -0.651034 0.18202 0
M  V30 5880 H 557.808 -1.7026 1.14894 0
M  V30 5881 H 556.038 -3.86086 -0.217888 0
M  V30 5882 H 557.727 -4.05613 0.152682 0
M  V30 5883 H 558.493 -4.07107 2.63607 0
M  V30 5884 H 554.372 -4.37652 1.44851 0
M  V30 5885 H 557.916 -5.02451 4.83931 0
M  V30 5886 H 553.813 -5.32891 3.64277 0
M  V30 5887 H 554.581 -5.94616 5.62471 0
M  V30 5888 N 557.244 -0.608902 -1.45362 0
M  V30 5889 C 558.49 -0.104762 -2.02529 0
M  V30 5890 C 558.823 1.26191 -1.47613 0
M  V30 5891 O 558.098 1.8327 -0.65134 0
M  V30 5892 C 558.381 -0.0672661 -3.60037 0
M  V30 5893 C 558.234 -1.4647 -4.25284 0
M  V30 5894 C 559.553 0.619877 -4.35713 0
M  V30 5895 H 556.672 -0.0395438 -0.735938 0
M  V30 5896 H 559.314 -0.781126 -1.73201 0
M  V30 5897 H 557.464 0.50871 -3.85155 0
M  V30 5898 H 559.136 -2.08785 -4.11347 0
M  V30 5899 H 557.379 -2.02502 -3.83634 0
M  V30 5900 H 558.05 -1.39069 -5.34195 0
M  V30 5901 H 560.526 0.130297 -4.15896 0
M  V30 5902 H 559.402 0.615224 -5.45441 0
M  V30 5903 H 559.663 1.68621 -4.0868 0
M  V30 5904 N 558.722 1.53707 -0.348139 0
M  V30 5905 C 559.947 2.05877 0.250883 0
M  V30 5906 C 560.372 1.22115 1.43072 0
M  V30 5907 O 559.73 0.235986 1.79758 0
M  V30 5908 C 559.778 3.54886 0.639416 0
M  V30 5909 O 558.882 3.73948 1.73888 0
M  V30 5910 H 558.223 0.662754 0.040653 0
M  V30 5911 H 560.753 1.98303 -0.503685 0
M  V30 5912 H 560.763 3.97601 0.915295 0
M  V30 5913 H 559.438 4.153 -0.223386 0
M  V30 5914 H 558.015 3.43134 1.45991 0
M  V30 5915 N 560.2 0.0768682 1.57412 0
M  V30 5916 C 561.11 -0.903207 2.16516 0
M  V30 5917 C 562.126 -1.32341 1.12968 0
M  V30 5918 O 563.302 -1.39507 1.45258 0
M  V30 5919 C 560.367 -2.1508 2.71922 0
M  V30 5920 C 559.428 -1.78653 3.90361 0
M  V30 5921 C 558.661 -2.97465 4.43114 0
M  V30 5922 O 558.884 -4.11638 3.94854 0
M  V30 5923 O 557.818 -2.76987 5.3438 0
M  V30 5924 H 561.644 -0.430427 3.00634 0
M  V30 5925 H 559.229 -0.146485 1.4868 0
M  V30 5926 H 561.111 -2.8823 3.07411 0
M  V30 5927 H 559.786 -2.61446 1.9086 0
M  V30 5928 H 558.693 -1.0274 3.59716 0
M  V30 5929 H 560.026 -1.37066 4.7273 0
M  V30 5930 N 561.678 -1.56367 -0.196722 0
M  V30 5931 C 562.608 -1.97442 -1.24655 0
M  V30 5932 C 563.589 -0.846147 -1.47561 0
M  V30 5933 O 564.774 -1.11035 -1.59326 0
M  V30 5934 C 561.904 -2.31253 -2.59112 0
M  V30 5935 C 560.858 -3.46804 -2.50821 0
M  V30 5936 C 560.184 -3.66286 -3.89536 0
M  V30 5937 C 561.484 -4.8104 -2.03465 0
M  V30 5938 H 563.178 -2.85388 -0.905216 0
M  V30 5939 H 560.724 -1.37304 -0.434002 0
M  V30 5940 H 562.677 -2.58583 -3.32736 0
M  V30 5941 H 561.401 -1.40188 -2.94983 0
M  V30 5942 H 560.06 -3.19563 -1.79653 0
M  V30 5943 H 559.708 -2.72555 -4.22756 0
M  V30 5944 H 559.408 -4.4402 -3.84864 0
M  V30 5945 H 560.932 -3.9599 -4.64784 0
M  V30 5946 H 562.346 -5.07411 -2.66846 0
M  V30 5947 H 560.743 -5.62232 -2.09798 0
M  V30 5948 H 561.813 -4.74732 -0.98781 0
M  V30 5949 N 563.156 0.464375 -1.50603 0
M  V30 5950 C 564.384 1.23907 -1.65695 0
M  V30 5951 C 564.799 1.85658 -0.343027 0
M  V30 5952 O 564.156 1.69529 0.675739 0
M  V30 5953 C 564.207 2.3429 -2.75301 0
M  V30 5954 O 563.928 1.7507 -4.01599 0
M  V30 5955 C 565.429 3.25051 -3.01424 0
M  V30 5956 H 562.649 0.374485 -0.556778 0
M  V30 5957 H 565.193 0.55353 -1.96866 0
M  V30 5958 H 563.348 2.98607 -2.46804 0
M  V30 5959 H 563.762 2.47812 -4.62266 0
M  V30 5960 H 565.236 3.98699 -3.81763 0
M  V30 5961 H 565.713 3.84227 -2.12758 0
M  V30 5962 H 566.319 2.66463 -3.31477 0
M  V30 5963 N 564.634 1.40294 0.718013 0
M  V30 5964 C 565.564 1.43118 1.84498 0
M  V30 5965 C 566.545 0.292403 1.67568 0
M  V30 5966 O 567.73 0.500675 1.87635 0
M  V30 5967 C 564.86 1.29065 3.22427 0
M  V30 5968 C 563.814 2.40521 3.54025 0
M  V30 5969 C 563.14 2.11546 4.91073 0
M  V30 5970 C 564.44 3.82859 3.55269 0
M  V30 5971 H 566.134 2.37432 1.82391 0
M  V30 5972 H 563.68 1.14283 0.87609 0
M  V30 5973 H 565.633 1.29658 4.00957 0
M  V30 5974 H 564.357 0.312271 3.25104 0
M  V30 5975 H 563.016 2.39173 2.77834 0
M  V30 5976 H 562.664 1.12104 4.90348 0
M  V30 5977 H 562.364 2.86216 5.1318 0
M  V30 5978 H 563.888 2.13817 5.71939 0
M  V30 5979 H 565.302 3.86044 4.23843 0
M  V30 5980 H 563.699 4.57029 3.88902 0
M  V30 5981 H 564.769 4.12617 2.54706 0
M  V30 5982 N 566.112 -0.949982 1.2575 0
M  V30 5983 C 567.358 -1.69766 1.10938 0
M  V30 5984 C 567.691 -1.91056 -0.348028 0
M  V30 5985 O 566.966 -1.48488 -1.25625 0
M  V30 5986 C 567.249 -3.07779 1.86933 0
M  V30 5987 C 567.102 -2.9387 3.4053 0
M  V30 5988 C 568.421 -4.07749 1.65616 0
M  V30 5989 H 565.54 -0.616144 0.404396 0
M  V30 5990 H 568.182 -1.10394 1.54639 0
M  V30 5991 H 566.332 -3.58462 1.4979 0
M  V30 5992 H 568.004 -2.50476 3.87375 0
M  V30 5993 H 566.247 -2.29686 3.68004 0
M  V30 5994 H 566.918 -3.91719 3.88922 0
M  V30 5995 H 569.394 -3.65994 1.97959 0
M  V30 5996 H 568.27 -5.02348 2.21218 0
M  V30 5997 H 568.531 -4.38029 0.598595 0
M  V30 5998 N 567.59 -1.07411 -1.15328 0
M  V30 5999 C 569.006 -0.799759 -1.38116 0
M  V30 6000 C 569.206 0.59572 -1.92493 0
M  V30 6001 O 568.262 1.35433 -2.13106 0
M  V30 6002 C 569.575 -1.87407 -2.35158 0
M  V30 6003 C 571.123 -1.89889 -2.48819 0
M  V30 6004 C 571.598 -2.96406 -3.49153 0
M  V30 6005 N 573.089 -2.95512 -3.56689 0
M  V30 6006 C 573.824 -3.74575 -4.34144 0
M  V30 6007 N 573.32 -4.63488 -5.14928 0
M  V30 6008 N 575.113 -3.62919 -4.29239 0
M  V30 6009 H 567.264 -1.97411 -0.78374 0
M  V30 6010 H 569.527 -0.856113 -0.407154 0
M  V30 6011 H 569.233 -2.8768 -2.0232 0
M  V30 6012 H 569.107 -1.73471 -3.34944 0
M  V30 6013 H 571.494 -0.902677 -2.80955 0
M  V30 6014 H 571.575 -2.07904 -1.49029 0
M  V30 6015 H 571.219 -3.96227 -3.17752 0
M  V30 6016 H 571.149 -2.75638 -4.48699 0
M  V30 6017 H 573.64 -2.31061 -2.99031 0
M  V30 6018 H 573.953 -5.20445 -5.71276 0
M  V30 6019 H 572.298 -4.67537 -5.14232 0
M  V30 6020 H 575.489 -2.92833 -3.65194 0
M  V30 6021 H 575.662 -4.24777 -4.89355 0
M  V30 6022 N 569.068 1.32177 -0.85831 0
M  V30 6023 C 570.314 1.97417 -0.46417 0
M  V30 6024 C 570.647 1.67746 0.978514 0
M  V30 6025 O 569.922 0.967654 1.68721 0
M  V30 6026 C 570.205 3.53069 -0.708094 0
M  V30 6027 C 570.058 3.92357 -2.19946 0
M  V30 6028 C 571.377 4.39783 -0.166881 0
M  V30 6029 H 568.496 0.717097 -0.17012 0
M  V30 6030 H 571.138 1.56499 -1.07741 0
M  V30 6031 H 569.288 3.88054 -0.186128 0
M  V30 6032 H 570.96 3.67533 -2.78779 0
M  V30 6033 H 569.203 3.41384 -2.67656 0
M  V30 6034 H 569.874 5.00841 -2.32082 0
M  V30 6035 H 572.35 4.11556 -0.613285 0
M  V30 6036 H 571.226 5.47671 -0.367093 0
M  V30 6037 H 571.487 4.32196 0.930559 0
M  V30 6038 N 570.547 0.616602 1.45037 0
M  V30 6039 C 571.494 -0.0969439 2.30596 0
M  V30 6040 C 572.464 -0.851151 1.42635 0
M  V30 6041 O 573.649 -0.835092 1.71554 0
M  V30 6042 C 570.789 -1.08234 3.27688 0
M  V30 6043 C 569.902 -0.328072 4.30752 0
M  V30 6044 C 569.037 -1.30399 5.14946 0
M  V30 6045 C 568.076 -0.538049 6.09731 0
M  V30 6046 N 567.213 -1.46371 6.86673 0
M  V30 6047 H 572.053 0.63864 2.91076 0
M  V30 6048 H 569.59 0.326733 1.43425 0
M  V30 6049 H 571.548 -1.66688 3.82454 0
M  V30 6050 H 570.178 -1.78523 2.68941 0
M  V30 6051 H 569.23 0.372136 3.78575 0
M  V30 6052 H 570.542 0.269142 4.98073 0
M  V30 6053 H 569.696 -1.96032 5.74157 0
M  V30 6054 H 568.435 -1.93514 4.47665 0
M  V30 6055 H 567.44 0.131852 5.49642 0
M  V30 6056 H 568.665 0.0881732 6.79043 0
M  V30 6057 H 566.611 -2.08233 6.22073 0
M  V30 6058 H 566.528 -0.920152 7.50379 0
M  V30 6059 H 567.796 -2.10932 7.50418 0
M  V30 6060 N 572.025 -1.5352 0.356285 0
M  V30 6061 C 573.271 -2.01414 -0.236653 0
M  V30 6062 C 573.604 -1.24339 -1.49176 0
M  V30 6063 O 572.879 -0.334496 -1.91602 0
M  V30 6064 C 573.162 -3.56059 -0.537982 0
M  V30 6065 C 573.015 -4.43835 0.730112 0
M  V30 6066 C 574.334 -4.19127 -1.34239 0
M  V30 6067 H 571.453 -0.732135 -0.0845386 0
M  V30 6068 H 574.095 -1.83854 0.479341 0
M  V30 6069 H 572.245 -3.71153 -1.14795 0
M  V30 6070 H 573.917 -4.40555 1.36782 0
M  V30 6071 H 572.16 -4.1218 1.3524 0
M  V30 6072 H 572.831 -5.49958 0.474358 0
M  V30 6073 H 575.307 -4.07809 -0.826498 0
M  V30 6074 H 574.183 -5.27378 -1.52198 0
M  V30 6075 H 574.444 -3.74581 -2.34822 0
M  V30 6076 N 573.503 -0.0852151 -1.57369 0
M  V30 6077 C 574.466 0.8627 -2.12344 0
M  V30 6078 C 575.466 1.21746 -1.05046 0
M  V30 6079 O 576.656 1.14852 -1.30976 0
M  V30 6080 C 573.788 2.1618 -2.63589 0
M  V30 6081 H 574.981 0.385511 -2.97412 0
M  V30 6082 H 572.534 0.163663 -1.55441 0
M  V30 6083 H 573.269 2.68406 -1.82013 0
M  V30 6084 H 573.054 1.91723 -3.4203 0
M  V30 6085 H 574.544 2.84011 -3.06149 0
M  V30 6086 N 574.981 1.5647 0.188427 0
M  V30 6087 C 575.891 1.98285 1.2538 0
M  V30 6088 C 576.907 0.891535 1.49424 0
M  V30 6089 O 578.083 1.19782 1.61908 0
M  V30 6090 C 575.148 2.31965 2.57669 0
M  V30 6091 C 574.209 3.54838 2.41638 0
M  V30 6092 C 573.442 3.86901 3.67618 0
M  V30 6093 O 573.665 3.20163 4.72072 0
M  V30 6094 O 572.599 4.80309 3.62749 0
M  V30 6095 H 576.425 2.89145 0.928912 0
M  V30 6096 H 574.01 1.44112 0.393955 0
M  V30 6097 H 575.892 2.54673 3.35737 0
M  V30 6098 H 574.567 1.44271 2.89771 0
M  V30 6099 H 573.474 3.37369 1.61658 0
M  V30 6100 H 574.807 4.43019 2.14465 0
M  V30 6101 N 576.459 -0.456382 1.50847 0
M  V30 6102 C 577.422 -1.53493 1.70213 0
M  V30 6103 C 578.422 -1.50264 0.572481 0
M  V30 6104 O 579.612 -1.52623 0.839751 0
M  V30 6105 C 576.744 -2.93091 1.741 0
M  V30 6106 H 577.937 -1.37633 2.66453 0
M  V30 6107 H 575.49 -0.683776 1.4055 0
M  V30 6108 H 576.225 -3.14378 0.796063 0
M  V30 6109 H 576.01 -2.9684 2.5618 0
M  V30 6110 H 577.5 -3.71368 1.90987 0
M  V30 6111 N 577.937 -1.40673 -0.710563 0
M  V30 6112 C 579.185 -1.38947 -1.46759 0
M  V30 6113 C 579.506 0.00572879 -1.94999 0
M  V30 6114 O 578.776 0.961358 -1.70689 0
M  V30 6115 H 577.356 -0.5114 -0.544499 0
M  V30 6116 H 580.018 -1.75773 -0.842012 0
M  V30 6117 H 579.114 -2.06745 -2.33801 0
M  V30 6118 N 579.415 0.9433 -1.26252 0
M  V30 6119 C 580.365 2.02746 -1.04297 0
M  V30 6120 C 581.349 1.60882 0.0239435 0
M  V30 6121 O 582.541 1.75947 -0.192757 0
M  V30 6122 C 579.67 3.36585 -0.6757 0
M  V30 6123 C 578.756 3.84939 -1.77996 0
M  V30 6124 N 579.147 4.05966 -3.01704 0
M  V30 6125 C 577.445 4.13833 -1.66308 0
M  V30 6126 C 578.146 4.45987 -3.73458 0
M  V30 6127 N 577.122 4.52569 -3.01135 0
M  V30 6128 H 580.924 2.17012 -1.98199 0
M  V30 6129 H 578.438 1.12898 -1.16738 0
M  V30 6130 H 580.435 4.13896 -0.499571 0
M  V30 6131 H 579.095 3.2369 0.255863 0
M  V30 6132 H 580.106 3.92716 -3.37631 0
M  V30 6133 H 576.783 4.09739 -0.801267 0
M  V30 6134 H 578.173 4.70465 -4.79701 0
M  V30 6135 N 580.893 1.08022 1.14757 0
M  V30 6136 C 582.123 0.827646 1.89298 0
M  V30 6137 C 582.531 -0.623506 1.78631 0
M  V30 6138 O 581.874 -1.43991 1.14071 0
M  V30 6139 C 581.936 1.16553 3.40082 0
M  V30 6140 C 581.6 2.61866 3.74533 0
M  V30 6141 C 582.597 3.60116 3.74984 0
M  V30 6142 C 580.282 2.97619 4.04633 0
M  V30 6143 C 582.276 4.92151 4.05051 0
M  V30 6144 C 579.963 4.2985 4.34364 0
M  V30 6145 C 580.961 5.26926 4.34555 0
M  V30 6146 O 580.649 6.5678 4.63568 0
M  V30 6147 H 580.381 0.298396 0.606577 0
M  V30 6148 H 582.935 1.44187 1.46285 0
M  V30 6149 H 581.165 0.494296 3.83528 0
M  V30 6150 H 582.854 0.894407 3.95923 0
M  V30 6151 H 583.62 3.33837 3.51821 0
M  V30 6152 H 579.499 2.22702 4.03639 0
M  V30 6153 H 583.043 5.67915 4.05115 0
M  V30 6154 H 578.94 4.55879 4.56995 0
M  V30 6155 H 579.708 6.62035 4.81303 0
M  V30 6156 N 582.371 -1.3172 0.865308 0
M  V30 6157 C 583.599 -2.01057 0.488251 0
M  V30 6158 C 584.014 -1.64979 -0.918 0
M  V30 6159 O 583.371 -0.876597 -1.60069 0
M  V30 6160 C 583.422 -3.55964 0.630224 0
M  V30 6161 O 583.143 -3.90749 1.98109 0
M  V30 6162 C 584.644 -4.42574 0.253567 0
M  V30 6163 H 581.864 -0.64332 0.190736 0
M  V30 6164 H 584.408 -1.68058 1.16519 0
M  V30 6165 H 582.563 -3.874 0.000895422 0
M  V30 6166 H 582.977 -4.85467 1.9855 0
M  V30 6167 H 584.451 -5.50521 0.403875 0
M  V30 6168 H 584.928 -4.31724 -0.806895 0
M  V30 6169 H 585.534 -4.16547 0.858404 0
M  V30 6170 N 583.85 -0.624285 -1.44708 0
M  V30 6171 C 584.783 0.133905 -2.27807 0
M  V30 6172 C 585.76 0.857794 -1.38133 0
M  V30 6173 O 586.945 0.863277 -1.6757 0
M  V30 6174 C 584.072 1.19541 -3.16903 0
M  V30 6175 C 583.118 0.572813 -4.22636 0
M  V30 6176 S 583.951 -0.631953 -5.31758 0
M  V30 6177 C 585.106 0.429733 -6.24423 0
M  V30 6178 H 585.34 -0.571072 -2.91764 0
M  V30 6179 H 582.873 -0.412261 -1.48794 0
M  V30 6180 H 584.831 1.80293 -3.68788 0
M  V30 6181 H 583.492 1.87255 -2.5218 0
M  V30 6182 H 582.685 1.37205 -4.84965 0
M  V30 6183 H 582.287 0.0400641 -3.73979 0
M  V30 6184 H 584.579 1.30421 -6.64828 0
M  V30 6185 H 585.522 -0.157804 -7.07924 0
M  V30 6186 H 585.93 0.75256 -5.59461 0
M  V30 6187 N 585.328 1.53329 -0.364422 0
M  V30 6188 C 586.744 1.59594 -0.0133165 0
M  V30 6189 C 586.944 1.37959 1.46865 0
M  V30 6190 O 586 1.18418 2.2301 0
M  V30 6191 C 587.313 2.97032 -0.468213 0
M  V30 6192 C 588.861 3.10138 -0.422334 0
M  V30 6193 C 589.336 4.49986 -0.853024 0
M  V30 6194 N 590.827 4.56098 -0.808037 0
M  V30 6195 C 591.562 5.62495 -1.11299 0
M  V30 6196 N 591.058 6.7665 -1.48717 0
M  V30 6197 N 592.851 5.52473 -1.03586 0
M  V30 6198 H 585.002 1.65644 -1.32951 0
M  V30 6199 H 587.265 0.77684 -0.543345 0
M  V30 6200 H 586.971 3.18 -1.5023 0
M  V30 6201 H 586.845 3.76918 0.145775 0
M  V30 6202 H 589.232 2.88881 0.602622 0
M  V30 6203 H 589.313 2.32263 -1.0718 0
M  V30 6204 H 588.957 4.7198 -1.87609 0
M  V30 6205 H 588.887 5.26289 -0.180819 0
M  V30 6206 H 591.378 3.74131 -0.532361 0
M  V30 6207 H 591.691 7.53776 -1.70415 0
M  V30 6208 H 590.036 6.78044 -1.52581 0
M  V30 6209 H 593.227 4.6217 -0.742736 0
M  V30 6210 H 593.4 6.35295 -1.27686 0
M  V30 6211 N 586.806 0.0935595 1.57322 0
M  V30 6212 C 587.769 -0.851426 2.12799 0
M  V30 6213 C 588.769 -1.21187 1.0569 0
M  V30 6214 O 589.959 -1.14156 1.31583 0
M  V30 6215 C 587.091 -2.14779 2.64731 0
M  V30 6216 H 588.284 -0.369733 2.97612 0
M  V30 6217 H 585.837 -0.155417 1.55525 0
M  V30 6218 H 586.572 -2.67437 1.83434 0
M  V30 6219 H 586.357 -1.89907 3.43042 0
M  V30 6220 H 587.847 -2.82383 3.07651 0
M  V30 6221 N 588.284 -1.56567 -0.180126 0
M  V30 6222 C 589.531 -1.81492 -0.898167 0
M  V30 6223 C 589.859 -0.669225 -1.82624 0
M  V30 6224 O 589.114 0.344096 -1.92651 0
M  V30 6225 C 589.413 -3.1252 -1.73395 0
M  V30 6226 C 589.079 -4.40658 -0.955567 0
M  V30 6227 C 587.741 -4.75465 -0.740707 0
M  V30 6228 C 590.093 -5.19593 -0.408948 0
M  V30 6229 C 587.421 -5.86691 0.0320128 0
M  V30 6230 C 589.773 -6.31627 0.350638 0
M  V30 6231 C 588.437 -6.65007 0.576378 0
M  V30 6232 H 587.707 -0.664125 -0.328662 0
M  V30 6233 H 590.354 -1.908 -0.163616 0
M  V30 6234 H 588.659 -2.98515 -2.53763 0
M  V30 6235 H 590.356 -3.29013 -2.29241 0
M  V30 6236 H 586.946 -4.13352 -1.13306 0
M  V30 6237 H 591.13 -4.93104 -0.562307 0
M  V30 6238 H 586.386 -6.11016 0.216735 0
M  V30 6239 H 590.56 -6.92001 0.781497 0
M  V30 6240 H 588.187 -7.51033 1.17703 0
M  V30 6241 N 589.762 0.448376 -1.51087 0
M  V30 6242 C 590.712 1.54156 -1.67988 0
M  V30 6243 C 591.696 1.5178 -0.534015 0
M  V30 6244 O 592.888 1.58419 -0.789448 0
M  V30 6245 C 590.017 2.92437 -1.79822 0
M  V30 6246 C 589.103 2.99611 -3.00157 0
M  V30 6247 N 589.494 2.7655 -4.23502 0
M  V30 6248 C 587.792 3.30764 -2.99184 0
M  V30 6249 C 588.493 2.89281 -5.0467 0
M  V30 6250 N 587.469 3.20473 -4.39088 0
M  V30 6251 H 591.271 1.35061 -2.61028 0
M  V30 6252 H 588.785 0.655504 -1.48583 0
M  V30 6253 H 590.782 3.71068 -1.90037 0
M  V30 6254 H 589.442 3.1256 -0.879554 0
M  V30 6255 H 590.453 2.5169 -4.52628 0
M  V30 6256 H 587.13 3.56732 -2.16907 0
M  V30 6257 H 588.52 2.75499 -6.12821 0
M  V30 6258 N 591.24 1.41047 0.703093 0
M  V30 6259 C 592.15 1.44645 1.84703 0
M  V30 6260 C 593.166 0.337778 1.7069 0
M  V30 6261 O 594.342 0.584327 1.92737 0
M  V30 6262 C 591.407 1.31928 3.20618 0
M  V30 6263 C 590.468 2.53047 3.46794 0
M  V30 6264 C 589.701 2.40927 4.76224 0
M  V30 6265 O 589.924 1.42978 5.5219 0
M  V30 6266 O 588.858 3.30543 5.03016 0
M  V30 6267 H 592.684 2.41139 1.84624 0
M  V30 6268 H 590.269 1.22504 0.855167 0
M  V30 6269 H 592.151 1.27092 4.01778 0
M  V30 6270 H 590.826 0.385469 3.21397 0
M  V30 6271 H 589.733 2.6346 2.65593 0
M  V30 6272 H 591.066 3.45231 3.50822 0
M  V30 6273 N 592.718 -0.936591 1.26751 0
M  V30 6274 C 593.995 -1.66094 1.03306 0
M  V30 6275 C 594.375 -2.06568 -0.435058 0
M  V30 6276 O 593.723 -1.79305 -1.41641 0
M  V30 6277 C 593.933 -2.86969 1.98619 0
M  V30 6278 C 595.281 -3.58516 2.27489 0
M  V30 6279 O 596.305 -2.97082 1.96522 0
M  V30 6280 O 595.164 -4.69181 2.80235 0
M  V30 6281 H 592.258 -0.727568 0.393158 0
M  V30 6282 H 594.804 -0.987914 1.3798 0
M  V30 6283 H 593.576 -2.53985 2.9767 0
M  V30 6284 H 593.199 -3.61996 1.64454 0
M  V30 6285 N 594.196 -1.08629 -1.14182 0
M  V30 6286 C 595.159 -0.722027 -2.1753 0
M  V30 6287 C 596.159 0.244305 -1.58933 0
M  V30 6288 O 597.349 0.0235545 -1.74184 0
M  V30 6289 C 594.481 -0.0663966 -3.40835 0
M  V30 6290 H 595.674 -1.63719 -2.51269 0
M  V30 6291 H 593.227 -0.884442 -1.28869 0
M  V30 6292 H 593.962 0.860389 -3.12678 0
M  V30 6293 H 593.747 -0.761598 -3.84632 0
M  V30 6294 H 595.237 0.173346 -4.1724 0
M  V30 6295 N 595.674 1.31259 -0.872281 0
M  V30 6296 C 596.584 2.32221 -0.333255 0
M  V30 6297 C 597.6 1.6481 0.558013 0
M  V30 6298 O 598.776 1.96212 0.454175 0
M  V30 6299 C 595.841 3.43708 0.454479 0
M  V30 6300 C 594.902 4.26774 -0.465024 0
M  V30 6301 C 594.135 5.32937 0.28521 0
M  V30 6302 O 594.358 5.49968 1.513 0
M  V30 6303 O 593.292 6.00834 -0.358126 0
M  V30 6304 H 597.118 2.80252 -1.17016 0
M  V30 6305 H 594.703 1.352 -0.635724 0
M  V30 6306 H 596.585 4.11656 0.900963 0
M  V30 6307 H 595.26 2.97836 1.26789 0
M  V30 6308 H 594.167 3.61571 -0.960055 0
M  V30 6309 H 595.5 4.76217 -1.2441 0
M  V30 6310 N 597.152 0.631951 1.44375 0
M  V30 6311 C 598.398 0.13697 2.02337 0
M  V30 6312 C 598.731 -1.23826 1.49602 0
M  V30 6313 O 598.006 -1.8221 0.680415 0
M  V30 6314 C 598.289 0.124536 3.59885 0
M  V30 6315 C 598.142 1.53217 4.229 0
M  V30 6316 C 599.461 -0.550481 4.36644 0
M  V30 6317 H 596.58 0.051247 0.735216 0
M  V30 6318 H 599.222 0.808581 1.71936 0
M  V30 6319 H 597.372 -0.44737 3.85916 0
M  V30 6320 H 599.044 2.15303 4.07973 0
M  V30 6321 H 597.287 2.0858 3.80364 0
M  V30 6322 H 597.958 1.4755 5.31914 0
M  V30 6323 H 600.434 -0.0641154 4.16051 0
M  V30 6324 H 599.31 -0.528371 5.46351 0
M  V30 6325 H 599.571 -1.62097 4.11311 0
M  V30 6326 N 598.631 -1.53133 0.372548 0
M  V30 6327 C 599.563 -2.23557 -0.505444 0
M  V30 6328 C 600.576 -1.25211 -1.04049 0
M  V30 6329 O 601.765 -1.51391 -0.945675 0
M  V30 6330 C 598.865 -2.92516 -1.71136 0
M  V30 6331 C 598.038 -4.17428 -1.30661 0
M  V30 6332 C 597.097 -4.69535 -2.37536 0
M  V30 6333 O 596.123 -5.33042 -1.99637 0
M  V30 6334 N 597.325 -4.47947 -3.6922 0
M  V30 6335 H 600.09 -2.9954 0.0978259 0
M  V30 6336 H 597.651 -1.60684 0.198068 0
M  V30 6337 H 599.643 -3.24281 -2.42124 0
M  V30 6338 H 598.213 -2.19944 -2.22134 0
M  V30 6339 H 597.433 -3.91888 -0.426292 0
M  V30 6340 H 598.721 -4.98622 -1.01259 0
M  V30 6341 H 598.119 -3.97219 -4.02783 0
M  V30 6342 H 596.676 -4.84245 -4.36292 0
M  V30 6343 N 600.109 -0.101901 -1.5727 0
M  V30 6344 C 601.039 0.851544 -2.17419 0
M  V30 6345 C 602.02 1.28942 -1.10941 0
M  V30 6346 O 603.205 1.35509 -1.39107 0
M  V30 6347 C 600.335 2.10816 -2.75996 0
M  V30 6348 C 599.289 1.80867 -3.87906 0
M  V30 6349 C 598.615 3.13413 -4.33216 0
M  V30 6350 C 599.915 1.0903 -5.10793 0
M  V30 6351 H 601.609 0.350381 -2.97343 0
M  V30 6352 H 599.155 0.16709 -1.43027 0
M  V30 6353 H 601.108 2.77959 -3.16729 0
M  V30 6354 H 599.832 2.63227 -1.93337 0
M  V30 6355 H 598.491 1.16119 -3.47724 0
M  V30 6356 H 598.139 3.63725 -3.47438 0
M  V30 6357 H 597.839 2.94155 -5.08671 0
M  V30 6358 H 599.363 3.81704 -4.76586 0
M  V30 6359 H 600.777 1.66295 -5.48652 0
M  V30 6360 H 599.174 0.99927 -5.91722 0
M  V30 6361 H 600.244 0.0741704 -4.84843 0
M  V30 6362 N 601.587 1.56661 0.17182 0
M  V30 6363 C 602.812 1.86459 0.908165 0
M  V30 6364 C 603.237 0.688181 1.75059 0
M  V30 6365 O 602.595 -0.362753 1.77634 0
M  V30 6366 C 602.643 3.14669 1.76112 0
M  V30 6367 O 601.747 2.96858 2.86268 0
M  V30 6368 H 601.088 0.613318 0.254434 0
M  V30 6369 H 603.618 2.03892 0.170113 0
M  V30 6370 H 603.628 3.46061 2.16115 0
M  V30 6371 H 602.303 3.99905 1.14233 0
M  V30 6372 H 600.88 2.76819 2.49852 0
M  V30 6373 N 603.065 -0.440357 1.51323 0
M  V30 6374 C 604.312 -1.19004 1.63842 0
M  V30 6375 C 604.64 -1.91266 0.35321 0
M  V30 6376 O 603.895 -1.84143 -0.662565 0
M  V30 6377 C 604.194 -2.2339 2.78984 0
M  V30 6378 C 603.86 -1.68162 4.18369 0
M  V30 6379 C 602.522 -1.52823 4.56288 0
M  V30 6380 C 604.874 -1.27524 5.05358 0
M  V30 6381 C 602.202 -0.953157 5.78906 0
M  V30 6382 C 604.554 -0.714474 6.28552 0
M  V30 6383 C 603.218 -0.547961 6.65247 0
M  V30 6384 H 602.488 -0.435468 0.59954 0
M  V30 6385 H 605.135 -0.481538 1.85347 0
M  V30 6386 H 603.44 -3.00267 2.51688 0
M  V30 6387 H 605.137 -2.81211 2.85869 0
M  V30 6388 H 601.727 -1.81077 3.8847 0
M  V30 6389 H 605.911 -1.38197 4.76671 0
M  V30 6390 H 601.167 -0.811882 6.05986 0
M  V30 6391 H 605.341 -0.391059 6.95301 0
M  V30 6392 H 602.968 -0.100222 7.60134 0
M  V30 6393 N 604.543 -1.41418 -0.695603 0
M  V30 6394 C 605.475 -1.39195 -1.82092 0
M  V30 6395 C 606.488 -0.294132 -1.60121 0
M  V30 6396 O 607.677 -0.555854 -1.69625 0
M  V30 6397 C 604.777 -1.14828 -3.18854 0
M  V30 6398 C 603.95 -2.36649 -3.67853 0
M  V30 6399 C 603.009 -2.08139 -4.83285 0
M  V30 6400 O 602.035 -2.81177 -4.94902 0
M  V30 6401 N 603.237 -1.07162 -5.70523 0
M  V30 6402 H 606.002 -2.36185 -1.84491 0
M  V30 6403 H 603.563 -1.3603 -0.877923 0
M  V30 6404 H 605.555 -0.937075 -3.93702 0
M  V30 6405 H 604.125 -0.264358 -3.1148 0
M  V30 6406 H 603.345 -2.73472 -2.83913 0
M  V30 6407 H 604.633 -3.17816 -3.97329 0
M  V30 6408 H 604.031 -0.467124 -5.63768 0
M  V30 6409 H 602.588 -0.920311 -6.4527 0
M  V30 6410 N 606.021 0.929856 -1.27246 0
M  V30 6411 C 606.951 2.04722 -1.12299 0
M  V30 6412 C 607.932 1.70082 -0.0250464 0
M  V30 6413 O 609.117 1.93176 -0.199141 0
M  V30 6414 C 606.247 3.38721 -0.767145 0
M  V30 6415 C 605.201 3.87466 -1.81808 0
M  V30 6416 C 604.527 5.18246 -1.31626 0
M  V30 6417 C 605.827 4.11095 -3.22177 0
M  V30 6418 H 607.521 2.17485 -2.05769 0
M  V30 6419 H 605.067 1.04503 -0.990715 0
M  V30 6420 H 607.02 4.16366 -0.649413 0
M  V30 6421 H 605.744 3.25967 0.203259 0
M  V30 6422 H 604.403 3.12012 -1.92468 0
M  V30 6423 H 604.051 5.01881 -0.335378 0
M  V30 6424 H 603.751 5.51829 -2.01887 0
M  V30 6425 H 605.275 5.98462 -1.21143 0
M  V30 6426 H 606.689 4.79316 -3.1453 0
M  V30 6427 H 605.086 4.55982 -3.90129 0
M  V30 6428 H 606.156 3.16468 -3.67391 0
M  V30 6429 N 607.499 1.09233 1.13605 0
M  V30 6430 C 608.431 0.687794 2.18637 0
M  V30 6431 C 609.444 -0.26936 1.60556 0
M  V30 6432 O 610.633 -0.0557162 1.78413 0
M  V30 6433 C 607.733 -0.00751901 3.38899 0
M  V30 6434 C 606.906 0.97067 4.26494 0
M  V30 6435 C 605.965 0.309129 5.25291 0
M  V30 6436 O 604.991 0.956149 5.61112 0
M  V30 6437 N 606.193 -0.937555 5.72879 0
M  V30 6438 H 608.958 1.59141 2.53957 0
M  V30 6439 H 606.519 0.979515 1.28907 0
M  V30 6440 H 608.511 -0.461238 4.02063 0
M  V30 6441 H 607.081 -0.813353 3.01833 0
M  V30 6442 H 606.301 1.603 3.60135 0
M  V30 6443 H 607.589 1.63323 4.81875 0
M  V30 6444 H 606.987 -1.48281 5.4592 0
M  V30 6445 H 605.544 -1.33463 6.3799 0
M  V30 6446 N 608.977 -1.30795 0.87923 0
M  V30 6447 C 610.226 -1.95636 0.490875 0
M  V30 6448 C 610.539 -1.70214 -0.963674 0
M  V30 6449 O 611.745 -2.28991 -1.45861 0
M  V30 6450 C 610.201 -3.50271 0.826929 0
M  V30 6451 C 609.809 -3.84521 2.29886 0
M  V30 6452 C 611.553 -4.21456 0.507494 0
M  V30 6453 C 609.46 -5.32309 2.57685 0
M  V30 6454 H 608.39 -0.732238 0.179841 0
M  V30 6455 H 611.041 -1.48829 1.07341 0
M  V30 6456 H 609.423 -3.9562 0.173542 0
M  V30 6457 H 610.597 -3.50102 2.99609 0
M  V30 6458 H 608.912 -3.26425 2.58526 0
M  V30 6459 H 611.509 -5.30199 0.692293 0
M  V30 6460 H 611.852 -4.12614 -0.552718 0
M  V30 6461 H 612.385 -3.81772 1.11782 0
M  V30 6462 H 609.124 -5.46195 3.62424 0
M  V30 6463 H 608.644 -5.68048 1.92566 0
M  V30 6464 H 610.323 -5.99678 2.42889 0
M  V30 6465 N 610.455 -0.639598 -1.44038 0
M  V30 6466 C 611.403 0.0723409 -2.32487 0
M  V30 6467 C 612.397 0.827129 -1.47834 0
M  V30 6468 O 613.603 0.73907 -1.64127 0
M  V30 6469 H 609.978 0.0421696 -0.750817 0
M  V30 6470 H 611.949 -0.691593 -2.90275 0
M  V30 6471 C 610.698 1.03452 -3.31953 0
M  V30 6472 H 610.021 0.46315 -3.97108 0
M  V30 6473 H 611.461 1.502 -3.96505 0
M  V30 6474 C 609.92 2.12392 -2.61518 0
M  V30 6475 O 610.45 3.2059 -2.42044 0
M  V30 6476 N 608.656 1.88563 -2.21116 0
M  V30 6477 H 608.203 1.00577 -2.37154 0
M  V30 6478 H 608.161 2.61651 -1.74316 0
M  V30 6479 N 611.933 1.52934 -0.380664 0
M  V30 6480 C 613.179 2.01765 0.20458 0
M  V30 6481 C 613.512 1.26696 1.47179 0
M  V30 6482 O 612.787 0.364936 1.91046 0
M  V30 6483 C 613.07 3.56869 0.481269 0
M  V30 6484 C 612.923 4.42617 -0.800629 0
M  V30 6485 C 614.242 4.2121 1.27554 0
M  V30 6486 H 611.361 0.733388 0.0728803 0
M  V30 6487 H 614.003 1.83068 -0.50853 0
M  V30 6488 H 612.153 3.72932 1.08875 0
M  V30 6489 H 613.825 4.38323 -1.43773 0
M  V30 6490 H 612.068 4.09977 -1.4178 0
M  V30 6491 H 612.739 5.49134 -0.561791 0
M  V30 6492 H 615.215 4.09072 0.761514 0
M  V30 6493 H 614.091 5.29732 1.43788 0
M  V30 6494 H 614.352 3.78269 2.28833 0
M  V30 6495 N 613.412 0.11024 1.57214 0
M  V30 6496 C 614.823 -0.416527 1.81994 0
M  V30 6497 C 615.174 -1.67183 1.02686 0
M  V30 6498 O 614.299 -2.14823 0.260782 0
M  V30 6499 C 614.894 -0.762466 3.30109 0
M  V30 6500 C 613.453 -1.23391 3.556 0
M  V30 6501 C 612.6 -0.238166 2.76275 0
M  V30 6502 H 615.551 0.335491 1.55113 0
M  V30 6503 H 615.572 -1.62068 3.44259 0
M  V30 6504 H 615.084 0.151346 3.87805 0
M  V30 6505 H 613.185 -2.16492 3.03253 0
M  V30 6506 H 613.298 -1.18528 4.64207 0
M  V30 6507 H 611.662 -0.723421 2.4421 0
M  V30 6508 H 612.445 0.668591 3.36727 0
M  V30 6509 N 614.89 -1.56749 -0.16351 0
M  V30 6510 C 616.136 -1.82704 -0.880168 0
M  V30 6511 C 616.469 -0.689311 -1.81555 0
M  V30 6512 O 615.744 0.308224 -1.92042 0
M  V30 6513 C 616.027 -3.19084 -1.66905 0
M  V30 6514 C 615.88 -4.43397 -0.756269 0
M  V30 6515 C 617.199 -3.52493 -2.63509 0
M  V30 6516 H 614.318 -0.664608 -0.318535 0
M  V30 6517 H 616.96 -1.89438 -0.146036 0
M  V30 6518 H 615.11 -3.13475 -2.2949 0
M  V30 6519 H 616.782 -4.61079 -0.14269 0
M  V30 6520 H 615.025 -4.33752 -0.0647944 0
M  V30 6521 H 615.696 -5.3539 -1.34393 0
M  V30 6522 H 618.172 -3.58606 -2.11047 0
M  V30 6523 H 617.048 -4.48979 -3.15767 0
M  V30 6524 H 617.309 -2.77597 -3.44082 0
M  V30 6525 N 616.368 0.432326 -1.51554 0
M  V30 6526 C 617.784 0.769195 -1.39841 0
M  V30 6527 C 617.984 1.95584 -0.484675 0
M  V30 6528 O 617.04 2.52433 0.0582829 0
M  V30 6529 C 618.353 1.04487 -2.81963 0
M  V30 6530 C 619.901 1.149 -2.91148 0
M  V30 6531 C 620.376 1.45758 -4.34187 0
M  V30 6532 N 621.867 1.52671 -4.37317 0
M  V30 6533 C 622.602 1.78129 -5.4503 0
M  V30 6534 N 622.098 2.01345 -6.62897 0
M  V30 6535 N 623.891 1.79953 -5.32516 0
M  V30 6536 H 616.042 -0.349122 -2.09511 0
M  V30 6537 H 618.305 -0.0938113 -0.943347 0
M  V30 6538 H 618.011 0.24557 -3.50842 0
M  V30 6539 H 617.885 1.97119 -3.21596 0
M  V30 6540 H 620.272 1.93891 -2.22464 0
M  V30 6541 H 620.353 0.201568 -2.55005 0
M  V30 6542 H 619.997 0.672917 -5.03423 0
M  V30 6543 H 619.927 2.41715 -4.67848 0
M  V30 6544 H 622.418 1.36612 -3.52343 0
M  V30 6545 H 622.731 2.20155 -7.40778 0
M  V30 6546 H 621.076 1.98657 -6.66003 0
M  V30 6547 H 624.267 1.61337 -4.39418 0
M  V30 6548 H 624.44 1.99455 -6.1654 0
M  V30 6549 N 617.846 1.41785 0.688094 0
M  V30 6550 C 619.092 1.41753 1.4503 0
M  V30 6551 C 619.425 0.0290745 1.94178 0
M  V30 6552 O 618.7 -0.944456 1.7003 0
M  V30 6553 C 618.983 2.43069 2.65686 0
M  V30 6554 C 618.836 3.91053 2.22256 0
M  V30 6555 C 620.155 2.41543 3.67893 0
M  V30 6556 H 617.274 0.516202 0.526027 0
M  V30 6557 H 619.916 1.73111 0.783105 0
M  V30 6558 H 618.066 2.1646 3.2261 0
M  V30 6559 H 619.738 4.28594 1.70602 0
M  V30 6560 H 617.981 4.05559 1.53963 0
M  V30 6561 H 618.652 4.57501 3.08863 0
M  V30 6562 H 621.128 2.65175 3.20658 0
M  V30 6563 H 620.004 3.14434 4.49914 0
M  V30 6564 H 620.265 1.43666 4.18106 0
M  V30 6565 N 619.324 -0.923095 1.27737 0
M  V30 6566 C 620.254 -2.04124 1.13383 0
M  V30 6567 C 621.235 -1.70066 0.0340658 0
M  V30 6568 O 622.42 -1.93068 0.209383 0
M  V30 6569 C 619.55 -3.3831 0.785097 0
M  V30 6570 C 618.504 -3.86496 1.8386 0
M  V30 6571 C 617.83 -5.1754 1.34373 0
M  V30 6572 C 619.13 -4.09381 3.24353 0
M  V30 6573 H 620.824 -2.1639 2.06919 0
M  V30 6574 H 618.37 -1.03976 0.996243 0
M  V30 6575 H 620.323 -4.16016 0.671485 0
M  V30 6576 H 619.047 -3.2607 -0.185969 0
M  V30 6577 H 617.706 -3.10987 1.9412 0
M  V30 6578 H 617.354 -5.01696 0.361989 0
M  V30 6579 H 617.054 -5.50751 2.04811 0
M  V30 6580 H 618.578 -5.97811 1.24315 0
M  V30 6581 H 619.992 -4.77641 3.17067 0
M  V30 6582 H 618.389 -4.53906 3.92542 0
M  V30 6583 H 619.459 -3.14515 3.69064 0
M  V30 6584 N 620.802 -1.09834 -1.13024 0
M  V30 6585 C 621.712 -0.753731 -2.22162 0
M  V30 6586 C 622.728 0.246105 -1.72251 0
M  V30 6587 O 623.904 0.0864051 -2.01215 0
M  V30 6588 C 620.969 -0.183958 -3.46212 0
M  V30 6589 C 620.03 -1.24028 -4.10993 0
M  V30 6590 C 619.263 -0.697597 -5.29121 0
M  V30 6591 O 619.486 0.478092 -5.68393 0
M  V30 6592 O 618.42 -1.4546 -5.84059 0
M  V30 6593 H 622.246 -1.66456 -2.5402 0
M  V30 6594 H 619.831 -0.873026 -1.21238 0
M  V30 6595 H 621.713 0.130257 -4.21199 0
M  V30 6596 H 620.388 0.699823 -3.16045 0
M  V30 6597 H 619.295 -1.60725 -3.37814 0
M  V30 6598 H 620.628 -2.09685 -4.45301 0
M  V30 6599 N 622.28 1.30327 -0.886154 0
M  V30 6600 C 623.21 2.30549 -0.370028 0
M  V30 6601 C 624.191 1.61039 0.547751 0
M  V30 6602 O 625.376 1.8864 0.461353 0
M  V30 6603 C 622.506 3.44808 0.415275 0
M  V30 6604 C 621.46 4.26024 -0.41085 0
M  V30 6605 C 620.786 5.32347 0.501128 0
M  V30 6606 C 622.086 4.95433 -1.65359 0
M  V30 6607 H 623.78 2.73969 -1.20754 0
M  V30 6608 H 621.326 1.3171 -0.582097 0
M  V30 6609 H 623.279 4.13986 0.78699 0
M  V30 6610 H 622.003 3.00197 1.28644 0
M  V30 6611 H 620.662 3.58535 -0.764719 0
M  V30 6612 H 620.31 4.83982 1.37004 0
M  V30 6613 H 620.01 5.87581 -0.0478356 0
M  V30 6614 H 621.534 6.0438 0.869333 0
M  V30 6615 H 622.948 5.5712 -1.35239 0
M  V30 6616 H 621.345 5.60537 -2.14284 0
M  V30 6617 H 622.415 4.21493 -2.39733 0
M  V30 6618 N 623.758 0.647228 1.43697 0
M  V30 6619 C 624.983 0.164083 2.0675 0
M  V30 6620 C 625.408 -1.15892 1.48158 0
M  V30 6621 O 624.766 -1.71459 0.589194 0
M  V30 6622 C 624.814 0.0800368 3.60511 0
M  V30 6623 O 623.918 -0.959453 4.01084 0
M  V30 6624 H 623.259 0.0921288 0.657578 0
M  V30 6625 H 625.789 0.88846 1.84303 0
M  V30 6626 H 625.799 -0.105263 4.07864 0
M  V30 6627 H 624.474 1.04586 4.02535 0
M  V30 6628 H 623.051 -0.747425 3.65333 0
M  V30 6629 N 625.236 -1.5273 0.388769 0
M  V30 6630 C 626.146 -2.30165 -0.453993 0
M  V30 6631 C 627.162 -1.37058 -1.07197 0
M  V30 6632 O 628.338 -1.70127 -1.0779 0
M  V30 6633 C 625.403 -3.09303 -1.56628 0
M  V30 6634 C 624.464 -4.18117 -0.973467 0
M  V30 6635 C 623.697 -4.93472 -2.03275 0
M  V30 6636 O 623.92 -4.68913 -3.24772 0
M  V30 6637 O 622.854 -5.78833 -1.65034 0
M  V30 6638 H 626.68 -3.03185 0.176816 0
M  V30 6639 H 624.265 -1.4862 0.152501 0
M  V30 6640 H 626.147 -3.58648 -2.21246 0
M  V30 6641 H 624.822 -2.39098 -2.18206 0
M  V30 6642 H 623.729 -3.7297 -0.290556 0
M  V30 6643 H 625.062 -4.90556 -0.401908 0
M  V30 6644 N 626.714 -0.118576 -1.57153 0
M  V30 6645 C 627.939 0.550582 -1.99958 0
M  V30 6646 C 628.364 1.59458 -0.997736 0
M  V30 6647 O 627.722 1.81274 0.0306269 0
M  V30 6648 C 627.77 1.15379 -3.41643 0
M  V30 6649 O 626.874 2.26932 -3.44348 0
M  V30 6650 H 626.215 0.137567 -0.649593 0
M  V30 6651 H 628.745 -0.206926 -2.03551 0
M  V30 6652 H 628.755 1.48942 -3.79843 0
M  V30 6653 H 627.43 0.389087 -4.14076 0
M  V30 6654 H 626.007 1.94812 -3.17967 0
M  V30 6655 N 628.193 1.56834 0.155195 0
M  V30 6656 C 629.143 1.94061 1.19684 0
M  V30 6657 C 630.127 0.810851 1.38975 0
M  V30 6658 O 631.319 1.07422 1.40675 0
M  V30 6659 C 628.448 2.31778 2.53247 0
M  V30 6660 C 627.534 3.51305 2.37583 0
M  V30 6661 N 627.925 4.68081 1.9166 0
M  V30 6662 C 626.223 3.56228 2.6836 0
M  V30 6663 C 626.924 5.50193 1.88845 0
M  V30 6664 N 625.9 4.91676 2.31852 0
M  V30 6665 H 629.702 2.81826 0.833747 0
M  V30 6666 H 627.216 1.58284 0.363328 0
M  V30 6667 H 629.213 2.56649 3.28538 0
M  V30 6668 H 627.873 1.4536 2.90346 0
M  V30 6669 H 628.884 4.91993 1.6175 0
M  V30 6670 H 625.561 2.8033 3.09389 0
M  V30 6671 H 626.951 6.53801 1.54901 0
M  V30 6672 N 629.671 -0.424282 1.51781 0
M  V30 6673 C 631.082 -1.00368 1.57427 0
M  V30 6674 C 631.433 -1.91962 0.40558 0
M  V30 6675 O 630.558 -2.111 -0.47601 0
M  V30 6676 C 631.153 -1.82707 2.85313 0
M  V30 6677 C 629.712 -2.35675 2.93487 0
M  V30 6678 C 628.859 -1.1524 2.5222 0
M  V30 6679 H 631.81 -0.205064 1.5737 0
M  V30 6680 H 631.831 -2.68294 2.69812 0
M  V30 6681 H 631.343 -1.16017 3.70353 0
M  V30 6682 H 629.444 -3.05781 2.12906 0
M  V30 6683 H 629.557 -2.67578 3.97415 0
M  V30 6684 H 627.921 -1.50174 2.05718 0
M  V30 6685 H 628.704 -0.5014 3.39619 0
M  V30 6686 N 631.149 -1.42148 -0.680565 0
M  V30 6687 C 632.426 -1.32795 -1.43614 0
M  V30 6688 C 632.806 0.037415 -2.11067 0
M  V30 6689 O 632.154 1.05258 -2.02813 0
M  V30 6690 C 632.364 -2.49206 -2.44331 0
M  V30 6691 C 633.712 -2.91059 -3.09144 0
M  V30 6692 O 634.736 -2.49054 -2.54657 0
M  V30 6693 O 633.595 -3.63741 -4.07866 0
M  V30 6694 H 630.689 -0.523397 -0.640301 0
M  V30 6695 H 633.235 -1.54144 -0.709775 0
M  V30 6696 H 632.007 -3.40252 -1.93247 0
M  V30 6697 H 631.63 -2.29813 -3.24456 0
M  V30 6698 N 632.627 0.916307 -1.28225 0
M  V30 6699 C 633.852 1.7043 -1.18188 0
M  V30 6700 C 634.277 1.86346 0.256274 0
M  V30 6701 O 633.635 1.37175 1.18544 0
M  V30 6702 C 633.683 3.07546 -1.88275 0
M  V30 6703 O 632.787 3.94904 -1.18848 0
M  V30 6704 H 632.128 0.521967 -0.410423 0
M  V30 6705 H 634.658 1.14589 -1.69501 0
M  V30 6706 H 634.668 3.57793 -1.96082 0
M  V30 6707 H 633.343 2.95279 -2.92887 0
M  V30 6708 H 631.92 3.53339 -1.19187 0
M  V30 6709 N 634.105 1.10431 1.1244 0
M  V30 6710 C 635.353 0.845045 1.83585 0
M  V30 6711 C 635.674 -0.631168 1.84503 0
M  V30 6712 O 634.944 -1.45825 1.30813 0
M  V30 6713 H 633.524 0.309628 0.679809 0
M  V30 6714 H 636.186 1.39458 1.36153 0
M  V30 6715 H 635.282 1.20786 2.8778 0
M  V30 6716 N 635.583 -1.29855 0.893053 0
M  V30 6717 C 636.493 -2.31661 0.370157 0
M  V30 6718 C 637.509 -1.65677 -0.531723 0
M  V30 6719 O 638.685 -1.9691 -0.422902 0
M  V30 6720 C 635.75 -3.44388 -0.399741 0
M  V30 6721 C 634.811 -4.2598 0.532861 0
M  V30 6722 C 634.044 -5.33324 -0.200388 0
M  V30 6723 O 634.267 -5.52305 -1.42531 0
M  V30 6724 O 633.201 -6.00188 0.453668 0
M  V30 6725 H 637.027 -2.78354 1.2146 0
M  V30 6726 H 634.612 -1.34171 0.657153 0
M  V30 6727 H 636.494 -4.13037 -0.835358 0
M  V30 6728 H 635.169 -2.99815 -1.22035 0
M  V30 6729 H 634.076 -3.59998 1.01746 0
M  V30 6730 H 635.409 -4.74178 1.3197 0
M  V30 6731 N 637.061 -0.65484 -1.43351 0
M  V30 6732 C 637.993 0.0744757 -2.29079 0
M  V30 6733 C 639.006 0.7855 -1.42596 0
M  V30 6734 O 640.195 0.642986 -1.66517 0
M  V30 6735 C 637.295 1.12859 -3.19556 0
M  V30 6736 C 636.468 0.495381 -4.34586 0
M  V30 6737 C 635.527 1.44659 -5.05925 0
M  V30 6738 O 634.553 0.954567 -5.61139 0
M  V30 6739 N 635.755 2.78051 -5.09576 0
M  V30 6740 H 638.52 -0.661346 -2.92312 0
M  V30 6741 H 636.081 -0.497744 -1.54059 0
M  V30 6742 H 638.073 1.76577 -3.64147 0
M  V30 6743 H 636.643 1.76636 -2.57912 0
M  V30 6744 H 635.863 -0.32092 -3.92892 0
M  V30 6745 H 637.151 0.0534203 -5.08772 0
M  V30 6746 H 636.549 3.20584 -4.66093 0
M  V30 6747 H 635.106 3.37068 -5.57878 0
M  V30 6748 N 638.539 1.52521 -0.396863 0
M  V30 6749 C 639.767 2.06091 0.18275 0
M  V30 6750 C 640.182 1.26796 1.39886 0
M  V30 6751 O 639.539 0.316585 1.79733 0
M  V30 6752 C 639.59 3.57362 0.545377 0
M  V30 6753 O 639.311 4.33656 -0.622428 0
M  V30 6754 C 640.812 4.27305 1.18004 0
M  V30 6755 H 638.032 0.670504 0.025789 0
M  V30 6756 H 640.576 1.96561 -0.564276 0
M  V30 6757 H 638.731 3.66941 1.2423 0
M  V30 6758 H 639.145 5.23507 -0.322662 0
M  V30 6759 H 640.619 5.34366 1.38408 0
M  V30 6760 H 641.096 3.83 2.1496 0
M  V30 6761 H 641.702 4.22064 0.523671 0
M  V30 6762 N 640.017 0.126909 1.57088 0
M  V30 6763 C 641.263 -0.529952 1.95753 0
M  V30 6764 C 641.596 -1.65823 1.01077 0
M  V30 6765 O 640.871 -1.94437 0.0494162 0
M  V30 6766 C 641.154 -1.05517 3.44294 0
M  V30 6767 C 641.007 0.0702253 4.49745 0
M  V30 6768 C 642.326 -1.9435 3.94862 0
M  V30 6769 H 639.445 -0.191168 0.711775 0
M  V30 6770 H 642.087 0.204071 1.88901 0
M  V30 6771 H 640.237 -1.68069 3.50264 0
M  V30 6772 H 641.909 0.705834 4.55868 0
M  V30 6773 H 640.152 0.732259 4.27575 0
M  V30 6774 H 640.823 -0.338642 5.5096 0
M  V30 6775 H 643.299 -1.41658 3.91244 0
M  V30 6776 H 642.175 -2.28015 4.993 0
M  V30 6777 H 642.436 -2.87299 3.36024 0
M  V30 6778 N 641.495 -1.56914 -0.146875 0
M  V30 6779 C 642.911 -1.51582 -0.499518 0
M  V30 6780 C 643.111 -0.83535 -1.83369 0
M  V30 6781 O 642.167 -0.405932 -2.49216 0
M  V30 6782 C 643.48 -2.96349 -0.509711 0
M  V30 6783 C 645.028 -3.07288 -0.595217 0
M  V30 6784 C 645.503 -4.53562 -0.636071 0
M  V30 6785 N 646.994 -4.57906 -0.69829 0
M  V30 6786 C 647.729 -5.68462 -0.750886 0
M  V30 6787 N 647.225 -6.88588 -0.76282 0
M  V30 6788 N 649.018 -5.56496 -0.791777 0
M  V30 6789 H 641.169 -1.99547 0.727656 0
M  V30 6790 H 643.432 -0.910113 0.265327 0
M  V30 6791 H 643.138 -3.4939 0.402409 0
M  V30 6792 H 643.012 -3.52307 -1.34758 0
M  V30 6793 H 645.399 -2.54266 -1.49776 0
M  V30 6794 H 645.48 -2.54373 0.2698 0
M  V30 6795 H 645.124 -5.07222 0.262313 0
M  V30 6796 H 645.054 -5.04259 -1.51758 0
M  V30 6797 H 647.545 -3.71429 -0.696362 0
M  V30 6798 H 647.858 -7.68598 -0.804804 0
M  V30 6799 H 646.203 -6.91148 -0.730694 0
M  V30 6800 H 649.394 -4.61562 -0.779624 0
M  V30 6801 H 649.567 -6.42671 -0.829301 0
M  V30 6802 N 642.974 0.416227 -1.52004 0
M  V30 6803 C 644.214 1.17307 -1.67387 0
M  V30 6804 C 644.578 1.87959 -0.39183 0
M  V30 6805 O 645.779 2.65472 -0.421671 0
M  V30 6806 C 644.05 2.14661 -2.85754 0
M  V30 6807 S 645.609 2.98549 -3.21581 0
M  V30 6808 H 642.427 0.397505 -0.5895 0
M  V30 6809 H 645.029 0.461431 -1.89976 0
M  V30 6810 H 643.733 1.61431 -3.77317 0
M  V30 6811 H 643.264 2.90375 -2.65417 0
M  V30 6812 H 645.279 4.16536 -2.69652 0
M  V30 6813 N 644.452 1.42507 0.673017 0
M  V30 6814 C 645.868 1.25472 0.986355 0
M  V30 6815 C 646.068 0.160181 2.00862 0
M  V30 6816 O 645.124 -0.467993 2.48125 0
M  V30 6817 C 646.437 2.61219 1.48947 0
M  V30 6818 C 647.985 2.68589 1.60715 0
M  V30 6819 C 648.46 4.04707 2.14422 0
M  V30 6820 N 649.951 4.0667 2.21752 0
M  V30 6821 C 650.686 5.0881 2.64386 0
M  V30 6822 N 650.182 6.21332 3.0646 0
M  V30 6823 N 651.975 4.96166 2.64151 0
M  V30 6824 H 644.126 2.124 -0.00378532 0
M  V30 6825 H 646.389 0.946046 0.0608367 0
M  V30 6826 H 646.095 3.42179 0.812812 0
M  V30 6827 H 645.969 2.85261 2.46791 0
M  V30 6828 H 648.356 1.87974 2.27486 0
M  V30 6829 H 648.437 2.48333 0.613552 0
M  V30 6830 H 648.081 4.8578 1.48258 0
M  V30 6831 H 648.011 4.22315 3.14575 0
M  V30 6832 H 650.502 3.25438 1.92089 0
M  V30 6833 H 650.815 6.95118 3.37684 0
M  V30 6834 H 649.16 6.24835 3.04313 0
M  V30 6835 H 652.351 4.07334 2.30644 0
M  V30 6836 H 652.524 5.759 2.97057 0
M  V30 6837 N 645.93 -0.909495 1.28709 0
M  V30 6838 C 647.178 -1.65577 1.15882 0
M  V30 6839 C 647.499 -1.928 -0.292108 0
M  V30 6840 O 646.769 -1.54716 -1.20166 0
M  V30 6841 H 645.349 -0.613714 0.425869 0
M  V30 6842 H 648.011 -1.09108 1.61498 0
M  V30 6843 H 647.107 -2.61634 1.70159 0
M  V30 6844 N 647.408 -1.11026 -1.11852 0
M  V30 6845 C 648.824 -0.843294 -1.35502 0
M  V30 6846 C 649.024 0.534179 -1.9429 0
M  V30 6847 O 648.08 1.28585 -2.17307 0
M  V30 6848 C 649.393 -1.94793 -2.29077 0
M  V30 6849 C 650.941 -1.97709 -2.42652 0
M  V30 6850 C 651.416 -3.07364 -3.39546 0
M  V30 6851 N 652.907 -3.0671 -3.47107 0
M  V30 6852 C 653.642 -3.88197 -4.22008 0
M  V30 6853 N 653.138 -4.79635 -4.99922 0
M  V30 6854 N 654.931 -3.76391 -4.17476 0
M  V30 6855 H 647.082 -1.99805 -0.720538 0
M  V30 6856 H 649.345 -0.868633 -0.379711 0
M  V30 6857 H 649.051 -2.93971 -1.93065 0
M  V30 6858 H 648.925 -1.84039 -3.29256 0
M  V30 6859 H 651.312 -0.991604 -2.77941 0
M  V30 6860 H 651.393 -2.1254 -1.4234 0
M  V30 6861 H 651.037 -4.06136 -3.04985 0
M  V30 6862 H 650.967 -2.89774 -4.39703 0
M  V30 6863 H 653.458 -2.40457 -2.91528 0
M  V30 6864 H 653.771 -5.38357 -5.54429 0
M  V30 6865 H 652.116 -4.8366 -4.99097 0
M  V30 6866 H 655.307 -3.04303 -3.55693 0
M  V30 6867 H 655.48 -4.40131 -4.75593 0
M  V30 6868 N 648.886 1.2938 -0.899927 0
M  V30 6869 C 650.134 1.95164 -0.524924 0
M  V30 6870 C 650.455 1.71292 0.931888 0
M  V30 6871 O 649.725 1.04481 1.65712 0
M  V30 6872 H 648.305 0.722133 -0.191135 0
M  V30 6873 H 650.967 1.57628 -1.14627 0
M  V30 6874 H 650.063 3.0397 -0.707711 0
M  V30 6875 N 650.364 0.662433 1.43002 0
M  V30 6876 C 651.297 -0.073459 2.28082 0
M  V30 6877 C 652.275 -0.820869 1.40358 0
M  V30 6878 O 653.459 -0.818545 1.698 0
M  V30 6879 C 650.586 -1.11097 3.19961 0
M  V30 6880 C 649.632 -0.460557 4.24006 0
M  V30 6881 S 650.465 0.772717 5.29896 0
M  V30 6882 C 651.621 -0.264028 6.25343 0
M  V30 6883 H 651.854 0.648227 2.90147 0
M  V30 6884 H 649.387 0.451566 1.47649 0
M  V30 6885 H 651.345 -1.70452 3.73439 0
M  V30 6886 H 650.006 -1.80503 2.57056 0
M  V30 6887 H 649.199 -1.24299 4.88432 0
M  V30 6888 H 648.801 0.0591038 3.73953 0
M  V30 6889 H 651.093 -1.12748 6.68052 0
M  V30 6890 H 652.036 0.345443 7.07257 0
M  V30 6891 H 652.444 -0.603964 5.6126 0
M  V30 6892 N 651.842 -1.52309 0.404946 0
M  V30 6893 C 653.253 -1.86585 -0.0655926 0
M  V30 6894 C 653.604 -1.3239 -1.44801 0
M  V30 6895 O 652.729 -0.6615 -2.06042 0
M  V30 6896 C 653.324 -3.38566 -0.125801 0
M  V30 6897 C 651.883 -3.72497 -0.540666 0
M  V30 6898 C 651.03 -2.75806 0.287487 0
M  V30 6899 H 653.981 -1.45995 0.622185 0
M  V30 6900 H 654.002 -3.68658 -0.941888 0
M  V30 6901 H 653.514 -3.77981 0.880473 0
M  V30 6902 H 651.615 -3.38659 -1.55373 0
M  V30 6903 H 651.728 -4.78234 -0.287956 0
M  V30 6904 H 650.092 -2.53474 -0.249561 0
M  V30 6905 H 650.875 -3.18059 1.29203 0
M  V30 6906 N 653.32 -0.135238 -1.57019 0
M  V30 6907 C 654.252 0.839675 -2.13265 0
M  V30 6908 C 655.265 1.21887 -1.07923 0
M  V30 6909 O 656.454 1.16499 -1.35241 0
M  V30 6910 C 653.554 2.13647 -2.63075 0
M  V30 6911 C 652.727 1.92646 -3.92691 0
M  V30 6912 C 651.786 3.06205 -4.27931 0
M  V30 6913 O 650.812 2.78409 -4.96465 0
M  V30 6914 N 652.014 4.33072 -3.86561 0
M  V30 6915 H 654.779 0.359026 -2.97542 0
M  V30 6916 H 652.34 0.0486979 -1.61827 0
M  V30 6917 H 654.332 2.88641 -2.8367 0
M  V30 6918 H 652.902 2.5301 -1.83588 0
M  V30 6919 H 652.122 1.01754 -3.80841 0
M  V30 6920 H 653.41 1.75939 -4.77413 0
M  V30 6921 H 652.808 4.58526 -3.31316 0
M  V30 6922 H 651.365 5.04885 -4.12231 0
M  V30 6923 N 654.798 1.5699 0.138552 0
M  V30 6924 C 656.209 1.73171 0.697754 0
M  V30 6925 C 656.56 0.750952 1.8126 0
M  V30 6926 O 655.685 -0.080549 2.1625 0
M  V30 6927 C 656.28 3.13996 1.27248 0
M  V30 6928 C 654.839 3.3175 1.77816 0
M  V30 6929 C 653.986 2.69084 0.669991 0
M  V30 6930 H 656.937 1.5846 -0.0871979 0
M  V30 6931 H 656.958 3.14463 2.14227 0
M  V30 6932 H 656.47 3.85354 0.460855 0
M  V30 6933 H 654.571 2.65403 2.61519 0
M  V30 6934 H 654.684 4.39768 1.90107 0
M  V30 6935 H 653.048 2.29782 1.09874 0
M  V30 6936 H 653.831 3.43053 -0.130329 0
M  V30 6937 N 656.276 -0.40816 1.52223 0
M  V30 6938 C 657.224 -1.51788 1.76248 0
M  V30 6939 C 658.218 -1.57264 0.629638 0
M  V30 6940 O 659.424 -1.60659 0.811704 0
M  V30 6941 H 655.799 -0.504823 0.557367 0
M  V30 6942 H 657.77 -1.2871 2.69214 0
M  V30 6943 C 656.519 -2.89145 1.93107 0
M  V30 6944 H 655.842 -2.85674 2.79697 0
M  V30 6945 H 657.282 -3.66082 2.13916 0
M  V30 6946 C 655.741 -3.29581 0.698431 0
M  V30 6947 O 656.271 -4.01479 -0.133238 0
M  V30 6948 N 654.477 -2.85651 0.53405 0
M  V30 6949 H 654.024 -2.2731 1.21194 0
M  V30 6950 H 653.982 -3.13065 -0.289387 0
M  V30 6951 N 657.755 -1.42862 -0.66545 0
M  V30 6952 C 659.004 -1.43119 -1.42126 0
M  V30 6953 C 659.317 -0.0545297 -1.95524 0
M  V30 6954 O 660.523 0.0654747 -2.71421 0
M  V30 6955 C 658.979 -2.51797 -2.5715 0
M  V30 6956 C 658.587 -3.95514 -2.10411 0
M  V30 6957 C 660.331 -2.61233 -3.346 0
M  V30 6958 C 658.238 -4.95682 -3.22573 0
M  V30 6959 H 657.168 -0.532349 -0.533966 0
M  V30 6960 H 659.819 -1.68806 -0.719506 0
M  V30 6961 H 658.201 -2.19292 -3.29738 0
M  V30 6962 H 659.375 -4.3742 -1.44915 0
M  V30 6963 H 657.69 -3.90012 -1.45874 0
M  V30 6964 H 660.287 -3.33248 -4.18151 0
M  V30 6965 H 660.63 -1.65896 -3.81817 0
M  V30 6966 H 661.163 -2.9298 -2.69087 0
M  V30 6967 H 657.902 -5.92529 -2.80338 0
M  V30 6968 H 657.422 -4.58399 -3.86821 0
M  V30 6969 H 659.101 -5.17828 -3.87896 0
M  V30 6970 N 659.233 0.902656 -1.29189 0
M  V30 6971 C 660.482 1.6475 -1.16362 0
M  V30 6972 C 660.795 1.93517 0.284682 0
M  V30 6973 O 662.001 2.66192 0.534229 0
M  V30 6974 C 660.457 2.96848 -2.03493 0
M  V30 6975 C 660.065 2.75687 -3.5313 0
M  V30 6976 C 661.809 3.74762 -1.99383 0
M  V30 6977 C 659.716 4.03492 -4.32375 0
M  V30 6978 H 658.646 0.618041 -0.431904 0
M  V30 6979 H 661.297 1.0008 -1.53806 0
M  V30 6980 H 659.679 3.62715 -1.58916 0
M  V30 6981 H 660.853 2.18431 -4.05739 0
M  V30 6982 H 659.168 2.11171 -3.58881 0
M  V30 6983 H 661.765 4.69515 -2.5585 0
M  V30 6984 H 662.108 4.04767 -0.973123 0
M  V30 6985 H 662.641 3.15732 -2.41988 0
M  V30 6986 H 659.38 3.78656 -5.3507 0
M  V30 6987 H 658.9 4.60318 -3.84535 0
M  V30 6988 H 660.579 4.71662 -4.42881 0
M  V30 6989 N 660.711 1.11618 1.11262 0
M  V30 6990 C 661.957 0.877377 1.83504 0
M  V30 6991 C 662.312 -0.590606 1.83111 0
M  V30 6992 O 661.605 -1.43057 1.27456 0
M  V30 6993 C 661.799 1.37529 3.2988 0
M  V30 6994 C 661.628 2.89014 3.4453 0
M  V30 6995 C 660.398 3.57157 3.57445 0
M  V30 6996 C 662.596 3.8706 3.38658 0
M  V30 6997 N 660.578 4.96842 3.60585 0
M  V30 6998 C 661.949 5.12825 3.4844 0
M  V30 6999 C 664.004 3.79593 3.22201 0
M  V30 7000 C 662.707 6.32002 3.43462 0
M  V30 7001 C 664.733 4.98282 3.18542 0
M  V30 7002 C 664.095 6.22901 3.28897 0
M  V30 7003 H 660.194 0.37422 0.686646 0
M  V30 7004 H 662.778 1.42087 1.33114 0
M  V30 7005 H 660.949 0.85895 3.78783 0
M  V30 7006 H 662.681 1.07944 3.90039 0
M  V30 7007 H 659.436 3.07628 3.60086 0
M  V30 7008 H 659.86 5.69674 3.65788 0
M  V30 7009 H 664.502 2.84149 3.1308 0
M  V30 7010 H 662.22 7.27721 3.51352 0
M  V30 7011 H 665.806 4.94226 3.06972 0
M  V30 7012 H 664.686 7.13202 3.26056 0
M  V30 7013 N 662.189 -1.289 0.906776 0
M  V30 7014 C 663.414 -1.99939 0.551303 0
M  V30 7015 C 663.839 -1.67366 -0.858496 0
M  V30 7016 O 663.197 -0.902176 -1.57259 0
M  V30 7017 C 663.245 -3.52523 0.758937 0
M  V30 7018 O 662.349 -4.11983 -0.185308 0
M  V30 7019 H 661.69 -0.628376 0.214568 0
M  V30 7020 H 664.22 -1.64225 1.2203 0
M  V30 7021 H 664.23 -4.02522 0.666329 0
M  V30 7022 H 662.905 -3.75566 1.78671 0
M  V30 7023 H 661.482 -3.72873 -0.0445577 0
M  V30 7024 N 663.667 -0.670007 -1.42649 0
M  V30 7025 C 664.63 0.00204659 -2.292 0
M  V30 7026 C 665.63 0.733817 -1.4308 0
M  V30 7027 O 666.82 0.57254 -1.64522 0
M  V30 7028 C 663.952 1.01359 -3.25483 0
M  V30 7029 H 665.145 -0.759696 -2.90118 0
M  V30 7030 H 662.698 -0.432105 -1.50208 0
M  V30 7031 H 663.433 1.80399 -2.69493 0
M  V30 7032 H 663.218 0.492323 -3.88997 0
M  V30 7033 H 664.708 1.4824 -3.90403 0
M  V30 7034 N 665.145 1.52092 -0.413018 0
M  V30 7035 C 666.385 2.03765 0.160975 0
M  V30 7036 C 666.749 1.29174 1.4205 0
M  V30 7037 O 667.95 1.71093 2.07318 0
M  V30 7038 C 666.221 3.55167 0.398871 0
M  V30 7039 S 667.78 4.28619 0.939755 0
M  V30 7040 H 664.598 0.709685 0.0432281 0
M  V30 7041 H 667.2 1.87102 -0.566831 0
M  V30 7042 H 665.904 4.07034 -0.524544 0
M  V30 7043 H 665.435 3.7608 1.15444 0
M  V30 7044 H 667.45 4.43773 2.21991 0
M  V30 7045 N 666.623 0.143563 1.56945 0
M  V30 7046 C 668.039 -0.212877 1.58174 0
M  V30 7047 C 668.239 -1.64926 1.15766 0
M  V30 7048 O 667.295 -2.37535 0.856361 0
M  V30 7049 C 668.608 0.0427573 3.0067 0
M  V30 7050 C 670.156 -0.0212221 3.12993 0
M  V30 7051 C 670.631 0.207036 4.57532 0
M  V30 7052 N 672.122 0.153845 4.62944 0
M  V30 7053 C 672.857 0.305018 5.72588 0
M  V30 7054 N 672.353 0.513722 6.90893 0
M  V30 7055 N 674.146 0.242862 5.61575 0
M  V30 7056 H 666.297 1.08148 1.82805 0
M  V30 7057 H 668.56 0.427831 0.84597 0
M  V30 7058 H 668.266 1.03672 3.36073 0
M  V30 7059 H 668.14 -0.678195 3.71053 0
M  V30 7060 H 670.527 -1.00574 2.77433 0
M  V30 7061 H 670.608 0.732004 2.45103 0
M  V30 7062 H 670.252 1.18863 4.93795 0
M  V30 7063 H 670.182 -0.566473 5.23544 0
M  V30 7064 H 672.673 -0.00294866 3.779 0
M  V30 7065 H 672.986 0.619273 7.70315 0
M  V30 7066 H 671.331 0.550001 6.9282 0
M  V30 7067 H 674.522 0.0806015 4.68031 0
M  V30 7068 H 674.695 0.364112 6.46976 0
M  V30 7069 N 668.101 -1.57061 -0.130224 0
M  V30 7070 C 669.378 -1.75205 -0.869631 0
M  V30 7071 C 669.758 -0.716063 -1.98584 0
M  V30 7072 O 669.106 0.262032 -2.26993 0
M  V30 7073 C 669.316 -3.19835 -1.39666 0
M  V30 7074 C 670.664 -3.82011 -1.85345 0
M  V30 7075 O 671.688 -3.23368 -1.49371 0
M  V30 7076 O 670.547 -4.85064 -2.51744 0
M  V30 7077 H 667.641 -0.716977 -0.412157 0
M  V30 7078 H 670.187 -1.69311 -0.11484 0
M  V30 7079 H 668.959 -3.86745 -0.595288 0
M  V30 7080 H 668.582 -3.30222 -2.21448 0
M  V30 7081 N 669.579 0.400081 -1.52437 0
M  V30 7082 C 670.509 1.4947 -1.7939 0
M  V30 7083 C 671.49 1.57383 -0.645329 0
M  V30 7084 O 672.675 1.72511 -0.891826 0
M  V30 7085 C 669.805 2.87201 -1.95276 0
M  V30 7086 C 668.759 2.94134 -3.10917 0
M  V30 7087 C 668.085 4.34207 -3.1204 0
M  V30 7088 C 669.385 2.64791 -4.50203 0
M  V30 7089 H 671.079 1.27165 -2.71052 0
M  V30 7090 H 668.625 0.610312 -1.30427 0
M  V30 7091 H 670.578 3.63772 -2.12715 0
M  V30 7092 H 669.302 3.10819 -1.00294 0
M  V30 7093 H 667.961 2.20009 -2.93243 0
M  V30 7094 H 667.609 4.54848 -2.14761 0
M  V30 7095 H 667.309 4.39768 -3.89715 0
M  V30 7096 H 668.833 5.127 -3.31619 0
M  V30 7097 H 670.247 3.31083 -4.68035 0
M  V30 7098 H 668.644 2.81717 -5.29864 0
M  V30 7099 H 669.714 1.60184 -4.57678 0
M  V30 7100 N 671.057 1.43213 0.657864 0
M  V30 7101 C 672.004 1.48011 1.77092 0
M  V30 7102 C 672.974 0.330291 1.62783 0
M  V30 7103 O 674.159 0.536787 1.83094 0
M  V30 7104 C 671.299 1.40461 3.15222 0
M  V30 7105 C 670.412 2.65612 3.40697 0
M  V30 7106 C 669.547 2.50083 4.68649 0
M  V30 7107 C 668.586 3.70525 4.87214 0
M  V30 7108 N 667.723 3.53835 6.0642 0
M  V30 7109 H 672.563 2.43121 1.72326 0
M  V30 7110 H 670.1 1.20687 0.841013 0
M  V30 7111 H 672.058 1.34079 3.95068 0
M  V30 7112 H 670.688 0.489359 3.19069 0
M  V30 7113 H 669.74 2.82292 2.54982 0
M  V30 7114 H 671.052 3.5509 3.50303 0
M  V30 7115 H 670.206 2.41383 5.56614 0
M  V30 7116 H 668.945 1.58121 4.61356 0
M  V30 7117 H 667.95 3.79639 3.97686 0
M  V30 7118 H 669.175 4.63489 4.96341 0
M  V30 7119 H 667.121 2.64604 6.00267 0
M  V30 7120 H 667.038 4.36912 6.16963 0
M  V30 7121 H 668.306 3.48978 6.97019 0
M  V30 7122 N 672.536 -0.895792 1.29666 0
M  V30 7123 C 673.952 -1.17726 1.07763 0
M  V30 7124 C 674.152 -2.00794 -0.168576 0
M  V30 7125 O 673.208 -2.37213 -0.865244 0
M  V30 7126 C 674.521 -1.89441 2.33522 0
M  V30 7127 C 676.069 -2.02251 2.3888 0
M  V30 7128 C 676.544 -2.77378 3.64452 0
M  V30 7129 N 678.035 -2.8493 3.65198 0
M  V30 7130 C 678.77 -3.43606 4.59045 0
M  V30 7131 N 678.266 -4.03417 5.63228 0
M  V30 7132 N 680.059 -3.41317 4.46608 0
M  V30 7133 H 672.21 -0.341652 2.09634 0
M  V30 7134 H 674.473 -0.213865 0.923561 0
M  V30 7135 H 674.179 -1.35842 3.24407 0
M  V30 7136 H 674.053 -2.89893 2.41334 0
M  V30 7137 H 676.44 -2.55025 1.4848 0
M  V30 7138 H 676.521 -1.0092 2.3505 0
M  V30 7139 H 676.165 -2.25279 4.55205 0
M  V30 7140 H 676.095 -3.79062 3.65541 0
M  V30 7141 H 678.586 -2.42453 2.89871 0
M  V30 7142 H 678.899 -4.46224 6.30955 0
M  V30 7143 H 677.244 -4.01868 5.67033 0
M  V30 7144 H 680.435 -2.93812 3.64407 0
M  V30 7145 H 680.608 -3.86751 5.1993 0
M  V30 7146 N 674.014 -1.12206 -1.10668 0
M  V30 7147 C 675.254 -0.885935 -1.84202 0
M  V30 7148 C 675.618 0.577849 -1.83098 0
M  V30 7149 O 676.819 0.931051 -2.5216 0
M  V30 7150 C 675.09 -1.44197 -3.2702 0
M  V30 7151 S 676.649 -1.34402 -4.1771 0
M  V30 7152 H 673.467 -0.319653 -0.635093 0
M  V30 7153 H 676.069 -1.43112 -1.33189 0
M  V30 7154 H 674.773 -2.50096 -3.25392 0
M  V30 7155 H 674.304 -0.894173 -3.83103 0
M  V30 7156 H 676.319 -0.313873 -4.95206 0
M  V30 7157 N 675.492 1.28418 -0.913599 0
M  V30 7158 C 676.903 1.77024 -0.593237 0
M  V30 7159 C 677.254 1.74779 0.891441 0
M  V30 7160 O 676.379 1.34237 1.69733 0
M  V30 7161 C 676.974 3.21456 -1.07011 0
M  V30 7162 C 675.533 3.67786 -0.800664 0
M  V30 7163 C 674.68 2.48185 -1.23691 0
M  V30 7164 H 677.631 1.14883 -1.09487 0
M  V30 7165 H 677.652 3.78269 -0.411481 0
M  V30 7166 H 677.164 3.23058 -2.1507 0
M  V30 7167 H 675.265 3.71644 0.266725 0
M  V30 7168 H 675.378 4.57934 -1.4083 0
M  V30 7169 H 673.742 2.46116 -0.655655 0
M  V30 7170 H 674.525 2.52506 -2.32585 0
M  V30 7171 N 676.97 0.677563 1.42291 0
M  V30 7172 C 678.386 0.347376 1.55774 0
M  V30 7173 C 678.586 -1.14703 1.65667 0
M  V30 7174 O 677.642 -1.93252 1.62512 0
M  V30 7175 C 678.955 1.08011 2.80631 0
M  V30 7176 C 680.503 1.06271 2.94407 0
M  V30 7177 C 680.978 1.77683 4.22129 0
M  V30 7178 N 682.469 1.74564 4.29047 0
M  V30 7179 C 683.204 2.26673 5.26694 0
M  V30 7180 N 682.7 2.87176 6.30477 0
M  V30 7181 N 684.493 2.17032 5.18511 0
M  V30 7182 H 676.644 1.64703 1.34114 0
M  V30 7183 H 678.907 0.694038 0.645768 0
M  V30 7184 H 678.613 2.13518 2.79469 0
M  V30 7185 H 678.487 0.647115 3.71608 0
M  V30 7186 H 680.874 0.0159658 2.95096 0
M  V30 7187 H 680.955 1.53461 2.04654 0
M  V30 7188 H 680.599 2.82327 4.22201 0
M  V30 7189 H 680.529 1.2794 5.10822 0
M  V30 7190 H 683.02 1.30436 3.54676 0
M  V30 7191 H 683.333 3.24551 7.01346 0
M  V30 7192 H 681.678 2.91247 6.31031 0
M  V30 7193 H 684.869 1.69451 4.36353 0
M  V30 7194 H 685.042 2.57948 5.94446 0
M  V30 7195 N 678.448 -1.51871 0.421078 0
M  V30 7196 C 679.358 -2.31077 -0.405069 0
M  V30 7197 C 680.374 -1.39301 -1.04265 0
M  V30 7198 O 681.55 -1.72376 -1.04157 0
M  V30 7199 C 678.615 -3.12556 -1.50032 0
M  V30 7200 C 677.676 -4.20088 -0.884559 0
M  V30 7201 C 676.909 -4.97673 -1.92762 0
M  V30 7202 O 677.132 -4.75696 -3.14753 0
M  V30 7203 O 676.066 -5.82203 -1.52719 0
M  V30 7204 H 679.892 -3.02742 0.241086 0
M  V30 7205 H 677.477 -1.48263 0.183991 0
M  V30 7206 H 679.359 -3.6326 -2.13589 0
M  V30 7207 H 678.034 -2.43672 -2.13086 0
M  V30 7208 H 676.941 -3.73502 -0.211379 0
M  V30 7209 H 678.274 -4.91298 -0.297763 0
M  V30 7210 N 679.926 -0.151884 -1.56866 0
M  V30 7211 C 680.856 0.781943 -2.20018 0
M  V30 7212 C 681.837 1.25347 -1.14987 0
M  V30 7213 O 683.022 1.31015 -1.43348 0
M  V30 7214 C 680.152 2.01928 -2.82564 0
M  V30 7215 C 679.106 1.68434 -3.93464 0
M  V30 7216 C 678.432 2.99472 -4.42968 0
M  V30 7217 C 679.732 0.927244 -5.14003 0
M  V30 7218 H 681.426 0.255607 -2.98307 0
M  V30 7219 H 678.972 0.121502 -1.43486 0
M  V30 7220 H 680.925 2.67741 -3.25411 0
M  V30 7221 H 679.649 2.56943 -2.01614 0
M  V30 7222 H 678.308 1.04998 -3.51242 0
M  V30 7223 H 677.956 3.52488 -3.58834 0
M  V30 7224 H 677.656 2.77823 -5.17772 0
M  V30 7225 H 679.18 3.66348 -4.88489 0
M  V30 7226 H 680.594 1.48756 -5.53665 0
M  V30 7227 H 678.991 0.810513 -5.94601 0
M  V30 7228 H 680.061 -0.0801163 -4.84834 0
M  V30 7229 N 681.404 1.57128 0.121893 0
M  V30 7230 C 682.815 1.73902 0.679348 0
M  V30 7231 C 683.166 0.770135 1.80453 0
M  V30 7232 O 682.291 -0.0576083 2.16323 0
M  V30 7233 C 682.886 3.15328 1.2391 0
M  V30 7234 C 681.445 3.33618 1.74288 0
M  V30 7235 C 680.592 2.6978 0.641414 0
M  V30 7236 H 683.543 1.58359 -0.104 0
M  V30 7237 H 683.564 3.16718 2.10879 0
M  V30 7238 H 683.076 3.85821 0.419957 0
M  V30 7239 H 681.177 2.68162 2.58689 0
M  V30 7240 H 681.29 4.4176 1.85432 0
M  V30 7241 H 679.654 2.30935 1.0743 0
M  V30 7242 H 680.437 3.42895 -0.166707 0
M  V30 7243 N 682.882 -0.391992 1.52647 0
M  V30 7244 C 684.293 -0.970064 1.5952 0
M  V30 7245 C 684.644 -1.91059 0.446207 0
M  V30 7246 O 683.769 -2.12062 -0.431125 0
M  V30 7247 C 684.364 -1.76614 2.89125 0
M  V30 7248 C 682.923 -2.29396 2.9842 0
M  V30 7249 C 682.07 -1.09864 2.54608 0
M  V30 7250 H 685.021 -0.171638 1.57769 0
M  V30 7251 H 685.042 -2.62511 2.75442 0
M  V30 7252 H 684.554 -1.08135 3.72731 0
M  V30 7253 H 682.655 -3.01196 2.19344 0
M  V30 7254 H 682.768 -2.59088 4.03002 0
M  V30 7255 H 681.132 -1.45777 2.08857 0
M  V30 7256 H 681.915 -0.429249 3.40606 0
M  V30 7257 N 684.36 -1.4356 -0.65026 0
M  V30 7258 C 685.588 -1.48779 -1.43779 0
M  V30 7259 C 686.003 -0.106593 -1.88499 0
M  V30 7260 O 685.36 0.883766 -1.59674 0
M  V30 7261 C 685.411 -2.43618 -2.67081 0
M  V30 7262 O 685.132 -3.76367 -2.24231 0
M  V30 7263 C 686.633 -2.5811 -3.60409 0
M  V30 7264 H 683.853 -0.50521 -0.441593 0
M  V30 7265 H 686.397 -1.88332 -0.796941 0
M  V30 7266 H 684.552 -2.07253 -3.273 0
M  V30 7267 H 684.966 -4.27394 -3.0403 0
M  V30 7268 H 686.44 -3.28539 -4.43583 0
M  V30 7269 H 686.917 -1.627 -4.07953 0
M  V30 7270 H 687.523 -2.95298 -3.0607 0
M  V30 7271 N 685.838 0.888903 -1.30139 0
M  V30 7272 C 686.768 2.01046 -1.18755 0
M  V30 7273 C 687.749 1.69916 -0.0791438 0
M  V30 7274 O 688.934 1.92445 -0.260498 0
M  V30 7275 C 686.064 3.36109 -0.874518 0
M  V30 7276 C 685.018 3.81486 -1.94043 0
M  V30 7277 C 684.344 5.13796 -1.48047 0
M  V30 7278 C 685.644 4.00637 -3.35093 0
M  V30 7279 H 687.338 2.10828 -2.12584 0
M  V30 7280 H 684.884 1.01298 -1.02346 0
M  V30 7281 H 686.837 4.14089 -0.781548 0
M  V30 7282 H 685.561 3.26449 0.0994519 0
M  V30 7283 H 684.22 3.05731 -2.02297 0
M  V30 7284 H 683.868 5.0056 -0.494878 0
M  V30 7285 H 683.568 5.45127 -2.19341 0
M  V30 7286 H 685.092 5.94305 -1.40121 0
M  V30 7287 H 686.506 4.69067 -3.2962 0
M  V30 7288 H 684.903 4.43339 -4.04438 0
M  V30 7289 H 685.973 3.0462 -3.77273 0
M  V30 7290 N 687.317 1.12792 1.10072 0
M  V30 7291 C 688.247 0.821688 2.18565 0
M  V30 7292 C 689.228 -0.21612 1.68721 0
M  V30 7293 O 690.413 -0.0764932 1.94049 0
M  V30 7294 C 687.543 0.279624 3.46172 0
M  V30 7295 C 686.497 1.25092 4.09312 0
M  V30 7296 C 685.823 0.568916 5.31665 0
M  V30 7297 C 687.123 2.60699 4.52585 0
M  V30 7298 H 688.817 1.72888 2.44438 0
M  V30 7299 H 686.363 0.832702 1.17482 0
M  V30 7300 H 688.316 0.053099 4.21367 0
M  V30 7301 H 687.04 -0.662929 3.19801 0
M  V30 7302 H 685.699 1.46332 3.36129 0
M  V30 7303 H 685.347 -0.378898 5.01571 0
M  V30 7304 H 685.047 1.21687 5.74862 0
M  V30 7305 H 686.571 0.351517 6.09587 0
M  V30 7306 H 687.985 2.43465 5.19035 0
M  V30 7307 H 686.382 3.21608 5.06644 0
M  V30 7308 H 687.452 3.1886 3.65317 0
M  V30 7309 N 688.795 -1.27931 0.920396 0
M  V30 7310 C 690.043 -1.94304 0.555906 0
M  V30 7311 C 690.364 -1.72753 -0.904519 0
M  V30 7312 O 689.634 -1.07104 -1.64029 0
M  V30 7313 H 688.214 -0.719001 0.202599 0
M  V30 7314 H 690.876 -1.55785 1.1712 0
M  V30 7315 H 689.972 -3.02806 0.755981 0
M  V30 7316 N 690.273 -0.685099 -1.4193 0
M  V30 7317 C 691.221 -0.00165985 -2.326 0
M  V30 7318 C 692.215 0.779678 -1.50391 0
M  V30 7319 O 693.421 0.68648 -1.66395 0
M  V30 7320 H 689.796 0.0182616 -0.751778 0
M  V30 7321 H 691.767 -0.783592 -2.87928 0
M  V30 7322 C 690.516 0.928385 -3.35077 0
M  V30 7323 H 689.839 0.336578 -3.98381 0
M  V30 7324 H 691.279 1.37509 -4.01083 0
M  V30 7325 C 689.738 2.03964 -2.68142 0
M  V30 7326 O 690.268 3.12727 -2.5212 0
M  V30 7327 N 688.474 1.81433 -2.27003 0
M  V30 7328 H 688.021 0.929807 -2.40234 0
M  V30 7329 H 687.979 2.55973 -1.82552 0
M  V30 7330 N 691.751 1.51645 -0.429126 0
M  V30 7331 C 692.976 2.06917 0.141399 0
M  V30 7332 C 693.401 1.29527 1.36398 0
M  V30 7333 O 692.759 0.33094 1.78254 0
M  V30 7334 C 692.807 3.57776 0.4504 0
M  V30 7335 O 691.911 3.82639 1.53821 0
M  V30 7336 H 691.252 0.663978 0.0054647 0
M  V30 7337 H 693.782 1.95355 -0.608093 0
M  V30 7338 H 693.792 4.01894 0.703249 0
M  V30 7339 H 692.467 4.13532 -0.443213 0
M  V30 7340 H 691.044 3.5039 1.27597 0
M  V30 7341 N 693.229 0.160201 1.56784 0
M  V30 7342 C 694.454 -0.497373 2.01348 0
M  V30 7343 C 694.879 -1.56757 1.03966 0
M  V30 7344 O 694.237 -1.81292 0.0174455 0
M  V30 7345 C 694.285 -1.0628 3.44582 0
M  V30 7346 O 693.389 -2.17723 3.50244 0
M  V30 7347 H 692.73 -0.120295 0.653012 0
M  V30 7348 H 695.26 0.260821 2.02931 0
M  V30 7349 H 695.27 -1.38819 3.83658 0
M  V30 7350 H 693.945 -0.279166 4.14962 0
M  V30 7351 H 692.522 -1.86313 3.2302 0
M  V30 7352 N 694.707 -1.5719 -0.113559 0
M  V30 7353 C 695.617 -2.04041 -1.15777 0
M  V30 7354 C 696.633 -0.961812 -1.45001 0
M  V30 7355 O 697.809 -1.2737 -1.56009 0
M  V30 7356 C 694.874 -2.43994 -2.46308 0
M  V30 7357 C 693.935 -3.65962 -2.24433 0
M  V30 7358 C 693.168 -4.04 -3.4874 0
M  V30 7359 O 693.391 -3.42321 -4.56259 0
M  V30 7360 O 692.325 -4.97069 -3.3942 0
M  V30 7361 H 696.151 -2.93248 -0.789899 0
M  V30 7362 H 693.736 -1.45828 -0.324748 0
M  V30 7363 H 695.618 -2.70401 -3.23204 0
M  V30 7364 H 694.293 -1.57932 -2.82558 0
M  V30 7365 H 693.2 -3.44697 -1.45377 0
M  V30 7366 H 694.533 -4.52746 -1.93084 0
M  V30 7367 N 696.185 0.383891 -1.52853 0
M  V30 7368 C 697.095 1.49343 -1.80925 0
M  V30 7369 C 698.111 1.59458 -0.696348 0
M  V30 7370 O 699.287 1.75698 -0.984481 0
M  V30 7371 C 696.352 2.84819 -1.97684 0
M  V30 7372 C 695.413 2.84382 -3.21598 0
M  V30 7373 C 694.646 4.13397 -3.37548 0
M  V30 7374 O 694.869 5.08619 -2.58192 0
M  V30 7375 O 693.803 4.20325 -4.30826 0
M  V30 7376 H 697.629 1.2855 -2.75152 0
M  V30 7377 H 695.214 0.572229 -1.38007 0
M  V30 7378 H 697.096 3.65125 -2.10385 0
M  V30 7379 H 695.771 3.05627 -1.06647 0
M  V30 7380 H 694.678 2.0284 -3.14336 0
M  V30 7381 H 696.011 2.68526 -4.12498 0
M  V30 7382 N 697.663 1.43903 0.642637 0
M  V30 7383 C 698.573 1.52349 1.78401 0
M  V30 7384 C 699.589 0.409869 1.69104 0
M  V30 7385 O 700.765 0.665548 1.90085 0
M  V30 7386 C 697.83 1.45408 3.14734 0
M  V30 7387 C 696.891 2.67528 3.35749 0
M  V30 7388 C 696.124 2.60909 4.65577 0
M  V30 7389 O 696.347 1.6627 5.45628 0
M  V30 7390 O 695.281 3.5158 4.88544 0
M  V30 7391 H 699.107 2.48752 1.7423 0
M  V30 7392 H 696.692 1.26021 0.802439 0
M  V30 7393 H 698.574 1.44019 3.96026 0
M  V30 7394 H 697.249 0.521437 3.19473 0
M  V30 7395 H 696.156 2.74487 2.5418 0
M  V30 7396 H 697.489 3.598 3.35864 0
M  V30 7397 N 699.141 -0.881989 1.30609 0
M  V30 7398 C 700.366 -1.67236 1.22665 0
M  V30 7399 C 700.791 -1.8696 -0.206777 0
M  V30 7400 O 700.149 -1.4027 -1.14865 0
M  V30 7401 C 700.197 -3.02446 1.96363 0
M  V30 7402 O 699.301 -3.91614 1.29276 0
M  V30 7403 H 698.642 -0.510902 0.424117 0
M  V30 7404 H 701.172 -1.10055 1.72479 0
M  V30 7405 H 701.182 -3.52468 2.055 0
M  V30 7406 H 699.857 -2.8741 3.00613 0
M  V30 7407 H 698.434 -3.50055 1.28514 0
M  V30 7408 N 700.619 -1.13374 -1.09472 0
M  V30 7409 C 701.551 -0.768466 -2.15933 0
M  V30 7410 C 702.564 0.209585 -1.61445 0
M  V30 7411 O 703.753 -0.010539 -1.78497 0
M  V30 7412 C 700.853 -0.118266 -3.38694 0
M  V30 7413 C 700.026 -1.12829 -4.22597 0
M  V30 7414 C 699.085 -0.503875 -5.23782 0
M  V30 7415 O 698.111 -1.16374 -5.57177 0
M  V30 7416 N 699.313 0.724288 -5.75964 0
M  V30 7417 H 702.078 -1.68457 -2.47876 0
M  V30 7418 H 699.639 -1.02668 -1.25183 0
M  V30 7419 H 701.631 0.311698 -4.03498 0
M  V30 7420 H 700.201 0.700769 -3.04644 0
M  V30 7421 H 699.421 -1.73556 -3.53938 0
M  V30 7422 H 700.709 -1.81095 -4.75481 0
M  V30 7423 H 700.107 1.27918 -5.51048 0
M  V30 7424 H 698.664 1.09692 -6.42504 0
M  V30 7425 N 702.098 1.27442 -0.927168 0
M  V30 7426 C 703.028 2.29256 -0.443188 0
M  V30 7427 C 704.009 1.62701 0.49624 0
M  V30 7428 O 705.194 1.90013 0.401105 0
M  V30 7429 C 702.324 3.45955 0.305366 0
M  V30 7430 C 701.278 4.24501 -0.546178 0
M  V30 7431 C 700.604 5.33671 0.331512 0
M  V30 7432 C 701.904 4.89921 -1.81037 0
M  V30 7433 H 703.598 2.69988 -1.29409 0
M  V30 7434 H 701.144 1.29792 -0.623705 0
M  V30 7435 H 703.097 4.1628 0.654885 0
M  V30 7436 H 701.821 3.04138 1.19029 0
M  V30 7437 H 700.48 3.55921 -0.878398 0
M  V30 7438 H 700.128 4.88096 1.21537 0
M  V30 7439 H 699.828 5.87131 -0.234746 0
M  V30 7440 H 701.352 6.0684 0.676614 0
M  V30 7441 H 702.766 5.52536 -1.52895 0
M  V30 7442 H 701.163 5.53436 -2.32009 0
M  V30 7443 H 702.233 4.13652 -2.53021 0
M  V30 7444 N 703.576 0.692616 1.41565 0
M  V30 7445 C 704.486 0.0258451 2.34586 0
M  V30 7446 C 705.502 -0.769324 1.56069 0
M  V30 7447 O 706.678 -0.707563 1.88562 0
M  V30 7448 C 703.743 -0.901289 3.3478 0
M  V30 7449 C 702.804 -0.0986579 4.29187 0
M  V30 7450 C 702.037 -0.981634 5.24595 0
M  V30 7451 O 702.26 -2.22115 5.25377 0
M  V30 7452 O 701.194 -0.432892 6.00341 0
M  V30 7453 H 705.02 0.792537 2.93177 0
M  V30 7454 H 702.605 0.452935 1.42369 0
M  V30 7455 H 704.487 -1.43302 3.96286 0
M  V30 7456 H 703.162 -1.64752 2.78637 0
M  V30 7457 H 702.069 0.477604 3.71039 0
M  V30 7458 H 703.402 0.608848 4.8842 0
M  V30 7459 N 705.054 -1.51416 0.437162 0
M  V30 7460 C 706.282 -2.06503 -0.128045 0
M  V30 7461 C 706.697 -1.30461 -1.36475 0
M  V30 7462 O 706.054 -0.364127 -1.78831 0
M  V30 7463 C 706.105 -3.58683 -0.450437 0
M  V30 7464 O 705.826 -4.31853 0.737186 0
M  V30 7465 C 707.327 -4.30284 -1.06633 0
M  V30 7466 H 704.547 -0.670952 -0.00800269 0
M  V30 7467 H 707.091 -1.94996 0.616193 0
M  V30 7468 H 705.246 -3.70106 -1.14457 0
M  V30 7469 H 705.66 -5.22467 0.461347 0
M  V30 7470 H 707.134 -5.37848 -1.24191 0
M  V30 7471 H 707.611 -3.88564 -2.0473 0
M  V30 7472 H 708.217 -4.23304 -0.411585 0
M  V30 7473 N 706.532 -0.168513 -1.56696 0
M  V30 7474 C 707.48 0.779791 -2.19139 0
M  V30 7475 C 708.474 1.23957 -1.1546 0
M  V30 7476 O 709.68 1.20555 -1.33666 0
M  V30 7477 H 706.055 0.269739 -0.701958 0
M  V30 7478 H 708.026 0.229156 -2.97519 0
M  V30 7479 C 706.775 2.00003 -2.84419 0
M  V30 7480 H 706.098 1.65527 -3.63924 0
M  V30 7481 H 707.538 2.64251 -3.31583 0
M  V30 7482 C 705.997 2.82187 -1.84044 0
M  V30 7483 O 706.527 3.79247 -1.32418 0
M  V30 7484 N 704.733 2.47145 -1.52864 0
M  V30 7485 H 704.28 1.68277 -1.9504 0
M  V30 7486 H 704.238 3.02422 -0.859569 0
M  V30 7487 N 708.01 1.57248 0.105221 0
M  V30 7488 C 709.256 1.85845 0.811753 0
M  V30 7489 C 709.589 0.756219 1.78871 0
M  V30 7490 O 708.864 -0.236736 1.93054 0
M  V30 7491 C 709.147 3.25059 1.54947 0
M  V30 7492 C 709 4.45898 0.591185 0
M  V30 7493 C 710.319 3.6203 2.50245 0
M  V30 7494 H 707.438 0.675973 0.293649 0
M  V30 7495 H 710.08 1.89849 0.0756269 0
M  V30 7496 H 708.23 3.21776 2.17698 0
M  V30 7497 H 709.902 4.61291 -0.0285352 0
M  V30 7498 H 708.145 4.33693 -0.0962343 0
M  V30 7499 H 708.816 5.40009 1.1443 0
M  V30 7500 H 711.292 3.66192 1.97593 0
M  V30 7501 H 710.168 4.60389 2.98886 0
M  V30 7502 H 710.429 2.90176 3.33542 0
M  V30 7503 N 709.488 -0.375779 1.53054 0
M  V30 7504 C 710.716 -1.14036 1.72637 0
M  V30 7505 C 711.131 -1.83342 0.450687 0
M  V30 7506 O 710.488 -1.7318 -0.575749 0
M  V30 7507 C 710.539 -2.17841 2.88492 0
M  V30 7508 O 710.26 -1.51358 4.11123 0
M  V30 7509 C 711.761 -3.06924 3.19863 0
M  V30 7510 H 708.981 -0.341386 0.577665 0
M  V30 7511 H 711.525 -0.437809 1.99759 0
M  V30 7512 H 709.68 -2.8371 2.63794 0
M  V30 7513 H 710.094 -2.20439 4.75928 0
M  V30 7514 H 711.568 -3.75763 4.04359 0
M  V30 7515 H 712.045 -3.71169 2.34798 0
M  V30 7516 H 712.651 -2.46684 3.46449 0
M  V30 7517 N 710.966 -1.44241 -0.634997 0
M  V30 7518 C 712.196 -1.50078 -1.41987 0
M  V30 7519 C 712.604 -0.123072 -1.88799 0
M  V30 7520 O 711.947 0.880552 -1.6122 0
M  V30 7521 C 712.009 -2.40033 -2.67628 0
M  V30 7522 C 711.673 -3.87268 -2.42637 0
M  V30 7523 C 712.67 -4.77902 -2.04708 0
M  V30 7524 C 710.355 -4.31933 -2.56396 0
M  V30 7525 C 712.349 -6.11202 -1.80862 0
M  V30 7526 C 710.036 -5.65281 -2.32164 0
M  V30 7527 C 711.034 -6.54734 -1.94455 0
M  V30 7528 O 710.722 -7.85613 -1.7049 0
M  V30 7529 H 710.454 -0.51146 -0.442023 0
M  V30 7530 H 713.008 -1.89843 -0.784138 0
M  V30 7531 H 711.238 -1.95188 -3.33824 0
M  V30 7532 H 712.927 -2.36863 -3.29622 0
M  V30 7533 H 713.693 -4.44668 -1.93638 0
M  V30 7534 H 709.572 -3.62569 -2.84719 0
M  V30 7535 H 713.116 -6.80983 -1.51353 0
M  V30 7536 H 709.013 -5.98078 -2.42843 0
M  V30 7537 H 709.781 -7.97373 -1.84767 0
M  V30 7538 N 712.444 0.87505 -1.31075 0
M  V30 7539 C 713.69 1.63006 -1.21657 0
M  V30 7540 C 714.045 1.91088 0.224306 0
M  V30 7541 O 713.338 1.52779 1.15625 0
M  V30 7542 C 713.532 2.96948 -1.98888 0
M  V30 7543 C 713.361 2.81944 -3.50339 0
M  V30 7544 C 712.131 2.814 -4.19693 0
M  V30 7545 C 714.329 2.57171 -4.45385 0
M  V30 7546 N 712.311 2.57392 -5.57335 0
M  V30 7547 C 713.682 2.42379 -5.7066 0
M  V30 7548 C 715.737 2.42474 -4.34868 0
M  V30 7549 C 714.44 2.14385 -6.86609 0
M  V30 7550 C 716.466 2.15868 -5.50595 0
M  V30 7551 C 715.828 2.0186 -6.74857 0
M  V30 7552 H 711.927 0.601043 -0.500271 0
M  V30 7553 H 714.511 1.03033 -1.65204 0
M  V30 7554 H 712.682 3.54936 -1.57718 0
M  V30 7555 H 714.414 3.61702 -1.81531 0
M  V30 7556 H 711.169 2.93596 -3.71616 0
M  V30 7557 H 711.593 2.48373 -6.29794 0
M  V30 7558 H 716.235 2.52035 -3.39468 0
M  V30 7559 H 713.953 2.03562 -7.82041 0
M  V30 7560 H 717.539 2.05304 -5.44372 0
M  V30 7561 H 716.419 1.81562 -7.62892 0
M  V30 7562 N 713.922 1.13953 1.08869 0
M  V30 7563 C 714.832 0.835666 2.19212 0
M  V30 7564 C 715.848 -0.182005 1.73045 0
M  V30 7565 O 717.024 -0.0116661 2.01397 0
M  V30 7566 C 714.089 0.312325 3.4529 0
M  V30 7567 C 713.15 1.39196 4.06107 0
M  V30 7568 C 712.383 0.893496 5.26168 0
M  V30 7569 O 712.606 -0.266807 5.69776 0
M  V30 7570 O 711.54 1.67037 5.78258 0
M  V30 7571 H 715.366 1.75769 2.47667 0
M  V30 7572 H 712.951 0.917421 1.17914 0
M  V30 7573 H 714.833 0.0261582 4.21392 0
M  V30 7574 H 713.508 -0.582042 3.18424 0
M  V30 7575 H 712.415 1.73152 3.31616 0
M  V30 7576 H 713.748 2.26068 4.37212 0
M  V30 7577 N 715.4 -1.26948 0.933913 0
M  V30 7578 C 716.31 -2.30366 0.443671 0
M  V30 7579 C 717.326 -1.67284 -0.478745 0
M  V30 7580 O 718.502 -1.98156 -0.360043 0
M  V30 7581 C 715.567 -3.45485 -0.289974 0
M  V30 7582 C 714.628 -4.24069 0.668114 0
M  V30 7583 C 713.861 -5.33691 -0.0306138 0
M  V30 7584 O 714.084 -5.5656 -1.24888 0
M  V30 7585 O 713.018 -5.98441 0.644384 0
M  V30 7586 H 716.844 -2.74349 1.30254 0
M  V30 7587 H 714.429 -1.32012 0.699506 0
M  V30 7588 H 716.311 -4.15486 -0.70353 0
M  V30 7589 H 714.986 -3.03546 -1.12435 0
M  V30 7590 H 713.893 -3.56579 1.13147 0
M  V30 7591 H 715.226 -4.69739 1.46989 0
M  V30 7592 N 716.879 -0.700114 -1.41195 0
M  V30 7593 C 717.789 -0.0382854 -2.34569 0
M  V30 7594 C 718.805 0.761036 -1.56474 0
M  V30 7595 O 719.981 0.697553 -1.88934 0
M  V30 7596 C 717.046 0.883522 -3.35253 0
M  V30 7597 C 716.107 0.0758957 -4.29233 0
M  V30 7598 C 715.34 0.9538 -5.25108 0
M  V30 7599 O 715.563 2.19326 -5.26547 0
M  V30 7600 O 714.497 0.401049 -6.00562 0
M  V30 7601 H 718.323 -0.808073 -2.92752 0
M  V30 7602 H 715.908 -0.460479 -1.42127 0
M  V30 7603 H 717.79 1.41199 -3.9704 0
M  V30 7604 H 716.465 1.63272 -2.79506 0
M  V30 7605 H 715.372 -0.497274 -3.7078 0
M  V30 7606 H 716.705 -0.634741 -4.8809 0
M  V30 7607 N 718.357 1.51182 -0.445186 0
M  V30 7608 C 719.289 2.25714 0.398206 0
M  V30 7609 C 720.302 1.30032 0.979562 0
M  V30 7610 O 721.491 1.55731 0.872368 0
M  V30 7611 C 718.591 3.00348 1.56985 0
M  V30 7612 C 717.764 4.23187 1.10596 0
M  V30 7613 C 716.823 4.80334 2.14863 0
M  V30 7614 O 715.849 5.4196 1.73977 0
M  V30 7615 N 717.051 4.65053 3.47427 0
M  V30 7616 H 719.816 2.98732 -0.240629 0
M  V30 7617 H 717.377 1.59556 -0.274507 0
M  V30 7618 H 719.369 3.35464 2.26376 0
M  V30 7619 H 717.939 2.30291 2.11387 0
M  V30 7620 H 717.159 3.93476 0.238832 0
M  V30 7621 H 718.447 5.02886 0.773537 0
M  V30 7622 H 717.845 4.15984 3.83372 0
M  V30 7623 H 716.402 5.04509 4.12691 0
M  V30 7624 N 719.835 0.176821 1.56605 0
M  V30 7625 C 720.745 -0.763682 2.21822 0
M  V30 7626 C 721.761 -1.24889 1.21156 0
M  V30 7627 O 722.937 -1.29987 1.53836 0
M  V30 7628 C 720.002 -1.97352 2.8505 0
M  V30 7629 C 719.063 -1.53466 4.00932 0
M  V30 7630 C 718.296 -2.68682 4.61135 0
M  V30 7631 O 718.519 -3.85694 4.20234 0
M  V30 7632 O 717.453 -2.42442 5.50913 0
M  V30 7633 H 721.279 -0.238363 3.02763 0
M  V30 7634 H 718.864 -0.0516331 1.49311 0
M  V30 7635 H 720.746 -2.68096 3.25119 0
M  V30 7636 H 719.421 -2.48779 2.07101 0
M  V30 7637 H 718.328 -0.796551 3.65521 0
M  V30 7638 H 719.661 -1.06724 4.8049 0
M  V30 7639 N 721.313 -1.57302 -0.09688 0
M  V30 7640 C 722.56 -1.85997 -0.800699 0
M  V30 7641 C 722.888 -0.765089 -1.7882 0
M  V30 7642 O 722.143 0.241492 -1.94204 0
M  V30 7643 C 722.442 -3.21272 -1.56586 0
M  V30 7644 C 722.108 -4.45104 -0.72064 0
M  V30 7645 C 720.77 -4.78723 -0.487632 0
M  V30 7646 C 723.122 -5.2103 -0.132948 0
M  V30 7647 C 720.45 -5.85697 0.34296 0
M  V30 7648 C 722.802 -6.28881 0.684957 0
M  V30 7649 C 721.466 -6.61017 0.928073 0
M  V30 7650 H 720.736 -0.680613 -0.292997 0
M  V30 7651 H 723.383 -1.91399 -0.0622474 0
M  V30 7652 H 721.688 -3.11547 -2.37583 0
M  V30 7653 H 723.385 -3.40702 -2.11478 0
M  V30 7654 H 719.975 -4.18777 -0.912359 0
M  V30 7655 H 724.159 -4.95392 -0.300132 0
M  V30 7656 H 719.415 -6.09008 0.540317 0
M  V30 7657 H 723.589 -6.86886 1.14721 0
M  V30 7658 H 721.216 -7.43738 1.57348 0
M  V30 7659 N 722.791 0.367657 -1.53252 0
M  V30 7660 C 723.701 1.47415 -1.82499 0
M  V30 7661 C 724.717 1.58711 -0.713222 0
M  V30 7662 O 725.893 1.74644 -1.00306 0
M  V30 7663 C 722.958 2.82706 -2.00694 0
M  V30 7664 C 722.019 2.80955 -3.24596 0
M  V30 7665 C 721.252 4.09793 -3.41914 0
M  V30 7666 O 721.475 5.05852 -2.63572 0
M  V30 7667 O 720.409 4.15731 -4.3526 0
M  V30 7668 H 724.235 1.25624 -2.765 0
M  V30 7669 H 721.82 0.557559 -1.38606 0
M  V30 7670 H 723.702 3.62873 -2.14246 0
M  V30 7671 H 722.377 3.04479 -1.09883 0
M  V30 7672 H 721.284 1.99494 -3.16469 0
M  V30 7673 H 722.617 2.64136 -4.15323 0
M  V30 7674 N 724.269 1.44576 0.627338 0
M  V30 7675 C 725.515 1.47777 1.38888 0
M  V30 7676 C 725.848 0.111406 1.9388 0
M  V30 7677 O 725.123 -0.87149 1.73883 0
M  V30 7678 C 725.406 2.54119 2.55138 0
M  V30 7679 C 725.259 4.00128 2.0547 0
M  V30 7680 C 726.578 2.56929 3.57317 0
M  V30 7681 H 723.697 0.538048 0.50366 0
M  V30 7682 H 726.339 1.76277 0.708978 0
M  V30 7683 H 724.489 2.29948 3.13139 0
M  V30 7684 H 726.161 4.35444 1.5227 0
M  V30 7685 H 724.404 4.11724 1.36623 0
M  V30 7686 H 725.075 4.7019 2.89181 0
M  V30 7687 H 727.551 2.78536 3.09122 0
M  V30 7688 H 726.427 3.33234 4.36173 0
M  V30 7689 H 726.688 1.6127 4.11636 0
M  V30 7690 N 725.747 -0.868086 1.31537 0
M  V30 7691 C 726.993 -1.62367 1.2151 0
M  V30 7692 C 727.326 -1.92883 -0.225819 0
M  V30 7693 O 726.601 -1.56176 -1.15927 0
M  V30 7694 C 726.884 -2.95268 2.06129 0
M  V30 7695 C 726.737 -2.71619 3.58529 0
M  V30 7696 C 728.056 -3.96391 1.91212 0
M  V30 7697 H 725.175 -0.589178 0.442762 0
M  V30 7698 H 727.817 -1.00336 1.61347 0
M  V30 7699 H 725.967 -3.4821 1.72284 0
M  V30 7700 H 727.639 -2.25334 4.0252 0
M  V30 7701 H 725.882 -2.05817 3.81866 0
M  V30 7702 H 726.553 -3.66192 4.13047 0
M  V30 7703 H 729.029 -3.52663 2.20834 0
M  V30 7704 H 727.905 -4.87263 2.52718 0
M  V30 7705 H 728.166 -4.33335 0.875953 0
M  V30 7706 N 727.225 -1.14528 -1.08264 0
M  V30 7707 C 728.45 -0.938381 -1.84957 0
M  V30 7708 C 728.875 0.508044 -1.81109 0
M  V30 7709 O 728.233 1.36146 -1.19724 0
M  V30 7710 C 728.281 -1.44568 -3.30352 0
M  V30 7711 O 727.385 -0.638745 -4.07423 0
M  V30 7712 H 726.726 -0.335394 -0.573068 0
M  V30 7713 H 729.256 -1.52287 -1.36637 0
M  V30 7714 H 729.266 -1.45449 -3.81194 0
M  V30 7715 H 727.941 -2.49876 -3.32468 0
M  V30 7716 H 726.518 -0.698801 -3.66294 0
M  V30 7717 N 728.703 1.26451 -0.940633 0
M  V30 7718 C 729.931 1.97868 -0.604642 0
M  V30 7719 C 730.346 1.70051 0.820251 0
M  V30 7720 O 729.703 0.96843 1.54686 0
M  V30 7721 C 729.754 3.51684 -0.836689 0
M  V30 7722 O 729.475 3.78533 -2.20554 0
M  V30 7723 C 730.976 4.40343 -0.511169 0
M  V30 7724 H 728.196 0.631105 -0.227919 0
M  V30 7725 H 730.74 1.60979 -1.26119 0
M  V30 7726 H 728.895 3.86736 -0.226759 0
M  V30 7727 H 729.309 4.73065 -2.26517 0
M  V30 7728 H 730.783 5.47229 -0.724157 0
M  V30 7729 H 731.26 4.35694 0.553815 0
M  V30 7730 H 731.866 4.10834 -1.0998 0
M  V30 7731 N 730.181 0.707592 1.40822 0
M  V30 7732 C 731.111 0.0644925 2.33411 0
M  V30 7733 C 732.092 -0.754205 1.52466 0
M  V30 7734 O 733.277 -0.704749 1.80961 0
M  V30 7735 C 730.407 -0.863865 3.36385 0
M  V30 7736 C 729.361 -0.15138 4.27732 0
M  V30 7737 C 728.687 -1.19491 5.21177 0
M  V30 7738 C 729.987 0.989607 5.12839 0
M  V30 7739 H 731.681 0.837829 2.87438 0
M  V30 7740 H 729.227 0.404346 1.38207 0
M  V30 7741 H 731.18 -1.32309 4.0009 0
M  V30 7742 H 729.904 -1.66901 2.80734 0
M  V30 7743 H 728.563 0.287937 3.65467 0
M  V30 7744 H 728.211 -1.9929 4.61836 0
M  V30 7745 H 727.911 -0.723123 5.83134 0
M  V30 7746 H 729.435 -1.6544 5.8776 0
M  V30 7747 H 730.849 0.610114 5.70044 0
M  V30 7748 H 729.246 1.38926 5.83798 0
M  V30 7749 H 730.316 1.82389 4.49291 0
M  V30 7750 N 731.66 -1.50943 0.453197 0
M  V30 7751 C 733.076 -1.59245 0.106342 0
M  V30 7752 C 733.276 -1.46287 -1.38572 0
M  V30 7753 O 732.332 -1.31219 -2.15726 0
M  V30 7754 C 733.645 -2.93797 0.640595 0
M  V30 7755 C 735.193 -3.07148 0.602435 0
M  V30 7756 C 735.668 -4.44247 1.11393 0
M  V30 7757 N 737.159 -4.50611 1.07258 0
M  V30 7758 C 737.894 -5.55049 1.43905 0
M  V30 7759 N 737.39 -6.66828 1.87914 0
M  V30 7760 N 739.183 -5.45494 1.35621 0
M  V30 7761 H 731.334 -1.5761 1.42382 0
M  V30 7762 H 733.597 -0.74384 0.587713 0
M  V30 7763 H 733.303 -3.087 1.68515 0
M  V30 7764 H 733.177 -3.77127 0.0742272 0
M  V30 7765 H 735.564 -2.91903 -0.433171 0
M  V30 7766 H 735.645 -2.25619 1.20539 0
M  V30 7767 H 735.289 -4.60239 2.14808 0
M  V30 7768 H 735.219 -5.2434 0.487353 0
M  V30 7769 H 737.71 -3.70391 0.749585 0
M  V30 7770 H 738.023 -7.42558 2.14072 0
M  V30 7771 H 736.368 -6.67995 1.91853 0
M  V30 7772 H 739.559 -4.57053 1.01093 0
M  V30 7773 H 739.732 -6.2677 1.64508 0
M  V30 7774 N 733.138 -0.185124 -1.56509 0
M  V30 7775 C 734.068 0.735098 -2.21627 0
M  V30 7776 C 735.049 1.2288 -1.1762 0
M  V30 7777 O 736.234 1.27945 -1.46095 0
M  V30 7778 C 733.364 1.95889 -2.86783 0
M  V30 7779 C 732.318 1.6005 -3.96948 0
M  V30 7780 C 731.644 2.90009 -4.4922 0
M  V30 7781 C 732.944 0.818008 -5.15855 0
M  V30 7782 H 734.638 0.192274 -2.98782 0
M  V30 7783 H 732.184 0.0910393 -1.43712 0
M  V30 7784 H 734.137 2.60779 -3.31017 0
M  V30 7785 H 732.861 2.52608 -2.07018 0
M  V30 7786 H 731.52 0.975237 -3.5339 0
M  V30 7787 H 731.168 3.44797 -3.6623 0
M  V30 7788 H 730.868 2.66778 -5.23549 0
M  V30 7789 H 732.392 3.55904 -4.9615 0
M  V30 7790 H 733.806 1.36979 -5.56695 0
M  V30 7791 H 732.203 0.684207 -5.96187 0
M  V30 7792 H 733.273 -0.182939 -4.84555 0
M  V30 7793 N 734.616 1.57351 0.0885366 0
M  V30 7794 C 735.548 1.99221 1.13329 0
M  V30 7795 C 736.561 0.895705 1.35945 0
M  V30 7796 O 737.75 1.17376 1.34481 0
M  V30 7797 C 734.85 2.3016 2.48756 0
M  V30 7798 C 734.023 3.61444 2.46327 0
M  V30 7799 C 733.082 3.80244 3.63732 0
M  V30 7800 O 732.108 4.52024 3.45924 0
M  V30 7801 N 733.31 3.2132 4.8346 0
M  V30 7802 H 736.075 2.89456 0.776862 0
M  V30 7803 H 733.636 1.59505 0.277428 0
M  V30 7804 H 735.628 2.39925 3.25911 0
M  V30 7805 H 734.198 1.459 2.76464 0
M  V30 7806 H 733.418 3.62588 1.54673 0
M  V30 7807 H 734.706 4.47678 2.41789 0
M  V30 7808 H 734.104 2.63028 5.00832 0
M  V30 7809 H 732.661 3.3656 5.58185 0
M  V30 7810 N 736.094 -0.359525 1.53444 0
M  V30 7811 C 737.044 -1.441 1.7669 0
M  V30 7812 C 738.028 -1.48408 0.621599 0
M  V30 7813 O 739.22 -1.53547 0.880468 0
M  V30 7814 C 736.349 -2.81455 1.96566 0
M  V30 7815 C 735.435 -2.81601 3.17115 0
M  V30 7816 N 735.826 -2.51388 4.38905 0
M  V30 7817 C 734.124 -3.12758 3.1796 0
M  V30 7818 C 734.825 -2.59365 5.20677 0
M  V30 7819 N 733.801 -2.94328 4.57025 0
M  V30 7820 H 737.603 -1.19613 2.68458 0
M  V30 7821 H 735.117 -0.567761 1.52152 0
M  V30 7822 H 737.114 -3.59357 2.11348 0
M  V30 7823 H 735.774 -3.06901 1.06029 0
M  V30 7824 H 736.785 -2.24873 4.66533 0
M  V30 7825 H 733.462 -3.43479 2.37336 0
M  V30 7826 H 734.852 -2.39301 6.27841 0
M  V30 7827 N 737.572 -1.44907 -0.619662 0
M  V30 7828 C 738.818 -1.48512 -1.38102 0
M  V30 7829 C 739.151 -0.121686 -1.93818 0
M  V30 7830 O 738.426 0.862256 -1.74343 0
M  V30 7831 C 738.709 -2.55469 -2.53787 0
M  V30 7832 C 738.562 -4.01212 -2.03345 0
M  V30 7833 C 739.881 -2.58821 -3.55949 0
M  V30 7834 H 737 -0.540712 -0.500799 0
M  V30 7835 H 739.642 -1.7665 -0.69962 0
M  V30 7836 H 737.792 -2.31606 -3.11915 0
M  V30 7837 H 739.464 -4.36245 -1.49959 0
M  V30 7838 H 737.707 -4.12443 -1.34438 0
M  V30 7839 H 738.378 -4.71717 -2.86683 0
M  V30 7840 H 740.854 -2.80172 -3.07641 0
M  V30 7841 H 739.73 -3.35542 -4.34399 0
M  V30 7842 H 739.991 -1.63451 -4.10775 0
M  V30 7843 N 739.05 0.861098 -1.31996 0
M  V30 7844 C 740.327 1.59788 -1.12814 0
M  V30 7845 C 740.707 2.08753 0.313882 0
M  V30 7846 O 740.055 1.87258 1.30946 0
M  V30 7847 C 740.265 2.74901 -2.15012 0
M  V30 7848 C 741.613 3.44643 -2.48004 0
M  V30 7849 O 742.637 2.85119 -2.13508 0
M  V30 7850 O 741.496 4.52044 -3.07113 0
M  V30 7851 H 738.59 0.703408 -0.434909 0
M  V30 7852 H 741.136 0.905788 -1.43505 0
M  V30 7853 H 739.908 2.36198 -3.11971 0
M  V30 7854 H 739.531 3.51792 -1.85279 0
M  V30 7855 N 740.528 1.15101 1.07655 0
M  V30 7856 C 741.944 0.893004 1.32279 0
M  V30 7857 C 742.144 -0.461701 1.96139 0
M  V30 7858 O 741.2 -1.20431 2.21929 0
M  V30 7859 C 742.513 2.03161 2.21689 0
M  V30 7860 C 744.061 2.06579 2.35147 0
M  V30 7861 C 744.536 3.19754 3.27905 0
M  V30 7862 N 746.027 3.19382 3.35484 0
M  V30 7863 C 746.762 4.03592 4.07309 0
M  V30 7864 N 746.258 4.97859 4.81776 0
M  V30 7865 N 748.051 3.91626 4.03219 0
M  V30 7866 H 740.202 2.02341 0.645886 0
M  V30 7867 H 742.465 0.882127 0.347211 0
M  V30 7868 H 742.171 3.00934 1.82021 0
M  V30 7869 H 742.045 1.96132 3.22199 0
M  V30 7870 H 744.432 1.09408 2.74069 0
M  V30 7871 H 744.513 2.17676 1.34353 0
M  V30 7872 H 744.157 4.17175 2.89702 0
M  V30 7873 H 744.087 3.05893 4.28645 0
M  V30 7874 H 746.578 2.51112 2.82403 0
M  V30 7875 H 746.891 5.58563 5.34067 0
M  V30 7876 H 745.236 5.0185 4.80803 0
M  V30 7877 H 748.427 3.17295 3.44154 0
M  V30 7878 H 748.6 4.57479 4.5893 0
M  V30 7879 N 742.006 -1.2595 0.947325 0
M  V30 7880 C 743.417 -1.75389 0.639963 0
M  V30 7881 C 743.768 -1.77081 -0.844788 0
M  V30 7882 O 742.893 -1.3869 -1.66114 0
M  V30 7883 C 743.488 -3.18506 1.15496 0
M  V30 7884 C 742.047 -3.65534 0.897894 0
M  V30 7885 C 741.194 -2.44818 1.30228 0
M  V30 7886 H 744.145 -1.1194 1.12495 0
M  V30 7887 H 744.166 -3.77045 0.511627 0
M  V30 7888 H 743.678 -3.17243 2.23559 0
M  V30 7889 H 741.779 -3.72221 -0.168096 0
M  V30 7890 H 741.892 -4.54039 1.52922 0
M  V30 7891 H 740.256 -2.44291 0.720678 0
M  V30 7892 H 741.039 -2.46251 2.39198 0
M  V30 7893 N 743.484 -0.715051 -1.40445 0
M  V30 7894 C 744.414 -0.0768699 -2.33373 0
M  V30 7895 C 745.395 0.746109 -1.52863 0
M  V30 7896 O 746.58 0.695142 -1.81332 0
M  V30 7897 C 743.71 0.846014 -3.36838 0
M  V30 7898 C 742.664 0.128694 -4.27806 0
M  V30 7899 C 741.99 1.16726 -5.21804 0
M  V30 7900 C 743.29 -1.01679 -5.12307 0
M  V30 7901 H 744.984 -0.853061 -2.8699 0
M  V30 7902 H 742.53 -0.41167 -1.3799 0
M  V30 7903 H 744.483 1.30185 -4.00786 0
M  V30 7904 H 743.207 1.6541 -2.81615 0
M  V30 7905 H 741.866 -0.307314 -3.6531 0
M  V30 7906 H 741.514 1.96838 -4.62887 0
M  V30 7907 H 741.214 0.692188 -5.83509 0
M  V30 7908 H 742.738 1.62321 -5.88629 0
M  V30 7909 H 744.152 -0.640337 -5.69713 0
M  V30 7910 H 742.549 -1.4202 -5.83053 0
M  V30 7911 H 743.619 -1.84769 -4.48317 0
M  V30 7912 N 744.962 1.50701 -0.461195 0
M  V30 7913 C 746.187 2.07171 0.0974773 0
M  V30 7914 C 746.612 1.32391 1.3362 0
M  V30 7915 O 745.97 0.368676 1.77512 0
M  V30 7916 C 746.018 3.58651 0.374409 0
M  V30 7917 O 745.122 3.85816 1.4567 0
M  V30 7918 H 744.463 0.663944 -0.00862047 0
M  V30 7919 H 746.993 1.94021 -0.649394 0
M  V30 7920 H 747.003 4.03295 0.617843 0
M  V30 7921 H 745.678 4.12498 -0.530829 0
M  V30 7922 H 744.255 3.53018 1.20136 0
M  V30 7923 N 746.441 0.193421 1.56409 0
M  V30 7924 C 747.687 -0.446449 1.97825 0
M  V30 7925 C 748.02 -1.61386 1.08019 0
M  V30 7926 O 747.295 -1.94053 0.131839 0
M  V30 7927 C 747.578 -0.908199 3.48459 0
M  V30 7928 C 747.431 0.260914 4.49043 0
M  V30 7929 C 748.75 -1.77428 4.0275 0
M  V30 7930 H 745.869 -0.160807 0.719243 0
M  V30 7931 H 748.511 0.284006 1.87865 0
M  V30 7932 H 746.661 -1.53062 3.57077 0
M  V30 7933 H 748.333 0.898548 4.52464 0
M  V30 7934 H 746.576 0.912949 4.24085 0
M  V30 7935 H 747.247 -0.104657 5.51901 0
M  V30 7936 H 749.723 -1.24936 3.96901 0
M  V30 7937 H 748.599 -2.06633 5.08521 0
M  V30 7938 H 748.86 -2.72788 3.47907 0
M  V30 7939 N 747.919 -1.57396 -0.0801906 0
M  V30 7940 C 749.335 -1.53564 -0.434778 0
M  V30 7941 C 749.535 -0.912372 -1.79661 0
M  V30 7942 O 748.591 -0.511268 -2.4727 0
M  V30 7943 C 749.904 -2.98244 -0.383561 0
M  V30 7944 C 751.452 -3.09536 -0.46435 0
M  V30 7945 C 751.927 -4.55851 -0.443128 0
M  V30 7946 N 753.418 -4.60456 -0.503448 0
M  V30 7947 C 754.153 -5.71135 -0.509106 0
M  V30 7948 N 753.649 -6.91203 -0.47008 0
M  V30 7949 N 755.442 -5.59353 -0.555035 0
M  V30 7950 H 747.593 -1.96281 0.811635 0
M  V30 7951 H 749.856 -0.898041 0.303689 0
M  V30 7952 H 749.562 -3.47369 0.550236 0
M  V30 7953 H 749.436 -3.57705 -1.19694 0
M  V30 7954 H 751.823 -2.6039 -1.38857 0
M  V30 7955 H 751.904 -2.53 0.377445 0
M  V30 7956 H 751.548 -5.05653 0.477207 0
M  V30 7957 H 751.478 -5.10242 -1.30234 0
M  V30 7958 H 753.969 -3.74048 -0.538199 0
M  V30 7959 H 754.282 -7.7132 -0.478091 0
M  V30 7960 H 752.627 -6.93625 -0.436897 0
M  V30 7961 H 755.818 -4.64453 -0.583158 0
M  V30 7962 H 755.991 -6.4561 -0.555976 0
M  V30 7963 N 749.397 0.351382 -1.53633 0
M  V30 7964 C 750.637 1.10102 -1.72212 0
M  V30 7965 C 751.001 1.86128 -0.471198 0
M  V30 7966 O 752.202 2.63445 -0.533887 0
M  V30 7967 C 750.473 2.02348 -2.94602 0
M  V30 7968 S 752.032 2.84641 -3.33954 0
M  V30 7969 H 748.85 0.372145 -0.60583 0
M  V30 7970 H 751.452 0.38044 -1.91763 0
M  V30 7971 H 750.156 1.45283 -3.83824 0
M  V30 7972 H 749.687 2.78856 -2.77493 0
M  V30 7973 H 751.702 4.04724 -2.87076 0
M  V30 7974 N 750.875 1.45233 0.611969 0
M  V30 7975 C 752.103 1.52539 1.39784 0
M  V30 7976 C 752.518 0.156533 1.8815 0
M  V30 7977 O 751.875 -0.84112 1.61961 0
M  V30 7978 C 751.926 2.50614 2.60528 0
M  V30 7979 O 751.647 3.8218 2.14173 0
M  V30 7980 C 753.148 2.67574 3.53439 0
M  V30 7981 H 750.368 0.51674 0.428043 0
M  V30 7982 H 752.912 1.90379 0.746727 0
M  V30 7983 H 751.067 2.15858 3.2169 0
M  V30 7984 H 751.481 4.35305 2.92592 0
M  V30 7985 H 752.955 3.40184 4.34717 0
M  V30 7986 H 753.432 1.73458 4.03496 0
M  V30 7987 H 754.038 3.0331 2.98133 0
M  V30 7988 N 752.353 -0.854086 1.3245 0
M  V30 7989 C 753.283 -1.97827 1.24044 0
M  V30 7990 C 754.264 -1.69646 0.124166 0
M  V30 7991 O 755.449 -1.91687 0.31143 0
M  V30 7992 C 752.579 -3.33673 0.963324 0
M  V30 7993 C 751.533 -3.76207 2.04089 0
M  V30 7994 C 750.859 -5.0969 1.61618 0
M  V30 7995 C 752.159 -3.91612 3.45597 0
M  V30 7996 H 753.853 -2.05118 2.18099 0
M  V30 7997 H 751.399 -0.985489 1.04996 0
M  V30 7998 H 753.352 -4.11871 0.891061 0
M  V30 7999 H 752.076 -3.26597 -0.0128649 0
M  V30 8000 H 750.735 -3.0026 2.10332 0
M  V30 8001 H 750.383 -4.99072 0.627418 0
M  V30 8002 H 750.083 -5.3912 2.33717 0
M  V30 8003 H 751.607 -5.90381 1.55829 0
M  V30 8004 H 753.021 -4.60163 3.4194 0
M  V30 8005 H 751.418 -4.3246 4.16051 0
M  V30 8006 H 752.488 -2.9451 3.85217 0
M  V30 8007 N 753.831 -1.1567 -1.07043 0
M  V30 8008 C 755.247 -0.900006 -1.31803 0
M  V30 8009 C 755.447 0.451293 -1.96381 0
M  V30 8010 O 754.503 1.19252 -2.22565 0
M  V30 8011 C 755.816 -2.04334 -2.20609 0
M  V30 8012 C 757.364 -2.07823 -2.34048 0
M  V30 8013 C 757.839 -3.21488 -3.26204 0
M  V30 8014 N 759.33 -3.21156 -3.33786 0
M  V30 8015 C 760.065 -4.05746 -4.05163 0
M  V30 8016 N 759.561 -5.00407 -4.79129 0
M  V30 8017 N 761.354 -3.93759 -4.01136 0
M  V30 8018 H 753.505 -2.02681 -0.635146 0
M  V30 8019 H 755.768 -0.883956 -0.342528 0
M  V30 8020 H 755.474 -3.01895 -1.80423 0
M  V30 8021 H 755.348 -1.97838 -3.21154 0
M  V30 8022 H 757.735 -1.1086 -2.73485 0
M  V30 8023 H 757.816 -2.18386 -1.33197 0
M  V30 8024 H 757.46 -4.18706 -2.87485 0
M  V30 8025 H 757.39 -3.08162 -4.27017 0
M  V30 8026 H 759.881 -2.52606 -2.81067 0
M  V30 8027 H 760.194 -5.61387 -5.31097 0
M  V30 8028 H 758.539 -5.04393 -4.78135 0
M  V30 8029 H 761.73 -3.19115 -3.42466 0
M  V30 8030 H 761.903 -4.59906 -4.56498 0
M  V30 8031 N 755.309 1.25446 -0.953992 0
M  V30 8032 C 756.257 2.27909 -0.46478 0
M  V30 8033 C 757.251 1.62904 0.464607 0
M  V30 8034 O 758.457 1.76733 0.341407 0
M  V30 8035 H 754.832 0.74036 -0.131798 0
M  V30 8036 H 756.803 2.66559 -1.34122 0
M  V30 8037 C 755.552 3.46853 0.242589 0
M  V30 8038 H 754.875 3.97105 -0.463418 0
M  V30 8039 H 756.315 4.20432 0.548919 0
M  V30 8040 C 754.774 3.03386 1.46487 0
M  V30 8041 O 755.304 3.09342 2.56262 0
M  V30 8042 N 753.51 2.58584 1.32599 0
M  V30 8043 H 753.057 2.53938 0.432834 0
M  V30 8044 H 753.015 2.29866 2.14497 0
M  V30 8045 N 756.787 0.722489 1.40064 0
M  V30 8046 C 757.75 0.0830209 2.2905 0
M  V30 8047 C 758.75 -0.680208 1.45705 0
M  V30 8048 O 759.94 -0.511084 1.66534 0
M  V30 8049 C 757.072 -0.892092 3.29021 0
M  V30 8050 H 758.265 0.866848 2.87099 0
M  V30 8051 H 755.818 0.487556 1.48501 0
M  V30 8052 H 756.553 -1.70273 2.76003 0
M  V30 8053 H 756.338 -0.34761 3.90556 0
M  V30 8054 H 757.828 -1.33648 3.95636 0
M  V30 8055 N 758.265 -1.50454 0.469181 0
M  V30 8056 C 759.511 -2.02615 -0.0865971 0
M  V30 8057 C 759.844 -1.35062 -1.39542 0
M  V30 8058 O 759.119 -0.475701 -1.88593 0
M  V30 8059 C 759.402 -3.59068 -0.272385 0
M  V30 8060 C 759.255 -4.37196 1.05733 0
M  V30 8061 C 760.574 -4.2793 -1.0278 0
M  V30 8062 H 757.693 -0.736389 -0.0299977 0
M  V30 8063 H 760.335 -1.79792 0.614399 0
M  V30 8064 H 758.485 -3.78646 -0.869471 0
M  V30 8065 H 760.157 -4.29195 1.69084 0
M  V30 8066 H 758.4 -4.01013 1.65442 0
M  V30 8067 H 759.071 -5.44924 0.880997 0
M  V30 8068 H 761.547 -4.12816 -0.521718 0
M  V30 8069 H 760.423 -5.37214 -1.12659 0
M  V30 8070 H 760.684 -3.90968 -2.0639 0
M  V30 8071 N 759.743 -0.201713 -1.56304 0
M  V30 8072 C 760.991 0.434447 -1.97375 0
M  V30 8073 C 761.312 1.61692 -1.08998 0
M  V30 8074 O 760.582 1.95223 -0.162682 0
M  V30 8075 H 759.162 0.163497 -0.728888 0
M  V30 8076 H 761.824 -0.289988 -1.92731 0
M  V30 8077 H 760.92 0.774136 -3.02347 0
M  V30 8078 N 761.222 1.57436 0.0718424 0
M  V30 8079 C 762.154 2.00412 1.1121 0
M  V30 8080 C 763.167 0.910074 1.34987 0
M  V30 8081 O 764.356 1.18796 1.33228 0
M  V30 8082 C 761.456 2.32786 2.46301 0
M  V30 8083 C 760.629 3.64036 2.4248 0
M  V30 8084 C 759.688 3.8408 3.59679 0
M  V30 8085 O 758.714 4.55667 3.4111 0
M  V30 8086 N 759.916 3.2643 4.80025 0
M  V30 8087 H 762.681 2.90264 0.746118 0
M  V30 8088 H 760.242 1.59791 0.260495 0
M  V30 8089 H 762.234 2.43368 3.23348 0
M  V30 8090 H 760.804 1.48824 2.74901 0
M  V30 8091 H 760.024 3.64208 1.50818 0
M  V30 8092 H 761.312 4.50217 2.37027 0
M  V30 8093 H 760.71 2.68325 4.98014 0
M  V30 8094 H 759.267 3.42461 5.54584 0
M  V30 8095 N 762.7 -0.34323 1.53817 0
M  V30 8096 C 763.977 -1.10047 1.61706 0
M  V30 8097 C 764.357 -2.06495 0.438514 0
M  V30 8098 O 763.705 -2.21297 -0.569188 0
M  V30 8099 C 763.915 -1.81985 2.97796 0
M  V30 8100 C 765.263 -2.35717 3.53161 0
M  V30 8101 O 766.287 -1.9208 2.99973 0
M  V30 8102 O 765.146 -3.15551 4.46195 0
M  V30 8103 H 762.24 -0.506096 0.654061 0
M  V30 8104 H 764.786 -0.344697 1.66162 0
M  V30 8105 H 763.558 -1.11722 3.75012 0
M  V30 8106 H 763.181 -2.64419 2.96931 0
M  V30 8107 N 764.178 -1.45556 -0.604258 0
M  V30 8108 C 765.406 -1.53278 -1.38973 0
M  V30 8109 C 765.821 -0.166509 -1.88064 0
M  V30 8110 O 765.178 0.832519 -1.62405 0
M  V30 8111 C 765.229 -2.51992 -2.59195 0
M  V30 8112 O 764.95 -3.8331 -2.12143 0
M  V30 8113 C 766.451 -2.69445 -3.52015 0
M  V30 8114 H 763.671 -0.519003 -0.425297 0
M  V30 8115 H 766.215 -1.90773 -0.736621 0
M  V30 8116 H 764.37 -2.17561 -3.2054 0
M  V30 8117 H 764.784 -4.3685 -2.90279 0
M  V30 8118 H 766.258 -3.42485 -4.32907 0
M  V30 8119 H 766.735 -1.75596 -4.0257 0
M  V30 8120 H 767.341 -3.04886 -2.9652 0
M  V30 8121 N 765.656 0.84705 -1.32902 0
M  V30 8122 C 766.588 1.96308 -1.18304 0
M  V30 8123 C 767.601 1.62386 -0.116082 0
M  V30 8124 O 768.79 1.74713 -0.365751 0
M  V30 8125 C 765.89 3.29556 -0.790305 0
M  V30 8126 C 765.063 3.91668 -1.94717 0
M  V30 8127 C 764.122 5.0326 -1.53674 0
M  V30 8128 O 763.148 5.22847 -2.24989 0
M  V30 8129 N 764.35 5.78852 -0.437075 0
M  V30 8130 H 767.115 2.09369 -2.14441 0
M  V30 8131 H 764.676 1.02233 -1.25539 0
M  V30 8132 H 766.668 4.01624 -0.49799 0
M  V30 8133 H 765.238 3.12497 0.0801286 0
M  V30 8134 H 764.458 3.12292 -2.40557 0
M  V30 8135 H 765.746 4.299 -2.72146 0
M  V30 8136 H 765.144 5.65484 0.156316 0
M  V30 8137 H 763.701 6.51479 -0.204399 0
M  V30 8138 N 767.134 1.16236 1.06428 0
M  V30 8139 C 768.044 0.881976 2.1739 0
M  V30 8140 C 769.06 -0.145259 1.73393 0
M  V30 8141 O 770.236 0.0310558 2.01376 0
M  V30 8142 C 767.301 0.385496 3.4455 0
M  V30 8143 C 766.362 1.47779 4.03063 0
M  V30 8144 C 765.595 1.0049 5.24154 0
M  V30 8145 O 765.818 -0.145889 5.70213 0
M  V30 8146 O 764.752 1.79265 5.74585 0
M  V30 8147 H 768.578 1.80983 2.43883 0
M  V30 8148 H 766.163 0.942226 1.15942 0
M  V30 8149 H 768.045 0.115536 4.21242 0
M  V30 8150 H 766.72 -0.514369 3.19587 0
M  V30 8151 H 765.627 1.80147 3.27869 0
M  V30 8152 H 766.96 2.35291 4.32318 0
M  V30 8153 N 768.612 -1.24939 0.960631 0
M  V30 8154 C 769.858 -1.93104 0.61958 0
M  V30 8155 C 770.191 -1.74991 -0.84212 0
M  V30 8156 O 769.466 -1.09867 -1.60498 0
M  V30 8157 C 769.749 -3.46326 0.986422 0
M  V30 8158 C 769.602 -3.73638 2.50429 0
M  V30 8159 C 770.921 -4.37067 0.515827 0
M  V30 8160 H 768.04 -0.701311 0.226566 0
M  V30 8161 H 770.682 -1.47442 1.19836 0
M  V30 8162 H 768.832 -3.85348 0.493907 0
M  V30 8163 H 770.504 -3.44217 3.07103 0
M  V30 8164 H 768.747 -3.19035 2.93937 0
M  V30 8165 H 769.418 -4.80815 2.71147 0
M  V30 8166 H 771.894 -4.05381 0.938389 0
M  V30 8167 H 770.77 -5.43022 0.80114 0
M  V30 8168 H 771.031 -4.38224 -0.584171 0
M  V30 8169 N 770.09 -0.729906 -1.39679 0
M  V30 8170 C 771.339 -0.272534 -1.9985 0
M  V30 8171 C 771.652 1.14519 -1.58571 0
M  V30 8172 O 772.858 1.70182 -2.11543 0
M  V30 8173 C 771.314 -0.436322 -3.57245 0
M  V30 8174 C 770.922 -1.86161 -4.0749 0
M  V30 8175 C 772.666 -0.0404679 -4.24481 0
M  V30 8176 C 770.573 -1.97522 -5.5744 0
M  V30 8177 H 769.503 -0.0981428 -0.747585 0
M  V30 8178 H 772.154 -0.903056 -1.59741 0
M  V30 8179 H 770.536 0.263015 -3.95126 0
M  V30 8180 H 771.71 -2.59248 -3.80955 0
M  V30 8181 H 770.025 -2.21021 -3.529 0
M  V30 8182 H 772.622 -0.104437 -5.34598 0
M  V30 8183 H 772.965 1.00357 -4.04023 0
M  V30 8184 H 773.498 -0.690774 -3.91757 0
M  V30 8185 H 770.237 -3.00096 -5.82771 0
M  V30 8186 H 769.757 -1.28864 -5.85794 0
M  V30 8187 H 771.436 -1.754 -6.22771 0
M  V30 8188 N 771.568 1.50203 -0.477153 0
M  V30 8189 C 772.814 2.02658 0.0758507 0
M  V30 8190 C 773.147 1.358 1.38824 0
M  V30 8191 O 772.422 0.485696 1.88338 0
M  V30 8192 C 772.705 3.59208 0.253339 0
M  V30 8193 C 772.558 4.36629 -1.0805 0
M  V30 8194 C 773.877 4.28469 1.00509 0
M  V30 8195 H 770.996 0.736538 0.0260921 0
M  V30 8196 H 773.638 1.79464 -0.623925 0
M  V30 8197 H 771.788 3.79101 0.849378 0
M  V30 8198 H 773.46 4.28292 -1.71358 0
M  V30 8199 H 771.703 4.0013 -1.67566 0
M  V30 8200 H 772.374 5.44449 -0.909883 0
M  V30 8201 H 774.85 4.13087 0.499818 0
M  V30 8202 H 773.726 5.37804 1.09808 0
M  V30 8203 H 773.987 3.92057 2.04314 0
M  V30 8204 N 773.046 0.209999 1.56195 0
M  V30 8205 C 774.292 -0.425442 1.98287 0
M  V30 8206 C 774.625 -1.60232 1.09724 0
M  V30 8207 O 773.9 -1.93902 0.152414 0
M  V30 8208 C 774.183 -0.871189 3.49403 0
M  V30 8209 C 774.036 0.308527 4.48741 0
M  V30 8210 C 775.355 -1.73146 4.04609 0
M  V30 8211 H 772.474 -0.153169 0.720908 0
M  V30 8212 H 775.116 0.303916 1.87554 0
M  V30 8213 H 773.266 -1.49266 3.58681 0
M  V30 8214 H 774.938 0.946487 4.51486 0
M  V30 8215 H 773.181 0.957878 4.23092 0
M  V30 8216 H 773.852 -0.0461143 5.51981 0
M  V30 8217 H 776.328 -1.2072 3.98203 0
M  V30 8218 H 775.204 -2.01228 5.10684 0
M  V30 8219 H 775.465 -2.69083 3.5078 0
M  V30 8220 N 774.524 -1.57472 -0.0634922 0
M  V30 8221 C 775.935 -1.76303 -0.614337 0
M  V30 8222 C 776.286 -0.836578 -1.77471 0
M  V30 8223 O 775.411 -0.0227184 -2.16388 0
M  V30 8224 C 776.006 -3.19709 -1.12122 0
M  V30 8225 C 774.565 -3.39856 -1.61786 0
M  V30 8226 C 773.712 -2.71975 -0.540845 0
M  V30 8227 H 776.663 -1.57864 0.162702 0
M  V30 8228 H 776.684 -3.24326 -1.98979 0
M  V30 8229 H 776.196 -3.87114 -0.276472 0
M  V30 8230 H 774.297 -2.77578 -2.48558 0
M  V30 8231 H 774.41 -4.48338 -1.68908 0
M  V30 8232 H 772.774 -2.34763 -0.987854 0
M  V30 8233 H 773.557 -3.4204 0.293856 0
M  V30 8234 N 776.003 0.335068 -1.53997 0
M  V30 8235 C 776.953 1.4127 -1.7896 0
M  V30 8236 C 777.937 1.474 -0.64513 0
M  V30 8237 O 779.129 1.52127 -0.904785 0
M  V30 8238 C 776.258 2.78292 -2.01018 0
M  V30 8239 C 775.344 2.7652 -3.21555 0
M  V30 8240 N 775.735 2.44374 -4.42849 0
M  V30 8241 C 774.033 3.0766 -3.22895 0
M  V30 8242 C 774.734 2.51049 -5.24737 0
M  V30 8243 N 773.71 2.8702 -4.6165 0
M  V30 8244 H 777.512 1.15327 -2.70327 0
M  V30 8245 H 775.026 0.543483 -1.53036 0
M  V30 8246 H 777.023 3.55949 -2.17039 0
M  V30 8247 H 775.683 3.05175 -1.10898 0
M  V30 8248 H 776.694 2.17422 -4.70051 0
M  V30 8249 H 773.371 3.3966 -2.42771 0
M  V30 8250 H 774.761 2.29283 -6.31569 0
M  V30 8251 N 777.481 1.45874 0.596531 0
M  V30 8252 C 778.706 1.54247 1.38646 0
M  V30 8253 C 779.131 0.179571 1.87241 0
M  V30 8254 O 778.489 -0.837831 1.6078 0
M  V30 8255 C 778.537 2.54015 2.55946 0
M  V30 8256 O 777.641 2.06561 3.5694 0
M  V30 8257 H 776.982 0.519555 0.413471 0
M  V30 8258 H 779.512 1.91327 0.724936 0
M  V30 8259 H 779.522 2.73179 3.03047 0
M  V30 8260 H 778.197 3.52994 2.19928 0
M  V30 8261 H 776.774 1.97324 3.16414 0
M  V30 8262 N 778.959 -0.83999 1.33349 0
M  V30 8263 C 779.889 -1.965 1.26135 0
M  V30 8264 C 780.87 -1.69505 0.142152 0
M  V30 8265 O 782.055 -1.91346 0.331743 0
M  V30 8266 C 779.185 -3.32632 0.99866 0
M  V30 8267 C 778.139 -3.74021 2.08068 0
M  V30 8268 C 777.465 -5.07947 1.67014 0
M  V30 8269 C 778.765 -3.87925 3.49731 0
M  V30 8270 H 780.459 -2.02793 2.20262 0
M  V30 8271 H 778.005 -0.974297 1.06035 0
M  V30 8272 H 779.958 -4.10903 0.934696 0
M  V30 8273 H 778.682 -3.26593 0.0217759 0
M  V30 8274 H 777.341 -2.98012 2.13505 0
M  V30 8275 H 776.989 -4.98378 0.680316 0
M  V30 8276 H 776.689 -5.36611 2.39422 0
M  V30 8277 H 778.213 -5.88695 1.62082 0
M  V30 8278 H 779.627 -4.5651 3.46802 0
M  V30 8279 H 778.024 -4.28023 4.20614 0
M  V30 8280 H 779.094 -2.90407 3.88319 0
M  V30 8281 N 780.437 -1.16799 -1.0581 0
M  V30 8282 C 781.848 -0.95945 -1.60161 0
M  V30 8283 C 782.199 0.49543 -1.89842 0
M  V30 8284 O 781.324 1.36957 -1.67546 0
M  V30 8285 C 781.919 -1.73527 -2.90987 0
M  V30 8286 C 780.478 -1.57158 -3.42021 0
M  V30 8287 C 779.625 -1.74089 -2.15843 0
M  V30 8288 H 782.576 -1.31598 -0.886992 0
M  V30 8289 H 782.597 -1.21397 -3.60615 0
M  V30 8290 H 782.109 -2.79411 -2.69353 0
M  V30 8291 H 780.21 -0.537361 -3.68705 0
M  V30 8292 H 780.323 -2.35858 -4.17022 0
M  V30 8293 H 778.687 -1.16874 -2.26302 0
M  V30 8294 H 779.47 -2.81371 -1.96686 0
M  V30 8295 N 781.915 1.24427 -0.967243 0
M  V30 8296 C 783.162 1.92487 -0.62888 0
M  V30 8297 C 783.49 1.75623 0.835871 0
M  V30 8298 O 782.745 1.1027 1.61675 0
M  V30 8299 C 783.044 3.44568 -0.949096 0
M  V30 8300 C 782.71 3.816 -2.40192 0
M  V30 8301 C 781.372 3.9142 -2.799 0
M  V30 8302 C 783.724 3.99715 -3.34481 0
M  V30 8303 C 781.052 4.16771 -4.12939 0
M  V30 8304 C 783.404 4.26562 -4.67148 0
M  V30 8305 C 782.068 4.34601 -5.06634 0
M  V30 8306 H 781.338 0.704361 -0.230124 0
M  V30 8307 H 783.985 1.4772 -1.21864 0
M  V30 8308 H 782.29 3.90819 -0.277085 0
M  V30 8309 H 783.987 3.95436 -0.665692 0
M  V30 8310 H 780.577 3.74522 -2.08402 0
M  V30 8311 H 784.761 3.91531 -3.04987 0
M  V30 8312 H 780.017 4.21214 -4.43158 0
M  V30 8313 H 784.191 4.39523 -5.40178 0
M  V30 8314 H 781.818 4.53998 -6.09746 0
M  V30 8315 N 783.393 0.737304 1.3929 0
M  V30 8316 C 784.34 0.0988364 2.30588 0
M  V30 8317 C 785.31 -0.727206 1.49335 0
M  V30 8318 O 786.495 -0.686694 1.78014 0
M  V30 8319 C 783.635 -0.800734 3.35682 0
M  V30 8320 C 782.748 0.0381731 4.31983 0
M  V30 8321 C 781.883 -0.862884 5.24145 0
M  V30 8322 C 780.922 -0.0193639 6.12097 0
M  V30 8323 N 780.059 -0.87648 6.96608 0
M  V30 8324 H 784.899 0.883031 2.84617 0
M  V30 8325 H 782.436 0.447111 1.4014 0
M  V30 8326 H 784.394 -1.33676 3.95205 0
M  V30 8327 H 783.024 -1.55088 2.83103 0
M  V30 8328 H 782.076 0.691641 3.74059 0
M  V30 8329 H 783.388 0.690294 4.94 0
M  V30 8330 H 782.542 -1.46667 5.88705 0
M  V30 8331 H 781.281 -1.54878 4.62454 0
M  V30 8332 H 780.286 0.597202 5.46547 0
M  V30 8333 H 781.511 0.663348 6.75852 0
M  V30 8334 H 779.457 -1.54762 6.37483 0
M  V30 8335 H 779.374 -0.280892 7.55478 0
M  V30 8336 H 780.642 -1.46575 7.65595 0
M  V30 8337 N 784.871 -1.49948 0.485112 0
M  V30 8338 C 786.117 -2.02695 -0.0651022 0
M  V30 8339 C 786.45 -1.36534 -1.38102 0
M  V30 8340 O 785.725 -0.495677 -1.88078 0
M  V30 8341 C 786.008 -3.59337 -0.234285 0
M  V30 8342 C 785.861 -4.3605 1.10364 0
M  V30 8343 C 787.18 -4.28996 -0.982351 0
M  V30 8344 H 784.299 -0.736666 -0.0221856 0
M  V30 8345 H 786.941 -1.7913 0.633433 0
M  V30 8346 H 785.091 -3.79546 -0.829262 0
M  V30 8347 H 786.763 -4.27377 1.73627 0
M  V30 8348 H 785.006 -3.99236 1.69686 0
M  V30 8349 H 785.677 -5.43959 0.938743 0
M  V30 8350 H 788.153 -4.13346 -0.477904 0
M  V30 8351 H 787.029 -5.38379 -1.06955 0
M  V30 8352 H 787.29 -3.93135 -2.02231 0
M  V30 8353 N 786.349 -0.21828 -1.56081 0
M  V30 8354 C 787.595 0.414921 -1.9851 0
M  V30 8355 C 787.928 1.59648 -1.10573 0
M  V30 8356 O 787.203 1.93818 -0.162695 0
M  V30 8357 C 787.486 0.852647 -3.4986 0
M  V30 8358 C 787.339 -0.33232 -4.48571 0
M  V30 8359 C 788.658 1.70998 -4.05521 0
M  V30 8360 H 785.777 0.149344 -0.72171 0
M  V30 8361 H 788.419 -0.313858 -1.8739 0
M  V30 8362 H 786.569 1.47362 -3.59467 0
M  V30 8363 H 788.241 -0.970418 -4.50977 0
M  V30 8364 H 786.484 -0.980302 -4.22578 0
M  V30 8365 H 787.155 0.0168407 -5.51997 0
M  V30 8366 H 789.631 1.18606 -3.98838 0
M  V30 8367 H 788.507 1.98517 -5.11744 0
M  V30 8368 H 788.768 2.67219 -3.52202 0
M  V30 8369 N 787.827 1.57504 0.0551401 0
M  V30 8370 C 789.073 1.88334 0.752216 0
M  V30 8371 C 789.406 0.812742 1.76375 0
M  V30 8372 O 788.681 -0.175198 1.93709 0
M  V30 8373 C 788.964 3.29824 1.44528 0
M  V30 8374 C 788.817 4.47553 0.449026 0
M  V30 8375 C 790.136 3.69808 2.38601 0
M  V30 8376 H 787.255 0.684973 0.271995 0
M  V30 8377 H 789.897 1.89994 0.0151895 0
M  V30 8378 H 788.047 3.28539 2.07351 0
M  V30 8379 H 789.719 4.60967 -0.175277 0
M  V30 8380 H 787.962 4.33168 -0.234162 0
M  V30 8381 H 788.633 5.43376 0.971917 0
M  V30 8382 H 791.109 3.72293 1.85842 0
M  V30 8383 H 789.985 4.69665 2.84088 0
M  V30 8384 H 790.246 3.00641 3.24141 0
M  V30 8385 N 789.305 -0.326896 1.54172 0
M  V30 8386 C 790.554 -1.06274 1.71431 0
M  V30 8387 C 790.867 -1.89282 0.493123 0
M  V30 8388 O 792.073 -2.65933 0.54699 0
M  V30 8389 C 790.529 -1.93892 3.03206 0
M  V30 8390 C 790.137 -1.16011 4.32719 0
M  V30 8391 C 791.881 -2.67232 3.29829 0
M  V30 8392 C 789.788 -2.02755 5.55558 0
M  V30 8393 H 788.718 -0.400475 0.638855 0
M  V30 8394 H 791.369 -0.321184 1.80667 0
M  V30 8395 H 789.751 -2.71933 2.87869 0
M  V30 8396 H 790.925 -0.427643 4.58811 0
M  V30 8397 H 789.24 -0.54367 4.12836 0
M  V30 8398 H 791.837 -3.32434 4.18798 0
M  V30 8399 H 792.18 -3.34692 2.47562 0
M  V30 8400 H 792.713 -1.96255 3.46018 0
M  V30 8401 H 789.452 -1.3981 6.40417 0
M  V30 8402 H 788.972 -2.73745 5.33689 0
M  V30 8403 H 790.651 -2.61419 5.91835 0
M  V30 8404 N 790.784 -1.46188 -0.588786 0
M  V30 8405 C 792.009 -1.5498 -1.37826 0
M  V30 8406 C 792.434 -0.189498 -1.87143 0
M  V30 8407 O 791.792 0.829293 -1.61222 0
M  V30 8408 C 791.84 -2.55369 -2.54596 0
M  V30 8409 O 790.944 -2.08452 -3.55839 0
M  V30 8410 H 790.285 -0.521741 -0.41071 0
M  V30 8411 H 792.815 -1.91708 -0.714779 0
M  V30 8412 H 792.825 -2.74782 -3.01594 0
M  V30 8413 H 791.5 -3.54155 -2.18052 0
M  V30 8414 H 790.077 -1.98999 -3.15363 0
M  V30 8415 N 792.262 0.832906 -1.33792 0
M  V30 8416 C 793.225 1.92471 -1.24449 0
M  V30 8417 C 794.225 1.59981 -0.162085 0
M  V30 8418 O 795.415 1.69208 -0.414029 0
M  V30 8419 C 792.547 3.28278 -0.919044 0
M  V30 8420 H 793.74 2.0218 -2.21502 0
M  V30 8421 H 791.293 1.0257 -1.17936 0
M  V30 8422 H 792.028 3.24263 0.048738 0
M  V30 8423 H 791.813 3.53241 -1.70187 0
M  V30 8424 H 793.303 4.08253 -0.878576 0
M  V30 8425 N 793.74 1.17359 1.05189 0
M  V30 8426 C 794.989 0.956412 1.77583 0
M  V30 8427 C 795.302 -0.516018 1.88671 0
M  V30 8428 O 796.508 -0.851401 2.57805 0
M  V30 8429 C 794.964 1.66203 3.19225 0
M  V30 8430 C 794.572 3.17299 3.16267 0
M  V30 8431 C 796.316 1.52725 3.96075 0
M  V30 8432 C 794.223 3.8055 4.52698 0
M  V30 8433 H 793.153 0.354204 0.665624 0
M  V30 8434 H 795.804 1.40612 1.17901 0
M  V30 8435 H 794.186 1.14006 3.79234 0
M  V30 8436 H 795.36 3.76431 2.65776 0
M  V30 8437 H 793.675 3.3079 2.52917 0
M  V30 8438 H 796.272 1.97351 4.96947 0
M  V30 8439 H 796.615 0.477803 4.13549 0
M  V30 8440 H 797.148 2.02139 3.42614 0
M  V30 8441 H 793.887 4.85492 4.4043 0
M  V30 8442 H 793.407 3.26206 5.03339 0
M  V30 8443 H 795.086 3.82757 5.21638 0
M  V30 8444 N 795.218 -1.23913 0.973828 0
M  V30 8445 C 796.148 -2.27453 0.527969 0
M  V30 8446 C 797.129 -1.6443 -0.435513 0
M  V30 8447 O 798.314 -1.9137 -0.330306 0
M  V30 8448 C 795.444 -3.4685 -0.176757 0
M  V30 8449 C 794.398 -4.22181 0.703352 0
M  V30 8450 C 793.724 -5.34534 -0.133215 0
M  V30 8451 C 795.024 -4.82865 1.99096 0
M  V30 8452 H 796.718 -2.65 1.3934 0
M  V30 8453 H 794.264 -1.27388 0.671446 0
M  V30 8454 H 796.217 -4.18424 -0.499934 0
M  V30 8455 H 794.941 -3.08346 -1.07659 0
M  V30 8456 H 793.6 -3.52416 1.00989 0
M  V30 8457 H 793.248 -4.92271 -1.03338 0
M  V30 8458 H 792.948 -5.85855 0.452494 0
M  V30 8459 H 794.472 -6.08933 -0.450924 0
M  V30 8460 H 795.886 -5.46481 1.73297 0
M  V30 8461 H 794.283 -5.44444 2.52389 0
M  V30 8462 H 795.353 -4.03977 2.68199 0
M  V30 8463 N 796.696 -0.74468 -1.38897 0
M  V30 8464 C 797.659 -0.11945 -2.28889 0
M  V30 8465 C 798.659 0.656942 -1.46768 0
M  V30 8466 O 799.849 0.484525 -1.67326 0
M  V30 8467 C 796.981 0.839635 -3.30398 0
M  V30 8468 H 798.174 -0.912414 -2.85683 0
M  V30 8469 H 795.727 -0.511119 -1.47707 0
M  V30 8470 H 796.462 1.6586 -2.78677 0
M  V30 8471 H 796.247 0.285432 -3.9106 0
M  V30 8472 H 797.737 1.27337 -3.97712 0
M  V30 8473 N 798.174 1.49689 -0.493057 0
M  V30 8474 C 799.104 2.31826 0.279073 0
M  V30 8475 C 800.085 1.39733 0.969987 0
M  V30 8476 O 801.27 1.68646 0.962925 0
M  V30 8477 C 798.4 3.20046 1.34862 0
M  V30 8478 C 797.354 4.20869 0.77805 0
M  V30 8479 C 796.68 4.97971 1.94753 0
M  V30 8480 C 797.98 5.21813 -0.225543 0
M  V30 8481 H 799.674 2.96627 -0.406512 0
M  V30 8482 H 797.22 1.42647 -0.196943 0
M  V30 8483 H 799.173 3.76315 1.89645 0
M  V30 8484 H 797.897 2.53172 2.06328 0
M  V30 8485 H 796.556 3.65733 0.252036 0
M  V30 8486 H 796.204 4.27552 2.64969 0
M  V30 8487 H 795.904 5.66186 1.57187 0
M  V30 8488 H 797.428 5.57082 2.49984 0
M  V30 8489 H 798.842 5.72823 0.233864 0
M  V30 8490 H 797.239 5.97872 -0.516622 0
M  V30 8491 H 798.309 4.71209 -1.14412 0
M  V30 8492 N 799.652 0.226554 1.55963 0
M  V30 8493 C 800.898 -0.404387 1.98727 0
M  V30 8494 C 801.231 -1.59059 1.11418 0
M  V30 8495 O 800.506 -1.93729 0.172971 0
M  V30 8496 C 800.789 -0.834081 3.50307 0
M  V30 8497 C 800.642 0.356104 4.48388 0
M  V30 8498 C 801.961 -1.68845 4.06423 0
M  V30 8499 H 799.08 -0.145515 0.722492 0
M  V30 8500 H 801.722 0.323791 1.87221 0
M  V30 8501 H 799.872 -1.45454 3.60244 0
M  V30 8502 H 801.544 0.99432 4.50456 0
M  V30 8503 H 799.787 1.0027 4.22053 0
M  V30 8504 H 800.458 0.0124333 5.51999 0
M  V30 8505 H 802.934 -1.16489 3.99461 0
M  V30 8506 H 801.81 -1.958 5.1279 0
M  V30 8507 H 802.071 -2.65347 3.53615 0
M  V30 8508 N 801.13 -1.57531 -0.0467866 0
M  V30 8509 C 802.376 -1.8873 -0.742218 0
M  V30 8510 C 802.709 -0.822084 -1.75941 0
M  V30 8511 O 801.984 0.164922 -1.938 0
M  V30 8512 C 802.267 -3.30586 -1.42776 0
M  V30 8513 C 802.12 -4.47785 -0.425285 0
M  V30 8514 C 803.439 -3.71068 -2.36636 0
M  V30 8515 H 800.558 -0.686406 -0.268359 0
M  V30 8516 H 803.2 -1.89999 -0.00511341 0
M  V30 8517 H 801.35 -3.29634 -2.05605 0
M  V30 8518 H 803.022 -4.60867 0.199721 0
M  V30 8519 H 801.265 -4.33037 0.25713 0
M  V30 8520 H 801.936 -5.43884 -0.943086 0
M  V30 8521 H 804.412 -3.73273 -1.83866 0
M  V30 8522 H 803.288 -4.71165 -2.81593 0
M  V30 8523 H 803.549 -3.02355 -3.22542 0
M  V30 8524 N 802.608 0.318715 -1.54344 0
M  V30 8525 C 803.538 1.39751 -1.87061 0
M  V30 8526 C 804.519 1.53741 -0.727848 0
M  V30 8527 O 805.704 1.67541 -0.982016 0
M  V30 8528 C 802.834 2.76446 -2.10226 0
M  V30 8529 C 801.788 2.77239 -3.26071 0
M  V30 8530 C 801.114 4.17056 -3.34617 0
M  V30 8531 C 802.414 2.40555 -4.63606 0
M  V30 8532 H 804.108 1.12619 -2.77412 0
M  V30 8533 H 801.654 0.540318 -1.33479 0
M  V30 8534 H 803.607 3.51985 -2.31699 0
M  V30 8535 H 802.331 3.05066 -1.16629 0
M  V30 8536 H 800.99 2.04155 -3.04493 0
M  V30 8537 H 800.638 4.42824 -2.3857 0
M  V30 8538 H 800.338 4.18492 -4.12478 0
M  V30 8539 H 801.862 4.94401 -3.5833 0
M  V30 8540 H 803.276 3.05808 -4.84927 0
M  V30 8541 H 801.673 2.53234 -5.44052 0
M  V30 8542 H 802.743 1.35698 -4.65526 0
M  V30 8543 N 804.086 1.46499 0.581025 0
M  V30 8544 C 805.314 1.5547 1.36517 0
M  V30 8545 C 805.729 0.196407 1.87776 0
M  V30 8546 O 805.086 -0.806577 1.63709 0
M  V30 8547 C 805.137 2.56084 2.55154 0
M  V30 8548 O 804.858 3.86637 2.06018 0
M  V30 8549 C 806.359 2.75011 3.47683 0
M  V30 8550 H 803.579 0.525703 0.416986 0
M  V30 8551 H 806.123 1.9192 0.706177 0
M  V30 8552 H 804.278 2.22633 3.17039 0
M  V30 8553 H 804.692 4.41413 2.83292 0
M  V30 8554 H 806.166 3.49329 4.27403 0
M  V30 8555 H 806.643 1.81978 3.99726 0
M  V30 8556 H 807.249 3.09565 2.91632 0
M  V30 8557 N 805.565 -0.825799 1.34232 0
M  V30 8558 C 806.814 -1.57686 1.2577 0
M  V30 8559 C 807.127 -1.94848 -0.171372 0
M  V30 8560 O 808.333 -2.68854 -0.378123 0
M  V30 8561 C 806.789 -2.84478 2.20454 0
M  V30 8562 C 806.397 -2.54629 3.68603 0
M  V30 8563 C 808.141 -3.625 2.20893 0
M  V30 8564 C 806.048 -3.77597 4.55164 0
M  V30 8565 H 804.978 -0.591809 0.467203 0
M  V30 8566 H 807.629 -0.909421 1.59379 0
M  V30 8567 H 806.011 -3.52832 1.79793 0
M  V30 8568 H 807.185 -1.94404 4.17784 0
M  V30 8569 H 805.5 -1.89888 3.70582 0
M  V30 8570 H 808.097 -4.538 2.82789 0
M  V30 8571 H 808.44 -3.98404 1.20746 0
M  V30 8572 H 808.973 -3.01086 2.59985 0
M  V30 8573 H 805.712 -3.46815 5.56237 0
M  V30 8574 H 805.232 -4.37116 4.10719 0
M  V30 8575 H 806.911 -4.45039 4.69627 0
M  V30 8576 N 807.043 -1.17915 -1.04565 0
M  V30 8577 C 808.292 -0.965816 -1.77073 0
M  V30 8578 C 808.605 0.506005 -1.88942 0
M  V30 8579 O 809.811 0.837717 -2.58253 0
M  V30 8580 C 808.267 -1.67894 -3.18339 0
M  V30 8581 C 807.875 -3.18972 -3.1458 0
M  V30 8582 C 809.619 -1.54823 -3.9526 0
M  V30 8583 C 807.526 -3.82946 -4.50674 0
M  V30 8584 H 806.456 -0.357729 -0.663736 0
M  V30 8585 H 809.107 -1.41235 -1.17153 0
M  V30 8586 H 807.489 -1.16016 -3.78624 0
M  V30 8587 H 808.663 -3.77835 -2.63776 0
M  V30 8588 H 806.978 -3.32127 -2.51159 0
M  V30 8589 H 809.575 -1.99984 -4.95894 0
M  V30 8590 H 809.918 -0.499727 -4.1329 0
M  V30 8591 H 810.451 -2.03953 -3.41538 0
M  V30 8592 H 807.19 -4.8782 -4.37849 0
M  V30 8593 H 806.71 -3.2887 -5.01602 0
M  V30 8594 H 808.389 -3.85518 -5.196 0
M  V30 8595 N 808.521 1.23394 -0.980386 0
M  V30 8596 C 809.746 1.96384 -0.666935 0
M  V30 8597 C 810.171 1.72087 0.759456 0
M  V30 8598 O 809.529 0.992328 1.51732 0
M  V30 8599 C 809.577 3.47499 -0.963177 0
M  V30 8600 O 808.681 4.12363 -0.0552051 0
M  V30 8601 H 808.022 0.614797 -0.250839 0
M  V30 8602 H 810.552 1.56831 -1.31398 0
M  V30 8603 H 810.562 3.97953 -0.899877 0
M  V30 8604 H 809.237 3.6451 -2.00264 0
M  V30 8605 H 807.814 3.72499 -0.172914 0
M  V30 8606 N 809.999 0.752036 1.385 0
M  V30 8607 C 810.929 0.138718 2.33088 0
M  V30 8608 C 811.91 -0.705318 1.54788 0
M  V30 8609 O 813.095 -0.646821 1.83112 0
M  V30 8610 C 810.225 -0.75641 3.38963 0
M  V30 8611 C 809.179 -0.0152239 4.27997 0
M  V30 8612 C 808.505 -1.0285 5.24715 0
M  V30 8613 C 809.805 1.15226 5.09431 0
M  V30 8614 H 811.499 0.928852 2.84627 0
M  V30 8615 H 809.045 0.448111 1.3685 0
M  V30 8616 H 810.998 -1.19513 4.04097 0
M  V30 8617 H 809.722 -1.57885 2.85902 0
M  V30 8618 H 808.381 0.404061 3.64366 0
M  V30 8619 H 808.029 -1.84496 4.67943 0
M  V30 8620 H 807.729 -0.537238 5.85139 0
M  V30 8621 H 809.253 -1.46657 5.92726 0
M  V30 8622 H 810.667 0.791161 5.67815 0
M  V30 8623 H 809.064 1.57428 5.79082 0
M  V30 8624 H 810.134 1.9659 4.43261 0
M  V30 8625 N 811.477 -1.49425 0.500989 0
M  V30 8626 C 812.726 -2.01649 -0.04538 0
M  V30 8627 C 813.039 -1.38572 -1.38047 0
M  V30 8628 O 814.245 -1.82124 -2.01353 0
M  V30 8629 C 812.701 -3.5966 -0.131337 0
M  V30 8630 C 812.309 -4.3171 1.19711 0
M  V30 8631 C 814.053 -4.19828 -0.628071 0
M  V30 8632 C 811.96 -5.81579 1.07332 0
M  V30 8633 H 810.89 -0.753715 -0.0207329 0
M  V30 8634 H 813.541 -1.71962 0.640407 0
M  V30 8635 H 811.923 -3.86063 -0.881574 0
M  V30 8636 H 813.097 -4.17008 1.96064 0
M  V30 8637 H 811.412 -3.83286 1.62729 0
M  V30 8638 H 814.009 -5.2958 -0.738198 0
M  V30 8639 H 814.352 -3.83194 -1.6269 0
M  V30 8640 H 814.885 -3.97746 0.0656314 0
M  V30 8641 H 811.624 -6.22738 2.04642 0
M  V30 8642 H 811.144 -5.98774 0.350679 0
M  V30 8643 H 812.823 -6.42614 0.752047 0
M  V30 8644 N 812.955 -0.234822 -1.55841 0
M  V30 8645 C 814.204 0.393685 -1.97821 0
M  V30 8646 C 814.517 1.59947 -1.1259 0
M  V30 8647 O 815.723 2.29835 -1.44528 0
M  V30 8648 C 814.179 0.751811 -3.5196 0
M  V30 8649 C 813.787 -0.431898 -4.45913 0
M  V30 8650 C 815.531 1.34518 -4.02623 0
M  V30 8651 C 813.438 -0.0505976 -5.91378 0
M  V30 8652 H 812.368 0.150864 -0.738753 0
M  V30 8653 H 815.019 -0.333132 -1.80451 0
M  V30 8654 H 813.401 1.53642 -3.6498 0
M  V30 8655 H 814.575 -1.20935 -4.44647 0
M  V30 8656 H 812.89 -0.939385 -4.05666 0
M  V30 8657 H 815.487 1.64359 -5.08813 0
M  V30 8658 H 815.83 2.26554 -3.49255 0
M  V30 8659 H 816.363 0.623729 -3.9288 0
M  V30 8660 H 813.102 -0.937779 -6.48757 0
M  V30 8661 H 812.622 0.690898 -5.95808 0
M  V30 8662 H 814.301 0.37146 -6.45933 0
M  V30 8663 N 814.433 1.57553 0.0384317 0
M  V30 8664 C 815.363 2.0898 1.04161 0
M  V30 8665 C 816.344 0.99029 1.38301 0
M  V30 8666 O 817.529 1.26499 1.47349 0
M  V30 8667 C 814.659 2.56145 2.34536 0
M  V30 8668 C 813.613 3.70275 2.14663 0
M  V30 8669 C 812.939 4.03612 3.50715 0
M  V30 8670 C 814.239 4.99067 1.54045 0
M  V30 8671 H 815.933 2.93046 0.613548 0
M  V30 8672 H 813.479 1.40973 0.293684 0
M  V30 8673 H 815.432 2.90741 3.05037 0
M  V30 8674 H 814.156 1.6915 2.79385 0
M  V30 8675 H 812.815 3.36013 1.46597 0
M  V30 8676 H 812.463 3.13698 3.93195 0
M  V30 8677 H 812.163 4.80482 3.38247 0
M  V30 8678 H 813.687 4.40735 4.22593 0
M  V30 8679 H 815.101 5.3168 2.14451 0
M  V30 8680 H 813.498 5.80484 1.52178 0
M  V30 8681 H 814.568 4.8226 0.505259 0
M  V30 8682 N 815.911 -0.310526 1.54511 0
M  V30 8683 C 817.16 -1.0445 1.72549 0
M  V30 8684 C 817.473 -1.88748 0.513172 0
M  V30 8685 O 818.679 -2.65338 0.575165 0
M  V30 8686 C 817.135 -1.90665 3.05246 0
M  V30 8687 C 816.743 -1.11415 4.33925 0
M  V30 8688 C 818.487 -2.63719 3.32645 0
M  V30 8689 C 816.394 -1.96852 5.57677 0
M  V30 8690 H 815.324 -0.393676 0.643067 0
M  V30 8691 H 817.975 -0.302003 1.80998 0
M  V30 8692 H 816.357 -2.68864 2.90737 0
M  V30 8693 H 817.531 -0.378956 4.59239 0
M  V30 8694 H 815.846 -0.499853 4.13389 0
M  V30 8695 H 818.443 -3.27974 4.223 0
M  V30 8696 H 818.786 -3.32047 2.51098 0
M  V30 8697 H 819.319 -1.92574 3.48081 0
M  V30 8698 H 816.058 -1.33009 6.41864 0
M  V30 8699 H 815.578 -2.68069 5.36562 0
M  V30 8700 H 817.257 -2.55127 5.94575 0
M  V30 8701 N 817.389 -1.46805 -0.573248 0
M  V30 8702 C 818.322 -1.52608 -1.69665 0
M  V30 8703 C 819.3 -0.379426 -1.58111 0
M  V30 8704 O 820.484 -0.584938 -1.79195 0
M  V30 8705 C 817.611 -1.41355 -3.07793 0
M  V30 8706 C 816.657 -2.60321 -3.37839 0
M  V30 8707 S 817.49 -4.22622 -3.28863 0
M  V30 8708 C 818.646 -4.13894 -4.69513 0
M  V30 8709 H 818.879 -2.47653 -1.64485 0
M  V30 8710 H 816.412 -1.34806 -0.752769 0
M  V30 8711 H 818.37 -1.35549 -3.87475 0
M  V30 8712 H 817.031 -0.477213 -3.10454 0
M  V30 8713 H 816.224 -2.48466 -4.38498 0
M  V30 8714 H 815.826 -2.63165 -2.65745 0
M  V30 8715 H 818.118 -3.81158 -5.60111 0
M  V30 8716 H 819.061 -5.14584 -4.86425 0
M  V30 8717 H 819.469 -3.44998 -4.46807 0
M  V30 8718 N 818.867 0.818669 -1.34668 0
M  V30 8719 C 819.797 1.94468 -1.29245 0
M  V30 8720 C 820.778 1.69257 -0.169101 0
M  V30 8721 O 821.963 1.90794 -0.362143 0
M  V30 8722 C 819.093 3.31001 -1.05145 0
M  V30 8723 C 818.047 3.70663 -2.13992 0
M  V30 8724 C 817.373 5.05226 -1.75074 0
M  V30 8725 C 818.673 3.82312 -3.55858 0
M  V30 8726 H 820.367 1.99263 -2.2346 0
M  V30 8727 H 817.913 0.957304 -1.07572 0
M  V30 8728 H 819.866 4.09364 -0.999949 0
M  V30 8729 H 818.59 3.26517 -0.0737312 0
M  V30 8730 H 817.249 2.94578 -2.18219 0
M  V30 8731 H 816.897 4.97233 -0.759518 0
M  V30 8732 H 816.597 5.32734 -2.47928 0
M  V30 8733 H 818.121 5.86042 -1.71427 0
M  V30 8734 H 819.535 4.50935 -3.5402 0
M  V30 8735 H 817.932 4.21278 -4.2737 0
M  V30 8736 H 819.002 2.84193 -3.9289 0
M  V30 8737 N 820.346 1.18468 1.03938 0
M  V30 8738 C 821.592 0.992302 1.77553 0
M  V30 8739 C 821.947 -0.472959 1.86496 0
M  V30 8740 O 821.24 -1.34662 1.36296 0
M  V30 8741 C 821.434 1.58229 3.20466 0
M  V30 8742 C 821.263 3.1034 3.25452 0
M  V30 8743 C 820.033 3.79166 3.34008 0
M  V30 8744 C 822.231 4.07814 3.13357 0
M  V30 8745 N 820.213 5.18768 3.28258 0
M  V30 8746 C 821.584 5.33946 3.15121 0
M  V30 8747 C 823.639 3.99315 2.97409 0
M  V30 8748 C 822.342 6.52565 3.02574 0
M  V30 8749 C 824.368 5.17532 2.86208 0
M  V30 8750 C 823.73 6.42557 2.88617 0
M  V30 8751 H 819.829 0.417131 0.661457 0
M  V30 8752 H 822.413 1.50265 1.23808 0
M  V30 8753 H 820.584 1.0981 3.72554 0
M  V30 8754 H 822.316 1.32531 3.82384 0
M  V30 8755 H 819.071 3.29905 3.39794 0
M  V30 8756 H 819.495 5.91783 3.28818 0
M  V30 8757 H 824.137 3.03485 2.94375 0
M  V30 8758 H 821.855 7.48592 3.0436 0
M  V30 8759 H 825.441 5.12748 2.7492 0
M  V30 8760 H 824.321 7.32494 2.80039 0
M  V30 8761 N 821.824 -1.22873 0.986916 0
M  V30 8762 C 822.756 -2.23889 0.490537 0
M  V30 8763 C 823.769 -1.57523 -0.411144 0
M  V30 8764 O 824.958 -1.7721 -0.214236 0
M  V30 8765 C 822.058 -3.37488 -0.30902 0
M  V30 8766 C 821.231 -4.33438 0.587354 0
M  V30 8767 C 820.29 -5.25958 -0.159467 0
M  V30 8768 O 819.316 -5.67394 0.453115 0
M  V30 8769 N 820.518 -5.62265 -1.44355 0
M  V30 8770 H 823.283 -2.67109 1.35914 0
M  V30 8771 H 820.844 -1.37111 0.860937 0
M  V30 8772 H 822.836 -3.96365 -0.817139 0
M  V30 8773 H 821.406 -2.934 -1.07868 0
M  V30 8774 H 820.626 -3.72969 1.27622 0
M  V30 8775 H 821.914 -4.94495 1.19801 0
M  V30 8776 H 821.312 -5.30562 -1.96266 0
M  V30 8777 H 819.869 -6.23585 -1.89698 0
M  V30 8778 N 823.302 -0.75937 -1.38099 0
M  V30 8779 C 824.249 -0.135508 -2.30402 0
M  V30 8780 C 825.219 0.703356 -1.50473 0
M  V30 8781 O 826.404 0.658287 -1.79084 0
M  V30 8782 C 823.544 0.747228 -3.36913 0
M  V30 8783 C 822.657 -0.106893 -4.31868 0
M  V30 8784 C 821.792 0.779388 -5.25451 0
M  V30 8785 C 820.831 -0.0780179 -6.1205 0
M  V30 8786 N 819.968 0.765545 -6.97914 0
M  V30 8787 H 824.808 -0.9282 -2.83176 0
M  V30 8788 H 822.345 -0.46935 -1.39411 0
M  V30 8789 H 824.303 1.27371 -3.97281 0
M  V30 8790 H 822.933 1.50565 -2.85535 0
M  V30 8791 H 821.985 -0.751063 -3.72912 0
M  V30 8792 H 823.297 -0.768798 -4.9284 0
M  V30 8793 H 822.451 1.37282 -5.90964 0
M  V30 8794 H 821.19 1.47501 -4.6486 0
M  V30 8795 H 820.195 -0.684078 -5.45528 0
M  V30 8796 H 821.42 -0.770786 -6.74712 0
M  V30 8797 H 819.366 1.44601 -6.39864 0
M  V30 8798 H 819.283 0.160666 -7.55829 0
M  V30 8799 H 820.551 1.34377 -7.6783 0
M  V30 8800 N 824.78 1.49157 -0.508906 0
M  V30 8801 C 825.727 2.2927 0.265288 0
M  V30 8802 C 826.697 1.3603 0.953162 0
M  V30 8803 O 827.882 1.64989 0.958291 0
M  V30 8804 C 825.022 3.18897 1.31904 0
M  V30 8805 C 824.135 4.27201 0.642144 0
M  V30 8806 C 823.27 5.04033 1.67701 0
M  V30 8807 C 822.309 6.04165 0.982422 0
M  V30 8808 N 821.446 6.74133 1.96186 0
M  V30 8809 H 826.286 2.94967 -0.424107 0
M  V30 8810 H 823.823 1.45431 -0.220991 0
M  V30 8811 H 825.781 3.69242 1.94206 0
M  V30 8812 H 824.411 2.55168 1.97709 0
M  V30 8813 H 823.463 3.80283 -0.0943395 0
M  V30 8814 H 824.775 4.98708 0.0957507 0
M  V30 8815 H 823.929 5.58287 2.37487 0
M  V30 8816 H 822.668 4.32317 2.25728 0
M  V30 8817 H 821.673 5.49135 0.270378 0
M  V30 8818 H 822.898 6.7787 0.408554 0
M  V30 8819 H 820.844 6.05183 2.53159 0
M  V30 8820 H 820.761 7.41643 1.46634 0
M  V30 8821 H 822.029 7.32987 2.65236 0
M  V30 8822 N 826.258 0.243083 1.55714 0
M  V30 8823 C 827.669 -0.260788 1.8487 0
M  V30 8824 C 828.02 -1.57879 1.16485 0
M  V30 8825 O 827.145 -2.1184 0.441908 0
M  V30 8826 C 827.74 -0.479954 3.35383 0
M  V30 8827 C 826.299 -0.928096 3.64778 0
M  V30 8828 C 825.446 -0.00316416 2.773 0
M  V30 8829 H 828.397 0.465743 1.51712 0
M  V30 8830 H 828.418 -1.32308 3.56756 0
M  V30 8831 H 827.93 0.479468 3.85127 0
M  V30 8832 H 826.031 -1.90012 3.20509 0
M  V30 8833 H 826.144 -0.7876 4.72582 0
M  V30 8834 H 824.508 -0.513849 2.49463 0
M  V30 8835 H 825.291 0.951562 3.29849 0
M  V30 8836 N 827.736 -1.57571 -0.0300757 0
M  V30 8837 C 829.152 -1.54869 -0.385703 0
M  V30 8838 C 829.352 -0.969068 -1.76667 0
M  V30 8839 O 828.408 -0.589676 -2.45518 0
M  V30 8840 C 829.721 -2.99313 -0.288482 0
M  V30 8841 C 831.269 -3.10857 -0.365638 0
M  V30 8842 C 831.744 -4.5703 -0.297878 0
M  V30 8843 N 833.235 -4.61825 -0.356703 0
M  V30 8844 C 833.97 -5.72466 -0.327146 0
M  V30 8845 N 833.466 -6.92349 -0.249941 0
M  V30 8846 N 835.259 -5.60836 -0.376801 0
M  V30 8847 H 827.41 -1.936 0.87367 0
M  V30 8848 H 829.673 -0.887924 0.332106 0
M  V30 8849 H 829.379 -3.45443 0.66047 0
M  V30 8850 H 829.253 -3.61332 -1.08253 0
M  V30 8851 H 831.64 -2.64676 -1.30502 0
M  V30 8852 H 831.721 -2.51671 0.457744 0
M  V30 8853 H 831.365 -5.03879 0.637835 0
M  V30 8854 H 831.295 -5.14127 -1.13935 0
M  V30 8855 H 833.786 -3.75571 -0.418926 0
M  V30 8856 H 834.099 -7.7245 -0.23246 0
M  V30 8857 H 832.444 -6.94664 -0.216004 0
M  V30 8858 H 835.635 -4.66073 -0.435101 0
M  V30 8859 H 835.808 -6.47052 -0.350298 0
M  V30 8860 N 829.214 0.302327 -1.54673 0
M  V30 8861 C 830.444 1.05516 -1.77623 0
M  V30 8862 C 830.852 1.81474 -0.535159 0
M  V30 8863 O 830.195 1.76635 0.504543 0
M  V30 8864 C 830.257 2.08305 -2.93001 0
M  V30 8865 C 829.921 1.51554 -4.31139 0
M  V30 8866 C 830.918 0.946261 -5.11216 0
M  V30 8867 C 828.603 1.55157 -4.77736 0
M  V30 8868 C 830.597 0.420559 -6.36011 0
M  V30 8869 C 828.284 1.022 -6.02494 0
M  V30 8870 C 829.282 0.457461 -6.81466 0
M  V30 8871 O 828.97 -0.064083 -8.03874 0
M  V30 8872 H 828.702 0.318756 -0.59613 0
M  V30 8873 H 831.256 0.347558 -2.02438 0
M  V30 8874 H 829.486 2.82742 -2.63807 0
M  V30 8875 H 831.175 2.69479 -3.03539 0
M  V30 8876 H 831.941 0.911338 -4.76361 0
M  V30 8877 H 827.82 1.98037 -4.16296 0
M  V30 8878 H 831.364 -0.0207298 -6.97597 0
M  V30 8879 H 827.261 1.05406 -6.36836 0
M  V30 8880 H 828.029 0.0493422 -8.18485 0
M  V30 8881 N 830.692 1.47107 0.565454 0
M  V30 8882 C 831.602 1.61591 1.70075 0
M  V30 8883 C 832.618 0.498931 1.66693 0
M  V30 8884 O 833.794 0.765372 1.8629 0
M  V30 8885 C 830.859 1.61887 3.06583 0
M  V30 8886 C 829.92 2.84949 3.21096 0
M  V30 8887 C 829.153 2.85221 4.51093 0
M  V30 8888 O 829.376 1.94959 5.36048 0
M  V30 8889 O 828.31 3.76982 4.69221 0
M  V30 8890 H 832.136 2.57638 1.60799 0
M  V30 8891 H 829.721 1.30097 0.73451 0
M  V30 8892 H 831.603 1.64809 3.87835 0
M  V30 8893 H 830.278 0.69005 3.16259 0
M  V30 8894 H 829.185 2.87575 2.39273 0
M  V30 8895 H 830.518 3.77098 3.1632 0
M  V30 8896 N 832.17 -0.811516 1.35101 0
M  V30 8897 C 833.419 -1.56343 1.27435 0
M  V30 8898 C 833.732 -1.95019 -0.150696 0
M  V30 8899 O 834.938 -2.6924 -0.349586 0
M  V30 8900 C 833.394 -2.82124 2.23459 0
M  V30 8901 C 833.002 -2.50706 3.71283 0
M  V30 8902 C 834.746 -3.60137 2.24726 0
M  V30 8903 C 832.653 -3.72748 4.59143 0
M  V30 8904 H 831.583 -0.58682 0.473453 0
M  V30 8905 H 834.234 -0.892465 1.60335 0
M  V30 8906 H 832.616 -3.50905 1.83525 0
M  V30 8907 H 833.79 -1.89962 4.19823 0
M  V30 8908 H 832.105 -1.85947 3.72576 0
M  V30 8909 H 834.702 -4.50775 2.87587 0
M  V30 8910 H 835.045 -3.97101 1.24965 0
M  V30 8911 H 835.578 -2.98311 2.63164 0
M  V30 8912 H 832.317 -3.40896 5.59884 0
M  V30 8913 H 831.837 -4.32735 4.15332 0
M  V30 8914 H 833.516 -4.40033 4.74321 0
M  V30 8915 N 833.648 -1.19017 -1.03309 0
M  V30 8916 C 835.064 -0.941483 -1.28873 0
M  V30 8917 C 835.264 0.388587 -1.97718 0
M  V30 8918 O 834.32 1.12111 -2.26246 0
M  V30 8919 C 835.633 -2.11249 -2.13996 0
M  V30 8920 C 837.181 -2.15164 -2.27318 0
M  V30 8921 C 837.656 -3.31704 -3.15811 0
M  V30 8922 N 839.147 -3.31613 -3.23399 0
M  V30 8923 C 839.882 -4.18431 -3.9205 0
M  V30 8924 N 839.378 -5.15397 -4.62966 0
M  V30 8925 N 841.171 -4.06321 -3.88406 0
M  V30 8926 H 833.322 -2.04599 -0.570343 0
M  V30 8927 H 835.585 -0.894406 -0.314232 0
M  V30 8928 H 835.291 -3.07482 -1.70727 0
M  V30 8929 H 835.165 -2.07955 -3.14697 0
M  V30 8930 H 837.552 -1.19504 -2.6982 0
M  V30 8931 H 837.633 -2.22513 -1.26182 0
M  V30 8932 H 837.277 -4.2764 -2.74019 0
M  V30 8933 H 837.207 -3.21592 -4.16997 0
M  V30 8934 H 839.698 -2.6142 -2.72888 0
M  V30 8935 H 840.011 -5.78 -5.12968 0
M  V30 8936 H 838.356 -5.19349 -4.61846 0
M  V30 8937 H 841.547 -3.29849 -3.3214 0
M  V30 8938 H 841.72 -4.74196 -4.41635 0
M  V30 8939 N 835.127 1.22348 -0.993418 0
M  V30 8940 C 836.373 1.91689 -0.680217 0
M  V30 8941 C 836.728 1.75912 0.779269 0
M  V30 8942 O 836.021 1.11761 1.55628 0
M  V30 8943 C 836.215 3.42477 -1.02197 0
M  V30 8944 C 836.044 3.72923 -2.51313 0
M  V30 8945 C 834.814 3.9291 -3.17726 0
M  V30 8946 C 837.012 3.7736 -3.49434 0
M  V30 8947 N 834.994 4.10672 -4.56313 0
M  V30 8948 C 836.365 4.00269 -4.73481 0
M  V30 8949 C 838.42 3.60211 -3.43733 0
M  V30 8950 C 837.123 4.0781 -5.92523 0
M  V30 8951 C 839.149 3.69011 -4.62152 0
M  V30 8952 C 838.511 3.92371 -5.85 0
M  V30 8953 H 834.61 0.722086 -0.300193 0
M  V30 8954 H 837.194 1.47273 -1.27353 0
M  V30 8955 H 835.365 3.85699 -0.457223 0
M  V30 8956 H 837.097 3.99204 -0.664702 0
M  V30 8957 H 833.852 3.90345 -2.68193 0
M  V30 8958 H 834.276 4.2348 -5.28199 0
M  V30 8959 H 838.918 3.41137 -2.49771 0
M  V30 8960 H 836.636 4.25688 -6.86888 0
M  V30 8961 H 840.222 3.5708 -4.59331 0
M  V30 8962 H 839.102 3.9901 -6.75101 0
M  V30 8963 N 836.605 0.766683 1.37694 0
M  V30 8964 C 837.552 0.147725 2.30327 0
M  V30 8965 C 838.522 -0.695366 1.50844 0
M  V30 8966 O 839.707 -0.64878 1.79431 0
M  V30 8967 C 836.847 -0.72935 3.37305 0
M  V30 8968 C 835.96 0.129795 4.31805 0
M  V30 8969 C 835.095 -0.751511 5.25857 0
M  V30 8970 C 834.134 0.110475 6.12 0
M  V30 8971 N 833.271 -0.728522 6.9831 0
M  V30 8972 H 838.111 0.943204 2.82679 0
M  V30 8973 H 835.648 0.476736 1.3916 0
M  V30 8974 H 837.606 -1.25263 3.97951 0
M  V30 8975 H 836.236 -1.49048 2.86329 0
M  V30 8976 H 835.288 0.770829 3.72508 0
M  V30 8977 H 836.6 0.794923 4.92425 0
M  V30 8978 H 835.754 -1.34146 5.91684 0
M  V30 8979 H 834.493 -1.45034 4.65636 0
M  V30 8980 H 833.498 0.712999 5.45157 0
M  V30 8981 H 834.723 0.806557 6.74293 0
M  V30 8982 H 832.669 -1.41206 6.40622 0
M  V30 8983 H 832.586 -0.12058 7.55904 0
M  V30 8984 H 833.854 -1.30303 7.68532 0
M  V30 8985 N 838.083 -1.48885 0.516809 0
M  V30 8986 C 839.329 -2.02788 -0.0220928 0
M  V30 8987 C 839.662 -1.39433 -1.35175 0
M  V30 8988 O 838.937 -0.535459 -1.86984 0
M  V30 8989 C 839.22 -3.59753 -0.158012 0
M  V30 8990 C 839.073 -4.33611 1.19588 0
M  V30 8991 C 840.392 -4.30984 -0.891133 0
M  V30 8992 H 837.511 -0.736971 -0.00655488 0
M  V30 8993 H 840.153 -1.77746 0.671287 0
M  V30 8994 H 838.303 -3.8122 -0.748568 0
M  V30 8995 H 839.975 -4.23598 1.82653 0
M  V30 8996 H 838.218 -3.95547 1.78116 0
M  V30 8997 H 838.889 -5.41846 1.05391 0
M  V30 8998 H 841.365 -4.14267 -0.39012 0
M  V30 8999 H 840.241 -5.40527 -0.955107 0
M  V30 9000 H 840.502 -3.97336 -1.93847 0
M  V30 9001 N 839.561 -0.251338 -1.55583 0
M  V30 9002 C 840.81 0.372681 -1.98227 0
M  V30 9003 C 841.123 1.58743 -1.1428 0
M  V30 9004 O 842.329 2.28289 -1.46957 0
M  V30 9005 C 840.785 0.714439 -3.52738 0
M  V30 9006 C 840.393 -0.479168 -4.4543 0
M  V30 9007 C 842.137 1.3024 -4.04027 0
M  V30 9008 C 840.044 -0.113318 -5.91291 0
M  V30 9009 H 838.974 0.14302 -0.740312 0
M  V30 9010 H 841.625 -0.352253 -1.80087 0
M  V30 9011 H 840.007 1.49762 -3.66589 0
M  V30 9012 H 841.181 -1.25644 -4.4334 0
M  V30 9013 H 839.496 -0.982359 -4.04646 0
M  V30 9014 H 842.093 1.58953 -5.10527 0
M  V30 9015 H 842.436 2.22837 -3.51638 0
M  V30 9016 H 842.969 0.582024 -3.93519 0
M  V30 9017 H 839.708 -1.00654 -6.47726 0
M  V30 9018 H 839.228 0.627666 -5.96507 0
M  V30 9019 H 840.907 0.30293 -6.4629 0
M  V30 9020 N 841.039 1.57585 0.0217189 0
M  V30 9021 C 841.949 2.10444 1.03684 0
M  V30 9022 C 842.965 1.04472 1.39146 0
M  V30 9023 O 844.141 1.36249 1.48317 0
M  V30 9024 C 841.206 2.5794 2.31664 0
M  V30 9025 C 840.267 3.78425 2.02714 0
M  V30 9026 C 839.5 4.23646 3.24592 0
M  V30 9027 O 839.723 3.6834 4.35525 0
M  V30 9028 O 838.657 5.16013 3.09862 0
M  V30 9029 H 842.483 2.97354 0.617584 0
M  V30 9030 H 840.068 1.47473 0.239174 0
M  V30 9031 H 841.95 2.88785 3.06889 0
M  V30 9032 H 840.625 1.74138 2.7287 0
M  V30 9033 H 839.532 3.52587 1.25033 0
M  V30 9034 H 840.865 4.63234 1.66359 0
M  V30 9035 N 842.517 -0.29412 1.54831 0
M  V30 9036 C 843.742 -1.05156 1.78765 0
M  V30 9037 C 844.167 -1.79916 0.548809 0
M  V30 9038 O 843.525 -1.74243 -0.500909 0
M  V30 9039 C 843.573 -2.00242 2.99893 0
M  V30 9040 O 842.677 -3.08662 2.73499 0
M  V30 9041 H 842.018 -0.301737 0.591482 0
M  V30 9042 H 844.548 -0.329449 2.0193 0
M  V30 9043 H 844.558 -2.42583 3.28051 0
M  V30 9044 H 843.233 -1.45235 3.89717 0
M  V30 9045 H 841.81 -2.70786 2.56377 0
M  V30 9046 N 843.995 -1.47404 -0.557645 0
M  V30 9047 C 845.241 -1.54235 -1.31679 0
M  V30 9048 C 845.574 -0.203782 -1.93128 0
M  V30 9049 O 844.849 0.787536 -1.77843 0
M  V30 9050 C 845.132 -2.66003 -2.42723 0
M  V30 9051 C 844.985 -4.09475 -1.86145 0
M  V30 9052 C 846.304 -2.73685 -3.44652 0
M  V30 9053 H 843.423 -0.561466 -0.477415 0
M  V30 9054 H 846.065 -1.79459 -0.624067 0
M  V30 9055 H 844.215 -2.44627 -3.01811 0
M  V30 9056 H 845.887 -4.42213 -1.31321 0
M  V30 9057 H 844.13 -4.17774 -1.16823 0
M  V30 9058 H 844.801 -4.83451 -2.66418 0
M  V30 9059 H 847.277 -2.92968 -2.95481 0
M  V30 9060 H 846.153 -3.53665 -4.19777 0
M  V30 9061 H 846.414 -1.80726 -4.03473 0
M  V30 9062 N 845.473 0.80434 -1.35529 0
M  V30 9063 C 846.698 1.598 -1.32207 0
M  V30 9064 C 847.123 1.87848 0.0974226 0
M  V30 9065 O 846.481 1.46728 1.06492 0
M  V30 9066 C 846.529 2.90483 -2.13663 0
M  V30 9067 O 845.633 3.83411 -1.51888 0
M  V30 9068 H 844.974 0.485305 -0.453183 0
M  V30 9069 H 847.504 0.998119 -1.78602 0
M  V30 9070 H 847.514 3.39888 -2.257 0
M  V30 9071 H 846.189 2.69395 -3.16859 0
M  V30 9072 H 844.766 3.41967 -1.48704 0
M  V30 9073 N 846.951 1.19563 1.02676 0
M  V30 9074 C 848.176 1.02556 1.80269 0
M  V30 9075 C 848.601 -0.421056 1.83327 0
M  V30 9076 O 847.959 -1.30279 1.26084 0
M  V30 9077 C 848.007 1.60165 3.23078 0
M  V30 9078 O 847.111 0.832404 4.03912 0
M  V30 9079 H 846.452 0.362354 0.556413 0
M  V30 9080 H 848.982 1.58633 1.29216 0
M  V30 9081 H 848.992 1.6347 3.7382 0
M  V30 9082 H 847.667 2.65454 3.20167 0
M  V30 9083 H 846.244 0.872768 3.62543 0
M  V30 9084 N 848.429 -1.21819 0.999893 0
M  V30 9085 C 849.706 -1.86318 0.595384 0
M  V30 9086 C 850.086 -1.8965 -0.927143 0
M  V30 9087 O 849.434 -1.3921 -1.81199 0
M  V30 9088 C 849.644 -3.26837 1.22387 0
M  V30 9089 C 850.992 -4.03272 1.32878 0
M  V30 9090 O 852.016 -3.36129 1.1788 0
M  V30 9091 O 850.875 -5.23477 1.56952 0
M  V30 9092 H 847.969 -0.801638 0.203238 0
M  V30 9093 H 850.515 -1.29542 1.09622 0
M  V30 9094 H 849.287 -3.19084 2.26497 0
M  V30 9095 H 848.91 -3.91226 0.709069 0
M  V30 9096 N 849.908 -0.773975 -1.37286 0
M  V30 9097 C 851.156 -0.338636 -1.99243 0
M  V30 9098 C 851.477 1.08919 -1.61746 0
M  V30 9099 O 850.747 1.74822 -0.88397 0
M  V30 9100 H 849.327 -0.12222 -0.736934 0
M  V30 9101 H 851.989 -0.992595 -1.67731 0
M  V30 9102 H 851.085 -0.418055 -3.09287 0
M  V30 9103 N 851.386 1.48609 -0.524698 0
M  V30 9104 C 852.336 2.26505 0.260696 0
M  V30 9105 C 853.32 1.32378 0.914597 0
M  V30 9106 O 854.512 1.5695 0.818277 0
M  V30 9107 C 851.641 3.17313 1.31024 0
M  V30 9108 C 850.727 4.18911 0.661391 0
M  V30 9109 N 851.118 5.05183 -0.24981 0
M  V30 9110 C 849.416 4.36425 0.91922 0
M  V30 9111 C 850.117 5.78348 -0.623598 0
M  V30 9112 N 849.093 5.43598 0.0140839 0
M  V30 9113 H 852.895 2.90582 -0.440388 0
M  V30 9114 H 850.409 1.5875 -0.342364 0
M  V30 9115 H 852.406 3.71772 1.88656 0
M  V30 9116 H 851.066 2.54791 2.01275 0
M  V30 9117 H 852.077 5.1415 -0.622093 0
M  V30 9118 H 848.754 3.85095 1.6127 0
M  V30 9119 H 850.144 6.57775 -1.37046 0
M  V30 9120 N 852.864 0.259585 1.55447 0
M  V30 9121 C 853.774 -0.645026 2.25558 0
M  V30 9122 C 854.79 -1.18291 1.27606 0
M  V30 9123 O 855.966 -1.21649 1.6051 0
M  V30 9124 C 853.031 -1.81964 2.9511 0
M  V30 9125 C 852.092 -1.31997 4.08504 0
M  V30 9126 C 851.325 -2.43861 4.74729 0
M  V30 9127 O 851.548 -3.62876 4.40088 0
M  V30 9128 O 850.482 -2.12898 5.6299 0
M  V30 9129 H 854.308 -0.0775399 3.03601 0
M  V30 9130 H 851.893 0.0275859 1.49375 0
M  V30 9131 H 853.775 -2.50485 3.38873 0
M  V30 9132 H 852.45 -2.37451 2.19997 0
M  V30 9133 H 851.357 -0.601676 3.6923 0
M  V30 9134 H 852.69 -0.811045 4.85472 0
M  V30 9135 N 854.342 -1.57594 -0.0133615 0
M  V30 9136 C 855.572 -1.93969 -0.711295 0
M  V30 9137 C 855.98 -0.859084 -1.68572 0
M  V30 9138 O 855.323 0.171842 -1.82894 0
M  V30 9139 C 855.385 -3.2625 -1.51001 0
M  V30 9140 C 855.049 -4.51628 -0.698645 0
M  V30 9141 C 856.046 -5.19899 0.00791185 0
M  V30 9142 C 853.731 -4.98095 -0.648553 0
M  V30 9143 C 855.725 -6.32928 0.753691 0
M  V30 9144 C 853.412 -6.11017 0.10096 0
M  V30 9145 C 854.41 -6.78289 0.800828 0
M  V30 9146 O 854.098 -7.89048 1.53814 0
M  V30 9147 H 853.83 -0.6445 -0.203951 0
M  V30 9148 H 856.384 -2.05378 0.0298267 0
M  V30 9149 H 854.614 -3.11211 -2.29531 0
M  V30 9150 H 856.303 -3.47835 -2.09202 0
M  V30 9151 H 857.069 -4.84995 -0.0217192 0
M  V30 9152 H 852.948 -4.45568 -1.18282 0
M  V30 9153 H 856.492 -6.85371 1.3005 0
M  V30 9154 H 852.389 -6.45364 0.132459 0
M  V30 9155 H 853.157 -8.05492 1.45345 0
M  V30 9156 N 855.82 0.285905 -1.54985 0
M  V30 9157 C 857.069 1.01691 -1.74189 0
M  V30 9158 C 857.382 1.87908 -0.543135 0
M  V30 9159 O 858.588 2.64389 -0.617305 0
M  V30 9160 C 857.044 1.85785 -3.0824 0
M  V30 9161 C 856.652 1.04497 -4.35642 0
M  V30 9162 C 858.396 2.58393 -3.36798 0
M  V30 9163 C 856.303 1.87955 -5.60738 0
M  V30 9164 H 855.233 0.383396 -0.649248 0
M  V30 9165 H 857.884 0.27317 -1.81455 0
M  V30 9166 H 856.266 2.64205 -2.94978 0
M  V30 9167 H 857.44 0.305847 -4.59784 0
M  V30 9168 H 855.755 0.434023 -4.14132 0
M  V30 9169 H 858.352 3.21214 -4.27464 0
M  V30 9170 H 858.695 3.28011 -2.56349 0
M  V30 9171 H 859.228 1.87012 -3.511 0
M  V30 9172 H 855.967 1.22781 -6.43898 0
M  V30 9173 H 855.487 2.59499 -5.40759 0
M  V30 9174 H 857.166 2.45636 -5.98558 0
M  V30 9175 N 857.298 1.47698 0.54982 0
M  V30 9176 C 858.528 1.58101 1.32995 0
M  V30 9177 C 858.936 0.232939 1.87761 0
M  V30 9178 O 858.279 -0.785058 1.6608 0
M  V30 9179 C 858.341 2.55228 2.53178 0
M  V30 9180 C 858.005 4.00756 2.19645 0
M  V30 9181 C 859.002 4.89025 1.76496 0
M  V30 9182 C 856.687 4.46147 2.30777 0
M  V30 9183 C 858.681 6.20707 1.44919 0
M  V30 9184 C 856.368 5.77856 1.98812 0
M  V30 9185 C 857.366 6.64957 1.55952 0
M  V30 9186 O 857.054 7.94217 1.24396 0
M  V30 9187 H 856.786 0.536362 0.411451 0
M  V30 9188 H 859.34 1.94092 0.67212 0
M  V30 9189 H 857.57 2.14319 3.21876 0
M  V30 9190 H 859.259 2.55678 3.15251 0
M  V30 9191 H 860.025 4.55201 1.67383 0
M  V30 9192 H 855.904 3.78552 2.63096 0
M  V30 9193 H 859.448 6.88649 1.11392 0
M  V30 9194 H 855.345 6.11219 2.0756 0
M  V30 9195 H 856.113 8.06789 1.37964 0
M  V30 9196 N 858.776 -0.797141 1.35954 0
M  V30 9197 C 860.022 -1.55698 1.29946 0
M  V30 9198 C 860.355 -1.93808 -0.123259 0
M  V30 9199 O 859.63 -1.62102 -1.07486 0
M  V30 9200 C 859.913 -2.83926 2.2149 0
M  V30 9201 C 859.766 -2.52232 3.72423 0
M  V30 9202 C 861.085 -3.85698 2.11955 0
M  V30 9203 H 858.204 -0.56488 0.47337 0
M  V30 9204 H 860.846 -0.916421 1.66438 0
M  V30 9205 H 858.996 -3.38588 1.905 0
M  V30 9206 H 860.668 -2.0368 4.13899 0
M  V30 9207 H 858.911 -1.85286 3.92239 0
M  V30 9208 H 859.582 -3.43782 4.31877 0
M  V30 9209 H 862.058 -3.40462 2.39218 0
M  V30 9210 H 860.934 -4.73182 2.78191 0
M  V30 9211 H 861.195 -4.28083 1.10442 0
M  V30 9212 N 860.254 -1.20106 -1.0204 0
M  V30 9213 C 861.531 -0.918029 -1.72718 0
M  V30 9214 C 861.911 0.574163 -2.03142 0
M  V30 9215 O 861.259 1.53476 -1.69285 0
M  V30 9216 C 861.469 -1.78698 -2.9978 0
M  V30 9217 C 862.817 -2.02648 -3.7312 0
M  V30 9218 O 863.841 -1.75919 -3.09727 0
M  V30 9219 O 862.7 -2.47767 -4.87107 0
M  V30 9220 H 859.794 -0.342904 -0.752559 0
M  V30 9221 H 862.34 -1.30961 -1.07923 0
M  V30 9222 H 861.112 -2.79757 -2.7359 0
M  V30 9223 H 860.735 -1.39522 -3.72316 0
M  V30 9224 N 861.732 1.21287 -1.00634 0
M  V30 9225 C 863.143 1.72136 -0.722914 0
M  V30 9226 C 863.494 1.8091 0.759338 0
M  V30 9227 O 862.619 1.46458 1.59308 0
M  V30 9228 C 863.214 3.12633 -1.30561 0
M  V30 9229 C 861.773 3.60833 -1.07127 0
M  V30 9230 C 860.92 2.38326 -1.4176 0
M  V30 9231 H 863.871 1.06445 -1.17708 0
M  V30 9232 H 863.892 3.74174 -0.690937 0
M  V30 9233 H 863.404 3.06215 -2.38441 0
M  V30 9234 H 861.505 3.72599 -0.00968671 0
M  V30 9235 H 861.618 4.46226 -1.74411 0
M  V30 9236 H 859.982 2.40575 -0.836412 0
M  V30 9237 H 860.765 2.34558 -2.50674 0
M  V30 9238 N 863.21 0.781244 1.36873 0
M  V30 9239 C 864.143 0.120106 2.27884 0
M  V30 9240 C 865.121 -0.698961 1.4681 0
M  V30 9241 O 866.305 -0.671694 1.76126 0
M  V30 9242 C 863.432 -0.835804 3.28226 0
M  V30 9243 C 862.478 -0.0995527 4.26384 0
M  V30 9244 S 863.311 1.21903 5.2144 0
M  V30 9245 C 864.467 0.266904 6.25331 0
M  V30 9246 H 864.7 0.891796 2.83609 0
M  V30 9247 H 862.233 0.575075 1.43291 0
M  V30 9248 H 864.191 -1.3819 3.86541 0
M  V30 9249 H 862.852 -1.58068 2.71428 0
M  V30 9250 H 862.045 -0.82457 4.97209 0
M  V30 9251 H 861.647 0.375818 3.72107 0
M  V30 9252 H 863.939 -0.55725 6.75204 0
M  V30 9253 H 864.882 0.943603 7.01785 0
M  V30 9254 H 865.29 -0.126121 5.64359 0
M  V30 9255 N 864.689 -1.48329 0.532571 0
M  V30 9256 C 865.621 -2.27652 -0.265931 0
M  V30 9257 C 866.634 -1.35522 -0.902083 0
M  V30 9258 O 867.823 -1.60552 -0.780088 0
M  V30 9259 C 864.923 -3.0899 -1.39207 0
M  V30 9260 C 864.096 -4.28915 -0.857349 0
M  V30 9261 C 863.155 -4.92044 -1.86493 0
M  V30 9262 O 862.181 -5.51181 -1.42084 0
M  V30 9263 N 863.383 -4.84518 -3.19723 0
M  V30 9264 H 866.148 -2.96821 0.414389 0
M  V30 9265 H 863.709 -1.57684 0.367066 0
M  V30 9266 H 865.701 -3.48091 -2.06433 0
M  V30 9267 H 864.271 -2.42224 -1.97601 0
M  V30 9268 H 863.491 -3.94199 -0.00901765 0
M  V30 9269 H 864.779 -5.0654 -0.479025 0
M  V30 9270 H 864.177 -4.37628 -3.58467 0
M  V30 9271 H 862.734 -5.27712 -3.82575 0
M  V30 9272 N 866.167 -0.267825 -1.55308 0
M  V30 9273 C 867.097 0.616585 -2.25212 0
M  V30 9274 C 868.078 1.16472 -1.23969 0
M  V30 9275 O 869.263 1.20021 -1.52672 0
M  V30 9276 C 866.393 1.80412 -2.96764 0
M  V30 9277 C 865.347 1.38784 -4.04874 0
M  V30 9278 C 864.673 2.65789 -4.63961 0
M  V30 9279 C 865.973 0.543415 -5.19465 0
M  V30 9280 H 867.667 0.0336257 -2.99381 0
M  V30 9281 H 865.213 0.0147328 -1.43992 0
M  V30 9282 H 867.166 2.42866 -3.44375 0
M  V30 9283 H 865.89 2.4128 -2.20118 0
M  V30 9284 H 864.549 0.786541 -3.58063 0
M  V30 9285 H 864.197 3.24899 -3.83992 0
M  V30 9286 H 863.897 2.38651 -5.36954 0
M  V30 9287 H 865.421 3.29104 -5.14318 0
M  V30 9288 H 866.835 1.07277 -5.63174 0
M  V30 9289 H 865.232 0.367219 -5.98975 0
M  V30 9290 H 866.302 -0.439534 -4.82904 0
M  V30 9291 N 867.645 1.57599 0.00500368 0
M  V30 9292 C 869.056 1.78462 0.54848 0
M  V30 9293 C 869.407 0.901869 1.74243 0
M  V30 9294 O 868.532 0.103014 2.16155 0
M  V30 9295 C 869.127 3.2365 1.00179 0
M  V30 9296 C 867.686 3.45627 1.49061 0
M  V30 9297 C 866.833 2.73794 0.439531 0
M  V30 9298 H 869.784 1.57151 -0.22118 0
M  V30 9299 H 869.805 3.31488 1.86805 0
M  V30 9300 H 869.317 3.87873 0.132607 0
M  V30 9301 H 867.418 2.86612 2.38085 0
M  V30 9302 H 867.531 4.54298 1.52152 0
M  V30 9303 H 865.895 2.38267 0.900043 0
M  V30 9304 H 866.678 3.40714 -0.420599 0
M  V30 9305 N 869.123 -0.277682 1.55134 0
M  V30 9306 C 870.353 -1.02677 1.79279 0
M  V30 9307 C 870.761 -1.80599 0.563962 0
M  V30 9308 O 870.104 -1.77416 -0.476378 0
M  V30 9309 C 870.166 -2.03617 2.96277 0
M  V30 9310 C 869.83 -1.44676 4.33495 0
M  V30 9311 C 870.827 -0.864811 5.12657 0
M  V30 9312 C 868.512 -1.47537 4.80144 0
M  V30 9313 C 870.506 -0.319322 6.366 0
M  V30 9314 C 868.193 -0.926016 6.04043 0
M  V30 9315 C 869.191 -0.348988 6.82108 0
M  V30 9316 O 868.879 0.191964 8.03671 0
M  V30 9317 H 868.611 -0.309232 0.601125 0
M  V30 9318 H 871.165 -0.315308 2.02965 0
M  V30 9319 H 869.395 -2.78509 2.68272 0
M  V30 9320 H 871.084 -2.64616 3.07788 0
M  V30 9321 H 871.85 -0.835438 4.7775 0
M  V30 9322 H 867.729 -1.91389 4.19394 0
M  V30 9323 H 871.273 0.131709 6.97476 0
M  V30 9324 H 867.17 -0.952613 6.38432 0
M  V30 9325 H 867.938 0.0808779 8.1846 0
M  V30 9326 N 870.601 -1.47988 -0.541979 0
M  V30 9327 C 871.878 -1.45878 -1.30303 0
M  V30 9328 C 872.258 -0.163931 -2.10463 0
M  V30 9329 O 871.606 0.854479 -2.11922 0
M  V30 9330 C 871.816 -2.71359 -2.19466 0
M  V30 9331 C 873.164 -3.19199 -2.79995 0
M  V30 9332 O 874.188 -2.72193 -2.2976 0
M  V30 9333 O 873.047 -4.00961 -3.71339 0
M  V30 9334 H 870.141 -0.582043 -0.587498 0
M  V30 9335 H 872.687 -1.60207 -0.559623 0
M  V30 9336 H 871.459 -3.57122 -1.59936 0
M  V30 9337 H 871.082 -2.59692 -3.01075 0
M  V30 9338 N 872.079 0.78992 -1.36375 0
M  V30 9339 C 873.304 1.58389 -1.33895 0
M  V30 9340 C 873.729 1.8794 0.0774934 0
M  V30 9341 O 873.087 1.4785 1.0493 0
M  V30 9342 C 873.135 2.88201 -2.16732 0
M  V30 9343 O 872.239 3.81778 -1.55946 0
M  V30 9344 H 871.58 0.480471 -0.458305 0
M  V30 9345 H 874.11 0.979119 -1.79651 0
M  V30 9346 H 874.12 3.37475 -2.29292 0
M  V30 9347 H 872.795 2.66019 -3.19698 0
M  V30 9348 H 871.372 3.40371 -1.52323 0
M  V30 9349 N 873.557 1.20646 1.01402 0
M  V30 9350 C 874.785 1.04389 1.78635 0
M  V30 9351 C 875.2 -0.406771 1.84366 0
M  V30 9352 O 874.557 -1.28239 1.2985 0
M  V30 9353 C 874.608 1.62378 3.22979 0
M  V30 9354 O 874.329 3.01768 3.17597 0
M  V30 9355 C 875.83 1.5111 4.1675 0
M  V30 9356 H 873.05 0.367077 0.56169 0
M  V30 9357 H 875.594 1.59789 1.27624 0
M  V30 9358 H 873.749 1.11092 3.7113 0
M  V30 9359 H 874.163 3.29331 4.08217 0
M  V30 9360 H 875.637 1.96441 5.15863 0
M  V30 9361 H 876.114 0.464011 4.36742 0
M  V30 9362 H 876.72 2.01599 3.74483 0
M  V30 9363 N 875.035 -1.20752 1.01276 0
M  V30 9364 C 876.281 -1.90582 0.710627 0
M  V30 9365 C 876.636 -1.7713 -0.751184 0
M  V30 9366 O 875.929 -1.14223 -1.5383 0
M  V30 9367 C 876.123 -3.40808 1.07633 0
M  V30 9368 C 875.952 -3.68878 2.57214 0
M  V30 9369 C 874.722 -3.87805 3.23937 0
M  V30 9370 C 876.92 -3.71753 3.55393 0
M  V30 9371 N 874.902 -4.0336 4.62789 0
M  V30 9372 C 876.273 -3.92686 4.79789 0
M  V30 9373 C 878.328 -3.54697 3.4942 0
M  V30 9374 C 877.031 -3.98332 5.98936 0
M  V30 9375 C 879.057 -3.61612 4.67964 0
M  V30 9376 C 878.419 -3.83014 5.91168 0
M  V30 9377 H 874.518 -0.717219 0.311643 0
M  V30 9378 H 877.102 -1.45228 1.2968 0
M  V30 9379 H 875.273 -3.84923 0.518527 0
M  V30 9380 H 877.005 -3.98096 0.728128 0
M  V30 9381 H 873.76 -3.86029 2.74369 0
M  V30 9382 H 874.184 -4.15023 5.34869 0
M  V30 9383 H 878.826 -3.3712 2.55166 0
M  V30 9384 H 876.544 -4.14706 6.93574 0
M  V30 9385 H 880.13 -3.49728 4.64954 0
M  V30 9386 H 879.01 -3.88219 6.81363 0
M  V30 9387 N 876.513 -0.788492 -1.36457 0
M  V30 9388 C 877.423 -0.187385 -2.3385 0
M  V30 9389 C 878.439 0.659984 -1.60998 0
M  V30 9390 O 879.615 0.575986 -1.92988 0
M  V30 9391 C 876.68 0.668525 -3.40194 0
M  V30 9392 C 875.741 -0.197234 -4.28847 0
M  V30 9393 C 874.974 0.61792 -5.30111 0
M  V30 9394 O 875.197 1.85396 -5.3943 0
M  V30 9395 O 874.131 0.0183016 -6.01897 0
M  V30 9396 H 877.957 -0.992617 -2.87021 0
M  V30 9397 H 875.542 -0.549934 -1.3891 0
M  V30 9398 H 877.424 1.15663 -4.05216 0
M  V30 9399 H 876.099 1.45166 -2.89324 0
M  V30 9400 H 875.006 -0.73207 -3.66867 0
M  V30 9401 H 876.339 -0.943863 -4.83065 0
M  V30 9402 N 877.991 1.48044 -0.54043 0
M  V30 9403 C 878.921 2.32597 0.205178 0
M  V30 9404 C 879.902 1.42748 0.925041 0
M  V30 9405 O 881.087 1.71624 0.908784 0
M  V30 9406 C 878.217 3.24175 1.24612 0
M  V30 9407 C 877.171 4.23131 0.64376 0
M  V30 9408 C 876.497 5.03915 1.78812 0
M  V30 9409 C 877.797 5.20831 -0.39144 0
M  V30 9410 H 879.491 2.95184 -0.500676 0
M  V30 9411 H 877.037 1.41948 -0.242225 0
M  V30 9412 H 878.99 3.82158 1.77576 0
M  V30 9413 H 877.714 2.59608 1.98169 0
M  V30 9414 H 876.373 3.66349 0.135554 0
M  V30 9415 H 876.021 4.35765 2.51232 0
M  V30 9416 H 875.721 5.709 1.39094 0
M  V30 9417 H 877.245 5.64753 2.32134 0
M  V30 9418 H 878.659 5.73277 0.0515064 0
M  V30 9419 H 877.056 5.95926 -0.706569 0
M  V30 9420 H 878.126 4.6733 -1.29345 0
M  V30 9421 N 879.47 0.276058 1.55163 0
M  V30 9422 C 880.881 -0.221516 1.85381 0
M  V30 9423 C 881.232 -1.55372 1.19808 0
M  V30 9424 O 880.357 -2.10855 0.486742 0
M  V30 9425 C 880.952 -0.408706 3.36326 0
M  V30 9426 C 879.511 -0.850512 3.66665 0
M  V30 9427 C 878.658 0.055656 2.77244 0
M  V30 9428 H 881.609 0.497819 1.5069 0
M  V30 9429 H 881.63 -1.24711 3.59482 0
M  V30 9430 H 881.142 0.561052 3.84023 0
M  V30 9431 H 879.243 -1.83171 3.24468 0
M  V30 9432 H 879.356 -0.687181 4.74146 0
M  V30 9433 H 877.72 -0.460819 2.50497 0
M  V30 9434 H 878.503 1.02131 3.27756 0
M  V30 9435 N 880.948 -1.576 0.00335426 0
M  V30 9436 C 882.364 -1.55653 -0.352766 0
M  V30 9437 C 882.564 -1.00632 -1.74572 0
M  V30 9438 O 881.62 -0.641621 -2.44212 0
M  V30 9439 C 882.933 -2.99858 -0.224929 0
M  V30 9440 C 884.481 -3.11563 -0.299619 0
M  V30 9441 C 884.956 -4.57559 -0.200868 0
M  V30 9442 N 886.447 -4.62477 -0.258663 0
M  V30 9443 C 887.182 -5.73031 -0.205644 0
M  V30 9444 N 886.678 -6.92723 -0.103027 0
M  V30 9445 N 888.471 -5.61509 -0.257754 0
M  V30 9446 H 880.622 -1.91703 0.914539 0
M  V30 9447 H 882.885 -0.88068 0.350865 0
M  V30 9448 H 882.591 -3.43964 0.733595 0
M  V30 9449 H 882.465 -3.63547 -1.00564 0
M  V30 9450 H 884.852 -2.67384 -1.24859 0
M  V30 9451 H 884.933 -2.50644 0.511025 0
M  V30 9452 H 884.577 -5.02413 0.744572 0
M  V30 9453 H 884.507 -5.16428 -1.03004 0
M  V30 9454 H 886.998 -3.76375 -0.339168 0
M  V30 9455 H 887.311 -7.7277 -0.0685593 0
M  V30 9456 H 885.656 -6.94966 -0.0686069 0
M  V30 9457 H 888.847 -4.66892 -0.336142 0
M  V30 9458 H 889.02 -6.4765 -0.21297 0
M  V30 9459 N 882.426 0.269451 -1.5528 0
M  V30 9460 C 883.703 1.02207 -1.66773 0
M  V30 9461 C 884.083 2.04168 -0.536536 0
M  V30 9462 O 883.431 2.23761 0.462956 0
M  V30 9463 C 883.641 1.67569 -3.0614 0
M  V30 9464 C 884.989 2.18599 -3.64005 0
M  V30 9465 O 886.013 1.7755 -3.08795 0
M  V30 9466 O 884.872 2.93903 -4.60742 0
M  V30 9467 H 881.966 0.474314 -0.677462 0
M  V30 9468 H 884.512 0.265026 -1.67618 0
M  V30 9469 H 883.284 0.937029 -3.79915 0
M  V30 9470 H 882.907 2.49951 -3.09209 0
M  V30 9471 N 883.904 1.48273 0.534124 0
M  V30 9472 C 884.836 1.5857 1.65494 0
M  V30 9473 C 885.849 0.470266 1.5586 0
M  V30 9474 O 887.038 0.740928 1.62396 0
M  V30 9475 C 884.138 1.49554 3.04117 0
M  V30 9476 C 883.311 2.76066 3.39273 0
M  V30 9477 C 882.37 2.60562 4.57159 0
M  V30 9478 O 881.396 3.34438 4.60587 0
M  V30 9479 N 882.598 1.69906 5.55079 0
M  V30 9480 H 885.363 2.55226 1.57099 0
M  V30 9481 H 882.924 1.44944 0.721303 0
M  V30 9482 H 884.916 1.36882 3.80848 0
M  V30 9483 H 883.486 0.608895 3.06613 0
M  V30 9484 H 882.706 3.03332 2.51761 0
M  V30 9485 H 883.994 3.60006 3.59546 0
M  V30 9486 H 883.392 1.09079 5.55084 0
M  V30 9487 H 881.949 1.63175 6.31044 0
M  V30 9488 N 885.382 -0.782676 1.36792 0
M  V30 9489 C 886.312 -1.90973 1.34356 0
M  V30 9490 C 887.293 -1.6875 0.213917 0
M  V30 9491 O 888.478 -1.89766 0.412601 0
M  V30 9492 C 885.608 -3.28097 1.13884 0
M  V30 9493 C 884.562 -3.6486 2.23744 0
M  V30 9494 C 883.888 -5.00406 1.88408 0
M  V30 9495 C 885.188 -3.72742 3.6587 0
M  V30 9496 H 886.882 -1.93268 2.28665 0
M  V30 9497 H 884.428 -0.928447 1.10072 0
M  V30 9498 H 886.381 -4.06569 1.10813 0
M  V30 9499 H 885.105 -3.26206 0.160275 0
M  V30 9500 H 883.764 -2.88689 2.25952 0
M  V30 9501 H 883.412 -4.95044 0.891083 0
M  V30 9502 H 883.112 -5.25973 2.61966 0
M  V30 9503 H 884.636 -5.81291 1.86905 0
M  V30 9504 H 886.05 -4.4139 3.65852 0
M  V30 9505 H 884.447 -4.09798 4.38389 0
M  V30 9506 H 885.517 -2.73676 4.00287 0
M  V30 9507 N 886.86 -1.21182 -1.00761 0
M  V30 9508 C 888.106 -1.02898 -1.74756 0
M  V30 9509 C 888.439 0.436774 -1.89225 0
M  V30 9510 O 887.714 1.32415 -1.42466 0
M  V30 9511 C 887.997 -1.72372 -3.16164 0
M  V30 9512 C 887.85 -3.2645 -3.09435 0
M  V30 9513 C 889.169 -1.46415 -4.15031 0
M  V30 9514 H 886.288 -0.375214 -0.634337 0
M  V30 9515 H 888.93 -1.49321 -1.17487 0
M  V30 9516 H 887.08 -1.32906 -3.65059 0
M  V30 9517 H 888.752 -3.75269 -2.68274 0
M  V30 9518 H 886.995 -3.56889 -2.46603 0
M  V30 9519 H 887.666 -3.70226 -4.09435 0
M  V30 9520 H 890.142 -1.80671 -3.7483 0
M  V30 9521 H 889.018 -1.97544 -5.12121 0
M  V30 9522 H 889.279 -0.39361 -4.40344 0
M  V30 9523 N 888.338 1.20213 -1.01915 0
M  V30 9524 C 889.268 2.25336 -0.612023 0
M  V30 9525 C 890.249 1.65933 0.374186 0
M  V30 9526 O 891.434 1.92464 0.259053 0
M  V30 9527 C 888.564 3.47267 0.047904 0
M  V30 9528 C 887.518 4.1928 -0.859557 0
M  V30 9529 C 886.844 5.3466 -0.0652655 0
M  V30 9530 C 888.144 4.75143 -2.1688 0
M  V30 9531 H 889.838 2.59645 -1.49079 0
M  V30 9532 H 887.384 1.24808 -0.718263 0
M  V30 9533 H 889.337 4.19991 0.344294 0
M  V30 9534 H 888.061 3.12129 0.961404 0
M  V30 9535 H 886.72 3.48425 -1.13999 0
M  V30 9536 H 886.368 4.95767 0.849964 0
M  V30 9537 H 886.068 5.83772 -0.669618 0
M  V30 9538 H 887.592 6.10187 0.224612 0
M  V30 9539 H 889.006 5.39672 -1.9346 0
M  V30 9540 H 887.403 5.34702 -2.72422 0
M  V30 9541 H 888.473 3.93744 -2.83008 0
M  V30 9542 N 889.816 0.795718 1.36037 0
M  V30 9543 C 891.064 0.370291 1.98679 0
M  V30 9544 C 891.385 -1.06332 1.63458 0
M  V30 9545 O 890.655 -1.73394 0.911671 0
M  V30 9546 H 889.235 0.133928 0.734896 0
M  V30 9547 H 891.897 1.01915 1.6613 0
M  V30 9548 H 890.993 0.467207 3.08583 0
M  V30 9549 N 891.294 -1.47756 0.548274 0
M  V30 9550 C 892.71 -1.58247 0.207401 0
M  V30 9551 C 892.91 -1.54804 -1.28988 0
M  V30 9552 O 891.966 -1.44673 -2.06944 0
M  V30 9553 C 893.279 -2.89129 0.826142 0
M  V30 9554 C 894.827 -3.02695 0.79655 0
M  V30 9555 C 895.302 -4.36264 1.3942 0
M  V30 9556 N 896.793 -4.42877 1.35698 0
M  V30 9557 C 897.528 -5.44773 1.78913 0
M  V30 9558 N 897.024 -6.53528 2.29942 0
M  V30 9559 N 898.817 -5.35765 1.70038 0
M  V30 9560 H 890.968 -1.48236 1.52117 0
M  V30 9561 H 893.231 -0.704957 0.633829 0
M  V30 9562 H 892.937 -2.97358 1.87806 0
M  V30 9563 H 892.811 -3.75891 0.313916 0
M  V30 9564 H 895.198 -2.94067 -0.246655 0
M  V30 9565 H 895.279 -2.17496 1.34644 0
M  V30 9566 H 894.923 -4.45646 2.43642 0
M  V30 9567 H 894.853 -5.20179 0.819827 0
M  V30 9568 H 897.344 -3.64874 0.983623 0
M  V30 9569 H 897.657 -7.27441 2.60863 0
M  V30 9570 H 896.002 -6.54442 2.33947 0
M  V30 9571 H 899.193 -4.49699 1.29955 0
M  V30 9572 H 899.366 -6.1504 2.04035 0
M  V30 9573 N 892.772 -0.284283 -1.55015 0
M  V30 9574 C 894 0.332948 -2.04203 0
M  V30 9575 C 894.415 1.48783 -1.16229 0
M  V30 9576 O 893.772 1.81567 -0.184323 0
M  V30 9577 C 893.823 0.805207 -3.52418 0
M  V30 9578 O 893.544 -0.303689 -4.37046 0
M  V30 9579 C 895.045 1.48931 -4.17534 0
M  V30 9580 H 892.265 0.0747447 -0.666824 0
M  V30 9581 H 894.809 -0.419048 -2.00161 0
M  V30 9582 H 892.964 1.50727 -3.56876 0
M  V30 9583 H 893.378 0.0609703 -5.24465 0
M  V30 9584 H 894.852 1.77108 -5.22816 0
M  V30 9585 H 895.329 2.42389 -3.66257 0
M  V30 9586 H 895.935 0.830867 -4.17105 0
M  V30 9587 N 894.251 1.57596 -0.0117121 0
M  V30 9588 C 895.181 2.12188 0.9746 0
M  V30 9589 C 896.162 1.03379 1.35081 0
M  V30 9590 O 897.347 1.31123 1.4325 0
M  V30 9591 C 894.477 2.63477 2.26268 0
M  V30 9592 C 893.431 3.76917 2.02774 0
M  V30 9593 C 892.757 4.14566 3.37697 0
M  V30 9594 C 894.057 5.03715 1.38089 0
M  V30 9595 H 895.751 2.9485 0.520007 0
M  V30 9596 H 893.297 1.41836 0.248685 0
M  V30 9597 H 895.25 3.00299 2.95633 0
M  V30 9598 H 893.974 1.77953 2.73862 0
M  V30 9599 H 892.633 3.40507 1.35832 0
M  V30 9600 H 892.281 3.26048 3.83016 0
M  V30 9601 H 891.981 4.91 3.22789 0
M  V30 9602 H 893.505 4.53956 4.08358 0
M  V30 9603 H 894.919 5.38233 1.97428 0
M  V30 9604 H 893.316 5.85032 1.33634 0
M  V30 9605 H 894.386 4.83624 0.351575 0
M  V30 9606 N 895.729 -0.261212 1.5542 0
M  V30 9607 C 896.977 -0.989272 1.76232 0
M  V30 9608 C 897.298 -1.86389 0.573067 0
M  V30 9609 O 896.568 -1.91526 -0.41166 0
M  V30 9610 H 895.148 -0.368256 0.64992 0
M  V30 9611 H 897.81 -0.282603 1.9284 0
M  V30 9612 H 896.906 -1.61935 2.66802 0
M  V30 9613 N 897.207 -1.48554 -0.526253 0
M  V30 9614 C 898.432 -1.60686 -1.31129 0
M  V30 9615 C 898.857 -0.268701 -1.86171 0
M  V30 9616 O 898.215 0.760167 -1.64594 0
M  V30 9617 C 898.263 -2.65938 -2.43536 0
M  V30 9618 O 897.367 -2.23356 -3.46678 0
M  V30 9619 H 896.708 -0.538691 -0.388211 0
M  V30 9620 H 899.238 -1.94567 -0.632826 0
M  V30 9621 H 899.248 -2.87327 -2.89668 0
M  V30 9622 H 897.923 -3.63085 -2.02835 0
M  V30 9623 H 896.5 -2.12196 -3.06639 0
M  V30 9624 N 898.685 0.775411 -1.37205 0
M  V30 9625 C 899.933 1.53081 -1.3195 0
M  V30 9626 C 900.254 1.9476 0.0966864 0
M  V30 9627 O 899.524 1.66019 1.03993 0
M  V30 9628 H 898.104 0.567762 -0.485444 0
M  V30 9629 H 900.766 0.92309 -1.71654 0
M  V30 9630 H 899.862 2.4319 -1.95614 0
M  V30 9631 N 900.163 1.21714 1.00117 0
M  V30 9632 C 901.126 0.981338 2.07129 0
M  V30 9633 C 902.126 -0.0491116 1.60725 0
M  V30 9634 O 903.316 0.188555 1.73177 0
M  V30 9635 C 900.448 0.480608 3.37495 0
M  V30 9636 H 901.641 1.93075 2.29482 0
M  V30 9637 H 899.194 1.03467 1.17151 0
M  V30 9638 H 899.929 -0.473552 3.20824 0
M  V30 9639 H 899.714 1.22393 3.72508 0
M  V30 9640 H 901.204 0.33561 4.16249 0
M  V30 9641 N 901.641 -1.19671 1.02551 0
M  V30 9642 C 902.888 -1.89268 0.720002 0
M  V30 9643 C 903.216 -1.79411 -0.751127 0
M  V30 9644 O 902.471 -1.17859 -1.5623 0
M  V30 9645 C 902.77 -3.39647 1.11241 0
M  V30 9646 C 902.436 -3.69706 2.58125 0
M  V30 9647 C 901.098 -3.7762 2.98256 0
M  V30 9648 C 903.45 -3.83301 3.53171 0
M  V30 9649 C 900.778 -3.96594 4.32354 0
M  V30 9650 C 903.13 -4.03788 4.86968 0
M  V30 9651 C 901.794 -4.09934 5.26793 0
M  V30 9652 H 901.064 -0.692579 0.263467 0
M  V30 9653 H 903.711 -1.41738 1.28774 0
M  V30 9654 H 902.016 -3.89052 0.463234 0
M  V30 9655 H 903.713 -3.91809 0.853602 0
M  V30 9656 H 900.303 -3.64152 2.26033 0
M  V30 9657 H 904.487 -3.76534 3.2332 0
M  V30 9658 H 899.743 -3.9959 4.6275 0
M  V30 9659 H 903.917 -4.1325 5.60533 0
M  V30 9660 H 901.544 -4.24389 6.30712 0
M  V30 9661 N 903.119 -0.802921 -1.35613 0
M  V30 9662 C 904.367 -0.380822 -1.9848 0
M  V30 9663 C 904.688 1.05464 -1.6402 0
M  V30 9664 O 903.958 1.72908 -0.920854 0
M  V30 9665 H 902.538 -0.137824 -0.734176 0
M  V30 9666 H 905.2 -1.02795 -1.65587 0
M  V30 9667 H 904.296 -0.483565 -3.08331 0
M  V30 9668 N 904.597 1.47463 -0.556102 0
M  V30 9669 C 905.529 2.28046 0.22968 0
M  V30 9670 C 906.542 1.3694 0.880409 0
M  V30 9671 O 907.731 1.61773 0.754447 0
M  V30 9672 C 904.831 3.11165 1.34273 0
M  V30 9673 C 904.004 4.30225 0.789004 0
M  V30 9674 C 903.063 4.94948 1.78641 0
M  V30 9675 O 902.089 5.53372 1.33297 0
M  V30 9676 N 903.291 4.89543 3.11974 0
M  V30 9677 H 906.056 2.96125 -0.461558 0
M  V30 9678 H 903.617 1.5708 -0.392105 0
M  V30 9679 H 905.609 3.51331 2.00869 0
M  V30 9680 H 904.179 2.45337 1.93722 0
M  V30 9681 H 903.399 3.94163 -0.0536971 0
M  V30 9682 H 904.687 5.07238 0.398378 0
M  V30 9683 H 904.085 4.43275 3.51459 0
M  V30 9684 H 902.642 5.33732 3.74131 0
M  V30 9685 N 906.075 0.2925 1.54862 0
M  V30 9686 C 907.321 -0.319736 2.00264 0
M  V30 9687 C 907.654 -1.5419 1.18064 0
M  V30 9688 O 906.929 -1.92821 0.254983 0
M  V30 9689 C 907.212 -0.684753 3.5353 0
M  V30 9690 C 907.065 0.545961 4.46474 0
M  V30 9691 C 908.384 -1.51456 4.13218 0
M  V30 9692 H 905.503 -0.11474 0.728014 0
M  V30 9693 H 908.145 0.402907 1.85679 0
M  V30 9694 H 906.295 -1.30044 3.66089 0
M  V30 9695 H 907.967 1.18448 4.45834 0
M  V30 9696 H 906.21 1.1808 4.1742 0
M  V30 9697 H 906.881 0.246544 5.51449 0
M  V30 9698 H 909.357 -0.994421 4.04043 0
M  V30 9699 H 908.233 -1.73875 5.20633 0
M  V30 9700 H 908.494 -2.5011 3.64551 0
M  V30 9701 N 907.553 -1.57587 0.0200696 0
M  V30 9702 C 908.799 -1.91708 -0.661503 0
M  V30 9703 C 909.132 -0.895968 -1.72296 0
M  V30 9704 O 908.407 0.082577 -1.94325 0
M  V30 9705 C 908.69 -3.36344 -1.28627 0
M  V30 9706 C 908.543 -4.49186 -0.234982 0
M  V30 9707 C 909.862 -3.80771 -2.20685 0
M  V30 9708 H 906.981 -0.69717 -0.239005 0
M  V30 9709 H 909.623 -1.8985 0.0754764 0
M  V30 9710 H 907.773 -3.38058 -1.91439 0
M  V30 9711 H 909.445 -4.59606 0.395011 0
M  V30 9712 H 907.688 -4.31557 0.440565 0
M  V30 9713 H 908.359 -5.47395 -0.711558 0
M  V30 9714 H 910.835 -3.80735 -1.67868 0
M  V30 9715 H 909.711 -4.82685 -2.61356 0
M  V30 9716 H 909.972 -3.15764 -3.09428 0
M  V30 9717 N 909.032 0.252966 -1.55557 0
M  V30 9718 C 909.942 1.33472 -1.92931 0
M  V30 9719 C 910.958 1.52983 -0.828985 0
M  V30 9720 O 912.134 1.66723 -1.12984 0
M  V30 9721 C 909.199 2.6704 -2.21112 0
M  V30 9722 C 908.26 2.56103 -3.44542 0
M  V30 9723 C 907.493 3.83302 -3.71369 0
M  V30 9724 O 907.716 4.84907 -3.00368 0
M  V30 9725 O 906.65 3.823 -4.64898 0
M  V30 9726 H 910.476 1.04768 -2.85057 0
M  V30 9727 H 908.061 0.453208 -1.4236 0
M  V30 9728 H 909.943 3.45981 -2.40572 0
M  V30 9729 H 908.618 2.95489 -1.32166 0
M  V30 9730 H 907.525 1.7547 -3.30396 0
M  V30 9731 H 908.858 2.32601 -4.33772 0
M  V30 9732 N 910.51 1.48831 0.518367 0
M  V30 9733 C 911.473 1.63721 1.604 0
M  V30 9734 C 912.473 0.509857 1.52503 0
M  V30 9735 O 913.663 0.775922 1.55965 0
M  V30 9736 C 910.795 1.61831 3.00039 0
M  V30 9737 H 911.988 2.60534 1.48533 0
M  V30 9738 H 909.541 1.37602 0.741309 0
M  V30 9739 H 910.276 0.665387 3.17401 0
M  V30 9740 H 910.061 2.43686 3.0718 0
M  V30 9741 H 911.551 1.75467 3.78947 0
M  V30 9742 N 911.988 -0.768124 1.37614 0
M  V30 9743 C 913.216 -1.55726 1.36224 0
M  V30 9744 C 913.631 -1.8873 -0.0515357 0
M  V30 9745 O 912.988 -1.51718 -1.0143 0
M  V30 9746 C 913.039 -2.86533 2.20412 0
M  V30 9747 O 912.76 -2.54942 3.56281 0
M  V30 9748 C 914.261 -3.80745 2.27041 0
M  V30 9749 H 911.481 -0.482325 0.46648 0
M  V30 9750 H 914.025 -0.95176 1.81002 0
M  V30 9751 H 912.18 -3.43496 1.79134 0
M  V30 9752 H 912.594 -3.38732 4.00451 0
M  V30 9753 H 914.068 -4.69523 2.90263 0
M  V30 9754 H 914.545 -4.20138 1.27987 0
M  V30 9755 H 915.151 -3.2971 2.68647 0
M  V30 9756 N 913.466 -1.22244 -0.994698 0
M  V30 9757 C 914.429 -0.992308 -2.06606 0
M  V30 9758 C 915.429 0.0405872 -1.60749 0
M  V30 9759 O 916.619 -0.197737 -1.73074 0
M  V30 9760 C 913.751 -0.498499 -3.37236 0
M  V30 9761 H 914.944 -1.9429 -2.28455 0
M  V30 9762 H 912.497 -1.04087 -1.166 0
M  V30 9763 H 913.232 0.456531 -3.21071 0
M  V30 9764 H 913.017 -1.24367 -3.71854 0
M  V30 9765 H 914.507 -0.35768 -4.16065 0
M  V30 9766 N 914.944 1.19125 -1.03184 0
M  V30 9767 C 915.894 2.20348 -0.585731 0
M  V30 9768 C 916.878 1.56656 0.367109 0
M  V30 9769 O 918.07 1.76003 0.187598 0
M  V30 9770 C 915.199 3.43249 0.0590006 0
M  V30 9771 C 914.285 4.1408 -0.916457 0
M  V30 9772 N 914.676 4.61051 -2.08005 0
M  V30 9773 C 912.974 4.39809 -0.74054 0
M  V30 9774 C 913.675 5.15477 -2.69552 0
M  V30 9775 N 912.651 5.06456 -1.97493 0
M  V30 9776 H 916.453 2.54346 -1.47259 0
M  V30 9777 H 913.967 1.35232 -0.899225 0
M  V30 9778 H 915.964 4.15013 0.396236 0
M  V30 9779 H 914.624 3.1075 0.941507 0
M  V30 9780 H 915.635 4.55782 -2.45934 0
M  V30 9781 H 912.312 4.17397 0.0926238 0
M  V30 9782 H 913.702 5.62088 -3.68112 0
M  V30 9783 N 916.422 0.810101 1.35185 0
M  V30 9784 C 917.67 0.391343 1.98275 0
M  V30 9785 C 917.991 -1.04592 1.64577 0
M  V30 9786 O 917.261 -1.72417 0.93001 0
M  V30 9787 H 915.841 0.141715 0.733434 0
M  V30 9788 H 918.503 1.03672 1.6504 0
M  V30 9789 H 917.599 0.49991 3.0807 0
M  V30 9790 N 917.9 -1.47166 0.563914 0
M  V30 9791 C 918.83 -2.32894 -0.168148 0
M  V30 9792 C 919.811 -1.44202 -0.902214 0
M  V30 9793 O 920.996 -1.73048 -0.881365 0
M  V30 9794 C 918.126 -3.26116 -1.19439 0
M  V30 9795 C 917.08 -4.24101 -0.576363 0
M  V30 9796 C 916.406 -5.06696 -1.70772 0
M  V30 9797 C 917.706 -5.20142 0.47425 0
M  V30 9798 H 919.4 -2.9435 0.547573 0
M  V30 9799 H 916.946 -1.41545 0.264778 0
M  V30 9800 H 918.899 -3.84935 -1.71474 0
M  V30 9801 H 917.623 -2.62728 -1.94014 0
M  V30 9802 H 916.282 -3.66519 -0.0772534 0
M  V30 9803 H 915.93 -4.39707 -2.44268 0
M  V30 9804 H 915.63 -5.7304 -1.29994 0
M  V30 9805 H 917.154 -5.68375 -2.2312 0
M  V30 9806 H 918.568 -5.73286 0.0397035 0
M  V30 9807 H 916.965 -5.94726 0.801287 0
M  V30 9808 H 918.035 -4.65214 1.36764 0
M  V30 9809 N 919.378 -0.300708 -1.54705 0
M  V30 9810 C 920.603 0.314073 -2.05008 0
M  V30 9811 C 921.028 1.46759 -1.17657 0
M  V30 9812 O 920.386 1.80398 -0.180598 0
M  V30 9813 C 920.434 0.748243 -3.52752 0
M  V30 9814 O 919.538 1.85305 -3.68424 0
M  V30 9815 H 918.879 0.0610139 -0.661191 0
M  V30 9816 H 921.409 -0.442467 -1.99758 0
M  V30 9817 H 921.419 1.03713 -3.94598 0
M  V30 9818 H 920.094 -0.095573 -4.1579 0
M  V30 9819 H 918.671 1.56473 -3.38483 0
M  V30 9820 N 920.856 1.57574 -0.0284266 0
M  V30 9821 C 921.806 2.06674 0.962804 0
M  V30 9822 C 922.79 0.967115 1.28591 0
M  V30 9823 O 923.982 1.23068 1.27214 0
M  V30 9824 C 921.111 2.59682 2.24545 0
M  V30 9825 C 920.197 3.76573 1.95073 0
M  V30 9826 N 920.588 4.8721 1.35869 0
M  V30 9827 C 918.886 3.85046 2.25068 0
M  V30 9828 C 919.587 5.68436 1.23514 0
M  V30 9829 N 918.563 5.15323 1.73041 0
M  V30 9830 H 922.365 2.89615 0.500013 0
M  V30 9831 H 919.879 1.61437 0.176604 0
M  V30 9832 H 921.876 2.93148 2.96428 0
M  V30 9833 H 920.536 1.7817 2.71451 0
M  V30 9834 H 921.547 5.07477 1.03379 0
M  V30 9835 H 918.224 3.14439 2.74653 0
M  V30 9836 H 919.614 6.67387 0.777403 0
M  V30 9837 N 922.334 -0.244713 1.55689 0
M  V30 9838 C 923.559 -0.994157 1.8202 0
M  V30 9839 C 923.984 -1.78079 0.60577 0
M  V30 9840 O 923.342 -1.75748 -0.445221 0
M  V30 9841 C 923.39 -1.90599 3.06111 0
M  V30 9842 O 922.494 -2.99804 2.8318 0
M  V30 9843 H 921.835 -0.282767 0.600782 0
M  V30 9844 H 924.365 -0.26504 2.02876 0
M  V30 9845 H 924.375 -2.32023 3.35603 0
M  V30 9846 H 923.05 -1.32763 3.9414 0
M  V30 9847 H 921.627 -2.62493 2.64862 0
M  V30 9848 N 923.813 -1.49104 -0.510467 0
M  V30 9849 C 924.745 -1.61183 -1.6295 0
M  V30 9850 C 925.758 -0.495003 -1.55092 0
M  V30 9851 O 926.947 -0.766671 -1.61197 0
M  V30 9852 C 924.047 -1.54373 -3.01699 0
M  V30 9853 C 923.22 -2.81428 -3.34838 0
M  V30 9854 C 922.279 -2.67802 -4.52956 0
M  V30 9855 O 921.305 -3.41723 -4.55208 0
M  V30 9856 N 922.507 -1.78715 -5.52305 0
M  V30 9857 H 925.272 -2.57693 -1.53018 0
M  V30 9858 H 922.833 -1.46073 -0.698152 0
M  V30 9859 H 924.825 -1.42924 -3.78622 0
M  V30 9860 H 923.395 -0.657597 -3.05605 0
M  V30 9861 H 922.615 -3.07299 -2.46903 0
M  V30 9862 H 923.903 -3.6568 -3.53773 0
M  V30 9863 H 923.301 -1.17897 -5.53278 0
M  V30 9864 H 921.858 -1.73194 -6.28369 0
M  V30 9865 N 925.291 0.760815 -1.38019 0
M  V30 9866 C 926.254 1.85604 -1.34476 0
M  V30 9867 C 927.254 1.58897 -0.24666 0
M  V30 9868 O 928.444 1.66776 -0.50314 0
M  V30 9869 C 925.576 3.22945 -1.09176 0
M  V30 9870 H 926.769 1.90155 -2.31908 0
M  V30 9871 H 924.322 0.961746 -1.23208 0
M  V30 9872 H 925.057 3.24066 -0.123216 0
M  V30 9873 H 924.842 3.43723 -1.88672 0
M  V30 9874 H 926.332 4.03022 -1.09375 0
M  V30 9875 N 926.769 1.22769 0.988202 0
M  V30 9876 C 927.997 1.08155 1.76381 0
M  V30 9877 C 928.412 -0.367573 1.85187 0
M  V30 9878 O 927.769 -1.25455 1.32541 0
M  V30 9879 C 927.82 1.69193 3.19462 0
M  V30 9880 O 927.541 3.08437 3.11125 0
M  V30 9881 C 929.042 1.59915 4.13451 0
M  V30 9882 H 926.262 0.378908 0.553778 0
M  V30 9883 H 928.806 1.6246 1.24206 0
M  V30 9884 H 926.961 1.18939 3.6869 0
M  V30 9885 H 927.375 3.37916 4.0114 0
M  V30 9886 H 928.849 2.07339 5.1158 0
M  V30 9887 H 929.326 0.556546 4.3566 0
M  V30 9888 H 929.932 2.09497 3.70123 0
M  V30 9889 N 928.247 -1.18576 1.03814 0
M  V30 9890 C 929.18 -2.20929 0.571463 0
M  V30 9891 C 930.158 -1.57788 -0.392636 0
M  V30 9892 O 931.342 -1.85974 -0.30754 0
M  V30 9893 C 928.469 -3.38295 -0.165504 0
M  V30 9894 C 927.515 -4.19828 0.751457 0
M  V30 9895 S 928.348 -4.86725 2.23291 0
M  V30 9896 C 929.504 -6.07494 1.50672 0
M  V30 9897 H 929.737 -2.60173 1.43866 0
M  V30 9898 H 927.27 -1.2897 0.84888 0
M  V30 9899 H 929.228 -4.06317 -0.584545 0
M  V30 9900 H 927.889 -2.97468 -1.00855 0
M  V30 9901 H 927.082 -5.03671 0.181986 0
M  V30 9902 H 926.684 -3.57172 1.10923 0
M  V30 9903 H 928.976 -6.72779 0.798377 0
M  V30 9904 H 929.919 -6.68942 2.3221 0
M  V30 9905 H 930.327 -5.55569 1.00016 0
M  V30 9906 N 929.725 -0.817259 -1.34754 0
M  V30 9907 C 930.672 -0.233108 -2.2962 0
M  V30 9908 C 931.642 0.638902 -1.53321 0
M  V30 9909 O 932.827 0.581739 -1.81715 0
M  V30 9910 C 929.967 0.603659 -3.39779 0
M  V30 9911 C 929.08 -0.289967 -4.31026 0
M  V30 9912 C 928.215 0.555825 -5.28284 0
M  V30 9913 C 927.254 -0.337539 -6.11169 0
M  V30 9914 N 926.391 0.468847 -7.00533 0
M  V30 9915 H 931.231 -1.04747 -2.78984 0
M  V30 9916 H 928.768 -0.528056 -1.37295 0
M  V30 9917 H 930.726 1.10407 -4.02326 0
M  V30 9918 H 929.356 1.38319 -2.91664 0
M  V30 9919 H 928.408 -0.908552 -3.69391 0
M  V30 9920 H 929.72 -0.977136 -4.89135 0
M  V30 9921 H 928.874 1.12094 -5.96255 0
M  V30 9922 H 927.613 1.27652 -4.70698 0
M  V30 9923 H 926.618 -0.914839 -5.42135 0
M  V30 9924 H 927.843 -1.05626 -6.70835 0
M  V30 9925 H 925.789 1.17332 -6.45422 0
M  V30 9926 H 925.706 -0.160052 -7.55831 0
M  V30 9927 H 926.974 1.01689 -7.72839 0
M  V30 9928 N 931.203 1.46865 -0.571711 0
M  V30 9929 C 932.449 2.0273 -0.0531858 0
M  V30 9930 C 932.782 1.44353 1.29907 0
M  V30 9931 O 932.057 0.604488 1.84868 0
M  V30 9932 C 932.34 3.60092 0.0243831 0
M  V30 9933 C 932.193 4.28874 -1.35599 0
M  V30 9934 C 933.512 4.33994 0.730563 0
M  V30 9935 H 930.631 0.736706 -0.0208018 0
M  V30 9936 H 933.273 1.75132 -0.736794 0
M  V30 9937 H 931.423 3.83736 0.606565 0
M  V30 9938 H 933.095 4.16527 -1.98249 0
M  V30 9939 H 931.338 3.88664 -1.92674 0
M  V30 9940 H 932.009 5.37561 -1.25429 0
M  V30 9941 H 934.485 4.1543 0.236098 0
M  V30 9942 H 933.361 5.43699 0.753836 0
M  V30 9943 H 933.622 4.04257 1.78967 0
M  V30 9944 N 932.681 0.308908 1.54543 0
M  V30 9945 C 933.644 -0.550857 2.22482 0
M  V30 9946 C 934.644 -1.0551 1.21344 0
M  V30 9947 O 935.834 -0.949866 1.46025 0
M  V30 9948 C 932.966 -1.76354 2.9174 0
M  V30 9949 H 934.159 0.0428395 2.99869 0
M  V30 9950 H 931.712 0.059825 1.56185 0
M  V30 9951 H 932.447 -2.39686 2.18451 0
M  V30 9952 H 932.232 -1.40954 3.65889 0
M  V30 9953 H 933.722 -2.37417 3.43545 0
M  V30 9954 N 934.159 -1.57557 0.0367827 0
M  V30 9955 C 935.405 -1.92399 -0.641133 0
M  V30 9956 C 935.738 -0.914191 -1.71336 0
M  V30 9957 O 935.013 0.0619616 -1.94401 0
M  V30 9958 C 935.296 -3.37689 -1.25052 0
M  V30 9959 C 935.149 -4.4941 -0.187326 0
M  V30 9960 C 936.468 -3.8309 -2.16634 0
M  V30 9961 H 933.587 -0.699666 -0.231597 0
M  V30 9962 H 936.229 -1.89759 0.0956083 0
M  V30 9963 H 934.379 -3.40069 -1.87843 0
M  V30 9964 H 936.051 -4.59161 0.443736 0
M  V30 9965 H 934.294 -4.31065 0.486313 0
M  V30 9966 H 934.965 -5.48119 -0.653459 0
M  V30 9967 H 937.441 -3.82494 -1.63821 0
M  V30 9968 H 936.317 -4.85429 -2.56222 0
M  V30 9969 H 936.578 -3.19028 -3.06062 0
M  V30 9970 N 935.637 0.236453 -1.55816 0
M  V30 9971 C 936.584 1.29289 -1.91188 0
M  V30 9972 C 937.554 1.47315 -0.767301 0
M  V30 9973 O 938.739 1.61128 -1.02189 0
M  V30 9974 C 935.879 2.64126 -2.22107 0
M  V30 9975 C 934.992 2.54022 -3.49423 0
M  V30 9976 C 934.127 3.81282 -3.69861 0
M  V30 9977 C 933.166 3.65839 -4.90743 0
M  V30 9978 N 932.303 4.85014 -5.07647 0
M  V30 9979 H 937.143 0.98424 -2.81277 0
M  V30 9980 H 934.68 0.474722 -1.39229 0
M  V30 9981 H 936.638 3.42626 -2.3804 0
M  V30 9982 H 935.268 2.93118 -1.35209 0
M  V30 9983 H 934.32 1.67036 -3.41765 0
M  V30 9984 H 935.632 2.38525 -4.38072 0
M  V30 9985 H 934.786 4.68226 -3.8581 0
M  V30 9986 H 933.525 3.99688 -2.79465 0
M  V30 9987 H 932.53 2.77279 -4.74759 0
M  V30 9988 H 933.755 3.48918 -5.82609 0
M  V30 9989 H 931.701 5.03762 -4.20191 0
M  V30 9990 H 931.618 4.72188 -5.90402 0
M  V30 9991 H 932.886 5.73427 -5.28017 0
M  V30 9992 N 937.115 1.49373 0.502552 0
M  V30 9993 C 938.048 1.60529 1.6219 0
M  V30 9994 C 939.026 0.454431 1.56121 0
M  V30 9995 O 940.21 0.669768 1.762 0
M  V30 9996 C 937.337 1.55879 3.00698 0
M  V30 9997 C 936.383 2.76143 3.25034 0
M  V30 9998 S 937.216 4.37831 3.08325 0
M  V30 9999 C 938.372 4.35824 4.49231 0
M  V30 10000 H 938.605 2.55219 1.52482 0
M  V30 10001 H 936.138 1.38244 0.687594 0
M  V30 10002 H 938.096 1.53882 3.80566 0
M  V30 10003 H 936.757 0.624791 3.07823 0
M  V30 10004 H 935.95 2.69104 4.26144 0
M  V30 10005 H 935.552 2.75544 2.52886 0
M  V30 10006 H 937.844 4.07447 5.41288 0
M  V30 10007 H 938.787 5.37206 4.6132 0
M  V30 10008 H 939.195 3.65923 4.29838 0
M  V30 10009 N 938.594 -0.753485 1.38421 0
M  V30 10010 C 939.524 -1.8808 1.38377 0
M  V30 10011 C 940.505 -1.68258 0.249664 0
M  V30 10012 O 941.69 -1.88848 0.45276 0
M  V30 10013 C 938.82 -3.25608 1.20818 0
M  V30 10014 C 937.774 -3.60032 2.31433 0
M  V30 10015 C 937.1 -4.96297 1.9898 0
M  V30 10016 C 938.4 -3.64898 3.73694 0
M  V30 10017 H 940.094 -1.88375 2.32713 0
M  V30 10018 H 937.64 -0.90489 1.12017 0
M  V30 10019 H 939.593 -4.04127 1.19412 0
M  V30 10020 H 938.317 -3.25793 0.229433 0
M  V30 10021 H 936.976 -2.83831 2.32025 0
M  V30 10022 H 936.624 -4.93043 0.995889 0
M  V30 10023 H 936.324 -5.20298 2.73063 0
M  V30 10024 H 937.848 -5.77196 1.99193 0
M  V30 10025 H 939.262 -4.33531 3.75132 0
M  V30 10026 H 937.659 -4.00407 4.46983 0
M  V30 10027 H 938.729 -2.65124 4.06002 0
M  V30 10028 N 940.072 -1.23292 -0.981677 0
M  V30 10029 C 941.019 -1.01296 -2.07383 0
M  V30 10030 C 941.989 0.069139 -1.65956 0
M  V30 10031 O 943.174 -0.0827108 -1.90621 0
M  V30 10032 C 940.314 -0.608876 -3.39686 0
M  V30 10033 C 939.427 -1.76296 -3.9439 0
M  V30 10034 C 938.562 -1.30578 -5.14901 0
M  V30 10035 C 937.601 -2.4307 -5.61768 0
M  V30 10036 N 936.738 -1.98319 -6.73509 0
M  V30 10037 H 941.578 -1.9478 -2.25532 0
M  V30 10038 H 939.115 -0.970356 -1.10555 0
M  V30 10039 H 941.073 -0.355702 -4.15681 0
M  V30 10040 H 939.703 0.288961 -3.21504 0
M  V30 10041 H 938.755 -2.13017 -3.15163 0
M  V30 10042 H 940.067 -2.60871 -4.25145 0
M  V30 10043 H 939.221 -1.01066 -5.98223 0
M  V30 10044 H 937.96 -0.430386 -4.85797 0
M  V30 10045 H 936.965 -2.73358 -4.77028 0
M  V30 10046 H 938.19 -3.31144 -5.92892 0
M  V30 10047 H 936.136 -1.13157 -6.46167 0
M  V30 10048 H 936.053 -2.76454 -7.0364 0
M  V30 10049 H 937.321 -1.71907 -7.60308 0
M  V30 10050 N 941.55 1.18024 -1.04442 0
M  V30 10051 C 942.775 1.92573 -0.770097 0
M  V30 10052 C 943.2 1.75871 0.667169 0
M  V30 10053 O 942.558 1.07136 1.46258 0
M  V30 10054 C 942.606 3.41904 -1.14602 0
M  V30 10055 O 941.71 4.11491 -0.273712 0
M  V30 10056 H 941.051 0.600636 -0.283076 0
M  V30 10057 H 943.581 1.49645 -1.39526 0
M  V30 10058 H 943.591 3.92623 -1.10956 0
M  V30 10059 H 942.266 3.53382 -2.19304 0
M  V30 10060 H 940.843 3.71059 -0.370124 0
M  V30 10061 N 943.028 0.824394 1.34319 0
M  V30 10062 C 944.256 0.426194 2.02463 0
M  V30 10063 C 944.671 -0.968298 1.62078 0
M  V30 10064 O 944.028 -1.62689 0.82696 0
M  V30 10065 C 944.079 0.520465 3.57734 0
M  V30 10066 O 943.8 1.86 3.96656 0
M  V30 10067 C 945.301 0.117353 4.43145 0
M  V30 10068 H 942.521 0.170864 0.648881 0
M  V30 10069 H 945.065 1.11296 1.71562 0
M  V30 10070 H 943.22 -0.118233 3.8722 0
M  V30 10071 H 943.634 1.83528 4.91343 0
M  V30 10072 H 945.108 0.234395 5.51502 0
M  V30 10073 H 945.585 -0.939271 4.29039 0
M  V30 10074 H 946.191 0.729908 4.1899 0
M  V30 10075 N 944.506 -1.46559 0.579492 0
M  V30 10076 C 945.469 -2.28739 -0.145371 0
M  V30 10077 C 946.469 -1.38211 -0.821854 0
M  V30 10078 O 947.659 -1.6062 -0.674302 0
M  V30 10079 C 944.791 -3.18507 -1.21515 0
M  V30 10080 H 945.984 -2.94301 0.576786 0
M  V30 10081 H 943.537 -1.52616 0.337327 0
M  V30 10082 H 944.272 -2.57685 -1.96899 0
M  V30 10083 H 944.057 -3.85157 -0.734616 0
M  V30 10084 H 945.547 -3.80369 -1.72363 0
M  V30 10085 N 945.984 -0.3171 -1.54377 0
M  V30 10086 C 947.4 0.035766 -1.5956 0
M  V30 10087 C 947.6 1.51038 -1.33378 0
M  V30 10088 O 946.656 2.26546 -1.11505 0
M  V30 10089 C 947.969 -0.376652 -2.98332 0
M  V30 10090 C 949.517 -0.326765 -3.1129 0
M  V30 10091 C 949.992 -0.714247 -4.52396 0
M  V30 10092 N 951.483 -0.667402 -4.58367 0
M  V30 10093 C 952.218 -0.939494 -5.65651 0
M  V30 10094 N 951.714 -1.27839 -6.80903 0
M  V30 10095 N 953.507 -0.865484 -5.55397 0
M  V30 10096 H 945.658 -1.27794 -1.69654 0
M  V30 10097 H 947.921 -0.5192 -0.79318 0
M  V30 10098 H 947.627 -1.40381 -3.22469 0
M  V30 10099 H 947.501 0.261611 -3.76292 0
M  V30 10100 H 949.888 0.69117 -2.86892 0
M  V30 10101 H 949.969 -0.999873 -2.35449 0
M  V30 10102 H 949.613 -1.73007 -4.77526 0
M  V30 10103 H 949.543 -0.0188962 -5.26597 0
M  V30 10104 H 952.034 -0.417062 -3.75592 0
M  V30 10105 H 952.347 -1.47155 -7.5866 0
M  V30 10106 H 950.692 -1.31658 -6.82416 0
M  V30 10107 H 953.883 -0.600265 -4.64235 0
M  V30 10108 H 954.056 -1.0809 -6.38921 0
M  V30 10109 N 947.462 1.57535 -0.0451378 0
M  V30 10110 C 948.687 1.97172 0.64326 0
M  V30 10111 C 949.112 0.922266 1.63939 0
M  V30 10112 O 948.47 -0.115155 1.80934 0
M  V30 10113 C 948.518 3.35889 1.3119 0
M  V30 10114 O 947.622 3.33387 2.42748 0
M  V30 10115 H 946.963 0.642469 0.167719 0
M  V30 10116 H 949.493 2.04295 -0.111747 0
M  V30 10117 H 949.503 3.72481 1.66499 0
M  V30 10118 H 948.178 4.1181 0.581823 0
M  V30 10119 H 946.755 3.08533 2.09432 0
M  V30 10120 N 948.94 -0.228186 1.55939 0
M  V30 10121 C 950.165 -0.974795 1.83064 0
M  V30 10122 C 950.59 -1.77426 0.624624 0
M  V30 10123 O 949.948 -1.76211 -0.426556 0
M  V30 10124 C 949.996 -1.87342 3.08116 0
M  V30 10125 O 949.1 -2.96784 2.86344 0
M  V30 10126 H 948.441 -0.276379 0.603747 0
M  V30 10127 H 950.971 -0.243507 2.03146 0
M  V30 10128 H 950.981 -2.28451 3.38045 0
M  V30 10129 H 949.656 -1.28575 3.95526 0
M  V30 10130 H 948.233 -2.59669 2.67631 0
M  V30 10131 N 950.418 -1.49637 -0.494624 0
M  V30 10132 C 951.328 -1.69522 -1.62172 0
M  V30 10133 C 952.344 -0.577894 -1.64123 0
M  V30 10134 O 953.52 -0.853382 -1.82426 0
M  V30 10135 C 950.585 -1.7633 -2.9851 0
M  V30 10136 C 949.646 -2.99944 -3.07135 0
M  V30 10137 C 948.879 -3.06419 -4.36971 0
M  V30 10138 O 949.102 -2.20312 -5.26136 0
M  V30 10139 O 948.036 -3.9894 -4.507 0
M  V30 10140 H 951.862 -2.65017 -1.48324 0
M  V30 10141 H 949.447 -1.33454 -0.671603 0
M  V30 10142 H 951.329 -1.83125 -3.7953 0
M  V30 10143 H 950.004 -0.840155 -3.12607 0
M  V30 10144 H 948.911 -2.98664 -2.2528 0
M  V30 10145 H 950.244 -3.9176 -2.97968 0
M  V30 10146 N 951.896 0.746133 -1.38819 0
M  V30 10147 C 952.843 1.86001 -1.36647 0
M  V30 10148 C 953.813 1.6453 -0.227849 0
M  V30 10149 O 954.998 1.86092 -0.421241 0
M  V30 10150 C 952.138 3.23388 -1.20474 0
M  V30 10151 C 951.251 3.5664 -2.43786 0
M  V30 10152 C 950.386 4.8337 -2.20287 0
M  V30 10153 C 949.425 5.09431 -3.39332 0
M  V30 10154 N 948.562 6.2736 -3.1522 0
M  V30 10155 H 953.402 1.87192 -2.31869 0
M  V30 10156 H 950.939 0.914838 -1.15192 0
M  V30 10157 H 952.897 4.02679 -1.09112 0
M  V30 10158 H 951.527 3.21505 -0.288874 0
M  V30 10159 H 950.579 2.72135 -2.65794 0
M  V30 10160 H 951.891 3.71823 -3.3249 0
M  V30 10161 H 951.045 5.70619 -2.06103 0
M  V30 10162 H 949.784 4.70341 -1.28961 0
M  V30 10163 H 948.789 4.20648 -3.54027 0
M  V30 10164 H 950.014 5.24354 -4.31544 0
M  V30 10165 H 947.96 6.15639 -2.26549 0
M  V30 10166 H 947.877 6.43078 -3.97476 0
M  V30 10167 H 949.145 7.17477 -3.04707 0
M  V30 10168 N 953.375 1.23811 0.975125 0
M  V30 10169 C 954.307 0.981779 2.07108 0
M  V30 10170 C 955.32 -0.0461211 1.62735 0
M  V30 10171 O 956.509 0.190039 1.77486 0
M  V30 10172 C 953.609 0.458364 3.35786 0
M  V30 10173 C 952.782 1.54767 4.09104 0
M  V30 10174 C 951.841 1.0282 5.16057 0
M  V30 10175 O 950.867 1.71831 5.42644 0
M  V30 10176 N 952.069 -0.141243 5.80328 0
M  V30 10177 H 954.834 1.92537 2.29673 0
M  V30 10178 H 952.395 1.1474 1.14221 0
M  V30 10179 H 954.387 0.0957686 4.04587 0
M  V30 10180 H 952.957 -0.390768 3.10148 0
M  V30 10181 H 952.177 2.08279 3.34684 0
M  V30 10182 H 953.465 2.28006 4.54853 0
M  V30 10183 H 952.863 -0.718382 5.6112 0
M  V30 10184 H 951.42 -0.445052 6.50279 0
M  V30 10185 N 954.853 -1.17469 1.05066 0
M  V30 10186 C 955.816 -2.19648 0.654793 0
M  V30 10187 C 956.816 -1.58107 -0.293063 0
M  V30 10188 O 958.006 -1.74029 -0.077106 0
M  V30 10189 C 955.138 -3.40878 -0.0384437 0
M  V30 10190 H 956.331 -2.56184 1.55915 0
M  V30 10191 H 953.884 -1.31528 0.844396 0
M  V30 10192 H 954.619 -3.09885 -0.956133 0
M  V30 10193 H 954.404 -3.86792 0.642961 0
M  V30 10194 H 955.894 -4.1651 -0.301568 0
M  V30 10195 N 956.331 -0.831506 -1.3388 0
M  V30 10196 C 957.261 -0.274378 -2.31882 0
M  V30 10197 C 958.242 0.613872 -1.58637 0
M  V30 10198 O 959.427 0.538961 -1.86571 0
M  V30 10199 C 956.557 0.557498 -3.42796 0
M  V30 10200 C 955.511 -0.234337 -4.27358 0
M  V30 10201 C 954.837 0.720825 -5.29819 0
M  V30 10202 C 956.137 -1.44732 -5.01847 0
M  V30 10203 H 957.831 -1.09322 -2.78728 0
M  V30 10204 H 955.377 -0.527136 -1.34005 0
M  V30 10205 H 957.33 0.957501 -4.10378 0
M  V30 10206 H 956.054 1.40947 -2.94621 0
M  V30 10207 H 954.713 -0.61581 -3.61391 0
M  V30 10208 H 954.361 1.569 -4.77903 0
M  V30 10209 H 954.061 0.195171 -5.87276 0
M  V30 10210 H 955.585 1.1185 -6.00268 0
M  V30 10211 H 956.999 -1.12087 -5.62236 0
M  V30 10212 H 955.396 -1.90923 -5.68919 0
M  V30 10213 H 956.466 -2.22099 -4.31045 0
M  V30 10214 N 957.809 1.4625 -0.587256 0
M  V30 10215 C 958.742 2.27392 0.191837 0
M  V30 10216 C 959.72 1.35905 0.89267 0
M  V30 10217 O 960.904 1.65319 0.905643 0
M  V30 10218 C 958.031 3.13758 1.27567 0
M  V30 10219 C 957.077 4.21041 0.680186 0
M  V30 10220 S 957.91 5.33194 -0.496419 0
M  V30 10221 C 959.066 6.23127 0.588506 0
M  V30 10222 H 959.299 2.93123 -0.496635 0
M  V30 10223 H 956.832 1.49795 -0.37426 0
M  V30 10224 H 958.79 3.6408 1.8962 0
M  V30 10225 H 957.451 2.47332 1.93612 0
M  V30 10226 H 956.644 4.81316 1.49503 0
M  V30 10227 H 956.246 3.73755 0.135227 0
M  V30 10228 H 958.538 6.61294 1.47298 0
M  V30 10229 H 959.481 7.08096 0.0224093 0
M  V30 10230 H 959.889 5.57365 0.894696 0
M  V30 10231 N 959.287 0.325282 1.54207 0
M  V30 10232 C 960.512 -0.281418 2.05482 0
M  V30 10233 C 960.937 -1.44869 1.19977 0
M  V30 10234 O 960.295 -1.80088 0.209275 0
M  V30 10235 C 960.343 -0.692029 3.53897 0
M  V30 10236 O 959.447 -1.7942 3.71325 0
M  V30 10237 H 958.788 -0.0504872 0.662078 0
M  V30 10238 H 961.318 0.474191 1.99029 0
M  V30 10239 H 961.328 -0.974219 3.96198 0
M  V30 10240 H 960.003 0.161709 4.15586 0
M  V30 10241 H 958.58 -1.51069 3.40929 0
M  V30 10242 N 960.765 -1.57509 0.0534917 0
M  V30 10243 C 961.675 -2.15152 -0.935249 0
M  V30 10244 C 962.691 -1.10991 -1.34003 0
M  V30 10245 O 963.867 -1.43171 -1.41648 0
M  V30 10246 C 960.932 -2.68699 -2.19093 0
M  V30 10247 C 959.993 -3.87666 -1.84428 0
M  V30 10248 C 959.226 -4.3865 -3.0401 0
M  V30 10249 O 959.449 -3.887 -4.17455 0
M  V30 10250 O 958.383 -5.30209 -2.84889 0
M  V30 10251 H 962.209 -2.99962 -0.475009 0
M  V30 10252 H 959.794 -1.48446 -0.16854 0
M  V30 10253 H 961.676 -3.03098 -2.92762 0
M  V30 10254 H 960.351 -1.86958 -2.6425 0
M  V30 10255 H 959.258 -3.58151 -1.08068 0
M  V30 10256 H 960.591 -4.70643 -1.44068 0
M  V30 10257 N 962.243 0.219913 -1.56058 0
M  V30 10258 C 963.173 1.27572 -1.9557 0
M  V30 10259 C 964.154 1.48801 -0.824148 0
M  V30 10260 O 965.339 1.60957 -1.08658 0
M  V30 10261 C 962.469 2.62517 -2.27381 0
M  V30 10262 C 961.423 2.55941 -3.43042 0
M  V30 10263 C 960.749 3.94931 -3.60463 0
M  V30 10264 C 962.049 2.10584 -4.77966 0
M  V30 10265 H 963.743 0.947482 -2.84013 0
M  V30 10266 H 961.289 0.454337 -1.36645 0
M  V30 10267 H 963.242 3.36538 -2.53615 0
M  V30 10268 H 961.966 2.97031 -1.35794 0
M  V30 10269 H 960.625 1.84377 -3.1686 0
M  V30 10270 H 960.273 4.26756 -2.66249 0
M  V30 10271 H 959.973 3.91413 -4.38258 0
M  V30 10272 H 961.497 4.70611 -3.89046 0
M  V30 10273 H 962.911 2.74349 -5.03394 0
M  V30 10274 H 961.308 2.18122 -5.59055 0
M  V30 10275 H 962.378 1.05818 -4.73213 0
M  V30 10276 N 963.721 1.49897 0.486681 0
M  V30 10277 C 964.668 1.67619 1.58658 0
M  V30 10278 C 965.638 0.517537 1.57831 0
M  V30 10279 O 966.823 0.746272 1.756 0
M  V30 10280 C 963.963 1.762 2.96728 0
M  V30 10281 C 963.076 3.03465 3.07462 0
M  V30 10282 C 962.211 3.02937 4.36351 0
M  V30 10283 C 961.25 4.24721 4.4077 0
M  V30 10284 N 960.387 4.22021 5.61108 0
M  V30 10285 H 965.227 2.61528 1.42853 0
M  V30 10286 H 962.764 1.29657 0.694807 0
M  V30 10287 H 964.722 1.79156 3.76774 0
M  V30 10288 H 963.352 0.857452 3.11203 0
M  V30 10289 H 962.404 3.10054 2.20387 0
M  V30 10290 H 963.716 3.93454 3.06586 0
M  V30 10291 H 962.87 3.04536 5.24731 0
M  V30 10292 H 961.609 2.10751 4.39813 0
M  V30 10293 H 960.614 4.23352 3.5079 0
M  V30 10294 H 961.839 5.18116 4.39013 0
M  V30 10295 H 959.785 3.3268 5.65385 0
M  V30 10296 H 959.702 5.05761 5.61909 0
M  V30 10297 H 960.97 4.27743 6.51656 0
M  V30 10298 N 965.199 -0.738761 1.39212 0
M  V30 10299 C 966.448 -1.49368 1.35543 0
M  V30 10300 C 966.761 -1.95543 -0.0471091 0
M  V30 10301 O 967.967 -2.70714 -0.206376 0
M  V30 10302 C 966.423 -2.69882 2.381 0
M  V30 10303 C 966.031 -2.30672 3.8405 0
M  V30 10304 C 967.775 -3.47718 2.435 0
M  V30 10305 C 965.682 -3.47886 4.78256 0
M  V30 10306 H 964.612 -0.560898 0.503894 0
M  V30 10307 H 967.263 -0.806221 1.6484 0
M  V30 10308 H 965.645 -3.40684 2.01867 0
M  V30 10309 H 966.819 -1.67441 4.29302 0
M  V30 10310 H 965.134 -1.65936 3.81909 0
M  V30 10311 H 967.731 -4.34897 3.11077 0
M  V30 10312 H 968.074 -3.89919 1.45838 0
M  V30 10313 H 968.607 -2.83942 2.78606 0
M  V30 10314 H 965.346 -3.10739 5.77167 0
M  V30 10315 H 964.866 -4.10111 4.37686 0
M  V30 10316 H 966.545 -4.14271 4.96979 0
M  V30 10317 N 966.677 -1.24326 -0.968545 0
M  V30 10318 C 967.61 -0.978121 -2.06175 0
M  V30 10319 C 968.588 0.0878107 -1.62363 0
M  V30 10320 O 969.772 -0.0489472 -1.88436 0
M  V30 10321 C 966.899 -0.475884 -3.3534 0
M  V30 10322 C 965.945 -1.53023 -3.98103 0
M  V30 10323 S 966.778 -3.11131 -4.35841 0
M  V30 10324 C 967.934 -2.62608 -5.68144 0
M  V30 10325 H 968.167 -1.9038 -2.28348 0
M  V30 10326 H 965.7 -1.07701 -1.10633 0
M  V30 10327 H 967.658 -0.192739 -4.10047 0
M  V30 10328 H 966.319 0.429067 -3.11156 0
M  V30 10329 H 965.512 -1.12922 -4.91187 0
M  V30 10330 H 965.114 -1.76334 -3.29822 0
M  V30 10331 H 967.406 -2.05367 -6.45624 0
M  V30 10332 H 968.349 -3.54277 -6.13101 0
M  V30 10333 H 968.757 -2.03063 -5.26712 0
M  V30 10334 N 968.156 1.1691 -1.05688 0
M  V30 10335 C 969.381 1.91745 -0.790478 0
M  V30 10336 C 969.806 1.76568 0.648478 0
M  V30 10337 O 969.164 1.08682 1.45114 0
M  V30 10338 C 969.212 3.4067 -1.18222 0
M  V30 10339 O 968.316 4.11177 -0.317341 0
M  V30 10340 H 967.657 0.5976 -0.28943 0
M  V30 10341 H 970.187 1.48157 -1.41105 0
M  V30 10342 H 970.197 3.91424 -1.15114 0
M  V30 10343 H 968.872 3.51036 -2.2304 0
M  V30 10344 H 967.449 3.70645 -0.409459 0
M  V30 10345 N 969.634 0.838594 1.33437 0
M  V30 10346 C 970.584 0.243681 2.26694 0
M  V30 10347 C 971.568 -0.601168 1.49247 0
M  V30 10348 O 972.76 -0.453181 1.711 0
M  V30 10349 C 969.889 -0.580525 3.38356 0
M  V30 10350 C 968.975 0.275819 4.23202 0
M  V30 10351 N 969.366 1.3544 4.87329 0
M  V30 10352 C 967.664 0.0628047 4.45956 0
M  V30 10353 C 968.365 1.87991 5.50486 0
M  V30 10354 N 967.341 1.18143 5.30607 0
M  V30 10355 H 971.143 1.06849 2.73789 0
M  V30 10356 H 968.657 0.683019 1.47338 0
M  V30 10357 H 970.654 -1.02301 4.04153 0
M  V30 10358 H 969.314 -1.40331 2.92809 0
M  V30 10359 H 970.325 1.73729 4.87892 0
M  V30 10360 H 967.002 -0.726563 4.11129 0
M  V30 10361 H 968.392 2.78312 6.11549 0
M  V30 10362 N 971.112 -1.45937 0.595003 0
M  V30 10363 C 972.042 -2.33198 -0.11871 0
M  V30 10364 C 973.023 -1.46083 -0.871423 0
M  V30 10365 O 974.208 -1.74879 -0.844461 0
M  V30 10366 C 971.338 -3.28576 -1.12495 0
M  V30 10367 C 970.292 -4.25229 -0.486275 0
M  V30 10368 C 969.618 -5.10204 -1.59986 0
M  V30 10369 C 970.918 -5.19019 0.584473 0
M  V30 10370 H 972.612 -2.93122 0.609886 0
M  V30 10371 H 970.158 -1.40951 0.294742 0
M  V30 10372 H 972.111 -3.88485 -1.6327 0
M  V30 10373 H 970.835 -2.66784 -1.88398 0
M  V30 10374 H 969.494 -3.666 0.000507962 0
M  V30 10375 H 969.142 -4.44789 -2.34886 0
M  V30 10376 H 968.842 -5.75669 -1.1781 0
M  V30 10377 H 970.366 -5.7298 -2.11014 0
M  V30 10378 H 971.78 -5.73073 0.161297 0
M  V30 10379 H 970.177 -5.92893 0.927256 0
M  V30 10380 H 971.247 -4.62208 1.46601 0
M  V30 10381 N 972.59 -0.333456 -1.54032 0
M  V30 10382 C 973.838 0.265608 -2.00347 0
M  V30 10383 C 974.159 1.51873 -1.2231 0
M  V30 10384 O 973.429 1.93142 -0.327549 0
M  V30 10385 H 972.009 0.101135 -0.740122 0
M  V30 10386 H 974.671 -0.452285 -1.8958 0
M  V30 10387 H 973.767 0.51511 -3.0782 0
M  V30 10388 N 974.068 1.57479 -0.061844 0
M  V30 10389 C 975.479 1.80627 0.472295 0
M  V30 10390 C 975.83 0.97496 1.70261 0
M  V30 10391 O 974.955 0.1946 2.15523 0
M  V30 10392 C 975.55 3.27608 0.863616 0
M  V30 10393 C 974.109 3.51638 1.34267 0
M  V30 10394 C 973.256 2.75412 0.323009 0
M  V30 10395 H 976.207 1.56072 -0.287634 0
M  V30 10396 H 976.228 3.39113 1.72577 0
M  V30 10397 H 975.74 3.88087 -0.0320226 0
M  V30 10398 H 973.841 2.96452 2.25714 0
M  V30 10399 H 973.954 4.60342 1.32747 0
M  V30 10400 H 972.318 2.4187 0.798175 0
M  V30 10401 H 973.101 3.38623 -0.564729 0
M  V30 10402 N 975.546 -0.211634 1.56173 0
M  V30 10403 C 976.496 -1.26602 1.8962 0
M  V30 10404 C 977.48 -1.41808 0.760222 0
M  V30 10405 O 978.672 -1.44456 1.02281 0
M  V30 10406 C 975.801 -2.61438 2.22497 0
M  V30 10407 C 974.887 -2.50094 3.42511 0
M  V30 10408 N 975.278 -2.0841 4.60868 0
M  V30 10409 C 973.576 -2.81028 3.46322 0
M  V30 10410 C 974.277 -2.08557 5.43028 0
M  V30 10411 N 973.253 -2.49427 4.82998 0
M  V30 10412 H 977.055 -0.934806 2.78637 0
M  V30 10413 H 974.569 -0.420154 1.56871 0
M  V30 10414 H 976.566 -3.37577 2.44638 0
M  V30 10415 H 975.226 -2.95397 1.34798 0
M  V30 10416 H 976.237 -1.79382 4.85842 0
M  V30 10417 H 972.914 -3.19294 2.68994 0
M  V30 10418 H 974.304 -1.7837 6.47791 0
M  V30 10419 N 977.024 -1.50153 -0.478725 0
M  V30 10420 C 977.954 -1.71384 -1.58587 0
M  V30 10421 C 978.935 -0.562705 -1.60523 0
M  V30 10422 O 980.12 -0.80101 -1.76911 0
M  V30 10423 C 977.25 -1.80094 -2.96957 0
M  V30 10424 C 976.204 -2.95218 -3.09888 0
M  V30 10425 C 975.53 -2.89063 -4.49829 0
M  V30 10426 C 976.83 -4.35841 -2.8782 0
M  V30 10427 H 978.524 -2.64081 -1.41073 0
M  V30 10428 H 976.07 -1.27081 -0.677239 0
M  V30 10429 H 978.023 -1.93531 -3.74331 0
M  V30 10430 H 976.747 -0.840131 -3.1561 0
M  V30 10431 H 975.406 -2.81419 -2.34944 0
M  V30 10432 H 975.054 -1.90844 -4.6539 0
M  V30 10433 H 974.754 -3.66345 -4.59418 0
M  V30 10434 H 976.278 -3.04539 -5.29234 0
M  V30 10435 H 977.692 -4.50205 -3.54948 0
M  V30 10436 H 976.089 -5.14515 -3.0886 0
M  V30 10437 H 977.159 -4.48739 -1.83742 0
M  V30 10438 N 978.502 0.731368 -1.39602 0
M  V30 10439 C 979.45 1.86676 -1.38761 0
M  V30 10440 C 980.444 1.6723 -0.270247 0
M  V30 10441 O 981.65 1.74528 -0.440471 0
M  V30 10442 H 978.025 0.614553 -0.433391 0
M  V30 10443 H 979.996 1.84501 -2.34525 0
M  V30 10444 C 978.745 3.24394 -1.25155 0
M  V30 10445 H 978.068 3.39955 -2.10406 0
M  V30 10446 H 979.508 4.04019 -1.28625 0
M  V30 10447 C 977.967 3.36877 0.0396976 0
M  V30 10448 O 978.497 3.88833 1.00854 0
M  V30 10449 N 976.703 2.90414 0.103965 0
M  V30 10450 H 976.25 2.48321 -0.685155 0
M  V30 10451 H 976.208 2.99146 0.967435 0
M  V30 10452 N 979.98 1.24838 0.961938 0
M  V30 10453 C 981.226 1.09313 1.70817 0
M  V30 10454 C 981.559 -0.366244 1.90715 0
M  V30 10455 O 980.834 -1.27036 1.47282 0
M  V30 10456 C 981.117 1.83988 3.09549 0
M  V30 10457 C 980.97 3.3771 2.97106 0
M  V30 10458 C 982.289 1.61718 4.09311 0
M  V30 10459 H 979.408 0.398498 0.619974 0
M  V30 10460 H 982.05 1.53579 1.11864 0
M  V30 10461 H 980.2 1.46363 3.59875 0
M  V30 10462 H 981.872 3.84967 2.54161 0
M  V30 10463 H 980.115 3.65795 2.33187 0
M  V30 10464 H 980.786 3.85166 3.95412 0
M  V30 10465 H 983.262 1.94458 3.67866 0
M  V30 10466 H 982.138 2.16415 5.04436 0
M  V30 10467 H 982.399 0.55677 4.3858 0
M  V30 10468 N 981.458 -1.16348 1.06306 0
M  V30 10469 C 982.704 -1.87158 0.781007 0
M  V30 10470 C 983.037 -1.81499 -0.690784 0
M  V30 10471 O 982.312 -1.23074 -1.50609 0
M  V30 10472 C 982.595 -3.3672 1.27639 0
M  V30 10473 C 982.448 -3.51069 2.81194 0
M  V30 10474 C 983.767 -4.31122 0.884388 0
M  V30 10475 H 980.886 -0.679586 0.285187 0
M  V30 10476 H 983.528 -1.36756 1.31901 0
M  V30 10477 H 981.678 -3.79775 0.818715 0
M  V30 10478 H 983.35 -3.16952 3.35171 0
M  V30 10479 H 981.593 -2.92976 3.19918 0
M  V30 10480 H 982.264 -4.56105 3.10921 0
M  V30 10481 H 984.74 -3.95969 1.27858 0
M  V30 10482 H 983.616 -5.34279 1.25847 0
M  V30 10483 H 983.877 -4.41598 -0.210673 0
M  V30 10484 N 982.937 -0.845659 -1.3299 0
M  V30 10485 C 983.885 -0.272412 -2.30999 0
M  V30 10486 C 984.879 0.599311 -1.58444 0
M  V30 10487 O 986.085 0.488117 -1.73255 0
M  V30 10488 H 982.46 -0.0693751 -0.748793 0
M  V30 10489 H 984.431 -1.11343 -2.76849 0
M  V30 10490 C 983.18 0.532019 -3.43606 0
M  V30 10491 H 982.503 -0.129455 -3.9959 0
M  V30 10492 H 983.943 0.898853 -4.14363 0
M  V30 10493 C 982.402 1.71364 -2.90062 0
M  V30 10494 O 982.932 2.81252 -2.8681 0
M  V30 10495 N 981.138 1.53775 -2.4658 0
M  V30 10496 H 980.685 0.643836 -2.49424 0
M  V30 10497 H 980.643 2.32982 -2.11108 0
M  V30 10498 N 984.415 1.45619 -0.602734 0
M  V30 10499 C 985.345 2.33258 0.106342 0
M  V30 10500 C 986.326 1.46543 0.863664 0
M  V30 10501 O 987.511 1.75324 0.835175 0
M  V30 10502 C 984.641 3.29168 1.10751 0
M  V30 10503 C 983.595 4.25481 0.463717 0
M  V30 10504 C 982.921 5.11046 1.57278 0
M  V30 10505 C 984.221 5.18702 -0.61199 0
M  V30 10506 H 985.915 2.92795 -0.625423 0
M  V30 10507 H 983.461 1.40793 -0.302213 0
M  V30 10508 H 985.414 3.89346 1.61208 0
M  V30 10509 H 984.138 2.6778 1.8698 0
M  V30 10510 H 982.797 3.66595 -0.0199496 0
M  V30 10511 H 982.445 4.46029 2.32524 0
M  V30 10512 H 982.145 5.76286 1.14755 0
M  V30 10513 H 983.669 5.74091 2.07972 0
M  V30 10514 H 985.083 5.72979 -0.191686 0
M  V30 10515 H 983.48 5.92393 -0.958686 0
M  V30 10516 H 984.55 4.61424 -1.4905 0
M  V30 10517 N 985.893 0.34162 1.53853 0
M  V30 10518 C 986.823 -0.508431 2.27897 0
M  V30 10519 C 987.804 -1.10425 1.29384 0
M  V30 10520 O 988.989 -1.126 1.58224 0
M  V30 10521 C 986.119 -1.66048 3.05034 0
M  V30 10522 C 985.073 -1.19309 4.11035 0
M  V30 10523 C 984.399 -2.4335 4.76114 0
M  V30 10524 C 985.699 -0.294952 5.21467 0
M  V30 10525 H 987.393 0.109251 2.99201 0
M  V30 10526 H 984.939 0.0539847 1.43899 0
M  V30 10527 H 986.892 -2.26158 3.5557 0
M  V30 10528 H 985.616 -2.30503 2.31379 0
M  V30 10529 H 984.275 -0.614809 3.61408 0
M  V30 10530 H 983.923 -3.06208 3.99056 0
M  V30 10531 H 983.623 -2.1276 5.47729 0
M  V30 10532 H 985.147 -3.0419 5.29434 0
M  V30 10533 H 986.561 -0.80285 5.67651 0
M  V30 10534 H 984.958 -0.0810221 6.00045 0
M  V30 10535 H 986.028 0.669433 4.80257 0
M  V30 10536 N 987.371 -1.57444 0.0701946 0
M  V30 10537 C 988.619 -1.93047 -0.598106 0
M  V30 10538 C 988.94 -0.950841 -1.70247 0
M  V30 10539 O 988.21 0.00127177 -1.959 0
M  V30 10540 H 986.79 -0.712648 -0.223924 0
M  V30 10541 H 989.452 -1.94481 0.127674 0
M  V30 10542 H 988.548 -2.94807 -1.02445 0
M  V30 10543 N 988.849 0.203349 -1.56283 0
M  V30 10544 C 989.812 1.23566 -1.93039 0
M  V30 10545 C 990.812 1.38869 -0.810687 0
M  V30 10546 O 992.002 1.36822 -1.07821 0
M  V30 10547 C 989.134 2.60645 -2.1972 0
M  V30 10548 H 990.327 0.921692 -2.85385 0
M  V30 10549 H 987.88 0.44453 -1.49845 0
M  V30 10550 H 988.615 2.9711 -1.29985 0
M  V30 10551 H 988.4 2.50911 -3.01307 0
M  V30 10552 H 989.89 3.35103 -2.4919 0
M  V30 10553 N 990.327 1.50405 0.470755 0
M  V30 10554 C 991.567 1.63049 1.23266 0
M  V30 10555 C 991.931 0.323815 1.8925 0
M  V30 10556 O 993.132 0.325692 2.6682 0
M  V30 10557 C 991.403 2.7783 2.24823 0
M  V30 10558 S 992.962 3.10609 3.09948 0
M  V30 10559 H 989.78 0.574787 0.418499 0
M  V30 10560 H 992.382 1.8819 0.529619 0
M  V30 10561 H 991.086 3.71252 1.74929 0
M  V30 10562 H 990.617 2.54776 2.99755 0
M  V30 10563 H 992.632 2.5446 4.25987 0
M  V30 10564 N 991.805 -0.723954 1.39988 0
M  V30 10565 C 993.033 -1.51313 1.4111 0
M  V30 10566 C 993.448 -1.88798 0.00853333 0
M  V30 10567 O 992.805 -1.54868 -0.965516 0
M  V30 10568 C 992.856 -2.79375 2.29416 0
M  V30 10569 O 992.577 -2.43478 3.64211 0
M  V30 10570 C 994.078 -3.7333 2.3904 0
M  V30 10571 H 991.298 -0.46724 0.481589 0
M  V30 10572 H 993.842 -0.893694 1.83938 0
M  V30 10573 H 991.997 -3.37624 1.89971 0
M  V30 10574 H 992.411 -3.25821 4.11024 0
M  V30 10575 H 993.885 -4.60051 3.05053 0
M  V30 10576 H 994.362 -4.15854 1.41289 0
M  V30 10577 H 994.968 -3.20996 2.79001 0
M  V30 10578 N 993.283 -1.25346 -0.955304 0
M  V30 10579 C 994.23 -1.05672 -2.05188 0
M  V30 10580 C 995.2 0.0339217 -1.66065 0
M  V30 10581 O 996.385 -0.123126 -1.90402 0
M  V30 10582 C 993.525 -0.680791 -3.38318 0
M  V30 10583 C 992.638 -1.84622 -3.90562 0
M  V30 10584 C 991.773 -1.41471 -5.12015 0
M  V30 10585 C 990.812 -2.54931 -5.56486 0
M  V30 10586 N 989.949 -2.1256 -6.69151 0
M  V30 10587 H 994.789 -1.9952 -2.2135 0
M  V30 10588 H 992.326 -0.993588 -1.08472 0
M  V30 10589 H 994.284 -0.443794 -4.14833 0
M  V30 10590 H 992.914 0.2207 -3.22045 0
M  V30 10591 H 991.966 -2.19654 -3.10574 0
M  V30 10592 H 993.278 -2.6983 -4.19515 0
M  V30 10593 H 992.432 -1.13732 -5.95945 0
M  V30 10594 H 991.171 -0.533334 -4.84775 0
M  V30 10595 H 990.176 -2.83415 -4.71122 0
M  V30 10596 H 991.401 -3.43645 -5.85734 0
M  V30 10597 H 989.347 -1.26838 -6.43621 0
M  V30 10598 H 989.264 -2.91317 -6.97618 0
M  V30 10599 H 990.532 -1.87996 -7.5649 0
M  V30 10600 N 994.761 1.15782 -1.06922 0
M  V30 10601 C 996.009 1.86097 -0.788192 0
M  V30 10602 C 996.33 1.82475 0.687606 0
M  V30 10603 O 995.6 1.26266 1.49778 0
M  V30 10604 H 994.18 0.689008 -0.288577 0
M  V30 10605 H 996.842 1.40377 -1.35205 0
M  V30 10606 H 995.938 2.91358 -1.1188 0
M  V30 10607 N 996.239 0.8527 1.3254 0
M  V30 10608 C 997.487 0.454224 1.96929 0
M  V30 10609 C 997.808 -0.993034 1.67821 0
M  V30 10610 O 997.078 -1.69371 0.984393 0
M  V30 10611 H 995.658 0.164977 0.728554 0
M  V30 10612 H 998.32 1.0887 1.61658 0
M  V30 10613 H 997.416 0.597667 3.06324 0
M  V30 10614 N 997.718 -1.45297 0.610449 0
M  V30 10615 C 999.129 -1.85715 0.191488 0
M  V30 10616 C 999.48 -1.51036 -1.25229 0
M  V30 10617 O 998.605 -0.938422 -1.94994 0
M  V30 10618 C 999.2 -3.37082 0.340747 0
M  V30 10619 C 997.759 -3.76393 -0.0235433 0
M  V30 10620 C 996.906 -2.69237 0.663849 0
M  V30 10621 H 999.857 -1.36058 0.816948 0
M  V30 10622 H 999.878 -3.78105 -0.426233 0
M  V30 10623 H 999.39 -3.62291 1.39164 0
M  V30 10624 H 997.491 -3.56801 -1.07351 0
M  V30 10625 H 997.604 -4.77653 0.372102 0
M  V30 10626 H 995.968 -2.54499 0.101204 0
M  V30 10627 H 996.751 -2.97281 1.71694 0
M  V30 10628 N 999.196 -0.349774 -1.5367 0
M  V30 10629 C 1000.44 0.245862 -2.00196 0
M  V30 10630 C 1000.76 1.51154 -1.24144 0
M  V30 10631 O 1001.96 2.18481 -1.61178 0
M  V30 10632 C 1000.42 0.488665 -3.56567 0
M  V30 10633 C 1000.03 -0.761475 -4.41481 0
M  V30 10634 C 1001.77 1.04282 -4.11492 0
M  V30 10635 C 999.679 -0.489128 -5.89374 0
M  V30 10636 H 998.609 0.0956493 -0.747909 0
M  V30 10637 H 1001.26 -0.466068 -1.77483 0
M  V30 10638 H 999.642 1.26145 -3.75371 0
M  V30 10639 H 1000.82 -1.53585 -4.34452 0
M  V30 10640 H 999.131 -1.23771 -3.9758 0
M  V30 10641 H 1001.73 1.26164 -5.19603 0
M  V30 10642 H 1002.07 2.00023 -3.65098 0
M  V30 10643 H 1002.6 0.330582 -3.96424 0
M  V30 10644 H 999.343 -1.41643 -6.40014 0
M  V30 10645 H 998.863 0.247039 -5.99291 0
M  V30 10646 H 1000.54 -0.1087 -6.46909 0
M  V30 10647 N 1000.67 1.57404 -0.0785433 0
M  V30 10648 C 1001.9 1.97787 0.596995 0
M  V30 10649 C 1002.31 0.955904 1.63276 0
M  V30 10650 O 1001.65 -0.0649169 1.83585 0
M  V30 10651 C 1001.72 3.34499 1.31723 0
M  V30 10652 C 1001.38 4.54933 0.434144 0
M  V30 10653 C 1002.38 5.18969 -0.311015 0
M  V30 10654 C 1000.06 5.01029 0.357046 0
M  V30 10655 C 1002.06 6.27457 -1.12142 0
M  V30 10656 C 999.744 6.09389 -0.457029 0
M  V30 10657 C 1000.74 6.72466 -1.19493 0
M  V30 10658 O 1000.43 7.78738 -1.99556 0
M  V30 10659 H 1000.16 0.655294 0.166028 0
M  V30 10660 H 1002.72 2.04855 -0.149517 0
M  V30 10661 H 1000.95 3.24064 2.10996 0
M  V30 10662 H 1002.63 3.5944 1.88567 0
M  V30 10663 H 1003.4 4.84297 -0.261084 0
M  V30 10664 H 999.28 4.51706 0.921026 0
M  V30 10665 H 1002.82 6.76622 -1.69788 0
M  V30 10666 H 998.721 6.43494 -0.508499 0
M  V30 10667 H 999.489 7.95648 -1.9206 0
M  V30 10668 N 1002.15 -0.195058 1.56388 0
M  V30 10669 C 1003.4 -0.913626 1.79821 0
M  V30 10670 C 1003.71 -1.84422 0.651767 0
M  V30 10671 O 1004.92 -2.6034 0.770402 0
M  V30 10672 C 1003.38 -1.67497 3.18548 0
M  V30 10673 C 1002.98 -0.789205 4.40994 0
M  V30 10674 C 1004.73 -2.38318 3.5129 0
M  V30 10675 C 1002.63 -1.54942 5.70742 0
M  V30 10676 H 1001.56 -0.344891 0.670497 0
M  V30 10677 H 1004.22 -0.166912 1.82739 0
M  V30 10678 H 1002.6 -2.46557 3.0988 0
M  V30 10679 H 1003.77 -0.0372595 4.60785 0
M  V30 10680 H 1002.09 -0.191834 4.15958 0
M  V30 10681 H 1004.68 -2.95745 4.45465 0
M  V30 10682 H 1005.03 -3.12507 2.75037 0
M  V30 10683 H 1005.56 -1.66224 3.61406 0
M  V30 10684 H 1002.3 -0.85031 6.49962 0
M  V30 10685 H 1001.82 -2.2753 5.54969 0
M  V30 10686 H 1003.5 -2.1032 6.11861 0
M  V30 10687 N 1003.63 -1.50653 -0.462772 0
M  V30 10688 C 1004.88 -1.61296 -1.21105 0
M  V30 10689 C 1005.19 -0.322757 -1.92919 0
M  V30 10690 O 1006.4 -0.308211 -2.69745 0
M  V30 10691 C 1004.85 -2.84752 -2.201 0
M  V30 10692 C 1004.46 -4.20681 -1.54051 0
M  V30 10693 C 1006.21 -3.04744 -2.95518 0
M  V30 10694 C 1004.11 -5.35314 -2.51381 0
M  V30 10695 H 1003.04 -0.60069 -0.455728 0
M  V30 10696 H 1005.69 -1.77093 -0.480656 0
M  V30 10697 H 1004.08 -2.62532 -2.96467 0
M  V30 10698 H 1005.25 -4.53187 -0.834168 0
M  V30 10699 H 1003.56 -4.06361 -0.908828 0
M  V30 10700 H 1006.16 -3.87559 -3.68378 0
M  V30 10701 H 1006.5 -2.16802 -3.55391 0
M  V30 10702 H 1007.04 -3.27185 -2.26263 0
M  V30 10703 H 1003.78 -6.25437 -1.96235 0
M  V30 10704 H 1003.3 -5.07216 -3.20144 0
M  V30 10705 H 1004.98 -5.66229 -3.1304 0
M  V30 10706 N 1005.11 0.71652 -1.4037 0
M  V30 10707 C 1006.34 1.50563 -1.4191 0
M  V30 10708 C 1006.75 1.88791 -0.0185456 0
M  V30 10709 O 1006.11 1.55378 0.957289 0
M  V30 10710 C 1006.16 2.78155 -2.30894 0
M  V30 10711 O 1005.88 2.41543 -3.65497 0
M  V30 10712 C 1007.38 3.72057 -2.41016 0
M  V30 10713 H 1004.6 0.464679 -0.48406 0
M  V30 10714 H 1007.15 0.883927 -1.8441 0
M  V30 10715 H 1005.3 3.36611 -1.91759 0
M  V30 10716 H 1005.71 3.23636 -4.12747 0
M  V30 10717 H 1007.19 4.58426 -3.07489 0
M  V30 10718 H 1007.67 4.15098 -1.43492 0
M  V30 10719 H 1008.27 3.19512 -2.80699 0
M  V30 10720 N 1006.59 1.25851 0.948643 0
M  V30 10721 C 1007.5 1.08516 2.07994 0
M  V30 10722 C 1008.51 0.0206696 1.73988 0
M  V30 10723 O 1009.69 0.222854 2.00163 0
M  V30 10724 C 1006.75 0.712145 3.39307 0
M  V30 10725 C 1005.81 1.85523 3.87143 0
M  V30 10726 C 1005.05 1.49992 5.1219 0
M  V30 10727 O 1005.27 0.398268 5.69008 0
M  V30 10728 O 1004.2 2.33215 5.54882 0
M  V30 10729 H 1008.03 2.03405 2.25522 0
M  V30 10730 H 1005.62 1.04844 1.06433 0
M  V30 10731 H 1007.5 0.516512 4.18223 0
M  V30 10732 H 1006.17 -0.207416 3.23035 0
M  V30 10733 H 1005.08 2.10578 3.09205 0
M  V30 10734 H 1006.41 2.75425 4.07924 0
M  V30 10735 N 1008.06 -1.15214 1.07534 0
M  V30 10736 C 1009.29 -1.89647 0.819614 0
M  V30 10737 C 1009.7 -1.78365 -0.631072 0
M  V30 10738 O 1009.05 -1.1346 -1.44474 0
M  V30 10739 C 1009.11 -3.40573 1.1511 0
M  V30 10740 C 1008.77 -3.7564 2.60276 0
M  V30 10741 C 1009.77 -3.76507 3.58523 0
M  V30 10742 C 1007.45 -4.05891 2.95901 0
M  V30 10743 C 1009.45 -4.07133 4.9043 0
M  V30 10744 C 1007.13 -4.36182 4.28005 0
M  V30 10745 C 1008.13 -4.36785 5.25079 0
M  V30 10746 O 1007.82 -4.66348 6.54809 0
M  V30 10747 H 1007.55 -0.607836 0.295822 0
M  V30 10748 H 1010.11 -1.46895 1.43565 0
M  V30 10749 H 1008.34 -3.83734 0.478033 0
M  V30 10750 H 1010.03 -3.96299 0.877615 0
M  V30 10751 H 1010.79 -3.53233 3.32342 0
M  V30 10752 H 1006.67 -4.0458 2.20989 0
M  V30 10753 H 1010.21 -4.07519 5.66193 0
M  V30 10754 H 1006.11 -4.58924 4.53937 0
M  V30 10755 H 1006.88 -4.84105 6.59988 0
M  V30 10756 N 1009.54 -0.859717 -1.32086 0
M  V30 10757 C 1010.78 -0.471939 -1.98877 0
M  V30 10758 C 1011.15 0.955689 -1.66525 0
M  V30 10759 O 1012.35 1.44829 -2.26447 0
M  V30 10760 C 1010.62 -0.710016 -3.50276 0
M  V30 10761 S 1012.18 -0.420566 -4.3678 0
M  V30 10762 H 1009 -0.176588 -0.688722 0
M  V30 10763 H 1011.6 -1.11352 -1.60689 0
M  V30 10764 H 1010.3 -1.74803 -3.71311 0
M  V30 10765 H 1009.83 -0.0550429 -3.93361 0
M  V30 10766 H 1011.85 0.751362 -4.90478 0
M  V30 10767 N 1011.02 1.44971 -0.618145 0
M  V30 10768 C 1012.44 1.57077 -0.282666 0
M  V30 10769 C 1012.64 1.60782 1.21456 0
M  V30 10770 O 1011.69 1.54382 1.99806 0
M  V30 10771 C 1013.01 2.84858 -0.963148 0
M  V30 10772 C 1014.55 2.9855 -0.940062 0
M  V30 10773 C 1015.03 4.29115 -1.60076 0
M  V30 10774 N 1016.52 4.35899 -1.56674 0
M  V30 10775 C 1017.25 5.35617 -2.04701 0
M  V30 10776 N 1016.75 6.41813 -2.6086 0
M  V30 10777 N 1018.54 5.27042 -1.95406 0
M  V30 10778 H 1010.69 1.4081 -1.59017 0
M  V30 10779 H 1012.96 0.673914 -0.666741 0
M  V30 10780 H 1012.66 2.88059 -2.0178 0
M  V30 10781 H 1012.54 3.73966 -0.492901 0
M  V30 10782 H 1014.92 2.94909 0.10607 0
M  V30 10783 H 1015.01 2.10825 -1.44868 0
M  V30 10784 H 1014.65 4.33514 -2.64627 0
M  V30 10785 H 1014.58 5.15675 -1.06708 0
M  V30 10786 H 1017.07 3.59766 -1.15659 0
M  V30 10787 H 1017.38 7.14166 -2.95273 0
M  V30 10788 H 1015.73 6.42534 -2.64905 0
M  V30 10789 H 1018.92 4.42987 -1.51263 0
M  V30 10790 H 1019.09 6.04604 -2.33147 0
M  V30 10791 N 1012.5 0.357919 1.53482 0
M  V30 10792 C 1013.73 -0.234799 2.05261 0
M  V30 10793 C 1014.14 -1.43618 1.23169 0
M  V30 10794 O 1013.48 -1.81801 0.263435 0
M  V30 10795 C 1013.54 -0.699748 3.52624 0
M  V30 10796 C 1013.21 0.383905 4.55385 0
M  V30 10797 C 1014.2 1.23129 5.05109 0
M  V30 10798 C 1011.89 0.541953 4.99368 0
M  V30 10799 C 1013.88 2.22214 5.97411 0
M  V30 10800 C 1011.57 1.53618 5.91477 0
M  V30 10801 C 1012.57 2.37471 6.40388 0
M  V30 10802 O 1012.25 3.35199 7.30682 0
M  V30 10803 H 1011.99 -0.0465364 0.674396 0
M  V30 10804 H 1014.54 0.512355 1.98907 0
M  V30 10805 H 1012.77 -1.49838 3.5649 0
M  V30 10806 H 1014.46 -1.21461 3.87301 0
M  V30 10807 H 1015.23 1.12035 4.71883 0
M  V30 10808 H 1011.1 -0.100929 4.6089 0
M  V30 10809 H 1014.65 2.87702 6.35511 0
M  V30 10810 H 1010.55 1.64763 6.24118 0
M  V30 10811 H 1011.31 3.30838 7.48658 0
M  V30 10812 N 1013.98 -1.5736 0.0868897 0
M  V30 10813 C 1015.22 -1.9367 -0.577598 0
M  V30 10814 C 1015.55 -0.968844 -1.69229 0
M  V30 10815 O 1014.82 -0.0195061 -1.9589 0
M  V30 10816 H 1013.4 -0.714983 -0.216353 0
M  V30 10817 H 1016.06 -1.94335 0.148294 0
M  V30 10818 H 1015.15 -2.95877 -0.993128 0
M  V30 10819 N 1015.45 0.186762 -1.56489 0
M  V30 10820 C 1016.73 0.932229 -1.71956 0
M  V30 10821 C 1017.11 2.01037 -0.644006 0
M  V30 10822 O 1016.46 2.259 0.343694 0
M  V30 10823 C 1016.67 1.51106 -3.14592 0
M  V30 10824 C 1018.02 1.98997 -3.75081 0
M  V30 10825 O 1019.04 1.60931 -3.17773 0
M  V30 10826 O 1017.9 2.69067 -4.75673 0
M  V30 10827 H 1014.99 0.437736 -0.701652 0
M  V30 10828 H 1017.54 0.175803 -1.68787 0
M  V30 10829 H 1016.31 0.734327 -3.84348 0
M  V30 10830 H 1015.94 2.33209 -3.22024 0
M  V30 10831 N 1016.93 1.50896 0.454776 0
M  V30 10832 C 1017.86 1.73885 1.5584 0
M  V30 10833 C 1018.84 0.588172 1.59607 0
M  V30 10834 O 1020.03 0.829054 1.75614 0
M  V30 10835 C 1017.16 1.84796 2.94054 0
M  V30 10836 C 1016.11 3.00111 3.05152 0
M  V30 10837 C 1015.44 2.96183 4.45174 0
M  V30 10838 C 1016.74 4.40365 2.80849 0
M  V30 10839 H 1018.43 2.66292 1.36854 0
M  V30 10840 H 1015.98 1.28142 0.656936 0
M  V30 10841 H 1017.93 1.99462 3.71204 0
M  V30 10842 H 1016.66 0.890235 3.14233 0
M  V30 10843 H 1015.31 2.85121 2.30438 0
M  V30 10844 H 1014.96 1.98224 4.62295 0
M  V30 10845 H 1014.66 3.73608 4.53532 0
M  V30 10846 H 1016.19 3.1292 5.24322 0
M  V30 10847 H 1017.6 4.55795 3.47741 0
M  V30 10848 H 1016 5.19363 3.00636 0
M  V30 10849 H 1017.07 4.51606 1.76579 0
M  V30 10850 N 1018.41 -0.709066 1.40748 0
M  V30 10851 C 1019.66 -1.47119 1.39585 0
M  V30 10852 C 1019.99 -1.942 0.000245323 0
M  V30 10853 O 1019.26 -1.68609 -0.969593 0
M  V30 10854 C 1019.55 -2.69266 2.39099 0
M  V30 10855 C 1019.4 -2.28037 3.8771 0
M  V30 10856 C 1020.72 -3.71438 2.36055 0
M  V30 10857 H 1017.84 -0.533632 0.508336 0
M  V30 10858 H 1020.48 -0.808718 1.7193 0
M  V30 10859 H 1018.63 -3.25788 2.11647 0
M  V30 10860 H 1020.3 -1.76946 4.26014 0
M  V30 10861 H 1018.55 -1.59966 4.03229 0
M  V30 10862 H 1019.22 -3.15621 4.52866 0
M  V30 10863 H 1021.69 -3.24559 2.60385 0
M  V30 10864 H 1020.57 -4.54532 3.07721 0
M  V30 10865 H 1020.83 -4.20193 1.37443 0
M  V30 10866 N 1019.89 -1.26353 -0.941956 0
M  V30 10867 C 1021.17 -1.02601 -1.6653 0
M  V30 10868 C 1021.55 0.44381 -2.06382 0
M  V30 10869 O 1020.89 1.42399 -1.78703 0
M  V30 10870 C 1021.1 -1.97401 -2.87809 0
M  V30 10871 C 1022.45 -2.25967 -3.59478 0
M  V30 10872 O 1023.48 -1.95261 -2.97912 0
M  V30 10873 O 1022.34 -2.78244 -4.70364 0
M  V30 10874 H 1019.43 -0.39007 -0.729228 0
M  V30 10875 H 1021.98 -1.37559 -0.993754 0
M  V30 10876 H 1020.75 -2.9659 -2.55245 0
M  V30 10877 H 1020.37 -1.62918 -3.62689 0
M  V30 10878 N 1021.37 1.14642 -1.08144 0
M  V30 10879 C 1022.6 1.89209 -0.82966 0
M  V30 10880 C 1023.01 1.78697 0.621604 0
M  V30 10881 O 1022.35 1.14224 1.4387 0
M  V30 10882 C 1022.41 3.39958 -1.16915 0
M  V30 10883 C 1022.07 3.74254 -2.62264 0
M  V30 10884 C 1023.07 3.746 -3.60514 0
M  V30 10885 C 1020.76 4.04316 -2.9805 0
M  V30 10886 C 1022.75 4.04527 -4.92582 0
M  V30 10887 C 1020.44 4.33906 -4.30312 0
M  V30 10888 C 1021.44 4.33995 -5.27388 0
M  V30 10889 O 1021.12 4.62869 -6.57273 0
M  V30 10890 H 1020.86 0.606259 -0.299042 0
M  V30 10891 H 1023.41 1.46132 -1.44342 0
M  V30 10892 H 1021.64 3.83475 -0.498377 0
M  V30 10893 H 1023.33 3.95828 -0.89862 0
M  V30 10894 H 1024.09 3.51466 -3.34211 0
M  V30 10895 H 1019.97 4.03402 -2.23132 0
M  V30 10896 H 1023.52 4.04511 -5.68346 0
M  V30 10897 H 1019.41 4.5651 -4.56365 0
M  V30 10898 H 1020.18 4.80598 -6.62546 0
M  V30 10899 N 1022.85 0.866709 1.31628 0
M  V30 10900 C 1023.78 0.335762 2.31073 0
M  V30 10901 C 1024.76 -0.571597 1.60209 0
M  V30 10902 O 1025.94 -0.489306 1.87935 0
M  V30 10903 C 1023.07 -0.466416 3.44154 0
M  V30 10904 C 1022.03 0.347561 4.26586 0
M  V30 10905 C 1021.35 -0.5801 5.31544 0
M  V30 10906 C 1022.65 1.57986 4.97833 0
M  V30 10907 H 1024.35 1.16673 2.75731 0
M  V30 10908 H 1021.89 0.56248 1.3256 0
M  V30 10909 H 1023.84 -0.84836 4.12772 0
M  V30 10910 H 1022.57 -1.33086 2.98254 0
M  V30 10911 H 1021.23 0.71141 3.59631 0
M  V30 10912 H 1020.88 -1.44174 4.81895 0
M  V30 10913 H 1020.58 -0.0393965 5.87587 0
M  V30 10914 H 1022.1 -0.958958 6.03023 0
M  V30 10915 H 1023.51 1.26954 5.59067 0
M  V30 10916 H 1021.91 2.05939 5.63657 0
M  V30 10917 H 1022.98 2.3345 4.25005 0
M  V30 10918 N 1024.32 -1.44642 0.625825 0
M  V30 10919 C 1025.27 -2.27762 -0.104042 0
M  V30 10920 C 1026.26 -1.38364 -0.821232 0
M  V30 10921 O 1027.45 -1.62214 -0.708213 0
M  V30 10922 C 1024.58 -3.25585 -1.08853 0
M  V30 10923 C 1023.66 -4.22472 -0.371241 0
M  V30 10924 N 1024.06 -5.02262 0.597226 0
M  V30 10925 C 1022.35 -4.4172 -0.616392 0
M  V30 10926 C 1023.05 -5.72678 1.02053 0
M  V30 10927 N 1022.03 -5.42404 0.360423 0
M  V30 10928 H 1025.83 -2.86858 0.639517 0
M  V30 10929 H 1023.35 -1.56015 0.450911 0
M  V30 10930 H 1025.34 -3.83885 -1.62597 0
M  V30 10931 H 1024 -2.68051 -1.83245 0
M  V30 10932 H 1025.01 -5.08643 0.974803 0
M  V30 10933 H 1021.69 -3.9529 -1.34359 0
M  V30 10934 H 1023.08 -6.46772 1.82033 0
M  V30 10935 N 1025.8 -0.366053 -1.5329 0
M  V30 10936 C 1027.22 -0.0150149 -1.59593 0
M  V30 10937 C 1027.42 1.46719 -1.38116 0
M  V30 10938 O 1026.47 2.22884 -1.18656 0
M  V30 10939 C 1027.79 -0.471374 -2.96982 0
M  V30 10940 C 1029.33 -0.425634 -3.10092 0
M  V30 10941 C 1029.81 -0.857812 -4.49895 0
M  V30 10942 N 1031.3 -0.81289 -4.56011 0
M  V30 10943 C 1032.04 -1.11898 -5.62376 0
M  V30 10944 N 1031.53 -1.49436 -6.76491 0
M  V30 10945 N 1033.32 -1.04174 -5.52362 0
M  V30 10946 H 1025.48 -1.33127 -1.65502 0
M  V30 10947 H 1027.74 -0.544172 -0.776261 0
M  V30 10948 H 1027.44 -1.50569 -3.1784 0
M  V30 10949 H 1027.32 0.141764 -3.76934 0
M  V30 10950 H 1029.71 0.599548 -2.88945 0
M  V30 10951 H 1029.79 -1.07427 -2.32149 0
M  V30 10952 H 1029.43 -1.88111 -4.7178 0
M  V30 10953 H 1029.36 -0.186419 -5.2627 0
M  V30 10954 H 1031.85 -0.536343 -3.74075 0
M  V30 10955 H 1032.16 -1.71217 -7.53594 0
M  V30 10956 H 1030.51 -1.53302 -6.77882 0
M  V30 10957 H 1033.7 -0.747654 -4.62091 0
M  V30 10958 H 1033.87 -1.28362 -6.35159 0
M  V30 10959 N 1027.28 1.57312 -0.0952337 0
M  V30 10960 C 1028.23 2.15263 0.881167 0
M  V30 10961 C 1029.22 1.09552 1.29208 0
M  V30 10962 O 1030.43 1.27897 1.26659 0
M  V30 10963 H 1026.8 0.688611 0.302191 0
M  V30 10964 H 1028.77 2.96126 0.367694 0
M  V30 10965 C 1027.52 2.74779 2.13053 0
M  V30 10966 H 1026.85 3.55807 1.82323 0
M  V30 10967 H 1028.29 3.18895 2.79431 0
M  V30 10968 C 1026.74 1.7068 2.90465 0
M  V30 10969 O 1027.27 1.14582 3.85011 0
M  V30 10970 N 1025.48 1.41169 2.54007 0
M  V30 10971 H 1025.03 1.86977 1.77193 0
M  V30 10972 H 1024.99 0.717559 3.06102 0
M  V30 10973 N 1028.76 -0.17846 1.56586 0
M  V30 10974 C 1029.7 -1.22104 1.95855 0
M  V30 10975 C 1030.67 -1.44366 0.821447 0
M  V30 10976 O 1031.86 -1.57224 1.08098 0
M  V30 10977 C 1029 -2.55701 2.31757 0
M  V30 10978 C 1028.11 -2.40879 3.5861 0
M  V30 10979 C 1027.25 -3.67293 3.83757 0
M  V30 10980 C 1026.29 -3.47373 5.03982 0
M  V30 10981 N 1025.42 -4.65839 5.25298 0
M  V30 10982 H 1030.26 -0.879168 2.84736 0
M  V30 10983 H 1027.8 -0.422721 1.40895 0
M  V30 10984 H 1029.76 -3.33556 2.50592 0
M  V30 10985 H 1028.39 -2.87898 1.45995 0
M  V30 10986 H 1027.44 -1.54236 3.47729 0
M  V30 10987 H 1028.75 -2.22102 4.46623 0
M  V30 10988 H 1027.91 -4.53584 4.02922 0
M  V30 10989 H 1026.65 -3.89041 2.94107 0
M  V30 10990 H 1025.65 -2.59467 4.84723 0
M  V30 10991 H 1026.88 -3.27055 5.95157 0
M  V30 10992 H 1024.82 -4.8782 4.38598 0
M  V30 10993 H 1024.74 -4.4995 6.0752 0
M  V30 10994 H 1026.01 -5.53435 5.48936 0
M  V30 10995 N 1030.24 -1.51135 -0.446768 0
M  V30 10996 C 1031.19 -1.68152 -1.53977 0
M  V30 10997 C 1032.17 -0.53563 -1.51723 0
M  V30 10998 O 1033.36 -0.791134 -1.58335 0
M  V30 10999 C 1030.49 -1.80133 -2.92245 0
M  V30 11000 C 1029.58 -3.00476 -2.99291 0
M  V30 11001 N 1029.97 -4.23796 -2.76099 0
M  V30 11002 C 1028.27 -2.99536 -3.30445 0
M  V30 11003 C 1028.97 -5.04977 -2.88744 0
M  V30 11004 N 1027.94 -4.39428 -3.20006 0
M  V30 11005 H 1031.74 -2.61172 -1.34784 0
M  V30 11006 H 1029.26 -1.48653 -0.653923 0
M  V30 11007 H 1031.26 -1.90432 -3.70866 0
M  V30 11008 H 1029.92 -0.882879 -3.12467 0
M  V30 11009 H 1030.93 -4.52896 -2.51209 0
M  V30 11010 H 1027.6 -2.17286 -3.56501 0
M  V30 11011 H 1028.99 -6.13114 -2.74847 0
M  V30 11012 N 1031.71 0.701592 -1.41122 0
M  V30 11013 C 1032.94 1.49049 -1.43499 0
M  V30 11014 C 1033.36 1.88761 -0.0385684 0
M  V30 11015 O 1032.71 1.56384 0.940755 0
M  V30 11016 C 1032.76 2.7569 -2.33832 0
M  V30 11017 O 1032.49 2.37653 -3.68039 0
M  V30 11018 C 1033.99 3.69479 -2.44949 0
M  V30 11019 H 1031.21 0.459519 -0.488961 0
M  V30 11020 H 1033.75 0.864318 -1.85337 0
M  V30 11021 H 1031.91 3.34559 -1.95318 0
M  V30 11022 H 1032.32 3.19241 -4.16156 0
M  V30 11023 H 1033.79 4.55139 -3.12334 0
M  V30 11024 H 1034.27 4.13553 -1.47887 0
M  V30 11025 H 1034.88 3.16517 -2.84072 0
M  V30 11026 N 1033.19 1.2685 0.935242 0
M  V30 11027 C 1034.44 1.12745 1.68211 0
M  V30 11028 C 1034.77 -0.328128 1.91712 0
M  V30 11029 O 1034.02 -1.25701 1.49993 0
M  V30 11030 C 1034.32 1.8482 3.05903 0
M  V30 11031 C 1033.99 3.347 3.02137 0
M  V30 11032 C 1032.65 3.75583 3.00817 0
M  V30 11033 C 1035 4.30368 2.93995 0
M  V30 11034 C 1032.33 5.10511 2.89129 0
M  V30 11035 C 1034.68 5.65343 2.83848 0
M  V30 11036 C 1033.34 6.0553 2.80874 0
M  V30 11037 H 1032.61 0.412563 0.615527 0
M  V30 11038 H 1035.26 1.57366 1.09124 0
M  V30 11039 H 1033.57 1.32685 3.68649 0
M  V30 11040 H 1035.26 1.71341 3.62551 0
M  V30 11041 H 1031.85 3.02182 3.03947 0
M  V30 11042 H 1036.04 3.9976 2.94118 0
M  V30 11043 H 1031.29 5.40802 2.85208 0
M  V30 11044 H 1035.47 6.39151 2.76512 0
M  V30 11045 H 1033.09 7.10037 2.71573 0
M  V30 11046 N 1034.67 -1.14067 1.0875 0
M  V30 11047 C 1035.6 -2.21385 0.74236 0
M  V30 11048 C 1036.58 -1.67833 -0.276805 0
M  V30 11049 O 1037.77 -1.93647 -0.1464 0
M  V30 11050 C 1034.9 -3.46956 0.154644 0
M  V30 11051 C 1033.85 -4.13555 1.10255 0
M  V30 11052 C 1033.18 -5.3337 0.376877 0
M  V30 11053 C 1034.48 -4.6169 2.44213 0
M  V30 11054 H 1036.17 -2.50512 1.63964 0
M  V30 11055 H 1033.72 -1.20408 0.789807 0
M  V30 11056 H 1035.67 -4.21284 -0.0988419 0
M  V30 11057 H 1034.39 -3.17203 -0.777789 0
M  V30 11058 H 1033.05 -3.41186 1.34119 0
M  V30 11059 H 1032.7 -4.99879 -0.559472 0
M  V30 11060 H 1032.4 -5.78875 1.00884 0
M  V30 11061 H 1033.92 -6.10458 0.131527 0
M  V30 11062 H 1035.34 -5.27475 2.24595 0
M  V30 11063 H 1033.74 -5.17909 3.03134 0
M  V30 11064 H 1034.81 -3.76574 3.05483 0
M  V30 11065 N 1036.15 -0.873678 -1.31166 0
M  V30 11066 C 1037.08 -0.289389 -2.27366 0
M  V30 11067 C 1038.09 0.549667 -1.5324 0
M  V30 11068 O 1039.28 0.371056 -1.74601 0
M  V30 11069 C 1036.38 0.60807 -3.334 0
M  V30 11070 C 1035.56 -0.199379 -4.36945 0
M  V30 11071 C 1034.61 0.626798 -5.22454 0
M  V30 11072 O 1033.64 0.0535121 -5.69175 0
M  V30 11073 N 1034.84 1.93809 -5.47191 0
M  V30 11074 H 1037.61 -1.1161 -2.78143 0
M  V30 11075 H 1035.17 -0.735529 -1.44228 0
M  V30 11076 H 1037.16 1.16656 -3.87522 0
M  V30 11077 H 1035.73 1.33545 -2.82638 0
M  V30 11078 H 1034.95 -0.939316 -3.82845 0
M  V30 11079 H 1036.24 -0.75329 -5.03193 0
M  V30 11080 H 1035.64 2.42693 -5.10995 0
M  V30 11081 H 1034.19 2.44428 -6.04234 0
M  V30 11082 N 1037.63 1.44308 -0.633487 0
M  V30 11083 C 1038.58 2.27814 0.0919619 0
M  V30 11084 C 1039.56 1.38798 0.813882 0
M  V30 11085 O 1040.75 1.62587 0.699601 0
M  V30 11086 C 1037.88 3.26158 1.07125 0
M  V30 11087 C 1036.97 4.22663 0.348831 0
M  V30 11088 N 1037.36 5.01938 -0.623854 0
M  V30 11089 C 1035.66 4.42041 0.592958 0
M  V30 11090 C 1036.36 5.72129 -1.05088 0
M  V30 11091 N 1035.33 5.42205 -0.389183 0
M  V30 11092 H 1039.14 2.86515 -0.654721 0
M  V30 11093 H 1036.65 1.55773 -0.459178 0
M  V30 11094 H 1038.65 3.84742 1.60559 0
M  V30 11095 H 1037.31 2.69019 1.81821 0
M  V30 11096 H 1038.32 5.08119 -1.00176 0
M  V30 11097 H 1034.99 3.95997 1.32261 0
M  V30 11098 H 1036.38 6.45797 -1.85461 0
M  V30 11099 N 1039.1 0.374177 1.53094 0
M  V30 11100 C 1040.05 -0.484848 2.22785 0
M  V30 11101 C 1041.04 -1.04181 1.22617 0
M  V30 11102 O 1042.23 -0.97043 1.48026 0
M  V30 11103 C 1039.36 -1.61956 3.02696 0
M  V30 11104 C 1038.45 -1.07506 4.10248 0
M  V30 11105 N 1038.84 -0.254253 5.05161 0
M  V30 11106 C 1037.13 -1.34904 4.25108 0
M  V30 11107 C 1037.84 0.0448558 5.81683 0
M  V30 11108 N 1036.81 -0.555073 5.40759 0
M  V30 11109 H 1040.61 0.148976 2.93522 0
M  V30 11110 H 1038.13 0.182656 1.6137 0
M  V30 11111 H 1040.12 -2.24723 3.51148 0
M  V30 11112 H 1038.78 -2.25636 2.33492 0
M  V30 11113 H 1039.8 0.107256 5.17789 0
M  V30 11114 H 1036.47 -1.98799 3.67131 0
M  V30 11115 H 1037.86 0.708952 6.68149 0
M  V30 11116 N 1040.58 -1.57259 0.103575 0
M  V30 11117 C 1041.81 -1.99424 -0.569638 0
M  V30 11118 C 1042.23 -0.982475 -1.60403 0
M  V30 11119 O 1041.59 0.0479231 -1.81237 0
M  V30 11120 C 1041.64 -3.40527 -1.18633 0
M  V30 11121 O 1040.74 -3.42167 -2.30208 0
M  V30 11122 H 1040.08 -0.648251 -0.143759 0
M  V30 11123 H 1042.61 -2.03739 0.187493 0
M  V30 11124 H 1042.62 -3.78404 -1.5256 0
M  V30 11125 H 1041.3 -4.13686 -0.428582 0
M  V30 11126 H 1039.88 -3.16093 -1.97837 0
M  V30 11127 N 1042.06 0.170153 -1.56679 0
M  V30 11128 C 1043.34 0.913938 -1.72935 0
M  V30 11129 C 1043.72 2.00342 -0.665293 0
M  V30 11130 O 1043.07 2.26252 0.319715 0
M  V30 11131 C 1043.28 1.47761 -3.16177 0
M  V30 11132 C 1044.62 1.95007 -3.7717 0
M  V30 11133 O 1045.65 1.57552 -3.19462 0
M  V30 11134 O 1044.51 2.64007 -4.78501 0
M  V30 11135 H 1041.6 0.43027 -0.706256 0
M  V30 11136 H 1044.15 0.157891 -1.68964 0
M  V30 11137 H 1042.92 0.69352 -3.85105 0
M  V30 11138 H 1042.54 2.2978 -3.24479 0
M  V30 11139 N 1043.54 1.5137 0.438746 0
M  V30 11140 C 1044.49 1.72582 1.53245 0
M  V30 11141 C 1045.46 0.567488 1.56105 0
M  V30 11142 O 1046.64 0.80176 1.73137 0
M  V30 11143 C 1043.78 1.85551 2.90972 0
M  V30 11144 C 1042.89 3.13094 2.97652 0
M  V30 11145 C 1042.03 3.16666 4.26493 0
M  V30 11146 C 1041.07 4.38529 4.27035 0
M  V30 11147 N 1040.2 4.39659 5.47398 0
M  V30 11148 H 1045.04 2.65941 1.3446 0
M  V30 11149 H 1042.58 1.31801 0.653206 0
M  V30 11150 H 1044.54 1.91053 3.70884 0
M  V30 11151 H 1043.17 0.956025 3.08318 0
M  V30 11152 H 1042.22 3.16909 2.10412 0
M  V30 11153 H 1043.53 4.03009 2.93914 0
M  V30 11154 H 1042.69 3.21075 5.14777 0
M  V30 11155 H 1041.43 2.24637 4.32885 0
M  V30 11156 H 1040.43 4.34297 3.37144 0
M  V30 11157 H 1041.66 5.31821 4.22307 0
M  V30 11158 H 1039.6 3.50499 5.54514 0
M  V30 11159 H 1039.52 5.23382 5.45534 0
M  V30 11160 H 1040.79 4.48259 6.37718 0
M  V30 11161 N 1045.02 -0.694098 1.41492 0
M  V30 11162 C 1046.43 -1.00487 1.23994 0
M  V30 11163 C 1046.63 -2.01078 0.130346 0
M  V30 11164 O 1045.69 -2.47403 -0.504775 0
M  V30 11165 C 1047 -1.52808 2.58979 0
M  V30 11166 C 1048.55 -1.64684 2.66173 0
M  V30 11167 C 1049.02 -2.20406 4.01479 0
M  V30 11168 N 1050.52 -2.27765 4.03333 0
M  V30 11169 C 1051.25 -2.7191 5.04829 0
M  V30 11170 N 1050.75 -3.1565 6.16714 0
M  V30 11171 N 1052.54 -2.71487 4.9219 0
M  V30 11172 H 1044.69 -0.027746 2.12382 0
M  V30 11173 H 1046.95 -0.0748741 0.945039 0
M  V30 11174 H 1046.66 -0.863519 3.40934 0
M  V30 11175 H 1046.53 -2.50998 2.81566 0
M  V30 11176 H 1048.92 -2.30251 1.84576 0
M  V30 11177 H 1049 -0.65035 2.47395 0
M  V30 11178 H 1048.65 -1.55454 4.83525 0
M  V30 11179 H 1048.58 -3.2081 4.17599 0
M  V30 11180 H 1051.07 -1.96899 3.22551 0
M  V30 11181 H 1051.38 -3.47966 6.90029 0
M  V30 11182 H 1049.72 -3.13555 6.20248 0
M  V30 11183 H 1052.92 -2.36666 4.03865 0
M  V30 11184 H 1053.09 -3.05573 5.71427 0
M  V30 11185 N 1046.49 -1.27344 -0.928501 0
M  V30 11186 C 1047.91 -1.04732 -1.2043 0
M  V30 11187 C 1048.11 0.219623 -2.003 0
M  V30 11188 O 1047.17 0.925333 -2.34934 0
M  V30 11189 C 1048.48 -2.28625 -1.95323 0
M  V30 11190 C 1050.03 -2.33655 -2.08265 0
M  V30 11191 C 1050.5 -3.57275 -2.86563 0
M  V30 11192 N 1051.99 -3.57828 -2.94132 0
M  V30 11193 C 1052.73 -4.50152 -3.55177 0
M  V30 11194 N 1052.22 -5.52779 -4.17621 0
M  V30 11195 N 1054.02 -4.37777 -3.52573 0
M  V30 11196 H 1046.17 -2.08697 -0.394892 0
M  V30 11197 H 1048.43 -0.91782 -0.2373 0
M  V30 11198 H 1048.14 -3.20845 -1.44054 0
M  V30 11199 H 1048.01 -2.33878 -2.95941 0
M  V30 11200 H 1050.4 -1.41942 -2.58721 0
M  V30 11201 H 1050.48 -2.32406 -1.0687 0
M  V30 11202 H 1050.12 -4.49325 -2.3679 0
M  V30 11203 H 1050.05 -3.55775 -3.88242 0
M  V30 11204 H 1052.54 -2.83607 -2.49751 0
M  V30 11205 H 1052.86 -6.19394 -4.62137 0
M  V30 11206 H 1051.2 -5.56622 -4.16169 0
M  V30 11207 H 1054.39 -3.56811 -3.02991 0
M  V30 11208 H 1054.57 -5.09919 -3.99858 0
M  V30 11209 N 1047.97 1.13488 -1.09353 0
M  V30 11210 C 1049.38 1.66299 -0.848609 0
M  V30 11211 C 1049.73 1.86044 0.623051 0
M  V30 11212 O 1048.86 1.57871 1.48005 0
M  V30 11213 C 1049.45 3.02087 -1.53391 0
M  V30 11214 C 1048.01 3.51893 -1.33598 0
M  V30 11215 C 1047.16 2.27154 -1.59048 0
M  V30 11216 H 1050.11 0.974208 -1.25279 0
M  V30 11217 H 1050.13 3.68018 -0.966587 0
M  V30 11218 H 1049.64 2.87684 -2.60498 0
M  V30 11219 H 1047.75 3.715 -0.286045 0
M  V30 11220 H 1047.86 4.32059 -2.0703 0
M  V30 11221 H 1046.22 2.33708 -1.01256 0
M  V30 11222 H 1047.01 2.15317 -2.67383 0
M  V30 11223 N 1049.45 0.880621 1.30701 0
M  V30 11224 C 1050.86 0.547993 1.78477 0
M  V30 11225 C 1051.21 -0.935633 1.72454 0
M  V30 11226 O 1050.34 -1.73094 1.29874 0
M  V30 11227 C 1050.93 0.98795 3.24076 0
M  V30 11228 C 1049.49 0.706805 3.69704 0
M  V30 11229 C 1048.64 1.17335 2.51252 0
M  V30 11230 H 1051.59 1.06528 1.17633 0
M  V30 11231 H 1051.61 0.31508 3.79193 0
M  V30 11232 H 1051.12 2.06778 3.28427 0
M  V30 11233 H 1049.22 -0.36122 3.70845 0
M  V30 11234 H 1049.34 1.2913 4.6137 0
M  V30 11235 H 1047.7 0.592808 2.47705 0
M  V30 11236 H 1048.48 2.26083 2.58343 0
M  V30 11237 N 1050.93 -1.4397 0.641131 0
M  V30 11238 C 1052.15 -2.06818 0.155318 0
M  V30 11239 C 1052.58 -1.47665 -1.16519 0
M  V30 11240 O 1051.94 -0.58192 -1.71707 0
M  V30 11241 C 1051.99 -3.60542 0.0647537 0
M  V30 11242 O 1051.09 -4.00674 -0.976447 0
M  V30 11243 H 1050.43 -0.657962 0.0893404 0
M  V30 11244 H 1052.96 -1.84678 0.88064 0
M  V30 11245 H 1052.97 -4.07816 -0.122552 0
M  V30 11246 H 1051.65 -4.02975 1.02878 0
M  V30 11247 H 1050.22 -3.65013 -0.762905 0
M  V30 11248 N 1052.41 -0.382291 -1.52893 0
M  V30 11249 C 1053.37 0.44408 -2.24857 0
M  V30 11250 C 1054.37 0.996004 -1.26239 0
M  V30 11251 O 1055.56 0.879114 -1.5039 0
M  V30 11252 C 1052.69 1.62234 -2.99822 0
M  V30 11253 H 1053.89 -0.185862 -2.99324 0
M  V30 11254 H 1051.44 -0.134275 -1.55722 0
M  V30 11255 H 1052.17 2.28991 -2.29638 0
M  V30 11256 H 1051.96 1.23336 -3.72197 0
M  V30 11257 H 1053.45 2.20756 -3.54481 0
M  V30 11258 N 1053.89 1.57202 -0.111913 0
M  V30 11259 C 1054.8 2.18475 0.854753 0
M  V30 11260 C 1055.81 1.15888 1.29792 0
M  V30 11261 O 1056.99 1.48329 1.36237 0
M  V30 11262 C 1054.05 2.76645 2.0897 0
M  V30 11263 C 1053.11 3.94244 1.69913 0
M  V30 11264 C 1052.35 4.49631 2.8752 0
M  V30 11265 O 1052.57 4.03926 4.02741 0
M  V30 11266 O 1051.5 5.40417 2.65015 0
M  V30 11267 H 1055.33 3.01519 0.363352 0
M  V30 11268 H 1052.91 1.4897 0.113329 0
M  V30 11269 H 1054.8 3.13755 2.81311 0
M  V30 11270 H 1053.47 1.96637 2.5713 0
M  V30 11271 H 1052.38 3.61915 0.947013 0
M  V30 11272 H 1053.71 4.75666 1.26501 0
M  V30 11273 N 1055.36 -0.161842 1.56767 0
M  V30 11274 C 1056.29 -1.20226 2.0017 0
M  V30 11275 C 1057.27 -1.4564 0.878807 0
M  V30 11276 O 1058.46 -1.56813 1.14557 0
M  V30 11277 C 1055.59 -2.53897 2.36968 0
M  V30 11278 C 1054.54 -2.43033 3.52305 0
M  V30 11279 C 1053.87 -3.81281 3.74872 0
M  V30 11280 C 1055.17 -1.927 4.85453 0
M  V30 11281 H 1056.86 -0.84142 2.87333 0
M  V30 11282 H 1054.41 -0.403309 1.38237 0
M  V30 11283 H 1056.36 -3.26893 2.6593 0
M  V30 11284 H 1055.09 -2.91787 1.46724 0
M  V30 11285 H 1053.75 -1.7249 3.23485 0
M  V30 11286 H 1053.39 -4.1658 2.81904 0
M  V30 11287 H 1053.09 -3.74877 4.52483 0
M  V30 11288 H 1054.62 -4.55848 4.06245 0
M  V30 11289 H 1056.03 -2.55477 5.13229 0
M  V30 11290 H 1054.43 -1.97222 5.66766 0
M  V30 11291 H 1055.5 -0.881816 4.76814 0
M  V30 11292 N 1056.84 -1.516 -0.430713 0
M  V30 11293 C 1058.07 -1.68169 -1.20011 0
M  V30 11294 C 1058.48 -0.381406 -1.85316 0
M  V30 11295 O 1057.82 0.6506 -1.71793 0
M  V30 11296 C 1057.88 -2.7454 -2.32095 0
M  V30 11297 C 1057.55 -4.16942 -1.87104 0
M  V30 11298 C 1058.55 -5.01503 -1.37078 0
M  V30 11299 C 1056.23 -4.63075 -1.94594 0
M  V30 11300 C 1058.22 -6.3026 -0.951362 0
M  V30 11301 C 1055.91 -5.91827 -1.52264 0
M  V30 11302 C 1056.91 -6.75247 -1.02618 0
M  V30 11303 O 1056.6 -8.01591 -0.608905 0
M  V30 11304 H 1056.33 -0.567361 -0.367528 0
M  V30 11305 H 1058.88 -1.98819 -0.515759 0
M  V30 11306 H 1057.11 -2.39219 -3.03828 0
M  V30 11307 H 1058.8 -2.79921 -2.93937 0
M  V30 11308 H 1059.57 -4.67063 -1.30681 0
M  V30 11309 H 1055.45 -3.98262 -2.32182 0
M  V30 11310 H 1058.99 -6.95323 -0.563163 0
M  V30 11311 H 1054.89 -6.2578 -1.58333 0
M  V30 11312 H 1055.66 -8.15201 -0.73416 0
M  V30 11313 N 1058.32 0.686584 -1.41858 0
M  V30 11314 C 1059.54 1.4802 -1.45275 0
M  V30 11315 C 1059.97 1.87997 -0.0621297 0
M  V30 11316 O 1059.33 1.55226 0.936733 0
M  V30 11317 C 1059.38 2.7133 -2.37513 0
M  V30 11318 O 1058.48 3.69159 -1.83836 0
M  V30 11319 H 1057.82 0.445152 -0.492682 0
M  V30 11320 H 1060.35 0.843161 -1.86419 0
M  V30 11321 H 1060.36 3.19537 -2.53693 0
M  V30 11322 H 1059.04 2.41571 -3.3855 0
M  V30 11323 H 1057.61 3.28134 -1.77151 0
M  V30 11324 N 1059.8 1.27835 0.921735 0
M  V30 11325 C 1060.75 1.1092 2.04449 0
M  V30 11326 C 1061.74 0.0306469 1.69372 0
M  V30 11327 O 1062.95 0.188818 1.79007 0
M  V30 11328 H 1059.32 0.341973 0.669745 0
M  V30 11329 H 1061.29 2.06026 2.1586 0
M  V30 11330 C 1060.04 0.779443 3.38851 0
M  V30 11331 H 1059.36 1.60131 3.66331 0
M  V30 11332 H 1060.8 0.700999 4.18165 0
M  V30 11333 C 1059.26 -0.51647 3.32918 0
M  V30 11334 O 1059.79 -1.54914 3.70627 0
M  V30 11335 N 1058 -0.514276 2.86013 0
M  V30 11336 H 1057.55 0.32651 2.55522 0
M  V30 11337 H 1057.5 -1.38141 2.82426 0
M  V30 11338 N 1061.28 -1.12907 1.09954 0
M  V30 11339 C 1062.24 -2.16673 0.747364 0
M  V30 11340 C 1063.24 -1.59208 -0.225741 0
M  V30 11341 O 1064.43 -1.742 -0.00322482 0
M  V30 11342 C 1061.56 -3.40735 0.106169 0
M  V30 11343 H 1062.75 -2.49341 1.6664 0
M  V30 11344 H 1060.31 -1.27828 0.899421 0
M  V30 11345 H 1061.04 -3.13661 -0.82384 0
M  V30 11346 H 1060.83 -3.83717 0.806434 0
M  V30 11347 H 1062.32 -4.17414 -0.12464 0
M  V30 11348 N 1062.75 -0.88754 -1.30232 0
M  V30 11349 C 1063.68 -0.372481 -2.3051 0
M  V30 11350 C 1064.66 0.546037 -1.61098 0
M  V30 11351 O 1065.85 0.459345 -1.88689 0
M  V30 11352 C 1062.98 0.411605 -3.44852 0
M  V30 11353 C 1061.93 -0.415383 -4.2598 0
M  V30 11354 C 1061.26 0.495463 -5.324 0
M  V30 11355 C 1062.56 -1.65886 -4.95257 0
M  V30 11356 H 1064.25 -1.21045 -2.7384 0
M  V30 11357 H 1061.8 -0.583498 -1.31648 0
M  V30 11358 H 1063.75 0.782584 -4.1407 0
M  V30 11359 H 1062.48 1.28325 -3.00334 0
M  V30 11360 H 1061.14 -0.768534 -3.58454 0
M  V30 11361 H 1060.78 1.36489 -4.84128 0
M  V30 11362 H 1060.48 -0.0540885 -5.87575 0
M  V30 11363 H 1062.01 0.862901 -6.04472 0
M  V30 11364 H 1063.42 -1.35832 -5.56976 0
M  V30 11365 H 1061.82 -2.14881 -5.60309 0
M  V30 11366 H 1062.89 -2.40181 -4.21237 0
M  V30 11367 N 1064.23 1.43628 -0.648757 0
M  V30 11368 C 1065.64 1.85142 -0.24066 0
M  V30 11369 C 1065.99 1.54304 1.21181 0
M  V30 11370 O 1065.12 0.989792 1.92437 0
M  V30 11371 C 1065.71 3.3606 -0.429999 0
M  V30 11372 C 1064.27 3.76323 -0.0762588 0
M  V30 11373 C 1063.42 2.67382 -0.734999 0
M  V30 11374 H 1066.37 1.33844 -0.852734 0
M  V30 11375 H 1066.39 3.79102 0.325836 0
M  V30 11376 H 1065.9 3.58474 -1.48721 0
M  V30 11377 H 1064.01 3.59521 0.978529 0
M  V30 11378 H 1064.12 4.76498 -0.498612 0
M  V30 11379 H 1062.48 2.54141 -0.168644 0
M  V30 11380 H 1063.27 2.92625 -1.79515 0
M  V30 11381 N 1065.71 0.390394 1.52688 0
M  V30 11382 C 1066.96 -0.191729 2.01892 0
M  V30 11383 C 1067.29 -1.4637 1.27631 0
M  V30 11384 O 1066.56 -1.90809 0.377094 0
M  V30 11385 C 1066.85 -0.458535 3.57169 0
M  V30 11386 C 1066.7 0.828796 4.42098 0
M  V30 11387 C 1068.02 -1.2487 4.22014 0
M  V30 11388 H 1065.14 -0.0682091 0.733837 0
M  V30 11389 H 1067.78 0.520176 1.82741 0
M  V30 11390 H 1065.93 -1.06498 3.73618 0
M  V30 11391 H 1067.6 1.46562 4.37398 0
M  V30 11392 H 1065.85 1.44388 4.09066 0
M  V30 11393 H 1066.52 0.596746 5.48765 0
M  V30 11394 H 1068.99 -0.735452 4.09549 0
M  V30 11395 H 1067.87 -1.40412 5.30637 0
M  V30 11396 H 1068.13 -2.2642 3.79719 0
M  V30 11397 N 1067.19 -1.57141 0.120249 0
M  V30 11398 C 1068.44 -1.94852 -0.536387 0
M  V30 11399 C 1068.76 -1.00452 -1.67136 0
M  V30 11400 O 1068.03 -0.061053 -1.95805 0
M  V30 11401 H 1066.61 -0.719411 -0.201138 0
M  V30 11402 H 1069.27 -1.93977 0.189482 0
M  V30 11403 H 1068.37 -2.97917 -0.930145 0
M  V30 11404 N 1068.67 0.153526 -1.5685 0
M  V30 11405 C 1069.6 1.19162 -2.00805 0
M  V30 11406 C 1070.58 1.45172 -0.886518 0
M  V30 11407 O 1071.76 1.56203 -1.15387 0
M  V30 11408 C 1068.89 2.52637 -2.38311 0
M  V30 11409 C 1067.85 2.41161 -3.53589 0
M  V30 11410 C 1067.17 3.79287 -3.76889 0
M  V30 11411 C 1068.47 1.90122 -4.86468 0
M  V30 11412 H 1070.17 0.82617 -2.87776 0
M  V30 11413 H 1067.71 0.395972 -1.38449 0
M  V30 11414 H 1069.67 3.25478 -2.6766 0
M  V30 11415 H 1068.39 2.91005 -1.4827 0
M  V30 11416 H 1067.05 1.70772 -3.24395 0
M  V30 11417 H 1066.7 4.15079 -2.84109 0
M  V30 11418 H 1066.4 3.72472 -4.54465 0
M  V30 11419 H 1067.92 4.53687 -4.08657 0
M  V30 11420 H 1069.33 2.52752 -5.14577 0
M  V30 11421 H 1067.73 1.94214 -5.67804 0
M  V30 11422 H 1068.8 0.856517 -4.77275 0
M  V30 11423 N 1070.14 1.51827 0.422667 0
M  V30 11424 C 1071.56 1.57533 1.00201 0
M  V30 11425 C 1071.91 0.407623 1.91919 0
M  V30 11426 O 1071.03 -0.473763 2.1115 0
M  V30 11427 C 1071.63 2.85508 1.82403 0
M  V30 11428 C 1070.19 2.93737 2.35362 0
M  V30 11429 C 1069.33 2.52343 1.14971 0
M  V30 11430 H 1072.28 1.57391 0.20339 0
M  V30 11431 H 1072.3 2.70097 2.68007 0
M  V30 11432 H 1071.82 3.70477 1.15623 0
M  V30 11433 H 1069.92 2.13231 3.05554 0
M  V30 11434 H 1070.03 3.977 2.67155 0
M  V30 11435 H 1068.39 2.05878 1.49955 0
M  V30 11436 H 1069.18 3.39672 0.497786 0
M  V30 11437 N 1071.62 -0.679052 1.4222 0
M  V30 11438 C 1072.55 -1.80481 1.48152 0
M  V30 11439 C 1073.53 -1.66698 0.338502 0
M  V30 11440 O 1074.72 -1.86183 0.552228 0
M  V30 11441 C 1071.85 -3.18746 1.37908 0
M  V30 11442 C 1070.8 -3.47258 2.50192 0
M  V30 11443 C 1070.13 -4.85052 2.25008 0
M  V30 11444 C 1071.43 -3.44576 3.92511 0
M  V30 11445 H 1073.12 -1.75774 2.42371 0
M  V30 11446 H 1070.67 -0.844241 1.16656 0
M  V30 11447 H 1072.62 -3.97229 1.40666 0
M  V30 11448 H 1071.35 -3.24119 0.401806 0
M  V30 11449 H 1070 -2.71133 2.46744 0
M  V30 11450 H 1069.65 -4.8707 1.25584 0
M  V30 11451 H 1069.35 -5.05092 3.00259 0
M  V30 11452 H 1070.88 -5.65825 2.29508 0
M  V30 11453 H 1072.29 -4.13036 3.97585 0
M  V30 11454 H 1070.69 -3.76151 4.67579 0
M  V30 11455 H 1071.76 -2.4323 4.19484 0
M  V30 11456 N 1073.1 -1.28322 -0.914942 0
M  V30 11457 C 1074.51 -1.13937 -1.47903 0
M  V30 11458 C 1074.86 0.271072 -1.94318 0
M  V30 11459 O 1073.99 1.16522 -1.8235 0
M  V30 11460 C 1074.58 -2.06221 -2.68809 0
M  V30 11461 C 1073.14 -1.95903 -3.21402 0
M  V30 11462 C 1072.29 -1.98031 -1.94111 0
M  V30 11463 H 1075.24 -1.41029 -0.727772 0
M  V30 11464 H 1075.26 -1.6255 -3.44031 0
M  V30 11465 H 1074.77 -3.08866 -2.34997 0
M  V30 11466 H 1072.87 -0.962907 -3.59943 0
M  V30 11467 H 1072.99 -2.82799 -3.86732 0
M  V30 11468 H 1071.35 -1.42423 -2.11158 0
M  V30 11469 H 1072.13 -3.02354 -1.62595 0
M  V30 11470 N 1074.58 1.12322 -1.10551 0
M  V30 11471 C 1075.8 1.8822 -0.871093 0
M  V30 11472 C 1076.23 1.7916 0.573005 0
M  V30 11473 O 1075.59 1.14738 1.40374 0
M  V30 11474 C 1075.63 3.35349 -1.32565 0
M  V30 11475 O 1074.74 4.09461 -0.49145 0
M  V30 11476 H 1074.08 0.584787 -0.314516 0
M  V30 11477 H 1076.61 1.42039 -1.47262 0
M  V30 11478 H 1076.62 3.86189 -1.31612 0
M  V30 11479 H 1075.29 3.4126 -2.37728 0
M  V30 11480 H 1073.87 3.68575 -0.566294 0
M  V30 11481 N 1076.06 0.894434 1.2976 0
M  V30 11482 C 1077.01 0.339611 2.25457 0
M  V30 11483 C 1077.99 -0.537326 1.51663 0
M  V30 11484 O 1079.18 -0.380204 1.72868 0
M  V30 11485 C 1076.31 -0.436494 3.40514 0
M  V30 11486 C 1075.4 0.455065 4.21651 0
M  V30 11487 N 1075.79 1.55988 4.81146 0
M  V30 11488 C 1074.09 0.251893 4.45288 0
M  V30 11489 C 1074.79 2.1117 5.42017 0
M  V30 11490 N 1073.76 1.40541 5.25118 0
M  V30 11491 H 1077.57 1.18365 2.69011 0
M  V30 11492 H 1075.08 0.744895 1.44309 0
M  V30 11493 H 1077.08 -0.850678 4.08129 0
M  V30 11494 H 1075.74 -1.27786 2.98498 0
M  V30 11495 H 1076.75 1.94266 4.80084 0
M  V30 11496 H 1073.42 -0.551536 4.13841 0
M  V30 11497 H 1074.81 3.04 5.99194 0
M  V30 11498 N 1077.53 -1.43282 0.656365 0
M  V30 11499 C 1078.78 -2.02075 0.171293 0
M  V30 11500 C 1079.11 -1.51682 -1.21269 0
M  V30 11501 O 1078.39 -0.711243 -1.81029 0
M  V30 11502 C 1078.67 -3.59621 0.185602 0
M  V30 11503 C 1078.52 -4.20239 1.60373 0
M  V30 11504 C 1079.84 -4.37515 -0.476289 0
M  V30 11505 H 1076.96 -0.73424 0.0637185 0
M  V30 11506 H 1079.6 -1.70539 0.837648 0
M  V30 11507 H 1077.75 -3.86619 -0.381804 0
M  V30 11508 H 1079.43 -4.0426 2.22197 0
M  V30 11509 H 1077.67 -3.76769 2.15006 0
M  V30 11510 H 1078.34 -5.29333 1.56557 0
M  V30 11511 H 1080.82 -4.16099 0.00651073 0
M  V30 11512 H 1079.69 -5.47169 -0.435562 0
M  V30 11513 H 1079.95 -4.14003 -1.55093 0
M  V30 11514 N 1079.01 -0.398486 -1.52479 0
M  V30 11515 C 1080.24 0.183059 -2.06591 0
M  V30 11516 C 1080.66 1.3898 -1.26753 0
M  V30 11517 O 1080.02 1.78885 -0.294959 0
M  V30 11518 C 1080.07 0.522392 -3.56796 0
M  V30 11519 O 1079.17 1.61499 -3.79462 0
M  V30 11520 H 1078.51 0.0188411 -0.663733 0
M  V30 11521 H 1081.04 -0.56861 -1.9654 0
M  V30 11522 H 1081.05 0.784078 -4.00395 0
M  V30 11523 H 1079.73 -0.359807 -4.14341 0
M  V30 11524 H 1078.31 1.3463 -3.47749 0
M  V30 11525 N 1080.49 1.57075 -0.12858 0
M  V30 11526 C 1081.42 2.18833 0.814519 0
M  V30 11527 C 1082.4 1.13114 1.2704 0
M  V30 11528 O 1083.59 1.41387 1.33129 0
M  V30 11529 C 1080.72 2.79535 2.06101 0
M  V30 11530 C 1079.67 3.9092 1.74257 0
M  V30 11531 C 1079 4.38473 3.06015 0
M  V30 11532 C 1080.3 5.1257 1.00345 0
M  V30 11533 H 1081.99 2.97895 0.299862 0
M  V30 11534 H 1079.54 1.4329 0.14279 0
M  V30 11535 H 1081.49 3.21401 2.72543 0
M  V30 11536 H 1080.21 1.97777 2.59907 0
M  V30 11537 H 1078.87 3.49645 1.102 0
M  V30 11538 H 1078.52 3.53561 3.57776 0
M  V30 11539 H 1078.22 5.13591 2.85479 0
M  V30 11540 H 1079.75 4.82997 3.7356 0
M  V30 11541 H 1081.16 5.51395 1.56959 0
M  V30 11542 H 1079.56 5.93333 0.898693 0
M  V30 11543 H 1080.63 4.84899 -0.0081335 0
M  V30 11544 N 1081.97 -0.145205 1.5693 0
M  V30 11545 C 1083.2 -0.872398 1.87608 0
M  V30 11546 C 1083.61 -1.74657 0.716975 0
M  V30 11547 O 1082.97 -1.79792 -0.3132 0
M  V30 11548 C 1083.02 -1.72762 3.17546 0
M  V30 11549 O 1082.74 -0.888681 4.28992 0
M  V30 11550 C 1084.24 -2.56224 3.61751 0
M  V30 11551 H 1081.46 -0.252166 0.621815 0
M  V30 11552 H 1084.01 -0.137456 2.04038 0
M  V30 11553 H 1082.16 -2.41561 3.02865 0
M  V30 11554 H 1082.58 -1.47601 5.03303 0
M  V30 11555 H 1084.05 -3.11804 4.55502 0
M  V30 11556 H 1084.53 -3.32347 2.87127 0
M  V30 11557 H 1085.13 -1.92714 3.79133 0
M  V30 11558 N 1083.45 -1.52049 -0.414609 0
M  V30 11559 C 1084.7 -1.65511 -1.15977 0
M  V30 11560 C 1085.02 -0.384703 -1.91168 0
M  V30 11561 O 1084.29 0.600247 -1.86477 0
M  V30 11562 H 1082.87 -0.610039 -0.431116 0
M  V30 11563 H 1085.53 -1.8907 -0.473139 0
M  V30 11564 H 1084.62 -2.4936 -1.87686 0
M  V30 11565 N 1084.93 0.6715 -1.42579 0
M  V30 11566 C 1085.84 1.81435 -1.48723 0
M  V30 11567 C 1086.85 1.69895 -0.375716 0
M  V30 11568 O 1088.03 1.91388 -0.627115 0
M  V30 11569 C 1085.09 3.17599 -1.39038 0
M  V30 11570 C 1084.15 3.41071 -2.60709 0
M  V30 11571 C 1083.39 4.7074 -2.51476 0
M  V30 11572 O 1083.61 5.48868 -1.55243 0
M  V30 11573 O 1082.54 4.95528 -3.41666 0
M  V30 11574 H 1086.37 1.79206 -2.45191 0
M  V30 11575 H 1083.95 0.827666 -1.24379 0
M  V30 11576 H 1085.84 3.98847 -1.3601 0
M  V30 11577 H 1084.51 3.20458 -0.456966 0
M  V30 11578 H 1083.42 2.59659 -2.69311 0
M  V30 11579 H 1084.75 3.43045 -3.5296 0
M  V30 11580 N 1086.4 1.28806 0.908124 0
M  V30 11581 C 1087.63 1.19271 1.69674 0
M  V30 11582 C 1088.05 -0.244403 1.86505 0
M  V30 11583 O 1087.41 -1.17668 1.37927 0
M  V30 11584 C 1087.46 1.9023 3.06341 0
M  V30 11585 O 1086.56 1.2136 3.94139 0
M  V30 11586 H 1085.9 0.413738 0.519343 0
M  V30 11587 H 1088.43 1.70227 1.13508 0
M  V30 11588 H 1088.44 1.98356 3.56537 0
M  V30 11589 H 1087.12 2.94762 2.93408 0
M  V30 11590 H 1085.7 1.21435 3.52573 0
M  V30 11591 N 1087.88 -1.11734 1.11145 0
M  V30 11592 C 1089.16 -1.79795 0.770261 0
M  V30 11593 C 1089.54 -1.97624 -0.742158 0
M  V30 11594 O 1088.89 -1.55847 -1.67105 0
M  V30 11595 C 1089.1 -3.13684 1.52982 0
M  V30 11596 C 1090.44 -3.88771 1.70711 0
M  V30 11597 O 1091.47 -3.23363 1.49381 0
M  V30 11598 O 1090.33 -5.06134 2.06132 0
M  V30 11599 H 1087.42 -0.778617 0.27872 0
M  V30 11600 H 1089.97 -1.18504 1.2147 0
M  V30 11601 H 1088.74 -2.96043 2.55879 0
M  V30 11602 H 1088.36 -3.82687 1.07873 0
M  V30 11603 N 1089.36 -0.901303 -1.29284 0
M  V30 11604 C 1090.61 -0.527 -1.95108 0
M  V30 11605 C 1090.93 0.930065 -1.71391 0
M  V30 11606 O 1090.2 1.65601 -1.04658 0
M  V30 11607 H 1088.78 -0.191903 -0.721929 0
M  V30 11608 H 1091.44 -1.14795 -1.57506 0
M  V30 11609 H 1090.54 -0.710945 -3.03895 0
M  V30 11610 N 1090.84 1.42931 -0.663954 0
M  V30 11611 C 1092.09 2.01284 -0.181379 0
M  V30 11612 C 1092.41 1.52708 1.21265 0
M  V30 11613 O 1091.68 0.744181 1.81215 0
M  V30 11614 H 1090.26 0.744248 -0.0640646 0
M  V30 11615 H 1092.92 1.74997 -0.858031 0
M  V30 11616 H 1092.01 3.11613 -0.174273 0
M  V30 11617 N 1092.32 0.406567 1.52266 0
M  V30 11618 C 1093.55 -0.169378 2.05905 0
M  V30 11619 C 1093.95 -1.39626 1.27676 0
M  V30 11620 O 1093.3 -1.80871 0.32114 0
M  V30 11621 C 1093.36 -0.587209 3.54672 0
M  V30 11622 C 1093.02 0.528588 4.53933 0
M  V30 11623 C 1094.02 1.39137 5.00936 0
M  V30 11624 C 1091.7 0.700549 4.97391 0
M  V30 11625 C 1093.7 2.41108 5.90039 0
M  V30 11626 C 1091.39 1.72357 5.8629 0
M  V30 11627 C 1092.38 2.57725 6.32509 0
M  V30 11628 O 1092.07 3.58275 7.19649 0
M  V30 11629 H 1091.8 -0.0250574 0.675535 0
M  V30 11630 H 1094.36 0.575377 1.97177 0
M  V30 11631 H 1092.59 -1.38421 3.61077 0
M  V30 11632 H 1094.28 -1.09078 3.90969 0
M  V30 11633 H 1095.04 1.26991 4.68079 0
M  V30 11634 H 1090.92 0.0457503 4.60977 0
M  V30 11635 H 1094.47 3.07774 6.26036 0
M  V30 11636 H 1090.36 1.84535 6.1856 0
M  V30 11637 H 1091.13 3.54489 7.37753 0
M  V30 11638 N 1093.79 -1.57004 0.136909 0
M  V30 11639 C 1094.73 -2.12004 -0.844362 0
M  V30 11640 C 1095.71 -1.04099 -1.24909 0
M  V30 11641 O 1096.89 -1.31866 -1.34698 0
M  V30 11642 C 1094.02 -2.63147 -2.13241 0
M  V30 11643 C 1093.06 -3.83105 -1.87438 0
M  V30 11644 S 1093.9 -5.2461 -1.07447 0
M  V30 11645 C 1095.05 -5.79134 -2.37392 0
M  V30 11646 H 1095.28 -2.94905 -0.376614 0
M  V30 11647 H 1092.82 -1.54207 -0.0771977 0
M  V30 11648 H 1094.78 -2.93264 -2.87239 0
M  V30 11649 H 1093.44 -1.80395 -2.57131 0
M  V30 11650 H 1092.63 -4.17099 -2.82922 0
M  V30 11651 H 1092.23 -3.53696 -1.21553 0
M  V30 11652 H 1094.52 -5.8995 -3.33114 0
M  V30 11653 H 1095.47 -6.76887 -2.07918 0
M  V30 11654 H 1095.87 -5.07311 -2.47579 0
M  V30 11655 N 1095.27 0.136881 -1.57004 0
M  V30 11656 C 1096.55 0.87705 -1.74835 0
M  V30 11657 C 1096.93 1.98886 -0.707639 0
M  V30 11658 O 1096.28 2.26879 0.271652 0
M  V30 11659 C 1096.49 1.41021 -3.1924 0
M  V30 11660 C 1097.84 1.86963 -3.81222 0
M  V30 11661 O 1098.86 1.5074 -3.22732 0
M  V30 11662 O 1097.72 2.53798 -4.83993 0
M  V30 11663 H 1094.81 0.415192 -0.715223 0
M  V30 11664 H 1097.36 0.122016 -1.69261 0
M  V30 11665 H 1096.13 0.611677 -3.8649 0
M  V30 11666 H 1095.75 2.22846 -3.2928 0
M  V30 11667 N 1096.75 1.52266 0.40654 0
M  V30 11668 C 1097.68 1.70519 1.51653 0
M  V30 11669 C 1098.66 0.552798 1.52915 0
M  V30 11670 O 1099.85 0.780468 1.71584 0
M  V30 11671 C 1096.97 1.74686 2.90176 0
M  V30 11672 C 1096.02 2.96255 3.06815 0
M  V30 11673 S 1096.85 4.56553 2.79856 0
M  V30 11674 C 1098.01 4.63511 4.20605 0
M  V30 11675 H 1098.24 2.64399 1.35942 0
M  V30 11676 H 1095.77 1.42337 0.598284 0
M  V30 11677 H 1097.73 1.77773 3.7001 0
M  V30 11678 H 1096.39 0.819291 3.03227 0
M  V30 11679 H 1095.59 2.95661 4.08167 0
M  V30 11680 H 1095.19 2.91069 2.34851 0
M  V30 11681 H 1097.48 4.41047 5.1428 0
M  V30 11682 H 1098.42 5.65456 4.26222 0
M  V30 11683 H 1098.83 3.92518 4.05697 0
M  V30 11684 N 1098.23 -0.663929 1.42933 0
M  V30 11685 C 1099.45 -1.45691 1.47611 0
M  V30 11686 C 1099.88 -1.87875 0.0920305 0
M  V30 11687 O 1099.24 -1.56696 -0.91192 0
M  V30 11688 C 1099.28 -2.67517 2.41799 0
M  V30 11689 O 1098.39 -3.66187 1.89686 0
M  V30 11690 H 1097.73 -0.437257 0.499702 0
M  V30 11691 H 1100.26 -0.813397 1.87737 0
M  V30 11692 H 1100.27 -3.1546 2.58745 0
M  V30 11693 H 1098.94 -2.36155 3.4235 0
M  V30 11694 H 1097.52 -3.25274 1.82349 0
M  V30 11695 N 1099.71 -1.29285 -0.901281 0
M  V30 11696 C 1100.65 -1.1428 -2.00521 0
M  V30 11697 C 1101.62 -0.0365428 -1.6606 0
M  V30 11698 O 1102.81 -0.203771 -1.89709 0
M  V30 11699 C 1099.95 -0.823671 -3.35126 0
M  V30 11700 C 1099.06 -2.01021 -3.8238 0
M  V30 11701 C 1098.2 -1.6306 -5.05554 0
M  V30 11702 C 1097.24 -2.78304 -5.45173 0
M  V30 11703 N 1096.37 -2.4075 -6.59533 0
M  V30 11704 H 1101.21 -2.08729 -2.12688 0
M  V30 11705 H 1098.75 -1.0387 -1.04161 0
M  V30 11706 H 1100.71 -0.61934 -4.12577 0
M  V30 11707 H 1099.34 0.0839113 -3.22691 0
M  V30 11708 H 1098.39 -2.32629 -3.00978 0
M  V30 11709 H 1099.7 -2.8738 -4.07694 0
M  V30 11710 H 1098.86 -1.38906 -5.90584 0
M  V30 11711 H 1097.59 -0.738464 -4.82077 0
M  V30 11712 H 1096.6 -3.03142 -4.58678 0
M  V30 11713 H 1097.82 -3.68179 -5.70632 0
M  V30 11714 H 1095.77 -1.54022 -6.37662 0
M  V30 11715 H 1095.69 -3.20643 -6.84634 0
M  V30 11716 H 1096.96 -2.19912 -7.47836 0
M  V30 11717 N 1101.18 1.11143 -1.11736 0
M  V30 11718 C 1102.46 1.79384 -0.779785 0
M  V30 11719 C 1102.84 1.98015 0.731668 0
M  V30 11720 O 1102.19 1.56731 1.66276 0
M  V30 11721 C 1102.4 3.12868 -1.54643 0
M  V30 11722 C 1103.75 3.8786 -1.7277 0
M  V30 11723 O 1104.77 3.22566 -1.51094 0
M  V30 11724 O 1103.63 5.05034 -2.08813 0
M  V30 11725 H 1100.72 0.777128 -0.282845 0
M  V30 11726 H 1103.27 1.17858 -1.22096 0
M  V30 11727 H 1102.04 2.94682 -2.57446 0
M  V30 11728 H 1101.67 3.82109 -1.09901 0
M  V30 11729 N 1102.66 0.908147 1.28804 0
M  V30 11730 C 1103.57 0.397167 2.31214 0
M  V30 11731 C 1104.59 -0.512352 1.66286 0
M  V30 11732 O 1105.76 -0.399893 1.9739 0
M  V30 11733 C 1102.83 -0.359522 3.44831 0
M  V30 11734 C 1101.89 0.582539 4.25329 0
M  V30 11735 C 1101.12 -0.138133 5.33521 0
M  V30 11736 O 1101.35 -1.36076 5.53931 0
M  V30 11737 O 1100.28 0.523682 5.99618 0
M  V30 11738 H 1104.11 1.247 2.76918 0
M  V30 11739 H 1101.69 0.672766 1.33395 0
M  V30 11740 H 1103.57 -0.787098 4.13984 0
M  V30 11741 H 1102.25 -1.18528 3.01219 0
M  V30 11742 H 1101.16 1.0594 3.58786 0
M  V30 11743 H 1102.49 1.37495 4.72605 0
M  V30 11744 N 1104.14 -1.42577 0.671525 0
M  V30 11745 C 1105.37 -2.06442 0.199152 0
M  V30 11746 C 1105.79 -1.50104 -1.1336 0
M  V30 11747 O 1105.15 -0.618211 -1.70434 0
M  V30 11748 C 1105.2 -3.60323 0.141215 0
M  V30 11749 O 1104.3 -4.02655 -0.891238 0
M  V30 11750 H 1103.64 -0.655919 0.103277 0
M  V30 11751 H 1106.17 -1.82768 0.919614 0
M  V30 11752 H 1106.18 -4.07984 -0.0360209 0
M  V30 11753 H 1104.86 -4.00702 1.11403 0
M  V30 11754 H 1103.43 -3.66549 -0.685309 0
M  V30 11755 N 1105.62 -0.414636 -1.52048 0
M  V30 11756 C 1106.86 0.159585 -2.02171 0
M  V30 11757 C 1107.2 1.44321 -1.29943 0
M  V30 11758 O 1106.47 1.90185 -0.407402 0
M  V30 11759 C 1106.76 0.401655 -3.57853 0
M  V30 11760 C 1106.61 -0.899026 -4.40724 0
M  V30 11761 C 1107.93 1.1814 -4.23947 0
M  V30 11762 H 1105.05 0.0565257 -0.734829 0
M  V30 11763 H 1107.69 -0.549183 -1.8189 0
M  V30 11764 H 1105.84 1.00541 -3.75265 0
M  V30 11765 H 1107.51 -1.53502 -4.35011 0
M  V30 11766 H 1105.75 -1.50877 -4.06717 0
M  V30 11767 H 1106.42 -0.683974 -5.47746 0
M  V30 11768 H 1108.9 0.670203 -4.10667 0
M  V30 11769 H 1107.78 1.31953 -5.32804 0
M  V30 11770 H 1108.04 2.2035 -3.83273 0
M  V30 11771 N 1107.1 1.56929 -0.145233 0
M  V30 11772 C 1108.37 1.8767 0.551288 0
M  V30 11773 C 1108.75 1.05089 1.83083 0
M  V30 11774 O 1108.1 0.137201 2.28088 0
M  V30 11775 C 1108.31 3.39268 0.818445 0
M  V30 11776 C 1109.66 4.08447 1.16 0
M  V30 11777 O 1110.68 3.44436 0.907857 0
M  V30 11778 O 1109.54 5.21488 1.63441 0
M  V30 11779 H 1106.64 0.777788 0.281024 0
M  V30 11780 H 1109.18 1.68724 -0.181712 0
M  V30 11781 H 1107.95 3.91203 -0.0871897 0
M  V30 11782 H 1107.58 3.63735 1.60569 0
M  V30 11783 N 1108.58 -0.128553 1.57075 0
M  V30 11784 C 1109.81 -0.851214 1.8825 0
M  V30 11785 C 1110.21 -1.74402 0.733531 0
M  V30 11786 O 1109.56 -1.81149 -0.305108 0
M  V30 11787 C 1109.62 -1.74451 3.14336 0
M  V30 11788 C 1109.28 -1.02699 4.45311 0
M  V30 11789 C 1110.28 -0.37224 5.18566 0
M  V30 11790 C 1107.96 -1.01101 4.9202 0
M  V30 11791 C 1109.96 0.2889 6.36745 0
M  V30 11792 C 1107.65 -0.346063 6.10119 0
M  V30 11793 C 1108.64 0.302744 6.82329 0
M  V30 11794 O 1108.33 0.9571 7.98182 0
M  V30 11795 H 1108.06 -0.250529 0.627863 0
M  V30 11796 H 1110.62 -0.120418 2.05047 0
M  V30 11797 H 1108.85 -2.51671 2.93596 0
M  V30 11798 H 1110.54 -2.34075 3.31608 0
M  V30 11799 H 1111.3 -0.376271 4.83538 0
M  V30 11800 H 1107.18 -1.50543 4.35727 0
M  V30 11801 H 1110.73 0.795901 6.93045 0
M  V30 11802 H 1106.62 -0.339762 6.44605 0
M  V30 11803 H 1107.39 0.860616 8.13963 0
M  V30 11804 N 1110.05 -1.5248 -0.398459 0
M  V30 11805 C 1111.3 -1.67309 -1.1461 0
M  V30 11806 C 1111.63 -0.407095 -1.89885 0
M  V30 11807 O 1110.91 0.594834 -1.85181 0
M  V30 11808 C 1111.19 -2.90204 -2.13198 0
M  V30 11809 C 1111.04 -4.26881 -1.4175 0
M  V30 11810 C 1112.36 -3.08634 -3.13741 0
M  V30 11811 H 1109.48 -0.608853 -0.415292 0
M  V30 11812 H 1112.12 -1.85057 -0.430573 0
M  V30 11813 H 1110.27 -2.75204 -2.74218 0
M  V30 11814 H 1111.95 -4.53631 -0.837676 0
M  V30 11815 H 1110.19 -4.27793 -0.719387 0
M  V30 11816 H 1110.86 -5.08939 -2.1374 0
M  V30 11817 H 1113.34 -3.22603 -2.62805 0
M  V30 11818 H 1112.21 -3.96117 -3.79977 0
M  V30 11819 H 1112.47 -2.22425 -3.82073 0
M  V30 11820 N 1111.53 0.65634 -1.43283 0
M  V30 11821 C 1112.94 1.23744 -1.39801 0
M  V30 11822 C 1113.29 1.95942 -0.100507 0
M  V30 11823 O 1112.42 2.01063 0.800161 0
M  V30 11824 C 1113.01 2.25062 -2.53244 0
M  V30 11825 C 1111.57 2.78657 -2.53036 0
M  V30 11826 C 1110.72 1.53251 -2.31105 0
M  V30 11827 H 1113.67 0.448553 -1.52229 0
M  V30 11828 H 1113.69 3.07174 -2.24553 0
M  V30 11829 H 1113.2 1.72487 -3.47664 0
M  V30 11830 H 1111.3 3.35304 -1.62487 0
M  V30 11831 H 1111.42 3.26414 -3.507 0
M  V30 11832 H 1109.78 1.80487 -1.79713 0
M  V30 11833 H 1110.56 1.02615 -3.27605 0
M  V30 11834 N 1113.01 1.29761 0.894412 0
M  V30 11835 C 1113.94 1.09666 2.00121 0
M  V30 11836 C 1114.92 0.00700077 1.62598 0
M  V30 11837 O 1116.1 0.158728 1.87831 0
M  V30 11838 C 1113.23 0.670588 3.31995 0
M  V30 11839 C 1112.28 1.75974 3.88504 0
M  V30 11840 S 1113.11 3.36013 4.1696 0
M  V30 11841 C 1114.27 2.95285 5.51867 0
M  V30 11842 H 1114.5 2.03369 2.1686 0
M  V30 11843 H 1112.03 1.13968 1.04166 0
M  V30 11844 H 1113.99 0.431481 4.08226 0
M  V30 11845 H 1112.65 -0.246924 3.13128 0
M  V30 11846 H 1111.84 1.41367 4.83768 0
M  V30 11847 H 1111.45 1.95264 3.1898 0
M  V30 11848 H 1113.74 2.42659 6.32553 0
M  V30 11849 H 1114.68 3.8942 5.91403 0
M  V30 11850 H 1115.09 2.33426 5.13977 0
M  V30 11851 N 1114.49 -1.10549 1.12324 0
M  V30 11852 C 1115.42 -2.18911 0.812416 0
M  V30 11853 C 1116.4 -1.68628 -0.22327 0
M  V30 11854 O 1117.58 -1.94015 -0.0847184 0
M  V30 11855 C 1114.71 -3.46288 0.264947 0
M  V30 11856 C 1113.67 -4.09838 1.23356 0
M  V30 11857 C 1112.99 -5.31901 0.546374 0
M  V30 11858 C 1114.29 -4.53686 2.58778 0
M  V30 11859 H 1115.99 -2.45169 1.71851 0
M  V30 11860 H 1113.53 -1.17834 0.827715 0
M  V30 11861 H 1115.49 -4.21385 0.0352364 0
M  V30 11862 H 1114.21 -3.19517 -0.676479 0
M  V30 11863 H 1112.87 -3.36746 1.44906 0
M  V30 11864 H 1112.52 -5.01406 -0.400157 0
M  V30 11865 H 1112.22 -5.75372 1.19249 0
M  V30 11866 H 1113.74 -6.09731 0.325673 0
M  V30 11867 H 1115.16 -5.20063 2.41263 0
M  V30 11868 H 1113.55 -5.08003 3.19457 0
M  V30 11869 H 1114.62 -3.66665 3.17309 0
M  V30 11870 N 1115.97 -0.914965 -1.28321 0
M  V30 11871 C 1117.24 -0.46764 -1.89928 0
M  V30 11872 C 1117.62 1.05364 -1.82925 0
M  V30 11873 O 1116.97 1.90223 -1.26599 0
M  V30 11874 C 1117.18 -0.999372 -3.34385 0
M  V30 11875 C 1118.53 -1.0522 -4.11356 0
M  V30 11876 O 1119.55 -0.9481 -3.4335 0
M  V30 11877 O 1118.41 -1.21085 -5.32917 0
M  V30 11878 H 1115.51 -0.148398 -0.813577 0
M  V30 11879 H 1118.05 -1.00583 -1.36679 0
M  V30 11880 H 1116.82 -2.04333 -3.33712 0
M  V30 11881 H 1116.45 -0.442083 -3.95135 0
M  V30 11882 N 1117.44 1.42219 -0.679077 0
M  V30 11883 C 1118.38 2.28152 0.0468359 0
M  V30 11884 C 1119.35 1.41307 0.804433 0
M  V30 11885 O 1120.54 1.70744 0.798673 0
M  V30 11886 C 1117.67 3.21236 1.07355 0
M  V30 11887 C 1116.71 4.24515 0.411042 0
M  V30 11888 S 1117.54 5.28958 -0.834506 0
M  V30 11889 C 1118.7 6.25608 0.191029 0
M  V30 11890 H 1118.93 2.89371 -0.682045 0
M  V30 11891 H 1116.47 1.47112 -0.468767 0
M  V30 11892 H 1118.42 3.75402 1.66082 0
M  V30 11893 H 1117.09 2.59145 1.7749 0
M  V30 11894 H 1116.28 4.89849 1.1859 0
M  V30 11895 H 1115.88 3.73859 -0.102742 0
M  V30 11896 H 1118.17 6.69323 1.04944 0
M  V30 11897 H 1119.12 7.06806 -0.427959 0
M  V30 11898 H 1119.52 5.61926 0.538422 0
M  V30 11899 N 1118.92 0.422693 1.51826 0
M  V30 11900 C 1119.87 -0.396088 2.27376 0
M  V30 11901 C 1120.84 -1.02946 1.30351 0
M  V30 11902 O 1122.02 -1.05116 1.59233 0
M  V30 11903 C 1119.16 -1.49942 3.10824 0
M  V30 11904 C 1118.28 -0.885623 4.22825 0
M  V30 11905 C 1117.41 -1.96278 4.93608 0
M  V30 11906 C 1116.45 -1.32664 5.97551 0
M  V30 11907 N 1115.59 -2.34452 6.61798 0
M  V30 11908 H 1120.43 0.254571 2.96911 0
M  V30 11909 H 1117.96 0.137383 1.46457 0
M  V30 11910 H 1119.92 -2.15023 3.57521 0
M  V30 11911 H 1118.55 -2.11991 2.43433 0
M  V30 11912 H 1117.6 -0.123491 3.80199 0
M  V30 11913 H 1118.92 -0.381057 4.97342 0
M  V30 11914 H 1118.07 -2.69055 5.43778 0
M  V30 11915 H 1116.81 -2.50103 4.18688 0
M  V30 11916 H 1115.81 -0.584262 5.46687 0
M  V30 11917 H 1117.04 -0.7959 6.7442 0
M  V30 11918 H 1114.99 -2.87385 5.897 0
M  V30 11919 H 1114.9 -1.88845 7.32034 0
M  V30 11920 H 1116.17 -3.06757 7.16603 0
M  V30 11921 N 1120.4 -1.5685 0.153553 0
M  V30 11922 C 1121.65 -1.95946 -0.494936 0
M  V30 11923 C 1121.97 -1.03975 -1.64967 0
M  V30 11924 O 1121.24 -0.102572 -1.95631 0
M  V30 11925 H 1119.82 -0.723516 -0.185833 0
M  V30 11926 H 1122.48 -1.93531 0.230585 0
M  V30 11927 H 1121.58 -2.99823 -0.866743 0
M  V30 11928 N 1121.88 0.120221 -1.57141 0
M  V30 11929 C 1123.15 0.858458 -1.75755 0
M  V30 11930 C 1123.53 1.98124 -0.728693 0
M  V30 11931 O 1122.88 2.27155 0.247573 0
M  V30 11932 C 1123.09 1.37627 -3.20718 0
M  V30 11933 C 1124.44 1.82909 -3.83183 0
M  V30 11934 O 1125.46 1.47309 -3.24312 0
M  V30 11935 O 1124.32 2.4865 -4.86657 0
M  V30 11936 H 1121.42 0.407583 -0.719587 0
M  V30 11937 H 1123.96 0.104057 -1.69381 0
M  V30 11938 H 1122.74 0.570651 -3.87117 0
M  V30 11939 H 1122.36 2.19341 -3.31625 0
M  V30 11940 N 1123.36 1.52689 0.390367 0
M  V30 11941 C 1124.6 1.67914 1.13722 0
M  V30 11942 C 1124.94 0.417159 1.89667 0
M  V30 11943 O 1124.21 -0.585005 1.85494 0
M  V30 11944 C 1124.49 2.91331 2.11656 0
M  V30 11945 C 1124.35 4.27626 1.39484 0
M  V30 11946 C 1125.67 3.10293 3.12099 0
M  V30 11947 H 1122.78 0.611047 0.412057 0
M  V30 11948 H 1125.43 1.85283 0.420753 0
M  V30 11949 H 1123.58 2.76654 2.72754 0
M  V30 11950 H 1125.25 4.54068 0.813607 0
M  V30 11951 H 1123.49 4.28169 0.69669 0
M  V30 11952 H 1124.16 5.10066 2.11038 0
M  V30 11953 H 1126.64 3.23992 2.6109 0
M  V30 11954 H 1125.51 3.98127 3.7787 0
M  V30 11955 H 1125.78 2.24448 3.80888 0
M  V30 11956 N 1124.83 -0.648732 1.43629 0
M  V30 11957 C 1125.78 -1.76145 1.49136 0
M  V30 11958 C 1126.75 -1.62569 0.340649 0
M  V30 11959 O 1127.94 -1.82748 0.548435 0
M  V30 11960 C 1125.08 -3.14321 1.42466 0
M  V30 11961 C 1124.19 -3.38999 2.67776 0
M  V30 11962 C 1123.32 -4.67047 2.53062 0
M  V30 11963 C 1122.36 -4.84845 3.7362 0
M  V30 11964 N 1121.5 -6.04155 3.57689 0
M  V30 11965 H 1126.34 -1.70774 2.44213 0
M  V30 11966 H 1123.88 -0.833311 1.2122 0
M  V30 11967 H 1125.84 -3.94206 1.36592 0
M  V30 11968 H 1124.47 -3.18751 0.509666 0
M  V30 11969 H 1123.52 -2.53179 2.83909 0
M  V30 11970 H 1124.83 -3.48035 3.57314 0
M  V30 11971 H 1123.98 -5.55066 2.44922 0
M  V30 11972 H 1122.72 -4.60339 1.61056 0
M  V30 11973 H 1121.73 -3.95261 3.82163 0
M  V30 11974 H 1122.95 -4.9338 4.6664 0
M  V30 11975 H 1120.9 -5.9857 2.6842 0
M  V30 11976 H 1120.82 -6.14169 4.40832 0
M  V30 11977 H 1122.08 -6.94782 3.53409 0
M  V30 11978 N 1126.31 -1.30234 -0.887518 0
M  V30 11979 C 1127.54 -1.21652 -1.66986 0
M  V30 11980 C 1127.95 0.223473 -1.87876 0
M  V30 11981 O 1127.29 1.15993 -1.42448 0
M  V30 11982 C 1127.36 -1.87173 -3.06931 0
M  V30 11983 C 1127.02 -3.36496 -3.09224 0
M  V30 11984 C 1128.02 -4.3253 -2.88469 0
M  V30 11985 C 1125.7 -3.77901 -3.30902 0
M  V30 11986 C 1127.7 -5.67942 -2.89344 0
M  V30 11987 C 1125.38 -5.13432 -3.31407 0
M  V30 11988 C 1126.38 -6.08263 -3.10653 0
M  V30 11989 O 1126.07 -7.41318 -3.1097 0
M  V30 11990 H 1125.8 -0.422224 -0.527923 0
M  V30 11991 H 1128.35 -1.72349 -1.11736 0
M  V30 11992 H 1126.58 -1.31002 -3.63834 0
M  V30 11993 H 1128.27 -1.72745 -3.67306 0
M  V30 11994 H 1129.04 -4.01873 -2.7152 0
M  V30 11995 H 1124.92 -3.04534 -3.46093 0
M  V30 11996 H 1128.46 -6.41936 -2.73063 0
M  V30 11997 H 1124.36 -5.4373 -3.47891 0
M  V30 11998 H 1125.13 -7.50275 -3.27153 0
M  V30 11999 N 1127.79 1.09952 -1.12909 0
M  V30 12000 C 1128.75 2.14615 -0.804548 0
M  V30 12001 C 1129.75 1.5975 0.18345 0
M  V30 12002 O 1130.94 1.74147 -0.0429623 0
M  V30 12003 C 1128.08 3.40333 -0.196471 0
M  V30 12004 H 1129.27 2.44835 -1.73193 0
M  V30 12005 H 1126.82 1.25399 -0.932997 0
M  V30 12006 H 1127.56 3.15735 0.740388 0
M  V30 12007 H 1127.34 3.81444 -0.907886 0
M  V30 12008 H 1128.83 4.17598 0.0139264 0
M  V30 12009 N 1129.27 0.921757 1.27833 0
M  V30 12010 C 1130.55 0.477706 1.89677 0
M  V30 12011 C 1130.93 -1.04392 1.83481 0
M  V30 12012 O 1130.27 -1.89549 1.27606 0
M  V30 12013 C 1130.48 1.01709 3.33851 0
M  V30 12014 C 1131.83 1.074 4.10792 0
M  V30 12015 O 1132.86 0.966295 3.42843 0
M  V30 12016 O 1131.71 1.23909 5.32268 0
M  V30 12017 H 1128.81 0.15271 0.812778 0
M  V30 12018 H 1131.35 1.01306 1.36144 0
M  V30 12019 H 1130.13 2.061 3.32623 0
M  V30 12020 H 1129.75 0.463031 3.94895 0
M  V30 12021 N 1130.75 -1.41857 0.686609 0
M  V30 12022 C 1132 -2.00594 0.21095 0
M  V30 12023 C 1132.31 -1.54974 -1.19341 0
M  V30 12024 O 1133.51 -2.0621 -1.76607 0
M  V30 12025 C 1131.97 -3.58418 0.326261 0
M  V30 12026 C 1131.58 -4.13022 1.73542 0
M  V30 12027 C 1133.32 -4.24404 -0.0900816 0
M  V30 12028 C 1131.23 -5.6325 1.80287 0
M  V30 12029 H 1130.16 -0.75025 0.0751077 0
M  V30 12030 H 1132.81 -1.62442 0.853508 0
M  V30 12031 H 1131.19 -3.9413 -0.384394 0
M  V30 12032 H 1132.37 -3.88747 2.47411 0
M  V30 12033 H 1130.68 -3.5953 2.10065 0
M  V30 12034 H 1133.28 -5.34666 -0.060004 0
M  V30 12035 H 1133.62 -4.00745 -1.12733 0
M  V30 12036 H 1134.15 -3.93695 0.569979 0
M  V30 12037 H 1130.89 -5.91724 2.82034 0
M  V30 12038 H 1130.41 -5.89479 1.1079 0
M  V30 12039 H 1132.09 -6.2787 1.56167 0
M  V30 12040 N 1132.22 -0.430739 -1.51599 0
M  V30 12041 C 1133.13 0.390347 -2.3133 0
M  V30 12042 C 1134.15 1.03376 -1.39962 0
M  V30 12043 O 1135.33 1.03057 -1.73035 0
M  V30 12044 C 1132.39 1.48039 -3.13505 0
M  V30 12045 C 1131.45 0.857792 -4.20643 0
M  V30 12046 C 1130.69 1.89589 -4.9889 0
M  V30 12047 O 1130.91 3.11717 -4.77691 0
M  V30 12048 O 1129.84 1.49009 -5.83164 0
M  V30 12049 H 1133.67 -0.260358 -3.02582 0
M  V30 12050 H 1131.25 -0.193428 -1.48143 0
M  V30 12051 H 1133.14 2.11272 -3.64612 0
M  V30 12052 H 1131.81 2.1153 -2.45024 0
M  V30 12053 H 1130.72 0.187592 -3.73629 0
M  V30 12054 H 1132.05 0.266474 -4.91478 0
M  V30 12055 N 1133.7 1.56767 -0.161869 0
M  V30 12056 C 1134.93 2.01401 0.49523 0
M  V30 12057 C 1135.35 1.04133 1.56646 0
M  V30 12058 O 1134.71 0.0193747 1.8129 0
M  V30 12059 C 1134.76 3.44695 1.05913 0
M  V30 12060 O 1133.86 3.50475 2.1735 0
M  V30 12061 H 1133.2 0.65314 0.1196 0
M  V30 12062 H 1135.73 2.02903 -0.26298 0
M  V30 12063 H 1135.74 3.83805 1.3841 0
M  V30 12064 H 1134.42 4.14991 0.274749 0
M  V30 12065 H 1133 3.23218 1.85969 0
M  V30 12066 N 1135.18 -0.111886 1.57202 0
M  V30 12067 C 1136.41 -0.836317 1.89791 0
M  V30 12068 C 1136.83 -1.72304 0.754513 0
M  V30 12069 O 1136.19 -1.78889 -0.294672 0
M  V30 12070 C 1136.24 -1.63971 3.21164 0
M  V30 12071 O 1135.34 -2.74726 3.0757 0
M  V30 12072 H 1134.68 -0.230833 0.622585 0
M  V30 12073 H 1137.21 -0.0921478 2.04392 0
M  V30 12074 H 1137.22 -2.02746 3.54059 0
M  V30 12075 H 1135.9 -0.98882 4.03974 0
M  V30 12076 H 1134.47 -2.39101 2.86156 0
M  V30 12077 N 1136.66 -1.52894 -0.382264 0
M  V30 12078 C 1137.61 -1.78799 -1.48774 0
M  V30 12079 C 1138.6 -0.65624 -1.56173 0
M  V30 12080 O 1139.81 -0.838856 -1.59258 0
M  V30 12081 H 1136.18 -0.565855 -0.49529 0
M  V30 12082 H 1138.15 -2.7136 -1.24122 0
M  V30 12083 C 1136.9 -1.97987 -2.85826 0
M  V30 12084 H 1136.22 -2.84505 -2.80886 0
M  V30 12085 H 1137.66 -2.20099 -3.62398 0
M  V30 12086 C 1136.12 -0.75427 -3.28348 0
M  V30 12087 O 1136.65 0.0650749 -4.01647 0
M  V30 12088 N 1134.86 -0.582457 -2.84703 0
M  V30 12089 H 1134.41 -1.25034 -2.2522 0
M  V30 12090 H 1134.36 0.236208 -3.13511 0
M  V30 12091 N 1138.14 0.641106 -1.43971 0
M  V30 12092 C 1139.37 1.42622 -1.49475 0
M  V30 12093 C 1139.78 1.8885 -0.115068 0
M  V30 12094 O 1139.12 1.60846 0.887378 0
M  V30 12095 C 1139.18 2.68643 -2.38896 0
M  V30 12096 C 1138.84 2.44276 -3.86236 0
M  V30 12097 C 1139.84 2.06732 -4.7703 0
M  V30 12098 C 1137.53 2.58225 -4.30842 0
M  V30 12099 C 1139.52 1.83451 -6.1043 0
M  V30 12100 C 1137.21 2.34559 -5.64292 0
M  V30 12101 C 1138.21 1.97229 -6.53903 0
M  V30 12102 O 1137.89 1.73819 -7.84884 0
M  V30 12103 H 1137.63 0.444187 -0.509582 0
M  V30 12104 H 1140.18 0.792179 -1.89509 0
M  V30 12105 H 1138.41 3.34649 -1.93771 0
M  V30 12106 H 1140.1 3.30623 -2.35464 0
M  V30 12107 H 1140.86 1.95521 -4.43843 0
M  V30 12108 H 1136.74 2.86253 -3.61359 0
M  V30 12109 H 1140.29 1.54238 -6.80335 0
M  V30 12110 H 1136.18 2.45376 -5.97043 0
M  V30 12111 H 1136.95 1.88146 -7.96582 0
M  V30 12112 N 1139.62 1.30703 0.880598 0
M  V30 12113 C 1140.55 1.11783 1.98947 0
M  V30 12114 C 1141.53 0.0242461 1.62582 0
M  V30 12115 O 1142.71 0.178641 1.87652 0
M  V30 12116 C 1139.84 0.705762 3.31265 0
M  V30 12117 C 1138.88 1.80084 3.86616 0
M  V30 12118 S 1139.72 3.40416 4.13373 0
M  V30 12119 C 1140.87 3.01122 5.48704 0
M  V30 12120 H 1141.11 2.05658 2.14691 0
M  V30 12121 H 1138.64 1.15067 1.02951 0
M  V30 12122 H 1140.6 0.474754 4.07745 0
M  V30 12123 H 1139.26 -0.213699 3.13372 0
M  V30 12124 H 1138.45 1.4649 4.82241 0
M  V30 12125 H 1138.05 1.98636 3.16891 0
M  V30 12126 H 1140.34 2.49355 6.29943 0
M  V30 12127 H 1141.29 3.95671 5.87239 0
M  V30 12128 H 1141.7 2.38865 5.11472 0
M  V30 12129 N 1141.09 -1.09351 1.1349 0
M  V30 12130 C 1142.06 -2.14185 0.815919 0
M  V30 12131 C 1143.06 -1.59845 -0.174976 0
M  V30 12132 O 1144.25 -1.74122 0.0521971 0
M  V30 12133 C 1141.38 -3.40224 0.214517 0
M  V30 12134 H 1142.57 -2.43913 1.74489 0
M  V30 12135 H 1140.12 -1.24902 0.939634 0
M  V30 12136 H 1140.86 -3.16123 -0.723634 0
M  V30 12137 H 1140.64 -3.80958 0.928102 0
M  V30 12138 H 1142.13 -4.17599 0.00821999 0
M  V30 12139 N 1142.57 -0.928524 -1.27343 0
M  V30 12140 C 1143.98 -0.613856 -1.7632 0
M  V30 12141 C 1144.33 0.870983 -1.75808 0
M  V30 12142 O 1143.46 1.68155 -1.36209 0
M  V30 12143 C 1144.05 -1.10755 -3.20186 0
M  V30 12144 C 1142.61 -0.843532 -3.66826 0
M  V30 12145 C 1141.76 -1.26579 -2.46724 0
M  V30 12146 H 1144.71 -1.10821 -1.13598 0
M  V30 12147 H 1144.73 -0.455598 -3.77763 0
M  V30 12148 H 1144.24 -2.18825 -3.20526 0
M  V30 12149 H 1142.34 0.223334 -3.7193 0
M  V30 12150 H 1142.46 -1.46165 -4.56259 0
M  V30 12151 H 1140.82 -0.684334 -2.45334 0
M  V30 12152 H 1141.6 -2.35516 -2.49774 0
M  V30 12153 N 1144.05 1.41491 -0.694123 0
M  V30 12154 C 1145.28 2.0528 -0.233128 0
M  V30 12155 C 1145.69 1.52329 1.12217 0
M  V30 12156 O 1145.03 0.66579 1.7121 0
M  V30 12157 C 1145.09 3.59326 -0.111718 0
M  V30 12158 C 1144.76 4.35065 -1.39882 0
M  V30 12159 C 1145.75 4.64446 -2.33637 0
M  V30 12160 C 1143.44 4.74364 -1.65179 0
M  V30 12161 C 1145.43 5.32083 -3.50951 0
M  V30 12162 C 1143.12 5.41737 -2.82779 0
M  V30 12163 C 1144.12 5.70524 -3.75488 0
M  V30 12164 O 1143.81 6.36511 -4.91029 0
M  V30 12165 H 1143.54 0.667571 -0.106418 0
M  V30 12166 H 1146.09 1.82276 -0.94682 0
M  V30 12167 H 1144.32 3.81065 0.65773 0
M  V30 12168 H 1146.01 4.047 0.311906 0
M  V30 12169 H 1146.78 4.34568 -2.1535 0
M  V30 12170 H 1142.66 4.5134 -0.93881 0
M  V30 12171 H 1146.2 5.54468 -4.23333 0
M  V30 12172 H 1142.1 5.71033 -3.00984 0
M  V30 12173 H 1142.86 6.55006 -4.90825 0
M  V30 12174 N 1145.53 0.438773 1.51369 0
M  V30 12175 C 1146.8 -0.18722 1.94702 0
M  V30 12176 C 1147.18 -1.59962 1.37752 0
M  V30 12177 O 1146.53 -2.214 0.565171 0
M  V30 12178 C 1146.74 -0.163491 3.48617 0
M  V30 12179 C 1148.09 -0.368355 4.22999 0
M  V30 12180 O 1149.11 -0.241541 3.5538 0
M  V30 12181 O 1147.97 -0.620916 5.42961 0
M  V30 12182 H 1145.07 -0.129194 0.816846 0
M  V30 12183 H 1147.61 0.496855 1.62263 0
M  V30 12184 H 1146.39 0.823882 3.82528 0
M  V30 12185 H 1146.01 -0.890414 3.87501 0
M  V30 12186 N 1147.01 -1.56678 0.170181 0
M  V30 12187 C 1147.95 -2.19222 -0.777459 0
M  V30 12188 C 1148.95 -1.15592 -1.23834 0
M  V30 12189 O 1150.15 -1.33794 -1.20412 0
M  V30 12190 H 1146.53 -0.702244 -0.268992 0
M  V30 12191 H 1148.5 -2.97543 -0.225989 0
M  V30 12192 C 1147.25 -2.84631 -1.997 0
M  V30 12193 H 1146.57 -3.641 -1.65139 0
M  V30 12194 H 1148.01 -3.31864 -2.63898 0
M  V30 12195 C 1146.47 -1.84345 -2.81991 0
M  V30 12196 O 1147 -1.32821 -3.79106 0
M  V30 12197 N 1145.21 -1.53127 -2.46983 0
M  V30 12198 H 1144.75 -1.95219 -1.6807 0
M  V30 12199 H 1144.71 -0.862787 -3.0233 0
M  V30 12200 N 1148.48 0.103547 -1.57259 0
M  V30 12201 C 1149.71 0.821158 -1.8958 0
M  V30 12202 C 1150.12 1.73213 -0.761184 0
M  V30 12203 O 1149.46 1.81611 0.27625 0
M  V30 12204 C 1149.53 1.69428 -3.17072 0
M  V30 12205 C 1149.19 0.956014 -4.46889 0
M  V30 12206 C 1150.19 0.289694 -5.19092 0
M  V30 12207 C 1147.87 0.932602 -4.93566 0
M  V30 12208 C 1149.87 -0.390164 -6.36205 0
M  V30 12209 C 1147.55 0.248954 -6.10593 0
M  V30 12210 C 1148.55 -0.411259 -6.81761 0
M  V30 12211 O 1148.24 -1.08396 -7.96559 0
M  V30 12212 H 1147.97 0.240508 -0.631769 0
M  V30 12213 H 1150.53 0.0877817 -2.05212 0
M  V30 12214 H 1148.76 2.46968 -2.97563 0
M  V30 12215 H 1150.44 2.28769 -3.3529 0
M  V30 12216 H 1151.21 0.299297 -4.84076 0
M  V30 12217 H 1147.09 1.43592 -4.38067 0
M  V30 12218 H 1150.63 -0.906057 -6.91691 0
M  V30 12219 H 1146.53 0.237168 -6.45064 0
M  V30 12220 H 1147.3 -0.990002 -8.12491 0
M  V30 12221 N 1149.96 1.53094 0.37415 0
M  V30 12222 C 1151.21 1.69111 1.11934 0
M  V30 12223 C 1151.54 0.437252 1.89213 0
M  V30 12224 O 1150.82 -0.565298 1.86104 0
M  V30 12225 C 1151.1 2.93559 2.08554 0
M  V30 12226 C 1150.95 4.29082 1.3494 0
M  V30 12227 C 1152.27 3.13586 3.08791 0
M  V30 12228 H 1149.39 0.615383 0.405553 0
M  V30 12229 H 1152.03 1.85719 0.401078 0
M  V30 12230 H 1150.18 2.79531 2.69805 0
M  V30 12231 H 1151.85 4.54906 0.765402 0
M  V30 12232 H 1150.1 4.28884 0.651238 0
M  V30 12233 H 1150.77 5.12275 2.05616 0
M  V30 12234 H 1153.24 3.26743 2.57639 0
M  V30 12235 H 1152.12 4.02112 3.73627 0
M  V30 12236 H 1152.38 2.28475 3.78486 0
M  V30 12237 N 1151.44 -0.633461 1.44309 0
M  V30 12238 C 1152.85 -1.21504 1.41752 0
M  V30 12239 C 1153.2 -1.95758 0.131667 0
M  V30 12240 O 1152.33 -2.02311 -0.768072 0
M  V30 12241 C 1152.92 -2.21005 2.56792 0
M  V30 12242 C 1151.48 -2.74596 2.57438 0
M  V30 12243 C 1150.63 -1.49555 2.33513 0
M  V30 12244 H 1153.58 -0.424277 1.52923 0
M  V30 12245 H 1153.6 -3.03563 2.29412 0
M  V30 12246 H 1153.11 -1.66934 3.50364 0
M  V30 12247 H 1151.21 -3.32676 1.67801 0
M  V30 12248 H 1151.33 -3.20794 3.55849 0
M  V30 12249 H 1149.69 -1.77605 1.82561 0
M  V30 12250 H 1150.47 -0.973899 3.29196 0
M  V30 12251 N 1152.92 -1.31168 -0.873655 0
M  V30 12252 C 1154.14 -1.23728 -1.66452 0
M  V30 12253 C 1154.57 0.194869 -1.87088 0
M  V30 12254 O 1153.93 1.1397 -1.40998 0
M  V30 12255 C 1153.97 -1.98285 -3.0119 0
M  V30 12256 O 1153.08 -1.31767 -3.90783 0
M  V30 12257 H 1152.42 -0.427362 -0.508191 0
M  V30 12258 H 1154.95 -1.73176 -1.08955 0
M  V30 12259 H 1154.96 -2.0774 -3.51153 0
M  V30 12260 H 1153.63 -3.02437 -2.8549 0
M  V30 12261 H 1152.21 -1.3074 -3.4923 0
M  V30 12262 N 1154.4 1.08748 -1.14068 0
M  V30 12263 C 1155.36 2.1375 -0.827266 0
M  V30 12264 C 1156.36 1.59936 0.166496 0
M  V30 12265 O 1157.55 1.74092 -0.0614305 0
M  V30 12266 C 1154.68 3.40106 -0.232557 0
M  V30 12267 H 1155.87 2.42985 -1.7578 0
M  V30 12268 H 1153.43 1.24402 -0.946244 0
M  V30 12269 H 1154.16 3.16503 0.706859 0
M  V30 12270 H 1153.95 3.8046 -0.948293 0
M  V30 12271 H 1155.44 4.17589 -0.0303662 0
M  V30 12272 N 1155.87 0.935264 1.26849 0
M  V30 12273 C 1157.29 0.623198 1.75992 0
M  V30 12274 C 1157.64 -0.861647 1.76267 0
M  V30 12275 O 1156.76 -1.6743 1.37099 0
M  V30 12276 C 1157.36 1.12451 3.19594 0
M  V30 12277 C 1155.92 0.862974 3.66374 0
M  V30 12278 C 1155.06 1.27886 2.4605 0
M  V30 12279 H 1158.01 1.11422 1.13008 0
M  V30 12280 H 1158.03 0.475626 3.77516 0
M  V30 12281 H 1157.55 2.20522 3.19361 0
M  V30 12282 H 1155.65 -0.203606 3.72043 0
M  V30 12283 H 1155.76 1.48582 4.55478 0
M  V30 12284 H 1154.12 0.697335 2.44968 0
M  V30 12285 H 1154.91 2.36837 2.48522 0
M  V30 12286 N 1157.35 -1.41121 0.701616 0
M  V30 12287 C 1158.26 -2.34565 0.0407815 0
M  V30 12288 C 1159.28 -1.56555 -0.75937 0
M  V30 12289 O 1160.45 -1.89008 -0.695542 0
M  V30 12290 C 1157.52 -3.35347 -0.879954 0
M  V30 12291 C 1156.58 -4.29241 -0.0713279 0
M  V30 12292 C 1155.81 -5.25209 -0.948211 0
M  V30 12293 O 1156.04 -5.26781 -2.18766 0
M  V30 12294 O 1154.97 -6.00605 -0.394657 0
M  V30 12295 H 1158.8 -2.92666 0.811188 0
M  V30 12296 H 1156.38 -1.42077 0.461991 0
M  V30 12297 H 1158.26 -3.9719 -1.40776 0
M  V30 12298 H 1156.94 -2.7968 -1.62975 0
M  V30 12299 H 1155.85 -3.70727 0.50122 0
M  V30 12300 H 1157.18 -4.88022 0.639935 0
M  V30 12301 N 1158.83 -0.446794 -1.51134 0
M  V30 12302 C 1160.25 -0.0995905 -1.59289 0
M  V30 12303 C 1160.45 1.39191 -1.45699 0
M  V30 12304 O 1159.5 2.1628 -1.30303 0
M  V30 12305 C 1160.82 -0.628135 -2.94066 0
M  V30 12306 C 1162.36 -0.589409 -3.074 0
M  V30 12307 C 1162.84 -1.09509 -4.44715 0
M  V30 12308 N 1164.33 -1.05347 -4.51061 0
M  V30 12309 C 1165.06 -1.41551 -5.55654 0
M  V30 12310 N 1164.56 -1.85086 -6.67619 0
M  V30 12311 N 1166.35 -1.33307 -5.46064 0
M  V30 12312 H 1158.5 -1.41713 -1.58213 0
M  V30 12313 H 1160.77 -0.584555 -0.746324 0
M  V30 12314 H 1160.47 -1.67205 -3.09411 0
M  V30 12315 H 1160.35 -0.0582398 -3.77155 0
M  V30 12316 H 1162.73 0.445541 -2.91717 0
M  V30 12317 H 1162.82 -1.19582 -2.26128 0
M  V30 12318 H 1162.46 -2.12855 -4.61146 0
M  V30 12319 H 1162.39 -0.465122 -5.24542 0
M  V30 12320 H 1164.88 -0.733877 -3.70706 0
M  V30 12321 H 1165.19 -2.10923 -7.43459 0
M  V30 12322 H 1163.54 -1.8902 -6.68802 0
M  V30 12323 H 1166.73 -0.991547 -4.57478 0
M  V30 12324 H 1166.9 -1.6185 -6.27462 0
M  V30 12325 N 1160.31 1.56586 -0.178487 0
M  V30 12326 C 1161.54 2.01475 0.470684 0
M  V30 12327 C 1161.95 1.0587 1.56323 0
M  V30 12328 O 1161.31 0.060749 1.82399 0
M  V30 12329 C 1161.36 3.46145 1.04238 0
M  V30 12330 O 1161.08 4.381 -0.0065582 0
M  V30 12331 C 1162.58 4.06471 1.76908 0
M  V30 12332 H 1159.8 0.660219 0.119801 0
M  V30 12333 H 1162.35 2.02542 -0.282322 0
M  V30 12334 H 1160.5 3.45831 1.74585 0
M  V30 12335 H 1160.91 5.22843 0.416554 0
M  V30 12336 H 1162.39 5.096 2.12161 0
M  V30 12337 H 1162.87 3.48974 2.66672 0
M  V30 12338 H 1163.47 4.10509 1.11186 0
M  V30 12339 N 1161.79 -0.095206 1.57312 0
M  V30 12340 C 1163.03 -0.804335 1.87909 0
M  V30 12341 C 1163.39 -1.75907 0.769465 0
M  V30 12342 O 1164.59 -2.51155 0.957846 0
M  V30 12343 C 1162.86 -1.51405 3.23746 0
M  V30 12344 S 1164.42 -2.26147 3.76036 0
M  V30 12345 H 1161.24 -0.267976 0.658567 0
M  V30 12346 H 1163.84 -0.0614682 1.95403 0
M  V30 12347 H 1162.55 -0.805066 4.02426 0
M  V30 12348 H 1162.08 -2.29681 3.1939 0
M  V30 12349 H 1164.09 -3.52284 3.49443 0
M  V30 12350 N 1163.26 -1.53291 -0.366026 0
M  V30 12351 C 1164.68 -1.43053 -0.707669 0
M  V30 12352 C 1164.88 -0.56925 -1.93292 0
M  V30 12353 O 1163.94 -0.0515214 -2.52447 0
M  V30 12354 C 1165.25 -2.86239 -0.921292 0
M  V30 12355 C 1166.8 -2.95868 -1.02133 0
M  V30 12356 C 1167.27 -4.40114 -1.26743 0
M  V30 12357 N 1168.76 -4.43541 -1.33514 0
M  V30 12358 C 1169.5 -5.52259 -1.54264 0
M  V30 12359 N 1168.99 -6.71024 -1.72335 0
M  V30 12360 N 1170.79 -5.39836 -1.5663 0
M  V30 12361 H 1162.94 -2.07795 0.43988 0
M  V30 12362 H 1165.2 -0.938376 0.134736 0
M  V30 12363 H 1164.91 -3.51578 -0.0928042 0
M  V30 12364 H 1164.78 -3.29862 -1.82951 0
M  V30 12365 H 1167.17 -2.30683 -1.84036 0
M  V30 12366 H 1167.25 -2.5564 -0.0905097 0
M  V30 12367 H 1166.89 -5.05872 -0.453409 0
M  V30 12368 H 1166.82 -4.77914 -2.21146 0
M  V30 12369 H 1169.31 -3.57949 -1.21165 0
M  V30 12370 H 1169.63 -7.49649 -1.8774 0
M  V30 12371 H 1167.97 -6.7401 -1.69514 0
M  V30 12372 H 1171.16 -4.46017 -1.4208 0
M  V30 12373 H 1171.34 -6.24629 -1.72461 0
M  V30 12374 N 1164.74 0.6258 -1.44643 0
M  V30 12375 C 1165.71 1.71941 -1.51555 0
M  V30 12376 C 1166.71 1.55822 -0.396988 0
M  V30 12377 O 1167.9 1.61221 -0.65981 0
M  V30 12378 C 1165.03 3.11068 -1.39461 0
M  V30 12379 H 1166.22 1.67185 -2.48976 0
M  V30 12380 H 1163.77 0.839934 -1.31814 0
M  V30 12381 H 1164.51 3.21416 -0.431534 0
M  V30 12382 H 1164.29 3.24175 -2.20574 0
M  V30 12383 H 1165.78 3.90762 -1.4729 0
M  V30 12384 N 1166.22 1.31629 0.866686 0
M  V30 12385 C 1167.45 1.24474 1.65269 0
M  V30 12386 C 1167.86 -0.18939 1.87848 0
M  V30 12387 O 1167.22 -1.12251 1.43895 0
M  V30 12388 C 1167.27 1.98872 3.01881 0
M  V30 12389 O 1166.99 3.36687 2.8031 0
M  V30 12390 C 1168.49 1.98595 3.96327 0
M  V30 12391 H 1165.71 0.429966 0.515141 0
M  V30 12392 H 1168.26 1.73559 1.08156 0
M  V30 12393 H 1166.41 1.53539 3.55675 0
M  V30 12394 H 1166.83 3.74612 3.67105 0
M  V30 12395 H 1168.3 2.55156 4.89489 0
M  V30 12396 H 1168.78 0.969257 4.28371 0
M  V30 12397 H 1169.38 2.43821 3.4847 0
M  V30 12398 N 1167.7 -1.08142 1.14644 0
M  V30 12399 C 1168.63 -2.17139 0.858667 0
M  V30 12400 C 1169.61 -1.69064 -0.187452 0
M  V30 12401 O 1170.8 -1.94151 -0.0435458 0
M  V30 12402 C 1167.93 -3.45648 0.33834 0
M  V30 12403 C 1166.88 -4.07129 1.32021 0
M  V30 12404 C 1166.21 -5.30623 0.659075 0
M  V30 12405 C 1167.51 -4.48095 2.68343 0
M  V30 12406 H 1169.2 -2.41468 1.77012 0
M  V30 12407 H 1166.75 -1.16052 0.852523 0
M  V30 12408 H 1168.7 -4.21216 0.124611 0
M  V30 12409 H 1167.42 -3.2088 -0.608553 0
M  V30 12410 H 1166.08 -3.33596 1.52016 0
M  V30 12411 H 1165.73 -5.02142 -0.293711 0
M  V30 12412 H 1165.43 -5.72714 1.31427 0
M  V30 12413 H 1166.95 -6.08903 0.454933 0
M  V30 12414 H 1168.37 -5.14828 2.5224 0
M  V30 12415 H 1166.76 -5.01113 3.30161 0
M  V30 12416 H 1167.83 -3.59852 3.25015 0
M  V30 12417 N 1169.18 -0.941978 -1.26351 0
M  V30 12418 C 1170.43 -0.585711 -1.93009 0
M  V30 12419 C 1170.74 0.879507 -1.74711 0
M  V30 12420 O 1171.95 1.34518 -2.35833 0
M  V30 12421 C 1170.4 -0.996787 -3.45821 0
M  V30 12422 C 1170.01 -2.48367 -3.72851 0
M  V30 12423 C 1171.75 -0.712452 -4.18479 0
M  V30 12424 C 1169.66 -2.83341 -5.19107 0
M  V30 12425 H 1168.59 -0.215342 -0.722595 0
M  V30 12426 H 1171.24 -1.14472 -1.43417 0
M  V30 12427 H 1169.62 -0.366295 -3.94302 0
M  V30 12428 H 1170.8 -3.16328 -3.35072 0
M  V30 12429 H 1169.11 -2.74139 -3.13427 0
M  V30 12430 H 1171.71 -0.95007 -5.26192 0
M  V30 12431 H 1172.05 0.350811 -4.14819 0
M  V30 12432 H 1172.59 -1.3027 -3.75865 0
M  V30 12433 H 1169.32 -3.88633 -5.27868 0
M  V30 12434 H 1168.84 -2.20043 -5.5798 0
M  V30 12435 H 1170.52 -2.71849 -5.87118 0
M  V30 12436 N 1170.66 1.40747 -0.709091 0
M  V30 12437 C 1171.6 2.32564 -0.0411392 0
M  V30 12438 C 1172.6 1.51692 0.75404 0
M  V30 12439 O 1173.8 1.67537 0.658139 0
M  V30 12440 H 1170.18 0.75198 0.00549889 0
M  V30 12441 H 1172.15 2.86556 -0.83235 0
M  V30 12442 C 1170.9 3.36604 0.871378 0
M  V30 12443 H 1170.22 3.98895 0.268912 0
M  V30 12444 H 1171.66 4.03359 1.30682 0
M  V30 12445 C 1170.12 2.71566 1.99384 0
M  V30 12446 O 1170.65 2.57392 3.08403 0
M  V30 12447 N 1168.86 2.3005 1.77554 0
M  V30 12448 H 1168.4 2.41778 0.888898 0
M  V30 12449 H 1168.36 1.8687 2.52838 0
M  V30 12450 N 1172.13 0.454803 1.50895 0
M  V30 12451 C 1173.04 -0.353495 2.31921 0
M  V30 12452 C 1174.06 -1.01136 1.41589 0
M  V30 12453 O 1175.24 -1.00291 1.74653 0
M  V30 12454 C 1172.3 -1.43032 3.15821 0
M  V30 12455 C 1171.36 -0.790763 4.21954 0
M  V30 12456 C 1170.59 -1.81628 5.01843 0
M  V30 12457 O 1170.82 -3.04078 4.8259 0
M  V30 12458 O 1169.75 -1.39713 5.8546 0
M  V30 12459 H 1173.58 0.308463 3.02129 0
M  V30 12460 H 1171.16 0.216971 1.47816 0
M  V30 12461 H 1173.04 -2.05444 3.67927 0
M  V30 12462 H 1171.72 -2.07605 2.48358 0
M  V30 12463 H 1170.63 -0.128127 3.73881 0
M  V30 12464 H 1171.96 -0.188251 4.9184 0
M  V30 12465 N 1173.61 -1.56489 0.186789 0
M  V30 12466 C 1174.84 -2.02163 -0.463126 0
M  V30 12467 C 1175.26 -1.06612 -1.54969 0
M  V30 12468 O 1174.62 -0.0482139 -1.81236 0
M  V30 12469 C 1174.67 -3.46337 -1.00416 0
M  V30 12470 O 1173.77 -3.53889 -2.11747 0
M  V30 12471 H 1173.11 -0.65496 -0.109194 0
M  V30 12472 H 1175.64 -2.02459 0.295227 0
M  V30 12473 H 1175.65 -3.85959 -1.32287 0
M  V30 12474 H 1174.33 -4.15376 -0.208693 0
M  V30 12475 H 1172.9 -3.26136 -1.80803 0
M  V30 12476 N 1175.09 0.086862 -1.5736 0
M  V30 12477 C 1176.5 0.640442 -1.75372 0
M  V30 12478 C 1176.85 1.78693 -0.81014 0
M  V30 12479 O 1175.98 2.16398 0.00940712 0
M  V30 12480 C 1176.57 1.16856 -3.1801 0
M  V30 12481 C 1175.13 1.66813 -3.37417 0
M  V30 12482 C 1174.28 0.58116 -2.71142 0
M  V30 12483 H 1177.23 -0.139249 -1.58088 0
M  V30 12484 H 1177.25 2.03772 -3.21337 0
M  V30 12485 H 1176.76 0.333909 -3.86661 0
M  V30 12486 H 1174.86 2.52652 -2.73858 0
M  V30 12487 H 1174.98 1.75545 -4.45781 0
M  V30 12488 H 1173.34 1.0226 -2.3327 0
M  V30 12489 H 1174.12 -0.243047 -3.42439 0
M  V30 12490 N 1176.57 1.53483 0.357892 0
M  V30 12491 C 1177.81 1.70289 1.10134 0
M  V30 12492 C 1178.15 0.457296 1.88739 0
M  V30 12493 O 1177.42 -0.545527 1.86693 0
M  V30 12494 C 1177.7 2.95755 2.05429 0
M  V30 12495 C 1177.56 4.30489 1.30382 0
M  V30 12496 C 1178.88 3.16844 3.05447 0
M  V30 12497 H 1176 0.61965 0.399003 0
M  V30 12498 H 1178.64 1.86133 0.381357 0
M  V30 12499 H 1176.79 2.82377 2.66825 0
M  V30 12500 H 1178.46 4.55692 0.71711 0
M  V30 12501 H 1176.7 4.2955 0.605712 0
M  V30 12502 H 1177.37 5.14427 2.00171 0
M  V30 12503 H 1179.85 3.29458 2.54159 0
M  V30 12504 H 1178.73 4.06053 3.69341 0
M  V30 12505 H 1178.99 2.32476 3.76041 0
M  V30 12506 N 1178.05 -0.61812 1.44973 0
M  V30 12507 C 1178.98 -1.74035 1.55673 0
M  V30 12508 C 1179.96 -1.65112 0.4089 0
M  V30 12509 O 1181.14 -1.83673 0.630698 0
M  V30 12510 C 1178.27 -3.1261 1.51303 0
M  V30 12511 C 1177.23 -3.36334 2.64696 0
M  V30 12512 C 1176.55 -4.75072 2.45378 0
M  V30 12513 C 1177.85 -3.27618 4.06772 0
M  V30 12514 H 1179.55 -1.65336 2.49608 0
M  V30 12515 H 1177.09 -0.794003 1.20132 0
M  V30 12516 H 1179.04 -3.90906 1.57388 0
M  V30 12517 H 1177.77 -3.22123 0.538914 0
M  V30 12518 H 1176.43 -2.60423 2.58022 0
M  V30 12519 H 1176.08 -4.81306 1.46129 0
M  V30 12520 H 1175.78 -4.91903 3.21412 0
M  V30 12521 H 1177.3 -5.55582 2.53301 0
M  V30 12522 H 1178.71 -3.95802 4.14746 0
M  V30 12523 H 1177.11 -3.55981 4.83113 0
M  V30 12524 H 1178.18 -2.25219 4.29423 0
M  V30 12525 N 1179.52 -1.32087 -0.859693 0
M  V30 12526 C 1180.75 -1.25486 -1.6513 0
M  V30 12527 C 1181.17 0.175015 -1.87284 0
M  V30 12528 O 1180.53 1.12468 -1.42199 0
M  V30 12529 C 1180.58 -2.01469 -2.9907 0
M  V30 12530 O 1179.68 -1.35904 -3.89363 0
M  V30 12531 H 1179.02 -0.432728 -0.503629 0
M  V30 12532 H 1181.55 -1.74322 -1.07112 0
M  V30 12533 H 1181.56 -2.11452 -3.4893 0
M  V30 12534 H 1180.24 -3.05448 -2.82266 0
M  V30 12535 H 1178.82 -1.34437 -3.47823 0
M  V30 12536 N 1181 1.07532 -1.15215 0
M  V30 12537 C 1182.23 1.8355 -0.94831 0
M  V30 12538 C 1182.64 1.82289 0.506701 0
M  V30 12539 O 1181.98 1.23142 1.36314 0
M  V30 12540 C 1182.04 3.31834 -1.38298 0
M  V30 12541 C 1181.71 3.56818 -2.85535 0
M  V30 12542 C 1182.71 3.50915 -3.83608 0
M  V30 12543 C 1180.39 3.84543 -3.23159 0
M  V30 12544 C 1182.38 3.72382 -5.17311 0
M  V30 12545 C 1180.07 4.05662 -4.57036 0
M  V30 12546 C 1181.07 3.99576 -5.53921 0
M  V30 12547 O 1180.76 4.20132 -6.85379 0
M  V30 12548 H 1180.49 0.586014 -0.336992 0
M  V30 12549 H 1183.04 1.36656 -1.53344 0
M  V30 12550 H 1181.27 3.79529 -0.741244 0
M  V30 12551 H 1182.96 3.89312 -1.14853 0
M  V30 12552 H 1183.73 3.295 -3.55886 0
M  V30 12553 H 1179.61 3.88395 -2.48335 0
M  V30 12554 H 1183.15 3.67547 -5.92921 0
M  V30 12555 H 1179.05 4.26563 -4.84473 0
M  V30 12556 H 1179.82 4.3749 -6.91769 0
M  V30 12557 N 1182.48 0.948665 1.2585 0
M  V30 12558 C 1183.41 0.408398 2.24516 0
M  V30 12559 C 1184.39 -0.506954 1.54495 0
M  V30 12560 O 1185.58 -0.442695 1.83228 0
M  V30 12561 C 1182.7 -0.41241 3.3618 0
M  V30 12562 C 1181.75 0.442483 4.24198 0
M  V30 12563 S 1182.58 1.87106 5.01749 0
M  V30 12564 C 1183.74 1.05851 6.16884 0
M  V30 12565 H 1183.97 1.24458 2.69995 0
M  V30 12566 H 1181.5 0.752309 1.34832 0
M  V30 12567 H 1183.46 -0.880064 4.00955 0
M  V30 12568 H 1182.12 -1.22335 2.89297 0
M  V30 12569 H 1181.32 -0.186767 5.03654 0
M  V30 12570 H 1180.92 0.845113 3.64327 0
M  V30 12571 H 1183.21 0.304329 6.76816 0
M  V30 12572 H 1184.15 1.82678 6.8413 0
M  V30 12573 H 1184.56 0.591269 5.61395 0
M  V30 12574 N 1183.96 -1.40369 0.716545 0
M  V30 12575 C 1185.24 -1.94737 0.183576 0
M  V30 12576 C 1185.62 -1.65464 -1.31092 0
M  V30 12577 O 1184.96 -0.972832 -2.06756 0
M  V30 12578 C 1185.17 -3.45438 0.497339 0
M  V30 12579 C 1186.52 -4.2235 0.436526 0
M  V30 12580 O 1187.55 -3.53553 0.433454 0
M  V30 12581 O 1186.4 -5.44923 0.41489 0
M  V30 12582 H 1183.5 -0.82655 0.0272785 0
M  V30 12583 H 1186.04 -1.49972 0.794143 0
M  V30 12584 H 1184.82 -3.60107 1.53097 0
M  V30 12585 H 1184.44 -3.97342 -0.143141 0
M  V30 12586 N 1185.44 -0.462799 -1.50652 0
M  V30 12587 C 1186.37 0.325724 -2.31217 0
M  V30 12588 C 1187.35 0.997942 -1.3775 0
M  V30 12589 O 1188.53 0.996707 -1.66671 0
M  V30 12590 C 1185.66 1.41283 -3.17264 0
M  V30 12591 C 1184.62 0.862687 -4.19216 0
M  V30 12592 C 1183.94 2.04746 -4.93946 0
M  V30 12593 C 1185.24 -0.120365 -5.22161 0
M  V30 12594 H 1186.94 -0.346666 -2.97386 0
M  V30 12595 H 1184.48 -0.168163 -1.43015 0
M  V30 12596 H 1186.44 1.97188 -3.72418 0
M  V30 12597 H 1185.16 2.11387 -2.48964 0
M  V30 12598 H 1183.82 0.325671 -3.65151 0
M  V30 12599 H 1183.47 2.73529 -4.22127 0
M  V30 12600 H 1183.17 1.68562 -5.62904 0
M  V30 12601 H 1184.69 2.61157 -5.51932 0
M  V30 12602 H 1186.1 0.349226 -5.72235 0
M  V30 12603 H 1184.5 -0.396061 -5.98792 0
M  V30 12604 H 1185.57 -1.04895 -4.73418 0
M  V30 12605 N 1186.91 1.56388 -0.195085 0
M  V30 12606 C 1188.16 1.97872 0.444344 0
M  V30 12607 C 1188.49 1.0819 1.61271 0
M  V30 12608 O 1187.77 0.133904 1.94039 0
M  V30 12609 C 1188.05 3.48556 0.90449 0
M  V30 12610 C 1187.9 4.49015 -0.265693 0
M  V30 12611 C 1189.22 4.02938 1.76999 0
M  V30 12612 H 1186.34 0.719413 0.160041 0
M  V30 12613 H 1188.98 1.87835 -0.286005 0
M  V30 12614 H 1187.13 3.5724 1.52682 0
M  V30 12615 H 1188.81 4.52368 -0.903363 0
M  V30 12616 H 1187.05 4.23987 -0.917462 0
M  V30 12617 H 1187.72 5.51912 0.0987834 0
M  V30 12618 H 1190.2 3.97033 1.24514 0
M  V30 12619 H 1189.07 5.08741 2.06092 0
M  V30 12620 H 1189.33 3.48197 2.72418 0
M  V30 12621 N 1188.39 -0.0785156 1.57404 0
M  V30 12622 C 1189.64 -0.777399 1.8655 0
M  V30 12623 C 1189.96 -1.78451 0.786142 0
M  V30 12624 O 1189.23 -1.95016 -0.185911 0
M  V30 12625 H 1187.81 -0.290097 0.688369 0
M  V30 12626 H 1190.47 -0.0562017 1.94819 0
M  V30 12627 H 1189.57 -1.29776 2.83839 0
M  V30 12628 N 1189.87 -1.5367 -0.349747 0
M  V30 12629 C 1191.12 -1.70618 -1.09068 0
M  V30 12630 C 1191.45 -0.466133 -1.88832 0
M  V30 12631 O 1190.7 0.552079 -1.87751 0
M  V30 12632 C 1191 -2.91753 -2.06434 0
M  V30 12633 C 1190.67 -4.27614 -1.43029 0
M  V30 12634 C 1189.33 -4.64555 -1.25466 0
M  V30 12635 C 1191.68 -5.12037 -0.972987 0
M  V30 12636 C 1189.01 -5.83543 -0.607807 0
M  V30 12637 C 1191.36 -6.31685 -0.340073 0
M  V30 12638 C 1190.02 -6.67327 -0.152069 0
M  V30 12639 H 1189.29 -0.624334 -0.399108 0
M  V30 12640 H 1191.94 -1.87879 -0.370657 0
M  V30 12641 H 1190.25 -2.6907 -2.84796 0
M  V30 12642 H 1191.94 -3.02059 -2.63744 0
M  V30 12643 H 1188.53 -3.98535 -1.57696 0
M  V30 12644 H 1192.72 -4.84035 -1.09655 0
M  V30 12645 H 1187.97 -6.09737 -0.450705 0
M  V30 12646 H 1192.15 -6.96396 0.0223973 0
M  V30 12647 H 1189.77 -7.59388 0.35121 0
M  V30 12648 N 1191.35 0.610423 -1.45298 0
M  V30 12649 C 1192.57 1.40112 -1.52917 0
M  V30 12650 C 1193 1.87404 -0.161696 0
M  V30 12651 O 1192.36 1.59973 0.853135 0
M  V30 12652 C 1192.4 2.58359 -2.51561 0
M  V30 12653 O 1191.51 3.58895 -2.03146 0
M  V30 12654 H 1190.85 0.41841 -0.515586 0
M  V30 12655 H 1193.38 0.743159 -1.90626 0
M  V30 12656 H 1193.39 3.0564 -2.70275 0
M  V30 12657 H 1192.06 2.23286 -3.50879 0
M  V30 12658 H 1190.64 3.18282 -1.94296 0
M  V30 12659 N 1192.83 1.32541 0.852676 0
M  V30 12660 C 1194.06 1.26037 1.63702 0
M  V30 12661 C 1194.46 -0.173583 1.88402 0
M  V30 12662 O 1193.81 -1.12175 1.45473 0
M  V30 12663 C 1193.87 1.95245 3.01861 0
M  V30 12664 C 1193.53 3.44576 3.00193 0
M  V30 12665 C 1194.53 4.40026 2.76899 0
M  V30 12666 C 1192.22 3.86541 3.20766 0
M  V30 12667 C 1194.21 5.75414 2.74185 0
M  V30 12668 C 1191.9 5.22038 3.17678 0
M  V30 12669 C 1192.89 6.16286 2.94416 0
M  V30 12670 O 1192.58 7.49303 2.91206 0
M  V30 12671 H 1192.31 0.436073 0.516543 0
M  V30 12672 H 1194.87 1.75251 1.07127 0
M  V30 12673 H 1193.1 1.40603 3.60233 0
M  V30 12674 H 1194.79 1.82423 3.62597 0
M  V30 12675 H 1195.55 4.0893 2.6077 0
M  V30 12676 H 1191.43 3.13603 3.37897 0
M  V30 12677 H 1194.98 6.4895 2.55947 0
M  V30 12678 H 1190.87 5.52762 3.33353 0
M  V30 12679 H 1191.64 7.58686 3.07146 0
M  V30 12680 N 1194.3 -1.0692 1.15784 0
M  V30 12681 C 1195.24 -2.14168 0.816375 0
M  V30 12682 C 1196.25 -1.61872 -0.17357 0
M  V30 12683 O 1197.44 -1.78429 0.0502973 0
M  V30 12684 C 1194.54 -3.38346 0.193682 0
M  V30 12685 C 1193.71 -4.19979 1.22215 0
M  V30 12686 C 1192.77 -5.2253 0.620424 0
M  V30 12687 O 1191.8 -5.54446 1.28757 0
M  V30 12688 N 1193 -5.77434 -0.595811 0
M  V30 12689 H 1195.76 -2.44062 1.73937 0
M  V30 12690 H 1193.32 -1.22865 1.05431 0
M  V30 12691 H 1195.32 -4.04092 -0.22174 0
M  V30 12692 H 1193.89 -3.06129 -0.632735 0
M  V30 12693 H 1193.11 -3.49984 1.81397 0
M  V30 12694 H 1194.39 -4.71329 1.91641 0
M  V30 12695 H 1193.79 -5.5376 -1.15611 0
M  V30 12696 H 1192.35 -6.44788 -0.953529 0
M  V30 12697 N 1195.78 -0.955326 -1.25345 0
M  V30 12698 C 1197.03 -0.611388 -1.93365 0
M  V30 12699 C 1197.36 0.84953 -1.74633 0
M  V30 12700 O 1196.64 1.60962 -1.09185 0
M  V30 12701 C 1196.92 -0.971732 -3.46741 0
M  V30 12702 C 1196.77 -2.48843 -3.74696 0
M  V30 12703 C 1198.09 -0.497295 -4.37281 0
M  V30 12704 H 1195.21 -0.223591 -0.702265 0
M  V30 12705 H 1197.85 -1.1921 -1.47949 0
M  V30 12706 H 1196 -0.477568 -3.85554 0
M  V30 12707 H 1197.67 -3.05641 -3.45516 0
M  V30 12708 H 1195.92 -2.92582 -3.20278 0
M  V30 12709 H 1196.59 -2.69107 -4.8196 0
M  V30 12710 H 1199.06 -0.921196 -4.05775 0
M  V30 12711 H 1197.94 -0.778113 -5.43357 0
M  V30 12712 H 1198.2 0.602743 -4.37972 0
M  V30 12713 N 1197.26 1.39987 -0.723979 0
M  V30 12714 C 1198.22 2.29041 -0.0854583 0
M  V30 12715 C 1199.22 1.45777 0.678657 0
M  V30 12716 O 1200.41 1.66588 0.509311 0
M  V30 12717 C 1197.55 3.29115 0.88859 0
M  V30 12718 H 1198.74 2.87006 -0.869903 0
M  V30 12719 H 1196.29 1.48449 -0.489136 0
M  V30 12720 H 1197.03 2.76184 1.69979 0
M  V30 12721 H 1196.81 3.90593 0.343454 0
M  V30 12722 H 1198.3 3.95778 1.33227 0
M  V30 12723 N 1198.74 0.470782 1.50404 0
M  V30 12724 C 1199.69 -0.337584 2.30137 0
M  V30 12725 C 1200.68 -0.990673 1.37412 0
M  V30 12726 O 1201.89 -0.921813 1.54605 0
M  V30 12727 H 1198.26 -0.127707 0.741077 0
M  V30 12728 H 1200.23 0.355297 2.96277 0
M  V30 12729 C 1198.98 -1.40714 3.17954 0
M  V30 12730 H 1198.31 -0.913982 3.89213 0
M  V30 12731 H 1199.75 -1.94533 3.7674 0
M  V30 12732 C 1198.2 -2.40889 2.35529 0
M  V30 12733 O 1198.73 -3.46153 2.03816 0
M  V30 12734 N 1196.94 -2.126 1.98115 0
M  V30 12735 H 1196.49 -1.27023 2.24105 0
M  V30 12736 H 1196.45 -2.7986 1.43269 0
M  V30 12737 N 1200.22 -1.56282 0.203376 0
M  V30 12738 C 1201.47 -1.97421 -0.432346 0
M  V30 12739 C 1201.79 -1.0917 -1.61576 0
M  V30 12740 O 1201.06 -0.164759 -1.95206 0
M  V30 12741 H 1199.64 -0.729062 -0.162721 0
M  V30 12742 H 1202.3 -1.927 0.292039 0
M  V30 12743 H 1201.39 -3.02429 -0.770918 0
M  V30 12744 N 1201.7 0.070167 -1.57444 0
M  V30 12745 C 1202.63 1.11509 -1.991 0
M  V30 12746 C 1203.61 1.37481 -0.868194 0
M  V30 12747 O 1204.79 1.50827 -1.13064 0
M  V30 12748 C 1201.92 2.45908 -2.3291 0
M  V30 12749 C 1200.96 2.36059 -3.55216 0
M  V30 12750 S 1201.8 1.75316 -5.05989 0
M  V30 12751 C 1202.95 3.11289 -5.43001 0
M  V30 12752 H 1203.19 0.760096 -2.87419 0
M  V30 12753 H 1200.72 0.278756 -1.51863 0
M  V30 12754 H 1202.68 3.23217 -2.53063 0
M  V30 12755 H 1201.34 2.78567 -1.45117 0
M  V30 12756 H 1200.53 3.35176 -3.76395 0
M  V30 12757 H 1200.13 1.66886 -3.34701 0
M  V30 12758 H 1202.42 4.07603 -5.41171 0
M  V30 12759 H 1203.37 2.94888 -6.43775 0
M  V30 12760 H 1203.78 3.11969 -4.70463 0
M  V30 12761 N 1203.17 1.53854 0.341593 0
M  V30 12762 C 1204.08 1.84975 1.44297 0
M  V30 12763 C 1205.1 0.740057 1.57477 0
M  V30 12764 O 1206.28 1.03256 1.72917 0
M  V30 12765 C 1203.34 2.05464 2.79259 0
M  V30 12766 C 1202.4 3.29318 2.75405 0
M  V30 12767 C 1201.63 3.4882 4.03931 0
M  V30 12768 O 1201.86 2.7212 5.01305 0
M  V30 12769 O 1200.79 4.42253 4.08284 0
M  V30 12770 H 1204.62 2.78592 1.20913 0
M  V30 12771 H 1202.2 1.39532 0.533953 0
M  V30 12772 H 1204.08 2.20374 3.59184 0
M  V30 12773 H 1202.76 1.15035 3.0257 0
M  V30 12774 H 1201.67 3.1981 1.94094 0
M  V30 12775 H 1203 4.19746 2.57049 0
M  V30 12776 N 1204.65 -0.602709 1.4562 0
M  V30 12777 C 1205.9 -1.36158 1.49891 0
M  V30 12778 C 1206.23 -1.93977 0.142581 0
M  V30 12779 O 1205.48 -1.75822 -0.859374 0
M  V30 12780 C 1205.78 -2.52474 2.52966 0
M  V30 12781 C 1205.45 -2.12772 3.97541 0
M  V30 12782 C 1204.11 -2.01658 4.36907 0
M  V30 12783 C 1206.46 -1.8186 4.88443 0
M  V30 12784 C 1203.79 -1.57862 5.65063 0
M  V30 12785 C 1206.14 -1.39548 6.17016 0
M  V30 12786 C 1204.8 -1.26997 6.55308 0
M  V30 12787 H 1204.07 -0.498236 0.54849 0
M  V30 12788 H 1206.72 -0.680738 1.78992 0
M  V30 12789 H 1205.03 -3.25917 2.17452 0
M  V30 12790 H 1206.72 -3.10701 2.53507 0
M  V30 12791 H 1203.31 -2.22349 3.66413 0
M  V30 12792 H 1207.5 -1.89341 4.58763 0
M  V30 12793 H 1202.75 -1.46771 5.93522 0
M  V30 12794 H 1206.93 -1.14677 6.86893 0
M  V30 12795 H 1204.55 -0.928346 7.5451 0
M  V30 12796 N 1206.13 -1.32992 -0.845635 0
M  V30 12797 C 1207.06 -1.25301 -1.97033 0
M  V30 12798 C 1208.04 -0.134966 -1.69564 0
M  V30 12799 O 1209.23 -0.323629 -1.91484 0
M  V30 12800 C 1206.36 -0.984551 -3.33052 0
M  V30 12801 C 1205.31 -2.06481 -3.749 0
M  V30 12802 C 1204.64 -1.6486 -5.08651 0
M  V30 12803 C 1205.94 -3.48083 -3.89404 0
M  V30 12804 H 1207.63 -2.194 -2.03725 0
M  V30 12805 H 1205.18 -1.05621 -0.978783 0
M  V30 12806 H 1207.13 -0.917269 -4.11296 0
M  V30 12807 H 1205.85 -0.00793116 -3.26599 0
M  V30 12808 H 1204.51 -2.1224 -2.98915 0
M  V30 12809 H 1204.16 -0.659183 -4.98662 0
M  V30 12810 H 1203.86 -2.37145 -5.37621 0
M  V30 12811 H 1205.38 -1.59585 -5.89377 0
M  V30 12812 H 1206.8 -3.44863 -4.57976 0
M  V30 12813 H 1205.19 -4.18796 -4.29802 0
M  V30 12814 H 1206.26 -3.87084 -2.92051 0
M  V30 12815 N 1207.61 1.06304 -1.1635 0
M  V30 12816 C 1208.57 2.11947 -0.872419 0
M  V30 12817 C 1209.57 1.60253 0.132534 0
M  V30 12818 O 1210.76 1.73922 -0.0983441 0
M  V30 12819 C 1207.89 3.39536 -0.304646 0
M  V30 12820 H 1209.09 2.39201 -1.80894 0
M  V30 12821 H 1206.64 1.22367 -0.972419 0
M  V30 12822 H 1207.37 3.17931 0.639565 0
M  V30 12823 H 1207.16 3.78363 -1.02878 0
M  V30 12824 H 1208.65 4.17431 -0.118936 0
M  V30 12825 N 1209.09 0.96196 1.24836 0
M  V30 12826 C 1210.31 0.637709 1.97353 0
M  V30 12827 C 1210.74 -0.784919 1.7094 0
M  V30 12828 O 1210.09 -1.53188 0.969694 0
M  V30 12829 C 1210.14 0.911485 3.4889 0
M  V30 12830 O 1209.25 -0.00601668 4.124 0
M  V30 12831 H 1208.59 0.241685 0.618453 0
M  V30 12832 H 1211.12 1.29055 1.58764 0
M  V30 12833 H 1211.13 0.840702 3.99245 0
M  V30 12834 H 1209.8 1.9483 3.67442 0
M  V30 12835 H 1208.38 0.117597 3.72715 0
M  V30 12836 N 1210.56 -1.39601 0.731392 0
M  V30 12837 C 1211.51 -2.30628 0.0890606 0
M  V30 12838 C 1212.48 -1.49025 -0.73353 0
M  V30 12839 O 1213.67 -1.77722 -0.694234 0
M  V30 12840 C 1210.81 -3.35339 -0.814956 0
M  V30 12841 C 1209.92 -4.31995 0.0198606 0
M  V30 12842 C 1209.05 -5.23774 -0.885095 0
M  V30 12843 C 1208.09 -6.12083 -0.045311 0
M  V30 12844 N 1207.23 -6.9623 -0.906002 0
M  V30 12845 H 1212.07 -2.84988 0.870958 0
M  V30 12846 H 1209.61 -1.40329 0.441166 0
M  V30 12847 H 1211.56 -3.94634 -1.3535 0
M  V30 12848 H 1210.19 -2.82443 -1.56287 0
M  V30 12849 H 1209.25 -3.74349 0.675778 0
M  V30 12850 H 1210.56 -4.94289 0.669346 0
M  V30 12851 H 1209.71 -5.88078 -1.49161 0
M  V30 12852 H 1208.45 -4.61794 -1.56837 0
M  V30 12853 H 1207.46 -5.46795 0.574028 0
M  V30 12854 H 1208.68 -6.76128 0.634692 0
M  V30 12855 H 1206.63 -6.36821 -1.57463 0
M  V30 12856 H 1206.54 -7.55352 -0.312914 0
M  V30 12857 H 1207.81 -7.64967 -1.49819 0
M  V30 12858 N 1212.04 -0.478751 -1.50152 0
M  V30 12859 C 1212.99 0.325375 -2.30313 0
M  V30 12860 C 1213.98 0.983372 -1.37935 0
M  V30 12861 O 1215.19 0.913601 -1.55091 0
M  V30 12862 H 1211.57 0.123775 -0.741744 0
M  V30 12863 H 1213.54 -0.371004 -2.96085 0
M  V30 12864 C 1212.29 1.39026 -3.18696 0
M  V30 12865 H 1211.61 0.893329 -3.89692 0
M  V30 12866 H 1213.05 1.92533 -3.77766 0
M  V30 12867 C 1211.51 2.39637 -2.36803 0
M  V30 12868 O 1212.04 3.45067 -2.05649 0
M  V30 12869 N 1210.24 2.11546 -1.9924 0
M  V30 12870 H 1209.79 1.25832 -2.24775 0
M  V30 12871 H 1209.75 2.79096 -1.44751 0
M  V30 12872 N 1213.52 1.56172 -0.211661 0
M  V30 12873 C 1214.76 1.9994 0.424672 0
M  V30 12874 C 1215.12 1.09598 1.57646 0
M  V30 12875 O 1216.33 1.4267 2.27813 0
M  V30 12876 C 1214.6 3.46961 0.857497 0
M  V30 12877 S 1216.16 4.12752 1.48933 0
M  V30 12878 H 1212.97 0.698031 0.135179 0
M  V30 12879 H 1215.58 1.92886 -0.318625 0
M  V30 12880 H 1214.28 4.10399 0.009398 0
M  V30 12881 H 1213.81 3.57867 1.63385 0
M  V30 12882 H 1215.83 4.11125 2.77833 0
M  V30 12883 N 1215 -0.0618163 1.57479 0
M  V30 12884 C 1216.24 -0.760193 1.88013 0
M  V30 12885 C 1216.58 -1.76718 0.805258 0
M  V30 12886 O 1215.85 -1.93633 -0.183408 0
M  V30 12887 C 1216.14 -1.45924 3.29208 0
M  V30 12888 C 1215.99 -0.467994 4.47359 0
M  V30 12889 C 1217.31 -2.40166 3.68793 0
M  V30 12890 H 1214.43 -0.274896 0.683814 0
M  V30 12891 H 1217.07 -0.0232433 1.89986 0
M  V30 12892 H 1215.22 -2.08741 3.27657 0
M  V30 12893 H 1216.89 0.155735 4.61037 0
M  V30 12894 H 1215.13 0.215797 4.33263 0
M  V30 12895 H 1215.8 -0.994942 5.42959 0
M  V30 12896 H 1218.28 -1.87419 3.71501 0
M  V30 12897 H 1217.16 -2.86076 4.68457 0
M  V30 12898 H 1217.42 -3.25413 2.99264 0
M  V30 12899 N 1216.48 -1.54033 -0.333429 0
M  V30 12900 C 1217.43 -1.7911 -1.4108 0
M  V30 12901 C 1218.41 -0.646699 -1.47332 0
M  V30 12902 O 1219.6 -0.906403 -1.52031 0
M  V30 12903 C 1216.73 -2.01314 -2.78078 0
M  V30 12904 C 1215.82 -3.21849 -2.76178 0
M  V30 12905 N 1216.21 -4.43109 -2.43903 0
M  V30 12906 C 1214.51 -3.23222 -3.07316 0
M  V30 12907 C 1215.21 -5.25004 -2.5049 0
M  V30 12908 N 1214.18 -4.61955 -2.86528 0
M  V30 12909 H 1217.99 -2.7045 -1.15039 0
M  V30 12910 H 1215.5 -1.53094 -0.541854 0
M  V30 12911 H 1217.5 -2.17417 -3.55718 0
M  V30 12912 H 1216.16 -1.11223 -3.05057 0
M  V30 12913 H 1217.17 -4.70282 -2.16922 0
M  V30 12914 H 1213.84 -2.43132 -3.39401 0
M  V30 12915 H 1215.23 -6.31812 -2.28611 0
M  V30 12916 N 1217.95 0.594978 -1.45938 0
M  V30 12917 C 1219.37 0.917069 -1.30622 0
M  V30 12918 C 1219.57 1.99702 -0.268554 0
M  V30 12919 O 1218.63 2.50293 0.333146 0
M  V30 12920 C 1219.94 1.34604 -2.68891 0
M  V30 12921 C 1221.49 1.45957 -2.76886 0
M  V30 12922 C 1221.96 1.92225 -4.15708 0
M  V30 12923 N 1223.45 1.99439 -4.18065 0
M  V30 12924 C 1224.19 2.36488 -5.22361 0
M  V30 12925 N 1223.68 2.72416 -6.36994 0
M  V30 12926 N 1225.48 2.36936 -5.09723 0
M  V30 12927 H 1217.63 -0.118625 -2.12068 0
M  V30 12928 H 1219.89 0.00959453 -0.947951 0
M  V30 12929 H 1219.6 0.626605 -3.46073 0
M  V30 12930 H 1219.47 2.31006 -2.98188 0
M  V30 12931 H 1221.86 2.16989 -1.99999 0
M  V30 12932 H 1221.94 0.47838 -2.51287 0
M  V30 12933 H 1221.58 1.21775 -4.93085 0
M  V30 12934 H 1221.51 2.9128 -4.38707 0
M  V30 12935 H 1224 1.74212 -3.35349 0
M  V30 12936 H 1224.32 2.99604 -7.1236 0
M  V30 12937 H 1222.66 2.70083 -6.40375 0
M  V30 12938 H 1225.85 2.08282 -4.19209 0
M  V30 12939 H 1226.03 2.65483 -5.9112 0
M  V30 12940 N 1219.43 1.33438 0.838571 0
M  V30 12941 C 1220.71 1.1551 1.5785 0
M  V30 12942 C 1221.09 -0.278405 2.09256 0
M  V30 12943 O 1220.44 -1.27748 1.89453 0
M  V30 12944 C 1220.65 2.19647 2.71212 0
M  V30 12945 C 1222 2.53818 3.40384 0
M  V30 12946 O 1223.02 2.18317 2.81454 0
M  V30 12947 O 1221.88 3.14741 4.46766 0
M  V30 12948 H 1218.97 0.446785 0.695925 0
M  V30 12949 H 1221.52 1.45021 0.8813 0
M  V30 12950 H 1220.29 3.15936 2.30869 0
M  V30 12951 H 1219.91 1.91224 3.48596 0
M  V30 12952 N 1220.91 -1.05686 1.16912 0
M  V30 12953 C 1221.84 -2.15268 0.904532 0
M  V30 12954 C 1222.82 -1.69424 -0.151548 0
M  V30 12955 O 1224.01 -1.942 -0.00235371 0
M  V30 12956 C 1221.14 -3.44853 0.411581 0
M  V30 12957 C 1220.09 -4.04237 1.40628 0
M  V30 12958 C 1219.42 -5.29105 0.771479 0
M  V30 12959 C 1220.72 -4.42303 2.77787 0
M  V30 12960 H 1222.41 -2.37659 1.82094 0
M  V30 12961 H 1219.96 -1.14217 0.876947 0
M  V30 12962 H 1221.91 -4.20857 0.213929 0
M  V30 12963 H 1220.63 -3.22099 -0.540352 0
M  V30 12964 H 1219.29 -3.30297 1.59058 0
M  V30 12965 H 1218.94 -5.02652 -0.187133 0
M  V30 12966 H 1218.64 -5.69797 1.43545 0
M  V30 12967 H 1220.16 -6.07801 0.583988 0
M  V30 12968 H 1221.58 -5.09362 2.63103 0
M  V30 12969 H 1219.98 -4.93997 3.40716 0
M  V30 12970 H 1221.05 -3.52877 3.32575 0
M  V30 12971 N 1222.39 -0.968567 -1.24324 0
M  V30 12972 C 1223.35 -0.504307 -2.23583 0
M  V30 12973 C 1224.35 0.399626 -1.55755 0
M  V30 12974 O 1225.54 0.194966 -1.73106 0
M  V30 12975 C 1222.67 0.26956 -3.39833 0
M  V30 12976 H 1223.87 -1.3818 -2.6617 0
M  V30 12977 H 1221.42 -0.753241 -1.36952 0
M  V30 12978 H 1222.15 1.16411 -3.02686 0
M  V30 12979 H 1221.94 -0.379133 -3.90263 0
M  V30 12980 H 1223.43 0.583376 -4.13505 0
M  V30 12981 N 1223.87 1.39211 -0.738786 0
M  V30 12982 C 1224.83 2.28937 -0.109746 0
M  V30 12983 C 1225.83 1.46488 0.663157 0
M  V30 12984 O 1227.02 1.67119 0.491614 0
M  V30 12985 C 1224.15 3.30039 0.853633 0
M  V30 12986 H 1225.34 2.86068 -0.900295 0
M  V30 12987 H 1222.9 1.47922 -0.504853 0
M  V30 12988 H 1223.63 2.77971 1.6704 0
M  V30 12989 H 1223.42 3.90935 0.302007 0
M  V30 12990 H 1224.91 3.97169 1.29022 0
M  V30 12991 N 1225.34 0.486708 1.49896 0
M  V30 12992 C 1226.76 0.141788 1.58969 0
M  V30 12993 C 1226.96 -1.35279 1.49338 0
M  V30 12994 O 1226.02 -2.1275 1.35992 0
M  V30 12995 C 1227.33 0.70588 2.92297 0
M  V30 12996 C 1228.88 0.670704 3.0573 0
M  V30 12997 C 1229.35 1.21261 4.41656 0
M  V30 12998 N 1230.84 1.17269 4.4811 0
M  V30 12999 C 1231.58 1.56233 5.51705 0
M  V30 13000 N 1231.07 2.02721 6.62477 0
M  V30 13001 N 1232.87 1.47738 5.42337 0
M  V30 13002 H 1225.02 1.45858 1.544 0
M  V30 13003 H 1227.28 0.604137 0.730563 0
M  V30 13004 H 1226.99 1.7535 3.04869 0
M  V30 13005 H 1226.86 0.158215 3.76868 0
M  V30 13006 H 1229.25 -0.368041 2.92796 0
M  V30 13007 H 1229.33 1.25535 2.22878 0
M  V30 13008 H 1228.97 2.25006 4.5534 0
M  V30 13009 H 1228.9 0.604031 5.23124 0
M  V30 13010 H 1231.39 0.831905 3.6863 0
M  V30 13011 H 1231.71 2.3056 7.37606 0
M  V30 13012 H 1230.05 2.06686 6.63556 0
M  V30 13013 H 1233.24 1.11249 4.54688 0
M  V30 13014 H 1233.42 1.78429 6.2295 0
M  V30 13015 N 1226.82 -1.56058 0.219941 0
M  V30 13016 C 1227.77 -2.21585 -0.707321 0
M  V30 13017 C 1228.77 -1.19473 -1.20094 0
M  V30 13018 O 1229.97 -1.37557 -1.16095 0
M  V30 13019 H 1226.35 -0.710447 -0.246515 0
M  V30 13020 H 1228.32 -2.98111 -0.131214 0
M  V30 13021 C 1227.07 -2.90841 -1.90544 0
M  V30 13022 H 1226.39 -3.6917 -1.53472 0
M  V30 13023 H 1227.83 -3.40092 -2.53206 0
M  V30 13024 C 1226.29 -1.93223 -2.75983 0
M  V30 13025 O 1226.82 -1.44815 -3.74689 0
M  V30 13026 N 1225.02 -1.60907 -2.41986 0
M  V30 13027 H 1224.57 -2.00467 -1.61774 0
M  V30 13028 H 1224.53 -0.958534 -2.99432 0
M  V30 13029 N 1228.3 0.053464 -1.57509 0
M  V30 13030 C 1229.55 0.750212 -1.88414 0
M  V30 13031 C 1229.88 1.76288 -0.814619 0
M  V30 13032 O 1229.16 1.93728 0.173136 0
M  V30 13033 C 1229.44 1.44176 -3.29978 0
M  V30 13034 C 1229.29 0.444263 -4.47601 0
M  V30 13035 C 1230.61 2.38207 -3.70061 0
M  V30 13036 H 1227.73 0.271266 -0.685262 0
M  V30 13037 H 1230.37 0.0131676 -1.89995 0
M  V30 13038 H 1228.52 2.07001 -3.2876 0
M  V30 13039 H 1230.19 -0.180182 -4.60948 0
M  V30 13040 H 1228.44 -0.238771 -4.33142 0
M  V30 13041 H 1229.11 0.966134 -5.43479 0
M  V30 13042 H 1231.58 1.85446 -3.7249 0
M  V30 13043 H 1230.46 2.83588 -4.69967 0
M  V30 13044 H 1230.72 3.23821 -3.00985 0
M  V30 13045 N 1229.78 1.54207 0.325255 0
M  V30 13046 C 1230.71 1.86467 1.40543 0
M  V30 13047 C 1231.69 0.721324 1.54048 0
M  V30 13048 O 1232.88 0.974905 1.67956 0
M  V30 13049 C 1230.01 2.09052 2.77335 0
M  V30 13050 C 1228.96 3.24893 2.78619 0
M  V30 13051 C 1228.29 3.32846 4.1847 0
M  V30 13052 C 1229.59 4.62582 2.42518 0
M  V30 13053 H 1231.28 2.76932 1.13794 0
M  V30 13054 H 1228.83 1.33248 0.545971 0
M  V30 13055 H 1230.78 2.30204 3.52964 0
M  V30 13056 H 1229.5 1.15335 3.05558 0
M  V30 13057 H 1228.16 3.03625 2.05444 0
M  V30 13058 H 1227.81 2.3669 4.43832 0
M  V30 13059 H 1227.51 4.10701 4.20237 0
M  V30 13060 H 1229.03 3.56231 4.95915 0
M  V30 13061 H 1230.45 4.83627 3.07861 0
M  V30 13062 H 1228.84 5.42974 2.55538 0
M  V30 13063 H 1229.91 4.64946 1.3767 0
M  V30 13064 N 1231.26 -0.58723 1.46251 0
M  V30 13065 C 1232.51 -1.34179 1.50595 0
M  V30 13066 C 1232.82 -1.94943 0.160171 0
M  V30 13067 O 1234.03 -2.71378 0.0813797 0
M  V30 13068 C 1232.48 -2.43159 2.65333 0
M  V30 13069 C 1232.09 -1.88718 4.06312 0
M  V30 13070 C 1233.83 -3.19986 2.78943 0
M  V30 13071 C 1231.74 -2.953 5.12398 0
M  V30 13072 H 1230.67 -0.504401 0.560442 0
M  V30 13073 H 1233.32 -0.627179 1.72449 0
M  V30 13074 H 1231.7 -3.17398 2.368 0
M  V30 13075 H 1232.88 -1.21051 4.44616 0
M  V30 13076 H 1231.19 -1.24572 3.97329 0
M  V30 13077 H 1233.79 -3.9952 3.5537 0
M  V30 13078 H 1234.13 -3.72288 1.86298 0
M  V30 13079 H 1234.67 -2.52852 3.07101 0
M  V30 13080 H 1231.4 -2.4789 6.0682 0
M  V30 13081 H 1230.92 -3.61469 4.78644 0
M  V30 13082 H 1232.6 -3.5933 5.38044 0
M  V30 13083 N 1232.74 -1.33881 -0.831482 0
M  V30 13084 C 1233.98 -1.27095 -1.60082 0
M  V30 13085 C 1234.34 0.15911 -1.9134 0
M  V30 13086 O 1235.54 0.351029 -2.66498 0
M  V30 13087 C 1233.81 -2.12874 -2.87088 0
M  V30 13088 S 1235.37 -2.23354 -3.77702 0
M  V30 13089 H 1232.19 -0.452049 -0.548792 0
M  V30 13090 H 1234.79 -1.68998 -0.98285 0
M  V30 13091 H 1233.49 -3.15797 -2.62108 0
M  V30 13092 H 1233.03 -1.71836 -3.53887 0
M  V30 13093 H 1235.04 -1.40003 -4.76039 0
M  V30 13094 N 1234.21 1.05064 -1.1747 0
M  V30 13095 C 1235.12 2.16346 -0.907286 0
M  V30 13096 C 1236.14 1.7355 0.125013 0
M  V30 13097 O 1237.32 2.01326 -0.0545551 0
M  V30 13098 C 1234.38 3.44077 -0.425681 0
M  V30 13099 C 1233.44 4.01311 -1.52473 0
M  V30 13100 C 1232.67 5.22946 -1.06601 0
M  V30 13101 O 1232.9 5.70345 0.0793329 0
M  V30 13102 O 1231.83 5.72454 -1.85958 0
M  V30 13103 H 1235.66 2.41754 -1.83817 0
M  V30 13104 H 1233.24 1.14834 -0.955693 0
M  V30 13105 H 1235.12 4.21078 -0.164689 0
M  V30 13106 H 1233.8 3.20166 0.477037 0
M  V30 13107 H 1232.71 3.25744 -1.83961 0
M  V30 13108 H 1234.04 4.29543 -2.4032 0
M  V30 13109 N 1235.69 0.975146 1.23809 0
M  V30 13110 C 1236.94 0.639858 1.91704 0
M  V30 13111 C 1237.26 -0.828557 1.76522 0
M  V30 13112 O 1236.53 -1.59217 1.14135 0
M  V30 13113 H 1235.11 0.233667 0.709513 0
M  V30 13114 H 1237.77 1.23782 1.50545 0
M  V30 13115 H 1236.87 0.886915 2.99233 0
M  V30 13116 N 1237.17 -1.38817 0.746158 0
M  V30 13117 C 1238.12 -2.30521 0.113517 0
M  V30 13118 C 1239.09 -1.49795 -0.717682 0
M  V30 13119 O 1240.27 -1.78448 -0.675345 0
M  V30 13120 C 1237.41 -3.36185 -0.779343 0
M  V30 13121 C 1236.52 -4.3195 0.0656784 0
M  V30 13122 C 1235.66 -5.24684 -0.829492 0
M  V30 13123 C 1234.7 -6.12097 0.0196112 0
M  V30 13124 N 1233.84 -6.97152 -0.832107 0
M  V30 13125 H 1238.68 -2.84048 0.901136 0
M  V30 13126 H 1236.21 -1.39853 0.456025 0
M  V30 13127 H 1238.17 -3.96048 -1.31156 0
M  V30 13128 H 1236.8 -2.84085 -1.53282 0
M  V30 13129 H 1235.85 -3.73611 0.715445 0
M  V30 13130 H 1237.16 -4.93551 0.721735 0
M  V30 13131 H 1236.32 -5.89627 -1.42915 0
M  V30 13132 H 1235.06 -4.63431 -1.5193 0
M  V30 13133 H 1234.06 -5.46156 0.631991 0
M  V30 13134 H 1235.29 -6.75416 0.706369 0
M  V30 13135 H 1233.23 -6.38456 -1.507 0
M  V30 13136 H 1233.15 -7.55642 -0.232782 0
M  V30 13137 H 1234.42 -7.66513 -1.41697 0
M  V30 13138 N 1238.65 -0.49465 -1.49636 0
M  V30 13139 C 1239.58 0.276606 -2.31856 0
M  V30 13140 C 1240.56 0.968499 -1.39836 0
M  V30 13141 O 1241.74 0.96113 -1.68748 0
M  V30 13142 C 1238.87 1.34522 -3.20189 0
M  V30 13143 C 1237.83 0.773571 -4.20951 0
M  V30 13144 C 1237.15 1.94223 -4.98178 0
M  V30 13145 C 1238.45 -0.231096 -5.21788 0
M  V30 13146 H 1240.15 -0.409668 -2.96584 0
M  V30 13147 H 1237.69 -0.198461 -1.42626 0
M  V30 13148 H 1239.65 1.89244 -3.76517 0
M  V30 13149 H 1238.37 2.06059 -2.53392 0
M  V30 13150 H 1237.03 0.248144 -3.65759 0
M  V30 13151 H 1236.68 2.64514 -4.27834 0
M  V30 13152 H 1236.38 1.56584 -5.66353 0
M  V30 13153 H 1237.9 2.49391 -5.57348 0
M  V30 13154 H 1239.32 0.227768 -5.72847 0
M  V30 13155 H 1237.71 -0.522984 -5.97817 0
M  V30 13156 H 1238.78 -1.14914 -4.71087 0
M  V30 13157 N 1240.13 1.55939 -0.228214 0
M  V30 13158 C 1241.37 1.9877 0.402272 0
M  V30 13159 C 1241.7 1.11587 1.5894 0
M  V30 13160 O 1240.98 0.175032 1.93711 0
M  V30 13161 C 1241.26 3.50396 0.830353 0
M  V30 13162 C 1241.12 4.4835 -0.360876 0
M  V30 13163 C 1242.43 4.06602 1.68413 0
M  V30 13164 H 1239.55 0.722646 0.144746 0
M  V30 13165 H 1242.2 1.87186 -0.325784 0
M  V30 13166 H 1240.35 3.60398 1.4507 0
M  V30 13167 H 1242.02 4.5035 -0.999113 0
M  V30 13168 H 1240.26 4.21946 -1.00719 0
M  V30 13169 H 1240.93 5.51997 -0.0183074 0
M  V30 13170 H 1243.41 3.99585 1.16064 0
M  V30 13171 H 1242.28 5.12998 1.95254 0
M  V30 13172 H 1242.54 3.53897 2.64971 0
M  V30 13173 N 1241.6 -0.0451101 1.57535 0
M  V30 13174 C 1242.55 -1.05066 2.05499 0
M  V30 13175 C 1243.52 -1.36884 0.940843 0
M  V30 13176 O 1244.71 -1.47497 1.21034 0
M  V30 13177 C 1241.85 -2.35139 2.52594 0
M  V30 13178 C 1240.96 -2.0962 3.77735 0
M  V30 13179 C 1240.09 -3.33447 4.13505 0
M  V30 13180 C 1239.13 -3.03411 5.31609 0
M  V30 13181 N 1238.27 -4.19644 5.62888 0
M  V30 13182 H 1243.11 -0.63469 2.91163 0
M  V30 13183 H 1240.65 -0.30179 1.43971 0
M  V30 13184 H 1242.61 -3.11118 2.7796 0
M  V30 13185 H 1241.24 -2.74489 1.69869 0
M  V30 13186 H 1240.29 -1.24211 3.59549 0
M  V30 13187 H 1241.6 -1.83452 4.63839 0
M  V30 13188 H 1240.75 -4.17805 4.39914 0
M  V30 13189 H 1239.49 -3.62715 3.2602 0
M  V30 13190 H 1238.5 -2.17453 5.04969 0
M  V30 13191 H 1239.72 -2.75438 6.20734 0
M  V30 13192 H 1237.67 -4.48893 4.78363 0
M  V30 13193 H 1237.59 -3.96843 6.43468 0
M  V30 13194 H 1238.85 -5.04921 5.93865 0
M  V30 13195 N 1243.08 -1.54377 -0.317073 0
M  V30 13196 C 1244.33 -1.72105 -1.0518 0
M  V30 13197 C 1244.64 -0.505166 -1.88964 0
M  V30 13198 O 1245.85 -0.563912 -2.65579 0
M  V30 13199 C 1244.31 -3.04435 -1.91957 0
M  V30 13200 C 1243.91 -4.33449 -1.13253 0
M  V30 13201 C 1245.66 -3.31524 -2.65127 0
M  V30 13202 C 1243.57 -5.56837 -1.99214 0
M  V30 13203 H 1242.5 -0.641392 -0.396399 0
M  V30 13204 H 1245.15 -1.80868 -0.309673 0
M  V30 13205 H 1243.53 -2.89595 -2.70094 0
M  V30 13206 H 1244.7 -4.59074 -0.39842 0
M  V30 13207 H 1243.02 -4.13173 -0.517372 0
M  V30 13208 H 1245.61 -4.20906 -3.29761 0
M  V30 13209 H 1245.96 -2.49688 -3.33109 0
M  V30 13210 H 1246.49 -3.47261 -1.94048 0
M  V30 13211 H 1243.23 -6.41294 -1.35729 0
M  V30 13212 H 1242.75 -5.35421 -2.70341 0
M  V30 13213 H 1244.43 -5.93488 -2.57646 0
M  V30 13214 N 1244.56 0.579466 -1.4656 0
M  V30 13215 C 1245.8 1.34857 -1.536 0
M  V30 13216 C 1246.16 1.91111 -0.184576 0
M  V30 13217 O 1247.37 2.68487 -0.129731 0
M  V30 13218 C 1245.64 2.44535 -2.60648 0
M  V30 13219 S 1247.2 3.31829 -2.87115 0
M  V30 13220 H 1244.01 0.459405 -0.542649 0
M  V30 13221 H 1246.62 0.665798 -1.83813 0
M  V30 13222 H 1245.32 2.01605 -3.57468 0
M  V30 13223 H 1244.85 3.17581 -2.32177 0
M  V30 13224 H 1246.87 4.43452 -2.22632 0
M  V30 13225 N 1246.04 1.3432 0.824371 0
M  V30 13226 C 1247.32 1.17178 1.56616 0
M  V30 13227 C 1247.7 -0.256195 2.0954 0
M  V30 13228 O 1247.04 -1.25732 1.90798 0
M  V30 13229 C 1247.25 2.22511 2.68867 0
M  V30 13230 C 1248.6 2.57414 3.37673 0
M  V30 13231 O 1249.63 2.2129 2.79122 0
M  V30 13232 O 1248.48 3.19462 4.43403 0
M  V30 13233 H 1245.58 0.454141 0.691147 0
M  V30 13234 H 1248.12 1.45948 0.865869 0
M  V30 13235 H 1246.9 3.18366 2.27505 0
M  V30 13236 H 1246.52 1.9491 3.46548 0
M  V30 13237 N 1247.52 -1.0444 1.18026 0
M  V30 13238 C 1248.76 -1.77575 0.973314 0
M  V30 13239 C 1249.09 -1.88032 -0.4974 0
M  V30 13240 O 1248.35 -1.38214 -1.38548 0
M  V30 13241 C 1248.65 -3.21134 1.56869 0
M  V30 13242 C 1248.31 -3.30718 3.0649 0
M  V30 13243 C 1246.97 -3.33041 3.47328 0
M  V30 13244 C 1249.33 -3.3112 4.02503 0
M  V30 13245 C 1246.65 -3.33404 4.82762 0
M  V30 13246 C 1249.01 -3.33023 5.37846 0
M  V30 13247 C 1247.67 -3.33636 5.78138 0
M  V30 13248 H 1246.94 -0.649793 0.356161 0
M  V30 13249 H 1249.59 -1.22693 1.47033 0
M  V30 13250 H 1247.89 -3.78992 0.993584 0
M  V30 13251 H 1249.59 -3.76358 1.38404 0
M  V30 13252 H 1246.18 -3.29628 2.7394 0
M  V30 13253 H 1250.36 -3.2852 3.72006 0
M  V30 13254 H 1245.62 -3.32194 5.13281 0
M  V30 13255 H 1249.79 -3.32283 6.12014 0
M  V30 13256 H 1247.42 -3.33671 6.83058 0
M  V30 13257 N 1248.99 -0.981699 -1.2329 0
M  V30 13258 C 1250.24 -0.650015 -1.91361 0
M  V30 13259 C 1250.56 0.819184 -1.76959 0
M  V30 13260 O 1249.83 1.5861 -1.14977 0
M  V30 13261 H 1248.41 -0.237427 -0.708264 0
M  V30 13262 H 1251.08 -1.24579 -1.49887 0
M  V30 13263 H 1250.17 -0.902772 -2.98758 0
M  V30 13264 N 1250.47 1.3842 -0.753509 0
M  V30 13265 C 1251.4 2.33073 -0.141198 0
M  V30 13266 C 1252.38 1.54863 0.70367 0
M  V30 13267 O 1253.57 1.8318 0.644872 0
M  V30 13268 C 1250.7 3.39043 0.752802 0
M  V30 13269 C 1249.65 4.27999 0.0106692 0
M  V30 13270 C 1248.98 5.24824 1.02291 0
M  V30 13271 C 1250.28 5.09308 -1.15768 0
M  V30 13272 H 1251.97 2.84528 -0.93188 0
M  V30 13273 H 1249.52 1.36802 -0.449567 0
M  V30 13274 H 1251.47 4.04224 1.19083 0
M  V30 13275 H 1250.2 2.8607 1.57581 0
M  V30 13276 H 1248.85 3.64323 -0.407939 0
M  V30 13277 H 1248.5 4.68139 1.83998 0
M  V30 13278 H 1248.2 5.85196 0.53101 0
M  V30 13279 H 1249.73 5.92882 1.46026 0
M  V30 13280 H 1251.14 5.6773 -0.797203 0
M  V30 13281 H 1249.54 5.78914 -1.58044 0
M  V30 13282 H 1250.61 4.43051 -1.97062 0
M  V30 13283 N 1251.95 0.502579 1.49372 0
M  V30 13284 C 1252.91 -0.263993 2.27675 0
M  V30 13285 C 1253.91 -0.892538 1.33755 0
M  V30 13286 O 1255.1 -0.756826 1.56901 0
M  V30 13287 C 1252.24 -1.37895 3.11765 0
M  V30 13288 H 1253.43 0.423132 2.969 0
M  V30 13289 H 1250.98 0.257595 1.54163 0
M  V30 13290 H 1251.72 -2.10018 2.47109 0
M  V30 13291 H 1251.5 -0.933694 3.80821 0
M  V30 13292 H 1252.99 -1.91889 3.70902 0
M  V30 13293 N 1253.43 -1.55816 0.23648 0
M  V30 13294 C 1254.84 -1.59159 -0.118601 0
M  V30 13295 C 1255.04 -1.25352 -1.57763 0
M  V30 13296 O 1254.1 -0.995863 -2.32032 0
M  V30 13297 C 1255.41 -2.99885 0.221175 0
M  V30 13298 C 1256.96 -3.12567 0.164624 0
M  V30 13299 C 1257.44 -4.55496 0.478285 0
M  V30 13300 N 1258.93 -4.61215 0.428402 0
M  V30 13301 C 1259.66 -5.69768 0.644398 0
M  V30 13302 N 1259.16 -6.86624 0.922966 0
M  V30 13303 N 1260.95 -5.59143 0.575814 0
M  V30 13304 H 1253.1 -1.76063 1.18809 0
M  V30 13305 H 1255.37 -0.819079 0.477297 0
M  V30 13306 H 1255.07 -3.29326 1.2344 0
M  V30 13307 H 1254.95 -3.74425 -0.456723 0
M  V30 13308 H 1257.33 -2.82914 -0.839263 0
M  V30 13309 H 1257.41 -2.40325 0.876219 0
M  V30 13310 H 1257.06 -4.85868 1.47968 0
M  V30 13311 H 1256.99 -5.25984 -0.254671 0
M  V30 13312 H 1259.48 -3.77251 0.221398 0
M  V30 13313 H 1259.79 -7.6528 1.07548 0
M  V30 13314 H 1258.14 -6.88333 0.960325 0
M  V30 13315 H 1261.33 -4.66727 0.358307 0
M  V30 13316 H 1261.5 -6.43674 0.747548 0
M  V30 13317 N 1254.91 0.036755 -1.57557 0
M  V30 13318 C 1256.18 0.764087 -1.80059 0
M  V30 13319 C 1256.56 1.93983 -0.83269 0
M  V30 13320 O 1255.91 2.28148 0.126815 0
M  V30 13321 C 1256.12 1.20433 -3.27562 0
M  V30 13322 C 1257.47 1.6234 -3.9234 0
M  V30 13323 O 1258.49 1.29911 -3.31665 0
M  V30 13324 O 1257.35 2.22504 -4.99154 0
M  V30 13325 H 1254.45 0.368866 -0.74018 0
M  V30 13326 H 1256.99 0.0141254 -1.69694 0
M  V30 13327 H 1255.76 0.364646 -3.89597 0
M  V30 13328 H 1255.39 2.01454 -3.42786 0
M  V30 13329 N 1256.39 1.54543 0.308881 0
M  V30 13330 C 1257.63 1.7266 1.04266 0
M  V30 13331 C 1257.95 0.51518 1.88694 0
M  V30 13332 O 1259.15 0.577988 2.65276 0
M  V30 13333 C 1257.61 3.05448 1.9034 0
M  V30 13334 C 1257.22 4.34043 1.10953 0
M  V30 13335 C 1258.96 3.32925 2.63365 0
M  V30 13336 C 1256.87 5.57886 1.96258 0
M  V30 13337 H 1255.8 0.643485 0.392992 0
M  V30 13338 H 1258.45 1.8103 0.300077 0
M  V30 13339 H 1256.83 2.91023 2.68555 0
M  V30 13340 H 1258.01 4.59279 0.374069 0
M  V30 13341 H 1256.32 4.13442 0.495453 0
M  V30 13342 H 1258.92 4.22649 3.27524 0
M  V30 13343 H 1259.26 2.51451 3.3178 0
M  V30 13344 H 1259.79 3.48285 1.92204 0
M  V30 13345 H 1256.53 6.42005 1.32326 0
M  V30 13346 H 1256.05 5.36847 2.67498 0
M  V30 13347 H 1257.73 5.94846 2.54494 0
M  V30 13348 N 1257.86 -0.571685 1.46866 0
M  V30 13349 C 1258.8 -1.69502 1.52788 0
M  V30 13350 C 1259.77 -1.58071 0.381109 0
M  V30 13351 O 1260.96 -1.79132 0.586844 0
M  V30 13352 C 1258.09 -3.07642 1.41682 0
M  V30 13353 C 1257.13 -3.37562 2.6068 0
M  V30 13354 S 1257.96 -3.28413 4.22971 0
M  V30 13355 C 1259.12 -4.69073 4.14393 0
M  V30 13356 H 1259.35 -1.64221 2.47828 0
M  V30 13357 H 1256.89 -0.751334 1.34886 0
M  V30 13358 H 1258.84 -3.8733 1.35962 0
M  V30 13359 H 1257.51 -3.10403 0.480517 0
M  V30 13360 H 1256.7 -4.38233 2.48933 0
M  V30 13361 H 1256.3 -2.65464 2.63448 0
M  V30 13362 H 1258.59 -5.59706 3.81754 0
M  V30 13363 H 1259.54 -4.85877 5.15101 0
M  V30 13364 H 1259.94 -4.4644 3.45473 0
M  V30 13365 N 1259.34 -1.34755 -0.817236 0
M  V30 13366 C 1260.76 -1.14561 -1.11121 0
M  V30 13367 C 1260.96 0.0490776 -2.0144 0
M  V30 13368 O 1260.01 0.722897 -2.41931 0
M  V30 13369 C 1261.33 -2.44356 -1.75244 0
M  V30 13370 C 1262.87 -2.50465 -1.87713 0
M  V30 13371 C 1263.35 -3.80276 -2.55253 0
M  V30 13372 N 1264.84 -3.81468 -2.62747 0
M  V30 13373 C 1265.58 -4.78634 -3.15749 0
M  V30 13374 N 1265.07 -5.86184 -3.6927 0
M  V30 13375 N 1266.86 -4.66083 -3.14203 0
M  V30 13376 H 1259.02 -2.11293 -0.2166 0
M  V30 13377 H 1261.28 -0.934629 -0.158661 0
M  V30 13378 H 1260.98 -3.31899 -1.16344 0
M  V30 13379 H 1260.86 -2.58117 -2.75055 0
M  V30 13380 H 1263.25 -1.63358 -2.45761 0
M  V30 13381 H 1263.33 -2.40627 -0.867887 0
M  V30 13382 H 1262.97 -4.67776 -1.97858 0
M  V30 13383 H 1262.9 -3.87399 -3.56693 0
M  V30 13384 H 1265.39 -3.03753 -2.24817 0
M  V30 13385 H 1265.7 -6.56332 -4.0798 0
M  V30 13386 H 1264.05 -5.8989 -3.67498 0
M  V30 13387 H 1267.24 -3.81206 -2.7166 0
M  V30 13388 H 1267.41 -5.41973 -3.55203 0
M  V30 13389 N 1260.82 1.03812 -1.18578 0
M  V30 13390 C 1262.1 1.74062 -0.892288 0
M  V30 13391 C 1262.48 2.02267 0.604256 0
M  V30 13392 O 1261.82 1.66988 1.55972 0
M  V30 13393 C 1262.03 3.024 -1.74228 0
M  V30 13394 C 1263.38 3.76088 -1.97087 0
M  V30 13395 O 1264.41 3.12305 -1.71302 0
M  V30 13396 O 1263.27 4.90732 -2.40509 0
M  V30 13397 H 1260.36 0.757567 -0.331695 0
M  V30 13398 H 1262.91 1.09855 -1.29345 0
M  V30 13399 H 1261.68 2.77713 -2.75665 0
M  V30 13400 H 1261.3 3.74346 -1.3398 0
M  V30 13401 N 1262.3 0.988223 1.22768 0
M  V30 13402 C 1263.52 0.679426 1.95955 0
M  V30 13403 C 1263.95 -0.748483 1.72567 0
M  V30 13404 O 1263.31 -1.51097 1.00197 0
M  V30 13405 C 1263.35 0.985284 3.46878 0
M  V30 13406 O 1262.46 0.0814607 4.1232 0
M  V30 13407 H 1261.8 0.254749 0.613188 0
M  V30 13408 H 1264.33 1.32393 1.55991 0
M  V30 13409 H 1264.34 0.925198 3.97371 0
M  V30 13410 H 1263.01 2.02581 3.63227 0
M  V30 13411 H 1261.59 0.196629 3.72381 0
M  V30 13412 N 1263.78 -1.38018 0.760839 0
M  V30 13413 C 1264.72 -2.32251 0.127425 0
M  V30 13414 C 1265.72 -1.54387 -0.69722 0
M  V30 13415 O 1266.92 -1.69864 -0.595505 0
M  V30 13416 H 1263.3 -0.751666 0.0224141 0
M  V30 13417 H 1265.27 -2.8327 0.93813 0
M  V30 13418 C 1264.02 -3.39606 -0.745849 0
M  V30 13419 H 1263.34 -3.99618 -0.120679 0
M  V30 13420 H 1264.78 -4.07931 -1.15621 0
M  V30 13421 C 1263.24 -2.78778 -1.89167 0
M  V30 13422 O 1263.77 -2.68661 -2.98637 0
M  V30 13423 N 1261.98 -2.36481 -1.68894 0
M  V30 13424 H 1261.52 -2.4491 -0.798551 0
M  V30 13425 H 1261.48 -1.96126 -2.45728 0
M  V30 13426 N 1265.25 -0.510493 -1.49103 0
M  V30 13427 C 1266.48 0.0271324 -2.06582 0
M  V30 13428 C 1266.89 1.30499 -1.36991 0
M  V30 13429 O 1266.23 1.78229 -0.444976 0
M  V30 13430 C 1266.3 0.341488 -3.57874 0
M  V30 13431 C 1265.96 -0.840037 -4.49213 0
M  V30 13432 C 1266.96 -1.73315 -4.90161 0
M  V30 13433 C 1264.64 -1.04153 -4.91383 0
M  V30 13434 C 1266.64 -2.81182 -5.72028 0
M  V30 13435 C 1264.32 -2.12336 -5.73024 0
M  V30 13436 C 1265.32 -3.00684 -6.13252 0
M  V30 13437 O 1265.01 -4.06999 -6.93258 0
M  V30 13438 H 1264.74 -0.0215383 -0.675657 0
M  V30 13439 H 1267.3 -0.709841 -1.92744 0
M  V30 13440 H 1265.53 1.13218 -3.69755 0
M  V30 13441 H 1267.21 0.818859 -3.97554 0
M  V30 13442 H 1267.98 -1.58934 -4.58219 0
M  V30 13443 H 1263.86 -0.363199 -4.59567 0
M  V30 13444 H 1267.4 -3.50169 -6.03347 0
M  V30 13445 H 1263.3 -2.26708 -6.04379 0
M  V30 13446 H 1264.07 -4.04469 -7.11581 0
M  V30 13447 N 1266.73 1.55688 -0.24474 0
M  V30 13448 C 1267.98 1.98067 0.381081 0
M  V30 13449 C 1268.29 1.13606 1.59227 0
M  V30 13450 O 1269.5 1.45988 2.2891 0
M  V30 13451 C 1267.96 3.52432 0.729385 0
M  V30 13452 C 1267.56 4.45629 -0.460282 0
M  V30 13453 C 1269.31 4.03471 1.31952 0
M  V30 13454 C 1267.21 5.91334 -0.088252 0
M  V30 13455 H 1266.14 0.739699 0.146157 0
M  V30 13456 H 1268.8 1.80235 -0.344615 0
M  V30 13457 H 1267.18 3.65951 1.51315 0
M  V30 13458 H 1268.35 4.43868 -1.23764 0
M  V30 13459 H 1266.67 4.05059 -0.965197 0
M  V30 13460 H 1269.26 5.09849 1.61116 0
M  V30 13461 H 1269.61 3.50691 2.24325 0
M  V30 13462 H 1270.14 3.93269 0.5987 0
M  V30 13463 H 1266.88 6.48147 -0.979069 0
M  V30 13464 H 1266.4 5.96235 0.652947 0
M  V30 13465 H 1268.08 6.46156 0.330324 0
M  V30 13466 N 1268.21 -0.0283989 1.57574 0
M  V30 13467 C 1269.43 -0.734537 1.93957 0
M  V30 13468 C 1269.86 -1.68062 0.844787 0
M  V30 13469 O 1269.22 -1.802 -0.199432 0
M  V30 13470 C 1269.27 -1.46716 3.29404 0
M  V30 13471 O 1268.37 -2.58036 3.217 0
M  V30 13472 H 1267.71 -0.197507 0.633946 0
M  V30 13473 H 1270.24 0.0163258 2.04593 0
M  V30 13474 H 1270.25 -1.83693 3.64309 0
M  V30 13475 H 1268.93 -0.773292 4.08648 0
M  V30 13476 H 1267.5 -2.23597 2.98427 0
M  V30 13477 N 1269.69 -1.54705 -0.300681 0
M  V30 13478 C 1270.63 -1.85678 -1.37084 0
M  V30 13479 C 1271.6 -0.70573 -1.50362 0
M  V30 13480 O 1272.79 -0.954385 -1.65215 0
M  V30 13481 C 1269.93 -2.10995 -2.73084 0
M  V30 13482 C 1269.04 -3.38621 -2.68254 0
M  V30 13483 C 1268.18 -3.53779 -3.9625 0
M  V30 13484 C 1267.22 -4.75195 -3.85818 0
M  V30 13485 N 1266.35 -4.87157 -5.05591 0
M  V30 13486 H 1271.19 -2.76967 -1.09971 0
M  V30 13487 H 1268.73 -1.37147 -0.531887 0
M  V30 13488 H 1270.69 -2.23669 -3.52176 0
M  V30 13489 H 1269.32 -1.22973 -2.98458 0
M  V30 13490 H 1268.37 -3.34566 -1.81025 0
M  V30 13491 H 1269.68 -4.27834 -2.56436 0
M  V30 13492 H 1268.84 -3.66119 -4.83779 0
M  V30 13493 H 1267.58 -2.62699 -4.10902 0
M  V30 13494 H 1266.58 -4.62888 -2.96673 0
M  V30 13495 H 1267.81 -5.67683 -3.72711 0
M  V30 13496 H 1265.75 -3.99001 -5.20706 0
M  V30 13497 H 1265.67 -5.70372 -4.96197 0
M  V30 13498 H 1266.94 -5.03854 -5.9477 0
M  V30 13499 N 1271.17 0.563888 -1.47167 0
M  V30 13500 C 1272.41 1.31875 -1.53145 0
M  V30 13501 C 1272.74 1.94047 -0.192518 0
M  V30 13502 O 1272.01 1.79577 0.782872 0
M  V30 13503 H 1270.59 0.489694 -0.5641 0
M  V30 13504 H 1273.25 0.658976 -1.83422 0
M  V30 13505 H 1272.34 2.11574 -2.2944 0
M  V30 13506 N 1272.64 1.35187 0.810078 0
M  V30 13507 C 1273.87 1.31528 1.60359 0
M  V30 13508 C 1274.29 -0.105385 1.87805 0
M  V30 13509 O 1273.65 -1.07113 1.46276 0
M  V30 13510 C 1273.7 2.12429 2.91386 0
M  V30 13511 O 1272.8 1.50262 3.84051 0
M  V30 13512 H 1272.15 0.451122 0.487222 0
M  V30 13513 H 1274.68 1.78178 1.00568 0
M  V30 13514 H 1274.69 2.24257 3.40841 0
M  V30 13515 H 1273.36 3.15714 2.70735 0
M  V30 13516 H 1271.94 1.47253 3.42594 0
M  V30 13517 N 1274.12 -1.03182 1.19127 0
M  V30 13518 C 1275.35 -1.80165 1.01726 0
M  V30 13519 C 1275.77 -1.83742 -0.434095 0
M  V30 13520 O 1275.12 -1.27932 -1.30152 0
M  V30 13521 C 1275.17 -3.25354 1.57566 0
M  V30 13522 O 1274.89 -3.22042 2.9702 0
M  V30 13523 C 1276.4 -4.18948 1.44906 0
M  V30 13524 H 1273.62 -0.567078 0.358698 0
M  V30 13525 H 1276.16 -1.29982 1.57877 0
M  V30 13526 H 1274.31 -3.72738 1.0557 0
M  V30 13527 H 1274.73 -4.13061 3.23235 0
M  V30 13528 H 1276.2 -5.18723 1.88762 0
M  V30 13529 H 1276.68 -4.37383 0.399125 0
M  V30 13530 H 1277.29 -3.77435 1.96018 0
M  V30 13531 N 1275.6 -0.99472 -1.22242 0
M  V30 13532 C 1276.85 -0.671602 -1.91039 0
M  V30 13533 C 1277.18 0.796543 -1.77441 0
M  V30 13534 O 1276.43 1.59179 -1.13845 0
M  V30 13535 C 1276.73 -1.02561 -3.42368 0
M  V30 13536 C 1276.4 -2.48632 -3.76155 0
M  V30 13537 C 1275.06 -2.88549 -3.85088 0
M  V30 13538 C 1277.41 -3.43302 -3.92165 0
M  V30 13539 C 1274.74 -4.22121 -4.07469 0
M  V30 13540 C 1277.09 -4.76534 -4.1605 0
M  V30 13541 C 1275.75 -5.1619 -4.23207 0
M  V30 13542 H 1275.02 -0.245756 -0.69906 0
M  V30 13543 H 1277.67 -1.25125 -1.44969 0
M  V30 13544 H 1275.98 -0.364073 -3.90105 0
M  V30 13545 H 1277.67 -0.753612 -3.93855 0
M  V30 13546 H 1274.26 -2.16693 -3.69787 0
M  V30 13547 H 1278.45 -3.13633 -3.8464 0
M  V30 13548 H 1273.7 -4.52431 -4.11238 0
M  V30 13549 H 1277.88 -5.49835 -4.27381 0
M  V30 13550 H 1275.5 -6.19708 -4.40303 0
M  V30 13551 N 1277.08 1.37613 -0.768148 0
M  V30 13552 C 1278.01 2.3291 -0.165911 0
M  V30 13553 C 1278.99 1.556 0.687205 0
M  V30 13554 O 1280.17 1.83854 0.625407 0
M  V30 13555 C 1277.3 3.39822 0.7168 0
M  V30 13556 C 1276.26 4.27986 -0.0347264 0
M  V30 13557 C 1275.58 5.2588 0.967192 0
M  V30 13558 C 1276.88 5.08052 -1.21164 0
M  V30 13559 H 1278.58 2.83524 -0.962006 0
M  V30 13560 H 1276.12 1.36318 -0.464051 0
M  V30 13561 H 1278.08 4.05464 1.14789 0
M  V30 13562 H 1276.8 2.87725 1.54538 0
M  V30 13563 H 1275.46 3.6387 -0.446557 0
M  V30 13564 H 1275.11 4.70064 1.79022 0
M  V30 13565 H 1274.81 5.85726 0.468913 0
M  V30 13566 H 1276.33 5.94397 1.3973 0
M  V30 13567 H 1277.75 5.66853 -0.857373 0
M  V30 13568 H 1276.14 5.77206 -1.64176 0
M  V30 13569 H 1277.21 4.40936 -2.0175 0
M  V30 13570 N 1278.56 0.518393 1.4883 0
M  V30 13571 C 1279.97 0.0749773 1.86549 0
M  V30 13572 C 1280.32 -1.34429 1.4291 0
M  V30 13573 O 1279.44 -2.00481 0.814648 0
M  V30 13574 C 1280.04 0.129289 3.38553 0
M  V30 13575 C 1278.6 -0.258871 3.75509 0
M  V30 13576 C 1277.74 0.494185 2.72861 0
M  V30 13577 H 1280.7 0.730266 1.409 0
M  V30 13578 H 1280.72 -0.661844 3.747 0
M  V30 13579 H 1280.23 1.16237 3.70285 0
M  V30 13580 H 1278.33 -1.29453 3.49389 0
M  V30 13581 H 1278.44 0.0726769 4.79045 0
M  V30 13582 H 1276.81 -0.0581428 2.54634 0
M  V30 13583 H 1277.59 1.52767 3.07436 0
M  V30 13584 N 1280.03 -1.55556 0.252993 0
M  V30 13585 C 1280.96 -2.24613 -0.638047 0
M  V30 13586 C 1281.95 -1.22852 -1.1765 0
M  V30 13587 O 1283.13 -1.51519 -1.21472 0
M  V30 13588 C 1280.26 -2.95029 -1.83236 0
M  V30 13589 C 1279.21 -4.03531 -1.42641 0
M  V30 13590 C 1278.54 -4.61404 -2.70204 0
M  V30 13591 C 1279.84 -5.18923 -0.592958 0
M  V30 13592 H 1281.53 -2.99335 -0.0621918 0
M  V30 13593 H 1279.08 -1.43972 -0.0284722 0
M  V30 13594 H 1281.03 -3.42042 -2.46141 0
M  V30 13595 H 1279.76 -2.17805 -2.43369 0
M  V30 13596 H 1278.42 -3.57296 -0.820672 0
M  V30 13597 H 1278.06 -3.80874 -3.28548 0
M  V30 13598 H 1277.76 -5.34652 -2.43764 0
M  V30 13599 H 1279.29 -5.11154 -3.33997 0
M  V30 13600 H 1280.7 -5.62124 -1.12646 0
M  V30 13601 H 1279.1 -5.98598 -0.424358 0
M  V30 13602 H 1280.17 -4.83301 0.393434 0
M  V30 13603 N 1281.51 0.0200419 -1.57587 0
M  V30 13604 C 1282.46 1.01784 -2.07144 0
M  V30 13605 C 1283.43 1.3537 -0.962501 0
M  V30 13606 O 1284.61 1.45553 -1.23365 0
M  V30 13607 C 1281.75 2.31091 -2.56302 0
M  V30 13608 C 1280.87 2.03584 -3.81022 0
M  V30 13609 C 1280 3.26827 -4.18757 0
M  V30 13610 C 1279.04 2.94915 -5.36369 0
M  V30 13611 N 1278.18 4.10636 -5.69493 0
M  V30 13612 H 1283.02 0.588288 -2.92136 0
M  V30 13613 H 1280.56 0.278848 -1.44433 0
M  V30 13614 H 1282.51 3.06656 -2.82874 0
M  V30 13615 H 1281.14 2.71752 -1.74215 0
M  V30 13616 H 1280.2 1.18475 -3.6148 0
M  V30 13617 H 1281.51 1.76049 -4.66699 0
M  V30 13618 H 1280.66 4.10753 -4.46505 0
M  V30 13619 H 1279.4 3.57483 -3.31749 0
M  V30 13620 H 1278.41 2.09392 -5.08365 0
M  V30 13621 H 1279.63 2.65528 -6.25037 0
M  V30 13622 H 1277.58 4.41226 -4.85444 0
M  V30 13623 H 1277.49 3.86556 -6.497 0
M  V30 13624 H 1278.76 4.95409 -6.01822 0
M  V30 13625 N 1282.99 1.54862 0.292472 0
M  V30 13626 C 1284.24 1.75735 1.02415 0
M  V30 13627 C 1284.59 0.541197 1.84632 0
M  V30 13628 O 1283.88 -0.466345 1.85838 0
M  V30 13629 C 1284.08 2.99214 1.95463 0
M  V30 13630 C 1283.91 4.32722 1.22401 0
M  V30 13631 C 1282.68 4.96334 0.947659 0
M  V30 13632 C 1284.88 5.10499 0.62416 0
M  V30 13633 N 1282.86 6.13611 0.188198 0
M  V30 13634 C 1284.23 6.2 -0.00210199 0
M  V30 13635 C 1286.28 4.9507 0.530059 0
M  V30 13636 C 1284.99 7.15754 -0.713371 0
M  V30 13637 C 1287.01 5.91163 -0.167575 0
M  V30 13638 C 1286.37 7.00039 -0.782653 0
M  V30 13639 H 1282.47 0.695548 0.357403 0
M  V30 13640 H 1285.06 1.92346 0.301849 0
M  V30 13641 H 1283.23 2.84013 2.64936 0
M  V30 13642 H 1284.96 3.08575 2.61846 0
M  V30 13643 H 1281.72 4.56861 1.24799 0
M  V30 13644 H 1282.14 6.76765 -0.178295 0
M  V30 13645 H 1286.78 4.11015 0.991288 0
M  V30 13646 H 1284.5 7.99344 -1.18634 0
M  V30 13647 H 1288.09 5.81303 -0.240442 0
M  V30 13648 H 1286.97 7.73115 -1.31389 0
M  V30 13649 N 1284.47 -0.556076 1.47464 0
M  V30 13650 C 1285.4 -1.67872 1.54578 0
M  V30 13651 C 1286.38 -1.57658 0.397853 0
M  V30 13652 O 1287.56 -1.785 0.605811 0
M  V30 13653 C 1284.69 -3.06122 1.44937 0
M  V30 13654 C 1283.74 -3.34778 2.64246 0
M  V30 13655 S 1284.57 -3.23909 4.26431 0
M  V30 13656 C 1285.73 -4.64651 4.19345 0
M  V30 13657 H 1285.96 -1.61583 2.49556 0
M  V30 13658 H 1283.49 -0.736985 1.35676 0
M  V30 13659 H 1285.45 -3.85866 1.40062 0
M  V30 13660 H 1284.11 -3.09876 0.513412 0
M  V30 13661 H 1283.3 -4.35569 2.53567 0
M  V30 13662 H 1282.91 -2.62655 2.66248 0
M  V30 13663 H 1285.2 -5.55625 3.87669 0
M  V30 13664 H 1286.14 -4.80386 5.20225 0
M  V30 13665 H 1286.55 -4.42751 3.50189 0
M  V30 13666 N 1285.95 -1.35615 -0.802897 0
M  V30 13667 C 1286.91 -1.28705 -1.89651 0
M  V30 13668 C 1287.91 -0.197681 -1.5958 0
M  V30 13669 O 1289.1 -0.451618 -1.68244 0
M  V30 13670 C 1286.23 -0.991941 -3.26149 0
M  V30 13671 H 1287.43 -2.25951 -1.97196 0
M  V30 13672 H 1284.98 -1.20192 -0.999179 0
M  V30 13673 H 1285.71 -0.0235051 -3.24291 0
M  V30 13674 H 1285.5 -1.78013 -3.49362 0
M  V30 13675 H 1286.99 -0.969298 -4.06195 0
M  V30 13676 N 1287.43 1.02549 -1.19673 0
M  V30 13677 C 1288.84 1.57454 -1.00325 0
M  V30 13678 C 1289.19 1.91136 0.442889 0
M  V30 13679 O 1288.31 1.7126 1.32284 0
M  V30 13680 C 1288.91 2.86091 -1.81486 0
M  V30 13681 C 1287.47 3.37557 -1.6653 0
M  V30 13682 C 1286.61 2.1096 -1.79975 0
M  V30 13683 H 1289.56 0.850364 -1.33994 0
M  V30 13684 H 1289.59 3.5713 -1.31296 0
M  V30 13685 H 1289.1 2.61546 -2.86733 0
M  V30 13686 H 1287.2 3.67083 -0.638834 0
M  V30 13687 H 1287.31 4.1036 -2.47269 0
M  V30 13688 H 1285.68 2.22993 -1.23071 0
M  V30 13689 H 1286.46 1.88852 -2.86688 0
M  V30 13690 N 1288.9 1.00119 1.21713 0
M  V30 13691 C 1289.81 0.567582 2.27631 0
M  V30 13692 C 1290.83 -0.387593 1.69628 0
M  V30 13693 O 1292.01 -0.252372 1.99813 0
M  V30 13694 C 1289.07 -0.102745 3.46548 0
M  V30 13695 C 1288.13 0.896433 4.19836 0
M  V30 13696 C 1287.36 0.258 5.33076 0
M  V30 13697 O 1287.59 -0.946118 5.62499 0
M  V30 13698 O 1286.52 0.967021 5.94081 0
M  V30 13699 H 1290.35 1.44898 2.66905 0
M  V30 13700 H 1287.93 0.769862 1.28037 0
M  V30 13701 H 1289.81 -0.477846 4.18682 0
M  V30 13702 H 1288.49 -0.958576 3.09181 0
M  V30 13703 H 1287.4 1.32262 3.49939 0
M  V30 13704 H 1288.73 1.72173 4.61104 0
M  V30 13705 N 1290.38 -1.37203 0.775435 0
M  V30 13706 C 1291.61 -2.04396 0.351737 0
M  V30 13707 C 1292.03 -1.58099 -1.01913 0
M  V30 13708 O 1291.39 -0.742932 -1.65379 0
M  V30 13709 C 1291.44 -3.58283 0.408105 0
M  V30 13710 O 1290.54 -4.08156 -0.590104 0
M  V30 13711 H 1289.88 -0.646451 0.151647 0
M  V30 13712 H 1292.41 -1.75443 1.05265 0
M  V30 13713 H 1292.42 -4.07127 0.266711 0
M  V30 13714 H 1291.1 -3.91335 1.40819 0
M  V30 13715 H 1289.67 -3.70622 -0.411524 0
M  V30 13716 N 1291.86 -0.526279 -1.48553 0
M  V30 13717 C 1293.11 0.0111473 -2.01697 0
M  V30 13718 C 1293.42 1.35675 -1.40895 0
M  V30 13719 O 1294.63 1.98233 -1.85515 0
M  V30 13720 C 1293.08 0.0702721 -3.59831 0
M  V30 13721 C 1292.69 -1.27022 -4.29616 0
M  V30 13722 C 1294.44 0.556722 -4.20834 0
M  V30 13723 C 1292.34 -1.17188 -5.79673 0
M  V30 13724 H 1291.27 0.00793697 -0.753958 0
M  V30 13725 H 1293.92 -0.669503 -1.70851 0
M  V30 13726 H 1292.31 0.81592 -3.87503 0
M  V30 13727 H 1293.48 -2.03114 -4.1362 0
M  V30 13728 H 1291.79 -1.69211 -3.80469 0
M  V30 13729 H 1294.39 0.648205 -5.30756 0
M  V30 13730 H 1294.73 1.56163 -3.859 0
M  V30 13731 H 1295.27 -0.133132 -3.97577 0
M  V30 13732 H 1292.01 -2.15182 -6.19174 0
M  V30 13733 H 1291.53 -0.452259 -5.98093 0
M  V30 13734 H 1293.21 -0.861011 -6.41245 0
M  V30 13735 N 1293.34 1.5542 -0.261239 0
M  V30 13736 C 1294.58 1.99284 0.359487 0
M  V30 13737 C 1294.91 1.14954 1.56894 0
M  V30 13738 O 1294.17 0.203796 1.94636 0
M  V30 13739 C 1294.47 3.48354 0.799021 0
M  V30 13740 C 1294.13 4.49872 -0.30426 0
M  V30 13741 C 1292.79 4.77353 -0.607237 0
M  V30 13742 C 1295.15 5.10547 -1.04838 0
M  V30 13743 C 1292.47 5.62781 -1.65816 0
M  V30 13744 C 1294.83 5.97115 -2.08893 0
M  V30 13745 C 1293.49 6.22923 -2.3984 0
M  V30 13746 H 1292.76 0.72923 0.131546 0
M  V30 13747 H 1295.41 1.87851 -0.372058 0
M  V30 13748 H 1293.71 3.57192 1.61001 0
M  V30 13749 H 1295.41 3.7969 1.28981 0
M  V30 13750 H 1292 4.28561 -0.0579863 0
M  V30 13751 H 1296.18 4.89352 -0.827566 0
M  V30 13752 H 1291.44 5.81026 -1.90311 0
M  V30 13753 H 1295.61 6.43168 -2.67035 0
M  V30 13754 H 1293.24 6.88912 -3.2141 0
M  V30 13755 N 1294.82 -0.0116844 1.57596 0
M  V30 13756 C 1295.76 -1.02514 2.08791 0
M  V30 13757 C 1296.76 -1.36341 1.00536 0
M  V30 13758 O 1297.96 -1.35042 1.19011 0
M  V30 13759 H 1294.34 -0.348201 0.666528 0
M  V30 13760 H 1296.31 -0.567698 2.9295 0
M  V30 13761 C 1295.06 -2.312 2.59696 0
M  V30 13762 H 1294.38 -2.06036 3.42621 0
M  V30 13763 H 1295.82 -3.00417 2.99208 0
M  V30 13764 C 1294.28 -3.01372 1.50586 0
M  V30 13765 O 1294.81 -3.91896 0.882046 0
M  V30 13766 N 1293.02 -2.62997 1.23616 0
M  V30 13767 H 1292.56 -1.89466 1.74529 0
M  V30 13768 H 1292.52 -3.10264 0.508289 0
M  V30 13769 N 1296.29 -1.55015 -0.284256 0
M  V30 13770 C 1297.52 -1.79431 -1.04016 0
M  V30 13771 C 1297.94 -0.560254 -1.79563 0
M  V30 13772 O 1297.3 0.489804 -1.74558 0
M  V30 13773 C 1297.35 -3.01162 -1.98328 0
M  V30 13774 O 1296.45 -2.75459 -3.06914 0
M  V30 13775 H 1295.79 -0.593391 -0.297965 0
M  V30 13776 H 1298.32 -2.02136 -0.316585 0
M  V30 13777 H 1298.33 -3.29589 -2.40489 0
M  V30 13778 H 1297.01 -3.90634 -1.42751 0
M  V30 13779 H 1295.59 -2.58096 -2.69148 0
M  V30 13780 N 1297.77 0.548248 -1.47757 0
M  V30 13781 C 1298.7 1.66409 -1.63799 0
M  V30 13782 C 1299.68 1.62973 -0.487211 0
M  V30 13783 O 1300.87 1.80455 -0.717612 0
M  V30 13784 C 1298 3.05035 -1.66046 0
M  V30 13785 C 1296.95 3.23322 -2.80441 0
M  V30 13786 C 1296.28 4.62824 -2.67765 0
M  V30 13787 C 1297.58 3.07837 -4.2194 0
M  V30 13788 H 1299.27 1.53239 -2.57212 0
M  V30 13789 H 1296.82 0.735783 -1.23783 0
M  V30 13790 H 1298.77 3.82951 -1.75859 0
M  V30 13791 H 1297.49 3.19185 -0.69199 0
M  V30 13792 H 1296.15 2.47816 -2.70153 0
M  V30 13793 H 1295.8 4.73786 -1.68927 0
M  V30 13794 H 1295.5 4.76007 -3.44515 0
M  V30 13795 H 1297.03 5.42864 -2.7952 0
M  V30 13796 H 1298.44 3.75563 -4.33157 0
M  V30 13797 H 1296.84 3.32525 -4.99547 0
M  V30 13798 H 1297.91 2.04474 -4.3968 0
M  V30 13799 N 1299.25 1.36039 0.795694 0
M  V30 13800 C 1300.48 1.32866 1.58209 0
M  V30 13801 C 1300.89 -0.0935189 1.88969 0
M  V30 13802 O 1300.23 -1.05905 1.501 0
M  V30 13803 C 1300.29 2.07872 2.93308 0
M  V30 13804 C 1299.96 3.56999 2.85309 0
M  V30 13805 C 1300.95 4.51374 2.57987 0
M  V30 13806 C 1298.64 3.99798 3.04083 0
M  V30 13807 C 1300.63 5.86526 2.49533 0
M  V30 13808 C 1298.32 5.35042 2.95251 0
M  V30 13809 C 1299.32 6.28218 2.68013 0
M  V30 13810 O 1299.01 7.60979 2.59163 0
M  V30 13811 H 1298.74 0.457589 0.497583 0
M  V30 13812 H 1301.29 1.79637 0.995978 0
M  V30 13813 H 1299.52 1.55755 3.53945 0
M  V30 13814 H 1301.21 1.97638 3.54534 0
M  V30 13815 H 1301.98 4.19623 2.43191 0
M  V30 13816 H 1297.86 3.27652 3.24292 0
M  V30 13817 H 1301.4 6.59222 2.28193 0
M  V30 13818 H 1297.3 5.66404 3.09608 0
M  V30 13819 H 1298.06 7.7103 2.74691 0
M  V30 13820 N 1300.73 -1.01913 1.20215 0
M  V30 13821 C 1301.96 -1.79076 1.03631 0
M  V30 13822 C 1302.37 -1.84192 -0.414583 0
M  V30 13823 O 1301.73 -1.29306 -1.28788 0
M  V30 13824 C 1301.78 -3.23665 1.61008 0
M  V30 13825 O 1301.5 -3.18873 3.00419 0
M  V30 13826 C 1303 -4.17387 1.49342 0
M  V30 13827 H 1300.22 -0.563241 0.364692 0
M  V30 13828 H 1302.77 -1.283 1.59246 0
M  V30 13829 H 1300.92 -3.71597 1.09518 0
M  V30 13830 H 1301.33 -4.09609 3.27598 0
M  V30 13831 H 1302.81 -5.16691 1.94253 0
M  V30 13832 H 1303.29 -4.36935 0.445493 0
M  V30 13833 H 1303.89 -3.75335 2.0001 0
M  V30 13834 N 1302.21 -1.00763 -1.2118 0
M  V30 13835 C 1303.43 -0.710746 -1.94309 0
M  V30 13836 C 1303.85 0.727103 -1.74237 0
M  V30 13837 O 1303.21 1.49223 -1.05065 0
M  V30 13838 C 1303.26 -1.02562 -3.46646 0
M  V30 13839 O 1302.98 -2.40699 -3.66054 0
M  V30 13840 C 1304.48 -0.748517 -4.36935 0
M  V30 13841 H 1301.7 -0.26171 -0.617858 0
M  V30 13842 H 1304.24 -1.34639 -1.53924 0
M  V30 13843 H 1302.4 -0.435537 -3.84944 0
M  V30 13844 H 1302.81 -2.51764 -4.60125 0
M  V30 13845 H 1304.29 -1.01899 -5.42513 0
M  V30 13846 H 1304.76 0.317423 -4.38051 0
M  V30 13847 H 1305.37 -1.32033 -4.04286 0
M  V30 13848 N 1303.68 1.3679 -0.7827 0
M  V30 13849 C 1304.61 2.32721 -0.190604 0
M  V30 13850 C 1305.6 1.56321 0.670663 0
M  V30 13851 O 1306.78 1.84507 0.605871 0
M  V30 13852 C 1303.91 3.40564 0.680717 0
M  V30 13853 C 1302.86 4.27925 -0.080118 0
M  V30 13854 C 1302.19 5.26876 0.911361 0
M  V30 13855 C 1303.49 5.06738 -1.26545 0
M  V30 13856 H 1305.18 2.82488 -0.992023 0
M  V30 13857 H 1302.73 1.35818 -0.478484 0
M  V30 13858 H 1304.68 4.06659 1.10482 0
M  V30 13859 H 1303.41 2.89348 1.51477 0
M  V30 13860 H 1302.07 3.63376 -0.485125 0
M  V30 13861 H 1301.71 4.71936 1.74026 0
M  V30 13862 H 1301.41 5.8619 0.406762 0
M  V30 13863 H 1302.94 5.95846 1.33418 0
M  V30 13864 H 1304.35 5.65911 -0.917448 0
M  V30 13865 H 1302.75 5.75432 -1.70289 0
M  V30 13866 H 1303.82 4.38772 -2.06415 0
M  V30 13867 N 1305.16 0.53415 1.48272 0
M  V30 13868 C 1306.39 0.00368464 2.074 0
M  V30 13869 C 1306.81 -1.27003 1.38751 0
M  V30 13870 O 1306.17 -1.75502 0.454817 0
M  V30 13871 C 1306.22 -0.199034 3.6005 0
M  V30 13872 O 1305.32 -1.26679 3.92462 0
M  V30 13873 H 1304.66 0.0409936 0.662733 0
M  V30 13874 H 1307.19 0.743253 1.90622 0
M  V30 13875 H 1307.2 -0.420404 4.05828 0
M  V30 13876 H 1305.88 0.731391 4.09418 0
M  V30 13877 H 1304.46 -1.02775 3.58457 0
M  V30 13878 N 1306.64 -1.55279 0.269478 0
M  V30 13879 C 1307.92 -1.91458 -0.400412 0
M  V30 13880 C 1308.3 -1.19306 -1.74153 0
M  V30 13881 O 1307.65 -0.318017 -2.26276 0
M  V30 13882 C 1307.86 -3.44698 -0.546258 0
M  V30 13883 C 1309.2 -4.16374 -0.831758 0
M  V30 13884 O 1310.23 -3.50561 -0.631279 0
M  V30 13885 O 1309.09 -5.32826 -1.21484 0
M  V30 13886 H 1306.18 -0.79766 -0.218328 0
M  V30 13887 H 1308.73 -1.66747 0.315214 0
M  V30 13888 H 1307.5 -3.89273 0.397784 0
M  V30 13889 H 1307.12 -3.75345 -1.31157 0
M  V30 13890 N 1308.12 0.00332656 -1.576 0
M  V30 13891 C 1309.36 0.68989 -1.90705 0
M  V30 13892 C 1309.7 1.73608 -0.870291 0
M  V30 13893 O 1308.97 1.94181 0.111416 0
M  V30 13894 C 1309.26 1.33605 -3.34397 0
M  V30 13895 C 1309.11 0.301638 -4.48787 0
M  V30 13896 C 1310.43 2.26313 -3.77453 0
M  V30 13897 H 1307.55 0.249328 -0.693545 0
M  V30 13898 H 1310.19 -0.0472847 -1.89941 0
M  V30 13899 H 1308.34 1.96437 -3.35179 0
M  V30 13900 H 1310.01 -0.326738 -4.60141 0
M  V30 13901 H 1308.25 -0.376451 -4.32163 0
M  V30 13902 H 1308.92 0.792741 -5.46278 0
M  V30 13903 H 1311.4 1.73502 -3.78201 0
M  V30 13904 H 1310.28 2.68492 -4.78752 0
M  V30 13905 H 1310.54 3.14082 -3.11135 0
M  V30 13906 N 1309.6 1.55164 0.276031 0
M  V30 13907 C 1310.84 1.76811 1.00545 0
M  V30 13908 C 1311.2 0.560749 1.84047 0
M  V30 13909 O 1310.49 -0.446608 1.86322 0
M  V30 13910 C 1310.68 3.0127 1.92279 0
M  V30 13911 C 1310.51 4.33996 1.17804 0
M  V30 13912 C 1309.28 4.97311 0.894963 0
M  V30 13913 C 1311.48 5.11132 0.56998 0
M  V30 13914 N 1309.46 6.13777 0.123106 0
M  V30 13915 C 1310.83 6.19963 -0.0678612 0
M  V30 13916 C 1312.89 4.95605 0.47752 0
M  V30 13917 C 1311.59 7.14957 -0.789246 0
M  V30 13918 C 1313.62 5.90952 -0.230266 0
M  V30 13919 C 1312.98 6.99169 -0.856857 0
M  V30 13920 H 1309.08 0.6993 0.350006 0
M  V30 13921 H 1311.66 1.92655 0.281432 0
M  V30 13922 H 1309.83 2.86807 2.61909 0
M  V30 13923 H 1311.57 3.11335 2.58559 0
M  V30 13924 H 1308.32 4.58159 1.19947 0
M  V30 13925 H 1308.75 6.76538 -0.250065 0
M  V30 13926 H 1313.39 4.12043 0.947639 0
M  V30 13927 H 1311.11 7.98041 -1.27106 0
M  V30 13928 H 1314.69 5.81015 -0.302083 0
M  V30 13929 H 1313.57 7.71678 -1.39581 0
M  V30 13930 N 1311.07 -0.540404 1.48045 0
M  V30 13931 C 1312.3 -1.32656 1.59427 0
M  V30 13932 C 1312.72 -1.86419 0.250924 0
M  V30 13933 O 1312.08 -1.63861 -0.775838 0
M  V30 13934 C 1312.13 -2.46062 2.63602 0
M  V30 13935 O 1311.23 -3.48794 2.20038 0
M  V30 13936 H 1310.58 -0.393334 0.534962 0
M  V30 13937 H 1313.11 -0.651363 1.93955 0
M  V30 13938 H 1313.12 -2.92396 2.84549 0
M  V30 13939 H 1311.79 -2.06291 3.61133 0
M  V30 13940 H 1310.37 -3.0865 2.0926 0
M  V30 13941 N 1312.55 -1.36459 -0.788468 0
M  V30 13942 C 1313.8 -1.30741 -1.54638 0
M  V30 13943 C 1314.13 0.113029 -1.94171 0
M  V30 13944 O 1313.38 1.08252 -1.63034 0
M  V30 13945 C 1313.68 -2.17672 -2.83467 0
M  V30 13946 C 1313.35 -3.66205 -2.63067 0
M  V30 13947 C 1312.01 -4.06688 -2.57212 0
M  V30 13948 C 1314.36 -4.60376 -2.44343 0
M  V30 13949 C 1311.69 -5.39482 -2.306 0
M  V30 13950 C 1314.04 -5.93388 -2.19258 0
M  V30 13951 C 1312.71 -6.32994 -2.11836 0
M  V30 13952 H 1311.98 -0.478416 -0.565862 0
M  V30 13953 H 1314.62 -1.68519 -0.909588 0
M  V30 13954 H 1312.93 -1.72834 -3.51619 0
M  V30 13955 H 1314.62 -2.10573 -3.41263 0
M  V30 13956 H 1311.21 -3.3409 -2.6848 0
M  V30 13957 H 1315.4 -4.29971 -2.47868 0
M  V30 13958 H 1310.65 -5.69149 -2.23337 0
M  V30 13959 H 1314.83 -6.65923 -2.03765 0
M  V30 13960 H 1312.46 -7.3582 -1.90978 0
M  V30 13961 N 1314.03 1.01274 -1.20754 0
M  V30 13962 C 1315.28 1.74586 -1.01804 0
M  V30 13963 C 1315.6 1.89727 0.450419 0
M  V30 13964 O 1314.87 1.44257 1.32539 0
M  V30 13965 H 1313.45 0.646804 -0.373702 0
M  V30 13966 H 1316.11 1.22079 -1.5193 0
M  V30 13967 H 1315.21 2.748 -1.47958 0
M  V30 13968 N 1315.51 1.01404 1.20644 0
M  V30 13969 C 1316.76 0.697244 1.89265 0
M  V30 13970 C 1317.07 -0.776149 1.79542 0
M  V30 13971 O 1318.28 -1.2054 2.43274 0
M  V30 13972 C 1316.73 1.19672 3.39421 0
M  V30 13973 C 1316.34 2.69683 3.57736 0
M  V30 13974 C 1318.09 0.955225 4.13613 0
M  V30 13975 C 1315.99 3.13124 5.01704 0
M  V30 13976 H 1314.92 0.257105 0.708811 0
M  V30 13977 H 1317.57 1.22639 1.36499 0
M  V30 13978 H 1315.96 0.595562 3.91496 0
M  V30 13979 H 1317.13 3.35326 3.16059 0
M  V30 13980 H 1315.44 2.91946 2.96911 0
M  V30 13981 H 1318.04 1.25524 5.19757 0
M  V30 13982 H 1318.38 -0.108362 4.16159 0
M  V30 13983 H 1318.92 1.51962 3.67631 0
M  V30 13984 H 1315.66 4.18748 5.04311 0
M  V30 13985 H 1315.18 2.522 5.44201 0
M  V30 13986 H 1316.86 3.05617 5.70269 0
M  V30 13987 N 1316.99 -1.36373 0.789944 0
M  V30 13988 C 1317.92 -2.32616 0.202944 0
M  V30 13989 C 1318.9 -1.56674 -0.662364 0
M  V30 13990 O 1320.08 -1.84826 -0.596078 0
M  V30 13991 C 1317.21 -3.4092 -0.662646 0
M  V30 13992 C 1316.17 -4.27877 0.102811 0
M  V30 13993 C 1315.49 -5.27352 -0.883407 0
M  V30 13994 C 1316.79 -5.0606 1.29231 0
M  V30 13995 H 1318.49 -2.81958 1.00699 0
M  V30 13996 H 1316.03 -1.35562 0.48568 0
M  V30 13997 H 1317.99 -4.07239 -1.08324 0
M  V30 13998 H 1316.71 -2.90147 -1.4994 0
M  V30 13999 H 1315.37 -3.63114 0.504389 0
M  V30 14000 H 1315.02 -4.72853 -1.71521 0
M  V30 14001 H 1314.72 -5.86398 -0.375669 0
M  V30 14002 H 1316.24 -5.96545 -1.30256 0
M  V30 14003 H 1317.66 -5.65417 0.947446 0
M  V30 14004 H 1316.05 -5.74521 1.73338 0
M  V30 14005 H 1317.12 -4.37671 2.08739 0
M  V30 14006 N 1318.47 -0.542005 -1.47987 0
M  V30 14007 C 1319.4 0.202703 -2.32618 0
M  V30 14008 C 1320.38 0.923521 -1.42846 0
M  V30 14009 O 1321.56 0.906957 -1.7172 0
M  V30 14010 C 1318.69 1.24267 -3.24307 0
M  V30 14011 C 1317.65 0.639257 -4.23199 0
M  V30 14012 C 1316.97 1.78275 -5.04105 0
M  V30 14013 C 1318.27 -0.396982 -5.20789 0
M  V30 14014 H 1319.97 -0.503817 -2.95131 0
M  V30 14015 H 1317.51 -0.243736 -1.41922 0
M  V30 14016 H 1319.46 1.7717 -3.82347 0
M  V30 14017 H 1318.19 1.97893 -2.59819 0
M  V30 14018 H 1316.85 0.131655 -3.66364 0
M  V30 14019 H 1316.5 2.50768 -4.36032 0
M  V30 14020 H 1316.2 1.38487 -5.71047 0
M  V30 14021 H 1317.72 2.31533 -5.65 0
M  V30 14022 H 1319.13 0.0454057 -5.73282 0
M  V30 14023 H 1317.53 -0.712911 -5.9585 0
M  V30 14024 H 1318.6 -1.29843 -4.67193 0
M  V30 14025 N 1319.94 1.55134 -0.277709 0
M  V30 14026 C 1321.19 2.00675 0.331809 0
M  V30 14027 C 1321.54 1.16274 1.53291 0
M  V30 14028 O 1320.84 0.225435 1.90269 0
M  V30 14029 C 1321.03 3.49182 0.762028 0
M  V30 14030 C 1320.86 4.47954 -0.395835 0
M  V30 14031 C 1319.63 4.9757 -0.880446 0
M  V30 14032 C 1321.83 4.99297 -1.23317 0
M  V30 14033 N 1319.81 5.80149 -2.0075 0
M  V30 14034 C 1321.18 5.79348 -2.20808 0
M  V30 14035 C 1323.24 4.8153 -1.26622 0
M  V30 14036 C 1321.94 6.43526 -3.21352 0
M  V30 14037 C 1323.97 5.4651 -2.26011 0
M  V30 14038 C 1323.33 6.26374 -3.22235 0
M  V30 14039 H 1319.43 0.777199 0.086518 0
M  V30 14040 H 1322.01 1.90498 -0.402322 0
M  V30 14041 H 1320.18 3.59696 1.46538 0
M  V30 14042 H 1321.91 3.81551 1.3491 0
M  V30 14043 H 1318.67 4.71367 -0.459314 0
M  V30 14044 H 1319.09 6.26128 -2.57473 0
M  V30 14045 H 1323.73 4.19388 -0.536085 0
M  V30 14046 H 1321.45 7.04816 -3.95297 0
M  V30 14047 H 1325.04 5.34703 -2.29313 0
M  V30 14048 H 1323.92 6.75765 -3.97884 0
M  V30 14049 N 1321.42 0.00503138 1.57599 0
M  V30 14050 C 1322.33 -1.00097 2.12174 0
M  V30 14051 C 1323.35 -1.37353 1.06818 0
M  V30 14052 O 1324.52 -1.45984 1.38747 0
M  V30 14053 C 1321.59 -2.27252 2.61835 0
M  V30 14054 C 1320.65 -1.96262 3.81811 0
M  V30 14055 C 1319.88 -3.17355 4.29094 0
M  V30 14056 O 1320.11 -4.2921 3.75679 0
M  V30 14057 O 1319.04 -3.01059 5.21198 0
M  V30 14058 H 1322.87 -0.567024 2.9836 0
M  V30 14059 H 1320.45 -0.214109 1.47858 0
M  V30 14060 H 1322.33 -3.01944 2.93952 0
M  V30 14061 H 1321.01 -2.69875 1.78744 0
M  V30 14062 H 1319.91 -1.19031 3.54658 0
M  V30 14063 H 1321.25 -1.58473 4.65991 0
M  V30 14064 N 1322.9 -1.55308 -0.267798 0
M  V30 14065 C 1324.15 -1.75364 -0.996515 0
M  V30 14066 C 1324.46 -0.565028 -1.87261 0
M  V30 14067 O 1325.67 -0.648119 -2.63651 0
M  V30 14068 C 1324.12 -3.10388 -1.82175 0
M  V30 14069 C 1323.73 -4.36832 -0.994062 0
M  V30 14070 C 1325.48 -3.39791 -2.54445 0
M  V30 14071 C 1323.38 -5.62893 -1.81398 0
M  V30 14072 H 1322.31 -0.653679 -0.375793 0
M  V30 14073 H 1324.96 -1.81762 -0.251975 0
M  V30 14074 H 1323.35 -2.98041 -2.60744 0
M  V30 14075 H 1324.52 -4.6011 -0.252167 0
M  V30 14076 H 1322.83 -4.1461 -0.385662 0
M  V30 14077 H 1325.43 -4.31184 -3.16203 0
M  V30 14078 H 1325.77 -2.60159 -3.24997 0
M  V30 14079 H 1326.31 -3.53259 -1.82902 0
M  V30 14080 H 1323.05 -6.45287 -1.15258 0
M  V30 14081 H 1322.57 -5.43751 -2.5317 0
M  V30 14082 H 1324.25 -6.01384 -2.38634 0
M  V30 14083 N 1324.38 0.532545 -1.4833 0
M  V30 14084 C 1325.62 1.28851 -1.56217 0
M  V30 14085 C 1325.95 1.93076 -0.234967 0
M  V30 14086 O 1325.21 1.79722 0.774508 0
M  V30 14087 C 1325.51 2.40117 -2.64724 0
M  V30 14088 C 1325.17 1.93562 -4.0724 0
M  V30 14089 C 1323.83 1.80583 -4.46031 0
M  V30 14090 C 1326.19 1.58349 -4.96563 0
M  V30 14091 C 1323.51 1.30722 -5.71952 0
M  V30 14092 C 1325.87 1.09951 -6.22972 0
M  V30 14093 C 1324.53 0.955866 -6.60621 0
M  V30 14094 H 1323.8 0.4715 -0.571637 0
M  V30 14095 H 1326.45 0.594564 -1.82036 0
M  V30 14096 H 1324.75 3.15171 -2.32754 0
M  V30 14097 H 1326.45 2.98252 -2.68042 0
M  V30 14098 H 1323.04 2.04614 -3.76605 0
M  V30 14099 H 1327.22 1.67237 -4.67274 0
M  V30 14100 H 1322.48 1.18286 -5.99849 0
M  V30 14101 H 1326.65 0.817736 -6.91582 0
M  V30 14102 H 1324.28 0.567302 -7.5808 0
M  V30 14103 N 1325.86 1.36875 0.78122 0
M  V30 14104 C 1327.08 1.34732 1.57019 0
M  V30 14105 C 1327.5 -0.0695423 1.88672 0
M  V30 14106 O 1326.86 -1.02873 1.50743 0
M  V30 14107 C 1326.91 2.17668 2.88623 0
M  V30 14108 O 1326.63 3.53832 2.5833 0
M  V30 14109 C 1328.13 2.23398 3.82895 0
M  V30 14110 H 1325.35 0.461857 0.486754 0
M  V30 14111 H 1327.89 1.80086 0.968989 0
M  V30 14112 H 1326.05 1.75848 3.4519 0
M  V30 14113 H 1326.46 3.972 3.42538 0
M  V30 14114 H 1327.94 2.85769 4.72271 0
M  V30 14115 H 1328.41 1.23972 4.2134 0
M  V30 14116 H 1329.02 2.65489 3.32258 0
M  V30 14117 N 1327.33 -1.00632 1.21289 0
M  V30 14118 C 1328.26 -2.11238 0.995021 0
M  V30 14119 C 1329.24 -1.69914 -0.0795537 0
M  V30 14120 O 1330.43 -1.94035 0.0800152 0
M  V30 14121 C 1327.56 -3.42797 0.557475 0
M  V30 14122 C 1326.51 -3.97909 1.57646 0
M  V30 14123 C 1325.84 -5.25357 0.995197 0
M  V30 14124 C 1327.14 -4.30123 2.96297 0
M  V30 14125 H 1328.83 -2.29722 1.9201 0
M  V30 14126 H 1326.38 -1.10395 0.924602 0
M  V30 14127 H 1328.33 -4.19571 0.392236 0
M  V30 14128 H 1327.06 -3.24101 -0.403253 0
M  V30 14129 H 1325.72 -3.23254 1.72924 0
M  V30 14130 H 1325.36 -5.02993 0.026227 0
M  V30 14131 H 1325.06 -5.63196 1.67583 0
M  V30 14132 H 1326.59 -6.04777 0.841251 0
M  V30 14133 H 1328 -4.97744 2.8447 0
M  V30 14134 H 1326.4 -4.79101 3.61361 0
M  V30 14135 H 1327.47 -3.38454 3.47242 0
M  V30 14136 N 1328.81 -1.02043 -1.20104 0
M  V30 14137 C 1330.06 -0.710566 -1.89197 0
M  V30 14138 C 1330.38 0.762471 -1.79475 0
M  V30 14139 O 1329.65 1.54871 -1.19965 0
M  V30 14140 H 1328.23 -0.259839 -0.700352 0
M  V30 14141 H 1330.89 -1.29285 -1.45848 0
M  V30 14142 H 1329.99 -0.997363 -2.95735 0
M  V30 14143 N 1330.29 1.35952 -0.797165 0
M  V30 14144 C 1331.54 1.98639 -0.372405 0
M  V30 14145 C 1331.86 1.63571 1.06158 0
M  V30 14146 O 1331.13 0.913516 1.73297 0
M  V30 14147 H 1329.71 0.734753 -0.13471 0
M  V30 14148 H 1332.37 1.66022 -1.02092 0
M  V30 14149 H 1331.47 3.08533 -0.47049 0
M  V30 14150 N 1331.77 0.549846 1.47697 0
M  V30 14151 C 1333 0.0276889 2.06881 0
M  V30 14152 C 1333.41 -1.26273 1.40359 0
M  V30 14153 O 1332.77 -1.75584 0.497644 0
M  V30 14154 C 1332.82 -0.179291 3.61055 0
M  V30 14155 O 1332.54 1.06002 4.25083 0
M  V30 14156 C 1334.04 -0.739571 4.37087 0
M  V30 14157 H 1331.26 0.0425016 0.669653 0
M  V30 14158 H 1333.81 0.761158 1.89807 0
M  V30 14159 H 1331.96 -0.862867 3.77668 0
M  V30 14160 H 1332.37 0.853137 5.17515 0
M  V30 14161 H 1333.85 -0.833722 5.45668 0
M  V30 14162 H 1334.33 -1.74915 4.02867 0
M  V30 14163 H 1334.93 -0.0919294 4.25201 0
M  V30 14164 N 1333.25 -1.54984 0.285932 0
M  V30 14165 C 1334.66 -1.85519 -0.209707 0
M  V30 14166 C 1335.01 -1.20794 -1.54606 0
M  V30 14167 O 1334.13 -0.500159 -2.10541 0
M  V30 14168 C 1334.73 -3.36579 -0.387283 0
M  V30 14169 C 1333.29 -3.67199 -0.827148 0
M  V30 14170 C 1332.43 -2.77203 0.073308 0
M  V30 14171 H 1335.39 -1.5037 0.507404 0
M  V30 14172 H 1335.41 -3.60269 -1.2242 0
M  V30 14173 H 1334.92 -3.83658 0.585493 0
M  V30 14174 H 1333.02 -3.25627 -1.81101 0
M  V30 14175 H 1333.13 -4.74574 -0.656976 0
M  V30 14176 H 1331.5 -2.50785 -0.444859 0
M  V30 14177 H 1332.28 -3.27099 1.04216 0
M  V30 14178 N 1334.72 -0.0133892 -1.57594 0
M  V30 14179 C 1335.95 0.67827 -1.95149 0
M  V30 14180 C 1336.36 1.67089 -0.887572 0
M  V30 14181 O 1335.71 1.8316 0.140774 0
M  V30 14182 C 1335.77 1.45441 -3.28766 0
M  V30 14183 C 1335.43 0.621889 -4.52749 0
M  V30 14184 C 1336.43 -0.0961541 -5.19811 0
M  V30 14185 C 1334.11 0.563917 -4.99124 0
M  V30 14186 C 1336.11 -0.86101 -6.31558 0
M  V30 14187 C 1333.79 -0.204654 -6.10757 0
M  V30 14188 C 1334.79 -0.915839 -6.76832 0
M  V30 14189 O 1334.48 -1.67184 -7.86323 0
M  V30 14190 H 1334.21 0.192983 -0.647869 0
M  V30 14191 H 1336.77 -0.0646816 -2.05298 0
M  V30 14192 H 1335 2.24215 -3.15063 0
M  V30 14193 H 1336.69 2.03268 -3.51336 0
M  V30 14194 H 1337.45 -0.0606029 -4.84962 0
M  V30 14195 H 1333.33 1.10702 -4.47511 0
M  V30 14196 H 1336.87 -1.41664 -6.83064 0
M  V30 14197 H 1332.77 -0.241979 -6.45046 0
M  V30 14198 H 1333.54 -1.58996 -8.02909 0
M  V30 14199 N 1336.2 1.55448 0.259558 0
M  V30 14200 C 1337.61 1.67256 0.8296 0
M  V30 14201 C 1337.96 0.60851 1.86525 0
M  V30 14202 O 1337.09 -0.247563 2.14979 0
M  V30 14203 C 1337.68 3.03213 1.51152 0
M  V30 14204 C 1336.24 3.17004 2.02943 0
M  V30 14205 C 1335.39 2.63096 0.876103 0
M  V30 14206 H 1338.34 1.5866 0.0356218 0
M  V30 14207 H 1338.36 2.96952 2.37906 0
M  V30 14208 H 1337.87 3.80635 0.75752 0
M  V30 14209 H 1335.98 2.44381 2.81263 0
M  V30 14210 H 1336.09 4.23748 2.2355 0
M  V30 14211 H 1334.45 2.20596 1.27317 0
M  V30 14212 H 1335.24 3.43033 0.13539 0
M  V30 14213 N 1337.68 -0.524672 1.4861 0
M  V30 14214 C 1338.59 -1.65554 1.6622 0
M  V30 14215 C 1339.61 -1.65254 0.54471 0
M  V30 14216 O 1340.78 -1.84109 0.816454 0
M  V30 14217 C 1337.85 -3.02003 1.7028 0
M  V30 14218 C 1336.91 -3.13116 2.93695 0
M  V30 14219 C 1336.14 -4.43055 2.97553 0
M  V30 14220 O 1336.36 -5.30468 2.09667 0
M  V30 14221 O 1335.3 -4.58646 3.89779 0
M  V30 14222 H 1339.12 -1.53633 2.61974 0
M  V30 14223 H 1336.71 -0.698354 1.32073 0
M  V30 14224 H 1338.59 -3.83143 1.75441 0
M  V30 14225 H 1337.27 -3.14236 0.777002 0
M  V30 14226 H 1336.17 -2.31251 2.94064 0
M  V30 14227 H 1337.51 -3.058 3.85677 0
M  V30 14228 N 1339.16 -1.37287 -0.77395 0
M  V30 14229 C 1340.09 -1.35569 -1.90114 0
M  V30 14230 C 1341.07 -0.224658 -1.6861 0
M  V30 14231 O 1342.25 -0.424676 -1.895 0
M  V30 14232 C 1339.38 -1.15971 -3.27365 0
M  V30 14233 C 1338.34 -2.26063 -3.63427 0
M  V30 14234 C 1337.66 -1.9159 -4.99197 0
M  V30 14235 C 1338.96 -3.68236 -3.70405 0
M  V30 14236 H 1340.66 -2.29891 -1.91808 0
M  V30 14237 H 1338.2 -1.10661 -0.92142 0
M  V30 14238 H 1340.16 -1.134 -4.05855 0
M  V30 14239 H 1338.88 -0.181043 -3.26098 0
M  V30 14240 H 1337.54 -2.27786 -2.87244 0
M  V30 14241 H 1337.19 -0.922586 -4.94467 0
M  V30 14242 H 1336.89 -2.65309 -5.24294 0
M  V30 14243 H 1338.41 -1.90602 -5.80089 0
M  V30 14244 H 1339.83 -3.68655 -4.39052 0
M  V30 14245 H 1338.22 -4.4099 -4.06999 0
M  V30 14246 H 1339.29 -4.02021 -2.71122 0
M  V30 14247 N 1340.64 0.999871 -1.21821 0
M  V30 14248 C 1342.05 1.5529 -1.03642 0
M  V30 14249 C 1342.4 1.92032 0.402246 0
M  V30 14250 O 1341.52 1.74027 1.28622 0
M  V30 14251 C 1342.12 2.82177 -1.87514 0
M  V30 14252 C 1340.68 3.33949 -1.73653 0
M  V30 14253 C 1339.82 2.07095 -1.84409 0
M  V30 14254 H 1342.78 0.821751 -1.35768 0
M  V30 14255 H 1342.8 3.54264 -1.38842 0
M  V30 14256 H 1342.31 2.55405 -2.92216 0
M  V30 14257 H 1340.41 3.65645 -0.716554 0
M  V30 14258 H 1340.52 4.05022 -2.55918 0
M  V30 14259 H 1338.89 2.20332 -1.27773 0
M  V30 14260 H 1339.67 1.82728 -2.90629 0
M  V30 14261 N 1342.11 1.02678 1.19562 0
M  V30 14262 C 1343.05 0.550355 2.21464 0
M  V30 14263 C 1344.03 -0.407674 1.57406 0
M  V30 14264 O 1345.21 -0.325272 1.85672 0
M  V30 14265 C 1342.34 -0.197777 3.38122 0
M  V30 14266 C 1341.38 0.711362 4.20526 0
M  V30 14267 S 1342.22 2.18636 4.88834 0
M  V30 14268 C 1343.37 1.44868 6.08904 0
M  V30 14269 H 1343.6 1.41377 2.61534 0
M  V30 14270 H 1341.14 0.836535 1.29775 0
M  V30 14271 H 1343.1 -0.62329 4.0574 0
M  V30 14272 H 1341.76 -1.03689 2.96492 0
M  V30 14273 H 1340.95 0.133916 5.03822 0
M  V30 14274 H 1340.55 1.0751 3.58214 0
M  V30 14275 H 1342.84 0.734143 6.73511 0
M  V30 14276 H 1343.79 2.25816 6.71128 0
M  V30 14277 H 1344.19 0.947098 5.56498 0
M  V30 14278 N 1343.59 -1.35528 0.804364 0
M  V30 14279 C 1344.54 -2.31728 0.20125 0
M  V30 14280 C 1345.53 -1.56527 -0.647751 0
M  V30 14281 O 1346.74 -1.71672 -0.541163 0
M  V30 14282 H 1343.12 -0.750572 0.0463165 0
M  V30 14283 H 1345.09 -2.80142 1.02777 0
M  V30 14284 C 1343.84 -3.41807 -0.637429 0
M  V30 14285 H 1343.16 -3.99799 0.00651699 0
M  V30 14286 H 1344.6 -4.11403 -1.02585 0
M  V30 14287 C 1343.06 -2.84655 -1.80202 0
M  V30 14288 O 1343.59 -2.78026 -2.89939 0
M  V30 14289 N 1341.79 -2.41735 -1.61285 0
M  V30 14290 H 1341.34 -2.47327 -0.720231 0
M  V30 14291 H 1341.3 -2.03844 -2.39364 0
M  V30 14292 N 1345.07 -0.557671 -1.47404 0
M  V30 14293 C 1345.98 0.19289 -2.33806 0
M  V30 14294 C 1347 0.911424 -1.4822 0
M  V30 14295 O 1348.17 0.880214 -1.81147 0
M  V30 14296 C 1345.24 1.20937 -3.24923 0
M  V30 14297 C 1344.3 0.498209 -4.26399 0
M  V30 14298 C 1343.53 1.46626 -5.13163 0
M  V30 14299 O 1343.76 2.70111 -5.0239 0
M  V30 14300 O 1342.69 0.990497 -5.93694 0
M  V30 14301 H 1346.52 -0.515861 -2.99287 0
M  V30 14302 H 1344.1 -0.318283 -1.4597 0
M  V30 14303 H 1345.98 1.7961 -3.81206 0
M  V30 14304 H 1344.66 1.90003 -2.6207 0
M  V30 14305 H 1343.56 -0.129736 -3.73875 0
M  V30 14306 H 1344.9 -0.151015 -4.91968 0
M  V30 14307 N 1346.55 1.54831 -0.294147 0
M  V30 14308 C 1347.48 2.20696 0.61854 0
M  V30 14309 C 1348.49 1.19754 1.10285 0
M  V30 14310 O 1349.68 1.46383 1.02148 0
M  V30 14311 C 1346.78 2.83429 1.85798 0
M  V30 14312 C 1345.96 4.10239 1.51731 0
M  V30 14313 C 1345.02 4.56841 2.61119 0
M  V30 14314 O 1344.04 5.22194 2.26501 0
M  V30 14315 N 1345.24 4.2858 3.91534 0
M  V30 14316 H 1348.01 2.9965 0.054714 0
M  V30 14317 H 1345.57 1.61484 -0.116052 0
M  V30 14318 H 1347.56 3.11541 2.5831 0
M  V30 14319 H 1346.13 2.08356 2.33038 0
M  V30 14320 H 1345.35 3.89212 0.625142 0
M  V30 14321 H 1346.64 4.92824 1.26499 0
M  V30 14322 H 1346.04 3.7621 4.22472 0
M  V30 14323 H 1344.59 4.61418 4.60366 0
M  V30 14324 N 1348.03 0.0217466 1.57585 0
M  V30 14325 C 1349.27 -0.658487 1.91495 0
M  V30 14326 C 1349.6 -1.72557 0.897462 0
M  V30 14327 O 1348.86 -1.95471 -0.0946909 0
M  V30 14328 C 1349.16 -1.3197 3.32143 0
M  V30 14329 C 1348.82 -0.383706 4.49264 0
M  V30 14330 C 1347.48 -0.126065 4.81035 0
M  V30 14331 C 1349.84 0.259445 5.20554 0
M  V30 14332 C 1347.16 0.782659 5.81456 0
M  V30 14333 C 1349.52 1.15618 6.21945 0
M  V30 14334 C 1348.18 1.42278 6.5216 0
M  V30 14335 H 1347.45 -0.240958 0.700729 0
M  V30 14336 H 1350.1 0.0819351 1.91325 0
M  V30 14337 H 1348.4 -2.13469 3.28539 0
M  V30 14338 H 1350.1 -1.85245 3.55648 0
M  V30 14339 H 1346.69 -0.59469 4.24454 0
M  V30 14340 H 1350.87 0.073445 4.96246 0
M  V30 14341 H 1346.13 0.996995 6.03216 0
M  V30 14342 H 1350.3 1.66077 6.76307 0
M  V30 14343 H 1347.93 2.1286 7.29791 0
M  V30 14344 N 1349.51 -1.55583 -0.251311 0
M  V30 14345 C 1350.74 -1.80996 -0.99619 0
M  V30 14346 C 1351.14 -0.594534 -1.79616 0
M  V30 14347 O 1350.49 0.446197 -1.78199 0
M  V30 14348 C 1350.55 -2.99691 -1.98559 0
M  V30 14349 C 1350.21 -4.35888 -1.37297 0
M  V30 14350 C 1351.21 -5.14051 -0.777672 0
M  V30 14351 C 1348.89 -4.82579 -1.39366 0
M  V30 14352 C 1350.89 -6.3705 -0.211225 0
M  V30 14353 C 1348.58 -6.05528 -0.823357 0
M  V30 14354 C 1349.57 -6.82602 -0.233163 0
M  V30 14355 O 1349.26 -8.03229 0.328345 0
M  V30 14356 H 1348.99 -0.606287 -0.298985 0
M  V30 14357 H 1351.55 -2.03471 -0.280813 0
M  V30 14358 H 1349.78 -2.7296 -2.73915 0
M  V30 14359 H 1351.47 -3.12235 -2.59354 0
M  V30 14360 H 1352.23 -4.791 -0.754228 0
M  V30 14361 H 1348.11 -4.22582 -1.84243 0
M  V30 14362 H 1351.66 -6.97152 0.250073 0
M  V30 14363 H 1347.55 -6.39957 -0.844114 0
M  V30 14364 H 1348.32 -8.18205 0.219785 0
M  V30 14365 N 1350.98 0.516783 -1.48886 0
M  V30 14366 C 1351.93 1.64093 -1.64853 0
M  V30 14367 C 1352.93 1.61392 -0.514685 0
M  V30 14368 O 1354.13 1.6609 -0.693831 0
M  V30 14369 H 1350.51 0.543672 -0.519543 0
M  V30 14370 H 1352.48 1.47774 -2.5924 0
M  V30 14371 C 1351.23 3.02308 -1.71771 0
M  V30 14372 H 1350.55 3.05085 -2.58385 0
M  V30 14373 H 1351.99 3.80544 -1.86982 0
M  V30 14374 C 1350.45 3.33757 -0.459136 0
M  V30 14375 O 1350.98 3.99475 0.422177 0
M  V30 14376 N 1349.18 2.88756 -0.326837 0
M  V30 14377 H 1348.73 2.35452 -1.045 0
M  V30 14378 H 1348.69 3.10166 0.514213 0
M  V30 14379 N 1352.46 1.37696 0.766659 0
M  V30 14380 C 1353.42 1.33688 1.86172 0
M  V30 14381 C 1354.42 0.239922 1.59 0
M  V30 14382 O 1355.61 0.496066 1.66988 0
M  V30 14383 C 1352.75 1.07807 3.23405 0
M  V30 14384 H 1353.94 2.311 1.91136 0
M  V30 14385 H 1351.49 1.22799 0.966961 0
M  V30 14386 H 1352.23 0.109477 3.24115 0
M  V30 14387 H 1352.01 1.87213 3.4452 0
M  V30 14388 H 1353.5 1.07665 4.03482 0
M  V30 14389 N 1353.94 -0.993397 1.22349 0
M  V30 14390 C 1355.19 -1.72707 1.04189 0
M  V30 14391 C 1355.5 -1.90963 -0.423381 0
M  V30 14392 O 1356.71 -2.61651 -0.724645 0
M  V30 14393 C 1355.16 -3.10739 1.81575 0
M  V30 14394 C 1354.77 -3.00415 3.32347 0
M  V30 14395 C 1356.52 -3.88155 1.71861 0
M  V30 14396 C 1354.42 -4.33598 4.02177 0
M  V30 14397 H 1353.35 -0.647556 0.386248 0
M  V30 14398 H 1356 -1.10902 1.46195 0
M  V30 14399 H 1354.39 -3.73222 1.32367 0
M  V30 14400 H 1355.56 -2.47099 3.88946 0
M  V30 14401 H 1353.87 -2.36482 3.42732 0
M  V30 14402 H 1356.47 -4.8673 2.21354 0
M  V30 14403 H 1356.81 -4.10726 0.678939 0
M  V30 14404 H 1357.35 -3.32347 2.18609 0
M  V30 14405 H 1354.09 -4.16226 5.06395 0
M  V30 14406 H 1353.61 -4.86829 3.50367 0
M  V30 14407 H 1355.29 -5.02348 4.07744 0
M  V30 14408 N 1355.42 -1.03311 -1.19015 0
M  V30 14409 C 1356.36 -0.617567 -2.22384 0
M  V30 14410 C 1357.33 0.370779 -1.61909 0
M  V30 14411 O 1358.52 0.266481 -1.8893 0
M  V30 14412 C 1355.66 0.0211303 -3.45094 0
M  V30 14413 C 1354.77 -1.01377 -4.19937 0
M  V30 14414 C 1353.91 -0.344385 -5.30082 0
M  V30 14415 C 1352.95 -1.3649 -5.96688 0
M  V30 14416 N 1352.08 -0.721026 -6.98388 0
M  V30 14417 H 1356.92 -1.5036 -2.57286 0
M  V30 14418 H 1354.46 -0.75235 -1.26405 0
M  V30 14419 H 1356.42 0.408713 -4.15193 0
M  V30 14420 H 1355.05 0.870721 -3.10835 0
M  V30 14421 H 1354.1 -1.51937 -3.4874 0
M  V30 14422 H 1355.41 -1.78921 -4.65606 0
M  V30 14423 H 1354.57 0.097814 -6.06621 0
M  V30 14424 H 1353.31 0.463216 -4.85495 0
M  V30 14425 H 1352.31 -1.81732 -5.18897 0
M  V30 14426 H 1353.54 -2.17407 -6.43359 0
M  V30 14427 H 1351.48 0.0664057 -6.55966 0
M  V30 14428 H 1351.4 -1.43428 -7.4227 0
M  V30 14429 H 1352.67 -0.30297 -7.78911 0
M  V30 14430 N 1356.9 1.35099 -0.81154 0
M  V30 14431 C 1358.31 1.51701 -0.495883 0
M  V30 14432 C 1358.51 1.7595 0.982035 0
M  V30 14433 O 1357.57 1.8038 1.7669 0
M  V30 14434 C 1358.88 2.68916 -1.34554 0
M  V30 14435 C 1360.43 2.82795 -1.34149 0
M  V30 14436 C 1360.9 4.0304 -2.17538 0
M  V30 14437 N 1362.39 4.10227 -2.151 0
M  V30 14438 C 1363.13 5.02397 -2.76377 0
M  V30 14439 N 1362.63 5.99866 -3.46601 0
M  V30 14440 N 1364.42 4.95181 -2.65992 0
M  V30 14441 H 1356.57 1.17617 -1.76862 0
M  V30 14442 H 1358.83 0.575875 -0.753042 0
M  V30 14443 H 1358.54 2.57591 -2.39458 0
M  V30 14444 H 1358.41 3.63641 -1.00223 0
M  V30 14445 H 1360.8 2.93568 -0.300285 0
M  V30 14446 H 1360.88 1.88912 -1.7247 0
M  V30 14447 H 1360.52 3.93027 -3.21702 0
M  V30 14448 H 1360.45 4.96114 -1.76574 0
M  V30 14449 H 1362.95 3.40454 -1.6401 0
M  V30 14450 H 1363.26 6.66803 -3.90632 0
M  V30 14451 H 1361.6 6.00025 -3.50706 0
M  V30 14452 H 1364.79 4.17991 -2.10715 0
M  V30 14453 H 1364.97 5.6682 -3.14036 0
M  V30 14454 N 1358.37 0.56548 1.47106 0
M  V30 14455 C 1359.62 0.0444375 2.02051 0
M  V30 14456 C 1359.94 -1.31344 1.44131 0
M  V30 14457 O 1359.21 -1.85845 0.619556 0
M  V30 14458 H 1357.79 0.0134375 0.746879 0
M  V30 14459 H 1360.45 0.737362 1.80413 0
M  V30 14460 H 1359.55 -0.0374834 3.12077 0
M  V30 14461 N 1359.85 -1.54672 0.302354 0
M  V30 14462 C 1361.08 -2.04282 -0.308645 0
M  V30 14463 C 1361.49 -1.17912 -1.47965 0
M  V30 14464 O 1360.83 -0.197723 -1.82633 0
M  V30 14465 C 1360.9 -3.49872 -0.826417 0
M  V30 14466 C 1360.56 -4.56473 0.219486 0
M  V30 14467 C 1361.56 -5.0922 1.0484 0
M  V30 14468 C 1359.24 -5.00997 0.361574 0
M  V30 14469 C 1361.24 -6.05033 2.00533 0
M  V30 14470 C 1358.92 -5.9663 1.32195 0
M  V30 14471 C 1359.92 -6.48532 2.1423 0
M  V30 14472 O 1359.61 -7.42292 3.08639 0
M  V30 14473 H 1359.34 -0.67228 -0.0708187 0
M  V30 14474 H 1361.89 -2.00625 0.440314 0
M  V30 14475 H 1360.12 -3.50857 -1.62593 0
M  V30 14476 H 1361.81 -3.8267 -1.35345 0
M  V30 14477 H 1362.58 -4.75615 0.949501 0
M  V30 14478 H 1358.46 -4.60226 -0.267018 0
M  V30 14479 H 1362 -6.45469 2.64604 0
M  V30 14480 H 1357.9 -6.29652 1.42156 0
M  V30 14481 H 1358.67 -7.60098 3.03633 0
M  V30 14482 N 1361.33 -0.0301034 -1.57571 0
M  V30 14483 C 1362.75 0.326296 -1.56229 0
M  V30 14484 C 1362.95 1.72839 -1.03581 0
M  V30 14485 O 1362 2.43088 -0.682979 0
M  V30 14486 C 1363.32 0.174001 -3.00196 0
M  V30 14487 C 1364.86 0.246694 -3.12026 0
M  V30 14488 C 1365.34 0.123177 -4.57834 0
M  V30 14489 N 1366.83 0.180129 -4.6285 0
M  V30 14490 C 1367.56 0.108353 -5.73298 0
M  V30 14491 N 1367.06 -0.0145648 -6.92798 0
M  V30 14492 N 1368.85 0.162411 -5.61865 0
M  V30 14493 H 1361 -0.946945 -1.90123 0
M  V30 14494 H 1363.27 -0.365762 -0.874598 0
M  V30 14495 H 1362.97 -0.791871 -3.42669 0
M  V30 14496 H 1362.85 0.943794 -3.65202 0
M  V30 14497 H 1365.23 1.20303 -2.69465 0
M  V30 14498 H 1365.32 -0.553493 -2.4974 0
M  V30 14499 H 1364.96 -0.82974 -5.01077 0
M  V30 14500 H 1364.89 0.94224 -5.18102 0
M  V30 14501 H 1367.38 0.275236 -3.76896 0
M  V30 14502 H 1367.69 -0.062614 -7.72775 0
M  V30 14503 H 1366.04 -0.0493606 -6.94982 0
M  V30 14504 H 1369.23 0.256847 -4.67395 0
M  V30 14505 H 1369.4 0.103013 -6.47918 0
M  V30 14506 N 1362.81 1.55714 0.243056 0
M  V30 14507 C 1363.74 1.85615 1.32748 0
M  V30 14508 C 1364.72 0.711577 1.46203 0
M  V30 14509 O 1365.9 0.957732 1.62357 0
M  V30 14510 C 1363.03 2.04425 2.70052 0
M  V30 14511 C 1362.08 3.27071 2.73727 0
M  V30 14512 S 1362.91 4.83615 2.2995 0
M  V30 14513 C 1364.07 5.05434 3.69171 0
M  V30 14514 H 1364.3 2.77305 1.07187 0
M  V30 14515 H 1361.83 1.47871 0.444234 0
M  V30 14516 H 1363.79 2.15946 3.4911 0
M  V30 14517 H 1362.45 1.1357 2.92849 0
M  V30 14518 H 1361.64 3.37211 3.74573 0
M  V30 14519 H 1361.25 3.14296 2.02716 0
M  V30 14520 H 1363.54 4.93013 4.64698 0
M  V30 14521 H 1364.48 6.07401 3.63963 0
M  V30 14522 H 1364.89 4.33262 3.61862 0
M  V30 14523 N 1364.29 -0.50888 1.49158 0
M  V30 14524 C 1365.25 -1.59354 1.64739 0
M  V30 14525 C 1366.25 -1.52175 0.519557 0
M  V30 14526 O 1367.44 -1.55468 0.785838 0
M  V30 14527 C 1364.57 -2.99002 1.63739 0
M  V30 14528 H 1365.76 -1.46871 2.61474 0
M  V30 14529 H 1363.32 -0.732532 1.38071 0
M  V30 14530 H 1364.05 -3.1697 0.685583 0
M  V30 14531 H 1363.84 -3.05622 2.45637 0
M  V30 14532 H 1365.33 -3.77822 1.77877 0
M  V30 14533 N 1365.76 -1.381 -0.759346 0
M  V30 14534 C 1366.7 -1.3075 -1.88248 0
M  V30 14535 C 1367.71 -0.220835 -1.61295 0
M  V30 14536 O 1368.9 -0.477952 -1.71982 0
M  V30 14537 C 1366 -1.00174 -3.23757 0
M  V30 14538 C 1365.17 -2.19635 -3.78258 0
M  V30 14539 C 1364.23 -1.85892 -4.92271 0
M  V30 14540 O 1363.26 -2.58325 -5.07205 0
M  V30 14541 N 1364.46 -0.810436 -5.74815 0
M  V30 14542 H 1367.22 -2.27529 -1.95065 0
M  V30 14543 H 1364.78 -1.31886 -0.93902 0
M  V30 14544 H 1366.78 -0.756631 -3.97564 0
M  V30 14545 H 1365.35 -0.122094 -3.12361 0
M  V30 14546 H 1364.57 -2.60246 -2.96084 0
M  V30 14547 H 1365.85 -2.99373 -4.11404 0
M  V30 14548 H 1365.25 -0.209644 -5.65311 0
M  V30 14549 H 1363.81 -0.625206 -6.48795 0
M  V30 14550 N 1367.24 0.986894 -1.22875 0
M  V30 14551 C 1368.65 1.54182 -1.05284 0
M  V30 14552 C 1369 1.92448 0.381856 0
M  V30 14553 O 1368.13 1.75381 1.26769 0
M  V30 14554 C 1368.72 2.80173 -1.90496 0
M  V30 14555 C 1367.28 3.32088 -1.77185 0
M  V30 14556 C 1366.43 2.05128 -1.86596 0
M  V30 14557 H 1369.38 0.807304 -1.36632 0
M  V30 14558 H 1369.4 3.52772 -1.42591 0
M  V30 14559 H 1368.91 2.52291 -2.94908 0
M  V30 14560 H 1367.02 3.64864 -0.755295 0
M  V30 14561 H 1367.13 4.02285 -2.60199 0
M  V30 14562 H 1365.49 2.18964 -1.30103 0
M  V30 14563 H 1366.28 1.79635 -2.92551 0
M  V30 14564 N 1368.72 1.0394 1.18466 0
M  V30 14565 C 1369.68 0.633804 2.20262 0
M  V30 14566 C 1370.68 -0.308136 1.5782 0
M  V30 14567 O 1371.87 -0.0937087 1.73948 0
M  V30 14568 C 1369.01 -0.0709693 3.40826 0
M  V30 14569 H 1370.2 1.53463 2.57661 0
M  V30 14570 H 1367.75 0.831806 1.32328 0
M  V30 14571 H 1368.49 -0.985659 3.08958 0
M  V30 14572 H 1368.27 0.606023 3.87388 0
M  V30 14573 H 1369.76 -0.341298 4.16203 0
M  V30 14574 N 1370.2 -1.34667 0.818693 0
M  V30 14575 C 1371.15 -2.27031 0.210001 0
M  V30 14576 C 1372.13 -1.48338 -0.623258 0
M  V30 14577 O 1373.32 -1.70409 -0.478531 0
M  V30 14578 C 1370.45 -3.37457 -0.63069 0
M  V30 14579 C 1369.54 -4.23565 0.212964 0
M  V30 14580 N 1369.93 -4.89286 1.28191 0
M  V30 14581 C 1368.23 -4.46 -0.00340477 0
M  V30 14582 C 1368.93 -5.53216 1.79798 0
M  V30 14583 N 1367.91 -5.32302 1.10253 0
M  V30 14584 H 1371.71 -2.75345 1.02773 0
M  V30 14585 H 1369.22 -1.48336 0.661071 0
M  V30 14586 H 1371.22 -4.0259 -1.0829 0
M  V30 14587 H 1369.88 -2.90694 -1.44663 0
M  V30 14588 H 1370.89 -4.90417 1.66467 0
M  V30 14589 H 1367.57 -4.10005 -0.787516 0
M  V30 14590 H 1368.96 -6.15613 2.69203 0
M  V30 14591 N 1371.68 -0.573274 -1.46804 0
M  V30 14592 C 1372.64 0.155066 -2.28675 0
M  V30 14593 C 1373.64 0.827706 -1.37861 0
M  V30 14594 O 1374.83 0.681105 -1.60333 0
M  V30 14595 C 1371.96 1.22864 -3.1799 0
M  V30 14596 H 1373.15 -0.564305 -2.94543 0
M  V30 14597 H 1370.71 -0.330855 -1.52758 0
M  V30 14598 H 1371.44 1.97989 -2.56848 0
M  V30 14599 H 1371.23 0.750936 -3.84842 0
M  V30 14600 H 1372.72 1.73974 -3.79635 0
M  V30 14601 N 1373.15 1.5451 -0.310553 0
M  V30 14602 C 1374.38 2.05204 0.301013 0
M  V30 14603 C 1374.8 1.1859 1.46007 0
M  V30 14604 O 1374.16 0.192081 1.8028 0
M  V30 14605 C 1374.21 3.53221 0.725767 0
M  V30 14606 O 1373.31 3.69596 1.82955 0
M  V30 14607 H 1372.66 0.661566 0.0568026 0
M  V30 14608 H 1375.19 1.99473 -0.455178 0
M  V30 14609 H 1375.2 3.9525 1.01198 0
M  V30 14610 H 1373.87 4.15721 -0.122046 0
M  V30 14611 H 1372.45 3.39472 1.54315 0
M  V30 14612 N 1374.63 0.0384594 1.57553 0
M  V30 14613 C 1375.91 -0.677308 1.83499 0
M  V30 14614 C 1376.29 -1.89789 0.924294 0
M  V30 14615 O 1375.64 -2.28493 -0.0178185 0
M  V30 14616 C 1375.85 -1.04667 3.32935 0
M  V30 14617 C 1377.2 -1.43436 3.99639 0
M  V30 14618 O 1378.22 -1.13938 3.37486 0
M  V30 14619 O 1377.08 -1.98435 5.09201 0
M  V30 14620 H 1374.17 -0.333131 0.756936 0
M  V30 14621 H 1376.72 0.066854 1.69568 0
M  V30 14622 H 1375.49 -0.178349 3.90893 0
M  V30 14623 H 1375.11 -1.8487 3.52007 0
M  V30 14624 N 1376.11 -1.55841 -0.234795 0
M  V30 14625 C 1377.02 -1.94476 -1.31211 0
M  V30 14626 C 1378.04 -0.846782 -1.52005 0
M  V30 14627 O 1379.21 -1.14922 -1.65393 0
M  V30 14628 C 1376.28 -2.24213 -2.64442 0
M  V30 14629 C 1375.34 -3.47508 -2.52065 0
M  V30 14630 C 1374.57 -3.75817 -3.78942 0
M  V30 14631 O 1374.8 -3.06007 -4.81369 0
M  V30 14632 O 1373.73 -4.69328 -3.76848 0
M  V30 14633 H 1377.56 -2.8626 -1.01434 0
M  V30 14634 H 1375.14 -1.42879 -0.436563 0
M  V30 14635 H 1377.02 -2.44594 -3.4315 0
M  V30 14636 H 1375.7 -1.35605 -2.93927 0
M  V30 14637 H 1374.6 -3.32421 -1.71602 0
M  V30 14638 H 1375.94 -4.36457 -2.27523 0
M  V30 14639 N 1377.59 0.500963 -1.49426 0
M  V30 14640 C 1378.84 1.25171 -1.58162 0
M  V30 14641 C 1379.15 1.93678 -0.273556 0
M  V30 14642 O 1380.36 2.70442 -0.239462 0
M  V30 14643 C 1378.81 2.27276 -2.79059 0
M  V30 14644 C 1378.42 1.64708 -4.16624 0
M  V30 14645 C 1380.17 3.03178 -2.97125 0
M  V30 14646 C 1378.07 2.64923 -5.28743 0
M  V30 14647 H 1377 0.470867 -0.588897 0
M  V30 14648 H 1379.65 0.525569 -1.75812 0
M  V30 14649 H 1378.04 3.03052 -2.54903 0
M  V30 14650 H 1379.21 0.949231 -4.50917 0
M  V30 14651 H 1377.52 1.01195 -4.03916 0
M  V30 14652 H 1380.12 3.78122 -3.78058 0
M  V30 14653 H 1380.46 3.60793 -2.07687 0
M  V30 14654 H 1381 2.34517 -3.2132 0
M  V30 14655 H 1377.74 2.12089 -6.20241 0
M  V30 14656 H 1377.26 3.32948 -4.98904 0
M  V30 14657 H 1378.94 3.27349 -5.58079 0
M  V30 14658 N 1379.07 1.38501 0.752011 0
M  V30 14659 C 1380.3 1.37832 1.53902 0
M  V30 14660 C 1380.71 -0.0333526 1.89171 0
M  V30 14661 O 1380.05 -1.01076 1.53393 0
M  V30 14662 C 1380.11 2.17098 2.86546 0
M  V30 14663 C 1379.77 3.65895 2.73807 0
M  V30 14664 C 1380.77 4.59353 2.43497 0
M  V30 14665 C 1378.46 4.0927 2.9121 0
M  V30 14666 C 1380.45 5.94167 2.30746 0
M  V30 14667 C 1378.14 5.44165 2.78079 0
M  V30 14668 C 1379.14 6.36427 2.47891 0
M  V30 14669 O 1378.82 7.68839 2.34822 0
M  V30 14670 H 1378.56 0.473187 0.482773 0
M  V30 14671 H 1381.11 1.82715 0.938324 0
M  V30 14672 H 1379.34 1.66936 3.48811 0
M  V30 14673 H 1381.03 2.08817 3.48067 0
M  V30 14674 H 1381.79 4.27147 2.29718 0
M  V30 14675 H 1377.67 3.37803 3.13704 0
M  V30 14676 H 1381.22 6.66148 2.07105 0
M  V30 14677 H 1377.11 5.75967 2.91432 0
M  V30 14678 H 1377.88 7.79379 2.50022 0
M  V30 14679 N 1380.55 -0.980364 1.23396 0
M  V30 14680 C 1381.46 -2.10688 1.03188 0
M  V30 14681 C 1382.47 -1.73984 -0.0236159 0
M  V30 14682 O 1383.65 -2.00666 0.171841 0
M  V30 14683 C 1380.71 -3.4101 0.625563 0
M  V30 14684 C 1379.77 -3.91739 1.75611 0
M  V30 14685 C 1379.01 -5.15841 1.36908 0
M  V30 14686 O 1379.23 -5.69837 0.253329 0
M  V30 14687 O 1378.16 -5.60638 2.19018 0
M  V30 14688 H 1381.99 -2.30626 1.97599 0
M  V30 14689 H 1379.57 -1.09067 1.02102 0
M  V30 14690 H 1381.46 -4.19402 0.409909 0
M  V30 14691 H 1380.13 -3.22402 -0.28956 0
M  V30 14692 H 1379.04 -3.14464 2.0264 0
M  V30 14693 H 1380.37 -4.14801 2.64955 0
M  V30 14694 N 1382.02 -1.04567 -1.17913 0
M  V30 14695 C 1383.27 -0.747179 -1.8735 0
M  V30 14696 C 1383.59 0.728274 -1.81537 0
M  V30 14697 O 1384.79 1.14048 -2.46385 0
M  V30 14698 C 1383.25 -1.28629 -3.36129 0
M  V30 14699 C 1382.86 -2.79073 -3.5046 0
M  V30 14700 C 1384.6 -1.06455 -4.10935 0
M  V30 14701 C 1382.51 -3.26316 -4.93226 0
M  V30 14702 H 1381.44 -0.275807 -0.701745 0
M  V30 14703 H 1384.09 -1.26215 -1.33199 0
M  V30 14704 H 1382.47 -0.699151 -3.89779 0
M  V30 14705 H 1383.64 -3.43587 -3.07057 0
M  V30 14706 H 1381.96 -2.99716 -2.89066 0
M  V30 14707 H 1384.56 -1.3926 -5.16247 0
M  V30 14708 H 1384.9 -0.00201298 -4.163 0
M  V30 14709 H 1385.43 -1.61656 -3.63472 0
M  V30 14710 H 1382.17 -4.31972 -4.93032 0
M  V30 14711 H 1381.69 -2.6654 -5.37323 0
M  V30 14712 H 1383.37 -3.2063 -5.61966 0
M  V30 14713 N 1383.5 1.34231 -0.825823 0
M  V30 14714 C 1384.43 2.27366 -0.194964 0
M  V30 14715 C 1385.41 1.49029 0.650315 0
M  V30 14716 O 1386.6 1.7824 0.613424 0
M  V30 14717 C 1383.72 3.30796 0.727439 0
M  V30 14718 C 1382.77 4.26481 -0.0406869 0
M  V30 14719 S 1383.6 5.17151 -1.38981 0
M  V30 14720 C 1384.76 6.24115 -0.472354 0
M  V30 14721 H 1384.99 2.80524 -0.984559 0
M  V30 14722 H 1382.52 1.41323 -0.621875 0
M  V30 14723 H 1384.48 3.90875 1.25406 0
M  V30 14724 H 1383.14 2.76479 1.49058 0
M  V30 14725 H 1382.34 4.99651 0.660652 0
M  V30 14726 H 1381.94 3.7067 -0.497956 0
M  V30 14727 H 1384.23 6.76671 0.334956 0
M  V30 14728 H 1385.17 6.98303 -1.17383 0
M  V30 14729 H 1385.58 5.64469 -0.0594964 0
M  V30 14730 N 1384.98 0.581051 1.46498 0
M  V30 14731 C 1385.91 -0.19094 2.28403 0
M  V30 14732 C 1386.92 -0.857039 1.38415 0
M  V30 14733 O 1388.11 -0.726881 1.6303 0
M  V30 14734 C 1385.21 -1.28972 3.134 0
M  V30 14735 C 1384.39 -0.715867 4.31502 0
M  V30 14736 C 1383.45 -1.70215 4.97909 0
M  V30 14737 O 1382.47 -1.23885 5.55555 0
M  V30 14738 N 1383.67 -3.0362 4.94768 0
M  V30 14739 H 1386.44 0.511754 2.95298 0
M  V30 14740 H 1384 0.41871 1.56392 0
M  V30 14741 H 1385.99 -1.94877 3.5469 0
M  V30 14742 H 1384.56 -1.8953 2.4859 0
M  V30 14743 H 1383.78 0.120591 3.94016 0
M  V30 14744 H 1385.07 -0.312226 5.07841 0
M  V30 14745 H 1384.47 -3.43885 4.49177 0
M  V30 14746 H 1383.02 -3.65018 5.40005 0
M  V30 14747 N 1386.46 -1.54343 0.318742 0
M  V30 14748 C 1387.4 -2.24166 -0.549397 0
M  V30 14749 C 1388.37 -1.23068 -1.1155 0
M  V30 14750 O 1389.56 -1.51737 -1.15674 0
M  V30 14751 C 1386.7 -2.99938 -1.70678 0
M  V30 14752 C 1385.81 -4.15844 -1.17037 0
M  V30 14753 C 1384.95 -4.79158 -2.29305 0
M  V30 14754 C 1383.99 -5.87176 -1.72888 0
M  V30 14755 N 1383.12 -6.44372 -2.78799 0
M  V30 14756 H 1387.96 -2.97954 0.0526018 0
M  V30 14757 H 1385.5 -1.47052 0.0377307 0
M  V30 14758 H 1387.46 -3.42113 -2.38777 0
M  V30 14759 H 1386.09 -2.28494 -2.28014 0
M  V30 14760 H 1385.14 -3.78486 -0.381082 0
M  V30 14761 H 1386.45 -4.93612 -0.717507 0
M  V30 14762 H 1385.61 -5.24277 -3.05317 0
M  V30 14763 H 1384.35 -4.0076 -2.77926 0
M  V30 14764 H 1383.35 -5.41465 -0.953714 0
M  V30 14765 H 1384.58 -6.67469 -1.2515 0
M  V30 14766 H 1382.52 -5.6885 -3.2672 0
M  V30 14767 H 1382.44 -7.17539 -2.38062 0
M  V30 14768 H 1383.71 -6.94147 -3.54655 0
M  V30 14769 N 1387.94 -0.0468143 -1.5753 0
M  V30 14770 C 1389.18 0.631887 -1.94388 0
M  V30 14771 C 1389.54 1.68265 -0.924715 0
M  V30 14772 O 1390.74 2.41511 -1.18008 0
M  V30 14773 C 1389.01 1.21642 -3.36063 0
M  V30 14774 S 1390.57 1.91373 -3.94869 0
M  V30 14775 H 1387.39 0.207594 -0.680019 0
M  V30 14776 H 1389.99 -0.11471 -1.95163 0
M  V30 14777 H 1388.69 0.439479 -4.0804 0
M  V30 14778 H 1388.23 1.99993 -3.38772 0
M  V30 14779 H 1390.24 3.19392 -3.79741 0
M  V30 14780 N 1389.41 1.55964 0.226527 0
M  V30 14781 C 1390.66 1.79921 0.94869 0
M  V30 14782 C 1391.02 0.619018 1.8217 0
M  V30 14783 O 1390.31 -0.387105 1.87649 0
M  V30 14784 C 1390.5 3.07235 1.82597 0
M  V30 14785 C 1390.33 4.37524 1.03937 0
M  V30 14786 C 1389.1 4.99907 0.736294 0
M  V30 14787 C 1391.3 5.12686 0.407078 0
M  V30 14788 N 1389.28 6.13858 -0.0722247 0
M  V30 14789 C 1390.65 6.19433 -0.265063 0
M  V30 14790 C 1392.71 4.96873 0.319605 0
M  V30 14791 C 1391.41 7.12084 -1.0163 0
M  V30 14792 C 1393.44 5.8992 -0.418156 0
M  V30 14793 C 1392.8 6.96089 -1.07886 0
M  V30 14794 H 1388.9 0.710081 0.327581 0
M  V30 14795 H 1391.48 1.93453 0.219997 0
M  V30 14796 H 1389.65 2.94994 2.52652 0
M  V30 14797 H 1391.38 3.19403 2.48523 0
M  V30 14798 H 1388.14 4.61743 1.0531 0
M  V30 14799 H 1388.56 6.754 -0.465173 0
M  V30 14800 H 1393.21 4.1485 0.816071 0
M  V30 14801 H 1390.92 7.93593 -1.52431 0
M  V30 14802 H 1394.51 5.7976 -0.486776 0
M  V30 14803 H 1393.39 7.66847 -1.64061 0
M  V30 14804 N 1390.89 -0.493031 1.4969 0
M  V30 14805 C 1391.8 -1.61991 1.69694 0
M  V30 14806 C 1392.82 -1.64061 0.579641 0
M  V30 14807 O 1393.99 -1.82335 0.855323 0
M  V30 14808 C 1391.06 -2.98323 1.76648 0
M  V30 14809 C 1390.12 -3.06816 3.00271 0
M  V30 14810 C 1389.35 -4.36644 3.06883 0
M  V30 14811 O 1389.58 -5.25901 2.20872 0
M  V30 14812 O 1388.51 -4.50275 3.99419 0
M  V30 14813 H 1392.34 -1.48042 2.65174 0
M  V30 14814 H 1389.92 -0.670182 1.33525 0
M  V30 14815 H 1391.8 -3.79335 1.83529 0
M  V30 14816 H 1390.48 -3.12517 0.843482 0
M  V30 14817 H 1389.39 -2.24962 2.98903 0
M  V30 14818 H 1390.72 -2.97551 3.92077 0
M  V30 14819 N 1392.37 -1.38898 -0.744656 0
M  V30 14820 C 1393.28 -1.39098 -1.88915 0
M  V30 14821 C 1394.3 -0.286956 -1.71617 0
M  V30 14822 O 1395.47 -0.526852 -1.94387 0
M  V30 14823 C 1392.54 -1.22352 -3.24393 0
M  V30 14824 C 1391.6 -2.4264 -3.54153 0
M  V30 14825 C 1390.83 -2.26683 -4.83167 0
M  V30 14826 O 1391.05 -1.26523 -5.56191 0
M  V30 14827 O 1389.99 -3.15464 -5.12607 0
M  V30 14828 H 1393.81 -2.35551 -1.91701 0
M  V30 14829 H 1391.4 -1.19911 -0.891158 0
M  V30 14830 H 1393.28 -1.15109 -4.05374 0
M  V30 14831 H 1391.96 -0.289886 -3.22399 0
M  V30 14832 H 1390.86 -2.55459 -2.73298 0
M  V30 14833 H 1392.2 -3.34664 -3.60917 0
M  V30 14834 N 1393.85 0.973806 -1.23914 0
M  V30 14835 C 1394.8 2.06734 -1.02614 0
M  V30 14836 C 1395.77 1.65997 0.0585705 0
M  V30 14837 O 1396.95 1.90564 -0.0948467 0
M  V30 14838 C 1394.09 3.39292 -0.630493 0
M  V30 14839 C 1393.2 3.9326 -1.78803 0
M  V30 14840 C 1392.34 5.14059 -1.33854 0
M  V30 14841 C 1391.38 5.60209 -2.46642 0
M  V30 14842 N 1390.51 6.72232 -2.02603 0
M  V30 14843 H 1395.35 2.24287 -1.96212 0
M  V30 14844 H 1392.89 1.09935 -0.977376 0
M  V30 14845 H 1394.85 4.15446 -0.382163 0
M  V30 14846 H 1393.48 3.21682 0.268483 0
M  V30 14847 H 1392.53 3.13801 -2.15019 0
M  V30 14848 H 1393.84 4.23475 -2.63573 0
M  V30 14849 H 1393 5.97567 -1.04873 0
M  V30 14850 H 1391.74 4.85513 -0.46131 0
M  V30 14851 H 1390.74 4.75278 -2.7639 0
M  V30 14852 H 1391.97 5.90771 -3.34912 0
M  V30 14853 H 1389.91 6.45433 -1.17269 0
M  V30 14854 H 1389.83 7.01865 -2.80929 0
M  V30 14855 H 1391.1 7.59198 -1.76745 0
M  V30 14856 N 1395.33 1.05191 1.17357 0
M  V30 14857 C 1396.57 0.761984 1.87617 0
M  V30 14858 C 1396.9 -0.710976 1.8104 0
M  V30 14859 O 1396.16 -1.53566 1.21309 0
M  V30 14860 C 1396.46 1.18779 3.37085 0
M  V30 14861 C 1396.12 2.66296 3.63864 0
M  V30 14862 C 1394.78 3.06594 3.70882 0
M  V30 14863 C 1397.14 3.61622 3.75339 0
M  V30 14864 C 1394.46 4.41081 3.86865 0
M  V30 14865 C 1396.82 4.95842 3.9284 0
M  V30 14866 C 1395.48 5.35793 3.98097 0
M  V30 14867 H 1394.75 0.27883 0.686538 0
M  V30 14868 H 1397.4 1.31899 1.38834 0
M  V30 14869 H 1395.7 0.549782 3.87923 0
M  V30 14870 H 1397.4 0.940667 3.89811 0
M  V30 14871 H 1393.99 2.34089 3.59027 0
M  V30 14872 H 1398.17 3.31628 3.69238 0
M  V30 14873 H 1393.43 4.71536 3.89183 0
M  V30 14874 H 1397.6 5.696 4.00661 0
M  V30 14875 H 1395.23 6.40009 4.10234 0
M  V30 14876 N 1396.8 -1.33791 0.83293 0
M  V30 14877 C 1397.71 -2.33108 0.264169 0
M  V30 14878 C 1398.73 -1.6308 -0.606694 0
M  V30 14879 O 1399.91 -1.94777 -0.512225 0
M  V30 14880 C 1396.97 -3.42208 -0.556315 0
M  V30 14881 C 1396.03 -4.27966 0.338123 0
M  V30 14882 C 1395.27 -5.31856 -0.443297 0
M  V30 14883 O 1395.49 -5.45234 -1.6756 0
M  V30 14884 O 1394.42 -6.01632 0.179599 0
M  V30 14885 H 1398.25 -2.83602 1.08645 0
M  V30 14886 H 1395.83 -1.37027 0.595307 0
M  V30 14887 H 1397.72 -4.088 -1.02277 0
M  V30 14888 H 1396.39 -2.9394 -1.35575 0
M  V30 14889 H 1395.3 -3.64262 0.852293 0
M  V30 14890 H 1396.63 -4.79701 1.10217 0
M  V30 14891 N 1398.28 -0.588812 -1.46187 0
M  V30 14892 C 1399.53 -0.0744093 -2.01563 0
M  V30 14893 C 1399.84 1.29578 -1.46523 0
M  V30 14894 O 1401.05 1.90186 -1.93756 0
M  V30 14895 C 1399.51 -0.082408 -3.59806 0
M  V30 14896 C 1399.11 -1.45129 -4.23842 0
M  V30 14897 C 1400.86 0.377732 -4.22816 0
M  V30 14898 C 1398.77 -1.41668 -5.74181 0
M  V30 14899 H 1397.7 -0.0240481 -0.753616 0
M  V30 14900 H 1400.35 -0.741364 -1.67857 0
M  V30 14901 H 1398.73 0.650832 -3.90615 0
M  V30 14902 H 1399.9 -2.20474 -4.04633 0
M  V30 14903 H 1398.22 -1.85196 -3.7295 0
M  V30 14904 H 1400.81 0.42251 -5.33028 0
M  V30 14905 H 1401.16 1.39655 -3.92176 0
M  V30 14906 H 1401.69 -0.301638 -3.96655 0
M  V30 14907 H 1398.43 -2.4125 -6.09491 0
M  V30 14908 H 1397.95 -0.705524 -5.95636 0
M  V30 14909 H 1399.63 -1.13221 -6.37016 0
M  V30 14910 N 1399.76 1.54172 -0.326923 0
M  V30 14911 C 1401.18 1.59579 0.0256055 0
M  V30 14912 C 1401.38 1.34337 1.50186 0
M  V30 14913 O 1400.43 1.12945 2.25831 0
M  V30 14914 C 1401.75 2.98086 -0.395641 0
M  V30 14915 C 1403.29 3.11075 -0.346579 0
M  V30 14916 C 1403.77 4.51932 -0.743039 0
M  V30 14917 N 1405.26 4.57932 -0.696575 0
M  V30 14918 C 1405.99 5.65041 -0.975493 0
M  V30 14919 N 1405.49 6.80075 -1.32172 0
M  V30 14920 N 1407.28 5.54835 -0.900831 0
M  V30 14921 H 1399.43 1.68836 -1.28872 0
M  V30 14922 H 1401.7 0.789858 -0.52424 0
M  V30 14923 H 1401.4 3.21568 -1.42431 0
M  V30 14924 H 1401.28 3.76451 0.237645 0
M  V30 14925 H 1403.66 2.87326 0.672889 0
M  V30 14926 H 1403.75 2.34807 -1.01484 0
M  V30 14927 H 1403.39 4.76415 -1.76044 0
M  V30 14928 H 1403.32 5.26574 -0.0524263 0
M  V30 14929 H 1405.81 3.75318 -0.440969 0
M  V30 14930 H 1406.12 7.57708 -1.51983 0
M  V30 14931 H 1404.47 6.81563 -1.36001 0
M  V30 14932 H 1407.66 4.63844 -0.629812 0
M  V30 14933 H 1407.83 6.3822 -1.12156 0
M  V30 14934 N 1401.24 0.0551678 1.57503 0
M  V30 14935 C 1402.65 -0.479948 1.80426 0
M  V30 14936 C 1403 -1.70673 0.967733 0
M  V30 14937 O 1402.13 -2.15604 0.185462 0
M  V30 14938 C 1402.72 -0.877496 3.27239 0
M  V30 14939 C 1401.28 -1.35757 3.51066 0
M  V30 14940 C 1400.43 -0.334681 2.75273 0
M  V30 14941 H 1403.38 0.281016 1.56192 0
M  V30 14942 H 1403.4 -1.74013 3.38378 0
M  V30 14943 H 1402.91 0.015571 3.88097 0
M  V30 14944 H 1401.01 -2.26969 2.95492 0
M  V30 14945 H 1401.12 -1.34697 4.59776 0
M  V30 14946 H 1399.49 -0.808421 2.4153 0
M  V30 14947 H 1400.27 0.550369 3.3886 0
M  V30 14948 N 1402.72 -1.56081 -0.218252 0
M  V30 14949 C 1404.13 -1.69397 -0.784964 0
M  V30 14950 C 1404.48 -0.65775 -1.84846 0
M  V30 14951 O 1403.6 0.190478 -2.1556 0
M  V30 14952 C 1404.2 -3.07114 -1.4306 0
M  V30 14953 C 1402.76 -3.22273 -1.94466 0
M  V30 14954 C 1401.9 -2.65327 -0.80604 0
M  V30 14955 H 1404.86 -1.58699 0.0064566 0
M  V30 14956 H 1404.88 -3.03156 -2.2995 0
M  V30 14957 H 1404.39 -3.8251 -0.656335 0
M  V30 14958 H 1402.49 -2.51752 -2.74684 0
M  V30 14959 H 1402.6 -4.29526 -2.12237 0
M  V30 14960 H 1400.97 -2.23894 -1.21423 0
M  V30 14961 H 1401.75 -3.43271 -0.0443928 0
M  V30 14962 N 1404.2 0.485086 -1.49949 0
M  V30 14963 C 1405.44 1.23816 -1.60237 0
M  V30 14964 C 1405.77 1.9223 -0.296274 0
M  V30 14965 O 1405.03 1.82095 0.716939 0
M  V30 14966 C 1405.32 2.31573 -2.72229 0
M  V30 14967 C 1404.99 1.80508 -4.13192 0
M  V30 14968 C 1403.65 1.66301 -4.5155 0
M  V30 14969 C 1406 1.42471 -5.0135 0
M  V30 14970 C 1403.33 1.1246 -5.75821 0
M  V30 14971 C 1405.68 0.900757 -6.26154 0
M  V30 14972 C 1404.35 0.74521 -6.63327 0
M  V30 14973 H 1403.62 0.453075 -0.586348 0
M  V30 14974 H 1406.27 0.536349 -1.83836 0
M  V30 14975 H 1404.57 3.07606 -2.42663 0
M  V30 14976 H 1406.27 2.89574 -2.77395 0
M  V30 14977 H 1402.86 1.92529 -3.82924 0
M  V30 14978 H 1407.04 1.52287 -4.72358 0
M  V30 14979 H 1402.3 0.991422 -6.03308 0
M  V30 14980 H 1406.47 0.5973 -6.93834 0
M  V30 14981 H 1404.1 0.325838 -7.59501 0
M  V30 14982 N 1405.67 1.39291 0.737279 0
M  V30 14983 C 1406.9 1.39844 1.53162 0
M  V30 14984 C 1407.32 -0.00568546 1.88099 0
M  V30 14985 O 1406.68 -0.992085 1.51748 0
M  V30 14986 C 1406.73 2.27577 2.79716 0
M  V30 14987 O 1405.83 1.70408 3.75546 0
M  V30 14988 H 1405.17 0.476314 0.462624 0
M  V30 14989 H 1407.7 1.83258 0.909819 0
M  V30 14990 H 1407.71 2.42009 3.28475 0
M  V30 14991 H 1406.39 3.29621 2.53619 0
M  V30 14992 H 1404.97 1.65206 3.34307 0
M  V30 14993 N 1407.15 -0.967221 1.24429 0
M  V30 14994 C 1408.08 -2.06479 0.994946 0
M  V30 14995 C 1409.1 -1.62761 -0.0357582 0
M  V30 14996 O 1410.29 -1.77361 0.201336 0
M  V30 14997 C 1407.39 -3.35487 0.479736 0
M  V30 14998 C 1406.56 -4.0811 1.57368 0
M  V30 14999 C 1405.62 -5.15392 1.06104 0
M  V30 15000 O 1404.64 -5.41539 1.75283 0
M  V30 15001 N 1405.85 -5.80406 -0.104288 0
M  V30 15002 H 1408.61 -2.28443 1.93995 0
M  V30 15003 H 1406.17 -1.13488 1.15465 0
M  V30 15004 H 1408.16 -4.04517 0.121528 0
M  V30 15005 H 1406.73 -3.1039 -0.371012 0
M  V30 15006 H 1405.95 -3.33351 2.10406 0
M  V30 15007 H 1407.24 -4.53391 2.30897 0
M  V30 15008 H 1406.64 -5.61566 -0.682638 0
M  V30 15009 H 1405.2 -6.50549 -0.403638 0
M  V30 15010 N 1408.63 -1.05812 -1.16797 0
M  V30 15011 C 1409.56 -0.685778 -2.23202 0
M  V30 15012 C 1410.54 0.319428 -1.67074 0
M  V30 15013 O 1411.73 0.195635 -1.93212 0
M  V30 15014 C 1408.86 -0.0662958 -3.47237 0
M  V30 15015 C 1407.81 -0.996943 -4.16227 0
M  V30 15016 C 1407.14 -0.241015 -5.34157 0
M  V30 15017 C 1408.44 -2.32384 -4.67755 0
M  V30 15018 H 1410.13 -1.57535 -2.54604 0
M  V30 15019 H 1407.68 -0.758909 -1.22379 0
M  V30 15020 H 1409.63 0.206024 -4.20896 0
M  V30 15021 H 1408.35 0.858263 -3.15121 0
M  V30 15022 H 1407.01 -1.25393 -3.44488 0
M  V30 15023 H 1406.66 0.686508 -4.98293 0
M  V30 15024 H 1406.36 -0.861188 -5.81255 0
M  V30 15025 H 1407.88 0.0238739 -6.10595 0
M  V30 15026 H 1409.3 -2.11099 -5.3302 0
M  V30 15027 H 1407.69 -2.89855 -5.25456 0
M  V30 15028 H 1408.76 -2.958 -3.84227 0
M  V30 15029 N 1410.11 1.33347 -0.840014 0
M  V30 15030 C 1411.35 1.98037 -0.43692 0
M  V30 15031 C 1411.69 1.66382 1.00154 0
M  V30 15032 O 1410.96 0.944311 1.70038 0
M  V30 15033 C 1411.24 3.54012 -0.65937 0
M  V30 15034 C 1411.1 3.9535 -2.14518 0
M  V30 15035 C 1412.42 4.39972 -0.106258 0
M  V30 15036 H 1409.54 0.719373 -0.160221 0
M  V30 15037 H 1412.18 1.57969 -1.05574 0
M  V30 15038 H 1410.33 3.88274 -0.132633 0
M  V30 15039 H 1412 3.7134 -2.73687 0
M  V30 15040 H 1410.24 3.4504 -2.62926 0
M  V30 15041 H 1410.91 5.03992 -2.25158 0
M  V30 15042 H 1413.39 4.12362 -0.556511 0
M  V30 15043 H 1412.27 5.48125 -0.291583 0
M  V30 15044 H 1412.53 4.30872 0.990032 0
M  V30 15045 N 1411.59 0.596556 1.45873 0
M  V30 15046 C 1412.52 -0.116229 2.33211 0
M  V30 15047 C 1413.5 -0.869868 1.46176 0
M  V30 15048 O 1414.68 -0.842599 1.74968 0
M  V30 15049 C 1411.81 -1.12145 3.28696 0
M  V30 15050 C 1410.77 -0.481749 4.2528 0
M  V30 15051 C 1410.09 -1.59443 5.10374 0
M  V30 15052 C 1411.39 0.589996 5.18957 0
M  V30 15053 H 1413.09 0.613005 2.93057 0
M  V30 15054 H 1410.63 0.296242 1.4092 0
M  V30 15055 H 1412.58 -1.62857 3.88659 0
M  V30 15056 H 1411.31 -1.88114 2.66985 0
M  V30 15057 H 1409.97 0.0044092 3.666 0
M  V30 15058 H 1409.62 -2.34413 4.45039 0
M  V30 15059 H 1409.32 -1.17197 5.75794 0
M  V30 15060 H 1410.84 -2.10404 5.73204 0
M  V30 15061 H 1412.25 0.167395 5.73056 0
M  V30 15062 H 1410.65 0.933565 5.92794 0
M  V30 15063 H 1411.72 1.47093 4.62052 0
M  V30 15064 N 1413.06 -1.53996 0.335095 0
M  V30 15065 C 1413.99 -2.2768 -0.518087 0
M  V30 15066 C 1414.97 -1.28915 -1.10972 0
M  V30 15067 O 1416.16 -1.57745 -1.1327 0
M  V30 15068 C 1413.29 -3.04327 -1.67339 0
M  V30 15069 C 1412.24 -4.10525 -1.2105 0
M  V30 15070 C 1411.57 -4.75078 -2.45366 0
M  V30 15071 C 1412.87 -5.21337 -0.317055 0
M  V30 15072 H 1414.56 -2.99244 0.0965669 0
M  V30 15073 H 1412.11 -1.4392 0.0478842 0
M  V30 15074 H 1414.06 -3.54608 -2.27664 0
M  V30 15075 H 1412.79 -2.30399 -2.31481 0
M  V30 15076 H 1411.45 -3.61144 -0.630124 0
M  V30 15077 H 1411.09 -3.97754 -3.07897 0
M  V30 15078 H 1410.79 -5.46822 -2.1508 0
M  V30 15079 H 1412.32 -5.2814 -3.06432 0
M  V30 15080 H 1413.73 -5.67305 -0.826905 0
M  V30 15081 H 1412.13 -6.00006 -0.106458 0
M  V30 15082 H 1413.2 -4.80536 0.649068 0
M  V30 15083 N 1414.54 -0.0635198 -1.57472 0
M  V30 15084 C 1415.47 0.90431 -2.15278 0
M  V30 15085 C 1416.45 1.31609 -1.07764 0
M  V30 15086 O 1417.64 1.38861 -1.35762 0
M  V30 15087 C 1414.77 2.17483 -2.70774 0
M  V30 15088 C 1413.72 1.90272 -3.8338 0
M  V30 15089 C 1413.05 3.23885 -4.25444 0
M  V30 15090 C 1414.35 1.21454 -5.07983 0
M  V30 15091 H 1416.04 0.422786 -2.964 0
M  V30 15092 H 1413.59 0.201918 -1.42577 0
M  V30 15093 H 1415.54 2.856 -3.09856 0
M  V30 15094 H 1414.26 2.67863 -1.86861 0
M  V30 15095 H 1412.92 1.24564 -3.44789 0
M  V30 15096 H 1412.57 3.72089 -3.38465 0
M  V30 15097 H 1412.27 3.06472 -5.01347 0
M  V30 15098 H 1413.8 3.93212 -4.67137 0
M  V30 15099 H 1415.21 1.79625 -5.44433 0
M  V30 15100 H 1413.61 1.14327 -5.89109 0
M  V30 15101 H 1414.68 0.19238 -4.84518 0
M  V30 15102 N 1416.02 1.56195 0.209972 0
M  V30 15103 C 1416.93 1.96539 1.28101 0
M  V30 15104 C 1417.95 0.870858 1.50639 0
M  V30 15105 O 1419.12 1.17539 1.63544 0
M  V30 15106 C 1416.19 2.28392 2.60841 0
M  V30 15107 C 1415.25 3.51474 2.46505 0
M  V30 15108 C 1414.48 3.81798 3.72915 0
M  V30 15109 O 1414.7 3.13627 4.76439 0
M  V30 15110 O 1413.64 4.75264 3.69334 0
M  V30 15111 H 1417.46 2.87838 0.968671 0
M  V30 15112 H 1415.05 1.43556 0.413777 0
M  V30 15113 H 1416.93 2.50022 3.39215 0
M  V30 15114 H 1415.61 1.40264 2.91732 0
M  V30 15115 H 1414.51 3.35109 1.66292 0
M  V30 15116 H 1415.85 4.40021 2.2055 0
M  V30 15117 N 1417.5 -0.477127 1.50204 0
M  V30 15118 C 1418.91 -0.81037 1.37496 0
M  V30 15119 C 1419.11 -1.96937 0.426399 0
M  V30 15120 O 1418.17 -2.52148 -0.133197 0
M  V30 15121 C 1419.48 -1.12811 2.78737 0
M  V30 15122 C 1421.03 -1.23492 2.87608 0
M  V30 15123 C 1421.51 -1.58583 4.29669 0
M  V30 15124 N 1423 -1.65586 4.32591 0
M  V30 15125 C 1423.73 -1.94231 5.39502 0
M  V30 15126 N 1423.23 -2.20936 6.56627 0
M  V30 15127 N 1425.02 -1.95682 5.26939 0
M  V30 15128 H 1417.17 0.286771 2.10455 0
M  V30 15129 H 1419.43 0.0657649 0.945716 0
M  V30 15130 H 1419.14 -0.349616 3.49958 0
M  V30 15131 H 1419.01 -2.0658 3.15602 0
M  V30 15132 H 1421.4 -2.0041 2.1661 0
M  V30 15133 H 1421.48 -0.277182 2.54294 0
M  V30 15134 H 1421.13 -0.822071 5.01203 0
M  V30 15135 H 1421.06 -2.55497 4.60466 0
M  V30 15136 H 1423.55 -1.47012 3.48132 0
M  V30 15137 H 1423.86 -2.42049 7.33916 0
M  V30 15138 H 1422.21 -2.18341 6.59812 0
M  V30 15139 H 1425.4 -1.74311 4.34434 0
M  V30 15140 H 1425.57 -2.1767 6.10347 0
M  V30 15141 N 1418.98 -1.3968 -0.729882 0
M  V30 15142 C 1419.91 -1.41549 -1.85704 0
M  V30 15143 C 1420.89 -0.278186 -1.6781 0
M  V30 15144 O 1422.07 -0.484749 -1.88053 0
M  V30 15145 C 1419.2 -1.26327 -3.2351 0
M  V30 15146 C 1418.16 -2.37511 -3.56051 0
M  V30 15147 C 1417.48 -2.07375 -4.92849 0
M  V30 15148 C 1418.78 -3.79833 -3.58502 0
M  V30 15149 H 1420.48 -2.35877 -1.84398 0
M  V30 15150 H 1418.02 -1.13536 -0.885747 0
M  V30 15151 H 1419.98 -1.26254 -4.02042 0
M  V30 15152 H 1418.7 -0.284697 -3.25357 0
M  V30 15153 H 1417.36 -2.36809 -2.79852 0
M  V30 15154 H 1417.01 -1.07943 -4.91281 0
M  V30 15155 H 1416.71 -2.81855 -5.15588 0
M  V30 15156 H 1418.23 -2.08961 -5.73731 0
M  V30 15157 H 1419.64 -3.82436 -4.27101 0
M  V30 15158 H 1418.04 -4.53715 -3.92763 0
M  V30 15159 H 1419.11 -4.10443 -2.58195 0
M  V30 15160 N 1420.45 0.960609 -1.2494 0
M  V30 15161 C 1421.38 2.074 -1.07274 0
M  V30 15162 C 1422.37 1.70092 0.0164365 0
M  V30 15163 O 1423.55 1.93604 -0.151975 0
M  V30 15164 C 1420.68 3.40491 -0.684317 0
M  V30 15165 C 1419.63 3.91784 -1.72306 0
M  V30 15166 C 1418.96 5.21301 -1.18949 0
M  V30 15167 C 1420.26 4.18829 -3.12056 0
M  V30 15168 H 1421.95 2.22438 -2.00404 0
M  V30 15169 H 1419.5 1.06888 -0.964937 0
M  V30 15170 H 1421.45 4.17826 -0.547686 0
M  V30 15171 H 1420.18 3.25374 0.282687 0
M  V30 15172 H 1418.84 3.16613 -1.84802 0
M  V30 15173 H 1418.48 5.02549 -0.212892 0
M  V30 15174 H 1418.18 5.56588 -1.8837 0
M  V30 15175 H 1419.71 6.01238 -1.06513 0
M  V30 15176 H 1421.12 4.86844 -3.02748 0
M  V30 15177 H 1419.52 4.6536 -3.78894 0
M  V30 15178 H 1420.59 3.25333 -3.59564 0
M  V30 15179 N 1421.93 1.0643 1.16234 0
M  V30 15180 C 1423.18 0.780296 1.86429 0
M  V30 15181 C 1423.5 -0.695335 1.82181 0
M  V30 15182 O 1422.77 -1.50312 1.2563 0
M  V30 15183 H 1421.35 0.285654 0.690225 0
M  V30 15184 H 1424.01 1.34609 1.40949 0
M  V30 15185 H 1423.11 1.10644 2.91829 0
M  V30 15186 N 1423.41 -1.329 0.847073 0
M  V30 15187 C 1424.32 -2.32815 0.288878 0
M  V30 15188 C 1425.34 -1.63715 -0.589363 0
M  V30 15189 O 1426.51 -1.9531 -0.491537 0
M  V30 15190 C 1423.58 -3.42778 -0.519988 0
M  V30 15191 C 1422.64 -4.27584 0.383496 0
M  V30 15192 C 1421.87 -5.32296 -0.386862 0
M  V30 15193 O 1422.09 -5.4698 -1.61768 0
M  V30 15194 O 1421.03 -6.01408 0.2434 0
M  V30 15195 H 1424.85 -2.82434 1.11647 0
M  V30 15196 H 1422.44 -1.36388 0.609807 0
M  V30 15197 H 1424.32 -4.09862 -0.979357 0
M  V30 15198 H 1423 -2.95362 -1.3245 0
M  V30 15199 H 1421.9 -3.63338 0.890879 0
M  V30 15200 H 1423.24 -4.78505 1.15299 0
M  V30 15201 N 1424.89 -0.604284 -1.45555 0
M  V30 15202 C 1426.14 -0.0979922 -2.01862 0
M  V30 15203 C 1426.46 1.27476 -1.47563 0
M  V30 15204 O 1425.73 1.84137 -0.668612 0
M  V30 15205 H 1424.31 -0.033235 -0.74626 0
M  V30 15206 H 1426.97 -0.784936 -1.78395 0
M  V30 15207 H 1426.07 -0.0452716 -3.12067 0
M  V30 15208 N 1426.37 1.53816 -0.343257 0
M  V30 15209 C 1427.6 2.05028 0.254375 0
M  V30 15210 C 1428 1.21793 1.44786 0
M  V30 15211 O 1427.35 0.246075 1.82044 0
M  V30 15212 C 1427.41 3.5194 0.733364 0
M  V30 15213 C 1427.07 4.5573 -0.340434 0
M  V30 15214 C 1428.07 5.06261 -1.18304 0
M  V30 15215 C 1425.76 4.99862 -0.494277 0
M  V30 15216 C 1427.75 5.99504 -2.16503 0
M  V30 15217 C 1425.44 5.92916 -1.47967 0
M  V30 15218 C 1426.43 6.42625 -2.3135 0
M  V30 15219 O 1426.12 7.33848 -3.28211 0
M  V30 15220 H 1425.85 0.673922 0.0529695 0
M  V30 15221 H 1428.41 1.99387 -0.493352 0
M  V30 15222 H 1426.64 3.55044 1.53233 0
M  V30 15223 H 1428.33 3.86124 1.25151 0
M  V30 15224 H 1429.09 4.7293 -1.07527 0
M  V30 15225 H 1424.97 4.60772 0.144904 0
M  V30 15226 H 1428.52 6.38227 -2.81624 0
M  V30 15227 H 1424.41 6.25662 -1.588 0
M  V30 15228 H 1425.18 7.51781 -3.23679 0
M  V30 15229 N 1427.84 0.0718701 1.57436 0
M  V30 15230 C 1428.79 -0.895335 2.12726 0
M  V30 15231 C 1429.76 -1.29528 1.03979 0
M  V30 15232 O 1430.95 -1.38113 1.31642 0
M  V30 15233 C 1428.09 -2.15755 2.6934 0
M  V30 15234 C 1427.2 -1.81023 3.92243 0
M  V30 15235 C 1426.33 -3.01856 4.371 0
M  V30 15236 C 1425.37 -2.63141 5.52651 0
M  V30 15237 N 1424.51 -3.76734 5.92466 0
M  V30 15238 H 1429.35 -0.416964 2.95068 0
M  V30 15239 H 1426.89 -0.194165 1.45813 0
M  V30 15240 H 1428.85 -2.89642 3.00272 0
M  V30 15241 H 1427.48 -2.61132 1.89762 0
M  V30 15242 H 1426.53 -0.971983 3.67773 0
M  V30 15243 H 1427.84 -1.4854 4.76169 0
M  V30 15244 H 1426.99 -3.84022 4.69694 0
M  V30 15245 H 1425.73 -3.37533 3.52027 0
M  V30 15246 H 1424.74 -1.79397 5.19708 0
M  V30 15247 H 1425.96 -2.28635 6.39455 0
M  V30 15248 H 1423.91 -4.12173 5.10343 0
M  V30 15249 H 1423.83 -3.48019 6.71132 0
M  V30 15250 H 1425.09 -4.59479 6.29682 0
M  V30 15251 N 1429.32 -1.56304 -0.201686 0
M  V30 15252 C 1430.27 -1.94021 -1.24999 0
M  V30 15253 C 1431.24 -0.799926 -1.45569 0
M  V30 15254 O 1432.42 -1.05752 -1.58811 0
M  V30 15255 C 1429.56 -2.27935 -2.59113 0
M  V30 15256 C 1428.68 -3.54995 -2.46176 0
M  V30 15257 C 1427.81 -3.78262 -3.72949 0
M  V30 15258 C 1426.85 -4.9877 -3.54817 0
M  V30 15259 N 1425.99 -5.18325 -4.73586 0
M  V30 15260 H 1430.83 -2.834 -0.92134 0
M  V30 15261 H 1428.37 -1.40252 -0.44359 0
M  V30 15262 H 1430.32 -2.45613 -3.37239 0
M  V30 15263 H 1428.95 -1.41705 -2.90034 0
M  V30 15264 H 1428.01 -3.45401 -1.59381 0
M  V30 15265 H 1429.32 -4.43277 -2.28708 0
M  V30 15266 H 1428.47 -3.96144 -4.59516 0
M  V30 15267 H 1427.21 -2.88299 -3.93364 0
M  V30 15268 H 1426.22 -4.80818 -2.66635 0
M  V30 15269 H 1427.44 -5.90237 -3.35854 0
M  V30 15270 H 1425.39 -4.31308 -4.94277 0
M  V30 15271 H 1425.3 -6.00774 -4.58919 0
M  V30 15272 H 1426.57 -5.40659 -5.61523 0
M  V30 15273 N 1430.8 0.469154 -1.50455 0
M  V30 15274 C 1431.75 1.56691 -1.6946 0
M  V30 15275 C 1432.72 1.57217 -0.535921 0
M  V30 15276 O 1433.9 1.74717 -0.766715 0
M  V30 15277 C 1431.04 2.94651 -1.79651 0
M  V30 15278 C 1430.16 3.03899 -3.07033 0
M  V30 15279 C 1429.29 4.32786 -3.08009 0
M  V30 15280 C 1428.33 4.35784 -4.29836 0
M  V30 15281 N 1427.47 5.56145 -4.28541 0
M  V30 15282 H 1432.31 1.39791 -2.63178 0
M  V30 15283 H 1429.84 0.679628 -1.30459 0
M  V30 15284 H 1431.8 3.74658 -1.83541 0
M  V30 15285 H 1430.43 3.10182 -0.893713 0
M  V30 15286 H 1429.48 2.16754 -3.12605 0
M  V30 15287 H 1430.8 3.01974 -3.97005 0
M  V30 15288 H 1429.95 5.21141 -3.10639 0
M  V30 15289 H 1428.69 4.37323 -2.1587 0
M  V30 15290 H 1427.69 3.45825 -4.27417 0
M  V30 15291 H 1428.92 4.32937 -5.23204 0
M  V30 15292 H 1426.86 5.61464 -3.39256 0
M  V30 15293 H 1426.78 5.55969 -5.12284 0
M  V30 15294 H 1428.05 6.4662 -4.35319 0
M  V30 15295 N 1432.28 1.40065 0.722464 0
M  V30 15296 C 1433.51 1.41066 1.50944 0
M  V30 15297 C 1433.92 0.00678083 1.89199 0
M  V30 15298 O 1433.26 -0.977992 1.55502 0
M  V30 15299 C 1433.32 2.23127 2.81877 0
M  V30 15300 C 1432.99 3.7162 2.65984 0
M  V30 15301 C 1433.98 4.64415 2.33698 0
M  V30 15302 C 1431.67 4.15355 2.82463 0
M  V30 15303 C 1433.66 5.98928 2.18091 0
M  V30 15304 C 1431.35 5.49941 2.66474 0
M  V30 15305 C 1432.35 6.41542 2.34335 0
M  V30 15306 O 1432.03 7.73647 2.18461 0
M  V30 15307 H 1431.77 0.483321 0.472628 0
M  V30 15308 H 1434.32 1.84664 0.899356 0
M  V30 15309 H 1432.55 1.74298 3.45192 0
M  V30 15310 H 1434.24 2.16153 3.43559 0
M  V30 15311 H 1435.01 4.31924 2.20606 0
M  V30 15312 H 1430.88 3.44381 3.06468 0
M  V30 15313 H 1434.43 6.70391 1.92928 0
M  V30 15314 H 1430.33 5.82019 2.79149 0
M  V30 15315 H 1431.09 7.84507 2.33434 0
M  V30 15316 N 1433.76 -0.95397 1.25448 0
M  V30 15317 C 1434.69 -2.05412 1.01679 0
M  V30 15318 C 1435.7 -1.62789 -0.0184932 0
M  V30 15319 O 1436.89 -1.77137 0.220136 0
M  V30 15320 C 1433.99 -3.3496 0.515292 0
M  V30 15321 C 1433.16 -4.06418 1.61688 0
M  V30 15322 C 1432.22 -5.14237 1.11564 0
M  V30 15323 O 1431.25 -5.39649 1.81017 0
M  V30 15324 N 1432.45 -5.80484 -0.0427228 0
M  V30 15325 H 1435.22 -2.26372 1.96407 0
M  V30 15326 H 1432.78 -1.12257 1.16662 0
M  V30 15327 H 1434.77 -4.04366 0.164426 0
M  V30 15328 H 1433.34 -3.10767 -0.33807 0
M  V30 15329 H 1432.56 -3.31101 2.1393 0
M  V30 15330 H 1433.85 -4.50917 2.35693 0
M  V30 15331 H 1433.25 -5.62259 -0.623038 0
M  V30 15332 H 1431.8 -6.50941 -0.334615 0
M  V30 15333 N 1435.24 -1.07045 -1.15668 0
M  V30 15334 C 1436.17 -0.645945 -2.1991 0
M  V30 15335 C 1437.18 0.29995 -1.60013 0
M  V30 15336 O 1438.37 0.0897537 -1.78274 0
M  V30 15337 C 1435.47 0.0721917 -3.38823 0
M  V30 15338 C 1434.64 -0.889103 -4.28268 0
M  V30 15339 C 1433.7 -0.208829 -5.25785 0
M  V30 15340 O 1432.73 -0.848894 -5.62834 0
M  V30 15341 N 1433.93 1.04671 -5.70985 0
M  V30 15342 H 1436.69 -1.54266 -2.56948 0
M  V30 15343 H 1434.26 -0.954736 -1.30753 0
M  V30 15344 H 1436.25 0.537882 -4.0111 0
M  V30 15345 H 1434.82 0.870805 -3.00226 0
M  V30 15346 H 1434.04 -1.53399 -3.63129 0
M  V30 15347 H 1435.33 -1.54097 -4.84904 0
M  V30 15348 H 1434.72 1.58673 -5.42991 0
M  V30 15349 H 1433.28 1.45613 -6.35327 0
M  V30 15350 N 1436.71 1.32449 -0.85411 0
M  V30 15351 C 1437.96 1.97563 -0.4579 0
M  V30 15352 C 1438.29 1.67435 0.983835 0
M  V30 15353 O 1437.57 0.962292 1.69027 0
M  V30 15354 C 1437.85 3.53292 -0.69688 0
M  V30 15355 C 1437.7 3.93053 -2.18699 0
M  V30 15356 C 1439.02 4.39834 -0.152917 0
M  V30 15357 H 1436.14 0.717634 -0.167842 0
M  V30 15358 H 1438.78 1.5684 -1.07243 0
M  V30 15359 H 1436.93 3.88111 -0.173807 0
M  V30 15360 H 1438.61 3.68416 -2.7761 0
M  V30 15361 H 1436.85 3.42232 -2.6657 0
M  V30 15362 H 1437.52 5.01576 -2.3049 0
M  V30 15363 H 1440 4.11748 -0.600216 0
M  V30 15364 H 1438.87 5.47785 -0.349703 0
M  V30 15365 H 1439.13 4.31898 0.944276 0
M  V30 15366 N 1438.19 0.611994 1.45232 0
M  V30 15367 C 1439.47 0.0407 1.95558 0
M  V30 15368 C 1439.85 -1.42839 1.55436 0
M  V30 15369 O 1439.2 -2.13316 0.819055 0
M  V30 15370 C 1439.41 0.243436 3.4815 0
M  V30 15371 C 1440.75 0.126551 4.24411 0
M  V30 15372 O 1441.78 0.17379 3.55776 0
M  V30 15373 O 1440.64 0.0153526 5.46498 0
M  V30 15374 H 1437.73 -0.0332288 0.826332 0
M  V30 15375 H 1440.28 0.682364 1.55377 0
M  V30 15376 H 1439.05 1.26357 3.70337 0
M  V30 15377 H 1438.67 -0.43328 3.95232 0
M  V30 15378 N 1439.67 -1.53632 0.351409 0
M  V30 15379 C 1440.58 -2.2899 -0.509985 0
M  V30 15380 C 1441.6 -1.34403 -1.10507 0
M  V30 15381 O 1442.77 -1.67448 -1.11906 0
M  V30 15382 C 1439.84 -3.05392 -1.64124 0
M  V30 15383 C 1438.9 -4.15619 -1.07514 0
M  V30 15384 C 1438.13 -4.88369 -2.15248 0
M  V30 15385 O 1438.35 -4.60854 -3.3611 0
M  V30 15386 O 1437.29 -5.74636 -1.79101 0
M  V30 15387 H 1441.11 -3.03526 0.10283 0
M  V30 15388 H 1438.7 -1.48947 0.116214 0
M  V30 15389 H 1440.58 -3.53146 -2.29926 0
M  V30 15390 H 1439.26 -2.33705 -2.23972 0
M  V30 15391 H 1438.16 -3.7215 -0.381421 0
M  V30 15392 H 1439.5 -4.8943 -0.521413 0
M  V30 15393 N 1441.15 -0.0802183 -1.57396 0
M  V30 15394 C 1442.06 0.898597 -2.16708 0
M  V30 15395 C 1443.07 1.321 -1.1325 0
M  V30 15396 O 1444.25 1.39197 -1.45554 0
M  V30 15397 C 1441.31 2.14501 -2.72379 0
M  V30 15398 C 1440.38 1.77822 -3.9074 0
M  V30 15399 C 1439.61 2.96521 -4.43747 0
M  V30 15400 O 1439.83 4.10797 -3.9573 0
M  V30 15401 O 1438.77 2.75849 -5.34968 0
M  V30 15402 H 1442.59 0.424027 -3.00725 0
M  V30 15403 H 1440.18 0.14332 -1.48711 0
M  V30 15404 H 1442.06 2.87575 -3.08024 0
M  V30 15405 H 1440.73 2.61039 -1.91416 0
M  V30 15406 H 1439.64 1.01974 -3.59934 0
M  V30 15407 H 1440.97 1.36059 -4.73021 0
M  V30 15408 N 1442.63 1.56409 0.193394 0
M  V30 15409 C 1443.87 1.80724 0.913521 0
M  V30 15410 C 1444.2 0.653718 1.83185 0
M  V30 15411 O 1443.46 -0.360417 1.92353 0
M  V30 15412 C 1443.75 3.11039 1.76039 0
M  V30 15413 C 1443.42 4.39832 0.992892 0
M  V30 15414 C 1442.08 4.7482 0.780991 0
M  V30 15415 C 1444.43 5.19228 0.452985 0
M  V30 15416 C 1441.76 5.86697 0.0177286 0
M  V30 15417 C 1444.11 6.31902 -0.297075 0
M  V30 15418 C 1442.78 6.65472 -0.519977 0
M  V30 15419 H 1442.05 0.661315 0.334281 0
M  V30 15420 H 1444.7 1.90654 0.179786 0
M  V30 15421 H 1443 2.96353 2.56285 0
M  V30 15422 H 1444.7 3.27058 2.32022 0
M  V30 15423 H 1441.29 4.12376 1.16806 0
M  V30 15424 H 1445.47 4.9261 0.604092 0
M  V30 15425 H 1440.73 6.11178 -0.164925 0
M  V30 15426 H 1444.9 6.92639 -0.7228 0
M  V30 15427 H 1442.53 7.52004 -1.11331 0
M  V30 15428 N 1444.1 -0.461169 1.50702 0
M  V30 15429 C 1445.03 -1.56576 1.73223 0
M  V30 15430 C 1446.01 -1.59855 0.581401 0
M  V30 15431 O 1447.2 -1.75964 0.821602 0
M  V30 15432 C 1444.33 -2.94835 1.83548 0
M  V30 15433 C 1443.28 -3.06421 2.98815 0
M  V30 15434 C 1442.61 -4.46425 2.94293 0
M  V30 15435 C 1443.91 -2.82714 4.3917 0
M  V30 15436 H 1445.6 -1.37982 2.65709 0
M  V30 15437 H 1443.15 -0.662362 1.27862 0
M  V30 15438 H 1445.1 -3.72047 1.97887 0
M  V30 15439 H 1443.83 -3.14608 0.876906 0
M  V30 15440 H 1442.49 -2.31644 2.84142 0
M  V30 15441 H 1442.13 -4.63131 1.96262 0
M  V30 15442 H 1441.83 -4.55111 3.71682 0
M  V30 15443 H 1443.36 -5.25644 3.10695 0
M  V30 15444 H 1444.77 -3.4967 4.54317 0
M  V30 15445 H 1443.17 -3.02835 5.18084 0
M  V30 15446 H 1444.24 -1.78492 4.50853 0
M  V30 15447 N 1445.58 -1.40446 -0.715026 0
M  V30 15448 C 1447 -1.22488 -1.02317 0
M  V30 15449 C 1447.2 -0.100481 -2.01249 0
M  V30 15450 O 1446.25 0.541447 -2.46626 0
M  V30 15451 C 1447.57 -2.56682 -1.56636 0
M  V30 15452 C 1449.11 -2.63699 -1.68617 0
M  V30 15453 C 1449.59 -3.98163 -2.26342 0
M  V30 15454 N 1451.08 -3.99907 -2.33727 0
M  V30 15455 C 1451.82 -5.00737 -2.79375 0
M  V30 15456 N 1451.31 -6.11961 -3.24771 0
M  V30 15457 N 1453.1 -4.88106 -2.78764 0
M  V30 15458 H 1445.26 -2.12317 -0.0592712 0
M  V30 15459 H 1447.52 -0.943823 -0.088895 0
M  V30 15460 H 1447.22 -3.39615 -0.914036 0
M  V30 15461 H 1447.1 -2.77809 -2.55151 0
M  V30 15462 H 1449.49 -1.81138 -2.32966 0
M  V30 15463 H 1449.57 -2.46402 -0.687004 0
M  V30 15464 H 1449.21 -4.81164 -1.62614 0
M  V30 15465 H 1449.14 -4.1279 -3.26974 0
M  V30 15466 H 1451.63 -3.19592 -2.01666 0
M  V30 15467 H 1451.94 -6.84787 -3.58171 0
M  V30 15468 H 1450.29 -6.15525 -3.22729 0
M  V30 15469 H 1453.48 -4.00307 -2.42635 0
M  V30 15470 H 1453.65 -5.66828 -3.14023 0
M  V30 15471 N 1447.06 0.947303 -1.25952 0
M  V30 15472 C 1448.28 1.73261 -1.13997 0
M  V30 15473 C 1448.71 1.85666 0.301639 0
M  V30 15474 O 1448.07 1.34244 1.21854 0
M  V30 15475 C 1448.12 3.12046 -1.8072 0
M  V30 15476 O 1447.22 3.97684 -1.09182 0
M  V30 15477 H 1446.56 0.53182 -0.397572 0
M  V30 15478 H 1449.09 1.18689 -1.66656 0
M  V30 15479 H 1449.1 3.62468 -1.87299 0
M  V30 15480 H 1447.78 3.02334 -2.856 0
M  V30 15481 H 1446.35 3.56141 -1.10536 0
M  V30 15482 N 1448.54 1.07657 1.15099 0
M  V30 15483 C 1449.82 0.714608 1.82079 0
M  V30 15484 C 1450.2 -0.802578 1.95248 0
M  V30 15485 O 1449.54 -1.71818 1.50634 0
M  V30 15486 C 1449.75 1.43264 3.1824 0
M  V30 15487 C 1451.1 1.58675 3.93837 0
M  V30 15488 O 1452.13 1.39367 3.27804 0
M  V30 15489 O 1450.98 1.9047 5.12234 0
M  V30 15490 H 1448.08 0.254645 0.786819 0
M  V30 15491 H 1450.62 1.17768 1.22183 0
M  V30 15492 H 1449.4 2.46655 3.03772 0
M  V30 15493 H 1449.02 0.960546 3.85823 0
M  V30 15494 N 1450.02 -1.31994 0.861122 0
M  V30 15495 C 1450.97 -2.26248 0.282123 0
M  V30 15496 C 1451.95 -1.50246 -0.57575 0
M  V30 15497 O 1453.14 -1.71845 -0.424075 0
M  V30 15498 C 1450.27 -3.39293 -0.523011 0
M  V30 15499 C 1449.36 -4.22673 0.34761 0
M  V30 15500 N 1449.75 -4.8496 1.43692 0
M  V30 15501 C 1448.05 -4.45785 0.138488 0
M  V30 15502 C 1448.75 -5.47215 1.97307 0
M  V30 15503 N 1447.72 -5.28525 1.27132 0
M  V30 15504 H 1451.53 -2.71936 1.11481 0
M  V30 15505 H 1449.04 -1.46158 0.707928 0
M  V30 15506 H 1451.04 -4.05832 -0.954269 0
M  V30 15507 H 1449.7 -2.95149 -1.35341 0
M  V30 15508 H 1450.71 -4.84873 1.81985 0
M  V30 15509 H 1447.38 -4.12303 -0.656677 0
M  V30 15510 H 1448.77 -6.06737 2.88652 0
M  V30 15511 N 1451.49 -0.619688 -1.44906 0
M  V30 15512 C 1452.91 -0.203309 -1.8559 0
M  V30 15513 C 1453.26 1.24265 -1.51831 0
M  V30 15514 O 1452.38 1.94392 -0.950819 0
M  V30 15515 C 1452.98 -0.362204 -3.36858 0
M  V30 15516 C 1451.54 -0.000423575 -3.764 0
M  V30 15517 C 1450.68 -0.680979 -2.68808 0
M  V30 15518 H 1453.63 -0.825595 -1.35535 0
M  V30 15519 H 1453.65 0.402149 -3.78369 0
M  V30 15520 H 1453.17 -1.41468 -3.61398 0
M  V30 15521 H 1451.27 1.05077 -3.57477 0
M  V30 15522 H 1451.38 -0.402508 -4.77406 0
M  V30 15523 H 1449.74 -0.117407 -2.54429 0
M  V30 15524 H 1450.53 -1.73583 -2.96182 0
M  V30 15525 N 1452.97 1.53444 -0.359552 0
M  V30 15526 C 1453.94 2.24173 0.477412 0
M  V30 15527 C 1454.94 1.24747 1.01464 0
M  V30 15528 O 1456.13 1.49069 0.901343 0
M  V30 15529 C 1453.26 2.9738 1.66667 0
M  V30 15530 H 1454.45 2.99566 -0.141407 0
M  V30 15531 H 1452 1.55904 -0.111143 0
M  V30 15532 H 1452.74 2.26214 2.32374 0
M  V30 15533 H 1452.52 3.70325 1.28848 0
M  V30 15534 H 1454.01 3.51165 2.25994 0
M  V30 15535 N 1454.45 0.0885642 1.57351 0
M  V30 15536 C 1455.7 -0.57633 1.93291 0
M  V30 15537 C 1456.01 -1.69743 0.971934 0
M  V30 15538 O 1457.22 -2.42304 1.22479 0
M  V30 15539 C 1455.67 -1.07655 3.43422 0
M  V30 15540 C 1455.28 0.0144488 4.47998 0
M  V30 15541 C 1457.03 -1.71455 3.88334 0
M  V30 15542 C 1454.93 -0.500758 5.89276 0
M  V30 15543 H 1453.86 -0.219055 0.721478 0
M  V30 15544 H 1456.51 0.163511 1.8277 0
M  V30 15545 H 1454.9 -1.86988 3.49072 0
M  V30 15546 H 1456.07 0.789696 4.53983 0
M  V30 15547 H 1454.39 0.557237 4.12655 0
M  V30 15548 H 1456.98 -2.11063 4.91281 0
M  V30 15549 H 1457.33 -2.58116 3.26621 0
M  V30 15550 H 1457.86 -0.987159 3.85357 0
M  V30 15551 H 1454.6 0.329088 6.54673 0
M  V30 15552 H 1454.12 -1.24315 5.86776 0
M  V30 15553 H 1455.8 -0.971821 6.3966 0
M  V30 15554 N 1455.93 -1.56509 -0.185096 0
M  V30 15555 C 1456.86 -1.98363 -1.23184 0
M  V30 15556 C 1457.84 -0.85709 -1.46929 0
M  V30 15557 O 1459.02 -1.12216 -1.58497 0
M  V30 15558 C 1456.15 -2.33172 -2.57387 0
M  V30 15559 C 1455.11 -3.48658 -2.48236 0
M  V30 15560 C 1454.43 -3.69171 -3.86804 0
M  V30 15561 C 1455.73 -4.82538 -1.99885 0
M  V30 15562 H 1457.43 -2.86053 -0.883982 0
M  V30 15563 H 1454.97 -1.37623 -0.423786 0
M  V30 15564 H 1456.93 -2.61048 -3.30805 0
M  V30 15565 H 1455.65 -1.42377 -2.93933 0
M  V30 15566 H 1454.31 -3.20889 -1.77273 0
M  V30 15567 H 1453.96 -2.75689 -4.20719 0
M  V30 15568 H 1453.66 -4.46868 -3.81553 0
M  V30 15569 H 1455.18 -3.99433 -4.61829 0
M  V30 15570 H 1456.6 -5.0938 -2.63068 0
M  V30 15571 H 1454.99 -5.63775 -2.05614 0
M  V30 15572 H 1456.06 -4.75453 -0.952503 0
M  V30 15573 N 1457.41 0.45317 -1.50944 0
M  V30 15574 C 1458.82 0.788393 -1.38768 0
M  V30 15575 C 1459.02 1.96233 -0.457676 0
M  V30 15576 O 1458.08 2.52328 0.0930651 0
M  V30 15577 C 1459.39 1.08363 -2.80496 0
M  V30 15578 C 1460.94 1.18901 -2.89537 0
M  V30 15579 C 1461.41 1.51727 -4.32138 0
M  V30 15580 N 1462.91 1.58683 -4.35171 0
M  V30 15581 C 1463.64 1.85623 -5.42523 0
M  V30 15582 N 1463.14 2.10462 -6.60059 0
M  V30 15583 N 1464.93 1.87274 -5.29986 0
M  V30 15584 H 1457.08 -0.320216 -2.09972 0
M  V30 15585 H 1459.34 -0.0808021 -0.94455 0
M  V30 15586 H 1459.05 0.293897 -3.5047 0
M  V30 15587 H 1458.92 2.01532 -3.18849 0
M  V30 15588 H 1461.31 1.96939 -2.19771 0
M  V30 15589 H 1461.39 0.236691 -2.54703 0
M  V30 15590 H 1461.04 0.74223 -5.02447 0
M  V30 15591 H 1460.97 2.48139 -4.64472 0
M  V30 15592 H 1463.46 1.41455 -3.50427 0
M  V30 15593 H 1463.77 2.30343 -7.37673 0
M  V30 15594 H 1462.11 2.07817 -6.63202 0
M  V30 15595 H 1465.31 1.67377 -4.37153 0
M  V30 15596 H 1465.48 2.07933 -6.13733 0
M  V30 15597 N 1458.88 1.40823 0.707568 0
M  V30 15598 C 1460.11 1.43061 1.50161 0
M  V30 15599 C 1460.53 0.0342144 1.88069 0
M  V30 15600 O 1459.89 -0.959674 1.53818 0
M  V30 15601 C 1459.94 2.33459 2.74826 0
M  V30 15602 O 1459.04 1.78336 3.71847 0
M  V30 15603 H 1458.39 0.48602 0.452417 0
M  V30 15604 H 1460.92 1.85147 0.870742 0
M  V30 15605 H 1460.93 2.48922 3.23267 0
M  V30 15606 H 1459.6 3.34927 2.46571 0
M  V30 15607 H 1458.18 1.7226 3.30728 0
M  V30 15608 N 1460.36 -0.94061 1.26453 0
M  V30 15609 C 1461.29 -2.04322 1.03852 0
M  V30 15610 C 1462.31 -1.628 -0.00122618 0
M  V30 15611 O 1463.5 -1.76894 0.238911 0
M  V30 15612 C 1460.6 -3.34394 0.550789 0
M  V30 15613 C 1459.77 -4.0468 1.6599 0
M  V30 15614 C 1458.83 -5.13025 1.17012 0
M  V30 15615 O 1457.85 -5.37699 1.8673 0
M  V30 15616 N 1459.06 -5.80497 0.0188478 0
M  V30 15617 H 1461.82 -2.24276 1.98797 0
M  V30 15618 H 1459.38 -1.11013 1.17846 0
M  V30 15619 H 1461.37 -4.04169 0.207305 0
M  V30 15620 H 1459.94 -3.11108 -0.30509 0
M  V30 15621 H 1459.16 -3.28813 2.17429 0
M  V30 15622 H 1460.45 -4.48392 2.40463 0
M  V30 15623 H 1459.85 -5.62888 -0.563368 0
M  V30 15624 H 1458.41 -6.51259 -0.265556 0
M  V30 15625 N 1461.84 -1.08266 -1.14527 0
M  V30 15626 C 1462.8 -0.715117 -2.17758 0
M  V30 15627 C 1463.8 0.24935 -1.58855 0
M  V30 15628 O 1464.99 0.0290846 -1.74176 0
M  V30 15629 C 1462.13 -0.055575 -3.40855 0
M  V30 15630 H 1463.32 -1.62921 -2.51787 0
M  V30 15631 H 1460.87 -0.880346 -1.2915 0
M  V30 15632 H 1461.61 0.870312 -3.12404 0
M  V30 15633 H 1461.39 -0.749382 -3.84872 0
M  V30 15634 H 1462.88 0.186592 -4.17183 0
M  V30 15635 N 1463.32 1.31536 -0.86811 0
M  V30 15636 C 1464.74 1.49461 -0.559778 0
M  V30 15637 C 1464.94 1.79957 0.906525 0
M  V30 15638 O 1463.99 1.87711 1.68881 0
M  V30 15639 C 1465.3 2.62967 -1.45839 0
M  V30 15640 C 1466.85 2.76851 -1.46023 0
M  V30 15641 C 1467.33 3.93451 -2.34436 0
M  V30 15642 N 1468.82 4.00735 -2.32306 0
M  V30 15643 C 1469.55 4.90223 -2.97437 0
M  V30 15644 N 1469.05 5.84626 -3.71731 0
M  V30 15645 N 1470.84 4.83454 -2.86755 0
M  V30 15646 H 1462.99 1.1001 -1.81691 0
M  V30 15647 H 1465.26 0.543418 -0.776789 0
M  V30 15648 H 1464.96 2.47203 -2.50168 0
M  V30 15649 H 1464.84 3.59063 -1.15556 0
M  V30 15650 H 1467.22 2.9203 -0.424527 0
M  V30 15651 H 1467.3 1.81427 -1.80327 0
M  V30 15652 H 1466.95 3.79029 -3.38082 0
M  V30 15653 H 1466.88 4.88179 -1.97457 0
M  V30 15654 H 1469.37 3.33191 -1.78303 0
M  V30 15655 H 1469.68 6.49635 -4.18562 0
M  V30 15656 H 1468.03 5.84611 -3.75839 0
M  V30 15657 H 1471.22 4.08678 -2.28254 0
M  V30 15658 H 1471.39 5.52991 -3.37795 0
M  V30 15659 N 1464.8 0.627364 1.44575 0
M  V30 15660 C 1465.73 -0.066735 2.33405 0
M  V30 15661 C 1466.71 -0.838666 1.47988 0
M  V30 15662 O 1467.89 -0.805296 1.76716 0
M  V30 15663 C 1465.02 -1.05148 3.31 0
M  V30 15664 C 1463.98 -0.391433 4.26206 0
M  V30 15665 C 1463.3 -1.48581 5.13642 0
M  V30 15666 C 1464.6 0.699942 5.17589 0
M  V30 15667 H 1466.3 0.675029 2.91691 0
M  V30 15668 H 1463.84 0.326066 1.4026 0
M  V30 15669 H 1465.8 -1.54576 3.92026 0
M  V30 15670 H 1464.52 -1.82408 2.70915 0
M  V30 15671 H 1463.18 0.0821694 3.66508 0
M  V30 15672 H 1462.83 -2.2492 4.49911 0
M  V30 15673 H 1462.53 -1.04957 5.7815 0
M  V30 15674 H 1464.05 -1.98198 5.77538 0
M  V30 15675 H 1465.47 0.288911 5.72572 0
M  V30 15676 H 1463.86 1.0591 5.9068 0
M  V30 15677 H 1464.93 1.5686 4.58828 0
M  V30 15678 N 1466.28 -1.53251 0.367684 0
M  V30 15679 C 1467.69 -1.86369 -0.111073 0
M  V30 15680 C 1468.04 -1.2882 -1.47986 0
M  V30 15681 O 1467.16 -0.611058 -2.07593 0
M  V30 15682 C 1467.76 -3.38159 -0.208325 0
M  V30 15683 C 1466.32 -3.71067 -0.63134 0
M  V30 15684 C 1465.46 -2.76425 0.220144 0
M  V30 15685 H 1468.41 -1.47469 0.586398 0
M  V30 15686 H 1468.44 -3.66252 -1.03151 0
M  V30 15687 H 1467.95 -3.80015 0.788038 0
M  V30 15688 H 1466.05 -3.34769 -1.63586 0
M  V30 15689 H 1466.16 -4.77389 -0.404491 0
M  V30 15690 H 1464.53 -2.5279 -0.311298 0
M  V30 15691 H 1465.31 -3.21115 1.21409 0
M  V30 15692 N 1467.75 -0.0969077 -1.57302 0
M  V30 15693 C 1469 0.565254 -1.94034 0
M  V30 15694 C 1469.32 1.68609 -0.9796 0
M  V30 15695 O 1468.59 1.95874 -0.0319788 0
M  V30 15696 H 1467.17 0.211796 -0.716346 0
M  V30 15697 H 1469.83 -0.160665 -1.94237 0
M  V30 15698 H 1468.93 0.974268 -2.96504 0
M  V30 15699 N 1469.23 1.56605 0.176793 0
M  V30 15700 C 1470.48 1.81682 0.894302 0
M  V30 15701 C 1470.81 0.67311 1.82481 0
M  V30 15702 O 1470.06 -0.339995 1.92724 0
M  V30 15703 C 1470.36 3.12888 1.7273 0
M  V30 15704 C 1470.03 4.40861 0.946186 0
M  V30 15705 C 1468.69 4.75622 0.730586 0
M  V30 15706 C 1471.04 5.19679 0.397889 0
M  V30 15707 C 1468.37 5.86683 -0.0444995 0
M  V30 15708 C 1470.72 6.31551 -0.36408 0
M  V30 15709 C 1469.38 6.64883 -0.59053 0
M  V30 15710 H 1468.65 0.664823 0.327248 0
M  V30 15711 H 1471.3 1.90834 0.159555 0
M  V30 15712 H 1469.61 2.99055 2.53128 0
M  V30 15713 H 1471.3 3.295 2.2854 0
M  V30 15714 H 1467.89 4.13592 1.12426 0
M  V30 15715 H 1472.08 4.93223 0.55181 0
M  V30 15716 H 1467.33 6.10968 -0.229739 0
M  V30 15717 H 1471.51 6.91833 -0.796223 0
M  V30 15718 H 1469.13 7.50781 -1.19301 0
M  V30 15719 N 1470.71 -0.445159 1.51182 0
M  V30 15720 C 1471.66 -1.53798 1.68316 0
M  V30 15721 C 1472.64 -1.51666 0.537244 0
M  V30 15722 O 1473.84 -1.58251 0.792818 0
M  V30 15723 C 1470.96 -2.92053 1.80444 0
M  V30 15724 C 1470.05 -2.98971 3.00794 0
M  V30 15725 N 1470.44 -2.75648 4.24089 0
M  V30 15726 C 1468.74 -3.30127 2.99887 0
M  V30 15727 C 1469.44 -2.88206 5.05284 0
M  V30 15728 N 1468.42 -3.19538 4.39769 0
M  V30 15729 H 1472.22 -1.34506 2.61315 0
M  V30 15730 H 1469.73 -0.652341 1.48722 0
M  V30 15731 H 1471.73 -3.70663 1.90827 0
M  V30 15732 H 1470.39 -3.12372 0.886204 0
M  V30 15733 H 1471.4 -2.50727 4.53163 0
M  V30 15734 H 1468.08 -3.5627 2.17665 0
M  V30 15735 H 1469.47 -2.74194 6.13406 0
M  V30 15736 N 1472.19 -1.41197 -0.700089 0
M  V30 15737 C 1473.44 -1.40034 -1.45722 0
M  V30 15738 C 1473.76 -0.00876281 -1.94998 0
M  V30 15739 O 1473.03 0.948647 -1.71399 0
M  V30 15740 H 1471.61 -0.515433 -0.540683 0
M  V30 15741 H 1474.27 -1.76394 -0.828926 0
M  V30 15742 H 1473.36 -2.08477 -2.32258 0
M  V30 15743 N 1473.67 0.933891 -1.2695 0
M  V30 15744 C 1474.6 2.05078 -1.11649 0
M  V30 15745 C 1475.58 1.70089 -0.0196463 0
M  V30 15746 O 1476.76 1.93239 -0.193007 0
M  V30 15747 C 1473.89 3.38963 -0.756387 0
M  V30 15748 C 1472.85 3.88041 -1.80577 0
M  V30 15749 C 1472.17 5.18661 -1.2998 0
M  V30 15750 C 1473.47 4.12116 -3.2087 0
M  V30 15751 H 1475.17 2.18137 -2.05077 0
M  V30 15752 H 1472.71 1.04817 -0.987392 0
M  V30 15753 H 1474.66 4.1657 -0.63619 0
M  V30 15754 H 1473.39 3.25901 0.213607 0
M  V30 15755 H 1472.05 3.12622 -1.91477 0
M  V30 15756 H 1471.7 5.01985 -0.319442 0
M  V30 15757 H 1471.4 5.52467 -2.00134 0
M  V30 15758 H 1472.92 5.98844 -1.19242 0
M  V30 15759 H 1474.33 4.80312 -3.13006 0
M  V30 15760 H 1472.73 4.57218 -3.88679 0
M  V30 15761 H 1473.8 3.17633 -3.66384 0
M  V30 15762 N 1475.14 1.08871 1.13951 0
M  V30 15763 C 1476.56 0.817282 1.37086 0
M  V30 15764 C 1476.76 -0.571159 1.93236 0
M  V30 15765 O 1475.82 -1.32708 2.14813 0
M  V30 15766 C 1477.13 1.90386 2.32752 0
M  V30 15767 C 1478.68 1.93043 2.46381 0
M  V30 15768 C 1479.15 3.00828 3.4535 0
M  V30 15769 N 1480.64 3.0003 3.52897 0
M  V30 15770 C 1481.38 3.80073 4.29339 0
M  V30 15771 N 1480.87 4.70008 5.08984 0
M  V30 15772 N 1482.67 3.68355 4.24583 0
M  V30 15773 H 1474.82 1.98393 0.758537 0
M  V30 15774 H 1477.08 0.861229 0.396219 0
M  V30 15775 H 1476.79 2.90233 1.9864 0
M  V30 15776 H 1476.66 1.77722 3.32708 0
M  V30 15777 H 1479.05 0.938382 2.79783 0
M  V30 15778 H 1479.13 2.09785 1.4637 0
M  V30 15779 H 1478.77 4.00242 3.1268 0
M  V30 15780 H 1478.7 2.8133 4.45153 0
M  V30 15781 H 1481.19 2.3485 2.96064 0
M  V30 15782 H 1481.51 5.27678 5.64602 0
M  V30 15783 H 1479.85 4.74047 5.08236 0
M  V30 15784 H 1483.04 2.9746 3.61435 0
M  V30 15785 H 1483.22 4.30974 4.83906 0
M  V30 15786 N 1476.62 -1.31073 0.875073 0
M  V30 15787 C 1477.85 -2.01223 0.502383 0
M  V30 15788 C 1478.27 -1.65223 -0.899053 0
M  V30 15789 O 1477.63 -0.863559 -1.59412 0
M  V30 15790 C 1477.68 -3.54269 0.672747 0
M  V30 15791 O 1476.78 -4.11409 -0.285718 0
M  V30 15792 H 1476.12 -0.633422 0.199181 0
M  V30 15793 H 1478.65 -1.67152 1.17989 0
M  V30 15794 H 1478.66 -4.04027 0.567973 0
M  V30 15795 H 1477.34 -3.79811 1.69459 0
M  V30 15796 H 1475.91 -3.72654 -0.135472 0
M  V30 15797 N 1478.1 -0.635022 -1.4424 0
M  V30 15798 C 1479.51 -0.222982 -1.85364 0
M  V30 15799 C 1479.86 1.22648 -1.5314 0
M  V30 15800 O 1478.99 1.93373 -0.971384 0
M  V30 15801 C 1479.58 -0.397912 -3.36455 0
M  V30 15802 C 1478.14 -0.0403458 -3.76378 0
M  V30 15803 C 1477.29 -0.709451 -2.68071 0
M  V30 15804 H 1480.24 -0.839923 -1.34651 0
M  V30 15805 H 1480.26 0.361996 -3.78774 0
M  V30 15806 H 1479.77 -1.45294 -3.59877 0
M  V30 15807 H 1477.87 1.01279 -3.58571 0
M  V30 15808 H 1477.99 -0.453121 -4.76952 0
M  V30 15809 H 1476.35 -0.144386 -2.5429 0
M  V30 15810 H 1477.13 -1.76715 -2.94324 0
M  V30 15811 N 1479.58 1.53054 -0.375806 0
M  V30 15812 C 1480.51 2.28973 0.45754 0
M  V30 15813 C 1481.49 1.31812 1.07516 0
M  V30 15814 O 1482.67 1.60693 1.09048 0
M  V30 15815 C 1479.8 3.08657 1.59212 0
M  V30 15816 C 1478.76 4.1359 1.10123 0
M  V30 15817 C 1478.08 4.81417 2.32684 0
M  V30 15818 C 1479.38 5.21994 0.17872 0
M  V30 15819 H 1481.08 2.98883 -0.175872 0
M  V30 15820 H 1478.62 1.43743 -0.0860253 0
M  V30 15821 H 1480.58 3.6052 2.18182 0
M  V30 15822 H 1479.3 2.36456 2.25291 0
M  V30 15823 H 1477.96 3.62688 0.534151 0
M  V30 15824 H 1477.61 4.05778 2.97243 0
M  V30 15825 H 1477.31 5.52332 2.00506 0
M  V30 15826 H 1478.83 5.36079 2.92322 0
M  V30 15827 H 1480.25 5.69298 0.676204 0
M  V30 15828 H 1478.64 6.00077 -0.0526605 0
M  V30 15829 H 1479.71 4.78646 -0.776246 0
M  V30 15830 N 1481.06 0.105248 1.57248 0
M  V30 15831 C 1482.33 -0.598871 1.86207 0
M  V30 15832 C 1482.71 -1.85698 1.00396 0
M  V30 15833 O 1482.06 -2.28363 0.0791093 0
M  V30 15834 C 1482.27 -0.904522 3.37075 0
M  V30 15835 C 1483.62 -1.26357 4.05363 0
M  V30 15836 O 1484.64 -0.99522 3.42014 0
M  V30 15837 O 1483.5 -1.76659 5.17159 0
M  V30 15838 H 1480.6 -0.300727 0.770384 0
M  V30 15839 H 1483.14 0.138713 1.69132 0
M  V30 15840 H 1481.91 -0.0123974 3.91298 0
M  V30 15841 H 1481.54 -1.69774 3.59531 0
M  V30 15842 N 1482.53 -1.56697 -0.168486 0
M  V30 15843 C 1483.76 -1.86292 -0.900152 0
M  V30 15844 C 1484.18 -0.690968 -1.75702 0
M  V30 15845 O 1483.53 0.339855 -1.79308 0
M  V30 15846 C 1483.59 -3.14946 -1.77457 0
M  V30 15847 O 1483.31 -4.27625 -0.952267 0
M  V30 15848 C 1484.81 -3.57908 -2.61566 0
M  V30 15849 H 1482.03 -0.618003 -0.261369 0
M  V30 15850 H 1484.57 -2.03811 -0.16773 0
M  V30 15851 H 1482.73 -2.99246 -2.4603 0
M  V30 15852 H 1483.14 -5.01057 -1.55056 0
M  V30 15853 H 1484.61 -4.50823 -3.18532 0
M  V30 15854 H 1485.09 -2.82162 -3.36573 0
M  V30 15855 H 1485.7 -3.7623 -1.98321 0
M  V30 15856 N 1484.01 0.437135 -1.51416 0
M  V30 15857 C 1485.24 1.21359 -1.68187 0
M  V30 15858 C 1485.66 1.84247 -0.378748 0
M  V30 15859 O 1485.02 1.68816 0.661115 0
M  V30 15860 C 1485.07 2.27319 -2.79926 0
M  V30 15861 O 1484.17 3.32807 -2.43543 0
M  V30 15862 H 1483.51 0.355547 -0.560787 0
M  V30 15863 H 1486.04 0.516204 -1.97981 0
M  V30 15864 H 1486.05 2.721 -3.04016 0
M  V30 15865 H 1484.73 1.80923 -3.74486 0
M  V30 15866 H 1483.31 2.93501 -2.30025 0
M  V30 15867 N 1485.49 1.41566 0.692592 0
M  V30 15868 C 1486.72 1.44646 1.48635 0
M  V30 15869 C 1487.14 0.0541597 1.88022 0
M  V30 15870 O 1486.5 -0.943305 1.54827 0
M  V30 15871 C 1486.55 2.3636 2.72335 0
M  V30 15872 O 1485.65 1.8227 3.69934 0
M  V30 15873 H 1484.99 0.490791 0.447236 0
M  V30 15874 H 1487.52 1.8606 0.851056 0
M  V30 15875 H 1487.53 2.52337 3.20609 0
M  V30 15876 H 1486.21 3.37523 2.43004 0
M  V30 15877 H 1484.78 1.75759 3.28882 0
M  V30 15878 N 1486.97 -0.927146 1.27443 0
M  V30 15879 C 1488.21 -1.67738 1.13982 0
M  V30 15880 C 1488.55 -1.91653 -0.313511 0
M  V30 15881 O 1487.82 -1.50729 -1.22926 0
M  V30 15882 C 1488.11 -3.04357 1.92454 0
M  V30 15883 C 1487.96 -2.8768 3.45775 0
M  V30 15884 C 1489.28 -4.04696 1.72944 0
M  V30 15885 H 1486.4 -0.608749 0.415444 0
M  V30 15886 H 1489.04 -1.07587 1.56605 0
M  V30 15887 H 1487.19 -3.55702 1.56232 0
M  V30 15888 H 1488.86 -2.43449 3.9183 0
M  V30 15889 H 1487.1 -2.23011 3.72087 0
M  V30 15890 H 1487.77 -3.8464 3.95924 0
M  V30 15891 H 1490.25 -3.62364 2.04528 0
M  V30 15892 H 1489.13 -4.98276 2.30243 0
M  V30 15893 H 1489.39 -4.36878 0.677505 0
M  V30 15894 N 1488.45 -1.09474 -1.13372 0
M  V30 15895 C 1489.38 -0.756441 -2.20908 0
M  V30 15896 C 1490.36 0.266113 -1.68006 0
M  V30 15897 O 1491.54 0.134067 -1.93737 0
M  V30 15898 C 1488.67 -0.176733 -3.4685 0
M  V30 15899 C 1487.63 -1.12886 -4.12845 0
M  V30 15900 C 1486.95 -0.410831 -5.33119 0
M  V30 15901 C 1488.25 -2.47148 -4.60125 0
M  V30 15902 H 1489.95 -1.65555 -2.49463 0
M  V30 15903 H 1487.49 -0.797458 -1.19902 0
M  V30 15904 H 1489.45 0.0720151 -4.21338 0
M  V30 15905 H 1488.17 0.757576 -3.17692 0
M  V30 15906 H 1486.83 -1.36289 -3.40325 0
M  V30 15907 H 1486.48 0.527632 -5.00225 0
M  V30 15908 H 1486.18 -1.04567 -5.78221 0
M  V30 15909 H 1487.7 -0.170394 -6.10362 0
M  V30 15910 H 1489.11 -2.27949 -5.26034 0
M  V30 15911 H 1487.51 -3.06425 -5.15969 0
M  V30 15912 H 1488.58 -3.07874 -3.74622 0
M  V30 15913 N 1489.92 1.30607 -0.882012 0
M  V30 15914 C 1491.15 2.00128 -0.51307 0
M  V30 15915 C 1491.56 1.66307 0.902144 0
M  V30 15916 O 1490.91 0.894797 1.60434 0
M  V30 15917 C 1490.97 3.5438 -0.604547 0
M  V30 15918 C 1490.63 4.1171 -1.98354 0
M  V30 15919 C 1491.63 4.27924 -2.95257 0
M  V30 15920 C 1489.31 4.47158 -2.28812 0
M  V30 15921 C 1491.31 4.78795 -4.20755 0
M  V30 15922 C 1488.99 4.97728 -3.54556 0
M  V30 15923 C 1489.99 5.13499 -4.50342 0
M  V30 15924 O 1489.68 5.62978 -5.73856 0
M  V30 15925 H 1489.41 0.646608 -0.197165 0
M  V30 15926 H 1491.97 1.67532 -1.18837 0
M  V30 15927 H 1490.2 3.86489 0.127719 0
M  V30 15928 H 1491.89 4.05146 -0.247308 0
M  V30 15929 H 1492.65 4.00844 -2.73037 0
M  V30 15930 H 1488.53 4.34152 -1.55026 0
M  V30 15931 H 1492.07 4.91019 -4.95526 0
M  V30 15932 H 1487.97 5.24244 -3.76615 0
M  V30 15933 H 1488.74 5.81326 -5.76196 0
M  V30 15934 N 1491.4 0.642663 1.43901 0
M  V30 15935 C 1492.63 0.159202 2.06287 0
M  V30 15936 C 1493.05 -1.17091 1.48105 0
M  V30 15937 O 1492.4 -1.72064 0.608302 0
M  V30 15938 C 1492.45 0.0506891 3.61464 0
M  V30 15939 O 1492.17 1.32821 4.17481 0
M  V30 15940 C 1493.68 -0.460103 4.40906 0
M  V30 15941 H 1490.9 0.085003 0.665594 0
M  V30 15942 H 1493.44 0.880328 1.84582 0
M  V30 15943 H 1491.59 -0.620938 3.82391 0
M  V30 15944 H 1492.01 1.18053 5.11042 0
M  V30 15945 H 1493.48 -0.48501 5.49865 0
M  V30 15946 H 1493.96 -1.4894 4.13175 0
M  V30 15947 H 1494.57 0.178668 4.24925 0
M  V30 15948 N 1492.88 -1.52852 0.383918 0
M  V30 15949 C 1493.84 -2.24904 -0.441687 0
M  V30 15950 C 1494.84 -1.26345 -0.99466 0
M  V30 15951 O 1496.03 -1.50484 -0.877513 0
M  V30 15952 C 1493.17 -2.99994 -1.61915 0
M  V30 15953 H 1494.36 -2.99304 0.189047 0
M  V30 15954 H 1491.91 -1.55708 0.135932 0
M  V30 15955 H 1492.65 -2.29882 -2.28746 0
M  V30 15956 H 1492.43 -3.72328 -1.2294 0
M  V30 15957 H 1493.92 -3.54716 -2.20378 0
M  V30 15958 N 1494.36 -0.113586 -1.5719 0
M  V30 15959 C 1495.61 0.546529 -1.95297 0
M  V30 15960 C 1495.94 1.66674 -0.996671 0
M  V30 15961 O 1495.21 1.94472 -0.0329298 0
M  V30 15962 C 1495.5 1.08433 -3.43387 0
M  V30 15963 C 1495.35 -0.0320929 -4.49789 0
M  V30 15964 C 1496.67 1.97691 -3.932 0
M  V30 15965 H 1493.79 0.197195 -0.710129 0
M  V30 15966 H 1496.43 -0.188048 -1.89067 0
M  V30 15967 H 1494.58 1.71033 -3.48827 0
M  V30 15968 H 1496.25 -0.66716 -4.5645 0
M  V30 15969 H 1494.49 -0.695983 -4.2818 0
M  V30 15970 H 1495.17 0.385341 -5.50653 0
M  V30 15971 H 1497.64 1.4497 -3.90029 0
M  V30 15972 H 1496.52 2.3224 -4.97349 0
M  V30 15973 H 1496.78 2.90137 -3.33576 0
M  V30 15974 N 1495.84 1.56784 0.160173 0
M  V30 15975 C 1496.77 1.93848 1.22293 0
M  V30 15976 C 1497.78 0.832803 1.39886 0
M  V30 15977 O 1498.97 1.11124 1.39692 0
M  V30 15978 C 1496.07 2.18581 2.58989 0
M  V30 15979 C 1495.24 3.49839 2.62548 0
M  V30 15980 C 1494.3 3.63268 3.80687 0
M  V30 15981 O 1493.33 4.35785 3.6617 0
M  V30 15982 N 1494.53 2.98948 4.97605 0
M  V30 15983 H 1497.3 2.85614 0.908004 0
M  V30 15984 H 1494.86 1.58075 0.349851 0
M  V30 15985 H 1496.85 2.24819 3.36509 0
M  V30 15986 H 1495.42 1.33145 2.82827 0
M  V30 15987 H 1494.64 3.5516 1.7104 0
M  V30 15988 H 1495.93 4.3619 2.61945 0
M  V30 15989 H 1495.33 2.39924 5.12302 0
M  V30 15990 H 1493.88 3.10765 5.72947 0
M  V30 15991 N 1497.32 -0.429099 1.51646 0
M  V30 15992 C 1498.73 -1.00868 1.57107 0
M  V30 15993 C 1499.08 -1.9209 0.399483 0
M  V30 15994 O 1498.2 -2.10948 -0.482709 0
M  V30 15995 C 1498.8 -1.83612 2.84732 0
M  V30 15996 C 1497.36 -2.36605 2.92737 0
M  V30 15997 C 1496.5 -1.1604 2.51853 0
M  V30 15998 H 1499.45 -0.21006 1.57304 0
M  V30 15999 H 1499.48 -2.69149 2.68959 0
M  V30 16000 H 1498.99 -1.17192 3.69983 0
M  V30 16001 H 1497.09 -3.06455 2.11934 0
M  V30 16002 H 1497.2 -2.68838 3.96564 0
M  V30 16003 H 1495.57 -1.50826 2.0524 0
M  V30 16004 H 1496.35 -0.51218 3.39458 0
M  V30 16005 N 1498.79 -1.41931 -0.685074 0
M  V30 16006 C 1499.74 -1.44824 -1.82013 0
M  V30 16007 C 1500.74 -0.325083 -1.66252 0
M  V30 16008 O 1501.94 -0.497614 -1.72985 0
M  V30 16009 H 1498.32 -0.453362 -0.599972 0
M  V30 16010 H 1500.29 -2.40464 -1.76691 0
M  V30 16011 C 1499.04 -1.35753 -3.20104 0
M  V30 16012 H 1498.36 -2.21469 -3.32854 0
M  V30 16013 H 1499.8 -1.41838 -3.99572 0
M  V30 16014 C 1498.26 -0.0710816 -3.36825 0
M  V30 16015 O 1498.79 0.880155 -3.91939 0
M  V30 16016 N 1496.99 0.00842652 -2.90599 0
M  V30 16017 H 1496.54 -0.766427 -2.45934 0
M  V30 16018 H 1496.5 0.868559 -3.02165 0
M  V30 16019 N 1500.27 0.920374 -1.27933 0
M  V30 16020 C 1501.18 2.05525 -1.13123 0
M  V30 16021 C 1502.2 1.73899 -0.059421 0
M  V30 16022 O 1503.37 1.99617 -0.267386 0
M  V30 16023 C 1500.44 3.37637 -0.787551 0
M  V30 16024 C 1499.5 3.82914 -1.94101 0
M  V30 16025 C 1498.73 5.08721 -1.61364 0
M  V30 16026 O 1498.96 5.6798 -0.524918 0
M  V30 16027 O 1497.89 5.4955 -2.45517 0
M  V30 16028 H 1501.72 2.20935 -2.08378 0
M  V30 16029 H 1499.3 1.04071 -1.07189 0
M  V30 16030 H 1501.18 4.16968 -0.609544 0
M  V30 16031 H 1499.86 3.23417 0.135407 0
M  V30 16032 H 1498.76 3.04438 -2.17413 0
M  V30 16033 H 1500.1 4.01687 -2.84444 0
M  V30 16034 N 1501.75 1.10074 1.1279 0
M  V30 16035 C 1503 0.839212 1.83852 0
M  V30 16036 C 1503.32 -0.637023 1.84301 0
M  V30 16037 O 1502.59 -1.46239 1.30349 0
M  V30 16038 H 1501.17 0.307468 0.680788 0
M  V30 16039 H 1503.83 1.39025 1.36595 0
M  V30 16040 H 1502.93 1.19872 2.88162 0
M  V30 16041 N 1503.23 -1.30138 0.888926 0
M  V30 16042 C 1504.5 -1.90831 0.42928 0
M  V30 16043 C 1504.88 -1.80765 -1.09028 0
M  V30 16044 O 1504.23 -1.22741 -1.92735 0
M  V30 16045 C 1504.44 -3.36331 0.931798 0
M  V30 16046 C 1505.79 -4.13393 0.969106 0
M  V30 16047 O 1506.81 -3.45191 0.878731 0
M  V30 16048 O 1505.67 -5.35249 1.10323 0
M  V30 16049 H 1502.77 -0.816401 0.131976 0
M  V30 16050 H 1505.31 -1.38678 0.978086 0
M  V30 16051 H 1504.09 -3.37761 1.97568 0
M  V30 16052 H 1503.71 -3.95945 0.362383 0
M  V30 16053 N 1504.71 -0.650285 -1.43559 0
M  V30 16054 C 1505.65 0.0550615 -2.32535 0
M  V30 16055 C 1506.65 0.81612 -1.48445 0
M  V30 16056 O 1507.85 0.726853 -1.64672 0
M  V30 16057 H 1504.23 0.0365887 -0.751109 0
M  V30 16058 H 1506.2 -0.713146 -2.89753 0
M  V30 16059 C 1504.95 1.00982 -3.32713 0
M  V30 16060 H 1504.27 0.433626 -3.97441 0
M  V30 16061 H 1505.71 1.47249 -3.9761 0
M  V30 16062 C 1504.17 2.10442 -2.63089 0
M  V30 16063 O 1504.7 3.18782 -2.44419 0
M  V30 16064 N 1502.91 1.86915 -2.22511 0
M  V30 16065 H 1502.45 0.988113 -2.37895 0
M  V30 16066 H 1502.41 2.60348 -1.76256 0
M  V30 16067 N 1506.18 1.52647 -0.392018 0
M  V30 16068 C 1507.46 1.94034 0.247004 0
M  V30 16069 C 1507.84 1.32767 1.64122 0
M  V30 16070 O 1507.19 0.496822 2.23033 0
M  V30 16071 C 1507.4 3.47949 0.270615 0
M  V30 16072 C 1508.75 4.21666 0.498256 0
M  V30 16073 O 1509.77 3.54469 0.350708 0
M  V30 16074 O 1508.63 5.40795 0.787586 0
M  V30 16075 H 1505.72 0.812487 0.154251 0
M  V30 16076 H 1508.27 1.63715 -0.446723 0
M  V30 16077 H 1507.04 3.84881 -0.705862 0
M  V30 16078 H 1506.66 3.8458 1.00915 0
M  V30 16079 N 1507.66 0.121921 1.57128 0
M  V30 16080 C 1508.89 -0.542225 1.99358 0
M  V30 16081 C 1509.3 -1.60578 1.00057 0
M  V30 16082 O 1508.64 -1.83694 -0.0142649 0
M  V30 16083 C 1508.71 -1.22448 3.38004 0
M  V30 16084 C 1508.37 -0.308522 4.55957 0
M  V30 16085 C 1509.37 0.454012 5.17914 0
M  V30 16086 C 1507.05 -0.218741 5.01823 0
M  V30 16087 C 1509.05 1.29403 6.24126 0
M  V30 16088 C 1506.73 0.624906 6.07896 0
M  V30 16089 C 1507.73 1.37992 6.68915 0
M  V30 16090 O 1507.42 2.20955 7.72938 0
M  V30 16091 H 1507.15 -0.147894 0.659624 0
M  V30 16092 H 1509.7 0.205954 2.04365 0
M  V30 16093 H 1507.93 -2.01979 3.2976 0
M  V30 16094 H 1509.62 -1.78583 3.64504 0
M  V30 16095 H 1510.39 0.394539 4.83393 0
M  V30 16096 H 1506.27 -0.796109 4.54074 0
M  V30 16097 H 1509.81 1.88382 6.71683 0
M  V30 16098 H 1505.71 0.685762 6.41847 0
M  V30 16099 H 1506.48 2.13929 7.90049 0
M  V30 16100 N 1509.14 -1.56867 -0.151857 0
M  V30 16101 C 1510.39 -1.82273 -0.863689 0
M  V30 16102 C 1510.7 -0.702377 -1.82554 0
M  V30 16103 O 1511.91 -0.841903 -2.58117 0
M  V30 16104 C 1510.36 -3.23046 -1.58649 0
M  V30 16105 C 1509.97 -4.43003 -0.667292 0
M  V30 16106 C 1511.72 -3.57729 -2.28539 0
M  V30 16107 C 1509.62 -5.74798 -1.39144 0
M  V30 16108 H 1508.55 -0.679753 -0.326269 0
M  V30 16109 H 1511.2 -1.8313 -0.116454 0
M  V30 16110 H 1509.59 -3.16561 -2.37918 0
M  V30 16111 H 1510.76 -4.60712 0.0898254 0
M  V30 16112 H 1509.08 -4.16329 -0.0770521 0
M  V30 16113 H 1511.67 -4.53451 -2.83348 0
M  V30 16114 H 1512.02 -2.8355 -3.04803 0
M  V30 16115 H 1512.55 -3.65853 -1.56194 0
M  V30 16116 H 1509.29 -6.52059 -0.670747 0
M  V30 16117 H 1508.81 -5.61032 -2.12139 0
M  V30 16118 H 1510.49 -6.17429 -1.93367 0
M  V30 16119 N 1510.62 0.421051 -1.51871 0
M  V30 16120 C 1511.87 1.16611 -1.64574 0
M  V30 16121 C 1512.18 1.91955 -0.375835 0
M  V30 16122 O 1513.39 2.68792 -0.382481 0
M  V30 16123 C 1511.84 2.12164 -2.90714 0
M  V30 16124 C 1511.45 1.42392 -4.24769 0
M  V30 16125 C 1513.19 2.87002 -3.12778 0
M  V30 16126 C 1511.1 2.36523 -5.42043 0
M  V30 16127 H 1510.03 0.438989 -0.613029 0
M  V30 16128 H 1512.68 0.431636 -1.78351 0
M  V30 16129 H 1511.06 2.89114 -2.70608 0
M  V30 16130 H 1512.24 0.708875 -4.55315 0
M  V30 16131 H 1510.55 0.796421 -4.08713 0
M  V30 16132 H 1513.15 3.5755 -3.9757 0
M  V30 16133 H 1513.49 3.49277 -2.2652 0
M  V30 16134 H 1514.03 2.17154 -3.333 0
M  V30 16135 H 1510.77 1.78913 -6.30611 0
M  V30 16136 H 1510.29 3.06034 -5.15852 0
M  V30 16137 H 1511.96 2.97306 -5.74646 0
M  V30 16138 N 1512.1 1.42293 0.677538 0
M  V30 16139 C 1513.51 1.37948 1.25806 0
M  V30 16140 C 1513.86 0.071408 1.9607 0
M  V30 16141 O 1512.98 -0.829921 1.99853 0
M  V30 16142 C 1513.58 2.49875 2.28797 0
M  V30 16143 C 1512.14 2.48872 2.82382 0
M  V30 16144 C 1511.28 2.28804 1.56665 0
M  V30 16145 H 1514.24 1.51546 0.471102 0
M  V30 16146 H 1514.26 2.19969 3.10474 0
M  V30 16147 H 1513.77 3.45065 1.77629 0
M  V30 16148 H 1511.87 1.57492 3.37679 0
M  V30 16149 H 1511.98 3.45816 3.31585 0
M  V30 16150 H 1510.35 1.77014 1.83135 0
M  V30 16151 H 1511.13 3.26046 1.07467 0
M  V30 16152 N 1513.57 -0.913576 1.28419 0
M  V30 16153 C 1514.5 -2.03275 1.14897 0
M  V30 16154 C 1515.49 -1.70036 0.0467034 0
M  V30 16155 O 1516.67 -1.92907 0.223725 0
M  V30 16156 C 1513.8 -3.37717 0.810217 0
M  V30 16157 C 1512.75 -3.85119 1.86728 0
M  V30 16158 C 1512.08 -5.16527 1.38215 0
M  V30 16159 C 1513.38 -4.06959 3.27386 0
M  V30 16160 H 1515.07 -2.14847 2.08522 0
M  V30 16161 H 1512.62 -1.03233 1.00394 0
M  V30 16162 H 1514.57 -4.15505 0.702382 0
M  V30 16163 H 1513.3 -3.26199 -0.161732 0
M  V30 16164 H 1511.96 -3.09536 1.96426 0
M  V30 16165 H 1511.6 -5.01413 0.399263 0
M  V30 16166 H 1511.3 -5.49213 2.08898 0
M  V30 16167 H 1512.83 -5.96871 1.28754 0
M  V30 16168 H 1514.24 -4.75272 3.20608 0
M  V30 16169 H 1512.64 -4.50977 3.95904 0
M  V30 16170 H 1513.71 -3.11764 3.71391 0
M  V30 16171 N 1515.05 -1.1067 -1.12204 0
M  V30 16172 C 1516.46 -0.867959 -1.65298 0
M  V30 16173 C 1516.81 0.601297 -1.86759 0
M  V30 16174 O 1515.94 1.46153 -1.59588 0
M  V30 16175 C 1516.53 -1.56906 -3.00276 0
M  V30 16176 C 1515.09 -1.37696 -3.5031 0
M  V30 16177 C 1514.24 -1.61688 -2.25282 0
M  V30 16178 H 1517.19 -1.26408 -0.959521 0
M  V30 16179 H 1517.21 -1.00947 -3.66865 0
M  V30 16180 H 1516.72 -2.63838 -2.84625 0
M  V30 16181 H 1514.83 -0.329381 -3.71141 0
M  V30 16182 H 1514.94 -2.12058 -4.29614 0
M  V30 16183 H 1513.3 -1.03977 -2.3251 0
M  V30 16184 H 1514.09 -2.69877 -2.12182 0
M  V30 16185 N 1516.53 1.29665 -0.895815 0
M  V30 16186 C 1517.81 1.90601 -0.439394 0
M  V30 16187 C 1518.19 1.81341 1.08068 0
M  V30 16188 O 1517.54 1.23761 1.92082 0
M  V30 16189 C 1517.75 3.35832 -0.949622 0
M  V30 16190 C 1519.09 4.12873 -0.991015 0
M  V30 16191 O 1520.12 3.4472 -0.897025 0
M  V30 16192 O 1518.98 5.34656 -1.1316 0
M  V30 16193 H 1516.07 0.81569 -0.136304 0
M  V30 16194 H 1518.62 1.38157 -0.985426 0
M  V30 16195 H 1517.39 3.36708 -1.99357 0
M  V30 16196 H 1517.01 3.95747 -0.383376 0
M  V30 16197 N 1518.01 0.657889 1.43212 0
M  V30 16198 C 1519.42 0.252443 1.84985 0
M  V30 16199 C 1519.77 -1.20196 1.55072 0
M  V30 16200 O 1518.9 -1.91803 1.00202 0
M  V30 16201 C 1519.49 0.451388 3.3578 0
M  V30 16202 C 1518.05 0.100219 3.76267 0
M  V30 16203 C 1517.2 0.752009 2.66908 0
M  V30 16204 H 1520.15 0.861239 1.33298 0
M  V30 16205 H 1520.17 -0.30169 3.79302 0
M  V30 16206 H 1519.68 1.51001 3.5752 0
M  V30 16207 H 1517.78 -0.955618 3.60137 0
M  V30 16208 H 1517.89 0.528942 4.76171 0
M  V30 16209 H 1516.26 0.184823 2.54029 0
M  V30 16210 H 1517.04 1.81375 2.91476 0
M  V30 16211 N 1519.49 -1.52437 0.400108 0
M  V30 16212 C 1520.43 -2.26763 -0.429799 0
M  V30 16213 C 1521.4 -1.28808 -1.0487 0
M  V30 16214 O 1522.59 -1.57655 -1.07468 0
M  V30 16215 C 1519.73 -3.08564 -1.54539 0
M  V30 16216 C 1518.84 -4.21463 -0.948294 0
M  V30 16217 C 1517.98 -4.9064 -2.03584 0
M  V30 16218 C 1517.02 -5.95515 -1.4152 0
M  V30 16219 N 1516.15 -6.58245 -2.4425 0
M  V30 16220 H 1520.99 -2.97256 0.210467 0
M  V30 16221 H 1518.53 -1.46645 0.115627 0
M  V30 16222 H 1520.49 -3.54289 -2.20307 0
M  V30 16223 H 1519.12 -2.40259 -2.15582 0
M  V30 16224 H 1518.17 -3.79974 -0.179918 0
M  V30 16225 H 1519.48 -4.96722 -0.454845 0
M  V30 16226 H 1518.64 -5.39724 -2.77097 0
M  V30 16227 H 1517.37 -4.14929 -2.56291 0
M  V30 16228 H 1516.38 -5.45759 -0.665354 0
M  V30 16229 H 1517.6 -6.73164 -0.89593 0
M  V30 16230 H 1515.55 -5.85369 -2.96107 0
M  V30 16231 H 1515.47 -7.2915 -1.99692 0
M  V30 16232 H 1516.74 -7.1197 -3.17362 0
M  V30 16233 N 1520.96 -0.130252 -1.57061 0
M  V30 16234 C 1522.38 0.393318 -1.8251 0
M  V30 16235 C 1522.73 1.65862 -1.04806 0
M  V30 16236 O 1521.85 2.14473 -0.288118 0
M  V30 16237 C 1522.45 0.720366 -3.31053 0
M  V30 16238 C 1521.01 1.18852 -3.57143 0
M  V30 16239 C 1520.15 0.202964 -2.76556 0
M  V30 16240 H 1523.1 -0.355217 -1.54674 0
M  V30 16241 H 1523.12 1.57671 -3.46295 0
M  V30 16242 H 1522.64 -0.200719 -3.87581 0
M  V30 16243 H 1520.74 2.12612 -3.05985 0
M  V30 16244 H 1520.85 1.12607 -4.65678 0
M  V30 16245 H 1519.21 0.692264 -2.45112 0
M  V30 16246 H 1520 -0.711417 -3.35848 0
M  V30 16247 N 1522.44 1.56945 0.143535 0
M  V30 16248 C 1523.35 2.01795 1.1965 0
M  V30 16249 C 1524.37 0.933965 1.4681 0
M  V30 16250 O 1525.55 1.2437 1.58411 0
M  V30 16251 C 1522.61 2.39249 2.5092 0
M  V30 16252 C 1521.67 3.61613 2.31376 0
M  V30 16253 C 1520.9 3.97271 3.56386 0
M  V30 16254 O 1521.13 3.33552 4.62709 0
M  V30 16255 O 1520.06 4.90501 3.48844 0
M  V30 16256 H 1523.89 2.91687 0.845718 0
M  V30 16257 H 1521.47 1.45182 0.352518 0
M  V30 16258 H 1523.35 2.64184 3.28306 0
M  V30 16259 H 1522.03 1.52511 2.85521 0
M  V30 16260 H 1520.94 3.4186 1.51929 0
M  V30 16261 H 1522.27 4.48979 2.01689 0
M  V30 16262 N 1523.92 -0.412991 1.52093 0
M  V30 16263 C 1525.17 -1.16202 1.66208 0
M  V30 16264 C 1525.5 -1.90265 0.388957 0
M  V30 16265 O 1524.78 -1.84605 -0.612477 0
M  V30 16266 C 1525.06 -2.15958 2.88157 0
M  V30 16267 C 1524.91 -1.45817 4.25509 0
M  V30 16268 C 1526.23 -3.16671 3.05626 0
M  V30 16269 H 1523.35 -0.421083 0.604862 0
M  V30 16270 H 1525.99 -0.448212 1.84638 0
M  V30 16271 H 1524.14 -2.76831 2.72574 0
M  V30 16272 H 1525.81 -0.880925 4.52811 0
M  V30 16273 H 1524.06 -0.760175 4.27088 0
M  V30 16274 H 1524.73 -2.18587 5.06877 0
M  V30 16275 H 1527.2 -2.65871 3.20081 0
M  V30 16276 H 1526.08 -3.83739 3.92474 0
M  V30 16277 H 1526.34 -3.84178 2.18769 0
M  V30 16278 N 1525.4 -1.4265 -0.669982 0
M  V30 16279 C 1526.36 -1.46196 -1.7652 0
M  V30 16280 C 1527.36 -0.348884 -1.5697 0
M  V30 16281 O 1528.55 -0.609921 -1.63174 0
M  V30 16282 C 1525.68 -1.29829 -3.1521 0
M  V30 16283 H 1526.88 -2.43718 -1.74762 0
M  V30 16284 H 1524.43 -1.29168 -0.88007 0
M  V30 16285 H 1525.17 -0.332493 -3.22591 0
M  V30 16286 H 1524.95 -2.10501 -3.30804 0
M  V30 16287 H 1526.44 -1.35205 -3.95107 0
M  V30 16288 N 1526.88 0.906753 -1.28902 0
M  V30 16289 C 1528.15 1.63637 -1.07155 0
M  V30 16290 C 1528.53 2.07527 0.386727 0
M  V30 16291 O 1527.88 1.82562 1.37417 0
M  V30 16292 C 1528.09 2.82256 -2.05263 0
M  V30 16293 C 1529.44 3.53109 -2.35794 0
M  V30 16294 O 1530.46 2.92414 -2.03402 0
M  V30 16295 O 1529.32 4.62512 -2.91109 0
M  V30 16296 H 1526.42 0.718194 -0.410032 0
M  V30 16297 H 1528.96 0.955442 -1.40248 0
M  V30 16298 H 1527.74 2.46968 -3.03517 0
M  V30 16299 H 1527.36 3.58059 -1.72857 0
M  V30 16300 N 1528.36 1.11264 1.11616 0
M  V30 16301 C 1529.27 0.781961 2.21184 0
M  V30 16302 C 1530.28 -0.224149 1.7255 0
M  V30 16303 O 1531.46 -0.0607743 2.01308 0
M  V30 16304 C 1528.52 0.228031 3.45949 0
M  V30 16305 C 1527.58 1.29251 4.09381 0
M  V30 16306 C 1526.82 0.764921 5.2819 0
M  V30 16307 O 1527.04 -0.405671 5.68956 0
M  V30 16308 O 1525.97 1.52886 5.82159 0
M  V30 16309 H 1529.8 1.69678 2.51879 0
M  V30 16310 H 1527.38 0.888394 1.20116 0
M  V30 16311 H 1529.27 -0.0766085 4.2133 0
M  V30 16312 H 1527.94 -0.659519 3.1691 0
M  V30 16313 H 1526.85 1.65014 3.3574 0
M  V30 16314 H 1528.18 2.15339 4.42595 0
M  V30 16315 N 1529.83 -1.29188 0.902679 0
M  V30 16316 C 1531.08 -1.95052 0.529076 0
M  V30 16317 C 1531.4 -1.7149 -0.92824 0
M  V30 16318 O 1530.67 -1.04834 -1.65489 0
M  V30 16319 H 1529.25 -0.721725 0.192671 0
M  V30 16320 H 1531.91 -1.57384 1.14962 0
M  V30 16321 H 1531.01 -3.03819 0.714179 0
M  V30 16322 N 1531.31 -0.665475 -1.42861 0
M  V30 16323 C 1532.72 -0.26225 -1.84849 0
M  V30 16324 C 1533.07 1.19372 -1.55707 0
M  V30 16325 O 1532.2 1.91269 -1.01218 0
M  V30 16326 C 1532.79 -0.469189 -3.35535 0
M  V30 16327 C 1531.35 -0.120172 -3.76208 0
M  V30 16328 C 1530.5 -0.766153 -2.66506 0
M  V30 16329 H 1533.45 -0.868296 -1.32839 0
M  V30 16330 H 1533.47 0.281571 -3.79457 0
M  V30 16331 H 1532.98 -1.52894 -3.56714 0
M  V30 16332 H 1531.08 0.936505 -3.60639 0
M  V30 16333 H 1531.2 -0.554188 -4.75884 0
M  V30 16334 H 1529.56 -0.198292 -2.53927 0
M  V30 16335 H 1530.34 -1.82918 -2.9051 0
M  V30 16336 N 1532.79 1.52222 -0.408187 0
M  V30 16337 C 1533.72 2.29892 0.408868 0
M  V30 16338 C 1534.7 1.34063 1.04695 0
M  V30 16339 O 1535.89 1.6297 1.05615 0
M  V30 16340 C 1533.02 3.11964 1.52629 0
M  V30 16341 C 1531.97 4.15833 1.01326 0
M  V30 16342 C 1531.3 4.86244 2.2242 0
M  V30 16343 C 1532.6 5.22256 0.0679573 0
M  V30 16344 H 1534.29 2.98443 -0.23923 0
M  V30 16345 H 1531.84 1.43528 -0.116496 0
M  V30 16346 H 1533.79 3.65067 2.10486 0
M  V30 16347 H 1532.51 2.41181 2.20225 0
M  V30 16348 H 1531.17 3.63739 0.4571 0
M  V30 16349 H 1530.82 4.11991 2.88569 0
M  V30 16350 H 1530.52 5.56461 1.88746 0
M  V30 16351 H 1532.04 5.42159 2.80885 0
M  V30 16352 H 1533.46 5.70604 0.555295 0
M  V30 16353 H 1531.85 5.9983 -0.179934 0
M  V30 16354 H 1532.92 4.76892 -0.877599 0
M  V30 16355 N 1534.27 0.138579 1.5699 0
M  V30 16356 C 1535.18 -0.817548 2.19894 0
M  V30 16357 C 1536.19 -1.27806 1.18075 0
M  V30 16358 O 1537.37 -1.33699 1.5062 0
M  V30 16359 C 1534.43 -2.04244 2.80152 0
M  V30 16360 C 1533.5 -1.63197 3.97071 0
M  V30 16361 C 1532.73 -2.79847 4.54446 0
M  V30 16362 O 1532.95 -3.95827 4.10703 0
M  V30 16363 O 1531.89 -2.55804 5.44838 0
M  V30 16364 H 1535.71 -0.312123 3.02092 0
M  V30 16365 H 1533.3 -0.0880281 1.4914 0
M  V30 16366 H 1535.18 -2.75945 3.18485 0
M  V30 16367 H 1533.85 -2.53755 2.00973 0
M  V30 16368 H 1532.76 -0.885448 3.6347 0
M  V30 16369 H 1534.09 -1.1841 4.77745 0
M  V30 16370 N 1535.75 -1.57019 -0.13521 0
M  V30 16371 C 1536.99 -1.83626 -0.844147 0
M  V30 16372 C 1537.31 -0.721298 -1.81169 0
M  V30 16373 O 1536.58 0.256095 -1.94219 0
M  V30 16374 H 1535.16 -0.677464 -0.314725 0
M  V30 16375 H 1537.83 -1.9449 -0.126399 0
M  V30 16376 H 1536.92 -2.78976 -1.39925 0
M  V30 16377 N 1537.22 0.404919 -1.52309 0
M  V30 16378 C 1538.45 1.17764 -1.70723 0
M  V30 16379 C 1538.87 1.83403 -0.417744 0
M  V30 16380 O 1538.23 1.70181 0.625157 0
M  V30 16381 C 1538.28 2.2133 -2.84685 0
M  V30 16382 O 1537.38 3.27566 -2.50548 0
M  V30 16383 H 1536.73 0.343572 -0.568203 0
M  V30 16384 H 1539.26 0.474093 -1.99031 0
M  V30 16385 H 1539.27 2.6559 -3.09719 0
M  V30 16386 H 1537.94 1.72939 -3.78239 0
M  V30 16387 H 1536.52 2.88556 -2.36199 0
M  V30 16388 N 1538.7 1.43003 0.662408 0
M  V30 16389 C 1540.11 1.39275 1.24336 0
M  V30 16390 C 1540.46 0.0921999 1.95983 0
M  V30 16391 O 1539.59 -0.808677 2.00722 0
M  V30 16392 C 1540.18 2.52287 2.26134 0
M  V30 16393 C 1538.74 2.51853 2.79727 0
M  V30 16394 C 1537.89 2.30453 1.5423 0
M  V30 16395 H 1540.84 1.52038 0.455002 0
M  V30 16396 H 1540.86 2.23249 3.08123 0
M  V30 16397 H 1540.37 3.46929 1.73959 0
M  V30 16398 H 1538.48 1.61064 3.3599 0
M  V30 16399 H 1538.59 3.49313 3.27898 0
M  V30 16400 H 1536.95 1.78946 1.81247 0
M  V30 16401 H 1537.74 3.27167 1.04003 0
M  V30 16402 N 1540.18 -0.899904 1.29381 0
M  V30 16403 C 1541.41 -1.68911 1.20349 0
M  V30 16404 C 1541.83 -1.86657 -0.232523 0
M  V30 16405 O 1541.19 -1.38674 -1.16787 0
M  V30 16406 C 1541.24 -3.05124 1.92177 0
M  V30 16407 O 1540.34 -3.93358 1.23867 0
M  V30 16408 H 1539.68 -0.516698 0.417036 0
M  V30 16409 H 1542.21 -1.12422 1.70946 0
M  V30 16410 H 1542.22 -3.55267 2.00623 0
M  V30 16411 H 1540.9 -2.91525 2.96624 0
M  V30 16412 H 1539.47 -3.51793 1.23677 0
M  V30 16413 N 1541.66 -1.11854 -1.11024 0
M  V30 16414 C 1542.59 -0.803129 -2.19253 0
M  V30 16415 C 1543.57 0.230417 -1.68532 0
M  V30 16416 O 1544.75 0.0929421 -1.93977 0
M  V30 16417 C 1541.88 -0.250265 -3.46397 0
M  V30 16418 C 1540.84 -1.21617 -4.10357 0
M  V30 16419 C 1540.16 -0.523821 -5.32128 0
M  V30 16420 C 1541.46 -2.56852 -4.54779 0
M  V30 16421 H 1543.16 -1.7081 -2.45895 0
M  V30 16422 H 1540.7 -0.822712 -1.18184 0
M  V30 16423 H 1542.66 -0.0173732 -4.21396 0
M  V30 16424 H 1541.38 0.690018 -3.19228 0
M  V30 16425 H 1540.04 -1.43477 -3.37357 0
M  V30 16426 H 1539.69 0.421408 -5.01232 0
M  V30 16427 H 1539.39 -1.16809 -5.75873 0
M  V30 16428 H 1540.91 -0.299823 -6.09863 0
M  V30 16429 H 1542.33 -2.39056 -5.21081 0
M  V30 16430 H 1540.72 -3.17301 -5.09353 0
M  V30 16431 H 1541.79 -3.15751 -3.68007 0
M  V30 16432 N 1543.14 1.28707 -0.909517 0
M  V30 16433 C 1544.1 2.25692 -0.39946 0
M  V30 16434 C 1545.1 1.53721 0.471848 0
M  V30 16435 O 1546.29 1.72008 0.275504 0
M  V30 16436 C 1543.42 3.38205 0.427793 0
M  V30 16437 H 1544.61 2.72326 -1.25613 0
M  V30 16438 H 1542.17 1.40317 -0.688535 0
M  V30 16439 H 1542.9 2.96926 1.30404 0
M  V30 16440 H 1542.69 3.91606 -0.19667 0
M  V30 16441 H 1544.18 4.10334 0.775634 0
M  V30 16442 N 1544.61 0.673042 1.42506 0
M  V30 16443 C 1545.84 0.201349 2.0642 0
M  V30 16444 C 1546.26 -1.132 1.50224 0
M  V30 16445 O 1545.62 -1.70368 0.620024 0
M  V30 16446 C 1545.67 0.14505 3.60308 0
M  V30 16447 O 1544.77 -0.886953 4.02749 0
M  V30 16448 H 1544.12 0.103975 0.655809 0
M  V30 16449 H 1546.65 0.921559 1.8267 0
M  V30 16450 H 1546.66 -0.0316792 4.07988 0
M  V30 16451 H 1545.33 1.11829 4.00583 0
M  V30 16452 H 1543.91 -0.681408 3.66621 0
M  V30 16453 N 1546.09 -1.52004 0.416254 0
M  V30 16454 C 1547.32 -2.0679 -0.158937 0
M  V30 16455 C 1547.74 -1.28366 -1.37491 0
M  V30 16456 O 1547.1 -0.315815 -1.78528 0
M  V30 16457 C 1547.15 -3.57381 -0.480717 0
M  V30 16458 O 1546.25 -3.81321 -1.5706 0
M  V30 16459 H 1545.59 -0.663907 -0.0110938 0
M  V30 16460 H 1548.12 -1.95863 0.591509 0
M  V30 16461 H 1548.13 -4.01283 -0.737297 0
M  V30 16462 H 1546.81 -4.13893 0.408137 0
M  V30 16463 H 1545.39 -3.49296 -1.30563 0
M  V30 16464 N 1547.57 -0.146903 -1.56914 0
M  V30 16465 C 1548.8 0.511181 -2.00486 0
M  V30 16466 C 1549.21 1.58425 -1.02699 0
M  V30 16467 O 1548.57 1.82484 -0.0239878 0
M  V30 16468 C 1548.62 1.11191 -3.43975 0
M  V30 16469 O 1548.34 0.0817094 -4.38024 0
M  V30 16470 C 1549.84 1.85061 -4.02824 0
M  V30 16471 H 1547.06 0.133078 -0.657671 0
M  V30 16472 H 1549.61 -0.241457 -2.0307 0
M  V30 16473 H 1547.76 1.81517 -3.42243 0
M  V30 16474 H 1548.18 0.52181 -5.21898 0
M  V30 16475 H 1549.65 2.22385 -5.05222 0
M  V30 16476 H 1550.13 2.73649 -3.4353 0
M  V30 16477 H 1550.73 1.19434 -4.08186 0
M  V30 16478 N 1549.05 1.57088 0.126881 0
M  V30 16479 C 1549.98 2.02799 1.15737 0
M  V30 16480 C 1550.96 0.911031 1.43646 0
M  V30 16481 O 1552.14 1.18021 1.54223 0
M  V30 16482 C 1549.27 2.42565 2.48555 0
M  V30 16483 C 1548.23 3.57631 2.35125 0
M  V30 16484 C 1547.55 3.83272 3.72836 0
M  V30 16485 C 1548.85 4.89625 1.81838 0
M  V30 16486 H 1550.55 2.89136 0.777207 0
M  V30 16487 H 1548.09 1.39101 0.372416 0
M  V30 16488 H 1550.05 2.73146 3.20888 0
M  V30 16489 H 1548.77 1.53188 2.88446 0
M  V30 16490 H 1547.43 3.27247 1.65242 0
M  V30 16491 H 1547.08 2.91114 4.10197 0
M  V30 16492 H 1546.78 4.60721 3.64705 0
M  V30 16493 H 1548.3 4.16298 4.46686 0
M  V30 16494 H 1549.72 5.18793 2.43981 0
M  V30 16495 H 1548.11 5.71018 1.84548 0
M  V30 16496 H 1549.18 4.7866 0.775385 0
M  V30 16497 N 1550.53 -0.396836 1.52522 0
M  V30 16498 C 1551.47 -1.50474 1.77371 0
M  V30 16499 C 1552.47 -1.56792 0.641307 0
M  V30 16500 O 1553.67 -1.60052 0.823621 0
M  V30 16501 H 1550.05 -0.500667 0.561103 0
M  V30 16502 H 1552.02 -1.26706 2.70163 0
M  V30 16503 C 1550.77 -2.87702 1.95251 0
M  V30 16504 H 1550.09 -2.83588 2.81812 0
M  V30 16505 H 1551.53 -3.64482 2.16631 0
M  V30 16506 C 1549.99 -3.29053 0.722904 0
M  V30 16507 O 1550.52 -4.01567 -0.103398 0
M  V30 16508 N 1548.73 -2.85246 0.555263 0
M  V30 16509 H 1548.27 -2.26403 1.22879 0
M  V30 16510 H 1548.23 -3.13272 -0.266113 0
M  V30 16511 N 1552.01 -1.43353 -0.654814 0
M  V30 16512 C 1552.92 -1.50831 -1.79687 0
M  V30 16513 C 1553.93 -0.395518 -1.69445 0
M  V30 16514 O 1555.11 -0.649408 -1.90643 0
M  V30 16515 C 1552.17 -1.42735 -3.15955 0
M  V30 16516 C 1551.23 -2.64671 -3.38005 0
M  V30 16517 C 1550.47 -2.56952 -4.67773 0
M  V30 16518 O 1550.69 -1.61638 -5.47019 0
M  V30 16519 O 1549.62 -3.47425 -4.91507 0
M  V30 16520 H 1553.45 -2.47266 -1.76333 0
M  V30 16521 H 1551.03 -1.25336 -0.813095 0
M  V30 16522 H 1552.92 -1.40656 -3.97233 0
M  V30 16523 H 1551.59 -0.494334 -3.19903 0
M  V30 16524 H 1550.5 -2.72323 -2.56498 0
M  V30 16525 H 1551.83 -3.5694 -3.38903 0
M  V30 16526 N 1553.48 0.89303 -1.29857 0
M  V30 16527 C 1554.73 1.64657 -1.18389 0
M  V30 16528 C 1555.06 1.92417 0.262587 0
M  V30 16529 O 1554.34 1.53936 1.18887 0
M  V30 16530 C 1554.62 2.99148 -2.00456 0
M  V30 16531 C 1554.47 2.78411 -3.53281 0
M  V30 16532 C 1555.79 3.99968 -1.83613 0
M  V30 16533 H 1552.91 0.59752 -0.431438 0
M  V30 16534 H 1555.55 1.03397 -1.59402 0
M  V30 16535 H 1553.7 3.51435 -1.65607 0
M  V30 16536 H 1555.38 2.32974 -3.98147 0
M  V30 16537 H 1553.62 2.13067 -3.77869 0
M  V30 16538 H 1554.29 3.74008 -4.05983 0
M  V30 16539 H 1556.77 3.56813 -2.14064 0
M  V30 16540 H 1555.64 4.91997 -2.43373 0
M  V30 16541 H 1555.9 4.34928 -0.793098 0
M  V30 16542 N 1554.96 1.12442 1.10429 0
M  V30 16543 C 1555.91 0.787578 2.18861 0
M  V30 16544 C 1556.9 -0.225602 1.67891 0
M  V30 16545 O 1558.11 -0.0838029 1.79805 0
M  V30 16546 H 1554.48 0.236858 0.713724 0
M  V30 16547 H 1556.46 1.71048 2.4451 0
M  V30 16548 C 1555.2 0.25854 3.46737 0
M  V30 16549 H 1554.53 1.02945 3.86319 0
M  V30 16550 H 1555.97 0.0611642 4.23956 0
M  V30 16551 C 1554.43 -1.01353 3.21293 0
M  V30 16552 O 1554.96 -2.09132 3.42967 0
M  V30 16553 N 1553.16 -0.940498 2.7496 0
M  V30 16554 H 1552.71 -0.0632962 2.57522 0
M  V30 16555 H 1552.67 -1.79226 2.58313 0
M  V30 16556 N 1556.44 -1.28223 0.91633 0
M  V30 16557 C 1557.67 -1.98986 0.566772 0
M  V30 16558 C 1558.08 -1.68455 -0.852553 0
M  V30 16559 O 1557.44 -0.938734 -1.56506 0
M  V30 16560 C 1557.49 -3.53217 0.769423 0
M  V30 16561 O 1557.21 -3.82674 2.1329 0
M  V30 16562 C 1558.71 -4.41238 0.427043 0
M  V30 16563 H 1555.93 -0.63534 0.215834 0
M  V30 16564 H 1558.48 -1.63357 1.23024 0
M  V30 16565 H 1556.63 -3.87098 0.152915 0
M  V30 16566 H 1557.05 -4.77302 2.17448 0
M  V30 16567 H 1558.52 -5.48512 0.619594 0
M  V30 16568 H 1559 -4.34558 -0.63686 0
M  V30 16569 H 1559.6 -4.12858 1.0212 0
M  V30 16570 N 1557.92 -0.68059 -1.42147 0
M  V30 16571 C 1559.14 -0.212293 -2.06311 0
M  V30 16572 C 1559.57 1.12402 -1.50822 0
M  V30 16573 O 1558.93 1.70037 -0.629051 0
M  V30 16574 C 1558.97 -0.164156 -3.60226 0
M  V30 16575 O 1558.08 0.865582 -4.03214 0
M  V30 16576 H 1557.42 -0.107451 -0.655248 0
M  V30 16577 H 1559.95 -0.931233 -1.82179 0
M  V30 16578 H 1559.96 0.0100422 -4.07999 0
M  V30 16579 H 1558.63 -1.13952 -3.99985 0
M  V30 16580 H 1557.21 0.661955 -3.66978 0
M  V30 16581 N 1559.4 1.51781 -0.424309 0
M  V30 16582 C 1560.62 2.06871 0.147968 0
M  V30 16583 C 1561.05 1.29093 1.36808 0
M  V30 16584 O 1560.4 0.325279 1.78358 0
M  V30 16585 C 1560.45 3.57631 0.461757 0
M  V30 16586 O 1559.56 3.82149 1.55035 0
M  V30 16587 H 1558.9 0.663957 0.00757275 0
M  V30 16588 H 1561.43 1.95547 -0.601888 0
M  V30 16589 H 1561.44 4.01668 0.716005 0
M  V30 16590 H 1560.11 4.1367 -0.430081 0
M  V30 16591 H 1558.69 3.49984 1.28709 0
M  V30 16592 N 1560.87 0.155222 1.56834 0
M  V30 16593 C 1562.1 -0.500542 2.00754 0
M  V30 16594 C 1562.52 -1.57878 1.03538 0
M  V30 16595 O 1561.87 -1.82469 0.0336651 0
M  V30 16596 C 1561.92 -1.09366 3.4456 0
M  V30 16597 O 1561.65 -0.0584788 4.38061 0
M  V30 16598 C 1563.15 -1.82923 4.038 0
M  V30 16599 H 1560.37 -0.129589 0.658368 0
M  V30 16600 H 1562.91 0.252223 2.02939 0
M  V30 16601 H 1561.07 -1.797 3.43201 0
M  V30 16602 H 1561.48 -0.494125 5.22167 0
M  V30 16603 H 1562.95 -2.19703 5.06394 0
M  V30 16604 H 1563.43 -2.71823 3.44976 0
M  V30 16605 H 1564.04 -1.17268 4.08813 0
M  V30 16606 N 1562.35 -1.57153 -0.118549 0
M  V30 16607 C 1563.6 -1.84064 -0.824832 0
M  V30 16608 C 1563.91 -0.740941 -1.81023 0
M  V30 16609 O 1565.12 -0.896464 -2.56273 0
M  V30 16610 C 1563.58 -3.26338 -1.51761 0
M  V30 16611 C 1563.18 -4.44318 -0.573174 0
M  V30 16612 C 1564.93 -3.62496 -2.209 0
M  V30 16613 C 1562.83 -5.7762 -1.2692 0
M  V30 16614 H 1561.76 -0.686521 -0.311777 0
M  V30 16615 H 1564.42 -1.83336 -0.0775833 0
M  V30 16616 H 1562.8 -3.21537 -2.3115 0
M  V30 16617 H 1563.97 -4.60418 0.187529 0
M  V30 16618 H 1562.29 -4.16398 0.0112747 0
M  V30 16619 H 1564.88 -4.5936 -2.73666 0
M  V30 16620 H 1565.23 -2.89952 -2.9872 0
M  V30 16621 H 1565.76 -3.69084 -1.48399 0
M  V30 16622 H 1562.5 -6.53335 -0.532285 0
M  V30 16623 H 1562.02 -5.65406 -2.00191 0
M  V30 16624 H 1563.7 -6.21391 -1.80227 0
M  V30 16625 N 1563.83 0.388742 -1.5273 0
M  V30 16626 C 1565.05 1.15946 -1.71963 0
M  V30 16627 C 1565.48 1.82949 -0.437173 0
M  V30 16628 O 1564.84 1.70834 0.607072 0
M  V30 16629 C 1564.89 2.18298 -2.87016 0
M  V30 16630 O 1563.99 3.24891 -2.54008 0
M  V30 16631 H 1563.33 0.337526 -0.571815 0
M  V30 16632 H 1565.86 0.452957 -1.99523 0
M  V30 16633 H 1565.87 2.6229 -3.12519 0
M  V30 16634 H 1564.55 1.68917 -3.80052 0
M  V30 16635 H 1563.12 2.86034 -2.39246 0
M  V30 16636 N 1565.31 1.43698 0.647203 0
M  V30 16637 C 1566.55 1.47142 1.41876 0
M  V30 16638 C 1566.91 0.0952249 1.91764 0
M  V30 16639 O 1568.11 0.00434552 2.688 0
M  V30 16640 C 1566.38 2.48957 2.56428 0
M  V30 16641 S 1567.94 2.71323 3.44861 0
M  V30 16642 H 1564.76 0.520628 0.484218 0
M  V30 16643 H 1567.36 1.80507 0.75082 0
M  V30 16644 H 1566.07 3.47674 2.18061 0
M  V30 16645 H 1565.6 2.17109 3.28066 0
M  V30 16646 H 1567.61 2.01704 4.53354 0
M  V30 16647 N 1566.79 -0.886131 1.30328 0
M  V30 16648 C 1568.06 -1.61912 1.09744 0
M  V30 16649 C 1568.44 -2.08116 -0.353663 0
M  V30 16650 O 1567.79 -1.84725 -1.34495 0
M  V30 16651 C 1568 -2.78954 2.09727 0
M  V30 16652 C 1569.35 -3.49313 2.41382 0
M  V30 16653 O 1570.37 -2.89141 2.08028 0
M  V30 16654 O 1569.23 -4.57823 2.98431 0
M  V30 16655 H 1566.33 -0.71158 0.421406 0
M  V30 16656 H 1568.87 -0.933009 1.4175 0
M  V30 16657 H 1567.64 -2.42109 3.07407 0
M  V30 16658 H 1567.27 -3.55263 1.78532 0
M  V30 16659 N 1568.26 -1.13026 -1.09832 0
M  V30 16660 C 1569.49 -0.912803 -1.86233 0
M  V30 16661 C 1569.91 0.532955 -1.80392 0
M  V30 16662 O 1569.27 1.37783 -1.17837 0
M  V30 16663 C 1569.32 -1.40002 -3.32313 0
M  V30 16664 O 1568.42 -0.582537 -4.08265 0
M  V30 16665 H 1567.77 -0.327464 -0.577636 0
M  V30 16666 H 1570.3 -1.5039 -1.38723 0
M  V30 16667 H 1570.31 -1.40182 -3.83162 0
M  V30 16668 H 1568.98 -2.4527 -3.3588 0
M  V30 16669 H 1567.56 -0.648255 -3.67222 0
M  V30 16670 N 1569.74 1.27735 -0.923117 0
M  V30 16671 C 1571.15 1.76579 -0.606376 0
M  V30 16672 C 1571.5 1.75437 0.878428 0
M  V30 16673 O 1570.63 1.35495 1.68731 0
M  V30 16674 C 1571.22 3.20652 -1.09396 0
M  V30 16675 C 1569.78 3.67181 -0.827974 0
M  V30 16676 C 1568.93 2.47259 -1.25532 0
M  V30 16677 H 1571.88 1.14067 -1.10338 0
M  V30 16678 H 1571.9 3.77952 -0.439581 0
M  V30 16679 H 1571.41 3.21451 -2.17465 0
M  V30 16680 H 1569.52 3.71832 0.239098 0
M  V30 16681 H 1569.63 4.56875 -1.44229 0
M  V30 16682 H 1567.99 2.45622 -0.673928 0
M  V30 16683 H 1568.78 2.50771 -2.34455 0
M  V30 16684 N 1571.22 0.688118 1.41784 0
M  V30 16685 C 1572.15 0.0323199 2.33478 0
M  V30 16686 C 1573.13 -0.775145 1.51412 0
M  V30 16687 O 1574.32 -0.72962 1.79973 0
M  V30 16688 C 1571.45 -0.910141 3.35162 0
M  V30 16689 C 1570.4 -0.210312 4.27483 0
M  V30 16690 C 1569.73 -1.26662 5.19481 0
M  V30 16691 C 1571.03 0.918839 5.14154 0
M  V30 16692 H 1572.72 0.798138 2.88566 0
M  V30 16693 H 1570.27 0.385262 1.38751 0
M  V30 16694 H 1572.22 -1.3781 3.98229 0
M  V30 16695 H 1570.94 -1.70754 2.78408 0
M  V30 16696 H 1569.6 0.237544 3.6583 0
M  V30 16697 H 1569.25 -2.05635 4.59046 0
M  V30 16698 H 1568.95 -0.803416 5.82082 0
M  V30 16699 H 1570.47 -1.73524 5.85424 0
M  V30 16700 H 1571.89 0.531499 5.70831 0
M  V30 16701 H 1570.29 1.30867 5.85657 0
M  V30 16702 H 1571.36 1.7618 4.51762 0
M  V30 16703 N 1572.7 -1.51554 0.432352 0
M  V30 16704 C 1573.61 -2.31371 -0.387885 0
M  V30 16705 C 1574.62 -1.40072 -1.03227 0
M  V30 16706 O 1575.8 -1.73145 -1.02873 0
M  V30 16707 C 1572.87 -3.13662 -1.47705 0
M  V30 16708 C 1571.93 -4.20734 -0.853315 0
M  V30 16709 C 1571.16 -4.99092 -1.89058 0
M  V30 16710 O 1571.38 -4.78022 -3.11209 0
M  V30 16711 O 1570.32 -5.83322 -1.48389 0
M  V30 16712 H 1574.14 -3.02554 0.263578 0
M  V30 16713 H 1571.73 -1.48122 0.195004 0
M  V30 16714 H 1573.61 -3.64837 -2.10884 0
M  V30 16715 H 1572.28 -2.45249 -2.11269 0
M  V30 16716 H 1571.19 -3.73649 -0.183616 0
M  V30 16717 H 1572.52 -4.91506 -0.261244 0
M  V30 16718 N 1574.18 -0.163538 -1.56749 0
M  V30 16719 C 1575.59 0.354516 -1.83303 0
M  V30 16720 C 1575.94 1.63601 -1.08301 0
M  V30 16721 O 1575.06 2.13814 -0.333546 0
M  V30 16722 C 1575.66 0.649983 -3.32507 0
M  V30 16723 C 1574.22 1.1125 -3.59584 0
M  V30 16724 C 1573.36 0.144257 -2.76925 0
M  V30 16725 H 1576.32 -0.387945 -1.53885 0
M  V30 16726 H 1576.34 1.5029 -3.49562 0
M  V30 16727 H 1575.85 -0.282886 -3.87068 0
M  V30 16728 H 1573.95 2.06074 -3.10426 0
M  V30 16729 H 1574.06 1.02704 -4.67962 0
M  V30 16730 H 1572.43 0.640116 -2.46525 0
M  V30 16731 H 1573.21 -0.782495 -3.34263 0
M  V30 16732 N 1575.65 1.57214 0.110213 0
M  V30 16733 C 1576.59 1.97641 1.16064 0
M  V30 16734 C 1577.6 0.876886 1.37166 0
M  V30 16735 O 1578.79 1.15512 1.36086 0
M  V30 16736 C 1575.89 2.2671 2.51904 0
M  V30 16737 C 1575.06 3.58015 2.51285 0
M  V30 16738 C 1574.12 3.75195 3.68938 0
M  V30 16739 O 1573.15 4.47214 3.5212 0
M  V30 16740 N 1574.35 3.14627 4.87842 0
M  V30 16741 H 1577.11 2.88358 0.816679 0
M  V30 16742 H 1574.67 1.59108 0.299383 0
M  V30 16743 H 1576.67 2.35411 3.29187 0
M  V30 16744 H 1575.24 1.42076 2.78448 0
M  V30 16745 H 1574.46 3.60422 1.59655 0
M  V30 16746 H 1575.74 4.44303 2.47936 0
M  V30 16747 H 1575.14 2.56101 5.0441 0
M  V30 16748 H 1573.7 3.28836 5.6277 0
M  V30 16749 N 1577.13 -0.380637 1.52934 0
M  V30 16750 C 1578.41 -1.13958 1.58975 0
M  V30 16751 C 1578.79 -2.07503 0.388028 0
M  V30 16752 O 1578.14 -2.19844 -0.622984 0
M  V30 16753 C 1578.35 -1.89192 2.9327 0
M  V30 16754 C 1579.7 -2.44259 3.47308 0
M  V30 16755 O 1580.72 -1.99338 2.95199 0
M  V30 16756 O 1579.58 -3.26338 4.38367 0
M  V30 16757 H 1576.67 -0.521896 0.641525 0
M  V30 16758 H 1579.22 -0.385114 1.65272 0
M  V30 16759 H 1577.99 -1.20834 3.72176 0
M  V30 16760 H 1577.61 -2.71581 2.90395 0
M  V30 16761 N 1578.61 -1.44039 -0.639573 0
M  V30 16762 C 1579.52 -1.52728 -1.78077 0
M  V30 16763 C 1580.54 -0.413467 -1.69016 0
M  V30 16764 O 1581.71 -0.669592 -1.89943 0
M  V30 16765 C 1578.78 -1.46078 -3.14424 0
M  V30 16766 C 1577.84 -2.68242 -3.35179 0
M  V30 16767 C 1577.07 -2.61899 -4.65021 0
M  V30 16768 O 1577.29 -1.67431 -5.45273 0
M  V30 16769 O 1576.23 -3.52619 -4.87795 0
M  V30 16770 H 1580.05 -2.49122 -1.737 0
M  V30 16771 H 1577.64 -1.26191 -0.799755 0
M  V30 16772 H 1579.52 -1.44861 -3.95719 0
M  V30 16773 H 1578.2 -0.528236 -3.19361 0
M  V30 16774 H 1577.1 -2.75028 -2.53595 0
M  V30 16775 H 1578.44 -3.60514 -3.35098 0
M  V30 16776 N 1580.09 0.879207 -1.30796 0
M  V30 16777 C 1581.5 1.44705 -1.17972 0
M  V30 16778 C 1581.85 1.94992 0.217381 0
M  V30 16779 O 1580.98 1.85494 1.11449 0
M  V30 16780 C 1581.57 2.6302 -2.13555 0
M  V30 16781 C 1580.13 3.15877 -2.04692 0
M  V30 16782 C 1579.28 1.88576 -2.03309 0
M  V30 16783 H 1582.23 0.688604 -1.42982 0
M  V30 16784 H 1582.25 3.39418 -1.71976 0
M  V30 16785 H 1581.76 2.2639 -3.15229 0
M  V30 16786 H 1579.86 3.57151 -1.0618 0
M  V30 16787 H 1579.97 3.78786 -2.93357 0
M  V30 16788 H 1578.34 2.0715 -1.48192 0
M  V30 16789 H 1579.12 1.54195 -3.06723 0
M  V30 16790 N 1581.57 1.13606 1.09231 0
M  V30 16791 C 1582.48 0.828702 2.19476 0
M  V30 16792 C 1583.49 -0.187499 1.72987 0
M  V30 16793 O 1584.67 -0.0180602 2.01392 0
M  V30 16794 C 1581.73 0.301361 3.45388 0
M  V30 16795 C 1580.8 1.37906 4.06547 0
M  V30 16796 C 1580.03 0.876786 5.26449 0
M  V30 16797 O 1580.25 -0.284896 5.69688 0
M  V30 16798 O 1579.19 1.652 5.78785 0
M  V30 16799 H 1583.01 1.74982 2.48223 0
M  V30 16800 H 1580.6 0.913673 1.18205 0
M  V30 16801 H 1582.48 0.0127792 4.21398 0
M  V30 16802 H 1581.15 -0.592149 3.18238 0
M  V30 16803 H 1580.06 1.72098 3.32164 0
M  V30 16804 H 1581.39 2.24678 4.37927 0
M  V30 16805 N 1583.05 -1.27244 0.929878 0
M  V30 16806 C 1584.46 -1.76254 0.615732 0
M  V30 16807 C 1584.81 -1.759 -0.869111 0
M  V30 16808 O 1583.93 -1.36388 -1.6801 0
M  V30 16809 C 1584.53 -3.20068 1.11095 0
M  V30 16810 C 1583.09 -3.66736 0.847435 0
M  V30 16811 C 1582.23 -2.4659 1.26842 0
M  V30 16812 H 1585.18 -1.1348 1.10942 0
M  V30 16813 H 1585.21 -3.77714 0.459618 0
M  V30 16814 H 1584.72 -3.20293 2.19166 0
M  V30 16815 H 1582.82 -3.71954 -0.219376 0
M  V30 16816 H 1582.93 -4.56104 1.4665 0
M  V30 16817 H 1581.3 -2.45261 0.686944 0
M  V30 16818 H 1582.08 -2.49524 2.35781 0
M  V30 16819 N 1584.52 -0.695628 -1.41417 0
M  V30 16820 C 1585.43 -0.0308378 -2.3458 0
M  V30 16821 C 1586.45 0.766 -1.56232 0
M  V30 16822 O 1587.63 0.703548 -1.88712 0
M  V30 16823 C 1584.69 0.894162 -3.34971 0
M  V30 16824 C 1583.75 0.0895231 -4.29207 0
M  V30 16825 C 1582.98 0.970467 -5.24802 0
M  V30 16826 O 1583.21 2.20997 -5.25848 0
M  V30 16827 O 1582.14 0.420114 -6.00432 0
M  V30 16828 H 1585.97 -0.798775 -2.93007 0
M  V30 16829 H 1583.55 -0.455964 -1.42272 0
M  V30 16830 H 1585.43 1.42458 -3.9659 0
M  V30 16831 H 1584.11 1.64159 -2.78987 0
M  V30 16832 H 1583.02 -0.4855 -3.70936 0
M  V30 16833 H 1584.35 -0.619241 -4.88289 0
M  V30 16834 N 1586 1.51322 -0.440383 0
M  V30 16835 C 1587.41 1.86687 0.0220272 0
M  V30 16836 C 1587.76 1.35734 1.41671 0
M  V30 16837 O 1586.89 0.709408 2.04442 0
M  V30 16838 C 1587.48 3.38768 0.0467477 0
M  V30 16839 C 1586.04 3.73657 0.45358 0
M  V30 16840 C 1585.19 2.7506 -0.351779 0
M  V30 16841 H 1588.14 1.44503 -0.65609 0
M  V30 16842 H 1588.16 3.70756 0.855589 0
M  V30 16843 H 1587.67 3.75823 -0.968451 0
M  V30 16844 H 1585.77 3.42193 1.47427 0
M  V30 16845 H 1585.89 4.78776 0.176262 0
M  V30 16846 H 1584.25 2.53988 0.190334 0
M  V30 16847 H 1585.03 3.14957 -1.36591 0
M  V30 16848 N 1587.48 0.171848 1.5666 0
M  V30 16849 C 1588.41 -0.789671 2.15167 0
M  V30 16850 C 1589.42 -1.19335 1.10739 0
M  V30 16851 O 1590.61 -1.13311 1.37924 0
M  V30 16852 C 1587.71 -2.07448 2.6799 0
M  V30 16853 C 1586.89 -1.83429 3.9708 0
M  V30 16854 C 1585.95 -2.96134 4.34961 0
M  V30 16855 O 1584.97 -2.66746 5.02827 0
M  V30 16856 N 1586.17 -4.23932 3.96563 0
M  V30 16857 H 1588.94 -0.289484 2.98299 0
M  V30 16858 H 1586.5 -0.0109154 1.61896 0
M  V30 16859 H 1588.49 -2.81941 2.90329 0
M  V30 16860 H 1587.06 -2.48656 1.89444 0
M  V30 16861 H 1586.28 -0.928376 3.83112 0
M  V30 16862 H 1587.57 -1.64749 4.81389 0
M  V30 16863 H 1586.97 -4.50668 3.41928 0
M  V30 16864 H 1585.52 -4.95126 4.23903 0
M  V30 16865 N 1588.96 -1.5727 -0.101874 0
M  V30 16866 C 1589.89 -2.04614 -1.12496 0
M  V30 16867 C 1590.87 -0.933768 -1.42179 0
M  V30 16868 O 1592.05 -1.2046 -1.52325 0
M  V30 16869 C 1589.18 -2.46488 -2.44665 0
M  V30 16870 C 1588.14 -3.61327 -2.29406 0
M  V30 16871 C 1587.46 -3.89155 -3.66691 0
M  V30 16872 C 1588.76 -4.92455 -1.74026 0
M  V30 16873 H 1590.46 -2.90336 -0.731109 0
M  V30 16874 H 1588 -1.39676 -0.350239 0
M  V30 16875 H 1589.96 -2.78216 -3.16502 0
M  V30 16876 H 1588.68 -1.57757 -2.85972 0
M  V30 16877 H 1587.34 -3.29835 -1.60015 0
M  V30 16878 H 1586.99 -2.97603 -4.05514 0
M  V30 16879 H 1586.69 -4.66465 -3.57329 0
M  V30 16880 H 1588.21 -4.23352 -4.40006 0
M  V30 16881 H 1589.63 -5.22609 -2.35697 0
M  V30 16882 H 1588.02 -5.73882 -1.75441 0
M  V30 16883 H 1589.09 -4.79833 -0.699136 0
M  V30 16884 N 1590.44 0.372521 -1.53134 0
M  V30 16885 C 1591.35 1.47994 -1.8203 0
M  V30 16886 C 1592.36 1.58937 -0.708179 0
M  V30 16887 O 1593.54 1.74962 -0.997511 0
M  V30 16888 C 1590.6 2.83342 -1.99796 0
M  V30 16889 C 1589.66 2.81984 -3.23702 0
M  V30 16890 C 1588.9 4.10877 -3.40611 0
M  V30 16891 O 1589.12 5.06686 -2.61964 0
M  V30 16892 O 1588.05 4.17111 -4.33938 0
M  V30 16893 H 1591.88 1.26501 -2.761 0
M  V30 16894 H 1589.46 0.561957 -1.38428 0
M  V30 16895 H 1591.35 3.63551 -2.13092 0
M  V30 16896 H 1590.02 3.04826 -1.08916 0
M  V30 16897 H 1588.93 2.00498 -3.15834 0
M  V30 16898 H 1590.26 2.65453 -4.14482 0
M  V30 16899 N 1591.91 1.44376 0.631925 0
M  V30 16900 C 1592.84 1.54005 1.75512 0
M  V30 16901 C 1593.82 0.393126 1.65495 0
M  V30 16902 O 1595.01 0.613143 1.84267 0
M  V30 16903 C 1592.14 1.48313 3.14039 0
M  V30 16904 C 1591.09 2.61474 3.38844 0
M  V30 16905 C 1590.42 2.40834 4.77392 0
M  V30 16906 C 1591.72 4.03627 3.31485 0
M  V30 16907 H 1593.41 2.48019 1.6771 0
M  V30 16908 H 1590.96 1.19368 0.80543 0
M  V30 16909 H 1592.91 1.5365 3.9239 0
M  V30 16910 H 1591.64 0.508152 3.22623 0
M  V30 16911 H 1590.3 2.55525 2.62874 0
M  V30 16912 H 1589.94 1.4153 4.82678 0
M  V30 16913 H 1589.64 3.16703 4.94947 0
M  V30 16914 H 1591.17 2.47988 5.57974 0
M  V30 16915 H 1592.58 4.1095 3.99741 0
M  V30 16916 H 1590.98 4.79694 3.60574 0
M  V30 16917 H 1592.05 4.27255 2.29307 0
M  V30 16918 N 1593.39 -0.872258 1.31261 0
M  V30 16919 C 1594.32 -1.9853 1.14537 0
M  V30 16920 C 1595.34 -1.62578 0.0850723 0
M  V30 16921 O 1596.53 -1.75379 0.332343 0
M  V30 16922 C 1593.63 -3.31005 0.72727 0
M  V30 16923 C 1592.8 -3.95313 1.87208 0
M  V30 16924 C 1591.86 -5.06101 1.44042 0
M  V30 16925 O 1590.88 -5.27045 2.1497 0
M  V30 16926 N 1592.09 -5.79581 0.32653 0
M  V30 16927 H 1594.85 -2.13423 2.10406 0
M  V30 16928 H 1592.41 -1.0461 1.23565 0
M  V30 16929 H 1594.4 -4.02502 0.421255 0
M  V30 16930 H 1592.97 -3.12287 -0.13975 0
M  V30 16931 H 1592.19 -3.16825 2.34553 0
M  V30 16932 H 1593.48 -4.35015 2.63893 0
M  V30 16933 H 1592.88 -5.65083 -0.264202 0
M  V30 16934 H 1591.44 -6.51751 0.0800358 0
M  V30 16935 N 1594.87 -1.14184 -1.08627 0
M  V30 16936 C 1596.12 -0.91001 -1.81236 0
M  V30 16937 C 1596.45 0.562134 -1.85886 0
M  V30 16938 O 1595.72 1.41631 -1.33307 0
M  V30 16939 C 1596.01 -1.50879 -3.26967 0
M  V30 16940 C 1595.86 -3.05063 -3.3054 0
M  V30 16941 C 1597.18 -1.18379 -4.2388 0
M  V30 16942 H 1594.3 -0.332025 -0.657973 0
M  V30 16943 H 1596.94 -1.41144 -1.27194 0
M  V30 16944 H 1595.09 -1.08236 -3.73118 0
M  V30 16945 H 1596.76 -3.5652 -2.9273 0
M  V30 16946 H 1595 -3.39628 -2.6988 0
M  V30 16947 H 1595.68 -3.42064 -4.33239 0
M  V30 16948 H 1598.15 -1.55242 -3.86056 0
M  V30 16949 H 1597.03 -1.62911 -5.24167 0
M  V30 16950 H 1597.29 -0.0987385 -4.4199 0
M  V30 16951 N 1596.35 1.26749 -0.936613 0
M  V30 16952 C 1597.26 2.30272 -0.448573 0
M  V30 16953 C 1598.27 1.67386 0.475184 0
M  V30 16954 O 1599.45 1.98232 0.355825 0
M  V30 16955 C 1596.52 3.45546 0.28262 0
M  V30 16956 C 1595.58 4.23926 -0.677138 0
M  V30 16957 C 1594.81 5.33697 0.019255 0
M  V30 16958 O 1595.03 5.56825 1.23703 0
M  V30 16959 O 1593.97 5.98302 -0.657119 0
M  V30 16960 H 1597.79 2.74072 -1.30838 0
M  V30 16961 H 1595.38 1.31863 -0.702314 0
M  V30 16962 H 1597.26 4.15635 0.694686 0
M  V30 16963 H 1595.93 3.03784 1.11789 0
M  V30 16964 H 1594.84 3.56337 -1.13906 0
M  V30 16965 H 1596.17 4.69425 -1.47988 0
M  V30 16966 N 1597.83 0.703118 1.41046 0
M  V30 16967 C 1599.24 0.311167 1.84089 0
M  V30 16968 C 1599.59 -1.15202 1.58818 0
M  V30 16969 O 1598.71 -1.88518 1.06254 0
M  V30 16970 C 1599.31 0.557986 3.34174 0
M  V30 16971 C 1597.87 0.219875 3.75757 0
M  V30 16972 C 1597.01 0.836543 2.64381 0
M  V30 16973 H 1599.97 0.903211 1.30491 0
M  V30 16974 H 1599.99 -0.180865 3.8007 0
M  V30 16975 H 1599.5 1.62298 3.52535 0
M  V30 16976 H 1597.6 -0.840559 3.62995 0
M  V30 16977 H 1597.71 0.680165 4.74247 0
M  V30 16978 H 1596.08 0.265547 2.53312 0
M  V30 16979 H 1596.86 1.90556 2.85558 0
M  V30 16980 N 1599.3 -1.51086 0.448402 0
M  V30 16981 C 1600.21 -2.3177 -0.363323 0
M  V30 16982 C 1601.23 -1.41159 -1.01736 0
M  V30 16983 O 1602.41 -1.74226 -1.01031 0
M  V30 16984 C 1599.47 -3.15211 -1.4437 0
M  V30 16985 C 1598.53 -4.21615 -0.808643 0
M  V30 16986 C 1597.77 -5.01069 -1.83754 0
M  V30 16987 O 1597.99 -4.81296 -3.06121 0
M  V30 16988 O 1596.92 -5.84863 -1.42193 0
M  V30 16989 H 1600.75 -3.02257 0.295653 0
M  V30 16990 H 1598.33 -1.47907 0.210703 0
M  V30 16991 H 1600.22 -3.67053 -2.07002 0
M  V30 16992 H 1598.89 -2.47476 -2.08656 0
M  V30 16993 H 1597.8 -3.73823 -0.143975 0
M  V30 16994 H 1599.13 -4.91756 -0.209098 0
M  V30 16995 N 1600.78 -0.180154 -1.56567 0
M  V30 16996 C 1602.19 0.335054 -1.83669 0
M  V30 16997 C 1602.54 1.62443 -1.1003 0
M  V30 16998 O 1601.67 2.13448 -0.356205 0
M  V30 16999 C 1602.26 0.61468 -3.33177 0
M  V30 17000 C 1600.82 1.0743 -3.60743 0
M  V30 17001 C 1599.97 0.114877 -2.77062 0
M  V30 17002 H 1602.92 -0.404245 -1.53465 0
M  V30 17003 H 1602.94 1.46574 -3.51136 0
M  V30 17004 H 1602.45 -0.323923 -3.86746 0
M  V30 17005 H 1600.56 2.0277 -3.12594 0
M  V30 17006 H 1600.67 0.977349 -4.69025 0
M  V30 17007 H 1599.03 0.613933 -2.4719 0
M  V30 17008 H 1599.82 -0.817904 -3.33414 0
M  V30 17009 N 1602.26 1.57322 0.0935319 0
M  V30 17010 C 1603.17 2.05499 1.13169 0
M  V30 17011 C 1604.19 0.980199 1.43764 0
M  V30 17012 O 1605.36 1.29347 1.54374 0
M  V30 17013 C 1602.43 2.47111 2.43181 0
M  V30 17014 C 1601.49 3.68791 2.19754 0
M  V30 17015 C 1600.72 4.08408 3.43567 0
M  V30 17016 O 1600.94 3.48104 4.51863 0
M  V30 17017 O 1599.88 5.01351 3.33062 0
M  V30 17018 H 1603.7 2.9423 0.752491 0
M  V30 17019 H 1601.29 1.4623 0.306151 0
M  V30 17020 H 1603.17 2.74495 3.19735 0
M  V30 17021 H 1601.85 1.61518 2.80524 0
M  V30 17022 H 1600.75 3.46521 1.40976 0
M  V30 17023 H 1602.09 4.55169 1.87303 0
M  V30 17024 N 1603.74 -0.364395 1.53329 0
M  V30 17025 C 1604.67 -1.45243 1.8283 0
M  V30 17026 C 1605.65 -1.55834 0.681886 0
M  V30 17027 O 1606.83 -1.70383 0.931845 0
M  V30 17028 C 1603.96 -2.82565 2.01926 0
M  V30 17029 C 1602.92 -2.86797 3.17697 0
M  V30 17030 C 1602.24 -4.26806 3.22089 0
M  V30 17031 C 1603.54 -2.54212 4.56261 0
M  V30 17032 H 1605.24 -1.20804 2.73946 0
M  V30 17033 H 1602.78 -0.579705 1.31816 0
M  V30 17034 H 1604.74 -3.58709 2.21147 0
M  V30 17035 H 1603.46 -3.08394 1.07521 0
M  V30 17036 H 1602.12 -2.13105 2.98298 0
M  V30 17037 H 1601.77 -4.49712 2.25318 0
M  V30 17038 H 1601.47 -4.30553 3.99873 0
M  V30 17039 H 1602.99 -5.04821 3.43495 0
M  V30 17040 H 1604.41 -3.20069 4.75635 0
M  V30 17041 H 1602.8 -2.69273 5.36295 0
M  V30 17042 H 1603.87 -1.49458 4.61292 0
M  V30 17043 N 1605.22 -1.44709 -0.62426 0
M  V30 17044 C 1606.13 -1.54608 -1.76447 0
M  V30 17045 C 1607.14 -0.43137 -1.68568 0
M  V30 17046 O 1608.32 -0.6897 -1.89222 0
M  V30 17047 C 1605.38 -1.49404 -3.12857 0
M  V30 17048 C 1604.44 -2.71782 -3.32315 0
M  V30 17049 C 1603.68 -2.66817 -4.62217 0
M  V30 17050 O 1603.9 -1.73205 -5.43467 0
M  V30 17051 O 1602.83 -3.57773 -4.84027 0
M  V30 17052 H 1606.66 -2.50951 -1.71048 0
M  V30 17053 H 1604.25 -1.27033 -0.786326 0
M  V30 17054 H 1606.13 -1.4905 -3.9416 0
M  V30 17055 H 1604.8 -0.562078 -3.18783 0
M  V30 17056 H 1603.71 -2.77702 -2.50664 0
M  V30 17057 H 1605.04 -3.64048 -3.31255 0
M  V30 17058 N 1606.69 0.865285 -1.31722 0
M  V30 17059 C 1607.63 1.97919 -1.15588 0
M  V30 17060 C 1608.64 1.6253 -0.0936929 0
M  V30 17061 O 1609.83 1.752 -0.341639 0
M  V30 17062 C 1606.93 3.30614 -0.744814 0
M  V30 17063 C 1606.1 3.94314 -1.89301 0
M  V30 17064 C 1605.16 5.0533 -1.46724 0
M  V30 17065 O 1604.19 5.25898 -2.17762 0
M  V30 17066 N 1605.39 5.794 -0.357262 0
M  V30 17067 H 1608.15 2.12304 -2.11535 0
M  V30 17068 H 1605.71 1.03953 -1.24118 0
M  V30 17069 H 1607.71 4.02273 -0.442594 0
M  V30 17070 H 1606.28 3.12357 0.123186 0
M  V30 17071 H 1605.5 3.15577 -2.3623 0
M  V30 17072 H 1606.78 4.33609 -2.66196 0
M  V30 17073 H 1606.18 5.65215 0.23423 0
M  V30 17074 H 1604.74 6.51699 -0.114599 0
M  V30 17075 N 1608.17 1.14759 1.0802 0
M  V30 17076 C 1609.1 0.860977 2.17047 0
M  V30 17077 C 1610.08 -0.185652 1.69084 0
M  V30 17078 O 1611.27 -0.0414797 1.94156 0
M  V30 17079 C 1608.4 0.342018 3.45612 0
M  V30 17080 C 1607.35 1.32455 4.06989 0
M  V30 17081 C 1606.68 0.664721 5.30552 0
M  V30 17082 C 1607.98 2.68819 4.4781 0
M  V30 17083 H 1609.67 1.77269 2.4128 0
M  V30 17084 H 1607.22 0.853757 1.15961 0
M  V30 17085 H 1609.17 0.129093 4.21202 0
M  V30 17086 H 1607.9 -0.605138 3.20945 0
M  V30 17087 H 1606.55 1.52371 3.33435 0
M  V30 17088 H 1606.2 -0.288367 5.02173 0
M  V30 17089 H 1605.9 1.32036 5.72573 0
M  V30 17090 H 1607.43 0.461412 6.08854 0
M  V30 17091 H 1608.84 2.52787 5.14559 0
M  V30 17092 H 1607.24 3.30694 5.00761 0
M  V30 17093 H 1608.31 3.25398 3.59506 0
M  V30 17094 N 1609.65 -1.26251 0.943322 0
M  V30 17095 C 1611.06 -1.75591 0.634391 0
M  V30 17096 C 1611.41 -1.76812 -0.850406 0
M  V30 17097 O 1610.54 -1.38162 -1.66554 0
M  V30 17098 C 1611.13 -3.18871 1.14484 0
M  V30 17099 C 1609.69 -3.65817 0.886285 0
M  V30 17100 C 1608.84 -2.4523 1.2945 0
M  V30 17101 H 1611.79 -1.12297 1.12139 0
M  V30 17102 H 1611.81 -3.77205 0.499654 0
M  V30 17103 H 1611.32 -3.17951 2.22551 0
M  V30 17104 H 1609.42 -3.72165 -0.179913 0
M  V30 17105 H 1609.54 -4.54523 1.5148 0
M  V30 17106 H 1607.9 -2.44519 0.712919 0
M  V30 17107 H 1608.68 -2.47009 2.38415 0
M  V30 17108 N 1611.13 -0.710588 -1.40671 0
M  V30 17109 C 1612.41 -0.175319 -1.94813 0
M  V30 17110 C 1612.79 1.31792 -1.64906 0
M  V30 17111 O 1612.13 2.07167 -0.964058 0
M  V30 17112 C 1612.34 -0.482691 -3.45646 0
M  V30 17113 C 1613.69 -0.418619 -4.22531 0
M  V30 17114 O 1614.72 -0.418463 -3.53733 0
M  V30 17115 O 1613.58 -0.391787 -5.45094 0
M  V30 17116 H 1610.67 -0.0237744 -0.826658 0
M  V30 17117 H 1613.22 -0.787778 -1.50307 0
M  V30 17118 H 1611.99 -1.51569 -3.60753 0
M  V30 17119 H 1611.61 0.159984 -3.97278 0
M  V30 17120 N 1612.61 1.50847 -0.456408 0
M  V30 17121 C 1613.83 2.07139 0.104054 0
M  V30 17122 C 1614.26 1.31966 1.34039 0
M  V30 17123 O 1613.62 0.363038 1.77628 0
M  V30 17124 C 1613.66 3.5853 0.385794 0
M  V30 17125 O 1612.77 3.85351 1.46895 0
M  V30 17126 H 1612.11 0.663968 -0.00651246 0
M  V30 17127 H 1614.64 1.94226 -0.64323 0
M  V30 17128 H 1614.65 4.03097 0.630644 0
M  V30 17129 H 1613.32 4.12665 -0.51773 0
M  V30 17130 H 1611.9 3.52635 1.21256 0
M  V30 17131 N 1614.09 0.188454 1.56469 0
M  V30 17132 C 1615.33 -0.451165 1.97 0
M  V30 17133 C 1615.65 -1.6261 1.07624 0
M  V30 17134 O 1614.92 -1.95354 0.146125 0
M  V30 17135 H 1613.5 -0.16967 0.727476 0
M  V30 17136 H 1616.17 0.273638 1.9297 0
M  V30 17137 H 1615.26 -0.799741 3.0168 0
M  V30 17138 N 1615.56 -1.5737 -0.0851874 0
M  V30 17139 C 1616.8 -1.88417 -0.792354 0
M  V30 17140 C 1617.17 -0.78065 -1.75413 0
M  V30 17141 O 1618.37 -0.973819 -2.5054 0
M  V30 17142 C 1616.64 -3.24703 -1.4934 0
M  V30 17143 S 1618.2 -3.77468 -2.23748 0
M  V30 17144 H 1615.02 -0.66026 -0.263777 0
M  V30 17145 H 1617.62 -1.95439 -0.0490248 0
M  V30 17146 H 1616.32 -4.02931 -0.779426 0
M  V30 17147 H 1615.85 -3.20846 -2.27643 0
M  V30 17148 H 1617.87 -3.51679 -3.50052 0
M  V30 17149 N 1617.04 0.356258 -1.53521 0
M  V30 17150 C 1618.45 0.932569 -1.61741 0
M  V30 17151 C 1618.8 1.89965 -0.490677 0
M  V30 17152 O 1617.93 2.1301 0.381514 0
M  V30 17153 C 1618.52 1.69818 -2.93168 0
M  V30 17154 C 1617.08 2.22369 -3.03692 0
M  V30 17155 C 1616.23 1.03891 -2.57103 0
M  V30 17156 H 1619.18 0.134769 -1.58127 0
M  V30 17157 H 1619.2 2.56011 -2.81494 0
M  V30 17158 H 1618.71 0.994065 -3.75153 0
M  V30 17159 H 1616.81 2.95994 -2.26314 0
M  V30 17160 H 1616.93 2.49611 -4.08939 0
M  V30 17161 H 1615.29 1.40862 -2.12202 0
M  V30 17162 H 1616.07 0.349637 -3.41515 0
M  V30 17163 N 1618.52 1.45038 0.616577 0
M  V30 17164 C 1619.48 1.52647 1.70973 0
M  V30 17165 C 1620.48 0.406902 1.55567 0
M  V30 17166 O 1621.67 0.670062 1.60797 0
M  V30 17167 C 1618.8 1.41438 3.10174 0
M  V30 17168 H 1620 2.50036 1.65596 0
M  V30 17169 H 1617.55 1.32346 0.831524 0
M  V30 17170 H 1618.29 0.451991 3.21135 0
M  V30 17171 H 1618.07 2.22634 3.22764 0
M  V30 17172 H 1619.56 1.49776 3.89817 0
M  V30 17173 N 1620 -0.858287 1.32179 0
M  V30 17174 C 1621.41 -1.4281 1.20259 0
M  V30 17175 C 1621.76 -1.95313 -0.186332 0
M  V30 17176 O 1620.88 -1.87244 -1.08484 0
M  V30 17177 C 1621.48 -2.59589 2.17713 0
M  V30 17178 C 1620.04 -3.1258 2.09691 0
M  V30 17179 C 1619.19 -1.85317 2.06283 0
M  V30 17180 H 1622.14 -0.665769 1.4406 0
M  V30 17181 H 1622.16 -3.36639 1.77354 0
M  V30 17182 H 1621.67 -2.21346 3.18791 0
M  V30 17183 H 1619.77 -3.55416 1.11849 0
M  V30 17184 H 1619.88 -3.74071 2.99346 0
M  V30 17185 H 1618.25 -2.04766 1.51469 0
M  V30 17186 H 1619.03 -1.49296 3.09137 0
M  V30 17187 N 1621.48 -1.1533 -1.07409 0
M  V30 17188 C 1622.89 -0.895817 -1.32088 0
M  V30 17189 C 1623.09 0.457526 -1.96237 0
M  V30 17190 O 1622.15 1.19958 -2.22185 0
M  V30 17191 C 1623.46 -2.03632 -2.21256 0
M  V30 17192 C 1625.01 -2.07079 -2.34707 0
M  V30 17193 C 1625.48 -3.20451 -3.27223 0
M  V30 17194 N 1626.97 -3.20095 -3.34804 0
M  V30 17195 C 1627.71 -4.04458 -4.0645 0
M  V30 17196 N 1627.21 -4.98883 -4.80715 0
M  V30 17197 N 1629 -3.92483 -4.02385 0
M  V30 17198 H 1621.15 -2.02478 -0.641578 0
M  V30 17199 H 1623.41 -0.882864 -0.345332 0
M  V30 17200 H 1623.12 -3.0132 -1.81381 0
M  V30 17201 H 1622.99 -1.96817 -3.21781 0
M  V30 17202 H 1625.38 -1.09991 -2.73836 0
M  V30 17203 H 1625.46 -2.17962 -1.3389 0
M  V30 17204 H 1625.1 -4.17791 -2.88813 0
M  V30 17205 H 1625.03 -3.06805 -4.27993 0
M  V30 17206 H 1627.53 -2.51712 -2.81868 0
M  V30 17207 H 1627.84 -5.59698 -5.32877 0
M  V30 17208 H 1626.18 -5.02872 -4.79734 0
M  V30 17209 H 1629.37 -3.18026 -3.43478 0
M  V30 17210 H 1629.55 -4.58454 -4.57956 0
M  V30 17211 N 1622.95 1.25748 -0.950004 0
M  V30 17212 C 1623.92 2.24307 -0.47106 0
M  V30 17213 C 1624.92 1.55145 0.422704 0
M  V30 17214 O 1626.11 1.72797 0.220642 0
M  V30 17215 C 1623.24 3.39395 0.319979 0
M  V30 17216 H 1624.43 2.68192 -1.34214 0
M  V30 17217 H 1621.98 1.38056 -0.732827 0
M  V30 17218 H 1622.72 3.00925 1.20892 0
M  V30 17219 H 1622.5 3.90783 -0.321157 0
M  V30 17220 H 1623.99 4.12594 0.644697 0
M  V30 17221 N 1624.43 0.718038 1.40292 0
M  V30 17222 C 1625.34 0.0681535 2.34501 0
M  V30 17223 C 1626.36 -0.741048 1.57431 0
M  V30 17224 O 1627.53 -0.673437 1.89807 0
M  V30 17225 C 1624.6 -0.840758 3.36351 0
M  V30 17226 C 1623.66 -0.0212287 4.29295 0
M  V30 17227 C 1622.89 -0.886852 5.2628 0
M  V30 17228 O 1623.12 -2.12603 5.29298 0
M  V30 17229 O 1622.05 -0.324537 6.01024 0
M  V30 17230 H 1625.88 0.845288 2.91699 0
M  V30 17231 H 1623.46 0.478541 1.41529 0
M  V30 17232 H 1625.34 -1.36131 3.98806 0
M  V30 17233 H 1624.02 -1.597 2.81563 0
M  V30 17234 H 1622.92 0.544451 3.70117 0
M  V30 17235 H 1624.26 0.696846 4.87242 0
M  V30 17236 N 1625.91 -1.50602 0.464402 0
M  V30 17237 C 1626.87 -2.26929 -0.32185 0
M  V30 17238 C 1627.87 -1.3144 -0.926289 0
M  V30 17239 O 1629.06 -1.54924 -0.796511 0
M  V30 17240 C 1626.2 -3.08155 -1.45785 0
M  V30 17241 H 1627.39 -2.97881 0.347436 0
M  V30 17242 H 1624.94 -1.54768 0.218278 0
M  V30 17243 H 1625.68 -2.41684 -2.16239 0
M  V30 17244 H 1625.46 -3.78321 -1.03031 0
M  V30 17245 H 1626.95 -3.65899 -2.01266 0
M  V30 17246 N 1627.39 -0.19675 -1.56367 0
M  V30 17247 C 1628.3 0.735372 -2.22777 0
M  V30 17248 C 1629.31 1.23336 -1.22737 0
M  V30 17249 O 1630.49 1.28017 -1.55479 0
M  V30 17250 C 1627.56 1.93706 -2.8754 0
M  V30 17251 C 1626.62 1.48348 -4.02854 0
M  V30 17252 C 1625.85 2.62788 -4.64519 0
M  V30 17253 O 1626.07 3.80311 -4.25111 0
M  V30 17254 O 1625.01 2.35406 -5.53956 0
M  V30 17255 H 1628.83 0.199788 -3.03042 0
M  V30 17256 H 1626.42 0.0326149 -1.49364 0
M  V30 17257 H 1628.3 2.63934 -3.28507 0
M  V30 17258 H 1626.97 2.46121 -2.10252 0
M  V30 17259 H 1625.88 0.749939 -3.66506 0
M  V30 17260 H 1627.21 1.00597 -4.8181 0
M  V30 17261 N 1628.87 1.57413 0.0768405 0
M  V30 17262 C 1630.14 1.78056 0.809663 0
M  V30 17263 C 1630.52 0.783053 1.9604 0
M  V30 17264 O 1629.87 -0.184836 2.27751 0
M  V30 17265 C 1630.08 3.24391 1.2873 0
M  V30 17266 C 1631.43 3.88082 1.72272 0
M  V30 17267 O 1632.45 3.28251 1.38309 0
M  V30 17268 O 1631.31 4.93329 2.35135 0
M  V30 17269 H 1628.41 0.730553 0.387584 0
M  V30 17270 H 1630.95 1.69603 0.057307 0
M  V30 17271 H 1629.72 3.88543 0.463678 0
M  V30 17272 H 1629.35 3.37548 2.10112 0
M  V30 17273 N 1630.34 -0.348112 1.53707 0
M  V30 17274 C 1631.57 -1.11346 1.74976 0
M  V30 17275 C 1631.99 -1.81726 0.485525 0
M  V30 17276 O 1631.35 -1.72384 -0.561565 0
M  V30 17277 C 1631.4 -2.10611 2.92703 0
M  V30 17278 O 1630.5 -3.18042 2.62532 0
M  V30 17279 H 1629.85 -0.322247 0.580563 0
M  V30 17280 H 1632.38 -0.399898 2.00654 0
M  V30 17281 H 1632.39 -2.53912 3.19363 0
M  V30 17282 H 1631.06 -1.58782 3.84397 0
M  V30 17283 H 1629.64 -2.79591 2.46746 0
M  V30 17284 N 1631.82 -1.45363 -0.608876 0
M  V30 17285 C 1633.07 -1.49313 -1.36792 0
M  V30 17286 C 1633.4 -0.134357 -1.94035 0
M  V30 17287 O 1632.65 0.866819 -1.75456 0
M  V30 17288 C 1632.95 -2.51893 -2.53544 0
M  V30 17289 C 1632.62 -3.96636 -2.14455 0
M  V30 17290 C 1631.28 -4.36048 -2.03508 0
M  V30 17291 C 1633.63 -4.87668 -1.83929 0
M  V30 17292 C 1630.96 -5.64389 -1.60256 0
M  V30 17293 C 1633.31 -6.16419 -1.42163 0
M  V30 17294 C 1631.98 -6.54763 -1.29774 0
M  V30 17295 H 1631.25 -0.546373 -0.500557 0
M  V30 17296 H 1633.89 -1.78702 -0.68832 0
M  V30 17297 H 1632.2 -2.16068 -3.26836 0
M  V30 17298 H 1633.89 -2.52187 -3.11773 0
M  V30 17299 H 1630.48 -3.65467 -2.23901 0
M  V30 17300 H 1634.67 -4.57956 -1.91284 0
M  V30 17301 H 1629.92 -5.92894 -1.49285 0
M  V30 17302 H 1634.1 -6.86401 -1.17588 0
M  V30 17303 H 1631.73 -7.5411 -0.960322 0
M  V30 17304 N 1633.3 0.851265 -1.32632 0
M  V30 17305 C 1634.23 1.97562 -1.24465 0
M  V30 17306 C 1635.21 1.69619 -0.127777 0
M  V30 17307 O 1636.4 1.9162 -0.315509 0
M  V30 17308 C 1633.53 3.33467 -0.970423 0
M  V30 17309 C 1632.48 3.75772 -2.0489 0
M  V30 17310 C 1631.81 5.09345 -1.62702 0
M  V30 17311 C 1633.11 3.90876 -3.4643 0
M  V30 17312 H 1634.8 2.04653 -2.18535 0
M  V30 17313 H 1632.35 0.983252 -1.05205 0
M  V30 17314 H 1634.3 4.11681 -0.899825 0
M  V30 17315 H 1633.02 3.26599 0.00591373 0
M  V30 17316 H 1631.68 2.99812 -2.1097 0
M  V30 17317 H 1631.33 4.98937 -0.638039 0
M  V30 17318 H 1631.03 5.38621 -2.34864 0
M  V30 17319 H 1632.55 5.90048 -1.57085 0
M  V30 17320 H 1633.97 4.59434 -3.42919 0
M  V30 17321 H 1632.37 4.31574 -4.1697 0
M  V30 17322 H 1633.44 2.93689 -3.85843 0
M  V30 17323 O 1634.82 1.27701 0.988666 0
M  V30 17324 H 1635.51 1.07443 1.6117 0
M  V30 END ATOM
M  V30 BEGIN BOND
M  V30 END BOND
M  V30 END CTAB
M  END
$$$$
