drugbank_target|P25779 Cruzipain (DB01810; DB01871; DB02051; DB02128; DB02200; DB03536; DB03573; DB03691; DB04427; DB04502)
 OpenBabel12092119513D

  0  0  0     0  0            999 V3000
M  V30 BEGIN CTAB
M  V30 COUNTS 6867 6950 0 0 0
M  V30 BEGIN ATOM
M  V30 1 H -0.908 1.98254 -0.117106 0
M  V30 2 N 0 1.576 0 0
M  V30 3 C 0.933 2.03868 1.02534 0
M  V30 4 C 1.911 0.928543 1.3348 0
M  V30 5 O 3.095 1.19667 1.45644 0
M  V30 6 C 0.222 2.43627 2.35294 0
M  V30 7 C -0.732 3.65373 2.2001 0
M  V30 8 S 0.101 5.13292 1.52614 0
M  V30 9 C 1.257 5.56322 2.86805 0
M  V30 10 H 1.49 2.90518 0.631377 0
M  V30 11 H -0.977 1.52953 0.210867 0
M  V30 12 H 0.981 2.67203 3.11629 0
M  V30 13 H -0.358 1.57376 2.7183 0
M  V30 14 H -1.165 3.90944 3.18086 0
M  V30 15 H -1.563 3.418 1.51819 0
M  V30 16 H 0.729 5.58782 3.83104 0
M  V30 17 H 1.672 6.56266 2.65933 0
M  V30 18 H 2.08 4.83886 2.90714 0
M  V30 19 N 1.4781 -0.272755 1.55222 0
M  V30 20 C 2.7031 -1.02683 1.80197 0
M  V30 21 C 3.1281 -1.79142 0.573551 0
M  V30 22 O 2.4861 -1.74917 -0.476849 0
M  V30 23 C 2.5341 -1.9609 3.02624 0
M  V30 24 O 1.6381 -3.04863 2.77727 0
M  V30 25 H 0.9791 -0.293557 0.595584 0
M  V30 26 H 3.5091 -0.30159 2.02365 0
M  V30 27 H 3.5191 -2.38039 3.31363 0
M  V30 28 H 2.1941 -1.39851 3.91682 0
M  V30 29 H 0.7711 -2.67228 2.60084 0
M  V30 30 N 2.9562 -1.48159 -0.537278 0
M  V30 31 C 4.2042 -1.55497 -1.29094 0
M  V30 32 C 4.5252 -0.227454 -1.93669 0
M  V30 33 O 3.7952 0.750386 -1.80959 0
M  V30 34 H 2.3752 -0.572832 -0.47945 0
M  V30 35 H 5.0372 -1.84579 -0.625818 0
M  V30 36 H 4.1332 -2.33216 -2.07405 0
M  V30 37 N 4.4343 0.785586 -1.36625 0
M  V30 38 C 5.6803 1.5452 -1.32269 0
M  V30 39 C 6.0353 1.92159 0.0962266 0
M  V30 40 O 5.3283 1.60158 1.05167 0
M  V30 41 C 5.5223 2.83007 -2.1827 0
M  V30 42 C 5.3513 2.57925 -3.68382 0
M  V30 43 C 4.1213 2.52752 -4.37544 0
M  V30 44 C 6.3193 2.26861 -4.61561 0
M  V30 45 N 4.3013 2.19608 -5.73276 0
M  V30 46 C 5.6723 2.03738 -5.85569 0
M  V30 47 C 7.7273 2.129 -4.50087 0
M  V30 48 C 6.4303 1.68065 -6.9939 0
M  V30 49 C 8.4563 1.78626 -5.63779 0
M  V30 50 C 7.8183 1.56353 -6.86828 0
M  V30 51 H 3.9173 0.566301 -0.539283 0
M  V30 52 H 6.5013 0.917736 -1.71714 0
M  V30 53 H 4.6723 3.43614 -1.81063 0
M  V30 54 H 6.4043 3.48775 -2.05275 0
M  V30 55 H 3.1593 2.6813 -3.90389 0
M  V30 56 H 3.5833 2.05771 -6.44971 0
M  V30 57 H 8.2253 2.28808 -3.55537 0
M  V30 58 H 5.9433 1.50895 -7.93887 0
M  V30 59 H 9.5293 1.68502 -5.56865 0
M  V30 60 H 8.4093 1.30223 -7.73312 0
M  V30 61 N 5.9124 1.20967 1.01018 0
M  V30 62 C 6.8754 0.965918 2.07853 0
M  V30 63 C 7.8754 -0.0610545 1.60684 0
M  V30 64 O 9.0654 0.175681 1.73312 0
M  V30 65 C 6.1974 0.455513 3.37843 0
M  V30 66 H 7.3904 1.91365 2.3091 0
M  V30 67 H 4.9434 1.02594 1.17916 0
M  V30 68 H 5.6784 -0.497381 3.20463 0
M  V30 69 H 5.4634 1.19622 3.73407 0
M  V30 70 H 6.9534 0.304667 4.16487 0
M  V30 71 N 7.3905 -1.2043 1.01659 0
M  V30 72 C 8.8065 -1.41852 0.731442 0
M  V30 73 C 9.0065 -1.89358 -0.688898 0
M  V30 74 O 8.0625 -2.06247 -1.45666 0
M  V30 75 C 9.3755 -2.44019 1.75714 0
M  V30 76 C 10.9235 -2.57785 1.77527 0
M  V30 77 C 11.3985 -3.63194 2.79023 0
M  V30 78 N 12.8895 -3.70678 2.77763 0
M  V30 79 C 13.6245 -4.51897 3.52954 0
M  V30 80 N 13.1205 -5.36921 4.37821 0
M  V30 81 N 14.9135 -4.4643 3.41551 0
M  V30 82 H 7.0645 -0.879093 1.93354 0
M  V30 83 H 9.3275 -0.448425 0.835236 0
M  V30 84 H 9.0335 -2.1611 2.77469 0
M  V30 85 H 8.9075 -3.43007 1.56927 0
M  V30 86 H 11.2945 -2.85023 0.764569 0
M  V30 87 H 11.3755 -1.58992 2.00387 0
M  V30 88 H 11.0195 -3.36699 3.80258 0
M  V30 89 H 10.9495 -4.61609 2.53425 0
M  V30 90 H 13.4405 -3.09944 2.16201 0
M  V30 91 H 13.7535 -5.95981 4.91962 0
M  V30 92 H 12.0985 -5.36424 4.41899 0
M  V30 93 H 15.2895 -3.79042 2.74672 0
M  V30 94 H 15.4625 -5.09491 4.00404 0
M  V30 95 N 8.8686 -0.792821 -1.36206 0
M  V30 96 C 9.8316 -0.199459 -2.2833 0
M  V30 97 C 10.8316 0.605189 -1.48977 0
M  V30 98 O 12.0216 0.425685 -1.68919 0
M  V30 99 C 9.1536 0.723523 -3.33134 0
M  V30 100 H 10.3466 -1.01181 -2.82316 0
M  V30 101 H 7.8996 -0.562485 -1.45828 0
M  V30 102 H 8.6346 1.56008 -2.84309 0
M  V30 103 H 8.4196 0.148436 -3.91819 0
M  V30 104 H 9.9096 1.13344 -4.01924 0
M  V30 105 N 10.3467 1.47872 -0.545128 0
M  V30 106 C 11.2767 2.32661 0.197793 0
M  V30 107 C 12.2577 1.43041 0.920504 0
M  V30 108 O 13.4427 1.71912 0.90333 0
M  V30 109 C 10.5727 3.24569 1.23582 0
M  V30 110 C 9.5267 4.23333 0.630323 0
M  V30 111 C 8.8527 5.0448 1.77211 0
M  V30 112 C 10.1527 5.20704 -0.407974 0
M  V30 113 H 11.8467 2.95024 -0.510045 0
M  V30 114 H 9.3927 1.4187 -0.246731 0
M  V30 115 H 11.3457 3.8272 1.76362 0
M  V30 116 H 10.0697 2.60236 1.97344 0
M  V30 117 H 8.7287 3.6639 0.123922 0
M  V30 118 H 8.3767 4.36561 2.49847 0
M  V30 119 H 8.0767 5.71339 1.37281 0
M  V30 120 H 9.6007 5.65487 2.3034 0
M  V30 121 H 11.0147 5.7329 0.033305 0
M  V30 122 H 9.4117 5.95699 -0.725486 0
M  V30 123 H 10.4817 4.66917 -1.30828 0
M  V30 124 N 11.8248 0.280983 1.55075 0
M  V30 125 C 12.7548 -0.597469 2.25727 0
M  V30 126 C 13.7358 -1.15417 1.24952 0
M  V30 127 O 14.9208 -1.18722 1.53684 0
M  V30 128 C 12.0508 -1.7789 2.98283 0
M  V30 129 C 11.0048 -1.35347 4.06036 0
M  V30 130 C 10.3308 -2.61846 4.66198 0
M  V30 131 C 11.6308 -0.499354 5.19907 0
M  V30 132 H 13.3248 -0.00824265 2.99399 0
M  V30 133 H 10.8708 -0.0025244 1.44 0
M  V30 134 H 12.8238 -2.39937 3.46422 0
M  V30 135 H 11.5478 -2.39405 2.22155 0
M  V30 136 H 10.2068 -0.756156 3.58717 0
M  V30 137 H 9.8548 -3.21632 3.86732 0
M  V30 138 H 9.5548 -2.3409 5.38958 0
M  V30 139 H 11.0788 -3.24732 5.1709 0
M  V30 140 H 12.4928 -1.02498 5.64063 0
M  V30 141 H 10.8898 -0.316424 5.99265 0
M  V30 142 H 11.9598 0.480459 4.82514 0
M  V30 143 N 13.3029 -1.57598 0.00835791 0
M  V30 144 C 14.2329 -2.1198 -0.979113 0
M  V30 145 C 15.2139 -1.03091 -1.35301 0
M  V30 146 O 16.3989 -1.30818 -1.43528 0
M  V30 147 C 13.5289 -2.62995 -2.26828 0
M  V30 148 C 12.4829 -3.76485 -2.03576 0
M  V30 149 C 11.8089 -4.13846 -3.38579 0
M  V30 150 C 13.1089 -5.0342 -1.39161 0
M  V30 151 H 14.8029 -2.94738 -0.526281 0
M  V30 152 H 12.3489 -1.41783 -0.251704 0
M  V30 153 H 14.3019 -2.99669 -2.96271 0
M  V30 154 H 13.0259 -1.7737 -2.7424 0
M  V30 155 H 11.6849 -3.40217 -1.36557 0
M  V30 156 H 11.3329 -3.25232 -3.83709 0
M  V30 157 H 11.0329 -4.90312 -3.23834 0
M  V30 158 H 12.5569 -4.53086 -4.09323 0
M  V30 159 H 13.9709 -5.37812 -1.98573 0
M  V30 160 H 12.3679 -5.84746 -1.34878 0
M  V30 161 H 13.4379 -4.83548 -0.361868 0
M  V30 162 N 14.781 0.264519 -1.55364 0
M  V30 163 C 15.744 1.31046 -1.88042 0
M  V30 164 C 16.744 1.41943 -0.755569 0
M  V30 165 O 17.934 1.40947 -1.02369 0
M  V30 166 C 15.066 2.69067 -2.09323 0
M  V30 167 H 16.259 1.03297 -2.81549 0
M  V30 168 H 13.812 0.502989 -1.47986 0
M  V30 169 H 14.547 3.01982 -1.18226 0
M  V30 170 H 14.332 2.62542 -2.91229 0
M  V30 171 H 15.822 3.44623 -2.35848 0
M  V30 172 N 16.2591 1.48442 0.529413 0
M  V30 173 C 17.2221 1.62524 1.61612 0
M  V30 174 C 18.2221 0.498509 1.52877 0
M  V30 175 O 19.4121 0.76431 1.56537 0
M  V30 176 C 16.5441 1.59597 3.01233 0
M  V30 177 H 17.7371 2.59423 1.50465 0
M  V30 178 H 15.2901 1.37047 0.751514 0
M  V30 179 H 16.0251 0.641781 3.17886 0
M  V30 180 H 15.8101 2.41397 3.08982 0
M  V30 181 H 17.3001 1.72646 3.80241 0
M  V30 182 N 17.7372 -0.778329 1.37039 0
M  V30 183 C 18.9832 -1.53892 1.32079 0
M  V30 184 C 19.3162 -1.9396 -0.0965386 0
M  V30 185 O 18.5912 -1.63568 -1.05242 0
M  V30 186 C 18.8742 -2.80847 2.25382 0
M  V30 187 C 18.7272 -2.47076 3.75864 0
M  V30 188 C 20.0462 -3.82741 2.1725 0
M  V30 189 H 17.1652 -0.558303 0.48111 0
M  V30 190 H 19.8072 -0.893397 1.67685 0
M  V30 191 H 17.9572 -3.35931 1.95148 0
M  V30 192 H 19.6292 -1.97957 4.16666 0
M  V30 193 H 17.8722 -1.79863 3.94755 0
M  V30 194 H 18.5432 -3.37798 4.36574 0
M  V30 195 H 21.0192 -3.37133 2.43887 0
M  V30 196 H 19.8952 -4.69303 2.84686 0
M  V30 197 H 20.1562 -4.2652 1.16331 0
M  V30 198 N 19.2153 -1.21501 -1.00376 0
M  V30 199 C 20.1453 -0.999478 -2.11028 0
M  V30 200 C 21.1263 0.0759671 -1.6993 0
M  V30 201 O 22.3113 -0.0841106 -1.94018 0
M  V30 202 C 19.4413 -0.564709 -3.42678 0
M  V30 203 C 18.3953 -1.58486 -3.97576 0
M  V30 204 C 17.7213 -1.00628 -5.25146 0
M  V30 205 C 19.0213 -2.97204 -4.29496 0
M  V30 206 H 20.7153 -1.92495 -2.29317 0
M  V30 207 H 18.2613 -0.92693 -1.102 0
M  V30 208 H 20.2143 -0.401091 -4.19487 0
M  V30 209 H 18.9383 0.396411 -3.24185 0
M  V30 210 H 17.5973 -1.73606 -3.22888 0
M  V30 211 H 17.2453 -0.0368439 -5.02987 0
M  V30 212 H 16.9453 -1.68771 -5.62841 0
M  V30 213 H 18.4693 -0.854015 -6.04598 0
M  V30 214 H 19.8833 -2.8552 -4.97143 0
M  V30 215 H 18.2803 -3.62372 -4.78338 0
M  V30 216 H 19.3503 -3.47956 -3.3772 0
M  V30 217 N 20.6934 1.19889 -1.02296 0
M  V30 218 C 21.9394 1.89701 -0.717033 0
M  V30 219 C 22.2724 1.7905 0.751989 0
M  V30 220 O 21.5474 1.17891 1.547 0
M  V30 221 C 21.8304 3.40858 -1.16136 0
M  V30 222 C 21.6834 3.60411 -2.69117 0
M  V30 223 C 23.0024 4.33876 -0.737549 0
M  V30 224 H 20.1214 0.688874 -0.261957 0
M  V30 225 H 22.7634 1.41154 -1.27183 0
M  V30 226 H 20.9134 3.82335 -0.689342 0
M  V30 227 H 22.5854 3.28145 -3.2422 0
M  V30 228 H 20.8284 3.03665 -3.0979 0
M  V30 229 H 21.4994 4.66396 -2.95261 0
M  V30 230 H 23.9754 4.00081 -1.14344 0
M  V30 231 H 22.8514 5.38242 -1.0764 0
M  V30 232 H 23.1124 4.40628 0.360436 0
M  V30 233 N 22.1715 0.800033 1.35784 0
M  V30 234 C 23.4175 0.377901 1.99248 0
M  V30 235 C 23.7505 -1.05052 1.63333 0
M  V30 236 O 23.0255 -1.72768 0.893385 0
M  V30 237 C 23.3085 0.553922 3.55814 0
M  V30 238 C 23.1615 2.0268 4.01548 0
M  V30 239 C 24.4805 -0.0244802 4.40093 0
M  V30 240 H 21.5995 0.138782 0.723815 0
M  V30 241 H 24.2415 1.00835 1.61035 0
M  V30 242 H 22.3915 0.0172398 3.88496 0
M  V30 243 H 24.0635 2.62536 3.79305 0
M  V30 244 H 22.3065 2.5256 3.52698 0
M  V30 245 H 22.9775 2.10087 5.10458 0
M  V30 246 H 25.4535 0.433775 4.13833 0
M  V30 247 H 24.3295 0.128637 5.48749 0
M  V30 248 H 24.5905 -1.11758 4.27741 0
M  V30 249 N 23.6496 -1.47581 0.552962 0
M  V30 250 C 24.5826 -2.26883 -0.244857 0
M  V30 251 C 25.5606 -1.33784 -0.924147 0
M  V30 252 O 26.7446 -1.6316 -0.943981 0
M  V30 253 C 23.8716 -3.10695 -1.34856 0
M  V30 254 C 22.9176 -4.19339 -0.778268 0
M  V30 255 S 23.7506 -5.34207 0.37184 0
M  V30 256 C 24.9066 -6.21584 -0.733779 0
M  V30 257 H 25.1396 -2.94202 0.428087 0
M  V30 258 H 22.6726 -1.50628 0.339197 0
M  V30 259 H 24.6306 -3.59555 -1.98066 0
M  V30 260 H 23.2916 -2.42746 -1.99332 0
M  V30 261 H 22.4846 -4.77695 -1.60696 0
M  V30 262 H 22.0866 -3.73338 -0.222422 0
M  V30 263 H 24.3786 -6.57676 -1.62692 0
M  V30 264 H 25.3216 -7.07851 -0.187668 0
M  V30 265 H 25.7296 -5.55125 -1.02454 0
M  V30 266 N 25.1277 -0.289203 -1.54924 0
M  V30 267 C 26.0907 0.579144 -2.21762 0
M  V30 268 C 27.0907 1.07047 -1.1999 0
M  V30 269 O 28.2807 0.968384 -1.44803 0
M  V30 270 C 25.4127 1.80055 -2.8947 0
M  V30 271 H 26.6057 -0.00464908 -2.999 0
M  V30 272 H 24.1587 -0.0399306 -1.56249 0
M  V30 273 H 24.8937 2.42449 -2.15381 0
M  V30 274 H 24.6787 1.45602 -3.64064 0
M  V30 275 H 26.1687 2.41773 -3.40493 0
M  V30 276 N 26.6058 1.57591 -0.0167156 0
M  V30 277 C 27.8458 1.93145 0.668902 0
M  V30 278 C 28.2098 0.892406 1.7 0
M  V30 279 O 29.4108 1.13373 2.43721 0
M  V30 280 C 27.6818 3.33678 1.28039 0
M  V30 281 S 29.2408 3.91142 1.9888 0
M  V30 282 H 26.0588 0.67593 0.220545 0
M  V30 283 H 28.6608 1.95347 -0.0774105 0
M  V30 284 H 27.3648 4.07126 0.517339 0
M  V30 285 H 26.8958 3.3489 2.06427 0
M  V30 286 H 28.9108 3.73571 3.26587 0
M  V30 287 N 28.0839 -0.256276 1.55502 0
M  V30 288 C 29.0139 -1.32102 1.92539 0
M  V30 289 C 29.9949 -1.50684 0.789194 0
M  V30 290 O 31.1799 -1.63449 1.04872 0
M  V30 291 C 28.3099 -2.67752 2.21192 0
M  V30 292 C 27.2639 -2.63878 3.36975 0
M  V30 293 C 26.5899 -4.03236 3.51147 0
M  V30 294 C 27.8899 -2.21682 4.72921 0
M  V30 295 H 29.5839 -1.01351 2.81724 0
M  V30 296 H 27.1299 -0.486105 1.35547 0
M  V30 297 H 29.0829 -3.42365 2.45691 0
M  V30 298 H 27.8069 -3.0012 1.28824 0
M  V30 299 H 26.4659 -1.91722 3.12471 0
M  V30 300 H 26.1139 -4.32854 2.56216 0
M  V30 301 H 25.8139 -4.01535 4.29003 0
M  V30 302 H 27.3379 -4.79563 3.77957 0
M  V30 303 H 28.7519 -2.86023 4.96854 0
M  V30 304 H 27.1489 -2.3111 5.53812 0
M  V30 305 H 28.2189 -1.16833 4.70615 0
M  V30 306 N 29.562 -1.4872 -0.521534 0
M  V30 307 C 30.808 -1.574 -1.27879 0
M  V30 308 C 31.141 -0.250817 -1.92573 0
M  V30 309 O 30.416 0.743934 -1.79711 0
M  V30 310 C 30.699 -2.71843 -2.36164 0
M  V30 311 C 30.552 -4.13893 -1.76105 0
M  V30 312 C 31.871 -2.82008 -3.37875 0
M  V30 313 H 28.99 -0.572941 -0.463581 0
M  V30 314 H 31.632 -1.80927 -0.580119 0
M  V30 315 H 29.782 -2.51914 -2.95756 0
M  V30 316 H 31.454 -4.45284 -1.20499 0
M  V30 317 H 29.697 -4.20498 -1.06601 0
M  V30 318 H 30.368 -4.89804 -2.5455 0
M  V30 319 H 32.844 -3.00086 -2.88249 0
M  V30 320 H 31.72 -3.63796 -4.11028 0
M  V30 321 H 31.981 -1.90511 -3.98946 0
M  V30 322 N 31.0401 0.771051 -1.3745 0
M  V30 323 C 32.4511 1.34737 -1.29239 0
M  V30 324 C 32.8021 1.96109 0.0596908 0
M  V30 325 O 31.9271 1.93865 0.961534 0
M  V30 326 C 32.5221 2.44973 -2.34037 0
M  V30 327 C 31.0811 2.98372 -2.29458 0
M  V30 328 C 30.2281 1.71595 -2.17831 0
M  V30 329 H 33.1791 0.571256 -1.48062 0
M  V30 330 H 33.2001 3.24471 -1.98744 0
M  V30 331 H 32.7121 2.00276 -3.32432 0
M  V30 332 H 30.8131 3.47443 -1.34589 0
M  V30 333 H 30.9261 3.53939 -3.229 0
M  V30 334 H 29.2901 1.94547 -1.64388 0
M  V30 335 H 30.0731 1.29001 -3.18141 0
M  V30 336 N 32.5182 1.22032 0.997298 0
M  V30 337 C 33.4812 0.987909 2.06816 0
M  V30 338 C 34.4812 -0.0440084 1.6074 0
M  V30 339 O 35.6712 0.194053 1.73116 0
M  V30 340 C 32.8032 0.49132 3.37341 0
M  V30 341 H 33.9962 1.93803 2.28868 0
M  V30 342 H 31.5492 1.03838 1.16822 0
M  V30 343 H 32.2842 -0.463364 3.20973 0
M  V30 344 H 32.0692 1.23575 3.72118 0
M  V30 345 H 33.5592 0.348824 4.16141 0
M  V30 346 N 33.9963 -1.19345 1.0293 0
M  V30 347 C 34.9593 -2.20793 0.615069 0
M  V30 348 C 35.9593 -1.57553 -0.321533 0
M  V30 349 O 37.1493 -1.73862 -0.108483 0
M  V30 350 C 34.2813 -3.40754 -0.0999222 0
M  V30 351 H 35.4743 -2.58955 1.51269 0
M  V30 352 H 33.0273 -1.3303 0.820534 0
M  V30 353 H 33.7623 -3.0811 -1.01187 0
M  V30 354 H 33.5473 -3.87889 0.57309 0
M  V30 355 H 35.0373 -4.15898 -0.376645 0
M  V30 356 N 35.4744 -0.807222 -1.35358 0
M  V30 357 C 36.7024 -0.400377 -2.02989 0
M  V30 358 C 37.1174 0.988859 -1.60832 0
M  V30 359 O 36.4744 1.63729 -0.806175 0
M  V30 360 C 36.5254 -0.474867 -3.58368 0
M  V30 361 O 36.2464 -1.80933 -3.98992 0
M  V30 362 C 37.7474 -0.0609112 -4.43258 0
M  V30 363 H 34.9674 -0.162587 -0.651004 0
M  V30 364 H 37.5114 -1.09102 -1.72965 0
M  V30 365 H 35.6664 0.167534 -3.87038 0
M  V30 366 H 36.0804 -1.77256 -4.9364 0
M  V30 367 H 37.5544 -0.164145 -5.51756 0
M  V30 368 H 38.0314 0.993831 -4.27808 0
M  V30 369 H 38.6374 -0.676492 -4.19885 0
M  V30 370 N 36.9525 1.47285 -0.560781 0
M  V30 371 C 37.9155 2.28535 0.174488 0
M  V30 372 C 38.9155 1.37153 0.839388 0
M  V30 373 O 40.1055 1.59748 0.694702 0
M  V30 374 C 37.2375 3.16934 1.25561 0
M  V30 375 H 38.4305 2.95012 -0.539262 0
M  V30 376 H 35.9835 1.53034 -0.317865 0
M  V30 377 H 36.7185 2.55157 2.00164 0
M  V30 378 H 36.5035 3.8419 0.783604 0
M  V30 379 H 37.9935 3.78143 1.77193 0
M  V30 380 N 38.4306 0.297415 1.54768 0
M  V30 381 C 39.6556 -0.318435 2.04941 0
M  V30 382 C 40.0806 -1.4701 1.17345 0
M  V30 383 O 39.4386 -1.80436 0.176758 0
M  V30 384 C 39.4866 -0.755749 3.52592 0
M  V30 385 O 38.5906 -1.86088 3.68028 0
M  V30 386 H 37.9316 -0.062421 0.661059 0
M  V30 387 H 40.4616 0.438215 1.99852 0
M  V30 388 H 40.4716 -1.04552 3.94376 0
M  V30 389 H 39.1466 0.0867233 4.1581 0
M  V30 390 H 37.7236 -1.57193 3.38149 0
M  V30 391 N 39.9087 -1.5758 0.0250728 0
M  V30 392 C 40.8387 -2.13007 -0.956575 0
M  V30 393 C 41.8197 -1.0452 -1.342 0
M  V30 394 O 43.0047 -1.32332 -1.42133 0
M  V30 395 C 40.1347 -2.65386 -2.24026 0
M  V30 396 C 39.0887 -3.78623 -1.99571 0
M  V30 397 C 38.4147 -4.17414 -3.3417 0
M  V30 398 C 39.7147 -5.04867 -1.33814 0
M  V30 399 H 41.4087 -2.9528 -0.494991 0
M  V30 400 H 38.9547 -1.42042 -0.236651 0
M  V30 401 H 40.9077 -3.02794 -2.93076 0
M  V30 402 H 39.6317 -1.80268 -2.72343 0
M  V30 403 H 38.2907 -3.41646 -1.32941 0
M  V30 404 H 37.9387 -3.29284 -3.80238 0
M  V30 405 H 37.6387 -4.93719 -3.18615 0
M  V30 406 H 39.1627 -4.57402 -4.04495 0
M  V30 407 H 40.5767 -5.39888 -1.92857 0
M  V30 408 H 38.9737 -5.86144 -1.28669 0
M  V30 409 H 40.0437 -4.83904 -0.310561 0
M  V30 410 N 41.3868 0.248026 -1.55636 0
M  V30 411 C 42.3368 1.30994 -1.86614 0
M  V30 412 C 43.3208 1.43543 -0.726918 0
M  V30 413 O 44.5128 1.46804 -0.988818 0
M  V30 414 C 41.6418 2.6656 -2.16335 0
M  V30 415 C 40.7278 2.58019 -3.36581 0
M  V30 416 N 41.1188 2.1911 -4.55878 0
M  V30 417 C 39.4168 2.89035 -3.39669 0
M  V30 418 C 40.1178 2.21174 -5.38012 0
M  V30 419 N 39.0938 2.60632 -4.77045 0
M  V30 420 H 42.8958 0.999583 -2.76379 0
M  V30 421 H 40.4098 0.456652 -1.55848 0
M  V30 422 H 42.4068 3.43194 -2.36692 0
M  V30 423 H 41.0668 2.98463 -1.27867 0
M  V30 424 H 42.0778 1.90672 -4.81523 0
M  V30 425 H 38.7548 3.25485 -2.61469 0
M  V30 426 H 40.1448 1.9344 -6.43452 0
M  V30 427 N 42.8649 1.48995 0.513639 0
M  V30 428 C 43.8279 1.64229 1.59879 0
M  V30 429 C 44.8279 0.514696 1.5234 0
M  V30 430 O 46.0179 0.78087 1.55718 0
M  V30 431 C 43.1499 1.62783 2.99524 0
M  V30 432 H 44.3429 2.61004 1.47705 0
M  V30 433 H 41.8959 1.37837 0.736936 0
M  V30 434 H 42.6309 0.675461 3.17188 0
M  V30 435 H 42.4159 2.4466 3.06404 0
M  V30 436 H 43.9059 1.76669 3.78388 0
M  V30 437 N 44.343 -0.763751 1.37857 0
M  V30 438 C 45.253 -1.90817 1.36478 0
M  V30 439 C 46.269 -1.71997 0.263248 0
M  V30 440 O 47.445 -1.95095 0.499979 0
M  V30 441 C 44.51 -3.2605 1.17864 0
M  V30 442 C 43.571 -3.57467 2.3773 0
M  V30 443 C 42.804 -4.86249 2.19995 0
M  V30 444 O 43.027 -5.57884 1.18836 0
M  V30 445 O 41.961 -5.16911 3.08361 0
M  V30 446 H 45.787 -1.94933 2.32884 0
M  V30 447 H 43.372 -0.907619 1.1867 0
M  V30 448 H 45.254 -4.06924 1.09504 0
M  V30 449 H 43.929 -3.22769 0.245372 0
M  V30 450 H 42.836 -2.76796 2.51664 0
M  V30 451 H 44.169 -3.655 3.29652 0
M  V30 452 N 45.8211 -1.22559 -0.990812 0
M  V30 453 C 46.7311 -1.01394 -2.11557 0
M  V30 454 C 47.7471 0.0383962 -1.73958 0
M  V30 455 O 48.9231 -0.154787 -2.00804 0
M  V30 456 C 45.9881 -0.596569 -3.41529 0
M  V30 457 C 45.0491 -1.72276 -3.93217 0
M  V30 458 C 44.2821 -1.32521 -5.16985 0
M  V30 459 O 44.5051 -0.204909 -5.70032 0
M  V30 460 O 43.4391 -2.14247 -5.62478 0
M  V30 461 H 47.2651 -1.95633 -2.32296 0
M  V30 462 H 44.8501 -1.01172 -1.0993 0
M  V30 463 H 46.7321 -0.374263 -4.19735 0
M  V30 464 H 45.4071 0.316939 -3.22145 0
M  V30 465 H 44.3141 -1.99961 -3.16174 0
M  V30 466 H 45.6471 -2.61421 -4.17037 0
M  V30 467 N 47.2992 1.18797 -1.03562 0
M  V30 468 C 48.5272 1.92599 -0.755869 0
M  V30 469 C 48.9422 1.75886 0.686271 0
M  V30 470 O 48.2992 1.08517 1.46732 0
M  V30 471 C 48.3502 3.44159 -1.10619 0
M  V30 472 O 48.0712 3.60341 -2.4917 0
M  V30 473 C 49.5722 4.3507 -0.850214 0
M  V30 474 H 46.7922 0.611587 -0.276048 0
M  V30 475 H 49.3362 1.50742 -1.38192 0
M  V30 476 H 47.4912 3.83823 -0.525194 0
M  V30 477 H 47.9052 4.54128 -2.62427 0
M  V30 478 H 49.3792 5.39989 -1.14523 0
M  V30 479 H 49.8562 4.38673 0.215176 0
M  V30 480 H 50.4622 4.01097 -1.41426 0
M  V30 481 N 48.7773 0.814389 1.34928 0
M  V30 482 C 49.7073 0.244827 2.32213 0
M  V30 483 C 50.6883 -0.634024 1.57842 0
M  V30 484 O 51.8733 -0.562676 1.8587 0
M  V30 485 C 49.0033 -0.601106 3.42058 0
M  V30 486 C 47.9573 0.179896 4.27622 0
M  V30 487 C 47.2833 -0.788237 5.28858 0
M  V30 488 C 48.5833 1.38329 5.03649 0
M  V30 489 H 50.2773 1.05763 2.80097 0
M  V30 490 H 47.8233 0.510029 1.34665 0
M  V30 491 H 49.7763 -1.00968 4.09125 0
M  V30 492 H 48.5003 -1.44688 2.92802 0
M  V30 493 H 47.1593 0.569739 3.62146 0
M  V30 494 H 46.8073 -1.62973 4.75866 0
M  V30 495 H 46.5073 -0.269942 5.8698 0
M  V30 496 H 48.0313 -1.19485 5.98795 0
M  V30 497 H 49.4453 1.04918 5.63618 0
M  V30 498 H 47.8423 1.83662 5.71304 0
M  V30 499 H 48.9123 2.16592 4.33839 0
M  V30 500 N 50.2554 -1.46986 0.568584 0
M  V30 501 C 51.4834 -2.0683 0.0539956 0
M  V30 502 C 51.8984 -1.41953 -1.24478 0
M  V30 503 O 51.2554 -0.519933 -1.74937 0
M  V30 504 C 51.3064 -3.61254 -0.133362 0
M  V30 505 O 51.0274 -4.237 1.11399 0
M  V30 506 C 52.5284 -4.37992 -0.683927 0
M  V30 507 H 49.7484 -0.669058 0.0510141 0
M  V30 508 H 52.2924 -1.88824 0.785234 0
M  V30 509 H 50.4474 -3.78735 -0.81477 0
M  V30 510 H 50.8614 -5.16388 0.91888 0
M  V30 511 H 52.3354 -5.46684 -0.764263 0
M  V30 512 H 52.8124 -4.05058 -1.69778 0
M  V30 513 H 53.4184 -4.25283 -0.0378494 0
M  V30 514 N 51.7335 -0.305618 -1.54608 0
M  V30 515 C 52.9585 0.307562 -2.05107 0
M  V30 516 C 53.3835 1.46385 -1.18123 0
M  V30 517 O 52.7415 1.8034 -0.186324 0
M  V30 518 C 52.7895 0.73704 -3.52987 0
M  V30 519 O 51.8935 1.84134 -3.6901 0
M  V30 520 H 51.2345 0.0589143 -0.661381 0
M  V30 521 H 53.7645 -0.448807 -1.99617 0
M  V30 522 H 53.7745 1.02459 -3.94925 0
M  V30 523 H 52.4495 -0.108773 -4.15758 0
M  V30 524 H 51.0265 1.55398 -3.38978 0
M  V30 525 N 53.2116 1.57565 -0.0334293 0
M  V30 526 C 54.1436 2.0739 0.975811 0
M  V30 527 C 55.1566 0.998166 1.2861 0
M  V30 528 O 56.3456 1.27426 1.25 0
M  V30 529 C 53.4456 2.4871 2.30209 0
M  V30 530 C 52.6186 3.79413 2.17634 0
M  V30 531 C 51.6776 4.07237 3.33233 0
M  V30 532 O 50.7036 4.77425 3.09927 0
M  V30 533 N 51.9056 3.5775 4.5716 0
M  V30 534 H 54.6706 2.94598 0.55066 0
M  V30 535 H 52.2316 1.61173 0.15323 0
M  V30 536 H 54.2236 2.64413 3.06378 0
M  V30 537 H 52.7936 1.66845 2.64351 0
M  V30 538 H 52.0136 3.73465 1.26165 0
M  V30 539 H 53.3016 4.65038 2.0644 0
M  V30 540 H 52.6996 3.00976 4.78989 0
M  V30 541 H 51.2566 3.78724 5.30482 0
M  V30 542 N 54.6897 -0.239769 1.55765 0
M  V30 543 C 55.9367 -0.966801 1.7793 0
M  V30 544 C 56.2647 -1.85046 0.599015 0
M  V30 545 O 55.5197 -1.91197 -0.417395 0
M  V30 546 C 55.8187 -1.852 3.05672 0
M  V30 547 C 55.4847 -1.1231 4.36689 0
M  V30 548 C 54.1467 -0.921689 4.72291 0
M  V30 549 C 56.4987 -0.607019 5.17653 0
M  V30 550 C 53.8267 -0.191996 5.86386 0
M  V30 551 C 56.1787 0.109241 6.32506 0
M  V30 552 C 54.8427 0.322073 6.66723 0
M  V30 553 H 54.1127 -0.353778 0.651093 0
M  V30 554 H 56.7597 -0.23634 1.90036 0
M  V30 555 H 55.0647 -2.64975 2.8861 0
M  V30 556 H 56.7617 -2.41635 3.20021 0
M  V30 557 H 53.3517 -1.29004 4.08725 0
M  V30 558 H 57.5357 -0.750153 4.90598 0
M  V30 559 H 52.7917 -0.0166949 6.11398 0
M  V30 560 H 56.9657 0.516737 6.9448 0
M  V30 561 H 54.5927 0.88944 7.54979 0
M  V30 562 N 56.1678 -1.49265 -0.50573 0
M  V30 563 C 57.1308 -1.65075 -1.59006 0
M  V30 564 C 58.1308 -0.522768 -1.52065 0
M  V30 565 O 59.3208 -0.789117 -1.55302 0
M  V30 566 C 56.4528 -1.64369 -2.98656 0
M  V30 567 H 57.6458 -2.61784 -1.46319 0
M  V30 568 H 55.1988 -1.38226 -0.729616 0
M  V30 569 H 55.9338 -0.692272 -3.16825 0
M  V30 570 H 55.7188 -2.46282 -3.05103 0
M  V30 571 H 57.2088 -1.78674 -3.77446 0
M  V30 572 N 57.6459 0.756429 -1.3826 0
M  V30 573 C 58.5559 1.9009 -1.37488 0
M  V30 574 C 59.5719 1.71855 -0.272366 0
M  V30 575 O 60.7479 1.94827 -0.510318 0
M  V30 576 C 57.8129 3.25421 -1.19592 0
M  V30 577 C 56.8739 3.56202 -2.39622 0
M  V30 578 C 56.1069 4.85075 -2.2257 0
M  V30 579 O 56.3299 5.57246 -1.21793 0
M  V30 580 O 55.2639 5.15269 -3.11098 0
M  V30 581 H 59.0899 1.93695 -2.33914 0
M  V30 582 H 56.6749 0.901313 -1.1915 0
M  V30 583 H 58.5569 4.06337 -1.11661 0
M  V30 584 H 57.2319 3.22634 -0.262486 0
M  V30 585 H 56.1389 2.75458 -2.53128 0
M  V30 586 H 57.4719 3.63747 -3.31586 0
M  V30 587 N 59.124 1.23083 0.984299 0
M  V30 588 C 60.371 1.06057 1.72505 0
M  V30 589 C 60.699 -0.403105 1.90277 0
M  V30 590 O 59.954 -1.3149 1.44944 0
M  V30 591 C 60.253 1.72673 3.1292 0
M  V30 592 C 59.919 3.22586 3.15038 0
M  V30 593 C 58.581 3.63489 3.15324 0
M  V30 594 C 60.933 4.185 3.10657 0
M  V30 595 C 58.261 4.98772 3.08939 0
M  V30 596 C 60.613 5.53769 3.05814 0
M  V30 597 C 59.277 5.94041 3.04419 0
M  V30 598 H 58.547 0.388091 0.631242 0
M  V30 599 H 61.194 1.52963 1.15215 0
M  V30 600 H 59.499 1.18116 3.73572 0
M  V30 601 H 61.196 1.56982 3.68996 0
M  V30 602 H 57.786 2.90022 3.15571 0
M  V30 603 H 61.97 3.87911 3.09579 0
M  V30 604 H 57.226 5.29193 3.0621 0
M  V30 605 H 61.4 6.27808 3.0138 0
M  V30 606 H 59.027 6.98833 2.99227 0
M  V30 607 N 60.6021 -1.18246 1.0419 0
M  V30 608 C 61.5491 -2.2192 0.634037 0
M  V30 609 C 62.5191 -1.62179 -0.358765 0
M  V30 610 O 63.7041 -1.89122 -0.252466 0
M  V30 611 C 60.8441 -3.451 0.00445535 0
M  V30 612 C 59.9571 -4.19174 1.04487 0
M  V30 613 C 59.0921 -5.29813 0.383676 0
M  V30 614 C 58.1311 -5.9566 1.4091 0
M  V30 615 N 57.2681 -6.97834 0.772784 0
M  V30 616 H 62.1081 -2.56164 1.52263 0
M  V30 617 H 59.6451 -1.25843 0.761701 0
M  V30 618 H 61.6031 -4.15485 -0.377919 0
M  V30 619 H 60.2331 -3.11472 -0.847652 0
M  V30 620 H 59.2851 -3.47604 1.54518 0
M  V30 621 H 60.5971 -4.64267 1.82368 0
M  V30 622 H 59.7511 -6.06677 -0.0528366 0
M  V30 623 H 58.4901 -4.85825 -0.427208 0
M  V30 624 H 57.4951 -5.17535 1.85574 0
M  V30 625 H 58.7201 -6.4173 2.22171 0
M  V30 626 H 56.6661 -6.55998 -0.0177708 0
M  V30 627 H 56.5831 -7.41186 1.48928 0
M  V30 628 H 57.8511 -7.78665 0.36071 0
M  V30 629 N 62.0802 -0.821533 -1.34494 0
M  V30 630 C 63.0122 -0.199946 -2.28326 0
M  V30 631 C 64.0252 0.609377 -1.50965 0
M  V30 632 O 65.2142 0.439285 -1.7301 0
M  V30 633 C 62.3142 0.738431 -3.30757 0
M  V30 634 C 61.4872 -0.0277632 -4.37391 0
M  V30 635 C 60.5462 0.831332 -5.19591 0
M  V30 636 O 59.5722 0.276822 -5.68526 0
M  V30 637 N 60.7742 2.15132 -5.39165 0
M  V30 638 H 63.5392 -1.00609 -2.82308 0
M  V30 639 H 61.1002 -0.678366 -1.47003 0
M  V30 640 H 63.0922 1.31773 -3.82646 0
M  V30 641 H 61.6622 1.44533 -2.7718 0
M  V30 642 H 60.8822 -0.788359 -3.86236 0
M  V30 643 H 62.1702 -0.555251 -5.05761 0
M  V30 644 H 61.5682 2.62559 -5.01078 0
M  V30 645 H 60.1252 2.6795 -5.94177 0
M  V30 646 N 63.5583 1.46682 -0.576371 0
M  V30 647 C 64.5053 2.30241 0.160499 0
M  V30 648 C 65.4753 1.40233 0.890162 0
M  V30 649 O 66.6603 1.69186 0.882084 0
M  V30 650 C 63.8003 3.24578 1.1723 0
M  V30 651 C 62.9133 4.29684 0.446736 0
M  V30 652 C 62.0483 5.11154 1.44551 0
M  V30 653 C 61.0873 6.08015 0.70599 0
M  V30 654 N 60.2243 6.82376 1.65251 0
M  V30 655 H 65.0643 2.92727 -0.558127 0
M  V30 656 H 62.6013 1.44272 -0.287056 0
M  V30 657 H 64.5593 3.77711 1.77172 0
M  V30 658 H 63.1893 2.63916 1.85872 0
M  V30 659 H 62.2413 3.79458 -0.267594 0
M  V30 660 H 63.5533 4.98626 -0.131686 0
M  V30 661 H 62.7073 5.68533 2.11791 0
M  V30 662 H 61.4463 4.42158 2.05786 0
M  V30 663 H 60.4513 5.49796 0.0197725 0
M  V30 664 H 61.6763 6.79028 0.09912 0
M  V30 665 H 59.6223 6.16094 2.25308 0
M  V30 666 H 59.5393 7.47556 1.12673 0
M  V30 667 H 60.8073 7.44316 2.31546 0
M  V30 668 N 65.0364 0.313813 1.54444 0
M  V30 669 C 65.9864 -0.571898 2.20711 0
M  V30 670 C 66.9704 -1.08913 1.18435 0
M  V30 671 O 68.1624 -1.02777 1.44104 0
M  V30 672 C 65.2914 -1.7371 2.96108 0
M  V30 673 C 64.3774 -1.23522 4.05713 0
M  V30 674 N 64.7684 -0.452288 5.03774 0
M  V30 675 C 63.0664 -1.51482 4.19487 0
M  V30 676 C 63.7674 -0.183438 5.81411 0
M  V30 677 N 62.7434 -0.766845 5.38164 0
M  V30 678 H 66.5454 0.0336802 2.93881 0
M  V30 679 H 64.0594 0.119192 1.61962 0
M  V30 680 H 66.0564 -2.38329 3.4206 0
M  V30 681 H 64.7164 -2.34625 2.24458 0
M  V30 682 H 65.7274 -0.0960131 5.17811 0
M  V30 683 H 62.4044 -2.13053 3.59047 0
M  V30 684 H 63.7944 0.446216 6.70417 0
M  V30 685 N 66.5145 -1.57545 0.0417849 0
M  V30 686 C 67.7625 -1.91937 -0.632829 0
M  V30 687 C 68.0835 -0.919978 -1.71934 0
M  V30 688 O 67.3535 0.0366064 -1.95866 0
M  V30 689 H 65.9335 -0.708493 -0.236742 0
M  V30 690 H 68.5955 -1.9468 0.0925745 0
M  V30 691 H 67.6915 -2.92912 -1.07746 0
M  V30 692 N 67.9926 0.231505 -1.5589 0
M  V30 693 C 69.4086 0.580748 -1.48659 0
M  V30 694 C 69.6086 1.87617 -0.73498 0
M  V30 695 O 68.6646 2.51046 -0.270586 0
M  V30 696 C 69.9776 0.669202 -2.93159 0
M  V30 697 C 71.5256 0.760499 -3.03621 0
M  V30 698 C 72.0006 0.880383 -4.49459 0
M  V30 699 N 73.4916 0.944861 -4.53461 0
M  V30 700 C 74.2266 1.05716 -5.63571 0
M  V30 701 N 73.7226 1.13403 -6.83456 0
M  V30 702 N 75.5156 1.09152 -5.514 0
M  V30 703 H 67.6666 -0.618695 -2.03189 0
M  V30 704 H 69.9296 -0.215728 -0.923128 0
M  V30 705 H 69.6356 -0.212904 -3.51055 0
M  V30 706 H 69.5096 1.5361 -3.44505 0
M  V30 707 H 71.8966 1.63305 -2.45796 0
M  V30 708 H 71.9776 -0.131864 -2.5546 0
M  V30 709 H 71.6216 0.0123284 -5.07899 0
M  V30 710 H 71.5516 1.78802 -4.95316 0
M  V30 711 H 74.0426 0.896176 -3.6712 0
M  V30 712 H 74.3556 1.21921 -7.63122 0
M  V30 713 H 72.7006 1.10333 -6.86186 0
M  V30 714 H 75.8916 1.02805 -4.56671 0
M  V30 715 H 76.0646 1.17558 -6.37247 0
M  V30 716 N 69.4707 1.49531 0.497807 0
M  V30 717 C 70.7167 1.59415 1.25358 0
M  V30 718 C 71.0497 0.281422 1.9215 0
M  V30 719 O 70.3247 -0.715249 1.80871 0
M  V30 720 C 70.6077 2.75566 2.3181 0
M  V30 721 C 70.4607 4.16642 1.69498 0
M  V30 722 C 71.7797 2.87347 3.33346 0
M  V30 723 H 68.8987 0.580244 0.454408 0
M  V30 724 H 71.5407 1.81827 0.551262 0
M  V30 725 H 69.6907 2.56587 2.91711 0
M  V30 726 H 71.3627 4.47145 1.13399 0
M  V30 727 H 69.6057 4.22141 0.998978 0
M  V30 728 H 70.2767 4.93792 2.46725 0
M  V30 729 H 72.7527 3.04634 2.83438 0
M  V30 730 H 71.6287 3.70289 4.05188 0
M  V30 731 H 71.8897 1.96834 3.95865 0
M  V30 732 N 70.9488 -0.749086 1.3866 0
M  V30 733 C 72.1788 -1.53611 1.38157 0
M  V30 734 C 72.5868 -1.89177 -0.0293595 0
M  V30 735 O 71.9298 -1.53606 -1.00752 0
M  V30 736 C 71.9918 -2.86087 2.17702 0
M  V30 737 C 71.6558 -2.73034 3.66472 0
M  V30 738 C 72.6528 -2.42526 4.59866 0
M  V30 739 C 70.3378 -2.90345 4.09884 0
M  V30 740 C 72.3318 -2.29492 5.94653 0
M  V30 741 C 70.0188 -2.7693 5.4475 0
M  V30 742 C 71.0168 -2.46547 6.36949 0
M  V30 743 O 70.7048 -2.33199 7.69333 0
M  V30 744 H 70.4368 -0.481773 0.474205 0
M  V30 745 H 72.9908 -0.934465 1.82912 0
M  V30 746 H 71.2208 -3.48458 1.67672 0
M  V30 747 H 72.9098 -3.47625 2.09551 0
M  V30 748 H 73.6758 -2.28816 4.27631 0
M  V30 749 H 69.5548 -3.1299 3.38464 0
M  V30 750 H 73.0988 -2.05698 6.66584 0
M  V30 751 H 68.9958 -2.90215 5.76581 0
M  V30 752 H 69.7638 -2.48376 7.79905 0
M  V30 753 N 72.4269 -1.23603 -0.977757 0
M  V30 754 C 73.3369 -1.03632 -2.1047 0
M  V30 755 C 74.3529 0.0199435 -1.73989 0
M  V30 756 O 75.5289 -0.176076 -2.00629 0
M  V30 757 C 72.5939 -0.63276 -3.40877 0
M  V30 758 C 71.6549 -1.76437 -3.91367 0
M  V30 759 C 70.8879 -1.37997 -5.15551 0
M  V30 760 O 71.1109 -0.265357 -5.69782 0
M  V30 761 O 70.0449 -2.20201 -5.60174 0
M  V30 762 H 73.8709 -1.98086 -2.30208 0
M  V30 763 H 71.4559 -1.02332 -1.08851 0
M  V30 764 H 73.3379 -0.418761 -4.19314 0
M  V30 765 H 72.0129 0.282754 -3.22463 0
M  V30 766 H 70.9199 -2.03304 -3.14036 0
M  V30 767 H 72.2529 -2.6583 -4.14241 0
M  V30 768 N 73.905 1.17692 -1.04816 0
M  V30 769 C 75.13 1.92327 -0.776207 0
M  V30 770 C 75.555 1.76082 0.661581 0
M  V30 771 O 74.913 1.076 1.45917 0
M  V30 772 C 74.961 3.41539 -1.15687 0
M  V30 773 O 74.065 4.11402 -0.286775 0
M  V30 774 H 73.406 0.599735 -0.284981 0
M  V30 775 H 75.936 1.49201 -1.4 0
M  V30 776 H 75.946 3.92269 -1.12202 0
M  V30 777 H 74.621 3.52684 -2.20425 0
M  V30 778 H 73.198 3.70939 -0.381903 0
M  V30 779 N 75.3831 0.828654 1.34056 0
M  V30 780 C 76.3461 0.259927 2.27721 0
M  V30 781 C 77.3461 -0.565478 1.50529 0
M  V30 782 O 78.5361 -0.38075 1.69988 0
M  V30 783 C 75.6681 -0.634944 3.34935 0
M  V30 784 H 76.8611 1.0863 2.79534 0
M  V30 785 H 74.4141 0.600951 1.44285 0
M  V30 786 H 75.1491 -1.48416 2.88346 0
M  V30 787 H 74.9341 -0.0444999 3.92075 0
M  V30 788 H 76.4241 -1.02648 4.04788 0
M  V30 789 N 76.8612 -1.46375 0.584142 0
M  V30 790 C 77.8242 -2.28784 -0.138108 0
M  V30 791 C 78.8242 -1.38471 -0.817462 0
M  V30 792 O 80.0142 -1.60833 -0.669199 0
M  V30 793 C 77.1462 -3.18892 -1.20503 0
M  V30 794 H 78.3392 -2.94117 0.586127 0
M  V30 795 H 75.8922 -1.52509 0.342171 0
M  V30 796 H 76.6272 -2.58309 -1.96079 0
M  V30 797 H 76.4122 -3.85388 -0.722384 0
M  V30 798 H 77.9022 -3.80914 -1.71155 0
M  V30 799 N 78.3393 -0.321999 -1.54275 0
M  V30 800 C 79.2493 0.553631 -2.27974 0
M  V30 801 C 80.2653 1.13054 -1.32268 0
M  V30 802 O 81.4413 1.15084 -1.6528 0
M  V30 803 C 78.5063 1.69927 -3.02201 0
M  V30 804 C 77.5673 1.15433 -4.1349 0
M  V30 805 C 76.8003 2.24537 -4.84168 0
M  V30 806 O 77.0233 3.44852 -4.5435 0
M  V30 807 O 75.9573 1.90044 -5.7111 0
M  V30 808 H 79.7833 -0.0448345 -3.03667 0
M  V30 809 H 77.3683 -0.0877418 -1.49142 0
M  V30 810 H 79.2503 2.3663 -3.48689 0
M  V30 811 H 77.9253 2.28395 -2.29385 0
M  V30 812 H 76.8323 0.452436 -3.71354 0
M  V30 813 H 78.1653 0.614805 -4.88345 0
M  V30 814 N 79.8174 1.5752 -0.0501392 0
M  V30 815 C 80.7274 2.14952 0.939827 0
M  V30 816 C 81.7434 1.10706 1.34239 0
M  V30 817 O 82.9194 1.42869 1.41952 0
M  V30 818 C 79.9844 2.68232 2.19665 0
M  V30 819 C 79.0454 3.87272 1.85253 0
M  V30 820 C 78.2784 4.38002 3.04943 0
M  V30 821 O 78.5014 3.87811 4.18281 0
M  V30 822 O 77.4354 5.29602 2.86017 0
M  V30 823 H 81.2614 2.9986 0.481392 0
M  V30 824 H 78.8464 1.4841 0.171699 0
M  V30 825 H 80.7284 3.02475 2.93406 0
M  V30 826 H 79.4034 1.86395 2.64648 0
M  V30 827 H 78.3104 3.5792 1.0883 0
M  V30 828 H 79.6434 4.70336 1.4507 0
M  V30 829 N 81.2955 -0.223234 1.56011 0
M  V30 830 C 82.2585 -1.26014 1.9145 0
M  V30 831 C 83.2585 -1.3989 0.792937 0
M  V30 832 O 84.4485 -1.38184 1.0607 0
M  V30 833 C 81.5805 -2.63422 2.16383 0
M  V30 834 H 82.7735 -0.95796 2.84189 0
M  V30 835 H 80.3265 -0.463576 1.49267 0
M  V30 836 H 81.0615 -2.98741 1.2619 0
M  V30 837 H 80.8465 -2.54728 2.98088 0
M  V30 838 H 82.3365 -3.38249 2.44903 0
M  V30 839 N 82.7736 -1.49793 -0.48987 0
M  V30 840 C 84.0206 -1.59841 -1.24327 0
M  V30 841 C 84.3486 -0.290135 -1.92324 0
M  V30 842 O 83.6036 0.722749 -1.81865 0
M  V30 843 C 83.9026 -2.71488 -2.32441 0
M  V30 844 C 83.5686 -4.12614 -1.81826 0
M  V30 845 C 82.2306 -4.51017 -1.67742 0
M  V30 846 C 84.5826 -5.00892 -1.4407 0
M  V30 847 C 81.9106 -5.75459 -1.14297 0
M  V30 848 C 84.2626 -6.25863 -0.920742 0
M  V30 849 C 82.9266 -6.63086 -0.766383 0
M  V30 850 H 82.1966 -0.584899 -0.454944 0
M  V30 851 H 84.8436 -1.83663 -0.542215 0
M  V30 852 H 83.1486 -2.4168 -3.0838 0
M  V30 853 H 84.8456 -2.76469 -2.90458 0
M  V30 854 H 81.4356 -3.82307 -1.93751 0
M  V30 855 H 85.6196 -4.7187 -1.53794 0
M  V30 856 H 80.8756 -6.02989 -1.01068 0
M  V30 857 H 85.0496 -6.9364 -0.619448 0
M  V30 858 H 82.6766 -7.59393 -0.350083 0
M  V30 859 N 84.2517 0.741722 -1.39055 0
M  V30 860 C 85.6677 1.04638 -1.20512 0
M  V30 861 C 85.8677 2.01405 -0.0620218 0
M  V30 862 O 84.9237 2.45547 0.588457 0
M  V30 863 C 86.2367 1.6151 -2.53643 0
M  V30 864 C 87.7847 1.73623 -2.6043 0
M  V30 865 C 88.2597 2.33906 -3.93767 0
M  V30 866 N 89.7507 2.41323 -3.9537 0
M  V30 867 C 90.4857 2.88888 -4.95309 0
M  V30 868 N 89.9817 3.36401 -6.05645 0
M  V30 869 N 91.7747 2.88037 -4.82692 0
M  V30 870 H 83.9257 0.0998155 -2.12165 0
M  V30 871 H 86.1887 0.106907 -0.941953 0
M  V30 872 H 85.8947 0.978739 -3.37807 0
M  V30 873 H 85.7687 2.60411 -2.72885 0
M  V30 874 H 88.1557 2.36384 -1.76655 0
M  V30 875 H 88.2367 0.733945 -2.45045 0
M  V30 876 H 87.8807 1.71776 -4.7797 0
M  V30 877 H 87.8107 3.34799 -4.06469 0
M  V30 878 H 90.3017 2.07734 -3.15682 0
M  V30 879 H 90.6147 3.71186 -6.77821 0
M  V30 880 H 88.9597 3.34427 -6.09248 0
M  V30 881 H 92.1507 2.50237 -3.95599 0
M  V30 882 H 92.3237 3.24792 -5.60726 0
M  V30 883 N 85.7298 1.2412 0.971189 0
M  V30 884 C 86.6598 1.05508 2.08304 0
M  V30 885 C 87.6408 -0.0308864 1.70072 0
M  V30 886 O 88.8258 0.135521 1.93727 0
M  V30 887 C 85.9558 0.655365 3.4106 0
M  V30 888 C 84.9098 1.68971 3.93234 0
M  V30 889 C 84.2358 1.14516 5.22293 0
M  V30 890 C 85.5358 3.08487 4.21465 0
M  V30 891 H 87.2298 1.98507 2.24132 0
M  V30 892 H 84.7758 0.955821 1.07704 0
M  V30 893 H 86.7288 0.51217 4.18276 0
M  V30 894 H 85.4528 -0.31032 3.25122 0
M  V30 895 H 84.1118 1.82106 3.18171 0
M  V30 896 H 83.7598 0.170189 5.02712 0
M  V30 897 H 83.4598 1.83635 5.58168 0
M  V30 898 H 84.9838 1.01401 6.02121 0
M  V30 899 H 86.3978 2.98601 4.89398 0
M  V30 900 H 84.7948 3.74926 4.68562 0
M  V30 901 H 85.8648 3.56787 3.28376 0
M  V30 902 N 87.2079 -1.17134 1.05439 0
M  V30 903 C 88.4329 -1.91913 0.786396 0
M  V30 904 C 88.8579 -1.7643 -0.652234 0
M  V30 905 O 88.2159 -1.08372 -1.45345 0
M  V30 906 C 88.2639 -3.40921 1.17497 0
M  V30 907 O 87.3679 -4.11244 0.308589 0
M  V30 908 H 86.7089 -0.598215 0.288158 0
M  V30 909 H 89.2389 -1.48457 1.4079 0
M  V30 910 H 89.2489 -3.91668 1.14281 0
M  V30 911 H 87.9239 -3.5151 2.22292 0
M  V30 912 H 86.5009 -3.70731 0.40157 0
M  V30 913 N 88.686 -0.835752 -1.33615 0
M  V30 914 C 89.932 -0.430596 -1.98176 0
M  V30 915 C 90.265 1.00684 -1.66061 0
M  V30 916 O 89.54 1.70339 -0.938877 0
M  V30 917 C 89.823 -0.648065 -3.5422 0
M  V30 918 C 89.676 -2.13255 -3.96033 0
M  V30 919 C 90.995 -0.0922113 -4.40003 0
M  V30 920 H 88.114 -0.157924 -0.719881 0
M  V30 921 H 90.756 -1.05069 -1.58305 0
M  V30 922 H 88.906 -0.120237 -3.88314 0
M  V30 923 H 90.578 -2.725 -3.72211 0
M  V30 924 H 88.821 -2.61823 -3.45878 0
M  V30 925 H 89.492 -2.23547 -5.04708 0
M  V30 926 H 91.968 -0.543343 -4.12537 0
M  V30 927 H 90.844 -0.274083 -5.48215 0
M  V30 928 H 91.105 1.00378 -4.30554 0
M  V30 929 N 90.1641 1.46063 -0.591896 0
M  V30 930 C 91.4111 2.02338 -0.0809991 0
M  V30 931 C 91.7391 1.46228 1.28249 0
M  V30 932 O 90.9941 0.620818 1.85592 0
M  V30 933 C 91.2931 3.57391 0.0249813 0
M  V30 934 C 90.9591 4.32583 -1.27211 0
M  V30 935 C 89.6211 4.52844 -1.62745 0
M  V30 936 C 91.9731 4.75687 -2.13005 0
M  V30 937 C 89.3011 5.13462 -2.83855 0
M  V30 938 C 91.6531 5.37644 -3.3335 0
M  V30 939 C 90.3171 5.5613 -3.69155 0
M  V30 940 H 89.5871 0.740407 -0.0296397 0
M  V30 941 H 92.2341 1.75321 -0.770374 0
M  V30 942 H 90.5391 3.83597 0.797537 0
M  V30 943 H 92.2361 3.98621 0.436184 0
M  V30 944 H 88.8261 4.17116 -0.985499 0
M  V30 945 H 93.0101 4.59782 -1.86855 0
M  V30 946 H 88.2661 5.25965 -3.11722 0
M  V30 947 H 92.4401 5.7 -4.00092 0
M  V30 948 H 90.0671 6.0287 -4.63089 0
M  V30 949 N 91.6422 0.330177 1.54103 0
M  V30 950 C 93.0582 -0.0222371 1.59585 0
M  V30 951 C 93.2582 -1.49902 1.34654 0
M  V30 952 O 92.3142 -2.25592 1.13421 0
M  V30 953 C 93.6272 0.401932 2.98002 0
M  V30 954 C 95.1752 0.353145 3.11001 0
M  V30 955 C 95.6502 0.752576 4.51775 0
M  V30 956 N 97.1412 0.706239 4.57784 0
M  V30 957 C 97.8762 0.987417 5.64834 0
M  V30 958 N 97.3722 1.33607 6.79795 0
M  V30 959 N 99.1652 0.91254 5.54643 0
M  V30 960 H 91.3162 1.29228 1.68564 0
M  V30 961 H 93.5792 0.525906 0.78875 0
M  V30 962 H 93.2852 1.4311 3.21267 0
M  V30 963 H 93.1592 -0.229699 3.765 0
M  V30 964 H 95.5462 -0.666822 2.87467 0
M  V30 965 H 95.6272 1.0198 2.34593 0
M  V30 966 H 95.2712 1.77049 4.76042 0
M  V30 967 H 95.2012 0.0635409 5.26562 0
M  V30 968 H 97.6922 0.44889 3.75224 0
M  V30 969 H 98.0052 1.53582 7.57385 0
M  V30 970 H 96.3502 1.37439 6.81275 0
M  V30 971 H 99.5412 0.639601 4.6371 0
M  V30 972 H 99.7142 1.13503 6.37982 0
M  V30 973 N 93.1203 -1.57491 0.0584922 0
M  V30 974 C 94.0303 -2.15448 -0.928414 0
M  V30 975 C 95.0463 -1.11416 -1.3365 0
M  V30 976 O 96.2223 -1.4362 -1.41193 0
M  V30 977 C 93.2873 -2.69393 -2.18239 0
M  V30 978 C 92.3483 -3.88249 -1.83196 0
M  V30 979 C 91.5813 -4.39613 -3.02616 0
M  V30 980 O 91.8043 -3.90023 -4.16219 0
M  V30 981 O 90.7383 -5.31111 -2.83204 0
M  V30 982 H 94.5643 -3.00112 -0.465483 0
M  V30 983 H 92.1493 -1.48499 -0.163826 0
M  V30 984 H 94.0313 -3.04026 -2.91798 0
M  V30 985 H 92.7063 -1.87796 -2.63656 0
M  V30 986 H 91.6133 -3.58492 -1.06931 0
M  V30 987 H 92.9463 -4.71098 -1.42573 0
M  V30 988 N 94.5984 0.214957 -1.56127 0
M  V30 989 C 95.5464 1.28601 -1.93816 0
M  V30 990 C 96.5404 1.48175 -0.821016 0
M  V30 991 O 97.7464 1.49271 -1.0059 0
M  V30 992 H 94.1214 0.431302 -0.616022 0
M  V30 993 H 96.0924 0.940991 -2.83175 0
M  V30 994 C 94.8414 2.62779 -2.27689 0
M  V30 995 H 94.1644 2.48527 -3.13168 0
M  V30 996 H 95.6044 3.36517 -2.57939 0
M  V30 997 C 94.0634 3.18285 -1.10436 0
M  V30 998 O 94.5934 4.00002 -0.368945 0
M  V30 999 N 92.7994 2.7675 -0.886433 0
M  V30 1000 H 92.3464 2.10404 -1.48619 0
M  V30 1001 H 92.3044 3.14229 -0.103656 0
M  V30 1002 N 96.0765 1.50051 0.48192 0
M  V30 1003 C 97.0065 1.71046 1.58951 0
M  V30 1004 C 97.9875 0.559288 1.60642 0
M  V30 1005 O 99.1725 0.797243 1.77081 0
M  V30 1006 C 96.3025 1.79462 2.97339 0
M  V30 1007 C 95.2565 2.94558 3.10515 0
M  V30 1008 C 94.5825 2.88105 4.50444 0
M  V30 1009 C 95.8825 4.35227 2.88747 0
M  V30 1010 H 97.5765 2.6378 1.41635 0
M  V30 1011 H 95.1225 1.26936 0.679942 0
M  V30 1012 H 97.0755 1.92734 3.74742 0
M  V30 1013 H 95.7995 0.833412 3.15788 0
M  V30 1014 H 94.4585 2.80918 2.35543 0
M  V30 1015 H 94.1065 1.89853 4.65795 0
M  V30 1016 H 93.8065 3.65366 4.60197 0
M  V30 1017 H 95.3305 3.03412 5.29881 0
M  V30 1018 H 96.7445 4.49449 3.55905 0
M  V30 1019 H 95.1415 5.13856 3.09955 0
M  V30 1020 H 96.2115 4.48347 1.84696 0
M  V30 1021 N 97.5546 -0.734337 1.39446 0
M  V30 1022 C 98.8016 -1.49391 1.36706 0
M  V30 1023 C 99.1296 -1.94465 -0.0367813 0
M  V30 1024 O 98.3846 -1.67154 -1.01774 0
M  V30 1025 C 98.6836 -2.74711 2.28623 0
M  V30 1026 C 98.3496 -2.48501 3.76242 0
M  V30 1027 C 97.0116 -2.41062 4.16464 0
M  V30 1028 C 99.3636 -2.26098 4.69606 0
M  V30 1029 C 96.6916 -2.09262 5.48112 0
M  V30 1030 C 99.0436 -1.95814 6.01531 0
M  V30 1031 C 97.7076 -1.86845 6.40816 0
M  V30 1032 H 96.9776 -0.546661 0.500243 0
M  V30 1033 H 99.6246 -0.842788 1.71957 0
M  V30 1034 H 97.9296 -3.44569 1.86492 0
M  V30 1035 H 99.6266 -3.32741 2.23796 0
M  V30 1036 H 96.2166 -2.55169 3.44364 0
M  V30 1037 H 100.401 -2.30812 4.39363 0
M  V30 1038 H 95.6566 -2.00841 5.77471 0
M  V30 1039 H 99.8306 -1.77488 6.73403 0
M  V30 1040 H 97.4576 -1.6197 7.42745 0
M  V30 1041 N 99.0327 -1.24633 -0.964593 0
M  V30 1042 C 99.9627 -1.06611 -2.07741 0
M  V30 1043 C 100.944 0.0218666 -1.70086 0
M  V30 1044 O 102.129 -0.145793 -1.93652 0
M  V30 1045 C 99.2587 -0.673444 -3.40708 0
M  V30 1046 C 98.2127 -1.71054 -3.92332 0
M  V30 1047 C 97.5387 -1.17285 -5.21678 0
M  V30 1048 C 98.8387 -3.10718 -4.19824 0
M  V30 1049 H 100.533 -1.99693 -2.23076 0
M  V30 1050 H 98.0787 -0.96152 -1.07195 0
M  V30 1051 H 100.032 -0.534345 -4.17998 0
M  V30 1052 H 98.7557 0.293073 -3.25282 0
M  V30 1053 H 97.4147 -1.83791 -3.17201 0
M  V30 1054 H 97.0627 -0.196847 -5.02615 0
M  V30 1055 H 96.7627 -1.86592 -5.57187 0
M  V30 1056 H 98.2867 -1.04593 -6.01575 0
M  V30 1057 H 99.7007 -3.01192 -4.87808 0
M  V30 1058 H 98.0977 -3.77406 -4.66567 0
M  V30 1059 H 99.1677 -3.58524 -3.26479 0
M  V30 1060 N 100.511 1.16574 -1.06058 0
M  V30 1061 C 101.474 2.19085 -0.673392 0
M  V30 1062 C 102.474 1.5835 0.279648 0
M  V30 1063 O 103.664 1.74088 0.0623488 0
M  V30 1064 C 100.796 3.40899 0.00954234 0
M  V30 1065 H 101.989 2.54853 -1.58081 0
M  V30 1066 H 99.5418 1.30808 -0.855516 0
M  V30 1067 H 100.277 3.10684 0.929826 0
M  V30 1068 H 100.062 3.86233 -0.67573 0
M  V30 1069 H 101.552 4.1675 0.266245 0
M  V30 1070 N 101.989 0.842826 1.3317 0
M  V30 1071 C 103.405 0.531128 1.50503 0
M  V30 1072 C 103.605 -0.940734 1.78192 0
M  V30 1073 O 102.661 -1.72436 1.84451 0
M  V30 1074 C 103.974 1.40789 2.65705 0
M  V30 1075 C 105.522 1.40708 2.79589 0
M  V30 1076 C 105.997 2.26878 3.97857 0
M  V30 1077 N 107.488 2.24609 4.05099 0
M  V30 1078 C 108.223 2.88019 4.95815 0
M  V30 1079 N 107.719 3.60496 5.9162 0
M  V30 1080 N 109.512 2.77469 4.88843 0
M  V30 1081 H 101.663 1.79557 1.1346 0
M  V30 1082 H 103.926 0.766267 0.558156 0
M  V30 1083 H 103.632 2.454 2.51936 0
M  V30 1084 H 103.506 1.08677 3.61205 0
M  V30 1085 H 105.893 0.368668 2.92788 0
M  V30 1086 H 105.974 1.76829 1.84838 0
M  V30 1087 H 105.618 3.3078 3.85418 0
M  V30 1088 H 105.548 1.88096 4.91861 0
M  V30 1089 H 108.039 1.71906 3.36536 0
M  V30 1090 H 108.352 4.06076 6.57512 0
M  V30 1091 H 106.697 3.64604 5.91683 0
M  V30 1092 H 109.888 2.20406 4.12963 0
M  V30 1093 H 110.061 3.2717 5.59342 0
M  V30 1094 N 103.467 -1.45747 0.599634 0
M  V30 1095 C 104.397 -2.33235 -0.111306 0
M  V30 1096 C 105.378 -1.46359 -0.866781 0
M  V30 1097 O 106.563 -1.75146 -0.838904 0
M  V30 1098 C 103.693 -3.28932 -1.11451 0
M  V30 1099 C 102.647 -4.25381 -0.472772 0
M  V30 1100 C 101.973 -5.1071 -1.58365 0
M  V30 1101 C 103.273 -5.18831 0.600948 0
M  V30 1102 H 104.967 -2.92927 0.61919 0
M  V30 1103 H 102.513 -1.40857 0.299215 0
M  V30 1104 H 104.466 -3.89002 -1.62036 0
M  V30 1105 H 103.19 -2.67381 -1.8755 0
M  V30 1106 H 101.849 -3.66598 0.0121472 0
M  V30 1107 H 101.497 -4.45533 -2.33473 0
M  V30 1108 H 101.197 -5.7604 -1.15982 0
M  V30 1109 H 102.721 -5.73647 -2.09194 0
M  V30 1110 H 104.135 -5.73019 0.179491 0
M  V30 1111 H 102.532 -5.92595 0.946076 0
M  V30 1112 H 103.602 -4.6174 1.48068 0
M  V30 1113 N 104.945 -0.338344 -1.53925 0
M  V30 1114 C 105.895 0.536712 -2.21593 0
M  V30 1115 C 106.879 1.07015 -1.20153 0
M  V30 1116 O 108.071 1.00471 -1.45721 0
M  V30 1117 C 105.2 1.68977 -2.98834 0
M  V30 1118 C 104.286 1.17052 -4.07627 0
M  V30 1119 N 104.677 0.372085 -5.0443 0
M  V30 1120 C 102.975 1.44789 -4.21844 0
M  V30 1121 C 103.676 0.0909171 -5.81629 0
M  V30 1122 N 102.652 0.681131 -5.39316 0
M  V30 1123 H 106.454 -0.0804298 -2.9379 0
M  V30 1124 H 103.968 -0.144943 -1.61752 0
M  V30 1125 H 105.965 2.32857 -3.45808 0
M  V30 1126 H 104.625 2.31024 -2.28162 0
M  V30 1127 H 105.636 0.0136217 -5.17898 0
M  V30 1128 H 102.313 2.07313 -3.62391 0
M  V30 1129 H 103.703 -0.552817 -6.69622 0
M  V30 1130 N 106.423 1.57458 -0.0668435 0
M  V30 1131 C 107.386 2.11323 0.887422 0
M  V30 1132 C 108.386 1.03618 1.22964 0
M  V30 1133 O 109.576 1.29626 1.16373 0
M  V30 1134 C 106.708 2.61048 2.19242 0
M  V30 1135 H 107.901 2.96942 0.420194 0
M  V30 1136 H 105.454 1.55239 0.181793 0
M  V30 1137 H 106.189 1.78868 2.70512 0
M  V30 1138 H 105.974 3.39769 1.95702 0
M  V30 1139 H 107.464 3.02814 2.87565 0
M  V30 1140 N 107.901 -0.206675 1.56239 0
M  V30 1141 C 108.864 -1.23976 1.92776 0
M  V30 1142 C 109.864 -1.39041 0.807729 0
M  V30 1143 O 111.054 -1.37051 1.0753 0
M  V30 1144 C 108.186 -2.61112 2.19165 0
M  V30 1145 H 109.379 -0.927764 2.85189 0
M  V30 1146 H 106.932 -0.447718 1.4975 0
M  V30 1147 H 107.667 -2.97386 1.29352 0
M  V30 1148 H 107.452 -2.51552 3.00772 0
M  V30 1149 H 108.942 -3.35633 2.48476 0
M  V30 1150 N 109.379 -1.50304 -0.473955 0
M  V30 1151 C 110.342 -1.6841 -1.55469 0
M  V30 1152 C 111.342 -0.554905 -1.50922 0
M  V30 1153 O 112.532 -0.821882 -1.53593 0
M  V30 1154 C 109.664 -1.70667 -2.95102 0
M  V30 1155 H 110.857 -2.64828 -1.40733 0
M  V30 1156 H 108.41 -1.39742 -0.700132 0
M  V30 1157 H 109.145 -0.75932 -3.15285 0
M  V30 1158 H 108.93 -2.52698 -2.9981 0
M  V30 1159 H 110.42 -1.8664 -3.73571 0
M  V30 1160 N 110.857 0.726932 -1.39834 0
M  V30 1161 C 111.805 1.86235 -1.39353 0
M  V30 1162 C 112.799 1.67144 -0.275555 0
M  V30 1163 O 114.005 1.74387 -0.44601 0
M  V30 1164 H 110.38 0.613174 -0.43534 0
M  V30 1165 H 112.351 1.83756 -2.35109 0
M  V30 1166 C 111.1 3.23995 -1.26185 0
M  V30 1167 H 110.423 3.39285 -2.11484 0
M  V30 1168 H 111.863 4.03609 -1.29907 0
M  V30 1169 C 110.322 3.36888 0.0290018 0
M  V30 1170 O 110.852 3.89152 0.99619 0
M  V30 1171 N 109.058 2.90446 0.0947437 0
M  V30 1172 H 108.605 2.48102 -0.693035 0
M  V30 1173 H 108.563 2.99451 0.957932 0
M  V30 1174 N 112.336 1.25143 0.95797 0
M  V30 1175 C 113.747 1.08851 1.51685 0
M  V30 1176 C 114.098 -0.33687 1.93286 0
M  V30 1177 O 113.223 -1.22644 1.7829 0
M  V30 1178 C 113.818 1.96978 2.75654 0
M  V30 1179 C 112.377 1.84881 3.27866 0
M  V30 1180 C 111.524 1.91329 2.0072 0
M  V30 1181 H 114.475 1.38478 0.77522 0
M  V30 1182 H 114.496 1.5078 3.4935 0
M  V30 1183 H 114.008 3.00712 2.45345 0
M  V30 1184 H 112.109 0.840182 3.63004 0
M  V30 1185 H 112.222 2.6951 3.96107 0
M  V30 1186 H 110.586 1.35174 2.15871 0
M  V30 1187 H 111.369 2.96661 1.72764 0
M  V30 1188 N 113.814 -1.1601 1.06675 0
M  V30 1189 C 114.764 -2.18512 0.650888 0
M  V30 1190 C 115.748 -1.57677 -0.320441 0
M  V30 1191 O 116.94 -1.76482 -0.135266 0
M  V30 1192 C 114.069 -3.43273 0.0429255 0
M  V30 1193 C 113.155 -4.11176 1.03898 0
M  V30 1194 N 113.546 -4.54672 2.216 0
M  V30 1195 C 111.844 -4.37417 0.870779 0
M  V30 1196 C 112.545 -5.07248 2.84736 0
M  V30 1197 N 111.521 -5.0037 2.12441 0
M  V30 1198 H 115.323 -2.49863 1.54745 0
M  V30 1199 H 112.837 -1.32503 0.938975 0
M  V30 1200 H 114.834 -4.16006 -0.272857 0
M  V30 1201 H 113.494 -3.13408 -0.84884 0
M  V30 1202 H 114.505 -4.4828 2.59356 0
M  V30 1203 H 111.182 -4.17488 0.0313293 0
M  V30 1204 H 112.572 -5.50912 3.84636 0
M  V30 1205 N 115.292 -0.849877 -1.32721 0
M  V30 1206 C 116.255 -0.296122 -2.27279 0
M  V30 1207 C 117.255 0.541458 -1.5141 0
M  V30 1208 O 118.445 0.353658 -1.70572 0
M  V30 1209 C 115.577 0.581579 -3.35902 0
M  V30 1210 H 116.77 -1.13064 -2.77771 0
M  V30 1211 H 114.323 -0.62383 -1.43311 0
M  V30 1212 H 115.058 1.43809 -2.9067 0
M  V30 1213 H 114.843 -0.0178814 -3.92096 0
M  V30 1214 H 116.333 0.961951 -4.0637 0
M  V30 1215 N 116.77 1.45427 -0.607355 0
M  V30 1216 C 117.998 2.06614 -0.108814 0
M  V30 1217 C 118.413 1.45204 1.2067 0
M  V30 1218 O 117.77 0.566132 1.73497 0
M  V30 1219 C 117.821 3.61481 0.0375347 0
M  V30 1220 O 117.542 4.20598 -1.22593 0
M  V30 1221 C 119.043 4.39652 0.567561 0
M  V30 1222 H 116.263 0.66747 -0.0687351 0
M  V30 1223 H 118.807 1.86675 -0.835022 0
M  V30 1224 H 116.962 3.80762 0.714068 0
M  V30 1225 H 117.376 5.1377 -1.05547 0
M  V30 1226 H 118.85 5.48518 0.61905 0
M  V30 1227 H 119.327 4.09417 1.58978 0
M  V30 1228 H 119.933 4.25234 -0.0749202 0
M  V30 1229 N 118.248 0.346503 1.53744 0
M  V30 1230 C 119.495 -0.249104 2.00962 0
M  V30 1231 C 119.823 -1.5032 1.23426 0
M  V30 1232 O 119.078 -1.93217 0.310761 0
M  V30 1233 C 119.377 -0.605809 3.52228 0
M  V30 1234 C 119.043 0.551747 4.47512 0
M  V30 1235 C 117.705 0.86941 4.73281 0
M  V30 1236 C 120.057 1.32818 5.03993 0
M  V30 1237 C 117.385 1.96582 5.52786 0
M  V30 1238 C 119.737 2.41486 5.84694 0
M  V30 1239 C 118.401 2.73808 6.08757 0
M  V30 1240 H 117.671 -0.0911538 0.735372 0
M  V30 1241 H 120.318 0.475027 1.85515 0
M  V30 1242 H 118.623 -1.4107 3.65522 0
M  V30 1243 H 120.32 -1.07858 3.86222 0
M  V30 1244 H 116.91 0.294102 4.2759 0
M  V30 1245 H 121.094 1.09602 4.84047 0
M  V30 1246 H 116.35 2.22045 5.69654 0
M  V30 1247 H 120.524 3.02078 6.27473 0
M  V30 1248 H 118.151 3.58892 6.7015 0
M  V30 1249 N 119.726 -1.57421 0.075193 0
M  V30 1250 C 120.974 -1.93236 -0.591974 0
M  V30 1251 C 121.295 -0.956241 -1.69944 0
M  V30 1252 O 120.565 -0.00494792 -1.95899 0
M  V30 1253 H 119.145 -0.713355 -0.22166 0
M  V30 1254 H 121.807 -1.9444 0.133848 0
M  V30 1255 H 120.903 -2.95131 -1.01509 0
M  V30 1256 N 121.204 0.198386 -1.56346 0
M  V30 1257 C 122.45 0.920648 -1.80698 0
M  V30 1258 C 122.783 1.83045 -0.648697 0
M  V30 1259 O 122.058 1.91308 0.350925 0
M  V30 1260 C 122.341 1.73971 -3.15287 0
M  V30 1261 C 122.194 0.85485 -4.41602 0
M  V30 1262 C 123.513 2.71296 -3.46535 0
M  V30 1263 H 120.632 0.333261 -0.657348 0
M  V30 1264 H 123.274 0.188198 -1.89066 0
M  V30 1265 H 121.424 2.36416 -3.08285 0
M  V30 1266 H 123.096 0.245362 -4.60647 0
M  V30 1267 H 121.339 0.161398 -4.335 0
M  V30 1268 H 122.01 1.46286 -5.32264 0
M  V30 1269 H 124.486 2.18983 -3.53816 0
M  V30 1270 H 123.362 3.2569 -4.41834 0
M  V30 1271 H 123.623 3.5018 -2.69864 0
M  V30 1272 N 122.682 1.50554 0.465978 0
M  V30 1273 C 123.91 1.65563 1.24083 0
M  V30 1274 C 124.325 0.341051 1.85694 0
M  V30 1275 O 123.682 -0.677543 1.69457 0
M  V30 1276 C 123.733 2.75051 2.34583 0
M  V30 1277 O 123.454 4.01413 1.75497 0
M  V30 1278 C 124.955 3.01078 3.25372 0
M  V30 1279 H 122.175 0.55638 0.375077 0
M  V30 1280 H 124.719 1.96807 0.555624 0
M  V30 1281 H 122.874 2.46486 2.9887 0
M  V30 1282 H 123.288 4.62002 2.48303 0
M  V30 1283 H 124.762 3.81339 3.99105 0
M  V30 1284 H 125.239 2.12349 3.84453 0
M  V30 1285 H 125.845 3.31194 2.66816 0
M  V30 1286 N 124.16 -0.719506 1.40217 0
M  V30 1287 C 125.571 -1.29848 1.34151 0
M  V30 1288 C 125.922 -1.96196 0.0131349 0
M  V30 1289 O 125.047 -1.973 -0.88892 0
M  V30 1290 C 125.642 -2.36118 2.42968 0
M  V30 1291 C 124.201 -2.8965 2.40374 0
M  V30 1292 C 123.348 -1.63393 2.24049 0
M  V30 1293 H 126.299 -0.51591 1.5008 0
M  V30 1294 H 126.32 -3.16871 2.10649 0
M  V30 1295 H 125.832 -1.878 3.39636 0
M  V30 1296 H 123.933 -3.42208 1.47392 0
M  V30 1297 H 124.046 -3.4171 3.35814 0
M  V30 1298 H 122.41 -1.88312 1.71495 0
M  V30 1299 H 123.193 -1.17104 3.2271 0
M  V30 1300 N 125.638 -1.25649 -0.95132 0
M  V30 1301 C 126.885 -1.10594 -1.69633 0
M  V30 1302 C 127.213 0.352515 -1.91279 0
M  V30 1303 O 126.468 1.27601 -1.4838 0
M  V30 1304 C 126.767 -1.80909 -3.08231 0
M  V30 1305 C 126.433 -3.30825 -3.06375 0
M  V30 1306 C 125.095 -3.71722 -3.05576 0
M  V30 1307 C 127.447 -4.26589 -2.99452 0
M  V30 1308 C 124.775 -5.06788 -2.95606 0
M  V30 1309 C 127.127 -5.61683 -2.91024 0
M  V30 1310 C 125.791 -6.01904 -2.88562 0
M  V30 1311 H 125.061 -0.404691 -0.620731 0
M  V30 1312 H 127.708 -1.55964 -1.11119 0
M  V30 1313 H 126.013 -1.27979 -3.70309 0
M  V30 1314 H 127.71 -1.6671 -3.64704 0
M  V30 1315 H 124.3 -2.98287 -3.07771 0
M  V30 1316 H 128.484 -3.95982 -2.99185 0
M  V30 1317 H 123.74 -5.37126 -2.92071 0
M  V30 1318 H 127.914 -6.35578 -2.84629 0
M  V30 1319 H 125.541 -7.06521 -2.80593 0
M  V30 1320 N 127.117 1.15442 -1.07289 0
M  V30 1321 C 128.342 1.90638 -0.816828 0
M  V30 1322 C 128.767 1.77445 0.624083 0
M  V30 1323 O 128.125 1.10671 1.43602 0
M  V30 1324 C 128.173 3.39008 -1.22906 0
M  V30 1325 O 127.277 4.10701 -0.373975 0
M  V30 1326 H 126.618 0.593555 -0.297638 0
M  V30 1327 H 129.148 1.46198 -1.43134 0
M  V30 1328 H 129.158 3.89801 -1.20497 0
M  V30 1329 H 127.833 3.47929 -2.27856 0
M  V30 1330 H 126.41 3.70046 -0.460499 0
M  V30 1331 N 128.595 0.856903 1.32268 0
M  V30 1332 C 129.872 0.382583 1.91822 0
M  V30 1333 C 130.252 -1.13407 1.78051 0
M  V30 1334 O 129.6 -1.95673 1.18001 0
M  V30 1335 C 129.81 0.849446 3.38505 0
M  V30 1336 C 131.158 0.867936 4.15634 0
M  V30 1337 O 132.182 0.794232 3.47232 0
M  V30 1338 O 131.041 0.972286 5.37781 0
M  V30 1339 H 128.135 0.112014 0.819379 0
M  V30 1340 H 130.681 0.943952 1.41024 0
M  V30 1341 H 129.453 1.89267 3.42482 0
M  V30 1342 H 129.076 0.265652 3.96712 0
M  V30 1343 N 130.073 -1.45103 0.615059 0
M  V30 1344 C 131.003 -2.33339 -0.0865619 0
M  V30 1345 C 131.984 -1.4727 -0.851209 0
M  V30 1346 O 133.169 -1.76026 -0.820281 0
M  V30 1347 C 130.299 -3.30095 -1.07956 0
M  V30 1348 C 129.253 -4.25858 -0.427628 0
M  V30 1349 C 128.579 -5.12361 -1.5294 0
M  V30 1350 C 129.879 -5.18165 0.655944 0
M  V30 1351 H 131.573 -2.92254 0.650224 0
M  V30 1352 H 129.119 -1.40532 0.314138 0
M  V30 1353 H 131.072 -3.90698 -1.57901 0
M  V30 1354 H 129.796 -2.69355 -1.84703 0
M  V30 1355 H 128.455 -3.66564 0.0510292 0
M  V30 1356 H 128.103 -4.47984 -2.28734 0
M  V30 1357 H 127.803 -5.77238 -1.09865 0
M  V30 1358 H 129.327 -5.75833 -2.03098 0
M  V30 1359 H 130.741 -5.72796 0.240257 0
M  V30 1360 H 129.138 -5.91559 1.00888 0
M  V30 1361 H 130.208 -4.60144 1.52957 0
M  V30 1362 N 131.551 -0.354651 -1.53558 0
M  V30 1363 C 132.779 0.239515 -2.05509 0
M  V30 1364 C 133.194 1.4333 -1.2289 0
M  V30 1365 O 132.551 1.80538 -0.266899 0
M  V30 1366 C 132.602 0.643719 -3.55723 0
M  V30 1367 O 132.323 -0.502602 -4.35207 0
M  V30 1368 C 133.824 1.29743 -4.23889 0
M  V30 1369 H 131.044 0.0442697 -0.669538 0
M  V30 1370 H 133.588 -0.509856 -1.98042 0
M  V30 1371 H 131.743 1.34302 -3.63376 0
M  V30 1372 H 132.157 -0.178172 -5.24197 0
M  V30 1373 H 133.631 1.53091 -5.30346 0
M  V30 1374 H 134.108 2.25441 -3.76926 0
M  V30 1375 H 134.714 0.639865 -4.20459 0
M  V30 1376 N 133.029 1.57378 -0.0835403 0
M  V30 1377 C 134.445 1.57246 0.273109 0
M  V30 1378 C 134.645 1.09385 1.69225 0
M  V30 1379 O 133.701 0.765051 2.40631 0
M  V30 1380 C 135.014 3.00614 0.0720628 0
M  V30 1381 C 136.562 3.12684 0.1407 0
M  V30 1382 C 137.037 4.57989 -0.0322094 0
M  V30 1383 N 138.528 4.63194 0.0230085 0
M  V30 1384 C 139.263 5.73335 -0.0861941 0
M  V30 1385 N 138.759 6.9235 -0.24958 0
M  V30 1386 N 140.552 5.62093 -0.0282886 0
M  V30 1387 H 132.703 1.86801 -1.0109 0
M  V30 1388 H 134.966 0.861687 -0.395222 0
M  V30 1389 H 134.672 3.39786 -0.907662 0
M  V30 1390 H 134.546 3.68193 0.81936 0
M  V30 1391 H 136.933 2.73391 1.11092 0
M  V30 1392 H 137.014 2.47719 -0.637896 0
M  V30 1393 H 136.658 4.97973 -0.999247 0
M  V30 1394 H 136.588 5.21 0.765937 0
M  V30 1395 H 139.079 3.77613 0.14722 0
M  V30 1396 H 139.392 7.72117 -0.324733 0
M  V30 1397 H 137.737 6.94415 -0.285097 0
M  V30 1398 H 140.928 4.67997 0.0981408 0
M  V30 1399 H 141.101 6.47895 -0.116845 0
M  V30 1400 N 134.507 -0.190092 1.56449 0
M  V30 1401 C 135.417 -1.25591 1.98152 0
M  V30 1402 C 136.433 -1.49519 0.889944 0
M  V30 1403 O 137.609 -1.62036 1.19609 0
M  V30 1404 C 134.674 -2.57916 2.3169 0
M  V30 1405 C 133.735 -2.42015 3.5458 0
M  V30 1406 C 132.968 -3.6803 3.8651 0
M  V30 1407 O 133.191 -4.72413 3.1966 0
M  V30 1408 O 132.125 -3.6326 4.79923 0
M  V30 1409 H 135.951 -0.931988 2.89046 0
M  V30 1410 H 133.536 -0.395488 1.4407 0
M  V30 1411 H 135.418 -3.36008 2.54316 0
M  V30 1412 H 134.093 -2.89925 1.43963 0
M  V30 1413 H 133 -1.62017 3.37196 0
M  V30 1414 H 134.333 -2.14937 4.4279 0
M  V30 1415 N 135.985 -1.50799 -0.457987 0
M  V30 1416 C 136.895 -1.73426 -1.57989 0
M  V30 1417 C 137.911 -0.617745 -1.62665 0
M  V30 1418 O 139.087 -0.897614 -1.80291 0
M  V30 1419 C 136.152 -1.83557 -2.94122 0
M  V30 1420 C 135.213 -3.07345 -2.99729 0
M  V30 1421 C 134.446 -3.16983 -4.29368 0
M  V30 1422 O 134.669 -2.33077 -5.20607 0
M  V30 1423 O 133.603 -4.09812 -4.40837 0
M  V30 1424 H 137.429 -2.68555 -1.41817 0
M  V30 1425 H 135.014 -1.35052 -0.638859 0
M  V30 1426 H 136.896 -1.92326 -3.74952 0
M  V30 1427 H 135.571 -0.916137 -3.10465 0
M  V30 1428 H 134.478 -3.04068 -2.1793 0
M  V30 1429 H 135.811 -3.9891 -2.88326 0
M  V30 1430 N 137.463 0.71206 -1.40597 0
M  V30 1431 C 138.71 1.47197 -1.39065 0
M  V30 1432 C 139.038 1.94499 0.00583891 0
M  V30 1433 O 138.293 1.68752 0.99102 0
M  V30 1434 C 138.592 2.71039 -2.32965 0
M  V30 1435 C 138.258 2.42484 -3.80148 0
M  V30 1436 C 136.92 2.34406 -4.20247 0
M  V30 1437 C 139.272 2.18598 -4.73143 0
M  V30 1438 C 136.6 2.00516 -5.51371 0
M  V30 1439 C 138.952 1.8622 -6.0457 0
M  V30 1440 C 137.616 1.76626 -6.43708 0
M  V30 1441 H 136.886 0.538634 -0.508876 0
M  V30 1442 H 139.533 0.815325 -1.73276 0
M  V30 1443 H 137.838 3.41558 -1.91951 0
M  V30 1444 H 139.535 3.29138 -2.29061 0
M  V30 1445 H 136.125 2.49659 -3.4838 0
M  V30 1446 H 140.309 2.23793 -4.42979 0
M  V30 1447 H 135.565 1.91628 -5.80593 0
M  V30 1448 H 139.739 1.66752 -6.76141 0
M  V30 1449 H 137.366 1.50133 -7.45228 0
M  V30 1450 N 138.941 1.26152 0.944643 0
M  V30 1451 C 140.357 1.03189 1.21754 0
M  V30 1452 C 140.557 -0.245112 2.00004 0
M  V30 1453 O 139.613 -0.955176 2.33736 0
M  V30 1454 C 140.926 2.26119 1.98219 0
M  V30 1455 C 142.474 2.30984 2.11224 0
M  V30 1456 C 142.949 3.53597 2.91089 0
M  V30 1457 N 144.44 3.54053 2.98664 0
M  V30 1458 C 145.175 4.45593 3.60881 0
M  V30 1459 N 144.671 5.47416 4.24626 0
M  V30 1460 N 146.464 4.33252 3.58119 0
M  V30 1461 H 138.615 2.08177 0.421437 0
M  V30 1462 H 140.878 0.914723 0.248969 0
M  V30 1463 H 140.584 3.18984 1.48128 0
M  V30 1464 H 140.458 2.3009 2.98895 0
M  V30 1465 H 142.845 1.38635 2.60508 0
M  V30 1466 H 142.926 2.31026 1.09821 0
M  V30 1467 H 142.57 4.46273 2.42493 0
M  V30 1468 H 142.5 3.50802 3.92741 0
M  V30 1469 H 144.991 2.80403 2.53343 0
M  V30 1470 H 145.304 6.13459 4.69987 0
M  V30 1471 H 143.649 5.51278 4.23223 0
M  V30 1472 H 146.84 3.52924 3.0751 0
M  V30 1473 H 147.013 5.04786 4.06319 0
M  V30 1474 N 140.419 -1.14872 1.07899 0
M  V30 1475 C 141.644 -1.90202 0.826926 0
M  V30 1476 C 142.069 -1.77774 -0.614664 0
M  V30 1477 O 141.427 -1.11431 -1.43013 0
M  V30 1478 C 141.475 -3.38352 1.24702 0
M  V30 1479 O 140.579 -4.10497 0.39575 0
M  V30 1480 H 139.92 -0.591968 0.300782 0
M  V30 1481 H 142.45 -1.45437 1.43907 0
M  V30 1482 H 142.46 -3.89156 1.22563 0
M  V30 1483 H 141.135 -3.46715 2.29698 0
M  V30 1484 H 139.712 -3.69796 0.480117 0
M  V30 1485 N 141.898 -0.863906 -1.31812 0
M  V30 1486 C 143.314 -0.555004 -1.49639 0
M  V30 1487 C 143.514 0.912266 -1.79666 0
M  V30 1488 O 142.57 1.69479 -1.87171 0
M  V30 1489 C 143.883 -1.44998 -2.63431 0
M  V30 1490 C 145.431 -1.45138 -2.77316 0
M  V30 1491 C 145.906 -2.33179 -3.94197 0
M  V30 1492 N 147.397 -2.31025 -4.01474 0
M  V30 1493 C 148.132 -2.95871 -4.9117 0
M  V30 1494 N 147.628 -3.69863 -5.8581 0
M  V30 1495 N 149.421 -2.85211 -4.84367 0
M  V30 1496 H 141.572 -1.81339 -1.10589 0
M  V30 1497 H 143.835 -0.77505 -0.545895 0
M  V30 1498 H 143.541 -2.49377 -2.48 0
M  V30 1499 H 143.415 -1.14409 -3.59431 0
M  V30 1500 H 145.802 -0.415201 -2.92164 0
M  V30 1501 H 145.883 -1.79747 -1.82001 0
M  V30 1502 H 145.527 -3.3687 -3.80107 0
M  V30 1503 H 145.457 -1.95897 -4.88807 0
M  V30 1504 H 147.948 -1.77238 -3.33759 0
M  V30 1505 H 148.261 -4.16486 -6.50968 0
M  V30 1506 H 146.606 -3.73971 -5.85808 0
M  V30 1507 H 149.797 -2.26948 -4.09405 0
M  V30 1508 H 149.97 -3.36027 -5.54066 0
M  V30 1509 N 143.376 1.44774 -0.622745 0
M  V30 1510 C 144.606 2.06187 -0.130532 0
M  V30 1511 C 145.014 1.46547 1.19669 0
M  V30 1512 O 144.357 0.579636 1.74316 0
M  V30 1513 C 144.419 3.59437 0.0674983 0
M  V30 1514 C 144.083 4.41496 -1.18026 0
M  V30 1515 C 145.08 4.75512 -2.102 0
M  V30 1516 C 142.765 4.82007 -1.41333 0
M  V30 1517 C 144.759 5.48912 -3.23998 0
M  V30 1518 C 142.446 5.55157 -2.55429 0
M  V30 1519 C 143.444 5.88528 -3.46589 0
M  V30 1520 O 143.132 6.60191 -4.58697 0
M  V30 1521 H 142.864 0.672045 -0.0730162 0
M  V30 1522 H 145.418 1.86768 -0.854802 0
M  V30 1523 H 143.648 3.77314 0.846825 0
M  V30 1524 H 145.337 4.02642 0.513209 0
M  V30 1525 H 146.103 4.4476 -1.93425 0
M  V30 1526 H 141.982 4.55457 -0.712709 0
M  V30 1527 H 145.526 5.74877 -3.95174 0
M  V30 1528 H 141.423 5.85324 -2.72151 0
M  V30 1529 H 142.191 6.78654 -4.57571 0
M  V30 1530 N 144.854 0.36279 1.53368 0
M  V30 1531 C 145.804 -0.501391 2.22419 0
M  V30 1532 C 146.788 -1.0509 1.2184 0
M  V30 1533 O 147.98 -0.981404 1.47301 0
M  V30 1534 C 145.109 -1.64201 3.01484 0
M  V30 1535 C 144.195 -1.10552 4.09438 0
M  V30 1536 N 144.586 -0.291788 5.04958 0
M  V30 1537 C 142.884 -1.3806 4.24094 0
M  V30 1538 C 143.585 0.00162655 5.817 0
M  V30 1539 N 142.561 -0.595244 5.40331 0
M  V30 1540 H 146.363 0.127159 2.93625 0
M  V30 1541 H 143.877 0.170658 1.61501 0
M  V30 1542 H 145.874 -2.27326 3.49469 0
M  V30 1543 H 144.534 -2.27365 2.31809 0
M  V30 1544 H 145.545 0.0687731 5.17854 0
M  V30 1545 H 142.222 -2.01522 3.65644 0
M  V30 1546 H 143.612 0.659278 6.68658 0
M  V30 1547 N 146.332 -1.57332 0.0918853 0
M  V30 1548 C 147.28 -2.15075 -0.885747 0
M  V30 1549 C 148.274 -1.09277 -1.29441 0
M  V30 1550 O 149.48 -1.27627 -1.26931 0
M  V30 1551 H 145.855 -0.687966 -0.303656 0
M  V30 1552 H 147.826 -2.96047 -0.373995 0
M  V30 1553 C 146.575 -2.74325 -2.13638 0
M  V30 1554 H 145.898 -3.55418 -1.8308 0
M  V30 1555 H 147.338 -3.183 -2.80109 0
M  V30 1556 C 145.797 -1.70062 -2.90827 0
M  V30 1557 O 146.327 -1.13763 -3.85254 0
M  V30 1558 N 144.533 -1.40628 -2.54307 0
M  V30 1559 H 144.08 -1.866 -1.7759 0
M  V30 1560 H 144.038 -0.711043 -3.06254 0
M  V30 1561 N 147.81 0.181792 -1.56548 0
M  V30 1562 C 149.058 0.89832 -1.81038 0
M  V30 1563 C 149.379 1.83232 -0.667164 0
M  V30 1564 O 148.649 1.93372 0.313673 0
M  V30 1565 H 147.229 0.33471 -0.667816 0
M  V30 1566 H 149.891 0.184116 -1.94028 0
M  V30 1567 H 148.987 1.4815 -2.74696 0
M  V30 1568 N 149.288 1.51039 0.449983 0
M  V30 1569 C 150.251 1.70863 1.5277 0
M  V30 1570 C 151.251 0.578846 1.5002 0
M  V30 1571 O 152.441 0.846213 1.52266 0
M  V30 1572 C 149.573 1.75341 2.9235 0
M  V30 1573 H 150.766 2.67034 1.36502 0
M  V30 1574 H 148.319 1.40838 0.677812 0
M  V30 1575 H 149.054 0.809383 3.14037 0
M  V30 1576 H 148.839 2.57436 2.95752 0
M  V30 1577 H 150.329 1.92559 3.70555 0
M  V30 1578 N 150.766 -0.704594 1.40972 0
M  V30 1579 C 151.729 -1.80035 1.41845 0
M  V30 1580 C 152.729 -1.57774 0.310474 0
M  V30 1581 O 153.919 -1.64613 0.56992 0
M  V30 1582 C 151.051 -3.18284 1.22098 0
M  V30 1583 H 152.244 -1.80658 2.3938 0
M  V30 1584 H 149.797 -0.911329 1.26982 0
M  V30 1585 H 150.532 -3.23306 0.253672 0
M  V30 1586 H 150.317 -3.35843 2.02366 0
M  V30 1587 H 151.807 -3.98289 1.25522 0
M  V30 1588 N 152.244 -1.26651 -0.937939 0
M  V30 1589 C 153.194 -1.05156 -2.02302 0
M  V30 1590 C 154.178 0.0171233 -1.60891 0
M  V30 1591 O 155.37 -0.200213 -1.75864 0
M  V30 1592 C 152.499 -0.689962 -3.36295 0
M  V30 1593 C 151.585 -1.79626 -3.84181 0
M  V30 1594 N 151.976 -3.03422 -4.04684 0
M  V30 1595 C 150.274 -1.6806 -4.13124 0
M  V30 1596 C 150.975 -3.75345 -4.444 0
M  V30 1597 N 149.951 -3.03051 -4.51288 0
M  V30 1598 H 153.753 -1.99117 -2.1617 0
M  V30 1599 H 151.267 -1.17216 -1.12402 0
M  V30 1600 H 153.264 -0.517112 -4.13681 0
M  V30 1601 H 151.924 0.242139 -3.23796 0
M  V30 1602 H 152.935 -3.39293 -3.91281 0
M  V30 1603 H 149.612 -0.818629 -4.09396 0
M  V30 1604 H 151.002 -4.81691 -4.68427 0
M  V30 1605 N 153.722 1.14298 -1.08507 0
M  V30 1606 C 154.969 1.85359 -0.815373 0
M  V30 1607 C 155.297 1.83001 0.658865 0
M  V30 1608 O 154.552 1.25655 1.50031 0
M  V30 1609 C 154.851 3.33547 -1.28379 0
M  V30 1610 C 154.517 3.56093 -2.76602 0
M  V30 1611 C 153.179 3.61955 -3.17084 0
M  V30 1612 C 155.531 3.64834 -3.72217 0
M  V30 1613 C 152.859 3.74082 -4.51973 0
M  V30 1614 C 155.211 3.78487 -5.06883 0
M  V30 1615 C 153.875 3.82598 -5.46969 0
M  V30 1616 H 153.145 0.678276 -0.298366 0
M  V30 1617 H 155.792 1.35002 -1.35819 0
M  V30 1618 H 154.097 3.86191 -0.660593 0
M  V30 1619 H 155.794 3.86959 -1.05186 0
M  V30 1620 H 152.384 3.52179 -2.4427 0
M  V30 1621 H 156.568 3.59595 -3.42061 0
M  V30 1622 H 151.824 3.75527 -4.82483 0
M  V30 1623 H 155.998 3.84193 -5.80834 0
M  V30 1624 H 153.625 3.91747 -6.51489 0
M  V30 1625 N 155.201 0.870884 1.31352 0
M  V30 1626 C 156.164 0.332243 2.26779 0
M  V30 1627 C 157.164 -0.517302 1.52252 0
M  V30 1628 O 158.354 -0.326477 1.71113 0
M  V30 1629 C 155.486 -0.528066 3.36785 0
M  V30 1630 H 156.679 1.17469 2.75937 0
M  V30 1631 H 154.232 0.64655 1.423 0
M  V30 1632 H 154.967 -1.39167 2.92922 0
M  V30 1633 H 154.752 0.0802582 3.92018 0
M  V30 1634 H 156.242 -0.897179 4.07849 0
M  V30 1635 N 156.679 -1.44442 0.630414 0
M  V30 1636 C 157.642 -2.29107 -0.0652523 0
M  V30 1637 C 158.642 -1.41002 -0.772995 0
M  V30 1638 O 159.832 -1.62881 -0.617692 0
M  V30 1639 C 156.964 -3.22564 -1.10296 0
M  V30 1640 H 158.157 -2.92103 0.679401 0
M  V30 1641 H 155.71 -1.51343 0.390517 0
M  V30 1642 H 156.445 -2.64416 -1.87762 0
M  V30 1643 H 156.23 -3.87491 -0.59941 0
M  V30 1644 H 157.72 -3.86167 -1.5895 0
M  V30 1645 N 158.157 -0.370918 -1.53173 0
M  V30 1646 C 159.12 0.460778 -2.24521 0
M  V30 1647 C 160.12 1.00536 -1.25496 0
M  V30 1648 O 161.31 0.890266 -1.49733 0
M  V30 1649 C 158.442 1.64457 -2.98608 0
M  V30 1650 H 159.635 -0.163613 -2.99453 0
M  V30 1651 H 157.188 -0.122699 -1.55818 0
M  V30 1652 H 157.923 2.30691 -2.2793 0
M  V30 1653 H 157.708 1.26099 -3.7127 0
M  V30 1654 H 159.198 2.23384 -3.5283 0
M  V30 1655 N 159.635 1.57281 -0.100228 0
M  V30 1656 C 160.567 2.11342 0.886972 0
M  V30 1657 C 161.58 1.05182 1.24261 0
M  V30 1658 O 162.769 1.32613 1.19483 0
M  V30 1659 C 159.869 2.5825 2.19454 0
M  V30 1660 C 159.042 3.88302 2.01346 0
M  V30 1661 C 158.101 4.21004 3.15661 0
M  V30 1662 O 157.127 4.9014 2.89398 0
M  V30 1663 N 158.329 3.76818 4.41575 0
M  V30 1664 H 161.094 2.96668 0.425216 0
M  V30 1665 H 158.655 1.61678 0.0847334 0
M  V30 1666 H 160.647 2.7717 2.94888 0
M  V30 1667 H 159.217 1.77907 2.57037 0
M  V30 1668 H 158.437 3.7848 1.10212 0
M  V30 1669 H 159.725 4.73375 1.8653 0
M  V30 1670 H 159.123 3.2102 4.65792 0
M  V30 1671 H 157.68 4.00882 5.13942 0
M  V30 1672 N 161.113 -0.173488 1.56642 0
M  V30 1673 C 162.023 -1.23482 1.99473 0
M  V30 1674 C 163.039 -1.48567 0.905752 0
M  V30 1675 O 164.215 -1.60758 1.21321 0
M  V30 1676 C 161.28 -2.55444 2.34413 0
M  V30 1677 C 160.341 -2.38241 3.57127 0
M  V30 1678 C 159.574 -3.63909 3.90392 0
M  V30 1679 O 159.797 -4.68996 3.24653 0
M  V30 1680 O 158.731 -3.58149 4.83749 0
M  V30 1681 H 162.557 -0.901279 2.90018 0
M  V30 1682 H 160.142 -0.380185 1.44482 0
M  V30 1683 H 162.024 -3.33292 2.57865 0
M  V30 1684 H 160.699 -2.88382 1.4703 0
M  V30 1685 H 159.606 -1.58431 3.38896 0
M  V30 1686 H 160.939 -2.10228 4.45045 0
M  V30 1687 N 162.591 -1.51276 -0.441967 0
M  V30 1688 C 164.007 -1.39349 -0.778083 0
M  V30 1689 C 164.207 -0.472212 -1.95889 0
M  V30 1690 O 163.263 0.0743551 -2.5239 0
M  V30 1691 C 164.576 -2.81292 -1.0628 0
M  V30 1692 C 166.124 -2.9041 -1.16751 0
M  V30 1693 C 166.599 -4.33251 -1.48519 0
M  V30 1694 N 168.09 -4.36336 -1.55453 0
M  V30 1695 C 168.825 -5.43885 -1.81596 0
M  V30 1696 N 168.321 -6.61601 -2.05562 0
M  V30 1697 N 170.114 -5.3136 -1.8334 0
M  V30 1698 H 162.265 -2.09729 0.335774 0
M  V30 1699 H 164.528 -0.943925 0.0878028 0
M  V30 1700 H 164.234 -3.50678 -0.267905 0
M  V30 1701 H 164.108 -3.20334 -1.99163 0
M  V30 1702 H 166.495 -2.21225 -1.95304 0
M  V30 1703 H 166.576 -2.54871 -0.217801 0
M  V30 1704 H 166.22 -5.02984 -0.704958 0
M  V30 1705 H 166.15 -4.66299 -2.44689 0
M  V30 1706 H 168.641 -3.51466 -1.38853 0
M  V30 1707 H 168.954 -7.39361 -2.24867 0
M  V30 1708 H 167.299 -6.64725 -2.02894 0
M  V30 1709 H 170.49 -4.38382 -1.64132 0
M  V30 1710 H 170.663 -6.15258 -2.03377 0
M  V30 1711 N 164.069 0.697108 -1.41344 0
M  V30 1712 C 165.032 1.79281 -1.42797 0
M  V30 1713 C 166.032 1.57607 -0.318837 0
M  V30 1714 O 167.222 1.64309 -0.578642 0
M  V30 1715 C 164.354 3.17632 -1.23785 0
M  V30 1716 H 165.547 1.79385 -2.40335 0
M  V30 1717 H 163.1 0.904582 -1.27464 0
M  V30 1718 H 163.835 3.23167 -0.270814 0
M  V30 1719 H 163.62 3.34765 -2.04144 0
M  V30 1720 H 165.11 3.97617 -1.27633 0
M  V30 1721 N 165.547 1.27147 0.931209 0
M  V30 1722 C 166.963 1.04475 1.20653 0
M  V30 1723 C 167.163 -0.223885 2.00252 0
M  V30 1724 O 166.219 -0.930332 2.34736 0
M  V30 1725 C 167.532 2.28209 1.95809 0
M  V30 1726 C 169.08 2.33211 2.08762 0
M  V30 1727 C 169.555 3.56665 2.87323 0
M  V30 1728 N 171.046 3.57201 2.94892 0
M  V30 1729 C 171.781 4.49395 3.56134 0
M  V30 1730 N 171.277 5.51889 4.18796 0
M  V30 1731 N 173.07 4.37026 3.53504 0
M  V30 1732 H 165.221 2.08612 0.399333 0
M  V30 1733 H 167.484 0.917312 0.239253 0
M  V30 1734 H 167.19 3.20538 1.44736 0
M  V30 1735 H 167.064 2.33247 2.96438 0
M  V30 1736 H 169.451 1.41391 2.59023 0
M  V30 1737 H 169.532 2.32178 1.07364 0
M  V30 1738 H 169.176 4.4882 2.37746 0
M  V30 1739 H 169.106 3.54948 3.88998 0
M  V30 1740 H 171.597 2.83074 2.50354 0
M  V30 1741 H 171.91 6.18409 4.63454 0
M  V30 1742 H 170.255 5.55735 4.17353 0
M  V30 1743 H 173.446 3.56166 3.03749 0
M  V30 1744 H 173.619 5.09067 4.00942 0
M  V30 1745 N 167.025 -1.13721 1.09112 0
M  V30 1746 C 168.271 -1.85198 0.826414 0
M  V30 1747 C 168.604 -1.83129 -0.646319 0
M  V30 1748 O 167.879 -1.2671 -1.47563 0
M  V30 1749 C 168.162 -3.33507 1.35812 0
M  V30 1750 C 168.015 -3.44108 2.89672 0
M  V30 1751 C 169.334 -4.28838 0.989256 0
M  V30 1752 H 166.453 -0.67243 0.301675 0
M  V30 1753 H 169.095 -1.33499 1.35197 0
M  V30 1754 H 167.245 -3.77666 0.911082 0
M  V30 1755 H 168.917 -3.08684 3.428 0
M  V30 1756 H 167.16 -2.85087 3.26967 0
M  V30 1757 H 167.831 -4.48388 3.21951 0
M  V30 1758 H 170.307 -3.92734 1.37475 0
M  V30 1759 H 169.183 -5.31051 1.38838 0
M  V30 1760 H 169.444 -4.4198 -0.102924 0
M  V30 1761 N 168.503 -0.877838 -1.30888 0
M  V30 1762 C 169.914 -0.544193 -1.78593 0
M  V30 1763 C 170.265 0.939301 -1.72254 0
M  V30 1764 O 169.39 1.7337 -1.29505 0
M  V30 1765 C 169.985 -0.98105 -3.24285 0
M  V30 1766 C 168.544 -0.698935 -3.69854 0
M  V30 1767 C 167.691 -1.168 -2.51502 0
M  V30 1768 H 170.642 -1.06278 -1.17859 0
M  V30 1769 H 170.663 -0.307009 -3.79259 0
M  V30 1770 H 170.175 -2.06079 -3.28866 0
M  V30 1771 H 168.276 0.369112 -3.70767 0
M  V30 1772 H 168.389 -1.28148 -4.61644 0
M  V30 1773 H 166.753 -0.587535 -2.47831 0
M  V30 1774 H 167.536 -2.25533 -2.58824 0
M  V30 1775 N 169.982 1.44106 -0.638065 0
M  V30 1776 C 171.228 2.02277 -0.145546 0
M  V30 1777 C 171.561 1.50125 1.23191 0
M  V30 1778 O 170.836 0.688133 1.8192 0
M  V30 1779 C 171.119 3.59829 -0.139791 0
M  V30 1780 C 170.972 4.22247 -1.55008 0
M  V30 1781 C 172.291 4.36873 0.531966 0
M  V30 1782 H 169.41 0.734992 -0.0543632 0
M  V30 1783 H 172.052 1.71592 -0.815863 0
M  V30 1784 H 170.202 3.86102 0.431007 0
M  V30 1785 H 171.874 4.07057 -2.1703 0
M  V30 1786 H 170.117 3.79476 -2.10191 0
M  V30 1787 H 170.788 5.31284 -1.49804 0
M  V30 1788 H 173.264 4.16074 0.0464781 0
M  V30 1789 H 172.14 5.4657 0.505206 0
M  V30 1790 H 172.401 4.11995 1.60352 0
M  V30 1791 N 171.46 0.379036 1.52974 0
M  V30 1792 C 172.407 -0.461048 2.26148 0
M  V30 1793 C 173.377 -1.06637 1.27349 0
M  V30 1794 O 174.562 -1.09633 1.56157 0
M  V30 1795 C 171.702 -1.58782 3.06402 0
M  V30 1796 C 170.815 -1.00636 4.20115 0
M  V30 1797 C 169.95 -2.10334 4.87784 0
M  V30 1798 C 168.989 -1.49724 5.93506 0
M  V30 1799 N 168.126 -2.5331 6.54812 0
M  V30 1800 H 172.966 0.169429 2.97518 0
M  V30 1801 H 170.503 0.0953806 1.4679 0
M  V30 1802 H 172.461 -2.25174 3.51215 0
M  V30 1803 H 171.091 -2.18876 2.37261 0
M  V30 1804 H 170.143 -0.232332 3.7969 0
M  V30 1805 H 171.455 -0.523343 4.96047 0
M  V30 1806 H 170.609 -2.84519 5.35849 0
M  V30 1807 H 169.348 -2.61992 4.11353 0
M  V30 1808 H 168.353 -0.740598 5.44789 0
M  V30 1809 H 169.578 -0.988732 6.71864 0
M  V30 1810 H 167.524 -3.04156 5.81227 0
M  V30 1811 H 167.441 -2.09734 7.26325 0
M  V30 1812 H 168.709 -3.27155 7.07524 0
M  V30 1813 N 172.938 -1.57226 0.108567 0
M  V30 1814 C 174.184 -1.95121 -0.552761 0
M  V30 1815 C 174.517 -0.991345 -1.66991 0
M  V30 1816 O 173.792 -0.0267211 -1.94482 0
M  V30 1817 C 174.075 -3.43039 -1.09528 0
M  V30 1818 C 173.928 -4.49797 0.0177332 0
M  V30 1819 C 175.247 -3.92567 -1.98945 0
M  V30 1820 H 172.366 -0.709496 -0.199461 0
M  V30 1821 H 175.008 -1.89126 0.182011 0
M  V30 1822 H 173.158 -3.48279 -1.72146 0
M  V30 1823 H 174.83 -4.56661 0.652584 0
M  V30 1824 H 173.073 -4.284 0.682309 0
M  V30 1825 H 173.744 -5.50528 -0.402919 0
M  V30 1826 H 176.22 -3.89565 -1.46214 0
M  V30 1827 H 175.096 -4.96605 -2.33827 0
M  V30 1828 H 175.357 -3.32648 -2.91201 0
M  V30 1829 N 174.416 0.165178 -1.56732 0
M  V30 1830 C 175.326 1.22423 -2.00125 0
M  V30 1831 C 176.342 1.48084 -0.913619 0
M  V30 1832 O 177.518 1.60112 -1.22172 0
M  V30 1833 C 174.583 2.54197 -2.35764 0
M  V30 1834 C 173.644 2.36343 -3.58386 0
M  V30 1835 C 172.877 3.61834 -3.92316 0
M  V30 1836 O 173.1 4.67267 -3.27135 0
M  V30 1837 O 172.034 3.55579 -4.85641 0
M  V30 1838 H 175.86 0.885886 -2.90492 0
M  V30 1839 H 173.445 0.372518 -1.44681 0
M  V30 1840 H 175.327 3.3192 -2.59629 0
M  V30 1841 H 174.002 2.87598 -1.48557 0
M  V30 1842 H 172.909 1.56632 -3.39731 0
M  V30 1843 H 174.242 2.07865 -4.46154 0
M  V30 1844 N 175.894 1.51508 0.433938 0
M  V30 1845 C 177.14 1.64588 1.18484 0
M  V30 1846 C 177.473 0.362666 1.90784 0
M  V30 1847 O 176.748 -0.637892 1.83742 0
M  V30 1848 C 177.031 2.85149 2.19913 0
M  V30 1849 C 176.884 4.23456 1.51674 0
M  V30 1850 C 178.203 3.01227 3.20858 0
M  V30 1851 H 175.322 0.598994 0.429389 0
M  V30 1852 H 177.964 1.84002 0.473647 0
M  V30 1853 H 176.114 2.68729 2.80566 0
M  V30 1854 H 177.786 4.51552 0.943322 0
M  V30 1855 H 176.029 4.25998 0.819035 0
M  V30 1856 H 176.7 5.03812 2.2556 0
M  V30 1857 H 179.176 3.16382 2.70263 0
M  V30 1858 H 178.052 3.87141 3.89118 0
M  V30 1859 H 178.313 2.13447 3.8716 0
M  V30 1860 N 177.372 -0.689602 1.41712 0
M  V30 1861 C 178.618 -1.45181 1.41599 0
M  V30 1862 C 178.951 -1.94181 0.0270081 0
M  V30 1863 O 178.226 -1.6993 -0.946265 0
M  V30 1864 C 178.509 -2.65945 2.42787 0
M  V30 1865 C 178.362 -2.22672 3.90816 0
M  V30 1866 C 179.681 -3.68149 2.41151 0
M  V30 1867 H 176.8 -0.526576 0.515642 0
M  V30 1868 H 179.442 -0.784947 1.73028 0
M  V30 1869 H 177.592 -3.2284 2.16116 0
M  V30 1870 H 179.264 -1.71058 4.28412 0
M  V30 1871 H 177.507 -1.54394 4.05395 0
M  V30 1872 H 178.178 -3.0935 4.57172 0
M  V30 1873 H 180.654 -3.2094 2.64834 0
M  V30 1874 H 179.53 -4.50248 3.13955 0
M  V30 1875 H 179.791 -4.18259 1.43221 0
M  V30 1876 N 178.85 -1.27639 -0.924453 0
M  V30 1877 C 180.098 -1.13941 -1.66918 0
M  V30 1878 C 180.419 0.314589 -1.92446 0
M  V30 1879 O 179.689 1.21964 -1.53303 0
M  V30 1880 H 178.269 -0.418678 -0.618642 0
M  V30 1881 H 180.931 -1.60213 -1.10985 0
M  V30 1882 H 180.027 -1.67094 -2.63602 0
M  V30 1883 N 180.328 1.1314 -1.09713 0
M  V30 1884 C 181.291 2.16831 -0.742751 0
M  V30 1885 C 182.291 1.59159 0.229129 0
M  V30 1886 O 183.481 1.74199 0.00693237 0
M  V30 1887 C 180.613 3.40756 -0.0989168 0
M  V30 1888 H 181.806 2.49695 -1.66109 0
M  V30 1889 H 179.359 1.2802 -0.896699 0
M  V30 1890 H 180.094 3.13485 0.830514 0
M  V30 1891 H 179.879 3.83888 -0.798265 0
M  V30 1892 H 181.369 4.17386 0.133524 0
M  V30 1893 N 181.806 0.884767 1.30421 0
M  V30 1894 C 183.217 0.553656 1.78302 0
M  V30 1895 C 183.568 -0.930153 1.7275 0
M  V30 1896 O 182.693 -1.72681 1.30423 0
M  V30 1897 C 183.288 0.998234 3.2376 0
M  V30 1898 C 181.847 0.71854 3.69478 0
M  V30 1899 C 180.994 1.18132 2.50879 0
M  V30 1900 H 183.945 1.06901 1.17294 0
M  V30 1901 H 183.966 0.327118 3.79091 0
M  V30 1902 H 183.478 2.0782 3.27769 0
M  V30 1903 H 181.579 -0.349444 3.70958 0
M  V30 1904 H 181.692 1.30595 4.60958 0
M  V30 1905 H 180.056 0.600669 2.47516 0
M  V30 1906 H 180.839 2.26902 2.57624 0
M  V30 1907 N 183.284 -1.43765 0.645699 0
M  V30 1908 C 184.247 -2.29163 -0.0409488 0
M  V30 1909 C 185.247 -1.41813 -0.757996 0
M  V30 1910 O 186.437 -1.63527 -0.600382 0
M  V30 1911 C 183.569 -3.23716 -1.06869 0
M  V30 1912 H 184.762 -2.91366 0.710345 0
M  V30 1913 H 182.315 -1.5092 0.406547 0
M  V30 1914 H 183.05 -2.66393 -1.84947 0
M  V30 1915 H 182.835 -3.88105 -0.558277 0
M  V30 1916 H 184.325 -3.87831 -1.54845 0
M  V30 1917 N 184.763 -0.387143 -1.52771 0
M  V30 1918 C 185.726 0.436939 -2.24997 0
M  V30 1919 C 186.726 0.991991 -1.26555 0
M  V30 1920 O 187.916 0.874335 -1.50669 0
M  V30 1921 C 185.048 1.61281 -3.00335 0
M  V30 1922 H 186.241 -0.195365 -2.99263 0
M  V30 1923 H 183.794 -0.139218 -1.55679 0
M  V30 1924 H 184.529 2.2826 -2.30364 0
M  V30 1925 H 184.314 1.22154 -3.72587 0
M  V30 1926 H 185.804 2.19629 -3.5518 0
M  V30 1927 N 186.241 1.57166 -0.116904 0
M  V30 1928 C 187.487 1.95412 0.542405 0
M  V30 1929 C 187.82 1.00019 1.66463 0
M  V30 1930 O 187.095 0.0370346 1.94465 0
M  V30 1931 C 187.378 3.43615 1.07708 0
M  V30 1932 C 187.231 4.49781 -0.0415868 0
M  V30 1933 C 188.55 3.93616 1.96861 0
M  V30 1934 H 185.669 0.710543 0.195696 0
M  V30 1935 H 188.311 1.89027 -0.192038 0
M  V30 1936 H 186.461 3.49187 1.70296 0
M  V30 1937 H 188.133 4.56308 -0.676793 0
M  V30 1938 H 186.376 4.28033 -0.705019 0
M  V30 1939 H 187.047 5.50733 0.373717 0
M  V30 1940 H 189.523 3.90335 1.44146 0
M  V30 1941 H 188.399 4.97838 2.3119 0
M  V30 1942 H 188.66 3.34188 2.89432 0
M  V30 1943 N 187.719 -0.156864 1.56817 0
M  V30 1944 C 188.996 -0.899244 1.73704 0
M  V30 1945 C 189.376 -1.99771 0.682254 0
M  V30 1946 O 188.724 -2.26515 -0.300522 0
M  V30 1947 C 188.934 -1.45075 3.17418 0
M  V30 1948 C 190.282 -1.91802 3.7881 0
M  V30 1949 O 191.306 -1.54838 3.20786 0
M  V30 1950 O 190.165 -2.5994 4.80722 0
M  V30 1951 H 187.259 -0.424267 0.709878 0
M  V30 1952 H 189.805 -0.143561 1.69092 0
M  V30 1953 H 188.577 -0.660846 3.85679 0
M  V30 1954 H 188.2 -2.27021 3.26416 0
M  V30 1955 N 189.197 -1.51736 -0.425897 0
M  V30 1956 C 190.443 -1.66174 -1.17294 0
M  V30 1957 C 190.798 -0.37876 -1.88635 0
M  V30 1958 O 190.091 0.626021 -1.81084 0
M  V30 1959 C 190.285 -2.81103 -2.20717 0
M  V30 1960 C 190.114 -4.20453 -1.59529 0
M  V30 1961 C 188.884 -4.86225 -1.37525 0
M  V30 1962 C 191.082 -5.03146 -1.06528 0
M  V30 1963 N 189.064 -6.09657 -0.720537 0
M  V30 1964 C 190.435 -6.17674 -0.536506 0
M  V30 1965 C 192.49 -4.88594 -0.958127 0
M  V30 1966 C 191.193 -7.19245 0.0888917 0
M  V30 1967 C 193.219 -5.90383 -0.346608 0
M  V30 1968 C 192.581 -7.04191 0.171564 0
M  V30 1969 H 188.68 -0.661871 -0.416475 0
M  V30 1970 H 191.264 -1.88997 -0.467801 0
M  V30 1971 H 189.435 -2.59924 -2.88607 0
M  V30 1972 H 191.167 -2.84662 -2.87663 0
M  V30 1973 H 187.922 -4.44293 -1.64015 0
M  V30 1974 H 188.346 -6.75756 -0.410292 0
M  V30 1975 H 192.988 -4.0085 -1.34459 0
M  V30 1976 H 190.706 -8.06628 0.48746 0
M  V30 1977 H 194.292 -5.81194 -0.265451 0
M  V30 1978 H 193.172 -7.81606 0.637309 0
M  V30 1979 N 190.675 0.682077 -1.42076 0
M  V30 1980 C 192.091 0.994324 -1.24841 0
M  V30 1981 C 192.291 2.0096 -0.147389 0
M  V30 1982 O 191.347 2.47822 0.483782 0
M  V30 1983 C 192.66 1.50607 -2.60265 0
M  V30 1984 C 194.208 1.62421 -2.6756 0
M  V30 1985 C 194.683 2.16994 -4.03333 0
M  V30 1986 N 196.174 2.24337 -4.0525 0
M  V30 1987 C 196.909 2.67621 -5.07116 0
M  V30 1988 N 196.405 3.1041 -6.19368 0
M  V30 1989 N 198.198 2.67305 -4.94474 0
M  V30 1990 H 190.349 0.00973908 -2.12398 0
M  V30 1991 H 192.612 0.0668593 -0.945639 0
M  V30 1992 H 192.318 0.834583 -3.41654 0
M  V30 1993 H 192.192 2.48602 -2.83684 0
M  V30 1994 H 194.579 2.28678 -1.86521 0
M  V30 1995 H 194.66 0.629352 -2.47937 0
M  V30 1996 H 194.304 1.51349 -4.84826 0
M  V30 1997 H 194.234 3.17258 -4.20304 0
M  V30 1998 H 196.725 1.94158 -3.24209 0
M  V30 1999 H 197.038 3.42103 -6.92954 0
M  V30 2000 H 195.383 3.08286 -6.22884 0
M  V30 2001 H 198.574 2.33233 -4.05857 0
M  V30 2002 H 198.747 3.00718 -5.73997 0
M  V30 2003 N 192.153 1.28127 0.917671 0
M  V30 2004 C 193.116 1.11744 2.00115 0
M  V30 2005 C 194.116 0.0583052 1.60694 0
M  V30 2006 O 195.306 0.303755 1.71531 0
M  V30 2007 C 192.438 0.704862 3.33533 0
M  V30 2008 H 193.631 2.07966 2.16079 0
M  V30 2009 H 191.184 1.11058 1.09981 0
M  V30 2010 H 191.919 -0.258299 3.2327 0
M  V30 2011 H 191.704 1.4699 3.63505 0
M  V30 2012 H 193.194 0.612768 4.1308 0
M  V30 2013 N 193.631 -1.12557 1.10312 0
M  V30 2014 C 195.047 -1.36036 0.834649 0
M  V30 2015 C 195.247 -1.93946 -0.546539 0
M  V30 2016 O 194.303 -2.16484 -1.29966 0
M  V30 2017 C 195.616 -2.30312 1.9333 0
M  V30 2018 C 197.164 -2.43906 1.9616 0
M  V30 2019 C 197.639 -3.41496 3.05195 0
M  V30 2020 N 199.13 -3.49053 3.04494 0
M  V30 2021 C 199.865 -4.24471 3.85502 0
M  V30 2022 N 199.361 -5.02966 4.76442 0
M  V30 2023 N 201.154 -4.19864 3.73725 0
M  V30 2024 H 193.305 -0.733246 1.99342 0
M  V30 2025 H 195.568 -0.385234 0.866198 0
M  V30 2026 H 195.274 -1.94933 2.92735 0
M  V30 2027 H 195.148 -3.30421 1.81939 0
M  V30 2028 H 197.535 -2.78567 0.973886 0
M  V30 2029 H 197.616 -1.4369 2.11629 0
M  V30 2030 H 197.26 -3.07565 4.04186 0
M  V30 2031 H 197.19 -4.41539 2.86968 0
M  V30 2032 H 199.681 -2.93053 2.38596 0
M  V30 2033 H 199.994 -5.57846 5.34815 0
M  V30 2034 H 198.339 -5.02167 4.80472 0
M  V30 2035 H 201.53 -3.57623 3.02032 0
M  V30 2036 H 201.703 -4.78386 4.37093 0
M  V30 2037 N 195.109 -0.891671 -1.2995 0
M  V30 2038 C 196.357 -0.512486 -1.95494 0
M  V30 2039 C 196.678 0.942776 -1.70695 0
M  V30 2040 O 195.948 1.66374 -1.03424 0
M  V30 2041 H 194.528 -0.186533 -0.723336 0
M  V30 2042 H 197.19 -1.13621 -1.58355 0
M  V30 2043 H 196.286 -0.688342 -3.04415 0
M  V30 2044 N 196.587 1.43421 -0.653314 0
M  V30 2045 C 197.55 2.29182 0.0287951 0
M  V30 2046 C 198.55 1.42213 0.750465 0
M  V30 2047 O 199.74 1.63843 0.591701 0
M  V30 2048 C 196.872 3.24278 1.05151 0
M  V30 2049 H 198.065 2.90985 -0.725786 0
M  V30 2050 H 195.618 1.50702 -0.414545 0
M  V30 2051 H 196.353 2.6737 1.83532 0
M  V30 2052 H 196.138 3.88396 0.537687 0
M  V30 2053 H 197.628 3.88647 1.52786 0
M  V30 2054 N 198.065 0.39524 1.52563 0
M  V30 2055 C 199.311 -0.185318 2.01952 0
M  V30 2056 C 199.644 -1.45964 1.28095 0
M  V30 2057 O 198.919 -1.90689 0.38315 0
M  V30 2058 C 199.202 -0.447193 3.57312 0
M  V30 2059 C 199.055 0.842828 4.41833 0
M  V30 2060 C 200.374 -1.23529 4.22408 0
M  V30 2061 H 197.493 -0.0658788 0.73405 0
M  V30 2062 H 200.135 0.525975 1.82575 0
M  V30 2063 H 198.285 -1.05312 3.73954 0
M  V30 2064 H 199.957 1.4795 4.36931 0
M  V30 2065 H 198.2 1.45686 4.08605 0
M  V30 2066 H 198.871 0.614165 5.48573 0
M  V30 2067 H 201.347 -0.722445 4.0978 0
M  V30 2068 H 200.223 -1.38727 5.3108 0
M  V30 2069 H 200.484 -2.25213 3.80436 0
M  V30 2070 N 199.544 -1.57102 0.125237 0
M  V30 2071 C 200.772 -1.99761 -0.538797 0
M  V30 2072 C 201.187 -1.00503 -1.59827 0
M  V30 2073 O 200.544 0.00119474 -1.825 0
M  V30 2074 C 200.595 -3.42408 -1.15927 0
M  V30 2075 O 200.316 -4.37869 -0.142143 0
M  V30 2076 C 201.817 -4.00232 -1.90602 0
M  V30 2077 H 199.037 -0.655772 -0.14214 0
M  V30 2078 H 201.581 -2.03383 0.213413 0
M  V30 2079 H 199.736 -3.39706 -1.86223 0
M  V30 2080 H 200.15 -5.21128 -0.593775 0
M  V30 2081 H 201.624 -5.02105 -2.29335 0
M  V30 2082 H 202.101 -3.39721 -2.78363 0
M  V30 2083 H 202.707 -4.06499 -1.25055 0
M  V30 2084 N 201.022 0.148545 -1.56898 0
M  V30 2085 C 201.985 1.16736 -1.97244 0
M  V30 2086 C 202.985 1.35947 -0.858777 0
M  V30 2087 O 204.175 1.32966 -1.12542 0
M  V30 2088 C 201.307 2.52798 -2.28705 0
M  V30 2089 H 202.5 0.821279 -2.88435 0
M  V30 2090 H 200.053 0.391831 -1.51309 0
M  V30 2091 H 200.788 2.92381 -1.403 0
M  V30 2092 H 200.573 2.40216 -3.09901 0
M  V30 2093 H 202.063 3.26179 -2.60762 0
M  V30 2094 N 202.5 1.5196 0.417844 0
M  V30 2095 C 203.746 1.65836 1.16732 0
M  V30 2096 C 204.079 0.382881 1.90388 0
M  V30 2097 O 203.354 -0.618368 1.84408 0
M  V30 2098 C 203.637 2.87466 2.16876 0
M  V30 2099 C 203.49 4.25041 1.47174 0
M  V30 2100 C 204.809 3.04613 3.17646 0
M  V30 2101 H 201.928 0.603515 0.423011 0
M  V30 2102 H 204.57 1.84494 0.454105 0
M  V30 2103 H 202.72 2.71689 2.777 0
M  V30 2104 H 204.392 4.52527 0.895376 0
M  V30 2105 H 202.635 4.26843 0.773806 0
M  V30 2106 H 203.306 5.06176 2.20204 0
M  V30 2107 H 205.782 3.1923 2.66892 0
M  V30 2108 H 204.658 3.91247 3.8499 0
M  V30 2109 H 204.919 2.17541 3.84874 0
M  V30 2110 N 203.978 -0.674533 1.42435 0
M  V30 2111 C 204.925 -1.78807 1.45934 0
M  V30 2112 C 205.895 -1.63157 0.311271 0
M  V30 2113 O 207.08 -1.83707 0.515383 0
M  V30 2114 C 204.22 -3.16839 1.36773 0
M  V30 2115 C 203.333 -3.43774 2.61617 0
M  V30 2116 C 202.468 -4.71536 2.44597 0
M  V30 2117 C 201.507 -4.91505 3.64814 0
M  V30 2118 N 200.644 -6.10508 3.46734 0
M  V30 2119 H 205.484 -1.75151 2.41093 0
M  V30 2120 H 203.021 -0.85504 1.19697 0
M  V30 2121 H 204.979 -3.96606 1.29459 0
M  V30 2122 H 203.609 -3.19619 0.452089 0
M  V30 2123 H 202.661 -2.58259 2.79297 0
M  V30 2124 H 203.973 -3.54423 3.50978 0
M  V30 2125 H 203.127 -5.59393 2.3487 0
M  V30 2126 H 201.866 -4.6317 1.52726 0
M  V30 2127 H 200.871 -4.0209 3.74972 0
M  V30 2128 H 202.096 -5.01716 4.57665 0
M  V30 2129 H 200.042 -6.03315 2.5758 0
M  V30 2130 H 199.959 -6.2202 4.29682 0
M  V30 2131 H 201.227 -7.01044 3.40819 0
M  V30 2132 N 205.456 -1.28612 -0.910864 0
M  V30 2133 C 206.733 -1.06632 -1.63979 0
M  V30 2134 C 207.113 0.393351 -2.07403 0
M  V30 2135 O 206.461 1.37999 -1.82122 0
M  V30 2136 C 206.671 -2.0436 -2.8291 0
M  V30 2137 C 208.019 -2.34666 -3.5386 0
M  V30 2138 O 209.043 -2.02467 -2.93062 0
M  V30 2139 O 207.902 -2.89631 -4.63439 0
M  V30 2140 H 204.996 -0.407737 -0.7195 0
M  V30 2141 H 207.542 -1.39942 -0.959914 0
M  V30 2142 H 206.314 -3.02727 -2.47936 0
M  V30 2143 H 205.937 -1.71714 -3.58609 0
M  V30 2144 N 206.934 1.1197 -1.10907 0
M  V30 2145 C 207.866 2.17592 -0.720175 0
M  V30 2146 C 208.879 1.60938 0.245495 0
M  V30 2147 O 210.068 1.78476 0.0292245 0
M  V30 2148 C 207.168 3.38873 -0.0427917 0
M  V30 2149 C 206.341 4.25006 -1.03388 0
M  V30 2150 C 205.4 5.24774 -0.387075 0
M  V30 2151 O 204.426 5.59631 -1.03934 0
M  V30 2152 N 205.628 5.74208 0.852407 0
M  V30 2153 H 208.393 2.51567 -1.62893 0
M  V30 2154 H 205.954 1.27439 -0.998543 0
M  V30 2155 H 207.946 4.02703 0.401501 0
M  V30 2156 H 206.516 3.03007 0.768456 0
M  V30 2157 H 205.736 3.57716 -1.65629 0
M  V30 2158 H 207.024 4.79397 -1.70458 0
M  V30 2159 H 206.422 5.48062 1.40161 0
M  V30 2160 H 204.979 6.39901 1.23977 0
M  V30 2161 N 208.412 0.89855 1.29475 0
M  V30 2162 C 209.66 0.522847 1.9522 0
M  V30 2163 C 209.981 -0.93371 1.71192 0
M  V30 2164 O 209.251 -1.65823 1.04305 0
M  V30 2165 H 207.831 0.190366 0.722336 0
M  V30 2166 H 210.493 1.14459 1.5775 0
M  V30 2167 H 209.589 0.704476 3.04045 0
M  V30 2168 N 209.89 -1.43072 0.660911 0
M  V30 2169 C 210.822 -2.29108 -0.0647641 0
M  V30 2170 C 211.835 -1.42928 -0.779448 0
M  V30 2171 O 213.024 -1.66788 -0.635921 0
M  V30 2172 C 210.124 -3.20032 -1.11503 0
M  V30 2173 C 209.297 -4.34792 -0.476955 0
M  V30 2174 C 208.356 -5.06534 -1.42513 0
M  V30 2175 O 207.382 -5.61538 -0.930771 0
M  V30 2176 N 208.584 -5.1075 -2.75889 0
M  V30 2177 H 211.349 -2.92029 0.673731 0
M  V30 2178 H 208.91 -1.53846 0.50427 0
M  V30 2179 H 210.902 -3.64892 -1.75032 0
M  V30 2180 H 209.472 -2.58658 -1.75541 0
M  V30 2181 H 208.692 -3.92752 0.337572 0
M  V30 2182 H 209.98 -5.0879 -0.0318525 0
M  V30 2183 H 209.378 -4.67447 -3.18606 0
M  V30 2184 H 207.935 -5.59302 -3.347 0
M  V30 2185 N 211.368 -0.403325 -1.52352 0
M  V30 2186 C 212.608 0.173946 -2.03659 0
M  V30 2187 C 212.972 1.42869 -1.28267 0
M  V30 2188 O 214.173 2.08403 -1.69769 0
M  V30 2189 C 212.444 0.421478 -3.54906 0
M  V30 2190 S 214.003 0.967027 -4.28012 0
M  V30 2191 H 210.821 0.0477461 -0.709395 0
M  V30 2192 H 213.423 -0.554906 -1.87459 0
M  V30 2193 H 212.127 -0.498616 -4.0736 0
M  V30 2194 H 211.658 1.17837 -3.75337 0
M  V30 2195 H 213.673 2.24812 -4.4235 0
M  V30 2196 N 212.846 1.57033 -0.133567 0
M  V30 2197 C 214.094 1.953 0.519848 0
M  V30 2198 C 214.415 1.01866 1.66278 0
M  V30 2199 O 213.685 0.0776513 1.95746 0
M  V30 2200 H 212.265 0.721091 0.195032 0
M  V30 2201 H 214.927 1.93809 -0.205921 0
M  V30 2202 H 214.023 2.98695 0.904854 0
M  V30 2203 N 214.325 -0.140222 1.56975 0
M  V30 2204 C 215.55 -0.870414 1.88251 0
M  V30 2205 C 215.975 -1.73637 0.723312 0
M  V30 2206 O 215.333 -1.78329 -0.32689 0
M  V30 2207 C 215.381 -1.69737 3.18154 0
M  V30 2208 O 214.485 -2.80229 3.02565 0
M  V30 2209 H 213.826 -0.242025 0.61832 0
M  V30 2210 H 216.356 -0.128999 2.04193 0
M  V30 2211 H 216.366 -2.09099 3.50345 0
M  V30 2212 H 215.041 -1.06152 4.02125 0
M  V30 2213 H 213.618 -2.44224 2.81796 0
M  V30 2214 N 215.803 -1.52179 -0.40978 0
M  V30 2215 C 217.043 -1.67882 -1.16597 0
M  V30 2216 C 217.407 -0.399795 -1.87791 0
M  V30 2217 O 218.608 -0.43292 -2.65291 0
M  V30 2218 C 216.879 -2.86662 -2.13448 0
M  V30 2219 S 218.438 -3.22843 -2.97183 0
M  V30 2220 H 215.256 -0.59118 -0.395002 0
M  V30 2221 H 217.858 -1.9017 -0.453373 0
M  V30 2222 H 216.562 -3.77998 -1.59831 0
M  V30 2223 H 216.093 -2.66645 -2.89247 0
M  V30 2224 H 218.108 -2.71415 -4.15389 0
M  V30 2225 N 217.281 0.66697 -1.42791 0
M  V30 2226 C 218.527 1.42754 -1.44889 0
M  V30 2227 C 218.882 1.92283 -0.0669755 0
M  V30 2228 O 218.175 1.68494 0.912154 0
M  V30 2229 C 218.369 2.6349 -2.4147 0
M  V30 2230 C 218.198 2.25776 -3.88915 0
M  V30 2231 C 216.968 2.1476 -4.57391 0
M  V30 2232 C 219.166 1.86927 -4.79127 0
M  V30 2233 N 217.148 1.70232 -5.89826 0
M  V30 2234 C 218.519 1.53378 -6.00729 0
M  V30 2235 C 220.574 1.73989 -4.66511 0
M  V30 2236 C 219.277 1.08187 -7.11117 0
M  V30 2237 C 221.303 1.30203 -5.76889 0
M  V30 2238 C 220.665 0.975818 -6.97608 0
M  V30 2239 H 216.764 0.518559 -0.585338 0
M  V30 2240 H 219.348 0.768906 -1.78874 0
M  V30 2241 H 217.519 3.27033 -2.09533 0
M  V30 2242 H 219.251 3.30123 -2.34096 0
M  V30 2243 H 216.006 2.3408 -4.11708 0
M  V30 2244 H 216.43 1.50369 -6.6009 0
M  V30 2245 H 221.072 1.97853 -3.7365 0
M  V30 2246 H 218.79 0.830701 -8.03819 0
M  V30 2247 H 222.376 1.20701 -5.69142 0
M  V30 2248 H 221.256 0.642157 -7.81566 0
M  V30 2249 N 218.759 1.29093 0.90403 0
M  V30 2250 C 219.722 1.1386 1.98919 0
M  V30 2251 C 220.722 0.0753457 1.60623 0
M  V30 2252 O 221.912 0.321931 1.71199 0
M  V30 2253 C 219.044 0.740198 3.32767 0
M  V30 2254 H 220.237 2.10246 2.13861 0
M  V30 2255 H 217.79 1.12218 1.08797 0
M  V30 2256 H 218.525 -0.223997 3.23525 0
M  V30 2257 H 218.31 1.50838 3.61926 0
M  V30 2258 H 219.8 0.656546 4.12407 0
M  V30 2259 N 220.237 -1.11381 1.11499 0
M  V30 2260 C 221.484 -1.83132 0.864231 0
M  V30 2261 C 221.812 -1.84683 -0.610114 0
M  V30 2262 O 221.067 -1.29589 -1.46646 0
M  V30 2263 C 221.366 -3.30026 1.37177 0
M  V30 2264 C 221.032 -3.48634 2.85946 0
M  V30 2265 C 219.694 -3.53421 3.26569 0
M  V30 2266 C 222.046 -3.54837 3.81759 0
M  V30 2267 C 219.374 -3.61967 4.61733 0
M  V30 2268 C 221.726 -3.64915 5.1674 0
M  V30 2269 C 220.39 -3.67962 5.5692 0
M  V30 2270 H 219.66 -0.670127 0.316245 0
M  V30 2271 H 222.307 -1.31354 1.3935 0
M  V30 2272 H 220.612 -3.84304 0.762753 0
M  V30 2273 H 222.309 -3.84034 1.15408 0
M  V30 2274 H 218.899 -3.45579 2.53521 0
M  V30 2275 H 223.083 -3.50399 3.51474 0
M  V30 2276 H 218.339 -3.62603 4.92269 0
M  V30 2277 H 222.513 -3.68658 5.90816 0
M  V30 2278 H 220.14 -3.74336 6.61647 0
M  V30 2279 N 221.715 -0.905404 -1.28997 0
M  V30 2280 C 222.94 -0.549175 -1.99997 0
M  V30 2281 C 223.365 0.860276 -1.67275 0
M  V30 2282 O 222.723 1.57355 -0.900502 0
M  V30 2283 C 222.771 -0.755185 -3.52604 0
M  V30 2284 O 221.875 0.189692 -4.11964 0
M  V30 2285 H 221.216 -0.213899 -0.628604 0
M  V30 2286 H 223.746 -1.21856 -1.64354 0
M  V30 2287 H 223.756 -0.662045 -4.02593 0
M  V30 2288 H 222.431 -1.78271 -3.75755 0
M  V30 2289 H 221.008 0.0485257 -3.72868 0
M  V30 2290 N 223.193 1.4272 -0.668489 0
M  V30 2291 C 224.156 2.292 0.00448567 0
M  V30 2292 C 225.156 1.43001 0.735339 0
M  V30 2293 O 226.346 1.64461 0.57429 0
M  V30 2294 C 223.478 3.25375 1.01705 0
M  V30 2295 H 224.671 2.90199 -0.756608 0
M  V30 2296 H 222.224 1.50254 -0.430506 0
M  V30 2297 H 222.959 2.69301 1.80686 0
M  V30 2298 H 222.744 3.88944 0.496463 0
M  V30 2299 H 224.234 3.90245 1.48655 0
M  V30 2300 N 224.671 0.411399 1.52136 0
M  V30 2301 C 225.92 -0.165009 2.01024 0
M  V30 2302 C 226.233 -1.4603 1.30133 0
M  V30 2303 O 227.439 -2.1181 1.69849 0
M  V30 2304 C 225.895 -0.344618 3.58246 0
M  V30 2305 C 225.503 0.938716 4.38055 0
M  V30 2306 C 227.247 -0.876195 4.15359 0
M  V30 2307 C 225.154 0.726172 5.86925 0
M  V30 2308 H 224.084 -0.0654407 0.751155 0
M  V30 2309 H 226.735 0.537192 1.75461 0
M  V30 2310 H 225.117 -1.10921 3.80148 0
M  V30 2311 H 226.291 1.70963 4.27912 0
M  V30 2312 H 224.606 1.39688 3.92271 0
M  V30 2313 H 227.203 -1.05128 5.24263 0
M  V30 2314 H 227.546 -1.85152 3.7286 0
M  V30 2315 H 228.079 -0.170607 3.97434 0
M  V30 2316 H 224.818 1.67312 6.33788 0
M  V30 2317 H 224.338 -0.00540283 5.998 0
M  V30 2318 H 226.017 0.369231 6.45946 0
M  V30 2319 N 226.149 -1.5696 0.141893 0
M  V30 2320 C 227.397 -1.95573 -0.509484 0
M  V30 2321 C 227.718 -1.02746 -1.65736 0
M  V30 2322 O 226.988 -0.0880311 -1.95702 0
M  V30 2323 H 225.568 -0.722115 -0.191205 0
M  V30 2324 H 228.23 -1.93697 0.216196 0
M  V30 2325 H 227.326 -2.99171 -0.889 0
M  V30 2326 N 227.627 0.131896 -1.57047 0
M  V30 2327 C 228.575 1.18146 -2.0036 0
M  V30 2328 C 229.569 1.43614 -0.898406 0
M  V30 2329 O 230.775 1.43729 -1.08361 0
M  V30 2330 H 227.15 0.398042 -0.638018 0
M  V30 2331 H 229.121 0.789564 -2.87765 0
M  V30 2332 C 227.87 2.50341 -2.41298 0
M  V30 2333 H 227.193 2.31578 -3.25902 0
M  V30 2334 H 228.633 3.22371 -2.75414 0
M  V30 2335 C 227.092 3.11984 -1.27153 0
M  V30 2336 O 227.622 3.97484 -0.580459 0
M  V30 2337 N 225.828 2.71662 -1.03189 0
M  V30 2338 H 225.375 2.02231 -1.59564 0
M  V30 2339 H 225.333 3.13238 -0.270077 0
M  V30 2340 N 229.106 1.52395 0.401703 0
M  V30 2341 C 230.352 1.67065 1.14966 0
M  V30 2342 C 230.685 0.403052 1.89971 0
M  V30 2343 O 229.96 -0.598774 1.85054 0
M  V30 2344 C 230.243 2.8975 2.13815 0
M  V30 2345 C 230.096 4.26578 1.42658 0
M  V30 2346 C 231.415 3.07965 3.14397 0
M  V30 2347 H 228.534 0.607968 0.416587 0
M  V30 2348 H 231.176 1.84965 0.434511 0
M  V30 2349 H 229.326 2.74619 2.74803 0
M  V30 2350 H 230.998 4.53451 0.847329 0
M  V30 2351 H 229.241 4.27639 0.72849 0
M  V30 2352 H 229.912 5.08483 2.14823 0
M  V30 2353 H 232.388 3.22043 2.63491 0
M  V30 2354 H 231.264 3.95308 3.80819 0
M  V30 2355 H 231.525 2.21611 3.82545 0
M  V30 2356 N 230.584 -0.659388 1.43143 0
M  V30 2357 C 231.494 -1.80167 1.50256 0
M  V30 2358 C 232.51 -1.69571 0.390106 0
M  V30 2359 O 233.686 -1.90849 0.643319 0
M  V30 2360 C 230.751 -3.16409 1.41725 0
M  V30 2361 C 229.812 -3.38848 2.63591 0
M  V30 2362 C 229.045 -4.68591 2.55458 0
M  V30 2363 O 229.268 -5.47532 1.59891 0
M  V30 2364 O 228.202 -4.92614 3.45854 0
M  V30 2365 H 232.028 -1.77121 2.46702 0
M  V30 2366 H 229.613 -0.817092 1.25076 0
M  V30 2367 H 231.495 -3.9768 1.39387 0
M  V30 2368 H 230.17 -3.20059 0.484118 0
M  V30 2369 H 229.077 -2.57366 2.71502 0
M  V30 2370 H 230.41 -3.4004 3.55856 0
M  V30 2371 N 232.062 -1.29571 -0.897171 0
M  V30 2372 C 233.302 -1.18959 -1.66217 0
M  V30 2373 C 233.666 0.254271 -1.90309 0
M  V30 2374 O 234.867 0.483407 -2.64417 0
M  V30 2375 C 233.138 -1.98302 -2.9734 0
M  V30 2376 S 234.697 -2.04253 -3.88364 0
M  V30 2377 H 231.515 -0.424137 -0.570639 0
M  V30 2378 H 234.117 -1.6389 -1.06585 0
M  V30 2379 H 232.821 -3.02342 -2.77521 0
M  V30 2380 H 232.352 -1.53986 -3.62011 0
M  V30 2381 H 234.367 -1.16105 -4.82425 0
M  V30 2382 N 233.54 1.10788 -1.12088 0
M  V30 2383 C 234.472 2.16816 -0.743213 0
M  V30 2384 C 235.485 1.6119 0.228412 0
M  V30 2385 O 236.674 1.78497 0.0102931 0
M  V30 2386 C 233.774 3.38809 -0.0787313 0
M  V30 2387 C 232.947 4.23885 -1.0789 0
M  V30 2388 C 232.006 5.24334 -0.442713 0
M  V30 2389 O 231.032 5.58497 -1.09864 0
M  V30 2390 N 232.234 5.75079 0.791457 0
M  V30 2391 H 234.999 2.49825 -1.65552 0
M  V30 2392 H 232.56 1.26373 -1.012 0
M  V30 2393 H 234.552 4.03107 0.358766 0
M  V30 2394 H 233.122 3.03805 0.736275 0
M  V30 2395 H 232.342 3.55939 -1.69414 0
M  V30 2396 H 233.63 4.77562 -1.75533 0
M  V30 2397 H 233.028 5.49517 1.3434 0
M  V30 2398 H 231.585 6.4118 1.17183 0
M  V30 2399 N 235.018 0.912232 1.28515 0
M  V30 2400 C 236.264 0.554851 1.95686 0
M  V30 2401 C 236.619 -0.89138 1.70506 0
M  V30 2402 O 235.912 -1.62529 1.01464 0
M  V30 2403 C 236.106 0.798392 3.48368 0
M  V30 2404 C 235.935 2.26674 3.88393 0
M  V30 2405 C 234.705 2.91657 4.12631 0
M  V30 2406 C 236.903 3.24303 3.99164 0
M  V30 2407 N 234.885 4.28805 4.39317 0
M  V30 2408 C 236.256 4.4661 4.30046 0
M  V30 2409 C 238.311 3.19723 3.81683 0
M  V30 2410 C 237.014 5.64915 4.45268 0
M  V30 2411 C 239.04 4.37325 3.98121 0
M  V30 2412 C 238.402 5.58406 4.29375 0
M  V30 2413 H 234.501 0.252876 0.739985 0
M  V30 2414 H 237.085 1.17565 1.55199 0
M  V30 2415 H 235.256 0.20688 3.87849 0
M  V30 2416 H 236.988 0.405193 4.02666 0
M  V30 2417 H 233.743 2.42393 4.06869 0
M  V30 2418 H 234.167 4.99712 4.56746 0
M  V30 2419 H 238.809 2.27191 3.56573 0
M  V30 2420 H 236.527 6.57927 4.6921 0
M  V30 2421 H 240.113 4.35282 3.86033 0
M  V30 2422 H 238.993 6.47889 4.41825 0
M  V30 2423 N 236.496 -1.42363 0.676048 0
M  V30 2424 C 237.743 -2.01522 0.19883 0
M  V30 2425 C 238.071 -1.53456 -1.19505 0
M  V30 2426 O 237.326 -0.727967 -1.81657 0
M  V30 2427 C 237.625 -3.56929 0.183431 0
M  V30 2428 C 237.291 -4.24431 1.52215 0
M  V30 2429 C 235.953 -4.42585 1.8887 0
M  V30 2430 C 238.305 -4.62459 2.40377 0
M  V30 2431 C 235.633 -4.96039 3.13309 0
M  V30 2432 C 237.985 -5.17294 3.64129 0
M  V30 2433 C 236.649 -5.33661 4.00951 0
M  V30 2434 H 235.919 -0.737419 0.0727571 0
M  V30 2435 H 238.566 -1.70531 0.871281 0
M  V30 2436 H 236.871 -3.87594 -0.572532 0
M  V30 2437 H 238.568 -4.00486 -0.203035 0
M  V30 2438 H 235.158 -4.10661 1.22701 0
M  V30 2439 H 239.342 -4.48105 2.13343 0
M  V30 2440 H 234.598 -5.06896 3.41857 0
M  V30 2441 H 238.772 -5.45704 4.32644 0
M  V30 2442 H 236.399 -5.74845 4.9745 0
M  V30 2443 N 237.974 -0.419461 -1.51915 0
M  V30 2444 C 238.904 0.391813 -2.30189 0
M  V30 2445 C 239.885 1.03699 -1.34836 0
M  V30 2446 O 241.07 1.04403 -1.63748 0
M  V30 2447 C 238.2 1.50312 -3.13087 0
M  V30 2448 C 237.154 0.9824 -4.16573 0
M  V30 2449 C 236.48 2.18809 -4.8788 0
M  V30 2450 C 237.78 0.0292356 -5.22292 0
M  V30 2451 H 239.474 -0.26135 -2.98257 0
M  V30 2452 H 237.02 -0.127134 -1.43438 0
M  V30 2453 H 238.973 2.07773 -3.66617 0
M  V30 2454 H 237.697 2.18431 -2.42807 0
M  V30 2455 H 236.356 0.430119 -3.64068 0
M  V30 2456 H 236.004 2.85507 -4.14119 0
M  V30 2457 H 235.704 1.84615 -5.57845 0
M  V30 2458 H 237.228 2.76858 -5.44226 0
M  V30 2459 H 238.642 0.512976 -5.71 0
M  V30 2460 H 237.039 -0.2244 -5.9968 0
M  V30 2461 H 238.109 -0.912931 -4.76228 0
M  V30 2462 N 239.452 1.56882 -0.150215 0
M  V30 2463 C 240.415 2.1573 0.774157 0
M  V30 2464 C 241.415 1.0999 1.17298 0
M  V30 2465 O 242.605 1.35613 1.09338 0
M  V30 2466 C 239.737 2.72302 2.05096 0
M  V30 2467 H 240.93 2.98752 0.262201 0
M  V30 2468 H 238.483 1.55985 0.099248 0
M  V30 2469 H 239.218 1.92956 2.6065 0
M  V30 2470 H 239.003 3.49665 1.77416 0
M  V30 2471 H 240.493 3.17632 2.71109 0
M  V30 2472 N 240.93 -0.123565 1.57115 0
M  V30 2473 C 242.178 -0.83051 1.84247 0
M  V30 2474 C 242.499 -1.80629 0.73471 0
M  V30 2475 O 241.769 -1.94403 -0.241688 0
M  V30 2476 H 240.349 -0.309694 0.679778 0
M  V30 2477 H 243.011 -0.111976 1.94578 0
M  V30 2478 H 242.107 -1.37852 2.80006 0
M  V30 2479 N 242.408 -1.52605 -0.393616 0
M  V30 2480 C 243.358 -1.73436 -1.48 0
M  V30 2481 C 244.342 -0.588386 -1.49756 0
M  V30 2482 O 245.534 -0.846047 -1.5547 0
M  V30 2483 C 242.663 -1.90247 -2.85764 0
M  V30 2484 C 241.749 -3.10763 -2.88595 0
M  V30 2485 N 242.14 -4.33196 -2.61103 0
M  V30 2486 C 240.438 -3.10914 -3.19763 0
M  V30 2487 C 241.139 -5.1477 -2.70899 0
M  V30 2488 N 240.115 -4.50356 -3.04435 0
M  V30 2489 H 243.917 -2.65727 -1.25563 0
M  V30 2490 H 241.431 -1.5085 -0.601513 0
M  V30 2491 H 243.428 -2.03291 -3.63976 0
M  V30 2492 H 242.088 -0.991663 -3.09186 0
M  V30 2493 H 243.099 -4.61408 -2.35209 0
M  V30 2494 H 239.776 -2.29626 -3.4868 0
M  V30 2495 H 241.166 -6.22355 -2.53227 0
M  V30 2496 N 243.887 0.651787 -1.4349 0
M  V30 2497 C 245.298 1.233 -1.40193 0
M  V30 2498 C 245.649 1.9591 -0.106727 0
M  V30 2499 O 244.774 2.01316 0.793773 0
M  V30 2500 C 245.369 2.24257 -2.53957 0
M  V30 2501 C 243.928 2.77852 -2.5392 0
M  V30 2502 C 243.075 1.52517 -2.3159 0
M  V30 2503 H 246.026 0.443717 -1.52371 0
M  V30 2504 H 246.047 3.0646 -2.25528 0
M  V30 2505 H 245.559 1.71382 -3.4821 0
M  V30 2506 H 243.66 3.34786 -1.63551 0
M  V30 2507 H 243.773 3.25299 -3.51735 0
M  V30 2508 H 242.137 1.79915 -1.80285 0
M  V30 2509 H 242.92 1.01574 -3.27929 0
M  V30 2510 N 245.365 1.30045 0.890287 0
M  V30 2511 C 246.295 1.18541 2.01172 0
M  V30 2512 C 247.276 0.0773356 1.69924 0
M  V30 2513 O 248.461 0.25845 1.92473 0
M  V30 2514 C 245.591 0.870941 3.36202 0
M  V30 2515 C 244.545 1.93637 3.81692 0
M  V30 2516 C 243.871 1.475 5.13953 0
M  V30 2517 C 245.171 3.34666 4.00994 0
M  V30 2518 H 246.865 2.12359 2.11054 0
M  V30 2519 H 244.411 1.02238 1.01407 0
M  V30 2520 H 246.364 0.777141 4.14172 0
M  V30 2521 H 245.088 -0.102926 3.26438 0
M  V30 2522 H 243.747 2.01972 3.05946 0
M  V30 2523 H 243.395 0.489551 5.00612 0
M  V30 2524 H 243.095 2.1876 5.4536 0
M  V30 2525 H 244.619 1.39489 5.94454 0
M  V30 2526 H 246.033 3.2912 4.69417 0
M  V30 2527 H 244.43 4.03966 4.43769 0
M  V30 2528 H 245.5 3.76949 3.05021 0
M  V30 2529 N 246.843 -1.10192 1.12674 0
M  V30 2530 C 248.071 -1.85983 0.906527 0
M  V30 2531 C 248.486 -1.80783 -0.544333 0
M  V30 2532 O 247.843 -1.19834 -1.37645 0
M  V30 2533 C 247.894 -3.34281 1.37618 0
M  V30 2534 O 247.615 -3.39401 2.77017 0
M  V30 2535 C 249.116 -4.26938 1.19325 0
M  V30 2536 H 246.336 -0.587716 0.323775 0
M  V30 2537 H 248.88 -1.39284 1.49734 0
M  V30 2538 H 247.035 -3.78436 0.828539 0
M  V30 2539 H 247.449 -4.31838 2.97684 0
M  V30 2540 H 248.923 -5.29181 1.57071 0
M  V30 2541 H 249.4 -4.38995 0.134097 0
M  V30 2542 H 250.006 -3.8859 1.72852 0
M  V30 2543 N 248.321 -0.919034 -1.28029 0
M  V30 2544 C 249.269 -0.401753 -2.29104 0
M  V30 2545 C 250.263 0.509354 -1.61561 0
M  V30 2546 O 251.469 0.390014 -1.75724 0
M  V30 2547 H 247.844 -0.111331 -0.743713 0
M  V30 2548 H 249.815 -1.2672 -2.70156 0
M  V30 2549 C 248.564 0.338148 -3.46052 0
M  V30 2550 H 247.887 -0.353732 -3.98232 0
M  V30 2551 H 249.327 0.664653 -4.18758 0
M  V30 2552 C 247.786 1.54798 -2.99231 0
M  V30 2553 O 248.316 2.64696 -3.02157 0
M  V30 2554 N 246.522 1.3968 -2.54829 0
M  V30 2555 H 246.069 0.502698 -2.52647 0
M  V30 2556 H 246.027 2.20755 -2.23863 0
M  V30 2557 N 249.799 1.42003 -0.683588 0
M  V30 2558 C 250.729 2.33487 -0.024866 0
M  V30 2559 C 251.71 1.51163 0.779975 0
M  V30 2560 O 252.895 1.79739 0.735362 0
M  V30 2561 C 250.025 3.3487 0.920836 0
M  V30 2562 C 248.979 4.27414 0.223958 0
M  V30 2563 C 248.305 5.19074 1.2832 0
M  V30 2564 C 249.605 5.14445 -0.90242 0
M  V30 2565 H 251.299 2.88819 -0.788921 0
M  V30 2566 H 248.845 1.38873 -0.38083 0
M  V30 2567 H 250.798 3.97787 1.39081 0
M  V30 2568 H 249.522 2.77861 1.71642 0
M  V30 2569 H 248.181 3.65904 -0.225864 0
M  V30 2570 H 247.829 4.58387 2.071 0
M  V30 2571 H 247.529 5.81822 0.821995 0
M  V30 2572 H 249.053 5.84867 1.75392 0
M  V30 2573 H 250.467 5.70998 -0.513272 0
M  V30 2574 H 248.864 5.86072 -1.28997 0
M  V30 2575 H 249.934 4.52322 -1.74737 0
M  V30 2576 N 251.277 0.427512 1.51691 0
M  V30 2577 C 252.502 -0.143601 2.06902 0
M  V30 2578 C 252.927 -1.36536 1.29382 0
M  V30 2579 O 252.285 -1.78289 0.329043 0
M  V30 2580 C 252.333 -0.454207 3.57728 0
M  V30 2581 O 251.437 -1.54228 3.82475 0
M  V30 2582 H 250.778 -0.00617128 0.663971 0
M  V30 2583 H 253.308 0.606014 1.95419 0
M  V30 2584 H 253.318 -0.707525 4.01818 0
M  V30 2585 H 251.993 0.438812 4.13579 0
M  V30 2586 H 250.57 -1.2797 3.50254 0
M  V30 2587 N 252.755 -1.56801 0.158532 0
M  V30 2588 C 253.665 -2.20916 -0.789518 0
M  V30 2589 C 254.681 -1.1969 -1.26294 0
M  V30 2590 O 255.857 -1.52308 -1.31773 0
M  V30 2591 C 252.922 -2.82727 -2.00665 0
M  V30 2592 C 251.983 -3.99114 -1.58134 0
M  V30 2593 C 251.216 -4.57968 -2.74045 0
M  V30 2594 O 251.439 -4.15704 -3.90572 0
M  V30 2595 O 250.373 -5.48047 -2.48855 0
M  V30 2596 H 254.199 -3.02464 -0.273681 0
M  V30 2597 H 251.784 -1.4924 -0.0690548 0
M  V30 2598 H 253.666 -3.21968 -2.71872 0
M  V30 2599 H 252.341 -2.04184 -2.51179 0
M  V30 2600 H 251.248 -3.64567 -0.839155 0
M  V30 2601 H 252.581 -4.79212 -1.12325 0
M  V30 2602 N 254.233 0.115231 -1.57178 0
M  V30 2603 C 255.165 1.16694 -1.97269 0
M  V30 2604 C 256.178 1.37445 -0.872502 0
M  V30 2605 O 257.367 1.36454 -1.15077 0
M  V30 2606 C 254.467 2.52627 -2.25905 0
M  V30 2607 C 253.64 2.52427 -3.57211 0
M  V30 2608 C 252.699 3.70134 -3.74016 0
M  V30 2609 O 251.725 3.53546 -4.46087 0
M  V30 2610 N 252.927 4.88844 -3.13068 0
M  V30 2611 H 255.692 0.82588 -2.88096 0
M  V30 2612 H 253.253 0.304461 -1.59011 0
M  V30 2613 H 255.245 3.29937 -2.34359 0
M  V30 2614 H 253.815 2.789 -1.41186 0
M  V30 2615 H 253.035 1.60805 -3.5991 0
M  V30 2616 H 254.323 2.49353 -4.43509 0
M  V30 2617 H 253.721 5.05225 -2.54489 0
M  V30 2618 H 252.278 5.63817 -3.27037 0
M  V30 2619 N 255.711 1.52812 0.385517 0
M  V30 2620 C 256.644 1.72592 1.49289 0
M  V30 2621 C 257.622 0.573819 1.52138 0
M  V30 2622 O 258.806 0.80404 1.70492 0
M  V30 2623 C 255.933 1.78669 2.87741 0
M  V30 2624 C 254.979 3.00455 3.02703 0
M  V30 2625 S 255.812 4.60366 2.73538 0
M  V30 2626 C 256.968 4.69263 4.14177 0
M  V30 2627 H 257.201 2.66248 1.32285 0
M  V30 2628 H 254.734 1.43148 0.578611 0
M  V30 2629 H 256.692 1.82855 3.67524 0
M  V30 2630 H 255.353 0.861 3.02069 0
M  V30 2631 H 254.546 3.01258 4.04054 0
M  V30 2632 H 254.148 2.94278 2.30817 0
M  V30 2633 H 256.44 4.48092 5.08153 0
M  V30 2634 H 257.383 5.71276 4.18388 0
M  V30 2635 H 257.791 3.98072 4.00249 0
M  V30 2636 N 257.189 -0.644168 1.43834 0
M  V30 2637 C 258.119 -1.76814 1.52509 0
M  V30 2638 C 259.1 -1.65823 0.379052 0
M  V30 2639 O 260.285 -1.84781 0.597466 0
M  V30 2640 C 257.415 -3.15288 1.4564 0
M  V30 2641 C 256.369 -3.41053 2.58586 0
M  V30 2642 C 255.695 -4.79421 2.36769 0
M  V30 2643 C 256.995 -3.34902 4.00797 0
M  V30 2644 H 258.689 -1.69812 2.46586 0
M  V30 2645 H 256.235 -0.815542 1.1868 0
M  V30 2646 H 258.188 -3.93681 1.50311 0
M  V30 2647 H 256.912 -3.23043 0.480725 0
M  V30 2648 H 255.571 -2.65035 2.53282 0
M  V30 2649 H 255.219 -4.83863 1.37424 0
M  V30 2650 H 254.919 -4.9762 3.12487 0
M  V30 2651 H 256.443 -5.6006 2.43238 0
M  V30 2652 H 257.857 -4.03218 4.07539 0
M  V30 2653 H 256.254 -3.64637 4.76613 0
M  V30 2654 H 257.324 -2.32928 4.25291 0
M  V30 2655 N 258.668 -1.30515 -0.883378 0
M  V30 2656 C 259.914 -1.19607 -1.63774 0
M  V30 2657 C 260.247 0.248314 -1.92606 0
M  V30 2658 O 259.522 1.17742 -1.54813 0
M  V30 2659 C 259.805 -2.02669 -2.97653 0
M  V30 2660 C 259.658 -3.55335 -2.75784 0
M  V30 2661 C 260.977 -1.86573 -3.98596 0
M  V30 2662 H 258.096 -0.435856 -0.594305 0
M  V30 2663 H 260.738 -1.60165 -1.02212 0
M  V30 2664 H 258.888 -1.68208 -3.50197 0
M  V30 2665 H 260.56 -3.99863 -2.30016 0
M  V30 2666 H 258.803 -3.79438 -2.1026 0
M  V30 2667 H 259.474 -4.08745 -3.70988 0
M  V30 2668 H 261.95 -2.16703 -3.55217 0
M  V30 2669 H 260.826 -2.47014 -4.90179 0
M  V30 2670 H 261.087 -0.825321 -4.34328 0
M  V30 2671 N 260.146 1.09593 -1.13257 0
M  V30 2672 C 261.371 1.8604 -0.916732 0
M  V30 2673 C 261.796 1.80504 0.529146 0
M  V30 2674 O 261.154 1.18127 1.37534 0
M  V30 2675 C 261.202 3.32017 -1.40703 0
M  V30 2676 O 260.306 4.08141 -0.591153 0
M  V30 2677 H 259.647 0.576943 -0.328683 0
M  V30 2678 H 262.177 1.38405 -1.50682 0
M  V30 2679 H 262.187 3.82865 -1.4099 0
M  V30 2680 H 260.862 3.35361 -2.45979 0
M  V30 2681 H 259.439 3.67084 -0.656005 0
M  V30 2682 N 261.624 0.925811 1.2754 0
M  V30 2683 C 262.864 0.572521 1.96218 0
M  V30 2684 C 263.228 -0.869719 1.71172 0
M  V30 2685 O 264.429 -1.33119 2.33523 0
M  V30 2686 C 262.7 0.887325 3.4621 0
M  V30 2687 S 264.259 0.642266 4.34074 0
M  V30 2688 H 261.077 0.211403 0.678845 0
M  V30 2689 H 263.679 1.19384 1.54815 0
M  V30 2690 H 262.383 1.93469 3.61936 0
M  V30 2691 H 261.914 0.255123 3.92572 0
M  V30 2692 H 263.929 -0.500822 4.93666 0
M  V30 2693 N 263.102 -1.41638 0.69111 0
M  V30 2694 C 264.379 -1.95036 0.148421 0
M  V30 2695 C 264.759 -1.63072 -1.34055 0
M  V30 2696 O 264.107 -0.93538 -2.08478 0
M  V30 2697 C 264.317 -3.46279 0.434951 0
M  V30 2698 C 265.665 -4.23069 0.360275 0
M  V30 2699 O 266.689 -3.54277 0.369613 0
M  V30 2700 O 265.548 -5.45583 0.316534 0
M  V30 2701 H 262.642 -0.826908 0.0123654 0
M  V30 2702 H 265.188 -1.5138 0.766963 0
M  V30 2703 H 263.96 -3.6281 1.46576 0
M  V30 2704 H 263.583 -3.97019 -0.214787 0
M  V30 2705 N 264.58 -0.43555 -1.51462 0
M  V30 2706 C 265.527 0.376797 -2.27703 0
M  V30 2707 C 266.497 1.01838 -1.31219 0
M  V30 2708 O 267.682 1.03762 -1.60119 0
M  V30 2709 C 264.822 1.47301 -3.12084 0
M  V30 2710 C 263.935 0.849744 -4.2356 0
M  V30 2711 C 263.07 1.92086 -4.95254 0
M  V30 2712 C 262.109 1.27593 -5.98654 0
M  V30 2713 N 261.246 2.28833 -6.63762 0
M  V30 2714 H 266.086 -0.279734 -2.96684 0
M  V30 2715 H 263.623 -0.149795 -1.46335 0
M  V30 2716 H 265.581 2.11984 -3.59331 0
M  V30 2717 H 264.211 2.0992 -2.45221 0
M  V30 2718 H 263.263 0.0912529 -3.80291 0
M  V30 2719 H 264.575 0.338878 -4.97648 0
M  V30 2720 H 263.729 2.64435 -5.46039 0
M  V30 2721 H 262.468 2.46545 -4.20793 0
M  V30 2722 H 261.473 0.537893 -5.47162 0
M  V30 2723 H 262.698 0.738693 -6.7507 0
M  V30 2724 H 260.644 2.82375 -5.92115 0
M  V30 2725 H 260.561 1.82632 -7.33608 0
M  V30 2726 H 261.829 3.00671 -7.19178 0
M  V30 2727 N 266.058 1.56714 -0.166846 0
M  V30 2728 C 267.286 2.0112 0.485644 0
M  V30 2729 C 267.701 1.04705 1.57106 0
M  V30 2730 O 267.058 0.0471923 1.82439 0
M  V30 2731 C 267.109 3.45361 1.06808 0
M  V30 2732 O 266.83 4.38092 0.0259995 0
M  V30 2733 C 268.331 4.05145 1.79924 0
M  V30 2734 H 265.551 0.65931 0.124704 0
M  V30 2735 H 268.095 2.02746 -0.267262 0
M  V30 2736 H 266.25 3.44524 1.7715 0
M  V30 2737 H 266.664 5.22519 0.455398 0
M  V30 2738 H 268.138 5.08009 2.15942 0
M  V30 2739 H 268.615 3.46982 2.69258 0
M  V30 2740 H 269.221 4.09672 1.14234 0
M  V30 2741 N 267.536 -0.106894 1.57237 0
M  V30 2742 C 268.813 -0.843526 1.76477 0
M  V30 2743 C 269.193 -1.97499 0.745464 0
M  V30 2744 O 268.541 -2.27357 -0.228306 0
M  V30 2745 C 268.751 -1.34903 3.21873 0
M  V30 2746 C 270.099 -1.79654 3.8472 0
M  V30 2747 O 271.123 -1.44554 3.2555 0
M  V30 2748 O 269.982 -2.44515 4.88748 0
M  V30 2749 H 267.076 -0.401468 0.723016 0
M  V30 2750 H 269.622 -0.0896927 1.69463 0
M  V30 2751 H 268.394 -0.53781 3.87586 0
M  V30 2752 H 268.017 -2.16522 3.33473 0
M  V30 2753 N 269.014 -1.53014 -0.377408 0
M  V30 2754 C 270.239 -1.72818 -1.14668 0
M  V30 2755 C 270.664 -0.450725 -1.8262 0
M  V30 2756 O 270.022 0.59439 -1.7128 0
M  V30 2757 C 270.07 -2.88627 -2.16164 0
M  V30 2758 O 269.174 -2.56409 -3.22998 0
M  V30 2759 H 268.515 -0.574301 -0.333278 0
M  V30 2760 H 271.045 -1.99853 -0.438152 0
M  V30 2761 H 271.055 -3.14455 -2.59966 0
M  V30 2762 H 269.73 -3.81294 -1.66095 0
M  V30 2763 H 268.307 -2.4136 -2.84253 0
M  V30 2764 N 270.492 0.636531 -1.44174 0
M  V30 2765 C 271.74 1.39343 -1.46383 0
M  V30 2766 C 272.061 1.94766 -0.0955715 0
M  V30 2767 O 271.331 1.75452 0.871395 0
M  V30 2768 H 269.911 0.517199 -0.538994 0
M  V30 2769 H 272.573 0.74957 -1.7991 0
M  V30 2770 H 271.669 2.22746 -2.18611 0
M  V30 2771 N 271.97 1.30982 0.876444 0
M  V30 2772 C 273.21 1.21589 1.64303 0
M  V30 2773 C 273.574 -0.223962 1.90689 0
M  V30 2774 O 274.775 -0.44128 2.65153 0
M  V30 2775 C 273.046 2.03007 2.94148 0
M  V30 2776 S 274.605 2.10405 3.85065 0
M  V30 2777 H 271.423 0.433161 0.563819 0
M  V30 2778 H 274.025 1.65565 1.03964 0
M  V30 2779 H 272.729 3.06719 2.72675 0
M  V30 2780 H 272.26 1.59725 3.59515 0
M  V30 2781 H 274.275 1.23765 4.80517 0
M  V30 2782 N 273.449 -1.08991 1.13837 0
M  V30 2783 C 274.674 -1.85551 0.926585 0
M  V30 2784 C 275.099 -1.80782 -0.519566 0
M  V30 2785 O 274.457 -1.18855 -1.36906 0
M  V30 2786 C 274.505 -3.31266 1.42462 0
M  V30 2787 O 273.609 -4.07822 0.612789 0
M  V30 2788 H 272.95 -0.575192 0.331738 0
M  V30 2789 H 275.48 -1.37604 1.51414 0
M  V30 2790 H 275.49 -3.82112 1.43019 0
M  V30 2791 H 274.165 -3.34052 2.47754 0
M  V30 2792 H 272.742 -3.66731 0.675463 0
M  V30 2793 N 274.927 -0.932562 -1.27047 0
M  V30 2794 C 276.175 -0.574422 -1.93765 0
M  V30 2795 C 276.496 0.887993 -1.73608 0
M  V30 2796 O 275.766 1.62999 -1.08665 0
M  V30 2797 H 274.346 -0.209451 -0.717035 0
M  V30 2798 H 277.008 -1.18601 -1.5466 0
M  V30 2799 H 276.104 -0.784841 -3.02071 0
M  V30 2800 N 276.405 1.4127 -0.698611 0
M  V30 2801 C 277.653 2.00782 -0.230409 0
M  V30 2802 C 277.974 1.5562 1.17505 0
M  V30 2803 O 277.244 0.78815 1.79346 0
M  V30 2804 H 275.824 0.742464 -0.0821944 0
M  V30 2805 H 278.486 1.72852 -0.90045 0
M  V30 2806 H 277.582 3.11095 -0.25021 0
M  V30 2807 N 277.883 0.443576 1.51229 0
M  V30 2808 C 278.813 -0.355142 2.30783 0
M  V30 2809 C 279.794 -1.0154 1.36468 0
M  V30 2810 O 280.979 -1.01785 1.65389 0
M  V30 2811 C 278.109 -1.45312 3.15439 0
M  V30 2812 C 277.063 -0.916002 4.18083 0
M  V30 2813 C 276.389 -2.1102 4.91299 0
M  V30 2814 C 277.689 0.0538602 5.22272 0
M  V30 2815 H 279.383 0.308767 2.97804 0
M  V30 2816 H 276.929 0.149937 1.43217 0
M  V30 2817 H 278.882 -2.01914 3.69876 0
M  V30 2818 H 277.606 -2.14541 2.46252 0
M  V30 2819 H 276.265 -0.372145 3.64706 0
M  V30 2820 H 275.913 -2.78882 4.18609 0
M  V30 2821 H 275.613 -1.75717 5.60712 0
M  V30 2822 H 277.137 -2.68164 5.48562 0
M  V30 2823 H 278.551 -0.422069 5.71744 0
M  V30 2824 H 276.948 0.319776 5.99247 0
M  V30 2825 H 278.018 0.98858 4.74716 0
M  V30 2826 N 279.361 -1.56624 0.175154 0
M  V30 2827 C 280.294 -2.14 -0.792412 0
M  V30 2828 C 281.272 -1.07114 -1.22333 0
M  V30 2829 O 282.456 -1.35112 -1.31442 0
M  V30 2830 C 279.583 -2.68268 -2.0676 0
M  V30 2831 C 278.629 -3.87562 -1.7804 0
M  V30 2832 S 279.462 -5.27074 -0.946222 0
M  V30 2833 C 280.618 -5.8475 -2.23199 0
M  V30 2834 H 280.851 -2.95736 -0.304588 0
M  V30 2835 H 278.384 -1.54349 -0.0395705 0
M  V30 2836 H 280.342 -3.00182 -2.80002 0
M  V30 2837 H 279.003 -1.86612 -2.52656 0
M  V30 2838 H 278.196 -4.23874 -2.72666 0
M  V30 2839 H 277.798 -3.56555 -1.12891 0
M  V30 2840 H 280.09 -5.97898 -3.18629 0
M  V30 2841 H 281.033 -6.81756 -1.91349 0
M  V30 2842 H 281.441 -5.13198 -2.35134 0
M  V30 2843 N 280.839 0.0985539 -1.57292 0
M  V30 2844 C 281.787 1.1387 -2.02821 0
M  V30 2845 C 282.781 1.41676 -0.928666 0
M  V30 2846 O 283.987 1.41398 -1.11385 0
M  V30 2847 H 280.362 0.384419 -0.646317 0
M  V30 2848 H 282.333 0.728347 -2.89375 0
M  V30 2849 C 281.082 2.45166 -2.46554 0
M  V30 2850 H 280.405 2.24613 -3.3074 0
M  V30 2851 H 281.845 3.16456 -2.8219 0
M  V30 2852 C 280.304 3.09216 -1.33742 0
M  V30 2853 O 280.834 3.96163 -0.66464 0
M  V30 2854 N 279.04 2.69413 -1.08928 0
M  V30 2855 H 278.587 1.98801 -1.63817 0
M  V30 2856 H 278.545 3.12594 -0.336458 0
M  V30 2857 N 282.317 1.53212 0.369288 0
M  V30 2858 C 283.265 1.80054 1.47253 0
M  V30 2859 C 284.259 0.669456 1.55611 0
M  V30 2860 O 285.465 0.852328 1.58541 0
M  V30 2861 H 281.84 0.570034 0.490475 0
M  V30 2862 H 283.811 2.72403 1.21817 0
M  V30 2863 C 282.56 2.00403 2.84137 0
M  V30 2864 H 281.883 2.86876 2.78464 0
M  V30 2865 H 283.323 2.23164 3.60519 0
M  V30 2866 C 281.782 0.782081 3.27697 0
M  V30 2867 O 282.312 -0.0310205 4.01688 0
M  V30 2868 N 280.518 0.606573 2.84199 0
M  V30 2869 H 280.065 1.26939 2.24152 0
M  V30 2870 H 280.023 -0.20962 3.137 0
M  V30 2871 N 283.795 -0.628877 1.44509 0
M  V30 2872 C 284.758 -1.72263 1.51188 0
M  V30 2873 C 285.758 -1.55907 0.39367 0
M  V30 2874 O 286.948 -1.61361 0.656377 0
M  V30 2875 C 284.08 -3.11365 1.38798 0
M  V30 2876 H 285.273 -1.67714 2.4862 0
M  V30 2877 H 282.826 -0.842737 1.31634 0
M  V30 2878 H 283.561 -3.21507 0.424693 0
M  V30 2879 H 283.346 -3.24644 2.19884 0
M  V30 2880 H 284.836 -3.91075 1.46458 0
M  V30 2881 N 285.273 -1.31445 -0.869486 0
M  V30 2882 C 286.52 -1.21158 -1.62256 0
M  V30 2883 C 286.848 0.230155 -1.93133 0
M  V30 2884 O 286.103 1.17906 -1.56194 0
M  V30 2885 C 286.402 -2.00145 -2.96102 0
M  V30 2886 C 286.068 -3.4964 -2.84715 0
M  V30 2887 C 284.73 -3.90403 -2.81317 0
M  V30 2888 C 287.082 -4.44769 -2.71716 0
M  V30 2889 C 284.41 -5.24561 -2.62778 0
M  V30 2890 C 286.762 -5.79054 -2.54714 0
M  V30 2891 C 285.426 -6.19037 -2.49699 0
M  V30 2892 H 284.696 -0.443348 -0.593737 0
M  V30 2893 H 287.343 -1.62715 -1.00976 0
M  V30 2894 H 285.648 -1.5127 -3.6142 0
M  V30 2895 H 287.345 -1.89566 -3.53363 0
M  V30 2896 H 283.935 -3.17256 -2.88178 0
M  V30 2897 H 288.119 -4.14208 -2.73397 0
M  V30 2898 H 283.375 -5.54613 -2.57321 0
M  V30 2899 H 287.549 -6.52393 -2.43632 0
M  V30 2900 H 285.176 -7.22935 -2.35093 0
M  V30 2901 N 286.751 1.08385 -1.14413 0
M  V30 2902 C 287.661 2.18856 -0.844951 0
M  V30 2903 C 288.677 1.73121 0.174668 0
M  V30 2904 O 289.853 2.014 0.00312857 0
M  V30 2905 C 286.918 3.45155 -0.32696 0
M  V30 2906 C 285.979 4.05513 -1.40916 0
M  V30 2907 C 285.212 5.25784 -0.915793 0
M  V30 2908 O 285.435 5.69884 0.242651 0
M  V30 2909 O 284.369 5.77545 -1.69487 0
M  V30 2910 H 288.195 2.46919 -1.76818 0
M  V30 2911 H 285.78 1.17524 -0.922411 0
M  V30 2912 H 287.662 4.21377 -0.0440211 0
M  V30 2913 H 286.337 3.18668 0.568539 0
M  V30 2914 H 285.244 3.30879 -1.74556 0
M  V30 2915 H 286.577 4.3625 -2.27919 0
M  V30 2916 N 288.23 0.939286 1.26551 0
M  V30 2917 C 289.476 0.596234 1.94465 0
M  V30 2918 C 289.831 -0.855013 1.72358 0
M  V30 2919 O 289.124 -1.6034 1.04889 0
M  V30 2920 C 289.318 0.872106 3.46596 0
M  V30 2921 C 289.147 2.34862 3.83497 0
M  V30 2922 C 287.917 3.00344 4.06352 0
M  V30 2923 C 290.115 3.32697 3.92195 0
M  V30 2924 N 288.097 4.38027 4.30123 0
M  V30 2925 C 289.468 4.55631 4.20476 0
M  V30 2926 C 291.523 3.27747 3.74815 0
M  V30 2927 C 290.226 5.74233 4.33185 0
M  V30 2928 C 292.252 4.45672 3.88755 0
M  V30 2929 C 291.614 5.67388 4.17433 0
M  V30 2930 H 287.713 0.268515 0.734455 0
M  V30 2931 H 290.297 1.2083 1.5267 0
M  V30 2932 H 288.468 0.289102 3.87323 0
M  V30 2933 H 290.2 0.490513 4.01716 0
M  V30 2934 H 286.955 2.50969 4.01636 0
M  V30 2935 H 287.379 5.09288 4.46044 0
M  V30 2936 H 292.021 2.34703 3.51673 0
M  V30 2937 H 289.739 6.67731 4.55149 0
M  V30 2938 H 293.325 4.43372 3.76713 0
M  V30 2939 H 292.205 6.57115 4.27983 0
M  V30 2940 N 289.708 -1.40897 0.706093 0
M  V30 2941 C 290.957 -2.00284 0.238574 0
M  V30 2942 C 291.27 -1.56604 -1.17194 0
M  V30 2943 O 292.476 -2.08624 -1.73748 0
M  V30 2944 C 290.932 -3.57934 0.375623 0
M  V30 2945 C 290.54 -4.10591 1.79217 0
M  V30 2946 C 292.284 -4.24488 -0.0315857 0
M  V30 2947 C 290.191 -5.60712 1.88032 0
M  V30 2948 H 289.121 -0.749144 0.0854398 0
M  V30 2949 H 291.772 -1.61251 0.875813 0
M  V30 2950 H 290.154 -3.94622 -0.330042 0
M  V30 2951 H 291.328 -3.85301 2.52745 0
M  V30 2952 H 289.643 -3.56601 2.15 0
M  V30 2953 H 292.24 -5.34698 0.0136842 0
M  V30 2954 H 292.583 -4.02261 -1.072 0
M  V30 2955 H 293.116 -3.92873 0.624181 0
M  V30 2956 H 289.855 -5.87781 2.90161 0
M  V30 2957 H 289.375 -5.87896 1.18903 0
M  V30 2958 H 291.054 -6.25658 1.64805 0
M  V30 2959 N 291.186 -0.45159 -1.50991 0
M  V30 2960 C 292.432 0.110237 -2.025 0
M  V30 2961 C 292.765 1.41109 -1.33424 0
M  V30 2962 O 292.04 1.89135 -0.453659 0
M  V30 2963 C 292.323 0.314271 -3.58726 0
M  V30 2964 C 292.176 -1.00623 -4.38401 0
M  V30 2965 C 293.495 1.07767 -4.26702 0
M  V30 2966 H 290.614 0.0385897 -0.735989 0
M  V30 2967 H 293.256 -0.593374 -1.80497 0
M  V30 2968 H 291.406 0.913601 -3.77605 0
M  V30 2969 H 293.078 -1.64064 -4.31139 0
M  V30 2970 H 291.321 -1.6075 -4.02917 0
M  V30 2971 H 291.992 -0.817341 -5.45915 0
M  V30 2972 H 294.468 0.56986 -4.12179 0
M  V30 2973 H 293.344 1.18921 -5.35863 0
M  V30 2974 H 293.605 2.10939 -3.88532 0
M  V30 2975 N 292.664 1.56529 -0.183458 0
M  V30 2976 C 293.596 2.15747 0.773697 0
M  V30 2977 C 294.609 1.1162 1.1851 0
M  V30 2978 O 295.798 1.3876 1.12285 0
M  V30 2979 C 292.898 2.6952 2.05456 0
M  V30 2980 C 292.071 3.98429 1.8048 0
M  V30 2981 C 291.13 4.37145 2.92901 0
M  V30 2982 O 290.156 5.04791 2.6301 0
M  V30 2983 N 291.358 3.99695 4.2098 0
M  V30 2984 H 294.123 2.98505 0.26736 0
M  V30 2985 H 291.684 1.619 -0.0010878 0
M  V30 2986 H 293.676 2.92412 2.79781 0
M  V30 2987 H 292.246 1.91282 2.47245 0
M  V30 2988 H 291.466 3.8379 0.899947 0
M  V30 2989 H 292.754 4.82597 1.61175 0
M  V30 2990 H 292.152 3.4526 4.48121 0
M  V30 2991 H 290.709 4.27562 4.9197 0
M  V30 2992 N 294.142 -0.090211 1.57342 0
M  V30 2993 C 295.052 -1.12735 2.05738 0
M  V30 2994 C 296.068 -1.43557 0.983231 0
M  V30 2995 O 297.244 -1.54101 1.29672 0
M  V30 2996 C 294.309 -2.42659 2.47624 0
M  V30 2997 C 293.37 -2.18975 3.69254 0
M  V30 2998 C 292.603 -3.42704 4.09133 0
M  V30 2999 O 292.826 -4.51127 3.49057 0
M  V30 3000 O 291.76 -3.32003 5.02053 0
M  V30 3001 H 295.586 -0.746279 2.94388 0
M  V30 3002 H 293.171 -0.303064 1.46294 0
M  V30 3003 H 295.053 -3.19155 2.7517 0
M  V30 3004 H 293.728 -2.80182 1.62109 0
M  V30 3005 H 292.635 -1.40244 3.46818 0
M  V30 3006 H 293.968 -1.86342 4.55563 0
M  V30 3007 N 295.62 -1.53406 -0.361157 0
M  V30 3008 C 296.568 -1.80832 -1.46296 0
M  V30 3009 C 297.562 -0.677699 -1.55253 0
M  V30 3010 O 298.768 -0.860723 -1.58087 0
M  V30 3011 H 295.143 -0.572627 -0.487445 0
M  V30 3012 H 297.114 -2.73045 -1.20371 0
M  V30 3013 C 295.863 -2.01907 -2.8307 0
M  V30 3014 H 295.186 -2.88349 -2.76938 0
M  V30 3015 H 296.626 -2.25072 -3.59331 0
M  V30 3016 C 295.085 -0.799449 -3.27277 0
M  V30 3017 O 295.615 0.00971761 -4.01699 0
M  V30 3018 N 293.821 -0.621637 -2.83873 0
M  V30 3019 H 293.368 -1.28126 -2.23476 0
M  V30 3020 H 293.326 0.19298 -3.13807 0
M  V30 3021 N 297.098 0.621204 -1.44841 0
M  V30 3022 C 298.046 1.75385 -1.52784 0
M  V30 3023 C 299.04 1.64639 -0.398779 0
M  V30 3024 O 300.246 1.70598 -0.574137 0
M  V30 3025 H 296.621 0.579193 -0.479625 0
M  V30 3026 H 298.592 1.6581 -2.48092 0
M  V30 3027 C 297.341 3.13742 -1.4987 0
M  V30 3028 H 296.664 3.22663 -2.36069 0
M  V30 3029 H 298.104 3.92861 -1.59487 0
M  V30 3030 C 296.563 3.36175 -0.220973 0
M  V30 3031 O 297.093 3.95469 0.704782 0
M  V30 3032 N 295.299 2.90348 -0.120963 0
M  V30 3033 H 294.846 2.42278 -0.875162 0
M  V30 3034 H 294.804 3.05732 0.733168 0
M  V30 3035 N 298.576 1.31904 0.862503 0
M  V30 3036 C 299.824 1.21776 1.61292 0
M  V30 3037 C 300.145 -0.222413 1.93727 0
M  V30 3038 O 299.415 -1.1451 1.58947 0
M  V30 3039 H 297.995 0.447717 0.597962 0
M  V30 3040 H 300.657 1.65326 1.03215 0
M  V30 3041 H 299.753 1.7948 2.5533 0
M  V30 3042 N 300.054 -1.07777 1.14986 0
M  V30 3043 C 301.017 -2.13041 0.845358 0
M  V30 3044 C 302.017 -1.60071 -0.152931 0
M  V30 3045 O 303.207 -1.74033 0.0761879 0
M  V30 3046 C 300.339 -3.39896 0.261383 0
M  V30 3047 H 301.532 -2.41485 1.77834 0
M  V30 3048 H 299.085 -1.23595 0.956757 0
M  V30 3049 H 299.82 -3.17091 -0.68 0
M  V30 3050 H 299.605 -3.79642 0.980514 0
M  V30 3051 H 301.095 -4.17548 0.0657687 0
M  V30 3052 N 301.532 -0.945985 -1.26051 0
M  V30 3053 C 302.778 -0.597002 -1.93814 0
M  V30 3054 C 303.111 0.862484 -1.73997 0
M  V30 3055 O 302.386 1.61769 -1.07986 0
M  V30 3056 C 302.669 -0.945937 -3.47454 0
M  V30 3057 C 302.522 -2.46052 -3.76535 0
M  V30 3058 C 303.841 -0.464785 -4.37639 0
M  V30 3059 H 300.96 -0.218366 -0.703907 0
M  V30 3060 H 303.602 -1.18107 -1.48831 0
M  V30 3061 H 301.752 -0.448902 -3.85898 0
M  V30 3062 H 303.424 -3.03065 -3.47778 0
M  V30 3063 H 301.667 -2.90194 -3.22444 0
M  V30 3064 H 302.338 -2.65517 -4.83947 0
M  V30 3065 H 304.814 -0.891016 -4.06448 0
M  V30 3066 H 303.69 -0.737712 -5.4392 0
M  V30 3067 H 303.951 0.635274 -4.37512 0
M  V30 3068 N 303.011 1.40521 -0.713556 0
M  V30 3069 C 304.241 2.0494 -0.261395 0
M  V30 3070 C 304.649 1.53861 1.10107 0
M  V30 3071 O 303.992 0.689321 1.70276 0
M  V30 3072 C 304.054 3.59138 -0.161227 0
M  V30 3073 C 303.718 4.33096 -1.45865 0
M  V30 3074 C 304.715 4.61182 -2.40016 0
M  V30 3075 C 302.4 4.72043 -1.71701 0
M  V30 3076 C 304.394 5.27196 -3.58251 0
M  V30 3077 C 302.081 5.37789 -2.90218 0
M  V30 3078 C 303.079 5.65295 -3.83315 0
M  V30 3079 O 302.767 6.29683 -4.99754 0
M  V30 3080 H 302.499 0.666041 -0.115608 0
M  V30 3081 H 305.053 1.80954 -0.971849 0
M  V30 3082 H 303.283 3.81936 0.605153 0
M  V30 3083 H 304.972 4.05091 0.256105 0
M  V30 3084 H 305.738 4.31559 -2.21318 0
M  V30 3085 H 301.617 4.50003 -1.00092 0
M  V30 3086 H 305.161 5.48582 -4.30934 0
M  V30 3087 H 301.058 5.66831 -3.08825 0
M  V30 3088 H 301.826 6.4818 -4.99805 0
M  V30 3089 N 304.489 0.459591 1.5075 0
M  V30 3090 C 305.717 -0.0973749 2.06671 0
M  V30 3091 C 306.132 -1.34524 1.32472 0
M  V30 3092 O 305.489 -1.7827 0.390634 0
M  V30 3093 C 305.54 -0.39714 3.59312 0
M  V30 3094 O 305.261 0.801214 4.30711 0
M  V30 3095 C 306.762 -1.00234 4.31819 0
M  V30 3096 H 303.982 0.00195854 0.670997 0
M  V30 3097 H 306.526 0.645072 1.94059 0
M  V30 3098 H 304.681 -1.08951 3.71764 0
M  V30 3099 H 305.095 0.538857 5.21725 0
M  V30 3100 H 306.569 -1.16193 5.39632 0
M  V30 3101 H 307.046 -1.98939 3.91561 0
M  V30 3102 H 307.652 -0.348699 4.23868 0
M  V30 3103 N 305.967 -1.56429 0.191757 0
M  V30 3104 C 306.877 -2.22541 -0.742481 0
M  V30 3105 C 307.893 -1.22342 -1.23727 0
M  V30 3106 O 309.069 -1.55069 -1.28513 0
M  V30 3107 C 306.134 -2.8692 -1.94623 0
M  V30 3108 C 305.195 -4.02378 -1.49633 0
M  V30 3109 C 304.428 -4.63678 -2.6427 0
M  V30 3110 O 304.651 -4.23895 -3.81666 0
M  V30 3111 O 303.585 -5.53202 -2.37174 0
M  V30 3112 H 307.411 -3.02977 -0.209462 0
M  V30 3113 H 304.996 -1.49353 -0.0373832 0
M  V30 3114 H 306.878 -3.27663 -2.64982 0
M  V30 3115 H 305.553 -2.09466 -2.46791 0
M  V30 3116 H 304.46 -3.66265 -0.761636 0
M  V30 3117 H 305.793 -4.81487 -1.02134 0
M  V30 3118 N 307.445 0.0818655 -1.57387 0
M  V30 3119 C 308.722 0.815343 -1.77796 0
M  V30 3120 C 309.102 1.96289 -0.77679 0
M  V30 3121 O 308.45 2.27691 0.192106 0
M  V30 3122 C 308.66 1.29765 -3.23978 0
M  V30 3123 C 310.008 1.7351 -3.8753 0
M  V30 3124 O 311.032 1.39356 -3.27808 0
M  V30 3125 O 309.891 2.36708 -4.92576 0
M  V30 3126 H 306.985 0.389914 -0.729312 0
M  V30 3127 H 309.531 0.0627213 -1.69584 0
M  V30 3128 H 308.303 0.47608 -3.88393 0
M  V30 3129 H 307.926 2.11189 -3.36875 0
M  V30 3130 N 308.923 1.53595 0.353017 0
M  V30 3131 C 310.148 1.7462 1.11904 0
M  V30 3132 C 310.573 0.479721 1.8188 0
M  V30 3133 O 309.931 -0.567066 1.72204 0
M  V30 3134 C 309.979 2.92029 2.11545 0
M  V30 3135 O 309.083 2.61516 3.18878 0
M  V30 3136 H 308.424 0.579531 0.324099 0
M  V30 3137 H 310.954 2.00525 0.406301 0
M  V30 3138 H 310.964 3.18551 2.5493 0
M  V30 3139 H 309.639 3.83888 1.60008 0
M  V30 3140 H 308.216 2.45852 2.80377 0
M  V30 3141 N 310.401 -0.613514 1.45168 0
M  V30 3142 C 311.631 -1.39743 1.52169 0
M  V30 3143 C 312.039 -1.88596 0.151086 0
M  V30 3144 O 311.382 -1.6251 -0.856521 0
M  V30 3145 C 311.444 -2.64035 2.43979 0
M  V30 3146 C 311.108 -2.36861 3.90827 0
M  V30 3147 C 312.105 -1.97591 4.80889 0
M  V30 3148 C 309.79 -2.49956 4.35692 0
M  V30 3149 C 311.784 -1.71768 6.1382 0
M  V30 3150 C 309.471 -2.23747 5.68665 0
M  V30 3151 C 310.469 -1.84714 6.57548 0
M  V30 3152 O 310.157 -1.58809 7.88058 0
M  V30 3153 H 309.889 -0.434382 0.517966 0
M  V30 3154 H 312.443 -0.75587 1.90986 0
M  V30 3155 H 310.673 -3.3089 2.00122 0
M  V30 3156 H 312.362 -3.26069 2.41731 0
M  V30 3157 H 313.128 -1.87015 4.47493 0
M  V30 3158 H 309.007 -2.79305 3.66756 0
M  V30 3159 H 312.551 -1.41227 6.83155 0
M  V30 3160 H 308.448 -2.33938 6.01617 0
M  V30 3161 H 309.216 -1.7291 8.00028 0
M  V30 3162 N 311.879 -1.3236 -0.855495 0
M  V30 3163 C 313.29 -1.2056 -1.42556 0
M  V30 3164 C 313.641 0.182209 -1.95352 0
M  V30 3165 O 312.766 1.08088 -1.87472 0
M  V30 3166 C 313.361 -2.1826 -2.59129 0
M  V30 3167 C 311.92 -2.10351 -3.12137 0
M  V30 3168 C 311.067 -2.06674 -1.84882 0
M  V30 3169 H 314.018 -1.442 -0.662727 0
M  V30 3170 H 314.039 -1.78064 -3.36264 0
M  V30 3171 H 313.551 -3.19257 -2.20673 0
M  V30 3172 H 311.652 -1.12599 -3.55179 0
M  V30 3173 H 311.765 -3.00135 -3.73438 0
M  V30 3174 H 310.129 -1.51901 -2.04446 0
M  V30 3175 H 310.912 -3.09451 -1.48643 0
M  V30 3176 N 313.357 1.07166 -1.15556 0
M  V30 3177 C 314.587 1.83248 -0.954133 0
M  V30 3178 C 314.995 1.82449 0.500911 0
M  V30 3179 O 314.338 1.23575 1.35923 0
M  V30 3180 C 314.4 3.31393 -1.39351 0
M  V30 3181 C 314.064 3.5591 -2.86666 0
M  V30 3182 C 315.061 3.49695 -3.8472 0
M  V30 3183 C 312.746 3.83515 -3.24379 0
M  V30 3184 C 314.74 3.70737 -5.18491 0
M  V30 3185 C 312.427 4.04209 -4.58321 0
M  V30 3186 C 313.425 3.97815 -5.55186 0
M  V30 3187 O 313.113 4.17954 -6.86709 0
M  V30 3188 H 312.845 0.584941 -0.338851 0
M  V30 3189 H 315.399 1.36169 -1.53777 0
M  V30 3190 H 313.629 3.79292 -0.75329 0
M  V30 3191 H 315.318 3.88945 -1.16089 0
M  V30 3192 H 316.084 3.28368 -3.56931 0
M  V30 3193 H 311.963 3.87605 -2.49567 0
M  V30 3194 H 315.507 3.65663 -5.94085 0
M  V30 3195 H 311.404 4.25023 -4.85825 0
M  V30 3196 H 312.172 4.35291 -6.93155 0
M  V30 3197 N 314.835 0.952656 1.25548 0
M  V30 3198 C 315.798 0.475794 2.24207 0
M  V30 3199 C 316.798 -0.419428 1.55234 0
M  V30 3200 O 317.988 -0.216994 1.72843 0
M  V30 3201 C 315.12 -0.312814 3.39462 0
M  V30 3202 H 316.313 1.34779 2.67908 0
M  V30 3203 H 313.866 0.735739 1.37901 0
M  V30 3204 H 314.601 -1.20257 3.01179 0
M  V30 3205 H 314.386 0.329404 3.90714 0
M  V30 3206 H 315.876 -0.635986 4.12729 0
M  V30 3207 N 316.313 -1.40141 0.720998 0
M  V30 3208 C 317.538 -2.05618 0.271258 0
M  V30 3209 C 317.963 -1.53978 -1.08039 0
M  V30 3210 O 317.321 -0.677463 -1.68167 0
M  V30 3211 C 317.369 -3.59609 0.267197 0
M  V30 3212 O 316.473 -4.05526 -0.749814 0
M  V30 3213 H 315.814 -0.651904 0.126162 0
M  V30 3214 H 318.344 -1.79439 0.982997 0
M  V30 3215 H 318.354 -4.0786 0.106744 0
M  V30 3216 H 317.029 -3.96559 1.25354 0
M  V30 3217 H 315.606 -3.68722 -0.556644 0
M  V30 3218 N 317.792 -0.46758 -1.50504 0
M  V30 3219 C 319.04 0.0884469 -2.01906 0
M  V30 3220 C 319.361 1.40532 -1.35188 0
M  V30 3221 O 318.631 1.89515 -0.496079 0
M  V30 3222 H 317.211 0.0356765 -0.746148 0
M  V30 3223 H 319.873 -0.6172 -1.84869 0
M  V30 3224 H 318.969 0.2425 -3.11156 0
M  V30 3225 N 319.27 1.56325 -0.20005 0
M  V30 3226 C 320.18 2.22931 0.730668 0
M  V30 3227 C 321.196 1.22997 1.23076 0
M  V30 3228 O 322.372 1.55748 1.27689 0
M  V30 3229 C 319.437 2.87948 1.93098 0
M  V30 3230 C 318.498 4.03166 1.47497 0
M  V30 3231 C 317.731 4.65073 2.61807 0
M  V30 3232 O 317.954 4.25913 3.79413 0
M  V30 3233 O 316.888 5.54452 2.34237 0
M  V30 3234 H 320.714 3.03084 0.193391 0
M  V30 3235 H 318.299 1.49371 0.0294621 0
M  V30 3236 H 320.181 3.29063 2.6324 0
M  V30 3237 H 318.856 2.10771 2.45677 0
M  V30 3238 H 317.763 3.66664 0.742201 0
M  V30 3239 H 319.096 4.82022 0.995796 0
M  V30 3240 N 320.748 -0.0735177 1.57428 0
M  V30 3241 C 321.996 -0.771472 1.86796 0
M  V30 3242 C 322.317 -1.78201 0.791804 0
M  V30 3243 O 321.587 -1.95074 -0.179718 0
M  V30 3244 H 320.167 -0.28791 0.689287 0
M  V30 3245 H 322.829 -0.0500161 1.94836 0
M  V30 3246 H 321.925 -1.28874 2.8425 0
M  V30 3247 N 322.226 -1.5378 -0.344866 0
M  V30 3248 C 323.475 -1.7018 -1.08267 0
M  V30 3249 C 323.788 -0.471 -1.89845 0
M  V30 3250 O 324.994 -0.515917 -2.66553 0
M  V30 3251 C 323.45 -3.00923 -1.97417 0
M  V30 3252 C 323.058 -4.31335 -1.21053 0
M  V30 3253 C 324.802 -3.26688 -2.71063 0
M  V30 3254 C 322.709 -5.53153 -2.09225 0
M  V30 3255 H 321.639 -0.634138 -0.407903 0
M  V30 3256 H 324.29 -1.8028 -0.342246 0
M  V30 3257 H 322.672 -2.84676 -2.75274 0
M  V30 3258 H 323.846 -4.58281 -0.481159 0
M  V30 3259 H 322.161 -4.12173 -0.591813 0
M  V30 3260 H 324.758 -4.1489 -3.37299 0
M  V30 3261 H 325.101 -2.43639 -3.37558 0
M  V30 3262 H 325.634 -3.43705 -2.0028 0
M  V30 3263 H 322.373 -6.38741 -1.47274 0
M  V30 3264 H 321.893 -5.30458 -2.79955 0
M  V30 3265 H 323.572 -5.88744 -2.68308 0
M  V30 3266 N 323.704 0.605807 -1.45491 0
M  V30 3267 C 324.929 1.39625 -1.53361 0
M  V30 3268 C 325.354 1.87351 -0.167645 0
M  V30 3269 O 324.712 1.60243 0.848051 0
M  V30 3270 C 324.76 2.57559 -2.5238 0
M  V30 3271 O 323.864 3.58248 -2.04285 0
M  V30 3272 H 323.205 0.416771 -0.516912 0
M  V30 3273 H 325.735 0.737103 -1.90861 0
M  V30 3274 H 325.745 3.0478 -2.71244 0
M  V30 3275 H 324.42 2.22171 -3.51586 0
M  V30 3276 H 322.997 3.17664 -1.95305 0
M  V30 3277 N 325.182 1.32811 0.848464 0
M  V30 3278 C 326.593 1.21315 1.41914 0
M  V30 3279 C 326.944 -0.171847 1.95446 0
M  V30 3280 O 326.069 -1.07093 1.88043 0
M  V30 3281 C 326.664 2.19631 2.57968 0
M  V30 3282 C 325.223 2.12003 3.11017 0
M  V30 3283 C 324.37 2.07651 1.83783 0
M  V30 3284 H 327.321 1.44549 0.655071 0
M  V30 3285 H 327.342 1.79845 3.35315 0
M  V30 3286 H 326.854 3.20423 2.18976 0
M  V30 3287 H 324.955 1.14481 3.54577 0
M  V30 3288 H 325.068 3.02111 3.71841 0
M  V30 3289 H 323.432 1.52983 2.03638 0
M  V30 3290 H 324.215 3.10235 1.47 0
M  V30 3291 N 326.66 -1.06551 1.16123 0
M  V30 3292 C 328.071 -1.60768 0.949232 0
M  V30 3293 C 328.422 -1.89523 -0.507508 0
M  V30 3294 O 327.547 -1.66671 -1.38021 0
M  V30 3295 C 328.142 -2.92086 1.71671 0
M  V30 3296 C 326.701 -3.43015 1.54977 0
M  V30 3297 C 325.848 -2.16947 1.72711 0
M  V30 3298 H 328.799 -0.895354 1.31031 0
M  V30 3299 H 328.82 -3.6138 1.19099 0
M  V30 3300 H 328.332 -2.71127 2.7769 0
M  V30 3301 H 326.433 -3.69039 0.513873 0
M  V30 3302 H 326.546 -4.18516 2.33198 0
M  V30 3303 H 324.91 -2.27041 1.15431 0
M  V30 3304 H 325.693 -1.98473 2.80113 0
M  V30 3305 N 328.138 -0.959301 -1.25041 0
M  V30 3306 C 329.378 -0.624343 -1.94631 0
M  V30 3307 C 329.742 0.82403 -1.73418 0
M  V30 3308 O 330.943 1.26881 -2.3697 0
M  V30 3309 C 329.214 -0.978805 -3.43736 0
M  V30 3310 S 330.773 -0.757127 -4.32219 0
M  V30 3311 H 327.591 -0.229327 -0.673001 0
M  V30 3312 H 330.193 -1.23447 -1.51595 0
M  V30 3313 H 328.897 -2.02997 -3.56679 0
M  V30 3314 H 328.428 -0.359117 -3.91757 0
M  V30 3315 H 330.443 0.369759 -4.9482 0
M  V30 3316 N 329.616 1.39756 -0.72842 0
M  V30 3317 C 330.844 2.04948 -0.283528 0
M  V30 3318 C 331.259 1.54908 1.0793 0
M  V30 3319 O 330.616 0.711135 1.68075 0
M  V30 3320 C 330.667 3.60498 -0.268957 0
M  V30 3321 O 330.388 4.08695 -1.57798 0
M  V30 3322 C 331.889 4.4288 0.192912 0
M  V30 3323 H 329.109 0.659243 -0.125056 0
M  V30 3324 H 331.653 1.78927 -0.990226 0
M  V30 3325 H 329.808 3.85444 0.388801 0
M  V30 3326 H 330.222 5.02977 -1.48709 0
M  V30 3327 H 331.696 5.51791 0.151952 0
M  V30 3328 H 332.173 4.21418 1.23708 0
M  V30 3329 H 332.779 4.23069 -0.435039 0
M  V30 3330 N 331.094 0.475555 1.50254 0
M  V30 3331 C 332.322 -0.0754493 2.06762 0
M  V30 3332 C 332.737 -1.33111 1.33891 0
M  V30 3333 O 332.094 -1.77846 0.40952 0
M  V30 3334 C 332.145 -0.359008 3.59713 0
M  V30 3335 O 331.866 0.846851 4.29837 0
M  V30 3336 C 333.367 -0.956484 4.32858 0
M  V30 3337 H 330.587 0.00907525 0.670939 0
M  V30 3338 H 333.131 0.665618 1.93364 0
M  V30 3339 H 331.286 -1.05001 3.72899 0
M  V30 3340 H 331.7 0.594162 5.21124 0
M  V30 3341 H 333.174 -1.10463 5.40834 0
M  V30 3342 H 333.651 -1.94775 3.93649 0
M  V30 3343 H 334.257 -0.303723 4.24214 0
M  V30 3344 N 332.573 -1.56217 0.208337 0
M  V30 3345 C 333.798 -2.02782 -0.435222 0
M  V30 3346 C 334.223 -1.08738 -1.53485 0
M  V30 3347 O 333.581 -0.0731855 -1.81152 0
M  V30 3348 C 333.629 -3.47687 -0.956335 0
M  V30 3349 O 332.733 -3.56773 -2.06849 0
M  V30 3350 H 332.074 -0.656403 -0.100158 0
M  V30 3351 H 334.604 -2.02033 0.3231 0
M  V30 3352 H 334.614 -3.87745 -1.26955 0
M  V30 3353 H 333.289 -4.15624 -0.15143 0
M  V30 3354 H 331.866 -3.28597 -1.76292 0
M  V30 3355 N 334.051 0.0651679 -1.57465 0
M  V30 3356 C 335.299 0.761555 -1.87202 0
M  V30 3357 C 335.62 1.77778 -0.801243 0
M  V30 3358 O 334.89 1.95166 0.16937 0
M  V30 3359 H 333.47 0.284251 -0.690804 0
M  V30 3360 H 336.132 0.0396827 -1.9486 0
M  V30 3361 H 335.228 1.27365 -2.84929 0
M  V30 3362 N 335.529 1.53961 0.336706 0
M  V30 3363 C 336.479 1.7881 1.41461 0
M  V30 3364 C 337.463 0.643561 1.47469 0
M  V30 3365 O 338.655 0.903166 1.52223 0
M  V30 3366 C 335.784 2.00722 2.78506 0
M  V30 3367 C 334.87 3.2126 2.76862 0
M  V30 3368 N 335.261 4.42588 2.44845 0
M  V30 3369 C 333.559 3.22568 3.08004 0
M  V30 3370 C 334.26 5.2447 2.51607 0
M  V30 3371 N 333.236 4.61344 2.87511 0
M  V30 3372 H 337.038 2.70205 1.15615 0
M  V30 3373 H 334.552 1.52978 0.545112 0
M  V30 3374 H 336.549 2.1666 3.5618 0
M  V30 3375 H 335.209 1.10573 3.05293 0
M  V30 3376 H 336.22 4.69819 2.17922 0
M  V30 3377 H 332.897 2.42409 3.39918 0
M  V30 3378 H 334.287 6.31324 2.29955 0
M  V30 3379 N 337.007 -0.598083 1.45811 0
M  V30 3380 C 338.235 -1.38322 1.53866 0
M  V30 3381 C 338.65 -1.87992 0.174479 0
M  V30 3382 O 338.007 -1.62756 -0.825627 0
M  V30 3383 C 338.058 -2.58125 2.53089 0
M  V30 3384 O 337.779 -2.10516 3.84206 0
M  V30 3385 C 339.28 -3.50869 2.70935 0
M  V30 3386 H 336.5 -0.423093 0.520801 0
M  V30 3387 H 339.044 -0.728527 1.91083 0
M  V30 3388 H 337.199 -3.19615 2.18917 0
M  V30 3389 H 337.613 -2.88425 4.38077 0
M  V30 3390 H 339.087 -4.31451 3.44317 0
M  V30 3391 H 339.564 -4.01822 1.77301 0
M  V30 3392 H 340.17 -2.95225 3.06141 0
M  V30 3393 N 338.485 -1.33259 -0.841409 0
M  V30 3394 C 339.731 -1.24757 -1.59886 0
M  V30 3395 C 340.064 0.186913 -1.93298 0
M  V30 3396 O 339.339 1.12757 -1.5848 0
M  V30 3397 C 339.622 -2.12036 -2.91055 0
M  V30 3398 C 339.475 -3.63929 -2.6434 0
M  V30 3399 C 340.794 -1.9916 -3.92458 0
M  V30 3400 H 337.913 -0.454542 -0.580138 0
M  V30 3401 H 340.555 -1.63335 -0.970647 0
M  V30 3402 H 338.705 -1.79265 -3.44669 0
M  V30 3403 H 340.377 -4.06978 -2.17178 0
M  V30 3404 H 338.62 -3.85935 -1.98082 0
M  V30 3405 H 339.291 -4.20341 -3.57796 0
M  V30 3406 H 341.767 -2.27895 -3.48143 0
M  V30 3407 H 340.643 -2.62484 -4.82072 0
M  V30 3408 H 340.904 -0.963082 -4.31482 0
M  V30 3409 N 339.963 1.05934 -1.16686 0
M  V30 3410 C 341.211 1.78447 -0.948744 0
M  V30 3411 C 341.532 1.87813 0.524523 0
M  V30 3412 O 340.802 1.38945 1.38098 0
M  V30 3413 H 339.382 0.660971 -0.348033 0
M  V30 3414 H 342.044 1.27947 -1.47022 0
M  V30 3415 H 341.14 2.80394 -1.37061 0
M  V30 3416 N 341.441 0.965919 1.2453 0
M  V30 3417 C 342.404 0.499547 2.2369 0
M  V30 3418 C 343.404 -0.40294 1.5567 0
M  V30 3419 O 344.594 -0.19865 1.73064 0
M  V30 3420 C 341.726 -0.276792 3.39774 0
M  V30 3421 H 342.919 1.37613 2.66463 0
M  V30 3422 H 340.472 0.750324 1.37112 0
M  V30 3423 H 341.207 -1.17055 3.02438 0
M  V30 3424 H 340.992 0.370826 3.90343 0
M  V30 3425 H 342.482 -0.592175 4.1338 0
M  V30 3426 N 342.919 -1.39368 0.735821 0
M  V30 3427 C 344.147 -2.04795 0.294393 0
M  V30 3428 C 344.562 -1.55478 -1.07107 0
M  V30 3429 O 343.919 -0.720038 -1.67695 0
M  V30 3430 C 343.97 -3.6035 0.288071 0
M  V30 3431 O 343.691 -4.07852 1.59963 0
M  V30 3432 C 345.192 -4.42976 -0.169422 0
M  V30 3433 H 342.412 -0.658571 0.128551 0
M  V30 3434 H 344.956 -1.78399 0.999701 0
M  V30 3435 H 343.111 -3.85645 -0.368355 0
M  V30 3436 H 343.525 -5.02181 1.51375 0
M  V30 3437 H 344.999 -5.51864 -0.122687 0
M  V30 3438 H 345.476 -4.22068 -1.21472 0
M  V30 3439 H 346.082 -4.22832 0.457469 0
M  V30 3440 N 344.397 -0.483516 -1.5 0
M  V30 3441 C 345.646 0.0689102 -2.01582 0
M  V30 3442 C 345.959 1.39655 -1.36952 0
M  V30 3443 O 347.165 2.03465 -1.79762 0
M  V30 3444 C 345.621 0.173302 -3.59483 0
M  V30 3445 C 345.229 -1.14665 -4.33077 0
M  V30 3446 C 346.973 0.677024 -4.19066 0
M  V30 3447 C 344.88 -1.00537 -5.82792 0
M  V30 3448 H 343.81 0.0295277 -0.753422 0
M  V30 3449 H 346.461 -0.620295 -1.72698 0
M  V30 3450 H 344.843 0.926569 -3.85007 0
M  V30 3451 H 346.017 -1.91184 -4.19268 0
M  V30 3452 H 344.332 -1.58244 -3.85159 0
M  V30 3453 H 346.929 0.799952 -5.28682 0
M  V30 3454 H 347.272 1.67151 -3.81269 0
M  V30 3455 H 347.805 -0.0192083 -3.97795 0
M  V30 3456 H 344.544 -1.9736 -6.25083 0
M  V30 3457 H 344.064 -0.280776 -5.99142 0
M  V30 3458 H 345.743 -0.677 -6.43448 0
M  V30 3459 N 345.875 1.56104 -0.216619 0
M  V30 3460 C 347.103 2.02563 0.421413 0
M  V30 3461 C 347.518 1.0965 1.53695 0
M  V30 3462 O 346.875 0.10521 1.82196 0
M  V30 3463 C 346.926 3.48584 0.957665 0
M  V30 3464 O 346.647 4.37953 -0.113389 0
M  V30 3465 C 348.148 4.10664 1.66943 0
M  V30 3466 H 345.368 0.662944 0.103665 0
M  V30 3467 H 347.912 2.01793 -0.331629 0
M  V30 3468 H 346.067 3.49985 1.661 0
M  V30 3469 H 346.481 5.23704 0.288932 0
M  V30 3470 H 347.955 5.14622 1.99671 0
M  V30 3471 H 348.432 3.55373 2.58083 0
M  V30 3472 H 349.038 4.13098 1.01142 0
M  V30 3473 N 347.353 -0.0568162 1.57498 0
M  V30 3474 C 348.601 -0.751617 1.87604 0
M  V30 3475 C 348.922 -1.77351 0.81066 0
M  V30 3476 O 348.192 -1.95254 -0.159018 0
M  V30 3477 H 346.772 -0.280583 0.692302 0
M  V30 3478 H 349.434 -0.0293483 1.94878 0
M  V30 3479 H 348.53 -1.25852 2.856 0
M  V30 3480 N 348.832 -1.54138 -0.328536 0
M  V30 3481 C 349.782 -1.79557 -1.4051 0
M  V30 3482 C 350.766 -0.651373 -1.47126 0
M  V30 3483 O 351.958 -0.911226 -1.51742 0
M  V30 3484 C 349.087 -2.02196 -2.77438 0
M  V30 3485 C 348.173 -3.22724 -2.75155 0
M  V30 3486 N 348.564 -4.43881 -2.42494 0
M  V30 3487 C 346.862 -3.24196 -3.06289 0
M  V30 3488 C 347.563 -5.25797 -2.48822 0
M  V30 3489 N 346.539 -4.62862 -2.8506 0
M  V30 3490 H 350.341 -2.70814 -1.1418 0
M  V30 3491 H 347.855 -1.53265 -0.536991 0
M  V30 3492 H 349.852 -2.18546 -3.55026 0
M  V30 3493 H 348.512 -1.12191 -3.04702 0
M  V30 3494 H 349.523 -4.70969 -2.15428 0
M  V30 3495 H 346.2 -2.44208 -3.38627 0
M  V30 3496 H 347.59 -6.32535 -2.26603 0
M  V30 3497 N 350.31 0.590341 -1.46126 0
M  V30 3498 C 351.556 1.35082 -1.51264 0
M  V30 3499 C 351.889 1.93534 -0.160711 0
M  V30 3500 O 351.164 1.76045 0.826956 0
M  V30 3501 C 351.447 2.48588 -2.6053 0
M  V30 3502 C 351.3 1.95221 -4.05227 0
M  V30 3503 C 352.619 3.50662 -2.6594 0
M  V30 3504 H 349.738 0.489803 -0.550692 0
M  V30 3505 H 352.38 0.663887 -1.78024 0
M  V30 3506 H 350.53 3.07186 -2.37843 0
M  V30 3507 H 352.202 1.41139 -4.39178 0
M  V30 3508 H 350.445 1.26101 -4.15068 0
M  V30 3509 H 351.116 2.77121 -4.77397 0
M  V30 3510 H 353.592 3.01934 -2.86313 0
M  V30 3511 H 352.468 4.27551 -3.44226 0
M  V30 3512 H 352.729 4.07399 -1.71694 0
M  V30 3513 N 351.788 1.33704 0.83433 0
M  V30 3514 C 352.698 1.26382 1.97648 0
M  V30 3515 C 353.714 0.173548 1.73132 0
M  V30 3516 O 354.89 0.397962 1.97429 0
M  V30 3517 C 351.955 1.00769 3.31733 0
M  V30 3518 C 351.016 2.1884 3.69334 0
M  V30 3519 C 350.249 1.9444 4.9702 0
M  V30 3520 O 350.472 0.896961 5.63303 0
M  V30 3521 O 349.406 2.81093 5.32231 0
M  V30 3522 H 353.232 2.22444 2.06767 0
M  V30 3523 H 350.817 1.13795 0.968037 0
M  V30 3524 H 352.699 0.882186 4.12062 0
M  V30 3525 H 351.374 0.0773783 3.23608 0
M  V30 3526 H 350.281 2.36946 2.89495 0
M  V30 3527 H 351.614 3.10221 3.82131 0
M  V30 3528 N 353.266 -1.05314 1.17247 0
M  V30 3529 C 354.196 -2.1498 0.911362 0
M  V30 3530 C 355.177 -1.69471 -0.146169 0
M  V30 3531 O 356.362 -1.942 0.003812 0
M  V30 3532 C 353.492 -3.4472 0.422528 0
M  V30 3533 C 352.446 -4.03789 1.4191 0
M  V30 3534 C 351.772 -5.28858 0.788274 0
M  V30 3535 C 353.072 -4.41418 2.7919 0
M  V30 3536 H 354.766 -2.3708 1.82848 0
M  V30 3537 H 352.312 -1.13938 0.880569 0
M  V30 3538 H 354.265 -4.20787 0.227289 0
M  V30 3539 H 352.989 -3.22269 -0.530123 0
M  V30 3540 H 351.648 -3.2979 1.60106 0
M  V30 3541 H 351.296 -5.02709 -0.171173 0
M  V30 3542 H 350.996 -5.69338 1.45353 0
M  V30 3543 H 352.52 -6.07612 0.603282 0
M  V30 3544 H 353.934 -5.08524 2.64719 0
M  V30 3545 H 352.331 -4.92913 3.42282 0
M  V30 3546 H 353.401 -3.51819 3.33693 0
M  V30 3547 N 354.744 -0.972509 -1.24016 0
M  V30 3548 C 356.155 -0.67517 -1.74064 0
M  V30 3549 C 356.506 0.808939 -1.78747 0
M  V30 3550 O 355.631 1.63286 -1.42009 0
M  V30 3551 C 356.226 -1.21889 -3.16115 0
M  V30 3552 C 354.785 -0.971358 -3.6365 0
M  V30 3553 C 353.932 -1.35134 -2.42145 0
M  V30 3554 H 356.883 -1.14727 -1.09651 0
M  V30 3555 H 356.904 -0.587489 -3.75937 0
M  V30 3556 H 356.416 -2.29906 -3.12674 0
M  V30 3557 H 354.517 0.0930686 -3.72484 0
M  V30 3558 H 354.63 -1.62039 -4.50866 0
M  V30 3559 H 352.994 -0.769751 -2.4279 0
M  V30 3560 H 353.777 -2.4411 -2.41381 0
M  V30 3561 N 356.222 1.38976 -0.743202 0
M  V30 3562 C 357.154 2.29096 -0.0689228 0
M  V30 3563 C 358.167 1.47229 0.694791 0
M  V30 3564 O 359.356 1.70212 0.537597 0
M  V30 3565 C 356.456 3.25988 0.926548 0
M  V30 3566 C 355.629 4.36833 0.222647 0
M  V30 3567 C 354.688 5.13981 1.12739 0
M  V30 3568 O 353.714 5.6601 0.601795 0
M  V30 3569 N 354.916 5.25966 2.45641 0
M  V30 3570 H 357.681 2.87604 -0.842846 0
M  V30 3571 H 355.242 1.50645 -0.593109 0
M  V30 3572 H 357.234 3.74476 1.5346 0
M  V30 3573 H 355.804 2.68453 1.60162 0
M  V30 3574 H 355.024 3.90116 -0.565983 0
M  V30 3575 H 356.312 5.0811 -0.264841 0
M  V30 3576 H 355.71 4.85228 2.9081 0
M  V30 3577 H 354.267 5.77865 3.01522 0
M  V30 3578 N 357.7 0.491464 1.49741 0
M  V30 3579 C 358.977 -0.118984 1.95238 0
M  V30 3580 C 359.357 -1.55044 1.43264 0
M  V30 3581 O 358.705 -2.19287 0.642287 0
M  V30 3582 C 358.915 -0.0414187 3.48975 0
M  V30 3583 C 360.263 -0.220133 4.24029 0
M  V30 3584 O 361.287 -0.117055 3.56008 0
M  V30 3585 O 360.146 -0.430567 5.44801 0
M  V30 3586 H 357.24 -0.100536 0.820866 0
M  V30 3587 H 359.786 0.553322 1.60426 0
M  V30 3588 H 358.558 0.957214 3.79412 0
M  V30 3589 H 358.181 -0.754292 3.9038 0
M  V30 3590 N 359.178 -1.55987 0.224894 0
M  V30 3591 C 360.088 -2.24066 -0.69511 0
M  V30 3592 C 361.104 -1.24939 -1.21104 0
M  V30 3593 O 362.28 -1.5776 -1.25195 0
M  V30 3594 C 359.345 -2.90983 -1.88493 0
M  V30 3595 C 358.406 -4.05462 -1.41064 0
M  V30 3596 C 357.639 -4.69179 -2.54375 0
M  V30 3597 O 357.862 -4.31895 -3.72589 0
M  V30 3598 O 356.796 -5.58108 -2.25386 0
M  V30 3599 H 360.622 -3.03353 -0.145149 0
M  V30 3600 H 358.207 -1.49399 -0.00569476 0
M  V30 3601 H 360.089 -3.33209 -2.57972 0
M  V30 3602 H 358.764 -2.14653 -2.42293 0
M  V30 3603 H 357.671 -3.67798 -0.683774 0
M  V30 3604 H 359.004 -4.83545 -0.918985 0
M  V30 3605 N 360.656 0.0484629 -1.57525 0
M  V30 3606 C 361.619 1.03956 -2.04269 0
M  V30 3607 C 362.619 1.30211 -0.943496 0
M  V30 3608 O 363.809 1.25539 -1.20771 0
M  V30 3609 C 360.941 2.37742 -2.44319 0
M  V30 3610 H 362.134 0.636182 -2.93075 0
M  V30 3611 H 359.687 0.294811 -1.53494 0
M  V30 3612 H 360.422 2.82866 -1.5861 0
M  V30 3613 H 360.207 2.20021 -3.24551 0
M  V30 3614 H 361.697 3.08936 -2.80978 0
M  V30 3615 N 362.134 1.5431 0.320358 0
M  V30 3616 C 363.066 1.80262 1.41556 0
M  V30 3617 C 364.079 0.684723 1.477 0
M  V30 3618 O 365.268 0.961886 1.50366 0
M  V30 3619 C 362.368 1.90825 2.8007 0
M  V30 3620 C 361.541 3.21023 2.97091 0
M  V30 3621 C 360.6 3.22247 4.15985 0
M  V30 3622 O 359.626 3.95871 4.08992 0
M  V30 3623 N 360.828 2.46258 5.25678 0
M  V30 3624 H 363.593 2.74778 1.19655 0
M  V30 3625 H 361.154 1.53646 0.510358 0
M  V30 3626 H 363.146 1.89067 3.57821 0
M  V30 3627 H 361.716 1.03392 2.95006 0
M  V30 3628 H 360.936 3.35715 2.06614 0
M  V30 3629 H 362.224 4.0698 3.05361 0
M  V30 3630 H 361.622 1.86037 5.34235 0
M  V30 3631 H 360.179 2.50275 6.01835 0
M  V30 3632 N 363.613 -0.582584 1.46437 0
M  V30 3633 C 364.862 -1.337 1.5102 0
M  V30 3634 C 365.175 -1.94891 0.166359 0
M  V30 3635 O 366.381 -2.71351 0.0899954 0
M  V30 3636 C 364.837 -2.42315 2.66104 0
M  V30 3637 C 364.445 -1.87427 4.06909 0
M  V30 3638 C 366.189 -3.19099 2.79958 0
M  V30 3639 C 364.096 -2.93672 5.13333 0
M  V30 3640 H 363.026 -0.502619 0.562041 0
M  V30 3641 H 365.677 -0.621701 1.72647 0
M  V30 3642 H 364.059 -3.16645 2.37807 0
M  V30 3643 H 365.233 -1.19639 4.44998 0
M  V30 3644 H 363.548 -1.2331 3.97723 0
M  V30 3645 H 366.145 -3.9839 3.56636 0
M  V30 3646 H 366.488 -3.71695 1.87479 0
M  V30 3647 H 367.021 -2.51875 3.07902 0
M  V30 3648 H 363.76 -2.45962 6.07604 0
M  V30 3649 H 363.28 -3.59948 4.79789 0
M  V30 3650 H 364.959 -3.5762 5.39182 0
M  V30 3651 N 365.091 -1.34144 -0.827227 0
M  V30 3652 C 366.054 -1.25264 -1.91942 0
M  V30 3653 C 367.054 -0.168866 -1.59911 0
M  V30 3654 O 368.244 -0.421198 -1.69031 0
M  V30 3655 C 365.376 -0.932952 -3.27885 0
M  V30 3656 H 366.569 -2.22357 -2.0124 0
M  V30 3657 H 364.122 -1.1837 -1.0207 0
M  V30 3658 H 364.857 0.0349917 -3.24281 0
M  V30 3659 H 364.642 -1.71682 -3.52516 0
M  V30 3660 H 366.132 -0.895874 -4.07877 0
M  V30 3661 N 366.569 1.04691 -1.17803 0
M  V30 3662 C 367.532 2.10724 -0.901545 0
M  V30 3663 C 368.532 1.6042 0.110437 0
M  V30 3664 O 369.722 1.7377 -0.122303 0
M  V30 3665 C 366.854 3.39084 -0.351409 0
M  V30 3666 H 368.047 2.36686 -1.84174 0
M  V30 3667 H 365.6 1.21015 -0.98919 0
M  V30 3668 H 366.335 3.18782 0.59569 0
M  V30 3669 H 366.12 3.76909 -1.08083 0
M  V30 3670 H 367.61 4.17227 -0.176451 0
M  V30 3671 N 368.047 0.979072 1.23499 0
M  V30 3672 C 369.293 0.6578 1.9247 0
M  V30 3673 C 369.648 -0.799746 1.74991 0
M  V30 3674 O 368.941 -1.56922 1.09937 0
M  V30 3675 C 369.135 0.981932 3.43646 0
M  V30 3676 C 368.964 2.46944 3.75831 0
M  V30 3677 C 367.734 3.13119 3.96591 0
M  V30 3678 C 369.932 3.45006 3.81412 0
M  V30 3679 N 367.914 4.51489 4.15969 0
M  V30 3680 C 369.285 4.68778 4.05768 0
M  V30 3681 C 371.34 3.39505 3.64198 0
M  V30 3682 C 370.043 5.87723 4.14697 0
M  V30 3683 C 372.069 4.57814 3.7438 0
M  V30 3684 C 371.431 5.80381 3.99171 0
M  V30 3685 H 367.53 0.291746 0.72554 0
M  V30 3686 H 370.114 1.25626 1.48749 0
M  V30 3687 H 368.285 0.412179 3.86207 0
M  V30 3688 H 370.017 0.618068 3.99953 0
M  V30 3689 H 366.772 2.63619 3.93449 0
M  V30 3690 H 367.196 5.23221 4.29615 0
M  V30 3691 H 371.838 2.45773 3.44029 0
M  V30 3692 H 369.556 6.81874 4.33675 0
M  V30 3693 H 373.142 4.55132 3.62417 0
M  V30 3694 H 372.022 6.70398 4.06861 0
M  V30 3695 N 369.525 -1.3858 0.750561 0
M  V30 3696 C 370.455 -2.33102 0.136237 0
M  V30 3697 C 371.436 -1.54713 -0.706965 0
M  V30 3698 O 372.621 -1.83043 -0.648769 0
M  V30 3699 C 369.751 -3.38882 -0.760017 0
M  V30 3700 C 368.705 -4.27995 -0.0197785 0
M  V30 3701 C 368.031 -5.24605 -1.03408 0
M  V30 3702 C 369.331 -5.09554 1.14684 0
M  V30 3703 H 371.025 -2.84726 0.925822 0
M  V30 3704 H 368.571 -1.36898 0.446654 0
M  V30 3705 H 370.524 -4.0397 -1.19943 0
M  V30 3706 H 369.248 -2.85734 -1.58189 0
M  V30 3707 H 367.907 -3.64409 0.400184 0
M  V30 3708 H 367.555 -4.67746 -1.84994 0
M  V30 3709 H 367.255 -5.85081 -0.543464 0
M  V30 3710 H 368.779 -5.9257 -1.47288 0
M  V30 3711 H 370.193 -5.67899 0.785118 0
M  V30 3712 H 368.59 -5.7925 1.56812 0
M  V30 3713 H 369.66 -4.4347 1.96118 0
M  V30 3714 N 371.003 -0.499398 -1.49478 0
M  V30 3715 C 371.966 0.268838 -2.27618 0
M  V30 3716 C 372.966 0.895383 -1.33565 0
M  V30 3717 O 374.156 0.760164 -1.56739 0
M  V30 3718 C 371.288 1.38559 -3.11471 0
M  V30 3719 H 372.481 -0.416812 -2.96989 0
M  V30 3720 H 370.034 -0.254313 -1.54217 0
M  V30 3721 H 370.769 2.10544 -2.46661 0
M  V30 3722 H 370.554 0.941797 -3.80621 0
M  V30 3723 H 372.044 1.92678 -3.70493 0
M  V30 3724 N 372.481 1.55866 -0.233164 0
M  V30 3725 C 373.727 1.98897 0.395959 0
M  V30 3726 C 374.06 1.12091 1.58585 0
M  V30 3727 O 373.335 0.181182 1.93654 0
M  V30 3728 C 373.618 3.50658 0.819224 0
M  V30 3729 C 373.471 4.48233 -0.375109 0
M  V30 3730 C 374.79 4.07135 1.67121 0
M  V30 3731 H 371.909 0.723102 0.142451 0
M  V30 3732 H 374.551 1.87082 -0.331725 0
M  V30 3733 H 372.701 3.60857 1.43925 0
M  V30 3734 H 374.373 4.50031 -1.01341 0
M  V30 3735 H 372.616 4.21624 -1.02058 0
M  V30 3736 H 373.287 5.51988 -0.0358328 0
M  V30 3737 H 375.763 3.99952 1.14795 0
M  V30 3738 H 374.639 5.13615 1.93625 0
M  V30 3739 H 374.9 3.54736 2.63846 0
M  V30 3740 N 373.959 -0.0401083 1.57549 0
M  V30 3741 C 374.907 -1.06264 2.06908 0
M  V30 3742 C 375.901 -1.38132 0.980608 0
M  V30 3743 O 377.107 -1.37167 1.16556 0
M  V30 3744 H 373.482 -0.360166 0.660139 0
M  V30 3745 H 375.453 -0.620445 2.91878 0
M  V30 3746 C 374.202 -2.35846 2.55483 0
M  V30 3747 H 373.525 -2.12183 3.38849 0
M  V30 3748 H 374.965 -3.05765 2.93741 0
M  V30 3749 C 373.424 -3.0404 1.45126 0
M  V30 3750 O 373.954 -3.93424 0.811216 0
M  V30 3751 N 372.16 -2.65184 1.18852 0
M  V30 3752 H 371.707 -1.92584 1.71083 0
M  V30 3753 H 371.665 -3.1113 0.452244 0
M  V30 3754 N 375.437 -1.54477 -0.31217 0
M  V30 3755 C 376.685 -1.72884 -1.04668 0
M  V30 3756 C 377.006 -0.511477 -1.88173 0
M  V30 3757 O 376.276 0.474407 -1.90069 0
M  V30 3758 H 374.856 -0.637461 -0.389425 0
M  V30 3759 H 377.518 -1.91807 -0.345852 0
M  V30 3760 H 376.614 -2.61334 -1.70619 0
M  V30 3761 N 376.915 0.57481 -1.46744 0
M  V30 3762 C 378.326 1.15695 -1.46532 0
M  V30 3763 C 378.677 1.95068 -0.210425 0
M  V30 3764 O 377.802 2.05241 0.685944 0
M  V30 3765 C 378.397 2.1048 -2.65487 0
M  V30 3766 C 376.956 2.64002 -2.68291 0
M  V30 3767 C 376.103 1.40026 -2.39349 0
M  V30 3768 H 379.054 0.362325 -1.54509 0
M  V30 3769 H 379.075 2.94074 -2.41455 0
M  V30 3770 H 378.587 1.52683 -3.56805 0
M  V30 3771 H 376.688 3.25646 -1.81067 0
M  V30 3772 H 376.801 3.06197 -3.68483 0
M  V30 3773 H 375.165 1.70106 -1.89568 0
M  V30 3774 H 375.948 0.840485 -3.32852 0
M  V30 3775 N 378.394 1.34581 0.820102 0
M  V30 3776 C 379.64 1.27285 1.57881 0
M  V30 3777 C 379.973 -0.156137 1.93571 0
M  V30 3778 O 379.248 -1.10222 1.60254 0
M  V30 3779 C 379.531 2.16639 2.87645 0
M  V30 3780 C 379.384 3.68088 2.58517 0
M  V30 3781 C 380.703 2.05378 3.8924 0
M  V30 3782 H 377.822 0.463714 0.572833 0
M  V30 3783 H 380.464 1.64859 0.944539 0
M  V30 3784 H 378.614 1.84725 3.41773 0
M  V30 3785 H 380.286 4.10382 2.10676 0
M  V30 3786 H 378.529 3.89038 1.91917 0
M  V30 3787 H 379.2 4.2598 3.51063 0
M  V30 3788 H 381.676 2.33404 3.44473 0
M  V30 3789 H 380.552 2.7012 4.77835 0
M  V30 3790 H 380.813 1.0316 4.29896 0
M  V30 3791 N 379.872 -1.04064 1.18357 0
M  V30 3792 C 380.835 -2.10243 0.912707 0
M  V30 3793 C 381.835 -1.60477 -0.101928 0
M  V30 3794 O 383.025 -1.73703 0.131517 0
M  V30 3795 C 380.157 -3.38893 0.369387 0
M  V30 3796 H 381.35 -2.35706 1.85426 0
M  V30 3797 H 378.903 -1.20489 0.995594 0
M  V30 3798 H 379.638 -3.19094 -0.578776 0
M  V30 3799 H 379.423 -3.76331 1.1008 0
M  V30 3800 H 380.913 -4.17128 0.198575 0
M  V30 3801 N 381.35 -0.985608 -1.22978 0
M  V30 3802 C 382.596 -0.65836 -1.91816 0
M  V30 3803 C 382.929 0.806692 -1.76653 0
M  V30 3804 O 382.204 1.58252 -1.13078 0
M  V30 3805 C 382.487 -1.056 -3.44268 0
M  V30 3806 C 382.34 -2.57906 -3.68516 0
M  V30 3807 C 383.659 -0.603781 -4.35939 0
M  V30 3808 H 380.778 -0.24065 -0.696604 0
M  V30 3809 H 383.42 -1.22783 -1.44998 0
M  V30 3810 H 381.57 -0.571445 -3.84274 0
M  V30 3811 H 383.242 -3.13976 -3.3796 0
M  V30 3812 H 381.485 -3.00305 -3.13048 0
M  V30 3813 H 382.156 -2.80779 -4.75255 0
M  V30 3814 H 384.632 -1.01987 -4.03408 0
M  V30 3815 H 383.508 -0.910383 -5.41298 0
M  V30 3816 H 383.769 0.495761 -4.39312 0
M  V30 3817 N 382.828 1.3818 -0.7579 0
M  V30 3818 C 383.791 2.28764 -0.141286 0
M  V30 3819 C 384.791 1.47388 0.642907 0
M  V30 3820 O 385.981 1.67781 0.468536 0
M  V30 3821 C 383.113 3.31184 0.808069 0
M  V30 3822 H 384.306 2.848 -0.939633 0
M  V30 3823 H 381.859 1.47212 -0.525191 0
M  V30 3824 H 382.594 2.80247 1.63193 0
M  V30 3825 H 382.379 3.91314 0.248104 0
M  V30 3826 H 383.869 3.98909 1.23536 0
M  V30 3827 N 384.306 0.507319 1.49211 0
M  V30 3828 C 385.552 -0.0350047 2.0277 0
M  V30 3829 C 385.885 -1.3606 1.38569 0
M  V30 3830 O 385.16 -1.87321 0.523542 0
M  V30 3831 C 385.443 -0.180916 3.59645 0
M  V30 3832 C 385.296 1.16825 4.34364 0
M  V30 3833 C 386.615 -0.918558 4.30407 0
M  V30 3834 H 383.734 -0.0112473 0.736914 0
M  V30 3835 H 386.376 0.659956 1.7817 0
M  V30 3836 H 384.526 -0.772826 3.80736 0
M  V30 3837 H 386.198 1.79952 4.24753 0
M  V30 3838 H 384.441 1.75594 3.96673 0
M  V30 3839 H 385.112 1.01939 5.42506 0
M  V30 3840 H 387.588 -0.41649 4.1401 0
M  V30 3841 H 386.464 -0.989505 5.39907 0
M  V30 3842 H 386.725 -1.96373 3.96093 0
M  V30 3843 N 385.784 -1.5574 0.241426 0
M  V30 3844 C 387.061 -1.90704 -0.434881 0
M  V30 3845 C 387.441 -1.16145 -1.76277 0
M  V30 3846 O 386.789 -0.277152 -2.26813 0
M  V30 3847 C 386.999 -3.43657 -0.608343 0
M  V30 3848 C 388.347 -4.14806 -0.906725 0
M  V30 3849 O 389.371 -3.49366 -0.694408 0
M  V30 3850 O 388.23 -5.30548 -1.31075 0
M  V30 3851 H 385.324 -0.793592 -0.23268 0
M  V30 3852 H 387.87 -1.67288 0.285086 0
M  V30 3853 H 386.642 -3.89927 0.327505 0
M  V30 3854 H 386.265 -3.72918 -1.37906 0
M  V30 3855 N 387.262 0.0317525 -1.57568 0
M  V30 3856 C 388.225 1.01783 -2.0536 0
M  V30 3857 C 389.225 1.29203 -0.957253 0
M  V30 3858 O 390.415 1.24251 -1.22095 0
M  V30 3859 C 387.547 2.35137 -2.46827 0
M  V30 3860 H 388.74 0.605062 -2.93733 0
M  V30 3861 H 386.293 0.278514 -1.53799 0
M  V30 3862 H 387.028 2.81168 -1.61602 0
M  V30 3863 H 386.813 2.16566 -3.26866 0
M  V30 3864 H 388.303 3.05938 -2.84239 0
M  V30 3865 N 388.74 1.54641 0.303973 0
M  V30 3866 C 389.965 1.78092 1.06292 0
M  V30 3867 C 390.39 0.537342 1.80262 0
M  V30 3868 O 389.748 -0.511993 1.7392 0
M  V30 3869 C 389.796 2.98612 2.02147 0
M  V30 3870 O 388.9 2.71528 3.10397 0
M  V30 3871 H 388.241 0.589548 0.305497 0
M  V30 3872 H 390.771 2.01716 0.3423 0
M  V30 3873 H 390.781 3.265 2.44667 0
M  V30 3874 H 389.456 3.88785 1.47714 0
M  V30 3875 H 388.033 2.54648 2.72413 0
M  V30 3876 N 390.218 -0.567019 1.47046 0
M  V30 3877 C 391.443 -1.3551 1.57009 0
M  V30 3878 C 391.868 -1.86841 0.217259 0
M  V30 3879 O 391.226 -1.62435 -0.805268 0
M  V30 3880 C 391.274 -2.50777 2.5912 0
M  V30 3881 O 390.378 -3.52706 2.13711 0
M  V30 3882 H 389.719 -0.402919 0.52778 0
M  V30 3883 H 392.249 -0.686241 1.92748 0
M  V30 3884 H 392.259 -2.97481 2.79229 0
M  V30 3885 H 390.934 -2.12771 3.57353 0
M  V30 3886 H 389.511 -3.12374 2.03659 0
M  V30 3887 N 391.696 -1.35014 -0.812953 0
M  V30 3888 C 392.942 -1.29129 -1.57154 0
M  V30 3889 C 393.297 0.134922 -1.91926 0
M  V30 3890 O 392.59 1.08373 -1.58006 0
M  V30 3891 C 392.784 -2.12524 -2.87347 0
M  V30 3892 C 392.613 -3.6311 -2.65294 0
M  V30 3893 C 391.383 -4.32363 -2.61516 0
M  V30 3894 C 393.581 -4.56897 -2.36114 0
M  V30 3895 N 391.563 -5.68735 -2.31113 0
M  V30 3896 C 392.934 -5.81345 -2.15494 0
M  V30 3897 C 394.989 -4.45706 -2.21925 0
M  V30 3898 C 393.692 -6.95862 -1.82122 0
M  V30 3899 C 395.718 -5.60066 -1.89948 0
M  V30 3900 C 395.08 -6.83539 -1.7016 0
M  V30 3901 H 391.179 -0.527764 -0.577052 0
M  V30 3902 H 393.763 -1.6983 -0.952146 0
M  V30 3903 H 391.934 -1.74104 -3.47192 0
M  V30 3904 H 393.666 -1.98207 -3.5284 0
M  V30 3905 H 390.421 -3.84907 -2.75941 0
M  V30 3906 H 390.845 -6.40694 -2.18724 0
M  V30 3907 H 395.487 -3.50855 -2.35925 0
M  V30 3908 H 393.205 -7.90685 -1.6686 0
M  V30 3909 H 396.791 -5.53357 -1.79687 0
M  V30 3910 H 395.671 -7.70531 -1.45777 0
M  V30 3911 N 393.175 1.03435 -1.18907 0
M  V30 3912 C 394.108 2.11162 -0.86521 0
M  V30 3913 C 395.086 1.6165 0.175473 0
M  V30 3914 O 396.27 1.88425 0.0530129 0
M  V30 3915 C 393.397 3.37423 -0.293868 0
M  V30 3916 C 392.443 4.05795 -1.31274 0
M  V30 3917 S 393.276 4.52027 -2.8711 0
M  V30 3918 C 394.432 5.81513 -2.31504 0
M  V30 3919 H 394.665 2.38308 -1.77754 0
M  V30 3920 H 392.198 1.16295 -1.01562 0
M  V30 3921 H 394.156 4.1049 0.0292572 0
M  V30 3922 H 392.817 3.0838 0.596682 0
M  V30 3923 H 392.01 4.96574 -0.86198 0
M  V30 3924 H 391.612 3.38874 -1.58242 0
M  V30 3925 H 393.904 6.55784 -1.70157 0
M  V30 3926 H 394.847 6.3136 -3.20608 0
M  V30 3927 H 395.255 5.36921 -1.74286 0
M  V30 3928 N 394.653 0.992116 1.22453 0
M  V30 3929 C 395.881 0.685944 1.95198 0
M  V30 3930 C 396.296 -0.749233 1.73297 0
M  V30 3931 O 395.653 -1.50549 1.03156 0
M  V30 3932 C 395.704 0.981395 3.47924 0
M  V30 3933 O 395.425 2.36018 3.6909 0
M  V30 3934 C 396.926 0.692815 4.37853 0
M  V30 3935 H 394.146 0.253821 0.621141 0
M  V30 3936 H 396.69 1.32668 1.55626 0
M  V30 3937 H 394.845 0.386481 3.85467 0
M  V30 3938 H 395.259 2.45884 4.63294 0
M  V30 3939 H 396.733 0.949818 5.43767 0
M  V30 3940 H 397.21 -0.373181 4.37612 0
M  V30 3941 H 397.816 1.26874 4.05935 0
M  V30 3942 N 396.131 -1.37776 0.765217 0
M  V30 3943 C 397.361 -2.03828 0.337277 0
M  V30 3944 C 397.769 -1.57841 -1.04321 0
M  V30 3945 O 397.112 -0.752043 -1.67601 0
M  V30 3946 C 397.174 -3.58292 0.294407 0
M  V30 3947 C 396.838 -4.27384 1.61838 0
M  V30 3948 C 397.835 -4.51956 2.56967 0
M  V30 3949 C 395.52 -4.65345 1.89102 0
M  V30 3950 C 397.514 -5.13536 3.77571 0
M  V30 3951 C 395.201 -5.26647 3.09978 0
M  V30 3952 C 396.199 -5.50679 4.04032 0
M  V30 3953 O 395.887 -6.10702 5.2278 0
M  V30 3954 H 395.619 -0.661292 0.140248 0
M  V30 3955 H 398.173 -1.77222 1.03834 0
M  V30 3956 H 396.403 -3.83918 -0.462983 0
M  V30 3957 H 398.092 -4.05763 -0.105581 0
M  V30 3958 H 398.858 -4.23048 2.37183 0
M  V30 3959 H 394.737 -4.45978 1.16725 0
M  V30 3960 H 398.281 -5.3221 4.50997 0
M  V30 3961 H 394.178 -5.54979 3.29649 0
M  V30 3962 H 394.946 -6.29183 5.23517 0
M  V30 3963 N 397.609 -0.515225 -1.4894 0
M  V30 3964 C 398.837 0.0206034 -2.0689 0
M  V30 3965 C 399.252 1.29514 -1.37374 0
M  V30 3966 O 398.609 1.76698 -0.456529 0
M  V30 3967 C 398.66 0.26351 -3.60538 0
M  V30 3968 O 398.381 -0.960517 -4.27441 0
M  V30 3969 C 399.882 0.841383 -4.35242 0
M  V30 3970 H 397.102 -0.0268608 -0.670462 0
M  V30 3971 H 399.646 -0.716651 -1.91532 0
M  V30 3972 H 397.801 0.950777 -3.75552 0
M  V30 3973 H 398.215 -0.73212 -5.19365 0
M  V30 3974 H 399.689 0.96085 -5.43573 0
M  V30 3975 H 400.166 1.8427 -3.98674 0
M  V30 3976 H 400.772 0.191143 -4.2487 0
M  V30 3977 N 399.087 1.5561 -0.249682 0
M  V30 3978 C 400.335 1.98618 0.373548 0
M  V30 3979 C 400.656 1.13919 1.58264 0
M  V30 3980 O 399.926 0.222637 1.94631 0
M  V30 3981 H 398.506 0.733571 0.141006 0
M  V30 3982 H 401.168 1.91748 -0.349117 0
M  V30 3983 H 400.264 3.04584 0.680796 0
M  V30 3984 N 400.565 -0.0233959 1.57583 0
M  V30 3985 C 401.813 -0.711654 1.89156 0
M  V30 3986 C 402.134 -1.75591 0.848096 0
M  V30 3987 O 401.404 -1.95547 -0.117566 0
M  V30 3988 H 399.984 -0.265835 0.698098 0
M  V30 3989 H 402.646 0.0119948 1.94896 0
M  V30 3990 H 401.742 -1.19766 2.88206 0
M  V30 3991 N 402.043 -1.548 -0.295768 0
M  V30 3992 C 403.289 -1.74588 -1.03184 0
M  V30 3993 C 403.622 -0.532962 -1.86744 0
M  V30 3994 O 402.897 0.469872 -1.88739 0
M  V30 3995 C 403.18 -3.03791 -1.93347 0
M  V30 3996 C 403.033 -4.35392 -1.12933 0
M  V30 3997 C 404.352 -3.28892 -2.92435 0
M  V30 3998 H 401.471 -0.635221 -0.373715 0
M  V30 3999 H 404.113 -1.87519 -0.30606 0
M  V30 4000 H 402.263 -2.92898 -2.55232 0
M  V30 4001 H 403.935 -4.58211 -0.532943 0
M  V30 4002 H 402.178 -4.31642 -0.432168 0
M  V30 4003 H 402.849 -5.22074 -1.79284 0
M  V30 4004 H 405.325 -3.39429 -2.4068 0
M  V30 4005 H 404.201 -4.20603 -3.52682 0
M  V30 4006 H 404.462 -2.47437 -3.6637 0
M  V30 4007 N 403.521 0.559213 -1.47345 0
M  V30 4008 C 404.454 1.68201 -1.5422 0
M  V30 4009 C 405.432 1.57742 -0.394497 0
M  V30 4010 O 406.616 1.78628 -0.60201 0
M  V30 4011 C 403.743 3.0643 -1.44285 0
M  V30 4012 C 402.789 3.3534 -2.63532 0
M  V30 4013 S 403.622 3.24816 -4.25741 0
M  V30 4014 C 404.778 4.65542 -4.18355 0
M  V30 4015 H 405.011 1.62114 -2.49211 0
M  V30 4016 H 402.544 0.739871 -1.35519 0
M  V30 4017 H 404.502 3.86164 -1.3924 0
M  V30 4018 H 403.163 3.09984 -0.506816 0
M  V30 4019 H 402.356 4.36107 -2.52639 0
M  V30 4020 H 401.958 2.63221 -2.65689 0
M  V30 4021 H 404.25 5.56449 -3.86485 0
M  V30 4022 H 405.193 4.81493 -5.19202 0
M  V30 4023 H 405.601 4.43495 -3.49246 0
M  V30 4024 N 404.999 1.35443 0.805782 0
M  V30 4025 C 406.227 1.31878 1.59423 0
M  V30 4026 C 406.642 -0.103562 1.88516 0
M  V30 4027 O 405.999 -1.05575 1.48863 0
M  V30 4028 C 406.05 2.12426 2.92502 0
M  V30 4029 O 405.771 3.49115 2.6467 0
M  V30 4030 C 407.272 2.16455 3.86862 0
M  V30 4031 H 404.492 0.453002 0.495005 0
M  V30 4032 H 407.036 1.78309 1.00131 0
M  V30 4033 H 405.191 1.69593 3.48306 0
M  V30 4034 H 405.605 3.90957 3.49647 0
M  V30 4035 H 407.079 2.77204 4.77349 0
M  V30 4036 H 407.556 1.16352 4.23508 0
M  V30 4037 H 408.162 2.59453 3.36993 0
M  V30 4038 N 406.477 -1.02803 1.19454 0
M  V30 4039 C 407.702 -1.80378 1.02364 0
M  V30 4040 C 408.127 -1.83282 -0.423007 0
M  V30 4041 O 407.485 -1.25945 -1.30413 0
M  V30 4042 C 407.533 -3.23248 1.59821 0
M  V30 4043 O 406.637 -4.04 0.828105 0
M  V30 4044 H 405.978 -0.556799 0.361761 0
M  V30 4045 H 408.508 -1.29385 1.58495 0
M  V30 4046 H 408.518 -3.73994 1.63073 0
M  V30 4047 H 407.193 -3.2045 2.65113 0
M  V30 4048 H 405.77 -3.62635 0.86891 0
M  V30 4049 N 407.956 -0.998596 -1.21925 0
M  V30 4050 C 409.196 -0.685948 -1.92546 0
M  V30 4051 C 409.56 0.768441 -1.75952 0
M  V30 4052 O 410.761 1.19277 -2.40887 0
M  V30 4053 C 409.032 -1.08767 -3.40448 0
M  V30 4054 S 410.591 -0.894251 -4.29591 0
M  V30 4055 H 407.409 -0.250622 -0.665364 0
M  V30 4056 H 410.011 -1.28207 -1.47591 0
M  V30 4057 H 408.715 -2.14242 -3.50041 0
M  V30 4058 H 408.246 -0.48357 -3.90417 0
M  V30 4059 H 410.261 0.212149 -4.95746 0
M  V30 4060 N 409.434 1.37368 -0.772513 0
M  V30 4061 C 410.68 1.99969 -0.337681 0
M  V30 4062 C 411.013 1.61184 1.08321 0
M  V30 4063 O 410.288 0.858395 1.74533 0
M  V30 4064 C 410.571 3.56858 -0.482121 0
M  V30 4065 C 410.424 4.0555 -1.94549 0
M  V30 4066 C 411.743 4.39955 0.113143 0
M  V30 4067 H 408.862 0.726464 -0.124171 0
M  V30 4068 H 411.504 1.63034 -0.975699 0
M  V30 4069 H 409.654 3.88452 0.0610361 0
M  V30 4070 H 411.326 3.84518 -2.54841 0
M  V30 4071 H 409.569 3.57715 -2.45403 0
M  V30 4072 H 410.24 5.14587 -1.9976 0
M  V30 4073 H 412.716 4.14623 -0.35031 0
M  V30 4074 H 411.592 5.48897 -0.0180514 0
M  V30 4075 H 411.853 4.25403 1.20354 0
M  V30 4076 N 410.912 0.523116 1.48665 0
M  V30 4077 C 412.137 -0.0117284 2.07397 0
M  V30 4078 C 412.562 -1.28031 1.37803 0
M  V30 4079 O 411.92 -1.75836 0.441762 0
M  V30 4080 C 411.968 -0.225786 3.59892 0
M  V30 4081 O 411.072 -1.29592 3.91509 0
M  V30 4082 H 410.413 0.0360673 0.66302 0
M  V30 4083 H 412.943 0.729066 1.9117 0
M  V30 4084 H 412.953 -0.450552 4.05505 0
M  V30 4085 H 411.628 0.700944 4.09951 0
M  V30 4086 H 410.205 -1.05436 3.57684 0
M  V30 4087 N 412.39 -1.55475 0.257931 0
M  V30 4088 C 413.3 -2.2549 -0.647425 0
M  V30 4089 C 414.316 -1.2748 -1.18427 0
M  V30 4090 O 415.492 -1.6038 -1.2182 0
M  V30 4091 C 412.557 -2.94916 -1.82278 0
M  V30 4092 C 411.618 -4.08363 -1.32432 0
M  V30 4093 C 410.851 -4.74469 -2.44366 0
M  V30 4094 O 411.074 -4.39701 -3.63344 0
M  V30 4095 O 410.008 -5.62763 -2.13497 0
M  V30 4096 H 413.834 -3.03593 -0.0807707 0
M  V30 4097 H 411.419 -1.49377 0.0259962 0
M  V30 4098 H 413.301 -3.38606 -2.50846 0
M  V30 4099 H 411.976 -2.19744 -2.37685 0
M  V30 4100 H 410.883 -3.69166 -0.605605 0
M  V30 4101 H 412.216 -4.85385 -0.816211 0
M  V30 4102 N 413.868 0.0150385 -1.57593 0
M  V30 4103 C 414.8 1.03912 -2.04291 0
M  V30 4104 C 415.813 1.31618 -0.958146 0
M  V30 4105 O 417.002 1.28859 -1.23522 0
M  V30 4106 C 414.102 2.37749 -2.41514 0
M  V30 4107 C 413.275 2.29198 -3.72541 0
M  V30 4108 C 412.334 3.45598 -3.96797 0
M  V30 4109 O 411.36 3.24461 -4.67668 0
M  V30 4110 N 412.562 4.67945 -3.43523 0
M  V30 4111 H 415.327 0.64099 -2.92765 0
M  V30 4112 H 412.888 0.20272 -1.60626 0
M  V30 4113 H 414.88 3.14364 -2.54867 0
M  V30 4114 H 413.45 2.69357 -1.58637 0
M  V30 4115 H 412.67 1.3759 -3.69408 0
M  V30 4116 H 413.958 2.20642 -4.5847 0
M  V30 4117 H 413.356 4.88017 -2.86104 0
M  V30 4118 H 411.913 5.41878 -3.62232 0
M  V30 4119 N 415.346 1.54954 0.287554 0
M  V30 4120 C 416.276 1.89839 1.35954 0
M  V30 4121 C 417.257 0.758675 1.52244 0
M  V30 4122 O 418.442 1.01557 1.65529 0
M  V30 4123 C 415.572 2.15753 2.72154 0
M  V30 4124 C 414.526 3.3159 2.70614 0
M  V30 4125 C 413.852 3.42952 4.10229 0
M  V30 4126 C 415.152 4.68359 2.31165 0
M  V30 4127 H 416.846 2.79625 1.07007 0
M  V30 4128 H 414.392 1.3454 0.513316 0
M  V30 4129 H 416.345 2.38743 3.47246 0
M  V30 4130 H 415.069 1.22752 3.02654 0
M  V30 4131 H 413.728 3.08545 1.97979 0
M  V30 4132 H 413.376 2.47443 4.37928 0
M  V30 4133 H 413.076 4.20826 4.10097 0
M  V30 4134 H 414.6 3.68218 4.87081 0
M  V30 4135 H 416.014 4.9099 2.95976 0
M  V30 4136 H 414.411 5.49044 2.42221 0
M  V30 4137 H 415.481 4.68165 1.26291 0
M  V30 4138 N 416.824 -0.551391 1.4764 0
M  V30 4139 C 418.101 -1.31229 1.45046 0
M  V30 4140 C 418.481 -2.10563 0.150527 0
M  V30 4141 O 417.829 -2.11374 -0.867956 0
M  V30 4142 C 418.039 -2.21189 2.69956 0
M  V30 4143 C 419.387 -2.82021 3.1741 0
M  V30 4144 O 420.411 -2.31488 2.70724 0
M  V30 4145 O 419.27 -3.73885 3.98588 0
M  V30 4146 H 416.364 -0.591193 0.578291 0
M  V30 4147 H 418.91 -0.569813 1.59847 0
M  V30 4148 H 417.682 -1.62207 3.56096 0
M  V30 4149 H 417.305 -3.02722 2.57769 0
M  V30 4150 N 418.302 -1.35869 -0.798587 0
M  V30 4151 C 419.252 -1.25982 -1.90033 0
M  V30 4152 C 420.236 -0.153303 -1.60168 0
M  V30 4153 O 421.428 -0.38527 -1.72756 0
M  V30 4154 C 418.557 -1.04211 -3.27101 0
M  V30 4155 C 417.643 -2.19289 -3.63006 0
M  V30 4156 N 418.034 -3.44559 -3.70287 0
M  V30 4157 C 416.332 -2.10852 -3.93011 0
M  V30 4158 C 417.033 -4.20283 -4.02166 0
M  V30 4159 N 416.009 -3.49124 -4.16669 0
M  V30 4160 H 419.811 -2.20883 -1.93876 0
M  V30 4161 H 417.325 -1.28457 -0.993614 0
M  V30 4162 H 419.322 -0.952155 -4.05881 0
M  V30 4163 H 417.982 -0.102013 -3.2454 0
M  V30 4164 H 418.993 -3.7881 -3.53162 0
M  V30 4165 H 415.67 -1.24744 -3.98428 0
M  V30 4166 H 417.06 -5.28575 -4.14799 0
M  V30 4167 N 419.78 1.02168 -1.19998 0
M  V30 4168 C 421.028 1.75338 -1.00504 0
M  V30 4169 C 421.349 1.89387 0.464506 0
M  V30 4170 O 420.619 1.43268 1.33608 0
M  V30 4171 H 419.199 0.649564 -0.368885 0
M  V30 4172 H 421.861 1.23205 -1.51018 0
M  V30 4173 H 420.957 2.75892 -1.45912 0
M  V30 4174 N 421.258 1.00505 1.21394 0
M  V30 4175 C 422.504 0.688793 1.90745 0
M  V30 4176 C 422.837 -0.778486 1.77914 0
M  V30 4177 O 422.112 -1.56433 1.15581 0
M  V30 4178 C 422.395 1.11063 3.42545 0
M  V30 4179 C 422.248 2.63737 3.64367 0
M  V30 4180 C 423.567 0.673059 4.34923 0
M  V30 4181 H 420.686 0.251702 0.692687 0
M  V30 4182 H 423.328 1.25074 1.43026 0
M  V30 4183 H 421.478 0.632508 3.83317 0
M  V30 4184 H 423.15 3.19313 3.32922 0
M  V30 4185 H 421.393 3.05248 3.08231 0
M  V30 4186 H 422.064 2.88305 4.70727 0
M  V30 4187 H 424.54 1.08392 4.01734 0
M  V30 4188 H 423.416 0.996383 5.39781 0
M  V30 4189 H 423.677 -0.425808 4.40045 0
M  V30 4190 N 422.737 -1.36956 0.779787 0
M  V30 4191 C 423.667 -2.32761 0.185651 0
M  V30 4192 C 424.648 -1.56177 -0.673989 0
M  V30 4193 O 425.833 -1.84378 -0.609797 0
M  V30 4194 C 422.963 -3.40418 -0.687964 0
M  V30 4195 C 421.917 -4.27941 0.0710102 0
M  V30 4196 C 421.243 -5.26681 -0.922573 0
M  V30 4197 C 422.543 -5.07006 1.25467 0
M  V30 4198 H 424.237 -2.82698 0.986008 0
M  V30 4199 H 421.783 -1.3592 0.475592 0
M  V30 4200 H 423.736 -4.06423 -1.11348 0
M  V30 4201 H 422.46 -2.89025 -1.52093 0
M  V30 4202 H 421.119 -3.63478 0.47739 0
M  V30 4203 H 420.767 -4.71565 -1.7503 0
M  V30 4204 H 420.467 -5.86103 -0.419237 0
M  V30 4205 H 421.991 -5.9556 -1.34686 0
M  V30 4206 H 423.405 -5.66105 0.905401 0
M  V30 4207 H 421.802 -5.75793 1.69063 0
M  V30 4208 H 422.872 -4.3921 2.05481 0
M  V30 4209 N 424.215 -0.530993 -1.48385 0
M  V30 4210 C 425.145 0.219985 -2.32461 0
M  V30 4211 C 426.126 0.934111 -1.42156 0
M  V30 4212 O 427.311 0.919694 -1.71042 0
M  V30 4213 C 424.441 1.26674 -3.23375 0
M  V30 4214 C 423.395 0.67069 -4.22712 0
M  V30 4215 C 422.721 1.82017 -5.02766 0
M  V30 4216 C 424.021 -0.358268 -5.2107 0
M  V30 4217 H 425.715 -0.48187 -2.95497 0
M  V30 4218 H 423.261 -0.233182 -1.42099 0
M  V30 4219 H 425.214 1.80006 -3.81019 0
M  V30 4220 H 423.938 1.99818 -2.58341 0
M  V30 4221 H 422.597 0.158878 -3.66256 0
M  V30 4222 H 422.245 2.54002 -4.34157 0
M  V30 4223 H 421.945 1.42727 -5.70003 0
M  V30 4224 H 423.469 2.35725 -5.63264 0
M  V30 4225 H 424.883 0.0880081 -5.73232 0
M  V30 4226 H 423.28 -0.66861 -5.96364 0
M  V30 4227 H 424.35 -1.26367 -4.68145 0
M  V30 4228 N 425.693 1.55336 -0.266172 0
M  V30 4229 C 426.939 1.99692 0.353681 0
M  V30 4230 C 427.272 1.1543 1.56172 0
M  V30 4231 O 426.547 0.222218 1.93226 0
M  V30 4232 C 426.83 3.52316 0.74466 0
M  V30 4233 C 426.683 4.47337 -0.470101 0
M  V30 4234 C 428.002 4.10588 1.58447 0
M  V30 4235 H 425.121 0.725961 0.12708 0
M  V30 4236 H 427.763 1.86336 -0.371333 0
M  V30 4237 H 425.913 3.63829 1.36239 0
M  V30 4238 H 427.585 4.4778 -1.10864 0
M  V30 4239 H 425.828 4.19364 -1.10978 0
M  V30 4240 H 426.499 5.51788 -0.15291 0
M  V30 4241 H 428.975 4.02297 1.06286 0
M  V30 4242 H 427.851 5.17607 1.82686 0
M  V30 4243 H 428.112 3.60253 2.56262 0
M  V30 4244 N 427.171 -0.0066808 1.57599 0
M  V30 4245 C 428.419 -0.691552 1.899 0
M  V30 4246 C 428.74 -1.74682 0.866672 0
M  V30 4247 O 428.01 -1.95661 -0.0968189 0
M  V30 4248 H 426.59 -0.258416 0.700878 0
M  V30 4249 H 429.252 0.0326655 1.94873 0
M  V30 4250 H 428.348 -1.16702 2.8946 0
M  V30 4251 N 428.649 -1.55105 -0.279332 0
M  V30 4252 C 429.879 -1.7917 -1.02867 0
M  V30 4253 C 430.287 -0.56204 -1.80659 0
M  V30 4254 O 429.63 0.478266 -1.77365 0
M  V30 4255 C 429.692 -2.96061 -2.03932 0
M  V30 4256 C 429.356 -4.33341 -1.45137 0
M  V30 4257 C 430.353 -5.12565 -0.870266 0
M  V30 4258 C 428.038 -4.79987 -1.48048 0
M  V30 4259 C 430.032 -6.36565 -0.326097 0
M  V30 4260 C 427.719 -6.03944 -0.932443 0
M  V30 4261 C 428.717 -6.8207 -0.356247 0
M  V30 4262 O 428.405 -8.03691 0.183412 0
M  V30 4263 H 428.137 -0.600796 -0.309872 0
M  V30 4264 H 430.691 -2.02932 -0.317468 0
M  V30 4265 H 428.921 -2.67975 -2.78794 0
M  V30 4266 H 430.61 -3.07506 -2.64943 0
M  V30 4267 H 431.376 -4.77661 -0.840521 0
M  V30 4268 H 427.255 -4.1919 -1.91835 0
M  V30 4269 H 430.799 -6.97489 0.124286 0
M  V30 4270 H 426.696 -6.3833 -0.959407 0
M  V30 4271 H 427.464 -8.18468 0.0721681 0
M  V30 4272 N 430.127 0.543554 -1.4793 0
M  V30 4273 C 431.075 1.67039 -1.61866 0
M  V30 4274 C 432.069 1.62294 -0.48549 0
M  V30 4275 O 433.275 1.67315 -0.66376 0
M  V30 4276 H 429.65 0.552954 -0.509652 0
M  V30 4277 H 431.621 1.52426 -2.56533 0
M  V30 4278 C 430.37 3.05357 -1.6629 0
M  V30 4279 H 429.693 3.09696 -2.5284 0
M  V30 4280 H 431.133 3.83855 -1.80088 0
M  V30 4281 C 429.592 3.34531 -0.398861 0
M  V30 4282 O 430.122 3.98649 0.494162 0
M  V30 4283 N 428.328 2.89299 -0.2747 0
M  V30 4284 H 427.875 2.37298 -1.00236 0
M  V30 4285 H 427.833 3.09188 0.570075 0
M  V30 4286 N 431.605 1.3629 0.791371 0
M  V30 4287 C 432.882 1.20962 1.53712 0
M  V30 4288 C 433.262 -0.205021 2.10102 0
M  V30 4289 O 432.61 -1.21042 1.93807 0
M  V30 4290 C 432.82 2.29002 2.63361 0
M  V30 4291 C 434.168 2.65572 3.31295 0
M  V30 4292 O 435.192 2.2803 2.73643 0
M  V30 4293 O 434.051 3.3018 4.35481 0
M  V30 4294 H 431.145 0.47086 0.679867 0
M  V30 4295 H 433.691 1.48016 0.830021 0
M  V30 4296 H 432.463 3.2382 2.19674 0
M  V30 4297 H 432.086 2.03303 3.41692 0
M  V30 4298 N 433.083 -1.0153 1.20538 0
M  V30 4299 C 434.308 -1.79283 1.04271 0
M  V30 4300 C 434.733 -1.8372 -0.403544 0
M  V30 4301 O 434.091 -1.27321 -1.2907 0
M  V30 4302 C 434.139 -3.21535 1.63241 0
M  V30 4303 O 433.243 -4.03099 0.870908 0
M  V30 4304 H 432.584 -0.55293 0.367647 0
M  V30 4305 H 435.114 -1.27696 1.59859 0
M  V30 4306 H 435.124 -3.72243 1.6703 0
M  V30 4307 H 433.799 -3.1762 2.68497 0
M  V30 4308 H 432.376 -3.61693 0.907323 0
M  V30 4309 N 434.561 -1.01147 -1.20859 0
M  V30 4310 C 435.524 -0.582224 -2.21682 0
M  V30 4311 C 436.524 0.344887 -1.57058 0
M  V30 4312 O 437.714 0.134281 -1.73682 0
M  V30 4313 C 434.846 0.150496 -3.40568 0
M  V30 4314 H 436.039 -1.47408 -2.61172 0
M  V30 4315 H 433.592 -0.800695 -1.34233 0
M  V30 4316 H 434.327 1.0575 -3.06574 0
M  V30 4317 H 434.112 -0.515444 -3.88697 0
M  V30 4318 H 435.602 0.438344 -4.15293 0
M  V30 4319 N 436.039 1.36541 -0.78704 0
M  V30 4320 C 437.002 2.28413 -0.189778 0
M  V30 4321 C 438.002 1.48719 0.611499 0
M  V30 4322 O 439.192 1.68737 0.432842 0
M  V30 4323 C 436.324 3.32824 0.737638 0
M  V30 4324 H 437.517 2.82743 -0.999831 0
M  V30 4325 H 435.07 1.46065 -0.556298 0
M  V30 4326 H 435.805 2.83646 1.57212 0
M  V30 4327 H 435.59 3.91752 0.165044 0
M  V30 4328 H 437.08 4.0144 1.15047 0
M  V30 4329 N 437.518 0.538854 1.48102 0
M  V30 4330 C 438.764 0.00801365 2.02798 0
M  V30 4331 C 439.097 -1.3309 1.41424 0
M  V30 4332 O 438.372 -1.86169 0.563158 0
M  V30 4333 C 438.655 -0.104589 3.59948 0
M  V30 4334 C 438.508 1.26012 4.31788 0
M  V30 4335 C 439.827 -0.827055 4.32259 0
M  V30 4336 H 436.946 0.00438624 0.736987 0
M  V30 4337 H 439.588 0.6976 1.7673 0
M  V30 4338 H 437.738 -0.691893 3.82289 0
M  V30 4339 H 439.41 1.88922 4.2084 0
M  V30 4340 H 437.653 1.83968 3.92859 0
M  V30 4341 H 438.324 1.13424 5.40221 0
M  V30 4342 H 440.8 -0.328578 4.14801 0
M  V30 4343 H 439.676 -0.87476 5.41885 0
M  V30 4344 H 439.937 -1.87927 4.0017 0
M  V30 4345 N 438.996 -1.55193 0.274407 0
M  V30 4346 C 440.407 -1.85358 -0.223488 0
M  V30 4347 C 440.758 -1.19642 -1.555 0
M  V30 4348 O 439.883 -0.484498 -2.10907 0
M  V30 4349 C 440.478 -3.36282 -0.412285 0
M  V30 4350 C 439.037 -3.66574 -0.854413 0
M  V30 4351 C 438.184 -2.7725 0.0527056 0
M  V30 4352 H 441.135 -1.50743 0.496215 0
M  V30 4353 H 441.156 -3.59349 -1.25094 0
M  V30 4354 H 440.668 -3.84083 0.556965 0
M  V30 4355 H 438.769 -3.24273 -1.83516 0
M  V30 4356 H 438.882 -4.74073 -0.692226 0
M  V30 4357 H 437.246 -2.50447 -0.463484 0
M  V30 4358 H 438.029 -3.27865 1.01783 0
M  V30 4359 N 440.474 -0.00167713 -1.576 0
M  V30 4360 C 441.704 0.692754 -1.94639 0
M  V30 4361 C 442.112 1.67744 -0.87513 0
M  V30 4362 O 441.455 1.8305 0.154382 0
M  V30 4363 C 441.517 1.47881 -3.27676 0
M  V30 4364 C 441.181 0.655518 -4.52274 0
M  V30 4365 C 442.178 -0.0575214 -5.19868 0
M  V30 4366 C 439.863 0.600994 -4.98692 0
M  V30 4367 C 441.857 -0.814052 -6.3218 0
M  V30 4368 C 439.544 -0.15926 -6.10892 0
M  V30 4369 C 440.542 -0.865515 -6.77494 0
M  V30 4370 O 440.23 -1.61336 -7.87544 0
M  V30 4371 H 439.962 0.197792 -0.646417 0
M  V30 4372 H 442.516 -0.049423 -2.05341 0
M  V30 4373 H 440.746 2.2655 -3.13388 0
M  V30 4374 H 442.435 2.05874 -3.49816 0
M  V30 4375 H 443.201 -0.0245611 -4.84994 0
M  V30 4376 H 439.08 1.14025 -4.46676 0
M  V30 4377 H 442.624 -1.36584 -6.84098 0
M  V30 4378 H 438.521 -0.194035 -6.45208 0
M  V30 4379 H 439.289 -1.53025 -8.04068 0
M  V30 4380 N 441.952 1.55251 0.271103 0
M  V30 4381 C 443.198 1.7713 0.999832 0
M  V30 4382 C 443.553 0.56659 1.83868 0
M  V30 4383 O 442.846 -0.44069 1.86463 0
M  V30 4384 C 443.04 3.01879 1.91321 0
M  V30 4385 C 442.869 4.34368 1.16426 0
M  V30 4386 C 441.639 4.97593 0.879169 0
M  V30 4387 C 443.837 5.1131 0.553749 0
M  V30 4388 N 441.819 6.13813 0.103618 0
M  V30 4389 C 443.19 6.19938 -0.0875442 0
M  V30 4390 C 445.245 4.95754 0.461782 0
M  V30 4391 C 443.948 7.14703 -0.811942 0
M  V30 4392 C 445.974 5.90875 -0.249027 0
M  V30 4393 C 445.336 6.98893 -0.879051 0
M  V30 4394 H 441.435 0.700407 0.347784 0
M  V30 4395 H 444.019 1.92744 0.275314 0
M  V30 4396 H 442.19 2.87637 2.60997 0
M  V30 4397 H 443.922 3.12154 2.57569 0
M  V30 4398 H 440.677 4.58538 1.18491 0
M  V30 4399 H 441.101 6.76455 -0.271543 0
M  V30 4400 H 445.743 4.12342 0.934552 0
M  V30 4401 H 443.461 7.97634 -1.29639 0
M  V30 4402 H 447.047 5.80916 -0.320529 0
M  V30 4403 H 445.927 7.71231 -1.42031 0
M  V30 4404 N 443.43 -0.535701 1.48216 0
M  V30 4405 C 444.679 -1.28828 1.55197 0
M  V30 4406 C 444.992 -1.94263 0.228278 0
M  V30 4407 O 446.198 -2.70927 0.176278 0
M  V30 4408 C 444.654 -2.33727 2.73678 0
M  V30 4409 C 444.262 -1.74386 4.12666 0
M  V30 4410 C 446.006 -3.1003 2.89968 0
M  V30 4411 C 443.913 -2.77192 5.22416 0
M  V30 4412 H 442.843 -0.484484 0.577747 0
M  V30 4413 H 445.494 -0.56646 1.74538 0
M  V30 4414 H 443.876 -3.08919 2.4776 0
M  V30 4415 H 445.05 -1.05421 4.48579 0
M  V30 4416 H 443.365 -1.10595 4.01445 0
M  V30 4417 H 445.962 -3.86842 3.6913 0
M  V30 4418 H 446.305 -3.65542 1.9921 0
M  V30 4419 H 446.838 -2.41952 3.15759 0
M  V30 4420 H 443.577 -2.26507 6.15122 0
M  V30 4421 H 443.097 -3.44502 4.90998 0
M  V30 4422 H 444.776 -3.40285 5.50286 0
M  V30 4423 N 444.908 -1.36708 -0.784132 0
M  V30 4424 C 446.157 -1.30559 -1.53744 0
M  V30 4425 C 446.47 0.111374 -1.95283 0
M  V30 4426 O 447.676 0.29527 -2.6989 0
M  V30 4427 C 446.132 -2.29098 -2.77565 0
M  V30 4428 C 445.74 -3.76258 -2.43174 0
M  V30 4429 C 447.484 -2.31936 -3.55536 0
M  V30 4430 C 445.391 -4.6656 -3.63422 0
M  V30 4431 H 444.321 -0.48518 -0.577162 0
M  V30 4432 H 446.972 -1.62101 -0.859981 0
M  V30 4433 H 445.354 -1.90557 -3.47137 0
M  V30 4434 H 446.528 -4.23565 -1.81465 0
M  V30 4435 H 444.843 -3.76246 -1.78403 0
M  V30 4436 H 447.44 -2.9661 -4.44889 0
M  V30 4437 H 447.783 -1.3294 -3.94503 0
M  V30 4438 H 448.316 -2.6912 -2.92949 0
M  V30 4439 H 445.055 -5.66638 -3.29547 0
M  V30 4440 H 444.575 -4.23966 -4.24279 0
M  V30 4441 H 446.254 -4.8309 -4.30387 0
M  V30 4442 N 446.386 1.0089 -1.21074 0
M  V30 4443 C 447.333 2.09588 -0.966512 0
M  V30 4444 C 448.303 1.65761 0.106089 0
M  V30 4445 O 449.488 1.90758 -0.0402287 0
M  V30 4446 C 446.628 3.40958 -0.533058 0
M  V30 4447 C 445.741 3.9822 -1.67467 0
M  V30 4448 C 444.876 5.17682 -1.19076 0
M  V30 4449 C 443.915 5.67043 -2.30496 0
M  V30 4450 N 443.052 6.77759 -1.83267 0
M  V30 4451 H 447.892 2.29815 -1.89708 0
M  V30 4452 H 445.429 1.12689 -0.945489 0
M  V30 4453 H 447.387 4.1637 -0.263019 0
M  V30 4454 H 446.017 3.20781 0.360505 0
M  V30 4455 H 445.069 3.1983 -2.05944 0
M  V30 4456 H 446.381 4.3085 -2.51336 0
M  V30 4457 H 445.535 6.00326 -0.877151 0
M  V30 4458 H 444.274 4.86635 -0.322066 0
M  V30 4459 H 443.279 4.82999 -2.62664 0
M  V30 4460 H 444.504 6.00121 -3.17855 0
M  V30 4461 H 442.45 6.48527 -0.987356 0
M  V30 4462 H 442.367 7.09624 -2.60711 0
M  V30 4463 H 443.635 7.63949 -1.54928 0
M  V30 4464 N 447.864 1.01787 1.20321 0
M  V30 4465 C 448.812 0.58254 2.25187 0
M  V30 4466 C 449.806 -0.379359 1.65098 0
M  V30 4467 O 451.012 -0.249142 1.78267 0
M  V30 4468 H 447.387 0.170078 0.732514 0
M  V30 4469 H 449.358 1.47788 2.59232 0
M  V30 4470 C 448.107 -0.0620885 3.47645 0
M  V30 4471 H 447.43 0.669069 3.94162 0
M  V30 4472 H 448.87 -0.329784 4.22716 0
M  V30 4473 C 447.329 -1.3053 3.10586 0
M  V30 4474 O 447.859 -2.39848 3.22236 0
M  V30 4475 N 446.065 -1.18988 2.65123 0
M  V30 4476 H 445.612 -0.300341 2.55843 0
M  V30 4477 H 445.57 -2.02267 2.40698 0
M  V30 4478 N 449.342 -1.36122 0.79427 0
M  V30 4479 C 450.567 -2.03891 0.379871 0
M  V30 4480 C 450.992 -1.59488 -0.997251 0
M  V30 4481 O 450.35 -0.765652 -1.64339 0
M  V30 4482 C 450.398 -3.57687 0.457442 0
M  V30 4483 O 449.502 -4.08931 -0.5338 0
M  V30 4484 H 448.843 -0.6443 0.160541 0
M  V30 4485 H 451.373 -1.73976 1.07673 0
M  V30 4486 H 451.383 -4.06721 0.322792 0
M  V30 4487 H 450.058 -3.89357 1.46199 0
M  V30 4488 H 448.635 -3.71154 -0.360409 0
M  V30 4489 N 450.82 -0.546701 -1.47814 0
M  V30 4490 C 452.066 -0.0269594 -2.03382 0
M  V30 4491 C 452.421 1.30406 -1.41464 0
M  V30 4492 O 451.714 1.8332 -0.557151 0
M  V30 4493 C 451.908 0.134869 -3.57145 0
M  V30 4494 C 451.737 -1.17891 -4.33972 0
M  V30 4495 C 450.507 -1.74336 -4.74273 0
M  V30 4496 C 452.705 -2.09361 -4.69758 0
M  V30 4497 N 450.687 -2.99829 -5.35701 0
M  V30 4498 C 452.058 -3.19431 -5.31379 0
M  V30 4499 C 454.113 -2.09484 -4.51687 0
M  V30 4500 C 452.816 -4.2971 -5.76838 0
M  V30 4501 C 454.842 -3.18767 -4.98138 0
M  V30 4502 C 454.204 -4.27557 -5.59799 0
M  V30 4503 H 450.303 -0.0517733 -0.780284 0
M  V30 4504 H 452.887 -0.731673 -1.80429 0
M  V30 4505 H 451.058 0.80869 -3.79888 0
M  V30 4506 H 452.79 0.655726 -3.99352 0
M  V30 4507 H 449.545 -1.28265 -4.559 0
M  V30 4508 H 449.969 -3.63765 -5.70968 0
M  V30 4509 H 454.611 -1.26663 -4.03381 0
M  V30 4510 H 452.329 -5.13297 -6.24141 0
M  V30 4511 H 455.915 -3.19937 -4.85934 0
M  V30 4512 H 454.795 -5.10725 -5.95088 0
M  V30 4513 N 452.299 1.55045 -0.282633 0
M  V30 4514 C 453.527 2.04168 0.33512 0
M  V30 4515 C 453.942 1.16071 1.48906 0
M  V30 4516 O 453.299 0.182391 1.81586 0
M  V30 4517 C 453.35 3.52332 0.808957 0
M  V30 4518 O 453.071 4.37078 -0.299038 0
M  V30 4519 C 454.572 4.17375 1.49375 0
M  V30 4520 H 451.792 0.666744 0.0754543 0
M  V30 4521 H 454.336 2.00205 -0.416918 0
M  V30 4522 H 452.491 3.56715 1.51106 0
M  V30 4523 H 452.905 5.24458 0.0665514 0
M  V30 4524 H 454.379 5.22627 1.77664 0
M  V30 4525 H 454.856 3.65999 2.42778 0
M  V30 4526 H 455.462 4.17016 0.835305 0
M  V30 4527 N 453.777 0.010035 1.57597 0
M  V30 4528 C 455.005 -0.683413 1.95287 0
M  V30 4529 C 455.42 -1.66747 0.885481 0
M  V30 4530 O 454.777 -1.82003 -0.134629 0
M  V30 4531 C 454.828 -1.40652 3.33015 0
M  V30 4532 O 454.549 -0.461916 4.35658 0
M  V30 4533 C 456.05 -2.19356 3.85225 0
M  V30 4534 H 453.27 -0.189708 0.643624 0
M  V30 4535 H 455.814 0.0641359 2.04399 0
M  V30 4536 H 453.969 -2.10562 3.2518 0
M  V30 4537 H 454.383 -0.973215 5.15392 0
M  V30 4538 H 455.857 -2.65433 4.83993 0
M  V30 4539 H 456.334 -3.02457 3.18459 0
M  V30 4540 H 456.94 -1.54442 3.96267 0
M  V30 4541 N 455.255 -1.55392 -0.262866 0
M  V30 4542 C 456.187 -1.85392 -1.34768 0
M  V30 4543 C 457.2 -0.739069 -1.45057 0
M  V30 4544 O 458.389 -1.01703 -1.46693 0
M  V30 4545 C 455.489 -2.01088 -2.72795 0
M  V30 4546 C 454.662 -3.31828 -2.84972 0
M  V30 4547 C 453.721 -3.37464 -4.03738 0
M  V30 4548 O 452.747 -4.10778 -3.94018 0
M  V30 4549 N 453.949 -2.65599 -5.16176 0
M  V30 4550 H 456.714 -2.79029 -1.09375 0
M  V30 4551 H 454.275 -1.55434 -0.452981 0
M  V30 4552 H 456.267 -2.02217 -3.50557 0
M  V30 4553 H 454.837 -1.1427 -2.90966 0
M  V30 4554 H 454.057 -3.43152 -1.94012 0
M  V30 4555 H 455.345 -4.18032 -2.90045 0
M  V30 4556 H 454.743 -2.05736 -5.26962 0
M  V30 4557 H 453.3 -2.72439 -5.92132 0
M  V30 4558 N 456.733 0.527833 -1.48498 0
M  V30 4559 C 457.979 1.28295 -1.57836 0
M  V30 4560 C 458.334 1.9077 -0.249943 0
M  V30 4561 O 457.627 1.76421 0.747402 0
M  V30 4562 C 457.821 2.39275 -2.65485 0
M  V30 4563 C 457.65 1.87679 -4.08664 0
M  V30 4564 C 456.42 1.70187 -4.75778 0
M  V30 4565 C 458.618 1.40409 -4.94762 0
M  V30 4566 N 456.6 1.13238 -6.03366 0
M  V30 4567 C 457.971 0.954216 -6.12613 0
M  V30 4568 C 460.026 1.28732 -4.8097 0
M  V30 4569 C 458.729 0.39915 -7.18192 0
M  V30 4570 C 460.755 0.746244 -5.86673 0
M  V30 4571 C 460.117 0.306457 -7.03733 0
M  V30 4572 H 456.216 0.460408 -0.632099 0
M  V30 4573 H 458.8 0.594913 -1.85388 0
M  V30 4574 H 456.971 3.05572 -2.3975 0
M  V30 4575 H 458.703 3.06308 -2.64495 0
M  V30 4576 H 455.458 1.93772 -4.32145 0
M  V30 4577 H 455.882 0.867687 -6.71417 0
M  V30 4578 H 460.524 1.61338 -3.90807 0
M  V30 4579 H 458.242 0.0607678 -8.08077 0
M  V30 4580 H 461.828 0.659041 -5.78055 0
M  V30 4581 H 460.708 -0.105708 -7.84129 0
M  V30 4582 N 458.211 1.37122 0.776871 0
M  V30 4583 C 459.459 1.31787 1.53221 0
M  V30 4584 C 459.78 -0.0987589 1.9475 0
M  V30 4585 O 459.05 -1.0417 1.65908 0
M  V30 4586 H 457.63 0.484839 0.568278 0
M  V30 4587 H 460.292 1.71556 0.924917 0
M  V30 4588 H 459.388 1.95355 2.43398 0
M  V30 4589 N 459.689 -1.00246 1.21608 0
M  V30 4590 C 460.599 -2.12515 0.993709 0
M  V30 4591 C 461.615 -1.73913 -0.0549939 0
M  V30 4592 O 462.791 -2.00943 0.135619 0
M  V30 4593 C 459.856 -3.42083 0.563953 0
M  V30 4594 C 458.917 -3.94843 1.68516 0
M  V30 4595 C 458.15 -5.18226 1.27582 0
M  V30 4596 O 458.373 -5.70201 0.150506 0
M  V30 4597 O 457.307 -5.64497 2.0887 0
M  V30 4598 H 461.133 -2.34152 1.93407 0
M  V30 4599 H 458.718 -1.10891 1.00118 0
M  V30 4600 H 460.6 -4.20073 0.334194 0
M  V30 4601 H 459.275 -3.21828 -0.347665 0
M  V30 4602 H 458.182 -3.18068 1.96935 0
M  V30 4603 H 459.515 -4.19512 2.5743 0
M  V30 4604 N 461.167 -1.02423 -1.1978 0
M  V30 4605 C 462.077 -0.610919 -2.26506 0
M  V30 4606 C 463.093 0.355152 -1.70337 0
M  V30 4607 O 464.269 0.214195 -2.00258 0
M  V30 4608 C 461.334 0.0365921 -3.46681 0
M  V30 4609 C 460.395 -0.976389 -4.18049 0
M  V30 4610 C 459.628 -0.359683 -5.32487 0
M  V30 4611 O 459.851 0.838601 -5.64202 0
M  V30 4612 O 458.785 -1.08022 -5.92127 0
M  V30 4613 H 462.611 -1.49965 -2.64091 0
M  V30 4614 H 460.196 -0.794156 -1.26545 0
M  V30 4615 H 462.078 0.39786 -4.19518 0
M  V30 4616 H 460.753 0.899398 -3.10954 0
M  V30 4617 H 459.66 -1.38916 -3.47352 0
M  V30 4618 H 460.993 -1.80941 -4.57735 0
M  V30 4619 N 462.645 1.35699 -0.801477 0
M  V30 4620 C 463.893 1.9852 -0.37871 0
M  V30 4621 C 464.214 1.63907 1.05638 0
M  V30 4622 O 463.484 0.919013 1.73006 0
M  V30 4623 H 462.064 0.734322 -0.137042 0
M  V30 4624 H 464.726 1.65697 -1.02619 0
M  V30 4625 H 463.822 3.08382 -0.480284 0
M  V30 4626 N 464.123 0.554532 1.47522 0
M  V30 4627 C 465.353 0.0342074 2.06572 0
M  V30 4628 C 465.761 -1.26375 1.40805 0
M  V30 4629 O 465.104 -1.7683 0.49769 0
M  V30 4630 C 465.166 -0.235096 3.5873 0
M  V30 4631 C 464.83 0.973024 4.46521 0
M  V30 4632 C 465.827 1.8779 4.848 0
M  V30 4633 C 463.512 1.18694 4.88075 0
M  V30 4634 C 465.506 2.98039 5.63428 0
M  V30 4635 C 463.193 2.29254 5.66468 0
M  V30 4636 C 464.191 3.18757 6.04055 0
M  V30 4637 O 463.879 4.27401 6.8087 0
M  V30 4638 H 463.611 0.041587 0.67472 0
M  V30 4639 H 466.165 0.766748 1.90552 0
M  V30 4640 H 464.395 -1.02191 3.72953 0
M  V30 4641 H 466.084 -0.700477 3.9981 0
M  V30 4642 H 466.85 1.72467 4.53299 0
M  V30 4643 H 462.729 0.49947 4.58286 0
M  V30 4644 H 466.273 3.67926 5.92685 0
M  V30 4645 H 462.17 2.4455 5.97382 0
M  V30 4646 H 462.938 4.25415 6.9926 0
M  V30 4647 N 465.601 -1.54893 0.290851 0
M  V30 4648 C 466.85 -1.99111 -0.322113 0
M  V30 4649 C 467.163 -1.18283 -1.55784 0
M  V30 4650 O 468.369 -1.5272 -2.24475 0
M  V30 4651 C 466.825 -3.54442 -0.624438 0
M  V30 4652 C 466.433 -4.44066 0.592373 0
M  V30 4653 C 468.177 -4.07211 -1.19916 0
M  V30 4654 C 466.084 -5.90812 0.263762 0
M  V30 4655 H 465.014 -0.743712 -0.124133 0
M  V30 4656 H 467.665 -1.79132 0.39797 0
M  V30 4657 H 466.047 -3.70281 -1.40384 0
M  V30 4658 H 467.221 -4.39999 1.36886 0
M  V30 4659 H 465.536 -4.02015 1.08502 0
M  V30 4660 H 468.133 -5.14407 -1.45909 0
M  V30 4661 H 468.476 -3.57196 -2.13815 0
M  V30 4662 H 469.009 -3.94873 -0.481687 0
M  V30 4663 H 465.748 -6.44955 1.17105 0
M  V30 4664 H 465.268 -5.97911 -0.475655 0
M  V30 4665 H 466.947 -6.46852 -0.138354 0
M  V30 4666 N 467.08 -0.0183926 -1.57589 0
M  V30 4667 C 468.496 0.337897 -1.55982 0
M  V30 4668 C 468.696 1.73604 -1.02294 0
M  V30 4669 O 467.752 2.43589 -0.664895 0
M  V30 4670 C 469.065 0.196305 -3.00059 0
M  V30 4671 C 470.613 0.269875 -3.11834 0
M  V30 4672 C 471.088 0.157197 -4.5773 0
M  V30 4673 N 472.579 0.214521 -4.62703 0
M  V30 4674 C 473.314 0.150955 -5.73201 0
M  V30 4675 N 472.81 0.0369212 -6.9279 0
M  V30 4676 N 474.603 0.204162 -5.61729 0
M  V30 4677 H 466.754 -0.93279 -1.90821 0
M  V30 4678 H 469.017 -0.359253 -0.877292 0
M  V30 4679 H 468.723 -0.766383 -3.43248 0
M  V30 4680 H 468.597 0.970908 -3.6449 0
M  V30 4681 H 470.984 1.22302 -2.68563 0
M  V30 4682 H 471.065 -0.534918 -2.50144 0
M  V30 4683 H 470.709 -0.792479 -5.01679 0
M  V30 4684 H 470.639 0.980717 -5.17387 0
M  V30 4685 H 473.13 0.303238 -3.76681 0
M  V30 4686 H 473.443 -0.00518321 -7.728 0
M  V30 4687 H 471.788 0.0022886 -6.95 0
M  V30 4688 H 474.979 0.291575 -4.67191 0
M  V30 4689 H 475.152 0.15116 -6.47824 0
M  V30 4690 N 468.558 1.5553 0.254621 0
M  V30 4691 C 469.807 1.76202 0.981612 0
M  V30 4692 C 470.12 0.580883 1.86776 0
M  V30 4693 O 471.326 0.670448 2.63092 0
M  V30 4694 C 469.782 3.11921 1.79537 0
M  V30 4695 C 469.39 4.37659 0.956991 0
M  V30 4696 C 471.134 3.41936 2.51555 0
M  V30 4697 C 469.041 5.64411 1.76619 0
M  V30 4698 H 467.971 0.656841 0.370237 0
M  V30 4699 H 470.622 1.81969 0.236556 0
M  V30 4700 H 469.004 3.00241 2.58208 0
M  V30 4701 H 470.178 4.60307 0.21315 0
M  V30 4702 H 468.493 4.14922 0.350497 0
M  V30 4703 H 471.09 4.33849 3.12536 0
M  V30 4704 H 471.433 2.62905 3.22779 0
M  V30 4705 H 471.966 3.54797 1.799 0
M  V30 4706 H 468.705 6.46241 1.09783 0
M  V30 4707 H 468.225 5.45877 2.48551 0
M  V30 4708 H 469.904 6.03386 2.33527 0
M  V30 4709 N 470.036 -0.519951 1.48776 0
M  V30 4710 C 470.999 -1.60574 1.6355 0
M  V30 4711 C 471.999 -1.52557 0.508234 0
M  V30 4712 O 473.189 -1.56047 0.774262 0
M  V30 4713 C 470.321 -3.00211 1.61512 0
M  V30 4714 H 471.514 -1.4881 2.60376 0
M  V30 4715 H 469.067 -0.742772 1.37523 0
M  V30 4716 H 469.802 -3.17471 0.662009 0
M  V30 4717 H 469.587 -3.07439 2.43359 0
M  V30 4718 H 471.077 -3.79134 1.75064 0
M  V30 4719 N 471.514 -1.37532 -0.769588 0
M  V30 4720 C 472.461 -1.3347 -1.88293 0
M  V30 4721 C 473.431 -0.199891 -1.64893 0
M  V30 4722 O 474.616 -0.389594 -1.8678 0
M  V30 4723 C 471.756 -1.14968 -3.25387 0
M  V30 4724 C 470.869 -2.37698 -3.60727 0
M  V30 4725 C 470.004 -2.12051 -4.8704 0
M  V30 4726 C 469.043 -3.30636 -5.15117 0
M  V30 4727 N 468.18 -3.04527 -6.3262 0
M  V30 4728 H 473.02 -2.28658 -1.911 0
M  V30 4729 H 470.557 -1.13622 -0.934257 0
M  V30 4730 H 472.515 -1.02261 -4.04473 0
M  V30 4731 H 471.145 -0.234263 -3.21949 0
M  V30 4732 H 470.197 -2.61137 -2.76608 0
M  V30 4733 H 471.509 -3.26131 -3.77413 0
M  V30 4734 H 470.663 -1.96388 -5.74035 0
M  V30 4735 H 469.402 -1.20959 -4.72462 0
M  V30 4736 H 468.407 -3.46836 -4.26597 0
M  V30 4737 H 469.632 -4.22582 -5.31603 0
M  V30 4738 H 467.578 -2.16067 -6.19396 0
M  V30 4739 H 467.495 -3.86503 -6.49732 0
M  V30 4740 H 468.763 -2.92485 -7.22546 0
M  V30 4741 N 472.992 0.995999 -1.22138 0
M  V30 4742 C 474.24 1.73167 -1.042 0
M  V30 4743 C 474.561 1.90329 0.42423 0
M  V30 4744 O 473.831 1.4607 1.30539 0
M  V30 4745 H 472.411 0.641593 -0.38258 0
M  V30 4746 H 475.073 1.19974 -1.53598 0
M  V30 4747 H 474.169 2.72734 -1.51731 0
M  V30 4748 N 474.47 1.03057 1.19235 0
M  V30 4749 C 475.695 0.74757 1.93458 0
M  V30 4750 C 476.12 -0.687648 1.7508 0
M  V30 4751 O 475.478 -1.47499 1.05422 0
M  V30 4752 C 475.526 1.10604 3.43219 0
M  V30 4753 O 474.63 0.225671 4.11782 0
M  V30 4754 H 473.971 0.276047 0.603899 0
M  V30 4755 H 476.501 1.3777 1.51263 0
M  V30 4756 H 476.511 1.06366 3.93891 0
M  V30 4757 H 475.186 2.15165 3.55917 0
M  V30 4758 H 473.763 0.326795 3.71465 0
M  V30 4759 N 475.948 -1.35272 0.808662 0
M  V30 4760 C 476.896 -2.31663 0.208606 0
M  V30 4761 C 477.89 -1.56731 -0.642778 0
M  V30 4762 O 479.096 -1.71843 -0.53571 0
M  V30 4763 H 475.471 -0.750421 0.0486993 0
M  V30 4764 H 477.442 -2.79814 1.03666 0
M  V30 4765 C 476.191 -3.42008 -0.626573 0
M  V30 4766 H 475.514 -3.99795 0.0192103 0
M  V30 4767 H 476.954 -4.11727 -1.01278 0
M  V30 4768 C 475.413 -2.85226 -1.79298 0
M  V30 4769 O 475.943 -2.78945 -2.89055 0
M  V30 4770 N 474.149 -2.42245 -1.60516 0
M  V30 4771 H 473.696 -2.47554 -0.712375 0
M  V30 4772 H 473.654 -2.04603 -2.38715 0
M  V30 4773 N 477.426 -0.562348 -1.47226 0
M  V30 4774 C 478.358 0.220011 -2.28142 0
M  V30 4775 C 479.371 0.874596 -1.37312 0
M  V30 4776 O 480.56 0.747583 -1.62091 0
M  V30 4777 C 477.66 1.32953 -3.11732 0
M  V30 4778 C 476.833 0.770759 -4.30556 0
M  V30 4779 C 475.892 1.76541 -4.95701 0
M  V30 4780 O 474.918 1.3095 -5.53932 0
M  V30 4781 N 476.12 3.09896 -4.90861 0
M  V30 4782 H 478.885 -0.474107 -2.95926 0
M  V30 4783 H 476.446 -0.398761 -1.56912 0
M  V30 4784 H 478.438 1.99378 -3.5218 0
M  V30 4785 H 477.008 1.92681 -2.46156 0
M  V30 4786 H 476.228 -0.0704056 -3.94137 0
M  V30 4787 H 477.516 0.376872 -5.07402 0
M  V30 4788 H 476.914 3.49577 -4.44761 0
M  V30 4789 H 475.471 3.71865 -5.35313 0
M  V30 4790 N 478.904 1.54736 -0.299062 0
M  V30 4791 C 480.144 2.0201 0.31168 0
M  V30 4792 C 480.508 1.18281 1.5124 0
M  V30 4793 O 481.709 1.55243 2.19438 0
M  V30 4794 C 479.98 3.5123 0.661227 0
M  V30 4795 S 481.539 4.20467 1.2551 0
M  V30 4796 H 478.357 0.704523 0.0957517 0
M  V30 4797 H 480.959 1.90791 -0.426482 0
M  V30 4798 H 479.663 4.09804 -0.221171 0
M  V30 4799 H 479.194 3.66481 1.43023 0
M  V30 4800 H 481.209 4.26083 2.54298 0
M  V30 4801 N 480.382 0.0267497 1.57577 0
M  V30 4802 C 481.312 -0.954308 2.13108 0
M  V30 4803 C 482.293 -1.34088 1.04663 0
M  V30 4804 O 483.478 -1.41992 1.32484 0
M  V30 4805 C 480.608 -2.23744 2.65624 0
M  V30 4806 C 479.562 -1.99168 3.78835 0
M  V30 4807 C 478.888 -3.33726 4.17769 0
M  V30 4808 C 480.188 -1.33277 5.0501 0
M  V30 4809 H 481.882 -0.491848 2.95332 0
M  V30 4810 H 479.428 -0.23514 1.42067 0
M  V30 4811 H 481.381 -2.92754 3.03106 0
M  V30 4812 H 480.105 -2.72151 1.80558 0
M  V30 4813 H 478.764 -1.32577 3.41788 0
M  V30 4814 H 478.412 -3.79888 3.29688 0
M  V30 4815 H 478.112 -3.18089 4.94058 0
M  V30 4816 H 479.636 -4.04008 4.57832 0
M  V30 4817 H 481.05 -1.92283 5.40093 0
M  V30 4818 H 479.447 -1.28045 5.8628 0
M  V30 4819 H 480.517 -0.305411 4.83937 0
M  V30 4820 N 481.861 -1.55662 -0.24637 0
M  V30 4821 C 483.107 -1.77782 -0.975779 0
M  V30 4822 C 483.44 -0.592103 -1.84953 0
M  V30 4823 O 482.715 0.409588 -1.90138 0
M  V30 4824 C 482.998 -3.09788 -1.83584 0
M  V30 4825 C 482.851 -4.38764 -0.990241 0
M  V30 4826 C 484.17 -3.38029 -2.81823 0
M  V30 4827 H 481.289 -0.646789 -0.353317 0
M  V30 4828 H 483.931 -1.88398 -0.246248 0
M  V30 4829 H 482.081 -3.00869 -2.45784 0
M  V30 4830 H 483.753 -4.59675 -0.386897 0
M  V30 4831 H 481.996 -4.32798 -0.294626 0
M  V30 4832 H 482.667 -5.27514 -1.62584 0
M  V30 4833 H 485.143 -3.46915 -2.2976 0
M  V30 4834 H 484.019 -4.3161 -3.39122 0
M  V30 4835 H 484.28 -2.58968 -3.58313 0
M  V30 4836 N 483.339 0.512053 -1.4905 0
M  V30 4837 C 484.286 1.6148 -1.64902 0
M  V30 4838 C 485.256 1.58687 -0.490673 0
M  V30 4839 O 486.441 1.76842 -0.71636 0
M  V30 4840 C 483.581 2.99676 -1.71139 0
M  V30 4841 C 482.694 3.12568 -2.98203 0
M  V30 4842 C 481.829 4.4143 -2.95487 0
M  V30 4843 C 480.868 4.47916 -4.17179 0
M  V30 4844 N 480.005 5.68191 -4.12437 0
M  V30 4845 H 484.845 1.47271 -2.59066 0
M  V30 4846 H 482.382 0.716713 -1.28459 0
M  V30 4847 H 484.34 3.79761 -1.72736 0
M  V30 4848 H 482.97 3.12614 -0.804508 0
M  V30 4849 H 482.022 2.25618 -3.06269 0
M  V30 4850 H 483.334 3.1322 -3.88194 0
M  V30 4851 H 482.488 5.29825 -2.95585 0
M  V30 4852 H 481.227 4.43326 -2.03256 0
M  V30 4853 H 480.232 3.57925 -4.17337 0
M  V30 4854 H 481.457 4.47744 -5.1059 0
M  V30 4855 H 479.403 5.7095 -3.23036 0
M  V30 4856 H 479.32 5.70413 -4.96151 0
M  V30 4857 H 480.588 6.58823 -4.16621 0
M  V30 4858 N 484.817 1.37938 0.762283 0
M  V30 4859 C 485.727 1.36681 1.90671 0
M  V30 4860 C 486.743 0.265078 1.71969 0
M  V30 4861 O 487.919 0.502055 1.95042 0
M  V30 4862 C 484.984 1.18211 3.25925 0
M  V30 4863 C 484.045 2.3811 3.57214 0
M  V30 4864 C 483.278 2.20512 4.86014 0
M  V30 4865 O 483.501 1.19429 5.57757 0
M  V30 4866 O 482.435 3.08911 5.16583 0
M  V30 4867 H 486.261 2.33091 1.94685 0
M  V30 4868 H 483.846 1.18767 0.906356 0
M  V30 4869 H 485.728 1.09937 4.06807 0
M  V30 4870 H 484.403 0.248807 3.22742 0
M  V30 4871 H 483.31 2.51958 2.76529 0
M  V30 4872 H 484.643 3.30041 3.65149 0
M  V30 4873 N 486.295 -0.989507 1.22664 0
M  V30 4874 C 487.205 -2.11449 1.01619 0
M  V30 4875 C 488.221 -1.73962 -0.036545 0
M  V30 4876 O 489.397 -2.00788 0.156924 0
M  V30 4877 C 486.462 -3.41465 0.600204 0
M  V30 4878 C 485.523 -3.93033 1.72695 0
M  V30 4879 C 484.756 -5.16844 1.33071 0
M  V30 4880 O 484.979 -5.7001 0.210975 0
M  V30 4881 O 483.913 -5.6225 2.14845 0
M  V30 4882 H 487.739 -2.32088 1.9588 0
M  V30 4883 H 485.324 -1.09823 1.01289 0
M  V30 4884 H 487.206 -4.19695 0.37873 0
M  V30 4885 H 485.881 -3.22178 -0.313511 0
M  V30 4886 H 484.788 -3.15961 2.00298 0
M  V30 4887 H 486.121 -4.16758 2.61865 0
M  V30 4888 N 487.773 -1.03688 -1.18687 0
M  V30 4889 C 488.736 -0.629115 -2.20397 0
M  V30 4890 C 489.736 0.311495 -1.57754 0
M  V30 4891 O 490.926 0.0974107 -1.73927 0
M  V30 4892 C 488.058 0.0782231 -3.4081 0
M  V30 4893 H 489.251 -1.52915 -2.57987 0
M  V30 4894 H 486.804 -0.828988 -1.32505 0
M  V30 4895 H 487.539 0.992233 -3.08748 0
M  V30 4896 H 487.324 -0.597776 -3.87517 0
M  V30 4897 H 488.814 0.350156 -4.16129 0
M  V30 4898 N 489.251 1.34841 -0.815825 0
M  V30 4899 C 490.476 2.03261 -0.41226 0
M  V30 4900 C 490.901 1.61055 0.971751 0
M  V30 4901 O 490.259 0.7917 1.63101 0
M  V30 4902 C 490.307 3.56914 -0.514289 0
M  V30 4903 O 489.411 4.09728 0.468675 0
M  V30 4904 H 488.752 0.641664 -0.170771 0
M  V30 4905 H 491.282 1.72241 -1.10427 0
M  V30 4906 H 491.292 4.06156 -0.387457 0
M  V30 4907 H 489.967 3.86982 -1.52375 0
M  V30 4908 H 488.544 3.71681 0.301316 0
M  V30 4909 N 490.729 0.570148 1.46925 0
M  V30 4910 C 491.954 0.0542592 2.07329 0
M  V30 4911 C 492.379 -1.23582 1.41806 0
M  V30 4912 O 491.737 -1.74341 0.497479 0
M  V30 4913 C 491.785 -0.111175 3.60429 0
M  V30 4914 O 490.889 -1.17071 3.95434 0
M  V30 4915 H 490.23 0.0571425 0.661537 0
M  V30 4916 H 492.76 0.789516 1.88753 0
M  V30 4917 H 492.77 -0.321315 4.06733 0
M  V30 4918 H 491.445 0.831012 4.07513 0
M  V30 4919 H 490.022 -0.940029 3.60857 0
M  V30 4920 N 492.207 -1.54576 0.307264 0
M  V30 4921 C 493.17 -2.22423 -0.553224 0
M  V30 4922 C 494.17 -1.21231 -1.05639 0
M  V30 4923 O 495.36 -1.45923 -0.951419 0
M  V30 4924 C 492.492 -2.91552 -1.76664 0
M  V30 4925 H 493.685 -2.99874 0.0396484 0
M  V30 4926 H 491.238 -1.56192 0.0581629 0
M  V30 4927 H 491.973 -2.18196 -2.39918 0
M  V30 4928 H 491.758 -3.65738 -1.41343 0
M  V30 4929 H 493.248 -3.43292 -2.37783 0
M  V30 4930 N 493.685 -0.035106 -1.57561 0
M  V30 4931 C 494.931 0.64318 -1.92331 0
M  V30 4932 C 495.264 1.71434 -0.912368 0
M  V30 4933 O 494.539 1.94395 0.0640303 0
M  V30 4934 C 494.822 1.25411 -3.37556 0
M  V30 4935 C 494.675 0.192109 -4.4939 0
M  V30 4936 C 495.994 2.17041 -3.82859 0
M  V30 4937 H 493.113 0.232341 -0.699419 0
M  V30 4938 H 495.755 -0.0935889 -1.89769 0
M  V30 4939 H 493.905 1.88205 -3.39869 0
M  V30 4940 H 495.577 -0.438849 -4.59208 0
M  V30 4941 H 493.82 -0.481725 -4.31117 0
M  V30 4942 H 494.491 0.659292 -5.48049 0
M  V30 4943 H 496.967 1.64228 -3.8232 0
M  V30 4944 H 495.843 2.56738 -4.85157 0
M  V30 4945 H 496.104 3.06401 -3.18702 0
M  V30 4946 N 495.163 1.55791 0.238111 0
M  V30 4947 C 496.409 1.78297 0.966337 0
M  V30 4948 C 496.742 0.601903 1.84637 0
M  V30 4949 O 496.017 -0.399499 1.90353 0
M  V30 4950 C 496.3 3.10758 1.81939 0
M  V30 4951 C 496.153 4.39283 0.966958 0
M  V30 4952 C 497.472 3.39519 2.80027 0
M  V30 4953 H 494.591 0.648654 0.349882 0
M  V30 4954 H 497.233 1.88525 0.236253 0
M  V30 4955 H 495.383 3.02168 2.44185 0
M  V30 4956 H 497.055 4.59873 0.362514 0
M  V30 4957 H 495.298 4.32948 0.271669 0
M  V30 4958 H 495.969 5.28368 1.59784 0
M  V30 4959 H 498.445 3.48128 2.27917 0
M  V30 4960 H 497.321 4.33402 3.36829 0
M  V30 4961 H 497.582 2.60864 3.56934 0
M  V30 4962 N 496.642 -0.504142 1.49319 0
M  V30 4963 C 497.89 -1.25598 1.58334 0
M  V30 4964 C 498.211 -1.93114 0.270538 0
M  V30 4965 O 497.481 -1.82585 -0.709891 0
M  V30 4966 H 496.061 -0.466571 0.58337 0
M  V30 4967 H 498.723 -0.584547 1.85928 0
M  V30 4968 H 497.819 -2.02159 2.37778 0
M  V30 4969 N 498.12 -1.38341 -0.754957 0
M  V30 4970 C 499.368 -1.34208 -1.51105 0
M  V30 4971 C 499.689 0.0677634 -1.94882 0
M  V30 4972 O 498.959 1.01517 -1.67544 0
M  V30 4973 H 497.539 -0.493819 -0.560493 0
M  V30 4974 H 500.201 -1.73005 -0.897507 0
M  V30 4975 H 499.297 -1.99203 -2.4026 0
M  V30 4976 N 499.598 0.982988 -1.23187 0
M  V30 4977 C 501.009 1.53847 -1.05773 0
M  V30 4978 C 501.36 1.92568 0.375744 0
M  V30 4979 O 500.485 1.75783 1.26211 0
M  V30 4980 C 501.08 2.79567 -1.91384 0
M  V30 4981 C 499.639 3.31524 -1.78238 0
M  V30 4982 C 498.786 2.04534 -1.87246 0
M  V30 4983 H 501.737 0.802962 -1.36888 0
M  V30 4984 H 501.758 3.52317 -1.43711 0
M  V30 4985 H 501.27 2.51353 -2.95708 0
M  V30 4986 H 499.371 3.64623 -0.766875 0
M  V30 4987 H 499.484 4.01457 -2.61475 0
M  V30 4988 H 497.848 2.1855 -1.30797 0
M  V30 4989 H 498.631 1.78706 -2.9312 0
M  V30 4990 N 501.076 1.04316 1.18135 0
M  V30 4991 C 502.324 0.746542 1.87806 0
M  V30 4992 C 502.645 -0.728082 1.80898 0
M  V30 4993 O 501.915 -1.52554 1.22899 0
M  V30 4994 H 500.495 0.273157 0.695265 0
M  V30 4995 H 503.157 1.32044 1.43354 0
M  V30 4996 H 502.253 1.05362 2.93778 0
M  V30 4997 N 502.554 -1.34406 0.822964 0
M  V30 4998 C 503.965 -1.8069 0.469879 0
M  V30 4999 C 504.316 -1.68223 -1.00972 0
M  V30 5000 O 503.441 -1.22226 -1.78577 0
M  V30 5001 C 504.036 -3.28064 0.846118 0
M  V30 5002 C 502.595 -3.72428 0.545402 0
M  V30 5003 C 501.742 -2.56116 1.06301 0
M  V30 5004 H 504.693 -1.22153 1.01313 0
M  V30 5005 H 504.714 -3.80205 0.149922 0
M  V30 5006 H 504.226 -3.37107 1.92304 0
M  V30 5007 H 502.327 -3.68924 -0.522109 0
M  V30 5008 H 502.44 -4.66548 1.0895 0
M  V30 5009 H 500.804 -2.50048 0.484554 0
M  V30 5010 H 501.587 -2.67928 2.14638 0
M  V30 5011 N 504.032 -0.577932 -1.46621 0
M  V30 5012 C 505.26 -0.0671642 -2.06791 0
M  V30 5013 C 505.675 1.23571 -1.42743 0
M  V30 5014 O 505.032 1.74602 -0.531062 0
M  V30 5015 C 505.083 0.110357 -3.61332 0
M  V30 5016 O 504.804 -1.14095 -4.22982 0
M  V30 5017 C 506.305 0.656025 -4.38419 0
M  V30 5018 H 503.525 -0.0552732 -0.66872 0
M  V30 5019 H 506.069 -0.797242 -1.8832 0
M  V30 5020 H 504.224 0.790637 -3.79246 0
M  V30 5021 H 504.638 -0.951742 -5.15793 0
M  V30 5022 H 506.112 0.729438 -5.47159 0
M  V30 5023 H 506.589 1.67195 -4.06131 0
M  V30 5024 H 507.195 0.0107692 -4.25299 0
M  V30 5025 N 505.51 1.54411 -0.315457 0
M  V30 5026 C 506.921 1.85885 0.174265 0
M  V30 5027 C 507.272 1.23723 1.52273 0
M  V30 5028 O 506.397 0.540246 2.09548 0
M  V30 5029 C 506.992 3.37257 0.322981 0
M  V30 5030 C 505.551 3.68711 0.756922 0
M  V30 5031 C 504.698 2.77013 -0.126195 0
M  V30 5032 H 507.649 1.49374 -0.536007 0
M  V30 5033 H 507.67 3.62539 1.15522 0
M  V30 5034 H 507.182 3.82471 -0.658602 0
M  V30 5035 H 505.283 3.29024 1.74854 0
M  V30 5036 H 505.396 4.75741 0.566291 0
M  V30 5037 H 503.76 2.51588 0.39692 0
M  V30 5038 H 504.543 3.25051 -1.1044 0
M  V30 5039 N 506.988 0.0434614 1.5754 0
M  V30 5040 C 507.898 -0.94893 2.14552 0
M  V30 5041 C 508.914 -1.34707 1.10136 0
M  V30 5042 O 510.09 -1.42557 1.42266 0
M  V30 5043 C 507.155 -2.208 2.67298 0
M  V30 5044 C 506.216 -1.86893 3.86484 0
M  V30 5045 C 505.449 -3.06797 4.36705 0
M  V30 5046 O 505.672 -4.19921 3.86034 0
M  V30 5047 O 504.606 -2.8826 5.28384 0
M  V30 5048 H 508.432 -0.494099 2.99654 0
M  V30 5049 H 506.017 -0.177989 1.48336 0
M  V30 5050 H 507.899 -2.94686 3.01228 0
M  V30 5051 H 506.574 -2.65436 1.85272 0
M  V30 5052 H 505.481 -1.10347 3.57455 0
M  V30 5053 H 506.814 -1.47062 4.69716 0
M  V30 5054 N 508.466 -1.55915 -0.229846 0
M  V30 5055 C 509.877 -1.68809 -0.797531 0
M  V30 5056 C 510.228 -0.643995 -1.8533 0
M  V30 5057 O 509.353 0.206492 -2.15413 0
M  V30 5058 C 509.948 -3.06043 -1.45338 0
M  V30 5059 C 508.507 -3.20819 -1.96856 0
M  V30 5060 C 507.654 -2.6472 -0.825736 0
M  V30 5061 H 510.605 -1.58699 -0.00533733 0
M  V30 5062 H 510.626 -3.01438 -2.32196 0
M  V30 5063 H 510.138 -3.82012 -0.684743 0
M  V30 5064 H 508.239 -2.49704 -2.76548 0
M  V30 5065 H 508.352 -4.27937 -2.15423 0
M  V30 5066 H 506.716 -2.22985 -1.23084 0
M  V30 5067 H 507.499 -3.43229 -0.0699019 0
M  V30 5068 N 509.944 0.496216 -1.49584 0
M  V30 5069 C 511.172 1.27394 -1.63029 0
M  V30 5070 C 511.587 1.86344 -0.303569 0
M  V30 5071 O 510.944 1.68057 0.711547 0
M  V30 5072 C 510.995 2.40077 -2.70269 0
M  V30 5073 O 510.716 1.83549 -3.97796 0
M  V30 5074 C 512.217 3.31372 -2.94462 0
M  V30 5075 H 509.437 0.386211 -0.54871 0
M  V30 5076 H 511.981 0.595163 -1.95648 0
M  V30 5077 H 510.136 3.03775 -2.40415 0
M  V30 5078 H 510.55 2.57561 -4.56905 0
M  V30 5079 H 512.024 4.06707 -3.73221 0
M  V30 5080 H 512.501 3.88654 -2.0456 0
M  V30 5081 H 513.107 2.73435 -3.25751 0
M  V30 5082 N 511.423 1.38739 0.74761 0
M  V30 5083 C 512.651 1.38521 1.53686 0
M  V30 5084 C 513.066 -0.0235129 1.88785 0
M  V30 5085 O 512.423 -0.991662 1.53207 0
M  V30 5086 C 512.474 2.24641 2.83229 0
M  V30 5087 O 512.195 3.60026 2.49625 0
M  V30 5088 C 513.696 2.32669 3.77333 0
M  V30 5089 H 510.916 0.473589 0.475347 0
M  V30 5090 H 513.46 1.82395 0.924786 0
M  V30 5091 H 511.615 1.84213 3.40799 0
M  V30 5092 H 512.029 4.05435 3.3275 0
M  V30 5093 H 513.503 2.97201 4.65162 0
M  V30 5094 H 513.98 1.3421 4.18192 0
M  V30 5095 H 514.586 2.73512 3.25685 0
M  V30 5096 N 512.901 -0.976442 1.23707 0
M  V30 5097 C 514.129 -1.75341 1.09833 0
M  V30 5098 C 514.544 -1.8553 -0.349885 0
M  V30 5099 O 513.901 -1.33732 -1.24185 0
M  V30 5100 C 513.952 -3.17833 1.72233 0
M  V30 5101 O 513.673 -3.08167 3.11391 0
M  V30 5102 C 515.174 -4.11906 1.63853 0
M  V30 5103 H 512.394 -0.550137 0.384175 0
M  V30 5104 H 514.938 -1.2265 1.63638 0
M  V30 5105 H 513.093 -3.67538 1.22452 0
M  V30 5106 H 513.507 -3.97897 3.41729 0
M  V30 5107 H 514.981 -5.09579 2.12211 0
M  V30 5108 H 515.458 -4.35109 0.598092 0
M  V30 5109 H 516.064 -3.68107 2.13019 0
M  V30 5110 N 514.379 -1.04941 -1.1758 0
M  V30 5111 C 515.607 -0.778294 -1.91703 0
M  V30 5112 C 516.022 0.665697 -1.76675 0
M  V30 5113 O 515.379 1.45456 -1.10222 0
M  V30 5114 C 515.43 -1.14628 -3.42845 0
M  V30 5115 O 515.151 -2.53359 -3.57409 0
M  V30 5116 C 516.652 -0.900931 -4.34049 0
M  V30 5117 H 513.872 -0.283167 -0.608323 0
M  V30 5118 H 516.416 -1.39942 -1.49119 0
M  V30 5119 H 514.571 -0.569953 -3.83184 0
M  V30 5120 H 514.985 -2.67709 -4.51035 0
M  V30 5121 H 516.459 -1.20817 -5.38616 0
M  V30 5122 H 516.936 0.163966 -4.38894 0
M  V30 5123 H 517.542 -1.46097 -3.99419 0
M  V30 5124 N 515.857 1.33968 -0.830081 0
M  V30 5125 C 517.085 2.0228 -0.434773 0
M  V30 5126 C 517.5 1.62487 0.961419 0
M  V30 5127 O 516.857 0.833849 1.62337 0
M  V30 5128 C 516.908 3.5751 -0.535625 0
M  V30 5129 O 516.629 3.95864 -1.87679 0
M  V30 5130 C 518.13 4.43091 -0.136137 0
M  V30 5131 H 515.35 0.648151 -0.173613 0
M  V30 5132 H 517.894 1.71089 -1.12022 0
M  V30 5133 H 516.049 3.87266 0.101817 0
M  V30 5134 H 516.463 4.9056 -1.85609 0
M  V30 5135 H 517.937 5.51398 -0.257772 0
M  V30 5136 H 518.414 4.29433 0.921076 0
M  V30 5137 H 519.02 4.18677 -0.747662 0
M  V30 5138 N 517.335 0.585699 1.46312 0
M  V30 5139 C 518.563 0.0781299 2.06752 0
M  V30 5140 C 518.978 -1.22812 1.43396 0
M  V30 5141 O 518.335 -1.74318 0.540314 0
M  V30 5142 C 518.386 -0.0911927 3.61385 0
M  V30 5143 O 518.107 1.16336 4.22371 0
M  V30 5144 C 519.608 -0.632765 4.38761 0
M  V30 5145 H 516.828 0.0588188 0.668417 0
M  V30 5146 H 519.372 0.807218 1.87894 0
M  V30 5147 H 517.527 -0.770514 3.7966 0
M  V30 5148 H 517.941 0.979082 5.15281 0
M  V30 5149 H 519.415 -0.70041 5.47538 0
M  V30 5150 H 519.892 -1.65039 4.07012 0
M  V30 5151 H 520.498 0.0117856 4.25298 0
M  V30 5152 N 518.813 -1.54241 0.323641 0
M  V30 5153 C 520.038 -2.05452 -0.283605 0
M  V30 5154 C 520.463 -1.19823 -1.44997 0
M  V30 5155 O 519.821 -0.207358 -1.8011 0
M  V30 5156 C 519.869 -3.53823 -0.695795 0
M  V30 5157 O 518.973 -3.71134 -1.79815 0
M  V30 5158 H 518.314 -0.662024 -0.0511917 0
M  V30 5159 H 520.844 -1.99079 0.472073 0
M  V30 5160 H 520.854 -3.96094 -0.978434 0
M  V30 5161 H 519.529 -4.15602 0.157287 0
M  V30 5162 H 518.106 -3.40768 -1.51431 0
M  V30 5163 N 520.291 -0.0518155 -1.57515 0
M  V30 5164 C 521.254 0.907547 -2.10467 0
M  V30 5165 C 522.254 1.23947 -1.02439 0
M  V30 5166 O 523.444 1.17604 -1.2851 0
M  V30 5167 C 520.576 2.21723 -2.58944 0
M  V30 5168 H 521.769 0.44851 -2.96527 0
M  V30 5169 H 519.322 0.196598 -1.55059 0
M  V30 5170 H 520.057 2.72206 -1.76279 0
M  V30 5171 H 519.842 1.98935 -3.37886 0
M  V30 5172 H 521.332 2.90441 -3.00056 0
M  V30 5173 N 521.769 1.56035 0.221574 0
M  V30 5174 C 523.18 1.69229 0.788567 0
M  V30 5175 C 523.531 0.653814 1.84986 0
M  V30 5176 O 522.656 -0.195065 2.15519 0
M  V30 5177 C 523.251 3.06809 1.43713 0
M  V30 5178 C 521.81 3.21858 1.95152 0
M  V30 5179 C 520.957 2.65155 0.811685 0
M  V30 5180 H 523.908 1.587 -0.00307894 0
M  V30 5181 H 523.929 3.02666 2.30594 0
M  V30 5182 H 523.441 3.82369 0.664475 0
M  V30 5183 H 521.542 2.51167 2.7522 0
M  V30 5184 H 521.655 4.29073 2.1315 0
M  V30 5185 H 520.019 2.23635 1.21899 0
M  V30 5186 H 520.802 3.43261 0.0516987 0
M  V30 5187 N 523.247 -0.488276 1.49845 0
M  V30 5188 C 524.495 -1.23911 1.59657 0
M  V30 5189 C 524.816 -1.92816 0.291005 0
M  V30 5190 O 524.086 -1.83328 -0.690485 0
M  V30 5191 H 522.666 -0.460357 0.588286 0
M  V30 5192 H 525.328 -0.564794 1.86537 0
M  V30 5193 H 524.424 -1.99625 2.39909 0
M  V30 5194 N 524.725 -1.39134 -0.740242 0
M  V30 5195 C 526.136 -1.32208 -1.31825 0
M  V30 5196 C 526.487 0.0159919 -1.96193 0
M  V30 5197 O 525.612 0.918111 -1.95958 0
M  V30 5198 C 526.207 -2.39436 -2.39699 0
M  V30 5199 C 524.766 -2.36048 -2.93187 0
M  V30 5200 C 523.913 -2.21599 -1.66701 0
M  V30 5201 H 526.864 -1.49298 -0.538133 0
M  V30 5202 H 526.885 -2.05922 -3.19963 0
M  V30 5203 H 526.397 -3.36811 -1.92821 0
M  V30 5204 H 524.498 -1.42295 -3.44359 0
M  V30 5205 H 524.611 -3.30704 -3.46658 0
M  V30 5206 H 522.975 -1.68681 -1.90837 0
M  V30 5207 H 523.758 -3.20936 -1.21882 0
M  V30 5208 N 526.204 0.969867 -1.24223 0
M  V30 5209 C 527.429 1.75289 -1.10853 0
M  V30 5210 C 527.854 1.85091 0.335079 0
M  V30 5211 O 527.212 1.32024 1.24255 0
M  V30 5212 C 527.26 3.15255 -1.75062 0
M  V30 5213 O 526.364 3.99589 -1.01992 0
M  V30 5214 H 525.705 0.538904 -0.387915 0
M  V30 5215 H 528.235 1.21675 -1.64488 0
M  V30 5216 H 528.245 3.65787 -1.80731 0
M  V30 5217 H 526.92 3.07436 -2.801 0
M  V30 5218 H 525.497 3.58077 -1.04094 0
M  V30 5219 N 527.682 1.05563 1.17022 0
M  V30 5220 C 529.093 0.793475 1.69 0
M  V30 5221 C 529.444 -0.683882 1.83895 0
M  V30 5222 O 528.569 -1.53116 1.5292 0
M  V30 5223 C 529.164 1.43376 3.06967 0
M  V30 5224 C 527.723 1.21956 3.56095 0
M  V30 5225 C 526.87 1.51494 2.3226 0
M  V30 5226 H 529.821 1.22008 1.01487 0
M  V30 5227 H 529.842 0.845068 3.70997 0
M  V30 5228 H 529.354 2.50899 2.96093 0
M  V30 5229 H 527.455 0.163749 3.7224 0
M  V30 5230 H 527.568 1.92713 4.38633 0
M  V30 5231 H 525.932 0.935175 2.3691 0
M  V30 5232 H 526.715 2.60159 2.23992 0
M  V30 5233 N 529.16 -1.33526 0.837174 0
M  V30 5234 C 530.385 -2.0258 0.444545 0
M  V30 5235 C 530.81 -1.6258 -0.946006 0
M  V30 5236 O 530.168 -0.817548 -1.6182 0
M  V30 5237 C 530.216 -3.5605 0.571006 0
M  V30 5238 O 529.32 -4.10422 -0.403431 0
M  V30 5239 H 528.661 -0.638866 0.180958 0
M  V30 5240 H 531.191 -1.70462 1.13154 0
M  V30 5241 H 531.201 -4.05488 0.452024 0
M  V30 5242 H 529.876 -3.84509 1.58512 0
M  V30 5243 H 528.453 -3.72113 -0.242147 0
M  V30 5244 N 530.638 -0.59345 -1.46 0
M  V30 5245 C 531.868 -0.0889642 -2.06408 0
M  V30 5246 C 532.276 1.22597 -1.44106 0
M  V30 5247 O 531.619 1.75448 -0.544398 0
M  V30 5248 C 531.681 0.139902 -3.59228 0
M  V30 5249 C 531.345 -1.09107 -4.43784 0
M  V30 5250 C 532.342 -2.00577 -4.79651 0
M  V30 5251 C 530.027 -1.31593 -4.84756 0
M  V30 5252 C 532.021 -3.12873 -5.55328 0
M  V30 5253 C 529.708 -2.44192 -5.60191 0
M  V30 5254 C 530.706 -3.34661 -5.95392 0
M  V30 5255 O 530.394 -4.45302 -6.69299 0
M  V30 5256 H 530.126 -0.0594613 -0.67338 0
M  V30 5257 H 532.68 -0.817 -1.88452 0
M  V30 5258 H 530.91 0.922672 -3.75531 0
M  V30 5259 H 532.599 0.594228 -4.01527 0
M  V30 5260 H 533.365 -1.84425 -4.48567 0
M  V30 5261 H 529.244 -0.620801 -4.56801 0
M  V30 5262 H 532.788 -3.83511 -5.82722 0
M  V30 5263 H 528.685 -2.60303 -5.90688 0
M  V30 5264 H 529.453 -4.43805 -6.87735 0
M  V30 5265 N 532.116 1.54067 -0.331816 0
M  V30 5266 C 533.363 2.00715 0.268269 0
M  V30 5267 C 533.691 1.21986 1.51491 0
M  V30 5268 O 532.946 0.292309 1.93505 0
M  V30 5269 C 533.245 3.51634 0.639392 0
M  V30 5270 C 532.911 4.48018 -0.509019 0
M  V30 5271 C 531.573 4.74089 -0.824209 0
M  V30 5272 C 533.925 5.05237 -1.28003 0
M  V30 5273 C 531.253 5.54637 -1.91298 0
M  V30 5274 C 533.605 5.86972 -2.35895 0
M  V30 5275 C 532.269 6.11342 -2.67987 0
M  V30 5276 H 531.539 0.734469 0.0981667 0
M  V30 5277 H 534.186 1.8596 -0.457304 0
M  V30 5278 H 532.491 3.6416 1.44551 0
M  V30 5279 H 534.188 3.85175 1.11539 0
M  V30 5280 H 530.778 4.27851 -0.253287 0
M  V30 5281 H 534.962 4.8507 -1.04978 0
M  V30 5282 H 530.218 5.71747 -2.16599 0
M  V30 5283 H 534.392 6.30327 -2.96076 0
M  V30 5284 H 532.019 6.73544 -3.5248 0
M  V30 5285 N 533.594 0.0601682 1.57485 0
M  V30 5286 C 534.84 -0.612501 1.93329 0
M  V30 5287 C 535.173 -1.6996 0.939526 0
M  V30 5288 O 534.448 -1.94472 -0.0330957 0
M  V30 5289 C 534.731 -1.20025 3.39508 0
M  V30 5290 C 534.584 -0.12059 4.49638 0
M  V30 5291 C 535.903 -2.10923 3.86264 0
M  V30 5292 H 533.022 -0.221185 0.703027 0
M  V30 5293 H 535.664 0.123768 1.89596 0
M  V30 5294 H 533.814 -1.82774 3.42821 0
M  V30 5295 H 535.486 0.51185 4.58452 0
M  V30 5296 H 533.729 0.550251 4.30296 0
M  V30 5297 H 534.4 -0.572019 5.49028 0
M  V30 5298 H 536.876 -1.58124 3.84884 0
M  V30 5299 H 535.752 -2.48987 4.8918 0
M  V30 5300 H 536.013 -3.01292 3.23536 0
M  V30 5301 N 535.072 -1.5615 -0.213296 0
M  V30 5302 C 536.004 -1.89586 -1.28802 0
M  V30 5303 C 537.017 -0.784844 -1.42633 0
M  V30 5304 O 538.206 -1.06319 -1.43383 0
M  V30 5305 C 535.306 -2.09665 -2.66259 0
M  V30 5306 C 534.479 -3.40726 -2.7427 0
M  V30 5307 C 533.538 -3.50137 -3.92798 0
M  V30 5308 O 532.564 -4.23105 -3.8075 0
M  V30 5309 N 533.766 -2.81886 -5.07465 0
M  V30 5310 H 536.531 -2.82368 -1.00442 0
M  V30 5311 H 534.092 -1.56796 -0.403302 0
M  V30 5312 H 536.084 -2.13268 -3.43946 0
M  V30 5313 H 534.654 -1.23469 -2.87183 0
M  V30 5314 H 533.874 -3.4915 -1.82997 0
M  V30 5315 H 535.162 -4.27048 -2.76599 0
M  V30 5316 H 534.56 -2.22397 -5.2015 0
M  V30 5317 H 533.117 -2.91139 -5.83165 0
M  V30 5318 N 536.55 0.480323 -1.50102 0
M  V30 5319 C 537.483 1.59789 -1.62919 0
M  V30 5320 C 538.461 1.55429 -0.477557 0
M  V30 5321 O 539.645 1.75186 -0.695851 0
M  V30 5322 C 536.772 2.98351 -1.60325 0
M  V30 5323 C 535.818 3.20899 -2.80938 0
M  V30 5324 S 536.651 3.01791 -4.4236 0
M  V30 5325 C 537.807 4.42712 -4.42444 0
M  V30 5326 H 538.04 1.48676 -2.57454 0
M  V30 5327 H 535.573 0.666996 -1.3925 0
M  V30 5328 H 537.531 3.7824 -1.59514 0
M  V30 5329 H 536.192 3.06862 -0.670419 0
M  V30 5330 H 535.385 4.22102 -2.75401 0
M  V30 5331 H 534.987 2.48768 -2.79268 0
M  V30 5332 H 537.279 5.3518 -4.15438 0
M  V30 5333 H 538.222 4.53294 -5.43995 0
M  V30 5334 H 538.63 4.24359 -3.72263 0
M  V30 5335 N 538.028 1.39524 0.732853 0
M  V30 5336 C 539.253 1.40329 1.52717 0
M  V30 5337 C 539.678 0.000286574 1.881 0
M  V30 5338 O 539.036 -0.987262 1.52062 0
M  V30 5339 C 539.084 2.28464 2.78992 0
M  V30 5340 O 538.188 1.716 3.75003 0
M  V30 5341 H 537.529 0.47778 0.461109 0
M  V30 5342 H 540.059 1.83546 0.903996 0
M  V30 5343 H 540.069 2.43051 3.27705 0
M  V30 5344 H 538.744 3.30425 2.52572 0
M  V30 5345 H 537.321 1.66267 3.33781 0
M  V30 5346 N 539.506 -0.963266 1.24736 0
M  V30 5347 C 540.746 -1.72172 1.10165 0
M  V30 5348 C 541.11 -1.88731 -0.352784 0
M  V30 5349 O 542.311 -2.61549 -0.620107 0
M  V30 5350 C 540.582 -3.0724 1.82589 0
M  V30 5351 S 542.141 -3.98449 1.83803 0
M  V30 5352 H 538.959 -0.591901 0.393922 0
M  V30 5353 H 541.561 -1.14955 1.58132 0
M  V30 5354 H 540.265 -2.92851 2.87518 0
M  V30 5355 H 539.796 -3.69521 1.34973 0
M  V30 5356 H 541.811 -4.87805 0.908883 0
M  V30 5357 N 540.985 -1.06182 -1.16461 0
M  V30 5358 C 542.213 -0.798583 -1.90867 0
M  V30 5359 C 542.628 0.646921 -1.77371 0
M  V30 5360 O 541.985 1.44279 -1.11758 0
M  V30 5361 C 542.036 -1.18258 -3.4161 0
M  V30 5362 O 541.757 -2.57135 -3.54701 0
M  V30 5363 C 543.258 -0.946917 -4.33069 0
M  V30 5364 H 540.478 -0.289603 -0.605286 0
M  V30 5365 H 543.022 -1.41515 -1.47627 0
M  V30 5366 H 541.177 -0.610562 -3.82558 0
M  V30 5367 H 541.591 -2.72477 -4.4817 0
M  V30 5368 H 543.065 -1.26523 -5.37304 0
M  V30 5369 H 543.542 0.117406 -4.39043 0
M  V30 5370 H 544.148 -1.50326 -3.97847 0
M  V30 5371 N 542.463 1.3308 -0.844243 0
M  V30 5372 C 543.74 1.92178 -0.364261 0
M  V30 5373 C 544.12 1.76961 1.15101 0
M  V30 5374 O 543.468 1.16128 1.9679 0
M  V30 5375 C 543.678 3.393 -0.817106 0
M  V30 5376 C 545.026 4.16444 -0.828236 0
M  V30 5377 O 546.05 3.47975 -0.761062 0
M  V30 5378 O 544.909 5.38685 -0.920926 0
M  V30 5379 H 542.003 0.820411 -0.10419 0
M  V30 5380 H 544.549 1.41918 -0.930453 0
M  V30 5381 H 543.321 3.44272 -1.85991 0
M  V30 5382 H 542.944 3.96947 -0.227785 0
M  V30 5383 N 543.941 0.601185 1.45683 0
M  V30 5384 C 544.904 -0.111398 2.28929 0
M  V30 5385 C 545.904 -0.801246 1.39416 0
M  V30 5386 O 547.094 -0.650383 1.61603 0
M  V30 5387 C 544.226 -1.16773 3.20276 0
M  V30 5388 H 545.419 0.620412 2.93413 0
M  V30 5389 H 542.972 0.359946 1.52099 0
M  V30 5390 H 543.707 -1.93051 2.60579 0
M  V30 5391 H 543.492 -0.677358 3.86205 0
M  V30 5392 H 544.982 -1.66698 3.82886 0
M  V30 5393 N 545.419 -1.53889 0.339982 0
M  V30 5394 C 546.382 -2.23547 -0.50592 0
M  V30 5395 C 547.382 -1.23445 -1.03044 0
M  V30 5396 O 548.572 -1.47909 -0.920253 0
M  V30 5397 C 545.704 -2.95234 -1.7044 0
M  V30 5398 H 546.897 -2.99722 0.103247 0
M  V30 5399 H 544.45 -1.56033 0.0912804 0
M  V30 5400 H 545.185 -2.23236 -2.35236 0
M  V30 5401 H 544.97 -3.68654 -1.33553 0
M  V30 5402 H 546.46 -3.48258 -2.30447 0
M  V30 5403 N 546.897 -0.0685191 -1.57451 0
M  V30 5404 C 548.137 0.605038 -1.9524 0
M  V30 5405 C 548.501 1.66974 -0.947816 0
M  V30 5406 O 549.702 2.39862 -1.21325 0
M  V30 5407 C 547.973 1.16999 -3.37707 0
M  V30 5408 S 549.532 1.85913 -3.97469 0
M  V30 5409 H 546.35 0.198203 -0.682815 0
M  V30 5410 H 548.952 -0.141594 -1.94987 0
M  V30 5411 H 547.656 0.383205 -4.08607 0
M  V30 5412 H 547.187 1.95305 -3.41496 0
M  V30 5413 H 549.202 3.14128 -3.84107 0
M  V30 5414 N 548.375 1.56261 0.205012 0
M  V30 5415 C 549.624 1.79236 0.925058 0
M  V30 5416 C 549.937 0.640011 1.84833 0
M  V30 5417 O 551.143 0.753809 2.60826 0
M  V30 5418 C 549.599 3.17475 1.69522 0
M  V30 5419 C 549.207 4.40482 0.817269 0
M  V30 5420 C 550.951 3.49766 2.4055 0
M  V30 5421 C 548.858 5.69744 1.58573 0
M  V30 5422 H 547.788 0.668287 0.349153 0
M  V30 5423 H 550.439 1.82629 0.178544 0
M  V30 5424 H 548.821 3.08304 2.48526 0
M  V30 5425 H 549.995 4.60752 0.0665988 0
M  V30 5426 H 548.31 4.15827 0.218316 0
M  V30 5427 H 550.907 4.43573 2.98575 0
M  V30 5428 H 551.25 2.73041 3.14252 0
M  V30 5429 H 551.783 3.60341 1.68522 0
M  V30 5430 H 548.522 6.49407 0.891679 0
M  V30 5431 H 548.042 5.53509 2.31059 0
M  V30 5432 H 549.721 6.1051 2.14212 0
M  V30 5433 N 549.853 -0.472356 1.50355 0
M  V30 5434 C 551.099 -1.22634 1.6152 0
M  V30 5435 C 551.432 -1.91645 0.313995 0
M  V30 5436 O 550.707 -1.82059 -0.684446 0
M  V30 5437 C 550.99 -2.27099 2.7946 0
M  V30 5438 C 550.843 -1.62402 4.19459 0
M  V30 5439 C 552.162 -3.28421 2.92964 0
M  V30 5440 H 549.281 -0.444494 0.587873 0
M  V30 5441 H 551.923 -0.520321 1.82737 0
M  V30 5442 H 550.073 -2.87314 2.61501 0
M  V30 5443 H 551.745 -1.05793 4.49005 0
M  V30 5444 H 549.988 -0.927184 4.23776 0
M  V30 5445 H 550.659 -2.38309 4.97909 0
M  V30 5446 H 553.135 -2.78227 3.09401 0
M  V30 5447 H 552.011 -3.98845 3.77113 0
M  V30 5448 H 552.272 -3.92467 2.03525 0
M  V30 5449 N 551.331 -1.39911 -0.725443 0
M  V30 5450 C 552.579 -1.37382 -1.48224 0
M  V30 5451 C 552.9 0.0264107 -1.94982 0
M  V30 5452 O 552.17 0.979408 -1.6966 0
M  V30 5453 H 550.75 -0.505596 -0.549892 0
M  V30 5454 H 553.412 -1.7487 -0.860608 0
M  V30 5455 H 552.508 -2.04254 -2.3598 0
M  V30 5456 N 552.809 0.956637 -1.25245 0
M  V30 5457 C 554.049 1.71585 -1.11076 0
M  V30 5458 C 554.413 1.88916 0.34277 0
M  V30 5459 O 555.614 2.61875 0.606227 0
M  V30 5460 C 553.885 3.06267 -1.84215 0
M  V30 5461 S 555.444 3.97469 -1.85914 0
M  V30 5462 H 552.262 0.589803 -0.397055 0
M  V30 5463 H 554.864 1.14114 -1.58739 0
M  V30 5464 H 553.568 2.91322 -2.89067 0
M  V30 5465 H 553.099 3.688 -1.36931 0
M  V30 5466 H 555.114 4.87316 -0.93474 0
M  V30 5467 N 554.287 1.06798 1.15896 0
M  V30 5468 C 555.197 0.694564 2.24083 0
M  V30 5469 C 556.213 -0.291687 1.71538 0
M  V30 5470 O 557.389 -0.139723 2.00915 0
M  V30 5471 C 554.454 0.0921014 3.46578 0
M  V30 5472 C 553.515 1.13087 4.14137 0
M  V30 5473 C 552.748 0.557064 5.30785 0
M  V30 5474 O 552.971 -0.628623 5.66925 0
M  V30 5475 O 551.905 1.29924 5.8771 0
M  V30 5476 H 555.731 1.59663 2.58344 0
M  V30 5477 H 553.316 0.840575 1.2351 0
M  V30 5478 H 555.198 -0.241884 4.20705 0
M  V30 5479 H 553.873 -0.78337 3.14078 0
M  V30 5480 H 552.78 1.51712 3.41957 0
M  V30 5481 H 554.113 1.97805 4.50704 0
M  V30 5482 N 555.766 -1.3263 0.851289 0
M  V30 5483 C 556.714 -2.30882 0.282202 0
M  V30 5484 C 557.708 -1.58697 -0.592589 0
M  V30 5485 O 558.914 -1.73461 -0.480768 0
M  V30 5486 H 555.289 -0.748492 0.0725487 0
M  V30 5487 H 557.26 -2.76374 1.12516 0
M  V30 5488 C 556.009 -3.43828 -0.517449 0
M  V30 5489 H 555.332 -3.99532 0.146392 0
M  V30 5490 H 556.772 -4.1474 -0.88128 0
M  V30 5491 C 555.231 -2.90786 -1.70133 0
M  V30 5492 O 555.761 -2.88 -2.80034 0
M  V30 5493 N 553.967 -2.4723 -1.52728 0
M  V30 5494 H 553.514 -2.49695 -0.633257 0
M  V30 5495 H 553.472 -2.12094 -2.32085 0
M  V30 5496 N 557.244 -0.608902 -1.45362 0
M  V30 5497 C 558.49 -0.104762 -2.02529 0
M  V30 5498 C 558.823 1.26191 -1.47613 0
M  V30 5499 O 558.098 1.8327 -0.65134 0
M  V30 5500 C 558.381 -0.0672661 -3.60037 0
M  V30 5501 C 558.234 -1.4647 -4.25284 0
M  V30 5502 C 559.553 0.619877 -4.35713 0
M  V30 5503 H 556.672 -0.0395438 -0.735938 0
M  V30 5504 H 559.314 -0.781126 -1.73201 0
M  V30 5505 H 557.464 0.50871 -3.85155 0
M  V30 5506 H 559.136 -2.08785 -4.11347 0
M  V30 5507 H 557.379 -2.02502 -3.83634 0
M  V30 5508 H 558.05 -1.39069 -5.34195 0
M  V30 5509 H 560.526 0.130297 -4.15896 0
M  V30 5510 H 559.402 0.615224 -5.45441 0
M  V30 5511 H 559.663 1.68621 -4.0868 0
M  V30 5512 N 558.722 1.53707 -0.348139 0
M  V30 5513 C 559.95 2.05406 0.248224 0
M  V30 5514 C 560.365 1.22282 1.43849 0
M  V30 5515 O 559.722 0.259244 1.80649 0
M  V30 5516 C 559.773 3.55446 0.658793 0
M  V30 5517 O 559.494 4.35417 -0.484149 0
M  V30 5518 C 560.995 4.23335 1.31539 0
M  V30 5519 H 558.215 0.669344 0.0471075 0
M  V30 5520 H 560.759 1.98257 -0.501456 0
M  V30 5521 H 558.914 3.62803 1.35841 0
M  V30 5522 H 559.328 5.24268 -0.155949 0
M  V30 5523 H 560.802 5.29692 1.55338 0
M  V30 5524 H 561.279 3.75967 2.27036 0
M  V30 5525 H 561.885 4.20184 0.657683 0
M  V30 5526 N 560.2 0.0768682 1.57412 0
M  V30 5527 C 561.13 -0.886026 2.16037 0
M  V30 5528 C 562.111 -1.30691 1.08876 0
M  V30 5529 O 563.296 -1.37705 1.36934 0
M  V30 5530 C 560.426 -2.1518 2.72608 0
M  V30 5531 C 559.38 -1.87015 3.8498 0
M  V30 5532 C 558.706 -3.20266 4.28175 0
M  V30 5533 C 560.006 -1.17143 5.08994 0
M  V30 5534 H 561.7 -0.397642 2.96748 0
M  V30 5535 H 559.246 -0.189823 1.42743 0
M  V30 5536 H 561.199 -2.82962 3.12266 0
M  V30 5537 H 559.923 -2.66269 1.89125 0
M  V30 5538 H 558.582 -1.21636 3.45833 0
M  V30 5539 H 558.23 -3.69207 3.41607 0
M  V30 5540 H 557.93 -3.0221 5.03927 0
M  V30 5541 H 559.454 -3.89237 4.70454 0
M  V30 5542 H 560.868 -1.75003 5.45937 0
M  V30 5543 H 559.265 -1.09328 5.90057 0
M  V30 5544 H 560.335 -0.151295 4.84664 0
M  V30 5545 N 561.678 -1.56367 -0.196722 0
M  V30 5546 C 563.089 -1.70462 -0.761545 0
M  V30 5547 C 563.44 -0.683161 -1.83922 0
M  V30 5548 O 562.565 0.160753 -2.15802 0
M  V30 5549 C 563.16 -3.09057 -1.38814 0
M  V30 5550 C 561.719 -3.24922 -1.90007 0
M  V30 5551 C 560.866 -2.66412 -0.769399 0
M  V30 5552 H 563.817 -1.58675 0.0283263 0
M  V30 5553 H 563.838 -3.06296 -2.2575 0
M  V30 5554 H 563.35 -3.83378 -0.603559 0
M  V30 5555 H 561.451 -2.55514 -2.71189 0
M  V30 5556 H 561.564 -4.3241 -2.06297 0
M  V30 5557 H 559.928 -2.25546 -1.18326 0
M  V30 5558 H 560.711 -3.433 0.00291773 0
M  V30 5559 N 563.156 0.464375 -1.50603 0
M  V30 5560 C 564.384 1.23907 -1.65695 0
M  V30 5561 C 564.799 1.85658 -0.343027 0
M  V30 5562 O 564.156 1.69529 0.675739 0
M  V30 5563 C 564.207 2.3429 -2.75301 0
M  V30 5564 O 563.928 1.7507 -4.01599 0
M  V30 5565 C 565.429 3.25051 -3.01424 0
M  V30 5566 H 562.649 0.374485 -0.556778 0
M  V30 5567 H 565.193 0.55353 -1.96866 0
M  V30 5568 H 563.348 2.98607 -2.46804 0
M  V30 5569 H 563.762 2.47812 -4.62266 0
M  V30 5570 H 565.236 3.98699 -3.81763 0
M  V30 5571 H 565.713 3.84227 -2.12758 0
M  V30 5572 H 566.319 2.66463 -3.31477 0
M  V30 5573 N 564.634 1.40294 0.718013 0
M  V30 5574 C 565.882 1.38167 1.47494 0
M  V30 5575 C 566.203 -0.01607 1.94993 0
M  V30 5576 O 565.473 -0.970396 1.70177 0
M  V30 5577 H 564.053 0.508505 0.547203 0
M  V30 5578 H 566.715 1.75324 0.851322 0
M  V30 5579 H 565.811 2.05503 2.34894 0
M  V30 5580 N 566.112 -0.949982 1.2575 0
M  V30 5581 C 567.044 -2.05088 1.02331 0
M  V30 5582 C 568.057 -1.62795 -0.0133247 0
M  V30 5583 O 569.246 -1.77067 0.225759 0
M  V30 5584 C 566.346 -3.34794 0.525924 0
M  V30 5585 C 565.519 -4.05903 1.62978 0
M  V30 5586 C 564.578 -5.1388 1.13196 0
M  V30 5587 O 563.604 -5.39072 1.82729 0
M  V30 5588 N 564.806 -5.80495 -0.0242926 0
M  V30 5589 H 567.571 -2.25747 1.97125 0
M  V30 5590 H 565.132 -1.11886 1.17018 0
M  V30 5591 H 567.124 -4.04312 0.177263 0
M  V30 5592 H 565.694 -3.10872 -0.328202 0
M  V30 5593 H 564.914 -3.3042 2.1498 0
M  V30 5594 H 566.202 -4.50166 2.37124 0
M  V30 5595 H 565.6 -5.62454 -0.605184 0
M  V30 5596 H 564.157 -6.51043 -0.313947 0
M  V30 5597 N 567.59 -1.07411 -1.15328 0
M  V30 5598 C 568.83 -0.807011 -1.87794 0
M  V30 5599 C 569.194 0.654987 -1.80482 0
M  V30 5600 O 570.395 1.03716 -2.47985 0
M  V30 5601 C 568.666 -1.30198 -3.32841 0
M  V30 5602 S 570.225 -1.16564 -4.23034 0
M  V30 5603 H 567.043 -0.292429 -0.648079 0
M  V30 5604 H 569.645 -1.37334 -1.39139 0
M  V30 5605 H 568.349 -2.3607 -3.35707 0
M  V30 5606 H 567.88 -0.730881 -3.86551 0
M  V30 5607 H 569.895 -0.103557 -4.96092 0
M  V30 5608 N 569.068 1.32177 -0.85831 0
M  V30 5609 C 569.998 2.31282 -0.321041 0
M  V30 5610 C 570.979 1.59841 0.581786 0
M  V30 5611 O 572.164 1.87619 0.501262 0
M  V30 5612 C 569.294 3.4385 0.48832 0
M  V30 5613 C 568.248 4.26799 -0.320391 0
M  V30 5614 C 567.574 5.31164 0.613934 0
M  V30 5615 C 568.874 4.98829 -1.54813 0
M  V30 5616 H 570.568 2.76469 -1.14915 0
M  V30 5617 H 568.114 1.32916 -0.554028 0
M  V30 5618 H 570.067 4.12224 0.874626 0
M  V30 5619 H 568.791 2.97401 1.34983 0
M  V30 5620 H 567.45 3.60077 -0.688497 0
M  V30 5621 H 567.098 4.80967 1.47239 0
M  V30 5622 H 566.798 5.8755 0.0768097 0
M  V30 5623 H 568.322 6.024 0.997336 0
M  V30 5624 H 569.736 5.59864 -1.23392 0
M  V30 5625 H 568.133 5.64957 -2.02346 0
M  V30 5626 H 569.203 4.26483 -2.30739 0
M  V30 5627 N 570.547 0.616602 1.45037 0
M  V30 5628 C 571.477 -0.0840787 2.33349 0
M  V30 5629 C 572.458 -0.849641 1.4736 0
M  V30 5630 O 573.643 -0.818407 1.76113 0
M  V30 5631 C 570.773 -1.07604 3.3021 0
M  V30 5632 C 569.727 -0.423096 4.25904 0
M  V30 5633 C 569.053 -1.52394 5.12523 0
M  V30 5634 C 570.353 0.661457 5.18095 0
M  V30 5635 H 572.047 0.653333 2.92185 0
M  V30 5636 H 569.593 0.315634 1.40498 0
M  V30 5637 H 571.546 -1.57485 3.90866 0
M  V30 5638 H 570.27 -1.84416 2.69552 0
M  V30 5639 H 568.929 0.05493 3.66559 0
M  V30 5640 H 568.577 -2.28257 4.48227 0
M  V30 5641 H 568.277 -1.09251 5.77354 0
M  V30 5642 H 569.801 -2.02485 5.76049 0
M  V30 5643 H 571.215 0.246353 5.7277 0
M  V30 5644 H 569.612 1.01517 5.91451 0
M  V30 5645 H 570.682 1.53446 4.59981 0
M  V30 5646 N 572.025 -1.5352 0.356285 0
M  V30 5647 C 573.253 -2.05534 -0.237328 0
M  V30 5648 C 573.668 -1.23043 -1.43199 0
M  V30 5649 O 573.025 -0.268821 -1.80509 0
M  V30 5650 C 573.076 -3.55791 -0.639933 0
M  V30 5651 O 572.797 -4.35154 0.507233 0
M  V30 5652 C 574.298 -4.24027 -1.29292 0
M  V30 5653 H 571.518 -0.669585 -0.0435572 0
M  V30 5654 H 574.062 -1.97988 0.511963 0
M  V30 5655 H 572.217 -3.63518 -1.33915 0
M  V30 5656 H 572.631 -5.24178 0.18375 0
M  V30 5657 H 574.105 -5.30509 -1.52527 0
M  V30 5658 H 574.582 -3.77166 -2.25039 0
M  V30 5659 H 575.188 -4.20527 -0.63539 0
M  V30 5660 N 573.503 -0.0852151 -1.57369 0
M  V30 5661 C 574.731 0.58946 -1.98325 0
M  V30 5662 C 575.146 1.62333 -0.96403 0
M  V30 5663 O 574.503 1.82438 0.0476395 0
M  V30 5664 C 574.554 1.24604 -3.39347 0
M  V30 5665 O 574.275 0.253532 -4.37366 0
M  V30 5666 C 575.776 2.00726 -3.95252 0
M  V30 5667 H 572.996 0.158783 -0.651942 0
M  V30 5668 H 575.54 -0.161584 -2.03861 0
M  V30 5669 H 573.695 1.94808 -3.34856 0
M  V30 5670 H 574.109 0.726207 -5.19448 0
M  V30 5671 H 575.583 2.42039 -4.96106 0
M  V30 5672 H 576.06 2.86919 -3.32527 0
M  V30 5673 H 576.666 1.3536 -4.03185 0
M  V30 5674 N 574.981 1.5647 0.188427 0
M  V30 5675 C 576.206 1.85486 0.927891 0
M  V30 5676 C 576.631 0.669575 1.75779 0
M  V30 5677 O 575.989 -0.381573 1.77239 0
M  V30 5678 C 576.037 3.12784 1.7944 0
M  V30 5679 O 575.141 2.93805 2.894 0
M  V30 5680 H 574.482 0.610585 0.260925 0
M  V30 5681 H 577.012 2.037 0.191729 0
M  V30 5682 H 577.022 3.43749 2.19774 0
M  V30 5683 H 575.697 3.98671 1.18468 0
M  V30 5684 H 574.274 2.74153 2.52774 0
M  V30 5685 N 576.459 -0.456382 1.50847 0
M  V30 5686 C 577.707 -1.20497 1.62249 0
M  V30 5687 C 578.028 -1.92156 0.331839 0
M  V30 5688 O 577.298 -1.84751 -0.651443 0
M  V30 5689 H 575.878 -0.447775 0.597918 0
M  V30 5690 H 578.54 -0.525099 1.87693 0
M  V30 5691 H 577.636 -1.94492 2.44089 0
M  V30 5692 N 577.937 -1.40673 -0.710563 0
M  V30 5693 C 579.183 -1.39428 -1.47267 0
M  V30 5694 C 579.516 0.00182129 -1.942 0
M  V30 5695 O 578.791 0.971387 -1.68506 0
M  V30 5696 C 579.074 -2.38812 -2.6952 0
M  V30 5697 C 578.927 -3.87467 -2.28449 0
M  V30 5698 C 580.246 -2.3566 -3.71689 0
M  V30 5699 H 577.365 -0.507768 -0.534173 0
M  V30 5700 H 580.007 -1.71843 -0.810547 0
M  V30 5701 H 578.157 -2.113 -3.26013 0
M  V30 5702 H 579.829 -4.25825 -1.77399 0
M  V30 5703 H 578.072 -4.03058 -1.60395 0
M  V30 5704 H 578.743 -4.5253 -3.16103 0
M  V30 5705 H 581.219 -2.6004 -3.24836 0
M  V30 5706 H 580.095 -3.07237 -4.54859 0
M  V30 5707 H 580.356 -1.36996 -4.20339 0
M  V30 5708 N 579.415 0.9433 -1.26252 0
M  V30 5709 C 580.64 1.72898 -1.14547 0
M  V30 5710 C 581.065 1.85761 0.295743 0
M  V30 5711 O 580.423 1.3463 1.21427 0
M  V30 5712 C 580.471 3.11471 -1.8171 0
M  V30 5713 O 579.575 3.97336 -1.10445 0
M  V30 5714 H 578.916 0.530555 -0.399259 0
M  V30 5715 H 581.446 1.18159 -1.67032 0
M  V30 5716 H 581.456 3.61872 -1.88449 0
M  V30 5717 H 580.131 3.01425 -2.86558 0
M  V30 5718 H 578.708 3.55788 -1.11666 0
M  V30 5719 N 580.893 1.08022 1.14757 0
M  V30 5720 C 581.856 0.71048 2.1791 0
M  V30 5721 C 582.856 -0.252731 1.58801 0
M  V30 5722 O 584.046 -0.0327915 1.74169 0
M  V30 5723 C 581.178 0.0483203 3.40866 0
M  V30 5724 H 582.371 1.62384 2.52134 0
M  V30 5725 H 579.924 0.877595 1.29337 0
M  V30 5726 H 580.659 -0.876959 3.12218 0
M  V30 5727 H 580.444 0.741189 3.85031 0
M  V30 5728 H 581.934 -0.195471 4.17142 0
M  V30 5729 N 582.371 -1.3172 0.865308 0
M  V30 5730 C 583.62 -1.96145 0.470098 0
M  V30 5731 C 583.933 -1.69182 -0.981674 0
M  V30 5732 O 585.139 -2.27431 -1.48281 0
M  V30 5733 C 583.595 -3.51129 0.789732 0
M  V30 5734 C 583.203 -3.86938 2.25795 0
M  V30 5735 C 584.947 -4.2197 0.462765 0
M  V30 5736 C 582.854 -5.35012 2.52024 0
M  V30 5737 H 581.784 -0.734105 0.172065 0
M  V30 5738 H 584.435 -1.49959 1.05757 0
M  V30 5739 H 582.817 -3.95781 0.131571 0
M  V30 5740 H 583.991 -3.5326 2.95879 0
M  V30 5741 H 582.306 -3.29149 2.55049 0
M  V30 5742 H 584.903 -5.30904 0.636019 0
M  V30 5743 H 585.246 -4.12005 -0.59645 0
M  V30 5744 H 585.779 -3.82936 1.07727 0
M  V30 5745 H 582.518 -5.50008 3.56611 0
M  V30 5746 H 582.038 -5.70058 1.8653 0
M  V30 5747 H 583.717 -6.0222 2.36515 0
M  V30 5748 N 583.85 -0.624285 -1.44708 0
M  V30 5749 C 585.096 -0.126237 -2.02407 0
M  V30 5750 C 585.428 1.24618 -1.48943 0
M  V30 5751 O 584.704 1.82569 -0.670742 0
M  V30 5752 C 584.986 -0.105449 -3.59946 0
M  V30 5753 C 584.84 -1.50972 -4.23707 0
M  V30 5754 C 586.159 0.573629 -4.36346 0
M  V30 5755 H 583.278 -0.0473472 -0.735478 0
M  V30 5756 H 585.92 -0.799452 -1.72362 0
M  V30 5757 H 584.07 0.46783 -3.85673 0
M  V30 5758 H 585.742 -2.13136 -4.0911 0
M  V30 5759 H 583.985 -2.0656 -3.81465 0
M  V30 5760 H 584.656 -1.44727 -5.32689 0
M  V30 5761 H 587.132 0.0861787 -4.16011 0
M  V30 5762 H 586.008 0.557338 -5.46063 0
M  V30 5763 H 586.269 1.64276 -4.10446 0
M  V30 5764 N 585.328 1.53329 -0.364422 0
M  V30 5765 C 586.556 2.05657 0.226424 0
M  V30 5766 C 586.971 1.23801 1.42544 0
M  V30 5767 O 586.328 0.27839 1.80364 0
M  V30 5768 C 586.379 3.56125 0.621056 0
M  V30 5769 O 586.1 4.34879 -0.530304 0
M  V30 5770 C 587.601 4.24706 1.27041 0
M  V30 5771 H 584.821 0.669806 0.0400056 0
M  V30 5772 H 587.365 1.97714 -0.522456 0
M  V30 5773 H 585.52 3.64223 1.31985 0
M  V30 5774 H 585.934 5.24073 -0.211546 0
M  V30 5775 H 587.408 5.3131 1.49711 0
M  V30 5776 H 587.885 3.78354 2.23036 0
M  V30 5777 H 588.491 4.20858 0.613079 0
M  V30 5778 N 586.806 0.0935595 1.57322 0
M  V30 5779 C 588.046 -0.573901 1.96178 0
M  V30 5780 C 588.41 -1.65445 0.97426 0
M  V30 5781 O 589.611 -2.37901 1.25126 0
M  V30 5782 C 587.882 -1.11612 3.39526 0
M  V30 5783 S 589.441 -1.79566 4.00377 0
M  V30 5784 H 586.259 -0.187315 0.685882 0
M  V30 5785 H 588.861 0.172597 1.94737 0
M  V30 5786 H 587.565 -0.31815 4.09165 0
M  V30 5787 H 587.096 -1.89848 3.4456 0
M  V30 5788 H 589.111 -3.07978 3.89056 0
M  V30 5789 N 588.284 -1.56567 -0.180126 0
M  V30 5790 C 589.532 -1.81133 -0.896392 0
M  V30 5791 C 589.853 -0.669114 -1.83161 0
M  V30 5792 O 589.123 0.311616 -1.93406 0
M  V30 5793 H 587.703 -0.668172 -0.333999 0
M  V30 5794 H 590.365 -1.94048 -0.182051 0
M  V30 5795 H 589.461 -2.74854 -1.47857 0
M  V30 5796 N 589.762 0.448376 -1.51087 0
M  V30 5797 C 590.725 1.52588 -1.71025 0
M  V30 5798 C 591.725 1.49958 -0.580442 0
M  V30 5799 O 592.915 1.52176 -0.847833 0
M  V30 5800 C 590.047 2.92163 -1.75652 0
M  V30 5801 H 591.24 1.36218 -2.67179 0
M  V30 5802 H 588.793 0.676313 -1.4091 0
M  V30 5803 H 589.528 3.13951 -0.812724 0
M  V30 5804 H 589.313 2.95478 -2.57751 0
M  V30 5805 H 590.803 3.70349 -1.92953 0
M  V30 5806 N 591.24 1.41047 0.703093 0
M  V30 5807 C 592.15 1.44645 1.84703 0
M  V30 5808 C 593.166 0.337778 1.7069 0
M  V30 5809 O 594.342 0.584327 1.92737 0
M  V30 5810 C 591.407 1.31928 3.20618 0
M  V30 5811 C 590.468 2.53047 3.46794 0
M  V30 5812 C 589.701 2.40927 4.76224 0
M  V30 5813 O 589.924 1.42978 5.5219 0
M  V30 5814 O 588.858 3.30543 5.03016 0
M  V30 5815 H 592.684 2.41139 1.84624 0
M  V30 5816 H 590.269 1.22504 0.855167 0
M  V30 5817 H 592.151 1.27092 4.01778 0
M  V30 5818 H 590.826 0.385469 3.21397 0
M  V30 5819 H 589.733 2.6346 2.65593 0
M  V30 5820 H 591.066 3.45231 3.50822 0
M  V30 5821 N 592.718 -0.936591 1.26751 0
M  V30 5822 C 593.946 -1.71758 1.15355 0
M  V30 5823 C 594.361 -1.86549 -0.290683 0
M  V30 5824 O 593.718 -1.37616 -1.19868 0
M  V30 5825 C 593.769 -3.12193 1.82258 0
M  V30 5826 O 593.49 -2.98105 3.21038 0
M  V30 5827 C 594.991 -4.06485 1.76875 0
M  V30 5828 H 592.211 -0.537636 0.401483 0
M  V30 5829 H 594.755 -1.17382 1.67457 0
M  V30 5830 H 592.91 -3.63456 1.34083 0
M  V30 5831 H 593.324 -3.86824 3.54214 0
M  V30 5832 H 594.798 -5.02569 2.28316 0
M  V30 5833 H 595.275 -4.32986 0.736216 0
M  V30 5834 H 595.881 -3.61144 2.24623 0
M  V30 5835 N 594.196 -1.08629 -1.14182 0
M  V30 5836 C 595.126 -0.740003 -2.21464 0
M  V30 5837 C 596.107 0.278591 -1.67803 0
M  V30 5838 O 597.292 0.148461 -1.93632 0
M  V30 5839 C 594.422 -0.150952 -3.46972 0
M  V30 5840 C 593.376 -1.09815 -4.13672 0
M  V30 5841 C 592.702 -0.3712 -5.3341 0
M  V30 5842 C 594.002 -2.43722 -4.61949 0
M  V30 5843 H 595.696 -1.63697 -2.50686 0
M  V30 5844 H 593.242 -0.788526 -1.20492 0
M  V30 5845 H 595.195 0.103325 -4.21273 0
M  V30 5846 H 593.919 0.781164 -3.1712 0
M  V30 5847 H 592.578 -1.33756 -3.41328 0
M  V30 5848 H 592.226 0.564792 -4.99819 0
M  V30 5849 H 591.926 -1.00267 -5.78982 0
M  V30 5850 H 593.45 -0.12503 -6.10472 0
M  V30 5851 H 594.864 -2.24034 -5.27714 0
M  V30 5852 H 593.261 -3.02582 -5.18232 0
M  V30 5853 H 594.331 -3.05082 -3.76899 0
M  V30 5854 N 595.674 1.31259 -0.872281 0
M  V30 5855 C 596.902 2.00795 -0.498907 0
M  V30 5856 C 597.317 1.65464 0.909238 0
M  V30 5857 O 596.674 0.885073 1.59602 0
M  V30 5858 C 596.725 3.55625 -0.649092 0
M  V30 5859 O 596.446 3.89692 -2.00179 0
M  V30 5860 C 597.947 4.42434 -0.277034 0
M  V30 5861 H 595.167 0.642299 -0.194145 0
M  V30 5862 H 597.711 1.67438 -1.17408 0
M  V30 5863 H 595.866 3.87394 -0.0214402 0
M  V30 5864 H 596.28 4.84407 -2.01122 0
M  V30 5865 H 597.754 5.50299 -0.433064 0
M  V30 5866 H 598.231 4.32146 0.783989 0
M  V30 5867 H 598.837 4.16086 -0.880483 0
M  V30 5868 N 597.152 0.631951 1.44375 0
M  V30 5869 C 598.062 -0.073674 2.34484 0
M  V30 5870 C 599.078 -0.834825 1.52665 0
M  V30 5871 O 600.254 -0.786902 1.85391 0
M  V30 5872 C 597.319 -1.04247 3.30656 0
M  V30 5873 C 596.38 -0.280602 4.28382 0
M  V30 5874 C 595.613 -1.20325 5.19959 0
M  V30 5875 O 595.836 -2.44199 5.15484 0
M  V30 5876 O 594.77 -0.687128 5.97965 0
M  V30 5877 H 598.596 0.667477 2.96274 0
M  V30 5878 H 596.181 0.392144 1.44162 0
M  V30 5879 H 598.063 -1.59981 3.89851 0
M  V30 5880 H 596.738 -1.76422 2.71398 0
M  V30 5881 H 595.645 0.319804 3.72731 0
M  V30 5882 H 596.978 0.401144 4.90563 0
M  V30 5883 N 598.631 -1.53133 0.372548 0
M  V30 5884 C 599.541 -2.29671 -0.478379 0
M  V30 5885 C 600.557 -1.35913 -1.08644 0
M  V30 5886 O 601.733 -1.68975 -1.09588 0
M  V30 5887 C 598.798 -3.07625 -1.599 0
M  V30 5888 C 597.859 -4.17061 -1.01776 0
M  V30 5889 C 597.092 -4.91289 -2.08497 0
M  V30 5890 O 597.315 -4.65442 -3.29727 0
M  V30 5891 O 596.249 -5.7705 -1.71164 0
M  V30 5892 H 600.075 -3.03355 0.144649 0
M  V30 5893 H 597.66 -1.48773 0.136729 0
M  V30 5894 H 599.542 -3.56281 -2.25038 0
M  V30 5895 H 598.217 -2.3677 -2.2073 0
M  V30 5896 H 597.124 -3.72641 -0.330098 0
M  V30 5897 H 598.457 -4.90102 -0.453915 0
M  V30 5898 N 600.109 -0.101901 -1.5727 0
M  V30 5899 C 601.355 0.561027 -1.94885 0
M  V30 5900 C 601.688 1.6741 -0.984258 0
M  V30 5901 O 600.963 1.94491 -0.0184767 0
M  V30 5902 C 601.246 1.10982 -3.42571 0
M  V30 5903 C 601.099 0.00133418 -4.498 0
M  V30 5904 C 602.418 2.00608 -3.9172 0
M  V30 5905 H 599.537 0.202467 -0.708644 0
M  V30 5906 H 602.179 -0.173992 -1.89202 0
M  V30 5907 H 600.329 1.73621 -3.47546 0
M  V30 5908 H 602.001 -0.63322 -4.56933 0
M  V30 5909 H 600.244 -0.664143 -4.28686 0
M  V30 5910 H 600.915 0.426253 -5.50352 0
M  V30 5911 H 603.391 1.47864 -3.88941 0
M  V30 5912 H 602.267 2.3593 -4.95609 0
M  V30 5913 H 602.528 2.92608 -3.3141 0
M  V30 5914 N 601.587 1.56661 0.17182 0
M  V30 5915 C 602.834 1.81965 0.888529 0
M  V30 5916 C 603.162 0.6789 1.82267 0
M  V30 5917 O 602.417 -0.333875 1.92831 0
M  V30 5918 C 602.716 3.13435 1.71736 0
M  V30 5919 C 602.382 4.41159 0.932184 0
M  V30 5920 C 601.044 4.75851 0.715481 0
M  V30 5921 C 603.396 5.19803 0.381387 0
M  V30 5922 C 600.724 5.86666 -0.063126 0
M  V30 5923 C 603.076 6.31433 -0.384129 0
M  V30 5924 C 601.74 6.64692 -0.611637 0
M  V30 5925 H 601.01 0.665859 0.325136 0
M  V30 5926 H 603.657 1.90884 0.153495 0
M  V30 5927 H 601.962 2.99857 2.52177 0
M  V30 5928 H 603.659 3.30224 2.27493 0
M  V30 5929 H 600.249 4.13947 1.11112 0
M  V30 5930 H 604.433 4.93396 0.536148 0
M  V30 5931 H 599.689 6.10892 -0.249136 0
M  V30 5932 H 603.863 6.91577 -0.818185 0
M  V30 5933 H 601.49 7.50398 -1.21684 0
M  V30 5934 N 603.065 -0.440357 1.51323 0
M  V30 5935 C 603.995 -1.54174 1.75364 0
M  V30 5936 C 604.976 -1.59039 0.603375 0
M  V30 5937 O 606.161 -1.74815 0.845774 0
M  V30 5938 C 603.291 -2.92277 1.87593 0
M  V30 5939 C 602.245 -3.02274 3.03009 0
M  V30 5940 C 601.571 -4.42327 3.00418 0
M  V30 5941 C 602.871 -2.76634 4.43024 0
M  V30 5942 H 604.565 -1.34307 2.67585 0
M  V30 5943 H 602.111 -0.644678 1.28763 0
M  V30 5944 H 604.064 -3.69284 2.02995 0
M  V30 5945 H 602.788 -3.13369 0.920179 0
M  V30 5946 H 601.447 -2.27706 2.87307 0
M  V30 5947 H 601.095 -4.60382 2.02626 0
M  V30 5948 H 600.795 -4.49946 3.77918 0
M  V30 5949 H 602.319 -5.21312 3.17909 0
M  V30 5950 H 603.733 -3.43376 4.59093 0
M  V30 5951 H 602.13 -2.95666 5.22208 0
M  V30 5952 H 603.2 -1.72262 4.5327 0
M  V30 5953 N 604.543 -1.41418 -0.695603 0
M  V30 5954 C 605.771 -1.4413 -1.48439 0
M  V30 5955 C 606.186 -0.0465698 -1.88743 0
M  V30 5956 O 605.543 0.934117 -1.56782 0
M  V30 5957 C 605.594 -2.34998 -2.74696 0
M  V30 5958 O 605.315 -3.69043 -2.36091 0
M  V30 5959 C 606.816 -2.46513 -3.68438 0
M  V30 5960 H 604.036 -0.490905 -0.457442 0
M  V30 5961 H 606.58 -1.85702 -0.856454 0
M  V30 5962 H 604.735 -1.96735 -3.33728 0
M  V30 5963 H 605.149 -4.17505 -3.17474 0
M  V30 5964 H 606.623 -3.1426 -4.53811 0
M  V30 5965 H 607.1 -1.49638 -4.12922 0
M  V30 5966 H 607.706 -2.85412 -3.1531 0
M  V30 5967 N 606.021 0.929856 -1.27246 0
M  V30 5968 C 607.246 1.71674 -1.16374 0
M  V30 5969 C 607.671 1.86064 0.276024 0
M  V30 5970 O 607.029 1.3591 1.19992 0
M  V30 5971 C 607.077 3.09526 -1.85003 0
M  V30 5972 O 606.181 3.96142 -1.14653 0
M  V30 5973 H 605.522 0.52629 -0.404863 0
M  V30 5974 H 608.052 1.16381 -1.68276 0
M  V30 5975 H 608.062 3.59852 -1.92276 0
M  V30 5976 H 606.737 2.98369 -2.89739 0
M  V30 5977 H 605.314 3.54584 -1.15433 0
M  V30 5978 N 607.499 1.09233 1.13605 0
M  V30 5979 C 608.727 0.848908 1.88683 0
M  V30 5980 C 609.142 -0.599667 1.79024 0
M  V30 5981 O 608.499 -1.41265 1.15544 0
M  V30 5982 C 608.55 1.27273 3.38355 0
M  V30 5983 O 608.271 2.66449 3.47759 0
M  V30 5984 C 609.772 1.0614 4.30406 0
M  V30 5985 H 606.992 0.305549 0.597395 0
M  V30 5986 H 609.536 1.4538 1.43823 0
M  V30 5987 H 607.691 0.711776 3.80805 0
M  V30 5988 H 608.105 2.84264 4.40788 0
M  V30 5989 H 609.579 1.40725 5.33761 0
M  V30 5990 H 610.056 -0.000960332 4.392 0
M  V30 5991 H 610.662 1.60821 3.93722 0
M  V30 5992 N 608.977 -1.30795 0.87923 0
M  V30 5993 C 609.927 -2.25838 0.313276 0
M  V30 5994 C 610.911 -1.51025 -0.55499 0
M  V30 5995 O 612.103 -1.72413 -0.400353 0
M  V30 5996 C 609.232 -3.39981 -0.476204 0
M  V30 5997 C 608.318 -4.22154 0.405826 0
M  V30 5998 N 608.709 -4.82934 1.50362 0
M  V30 5999 C 607.007 -4.45552 0.199909 0
M  V30 6000 C 607.708 -5.44444 2.0483 0
M  V30 6001 N 606.684 -5.26723 1.34403 0
M  V30 6002 H 610.486 -2.70374 1.15218 0
M  V30 6003 H 608 -1.45168 0.728003 0
M  V30 6004 H 609.997 -4.07108 -0.898251 0
M  V30 6005 H 608.657 -2.96986 -1.31261 0
M  V30 6006 H 609.668 -4.82319 1.8865 0
M  V30 6007 H 606.345 -4.13169 -0.599795 0
M  V30 6008 H 607.735 -6.02701 2.96986 0
M  V30 6009 N 610.455 -0.639598 -1.44038 0
M  V30 6010 C 611.695 -0.150902 -2.03842 0
M  V30 6011 C 612.059 1.20744 -1.49281 0
M  V30 6012 O 613.26 1.78875 -2.00642 0
M  V30 6013 C 611.531 -0.146114 -3.57101 0
M  V30 6014 S 613.09 0.276725 -4.37927 0
M  V30 6015 H 609.908 -0.0652447 -0.708 0
M  V30 6016 H 612.51 -0.844886 -1.76301 0
M  V30 6017 H 611.214 -1.13769 -3.94316 0
M  V30 6018 H 610.745 0.568846 -3.89266 0
M  V30 6019 H 612.76 1.51893 -4.7238 0
M  V30 6020 N 611.933 1.52934 -0.380664 0
M  V30 6021 C 613.158 2.06363 0.207157 0
M  V30 6022 C 613.583 1.25122 1.4045 0
M  V30 6023 O 612.941 0.274062 1.79217 0
M  V30 6024 C 612.989 3.56162 0.563996 0
M  V30 6025 O 612.093 3.77552 1.65917 0
M  V30 6026 H 611.434 0.663468 0.0265859 0
M  V30 6027 H 613.964 1.9719 -0.545635 0
M  V30 6028 H 613.974 3.99453 0.830752 0
M  V30 6029 H 612.649 4.14732 -0.311427 0
M  V30 6030 H 611.226 3.46154 1.3868 0
M  V30 6031 N 613.412 0.11024 1.57214 0
M  V30 6032 C 614.66 -0.548783 1.94506 0
M  V30 6033 C 614.981 -1.67772 0.99386 0
M  V30 6034 O 614.251 -1.9584 0.0485841 0
M  V30 6035 H 612.831 -0.205715 0.718116 0
M  V30 6036 H 615.493 0.177127 1.94093 0
M  V30 6037 H 614.589 -0.949096 2.97319 0
M  V30 6038 N 614.89 -1.56749 -0.16351 0
M  V30 6039 C 616.301 -1.72039 -0.725216 0
M  V30 6040 C 616.652 -0.72202 -1.82432 0
M  V30 6041 O 615.777 0.114942 -2.16095 0
M  V30 6042 C 616.372 -3.11932 -1.32227 0
M  V30 6043 C 614.931 -3.28879 -1.83072 0
M  V30 6044 C 614.078 -2.67984 -0.712716 0
M  V30 6045 H 617.029 -1.58579 0.0619772 0
M  V30 6046 H 617.05 -3.11015 -2.19202 0
M  V30 6047 H 616.562 -3.84572 -0.522103 0
M  V30 6048 H 614.663 -2.61209 -2.65708 0
M  V30 6049 H 614.776 -4.36688 -1.97079 0
M  V30 6050 H 613.14 -2.28005 -1.13515 0
M  V30 6051 H 613.923 -3.43216 0.0757361 0
M  V30 6052 N 616.368 0.432326 -1.51554 0
M  V30 6053 C 617.593 1.20824 -1.68571 0
M  V30 6054 C 618.018 1.84126 -0.384596 0
M  V30 6055 O 617.376 1.69025 0.655751 0
M  V30 6056 C 617.424 2.26429 -2.80646 0
M  V30 6057 O 616.528 3.32032 -2.44598 0
M  V30 6058 H 615.869 0.353765 -0.561913 0
M  V30 6059 H 618.399 0.509916 -1.98144 0
M  V30 6060 H 618.409 2.71133 -3.04878 0
M  V30 6061 H 617.084 1.79733 -3.75058 0
M  V30 6062 H 615.661 2.92769 -2.30956 0
M  V30 6063 N 617.846 1.41785 0.688094 0
M  V30 6064 C 619.092 1.41753 1.4503 0
M  V30 6065 C 619.425 0.0290745 1.94178 0
M  V30 6066 O 618.7 -0.944456 1.7003 0
M  V30 6067 C 618.983 2.43069 2.65686 0
M  V30 6068 C 618.836 3.91053 2.22256 0
M  V30 6069 C 620.155 2.41543 3.67893 0
M  V30 6070 H 617.274 0.516202 0.526027 0
M  V30 6071 H 619.916 1.73111 0.783105 0
M  V30 6072 H 618.066 2.1646 3.2261 0
M  V30 6073 H 619.738 4.28594 1.70602 0
M  V30 6074 H 617.981 4.05559 1.53963 0
M  V30 6075 H 618.652 4.57501 3.08863 0
M  V30 6076 H 621.128 2.65175 3.20658 0
M  V30 6077 H 620.004 3.14434 4.49914 0
M  V30 6078 H 620.265 1.43666 4.18106 0
M  V30 6079 N 619.324 -0.923095 1.27737 0
M  V30 6080 C 620.74 -1.19985 1.05241 0
M  V30 6081 C 620.94 -2.00391 -0.21113 0
M  V30 6082 O 619.996 -2.35324 -0.915366 0
M  V30 6083 C 621.309 -1.94352 2.29451 0
M  V30 6084 C 622.857 -2.07273 2.34536 0
M  V30 6085 C 623.332 -2.85046 3.58487 0
M  V30 6086 N 624.823 -2.92612 3.59072 0
M  V30 6087 C 625.558 -3.53266 4.51654 0
M  V30 6088 N 625.054 -4.15274 5.54545 0
M  V30 6089 N 626.847 -3.50714 4.39268 0
M  V30 6090 H 618.998 -0.386042 2.08862 0
M  V30 6091 H 621.261 -0.233407 0.918817 0
M  V30 6092 H 620.967 -1.42692 3.21453 0
M  V30 6093 H 620.841 -2.94947 2.3513 0
M  V30 6094 H 623.228 -2.58117 1.43037 0
M  V30 6095 H 623.309 -1.05884 2.32857 0
M  V30 6096 H 622.953 -2.34884 4.50324 0
M  V30 6097 H 622.883 -3.8673 3.57418 0
M  V30 6098 H 625.374 -2.48547 2.84663 0
M  V30 6099 H 625.687 -4.59507 6.21348 0
M  V30 6100 H 624.032 -4.13806 5.58382 0
M  V30 6101 H 627.223 -3.01475 3.58093 0
M  V30 6102 H 627.396 -3.97693 5.1161 0
M  V30 6103 N 620.802 -1.09834 -1.13024 0
M  V30 6104 C 622.027 -0.85909 -1.88771 0
M  V30 6105 C 622.452 0.584402 -1.78791 0
M  V30 6106 O 621.81 1.41101 -1.13842 0
M  V30 6107 C 621.858 -1.30427 -3.36186 0
M  V30 6108 O 620.962 -0.465368 -4.09766 0
M  V30 6109 H 620.303 -0.310786 -0.586778 0
M  V30 6110 H 622.833 -1.46355 -1.42973 0
M  V30 6111 H 622.843 -1.2915 -3.8702 0
M  V30 6112 H 621.518 -2.3555 -3.42767 0
M  V30 6113 H 620.095 -0.542814 -3.68928 0
M  V30 6114 N 622.28 1.30327 -0.886154 0
M  V30 6115 C 623.505 2.0079 -0.519425 0
M  V30 6116 C 623.93 1.65979 0.885013 0
M  V30 6117 O 623.288 0.877043 1.58675 0
M  V30 6118 C 623.336 3.53686 -0.702758 0
M  V30 6119 O 622.44 4.11637 0.250828 0
M  V30 6120 H 621.781 0.63171 -0.204544 0
M  V30 6121 H 624.311 1.66145 -1.19402 0
M  V30 6122 H 624.321 4.03531 -0.602207 0
M  V30 6123 H 622.996 3.78361 -1.72673 0
M  V30 6124 H 621.573 3.72755 0.103873 0
M  V30 6125 N 623.758 0.647228 1.43697 0
M  V30 6126 C 625.004 0.158422 2.0218 0
M  V30 6127 C 625.337 -1.22233 1.50907 0
M  V30 6128 O 624.612 -1.81478 0.699702 0
M  V30 6129 C 624.895 0.1627 3.59732 0
M  V30 6130 C 624.748 1.57694 4.21251 0
M  V30 6131 C 626.067 -0.504138 4.37203 0
M  V30 6132 H 623.186 0.059042 0.734631 0
M  V30 6133 H 625.828 0.826772 1.71069 0
M  V30 6134 H 623.978 -0.406414 3.86368 0
M  V30 6135 H 625.65 2.19618 4.05667 0
M  V30 6136 H 623.893 2.12603 3.7813 0
M  V30 6137 H 624.564 1.53183 5.3032 0
M  V30 6138 H 627.04 -0.0199841 4.16095 0
M  V30 6139 H 625.916 -0.470394 5.46881 0
M  V30 6140 H 626.177 -1.57726 4.13007 0
M  V30 6141 N 625.236 -1.5273 0.388769 0
M  V30 6142 C 626.647 -1.86505 -0.0853788 0
M  V30 6143 C 626.998 -1.30847 -1.46197 0
M  V30 6144 O 626.123 -0.639609 -2.06732 0
M  V30 6145 C 626.718 -3.38414 -0.161703 0
M  V30 6146 C 625.277 -3.71902 -0.580144 0
M  V30 6147 C 624.424 -2.76095 0.258218 0
M  V30 6148 H 627.375 -1.46647 0.606665 0
M  V30 6149 H 627.396 -3.67638 -0.980936 0
M  V30 6150 H 626.908 -3.78893 0.840333 0
M  V30 6151 H 625.009 -3.36992 -1.58957 0
M  V30 6152 H 625.122 -4.77902 -0.338663 0
M  V30 6153 H 623.486 -2.53195 -0.276432 0
M  V30 6154 H 624.269 -3.19411 1.25822 0
M  V30 6155 N 626.714 -0.118576 -1.57153 0
M  V30 6156 C 627.644 0.828436 -2.1831 0
M  V30 6157 C 628.625 1.27758 -1.12303 0
M  V30 6158 O 629.81 1.34026 -1.40537 0
M  V30 6159 C 626.94 2.07876 -2.78217 0
M  V30 6160 C 625.894 1.76742 -3.89803 0
M  V30 6161 C 625.22 3.08801 -4.36516 0
M  V30 6162 C 626.52 1.03606 -5.11921 0
M  V30 6163 H 628.214 0.318824 -2.97698 0
M  V30 6164 H 625.76 0.151911 -1.43196 0
M  V30 6165 H 627.713 2.74584 -3.19659 0
M  V30 6166 H 626.437 2.61161 -1.96118 0
M  V30 6167 H 625.096 1.12424 -3.48936 0
M  V30 6168 H 624.744 3.6002 -3.51276 0
M  V30 6169 H 624.444 2.88743 -5.11763 0
M  V30 6170 H 625.968 3.76627 -4.80608 0
M  V30 6171 H 627.382 1.60467 -5.50385 0
M  V30 6172 H 625.779 0.936454 -5.92748 0
M  V30 6173 H 626.849 0.0227421 -4.84895 0
M  V30 6174 N 628.193 1.56834 0.155195 0
M  V30 6175 C 629.141 1.98584 1.21107 0
M  V30 6176 C 630.135 0.876987 1.44932 0
M  V30 6177 O 631.341 1.06215 1.45322 0
M  V30 6178 H 627.716 0.632039 0.407469 0
M  V30 6179 H 629.687 2.86561 0.832195 0
M  V30 6180 C 628.436 2.37555 2.53895 0
M  V30 6181 H 627.759 3.22428 2.3639 0
M  V30 6182 H 629.199 2.70598 3.26424 0
M  V30 6183 C 627.658 1.22507 3.13837 0
M  V30 6184 O 628.188 0.521388 3.98302 0
M  V30 6185 N 626.394 0.991444 2.73164 0
M  V30 6186 H 625.941 1.56544 2.04577 0
M  V30 6187 H 625.899 0.223546 3.13604 0
M  V30 6188 N 629.671 -0.424282 1.51781 0
M  V30 6189 C 630.618 -1.51591 1.74037 0
M  V30 6190 C 631.588 -1.55556 0.582358 0
M  V30 6191 O 632.773 -1.72364 0.818245 0
M  V30 6192 C 629.913 -2.89188 1.8832 0
M  V30 6193 C 629.026 -2.9465 3.1592 0
M  V30 6194 C 628.161 -4.23452 3.20721 0
M  V30 6195 C 627.2 -4.22831 4.42584 0
M  V30 6196 N 626.337 -5.43178 4.44862 0
M  V30 6197 H 631.177 -1.31917 2.67212 0
M  V30 6198 H 628.714 -0.640599 1.32419 0
M  V30 6199 H 630.672 -3.69044 1.94583 0
M  V30 6200 H 629.302 -3.07392 0.985402 0
M  V30 6201 H 628.354 -2.07378 3.18902 0
M  V30 6202 H 629.666 -2.90055 4.05795 0
M  V30 6203 H 628.82 -5.1169 3.25973 0
M  V30 6204 H 627.559 -4.30722 2.28757 0
M  V30 6205 H 626.564 -3.32984 4.37495 0
M  V30 6206 H 627.789 -4.17213 5.35826 0
M  V30 6207 H 625.735 -5.51145 3.55775 0
M  V30 6208 H 625.652 -5.40515 5.28563 0
M  V30 6209 H 626.92 -6.33412 4.54324 0
M  V30 6210 N 631.149 -1.42148 -0.680565 0
M  V30 6211 C 632.389 -1.4379 -1.45271 0
M  V30 6212 C 632.753 -0.0504426 -1.91934 0
M  V30 6213 O 633.954 0.0583916 -2.68737 0
M  V30 6214 C 632.225 -2.42904 -2.62168 0
M  V30 6215 S 633.784 -2.63201 -3.51099 0
M  V30 6216 H 630.602 -0.509185 -0.496237 0
M  V30 6217 H 633.204 -1.78706 -0.792744 0
M  V30 6218 H 631.908 -3.4249 -2.26116 0
M  V30 6219 H 631.439 -2.09394 -3.33043 0
M  V30 6220 H 633.454 -1.91068 -4.57938 0
M  V30 6221 N 632.627 0.916307 -1.28225 0
M  V30 6222 C 633.575 2.03977 -1.11786 0
M  V30 6223 C 634.569 1.69358 -0.0378265 0
M  V30 6224 O 635.775 1.78925 -0.196405 0
M  V30 6225 H 632.15 0.66829 -0.344809 0
M  V30 6226 H 634.121 2.14985 -2.06939 0
M  V30 6227 C 632.87 3.38518 -0.7938 0
M  V30 6228 H 632.193 3.65649 -1.61682 0
M  V30 6229 H 633.633 4.17864 -0.718719 0
M  V30 6230 C 632.092 3.33134 0.502353 0
M  V30 6231 O 632.622 3.71281 1.53341 0
M  V30 6232 N 630.828 2.86229 0.502147 0
M  V30 6233 H 630.375 2.55382 -0.337338 0
M  V30 6234 H 630.333 2.83009 1.36942 0
M  V30 6235 N 634.105 1.10431 1.1244 0
M  V30 6236 C 635.521 0.836096 1.35947 0
M  V30 6237 C 635.721 -0.544475 1.94004 0
M  V30 6238 O 634.777 -1.29735 2.16622 0
M  V30 6239 C 636.09 1.93575 2.30107 0
M  V30 6240 C 637.638 1.9642 2.43697 0
M  V30 6241 C 638.113 3.05559 3.41171 0
M  V30 6242 N 639.604 3.04865 3.48728 0
M  V30 6243 C 640.339 3.85954 4.24061 0
M  V30 6244 N 639.835 4.76977 5.02458 0
M  V30 6245 N 641.628 3.74172 4.19466 0
M  V30 6246 H 633.779 1.9942 0.731124 0
M  V30 6247 H 636.042 0.866607 0.384312 0
M  V30 6248 H 635.748 2.92943 1.94621 0
M  V30 6249 H 635.622 1.8229 3.30227 0
M  V30 6250 H 638.009 0.97685 2.78463 0
M  V30 6251 H 638.09 2.11782 1.43465 0
M  V30 6252 H 637.734 4.04513 3.07135 0
M  V30 6253 H 637.664 2.87438 4.41234 0
M  V30 6254 H 640.155 2.38908 2.92799 0
M  V30 6255 H 640.468 5.35409 5.57277 0
M  V30 6256 H 638.813 4.81006 5.01655 0
M  V30 6257 H 642.004 3.02412 3.57302 0
M  V30 6258 H 642.177 4.37602 4.77921 0
M  V30 6259 N 635.583 -1.29855 0.893053 0
M  V30 6260 C 636.513 -2.3035 0.382249 0
M  V30 6261 C 637.494 -1.61328 -0.539203 0
M  V30 6262 O 638.679 -1.88882 -0.451342 0
M  V30 6263 C 635.809 -3.45024 -0.396983 0
M  V30 6264 C 634.763 -4.258 0.433437 0
M  V30 6265 C 634.089 -5.32605 -0.472889 0
M  V30 6266 C 635.389 -4.94549 1.67984 0
M  V30 6267 H 637.083 -2.73325 1.22205 0
M  V30 6268 H 634.629 -1.314 0.589073 0
M  V30 6269 H 636.582 -4.14398 -0.765024 0
M  V30 6270 H 635.306 -3.00875 -1.2705 0
M  V30 6271 H 633.965 -3.58125 0.783723 0
M  V30 6272 H 633.613 -4.84702 -1.34435 0
M  V30 6273 H 633.313 -5.87547 0.0789958 0
M  V30 6274 H 634.837 -6.04832 -0.837269 0
M  V30 6275 H 636.251 -5.56395 1.38192 0
M  V30 6276 H 634.648 -5.59393 2.17254 0
M  V30 6277 H 635.718 -4.20215 2.41965 0
M  V30 6278 N 637.061 -0.65484 -1.43351 0
M  V30 6279 C 637.991 0.0221809 -2.33489 0
M  V30 6280 C 638.972 0.810272 -1.49561 0
M  V30 6281 O 640.157 0.771426 -1.78221 0
M  V30 6282 C 637.287 0.988117 -3.32947 0
M  V30 6283 C 636.241 0.310026 -4.26876 0
M  V30 6284 C 635.567 1.38752 -5.16384 0
M  V30 6285 C 636.867 -0.798589 -5.16159 0
M  V30 6286 H 638.561 -0.730571 -2.9035 0
M  V30 6287 H 636.107 -0.352773 -1.39612 0
M  V30 6288 H 638.06 1.47067 -3.94904 0
M  V30 6289 H 636.784 1.77205 -2.74346 0
M  V30 6290 H 635.443 -0.152097 -3.66284 0
M  V30 6291 H 635.091 2.16293 -4.54121 0
M  V30 6292 H 634.791 0.939051 -5.80048 0
M  V30 6293 H 636.315 1.87141 -5.81215 0
M  V30 6294 H 637.729 -0.398126 -5.71916 0
M  V30 6295 H 636.126 -1.17163 -5.88552 0
M  V30 6296 H 637.196 -1.65588 -4.55751 0
M  V30 6297 N 638.539 1.52521 -0.396863 0
M  V30 6298 C 639.955 1.5953 -0.0471659 0
M  V30 6299 C 640.155 1.41044 1.43906 0
M  V30 6300 O 639.211 1.23122 2.20448 0
M  V30 6301 C 640.524 2.95972 -0.531113 0
M  V30 6302 C 642.072 3.09172 -0.488024 0
M  V30 6303 C 642.547 4.48075 -0.948281 0
M  V30 6304 N 644.038 4.54281 -0.9046 0
M  V30 6305 C 644.773 5.60007 -1.23205 0
M  V30 6306 N 644.269 6.73343 -1.63036 0
M  V30 6307 N 646.062 5.50151 -1.15282 0
M  V30 6308 H 638.213 1.62786 -1.36435 0
M  V30 6309 H 640.476 0.76514 -0.559701 0
M  V30 6310 H 640.182 3.14741 -1.56942 0
M  V30 6311 H 640.056 3.77143 0.0657922 0
M  V30 6312 H 642.443 2.90095 0.541211 0
M  V30 6313 H 642.524 2.29937 -1.12083 0
M  V30 6314 H 642.168 4.67894 -1.97578 0
M  V30 6315 H 642.098 5.25788 -0.292412 0
M  V30 6316 H 644.589 3.72918 -0.6116 0
M  V30 6317 H 644.902 7.49992 -1.86365 0
M  V30 6318 H 643.247 6.74655 -1.66929 0
M  V30 6319 H 646.438 4.6049 -0.840602 0
M  V30 6320 H 646.611 6.32444 -1.41133 0
M  V30 6321 N 640.017 0.126909 1.57088 0
M  V30 6322 C 641.265 -0.528123 1.95078 0
M  V30 6323 C 641.586 -1.66708 1.0116 0
M  V30 6324 O 640.856 -1.95777 0.0693527 0
M  V30 6325 H 639.436 -0.198087 0.720257 0
M  V30 6326 H 642.098 0.197703 1.93895 0
M  V30 6327 H 641.194 -0.917507 2.98309 0
M  V30 6328 N 641.495 -1.56914 -0.146875 0
M  V30 6329 C 642.72 -1.87881 -0.878386 0
M  V30 6330 C 643.145 -0.715945 -1.73942 0
M  V30 6331 O 642.503 0.334447 -1.78189 0
M  V30 6332 C 642.551 -3.17431 -1.71084 0
M  V30 6333 O 641.655 -3.01374 -2.81509 0
M  V30 6334 H 640.996 -0.617289 -0.244644 0
M  V30 6335 H 643.526 -2.04136 -0.137654 0
M  V30 6336 H 643.536 -3.49455 -2.10582 0
M  V30 6337 H 642.211 -4.01671 -1.07856 0
M  V30 6338 H 640.788 -2.80758 -2.45416 0
M  V30 6339 N 642.974 0.416227 -1.52004 0
M  V30 6340 C 644.22 1.16555 -1.6596 0
M  V30 6341 C 644.553 1.90347 -0.384906 0
M  V30 6342 O 643.828 1.84474 0.616405 0
M  V30 6343 C 644.111 2.1657 -2.87696 0
M  V30 6344 C 643.964 1.46722 -4.25197 0
M  V30 6345 C 645.283 3.17321 -3.04951 0
M  V30 6346 H 642.402 0.422369 -0.603965 0
M  V30 6347 H 645.044 0.452141 -1.84542 0
M  V30 6348 H 643.194 2.77411 -2.71985 0
M  V30 6349 H 644.866 0.89056 -4.52622 0
M  V30 6350 H 643.109 0.769263 -4.26925 0
M  V30 6351 H 643.78 2.19665 -5.0641 0
M  V30 6352 H 646.256 2.66552 -3.19514 0
M  V30 6353 H 645.132 3.84573 -3.91656 0
M  V30 6354 H 645.393 3.84643 -2.17951 0
M  V30 6355 N 644.452 1.42507 0.673017 0
M  V30 6356 C 645.362 1.4853 1.81593 0
M  V30 6357 C 646.378 0.373907 1.69935 0
M  V30 6358 O 647.554 0.625078 1.91454 0
M  V30 6359 C 644.619 1.387 3.17747 0
M  V30 6360 C 643.68 2.60346 3.41348 0
M  V30 6361 C 642.913 2.50975 4.71007 0
M  V30 6362 O 643.136 1.54659 5.49033 0
M  V30 6363 O 642.07 3.41138 4.95892 0
M  V30 6364 H 645.896 2.45001 1.79467 0
M  V30 6365 H 643.481 1.2429 0.82899 0
M  V30 6366 H 645.363 1.35586 3.98992 0
M  V30 6367 H 644.038 0.453555 3.20507 0
M  V30 6368 H 642.945 2.69034 2.59945 0
M  V30 6369 H 644.278 3.52595 3.43421 0
M  V30 6370 N 645.93 -0.909495 1.28709 0
M  V30 6371 C 647.177 -1.65905 1.16111 0
M  V30 6372 C 647.505 -1.92334 -0.289436 0
M  V30 6373 O 646.76 -1.52495 -1.22653 0
M  V30 6374 C 647.059 -3.02117 1.90945 0
M  V30 6375 C 646.725 -2.95332 3.40719 0
M  V30 6376 C 645.387 -2.93189 3.81567 0
M  V30 6377 C 647.739 -2.85264 4.36204 0
M  V30 6378 C 645.067 -2.78784 5.16233 0
M  V30 6379 C 647.419 -2.724 5.70948 0
M  V30 6380 C 646.083 -2.68617 6.11066 0
M  V30 6381 H 645.353 -0.60709 0.42488 0
M  V30 6382 H 648 -1.05932 1.59533 0
M  V30 6383 H 646.305 -3.65901 1.40085 0
M  V30 6384 H 648.002 -3.59026 1.7861 0
M  V30 6385 H 644.592 -2.97797 3.08245 0
M  V30 6386 H 648.776 -2.86005 4.05605 0
M  V30 6387 H 644.032 -2.74254 5.46438 0
M  V30 6388 H 648.206 -2.63579 6.44592 0
M  V30 6389 H 645.833 -2.57213 7.15364 0
M  V30 6390 N 647.408 -1.11026 -1.11852 0
M  V30 6391 C 648.655 -0.85646 -1.83497 0
M  V30 6392 C 648.983 0.617938 -1.84423 0
M  V30 6393 O 648.238 1.47194 -1.28966 0
M  V30 6394 C 648.537 -1.35777 -3.30604 0
M  V30 6395 C 648.203 -2.84465 -3.49843 0
M  V30 6396 C 646.865 -3.25068 -3.54802 0
M  V30 6397 C 649.217 -3.80251 -3.56453 0
M  V30 6398 C 646.545 -4.60194 -3.63921 0
M  V30 6399 C 648.897 -5.15188 -3.67102 0
M  V30 6400 C 647.561 -5.55356 -3.70319 0
M  V30 6401 H 646.831 -0.313401 -0.671462 0
M  V30 6402 H 649.478 -1.38792 -1.31943 0
M  V30 6403 H 647.783 -0.746455 -3.84624 0
M  V30 6404 H 649.48 -1.13779 -3.8452 0
M  V30 6405 H 646.07 -2.52054 -3.46651 0
M  V30 6406 H 650.254 -3.49986 -3.51886 0
M  V30 6407 H 645.51 -4.90728 -3.64686 0
M  V30 6408 H 649.684 -5.89248 -3.71159 0
M  V30 6409 H 647.311 -6.60054 -3.77138 0
M  V30 6410 N 648.886 1.2938 -0.899927 0
M  V30 6411 C 650.126 1.97332 -0.532871 0
M  V30 6412 C 650.49 1.69385 0.904029 0
M  V30 6413 O 651.691 2.30793 1.37797 0
M  V30 6414 C 649.962 3.47927 -0.817393 0
M  V30 6415 S 651.521 4.3528 -0.55468 0
M  V30 6416 H 648.339 0.682966 -0.197683 0
M  V30 6417 H 650.941 1.57189 -1.16241 0
M  V30 6418 H 649.645 3.65761 -1.86138 0
M  V30 6419 H 649.176 3.93006 -0.175978 0
M  V30 6420 H 651.191 4.92557 0.600182 0
M  V30 6421 N 650.364 0.662433 1.43002 0
M  V30 6422 C 651.612 0.179237 2.01304 0
M  V30 6423 C 651.933 -1.21428 1.52579 0
M  V30 6424 O 651.203 -1.81294 0.742252 0
M  V30 6425 H 649.783 0.0632725 0.744316 0
M  V30 6426 H 652.445 0.856169 1.75088 0
M  V30 6427 H 651.541 0.170957 3.11631 0
M  V30 6428 N 651.842 -1.52309 0.404946 0
M  V30 6429 C 653.067 -2.06666 -0.1743 0
M  V30 6430 C 653.492 -1.27341 -1.38441 0
M  V30 6431 O 652.85 -0.302539 -1.78758 0
M  V30 6432 C 652.898 -3.57014 -0.507262 0
M  V30 6433 O 652.002 -3.80144 -1.59889 0
M  V30 6434 H 651.343 -0.663807 -0.0160273 0
M  V30 6435 H 653.873 -1.96297 0.576937 0
M  V30 6436 H 653.883 -4.00724 -0.767098 0
M  V30 6437 H 652.558 -4.14184 0.377368 0
M  V30 6438 H 651.135 -3.48316 -1.33155 0
M  V30 6439 N 653.32 -0.135238 -1.57019 0
M  V30 6440 C 654.545 0.529343 -2.00531 0
M  V30 6441 C 654.97 1.58391 -1.01459 0
M  V30 6442 O 654.328 1.81296 0.0113986 0
M  V30 6443 C 654.376 1.11748 -3.42848 0
M  V30 6444 O 653.48 2.23267 -3.46736 0
M  V30 6445 H 652.821 0.130669 -0.651016 0
M  V30 6446 H 655.351 -0.228503 -2.0332 0
M  V30 6447 H 655.361 1.44905 -3.81401 0
M  V30 6448 H 654.036 0.345147 -4.14465 0
M  V30 6449 H 652.613 1.91428 -3.20015 0
M  V30 6450 N 654.798 1.5699 0.138552 0
M  V30 6451 C 656.023 1.88344 0.86841 0
M  V30 6452 C 656.448 0.725159 1.7356 0
M  V30 6453 O 655.806 -0.324992 1.78363 0
M  V30 6454 C 655.854 3.18334 1.69398 0
M  V30 6455 O 654.958 3.02863 2.79907 0
M  V30 6456 H 654.299 0.618577 0.241367 0
M  V30 6457 H 656.829 2.04207 0.126826 0
M  V30 6458 H 656.839 3.50567 2.08726 0
M  V30 6459 H 655.514 4.02238 1.05725 0
M  V30 6460 H 654.091 2.82056 2.43924 0
M  V30 6461 N 656.276 -0.40816 1.52223 0
M  V30 6462 C 657.501 -1.18127 1.70472 0
M  V30 6463 C 657.926 -1.83491 0.41384 0
M  V30 6464 O 657.284 -1.70047 -0.628778 0
M  V30 6465 C 657.332 -2.21935 2.84213 0
M  V30 6466 O 656.436 -3.28099 2.4985 0
M  V30 6467 H 655.777 -0.344781 0.56747 0
M  V30 6468 H 658.307 -0.478328 1.9893 0
M  V30 6469 H 658.317 -2.66248 3.09153 0
M  V30 6470 H 656.992 -1.73744 3.7787 0
M  V30 6471 H 655.569 -2.89058 2.35584 0
M  V30 6472 N 657.755 -1.42862 -0.66545 0
M  V30 6473 C 659.003 -1.43546 -1.42264 0
M  V30 6474 C 659.324 -0.0563116 -1.94919 0
M  V30 6475 O 658.594 0.906568 -1.73661 0
M  V30 6476 H 657.174 -0.528464 -0.527953 0
M  V30 6477 H 659.836 -1.78363 -0.785665 0
M  V30 6478 H 658.932 -2.14079 -2.27105 0
M  V30 6479 N 659.233 0.902656 -1.29189 0
M  V30 6480 C 660.649 1.18296 -1.07137 0
M  V30 6481 C 660.849 2.00701 0.179223 0
M  V30 6482 O 659.905 2.3675 0.877812 0
M  V30 6483 C 661.218 1.90677 -2.32514 0
M  V30 6484 C 662.766 2.03515 -2.37804 0
M  V30 6485 C 663.241 2.79307 -3.62976 0
M  V30 6486 N 664.732 2.86862 -3.63681 0
M  V30 6487 C 665.467 3.46035 -4.57217 0
M  V30 6488 N 664.963 4.06399 -5.61081 0
M  V30 6489 N 666.756 3.43681 -4.44792 0
M  V30 6490 H 658.907 0.352765 -2.0945 0
M  V30 6491 H 661.17 0.21876 -0.922414 0
M  V30 6492 H 660.876 1.3756 -3.23682 0
M  V30 6493 H 660.75 2.91169 -2.39793 0
M  V30 6494 H 663.137 2.55809 -1.47125 0
M  V30 6495 H 663.218 1.02166 -2.34512 0
M  V30 6496 H 662.862 2.2769 -4.54004 0
M  V30 6497 H 662.792 3.80995 -3.63525 0
M  V30 6498 H 665.283 2.43987 -2.88581 0
M  V30 6499 H 665.596 4.49564 -6.2858 0
M  V30 6500 H 663.941 4.0487 -5.64894 0
M  V30 6501 H 667.132 2.9574 -3.62843 0
M  V30 6502 H 667.305 3.89503 -5.17872 0
M  V30 6503 N 660.711 1.11618 1.11262 0
M  V30 6504 C 661.641 0.79846 2.19424 0
M  V30 6505 C 662.622 -0.234003 1.68483 0
M  V30 6506 O 663.807 -0.0970704 1.93957 0
M  V30 6507 C 660.937 0.242892 3.4645 0
M  V30 6508 C 659.891 1.20744 4.10615 0
M  V30 6509 C 659.217 0.512494 5.32238 0
M  V30 6510 C 660.517 2.55884 4.55325 0
M  V30 6511 H 662.211 1.70286 2.46258 0
M  V30 6512 H 659.757 0.820195 1.18359 0
M  V30 6513 H 661.71 0.00840447 4.21399 0
M  V30 6514 H 660.434 -0.696811 3.1908 0
M  V30 6515 H 659.093 1.42759 3.37662 0
M  V30 6516 H 658.741 -0.432075 5.01141 0
M  V30 6517 H 658.441 1.15583 5.7612 0
M  V30 6518 H 659.965 0.286842 6.09926 0
M  V30 6519 H 661.379 2.37946 5.21588 0
M  V30 6520 H 659.776 3.16216 5.10027 0
M  V30 6521 H 660.846 3.14968 3.68678 0
M  V30 6522 N 662.189 -1.289 0.906776 0
M  V30 6523 C 663.152 -2.25777 0.394656 0
M  V30 6524 C 664.152 -1.53621 -0.475119 0
M  V30 6525 O 665.342 -1.71949 -0.279165 0
M  V30 6526 C 662.474 -3.38113 -0.43499 0
M  V30 6527 H 663.667 -2.72592 1.25033 0
M  V30 6528 H 661.22 -1.40463 0.685547 0
M  V30 6529 H 661.955 -2.96648 -1.31036 0
M  V30 6530 H 661.74 -3.91647 0.188334 0
M  V30 6531 H 663.23 -4.10168 -0.784365 0
M  V30 6532 N 663.667 -0.670007 -1.42649 0
M  V30 6533 C 664.944 -0.119451 -1.95235 0
M  V30 6534 C 665.324 1.36461 -1.61064 0
M  V30 6535 O 664.672 2.09843 -0.904329 0
M  V30 6536 C 664.882 -0.383498 -3.46887 0
M  V30 6537 C 666.23 -0.297431 -4.23557 0
M  V30 6538 O 667.254 -0.31698 -3.54787 0
M  V30 6539 O 666.113 -0.235507 -5.45992 0
M  V30 6540 H 663.207 -8.85474e-05 -0.827 0
M  V30 6541 H 665.753 -0.744406 -1.52501 0
M  V30 6542 H 664.525 -1.41174 -3.64946 0
M  V30 6543 H 664.148 0.273702 -3.96657 0
M  V30 6544 N 665.145 1.52092 -0.413018 0
M  V30 6545 C 666.391 2.02154 0.161737 0
M  V30 6546 C 666.724 1.29789 1.44459 0
M  V30 6547 O 665.999 0.405378 1.90229 0
M  V30 6548 C 666.282 3.5781 0.405463 0
M  V30 6549 C 666.135 4.40819 -0.894335 0
M  V30 6550 C 667.454 4.23821 1.18591 0
M  V30 6551 H 664.573 0.734769 0.0573077 0
M  V30 6552 H 667.215 1.81948 -0.547247 0
M  V30 6553 H 665.365 3.75158 1.0094 0
M  V30 6554 H 667.037 4.35175 -1.53039 0
M  V30 6555 H 665.28 4.06877 -1.50444 0
M  V30 6556 H 665.951 5.47819 -0.678144 0
M  V30 6557 H 668.427 4.10596 0.674573 0
M  V30 6558 H 667.303 5.32663 1.3252 0
M  V30 6559 H 667.564 3.83038 2.20758 0
M  V30 6560 N 666.623 0.143563 1.56945 0
M  V30 6561 C 667.9 -0.553285 1.87612 0
M  V30 6562 C 668.28 -1.83195 1.04894 0
M  V30 6563 O 667.628 -2.28102 0.134773 0
M  V30 6564 C 667.838 -0.822055 3.3918 0
M  V30 6565 C 669.186 -1.16435 4.08324 0
M  V30 6566 O 670.21 -0.911522 3.4434 0
M  V30 6567 O 669.069 -1.63996 5.21313 0
M  V30 6568 H 666.163 -0.281851 0.777489 0
M  V30 6569 H 668.709 0.179916 1.68744 0
M  V30 6570 H 667.481 0.0830265 3.91212 0
M  V30 6571 H 667.104 -1.60956 3.63564 0
M  V30 6572 N 668.101 -1.57061 -0.130224 0
M  V30 6573 C 669.517 -1.52103 -0.483413 0
M  V30 6574 C 669.717 -0.854752 -1.82473 0
M  V30 6575 O 668.773 -0.432342 -2.48771 0
M  V30 6576 C 670.086 -2.96872 -0.47825 0
M  V30 6577 C 671.634 -3.07902 -0.562592 0
M  V30 6578 C 672.109 -4.54211 -0.587929 0
M  V30 6579 N 673.6 -4.58621 -0.649684 0
M  V30 6580 C 674.335 -5.69227 -0.690551 0
M  V30 6581 N 673.831 -6.89358 -0.689743 0
M  V30 6582 N 675.624 -5.57304 -0.732708 0
M  V30 6583 H 667.775 -1.98764 0.748779 0
M  V30 6584 H 670.038 -0.907248 0.274965 0
M  V30 6585 H 669.744 -3.48944 0.439444 0
M  V30 6586 H 669.618 -3.53716 -1.31013 0
M  V30 6587 H 672.005 -2.5584 -1.47071 0
M  V30 6588 H 672.086 -2.54073 0.296764 0
M  V30 6589 H 671.73 -5.06915 0.316096 0
M  V30 6590 H 671.66 -5.0584 -1.46401 0
M  V30 6591 H 674.151 -3.72146 -0.656927 0
M  V30 6592 H 674.464 -7.69408 -0.723239 0
M  V30 6593 H 672.809 -6.91884 -0.657347 0
M  V30 6594 H 676 -4.62363 -0.730625 0
M  V30 6595 H 676.173 -6.43515 -0.76109 0
M  V30 6596 N 669.579 0.400081 -1.52437 0
M  V30 6597 C 670.511 1.50729 -1.72666 0
M  V30 6598 C 671.524 1.51058 -0.607075 0
M  V30 6599 O 672.713 1.5516 -0.88248 0
M  V30 6600 C 669.813 2.89604 -1.76019 0
M  V30 6601 C 668.986 3.13365 -3.05157 0
M  V30 6602 C 668.045 4.32163 -3.00203 0
M  V30 6603 O 667.071 4.29004 -3.74092 0
M  V30 6604 N 668.273 5.3776 -2.18619 0
M  V30 6605 H 671.038 1.33767 -2.68191 0
M  V30 6606 H 668.599 0.58948 -1.50787 0
M  V30 6607 H 670.591 3.67159 -1.70225 0
M  V30 6608 H 669.161 2.99979 -0.879284 0
M  V30 6609 H 668.381 2.23774 -3.24529 0
M  V30 6610 H 669.669 3.26089 -3.90568 0
M  V30 6611 H 669.067 5.43177 -1.58035 0
M  V30 6612 H 667.624 6.14023 -2.18674 0
M  V30 6613 N 671.057 1.43213 0.657864 0
M  V30 6614 C 672.473 1.26511 0.972992 0
M  V30 6615 C 672.673 0.181477 2.00681 0
M  V30 6616 O 671.729 -0.441649 2.48608 0
M  V30 6617 C 673.042 2.62784 1.46168 0
M  V30 6618 C 674.59 2.70278 1.57857 0
M  V30 6619 C 675.065 4.06958 2.10117 0
M  V30 6620 N 676.556 4.08999 2.17426 0
M  V30 6621 C 677.291 5.11585 2.58975 0
M  V30 6622 N 676.787 6.24548 2.99853 0
M  V30 6623 N 678.58 4.9894 2.58873 0
M  V30 6624 H 670.731 2.12384 -0.0263129 0
M  V30 6625 H 672.994 0.946638 0.0507992 0
M  V30 6626 H 672.7 3.43022 0.776474 0
M  V30 6627 H 672.574 2.87863 2.43751 0
M  V30 6628 H 674.961 1.90376 2.25479 0
M  V30 6629 H 675.042 2.4897 0.587179 0
M  V30 6630 H 674.686 4.87325 1.43098 0
M  V30 6631 H 674.616 4.25628 3.10078 0
M  V30 6632 H 677.107 3.27457 1.88627 0
M  V30 6633 H 677.42 6.98661 3.30292 0
M  V30 6634 H 675.765 6.28027 2.97669 0
M  V30 6635 H 678.956 4.09757 2.26311 0
M  V30 6636 H 679.129 5.79019 2.90932 0
M  V30 6637 N 672.536 -0.895792 1.29666 0
M  V30 6638 C 673.952 -1.17726 1.07763 0
M  V30 6639 C 674.152 -2.00794 -0.168576 0
M  V30 6640 O 673.208 -2.37213 -0.865244 0
M  V30 6641 C 674.521 -1.89441 2.33522 0
M  V30 6642 C 676.069 -2.02251 2.3888 0
M  V30 6643 C 676.544 -2.77378 3.64452 0
M  V30 6644 N 678.035 -2.8493 3.65198 0
M  V30 6645 C 678.77 -3.43606 4.59045 0
M  V30 6646 N 678.266 -4.03417 5.63228 0
M  V30 6647 N 680.059 -3.41317 4.46608 0
M  V30 6648 H 672.21 -0.341652 2.09634 0
M  V30 6649 H 674.473 -0.213865 0.923561 0
M  V30 6650 H 674.179 -1.35842 3.24407 0
M  V30 6651 H 674.053 -2.89893 2.41334 0
M  V30 6652 H 676.44 -2.55025 1.4848 0
M  V30 6653 H 676.521 -1.0092 2.3505 0
M  V30 6654 H 676.165 -2.25279 4.55205 0
M  V30 6655 H 676.095 -3.79062 3.65541 0
M  V30 6656 H 678.586 -2.42453 2.89871 0
M  V30 6657 H 678.899 -4.46224 6.30955 0
M  V30 6658 H 677.244 -4.01868 5.67033 0
M  V30 6659 H 680.435 -2.93812 3.64407 0
M  V30 6660 H 680.608 -3.86751 5.1993 0
M  V30 6661 N 674.014 -1.12206 -1.10668 0
M  V30 6662 C 674.964 -0.75669 -2.15077 0
M  V30 6663 C 675.948 0.243154 -1.59052 0
M  V30 6664 O 677.14 0.0490268 -1.76932 0
M  V30 6665 C 674.269 -0.210303 -3.42655 0
M  V30 6666 C 673.355 -1.23829 -4.05619 0
M  V30 6667 N 673.746 -2.43513 -4.43323 0
M  V30 6668 C 672.044 -1.08309 -4.32649 0
M  V30 6669 C 672.745 -3.09138 -4.92756 0
M  V30 6670 N 671.721 -2.36593 -4.89413 0
M  V30 6671 H 675.523 -1.66747 -2.42018 0
M  V30 6672 H 673.037 -1.00248 -1.27765 0
M  V30 6673 H 675.034 0.0696287 -4.16842 0
M  V30 6674 H 673.694 0.694967 -3.17176 0
M  V30 6675 H 674.705 -2.80912 -4.35097 0
M  V30 6676 H 671.382 -0.234919 -4.16839 0
M  V30 6677 H 672.772 -4.11049 -5.31496 0
M  V30 6678 N 675.492 1.28418 -0.913599 0
M  V30 6679 C 676.424 2.26368 -0.359169 0
M  V30 6680 C 677.437 1.54858 0.502285 0
M  V30 6681 O 678.626 1.75659 0.31719 0
M  V30 6682 C 675.726 3.35112 0.50526 0
M  V30 6683 C 674.899 4.36126 -0.333648 0
M  V30 6684 C 673.958 5.24134 0.465845 0
M  V30 6685 O 672.984 5.6907 -0.121538 0
M  V30 6686 N 674.186 5.52892 1.76891 0
M  V30 6687 H 676.951 2.74579 -1.2011 0
M  V30 6688 H 674.512 1.41898 -0.779532 0
M  V30 6689 H 676.504 3.90926 1.04684 0
M  V30 6690 H 675.074 2.86611 1.2479 0
M  V30 6691 H 674.294 3.79776 -1.0566 0
M  V30 6692 H 675.582 5.00638 -0.907669 0
M  V30 6693 H 674.98 5.18217 2.26865 0
M  V30 6694 H 673.537 6.11464 2.25732 0
M  V30 6695 N 676.97 0.677563 1.42291 0
M  V30 6696 C 678.381 0.277912 1.8462 0
M  V30 6697 C 678.732 -1.18048 1.56714 0
M  V30 6698 O 677.857 -1.90404 1.02836 0
M  V30 6699 C 678.452 0.497619 3.35126 0
M  V30 6700 C 677.011 0.152063 3.76093 0
M  V30 6701 C 676.158 0.78872 2.65847 0
M  V30 6702 H 679.109 0.879527 1.32098 0
M  V30 6703 H 679.13 -0.24939 3.79682 0
M  V30 6704 H 678.642 1.55913 3.55405 0
M  V30 6705 H 676.743 -0.905896 3.6142 0
M  V30 6706 H 676.856 0.594514 4.75397 0
M  V30 6707 H 675.22 0.219813 2.5375 0
M  V30 6708 H 676.003 1.85374 2.88949 0
M  V30 6709 N 678.448 -1.51871 0.421078 0
M  V30 6710 C 679.678 -2.06057 -0.149723 0
M  V30 6711 C 680.086 -1.29002 -1.38402 0
M  V30 6712 O 679.429 -0.338385 -1.80556 0
M  V30 6713 C 679.491 -3.55216 -0.553339 0
M  V30 6714 C 679.155 -4.53408 0.571879 0
M  V30 6715 C 680.152 -4.99586 1.4391 0
M  V30 6716 C 677.837 -4.967 0.747979 0
M  V30 6717 C 679.831 -5.87711 2.46727 0
M  V30 6718 C 677.518 -5.84619 1.77944 0
M  V30 6719 C 678.516 -6.30021 2.63748 0
M  V30 6720 O 678.204 -7.16197 3.65126 0
M  V30 6721 H 677.936 -0.675744 -0.0186102 0
M  V30 6722 H 680.49 -1.96618 0.594166 0
M  V30 6723 H 678.72 -3.62381 -1.34969 0
M  V30 6724 H 680.409 -3.91992 -1.05342 0
M  V30 6725 H 681.175 -4.66846 1.31451 0
M  V30 6726 H 677.054 -4.60913 0.0897357 0
M  V30 6727 H 680.598 -6.2307 3.13734 0
M  V30 6728 H 676.495 -6.16771 1.90429 0
M  V30 6729 H 677.263 -7.34337 3.61512 0
M  V30 6730 N 679.926 -0.151884 -1.56866 0
M  V30 6731 C 680.876 0.797799 -2.13586 0
M  V30 6732 C 681.86 1.20613 -1.06496 0
M  V30 6733 O 683.052 1.17173 -1.32663 0
M  V30 6734 C 680.181 2.03493 -2.76488 0
M  V30 6735 C 679.267 1.64948 -3.90708 0
M  V30 6736 N 679.658 0.972513 -4.96363 0
M  V30 6737 C 677.956 1.94186 -4.01507 0
M  V30 6738 C 678.657 0.785661 -5.7637 0
M  V30 6739 N 677.633 1.32105 -5.27304 0
M  V30 6740 H 681.435 0.271403 -2.92644 0
M  V30 6741 H 678.949 0.049487 -1.62325 0
M  V30 6742 H 680.946 2.72532 -3.15487 0
M  V30 6743 H 679.606 2.56646 -1.98904 0
M  V30 6744 H 680.617 0.632724 -5.1402 0
M  V30 6745 H 677.294 2.49154 -3.35005 0
M  V30 6746 H 678.684 0.251749 -6.71428 0
M  V30 6747 N 681.404 1.57128 0.121893 0
M  V30 6748 C 682.629 1.89254 0.848385 0
M  V30 6749 C 683.054 0.743527 1.72781 0
M  V30 6750 O 682.412 -0.306056 1.78698 0
M  V30 6751 C 682.46 3.20113 1.66012 0
M  V30 6752 O 681.564 3.05815 2.76679 0
M  V30 6753 H 680.905 0.621103 0.234793 0
M  V30 6754 H 683.435 2.0433 0.10516 0
M  V30 6755 H 683.445 3.52761 2.04996 0
M  V30 6756 H 682.12 4.03336 1.01452 0
M  V30 6757 H 680.697 2.84627 2.40918 0
M  V30 6758 N 682.882 -0.391992 1.52647 0
M  V30 6759 C 684.298 -0.731848 1.41831 0
M  V30 6760 C 684.498 -1.9423 0.536361 0
M  V30 6761 O 683.554 -2.52499 0.00866571 0
M  V30 6762 C 684.867 -0.969743 2.84634 0
M  V30 6763 C 686.415 -1.0714 2.94092 0
M  V30 6764 C 686.89 -1.34195 4.37899 0
M  V30 6765 N 688.381 -1.41023 4.41211 0
M  V30 6766 C 689.116 -1.63616 5.49561 0
M  V30 6767 N 688.612 -1.83699 6.68002 0
M  V30 6768 N 690.405 -1.65771 5.371 0
M  V30 6769 H 682.556 0.404547 2.08512 0
M  V30 6770 H 684.819 0.11879 0.940528 0
M  V30 6771 H 684.525 -0.152465 3.51369 0
M  V30 6772 H 684.399 -1.88523 3.26709 0
M  V30 6773 H 686.786 -1.87925 2.27526 0
M  V30 6774 H 686.867 -0.133887 2.55449 0
M  V30 6775 H 686.511 -0.539207 5.0503 0
M  V30 6776 H 686.441 -2.29226 4.74092 0
M  V30 6777 H 688.932 -1.27223 3.55841 0
M  V30 6778 H 689.245 -2.00437 7.46354 0
M  V30 6779 H 687.59 -1.8093 6.71036 0
M  V30 6780 H 690.781 -1.4963 4.43541 0
M  V30 6781 H 690.954 -1.83038 6.21612 0
M  V30 6782 N 684.36 -1.4356 -0.65026 0
M  V30 6783 C 685.31 -1.45392 -1.75628 0
M  V30 6784 C 686.294 -0.322006 -1.57645 0
M  V30 6785 O 687.486 -0.565996 -1.67707 0
M  V30 6786 C 684.615 -1.38254 -3.1423 0
M  V30 6787 C 683.701 -2.56487 -3.3775 0
M  V30 6788 N 684.092 -3.81824 -3.31729 0
M  V30 6789 C 682.39 -2.51274 -3.6848 0
M  V30 6790 C 683.091 -4.60497 -3.55412 0
M  V30 6791 N 682.067 -3.91274 -3.77367 0
M  V30 6792 H 685.869 -2.40167 -1.69402 0
M  V30 6793 H 683.383 -1.38254 -0.852037 0
M  V30 6794 H 685.38 -1.3765 -3.9352 0
M  V30 6795 H 684.04 -0.445019 -3.21636 0
M  V30 6796 H 685.051 -4.14069 -3.11074 0
M  V30 6797 H 681.728 -1.66223 -3.82983 0
M  V30 6798 H 683.118 -5.69518 -3.5651 0
M  V30 6799 N 685.838 0.888903 -1.30139 0
M  V30 6800 C 687.254 1.17153 -1.08385 0
M  V30 6801 C 687.454 2.0088 0.157925 0
M  V30 6802 O 686.51 2.37668 0.852652 0
M  V30 6803 C 687.823 1.882 -2.34523 0
M  V30 6804 C 689.371 2.00981 -2.39949 0
M  V30 6805 C 689.846 2.75441 -3.65918 0
M  V30 6806 N 691.337 2.82989 -3.66704 0
M  V30 6807 C 692.072 3.41167 -4.60861 0
M  V30 6808 N 691.568 4.00425 -5.6536 0
M  V30 6809 N 693.361 3.38944 -4.48412 0
M  V30 6810 H 685.512 0.33053 -2.09812 0
M  V30 6811 H 687.775 0.208964 -0.924683 0
M  V30 6812 H 687.481 1.34119 -3.25123 0
M  V30 6813 H 687.355 2.88609 -2.42868 0
M  V30 6814 H 689.742 2.54234 -1.4983 0
M  V30 6815 H 689.823 0.996725 -2.35582 0
M  V30 6816 H 689.467 2.22861 -4.56394 0
M  V30 6817 H 689.397 3.77118 -3.67546 0
M  V30 6818 H 691.888 2.40912 -2.91153 0
M  V30 6819 H 692.201 4.42871 -6.33313 0
M  V30 6820 H 690.546 3.98856 -5.69157 0
M  V30 6821 H 693.737 2.91875 -3.6596 0
M  V30 6822 H 693.91 3.83989 -5.21974 0
M  V30 6823 N 687.317 1.12792 1.10072 0
M  V30 6824 C 688.733 0.864745 1.34143 0
M  V30 6825 C 688.933 -0.503201 1.95116 0
M  V30 6826 O 687.989 -1.25111 2.19325 0
M  V30 6827 C 689.302 1.98413 2.25949 0
M  V30 6828 C 690.85 2.01545 2.39476 0
M  V30 6829 C 691.325 3.12727 3.34613 0
M  V30 6830 N 692.816 3.12194 3.42183 0
M  V30 6831 C 693.551 3.94862 4.15779 0
M  V30 6832 N 693.047 4.87528 4.92228 0
M  V30 6833 N 694.84 3.82985 4.11435 0
M  V30 6834 H 686.991 2.00926 0.68866 0
M  V30 6835 H 689.254 0.874564 0.365844 0
M  V30 6836 H 688.96 2.97005 1.88364 0
M  V30 6837 H 688.834 1.89254 3.26287 0
M  V30 6838 H 691.221 1.0357 2.76328 0
M  V30 6839 H 691.302 2.14777 1.3894 0
M  V30 6840 H 690.946 4.10936 2.98486 0
M  V30 6841 H 690.876 2.96732 4.35037 0
M  V30 6842 H 693.367 2.45065 2.87666 0
M  V30 6843 H 693.68 5.47109 5.45794 0
M  V30 6844 H 692.025 4.91539 4.9134 0
M  V30 6845 H 695.216 3.09923 3.50807 0
M  V30 6846 H 695.389 4.47641 4.68531 0
M  V30 6847 N 688.795 -1.27931 0.920396 0
M  V30 6848 C 689.725 -2.29487 0.431024 0
M  V30 6849 C 690.706 -1.62435 -0.504861 0
M  V30 6850 O 691.891 -1.89797 -0.411176 0
M  V30 6851 C 689.021 -3.45788 -0.323709 0
M  V30 6852 C 687.975 -4.24784 0.523658 0
M  V30 6853 C 687.301 -5.33488 -0.359809 0
M  V30 6854 C 688.601 -4.90874 1.78437 0
M  V30 6855 H 690.295 -2.70671 1.27975 0
M  V30 6856 H 687.841 -1.30121 0.616813 0
M  V30 6857 H 689.794 -4.15927 -0.676952 0
M  V30 6858 H 688.518 -3.03502 -1.2064 0
M  V30 6859 H 687.177 -3.56382 0.85951 0
M  V30 6860 H 686.825 -4.87445 -1.24124 0
M  V30 6861 H 686.525 -5.87247 0.203605 0
M  V30 6862 H 688.049 -6.06472 -0.708787 0
M  V30 6863 H 689.463 -5.53339 1.49963 0
M  V30 6864 H 687.86 -5.54659 2.29071 0
M  V30 6865 H 688.93 -4.14988 2.50824 0
M  V30 6866 O 690.312 -0.824023 -1.38896 0
M  V30 6867 H 691.003 -0.40654 -1.89386 0
M  V30 END ATOM
M  V30 BEGIN BOND
M  V30 END BOND
M  V30 END CTAB
M  END
$$$$
