drugbank_target|P30531 Sodium- and chloride-dependent GABA transporter 1 (DB00906; DB08848)
 OpenBabel12092119273D

  0  0  0     0  0            999 V3000
M  V30 BEGIN CTAB
M  V30 COUNTS 9464 9608 0 0 0
M  V30 BEGIN ATOM
M  V30 1 H -0.908 1.98254 -0.117106 0
M  V30 2 N 0 1.576 0 0
M  V30 3 C 0.933 2.03868 1.02534 0
M  V30 4 C 1.911 0.928543 1.3348 0
M  V30 5 O 3.095 1.19667 1.45644 0
M  V30 6 C 0.222 2.43627 2.35294 0
M  V30 7 C -0.732 3.65373 2.2001 0
M  V30 8 S 0.101 5.13292 1.52614 0
M  V30 9 C 1.257 5.56322 2.86805 0
M  V30 10 H 1.49 2.90518 0.631377 0
M  V30 11 H -0.977 1.52953 0.210867 0
M  V30 12 H 0.981 2.67203 3.11629 0
M  V30 13 H -0.358 1.57376 2.7183 0
M  V30 14 H -1.165 3.90944 3.18086 0
M  V30 15 H -1.563 3.418 1.51819 0
M  V30 16 H 0.729 5.58782 3.83104 0
M  V30 17 H 1.672 6.56266 2.65933 0
M  V30 18 H 2.08 4.83886 2.90714 0
M  V30 19 N 1.4781 -0.272755 1.55222 0
M  V30 20 C 2.4411 -1.32041 1.87344 0
M  V30 21 C 3.4411 -1.42342 0.74803 0
M  V30 22 O 4.6311 -1.41488 1.0162 0
M  V30 23 C 1.7631 -2.70173 2.07893 0
M  V30 24 H 2.9561 -1.04789 2.80997 0
M  V30 25 H 0.5091 -0.51083 1.47717 0
M  V30 26 H 1.2441 -3.02605 1.16622 0
M  V30 27 H 1.0291 -2.64082 2.89833 0
M  V30 28 H 2.5191 -3.45869 2.34017 0
M  V30 29 N 2.9562 -1.48159 -0.537278 0
M  V30 30 C 4.1842 -1.59454 -1.31841 0
M  V30 31 C 4.5992 -0.252065 -1.8711 0
M  V30 32 O 3.9562 0.757621 -1.66031 0
M  V30 33 C 4.0072 -2.63546 -2.47439 0
M  V30 34 O 3.7282 -3.92583 -1.94449 0
M  V30 35 C 5.2292 -2.85212 -3.39366 0
M  V30 36 H 2.4492 -0.53785 -0.401196 0
M  V30 37 H 4.9932 -1.93932 -0.648891 0
M  V30 38 H 3.1482 -2.31946 -3.1029 0
M  V30 39 H 3.5622 -4.49629 -2.70063 0
M  V30 40 H 5.0362 -3.61863 -4.16844 0
M  V30 41 H 5.5132 -1.93765 -3.94147 0
M  V30 42 H 6.1192 -3.18086 -2.82314 0
M  V30 43 N 4.4343 0.785586 -1.36625 0
M  V30 44 C 5.3823 1.91978 -1.31329 0
M  V30 45 C 6.3763 1.68162 -0.204416 0
M  V30 46 O 7.5823 1.76122 -0.371645 0
M  V30 47 H 3.9573 0.631087 -0.408942 0
M  V30 48 H 5.9283 1.93562 -2.27104 0
M  V30 49 C 4.6773 3.29055 -1.12329 0
M  V30 50 H 4.0003 3.4795 -1.96903 0
M  V30 51 H 5.4403 4.08756 -1.12671 0
M  V30 52 C 3.8993 3.36461 0.171861 0
M  V30 53 O 4.4293 3.84576 1.16035 0
M  V30 54 N 2.6353 2.89782 0.217846 0
M  V30 55 H 2.1823 2.50819 -0.587183 0
M  V30 56 H 2.1403 2.95119 1.08408 0
M  V30 57 N 5.9124 1.20967 1.01018 0
M  V30 58 C 7.1604 1.02172 1.74371 0
M  V30 59 C 7.4814 -0.446414 1.89821 0
M  V30 60 O 6.7514 -1.32234 1.44537 0
M  V30 61 H 5.3314 0.375066 0.646014 0
M  V30 62 H 7.9934 1.52187 1.21758 0
M  V30 63 H 7.0894 1.48538 2.74487 0
M  V30 64 N 7.3905 -1.2043 1.01659 0
M  V30 65 C 8.6155 -1.94318 0.724942 0
M  V30 66 C 9.0405 -1.74266 -0.708034 0
M  V30 67 O 8.3985 -1.03694 -1.48719 0
M  V30 68 C 8.4465 -3.44486 1.06591 0
M  V30 69 O 7.5505 -4.12017 0.177599 0
M  V30 70 H 6.8915 -0.60708 0.26898 0
M  V30 71 H 9.4215 -1.52861 1.35995 0
M  V30 72 H 9.4315 -3.95106 1.01762 0
M  V30 73 H 8.1065 -3.58404 2.10997 0
M  V30 74 H 6.6835 -3.71821 0.283421 0
M  V30 75 N 8.8686 -0.792821 -1.36206 0
M  V30 76 C 9.8156 -0.191653 -2.30003 0
M  V30 77 C 10.7856 0.666453 -1.52143 0
M  V30 78 O 11.9706 0.61442 -1.80636 0
M  V30 79 C 9.1106 0.664848 -3.38635 0
M  V30 80 C 8.2236 -0.212175 -4.31479 0
M  V30 81 C 7.3586 0.651022 -5.27196 0
M  V30 82 C 6.3976 -0.227247 -6.11678 0
M  V30 83 N 5.5346 0.595127 -6.99573 0
M  V30 84 H 10.3746 -0.996978 -2.80828 0
M  V30 85 H 7.9116 -0.503206 -1.38225 0
M  V30 86 H 9.8696 1.17645 -4.00269 0
M  V30 87 H 8.4996 1.43557 -2.89122 0
M  V30 88 H 7.5516 -0.841777 -3.70969 0
M  V30 89 H 8.8636 -0.888751 -4.90818 0
M  V30 90 H 8.0176 1.2283 -5.94136 0
M  V30 91 H 6.7566 1.36121 -4.68319 0
M  V30 92 H 5.7616 -0.816904 -5.43697 0
M  V30 93 H 6.9866 -0.93509 -6.72631 0
M  V30 94 H 4.9326 1.28955 -6.432 0
M  V30 95 H 4.8496 -0.0236952 -7.55996 0
M  V30 96 H 6.1176 1.15613 -7.70879 0
M  V30 97 N 10.3467 1.47872 -0.545128 0
M  V30 98 C 11.5927 2.02793 -0.0166104 0
M  V30 99 C 11.9257 1.41987 1.32489 0
M  V30 100 O 11.2007 0.571045 1.85928 0
M  V30 101 C 11.4837 3.59989 0.0893294 0
M  V30 102 C 11.3367 4.3125 -1.27841 0
M  V30 103 C 12.6557 4.32606 0.808724 0
M  V30 104 H 9.7747 0.736962 -0.00751035 0
M  V30 105 H 12.4167 1.76433 -0.705085 0
M  V30 106 H 10.5667 3.82579 0.675681 0
M  V30 107 H 12.2387 4.20035 -1.90704 0
M  V30 108 H 10.4817 3.92076 -1.85632 0
M  V30 109 H 11.1527 5.39736 -1.15713 0
M  V30 110 H 13.6287 4.14936 0.310992 0
M  V30 111 H 12.5047 5.42251 0.851782 0
M  V30 112 H 12.7657 4.00963 1.86229 0
M  V30 113 N 11.8248 0.280983 1.55075 0
M  V30 114 C 12.7878 -0.590896 2.21452 0
M  V30 115 C 13.7878 -1.07682 1.19421 0
M  V30 116 O 14.9778 -0.97605 1.44288 0
M  V30 117 C 12.1098 -1.81587 2.88511 0
M  V30 118 H 13.3028 -0.0112554 2.99898 0
M  V30 119 H 10.8558 0.0316438 1.56268 0
M  V30 120 H 11.5908 -2.43587 2.14093 0
M  V30 121 H 11.3758 -1.4753 3.63287 0
M  V30 122 H 12.8658 -2.43575 3.39206 0
M  V30 123 N 13.3029 -1.57598 0.00835791 0
M  V30 124 C 14.5799 -1.82172 -0.712235 0
M  V30 125 C 14.9599 -0.887873 -1.9152 0
M  V30 126 O 14.3079 0.06146 -2.28417 0
M  V30 127 C 14.5179 -3.30875 -1.11008 0
M  V30 128 C 15.8659 -3.96826 -1.51044 0
M  V30 129 O 16.8899 -3.35248 -1.20364 0
M  V30 130 O 15.7489 -5.05318 -2.08125 0
M  V30 131 H 12.8429 -0.750435 -0.347529 0
M  V30 132 H 15.3889 -1.69665 0.0344523 0
M  V30 133 H 14.1609 -3.90481 -0.252982 0
M  V30 134 H 13.7839 -3.48412 -1.9156 0
M  V30 135 N 14.781 0.264519 -1.55364 0
M  V30 136 C 16.029 0.993021 -1.76021 0
M  V30 137 C 16.35 1.86511 -0.569099 0
M  V30 138 O 15.62 1.91438 0.415735 0
M  V30 139 H 14.2 0.369639 -0.649135 0
M  V30 140 H 16.862 0.286707 -1.9278 0
M  V30 141 H 15.958 1.62502 -2.66457 0
M  V30 142 N 16.2591 1.48442 0.529413 0
M  V30 143 C 17.1911 1.59095 1.64989 0
M  V30 144 C 18.2041 0.475212 1.5571 0
M  V30 145 O 19.3931 0.746081 1.6216 0
M  V30 146 C 16.4931 1.50518 3.0364 0
M  V30 147 C 15.6661 2.77142 3.38395 0
M  V30 148 C 14.7251 2.62012 4.56329 0
M  V30 149 O 13.7511 3.35898 4.59522 0
M  V30 150 N 14.9531 1.71667 5.54536 0
M  V30 151 H 17.7181 2.55723 1.56287 0
M  V30 152 H 15.2791 1.45173 0.716697 0
M  V30 153 H 17.2711 1.38091 3.80412 0
M  V30 154 H 15.8411 0.618627 3.06418 0
M  V30 155 H 15.0611 3.0413 2.50796 0
M  V30 156 H 16.3491 3.61146 3.58401 0
M  V30 157 H 15.7471 1.10841 5.54735 0
M  V30 158 H 14.3041 1.65178 6.30523 0
M  V30 159 N 17.7372 -0.778329 1.37039 0
M  V30 160 C 18.9862 -1.53189 1.3121 0
M  V30 161 C 19.2992 -1.95328 -0.103095 0
M  V30 162 O 20.5052 -2.70012 -0.283826 0
M  V30 163 C 18.9612 -2.76591 2.30272 0
M  V30 164 C 18.5692 -2.41577 3.77286 0
M  V30 165 C 20.3132 -3.5455 2.33441 0
M  V30 166 C 18.2202 -3.61441 4.68096 0
M  V30 167 H 17.1502 -0.5751 0.487622 0
M  V30 168 H 19.8012 -0.853101 1.62464 0
M  V30 169 H 18.1832 -3.46326 1.92027 0
M  V30 170 H 19.3572 -1.79668 4.2433 0
M  V30 171 H 17.6722 -1.76806 3.76999 0
M  V30 172 H 20.2692 -4.43628 2.98493 0
M  V30 173 H 20.6122 -3.93936 1.34611 0
M  V30 174 H 21.1452 -2.91805 2.7036 0
M  V30 175 H 17.8842 -3.27142 5.6803 0
M  V30 176 H 17.4042 -4.22478 4.25761 0
M  V30 177 H 19.0832 -4.28335 4.8491 0
M  V30 178 N 19.2153 -1.21501 -1.00376 0
M  V30 179 C 20.4403 -1.05977 -1.78279 0
M  V30 180 C 20.8653 0.385994 -1.84097 0
M  V30 181 O 20.2233 1.27849 -1.28547 0
M  V30 182 C 20.2713 -1.66302 -3.19963 0
M  V30 183 O 19.3753 -0.909333 -4.0225 0
M  V30 184 H 18.7163 -0.372906 -0.549397 0
M  V30 185 H 21.2463 -1.6107 -1.26165 0
M  V30 186 H 21.2563 -1.70574 -3.70632 0
M  V30 187 H 19.9313 -2.71515 -3.15043 0
M  V30 188 H 18.5083 -0.941795 -3.60811 0
M  V30 189 N 20.6934 1.19889 -1.02296 0
M  V30 190 C 21.9214 1.9339 -0.735399 0
M  V30 191 C 22.3364 1.75148 0.704887 0
M  V30 192 O 21.6934 1.06954 1.47875 0
M  V30 193 C 21.7444 3.45313 -1.06962 0
M  V30 194 O 21.4654 3.62964 -2.45334 0
M  V30 195 C 22.9664 4.35948 -0.804021 0
M  V30 196 H 20.1864 0.61448 -0.269546 0
M  V30 197 H 22.7304 1.522 -1.36585 0
M  V30 198 H 20.8854 3.84359 -0.484455 0
M  V30 199 H 21.2994 4.56886 -2.57595 0
M  V30 200 H 22.7734 5.41174 -1.0879 0
M  V30 201 H 23.2504 4.3842 0.261691 0
M  V30 202 H 23.8564 4.02574 -1.37164 0
M  V30 203 N 22.1715 0.800033 1.35784 0
M  V30 204 C 23.0815 0.207204 2.33683 0
M  V30 205 C 24.0975 -0.64631 1.61551 0
M  V30 206 O 25.2735 -0.559604 1.93469 0
M  V30 207 C 22.3385 -0.639659 3.40748 0
M  V30 208 C 21.3995 0.233585 4.28664 0
M  V30 209 C 20.6325 -0.572954 5.30616 0
M  V30 210 O 20.8555 -1.80816 5.40982 0
M  V30 211 O 19.7895 0.0327285 6.01891 0
M  V30 212 H 23.6155 1.01692 2.86169 0
M  V30 213 H 21.2005 0.561691 1.38439 0
M  V30 214 H 23.0825 -1.12223 4.06182 0
M  V30 215 H 21.7575 -1.42708 2.90544 0
M  V30 216 H 20.6645 0.763147 3.66233 0
M  V30 217 H 21.9975 0.984784 4.82248 0
M  V30 218 N 23.6496 -1.47581 0.552962 0
M  V30 219 C 24.8956 -2.02782 0.0273648 0
M  V30 220 C 25.2286 -1.42687 -1.31734 0
M  V30 221 O 24.5036 -0.580897 -1.85623 0
M  V30 222 C 24.7866 -3.60031 -0.0702371 0
M  V30 223 C 24.6396 -4.30566 1.30126 0
M  V30 224 C 25.9586 -4.33028 -0.785771 0
M  V30 225 H 23.0776 -0.736912 0.0114185 0
M  V30 226 H 25.7196 -1.76056 0.714432 0
M  V30 227 H 23.8696 -3.82932 -0.655382 0
M  V30 228 H 25.5416 -4.19018 1.92929 0
M  V30 229 H 23.7846 -3.91086 1.87709 0
M  V30 230 H 24.4556 -5.39114 1.18573 0
M  V30 231 H 26.9316 -4.15095 -0.288982 0
M  V30 232 H 25.8076 -5.42695 -0.823013 0
M  V30 233 H 26.0686 -4.01945 -1.841 0
M  V30 234 N 25.1277 -0.289203 -1.54924 0
M  V30 235 C 26.3527 0.329299 -2.04769 0
M  V30 236 C 26.7777 1.4763 -1.16564 0
M  V30 237 O 26.1357 1.80527 -0.167186 0
M  V30 238 C 26.1837 0.774438 -3.52186 0
M  V30 239 O 25.2877 1.88038 -3.67036 0
M  V30 240 H 24.6287 0.0659259 -0.660719 0
M  V30 241 H 27.1587 -0.42761 -2.00082 0
M  V30 242 H 27.1687 1.06642 -3.93816 0
M  V30 243 H 25.8437 -0.0646707 -4.1585 0
M  V30 244 H 24.4207 1.58985 -3.3731 0
M  V30 245 N 26.6058 1.57591 -0.0167156 0
M  V30 246 C 27.5158 2.1291 0.98521 0
M  V30 247 C 28.5318 1.07834 1.36557 0
M  V30 248 O 29.7078 1.39826 1.44951 0
M  V30 249 C 26.7728 2.63512 2.25305 0
M  V30 250 C 25.8338 3.83256 1.93426 0
M  V30 251 C 25.0668 4.31435 3.14165 0
M  V30 252 O 25.2898 3.78851 4.26413 0
M  V30 253 O 24.2238 5.23416 2.97186 0
M  V30 254 H 28.0498 2.98772 0.544888 0
M  V30 255 H 25.6348 1.48012 0.203141 0
M  V30 256 H 27.5168 2.96183 2.99756 0
M  V30 257 H 26.1918 1.8074 2.68542 0
M  V30 258 H 25.0988 3.55531 1.16398 0
M  V30 259 H 26.4318 4.67153 1.55013 0
M  V30 260 N 28.0839 -0.256276 1.55502 0
M  V30 261 C 29.0469 -1.30047 1.88734 0
M  V30 262 C 30.0469 -1.4154 0.763086 0
M  V30 263 O 31.2369 -1.40403 1.03115 0
M  V30 264 C 28.3689 -2.67953 2.10747 0
M  V30 265 H 29.5619 -1.01802 2.82093 0
M  V30 266 H 27.1149 -0.495134 1.4825 0
M  V30 267 H 27.8499 -3.01351 1.19825 0
M  V30 268 H 27.6349 -2.60993 2.92617 0
M  V30 269 H 29.1249 -3.43368 2.37673 0
M  V30 270 N 29.562 -1.4872 -0.521534 0
M  V30 271 C 30.973 -1.50607 -1.10337 0
M  V30 272 C 31.324 -0.280612 -1.94183 0
M  V30 273 O 30.449 0.611507 -2.0758 0
M  V30 274 C 31.044 -2.72903 -2.00772 0
M  V30 275 C 29.603 -2.77634 -2.54158 0
M  V30 276 C 28.75 -2.44241 -1.31307 0
M  V30 277 H 31.701 -1.55714 -0.306388 0
M  V30 278 H 31.722 -2.519 -2.85178 0
M  V30 279 H 31.234 -3.62077 -1.39721 0
M  V30 280 H 29.335 -1.92689 -3.18907 0
M  V30 281 H 29.448 -3.79283 -2.92714 0
M  V30 282 H 27.812 -1.95577 -1.63161 0
M  V30 283 H 28.595 -3.35666 -0.719943 0
M  V30 284 N 31.0401 0.771051 -1.3745 0
M  V30 285 C 32.2861 1.5319 -1.32894 0
M  V30 286 C 32.6191 1.94008 0.0862511 0
M  V30 287 O 31.8941 1.64124 1.04373 0
M  V30 288 C 32.1771 2.79648 -2.26868 0
M  V30 289 C 32.0301 2.45079 -3.77169 0
M  V30 290 C 33.3491 3.81583 -2.19277 0
M  V30 291 H 30.4681 0.555744 -0.484064 0
M  V30 292 H 33.1101 0.884492 -1.68157 0
M  V30 293 H 31.2601 3.34891 -1.96926 0
M  V30 294 H 32.9321 1.95745 -4.1771 0
M  V30 295 H 31.1751 1.77767 -3.95704 0
M  V30 296 H 31.8461 3.35478 -4.38359 0
M  V30 297 H 34.3221 3.35835 -2.45671 0
M  V30 298 H 33.1981 4.67787 -2.87171 0
M  V30 299 H 33.4591 4.25897 -1.18592 0
M  V30 300 N 32.5182 1.22032 0.997298 0
M  V30 301 C 33.4812 0.987909 2.06816 0
M  V30 302 C 34.4812 -0.0440084 1.6074 0
M  V30 303 O 35.6712 0.194053 1.73116 0
M  V30 304 C 32.8032 0.49132 3.37341 0
M  V30 305 H 33.9962 1.93803 2.28868 0
M  V30 306 H 31.5492 1.03838 1.16822 0
M  V30 307 H 32.2842 -0.463364 3.20973 0
M  V30 308 H 32.0692 1.23575 3.72118 0
M  V30 309 H 33.5592 0.348824 4.16141 0
M  V30 310 N 33.9963 -1.19345 1.0293 0
M  V30 311 C 34.9443 -2.24621 0.604001 0
M  V30 312 C 35.9383 -1.65452 -0.363587 0
M  V30 313 O 37.1443 -1.78497 -0.23212 0
M  V30 314 H 33.5193 -0.730858 0.177061 0
M  V30 315 H 35.4903 -2.5781 1.50255 0
M  V30 316 C 34.2393 -3.47688 -0.0289127 0
M  V30 317 H 33.5623 -3.93505 0.706651 0
M  V30 318 H 35.0023 -4.23011 -0.289432 0
M  V30 319 C 33.4613 -3.11817 -1.2756 0
M  V30 320 O 33.9913 -3.2451 -2.36762 0
M  V30 321 N 32.1973 -2.66246 -1.16453 0
M  V30 322 H 31.7443 -2.56118 -0.275914 0
M  V30 323 H 31.7023 -2.42617 -1.99961 0
M  V30 324 N 35.4744 -0.807222 -1.35358 0
M  V30 325 C 36.7514 -0.311126 -1.9311 0
M  V30 326 C 37.1314 1.19937 -1.73719 0
M  V30 327 O 36.4794 1.99918 -1.10657 0
M  V30 328 C 36.6894 -0.723226 -3.41424 0
M  V30 329 C 38.0374 -0.713078 -4.18569 0
M  V30 330 O 39.0614 -0.664811 -3.49941 0
M  V30 331 O 37.9204 -0.772022 -5.41019 0
M  V30 332 H 35.0144 -0.081526 -0.822972 0
M  V30 333 H 37.5604 -0.890962 -1.4443 0
M  V30 334 H 36.3324 -1.76426 -3.4927 0
M  V30 335 H 35.9554 -0.118232 -3.97424 0
M  V30 336 N 36.9525 1.47285 -0.560781 0
M  V30 337 C 37.8995 2.30058 0.18491 0
M  V30 338 C 38.8695 1.39281 0.904986 0
M  V30 339 O 40.0545 1.68241 0.899979 0
M  V30 340 C 37.1945 3.23317 1.20666 0
M  V30 341 C 36.3075 4.29186 0.492285 0
M  V30 342 C 35.4425 5.09592 1.49964 0
M  V30 343 C 34.4815 6.07232 0.770439 0
M  V30 344 N 33.6185 6.80584 1.72479 0
M  V30 345 H 38.4585 2.93302 -0.527048 0
M  V30 346 H 35.9955 1.44568 -0.271738 0
M  V30 347 H 37.9535 3.75811 1.81168 0
M  V30 348 H 36.5835 2.61929 1.88661 0
M  V30 349 H 35.6355 3.7972 -0.227333 0
M  V30 350 H 36.9475 4.98738 -0.0787929 0
M  V30 351 H 36.1015 5.66254 2.17809 0
M  V30 352 H 34.8405 4.3995 2.10464 0
M  V30 353 H 33.8455 5.49745 0.0780846 0
M  V30 354 H 35.0705 6.78884 0.171134 0
M  V30 355 H 33.0165 6.1367 2.3183 0
M  V30 356 H 32.9335 7.46319 1.20596 0
M  V30 357 H 34.2015 7.41818 2.39428 0
M  V30 358 N 38.4306 0.297415 1.54768 0
M  V30 359 C 39.8416 -0.195947 1.85669 0
M  V30 360 C 40.1926 -1.53707 1.21937 0
M  V30 361 O 39.3176 -2.10164 0.515754 0
M  V30 362 C 39.9126 -0.362318 3.36857 0
M  V30 363 C 38.4716 -0.799901 3.67802 0
M  V30 364 C 37.6186 0.0938578 2.77141 0
M  V30 365 H 40.5696 0.518538 1.4999 0
M  V30 366 H 40.5906 -1.19745 3.61167 0
M  V30 367 H 40.1026 0.613921 3.83214 0
M  V30 368 H 38.2036 -1.78682 3.26961 0
M  V30 369 H 38.3166 -0.621773 4.75048 0
M  V30 370 H 36.6806 -0.426254 2.51108 0
M  V30 371 H 37.4636 1.06639 3.26318 0
M  V30 372 N 39.9087 -1.5758 0.0250728 0
M  V30 373 C 40.8557 -2.09973 -0.958129 0
M  V30 374 C 41.8257 -1.00085 -1.3256 0
M  V30 375 O 43.0107 -1.27481 -1.41962 0
M  V30 376 C 40.1507 -2.62812 -2.2366 0
M  V30 377 C 39.2637 -3.86693 -1.92594 0
M  V30 378 C 38.3987 -4.27941 -3.14707 0
M  V30 379 C 37.4377 -5.44591 -2.79442 0
M  V30 380 N 36.5747 -5.81014 -3.94167 0
M  V30 381 H 41.4147 -2.937 -0.504428 0
M  V30 382 H 38.9517 -1.45172 -0.237392 0
M  V30 383 H 40.9097 -2.91536 -2.98434 0
M  V30 384 H 39.5397 -1.81922 -2.66654 0
M  V30 385 H 38.5917 -3.64723 -1.0808 0
M  V30 386 H 39.9037 -4.71547 -1.62619 0
M  V30 387 H 39.0577 -4.58079 -3.97804 0
M  V30 388 H 37.7967 -3.41845 -3.4784 0
M  V30 389 H 36.8017 -5.1415 -1.94755 0
M  V30 390 H 38.0267 -6.32382 -2.47528 0
M  V30 391 H 35.9727 -4.97874 -4.2715 0
M  V30 392 H 35.8897 -6.60498 -3.67801 0
M  V30 393 H 37.1577 -6.15756 -4.7798 0
M  V30 394 N 41.3868 0.248026 -1.55636 0
M  V30 395 C 42.6148 0.993808 -1.81469 0
M  V30 396 C 43.0298 1.78991 -0.60064 0
M  V30 397 O 42.3868 1.77345 0.430682 0
M  V30 398 C 42.4378 1.93258 -3.05506 0
M  V30 399 O 42.1588 1.16869 -4.22224 0
M  V30 400 C 43.6598 2.79444 -3.4413 0
M  V30 401 H 40.8798 0.292486 -0.603898 0
M  V30 402 H 43.4238 0.271253 -2.02693 0
M  V30 403 H 41.5788 2.60943 -2.86335 0
M  V30 404 H 41.9928 1.80359 -4.92515 0
M  V30 405 H 43.4668 3.41066 -4.34026 0
M  V30 406 H 43.9438 3.50499 -2.64665 0
M  V30 407 H 44.5498 2.17214 -3.65648 0
M  V30 408 N 42.8649 1.48995 0.513639 0
M  V30 409 C 43.7949 1.67636 1.62544 0
M  V30 410 C 44.7759 0.525087 1.61793 0
M  V30 411 O 45.9609 0.759502 1.78732 0
M  V30 412 C 43.0909 1.73114 3.01079 0
M  V30 413 C 42.0449 2.87905 3.16693 0
M  V30 414 C 41.3709 2.78486 4.56453 0
M  V30 415 C 42.6709 4.29005 2.97913 0
M  V30 416 H 44.3649 2.60716 1.47198 0
M  V30 417 H 41.9109 1.25465 0.706714 0
M  V30 418 H 43.8639 1.84742 3.78746 0
M  V30 419 H 42.5879 0.766241 3.17484 0
M  V30 420 H 41.2469 2.75859 2.41448 0
M  V30 421 H 40.8949 1.7993 4.69717 0
M  V30 422 H 40.5949 3.55523 4.67843 0
M  V30 423 H 42.1189 2.92104 5.36197 0
M  V30 424 H 43.5329 4.41798 3.65359 0
M  V30 425 H 41.9299 5.07166 3.20785 0
M  V30 426 H 42.9999 4.44329 1.94165 0
M  V30 427 N 44.343 -0.763751 1.37857 0
M  V30 428 C 45.589 -1.52483 1.33704 0
M  V30 429 C 45.922 -1.94051 -0.0759612 0
M  V30 430 O 45.197 -1.64675 -1.03501 0
M  V30 431 C 45.48 -2.78441 2.28348 0
M  V30 432 C 45.333 -2.43075 3.78463 0
M  V30 433 C 46.652 -3.80415 2.21298 0
M  V30 434 H 43.771 -0.553169 0.487005 0
M  V30 435 H 46.413 -0.875562 1.68624 0
M  V30 436 H 44.563 -3.33842 1.987 0
M  V30 437 H 46.235 -1.93527 4.18742 0
M  V30 438 H 44.478 -1.75666 3.96641 0
M  V30 439 H 45.149 -3.33149 4.40132 0
M  V30 440 H 47.625 -3.34527 2.47449 0
M  V30 441 H 46.501 -4.66257 2.89647 0
M  V30 442 H 46.762 -4.25262 1.20849 0
M  V30 443 N 45.8211 -1.22559 -0.990812 0
M  V30 444 C 47.0671 -1.05297 -1.73322 0
M  V30 445 C 47.4001 0.410655 -1.89808 0
M  V30 446 O 46.6751 1.30439 -1.44277 0
M  V30 447 C 46.9581 -1.76713 -3.13759 0
M  V30 448 C 46.8111 -3.30684 -3.04907 0
M  V30 449 C 48.1301 -1.52121 -4.12974 0
M  V30 450 H 45.2491 -0.38392 -0.629106 0
M  V30 451 H 47.8911 -1.50926 -1.15418 0
M  V30 452 H 46.0411 -1.37924 -3.63193 0
M  V30 453 H 47.7131 -3.7893 -2.63077 0
M  V30 454 H 45.9561 -3.60253 -2.41661 0
M  V30 455 H 46.6271 -3.75833 -4.04294 0
M  V30 456 H 49.1031 -1.85819 -3.72304 0
M  V30 457 H 47.9791 -2.04582 -5.0935 0
M  V30 458 H 48.2401 -0.454257 -4.3976 0
M  V30 459 N 47.2992 1.18797 -1.03562 0
M  V30 460 C 48.2462 2.22253 -0.622259 0
M  V30 461 C 49.2162 1.61987 0.36736 0
M  V30 462 O 50.4012 1.88986 0.262492 0
M  V30 463 C 47.5412 3.45097 0.0138462 0
M  V30 464 C 46.6542 4.19722 -1.02263 0
M  V30 465 C 45.7892 5.30009 -0.355573 0
M  V30 466 C 44.8282 5.96399 -1.37749 0
M  V30 467 N 43.9652 6.98234 -0.735766 0
M  V30 468 H 48.8052 2.56968 -1.50903 0
M  V30 469 H 46.3422 1.26245 -0.755017 0
M  V30 470 H 48.3002 4.15279 0.399948 0
M  V30 471 H 46.9302 3.11018 0.864158 0
M  V30 472 H 45.9822 3.48418 -1.52673 0
M  V30 473 H 47.2942 4.65227 -1.79903 0
M  V30 474 H 46.4482 6.0664 0.0850095 0
M  V30 475 H 45.1872 4.85592 0.452967 0
M  V30 476 H 44.1922 5.18512 -1.82826 0
M  V30 477 H 45.4172 6.42899 -2.18764 0
M  V30 478 H 43.3632 6.55979 0.0525597 0
M  V30 479 H 43.2802 7.41965 -1.44995 0
M  V30 480 H 44.5482 7.78845 -0.31941 0
M  V30 481 N 48.7773 0.814389 1.34928 0
M  V30 482 C 50.0233 0.399013 1.98836 0
M  V30 483 C 50.3563 -1.03314 1.64438 0
M  V30 484 O 49.6313 -1.71811 0.911659 0
M  V30 485 C 49.9143 0.591629 3.55207 0
M  V30 486 C 49.7673 2.06928 3.99376 0
M  V30 487 C 51.0863 0.022199 4.40094 0
M  V30 488 H 48.2053 0.146451 0.722303 0
M  V30 489 H 50.8473 1.02537 1.59957 0
M  V30 490 H 48.9973 0.0584441 3.88456 0
M  V30 491 H 50.6693 2.66544 3.76499 0
M  V30 492 H 48.9123 2.56287 3.49999 0
M  V30 493 H 49.5833 2.1549 5.08201 0
M  V30 494 H 52.0593 0.477643 4.13349 0
M  V30 495 H 50.9353 0.186832 5.48582 0
M  V30 496 H 51.1963 -1.07215 4.28902 0
M  V30 497 N 50.2554 -1.46986 0.568584 0
M  V30 498 C 51.1874 -2.28233 -0.210337 0
M  V30 499 C 52.2004 -1.37682 -0.868767 0
M  V30 500 O 53.3894 -1.62406 -0.740705 0
M  V30 501 C 50.4894 -3.12293 -1.3163 0
M  V30 502 C 49.6624 -4.30878 -0.7525 0
M  V30 503 C 48.7214 -4.96445 -1.74439 0
M  V30 504 O 47.7474 -5.54482 -1.286 0
M  V30 505 N 48.9494 -4.92171 -3.07812 0
M  V30 506 H 51.7144 -2.95723 0.486648 0
M  V30 507 H 49.2754 -1.56742 0.405409 0
M  V30 508 H 51.2674 -3.53022 -1.97883 0
M  V30 509 H 49.8374 -2.46971 -1.91636 0
M  V30 510 H 49.0574 -3.94104 0.0871128 0
M  V30 511 H 50.3454 -5.07558 -0.35536 0
M  V30 512 H 49.7434 -4.46239 -3.47688 0
M  V30 513 H 48.3004 -5.36884 -3.69592 0
M  V30 514 N 51.7335 -0.305618 -1.54608 0
M  V30 515 C 52.6805 0.568421 -2.23691 0
M  V30 516 C 53.6505 1.12592 -1.22116 0
M  V30 517 O 54.8355 1.16959 -1.50749 0
M  V30 518 C 51.9755 1.7322 -2.98477 0
M  V30 519 C 51.0885 1.20566 -4.14835 0
M  V30 520 C 50.2235 2.33368 -4.77193 0
M  V30 521 C 49.2625 1.7787 -5.85686 0
M  V30 522 N 48.3995 2.84263 -6.4198 0
M  V30 523 H 53.2395 -0.0272867 -2.97988 0
M  V30 524 H 50.7765 -0.0252363 -1.47078 0
M  V30 525 H 52.7345 2.41675 -3.40072 0
M  V30 526 H 51.3645 2.29947 -2.26548 0
M  V30 527 H 50.4165 0.413223 -3.78149 0
M  V30 528 H 51.7285 0.759417 -4.92985 0
M  V30 529 H 50.8825 3.09761 -5.21664 0
M  V30 530 H 49.6215 2.8132 -3.98385 0
M  V30 531 H 48.6265 0.99968 -5.40635 0
M  V30 532 H 49.8515 1.30816 -6.66381 0
M  V30 533 H 47.7975 3.31541 -5.66053 0
M  V30 534 H 47.7145 2.44149 -7.15491 0
M  V30 535 H 48.9825 3.6054 -6.91109 0
M  V30 536 N 53.2116 1.57565 -0.0334293 0
M  V30 537 C 54.1586 2.10478 0.946981 0
M  V30 538 C 55.1286 1.00787 1.32027 0
M  V30 539 O 56.3136 1.28232 1.41284 0
M  V30 540 C 53.4536 2.63994 2.22263 0
M  V30 541 C 52.5666 3.87709 1.90541 0
M  V30 542 C 51.7016 4.29604 3.12433 0
M  V30 543 C 50.7406 5.46065 2.76549 0
M  V30 544 N 49.8776 5.83096 3.9108 0
M  V30 545 H 54.7176 2.93963 0.488846 0
M  V30 546 H 52.2546 1.45296 0.22969 0
M  V30 547 H 54.2126 2.93114 2.96884 0
M  V30 548 H 52.8426 1.83333 2.65685 0
M  V30 549 H 51.8946 3.65291 1.06144 0
M  V30 550 H 53.2066 4.72403 1.60116 0
M  V30 551 H 52.3606 4.60182 3.9537 0
M  V30 552 H 51.0996 3.43685 3.46023 0
M  V30 553 H 50.1046 5.15176 1.92026 0
M  V30 554 H 51.3296 6.33685 2.44171 0
M  V30 555 H 49.2756 5.00132 4.24504 0
M  V30 556 H 49.1926 6.6244 3.64293 0
M  V30 557 H 50.4606 6.18282 4.74708 0
M  V30 558 N 54.6897 -0.239769 1.55765 0
M  V30 559 C 55.6527 -1.28038 1.90103 0
M  V30 560 C 56.6527 -1.40723 0.778055 0
M  V30 561 O 57.8427 -1.39301 1.04599 0
M  V30 562 C 54.9747 -2.65702 2.13577 0
M  V30 563 H 56.1677 -0.988048 2.83157 0
M  V30 564 H 53.7207 -0.479382 1.48767 0
M  V30 565 H 54.4557 -3.00063 1.23015 0
M  V30 566 H 54.2407 -2.57875 2.95369 0
M  V30 567 H 55.7307 -3.40828 2.41301 0
M  V30 568 N 56.1678 -1.49265 -0.50573 0
M  V30 569 C 57.1308 -1.65075 -1.59006 0
M  V30 570 C 58.1308 -0.522768 -1.52065 0
M  V30 571 O 59.3208 -0.789117 -1.55302 0
M  V30 572 C 56.4528 -1.64369 -2.98656 0
M  V30 573 H 57.6458 -2.61784 -1.46319 0
M  V30 574 H 55.1988 -1.38226 -0.729616 0
M  V30 575 H 55.9338 -0.692272 -3.16825 0
M  V30 576 H 55.7188 -2.46282 -3.05103 0
M  V30 577 H 57.2088 -1.78674 -3.77446 0
M  V30 578 N 57.6459 0.756429 -1.3826 0
M  V30 579 C 58.9229 1.50584 -1.24835 0
M  V30 580 C 59.3029 2.10556 0.151485 0
M  V30 581 O 58.6509 1.96825 1.1607 0
M  V30 582 C 58.8609 2.57448 -2.3563 0
M  V30 583 C 60.2089 3.24429 -2.73917 0
M  V30 584 O 61.2329 2.67751 -2.34921 0
M  V30 585 O 60.0919 4.26937 -3.41156 0
M  V30 586 H 57.1859 0.667664 -0.48801 0
M  V30 587 H 59.7319 0.792083 -1.5008 0
M  V30 588 H 58.5039 2.11362 -3.29305 0
M  V30 589 H 58.1269 3.36408 -2.11933 0
M  V30 590 N 59.124 1.23083 0.984299 0
M  V30 591 C 60.054 1.03292 2.09411 0
M  V30 592 C 61.035 -0.048923 1.7003 0
M  V30 593 O 62.22 0.114967 1.93859 0
M  V30 594 C 59.35 0.619155 3.41736 0
M  V30 595 C 58.304 1.64791 3.95004 0
M  V30 596 C 57.63 1.0897 5.23478 0
M  V30 597 C 58.93 3.03999 4.24714 0
M  V30 598 H 60.624 1.96119 2.26225 0
M  V30 599 H 58.17 0.944344 1.08711 0
M  V30 600 H 60.123 0.467777 4.18796 0
M  V30 601 H 58.847 -0.344786 3.24775 0
M  V30 602 H 57.506 1.78721 3.20085 0
M  V30 603 H 57.154 0.11686 5.02864 0
M  V30 604 H 56.854 1.77704 5.60085 0
M  V30 605 H 58.378 0.950093 6.03163 0
M  V30 606 H 59.792 2.93393 4.92538 0
M  V30 607 H 58.189 3.69936 4.72512 0
M  V30 608 H 59.259 3.53285 3.32142 0
M  V30 609 N 60.6021 -1.18246 1.0419 0
M  V30 610 C 62.0131 -1.69914 0.773698 0
M  V30 611 C 62.3641 -1.83085 -0.705297 0
M  V30 612 O 61.4891 -1.51123 -1.5489 0
M  V30 613 C 62.0841 -3.08619 1.39784 0
M  V30 614 C 60.6431 -3.57494 1.17792 0
M  V30 615 C 59.7901 -2.34013 1.48773 0
M  V30 616 H 62.7411 -1.02904 1.20816 0
M  V30 617 H 62.7621 -3.71958 0.801714 0
M  V30 618 H 62.2741 -2.99001 2.47426 0
M  V30 619 H 60.3751 -3.72406 0.120295 0
M  V30 620 H 60.4881 -4.40852 1.87581 0
M  V30 621 H 58.8521 -2.37986 0.907463 0
M  V30 622 H 59.6351 -2.27013 2.57527 0
M  V30 623 N 62.0802 -0.821533 -1.34494 0
M  V30 624 C 63.3572 -0.33159 -1.92769 0
M  V30 625 C 63.7372 1.18088 -1.74981 0
M  V30 626 O 63.0852 1.98733 -1.12772 0
M  V30 627 C 63.2952 -0.759398 -3.40638 0
M  V30 628 C 64.6432 -0.757433 -4.1779 0
M  V30 629 O 65.6672 -0.70189 -3.49216 0
M  V30 630 O 64.5262 -0.829361 -5.4017 0
M  V30 631 H 61.6202 -0.0902502 -0.822061 0
M  V30 632 H 64.1662 -0.906231 -1.43477 0
M  V30 633 H 62.9382 -1.8012 -3.47379 0
M  V30 634 H 62.5612 -0.160378 -3.97276 0
M  V30 635 N 63.5583 1.46682 -0.576371 0
M  V30 636 C 64.9743 1.57822 -0.237562 0
M  V30 637 C 65.1743 1.57237 1.26011 0
M  V30 638 O 64.2303 1.48596 2.04146 0
M  V30 639 C 65.5433 2.87499 -0.881168 0
M  V30 640 C 67.0913 3.01119 -0.85417 0
M  V30 641 C 67.5663 4.33524 -1.4772 0
M  V30 642 N 69.0573 4.40207 -1.44125 0
M  V30 643 C 69.7923 5.4126 -1.89276 0
M  V30 644 N 69.2883 6.49021 -2.42371 0
M  V30 645 N 71.0813 5.32422 -1.80231 0
M  V30 646 H 63.2323 1.45306 -1.54919 0
M  V30 647 H 65.4953 0.692733 -0.647167 0
M  V30 648 H 65.2013 2.9372 -1.93447 0
M  V30 649 H 65.0753 3.75224 -0.385592 0
M  V30 650 H 67.4623 2.94485 0.190491 0
M  V30 651 H 67.5433 2.14887 -1.3877 0
M  V30 652 H 67.1873 4.40916 -2.52103 0
M  V30 653 H 67.1173 5.1852 -0.918947 0
M  V30 654 H 69.6083 3.62931 -1.05307 0
M  V30 655 H 69.9213 7.2233 -2.74698 0
M  V30 656 H 68.2663 6.49858 -2.46393 0
M  V30 657 H 71.4573 4.47137 -1.38514 0
M  V30 658 H 71.6303 6.11034 -2.15735 0
M  V30 659 N 65.0364 0.313813 1.54444 0
M  V30 660 C 66.3134 -0.345447 1.92525 0
M  V30 661 C 66.6934 -1.70667 1.24242 0
M  V30 662 O 66.0414 -2.25273 0.382654 0
M  V30 663 C 66.2514 -0.44737 3.46121 0
M  V30 664 C 67.5994 -0.712238 4.18584 0
M  V30 665 O 68.6234 -0.530678 3.52225 0
M  V30 666 O 67.4824 -1.06183 5.36085 0
M  V30 667 H 64.5764 -0.195407 0.803583 0
M  V30 668 H 67.1224 0.362813 1.65776 0
M  V30 669 H 65.8944 0.509043 3.87975 0
M  V30 670 H 65.5174 -1.20359 3.78945 0
M  V30 671 N 66.5145 -1.57545 0.0417849 0
M  V30 672 C 67.7425 -1.96624 -0.643928 0
M  V30 673 C 68.1575 -0.918897 -1.64929 0
M  V30 674 O 67.5145 0.0979323 -1.82237 0
M  V30 675 C 67.5655 -3.35781 -1.33914 0
M  V30 676 O 67.2865 -4.365 -0.374048 0
M  V30 677 C 68.7875 -3.89566 -2.1155 0
M  V30 678 H 66.0075 -0.647316 -0.176702 0
M  V30 679 H 68.5515 -2.04229 0.105304 0
M  V30 680 H 66.7065 -3.29357 -2.03968 0
M  V30 681 H 67.1205 -5.17248 -0.869179 0
M  V30 682 H 68.5945 -4.89242 -2.55628 0
M  V30 683 H 69.0715 -3.24488 -2.9598 0
M  V30 684 H 69.6775 -3.99298 -1.46427 0
M  V30 685 N 67.9926 0.231505 -1.5589 0
M  V30 686 C 69.2386 0.954429 -1.79617 0
M  V30 687 C 69.5936 1.82367 -0.613199 0
M  V30 688 O 68.8866 1.87524 0.393094 0
M  V30 689 C 69.0806 1.83577 -3.0665 0
M  V30 690 C 68.9096 1.05334 -4.3719 0
M  V30 691 C 67.6796 0.75225 -4.99669 0
M  V30 692 C 69.8776 0.423444 -5.12554 0
M  V30 693 N 67.8596 -0.052627 -6.13877 0
M  V30 694 C 69.2306 -0.245287 -6.19515 0
M  V30 695 C 71.2856 0.335466 -4.96769 0
M  V30 696 C 69.9886 -0.993566 -7.12405 0
M  V30 697 C 72.0146 -0.399321 -5.9005 0
M  V30 698 C 71.3766 -1.05663 -6.9643 0
M  V30 699 H 67.4756 0.329846 -0.709031 0
M  V30 700 H 70.0596 0.226172 -1.93382 0
M  V30 701 H 68.2306 2.53592 -2.94186 0
M  V30 702 H 69.9626 2.49541 -3.18608 0
M  V30 703 H 66.7176 1.06783 -4.61405 0
M  V30 704 H 67.1416 -0.443609 -6.75545 0
M  V30 705 H 71.7836 0.829311 -4.14587 0
M  V30 706 H 69.5016 -1.49896 -7.94076 0
M  V30 707 H 73.0876 -0.468265 -5.79913 0
M  V30 708 H 71.9676 -1.61612 -7.67366 0
M  V30 709 N 69.4707 1.49531 0.497807 0
M  V30 710 C 70.4177 1.66436 1.59899 0
M  V30 711 C 71.3877 0.505793 1.58212 0
M  V30 712 O 72.5727 0.733202 1.7615 0
M  V30 713 C 69.7127 1.7399 2.98029 0
M  V30 714 C 68.8257 3.01172 3.09708 0
M  V30 715 C 67.9607 2.99686 4.38591 0
M  V30 716 C 66.9997 4.21434 4.43914 0
M  V30 717 N 66.1367 4.1784 5.64229 0
M  V30 718 H 70.9767 2.60459 1.44793 0
M  V30 719 H 68.5137 1.29137 0.704423 0
M  V30 720 H 70.4717 1.76352 3.78095 0
M  V30 721 H 69.1017 0.834301 3.11832 0
M  V30 722 H 68.1537 3.08408 2.22685 0
M  V30 723 H 69.4657 3.91165 3.09502 0
M  V30 724 H 68.6197 3.00628 5.2698 0
M  V30 725 H 67.3587 2.07477 4.41367 0
M  V30 726 H 66.3637 4.20733 3.53926 0
M  V30 727 H 67.5887 5.14839 4.42851 0
M  V30 728 H 65.5347 3.28469 5.67841 0
M  V30 729 H 65.4517 5.01571 5.65652 0
M  V30 730 H 66.7197 4.22889 6.54817 0
M  V30 731 N 70.9488 -0.749086 1.3866 0
M  V30 732 C 72.1968 -1.50535 1.34847 0
M  V30 733 C 72.5178 -1.94909 -0.0595016 0
M  V30 734 O 71.7878 -1.67973 -1.00806 0
M  V30 735 H 70.3678 -0.558395 0.49619 0
M  V30 736 H 73.0298 -0.890165 1.73384 0
M  V30 737 H 72.1258 -2.39413 2.00219 0
M  V30 738 N 72.4269 -1.23603 -0.977757 0
M  V30 739 C 73.8429 -0.999251 -1.24447 0
M  V30 740 C 74.0429 0.298053 -1.99283 0
M  V30 741 O 73.0989 1.01681 -2.31122 0
M  V30 742 C 74.4119 -2.20784 -2.04144 0
M  V30 743 C 75.9599 -2.25303 -2.17273 0
M  V30 744 C 76.4349 -3.45755 -3.00362 0
M  V30 745 N 77.9259 -3.4601 -3.07947 0
M  V30 746 C 78.6609 -4.35868 -3.72568 0
M  V30 747 N 78.1569 -5.35966 -4.38991 0
M  V30 748 N 79.9499 -4.23605 -3.6948 0
M  V30 749 H 72.1009 -2.06986 -0.476483 0
M  V30 750 H 74.3639 -0.907801 -0.273134 0
M  V30 751 H 74.0699 -3.14945 -1.56533 0
M  V30 752 H 73.9439 -2.22085 -3.04891 0
M  V30 753 H 76.3309 -1.3168 -2.64092 0
M  V30 754 H 76.4119 -2.28033 -1.15907 0
M  V30 755 H 76.0559 -4.39687 -2.5424 0
M  V30 756 H 75.9859 -3.40266 -4.01904 0
M  V30 757 H 78.4769 -2.73588 -2.60688 0
M  V30 758 H 78.7899 -6.00783 -4.86086 0
M  V30 759 H 77.1349 -5.39863 -4.37691 0
M  V30 760 H 80.3259 -3.44647 -3.16759 0
M  V30 761 H 80.4989 -4.93836 -4.1956 0
M  V30 762 N 73.905 1.17692 -1.04816 0
M  V30 763 C 75.152 1.87859 -0.75599 0
M  V30 764 C 75.48 1.80812 0.716752 0
M  V30 765 O 74.735 1.20819 1.53952 0
M  V30 766 C 75.034 3.37462 -1.17703 0
M  V30 767 C 74.7 3.64713 -2.65133 0
M  V30 768 C 73.362 3.71859 -3.05408 0
M  V30 769 C 75.714 3.76492 -3.60421 0
M  V30 770 C 73.042 3.88271 -4.39843 0
M  V30 771 C 75.394 3.94421 -4.94585 0
M  V30 772 C 74.058 3.99806 -5.3452 0
M  V30 773 H 73.328 0.687425 -0.276636 0
M  V30 774 H 75.975 1.39255 -1.31455 0
M  V30 775 H 74.28 3.88097 -0.537395 0
M  V30 776 H 75.977 3.90109 -0.928218 0
M  V30 777 H 72.567 3.59772 -2.32942 0
M  V30 778 H 76.751 3.70295 -3.30447 0
M  V30 779 H 72.007 3.90687 -4.70291 0
M  V30 780 H 76.181 4.02477 -5.68318 0
M  V30 781 H 73.808 4.12276 -6.38696 0
M  V30 782 N 75.3831 0.828654 1.34056 0
M  V30 783 C 76.6601 0.341809 1.9259 0
M  V30 784 C 77.0401 -1.17158 1.75605 0
M  V30 785 O 76.3881 -1.98132 1.13824 0
M  V30 786 C 76.5981 0.777453 3.4023 0
M  V30 787 C 77.9461 0.779579 4.17382 0
M  V30 788 O 78.9701 0.7204 3.48839 0
M  V30 789 O 77.8291 0.857996 5.39723 0
M  V30 790 H 74.9231 0.0946085 0.821571 0
M  V30 791 H 77.4691 0.913827 1.42994 0
M  V30 792 H 76.2411 1.8196 3.46419 0
M  V30 793 H 75.8641 0.181444 3.97186 0
M  V30 794 N 76.8612 -1.46375 0.584142 0
M  V30 795 C 78.1082 -2.02378 0.0702675 0
M  V30 796 C 78.4362 -1.45545 -1.29023 0
M  V30 797 O 77.6912 -0.610967 -1.85918 0
M  V30 798 C 77.9902 -3.57373 -0.0439342 0
M  V30 799 C 77.6562 -4.33252 1.24915 0
M  V30 800 C 76.3182 -4.53701 1.60341 0
M  V30 801 C 78.6702 -4.7681 2.1048 0
M  V30 802 C 75.9982 -5.1496 2.81128 0
M  V30 803 C 78.3502 -5.39404 3.30494 0
M  V30 804 C 77.0142 -5.5808 3.66201 0
M  V30 805 H 76.2842 -0.740554 0.0257127 0
M  V30 806 H 78.9312 -1.75727 0.761065 0
M  V30 807 H 77.2362 -3.83169 -0.817869 0
M  V30 808 H 78.9332 -3.98384 -0.457318 0
M  V30 809 H 75.5232 -4.17633 0.963364 0
M  V30 810 H 79.7072 -4.60766 1.84414 0
M  V30 811 H 74.9632 -5.27611 3.08928 0
M  V30 812 H 79.1372 -5.72114 3.97063 0
M  V30 813 H 76.7642 -6.05318 4.59885 0
M  V30 814 N 78.3393 -0.321999 -1.54275 0
M  V30 815 C 79.2693 0.537411 -2.27231 0
M  V30 816 C 80.2503 1.12064 -1.27968 0
M  V30 817 O 81.4353 1.14606 -1.56777 0
M  V30 818 C 78.5653 1.69919 -3.02894 0
M  V30 819 C 77.5193 1.24534 -4.09482 0
M  V30 820 C 76.8453 2.49394 -4.72977 0
M  V30 821 C 78.1453 0.361335 -5.21049 0
M  V30 822 H 79.8393 -0.0711406 -2.99315 0
M  V30 823 H 77.3853 -0.0356555 -1.43956 0
M  V30 824 H 79.3383 2.30668 -3.52662 0
M  V30 825 H 78.0623 2.33431 -2.28424 0
M  V30 826 H 76.7213 0.660782 -3.60596 0
M  V30 827 H 76.3693 3.11265 -3.95124 0
M  V30 828 H 76.0693 2.19718 -5.44975 0
M  V30 829 H 77.5933 3.10908 -5.25517 0
M  V30 830 H 79.0073 0.875072 -5.66582 0
M  V30 831 H 77.4043 0.157428 -5.99893 0
M  V30 832 H 78.4743 -0.60822 -4.8107 0
M  V30 833 N 79.8174 1.5752 -0.0501392 0
M  V30 834 C 80.7504 2.07026 0.959962 0
M  V30 835 C 81.7284 0.970539 1.30458 0
M  V30 836 O 82.9124 1.2424 1.41763 0
M  V30 837 C 80.0394 2.5099 2.27424 0
M  V30 838 C 79.0854 3.72188 2.08275 0
M  V30 839 S 79.9184 5.17888 1.36207 0
M  V30 840 C 81.0744 5.65165 2.6896 0
M  V30 841 H 81.3074 2.9238 0.538631 0
M  V30 842 H 78.8404 1.53547 0.162099 0
M  V30 843 H 80.7984 2.76982 3.02971 0
M  V30 844 H 79.4594 1.65944 2.66686 0
M  V30 845 H 78.6524 4.00866 3.05487 0
M  V30 846 H 78.2544 3.46457 1.40868 0
M  V30 847 H 80.5464 5.70687 3.65133 0
M  V30 848 H 81.4894 6.64394 2.4492 0
M  V30 849 H 81.8974 4.9289 2.75172 0
M  V30 850 N 81.2955 -0.223234 1.56011 0
M  V30 851 C 82.5205 -0.968978 1.83373 0
M  V30 852 C 82.9455 -1.77227 0.630254 0
M  V30 853 O 82.3035 -1.76345 -0.420959 0
M  V30 854 C 82.3515 -1.86363 3.08709 0
M  V30 855 O 81.4555 -2.95873 2.87285 0
M  V30 856 H 80.7965 -0.274461 0.604622 0
M  V30 857 H 83.3265 -0.237056 2.03222 0
M  V30 858 H 83.3365 -2.27376 3.38768 0
M  V30 859 H 82.0115 -1.27319 3.95933 0
M  V30 860 H 80.5885 -2.58818 2.68454 0
M  V30 861 N 82.7736 -1.49793 -0.48987 0
M  V30 862 C 84.0136 -1.61466 -1.25332 0
M  V30 863 C 84.3776 -0.299688 -1.89647 0
M  V30 864 O 85.5786 -0.291687 -2.67213 0
M  V30 865 C 83.8496 -2.74944 -2.28343 0
M  V30 866 S 85.4086 -3.06637 -3.13878 0
M  V30 867 H 82.2266 -0.569411 -0.425784 0
M  V30 868 H 84.8286 -1.875 -0.553541 0
M  V30 869 H 83.5326 -3.68994 -1.79643 0
M  V30 870 H 83.0636 -2.50938 -3.02975 0
M  V30 871 H 85.0786 -2.49015 -4.29192 0
M  V30 872 N 84.2517 0.741722 -1.39055 0
M  V30 873 C 85.4977 1.50336 -1.36113 0
M  V30 874 C 85.8307 1.94148 0.0450796 0
M  V30 875 O 85.1057 1.66301 1.00868 0
M  V30 876 C 85.3887 2.74773 -2.32749 0
M  V30 877 C 85.2417 2.37023 -3.82283 0
M  V30 878 C 86.5607 3.76846 -2.27322 0
M  V30 879 H 83.6797 0.545351 -0.495743 0
M  V30 880 H 86.3217 0.848624 -1.69995 0
M  V30 881 H 84.4717 3.30639 -2.03986 0
M  V30 882 H 86.1437 1.8684 -4.21768 0
M  V30 883 H 84.3867 1.69334 -3.99385 0
M  V30 884 H 85.0577 3.26104 -4.45376 0
M  V30 885 H 87.5337 3.30548 -2.5274 0
M  V30 886 H 86.4097 4.6159 -2.97028 0
M  V30 887 H 86.6707 4.23286 -1.27599 0
M  V30 888 N 85.7298 1.2412 0.971189 0
M  V30 889 C 86.9778 1.07668 1.71032 0
M  V30 890 C 87.2988 -0.385797 1.91146 0
M  V30 891 O 86.5688 -1.27569 1.4867 0
M  V30 892 H 85.1488 0.395429 0.633755 0
M  V30 893 H 87.8108 1.55984 1.16855 0
M  V30 894 H 86.9068 1.57195 2.69622 0
M  V30 895 N 87.2079 -1.17134 1.05439 0
M  V30 896 C 88.4379 -1.91094 0.785274 0
M  V30 897 C 88.8459 -1.77198 -0.663142 0
M  V30 898 O 88.1889 -1.10835 -1.46497 0
M  V30 899 C 88.2509 -3.42594 1.08949 0
M  V30 900 C 87.9149 -3.80274 2.53458 0
M  V30 901 C 88.9119 -3.82912 3.51673 0
M  V30 902 C 86.5969 -4.11162 2.88532 0
M  V30 903 C 88.5909 -4.15913 4.83006 0
M  V30 904 C 86.2779 -4.43831 4.20068 0
M  V30 905 C 87.2759 -4.46185 5.17115 0
M  V30 906 O 86.9639 -4.78083 6.46291 0
M  V30 907 H 86.6959 -0.613073 0.284811 0
M  V30 908 H 89.2499 -1.49461 1.40893 0
M  V30 909 H 87.4799 -3.84534 0.408741 0
M  V30 910 H 89.1689 -3.97817 0.805991 0
M  V30 911 H 89.9349 -3.5917 3.25917 0
M  V30 912 H 85.8139 -4.085 2.13656 0
M  V30 913 H 89.3579 -4.17665 5.5875 0
M  V30 914 H 85.2549 -4.67037 4.45586 0
M  V30 915 H 86.0229 -4.9593 6.51149 0
M  V30 916 N 88.686 -0.835752 -1.33615 0
M  V30 917 C 89.649 -0.272 -2.2758 0
M  V30 918 C 90.649 0.557487 -1.50827 0
M  V30 919 O 91.839 0.37173 -1.70188 0
M  V30 920 C 88.971 0.617173 -3.35267 0
M  V30 921 H 90.164 -1.10111 -2.78954 0
M  V30 922 H 87.717 -0.608594 -1.43965 0
M  V30 923 H 88.452 1.46884 -2.89129 0
M  V30 924 H 88.237 0.0237066 -3.92093 0
M  V30 925 H 89.727 1.005 -4.05326 0
M  V30 926 N 90.1641 1.46063 -0.591896 0
M  V30 927 C 91.4131 2.01547 -0.0786637 0
M  V30 928 C 91.7261 1.46796 1.29268 0
M  V30 929 O 92.9321 1.94157 1.89777 0
M  V30 930 C 91.3881 3.59787 -0.0900024 0
M  V30 931 C 90.9961 4.23534 -1.46023 0
M  V30 932 C 92.7401 4.22895 0.368806 0
M  V30 933 C 90.6471 5.73881 -1.4288 0
M  V30 934 H 89.5771 0.753564 -0.0256388 0
M  V30 935 H 92.2281 1.677 -0.744905 0
M  V30 936 H 90.6101 3.90752 0.642586 0
M  V30 937 H 91.7841 4.04167 -2.21328 0
M  V30 938 H 90.0991 3.72558 -1.85982 0
M  V30 939 H 92.6961 5.33116 0.411258 0
M  V30 940 H 93.0391 3.9247 1.38827 0
M  V30 941 H 93.5721 3.9659 -0.31001 0
M  V30 942 H 90.3111 6.0898 -2.42536 0
M  V30 943 H 89.8311 5.95486 -0.718095 0
M  V30 944 H 91.5101 6.36776 -1.14565 0
M  V30 945 N 91.6422 0.330177 1.54103 0
M  V30 946 C 92.8902 -0.269871 2.0029 0
M  V30 947 C 93.2112 -1.52133 1.21986 0
M  V30 948 O 92.4812 -1.93212 0.323438 0
M  V30 949 H 91.0612 -0.10271 0.739905 0
M  V30 950 H 93.7232 0.448249 1.89675 0
M  V30 951 H 92.8192 -0.52166 3.07709 0
M  V30 952 N 93.1203 -1.57491 0.0584922 0
M  V30 953 C 94.0503 -2.14988 -0.911178 0
M  V30 954 C 95.0313 -1.07343 -1.31952 0
M  V30 955 O 96.2163 -1.35318 -1.39294 0
M  V30 956 C 93.3463 -2.70078 -2.18347 0
M  V30 957 C 92.3003 -3.82771 -1.91495 0
M  V30 958 C 91.6263 -4.24408 -3.25241 0
M  V30 959 C 92.9263 -5.07592 -1.23075 0
M  V30 960 H 94.6203 -2.96263 -0.432246 0
M  V30 961 H 92.1663 -1.42512 -0.206469 0
M  V30 962 H 94.1193 -3.08943 -2.86587 0
M  V30 963 H 92.8433 -1.86005 -2.68458 0
M  V30 964 H 91.5023 -3.44389 -1.25664 0
M  V30 965 H 91.1503 -3.37275 -3.73168 0
M  V30 966 H 90.8503 -5.00366 -3.08071 0
M  V30 967 H 92.3743 -4.65879 -3.94701 0
M  V30 968 H 93.7883 -5.43857 -1.81362 0
M  V30 969 H 92.1853 -5.88741 -1.16207 0
M  V30 970 H 93.2553 -4.84454 -0.207847 0
M  V30 971 N 94.5984 0.214957 -1.56127 0
M  V30 972 C 95.8464 0.936518 -1.79091 0
M  V30 973 C 96.1674 1.84606 -0.628148 0
M  V30 974 O 95.4374 1.92664 0.35462 0
M  V30 975 H 94.0174 0.3488 -0.660566 0
M  V30 976 H 96.6794 0.22523 -1.93594 0
M  V30 977 H 95.7754 1.53943 -2.71492 0
M  V30 978 N 96.0765 1.50051 0.48192 0
M  V30 979 C 97.0245 1.68635 1.60203 0
M  V30 980 C 98.0185 0.552184 1.60148 0
M  V30 981 O 99.2245 0.732377 1.64427 0
M  V30 982 H 95.5995 0.532081 0.531407 0
M  V30 983 H 97.5705 2.62616 1.41688 0
M  V30 984 C 96.3195 1.78775 2.9822 0
M  V30 985 H 95.6425 2.6543 2.98976 0
M  V30 986 H 97.0825 1.95806 3.7608 0
M  V30 987 C 95.5415 0.536849 3.32595 0
M  V30 988 O 96.0715 -0.328897 4.00351 0
M  V30 989 N 94.2775 0.394091 2.87915 0
M  V30 990 H 93.8245 1.09962 2.32951 0
M  V30 991 H 93.7825 -0.441737 3.11281 0
M  V30 992 N 97.5546 -0.734337 1.39446 0
M  V30 993 C 98.8006 -1.49613 1.36908 0
M  V30 994 C 99.1336 -1.94169 -0.0347829 0
M  V30 995 O 98.4086 -1.66833 -0.999847 0
M  V30 996 C 98.6916 -2.73534 2.34203 0
M  V30 997 C 98.5446 -2.34993 3.83534 0
M  V30 998 C 99.8636 -3.75635 2.29317 0
M  V30 999 H 96.9826 -0.542714 0.498629 0
M  V30 1000 H 99.6246 -0.839597 1.70443 0
M  V30 1001 H 97.7746 -3.29553 2.05736 0
M  V30 1002 H 99.4466 -1.84601 4.22753 0
M  V30 1003 H 97.6896 -1.67213 4.00278 0
M  V30 1004 H 98.3606 -3.23738 4.47099 0
M  V30 1005 H 100.837 -3.29203 2.54489 0
M  V30 1006 H 99.7126 -4.60008 2.99472 0
M  V30 1007 H 99.9736 -4.22603 1.29842 0
M  V30 1008 N 99.0327 -1.24633 -0.964593 0
M  V30 1009 C 100.279 -1.09957 -1.71117 0
M  V30 1010 C 100.634 0.357422 -1.89051 0
M  V30 1011 O 99.9267 1.26029 -1.44317 0
M  V30 1012 C 100.121 -1.7763 -3.10133 0
M  V30 1013 C 99.9497 -3.29759 -3.05759 0
M  V30 1014 C 98.7197 -3.98981 -3.10068 0
M  V30 1015 C 100.918 -4.26305 -2.87695 0
M  V30 1016 N 98.8997 -5.37966 -2.95747 0
M  V30 1017 C 100.271 -5.52308 -2.81702 0
M  V30 1018 C 102.326 -4.16842 -2.72299 0
M  V30 1019 C 101.029 -6.69931 -2.61887 0
M  V30 1020 C 103.055 -5.34147 -2.53853 0
M  V30 1021 C 102.417 -6.59084 -2.48572 0
M  V30 1022 H 98.5157 -0.457003 -0.634564 0
M  V30 1023 H 101.1 -1.57592 -1.14337 0
M  V30 1024 H 99.2707 -1.32504 -3.65099 0
M  V30 1025 H 101.003 -1.55786 -3.73514 0
M  V30 1026 H 97.7577 -3.50169 -3.18871 0
M  V30 1027 H 98.1817 -6.10877 -2.91818 0
M  V30 1028 H 102.824 -3.21007 -2.75163 0
M  V30 1029 H 100.542 -7.65886 -2.57767 0
M  V30 1030 H 104.128 -5.28678 -2.4288 0
M  V30 1031 H 103.008 -7.48324 -2.34481 0
M  V30 1032 N 100.511 1.16574 -1.06058 0
M  V30 1033 C 101.927 1.3904 -0.783585 0
M  V30 1034 C 102.127 1.91784 0.618145 0
M  V30 1035 O 101.183 2.11511 1.37911 0
M  V30 1036 C 102.496 2.37329 -1.84649 0
M  V30 1037 C 104.044 2.51018 -1.86973 0
M  V30 1038 C 104.519 3.52588 -2.92311 0
M  V30 1039 N 106.01 3.60113 -2.91329 0
M  V30 1040 C 106.745 4.38486 -3.69482 0
M  V30 1041 N 106.241 5.20302 -4.57447 0
M  V30 1042 N 108.034 4.33446 -3.57885 0
M  V30 1043 H 100.185 0.806725 -1.96483 0
M  V30 1044 H 102.448 0.417117 -0.851303 0
M  V30 1045 H 102.154 2.05663 -2.85299 0
M  V30 1046 H 102.028 3.36946 -1.6955 0
M  V30 1047 H 104.415 2.81989 -0.869827 0
M  V30 1048 H 104.496 1.51445 -2.0615 0
M  V30 1049 H 104.14 3.22354 -3.92492 0
M  V30 1050 H 104.07 4.51886 -2.70383 0
M  V30 1051 H 106.561 3.01707 -2.27555 0
M  V30 1052 H 106.874 5.77311 -5.13743 0
M  V30 1053 H 105.219 5.19653 -4.61503 0
M  V30 1054 H 108.41 3.68586 -2.88551 0
M  V30 1055 H 108.583 4.94279 -4.19037 0
M  V30 1056 N 101.989 0.842826 1.3317 0
M  V30 1057 C 103.236 0.440447 1.97652 0
M  V30 1058 C 103.564 -1.00123 1.6675 0
M  V30 1059 O 102.819 -1.7155 0.941761 0
M  V30 1060 C 103.118 0.612607 3.52111 0
M  V30 1061 C 102.784 2.02297 4.02972 0
M  V30 1062 C 101.446 2.40874 4.16573 0
M  V30 1063 C 103.798 2.94402 4.30089 0
M  V30 1064 C 101.126 3.70852 4.54627 0
M  V30 1065 C 103.478 4.23865 4.69597 0
M  V30 1066 C 102.142 4.62392 4.81404 0
M  V30 1067 H 101.412 0.161171 0.72326 0
M  V30 1068 H 104.059 1.07061 1.58777 0
M  V30 1069 H 102.364 -0.100849 3.9167 0
M  V30 1070 H 104.061 0.2815 4.00011 0
M  V30 1071 H 100.651 1.71338 3.92863 0
M  V30 1072 H 104.835 2.65835 4.19101 0
M  V30 1073 H 100.091 4.00501 4.61962 0
M  V30 1074 H 104.265 4.95306 4.89536 0
M  V30 1075 H 101.892 5.63154 5.10648 0
M  V30 1076 N 103.467 -1.45747 0.599634 0
M  V30 1077 C 104.878 -1.85853 0.177681 0
M  V30 1078 C 105.229 -1.50102 -1.26348 0
M  V30 1079 O 104.354 -0.923905 -1.95686 0
M  V30 1080 C 104.949 -3.37326 0.315688 0
M  V30 1081 C 103.508 -3.76365 -0.0515144 0
M  V30 1082 C 102.655 -2.69722 0.643822 0
M  V30 1083 H 105.606 -1.36661 0.806814 0
M  V30 1084 H 105.627 -3.77778 -0.454321 0
M  V30 1085 H 105.139 -3.63315 1.36468 0
M  V30 1086 H 103.24 -3.55993 -1.09999 0
M  V30 1087 H 103.353 -4.77916 0.336594 0
M  V30 1088 H 101.717 -2.54567 0.0822881 0
M  V30 1089 H 102.5 -2.98549 1.6948 0
M  V30 1090 N 104.945 -0.338344 -1.53925 0
M  V30 1091 C 106.175 0.260919 -2.04946 0
M  V30 1092 C 106.583 1.45174 -1.2133 0
M  V30 1093 O 105.926 1.82122 -0.240262 0
M  V30 1094 C 105.988 0.744596 -3.51704 0
M  V30 1095 C 105.652 -0.325883 -4.55837 0
M  V30 1096 C 106.649 -1.16687 -5.06636 0
M  V30 1097 C 104.334 -0.478317 -5.00017 0
M  V30 1098 C 106.328 -2.14588 -6.00192 0
M  V30 1099 C 104.015 -1.46073 -5.93385 0
M  V30 1100 C 105.013 -2.29297 -6.4336 0
M  V30 1101 O 104.701 -3.25867 -7.34892 0
M  V30 1102 H 104.433 0.0551207 -0.673749 0
M  V30 1103 H 106.987 -0.486984 -1.99544 0
M  V30 1104 H 105.217 1.54366 -3.54553 0
M  V30 1105 H 106.906 1.26383 -3.85723 0
M  V30 1106 H 107.672 -1.06016 -4.73271 0
M  V30 1107 H 103.551 0.159613 -4.60724 0
M  V30 1108 H 107.095 -2.79585 -6.39123 0
M  V30 1109 H 102.992 -1.56802 -6.26166 0
M  V30 1110 H 103.76 -3.21278 -7.5281 0
M  V30 1111 N 106.423 1.57458 -0.0668435 0
M  V30 1112 C 107.353 2.15468 0.899764 0
M  V30 1113 C 108.334 1.08042 1.31381 0
M  V30 1114 O 109.519 1.36054 1.38574 0
M  V30 1115 C 106.649 2.71232 2.16911 0
M  V30 1116 C 105.603 3.83781 1.89463 0
M  V30 1117 C 104.929 4.26127 3.22986 0
M  V30 1118 C 106.229 5.08238 1.20381 0
M  V30 1119 H 107.923 2.96488 0.416529 0
M  V30 1120 H 105.469 1.4262 0.198908 0
M  V30 1121 H 107.422 3.10458 2.84945 0
M  V30 1122 H 106.146 1.87426 2.67468 0
M  V30 1123 H 104.805 3.45051 1.23836 0
M  V30 1124 H 104.453 3.39249 3.71374 0
M  V30 1125 H 104.153 5.01993 3.05413 0
M  V30 1126 H 105.677 4.67966 3.92225 0
M  V30 1127 H 107.091 5.44811 1.78475 0
M  V30 1128 H 105.488 5.89349 1.13083 0
M  V30 1129 H 106.558 4.84558 0.182153 0
M  V30 1130 N 107.901 -0.206675 1.56239 0
M  V30 1131 C 109.141 -0.93574 1.81723 0
M  V30 1132 C 109.505 -1.80927 0.642609 0
M  V30 1133 O 110.706 -2.57323 0.777081 0
M  V30 1134 C 108.977 -1.74012 3.12177 0
M  V30 1135 S 110.536 -2.52279 3.59028 0
M  V30 1136 H 107.354 -0.314065 0.637875 0
M  V30 1137 H 109.956 -0.200071 1.94474 0
M  V30 1138 H 108.66 -1.0888 3.95693 0
M  V30 1139 H 108.191 -2.51782 3.02274 0
M  V30 1140 H 110.206 -3.76209 3.23545 0
M  V30 1141 N 109.379 -1.50304 -0.473955 0
M  V30 1142 C 110.627 -1.60832 -1.22382 0
M  V30 1143 C 110.948 -0.30939 -1.9253 0
M  V30 1144 O 110.218 0.67296 -1.83978 0
M  V30 1145 H 108.798 -0.592652 -0.454723 0
M  V30 1146 H 111.46 -1.87068 -0.546968 0
M  V30 1147 H 110.556 -2.41803 -1.97327 0
M  V30 1148 N 110.857 0.726932 -1.39834 0
M  V30 1149 C 111.804 1.841 -1.39197 0
M  V30 1150 C 112.774 1.642 -0.250502 0
M  V30 1151 O 113.959 1.85494 -0.446846 0
M  V30 1152 C 111.099 3.21697 -1.24919 0
M  V30 1153 C 110.212 3.53247 -2.48678 0
M  V30 1154 C 109.347 4.80289 -2.26928 0
M  V30 1155 C 108.386 5.04707 -3.4632 0
M  V30 1156 N 107.523 6.22956 -3.23836 0
M  V30 1157 H 112.363 1.83979 -2.34427 0
M  V30 1158 H 109.9 0.898876 -1.16442 0
M  V30 1159 H 111.858 4.01137 -1.1465 0
M  V30 1160 H 110.488 3.21076 -0.333153 0
M  V30 1161 H 109.54 2.68447 -2.69519 0
M  V30 1162 H 110.852 3.67205 -3.37582 0
M  V30 1163 H 110.006 5.67725 -2.13947 0
M  V30 1164 H 108.745 4.68519 -1.35431 0
M  V30 1165 H 107.75 4.1573 -3.5979 0
M  V30 1166 H 108.975 5.18357 -4.38729 0
M  V30 1167 H 106.921 6.12459 -2.35011 0
M  V30 1168 H 106.838 6.37539 -4.063 0
M  V30 1169 H 108.106 7.1321 -3.14566 0
M  V30 1170 N 112.336 1.25143 0.95797 0
M  V30 1171 C 113.284 1.05019 2.07542 0
M  V30 1172 C 114.278 -0.0178751 1.69391 0
M  V30 1173 O 115.484 0.137472 1.79474 0
M  V30 1174 H 111.859 0.32265 0.679265 0
M  V30 1175 H 113.83 1.99759 2.21673 0
M  V30 1176 C 112.579 0.682074 3.40944 0
M  V30 1177 H 111.902 1.49573 3.70767 0
M  V30 1178 H 113.342 0.580945 4.20001 0
M  V30 1179 C 111.801 -0.611608 3.31302 0
M  V30 1180 O 112.331 -1.65465 3.66038 0
M  V30 1181 N 110.537 -0.595982 2.84423 0
M  V30 1182 H 110.084 0.253192 2.56353 0
M  V30 1183 H 110.042 -1.46173 2.78354 0
M  V30 1184 N 113.814 -1.1601 1.06675 0
M  V30 1185 C 115.062 -1.86264 0.784229 0
M  V30 1186 C 115.383 -1.82328 -0.691488 0
M  V30 1187 O 114.653 -1.25947 -1.50047 0
M  V30 1188 H 113.233 -0.689621 0.28711 0
M  V30 1189 H 115.895 -1.40664 1.34906 0
M  V30 1190 H 114.991 -2.91595 1.11259 0
M  V30 1191 N 115.292 -0.849877 -1.32721 0
M  V30 1192 C 116.54 -0.450032 -1.97026 0
M  V30 1193 C 116.861 0.996604 -1.67609 0
M  V30 1194 O 116.131 1.6958 -0.980786 0
M  V30 1195 H 114.711 -0.163426 -0.728904 0
M  V30 1196 H 117.373 -1.08526 -1.6189 0
M  V30 1197 H 116.469 -0.591146 -3.0645 0
M  V30 1198 N 116.77 1.45427 -0.607355 0
M  V30 1199 C 118.018 2.01841 -0.102253 0
M  V30 1200 C 118.339 1.47832 1.27164 0
M  V30 1201 O 117.609 0.672497 1.83995 0
M  V30 1202 H 116.189 0.746188 -0.0348101 0
M  V30 1203 H 118.851 1.78229 -0.7887 0
M  V30 1204 H 117.947 3.12057 -0.0518585 0
M  V30 1205 N 118.248 0.346503 1.53744 0
M  V30 1206 C 119.211 -0.496439 2.23759 0
M  V30 1207 C 120.211 -1.0252 1.2388 0
M  V30 1208 O 121.401 -0.913974 1.48297 0
M  V30 1209 C 118.533 -1.69187 2.95954 0
M  V30 1210 H 119.726 0.115952 2.99676 0
M  V30 1211 H 117.279 0.0978939 1.55993 0
M  V30 1212 H 118.014 -2.34288 2.24231 0
M  V30 1213 H 117.799 -1.31989 3.69217 0
M  V30 1214 H 119.289 -2.28969 3.49232 0
M  V30 1215 N 119.726 -1.57421 0.075193 0
M  V30 1216 C 120.973 -1.93618 -0.593146 0
M  V30 1217 C 121.301 -0.955484 -1.69413 0
M  V30 1218 O 120.556 0.0283251 -1.9568 0
M  V30 1219 C 120.855 -3.36428 -1.20626 0
M  V30 1220 C 120.521 -4.50307 -0.231078 0
M  V30 1221 C 119.183 -4.81186 0.0371936 0
M  V30 1222 C 121.535 -5.19374 0.435888 0
M  V30 1223 C 118.863 -5.78466 0.979461 0
M  V30 1224 C 121.215 -6.17665 1.3665 0
M  V30 1225 C 119.879 -6.46958 1.6432 0
M  V30 1226 H 119.149 -0.708499 -0.217047 0
M  V30 1227 H 121.796 -1.90937 0.146793 0
M  V30 1228 H 120.101 -3.35592 -2.02201 0
M  V30 1229 H 121.798 -3.61727 -1.73073 0
M  V30 1230 H 118.388 -4.26227 -0.450357 0
M  V30 1231 H 122.572 -4.95711 0.241748 0
M  V30 1232 H 117.828 -5.99487 1.20106 0
M  V30 1233 H 122.002 -6.70284 1.88924 0
M  V30 1234 H 119.629 -7.2215 2.37494 0
M  V30 1235 N 121.204 0.198386 -1.56346 0
M  V30 1236 C 122.134 1.24865 -1.9731 0
M  V30 1237 C 123.115 1.47651 -0.844576 0
M  V30 1238 O 124.3 1.59444 -1.10866 0
M  V30 1239 C 121.43 2.59358 -2.30977 0
M  V30 1240 C 120.384 2.5119 -3.46537 0
M  V30 1241 C 119.71 3.89926 -3.65871 0
M  V30 1242 C 121.01 2.03977 -4.80823 0
M  V30 1243 H 122.704 0.908252 -2.85291 0
M  V30 1244 H 120.25 0.435462 -1.37258 0
M  V30 1245 H 122.203 3.33011 -2.58228 0
M  V30 1246 H 120.927 2.95132 -1.39874 0
M  V30 1247 H 119.586 1.79993 -3.19371 0
M  V30 1248 H 119.234 4.23046 -2.72105 0
M  V30 1249 H 118.934 3.85336 -4.4361 0
M  V30 1250 H 120.458 4.65205 -3.95495 0
M  V30 1251 H 121.872 2.67386 -5.07127 0
M  V30 1252 H 120.269 2.10397 -5.62008 0
M  V30 1253 H 121.339 0.992861 -4.74626 0
M  V30 1254 N 122.682 1.50554 0.465978 0
M  V30 1255 C 123.931 1.61038 1.21448 0
M  V30 1256 C 124.244 0.31865 1.92987 0
M  V30 1257 O 125.45 0.302469 2.6981 0
M  V30 1258 C 123.906 2.84283 2.20706 0
M  V30 1259 C 123.514 4.20352 1.54946 0
M  V30 1260 C 125.258 3.04115 2.96166 0
M  V30 1261 C 123.165 5.34778 2.5252 0
M  V30 1262 H 122.095 0.599718 0.457005 0
M  V30 1263 H 124.746 1.7699 0.484424 0
M  V30 1264 H 123.128 2.61901 2.97025 0
M  V30 1265 H 124.302 4.53008 0.843811 0
M  V30 1266 H 122.617 4.06167 0.917475 0
M  V30 1267 H 125.214 3.86774 3.69202 0
M  V30 1268 H 125.557 2.16045 3.55852 0
M  V30 1269 H 126.09 3.26702 2.26959 0
M  V30 1270 H 122.829 6.25018 1.97566 0
M  V30 1271 H 122.349 5.06534 3.21222 0
M  V30 1272 H 124.028 5.65561 3.14245 0
M  V30 1273 N 124.16 -0.719506 1.40217 0
M  V30 1274 C 125.571 -1.29848 1.34151 0
M  V30 1275 C 125.922 -1.96196 0.0131349 0
M  V30 1276 O 125.047 -1.973 -0.88892 0
M  V30 1277 C 125.642 -2.36118 2.42968 0
M  V30 1278 C 124.201 -2.8965 2.40374 0
M  V30 1279 C 123.348 -1.63393 2.24049 0
M  V30 1280 H 126.299 -0.51591 1.5008 0
M  V30 1281 H 126.32 -3.16871 2.10649 0
M  V30 1282 H 125.832 -1.878 3.39636 0
M  V30 1283 H 123.933 -3.42208 1.47392 0
M  V30 1284 H 124.046 -3.4171 3.35814 0
M  V30 1285 H 122.41 -1.88312 1.71495 0
M  V30 1286 H 123.193 -1.17104 3.2271 0
M  V30 1287 N 125.638 -1.25649 -0.95132 0
M  V30 1288 C 126.868 -1.13179 -1.72841 0
M  V30 1289 C 127.276 0.316827 -1.86528 0
M  V30 1290 O 126.619 1.22948 -1.3649 0
M  V30 1291 C 126.681 -1.71644 -3.15878 0
M  V30 1292 C 126.345 -3.20667 -3.25609 0
M  V30 1293 C 127.342 -4.17616 -3.09666 0
M  V30 1294 C 125.027 -3.6094 -3.49324 0
M  V30 1295 C 127.021 -5.52817 -3.17289 0
M  V30 1296 C 124.708 -4.96278 -3.56584 0
M  V30 1297 C 125.706 -5.92025 -3.40581 0
M  V30 1298 O 125.394 -7.24899 -3.47528 0
M  V30 1299 H 125.126 -0.395389 -0.54831 0
M  V30 1300 H 127.68 -1.66566 -1.20187 0
M  V30 1301 H 125.91 -1.12707 -3.69911 0
M  V30 1302 H 127.599 -1.54225 -3.75459 0
M  V30 1303 H 128.365 -3.87842 -2.91211 0
M  V30 1304 H 124.244 -2.86907 -3.6084 0
M  V30 1305 H 127.788 -6.2753 -3.04716 0
M  V30 1306 H 123.685 -5.25716 -3.74556 0
M  V30 1307 H 124.453 -7.33039 -3.64138 0
M  V30 1308 N 127.117 1.15442 -1.07289 0
M  V30 1309 C 128.364 1.86213 -0.795668 0
M  V30 1310 C 128.692 1.82291 0.678238 0
M  V30 1311 O 127.947 1.24057 1.51355 0
M  V30 1312 C 128.246 3.3489 -1.24834 0
M  V30 1313 C 127.912 3.59007 -2.72809 0
M  V30 1314 C 126.574 3.65298 -3.13227 0
M  V30 1315 C 128.926 3.68762 -3.68326 0
M  V30 1316 C 126.254 3.78854 -4.4798 0
M  V30 1317 C 128.606 3.83842 -5.0284 0
M  V30 1318 C 127.27 3.88378 -5.4288 0
M  V30 1319 H 126.54 0.681403 -0.291155 0
M  V30 1320 H 129.187 1.36435 -1.34379 0
M  V30 1321 H 127.492 3.8687 -0.619595 0
M  V30 1322 H 129.189 3.88052 -1.01076 0
M  V30 1323 H 125.779 3.5475 -2.40521 0
M  V30 1324 H 129.963 3.63202 -3.38227 0
M  V30 1325 H 125.219 3.80623 -4.78472 0
M  V30 1326 H 129.393 3.90332 -5.76727 0
M  V30 1327 H 127.02 3.98635 -6.47298 0
M  V30 1328 N 128.595 0.856903 1.32268 0
M  V30 1329 C 129.525 0.31858 2.31316 0
M  V30 1330 C 130.506 -0.583487 1.59779 0
M  V30 1331 O 131.691 -0.503259 1.87566 0
M  V30 1332 C 128.821 -0.491979 3.43798 0
M  V30 1333 C 127.775 0.315849 4.26833 0
M  V30 1334 C 127.101 -0.619586 5.31098 0
M  V30 1335 C 128.401 1.54282 4.98993 0
M  V30 1336 H 130.095 1.14621 2.76591 0
M  V30 1337 H 127.641 0.552613 1.32974 0
M  V30 1338 H 129.594 -0.879012 4.1213 0
M  V30 1339 H 128.318 -1.35299 2.97257 0
M  V30 1340 H 126.977 0.684664 3.6015 0
M  V30 1341 H 126.625 -1.47751 4.8081 0
M  V30 1342 H 126.325 -0.0830621 5.87541 0
M  V30 1343 H 127.849 -1.00375 6.02293 0
M  V30 1344 H 129.263 1.22796 5.59995 0
M  V30 1345 H 127.66 2.01745 5.65172 0
M  V30 1346 H 128.73 2.30285 4.26728 0
M  V30 1347 N 130.073 -1.45103 0.615059 0
M  V30 1348 C 131.301 -2.06553 0.11977 0
M  V30 1349 C 131.716 -1.45842 -1.19898 0
M  V30 1350 O 131.073 -0.575325 -1.73194 0
M  V30 1351 C 131.124 -3.61495 -0.018364 0
M  V30 1352 O 130.845 -4.19942 1.24822 0
M  V30 1353 C 132.346 -4.39947 -0.544237 0
M  V30 1354 H 129.566 -0.667096 0.0722739 0
M  V30 1355 H 132.11 -1.8623 0.84491 0
M  V30 1356 H 130.265 -3.81135 -0.693865 0
M  V30 1357 H 130.679 -5.13204 1.0827 0
M  V30 1358 H 132.153 -5.48838 -0.589953 0
M  V30 1359 H 132.63 -4.10255 -1.56805 0
M  V30 1360 H 133.236 -4.25188 0.0974703 0
M  V30 1361 N 131.551 -0.354651 -1.53558 0
M  V30 1362 C 132.481 0.489091 -2.2832 0
M  V30 1363 C 133.462 1.09324 -1.30316 0
M  V30 1364 O 134.647 1.11255 -1.59173 0
M  V30 1365 C 131.777 1.63456 -3.0643 0
M  V30 1366 C 130.731 1.1582 -4.12031 0
M  V30 1367 C 130.057 2.39305 -4.7816 0
M  V30 1368 C 131.357 0.250731 -5.21698 0
M  V30 1369 H 133.051 -0.134614 -2.99097 0
M  V30 1370 H 130.597 -0.0661826 -1.43848 0
M  V30 1371 H 132.55 2.23136 -3.57475 0
M  V30 1372 H 131.274 2.28533 -2.33325 0
M  V30 1373 H 129.933 0.584146 -3.61916 0
M  V30 1374 H 129.581 3.02814 -4.01637 0
M  V30 1375 H 129.281 2.08109 -5.49513 0
M  V30 1376 H 130.805 2.99691 -5.31994 0
M  V30 1377 H 132.219 0.754695 -5.68311 0
M  V30 1378 H 130.616 0.0301468 -6.00092 0
M  V30 1379 H 131.686 -0.710125 -4.79672 0
M  V30 1380 N 133.029 1.57378 -0.0835403 0
M  V30 1381 C 134.278 1.93106 0.582498 0
M  V30 1382 C 134.591 0.96651 1.70053 0
M  V30 1383 O 135.797 1.21705 2.42693 0
M  V30 1384 C 134.253 3.43076 1.08751 0
M  V30 1385 C 133.861 4.48 -0.000146404 0
M  V30 1386 C 135.605 3.87785 1.72694 0
M  V30 1387 C 133.512 5.89113 0.519568 0
M  V30 1388 H 132.442 0.720775 0.221358 0
M  V30 1389 H 135.093 1.82821 -0.157675 0
M  V30 1390 H 133.475 3.48474 1.88101 0
M  V30 1391 H 134.649 4.54233 -0.775199 0
M  V30 1392 H 132.964 4.1283 -0.54406 0
M  V30 1393 H 135.561 4.90604 2.1263 0
M  V30 1394 H 135.904 3.25796 2.59158 0
M  V30 1395 H 136.437 3.8504 0.999457 0
M  V30 1396 H 133.176 6.54775 -0.308186 0
M  V30 1397 H 132.696 5.86376 1.26188 0
M  V30 1398 H 134.375 6.39346 0.992237 0
M  V30 1399 N 134.507 -0.190092 1.56449 0
M  V30 1400 C 135.754 -0.909705 1.80916 0
M  V30 1401 C 136.082 -1.83047 0.657583 0
M  V30 1402 O 135.337 -1.92428 -0.356356 0
M  V30 1403 C 135.636 -1.75382 3.1141 0
M  V30 1404 C 135.302 -0.983606 4.40041 0
M  V30 1405 C 133.964 -0.770967 4.74984 0
M  V30 1406 C 136.316 -0.442024 5.19322 0
M  V30 1407 C 133.644 -0.0053448 5.867 0
M  V30 1408 C 135.996 0.310412 6.31838 0
M  V30 1409 C 134.66 0.534023 6.6536 0
M  V30 1410 H 133.93 -0.332885 0.662019 0
M  V30 1411 H 136.577 -0.175762 1.90692 0
M  V30 1412 H 134.882 -2.55659 2.96893 0
M  V30 1413 H 136.579 -2.31331 3.27547 0
M  V30 1414 H 133.169 -1.15936 4.12622 0
M  V30 1415 H 137.353 -0.593693 4.92736 0
M  V30 1416 H 132.609 0.177825 6.11141 0
M  V30 1417 H 136.783 0.737419 6.92485 0
M  V30 1418 H 134.41 1.12918 7.51767 0
M  V30 1419 N 135.985 -1.50799 -0.457987 0
M  V30 1420 C 136.948 -1.7005 -1.53674 0
M  V30 1421 C 137.948 -0.570881 -1.50325 0
M  V30 1422 O 139.138 -0.838126 -1.52712 0
M  V30 1423 C 136.27 -1.73788 -2.93276 0
M  V30 1424 H 137.463 -2.66306 -1.37917 0
M  V30 1425 H 135.016 -1.40477 -0.685271 0
M  V30 1426 H 135.751 -0.792717 -3.14462 0
M  V30 1427 H 135.536 -2.55864 -2.97113 0
M  V30 1428 H 137.026 -1.90591 -3.71571 0
M  V30 1429 N 137.463 0.71206 -1.40597 0
M  V30 1430 C 138.711 1.46907 -1.38791 0
M  V30 1431 C 139.032 1.94998 0.00780391 0
M  V30 1432 O 138.302 1.70587 0.963174 0
M  V30 1433 H 136.882 0.545043 -0.51082 0
M  V30 1434 H 139.544 0.843882 -1.75683 0
M  V30 1435 H 138.64 2.34021 -2.06496 0
M  V30 1436 N 138.941 1.26152 0.944643 0
M  V30 1437 C 140.187 1.11657 1.69294 0
M  V30 1438 C 140.52 -0.339926 1.91202 0
M  V30 1439 O 139.795 -1.24994 1.49019 0
M  V30 1440 C 140.078 1.88236 3.06984 0
M  V30 1441 C 139.931 3.41772 2.92424 0
M  V30 1442 C 141.25 1.67343 4.07043 0
M  V30 1443 H 138.369 0.407004 0.614424 0
M  V30 1444 H 141.011 1.55106 1.09737 0
M  V30 1445 H 139.161 1.51308 3.57824 0
M  V30 1446 H 140.833 3.88433 2.48832 0
M  V30 1447 H 139.076 3.68974 2.28124 0
M  V30 1448 H 139.747 3.90579 3.90067 0
M  V30 1449 H 142.223 1.99509 3.65151 0
M  V30 1450 H 141.099 2.23346 5.01406 0
M  V30 1451 H 141.36 0.617158 4.37771 0
M  V30 1452 N 140.419 -1.14872 1.07899 0
M  V30 1453 C 141.83 -1.67367 0.827363 0
M  V30 1454 C 142.181 -1.85236 -0.646693 0
M  V30 1455 O 141.306 -1.55974 -1.50004 0
M  V30 1456 C 141.901 -3.04016 1.49532 0
M  V30 1457 C 140.46 -3.53566 1.29106 0
M  V30 1458 C 139.607 -2.29161 1.56143 0
M  V30 1459 H 142.558 -0.990083 1.24028 0
M  V30 1460 H 142.579 -3.69219 0.919643 0
M  V30 1461 H 142.091 -2.90978 2.56814 0
M  V30 1462 H 140.192 -3.71835 0.238713 0
M  V30 1463 H 140.305 -4.34661 2.01511 0
M  V30 1464 H 138.669 -2.34978 0.982717 0
M  V30 1465 H 139.452 -2.18705 2.64619 0
M  V30 1466 N 141.898 -0.863906 -1.31812 0
M  V30 1467 C 142.828 -0.330843 -2.31144 0
M  V30 1468 C 143.809 0.575005 -1.60087 0
M  V30 1469 O 144.994 0.493304 -1.8783 0
M  V30 1470 C 142.124 0.47374 -3.44054 0
M  V30 1471 C 141.078 -0.338481 -4.26659 0
M  V30 1472 C 140.404 0.591412 -5.31419 0
M  V30 1473 C 141.704 -1.56926 -4.98168 0
M  V30 1474 H 143.398 -1.16086 -2.75979 0
M  V30 1475 H 140.944 -0.559657 -1.32679 0
M  V30 1476 H 142.897 0.857143 -4.12591 0
M  V30 1477 H 141.621 1.33721 -2.9797 0
M  V30 1478 H 140.28 -0.703754 -3.59782 0
M  V30 1479 H 139.928 1.45199 -4.81587 0
M  V30 1480 H 139.628 0.0519022 -5.87577 0
M  V30 1481 H 141.152 0.97179 -6.02817 0
M  V30 1482 H 142.566 -1.25764 -5.59336 0
M  V30 1483 H 140.963 -2.04739 -5.64094 0
M  V30 1484 H 142.033 -2.32544 -4.25501 0
M  V30 1485 N 143.376 1.44774 -0.622745 0
M  V30 1486 C 144.623 2.02121 -0.1239 0
M  V30 1487 C 144.951 1.48915 1.25118 0
M  V30 1488 O 144.206 0.660045 1.84233 0
M  V30 1489 C 144.505 3.57364 -0.0508323 0
M  V30 1490 C 144.171 4.29787 -1.36358 0
M  V30 1491 C 142.833 4.4929 -1.72314 0
M  V30 1492 C 145.185 4.71062 -2.23048 0
M  V30 1493 C 142.513 5.07325 -2.94682 0
M  V30 1494 C 144.865 5.30452 -3.44679 0
M  V30 1495 C 143.529 5.48175 -3.80868 0
M  V30 1496 H 142.799 0.739612 -0.0453381 0
M  V30 1497 H 145.446 1.73648 -0.807389 0
M  V30 1498 H 143.751 3.85202 0.715991 0
M  V30 1499 H 145.448 3.99456 0.351533 0
M  V30 1500 H 142.038 4.14932 -1.07375 0
M  V30 1501 H 146.222 4.55715 -1.96565 0
M  V30 1502 H 141.478 5.19235 -3.22809 0
M  V30 1503 H 145.652 5.61385 -4.12092 0
M  V30 1504 H 143.279 5.92912 -4.75773 0
M  V30 1505 N 144.854 0.36279 1.53368 0
M  V30 1506 C 145.784 -0.476976 2.28576 0
M  V30 1507 C 146.765 -1.08631 1.30894 0
M  V30 1508 O 147.95 -1.10409 1.59761 0
M  V30 1509 C 145.08 -1.61828 3.07293 0
M  V30 1510 C 144.034 -1.13633 4.1264 0
M  V30 1511 C 143.36 -2.36766 4.79423 0
M  V30 1512 C 144.66 -0.223061 5.21823 0
M  V30 1513 H 146.354 0.150474 2.99022 0
M  V30 1514 H 143.9 0.0738103 1.43811 0
M  V30 1515 H 145.853 -2.21237 3.58653 0
M  V30 1516 H 144.577 -2.27292 2.34533 0
M  V30 1517 H 143.236 -0.564945 3.62221 0
M  V30 1518 H 142.884 -3.0068 4.03238 0
M  V30 1519 H 142.584 -2.05192 5.50609 0
M  V30 1520 H 144.108 -2.96865 5.33576 0
M  V30 1521 H 145.522 -0.724545 5.68703 0
M  V30 1522 H 143.919 0.001678 6.001 0
M  V30 1523 H 144.989 0.735553 4.79289 0
M  V30 1524 N 146.332 -1.57332 0.0918853 0
M  V30 1525 C 147.262 -2.16872 -0.865371 0
M  V30 1526 C 148.243 -1.10118 -1.29646 0
M  V30 1527 O 149.428 -1.38242 -1.36392 0
M  V30 1528 C 146.558 -2.74649 -2.12569 0
M  V30 1529 C 145.512 -3.86747 -1.83333 0
M  V30 1530 C 144.838 -4.31212 -3.16166 0
M  V30 1531 C 146.138 -5.10089 -1.1228 0
M  V30 1532 H 147.832 -2.97114 -0.369307 0
M  V30 1533 H 145.378 -1.42918 -0.176194 0
M  V30 1534 H 147.331 -3.14952 -2.7997 0
M  V30 1535 H 146.055 -1.91657 -2.64452 0
M  V30 1536 H 144.714 -3.46978 -1.18331 0
M  V30 1537 H 144.362 -3.45115 -3.6593 0
M  V30 1538 H 144.062 -5.06788 -2.97388 0
M  V30 1539 H 145.586 -4.74146 -3.84731 0
M  V30 1540 H 147 -5.47582 -1.69785 0
M  V30 1541 H 145.397 -5.91073 -1.03693 0
M  V30 1542 H 146.467 -4.84786 -0.105041 0
M  V30 1543 N 147.81 0.181792 -1.56548 0
M  V30 1544 C 148.72 1.24538 -1.98815 0
M  V30 1545 C 149.736 1.49045 -0.897861 0
M  V30 1546 O 150.912 1.61399 -1.20467 0
M  V30 1547 C 147.977 2.56683 -2.33055 0
M  V30 1548 C 147.038 2.40131 -3.55859 0
M  V30 1549 C 146.271 3.65975 -3.88456 0
M  V30 1550 O 146.494 4.70711 -3.22161 0
M  V30 1551 O 145.428 3.6071 -4.81842 0
M  V30 1552 H 149.254 0.916647 -2.89536 0
M  V30 1553 H 146.839 0.387842 -1.44278 0
M  V30 1554 H 148.721 3.34655 -2.56094 0
M  V30 1555 H 147.396 2.89157 -1.45498 0
M  V30 1556 H 146.303 1.60226 -3.38051 0
M  V30 1557 H 147.636 2.12585 -4.43924 0
M  V30 1558 N 149.288 1.51039 0.449983 0
M  V30 1559 C 150.528 1.64732 1.21007 0
M  V30 1560 C 150.892 0.349865 1.88785 0
M  V30 1561 O 152.093 0.362431 2.66345 0
M  V30 1562 C 150.364 2.80902 2.20973 0
M  V30 1563 S 151.923 3.14851 3.05638 0
M  V30 1564 H 148.741 0.5805 0.410538 0
M  V30 1565 H 151.343 1.88901 0.503634 0
M  V30 1566 H 150.047 3.73627 1.69796 0
M  V30 1567 H 149.578 2.58882 2.96215 0
M  V30 1568 H 151.593 2.60306 4.22439 0
M  V30 1569 N 150.766 -0.704594 1.40972 0
M  V30 1570 C 151.991 -1.49858 1.43378 0
M  V30 1571 C 152.416 -1.88061 0.038184 0
M  V30 1572 O 151.774 -1.5402 -0.956425 0
M  V30 1573 C 151.822 -2.74333 2.34038 0
M  V30 1574 O 150.926 -3.7147 1.7912 0
M  V30 1575 H 150.267 -0.45139 0.486974 0
M  V30 1576 H 152.797 -0.866832 1.8533 0
M  V30 1577 H 152.807 -3.22741 2.49604 0
M  V30 1578 H 151.482 -2.45863 3.35446 0
M  V30 1579 H 150.059 -3.30363 1.72958 0
M  V30 1580 N 152.244 -1.26651 -0.937939 0
M  V30 1581 C 153.174 -1.10993 -2.05433 0
M  V30 1582 C 154.155 -0.0142161 -1.70094 0
M  V30 1583 O 155.34 -0.186837 -1.93299 0
M  V30 1584 C 152.47 -0.745561 -3.39203 0
M  V30 1585 C 151.424 -1.79337 -3.88616 0
M  V30 1586 C 150.75 -1.28324 -5.19073 0
M  V30 1587 C 152.05 -3.19553 -4.13138 0
M  V30 1588 H 153.744 -2.0438 -2.1879 0
M  V30 1589 H 151.29 -0.984041 -1.05131 0
M  V30 1590 H 153.243 -0.622888 -4.16771 0
M  V30 1591 H 151.967 0.22401 -3.25831 0
M  V30 1592 H 150.626 -1.90477 -3.13231 0
M  V30 1593 H 150.274 -0.303414 -5.02084 0
M  V30 1594 H 149.974 -1.98369 -5.53103 0
M  V30 1595 H 151.498 -1.1733 -5.99221 0
M  V30 1596 H 152.912 -3.11471 -4.81309 0
M  V30 1597 H 151.309 -3.87218 -4.58457 0
M  V30 1598 H 152.379 -3.65368 -3.18801 0
M  V30 1599 N 153.722 1.14298 -1.08507 0
M  V30 1600 C 154.97 1.84993 -0.813763 0
M  V30 1601 C 155.291 1.83405 0.662393 0
M  V30 1602 O 154.561 1.28319 1.48024 0
M  V30 1603 H 153.141 0.684966 -0.298045 0
M  V30 1604 H 155.803 1.385 -1.37126 0
M  V30 1605 H 154.899 2.89788 -1.15884 0
M  V30 1606 N 155.201 0.870884 1.31352 0
M  V30 1607 C 156.133 0.28455 2.27427 0
M  V30 1608 C 157.146 -0.552927 1.53123 0
M  V30 1609 O 158.335 -0.374771 1.74521 0
M  V30 1610 C 155.435 -0.615164 3.3327 0
M  V30 1611 C 154.608 0.190079 4.36987 0
M  V30 1612 C 153.667 -0.637917 5.22319 0
M  V30 1613 O 152.693 -0.065626 5.69162 0
M  V30 1614 N 153.895 -1.94973 5.46778 0
M  V30 1615 H 156.66 1.11017 2.7838 0
M  V30 1616 H 154.221 0.732458 1.44384 0
M  V30 1617 H 156.213 -1.1748 3.87273 0
M  V30 1618 H 154.783 -1.34146 2.82354 0
M  V30 1619 H 154.003 0.931165 3.83044 0
M  V30 1620 H 155.291 0.742579 5.03352 0
M  V30 1621 H 154.689 -2.4378 5.10478 0
M  V30 1622 H 153.246 -2.45713 6.03712 0
M  V30 1623 N 156.679 -1.44442 0.630414 0
M  V30 1624 C 157.909 -2.06115 0.141465 0
M  V30 1625 C 158.317 -1.47179 -1.1889 0
M  V30 1626 O 157.66 -0.588873 -1.74006 0
M  V30 1627 C 157.722 -3.59467 -0.0484355 0
M  V30 1628 C 157.386 -4.40864 1.20366 0
M  V30 1629 C 158.383 -4.74391 2.12719 0
M  V30 1630 C 156.068 -4.8125 1.43887 0
M  V30 1631 C 158.062 -5.47186 3.26904 0
M  V30 1632 C 155.749 -5.53795 2.5837 0
M  V30 1633 C 156.747 -5.86682 3.49705 0
M  V30 1634 O 156.435 -6.57749 4.62191 0
M  V30 1635 H 156.167 -0.671648 0.0765792 0
M  V30 1636 H 158.721 -1.86312 0.864695 0
M  V30 1637 H 156.951 -3.77758 -0.826803 0
M  V30 1638 H 158.64 -4.02909 -0.491849 0
M  V30 1639 H 159.406 -4.43728 1.95781 0
M  V30 1640 H 155.285 -4.55073 0.736853 0
M  V30 1641 H 158.829 -5.72773 3.98217 0
M  V30 1642 H 154.726 -5.83872 2.75251 0
M  V30 1643 H 155.494 -6.76217 4.61164 0
M  V30 1644 N 158.157 -0.370918 -1.53173 0
M  V30 1645 C 159.385 0.217704 -2.05751 0
M  V30 1646 C 159.8 1.42018 -1.24404 0
M  V30 1647 O 159.157 1.80245 -0.286033 0
M  V30 1648 C 159.208 0.605954 -3.56385 0
M  V30 1649 O 158.929 -0.548734 -4.3465 0
M  V30 1650 C 160.43 1.2524 -4.25241 0
M  V30 1651 H 157.65 0.0371659 -0.66997 0
M  V30 1652 H 160.194 -0.530832 -1.9749 0
M  V30 1653 H 158.349 1.3044 -3.6478 0
M  V30 1654 H 158.763 -0.23376 -5.23979 0
M  V30 1655 H 160.237 1.47458 -5.3194 0
M  V30 1656 H 160.714 2.2143 -3.79296 0
M  V30 1657 H 161.32 0.595233 -4.21114 0
M  V30 1658 N 159.635 1.57281 -0.100228 0
M  V30 1659 C 160.86 1.99302 0.573881 0
M  V30 1660 C 161.285 0.979059 1.60611 0
M  V30 1661 O 160.643 -0.0517803 1.81226 0
M  V30 1662 C 160.691 3.40274 1.19358 0
M  V30 1663 O 159.795 3.41676 2.30935 0
M  V30 1664 H 159.136 0.647944 0.145138 0
M  V30 1665 H 161.666 2.03779 -0.183156 0
M  V30 1666 H 161.676 3.78078 1.53365 0
M  V30 1667 H 160.351 4.13594 0.437385 0
M  V30 1668 H 158.928 3.15672 1.98509 0
M  V30 1669 N 161.113 -0.173488 1.56642 0
M  V30 1670 C 162.362 -0.888758 1.81063 0
M  V30 1671 C 162.675 -1.83506 0.67712 0
M  V30 1672 O 163.881 -2.59254 0.806206 0
M  V30 1673 C 162.337 -1.63091 3.20826 0
M  V30 1674 C 161.945 -0.728357 4.4204 0
M  V30 1675 C 163.689 -2.33454 3.54541 0
M  V30 1676 C 161.596 -1.47062 5.72823 0
M  V30 1677 H 160.526 -0.335618 0.675186 0
M  V30 1678 H 163.177 -0.141712 1.82952 0
M  V30 1679 H 161.559 -2.42263 3.13248 0
M  V30 1680 H 162.733 0.0262449 4.60793 0
M  V30 1681 H 161.048 -0.134492 4.16183 0
M  V30 1682 H 163.645 -2.89578 4.49498 0
M  V30 1683 H 163.988 -3.08687 2.79317 0
M  V30 1684 H 164.521 -1.61227 3.63663 0
M  V30 1685 H 161.26 -0.760658 6.51072 0
M  V30 1686 H 160.78 -2.1986 5.58052 0
M  V30 1687 H 162.459 -2.01868 6.14702 0
M  V30 1688 N 162.591 -1.51276 -0.441967 0
M  V30 1689 C 163.839 -1.63392 -1.18943 0
M  V30 1690 C 164.16 -0.350159 -1.9183 0
M  V30 1691 O 163.43 0.633784 -1.85364 0
M  V30 1692 H 162.01 -0.602164 -0.442049 0
M  V30 1693 H 164.672 -1.88186 -0.507165 0
M  V30 1694 H 163.768 -2.45934 -1.92154 0
M  V30 1695 N 164.069 0.697108 -1.41344 0
M  V30 1696 C 165.317 1.45426 -1.40341 0
M  V30 1697 C 165.638 1.94996 -0.0128787 0
M  V30 1698 O 164.908 1.71599 0.945027 0
M  V30 1699 H 163.488 0.539594 -0.516573 0
M  V30 1700 H 166.15 0.825201 -1.76569 0
M  V30 1701 H 165.246 2.31817 -2.08967 0
M  V30 1702 N 165.547 1.27147 0.931209 0
M  V30 1703 C 166.477 1.12081 2.04842 0
M  V30 1704 C 167.458 0.0232364 1.70084 0
M  V30 1705 O 168.643 0.197085 1.93197 0
M  V30 1706 C 165.773 0.76354 3.38803 0
M  V30 1707 C 164.727 1.81396 3.87659 0
M  V30 1708 C 164.053 1.31075 5.18385 0
M  V30 1709 C 165.353 3.21739 4.11438 0
M  V30 1710 H 167.047 2.05537 2.17703 0
M  V30 1711 H 164.593 0.989603 1.04608 0
M  V30 1712 H 166.546 0.644982 4.16435 0
M  V30 1713 H 165.27 -0.206727 3.25945 0
M  V30 1714 H 163.929 1.92136 3.12217 0
M  V30 1715 H 163.577 0.330037 5.01916 0
M  V30 1716 H 163.277 2.013 5.52044 0
M  V30 1717 H 164.801 1.20506 5.98591 0
M  V30 1718 H 166.215 3.14019 4.79651 0
M  V30 1719 H 164.612 3.89644 4.56397 0
M  V30 1720 H 165.682 3.67054 3.16859 0
M  V30 1721 N 167.025 -1.13721 1.09112 0
M  V30 1722 C 168.273 -1.84559 0.823562 0
M  V30 1723 C 168.594 -1.83754 -0.652658 0
M  V30 1724 O 167.864 -1.29102 -1.47342 0
M  V30 1725 H 166.444 -0.683376 0.301673 0
M  V30 1726 H 169.106 -1.37771 1.37859 0
M  V30 1727 H 168.202 -2.8917 1.17419 0
M  V30 1728 N 168.503 -0.877838 -1.30888 0
M  V30 1729 C 169.749 -0.493426 -1.96706 0
M  V30 1730 C 170.082 0.953504 -1.6918 0
M  V30 1731 O 169.357 1.67266 -0.992594 0
M  V30 1732 C 169.64 -0.760429 -3.51979 0
M  V30 1733 C 169.493 -2.25747 -3.89048 0
M  V30 1734 C 170.812 -0.232148 -4.39487 0
M  V30 1735 H 167.931 -0.180746 -0.714493 0
M  V30 1736 H 170.573 -1.10052 -1.54882 0
M  V30 1737 H 168.723 -0.243715 -3.87735 0
M  V30 1738 H 170.395 -2.84204 -3.63354 0
M  V30 1739 H 168.638 -2.72694 -3.37373 0
M  V30 1740 H 169.309 -2.39491 -4.97341 0
M  V30 1741 H 171.785 -0.674314 -4.106 0
M  V30 1742 H 170.661 -0.448355 -5.47066 0
M  V30 1743 H 170.922 0.866297 -4.33529 0
M  V30 1744 N 169.982 1.44106 -0.638065 0
M  V30 1745 C 171.228 2.02815 -0.15409 0
M  V30 1746 C 171.583 1.49342 1.21304 0
M  V30 1747 O 170.876 0.670699 1.79478 0
M  V30 1748 C 171.07 3.5729 -0.0887327 0
M  V30 1749 C 170.899 4.2575 -1.44799 0
M  V30 1750 C 169.669 4.62443 -2.03653 0
M  V30 1751 C 171.867 4.55746 -2.38327 0
M  V30 1752 N 169.849 5.15903 -3.32741 0
M  V30 1753 C 171.22 5.10364 -3.52036 0
M  V30 1754 C 173.275 4.37703 -2.3732 0
M  V30 1755 C 171.978 5.48837 -4.64941 0
M  V30 1756 C 174.004 4.77229 -3.49294 0
M  V30 1757 C 173.366 5.31966 -4.61726 0
M  V30 1758 H 169.465 0.775519 -0.100466 0
M  V30 1759 H 172.049 1.755 -0.843071 0
M  V30 1760 H 170.22 3.84201 0.569548 0
M  V30 1761 H 171.952 4.02671 0.404711 0
M  V30 1762 H 168.707 4.46987 -1.56523 0
M  V30 1763 H 169.131 5.47102 -3.98758 0
M  V30 1764 H 173.773 3.94671 -1.51641 0
M  V30 1765 H 171.491 5.9082 -5.51323 0
M  V30 1766 H 175.077 4.64976 -3.49698 0
M  V30 1767 H 173.957 5.61986 -5.46939 0
M  V30 1768 N 171.46 0.379036 1.52974 0
M  V30 1769 C 172.407 -0.461048 2.26148 0
M  V30 1770 C 173.377 -1.06637 1.27349 0
M  V30 1771 O 174.562 -1.09633 1.56157 0
M  V30 1772 C 171.702 -1.58782 3.06402 0
M  V30 1773 C 170.815 -1.00636 4.20115 0
M  V30 1774 C 169.95 -2.10334 4.87784 0
M  V30 1775 C 168.989 -1.49724 5.93506 0
M  V30 1776 N 168.126 -2.5331 6.54812 0
M  V30 1777 H 172.966 0.169429 2.97518 0
M  V30 1778 H 170.503 0.0953806 1.4679 0
M  V30 1779 H 172.461 -2.25174 3.51215 0
M  V30 1780 H 171.091 -2.18876 2.37261 0
M  V30 1781 H 170.143 -0.232332 3.7969 0
M  V30 1782 H 171.455 -0.523343 4.96047 0
M  V30 1783 H 170.609 -2.84519 5.35849 0
M  V30 1784 H 169.348 -2.61992 4.11353 0
M  V30 1785 H 168.353 -0.740598 5.44789 0
M  V30 1786 H 169.578 -0.988732 6.71864 0
M  V30 1787 H 167.524 -3.04156 5.81227 0
M  V30 1788 H 167.441 -2.09734 7.26325 0
M  V30 1789 H 168.709 -3.27155 7.07524 0
M  V30 1790 N 172.938 -1.57226 0.108567 0
M  V30 1791 C 173.868 -2.17778 -0.84232 0
M  V30 1792 C 174.849 -1.11487 -1.2847 0
M  V30 1793 O 176.034 -1.39681 -1.34918 0
M  V30 1794 C 173.164 -2.76888 -2.09644 0
M  V30 1795 C 172.118 -3.88669 -1.79221 0
M  V30 1796 C 171.444 -4.34541 -3.11574 0
M  V30 1797 C 172.744 -5.11251 -1.06864 0
M  V30 1798 H 174.438 -2.97489 -0.337774 0
M  V30 1799 H 171.984 -1.43097 -0.161025 0
M  V30 1800 H 173.937 -3.17904 -2.76614 0
M  V30 1801 H 172.661 -1.94451 -2.62405 0
M  V30 1802 H 171.32 -3.48213 -1.14644 0
M  V30 1803 H 170.968 -3.48977 -3.62249 0
M  V30 1804 H 170.668 -5.09914 -2.91996 0
M  V30 1805 H 172.192 -4.782 -3.7968 0
M  V30 1806 H 173.606 -5.49352 -1.63968 0
M  V30 1807 H 172.003 -5.9214 -0.974178 0
M  V30 1808 H 173.073 -4.8487 -0.0536168 0
M  V30 1809 N 174.416 0.165178 -1.56732 0
M  V30 1810 C 175.379 1.18822 -1.95995 0
M  V30 1811 C 176.379 1.3685 -0.84431 0
M  V30 1812 O 177.569 1.34152 -1.11126 0
M  V30 1813 C 174.701 2.5521 -2.26011 0
M  V30 1814 H 175.894 0.851825 -2.87548 0
M  V30 1815 H 173.447 0.407857 -1.50885 0
M  V30 1816 H 174.182 2.93852 -1.37191 0
M  V30 1817 H 173.967 2.43489 -3.07336 0
M  V30 1818 H 175.457 3.28927 -2.57288 0
M  V30 1819 N 175.894 1.51508 0.433938 0
M  V30 1820 C 177.305 1.56784 1.01369 0
M  V30 1821 C 177.656 0.393349 1.92217 0
M  V30 1822 O 176.781 -0.489441 2.10792 0
M  V30 1823 C 177.376 2.84144 1.8452 0
M  V30 1824 C 175.935 2.9198 2.37539 0
M  V30 1825 C 175.082 2.51482 1.16843 0
M  V30 1826 H 178.033 1.57236 0.215081 0
M  V30 1827 H 178.054 2.68098 2.70007 0
M  V30 1828 H 177.566 3.69607 1.18373 0
M  V30 1829 H 175.667 2.10955 3.0713 0
M  V30 1830 H 175.78 3.95704 2.70103 0
M  V30 1831 H 174.144 2.04758 1.51481 0
M  V30 1832 H 174.927 3.39293 0.523015 0
M  V30 1833 N 177.372 -0.689602 1.41712 0
M  V30 1834 C 178.305 -1.81403 1.3845 0
M  V30 1835 C 179.283 -1.60653 0.250874 0
M  V30 1836 O 180.467 -1.83323 0.43874 0
M  V30 1837 C 177.594 -3.18176 1.1611 0
M  V30 1838 C 176.64 -3.57705 2.3227 0
M  V30 1839 S 177.473 -3.61827 3.94767 0
M  V30 1840 C 178.629 -5.01318 3.74742 0
M  V30 1841 H 178.862 -1.83893 2.33603 0
M  V30 1842 H 176.395 -0.858878 1.28307 0
M  V30 1843 H 178.353 -3.97132 1.03907 0
M  V30 1844 H 177.014 -3.13288 0.225668 0
M  V30 1845 H 176.207 -4.57082 2.12349 0
M  V30 1846 H 175.809 -2.86073 2.40911 0
M  V30 1847 H 178.101 -5.88986 3.34817 0
M  V30 1848 H 179.044 -5.26283 4.73743 0
M  V30 1849 H 179.452 -4.73138 3.07898 0
M  V30 1850 N 178.85 -1.27639 -0.924453 0
M  V30 1851 C 180.097 -1.14167 -1.67249 0
M  V30 1852 C 180.425 0.311863 -1.91984 0
M  V30 1853 O 179.68 1.24425 -1.51053 0
M  V30 1854 C 179.979 -1.87407 -3.04325 0
M  V30 1855 C 179.645 -3.37249 -2.99289 0
M  V30 1856 C 178.307 -3.7812 -2.97622 0
M  V30 1857 C 180.659 -4.32845 -2.90336 0
M  V30 1858 C 177.987 -5.12944 -2.8479 0
M  V30 1859 C 180.339 -5.6773 -2.79045 0
M  V30 1860 C 179.003 -6.07889 -2.7573 0
M  V30 1861 H 178.273 -0.417766 -0.612007 0
M  V30 1862 H 180.92 -1.58286 -1.07786 0
M  V30 1863 H 179.225 -1.35805 -3.67511 0
M  V30 1864 H 180.922 -1.74408 -3.61086 0
M  V30 1865 H 177.512 -3.04748 -3.01374 0
M  V30 1866 H 181.696 -4.02239 -2.90719 0
M  V30 1867 H 176.952 -5.432 -2.80612 0
M  V30 1868 H 181.126 -6.41472 -2.71083 0
M  V30 1869 H 178.753 -7.12314 -2.65544 0
M  V30 1870 N 180.328 1.1314 -1.09713 0
M  V30 1871 C 181.275 2.18642 -0.739196 0
M  V30 1872 C 182.245 1.63706 0.280978 0
M  V30 1873 O 183.43 1.90111 0.161946 0
M  V30 1874 C 180.57 3.44685 -0.169102 0
M  V30 1875 C 179.683 4.13711 -1.24367 0
M  V30 1876 C 178.818 5.27379 -0.636019 0
M  V30 1877 C 177.857 5.88259 -1.69169 0
M  V30 1878 N 176.994 6.93352 -1.10485 0
M  V30 1879 H 181.834 2.48607 -1.64312 0
M  V30 1880 H 179.371 1.22066 -0.820875 0
M  V30 1881 H 181.329 4.16815 0.179256 0
M  V30 1882 H 179.959 3.15161 0.698079 0
M  V30 1883 H 179.011 3.39835 -1.70927 0
M  V30 1884 H 180.323 4.55037 -2.04311 0
M  V30 1885 H 179.477 6.06238 -0.236677 0
M  V30 1886 H 178.216 4.8731 0.194928 0
M  V30 1887 H 177.221 5.08092 -2.10055 0
M  V30 1888 H 178.446 6.30399 -2.52536 0
M  V30 1889 H 176.392 6.55335 -0.295234 0
M  V30 1890 H 176.309 7.33236 -1.84121 0
M  V30 1891 H 177.577 7.76057 -0.73181 0
M  V30 1892 N 181.806 0.884767 1.30421 0
M  V30 1893 C 183.054 0.502112 1.95763 0
M  V30 1894 C 183.375 -0.951815 1.70192 0
M  V30 1895 O 182.645 -1.6692 1.0254 0
M  V30 1896 H 181.225 0.182694 0.724315 0
M  V30 1897 H 183.887 1.1278 1.58955 0
M  V30 1898 H 182.983 0.672188 3.04775 0
M  V30 1899 N 183.284 -1.43765 0.645699 0
M  V30 1900 C 184.53 -2.02197 0.156271 0
M  V30 1901 C 184.863 -1.50776 -1.22393 0
M  V30 1902 O 184.138 -0.697771 -1.81553 0
M  V30 1903 C 184.421 -3.59749 0.158872 0
M  V30 1904 C 184.274 -4.21419 1.57245 0
M  V30 1905 C 185.593 -4.37149 -0.50879 0
M  V30 1906 H 182.712 -0.734694 0.0582602 0
M  V30 1907 H 185.354 -1.71157 0.824951 0
M  V30 1908 H 183.504 -3.86325 -0.410525 0
M  V30 1909 H 185.176 -4.059 2.19186 0
M  V30 1910 H 183.419 -3.78356 2.122 0
M  V30 1911 H 184.09 -5.30482 1.52619 0
M  V30 1912 H 186.566 -4.16093 -0.024412 0
M  V30 1913 H 185.442 -5.4683 -0.476213 0
M  V30 1914 H 185.703 -4.12839 -1.58165 0
M  V30 1915 N 184.763 -0.387143 -1.52771 0
M  V30 1916 C 186.011 0.195349 -2.01154 0
M  V30 1917 C 186.332 1.475 -1.27549 0
M  V30 1918 O 185.602 1.91878 -0.394924 0
M  V30 1919 H 184.182 0.075178 -0.743207 0
M  V30 1920 H 186.844 -0.518337 -1.87881 0
M  V30 1921 H 185.94 0.407096 -3.09434 0
M  V30 1922 N 186.241 1.57166 -0.116904 0
M  V30 1923 C 187.171 2.18222 0.830759 0
M  V30 1924 C 188.152 1.12167 1.27877 0
M  V30 1925 O 189.337 1.40394 1.34176 0
M  V30 1926 C 186.467 2.77996 2.08172 0
M  V30 1927 C 185.421 3.89614 1.77157 0
M  V30 1928 C 184.747 4.36187 3.09265 0
M  V30 1929 C 186.047 5.1181 1.04151 0
M  V30 1930 H 187.741 2.97664 0.321992 0
M  V30 1931 H 185.287 1.4318 0.153434 0
M  V30 1932 H 187.24 3.19366 2.74924 0
M  V30 1933 H 185.964 1.9584 2.6137 0
M  V30 1934 H 184.623 3.48816 1.12796 0
M  V30 1935 H 184.271 3.50893 3.60393 0
M  V30 1936 H 183.971 5.11455 2.89288 0
M  V30 1937 H 185.495 4.80207 3.77139 0
M  V30 1938 H 186.909 5.50214 1.61052 0
M  V30 1939 H 185.306 5.92648 0.942762 0
M  V30 1940 H 186.376 4.84892 0.0279022 0
M  V30 1941 N 187.719 -0.156864 1.56817 0
M  V30 1942 C 188.682 -1.17781 1.96622 0
M  V30 1943 C 189.682 -1.36401 0.851555 0
M  V30 1944 O 190.872 -1.33561 1.11836 0
M  V30 1945 C 188.004 -2.54008 2.27361 0
M  V30 1946 H 189.197 -0.836564 2.87996 0
M  V30 1947 H 186.75 -0.39985 1.51099 0
M  V30 1948 H 187.485 -2.9312 1.38748 0
M  V30 1949 H 187.27 -2.41856 3.08623 0
M  V30 1950 H 188.76 -3.27558 2.59029 0
M  V30 1951 N 189.197 -1.51736 -0.425897 0
M  V30 1952 C 190.16 -1.73271 -1.50032 0
M  V30 1953 C 191.16 -0.602639 -1.4908 0
M  V30 1954 O 192.35 -0.87033 -1.509 0
M  V30 1955 C 189.482 -1.79969 -2.89523 0
M  V30 1956 H 190.675 -2.69172 -1.32237 0
M  V30 1957 H 188.228 -1.41899 -0.65532 0
M  V30 1958 H 188.963 -0.859241 -3.1271 0
M  V30 1959 H 188.748 -2.62109 -2.91619 0
M  V30 1960 H 190.238 -1.9843 -3.67444 0
M  V30 1961 N 190.675 0.682077 -1.42076 0
M  V30 1962 C 191.638 1.77756 -1.44691 0
M  V30 1963 C 192.638 1.5726 -0.335535 0
M  V30 1964 O 193.828 1.63686 -0.596037 0
M  V30 1965 C 190.96 3.16301 -1.27146 0
M  V30 1966 H 192.153 1.76826 -2.42224 0
M  V30 1967 H 189.706 0.891012 -1.28416 0
M  V30 1968 H 190.441 3.22862 -0.305075 0
M  V30 1969 H 190.226 3.32581 -2.07683 0
M  V30 1970 H 191.716 3.96241 -1.31843 0
M  V30 1971 N 192.153 1.28127 0.917671 0
M  V30 1972 C 193.399 1.15223 1.66888 0
M  V30 1973 C 193.732 -0.299293 1.9188 0
M  V30 1974 O 193.007 -1.21805 1.51637 0
M  V30 1975 C 193.29 1.94706 3.02922 0
M  V30 1976 C 193.143 3.47898 2.85109 0
M  V30 1977 C 194.462 1.75939 4.03402 0
M  V30 1978 H 191.581 0.419946 0.605652 0
M  V30 1979 H 194.223 1.57398 1.06423 0
M  V30 1980 H 192.373 1.58864 3.54534 0
M  V30 1981 H 194.045 3.93624 2.40537 0
M  V30 1982 H 192.288 3.7373 2.20246 0
M  V30 1983 H 192.959 3.98765 3.81694 0
M  V30 1984 H 195.435 2.07209 3.60837 0
M  V30 1985 H 194.311 2.33931 4.96556 0
M  V30 1986 H 194.572 0.709877 4.36364 0
M  V30 1987 N 193.631 -1.12557 1.10312 0
M  V30 1988 C 194.561 -2.20341 0.772798 0
M  V30 1989 C 195.542 -1.68198 -0.25365 0
M  V30 1990 O 196.727 -1.93831 -0.119699 0
M  V30 1991 C 193.857 -3.46709 0.202443 0
M  V30 1992 C 192.811 -4.11996 1.15943 0
M  V30 1993 C 192.137 -5.328 0.450345 0
M  V30 1994 C 193.437 -4.5828 2.50552 0
M  V30 1995 H 195.131 -2.48229 1.674 0
M  V30 1996 H 192.677 -1.19308 0.806326 0
M  V30 1997 H 194.63 -4.2138 -0.0407752 0
M  V30 1998 H 193.354 -3.18245 -0.734001 0
M  V30 1999 H 192.013 -3.39305 1.38808 0
M  V30 2000 H 191.661 -5.00602 -0.490531 0
M  V30 2001 H 191.361 -5.7743 1.08851 0
M  V30 2002 H 192.885 -6.10219 0.215642 0
M  V30 2003 H 194.299 -5.2433 2.31843 0
M  V30 2004 H 192.696 -5.13683 3.10242 0
M  V30 2005 H 193.766 -3.72329 3.10643 0
M  V30 2006 N 195.109 -0.891671 -1.2995 0
M  V30 2007 C 196.334 -0.527932 -2.00568 0
M  V30 2008 C 196.759 0.877969 -1.66353 0
M  V30 2009 O 196.117 1.58301 -0.883762 0
M  V30 2010 C 196.165 -0.717745 -3.53385 0
M  V30 2011 O 195.269 0.233376 -4.11739 0
M  V30 2012 H 194.61 -0.20722 -0.630837 0
M  V30 2013 H 197.14 -1.20105 -1.65638 0
M  V30 2014 H 197.15 -0.619307 -4.03272 0
M  V30 2015 H 195.825 -1.74276 -3.77625 0
M  V30 2016 H 194.402 0.0880706 -3.72796 0
M  V30 2017 N 196.587 1.43421 -0.653314 0
M  V30 2018 C 197.834 2.01812 -0.166745 0
M  V30 2019 C 198.162 1.51535 1.21931 0
M  V30 2020 O 197.417 0.698975 1.82792 0
M  V30 2021 C 197.716 3.57176 -0.126623 0
M  V30 2022 C 197.382 4.26798 -1.45444 0
M  V30 2023 C 196.044 4.45534 -1.81805 0
M  V30 2024 C 198.396 4.66225 -2.32989 0
M  V30 2025 C 195.724 5.00961 -3.05377 0
M  V30 2026 C 198.076 5.23021 -3.55853 0
M  V30 2027 C 196.74 5.39973 -3.9241 0
M  V30 2028 H 196.01 0.738484 -0.0610162 0
M  V30 2029 H 198.657 1.71896 -0.84404 0
M  V30 2030 H 196.962 3.86634 0.634123 0
M  V30 2031 H 198.659 4.00112 0.266723 0
M  V30 2032 H 195.249 4.12561 -1.16153 0
M  V30 2033 H 199.433 4.51443 -2.06187 0
M  V30 2034 H 194.689 5.12271 -3.3375 0
M  V30 2035 H 198.863 5.52518 -4.23907 0
M  V30 2036 H 196.49 5.82687 -4.88242 0
M  V30 2037 N 198.065 0.39524 1.52563 0
M  V30 2038 C 199.311 -0.177763 2.02622 0
M  V30 2039 C 199.666 -1.43974 1.27629 0
M  V30 2040 O 198.959 -1.87995 0.36992 0
M  V30 2041 C 199.153 -0.493444 3.53977 0
M  V30 2042 C 198.982 0.736392 4.4363 0
M  V30 2043 C 197.752 1.25744 4.89404 0
M  V30 2044 C 199.95 1.61046 4.88435 0
M  V30 2045 N 197.932 2.44421 5.63145 0
M  V30 2046 C 199.303 2.64359 5.60816 0
M  V30 2047 C 201.358 1.62985 4.70468 0
M  V30 2048 C 200.061 3.69505 6.17137 0
M  V30 2049 C 202.087 2.67042 5.27677 0
M  V30 2050 C 201.449 3.69077 5.99968 0
M  V30 2051 H 197.548 -0.0269794 0.781534 0
M  V30 2052 H 200.132 0.546466 1.86874 0
M  V30 2053 H 198.303 -1.18672 3.69826 0
M  V30 2054 H 200.035 -1.05412 3.90731 0
M  V30 2055 H 196.79 0.817546 4.6649 0
M  V30 2056 H 197.214 3.04485 6.04663 0
M  V30 2057 H 201.856 0.854442 4.14076 0
M  V30 2058 H 199.574 4.4791 6.72608 0
M  V30 2059 H 203.16 2.69433 5.15652 0
M  V30 2060 H 202.04 4.48273 6.43444 0
M  V30 2061 N 199.544 -1.57102 0.125237 0
M  V30 2062 C 200.474 -2.18659 -0.819174 0
M  V30 2063 C 201.455 -1.12843 -1.27281 0
M  V30 2064 O 202.64 -1.41104 -1.33429 0
M  V30 2065 C 199.77 -2.79096 -2.06695 0
M  V30 2066 C 198.724 -3.90548 -1.75088 0
M  V30 2067 C 198.05 -4.37821 -3.06948 0
M  V30 2068 C 199.35 -5.12356 -1.01435 0
M  V30 2069 H 201.044 -2.9783 -0.306202 0
M  V30 2070 H 198.59 -1.4326 -0.145839 0
M  V30 2071 H 200.543 -3.2082 -2.73226 0
M  V30 2072 H 199.267 -1.97223 -2.60328 0
M  V30 2073 H 197.926 -3.49409 -1.10944 0
M  V30 2074 H 197.574 -3.52799 -3.58527 0
M  V30 2075 H 197.274 -5.12982 -2.86571 0
M  V30 2076 H 198.798 -4.822 -3.74587 0
M  V30 2077 H 200.212 -5.5106 -1.58132 0
M  V30 2078 H 198.609 -5.9314 -0.911319 0
M  V30 2079 H 199.679 -4.849 -0.00218681 0
M  V30 2080 N 201.022 0.148545 -1.56898 0
M  V30 2081 C 201.97 1.20265 -1.99096 0
M  V30 2082 C 202.964 1.44559 -0.883123 0
M  V30 2083 O 204.17 1.4487 -1.0683 0
M  V30 2084 H 200.545 0.404786 -0.63376 0
M  V30 2085 H 202.516 0.82004 -2.86911 0
M  V30 2086 C 201.265 2.52886 -2.3863 0
M  V30 2087 H 200.588 2.35021 -3.23427 0
M  V30 2088 H 202.028 3.25274 -2.7198 0
M  V30 2089 C 200.487 3.13315 -1.23837 0
M  V30 2090 O 201.017 3.98077 -0.538268 0
M  V30 2091 N 199.223 2.72742 -1.00301 0
M  V30 2092 H 198.77 2.03912 -1.5741 0
M  V30 2093 H 198.728 3.13507 -0.236838 0
M  V30 2094 N 202.5 1.5196 0.417844 0
M  V30 2095 C 203.749 1.6482 1.16264 0
M  V30 2096 C 204.062 0.379886 1.91876 0
M  V30 2097 O 205.268 0.388154 2.68711 0
M  V30 2098 C 203.724 2.91161 2.1155 0
M  V30 2099 C 203.332 4.25068 1.41495 0
M  V30 2100 C 205.076 3.13383 2.86341 0
M  V30 2101 C 202.983 5.42541 2.35379 0
M  V30 2102 H 201.913 0.613954 0.437694 0
M  V30 2103 H 204.564 1.78442 0.427871 0
M  V30 2104 H 202.946 2.71218 2.88543 0
M  V30 2105 H 204.12 4.55463 0.699263 0
M  V30 2106 H 202.435 4.0888 0.787792 0
M  V30 2107 H 205.032 3.98324 3.5671 0
M  V30 2108 H 205.375 2.27256 3.48798 0
M  V30 2109 H 205.908 3.33757 2.1645 0
M  V30 2110 H 202.647 6.30987 1.77582 0
M  V30 2111 H 202.167 5.16497 3.04945 0
M  V30 2112 H 203.846 5.75272 2.96093 0
M  V30 2113 N 203.978 -0.674533 1.42435 0
M  V30 2114 C 205.208 -1.46071 1.46105 0
M  V30 2115 C 205.616 -1.89067 0.0709605 0
M  V30 2116 O 204.959 -1.58731 -0.924677 0
M  V30 2117 C 205.021 -2.74145 2.32561 0
M  V30 2118 C 204.685 -2.53224 3.8043 0
M  V30 2119 C 205.682 -2.17809 4.72075 0
M  V30 2120 C 203.367 -2.6821 4.24698 0
M  V30 2121 C 205.361 -1.97648 6.05982 0
M  V30 2122 C 203.048 -2.47665 5.58664 0
M  V30 2123 C 204.046 -2.12437 6.49122 0
M  V30 2124 O 203.734 -1.9209 7.80613 0
M  V30 2125 H 203.466 -0.455959 0.499076 0
M  V30 2126 H 206.02 -0.836193 1.87609 0
M  V30 2127 H 204.25 -3.3908 1.85908 0
M  V30 2128 H 205.939 -3.36028 2.27683 0
M  V30 2129 H 206.705 -2.05826 4.39159 0
M  V30 2130 H 202.584 -2.94609 3.54579 0
M  V30 2131 H 206.128 -1.70075 6.7655 0
M  V30 2132 H 202.025 -2.59244 5.91154 0
M  V30 2133 H 202.793 -2.06686 7.91974 0
M  V30 2134 N 205.456 -1.28612 -0.910864 0
M  V30 2135 C 206.686 -1.1862 -1.69153 0
M  V30 2136 C 207.094 0.257324 -1.87442 0
M  V30 2137 O 206.437 1.18543 -1.40332 0
M  V30 2138 C 206.499 -1.81606 -3.10257 0
M  V30 2139 C 206.163 -3.30864 -3.15243 0
M  V30 2140 C 207.16 -4.27256 -2.96223 0
M  V30 2141 C 204.845 -3.71871 -3.37664 0
M  V30 2142 C 206.839 -5.62631 -2.99541 0
M  V30 2143 C 204.526 -5.07371 -3.40614 0
M  V30 2144 C 205.524 -6.02561 -3.21573 0
M  V30 2145 O 205.212 -7.35589 -3.2429 0
M  V30 2146 H 204.944 -0.412633 -0.535453 0
M  V30 2147 H 207.498 -1.70306 -1.14827 0
M  V30 2148 H 205.728 -1.24418 -3.66138 0
M  V30 2149 H 207.417 -1.66092 -3.70362 0
M  V30 2150 H 208.183 -3.9691 -2.78725 0
M  V30 2151 H 204.062 -2.98241 -3.5153 0
M  V30 2152 H 207.606 -6.36907 -2.84597 0
M  V30 2153 H 203.503 -5.37366 -3.57642 0
M  V30 2154 H 204.271 -7.44252 -3.40633 0
M  V30 2155 N 206.934 1.1197 -1.10907 0
M  V30 2156 C 208.183 1.82947 -0.849302 0
M  V30 2157 C 208.496 1.85275 0.627112 0
M  V30 2158 O 209.702 2.52296 1.00295 0
M  V30 2159 C 208.158 3.28529 -1.46959 0
M  V30 2160 C 207.766 3.34546 -2.97965 0
M  V30 2161 C 209.51 4.04443 -1.28942 0
M  V30 2162 C 207.417 4.74491 -3.53004 0
M  V30 2163 H 206.347 0.685477 -0.314065 0
M  V30 2164 H 208.998 1.2604 -1.33365 0
M  V30 2165 H 207.38 3.85333 -0.912917 0
M  V30 2166 H 208.554 2.87654 -3.59989 0
M  V30 2167 H 206.869 2.72108 -3.15192 0
M  V30 2168 H 209.466 5.07787 -1.67502 0
M  V30 2169 H 209.809 4.15656 -0.231456 0
M  V30 2170 H 210.342 3.5401 -1.81443 0
M  V30 2171 H 207.081 4.68474 -4.58489 0
M  V30 2172 H 206.601 5.21816 -2.9575 0
M  V30 2173 H 208.28 5.4344 -3.51115 0
M  V30 2174 N 208.412 0.89855 1.29475 0
M  V30 2175 C 209.658 0.524658 1.95896 0
M  V30 2176 C 209.991 -0.926468 1.70676 0
M  V30 2177 O 209.266 -1.65665 1.01908 0
M  V30 2178 C 209.549 0.81633 3.50725 0
M  V30 2179 C 209.402 2.31907 3.85408 0
M  V30 2180 C 210.721 0.302038 4.39062 0
M  V30 2181 H 207.84 0.19209 0.711527 0
M  V30 2182 H 210.482 1.12502 1.53112 0
M  V30 2183 H 208.632 0.305369 3.87298 0
M  V30 2184 H 210.304 2.89949 3.58786 0
M  V30 2185 H 208.547 2.78027 3.32992 0
M  V30 2186 H 209.218 2.47373 4.93468 0
M  V30 2187 H 211.694 0.739551 4.09475 0
M  V30 2188 H 210.57 0.535331 5.46283 0
M  V30 2189 H 210.831 -0.797216 4.34853 0
M  V30 2190 N 209.89 -1.43072 0.660911 0
M  V30 2191 C 211.139 -2.00942 0.174735 0
M  V30 2192 C 211.452 -1.52797 -1.22117 0
M  V30 2193 O 212.658 -2.02991 -1.80297 0
M  V30 2194 C 211.114 -3.58948 0.261559 0
M  V30 2195 C 210.722 -4.16085 1.66064 0
M  V30 2196 C 212.466 -4.24173 -0.166617 0
M  V30 2197 C 210.373 -5.6641 1.70098 0
M  V30 2198 H 209.303 -0.751483 0.0615631 0
M  V30 2199 H 211.954 -1.63955 0.824069 0
M  V30 2200 H 210.336 -3.93372 -0.455421 0
M  V30 2201 H 211.51 -3.93147 2.40359 0
M  V30 2202 H 209.825 -3.6326 2.03546 0
M  V30 2203 H 212.422 -5.34471 -0.156433 0
M  V30 2204 H 212.765 -3.98647 -1.19943 0
M  V30 2205 H 213.298 -3.94659 0.498875 0
M  V30 2206 H 210.037 -5.96715 2.71315 0
M  V30 2207 H 209.557 -5.91382 1.00139 0
M  V30 2208 H 211.236 -6.30585 1.44816 0
M  V30 2209 N 211.368 -0.403325 -1.52352 0
M  V30 2210 C 212.617 0.175668 -2.00934 0
M  V30 2211 C 212.93 1.46718 -1.29356 0
M  V30 2212 O 214.136 2.12708 -1.68724 0
M  V30 2213 C 212.592 0.363612 -3.58058 0
M  V30 2214 C 212.2 -0.915472 -4.38547 0
M  V30 2215 C 213.944 0.89821 -4.14888 0
M  V30 2216 C 211.851 -0.695035 -5.87302 0
M  V30 2217 H 210.781 0.0694234 -0.750797 0
M  V30 2218 H 213.432 -0.527879 -1.75743 0
M  V30 2219 H 211.814 1.12935 -3.79555 0
M  V30 2220 H 212.988 -1.68691 -4.28812 0
M  V30 2221 H 211.303 -1.37606 -3.93006 0
M  V30 2222 H 213.9 1.07907 -5.23699 0
M  V30 2223 H 214.243 1.87126 -3.71873 0
M  V30 2224 H 214.776 0.191681 -3.97338 0
M  V30 2225 H 211.515 -1.63948 -6.34666 0
M  V30 2226 H 211.035 0.0372116 -5.99788 0
M  V30 2227 H 212.714 -0.33497 -6.46132 0
M  V30 2228 N 212.846 1.57033 -0.133567 0
M  V30 2229 C 214.071 2.00475 0.531477 0
M  V30 2230 C 214.496 1.01291 1.58499 0
M  V30 2231 O 213.854 -0.0133279 1.81295 0
M  V30 2232 C 213.902 3.42729 1.12113 0
M  V30 2233 O 213.006 3.46498 2.23636 0
M  V30 2234 H 212.347 0.650876 0.131362 0
M  V30 2235 H 214.877 2.03344 -0.22634 0
M  V30 2236 H 214.887 3.81246 1.4531 0
M  V30 2237 H 213.562 4.14428 0.349557 0
M  V30 2238 H 212.139 3.19811 1.91769 0
M  V30 2239 N 214.325 -0.140222 1.56975 0
M  V30 2240 C 215.571 -0.848084 1.84876 0
M  V30 2241 C 215.926 -1.78481 0.718481 0
M  V30 2242 O 215.219 -1.89497 -0.283093 0
M  V30 2243 C 215.413 -1.65386 3.16832 0
M  V30 2244 C 215.242 -0.79665 4.42587 0
M  V30 2245 C 214.012 -0.459648 5.03205 0
M  V30 2246 C 216.21 -0.12389 5.14151 0
M  V30 2247 N 214.192 0.410446 6.12526 0
M  V30 2248 C 215.563 0.606064 6.17031 0
M  V30 2249 C 217.618 -0.0452654 4.97879 0
M  V30 2250 C 216.321 1.40723 7.054 0
M  V30 2251 C 218.347 0.742658 5.86718 0
M  V30 2252 C 217.709 1.46087 6.89085 0
M  V30 2253 H 213.808 -0.287946 0.727056 0
M  V30 2254 H 216.392 -0.11304 1.94372 0
M  V30 2255 H 214.563 -2.36009 3.08471 0
M  V30 2256 H 216.295 -2.30541 3.32615 0
M  V30 2257 H 213.05 -0.797006 4.66846 0
M  V30 2258 H 213.474 0.836716 6.7181 0
M  V30 2259 H 218.116 -0.586184 4.18717 0
M  V30 2260 H 215.834 1.95938 7.83986 0
M  V30 2261 H 219.42 0.805574 5.76196 0
M  V30 2262 H 218.3 2.06077 7.56639 0
M  V30 2263 N 215.803 -1.52179 -0.40978 0
M  V30 2264 C 216.766 -1.74853 -1.48186 0
M  V30 2265 C 217.766 -0.618417 -1.48433 0
M  V30 2266 O 218.956 -0.886286 -1.49969 0
M  V30 2267 C 216.088 -1.8303 -2.87598 0
M  V30 2268 H 217.281 -2.70559 -1.29374 0
M  V30 2269 H 214.834 -1.42586 -0.640233 0
M  V30 2270 H 215.569 -0.89236 -3.11781 0
M  V30 2271 H 215.354 -2.65187 -2.88822 0
M  V30 2272 H 216.844 -2.02316 -3.65319 0
M  V30 2273 N 217.281 0.66697 -1.42791 0
M  V30 2274 C 218.53 1.42278 -1.42968 0
M  V30 2275 C 218.843 1.9553 -0.0524489 0
M  V30 2276 O 220.049 2.71414 0.068363 0
M  V30 2277 C 218.505 2.57418 -2.51524 0
M  V30 2278 C 218.113 2.10832 -3.9529 0
M  V30 2279 C 219.857 3.34878 -2.60877 0
M  V30 2280 C 217.764 3.23101 -4.95338 0
M  V30 2281 H 216.694 0.534533 -0.531781 0
M  V30 2282 H 219.345 0.721302 -1.68729 0
M  V30 2283 H 217.727 3.29971 -2.18941 0
M  V30 2284 H 218.901 1.4538 -4.37266 0
M  V30 2285 H 217.216 1.46289 -3.89857 0
M  V30 2286 H 219.813 4.18505 -3.32802 0
M  V30 2287 H 220.156 3.81993 -1.6549 0
M  V30 2288 H 220.689 2.69398 -2.92693 0
M  V30 2289 H 217.428 2.80969 -5.9223 0
M  V30 2290 H 216.948 3.87309 -4.57987 0
M  V30 2291 H 218.627 3.88447 -5.17415 0
M  V30 2292 N 218.759 1.29093 0.90403 0
M  V30 2293 C 219.989 1.19516 1.68522 0
M  V30 2294 C 220.397 -0.24738 1.87576 0
M  V30 2295 O 219.74 -1.17798 1.40959 0
M  V30 2296 C 219.802 1.83249 3.0929 0
M  V30 2297 C 219.466 3.32531 3.13484 0
M  V30 2298 C 220.463 4.28821 2.93953 0
M  V30 2299 C 218.148 3.73656 3.35688 0
M  V30 2300 C 220.142 5.64212 2.96553 0
M  V30 2301 C 217.829 5.0917 3.37919 0
M  V30 2302 C 218.827 6.04258 3.18373 0
M  V30 2303 O 218.515 7.37298 3.20385 0
M  V30 2304 H 218.247 0.415467 0.533257 0
M  V30 2305 H 220.801 1.70912 1.13922 0
M  V30 2306 H 219.031 1.26358 3.65473 0
M  V30 2307 H 220.72 1.68054 3.69476 0
M  V30 2308 H 221.486 3.98382 2.76616 0
M  V30 2309 H 217.365 3.00101 3.49943 0
M  V30 2310 H 220.909 6.38407 2.81216 0
M  V30 2311 H 216.806 5.39256 3.54787 0
M  V30 2312 H 217.574 7.46048 3.36681 0
M  V30 2313 N 220.237 -1.11381 1.11499 0
M  V30 2314 C 221.467 -1.86663 0.885464 0
M  V30 2315 C 221.875 -1.80464 -0.568281 0
M  V30 2316 O 221.218 -1.18445 -1.40415 0
M  V30 2317 C 221.28 -3.36337 1.26956 0
M  V30 2318 C 220.944 -3.66304 2.73259 0
M  V30 2319 C 221.941 -3.63733 3.71476 0
M  V30 2320 C 219.626 -3.9529 3.09921 0
M  V30 2321 C 221.62 -3.89725 5.04374 0
M  V30 2322 C 219.307 -4.20941 4.43004 0
M  V30 2323 C 220.305 -4.18147 5.40039 0
M  V30 2324 O 219.993 -4.43153 6.70724 0
M  V30 2325 H 219.725 -0.597114 0.316908 0
M  V30 2326 H 222.279 -1.41782 1.48617 0
M  V30 2327 H 220.509 -3.81826 0.611999 0
M  V30 2328 H 222.198 -3.92986 1.01573 0
M  V30 2329 H 222.964 -3.41389 3.44498 0
M  V30 2330 H 218.843 -3.966 2.35009 0
M  V30 2331 H 222.387 -3.8746 5.80104 0
M  V30 2332 H 218.284 -4.42761 4.69716 0
M  V30 2333 H 219.052 -4.60717 6.76522 0
M  V30 2334 N 221.715 -0.905404 -1.28997 0
M  V30 2335 C 222.645 -0.404212 -2.29975 0
M  V30 2336 C 223.626 0.523784 -1.61835 0
M  V30 2337 O 224.811 0.433298 -1.89304 0
M  V30 2338 C 221.941 0.364042 -3.45387 0
M  V30 2339 C 220.895 -0.474048 -4.25367 0
M  V30 2340 C 220.221 0.422045 -5.33032 0
M  V30 2341 C 221.521 -1.72696 -4.92923 0
M  V30 2342 H 223.215 -1.24807 -2.72146 0
M  V30 2343 H 220.761 -0.601585 -1.30832 0
M  V30 2344 H 222.714 0.725447 -4.15109 0
M  V30 2345 H 221.438 1.24174 -3.02074 0
M  V30 2346 H 220.097 -0.81786 -3.57361 0
M  V30 2347 H 219.745 1.29804 -4.85963 0
M  V30 2348 H 219.445 -0.135057 -5.87445 0
M  V30 2349 H 220.969 0.779517 -6.05604 0
M  V30 2350 H 222.383 -1.43495 -5.55051 0
M  V30 2351 H 220.78 -2.22582 -5.57295 0
M  V30 2352 H 221.85 -2.45964 -4.17887 0
M  V30 2353 N 223.193 1.4272 -0.668489 0
M  V30 2354 C 224.423 2.05668 -0.196063 0
M  V30 2355 C 224.831 1.5028 1.14946 0
M  V30 2356 O 224.174 0.6348 1.72383 0
M  V30 2357 C 224.236 3.59469 -0.0468879 0
M  V30 2358 C 223.9 4.37518 -1.32012 0
M  V30 2359 C 224.897 4.68584 -2.25222 0
M  V30 2360 C 222.582 4.77266 -1.56596 0
M  V30 2361 C 224.576 5.38326 -3.41297 0
M  V30 2362 C 222.263 5.4675 -2.72962 0
M  V30 2363 C 223.261 5.77204 -3.65137 0
M  V30 2364 O 222.949 6.45264 -4.79468 0
M  V30 2365 H 222.681 0.669382 -0.0943599 0
M  V30 2366 H 225.235 1.83954 -0.913788 0
M  V30 2367 H 223.465 3.79817 0.726357 0
M  V30 2368 H 225.154 4.04071 0.384852 0
M  V30 2369 H 225.92 4.38382 -2.07477 0
M  V30 2370 H 221.799 4.52959 -0.857249 0
M  V30 2371 H 225.343 5.62014 -4.13263 0
M  V30 2372 H 221.24 5.76369 -2.90635 0
M  V30 2373 H 222.008 6.63753 -4.78931 0
M  V30 2374 N 224.671 0.411399 1.52136 0
M  V30 2375 C 225.619 -0.427633 2.28635 0
M  V30 2376 C 226.613 -1.04383 1.33419 0
M  V30 2377 O 227.819 -0.981772 1.50868 0
M  V30 2378 H 224.194 -0.156689 0.735495 0
M  V30 2379 H 226.165 0.238761 2.97443 0
M  V30 2380 C 224.914 -1.53082 3.12188 0
M  V30 2381 H 224.237 -1.06601 3.85326 0
M  V30 2382 H 225.677 -2.09167 3.68816 0
M  V30 2383 C 224.136 -2.49946 2.25895 0
M  V30 2384 O 224.666 -3.53884 1.90076 0
M  V30 2385 N 222.872 -2.2021 1.8962 0
M  V30 2386 H 222.419 -1.35719 2.18948 0
M  V30 2387 H 222.377 -2.85266 1.32176 0
M  V30 2388 N 226.149 -1.5696 0.141893 0
M  V30 2389 C 227.374 -2.00754 -0.520838 0
M  V30 2390 C 227.799 -1.0213 -1.57959 0
M  V30 2391 O 227.157 0.00371324 -1.813 0
M  V30 2392 C 227.205 -3.43318 -1.10294 0
M  V30 2393 O 226.309 -3.47679 -2.21795 0
M  V30 2394 H 225.65 -0.651564 -0.127908 0
M  V30 2395 H 228.18 -2.03221 0.23712 0
M  V30 2396 H 228.19 -3.82012 -1.43287 0
M  V30 2397 H 226.865 -4.14608 -0.327574 0
M  V30 2398 H 225.442 -3.20824 -1.9007 0
M  V30 2399 N 227.627 0.131896 -1.57047 0
M  V30 2400 C 228.874 0.841932 -1.84168 0
M  V30 2401 C 229.202 1.8048 -0.725066 0
M  V30 2402 O 228.457 1.93618 0.284692 0
M  V30 2403 C 228.756 1.63703 -3.17704 0
M  V30 2404 C 228.422 0.81961 -4.43388 0
M  V30 2405 C 227.084 0.594148 -4.77518 0
M  V30 2406 C 229.436 0.248977 -5.20605 0
M  V30 2407 C 226.764 -0.212409 -5.86315 0
M  V30 2408 C 229.116 -0.544701 -6.30251 0
M  V30 2409 C 227.78 -0.780599 -6.6292 0
M  V30 2410 H 227.05 0.308085 -0.673917 0
M  V30 2411 H 229.697 0.104867 -1.91213 0
M  V30 2412 H 228.002 2.44464 -3.06177 0
M  V30 2413 H 229.699 2.19015 -3.35907 0
M  V30 2414 H 226.289 1.00542 -4.16641 0
M  V30 2415 H 230.473 0.410408 -4.946 0
M  V30 2416 H 225.729 -0.404524 -6.1006 0
M  V30 2417 H 229.903 -0.993922 -6.89271 0
M  V30 2418 H 227.53 -1.40742 -7.47058 0
M  V30 2419 N 229.106 1.52395 0.401703 0
M  V30 2420 C 230.334 1.70676 1.16949 0
M  V30 2421 C 230.749 0.419503 1.8408 0
M  V30 2422 O 230.106 -0.605061 1.72178 0
M  V30 2423 C 230.157 2.84753 2.22706 0
M  V30 2424 O 229.878 4.08495 1.58314 0
M  V30 2425 C 231.379 3.14608 3.12309 0
M  V30 2426 H 228.599 0.571787 0.351142 0
M  V30 2427 H 231.143 1.98987 0.471652 0
M  V30 2428 H 229.298 2.58941 2.88147 0
M  V30 2429 H 229.712 4.72117 2.28485 0
M  V30 2430 H 231.186 3.97923 3.82572 0
M  V30 2431 H 231.663 2.28464 3.75101 0
M  V30 2432 H 232.269 3.42212 2.52529 0
M  V30 2433 N 230.584 -0.659388 1.43143 0
M  V30 2434 C 231.812 -1.44723 1.47861 0
M  V30 2435 C 232.227 -1.88563 0.0945886 0
M  V30 2436 O 231.584 -1.59108 -0.893915 0
M  V30 2437 C 231.635 -2.68627 2.41913 0
M  V30 2438 O 231.356 -2.26623 3.74932 0
M  V30 2439 C 232.857 -3.62045 2.55809 0
M  V30 2440 H 230.077 -0.444801 0.502387 0
M  V30 2441 H 232.621 -0.808916 1.87821 0
M  V30 2442 H 230.776 -3.28613 2.05164 0
M  V30 2443 H 231.19 -3.06745 4.2545 0
M  V30 2444 H 232.664 -4.45666 3.25708 0
M  V30 2445 H 233.141 -4.08981 1.60099 0
M  V30 2446 H 233.747 -3.07944 2.93344 0
M  V30 2447 N 232.062 -1.29571 -0.897171 0
M  V30 2448 C 233.29 -1.20583 -1.68129 0
M  V30 2449 C 233.705 0.233181 -1.87354 0
M  V30 2450 O 233.062 1.15579 -1.41236 0
M  V30 2451 C 233.113 -1.91772 -3.06441 0
M  V30 2452 O 232.834 -3.30053 -2.88091 0
M  V30 2453 C 234.335 -1.89291 -4.00854 0
M  V30 2454 H 231.555 -0.417826 -0.525036 0
M  V30 2455 H 234.099 -1.70987 -1.12177 0
M  V30 2456 H 232.254 -1.45196 -3.59161 0
M  V30 2457 H 232.668 -3.65942 -3.75748 0
M  V30 2458 H 234.142 -2.43662 -4.95311 0
M  V30 2459 H 234.619 -0.869014 -4.30517 0
M  V30 2460 H 235.225 -2.35622 -3.54066 0
M  V30 2461 N 233.54 1.10788 -1.12088 0
M  V30 2462 C 234.47 2.19083 -0.807755 0
M  V30 2463 C 235.451 1.6858 0.226859 0
M  V30 2464 O 236.636 1.93997 0.0888475 0
M  V30 2465 C 233.766 3.46344 -0.257576 0
M  V30 2466 C 232.72 4.101 -1.22483 0
M  V30 2467 C 232.046 5.32016 -0.535052 0
M  V30 2468 C 233.346 4.54236 -2.57811 0
M  V30 2469 H 235.04 2.45534 -1.71328 0
M  V30 2470 H 232.586 1.1801 -0.825205 0
M  V30 2471 H 234.539 4.21392 -0.0262679 0
M  V30 2472 H 233.263 3.19373 0.683278 0
M  V30 2473 H 231.922 3.37054 -1.44189 0
M  V30 2474 H 231.57 5.01319 0.410827 0
M  V30 2475 H 231.27 5.75625 -1.18024 0
M  V30 2476 H 232.794 6.09799 -0.312695 0
M  V30 2477 H 234.208 5.20575 -2.40155 0
M  V30 2478 H 232.605 5.08682 -3.18375 0
M  V30 2479 H 233.675 3.6734 -3.16528 0
M  V30 2480 N 235.018 0.912232 1.28515 0
M  V30 2481 C 236.429 0.591352 1.77087 0
M  V30 2482 C 236.78 -0.8933 1.74684 0
M  V30 2483 O 235.905 -1.69876 1.34056 0
M  V30 2484 C 236.5 1.06668 3.2157 0
M  V30 2485 C 235.059 0.79675 3.67871 0
M  V30 2486 C 234.206 1.23427 2.48316 0
M  V30 2487 H 237.157 1.09365 1.15 0
M  V30 2488 H 237.178 0.407455 3.78312 0
M  V30 2489 H 236.69 2.14726 3.23287 0
M  V30 2490 H 234.791 -0.270679 3.71616 0
M  V30 2491 H 234.904 1.40343 4.58084 0
M  V30 2492 H 233.268 0.653036 2.46186 0
M  V30 2493 H 234.051 2.32316 2.52753 0
M  V30 2494 N 236.496 -1.42363 0.676048 0
M  V30 2495 C 237.742 -2.02336 0.207809 0
M  V30 2496 C 238.097 -1.52506 -1.17302 0
M  V30 2497 O 237.39 -0.718048 -1.77636 0
M  V30 2498 C 237.584 -3.56929 0.183431 0
M  V30 2499 C 237.413 -4.21762 1.56036 0
M  V30 2500 C 236.183 -4.56881 2.15842 0
M  V30 2501 C 238.381 -4.49267 2.50327 0
M  V30 2502 N 236.363 -5.069 3.46303 0
M  V30 2503 C 237.734 -5.00851 3.65443 0
M  V30 2504 C 239.789 -4.31257 2.48841 0
M  V30 2505 C 238.492 -5.36317 4.79329 0
M  V30 2506 C 240.518 -4.678 3.61824 0
M  V30 2507 C 239.88 -5.19537 4.75668 0
M  V30 2508 H 235.979 -0.772583 0.120993 0
M  V30 2509 H 238.563 -1.73203 0.889306 0
M  V30 2510 H 236.734 -3.85576 -0.467483 0
M  V30 2511 H 238.466 -4.03603 -0.297808 0
M  V30 2512 H 235.221 -4.4268 1.68319 0
M  V30 2513 H 235.645 -5.36338 4.13123 0
M  V30 2514 H 240.287 -3.90511 1.62051 0
M  V30 2515 H 238.005 -5.75995 5.66794 0
M  V30 2516 H 241.591 -4.55541 3.61903 0
M  V30 2517 H 240.471 -5.47287 5.61646 0
M  V30 2518 N 237.974 -0.419461 -1.51915 0
M  V30 2519 C 238.921 0.400927 -2.27291 0
M  V30 2520 C 239.891 1.03224 -1.30131 0
M  V30 2521 O 241.076 1.05455 -1.59009 0
M  V30 2522 C 238.216 1.50603 -3.10504 0
M  V30 2523 C 237.329 0.89462 -4.22635 0
M  V30 2524 C 236.464 1.97328 -4.93189 0
M  V30 2525 C 235.503 1.33935 -5.97267 0
M  V30 2526 N 234.64 2.3586 -6.61298 0
M  V30 2527 H 239.48 -0.248251 -2.96964 0
M  V30 2528 H 237.017 -0.134266 -1.46486 0
M  V30 2529 H 238.975 2.15783 -3.57062 0
M  V30 2530 H 237.605 2.12509 -2.42981 0
M  V30 2531 H 236.657 0.131583 -3.80172 0
M  V30 2532 H 237.969 0.391641 -4.9726 0
M  V30 2533 H 237.123 2.70211 -5.43204 0
M  V30 2534 H 235.862 2.50994 -4.18155 0
M  V30 2535 H 234.867 0.595896 -5.46561 0
M  V30 2536 H 236.092 0.810252 -6.74249 0
M  V30 2537 H 234.038 2.88639 -5.89087 0
M  V30 2538 H 233.955 1.90403 -7.3163 0
M  V30 2539 H 235.223 3.08282 -7.15949 0
M  V30 2540 N 239.452 1.56882 -0.150215 0
M  V30 2541 C 240.384 2.14057 0.819286 0
M  V30 2542 C 241.397 1.09082 1.20851 0
M  V30 2543 O 242.586 1.36347 1.15203 0
M  V30 2544 C 239.686 2.65102 2.11127 0
M  V30 2545 C 238.859 3.94511 1.88891 0
M  V30 2546 C 237.918 4.30834 3.02107 0
M  V30 2547 O 236.944 4.99099 2.73659 0
M  V30 2548 N 238.146 3.90676 4.29363 0
M  V30 2549 H 240.911 2.97871 0.330618 0
M  V30 2550 H 238.472 1.61866 0.0332538 0
M  V30 2551 H 240.464 2.86411 2.85921 0
M  V30 2552 H 239.034 1.85994 2.51247 0
M  V30 2553 H 238.254 3.81795 0.981152 0
M  V30 2554 H 239.542 4.7907 1.71376 0
M  V30 2555 H 238.94 3.35677 4.55343 0
M  V30 2556 H 237.497 4.1703 5.00928 0
M  V30 2557 N 240.93 -0.123565 1.57115 0
M  V30 2558 C 242.17 -0.838097 1.86428 0
M  V30 2559 C 242.534 -1.77266 0.737611 0
M  V30 2560 O 243.735 -2.52842 0.912389 0
M  V30 2561 C 242.006 -1.57219 3.20962 0
M  V30 2562 S 243.565 -2.32893 3.71896 0
M  V30 2563 H 240.383 -0.279811 0.653626 0
M  V30 2564 H 242.985 -0.0967034 1.95261 0
M  V30 2565 H 241.689 -0.877522 4.00909 0
M  V30 2566 H 241.22 -2.35405 3.15195 0
M  V30 2567 H 243.235 -3.5853 3.43032 0
M  V30 2568 N 242.408 -1.52605 -0.393616 0
M  V30 2569 C 243.685 -1.58001 -1.15304 0
M  V30 2570 C 244.065 -0.370385 -2.07825 0
M  V30 2571 O 243.413 0.641638 -2.19306 0
M  V30 2572 C 243.623 -2.91652 -1.91677 0
M  V30 2573 C 244.971 -3.4522 -2.47201 0
M  V30 2574 O 245.995 -2.93495 -2.01839 0
M  V30 2575 O 244.854 -4.35579 -3.3005 0
M  V30 2576 H 241.948 -0.637068 -0.527327 0
M  V30 2577 H 244.494 -1.64939 -0.399141 0
M  V30 2578 H 243.266 -3.71136 -1.23992 0
M  V30 2579 H 242.889 -2.88077 -2.74039 0
M  V30 2580 N 243.887 0.651787 -1.4349 0
M  V30 2581 C 244.835 1.78586 -1.49029 0
M  V30 2582 C 245.829 1.65448 -0.363767 0
M  V30 2583 O 247.035 1.71777 -0.537821 0
M  V30 2584 H 243.41 0.589236 -0.467231 0
M  V30 2585 H 245.381 1.71035 -2.44519 0
M  V30 2586 C 244.13 3.16851 -1.43181 0
M  V30 2587 H 243.453 3.27598 -2.29171 0
M  V30 2588 H 244.893 3.96156 -1.51118 0
M  V30 2589 C 243.352 3.36568 -0.149616 0
M  V30 2590 O 243.882 3.93885 0.788509 0
M  V30 2591 N 242.088 2.90539 -0.0593484 0
M  V30 2592 H 241.635 2.4408 -0.823575 0
M  V30 2593 H 241.593 3.04108 0.797853 0
M  V30 2594 N 245.365 1.30045 0.890287 0
M  V30 2595 C 246.776 1.16738 1.45702 0
M  V30 2596 C 247.127 -0.233939 1.948 0
M  V30 2597 O 246.252 -1.13021 1.84541 0
M  V30 2598 C 246.847 2.11313 2.64825 0
M  V30 2599 C 245.406 2.02001 3.17604 0
M  V30 2600 C 244.553 2.01699 1.90296 0
M  V30 2601 H 247.504 1.42392 0.700726 0
M  V30 2602 H 247.525 1.69086 3.40867 0
M  V30 2603 H 247.037 3.13294 2.2906 0
M  V30 2604 H 245.138 1.03142 3.5804 0
M  V30 2605 H 245.251 2.90128 3.81264 0
M  V30 2606 H 243.615 1.46427 2.08402 0
M  V30 2607 H 244.398 3.05402 1.56795 0
M  V30 2608 N 246.843 -1.10192 1.12674 0
M  V30 2609 C 248.089 -1.82658 0.894847 0
M  V30 2610 C 248.444 -1.83666 -0.573107 0
M  V30 2611 O 247.737 -1.28816 -1.41835 0
M  V30 2612 C 247.931 -3.28552 1.4067 0
M  V30 2613 C 247.76 -3.41756 2.92289 0
M  V30 2614 C 246.53 -3.54021 3.60551 0
M  V30 2615 C 248.728 -3.34949 3.90274 0
M  V30 2616 N 246.71 -3.55827 5.0026 0
M  V30 2617 C 248.081 -3.43531 5.16127 0
M  V30 2618 C 250.136 -3.18565 3.8265 0
M  V30 2619 C 248.839 -3.37416 6.3525 0
M  V30 2620 C 250.865 -3.13772 5.01299 0
M  V30 2621 C 250.227 -3.22938 6.26012 0
M  V30 2622 H 246.326 -0.683044 0.380756 0
M  V30 2623 H 248.91 -1.31752 1.43351 0
M  V30 2624 H 247.081 -3.77946 0.895055 0
M  V30 2625 H 248.813 -3.88991 1.11661 0
M  V30 2626 H 245.568 -3.57135 3.1105 0
M  V30 2627 H 245.992 -3.60335 5.73138 0
M  V30 2628 H 250.634 -3.10354 2.87124 0
M  V30 2629 H 248.352 -3.44391 7.3104 0
M  V30 2630 H 251.938 -3.02242 4.97133 0
M  V30 2631 H 250.818 -3.19235 7.16281 0
M  V30 2632 N 248.321 -0.919034 -1.28029 0
M  V30 2633 C 249.269 -0.401753 -2.29104 0
M  V30 2634 C 250.263 0.509354 -1.61561 0
M  V30 2635 O 251.469 0.390014 -1.75724 0
M  V30 2636 H 247.844 -0.111331 -0.743713 0
M  V30 2637 H 249.815 -1.2672 -2.70156 0
M  V30 2638 C 248.564 0.338148 -3.46052 0
M  V30 2639 H 247.887 -0.353732 -3.98232 0
M  V30 2640 H 249.327 0.664653 -4.18758 0
M  V30 2641 C 247.786 1.54798 -2.99231 0
M  V30 2642 O 248.316 2.64696 -3.02157 0
M  V30 2643 N 246.522 1.3968 -2.54829 0
M  V30 2644 H 246.069 0.502698 -2.52647 0
M  V30 2645 H 246.027 2.20755 -2.23863 0
M  V30 2646 N 249.799 1.42003 -0.683588 0
M  V30 2647 C 251.027 2.05746 -0.218182 0
M  V30 2648 C 251.442 1.51396 1.12804 0
M  V30 2649 O 250.799 0.657303 1.70252 0
M  V30 2650 C 250.85 3.61171 -0.154131 0
M  V30 2651 O 250.571 4.13508 -1.44716 0
M  V30 2652 C 252.072 4.42042 0.333713 0
M  V30 2653 H 249.292 0.662888 -0.10402 0
M  V30 2654 H 251.836 1.81987 -0.9328 0
M  V30 2655 H 249.991 3.84012 0.511231 0
M  V30 2656 H 250.405 5.07453 -1.32632 0
M  V30 2657 H 251.879 5.51028 0.327423 0
M  V30 2658 H 252.356 4.17269 1.37053 0
M  V30 2659 H 252.962 4.24239 -0.300222 0
M  V30 2660 N 251.277 0.427512 1.51691 0
M  V30 2661 C 252.554 -0.201684 1.94557 0
M  V30 2662 C 252.934 -1.60981 1.36559 0
M  V30 2663 O 252.282 -2.21814 0.548702 0
M  V30 2664 C 252.492 -0.189394 3.48486 0
M  V30 2665 C 253.84 -0.39978 4.22714 0
M  V30 2666 O 254.864 -0.267945 3.55191 0
M  V30 2667 O 253.723 -0.661249 5.42485 0
M  V30 2668 H 250.817 -0.135261 0.815864 0
M  V30 2669 H 253.363 0.484782 1.62628 0
M  V30 2670 H 252.135 0.795431 3.8313 0
M  V30 2671 H 251.758 -0.919187 3.86829 0
M  V30 2672 N 252.755 -1.56801 0.158532 0
M  V30 2673 C 254.171 -1.5837 -0.197774 0
M  V30 2674 C 254.371 -1.17334 -1.63814 0
M  V30 2675 O 253.427 -0.878988 -2.36707 0
M  V30 2676 C 254.74 -3.00615 0.0714459 0
M  V30 2677 C 256.288 -3.12999 0.00864533 0
M  V30 2678 C 256.763 -4.57313 0.250685 0
M  V30 2679 N 258.254 -4.62777 0.198014 0
M  V30 2680 C 258.989 -5.72271 0.359642 0
M  V30 2681 N 258.485 -6.90371 0.579625 0
M  V30 2682 N 260.278 -5.61318 0.296438 0
M  V30 2683 H 252.429 -1.81765 1.09887 0
M  V30 2684 H 254.692 -0.841849 0.435884 0
M  V30 2685 H 254.398 -3.35068 1.06874 0
M  V30 2686 H 254.272 -3.71683 -0.642757 0
M  V30 2687 H 256.659 -2.7838 -0.979217 0
M  V30 2688 H 256.74 -2.44393 0.755359 0
M  V30 2689 H 256.384 -4.92639 1.2357 0
M  V30 2690 H 256.314 -5.24061 -0.516489 0
M  V30 2691 H 258.805 -3.77885 0.0331115 0
M  V30 2692 H 259.118 -7.69689 0.69275 0
M  V30 2693 H 257.463 -6.92264 0.616087 0
M  V30 2694 H 260.654 -4.67932 0.125258 0
M  V30 2695 H 260.827 -6.46599 0.425831 0
M  V30 2696 N 254.233 0.115231 -1.57178 0
M  V30 2697 C 255.473 0.828199 -1.8687 0
M  V30 2698 C 255.837 1.76873 -0.747002 0
M  V30 2699 O 257.038 2.52354 -0.925785 0
M  V30 2700 C 255.309 1.55515 -3.21792 0
M  V30 2701 S 256.868 2.30917 -3.73125 0
M  V30 2702 H 253.686 0.27634 -0.655101 0
M  V30 2703 H 256.288 0.0863469 -1.95309 0
M  V30 2704 H 254.992 0.856248 -4.01368 0
M  V30 2705 H 254.523 2.3373 -3.16439 0
M  V30 2706 H 256.538 3.56705 -3.44929 0
M  V30 2707 N 255.711 1.52812 0.385517 0
M  V30 2708 C 256.958 1.68026 1.1302 0
M  V30 2709 C 257.286 0.421934 1.89868 0
M  V30 2710 O 256.541 -0.595749 1.86412 0
M  V30 2711 C 256.84 2.86856 2.13187 0
M  V30 2712 C 256.506 4.24159 1.5297 0
M  V30 2713 C 255.168 4.61501 1.36274 0
M  V30 2714 C 257.52 5.09627 1.09223 0
M  V30 2715 C 254.848 5.81966 0.743837 0
M  V30 2716 C 257.2 6.30719 0.487411 0
M  V30 2717 C 255.864 6.6679 0.307777 0
M  V30 2718 H 255.134 0.614849 0.413571 0
M  V30 2719 H 257.781 1.86962 0.414405 0
M  V30 2720 H 256.086 2.6235 2.90998 0
M  V30 2721 H 257.783 2.95821 2.70722 0
M  V30 2722 H 254.373 3.94746 1.66954 0
M  V30 2723 H 258.557 4.81343 1.20922 0
M  V30 2724 H 253.813 6.08519 0.592891 0
M  V30 2725 H 257.987 6.96259 0.140143 0
M  V30 2726 H 255.614 7.60001 -0.173879 0
M  V30 2727 N 257.189 -0.644168 1.43834 0
M  V30 2728 C 258.414 -1.43642 1.49605 0
M  V30 2729 C 258.839 -1.8773 0.117913 0
M  V30 2730 O 258.197 -1.57938 -0.890239 0
M  V30 2731 C 258.245 -2.6416 2.45463 0
M  V30 2732 O 257.349 -3.63538 1.94714 0
M  V30 2733 H 256.69 -0.430329 0.50568 0
M  V30 2734 H 259.22 -0.787448 1.8884 0
M  V30 2735 H 259.23 -3.11864 2.63068 0
M  V30 2736 H 257.905 -2.31414 3.45572 0
M  V30 2737 H 256.482 -3.2273 1.86814 0
M  V30 2738 N 258.668 -1.30515 -0.883378 0
M  V30 2739 C 259.616 -1.16941 -2.01066 0
M  V30 2740 C 260.61 -0.0809148 -1.69207 0
M  V30 2741 O 261.816 -0.241877 -1.78367 0
M  V30 2742 H 258.191 -0.361705 -0.659298 0
M  V30 2743 H 260.162 -2.12344 -2.09649 0
M  V30 2744 C 258.911 -0.879694 -3.36388 0
M  V30 2745 H 258.234 -1.70936 -3.61415 0
M  V30 2746 H 259.674 -0.82483 -4.159 0
M  V30 2747 C 258.133 0.417409 -3.34304 0
M  V30 2748 O 258.663 1.43843 -3.75063 0
M  V30 2749 N 256.869 0.429141 -2.87414 0
M  V30 2750 H 256.416 -0.402222 -2.5444 0
M  V30 2751 H 256.374 1.29696 -2.86403 0
M  V30 2752 N 260.146 1.09593 -1.13257 0
M  V30 2753 C 261.376 1.85231 -0.915049 0
M  V30 2754 C 261.784 1.81345 0.539498 0
M  V30 2755 O 261.127 1.20664 1.38513 0
M  V30 2756 C 261.189 3.34275 -1.3229 0
M  V30 2757 C 260.853 3.6191 -2.79052 0
M  V30 2758 C 261.85 3.57777 -3.77216 0
M  V30 2759 C 259.535 3.90309 -3.16171 0
M  V30 2760 C 261.529 3.81652 -5.1051 0
M  V30 2761 C 259.216 4.13839 -4.49644 0
M  V30 2762 C 260.214 4.09502 -5.46623 0
M  V30 2763 O 259.902 4.32426 -6.77689 0
M  V30 2764 H 259.634 0.591997 -0.326367 0
M  V30 2765 H 262.188 1.394 -1.50854 0
M  V30 2766 H 260.418 3.80805 -0.672667 0
M  V30 2767 H 262.107 3.9132 -1.07812 0
M  V30 2768 H 262.873 3.35865 -3.49885 0
M  V30 2769 H 258.752 3.92811 -2.41289 0
M  V30 2770 H 262.296 3.78182 -5.86195 0
M  V30 2771 H 258.193 4.35232 -4.767 0
M  V30 2772 H 258.961 4.49896 -6.83766 0
M  V30 2773 N 261.624 0.925811 1.2754 0
M  V30 2774 C 262.849 0.580924 1.99098 0
M  V30 2775 C 263.274 -0.833555 1.68622 0
M  V30 2776 O 262.632 -1.55903 0.925422 0
M  V30 2777 C 262.68 0.811186 3.51358 0
M  V30 2778 O 261.784 -0.124129 4.12213 0
M  V30 2779 H 261.125 0.223873 0.625122 0
M  V30 2780 H 263.655 1.24455 1.62395 0
M  V30 2781 H 263.665 0.72601 4.01489 0
M  V30 2782 H 262.34 1.84227 3.72872 0
M  V30 2783 H 260.917 0.0108006 3.72898 0
M  V30 2784 N 263.102 -1.41638 0.69111 0
M  V30 2785 C 264.035 -2.28183 -0.0274913 0
M  V30 2786 C 265.013 -1.41984 -0.792424 0
M  V30 2787 O 266.197 -1.71415 -0.784169 0
M  V30 2788 C 263.324 -3.22135 -1.04628 0
M  V30 2789 C 262.37 -4.24848 -0.375037 0
M  V30 2790 S 263.203 -5.28231 0.879321 0
M  V30 2791 C 264.359 -6.25748 -0.137983 0
M  V30 2792 H 264.592 -2.88782 0.706553 0
M  V30 2793 H 262.125 -1.46709 0.481222 0
M  V30 2794 H 264.083 -3.76797 -1.62894 0
M  V30 2795 H 262.744 -2.6064 -1.75287 0
M  V30 2796 H 261.937 -4.90837 -1.14433 0
M  V30 2797 H 261.539 -3.73758 0.134434 0
M  V30 2798 H 263.831 -6.70188 -0.992659 0
M  V30 2799 H 264.774 -7.06417 0.487867 0
M  V30 2800 H 265.182 -5.62363 -0.490762 0
M  V30 2801 N 264.58 -0.43555 -1.51462 0
M  V30 2802 C 265.826 0.131709 -2.02372 0
M  V30 2803 C 266.159 1.42516 -1.3192 0
M  V30 2804 O 265.434 1.89606 -0.433573 0
M  V30 2805 C 265.717 0.352301 -3.58373 0
M  V30 2806 C 265.57 -0.959676 -4.39443 0
M  V30 2807 C 266.889 1.12286 -4.25535 0
M  V30 2808 H 264.008 0.0463936 -0.735538 0
M  V30 2809 H 266.65 -0.574197 -1.81116 0
M  V30 2810 H 264.8 0.9536 -3.76615 0
M  V30 2811 H 266.472 -1.59482 -4.32855 0
M  V30 2812 H 264.715 -1.56468 -4.04599 0
M  V30 2813 H 265.386 -0.759394 -5.46752 0
M  V30 2814 H 267.862 0.613545 -4.11552 0
M  V30 2815 H 266.738 1.24598 -5.34571 0
M  V30 2816 H 266.999 2.15048 -3.86273 0
M  V30 2817 N 266.058 1.56714 -0.166846 0
M  V30 2818 C 267.006 2.19056 0.782123 0
M  V30 2819 C 268 1.15328 1.24079 0
M  V30 2820 O 269.206 1.33537 1.20697 0
M  V30 2821 H 265.581 0.70167 0.270486 0
M  V30 2822 H 267.552 2.97494 0.232322 0
M  V30 2823 C 266.301 2.84206 2.00306 0
M  V30 2824 H 265.624 3.63748 1.65914 0
M  V30 2825 H 267.064 3.31302 2.64604 0
M  V30 2826 C 265.523 1.83744 2.82382 0
M  V30 2827 O 266.053 1.32014 3.79388 0
M  V30 2828 N 264.259 1.52601 2.47308 0
M  V30 2829 H 263.806 1.9486 1.68485 0
M  V30 2830 H 263.764 0.856351 3.02513 0
M  V30 2831 N 267.536 -0.106894 1.57237 0
M  V30 2832 C 268.764 -0.826389 1.8968 0
M  V30 2833 C 269.179 -1.72856 0.759353 0
M  V30 2834 O 268.536 -1.80503 -0.269263 0
M  V30 2835 C 268.587 -1.64967 3.21665 0
M  V30 2836 O 268.308 -0.783804 4.31031 0
M  V30 2837 C 269.809 -2.47326 3.67892 0
M  V30 2838 H 267.029 -0.236927 0.627779 0
M  V30 2839 H 269.573 -0.0876593 2.04312 0
M  V30 2840 H 267.728 -2.34103 3.08666 0
M  V30 2841 H 268.142 -1.35284 5.06753 0
M  V30 2842 H 269.616 -3.00604 4.6297 0
M  V30 2843 H 270.093 -3.25247 2.95146 0
M  V30 2844 H 270.699 -1.83411 3.83719 0
M  V30 2845 N 269.014 -1.53014 -0.377408 0
M  V30 2846 C 270.242 -1.72515 -1.14219 0
M  V30 2847 C 270.657 -0.448735 -1.8339 0
M  V30 2848 O 270.014 0.577592 -1.73119 0
M  V30 2849 C 270.065 -2.8826 -2.18148 0
M  V30 2850 O 269.786 -4.10962 -1.51795 0
M  V30 2851 C 271.287 -3.19536 -3.07264 0
M  V30 2852 H 268.507 -0.577301 -0.342001 0
M  V30 2853 H 271.051 -1.99712 -0.439935 0
M  V30 2854 H 269.206 -2.63492 -2.83991 0
M  V30 2855 H 269.62 -4.75693 -2.20945 0
M  V30 2856 H 271.094 -4.03959 -3.76193 0
M  V30 2857 H 271.571 -2.34403 -3.71419 0
M  V30 2858 H 272.177 -3.46186 -2.47053 0
M  V30 2859 N 270.492 0.636531 -1.44174 0
M  V30 2860 C 271.44 1.76995 -1.50915 0
M  V30 2861 C 272.434 1.65053 -0.381295 0
M  V30 2862 O 273.64 1.71197 -0.55601 0
M  V30 2863 H 270.015 0.584247 -0.473455 0
M  V30 2864 H 271.986 1.68432 -2.4632 0
M  V30 2865 C 270.735 3.15314 -1.46534 0
M  V30 2866 H 270.058 3.25149 -2.32633 0
M  V30 2867 H 271.498 3.9453 -1.55312 0
M  V30 2868 C 269.957 3.3639 -0.185305 0
M  V30 2869 O 270.487 3.94699 0.746688 0
M  V30 2870 N 268.693 2.9046 -0.0901606 0
M  V30 2871 H 268.24 2.43193 -0.849416 0
M  V30 2872 H 268.198 3.04937 0.765553 0
M  V30 2873 N 271.97 1.30982 0.876444 0
M  V30 2874 C 272.903 1.12414 1.98591 0
M  V30 2875 C 273.881 0.0294078 1.62573 0
M  V30 2876 O 275.065 0.184598 1.87594 0
M  V30 2877 C 272.192 0.716276 3.3104 0
M  V30 2878 C 271.238 1.81311 3.86042 0
M  V30 2879 S 272.071 3.41727 4.1229 0
M  V30 2880 C 273.227 3.02863 5.47745 0
M  V30 2881 H 273.46 2.06338 2.14037 0
M  V30 2882 H 270.993 1.15393 1.02586 0
M  V30 2883 H 272.951 0.487697 4.07593 0
M  V30 2884 H 271.612 -0.203749 3.13438 0
M  V30 2885 H 270.805 1.48021 4.81774 0
M  V30 2886 H 270.407 1.99641 3.16259 0
M  V30 2887 H 272.699 2.51353 6.29148 0
M  V30 2888 H 273.642 3.97533 5.8598 0
M  V30 2889 H 274.05 2.40487 5.10711 0
M  V30 2890 N 273.449 -1.08991 1.13837 0
M  V30 2891 C 274.677 -1.85011 0.926202 0
M  V30 2892 C 275.092 -1.8135 -0.525127 0
M  V30 2893 O 274.449 -1.21287 -1.36366 0
M  V30 2894 C 274.5 -3.32802 1.41155 0
M  V30 2895 O 274.221 -3.36444 2.80601 0
M  V30 2896 C 275.722 -4.25649 1.23847 0
M  V30 2897 H 272.942 -0.584249 0.32999 0
M  V30 2898 H 275.486 -1.37688 1.51202 0
M  V30 2899 H 273.641 -3.77536 0.868631 0
M  V30 2900 H 274.055 -4.28657 3.02248 0
M  V30 2901 H 275.529 -5.27485 1.62675 0
M  V30 2902 H 276.006 -4.38828 0.18065 0
M  V30 2903 H 276.612 -3.86735 1.76964 0
M  V30 2904 N 274.927 -0.932562 -1.27047 0
M  V30 2905 C 276.152 -0.591474 -1.98787 0
M  V30 2906 C 276.577 0.824601 -1.69062 0
M  V30 2907 O 275.935 1.5541 -0.933677 0
M  V30 2908 C 275.983 -0.829808 -3.50922 0
M  V30 2909 O 275.087 0.102266 -4.12273 0
M  V30 2910 H 274.428 -0.227185 -0.623926 0
M  V30 2911 H 276.958 -1.25314 -1.61733 0
M  V30 2912 H 276.968 -0.747292 -4.01098 0
M  V30 2913 H 275.643 -1.86201 -3.7189 0
M  V30 2914 H 274.22 -0.0305761 -3.72887 0
M  V30 2915 N 276.405 1.4127 -0.698611 0
M  V30 2916 C 277.368 2.29158 -0.044132 0
M  V30 2917 C 278.368 1.44529 0.704841 0
M  V30 2918 O 279.558 1.65643 0.539276 0
M  V30 2919 C 276.69 3.27459 0.947809 0
M  V30 2920 H 277.883 2.88529 -0.817994 0
M  V30 2921 H 275.436 1.49307 -0.46228 0
M  V30 2922 H 276.171 2.73073 1.74933 0
M  V30 2923 H 275.956 3.8991 0.41385 0
M  V30 2924 H 277.446 3.93311 1.40344 0
M  V30 2925 N 277.883 0.443576 1.51229 0
M  V30 2926 C 279.129 -0.120975 2.02439 0
M  V30 2927 C 279.462 -1.41815 1.32674 0
M  V30 2928 O 278.737 -1.89373 0.443622 0
M  V30 2929 C 279.02 -0.333291 3.58554 0
M  V30 2930 C 278.873 0.982968 4.38928 0
M  V30 2931 C 280.192 -1.10028 4.26124 0
M  V30 2932 H 277.311 -0.0424923 0.735774 0
M  V30 2933 H 279.953 0.583794 1.80809 0
M  V30 2934 H 278.103 -0.933614 3.77115 0
M  V30 2935 H 279.775 1.61775 4.32003 0
M  V30 2936 H 278.018 1.58611 4.03763 0
M  V30 2937 H 278.689 0.788379 5.46341 0
M  V30 2938 H 281.165 -0.591711 4.11871 0
M  V30 2939 H 280.041 -1.21761 5.35225 0
M  V30 2940 H 280.302 -2.12996 3.87408 0
M  V30 2941 N 279.361 -1.56624 0.175154 0
M  V30 2942 C 280.607 -1.9729 -0.469506 0
M  V30 2943 C 280.94 -1.06128 -1.62636 0
M  V30 2944 O 280.215 -0.109183 -1.94193 0
M  V30 2945 C 280.498 -3.47375 -0.948804 0
M  V30 2946 C 280.351 -4.49317 0.208491 0
M  V30 2947 C 281.67 -4.00652 -1.82116 0
M  V30 2948 H 278.789 -0.717317 -0.16919 0
M  V30 2949 H 281.431 -1.88184 0.262062 0
M  V30 2950 H 279.581 -3.55267 -1.57219 0
M  V30 2951 H 281.253 -4.53482 0.845682 0
M  V30 2952 H 279.496 -4.25121 0.863395 0
M  V30 2953 H 280.167 -5.51741 -0.169059 0
M  V30 2954 H 282.643 -3.95416 -1.2956 0
M  V30 2955 H 281.519 -5.06075 -2.12554 0
M  V30 2956 H 281.78 -3.44699 -2.7683 0
M  V30 2957 N 280.839 0.0985539 -1.57292 0
M  V30 2958 C 281.749 1.13824 -2.05137 0
M  V30 2959 C 282.765 1.44076 -0.975604 0
M  V30 2960 O 283.941 1.54786 -1.28853 0
M  V30 2961 C 281.006 2.43969 -2.46333 0
M  V30 2962 C 280.067 2.2093 -3.68087 0
M  V30 2963 C 279.3 3.44869 -4.0731 0
M  V30 2964 O 279.523 4.52972 -3.46659 0
M  V30 2965 O 278.457 3.34661 -5.00285 0
M  V30 2966 H 282.283 0.761881 -2.93988 0
M  V30 2967 H 279.868 0.310818 -1.46131 0
M  V30 2968 H 281.75 3.20609 -2.73473 0
M  V30 2969 H 280.425 2.81038 -1.60621 0
M  V30 2970 H 279.332 1.42081 -3.46069 0
M  V30 2971 H 280.665 1.88755 -4.54568 0
M  V30 2972 N 282.317 1.53212 0.369288 0
M  V30 2973 C 283.564 1.69215 1.11232 0
M  V30 2974 C 283.892 0.442048 1.8941 0
M  V30 2975 O 283.147 -0.575944 1.87033 0
M  V30 2976 C 283.446 2.89101 2.10132 0
M  V30 2977 C 283.112 4.25758 1.48463 0
M  V30 2978 C 281.774 4.6292 1.31372 0
M  V30 2979 C 284.126 5.10757 1.03811 0
M  V30 2980 C 281.454 5.82722 0.68207 0
M  V30 2981 C 283.806 6.31201 0.420487 0
M  V30 2982 C 282.47 6.67079 0.237038 0
M  V30 2983 H 281.74 0.619201 0.407027 0
M  V30 2984 H 284.387 1.87391 0.394552 0
M  V30 2985 H 282.692 2.65421 2.88199 0
M  V30 2986 H 284.389 2.98676 2.6757 0
M  V30 2987 H 280.979 3.96494 1.62758 0
M  V30 2988 H 285.163 4.82599 1.1581 0
M  V30 2989 H 280.419 6.09113 0.528316 0
M  V30 2990 H 284.593 6.96368 0.0662874 0
M  V30 2991 H 282.22 7.59774 -0.254477 0
M  V30 2992 N 283.795 -0.628877 1.44509 0
M  V30 2993 C 285.041 -1.38863 1.48623 0
M  V30 2994 C 285.396 -1.92038 0.117933 0
M  V30 2995 O 284.689 -1.70853 -0.86716 0
M  V30 2996 C 284.883 -2.56995 2.48371 0
M  V30 2997 C 284.712 -2.15385 3.94765 0
M  V30 2998 C 283.482 -2.02558 4.62924 0
M  V30 2999 C 285.68 -1.74158 4.83915 0
M  V30 3000 N 283.662 -1.54534 5.94132 0
M  V30 3001 C 285.033 -1.37396 6.04584 0
M  V30 3002 C 287.088 -1.61559 4.7096 0
M  V30 3003 C 285.791 -0.892948 7.13736 0
M  V30 3004 C 287.817 -1.14862 5.80139 0
M  V30 3005 C 287.179 -0.790516 6.9995 0
M  V30 3006 H 283.278 -0.502858 0.59888 0
M  V30 3007 H 285.862 -0.72121 1.8085 0
M  V30 3008 H 284.033 -3.21362 2.1813 0
M  V30 3009 H 285.765 -3.23801 2.42766 0
M  V30 3010 H 282.52 -2.23082 4.1777 0
M  V30 3011 H 282.944 -1.32815 6.63844 0
M  V30 3012 H 287.586 -1.87876 3.78764 0
M  V30 3013 H 285.304 -0.617291 8.05739 0
M  V30 3014 H 288.89 -1.05569 5.72142 0
M  V30 3015 H 287.77 -0.434713 7.82994 0
M  V30 3016 N 285.273 -1.31445 -0.869486 0
M  V30 3017 C 286.183 -1.21097 -2.0093 0
M  V30 3018 C 287.199 -0.127584 -1.73532 0
M  V30 3019 O 288.375 -0.345477 -1.98415 0
M  V30 3020 C 285.44 -0.919378 -3.34288 0
M  V30 3021 C 284.501 -2.08971 -3.75006 0
M  V30 3022 C 283.734 -1.81194 -5.02001 0
M  V30 3023 O 283.957 -0.747296 -5.65484 0
M  V30 3024 O 282.891 -2.66883 -5.39497 0
M  V30 3025 H 286.717 -2.16883 -2.12592 0
M  V30 3026 H 284.302 -1.11189 -0.997868 0
M  V30 3027 H 286.184 -0.772625 -4.14257 0
M  V30 3028 H 284.859 0.00844772 -3.23699 0
M  V30 3029 H 283.766 -2.29187 -2.95676 0
M  V30 3030 H 285.099 -2.9998 -3.90221 0
M  V30 3031 N 286.751 1.08385 -1.14413 0
M  V30 3032 C 288.167 1.32844 -0.884563 0
M  V30 3033 C 288.367 1.95841 0.474181 0
M  V30 3034 O 287.423 2.21158 1.21842 0
M  V30 3035 C 288.736 2.22978 -2.01745 0
M  V30 3036 C 290.284 2.36458 -2.05077 0
M  V30 3037 C 290.759 3.29934 -3.1766 0
M  V30 3038 N 292.25 3.37511 -3.17239 0
M  V30 3039 C 292.985 4.09871 -4.0099 0
M  V30 3040 N 292.481 4.84936 -4.94781 0
M  V30 3041 N 294.274 4.05704 -3.89051 0
M  V30 3042 H 286.425 0.658756 -2.01926 0
M  V30 3043 H 288.688 0.352821 -0.879899 0
M  V30 3044 H 288.394 1.83934 -2.99769 0
M  V30 3045 H 288.268 3.23441 -1.94077 0
M  V30 3046 H 290.655 2.7476 -1.0766 0
M  V30 3047 H 290.736 1.35736 -2.16816 0
M  V30 3048 H 290.38 2.92352 -4.15322 0
M  V30 3049 H 290.31 4.30584 -3.03158 0
M  V30 3050 H 292.801 2.83996 -2.49308 0
M  V30 3051 H 293.114 5.37612 -5.55151 0
M  V30 3052 H 291.459 4.83988 -4.98779 0
M  V30 3053 H 294.65 3.46167 -3.15097 0
M  V30 3054 H 294.823 4.61834 -4.54547 0
M  V30 3055 N 288.23 0.939286 1.26551 0
M  V30 3056 C 289.178 0.43815 2.28436 0
M  V30 3057 C 290.172 -0.483587 1.62351 0
M  V30 3058 O 291.378 -0.362009 1.76322 0
M  V30 3059 H 287.753 0.123149 0.741848 0
M  V30 3060 H 289.724 1.31002 2.68106 0
M  V30 3061 C 288.473 -0.283052 3.46546 0
M  V30 3062 H 287.796 0.417043 3.97619 0
M  V30 3063 H 289.236 -0.597948 4.19763 0
M  V30 3064 C 287.695 -1.50018 3.01656 0
M  V30 3065 O 288.225 -2.59855 3.0633 0
M  V30 3066 N 286.431 -1.35608 2.57019 0
M  V30 3067 H 285.978 -0.46244 2.53415 0
M  V30 3068 H 285.936 -2.17165 2.27347 0
M  V30 3069 N 289.708 -1.40897 0.706093 0
M  V30 3070 C 290.641 -2.282 -0.00328781 0
M  V30 3071 C 291.619 -1.42816 -0.77732 0
M  V30 3072 O 292.803 -1.72237 -0.765944 0
M  V30 3073 C 289.93 -3.23226 -1.01205 0
M  V30 3074 C 288.976 -4.25222 -0.329955 0
M  V30 3075 S 289.809 -5.27269 0.935298 0
M  V30 3076 C 290.965 -6.25859 -0.0716061 0
M  V30 3077 H 291.198 -2.88016 0.737143 0
M  V30 3078 H 288.731 -1.46191 0.496756 0
M  V30 3079 H 290.689 -3.78503 -1.58888 0
M  V30 3080 H 289.35 -2.62485 -1.72513 0
M  V30 3081 H 288.543 -4.92023 -1.09221 0
M  V30 3082 H 288.145 -3.73595 0.174069 0
M  V30 3083 H 290.437 -6.71204 -0.921521 0
M  V30 3084 H 291.38 -7.0586 0.562765 0
M  V30 3085 H 291.788 -5.62852 -0.431088 0
M  V30 3086 N 291.186 -0.45159 -1.50991 0
M  V30 3087 C 292.136 0.370861 -2.24964 0
M  V30 3088 C 293.12 0.978074 -1.2776 0
M  V30 3089 O 294.312 0.893854 -1.52772 0
M  V30 3090 C 291.441 1.46344 -3.10545 0
M  V30 3091 C 290.527 0.864924 -4.15187 0
M  V30 3092 N 290.918 -0.00311354 -5.058 0
M  V30 3093 C 289.216 1.13099 -4.31422 0
M  V30 3094 C 289.917 -0.340772 -5.80701 0
M  V30 3095 N 288.893 0.279203 -5.42883 0
M  V30 3096 H 292.695 -0.298134 -2.92384 0
M  V30 3097 H 290.209 -0.264528 -1.60231 0
M  V30 3098 H 292.206 2.06565 -3.62128 0
M  V30 3099 H 290.866 2.13463 -2.4467 0
M  V30 3100 H 291.877 -0.37058 -5.16572 0
M  V30 3101 H 288.554 1.79861 -3.76771 0
M  V30 3102 H 289.944 -1.048 -6.63677 0
M  V30 3103 N 292.664 1.56529 -0.183458 0
M  V30 3104 C 293.596 2.15747 0.773697 0
M  V30 3105 C 294.609 1.1162 1.1851 0
M  V30 3106 O 295.798 1.3876 1.12285 0
M  V30 3107 C 292.898 2.6952 2.05456 0
M  V30 3108 C 292.071 3.98429 1.8048 0
M  V30 3109 C 291.13 4.37145 2.92901 0
M  V30 3110 O 290.156 5.04791 2.6301 0
M  V30 3111 N 291.358 3.99695 4.2098 0
M  V30 3112 H 294.123 2.98505 0.26736 0
M  V30 3113 H 291.684 1.619 -0.0010878 0
M  V30 3114 H 293.676 2.92412 2.79781 0
M  V30 3115 H 292.246 1.91282 2.47245 0
M  V30 3116 H 291.466 3.8379 0.899947 0
M  V30 3117 H 292.754 4.82597 1.61175 0
M  V30 3118 H 292.152 3.4526 4.48121 0
M  V30 3119 H 290.709 4.27562 4.9197 0
M  V30 3120 N 294.142 -0.090211 1.57342 0
M  V30 3121 C 295.075 -1.14035 1.97664 0
M  V30 3122 C 296.053 -1.38576 0.850616 0
M  V30 3123 O 297.237 -1.52255 1.11134 0
M  V30 3124 C 294.364 -2.48854 2.2976 0
M  V30 3125 C 293.41 -2.40564 3.52181 0
M  V30 3126 S 294.243 -1.81745 5.03715 0
M  V30 3127 C 295.399 -3.18178 5.38993 0
M  V30 3128 H 295.632 -0.796636 2.86428 0
M  V30 3129 H 293.165 -0.298072 1.51496 0
M  V30 3130 H 295.123 -3.26413 2.48927 0
M  V30 3131 H 293.784 -2.80393 1.41558 0
M  V30 3132 H 292.977 -3.39942 3.72096 0
M  V30 3133 H 292.579 -1.71135 3.32549 0
M  V30 3134 H 294.871 -4.14461 5.35937 0
M  V30 3135 H 295.814 -3.03062 6.39968 0
M  V30 3136 H 296.222 -3.17935 4.66452 0
M  V30 3137 N 295.62 -1.53406 -0.361157 0
M  V30 3138 C 296.848 -1.73717 -1.12383 0
M  V30 3139 C 297.263 -0.468161 -1.82904 0
M  V30 3140 O 296.62 0.559198 -1.73722 0
M  V30 3141 C 296.671 -2.90558 -2.15078 0
M  V30 3142 O 296.392 -4.12549 -1.47428 0
M  V30 3143 C 297.893 -3.22777 -3.03858 0
M  V30 3144 H 295.113 -0.580896 -0.335858 0
M  V30 3145 H 297.657 -2.00167 -0.418728 0
M  V30 3146 H 295.812 -2.66489 -2.8118 0
M  V30 3147 H 296.226 -4.78009 -2.15887 0
M  V30 3148 H 297.7 -4.07927 -3.71887 0
M  V30 3149 H 298.177 -2.38329 -3.68912 0
M  V30 3150 H 298.783 -3.48787 -2.43367 0
M  V30 3151 N 297.098 0.621204 -1.44841 0
M  V30 3152 C 298.375 1.38 -1.38619 0
M  V30 3153 C 298.755 2.11041 -0.0498935 0
M  V30 3154 O 298.103 2.06992 0.967816 0
M  V30 3155 C 298.313 2.33817 -2.59096 0
M  V30 3156 C 299.661 2.96844 -3.03593 0
M  V30 3157 O 300.685 2.44141 -2.59371 0
M  V30 3158 O 299.544 3.92476 -3.80296 0
M  V30 3159 H 296.638 0.61811 -0.549426 0
M  V30 3160 H 299.184 0.645429 -1.56947 0
M  V30 3161 H 297.956 1.79012 -3.47952 0
M  V30 3162 H 297.579 3.14676 -2.43032 0
M  V30 3163 N 298.576 1.31904 0.862503 0
M  V30 3164 C 299.824 1.21776 1.61292 0
M  V30 3165 C 300.145 -0.222413 1.93727 0
M  V30 3166 O 299.415 -1.1451 1.58947 0
M  V30 3167 H 297.995 0.447717 0.597962 0
M  V30 3168 H 300.657 1.65326 1.03215 0
M  V30 3169 H 299.753 1.7948 2.5533 0
M  V30 3170 N 300.054 -1.07777 1.14986 0
M  V30 3171 C 300.984 -2.16865 0.865557 0
M  V30 3172 C 301.965 -1.69123 -0.182083 0
M  V30 3173 O 303.15 -1.94164 -0.0373815 0
M  V30 3174 C 300.28 -3.45539 0.349313 0
M  V30 3175 C 299.234 -4.06708 1.33313 0
M  V30 3176 C 298.56 -5.30411 0.675918 0
M  V30 3177 C 299.86 -4.47241 2.69764 0
M  V30 3178 H 301.554 -2.40905 1.77778 0
M  V30 3179 H 299.1 -1.15781 0.856203 0
M  V30 3180 H 301.053 -4.21174 0.137983 0
M  V30 3181 H 299.777 -3.21072 -0.598362 0
M  V30 3182 H 298.436 -3.33112 1.53075 0
M  V30 3183 H 298.084 -5.02232 -0.277767 0
M  V30 3184 H 297.784 -5.72293 1.33244 0
M  V30 3185 H 299.308 -6.08755 0.474262 0
M  V30 3186 H 300.722 -5.14025 2.53873 0
M  V30 3187 H 299.119 -5.00062 3.3175 0
M  V30 3188 H 300.189 -3.58818 3.26156 0
M  V30 3189 N 301.532 -0.945985 -1.26051 0
M  V30 3190 C 302.809 -0.513816 -1.88731 0
M  V30 3191 C 303.189 1.00872 -1.8544 0
M  V30 3192 O 302.537 1.8708 -1.312 0
M  V30 3193 C 302.747 -1.08062 -3.31849 0
M  V30 3194 C 304.095 -1.1522 -4.08668 0
M  V30 3195 O 305.119 -1.03155 -3.40936 0
M  V30 3196 O 303.978 -1.34044 -5.29806 0
M  V30 3197 H 301.072 -0.168193 -0.809716 0
M  V30 3198 H 303.618 -1.03886 -1.34186 0
M  V30 3199 H 302.39 -2.1241 -3.2863 0
M  V30 3200 H 302.013 -0.538307 -3.93939 0
M  V30 3201 N 303.011 1.40521 -0.713556 0
M  V30 3202 C 303.958 2.30723 -0.059684 0
M  V30 3203 C 304.928 1.48079 0.752448 0
M  V30 3204 O 306.113 1.76823 0.71681 0
M  V30 3205 C 303.253 3.34274 0.857594 0
M  V30 3206 C 302.366 4.31986 0.0351536 0
M  V30 3207 C 301.501 5.22605 0.951724 0
M  V30 3208 C 300.54 6.11976 0.123253 0
M  V30 3209 N 299.677 6.9502 0.99459 0
M  V30 3210 H 304.517 2.86074 -0.834596 0
M  V30 3211 H 302.054 1.40879 -0.42326 0
M  V30 3212 H 304.012 3.92879 1.40364 0
M  V30 3213 H 302.642 2.8043 1.59871 0
M  V30 3214 H 301.694 3.7518 -0.628052 0
M  V30 3215 H 303.006 4.95101 -0.606347 0
M  V30 3216 H 302.16 5.86131 1.56638 0
M  V30 3217 H 300.899 4.59759 1.62705 0
M  V30 3218 H 299.904 5.47482 -0.50435 0
M  V30 3219 H 301.129 6.76881 -0.548539 0
M  V30 3220 H 299.075 6.34764 1.6556 0
M  V30 3221 H 298.992 7.54892 0.40908 0
M  V30 3222 H 300.26 7.62997 1.59549 0
M  V30 3223 N 304.489 0.459591 1.5075 0
M  V30 3224 C 305.9 0.00171547 1.867 0
M  V30 3225 C 306.251 -1.39934 1.37525 0
M  V30 3226 O 305.376 -2.03523 0.735349 0
M  V30 3227 C 305.971 -0.00366298 3.388 0
M  V30 3228 C 304.53 -0.406026 3.74204 0
M  V30 3229 C 303.677 0.38673 2.7459 0
M  V30 3230 H 306.628 0.674413 1.43657 0
M  V30 3231 H 306.649 -0.808371 3.71814 0
M  V30 3232 H 306.161 1.01617 3.74561 0
M  V30 3233 H 304.262 -1.43063 3.4404 0
M  V30 3234 H 304.375 -0.115362 4.78961 0
M  V30 3235 H 302.739 -0.158019 2.54209 0
M  V30 3236 H 303.522 1.40585 3.13194 0
M  V30 3237 N 305.967 -1.56429 0.191757 0
M  V30 3238 C 307.215 -1.97095 -0.447006 0
M  V30 3239 C 307.536 -1.07967 -1.62383 0
M  V30 3240 O 306.806 -0.150248 -1.95323 0
M  V30 3241 H 305.386 -0.727832 -0.168135 0
M  V30 3242 H 308.048 -1.92911 0.27771 0
M  V30 3243 H 307.144 -3.01848 -0.793371 0
M  V30 3244 N 307.445 0.0818655 -1.57387 0
M  V30 3245 C 308.377 1.12484 -1.997 0
M  V30 3246 C 309.39 1.35564 -0.90146 0
M  V30 3247 O 310.579 1.33982 -1.17945 0
M  V30 3248 C 307.679 2.47778 -2.31213 0
M  V30 3249 C 306.852 2.44793 -3.62485 0
M  V30 3250 C 305.911 3.62117 -3.81782 0
M  V30 3251 O 304.937 3.44005 -4.53486 0
M  V30 3252 N 306.139 4.82094 -3.23367 0
M  V30 3253 H 308.904 0.764585 -2.89783 0
M  V30 3254 H 306.465 0.270664 -1.59621 0
M  V30 3255 H 308.457 3.24891 -2.41304 0
M  V30 3256 H 307.027 2.75843 -1.4707 0
M  V30 3257 H 306.247 1.53134 -3.6324 0
M  V30 3258 H 307.535 2.39889 -4.48699 0
M  V30 3259 H 306.933 4.99713 -2.65148 0
M  V30 3260 H 305.49 5.56753 -3.38923 0
M  V30 3261 N 308.923 1.53595 0.353017 0
M  V30 3262 C 310.172 1.69603 1.09168 0
M  V30 3263 C 310.485 0.460925 1.90092 0
M  V30 3264 O 311.691 0.501774 2.66823 0
M  V30 3265 C 310.147 2.99872 1.9901 0
M  V30 3266 C 309.755 4.30687 1.23339 0
M  V30 3267 C 311.499 3.25246 2.72792 0
M  V30 3268 C 309.406 5.52036 2.12156 0
M  V30 3269 H 308.336 0.631966 0.411261 0
M  V30 3270 H 310.987 1.80096 0.351802 0
M  V30 3271 H 309.369 2.83212 2.7678 0
M  V30 3272 H 310.543 4.58019 0.505456 0
M  V30 3273 H 308.858 4.11853 0.613663 0
M  V30 3274 H 311.455 4.13095 3.39495 0
M  V30 3275 H 311.798 2.41846 3.38846 0
M  V30 3276 H 312.331 3.42638 2.021 0
M  V30 3277 H 309.07 6.37951 1.50659 0
M  V30 3278 H 308.59 5.28966 2.82764 0
M  V30 3279 H 310.269 5.87313 2.71427 0
M  V30 3280 N 310.401 -0.613514 1.45168 0
M  V30 3281 C 311.817 -0.933629 1.29443 0
M  V30 3282 C 312.017 -2.00028 0.243101 0
M  V30 3283 O 311.073 -2.49848 -0.364992 0
M  V30 3284 C 312.386 -1.38018 2.67155 0
M  V30 3285 C 313.934 -1.49471 2.75004 0
M  V30 3286 C 314.409 -1.97503 4.13227 0
M  V30 3287 N 315.9 -2.04746 4.15491 0
M  V30 3288 C 316.635 -2.43121 5.19307 0
M  V30 3289 N 316.131 -2.80506 6.33473 0
M  V30 3290 N 317.924 -2.43408 5.06664 0
M  V30 3291 H 310.075 0.0916097 2.12202 0
M  V30 3292 H 312.338 -0.0216655 0.947752 0
M  V30 3293 H 312.044 -0.670625 3.45247 0
M  V30 3294 H 311.918 -2.34784 2.95222 0
M  V30 3295 H 314.305 -2.19519 1.9722 0
M  V30 3296 H 314.386 -0.510342 2.50657 0
M  V30 3297 H 314.03 -1.28045 4.91495 0
M  V30 3298 H 313.96 -2.96843 4.34962 0
M  V30 3299 H 316.451 -1.78468 3.33103 0
M  V30 3300 H 316.764 -3.08652 7.08487 0
M  V30 3301 H 315.109 -2.78216 6.36884 0
M  V30 3302 H 318.3 -2.13604 4.16523 0
M  V30 3303 H 318.473 -2.72989 5.87691 0
M  V30 3304 N 311.879 -1.3236 -0.855495 0
M  V30 3305 C 313.125 -1.24064 -1.61182 0
M  V30 3306 C 313.48 0.195914 -1.914 0
M  V30 3307 O 312.773 1.13345 -1.54478 0
M  V30 3308 C 312.967 -2.03275 -2.93963 0
M  V30 3309 C 312.796 -3.54486 -2.76712 0
M  V30 3310 C 311.566 -4.23824 -2.75139 0
M  V30 3311 C 313.764 -4.49154 -2.50531 0
M  V30 3312 N 311.746 -5.61095 -2.4909 0
M  V30 3313 C 313.117 -5.74195 -2.3388 0
M  V30 3314 C 315.172 -4.3842 -2.35992 0
M  V30 3315 C 313.875 -6.89716 -2.04168 0
M  V30 3316 C 315.901 -5.53739 -2.0767 0
M  V30 3317 C 315.263 -6.77779 -1.9182 0
M  V30 3318 H 311.362 -0.509139 -0.59355 0
M  V30 3319 H 313.946 -1.66715 -1.00569 0
M  V30 3320 H 312.117 -1.6297 -3.52555 0
M  V30 3321 H 313.849 -1.86881 -3.58967 0
M  V30 3322 H 310.604 -3.75934 -2.88047 0
M  V30 3323 H 311.028 -6.33411 -2.38996 0
M  V30 3324 H 315.67 -3.43172 -2.46967 0
M  V30 3325 H 313.388 -7.84977 -1.9193 0
M  V30 3326 H 316.974 -5.4736 -1.97201 0
M  V30 3327 H 315.854 -7.65504 -1.70217 0
M  V30 3328 N 313.357 1.07166 -1.15556 0
M  V30 3329 C 314.768 1.6127 -0.940693 0
M  V30 3330 C 315.119 1.89251 0.517551 0
M  V30 3331 O 314.244 1.65937 1.38903 0
M  V30 3332 C 314.839 2.92993 -1.7012 0
M  V30 3333 C 313.398 3.43832 -1.53156 0
M  V30 3334 C 312.545 2.1786 -1.71558 0
M  V30 3335 H 315.496 0.90229 -1.30554 0
M  V30 3336 H 315.517 3.62007 -1.17181 0
M  V30 3337 H 315.029 2.72596 -2.76248 0
M  V30 3338 H 313.13 3.69307 -0.494294 0
M  V30 3339 H 313.243 4.19747 -2.30975 0
M  V30 3340 H 311.607 2.2765 -1.14225 0
M  V30 3341 H 312.39 1.99956 -2.79056 0
M  V30 3342 N 314.835 0.952656 1.25548 0
M  V30 3343 C 315.765 0.489287 2.28316 0
M  V30 3344 C 316.746 -0.463359 1.63667 0
M  V30 3345 O 317.931 -0.36274 1.90782 0
M  V30 3346 C 315.061 -0.235603 3.465 0
M  V30 3347 C 314.015 0.631593 4.23314 0
M  V30 3348 C 313.341 -0.223923 5.34231 0
M  V30 3349 C 314.641 1.90871 4.86174 0
M  V30 3350 H 316.335 1.34822 2.67326 0
M  V30 3351 H 313.881 0.649728 1.28509 0
M  V30 3352 H 315.834 -0.570882 4.17515 0
M  V30 3353 H 314.558 -1.12877 3.06474 0
M  V30 3354 H 313.217 0.949929 3.54079 0
M  V30 3355 H 312.865 -1.11678 4.90446 0
M  V30 3356 H 312.565 0.35299 5.86539 0
M  V30 3357 H 314.089 -0.554214 6.0808 0
M  V30 3358 H 315.503 1.63997 5.49343 0
M  V30 3359 H 313.9 2.43112 5.4865 0
M  V30 3360 H 314.97 2.61304 4.08471 0
M  V30 3361 N 316.313 -1.40141 0.720998 0
M  V30 3362 C 317.276 -2.29058 0.0805834 0
M  V30 3363 C 318.276 -1.45632 -0.681758 0
M  V30 3364 O 319.466 -1.6648 -0.512856 0
M  V30 3365 C 316.598 -3.28925 -0.895593 0
M  V30 3366 H 317.791 -2.87191 0.863793 0
M  V30 3367 H 315.344 -1.48553 0.485975 0
M  V30 3368 H 316.079 -2.75822 -1.70566 0
M  V30 3369 H 315.864 -3.90519 -0.351766 0
M  V30 3370 H 317.354 -3.95494 -1.34069 0
M  V30 3371 N 317.792 -0.46758 -1.50504 0
M  V30 3372 C 319.041 0.0902868 -2.01498 0
M  V30 3373 C 319.354 1.411 -1.35463 0
M  V30 3374 O 320.56 2.0536 -1.77594 0
M  V30 3375 C 319.016 0.21142 -3.59278 0
M  V30 3376 C 318.624 -1.10065 -4.34269 0
M  V30 3377 C 320.368 0.721433 -4.18325 0
M  V30 3378 C 318.275 -0.943505 -5.83825 0
M  V30 3379 H 317.205 0.037517 -0.753066 0
M  V30 3380 H 319.856 -0.601943 -1.73346 0
M  V30 3381 H 318.238 0.967352 -3.84003 0
M  V30 3382 H 319.412 -1.86726 -4.21272 0
M  V30 3383 H 317.727 -1.5415 -3.86816 0
M  V30 3384 H 320.324 0.85598 -5.27804 0
M  V30 3385 H 320.667 1.71186 -3.79475 0
M  V30 3386 H 321.2 0.0229843 -3.97793 0
M  V30 3387 H 317.939 -1.90719 -6.27141 0
M  V30 3388 H 317.459 -0.217213 -5.99407 0
M  V30 3389 H 319.138 -0.608715 -6.4413 0
M  V30 3390 N 319.27 1.56325 -0.20005 0
M  V30 3391 C 320.498 2.02105 0.442874 0
M  V30 3392 C 320.913 1.08014 1.5485 0
M  V30 3393 O 320.27 0.0858797 1.82298 0
M  V30 3394 C 320.321 3.47549 0.994583 0
M  V30 3395 O 320.042 4.38049 -0.0669322 0
M  V30 3396 C 321.543 4.0887 1.7129 0
M  V30 3397 H 318.763 0.661807 0.110691 0
M  V30 3398 H 321.307 2.02134 -0.310207 0
M  V30 3399 H 319.462 3.48204 1.69803 0
M  V30 3400 H 319.876 5.23368 0.344462 0
M  V30 3401 H 321.35 5.12475 2.05118 0
M  V30 3402 H 321.827 3.52615 2.61838 0
M  V30 3403 H 322.433 4.12002 1.05518 0
M  V30 3404 N 320.748 -0.0735177 1.57428 0
M  V30 3405 C 321.678 -1.0879 2.06608 0
M  V30 3406 C 322.659 -1.40473 0.959237 0
M  V30 3407 O 323.844 -1.5013 1.23185 0
M  V30 3408 C 320.974 -2.40183 2.50857 0
M  V30 3409 C 319.928 -2.22858 3.65402 0
M  V30 3410 C 319.254 -3.59619 3.957 0
M  V30 3411 C 320.554 -1.65123 4.95511 0
M  V30 3412 H 322.248 -0.678673 2.91607 0
M  V30 3413 H 319.794 -0.325013 1.40284 0
M  V30 3414 H 321.747 -3.11437 2.83874 0
M  V30 3415 H 320.471 -2.83083 1.62885 0
M  V30 3416 H 319.13 -1.54045 3.32664 0
M  V30 3417 H 318.778 -4.00086 3.04861 0
M  V30 3418 H 318.478 -3.48866 4.72828 0
M  V30 3419 H 320.002 -4.32306 4.31212 0
M  V30 3420 H 321.416 -2.26241 5.26771 0
M  V30 3421 H 319.813 -1.65071 5.7695 0
M  V30 3422 H 320.883 -0.612559 4.81015 0
M  V30 3423 N 322.226 -1.5378 -0.344866 0
M  V30 3424 C 323.189 -1.80981 -1.40637 0
M  V30 3425 C 324.189 -0.680816 -1.45676 0
M  V30 3426 O 325.379 -0.949095 -1.46075 0
M  V30 3427 C 322.511 -1.95063 -2.79577 0
M  V30 3428 H 323.704 -2.75803 -1.17783 0
M  V30 3429 H 321.257 -1.45173 -0.579181 0
M  V30 3430 H 321.992 -1.02379 -3.07716 0
M  V30 3431 H 321.777 -2.77198 -2.77315 0
M  V30 3432 H 323.267 -2.17629 -3.56409 0
M  V30 3433 N 323.704 0.605807 -1.45491 0
M  V30 3434 C 324.953 1.36086 -1.48874 0
M  V30 3435 C 325.266 1.95131 -0.135333 0
M  V30 3436 O 326.472 2.7146 -0.0468144 0
M  V30 3437 C 324.928 2.46518 -2.62215 0
M  V30 3438 C 324.536 1.93877 -4.03876 0
M  V30 3439 C 326.28 3.23512 -2.74846 0
M  V30 3440 C 324.187 3.01801 -5.08596 0
M  V30 3441 H 323.117 0.511497 -0.553974 0
M  V30 3442 H 325.768 0.649089 -1.71636 0
M  V30 3443 H 324.15 3.20388 -2.32739 0
M  V30 3444 H 325.324 1.26704 -4.43038 0
M  V30 3445 H 323.639 1.29622 -3.95711 0
M  V30 3446 H 326.236 4.04013 -3.50253 0
M  V30 3447 H 326.579 3.74631 -1.81542 0
M  V30 3448 H 327.112 2.56742 -3.03856 0
M  V30 3449 H 323.851 2.55597 -6.03614 0
M  V30 3450 H 323.371 3.67535 -4.74002 0
M  V30 3451 H 325.05 3.66152 -5.33424 0
M  V30 3452 N 325.182 1.32811 0.848464 0
M  V30 3453 C 326.145 1.22194 1.9391 0
M  V30 3454 C 327.145 0.143404 1.60159 0
M  V30 3455 O 328.335 0.394253 1.6968 0
M  V30 3456 C 325.467 0.88067 3.29328 0
M  V30 3457 H 326.66 2.19127 2.04752 0
M  V30 3458 H 324.213 1.16731 1.0394 0
M  V30 3459 H 324.948 -0.0865776 3.24184 0
M  V30 3460 H 324.733 1.66052 3.55203 0
M  V30 3461 H 326.223 0.830871 4.09251 0
M  V30 3462 N 326.66 -1.06551 1.16123 0
M  V30 3463 C 327.906 -1.79719 0.952505 0
M  V30 3464 C 328.261 -1.85396 -0.514385 0
M  V30 3465 O 327.554 -1.33263 -1.37665 0
M  V30 3466 C 327.748 -3.23911 1.51052 0
M  V30 3467 C 327.577 -3.32284 3.03013 0
M  V30 3468 C 326.347 -3.42371 3.71632 0
M  V30 3469 C 328.545 -3.22363 4.00732 0
M  V30 3470 N 326.527 -3.39732 5.11327 0
M  V30 3471 C 327.898 -3.26937 5.26794 0
M  V30 3472 C 329.953 -3.0623 3.92591 0
M  V30 3473 C 328.656 -3.17035 6.45663 0
M  V30 3474 C 330.682 -2.97665 5.11028 0
M  V30 3475 C 330.044 -3.02858 6.35969 0
M  V30 3476 H 326.143 -0.670585 0.402293 0
M  V30 3477 H 328.727 -1.27125 1.4747 0
M  V30 3478 H 326.898 -3.74907 1.01484 0
M  V30 3479 H 328.63 -3.85242 1.2398 0
M  V30 3480 H 325.385 -3.47058 3.22254 0
M  V30 3481 H 325.809 -3.41919 5.84312 0
M  V30 3482 H 330.451 -3.01063 2.96852 0
M  V30 3483 H 328.169 -3.2096 7.41627 0
M  V30 3484 H 331.755 -2.86273 5.06497 0
M  V30 3485 H 330.635 -2.96286 7.26075 0
M  V30 3486 N 328.138 -0.959301 -1.25041 0
M  V30 3487 C 329.387 -0.612254 -1.92183 0
M  V30 3488 C 329.7 0.855347 -1.75907 0
M  V30 3489 O 330.906 1.31256 -2.37664 0
M  V30 3490 C 329.362 -1.04435 -3.44414 0
M  V30 3491 C 328.97 -2.53482 -3.69393 0
M  V30 3492 C 330.714 -0.770055 -4.17457 0
M  V30 3493 C 328.621 -2.90468 -5.15153 0
M  V30 3494 H 327.551 -0.225279 -0.719559 0
M  V30 3495 H 330.202 -1.16438 -1.41825 0
M  V30 3496 H 328.584 -0.4206 -3.9376 0
M  V30 3497 H 329.758 -3.20916 -3.30681 0
M  V30 3498 H 328.073 -2.78432 -3.0962 0
M  V30 3499 H 330.67 -1.02249 -5.24832 0
M  V30 3500 H 331.013 0.293611 -4.15263 0
M  V30 3501 H 331.546 -1.35437 -3.74034 0
M  V30 3502 H 328.285 -3.95871 -5.22462 0
M  V30 3503 H 327.805 -2.27711 -5.54894 0
M  V30 3504 H 329.484 -2.79914 -5.83315 0
M  V30 3505 N 329.616 1.39756 -0.72842 0
M  V30 3506 C 330.546 2.33289 -0.0991354 0
M  V30 3507 C 331.527 1.53568 0.731489 0
M  V30 3508 O 332.712 1.81987 0.677807 0
M  V30 3509 C 329.842 3.3763 0.813834 0
M  V30 3510 C 328.796 4.2791 0.0878663 0
M  V30 3511 C 328.122 5.22894 1.11741 0
M  V30 3512 C 329.422 5.11314 -1.06563 0
M  V30 3513 H 331.116 2.86163 -0.880408 0
M  V30 3514 H 328.662 1.37591 -0.424819 0
M  V30 3515 H 330.615 4.0201 1.26355 0
M  V30 3516 H 329.339 2.83181 1.62715 0
M  V30 3517 H 327.998 3.65 -0.342159 0
M  V30 3518 H 327.646 4.64744 1.92412 0
M  V30 3519 H 327.346 5.84143 0.636477 0
M  V30 3520 H 328.87 5.90151 1.56697 0
M  V30 3521 H 330.284 5.69076 -0.694671 0
M  V30 3522 H 328.681 5.81671 -1.47577 0
M  V30 3523 H 329.751 4.46534 -1.89038 0
M  V30 3524 N 331.094 0.475555 1.50254 0
M  V30 3525 C 332.34 -0.0780073 2.0265 0
M  V30 3526 C 332.673 -1.38968 1.35652 0
M  V30 3527 O 331.948 -1.8839 0.483691 0
M  V30 3528 C 332.231 -0.257161 3.59181 0
M  V30 3529 C 332.084 1.07585 4.36744 0
M  V30 3530 C 333.403 -1.00965 4.28362 0
M  V30 3531 H 330.522 -0.0268758 0.73651 0
M  V30 3532 H 333.164 0.622015 1.7953 0
M  V30 3533 H 331.314 -0.853412 3.79011 0
M  V30 3534 H 332.986 1.70902 4.28474 0
M  V30 3535 H 331.229 1.6714 4.00308 0
M  V30 3536 H 331.9 0.904088 5.44546 0
M  V30 3537 H 334.376 -0.504214 4.13034 0
M  V30 3538 H 333.252 -1.10381 5.37687 0
M  V30 3539 H 333.513 -2.04731 3.91839 0
M  V30 3540 N 332.573 -1.56217 0.208337 0
M  V30 3541 C 333.803 -2.02043 -0.431523 0
M  V30 3542 C 334.211 -1.08755 -1.54819 0
M  V30 3543 O 333.554 -0.0870009 -1.83494 0
M  V30 3544 C 333.616 -3.44239 -1.03633 0
M  V30 3545 C 333.28 -4.56965 -0.0567502 0
M  V30 3546 C 334.277 -5.14624 0.738773 0
M  V30 3547 C 331.962 -5.02266 0.0581736 0
M  V30 3548 C 333.956 -6.16045 1.63605 0
M  V30 3549 C 331.643 -6.03528 0.959001 0
M  V30 3550 C 332.641 -6.60293 1.7465 0
M  V30 3551 O 332.329 -7.59586 2.6322 0
M  V30 3552 H 332.061 -0.666772 -0.111313 0
M  V30 3553 H 334.615 -2.02919 0.318277 0
M  V30 3554 H 332.845 -3.40391 -1.83497 0
M  V30 3555 H 334.534 -3.73793 -1.58221 0
M  V30 3556 H 335.3 -4.80483 0.660364 0
M  V30 3557 H 331.179 -4.57771 -0.544633 0
M  V30 3558 H 334.723 -6.60279 2.25116 0
M  V30 3559 H 330.62 -6.37092 1.03848 0
M  V30 3560 H 331.388 -7.77057 2.57148 0
M  V30 3561 N 334.051 0.0651679 -1.57465 0
M  V30 3562 C 335.298 0.763063 -1.87573 0
M  V30 3563 C 335.626 1.77242 -0.800961 0
M  V30 3564 O 334.881 1.94651 0.202316 0
M  V30 3565 C 335.18 1.50081 -3.24362 0
M  V30 3566 C 334.846 0.630816 -4.46466 0
M  V30 3567 C 333.508 0.391082 -4.79608 0
M  V30 3568 C 335.86 0.0279465 -5.21193 0
M  V30 3569 C 333.188 -0.460894 -5.84887 0
M  V30 3570 C 335.54 -0.811522 -6.27373 0
M  V30 3571 C 334.204 -1.06106 -6.59013 0
M  V30 3572 H 333.474 0.279224 -0.686378 0
M  V30 3573 H 336.121 0.0236726 -1.91485 0
M  V30 3574 H 334.426 2.31258 -3.16271 0
M  V30 3575 H 336.123 2.04571 -3.44894 0
M  V30 3576 H 332.713 0.8278 -4.2053 0
M  V30 3577 H 336.897 0.200262 -4.95896 0
M  V30 3578 H 332.153 -0.662907 -6.07796 0
M  V30 3579 H 336.327 -1.28537 -6.84435 0
M  V30 3580 H 333.954 -1.723 -7.40417 0
M  V30 3581 N 335.529 1.53961 0.336706 0
M  V30 3582 C 336.769 1.73254 1.08454 0
M  V30 3583 C 337.133 0.488937 1.8567 0
M  V30 3584 O 338.334 0.559001 2.62923 0
M  V30 3585 C 336.605 2.96519 1.99528 0
M  V30 3586 S 338.164 3.36655 2.81441 0
M  V30 3587 H 334.982 0.609353 0.366347 0
M  V30 3588 H 337.584 1.92117 0.362124 0
M  V30 3589 H 336.288 3.85193 1.41614 0
M  V30 3590 H 335.819 2.80142 2.76196 0
M  V30 3591 H 337.834 2.90925 4.01967 0
M  V30 3592 N 337.007 -0.598083 1.45811 0
M  V30 3593 C 338.256 -1.35295 1.49594 0
M  V30 3594 C 338.569 -1.95057 0.145679 0
M  V30 3595 O 339.775 -2.71431 0.0612099 0
M  V30 3596 C 338.231 -2.45124 2.63519 0
M  V30 3597 C 337.839 -1.91732 4.04899 0
M  V30 3598 C 339.583 -3.2205 2.76558 0
M  V30 3599 C 337.49 -2.991 5.1019 0
M  V30 3600 H 336.42 -0.508552 0.556679 0
M  V30 3601 H 339.071 -0.639977 1.71978 0
M  V30 3602 H 337.453 -3.19149 2.34435 0
M  V30 3603 H 338.627 -1.24352 4.43704 0
M  V30 3604 H 336.942 -1.27522 3.96393 0
M  V30 3605 H 339.539 -4.0215 3.52391 0
M  V30 3606 H 339.882 -3.73663 1.83526 0
M  V30 3607 H 340.415 -2.55127 3.05213 0
M  V30 3608 H 337.154 -2.52393 6.04961 0
M  V30 3609 H 336.674 -3.65017 4.75944 0
M  V30 3610 H 338.353 -3.63318 5.35359 0
M  V30 3611 N 338.485 -1.33259 -0.841409 0
M  V30 3612 C 339.731 -1.25766 -1.59857 0
M  V30 3613 C 340.086 0.175602 -1.91597 0
M  V30 3614 O 339.379 1.117 -1.55672 0
M  V30 3615 C 339.573 -2.06381 -2.9179 0
M  V30 3616 C 339.402 -3.57401 -2.72937 0
M  V30 3617 C 338.172 -4.26718 -2.70628 0
M  V30 3618 C 340.37 -4.51786 -2.45753 0
M  V30 3619 N 338.352 -5.63705 -2.43125 0
M  V30 3620 C 339.723 -5.76643 -2.27777 0
M  V30 3621 C 341.778 -4.40898 -2.31329 0
M  V30 3622 C 340.481 -6.91842 -1.96841 0
M  V30 3623 C 342.507 -5.55911 -2.01786 0
M  V30 3624 C 341.869 -6.79776 -1.8462 0
M  V30 3625 H 337.968 -0.515406 -0.588117 0
M  V30 3626 H 340.552 -1.67772 -0.987955 0
M  V30 3627 H 338.723 -1.667 -3.50807 0
M  V30 3628 H 340.455 -1.90678 -3.56965 0
M  V30 3629 H 337.21 -3.78968 -2.84043 0
M  V30 3630 H 337.634 -6.35911 -2.32265 0
M  V30 3631 H 342.276 -3.45772 -2.43314 0
M  V30 3632 H 339.994 -7.86968 -1.83594 0
M  V30 3633 H 343.58 -5.49421 -1.91384 0
M  V30 3634 H 342.46 -7.67266 -1.62088 0
M  V30 3635 N 339.963 1.05934 -1.16686 0
M  V30 3636 C 340.91 2.13499 -0.876748 0
M  V30 3637 C 341.88 1.65162 0.176299 0
M  V30 3638 O 343.065 1.90757 0.0407143 0
M  V30 3639 C 340.205 3.42912 -0.387967 0
M  V30 3640 C 339.318 4.04964 -1.50426 0
M  V30 3641 C 338.453 5.22266 -0.970125 0
M  V30 3642 C 337.492 5.76309 -2.06238 0
M  V30 3643 N 336.629 6.84922 -1.54356 0
M  V30 3644 H 341.469 2.37654 -1.7979 0
M  V30 3645 H 339.006 1.16598 -0.896843 0
M  V30 3646 H 340.964 4.17111 -0.086186 0
M  V30 3647 H 339.594 3.18963 0.496235 0
M  V30 3648 H 338.646 3.28277 -1.92193 0
M  V30 3649 H 339.958 4.41122 -2.32836 0
M  V30 3650 H 339.112 6.03506 -0.621743 0
M  V30 3651 H 337.851 4.87564 -0.115377 0
M  V30 3652 H 336.856 4.93704 -2.41942 0
M  V30 3653 H 338.081 6.13062 -2.92115 0
M  V30 3654 H 336.027 6.52131 -0.711406 0
M  V30 3655 H 335.944 7.20043 -2.30379 0
M  V30 3656 H 337.212 7.69832 -1.22387 0
M  V30 3657 N 341.441 0.965919 1.2453 0
M  V30 3658 C 342.689 0.625593 1.92174 0
M  V30 3659 C 343.01 -0.841652 1.75901 0
M  V30 3660 O 342.28 -1.60061 1.12948 0
M  V30 3661 H 340.86 0.228388 0.71123 0
M  V30 3662 H 343.522 1.2266 1.51461 0
M  V30 3663 H 342.618 0.864653 2.99884 0
M  V30 3664 N 342.919 -1.39368 0.735821 0
M  V30 3665 C 344.165 -2.00794 0.284544 0
M  V30 3666 C 344.498 -1.58255 -1.12557 0
M  V30 3667 O 343.773 -0.811819 -1.76748 0
M  V30 3668 C 344.056 -3.58011 0.387337 0
M  V30 3669 C 343.909 -4.10566 1.83728 0
M  V30 3670 C 345.228 -4.395 -0.22975 0
M  V30 3671 H 342.347 -0.729501 0.104866 0
M  V30 3672 H 344.989 -1.65564 0.93213 0
M  V30 3673 H 343.139 -3.88154 -0.164006 0
M  V30 3674 H 344.811 -3.91139 2.44556 0
M  V30 3675 H 343.054 -3.64095 2.35833 0
M  V30 3676 H 343.725 -5.19702 1.86047 0
M  V30 3677 H 346.201 -4.15406 0.240257 0
M  V30 3678 H 345.077 -5.48752 -0.127485 0
M  V30 3679 H 345.338 -4.22062 -1.3159 0
M  V30 3680 N 344.397 -0.483516 -1.5 0
M  V30 3681 C 345.645 0.067027 -2.01989 0
M  V30 3682 C 345.966 1.3909 -1.36671 0
M  V30 3683 O 345.236 1.88978 -0.516152 0
M  V30 3684 H 343.816 0.0277606 -0.746484 0
M  V30 3685 H 346.478 -0.636773 -1.84204 0
M  V30 3686 H 345.574 0.209484 -3.11396 0
M  V30 3687 N 345.875 1.56104 -0.216619 0
M  V30 3688 C 347.121 1.99219 0.410301 0
M  V30 3689 C 347.476 1.10169 1.57735 0
M  V30 3690 O 346.769 0.150598 1.91007 0
M  V30 3691 C 346.963 3.45923 0.898464 0
M  V30 3692 C 346.792 4.49163 -0.219748 0
M  V30 3693 C 345.562 5.00642 -0.684516 0
M  V30 3694 C 347.76 5.03751 -1.03629 0
M  V30 3695 N 345.742 5.87579 -1.7783 0
M  V30 3696 C 347.113 5.87566 -1.97904 0
M  V30 3697 C 349.168 4.86128 -1.07629 0
M  V30 3698 C 347.871 6.5564 -2.95851 0
M  V30 3699 C 349.897 5.54958 -2.04392 0
M  V30 3700 C 349.259 6.38536 -2.97407 0
M  V30 3701 H 345.358 0.773206 0.11695 0
M  V30 3702 H 347.942 1.9193 -0.327258 0
M  V30 3703 H 346.113 3.53669 1.6054 0
M  V30 3704 H 347.845 3.75963 1.49779 0
M  V30 3705 H 344.6 4.72807 -0.27399 0
M  V30 3706 H 345.024 6.3575 -2.32705 0
M  V30 3707 H 349.666 4.21168 -0.371099 0
M  V30 3708 H 347.384 7.19785 -3.67335 0
M  V30 3709 H 350.97 5.43289 -2.08154 0
M  V30 3710 H 349.85 6.90858 -3.71059 0
M  V30 3711 N 347.353 -0.0568162 1.57498 0
M  V30 3712 C 348.581 -0.765626 1.92213 0
M  V30 3713 C 348.996 -1.70353 0.813961 0
M  V30 3714 O 348.353 -1.81268 -0.211701 0
M  V30 3715 C 348.404 -1.5465 3.2675 0
M  V30 3716 O 348.125 -0.646278 4.33307 0
M  V30 3717 C 349.626 -2.35497 3.75574 0
M  V30 3718 H 346.846 -0.216835 0.634999 0
M  V30 3719 H 349.39 -0.0226146 2.04487 0
M  V30 3720 H 347.545 -2.24165 3.15957 0
M  V30 3721 H 347.959 -1.19093 5.108 0
M  V30 3722 H 349.433 -2.85722 4.72299 0
M  V30 3723 H 349.91 -3.15692 3.05344 0
M  V30 3724 H 350.516 -1.7111 3.8936 0
M  V30 3725 N 348.832 -1.54138 -0.328536 0
M  V30 3726 C 350.08 -1.71765 -1.06496 0
M  V30 3727 C 350.401 -0.49149 -1.88704 0
M  V30 3728 O 349.671 0.494539 -1.89555 0
M  V30 3729 H 348.251 -0.633295 -0.396164 0
M  V30 3730 H 350.913 -1.91429 -0.366176 0
M  V30 3731 H 350.009 -2.5951 -1.73381 0
M  V30 3732 N 350.31 0.590341 -1.46126 0
M  V30 3733 C 351.257 1.69994 -1.56111 0
M  V30 3734 C 352.227 1.61065 -0.405867 0
M  V30 3735 O 353.412 1.8039 -0.621613 0
M  V30 3736 C 350.552 3.08326 -1.55013 0
M  V30 3737 C 349.665 3.27936 -2.81215 0
M  V30 3738 C 348.8 4.56473 -2.71673 0
M  V30 3739 C 347.839 4.694 -3.92849 0
M  V30 3740 N 346.976 5.89254 -3.81738 0
M  V30 3741 H 351.816 1.60797 -2.50895 0
M  V30 3742 H 349.353 0.783799 -1.24479 0
M  V30 3743 H 351.311 3.88383 -1.52362 0
M  V30 3744 H 349.941 3.16439 -0.637667 0
M  V30 3745 H 348.993 2.41536 -2.93879 0
M  V30 3746 H 350.305 3.33357 -3.71045 0
M  V30 3747 H 349.459 5.44748 -2.67085 0
M  V30 3748 H 348.198 4.53477 -1.7947 0
M  V30 3749 H 347.203 3.79544 -3.97777 0
M  V30 3750 H 348.428 4.7418 -4.86138 0
M  V30 3751 H 346.374 5.87271 -2.92317 0
M  V30 3752 H 346.291 5.95911 -4.65217 0
M  V30 3753 H 347.559 6.79981 -3.81112 0
M  V30 3754 N 351.788 1.33704 0.83433 0
M  V30 3755 C 353.034 1.25603 1.59222 0
M  V30 3756 C 353.367 -0.176659 1.93395 0
M  V30 3757 O 352.642 -1.11915 1.59076 0
M  V30 3758 C 352.925 2.13576 2.89926 0
M  V30 3759 C 352.778 3.65326 2.62406 0
M  V30 3760 C 354.097 2.01238 3.91397 0
M  V30 3761 H 351.216 0.457613 0.577719 0
M  V30 3762 H 353.858 1.63848 0.961972 0
M  V30 3763 H 352.008 1.8109 3.43713 0
M  V30 3764 H 353.68 4.08124 2.15017 0
M  V30 3765 H 351.923 3.8698 1.96033 0
M  V30 3766 H 352.594 4.22232 3.55562 0
M  V30 3767 H 355.07 2.29738 3.46929 0
M  V30 3768 H 353.946 2.65036 4.80673 0
M  V30 3769 H 354.207 0.985951 4.30966 0
M  V30 3770 N 353.266 -1.05314 1.17247 0
M  V30 3771 C 354.512 -1.78557 0.961513 0
M  V30 3772 C 354.845 -1.87419 -0.508697 0
M  V30 3773 O 354.12 -1.37307 -1.37757 0
M  V30 3774 C 354.403 -3.22514 1.60176 0
M  V30 3775 C 354.256 -3.21673 3.14399 0
M  V30 3776 C 355.575 -4.20318 1.30463 0
M  V30 3777 H 352.694 -0.6482 0.350723 0
M  V30 3778 H 355.336 -1.23102 1.44727 0
M  V30 3779 H 353.486 -3.69867 1.18871 0
M  V30 3780 H 355.158 -2.82405 3.64753 0
M  V30 3781 H 353.401 -2.60048 3.47214 0
M  V30 3782 H 354.072 -4.23271 3.54324 0
M  V30 3783 H 356.548 -3.81454 1.66229 0
M  V30 3784 H 355.424 -5.19289 1.77848 0
M  V30 3785 H 355.685 -4.41526 0.22521 0
M  V30 3786 N 354.744 -0.972509 -1.24016 0
M  V30 3787 C 355.974 -0.653853 -1.9598 0
M  V30 3788 C 356.382 0.781801 -1.72292 0
M  V30 3789 O 355.725 1.53677 -1.00644 0
M  V30 3790 C 355.787 -0.854608 -3.49194 0
M  V30 3791 C 355.451 -2.27082 -3.96589 0
M  V30 3792 C 356.448 -3.24892 -4.05883 0
M  V30 3793 C 354.133 -2.5998 -4.29786 0
M  V30 3794 C 356.127 -4.53684 -4.47716 0
M  V30 3795 C 353.814 -3.88997 -4.71301 0
M  V30 3796 C 354.812 -4.85661 -4.80232 0
M  V30 3797 O 354.5 -6.12376 -5.20818 0
M  V30 3798 H 354.232 -0.242572 -0.630979 0
M  V30 3799 H 356.786 -1.30431 -1.58673 0
M  V30 3800 H 355.016 -0.146985 -3.86421 0
M  V30 3801 H 356.705 -0.534311 -4.02368 0
M  V30 3802 H 357.471 -3.00805 -3.80449 0
M  V30 3803 H 353.35 -1.85457 -4.22051 0
M  V30 3804 H 356.894 -5.29135 -4.54601 0
M  V30 3805 H 352.791 -4.12882 -4.96184 0
M  V30 3806 H 353.559 -6.16013 -5.38953 0
M  V30 3807 N 356.222 1.38976 -0.743202 0
M  V30 3808 C 357.469 2.00343 -0.294752 0
M  V30 3809 C 357.797 1.58983 1.12047 0
M  V30 3810 O 357.052 0.813809 1.77977 0
M  V30 3811 C 357.351 3.55647 -0.353517 0
M  V30 3812 C 357.017 4.16685 -1.72292 0
M  V30 3813 C 355.679 4.3307 -2.09771 0
M  V30 3814 C 358.031 4.50464 -2.62168 0
M  V30 3815 C 355.359 4.80526 -3.36618 0
M  V30 3816 C 357.711 4.99332 -3.88395 0
M  V30 3817 C 356.375 5.13924 -4.25956 0
M  V30 3818 H 355.645 0.733108 -0.107857 0
M  V30 3819 H 358.292 1.6618 -0.951651 0
M  V30 3820 H 356.597 3.89884 0.386954 0
M  V30 3821 H 358.294 4.00998 0.0117269 0
M  V30 3822 H 354.884 4.04339 -1.42155 0
M  V30 3823 H 359.068 4.37416 -2.3448 0
M  V30 3824 H 354.324 4.90008 -3.65653 0
M  V30 3825 H 358.498 5.2444 -4.58187 0
M  V30 3826 H 356.125 5.50457 -5.2431 0
M  V30 3827 N 357.7 0.491464 1.49741 0
M  V30 3828 C 358.925 -0.0557177 2.07325 0
M  V30 3829 C 359.35 -1.30925 1.35056 0
M  V30 3830 O 358.708 -1.76733 0.404365 0
M  V30 3831 C 358.756 -0.302074 3.59333 0
M  V30 3832 O 357.86 -1.37868 3.88672 0
M  V30 3833 H 357.201 0.0219956 0.663636 0
M  V30 3834 H 359.731 0.688352 1.92673 0
M  V30 3835 H 359.741 -0.536464 4.04458 0
M  V30 3836 H 358.416 0.61383 4.11345 0
M  V30 3837 H 356.993 -1.12999 3.55367 0
M  V30 3838 N 359.178 -1.55987 0.224894 0
M  V30 3839 C 360.141 -2.19178 -0.670348 0
M  V30 3840 C 361.141 -1.15461 -1.11917 0
M  V30 3841 O 362.331 -1.40675 -1.02743 0
M  V30 3842 C 359.463 -2.81777 -1.9187 0
M  V30 3843 H 360.656 -2.99662 -0.119364 0
M  V30 3844 H 358.209 -1.5628 -0.0247128 0
M  V30 3845 H 358.944 -2.05172 -2.51147 0
M  V30 3846 H 358.729 -3.57732 -1.60531 0
M  V30 3847 H 360.219 -3.30205 -2.55645 0
M  V30 3848 N 360.656 0.0484629 -1.57525 0
M  V30 3849 C 361.884 0.755421 -1.92616 0
M  V30 3850 C 362.299 1.69919 -0.822984 0
M  V30 3851 O 361.656 1.81378 0.202085 0
M  V30 3852 C 361.707 1.52915 -3.27566 0
M  V30 3853 O 361.428 0.62329 -4.33644 0
M  V30 3854 C 362.929 2.33502 -3.76818 0
M  V30 3855 H 360.149 0.213465 -0.63614 0
M  V30 3856 H 362.693 0.0117698 -2.04497 0
M  V30 3857 H 360.848 2.22486 -3.17142 0
M  V30 3858 H 361.262 1.16383 -5.11425 0
M  V30 3859 H 362.736 2.83214 -4.73808 0
M  V30 3860 H 363.213 3.14068 -3.07014 0
M  V30 3861 H 363.819 1.69043 -3.90262 0
M  V30 3862 N 362.134 1.5431 0.320358 0
M  V30 3863 C 363.364 1.7638 1.07582 0
M  V30 3864 C 363.772 0.513944 1.82086 0
M  V30 3865 O 363.115 -0.525123 1.76035 0
M  V30 3866 C 363.177 2.9055 2.1171 0
M  V30 3867 C 362.841 4.2934 1.56575 0
M  V30 3868 C 363.838 5.10077 1.00586 0
M  V30 3869 C 361.523 4.75893 1.60722 0
M  V30 3870 C 363.517 6.35477 0.494756 0
M  V30 3871 C 361.204 6.0126 1.09224 0
M  V30 3872 C 362.202 6.80886 0.53696 0
M  V30 3873 O 361.89 8.03894 0.0297371 0
M  V30 3874 H 361.622 0.592369 0.325692 0
M  V30 3875 H 364.176 2.02019 0.37116 0
M  V30 3876 H 362.406 2.60489 2.85801 0
M  V30 3877 H 364.095 3.00373 2.73003 0
M  V30 3878 H 364.861 4.75265 0.966869 0
M  V30 3879 H 360.74 4.13957 2.02882 0
M  V30 3880 H 364.284 6.97574 0.0606842 0
M  V30 3881 H 360.181 6.35562 1.12831 0
M  V30 3882 H 360.949 8.18372 0.14486 0
M  V30 3883 N 363.613 -0.582584 1.46437 0
M  V30 3884 C 365.024 -1.1647 1.45916 0
M  V30 3885 C 365.375 -1.95177 0.200077 0
M  V30 3886 O 364.5 -2.04874 -0.696819 0
M  V30 3887 C 365.095 -2.11885 2.64367 0
M  V30 3888 C 363.654 -2.65421 2.66887 0
M  V30 3889 C 362.801 -1.41294 2.38603 0
M  V30 3890 H 365.752 -0.370514 1.54314 0
M  V30 3891 H 365.773 -2.9535 2.39892 0
M  V30 3892 H 365.285 -1.54573 3.5599 0
M  V30 3893 H 363.386 -3.26602 1.79338 0
M  V30 3894 H 363.499 -3.08147 3.66854 0
M  V30 3895 H 361.863 -1.71109 1.88663 0
M  V30 3896 H 362.646 -0.858125 3.32402 0
M  V30 3897 N 365.091 -1.34144 -0.827227 0
M  V30 3898 C 366.321 -1.29138 -1.61267 0
M  V30 3899 C 366.729 0.137597 -1.88699 0
M  V30 3900 O 366.072 1.09379 -1.47587 0
M  V30 3901 C 366.134 -2.0097 -2.9808 0
M  V30 3902 C 365.798 -3.50242 -2.93563 0
M  V30 3903 C 366.795 -4.4523 -2.68452 0
M  V30 3904 C 364.48 -3.92592 -3.13331 0
M  V30 3905 C 366.474 -5.80542 -2.63154 0
M  V30 3906 C 364.161 -5.28005 -3.07658 0
M  V30 3907 C 365.159 -6.21792 -2.82602 0
M  V30 3908 O 364.847 -7.54723 -2.76853 0
M  V30 3909 H 364.579 -0.445851 -0.508127 0
M  V30 3910 H 367.133 -1.77263 -1.03763 0
M  V30 3911 H 365.363 -1.47451 -3.57484 0
M  V30 3912 H 367.052 -1.89309 -3.5905 0
M  V30 3913 H 367.818 -4.13832 -2.52919 0
M  V30 3914 H 363.697 -3.19994 -3.31851 0
M  V30 3915 H 367.241 -6.53717 -2.43516 0
M  V30 3916 H 363.138 -5.59023 -3.22743 0
M  V30 3917 H 363.906 -7.64409 -2.92611 0
M  V30 3918 N 366.569 1.04691 -1.17803 0
M  V30 3919 C 367.818 1.77176 -0.963931 0
M  V30 3920 C 368.131 1.88888 0.508015 0
M  V30 3921 O 369.337 2.58164 0.840465 0
M  V30 3922 C 367.793 3.18518 -1.67555 0
M  V30 3923 C 367.401 3.14919 -3.18637 0
M  V30 3924 C 369.145 3.95424 -1.54402 0
M  V30 3925 C 367.052 4.51081 -3.82466 0
M  V30 3926 H 365.982 0.664116 -0.357023 0
M  V30 3927 H 368.633 1.17303 -1.4111 0
M  V30 3928 H 367.015 3.78748 -1.15613 0
M  V30 3929 H 368.189 2.64178 -3.77554 0
M  V30 3930 H 366.504 2.51512 -3.31859 0
M  V30 3931 H 369.101 4.96106 -1.99456 0
M  V30 3932 H 369.444 4.13343 -0.495329 0
M  V30 3933 H 369.977 3.41754 -2.0359 0
M  V30 3934 H 366.716 4.38368 -4.87354 0
M  V30 3935 H 366.236 5.01951 -3.28337 0
M  V30 3936 H 367.915 5.2001 -3.84965 0
M  V30 3937 N 368.047 0.979072 1.23499 0
M  V30 3938 C 368.98 0.463027 2.23453 0
M  V30 3939 C 369.958 -0.469128 1.55685 0
M  V30 3940 O 371.142 -0.397882 1.84253 0
M  V30 3941 C 368.269 -0.330308 3.37086 0
M  V30 3942 C 367.315 0.545795 4.22993 0
M  V30 3943 S 368.148 1.99285 4.97037 0
M  V30 3944 C 369.304 1.20862 6.1412 0
M  V30 3945 H 369.537 1.31005 2.6688 0
M  V30 3946 H 367.07 0.784965 1.32957 0
M  V30 3947 H 369.028 -0.782027 4.02982 0
M  V30 3948 H 367.689 -1.15244 2.92194 0
M  V30 3949 H 366.882 -0.0638928 5.03959 0
M  V30 3950 H 366.484 0.933705 3.62157 0
M  V30 3951 H 368.776 0.469284 6.75873 0
M  V30 3952 H 369.719 1.99307 6.79472 0
M  V30 3953 H 370.127 0.727992 5.59786 0
M  V30 3954 N 369.525 -1.3858 0.750561 0
M  V30 3955 C 370.455 -2.33102 0.136237 0
M  V30 3956 C 371.436 -1.54713 -0.706965 0
M  V30 3957 O 372.621 -1.83043 -0.648769 0
M  V30 3958 C 369.751 -3.38882 -0.760017 0
M  V30 3959 C 368.705 -4.27995 -0.0197785 0
M  V30 3960 C 368.031 -5.24605 -1.03408 0
M  V30 3961 C 369.331 -5.09554 1.14684 0
M  V30 3962 H 371.025 -2.84726 0.925822 0
M  V30 3963 H 368.571 -1.36898 0.446654 0
M  V30 3964 H 370.524 -4.0397 -1.19943 0
M  V30 3965 H 369.248 -2.85734 -1.58189 0
M  V30 3966 H 367.907 -3.64409 0.400184 0
M  V30 3967 H 367.555 -4.67746 -1.84994 0
M  V30 3968 H 367.255 -5.85081 -0.543464 0
M  V30 3969 H 368.779 -5.9257 -1.47288 0
M  V30 3970 H 370.193 -5.67899 0.785118 0
M  V30 3971 H 368.59 -5.7925 1.56812 0
M  V30 3972 H 369.66 -4.4347 1.96118 0
M  V30 3973 N 371.003 -0.499398 -1.49478 0
M  V30 3974 C 372.252 0.0475259 -2.01644 0
M  V30 3975 C 372.565 1.38195 -1.38425 0
M  V30 3976 O 373.771 2.01547 -1.8191 0
M  V30 3977 C 372.227 0.135164 -3.59646 0
M  V30 3978 C 371.835 -1.19252 -4.31837 0
M  V30 3979 C 373.579 0.632538 -4.19761 0
M  V30 3980 C 371.486 -1.06713 -5.81693 0
M  V30 3981 H 370.416 0.0215349 -0.753692 0
M  V30 3982 H 373.067 -0.638577 -1.7203 0
M  V30 3983 H 371.449 0.885681 -3.85969 0
M  V30 3984 H 372.623 -1.9562 -4.17216 0
M  V30 3985 H 370.938 -1.62321 -3.83459 0
M  V30 3986 H 373.535 0.743833 -5.29501 0
M  V30 3987 H 373.878 1.63098 -3.83021 0
M  V30 3988 H 374.411 -0.0613987 -3.97753 0
M  V30 3989 H 371.15 -2.03979 -6.22955 0
M  V30 3990 H 370.67 -0.344307 -5.98811 0
M  V30 3991 H 372.349 -0.745208 -6.42694 0
M  V30 3992 N 372.481 1.55866 -0.233164 0
M  V30 3993 C 373.73 1.97779 0.39579 0
M  V30 3994 C 374.043 1.12419 1.60066 0
M  V30 3995 O 375.249 1.44283 2.29988 0
M  V30 3996 C 373.705 3.5188 0.755556 0
M  V30 3997 C 373.313 4.45959 -0.427152 0
M  V30 3998 C 375.057 4.02479 1.34946 0
M  V30 3999 C 372.964 5.91383 -0.0443043 0
M  V30 4000 H 371.894 0.738592 0.15165 0
M  V30 4001 H 374.545 1.80486 -0.331212 0
M  V30 4002 H 372.927 3.64816 1.5403 0
M  V30 4003 H 374.101 4.44776 -1.20462 0
M  V30 4004 H 372.416 4.05765 -0.935068 0
M  V30 4005 H 375.013 5.08637 1.649 0
M  V30 4006 H 375.356 3.49014 2.26925 0
M  V30 4007 H 375.889 3.92813 0.62791 0
M  V30 4008 H 372.628 6.48857 -0.930874 0
M  V30 4009 H 372.148 5.95734 0.697238 0
M  V30 4010 H 373.827 6.45893 0.378334 0
M  V30 4011 N 373.959 -0.0401083 1.57549 0
M  V30 4012 C 374.889 -1.04384 2.08869 0
M  V30 4013 C 375.87 -1.38407 0.988817 0
M  V30 4014 O 377.055 -1.47483 1.26342 0
M  V30 4015 C 374.185 -2.34808 2.55895 0
M  V30 4016 C 373.139 -2.15057 3.70047 0
M  V30 4017 C 372.465 -3.51145 4.03239 0
M  V30 4018 C 373.765 -1.54576 4.98902 0
M  V30 4019 H 375.459 -0.616666 2.92981 0
M  V30 4020 H 373.005 -0.295184 1.40942 0
M  V30 4021 H 374.958 -3.05346 2.90417 0
M  V30 4022 H 373.682 -2.79565 1.68853 0
M  V30 4023 H 372.341 -1.46954 3.35857 0
M  V30 4024 H 371.989 -3.93529 3.13279 0
M  V30 4025 H 371.689 -3.38758 4.80122 0
M  V30 4026 H 373.213 -4.23062 4.40285 0
M  V30 4027 H 374.627 -2.15017 5.31451 0
M  V30 4028 H 373.024 -1.52796 5.80322 0
M  V30 4029 H 374.094 -0.51039 4.82206 0
M  V30 4030 N 375.437 -1.54477 -0.31217 0
M  V30 4031 C 376.684 -1.73227 -1.04875 0
M  V30 4032 C 377.012 -0.512042 -1.87639 0
M  V30 4033 O 376.267 0.506131 -1.89042 0
M  V30 4034 C 376.566 -2.967 -1.99258 0
M  V30 4035 C 376.232 -4.30974 -1.32559 0
M  V30 4036 C 374.894 -4.67477 -1.141 0
M  V30 4037 C 377.246 -5.14258 -0.847835 0
M  V30 4038 C 374.574 -5.84852 -0.465326 0
M  V30 4039 C 376.926 -6.32327 -0.185931 0
M  V30 4040 C 375.59 -6.67499 0.0107077 0
M  V30 4041 H 374.86 -0.633881 -0.383765 0
M  V30 4042 H 377.507 -1.88727 -0.324731 0
M  V30 4043 H 375.812 -2.75935 -2.7815 0
M  V30 4044 H 377.509 -3.08401 -2.563 0
M  V30 4045 H 374.099 -4.02262 -1.4793 0
M  V30 4046 H 378.283 -4.86565 -0.978192 0
M  V30 4047 H 373.539 -6.10654 -0.301883 0
M  V30 4048 H 377.713 -6.96135 0.192211 0
M  V30 4049 H 375.34 -7.58306 0.536287 0
M  V30 4050 N 376.915 0.57481 -1.46744 0
M  V30 4051 C 378.162 1.33272 -1.52462 0
M  V30 4052 C 378.49 1.93669 -0.179572 0
M  V30 4053 O 377.745 1.7743 0.825664 0
M  V30 4054 C 378.044 2.476 -2.57738 0
M  V30 4055 C 377.71 2.05146 -4.01529 0
M  V30 4056 C 376.372 1.93284 -4.40676 0
M  V30 4057 C 378.724 1.72506 -4.91824 0
M  V30 4058 C 376.052 1.47049 -5.67973 0
M  V30 4059 C 378.404 1.27748 -6.19567 0
M  V30 4060 C 377.068 1.14468 -6.57612 0
M  V30 4061 H 376.338 0.487678 -0.557899 0
M  V30 4062 H 378.985 0.646456 -1.80259 0
M  V30 4063 H 377.29 3.21708 -2.23632 0
M  V30 4064 H 378.987 3.05807 -2.5939 0
M  V30 4065 H 375.577 2.15316 -3.7059 0
M  V30 4066 H 379.761 1.80552 -4.62293 0
M  V30 4067 H 375.017 1.35417 -5.96215 0
M  V30 4068 H 379.191 1.01547 -6.88957 0
M  V30 4069 H 376.818 0.78419 -7.56145 0
M  V30 4070 N 378.394 1.34581 0.820102 0
M  V30 4071 C 379.81 1.14325 1.11364 0
M  V30 4072 C 380.01 -0.0533648 2.01429 0
M  V30 4073 O 379.066 -0.728044 2.41776 0
M  V30 4074 C 380.379 2.43983 1.75764 0
M  V30 4075 C 381.927 2.50065 1.88246 0
M  V30 4076 C 382.402 3.79732 2.56061 0
M  V30 4077 N 383.893 3.80908 2.63558 0
M  V30 4078 C 384.628 4.77961 3.16766 0
M  V30 4079 N 384.124 5.85397 3.70517 0
M  V30 4080 N 385.917 4.65413 3.15194 0
M  V30 4081 H 378.068 2.11246 0.221096 0
M  V30 4082 H 380.331 0.934289 0.160649 0
M  V30 4083 H 380.037 3.31651 1.1705 0
M  V30 4084 H 379.911 2.57531 2.75604 0
M  V30 4085 H 382.298 1.62834 2.46108 0
M  V30 4086 H 382.379 2.40442 0.873006 0
M  V30 4087 H 382.023 4.67354 1.98853 0
M  V30 4088 H 381.953 3.86639 3.57516 0
M  V30 4089 H 384.444 3.03274 2.25463 0
M  V30 4090 H 384.757 6.55463 4.09376 0
M  V30 4091 H 383.102 5.89107 3.68752 0
M  V30 4092 H 386.293 3.80627 2.72471 0
M  V30 4093 H 386.466 5.41216 3.56356 0
M  V30 4094 N 379.872 -1.04064 1.18357 0
M  V30 4095 C 381.12 -1.76915 0.977013 0
M  V30 4096 C 381.441 -1.88624 -0.494577 0
M  V30 4097 O 380.711 -1.41125 -1.3587 0
M  V30 4098 H 379.291 -0.65535 0.358504 0
M  V30 4099 H 381.953 -1.25592 1.49039 0
M  V30 4100 H 381.049 -2.78178 1.41504 0
M  V30 4101 N 381.35 -0.985608 -1.22978 0
M  V30 4102 C 382.596 -0.65836 -1.91816 0
M  V30 4103 C 382.929 0.806692 -1.76653 0
M  V30 4104 O 382.204 1.58252 -1.13078 0
M  V30 4105 C 382.487 -1.056 -3.44268 0
M  V30 4106 C 382.34 -2.57906 -3.68516 0
M  V30 4107 C 383.659 -0.603781 -4.35939 0
M  V30 4108 H 380.778 -0.24065 -0.696604 0
M  V30 4109 H 383.42 -1.22783 -1.44998 0
M  V30 4110 H 381.57 -0.571445 -3.84274 0
M  V30 4111 H 383.242 -3.13976 -3.3796 0
M  V30 4112 H 381.485 -3.00305 -3.13048 0
M  V30 4113 H 382.156 -2.80779 -4.75255 0
M  V30 4114 H 384.632 -1.01987 -4.03408 0
M  V30 4115 H 383.508 -0.910383 -5.41298 0
M  V30 4116 H 383.769 0.495761 -4.39312 0
M  V30 4117 N 382.828 1.3818 -0.7579 0
M  V30 4118 C 384.056 2.04301 -0.326937 0
M  V30 4119 C 384.471 1.57163 1.0462 0
M  V30 4120 O 383.828 0.746626 1.66529 0
M  V30 4121 C 383.879 3.59846 -0.345363 0
M  V30 4122 O 383.6 4.05256 -1.66432 0
M  V30 4123 C 385.101 4.4319 0.098927 0
M  V30 4124 H 382.321 0.656443 -0.139012 0
M  V30 4125 H 384.865 1.76786 -1.02796 0
M  V30 4126 H 383.02 3.86182 0.306955 0
M  V30 4127 H 383.434 4.99709 -1.59345 0
M  V30 4128 H 384.908 5.51989 0.0348745 0
M  V30 4129 H 385.385 4.23947 1.14741 0
M  V30 4130 H 385.991 4.22051 -0.52468 0
M  V30 4131 N 384.306 0.507319 1.49211 0
M  V30 4132 C 385.236 -0.256939 2.32082 0
M  V30 4133 C 386.217 -0.956609 1.40652 0
M  V30 4134 O 387.402 -0.946788 1.69557 0
M  V30 4135 C 384.532 -1.31802 3.21318 0
M  V30 4136 C 383.486 -0.737855 4.21592 0
M  V30 4137 C 382.812 -1.89992 4.99807 0
M  V30 4138 C 384.112 0.275325 5.21574 0
M  V30 4139 H 385.806 0.434798 2.96226 0
M  V30 4140 H 383.352 0.210546 1.42452 0
M  V30 4141 H 385.305 -1.86045 3.78107 0
M  V30 4142 H 384.029 -2.03903 2.5513 0
M  V30 4143 H 382.688 -0.217126 3.65956 0
M  V30 4144 H 382.336 -2.60877 4.30061 0
M  V30 4145 H 382.036 -1.51777 5.6766 0
M  V30 4146 H 383.56 -2.44657 5.59442 0
M  V30 4147 H 384.974 -0.179193 5.7302 0
M  V30 4148 H 383.371 0.573649 5.97352 0
M  V30 4149 H 384.441 1.18903 4.70096 0
M  V30 4150 N 385.784 -1.5574 0.241426 0
M  V30 4151 C 387.195 -1.84842 -0.262755 0
M  V30 4152 C 387.546 -1.16317 -1.58003 0
M  V30 4153 O 386.671 -0.439653 -2.11887 0
M  V30 4154 C 387.266 -3.35332 -0.483523 0
M  V30 4155 C 385.825 -3.6468 -0.931977 0
M  V30 4156 C 384.972 -2.77299 -0.0061151 0
M  V30 4157 H 387.923 -1.51761 0.464129 0
M  V30 4158 H 387.944 -3.56615 -1.32688 0
M  V30 4159 H 387.456 -3.85178 0.47537 0
M  V30 4160 H 385.557 -3.20307 -1.90353 0
M  V30 4161 H 385.67 -4.72498 -0.792628 0
M  V30 4162 H 384.034 -2.49408 -0.516503 0
M  V30 4163 H 384.817 -3.2995 0.948052 0
M  V30 4164 N 387.262 0.0317525 -1.57568 0
M  V30 4165 C 388.51 0.721676 -1.88776 0
M  V30 4166 C 388.831 1.76039 -0.838772 0
M  V30 4167 O 388.101 1.95482 0.127935 0
M  V30 4168 H 386.681 0.269534 -0.696678 0
M  V30 4169 H 389.343 -0.00165879 -1.949 0
M  V30 4170 H 388.439 1.21293 -2.87566 0
M  V30 4171 N 388.74 1.54641 0.303973 0
M  V30 4172 C 389.703 1.84646 1.35789 0
M  V30 4173 C 390.703 0.7192 1.4382 0
M  V30 4174 O 391.893 0.987491 1.43507 0
M  V30 4175 C 389.025 2.02407 2.74307 0
M  V30 4176 H 390.218 2.78829 1.10429 0
M  V30 4177 H 387.771 1.46658 0.540487 0
M  V30 4178 H 388.506 1.10502 3.04893 0
M  V30 4179 H 388.291 2.84453 2.69868 0
M  V30 4180 H 389.781 2.27002 3.50514 0
M  V30 4181 N 390.218 -0.567019 1.47046 0
M  V30 4182 C 391.165 -1.67489 1.58796 0
M  V30 4183 C 392.135 -1.60399 0.43144 0
M  V30 4184 O 393.32 -1.79378 0.650233 0
M  V30 4185 C 390.46 -3.05821 1.59899 0
M  V30 4186 C 389.573 -3.2342 2.86397 0
M  V30 4187 C 388.708 -4.52093 2.789 0
M  V30 4188 C 387.747 -4.6309 4.00267 0
M  V30 4189 N 386.884 -5.83106 3.91064 0
M  V30 4190 H 391.724 -1.56785 2.53422 0
M  V30 4191 H 389.261 -0.763896 1.2571 0
M  V30 4192 H 391.219 -3.8591 1.58522 0
M  V30 4193 H 389.849 -3.15384 0.687929 0
M  V30 4194 H 388.901 -2.3683 2.97684 0
M  V30 4195 H 390.213 -3.27412 3.76301 0
M  V30 4196 H 389.367 -5.4043 2.75718 0
M  V30 4197 H 388.106 -4.50565 1.86662 0
M  V30 4198 H 387.111 -3.73168 4.03765 0
M  V30 4199 H 388.336 -4.66386 4.93621 0
M  V30 4200 H 386.282 -5.82546 3.01623 0
M  V30 4201 H 386.199 -5.88434 4.74638 0
M  V30 4202 H 387.467 -6.73831 3.91882 0
M  V30 4203 N 391.696 -1.35014 -0.812953 0
M  V30 4204 C 392.606 -1.2951 -1.95613 0
M  V30 4205 C 393.622 -0.20107 -1.72834 0
M  V30 4206 O 394.798 -0.42932 -1.96771 0
M  V30 4207 C 391.863 -1.06033 -3.30088 0
M  V30 4208 C 390.924 -2.24688 -3.65805 0
M  V30 4209 C 390.157 -2.02322 -4.93864 0
M  V30 4210 O 390.38 -0.986464 -5.61805 0
M  V30 4211 O 389.314 -2.89525 -5.27692 0
M  V30 4212 H 393.14 -2.25705 -2.03202 0
M  V30 4213 H 390.725 -1.15321 -0.949811 0
M  V30 4214 H 392.607 -0.94763 -4.10607 0
M  V30 4215 H 391.282 -0.128852 -3.23443 0
M  V30 4216 H 390.189 -2.41521 -2.85689 0
M  V30 4217 H 391.522 -3.16261 -3.77147 0
M  V30 4218 N 393.175 1.03435 -1.18907 0
M  V30 4219 C 394.423 1.76394 -0.986382 0
M  V30 4220 C 394.744 1.88883 0.484567 0
M  V30 4221 O 394.014 1.41843 1.3512 0
M  V30 4222 H 392.594 0.65344 -0.361975 0
M  V30 4223 H 395.256 1.248 -1.49703 0
M  V30 4224 H 394.352 2.77424 -1.42978 0
M  V30 4225 N 394.653 0.992116 1.22453 0
M  V30 4226 C 395.902 0.662992 1.90492 0
M  V30 4227 C 396.215 -0.808407 1.78113 0
M  V30 4228 O 397.421 -1.24908 2.41061 0
M  V30 4229 C 395.877 1.1353 3.41524 0
M  V30 4230 C 395.485 2.63187 3.62542 0
M  V30 4231 C 397.229 0.880465 4.15269 0
M  V30 4232 C 395.136 3.04024 5.0727 0
M  V30 4233 H 394.066 0.244278 0.713333 0
M  V30 4234 H 396.717 1.20157 1.38688 0
M  V30 4235 H 395.099 0.52485 3.92506 0
M  V30 4236 H 396.273 3.2957 3.22056 0
M  V30 4237 H 394.588 2.86543 3.02129 0
M  V30 4238 H 397.185 1.16128 5.21937 0
M  V30 4239 H 397.528 -0.183408 4.15896 0
M  V30 4240 H 398.061 1.45307 3.70312 0
M  V30 4241 H 394.8 4.09584 5.11782 0
M  V30 4242 H 394.32 2.42343 5.48662 0
M  V30 4243 H 395.999 2.95282 5.75689 0
M  V30 4244 N 396.131 -1.37776 0.765217 0
M  V30 4245 C 397.061 -2.32945 0.160953 0
M  V30 4246 C 398.042 -1.55454 -0.690516 0
M  V30 4247 O 399.227 -1.83721 -0.629318 0
M  V30 4248 C 396.357 -3.39669 -0.724031 0
M  V30 4249 C 395.311 -4.27992 0.0256173 0
M  V30 4250 C 394.637 -5.25673 -0.978383 0
M  V30 4251 C 395.937 -5.08309 1.20082 0
M  V30 4252 H 397.631 -2.83728 0.955969 0
M  V30 4253 H 395.177 -1.36416 0.461149 0
M  V30 4254 H 397.13 -4.05219 -1.15652 0
M  V30 4255 H 395.854 -2.87396 -1.5515 0
M  V30 4256 H 394.513 -3.63964 0.438812 0
M  V30 4257 H 394.161 -4.69682 -1.80022 0
M  V30 4258 H 393.861 -5.85625 -0.481378 0
M  V30 4259 H 395.385 -5.94098 -1.40995 0
M  V30 4260 H 396.799 -5.67034 0.845307 0
M  V30 4261 H 395.196 -5.77554 1.62947 0
M  V30 4262 H 396.266 -4.41365 2.00811 0
M  V30 4263 N 397.609 -0.515225 -1.4894 0
M  V30 4264 C 398.856 0.024215 -2.02486 0
M  V30 4265 C 399.184 1.35671 -1.39368 0
M  V30 4266 O 398.439 1.88566 -0.523574 0
M  V30 4267 C 398.738 0.210595 -3.56779 0
M  V30 4268 C 398.404 -1.04569 -4.38607 0
M  V30 4269 C 397.066 -1.39002 -4.60686 0
M  V30 4270 C 399.418 -1.88008 -4.86109 0
M  V30 4271 C 396.746 -2.568 -5.27514 0
M  V30 4272 C 399.098 -3.04972 -5.54234 0
M  V30 4273 C 397.762 -3.39768 -5.74555 0
M  V30 4274 H 397.032 0.00886088 -0.740947 0
M  V30 4275 H 399.679 -0.678263 -1.79086 0
M  V30 4276 H 397.984 0.99572 -3.78936 0
M  V30 4277 H 399.681 0.642659 -3.95817 0
M  V30 4278 H 396.271 -0.767497 -4.21672 0
M  V30 4279 H 400.455 -1.62719 -4.68867 0
M  V30 4280 H 395.711 -2.8398 -5.41447 0
M  V30 4281 H 399.885 -3.69943 -5.90013 0
M  V30 4282 H 397.512 -4.31148 -6.26112 0
M  V30 4283 N 399.087 1.5561 -0.249682 0
M  V30 4284 C 400.317 2.03116 0.377803 0
M  V30 4285 C 400.725 1.12822 1.51881 0
M  V30 4286 O 400.068 0.13562 1.83199 0
M  V30 4287 C 400.13 3.46866 0.944693 0
M  V30 4288 C 399.794 4.56955 -0.0644259 0
M  V30 4289 C 400.791 5.12485 -0.874957 0
M  V30 4290 C 398.476 5.01936 -0.19132 0
M  V30 4291 C 400.47 6.11491 -1.79881 0
M  V30 4292 C 398.157 6.00773 -1.11868 0
M  V30 4293 C 399.155 6.5543 -1.92095 0
M  V30 4294 O 398.843 7.5234 -2.83267 0
M  V30 4295 H 398.575 0.669489 0.0935961 0
M  V30 4296 H 401.129 2.02004 -0.371966 0
M  V30 4297 H 399.359 3.45136 1.74407 0
M  V30 4298 H 401.048 3.77856 1.48255 0
M  V30 4299 H 401.814 4.78564 -0.787523 0
M  V30 4300 H 397.693 4.59055 0.423072 0
M  V30 4301 H 401.237 6.54078 -2.42543 0
M  V30 4302 H 397.134 6.34114 -1.20703 0
M  V30 4303 H 397.902 7.69966 -2.7766 0
M  V30 4304 N 400.565 -0.0233959 1.57583 0
M  V30 4305 C 401.814 -0.712133 1.8871 0
M  V30 4306 C 402.127 -1.76217 0.848944 0
M  V30 4307 O 403.333 -2.50389 1.04964 0
M  V30 4308 C 401.789 -1.3177 3.3491 0
M  V30 4309 C 401.397 -0.303715 4.46969 0
M  V30 4310 C 403.141 -1.98598 3.75179 0
M  V30 4311 C 401.048 -0.917945 5.84233 0
M  V30 4312 H 399.978 -0.269735 0.704101 0
M  V30 4313 H 402.629 0.0333114 1.8347 0
M  V30 4314 H 401.011 -2.11304 3.34913 0
M  V30 4315 H 402.185 0.465325 4.58445 0
M  V30 4316 H 400.5 0.2628 4.1557 0
M  V30 4317 H 403.097 -2.45416 4.75053 0
M  V30 4318 H 403.44 -2.80659 3.07468 0
M  V30 4319 H 403.973 -1.25831 3.77374 0
M  V30 4320 H 400.712 -0.136633 6.55358 0
M  V30 4321 H 400.232 -1.65669 5.76467 0
M  V30 4322 H 401.911 -1.4236 6.31144 0
M  V30 4323 N 402.043 -1.548 -0.295768 0
M  V30 4324 C 403.271 -1.78327 -1.04914 0
M  V30 4325 C 403.686 -0.545316 -1.80753 0
M  V30 4326 O 403.043 0.485013 -1.75937 0
M  V30 4327 C 403.094 -2.99418 -2.02561 0
M  V30 4328 O 402.815 -4.18431 -1.29798 0
M  V30 4329 C 404.316 -3.35375 -2.89895 0
M  V30 4330 H 401.536 -0.594618 -0.310918 0
M  V30 4331 H 404.08 -2.01763 -0.333454 0
M  V30 4332 H 402.235 -2.78175 -2.69624 0
M  V30 4333 H 402.649 -4.86736 -1.95419 0
M  V30 4334 H 404.123 -4.23332 -3.54251 0
M  V30 4335 H 404.6 -2.53761 -3.58472 0
M  V30 4336 H 405.206 -3.58796 -2.28355 0
M  V30 4337 N 403.521 0.559213 -1.47345 0
M  V30 4338 C 404.932 1.14134 -1.47751 0
M  V30 4339 C 405.283 1.94834 -0.231103 0
M  V30 4340 O 404.408 2.05957 0.664137 0
M  V30 4341 C 405.003 2.07653 -2.67705 0
M  V30 4342 C 403.562 2.61141 -2.71076 0
M  V30 4343 C 402.709 1.3748 -2.40821 0
M  V30 4344 H 405.66 0.345917 -1.54884 0
M  V30 4345 H 405.681 2.91497 -2.44561 0
M  V30 4346 H 405.193 1.4889 -3.58404 0
M  V30 4347 H 403.294 3.23707 -1.84511 0
M  V30 4348 H 403.407 3.02272 -3.7171 0
M  V30 4349 H 401.771 1.68086 -1.91362 0
M  V30 4350 H 402.554 0.805135 -3.33725 0
M  V30 4351 N 404.999 1.35443 0.805782 0
M  V30 4352 C 405.947 1.28465 1.93906 0
M  V30 4353 C 406.941 0.17943 1.68447 0
M  V30 4354 O 408.147 0.345459 1.76654 0
M  V30 4355 H 404.522 0.399528 0.637088 0
M  V30 4356 H 406.493 2.24206 1.96912 0
M  V30 4357 C 405.242 1.07432 3.30687 0
M  V30 4358 H 404.565 1.91716 3.50835 0
M  V30 4359 H 406.005 1.06591 4.10383 0
M  V30 4360 C 404.464 -0.22179 3.36169 0
M  V30 4361 O 404.994 -1.21731 3.82811 0
M  V30 4362 N 403.2 -0.260841 2.89427 0
M  V30 4363 H 402.747 0.549884 2.51663 0
M  V30 4364 H 402.705 -1.12777 2.93477 0
M  V30 4365 N 406.477 -1.02803 1.19454 0
M  V30 4366 C 407.724 -1.76217 0.997693 0
M  V30 4367 C 408.052 -1.887 -0.47144 0
M  V30 4368 O 407.307 -1.4011 -1.3663 0
M  V30 4369 C 407.606 -3.18941 1.6128 0
M  V30 4370 C 407.272 -3.26463 3.11019 0
M  V30 4371 C 405.934 -3.28223 3.51885 0
M  V30 4372 C 408.286 -3.25542 4.07028 0
M  V30 4373 C 405.614 -3.26719 4.8731 0
M  V30 4374 C 407.966 -3.25579 5.42385 0
M  V30 4375 C 406.63 -3.25637 5.82681 0
M  V30 4376 H 405.9 -0.644823 0.365082 0
M  V30 4377 H 408.547 -1.20655 1.4871 0
M  V30 4378 H 406.852 -3.77587 1.04572 0
M  V30 4379 H 408.549 -3.74415 1.43577 0
M  V30 4380 H 405.139 -3.25822 2.78457 0
M  V30 4381 H 409.323 -3.23362 3.76498 0
M  V30 4382 H 404.579 -3.25089 5.1781 0
M  V30 4383 H 408.753 -3.23817 6.16535 0
M  V30 4384 H 406.38 -3.24226 6.87591 0
M  V30 4385 N 407.956 -0.998596 -1.21925 0
M  V30 4386 C 409.372 -0.710303 -1.42923 0
M  V30 4387 C 409.572 0.716933 -1.88314 0
M  V30 4388 O 408.628 1.48712 -2.04062 0
M  V30 4389 C 409.941 -1.72072 -2.466 0
M  V30 4390 C 411.489 -1.73681 -2.60392 0
M  V30 4391 C 411.964 -2.73601 -3.67296 0
M  V30 4392 N 413.455 -2.7223 -3.7476 0
M  V30 4393 C 414.19 -3.46206 -4.57087 0
M  V30 4394 N 413.686 -4.29802 -5.43362 0
M  V30 4395 N 415.479 -3.34886 -4.51451 0
M  V30 4396 H 407.63 -1.92028 -0.9077 0
M  V30 4397 H 409.893 -0.828487 -0.460775 0
M  V30 4398 H 409.599 -2.74231 -2.20206 0
M  V30 4399 H 409.473 -1.51818 -3.45299 0
M  V30 4400 H 411.86 -0.722173 -2.86127 0
M  V30 4401 H 411.941 -1.98005 -1.61949 0
M  V30 4402 H 411.585 -3.75217 -3.42307 0
M  V30 4403 H 411.515 -2.46545 -4.65321 0
M  V30 4404 H 414.006 -2.11576 -3.1312 0
M  V30 4405 H 414.319 -4.83061 -6.03218 0
M  V30 4406 H 412.664 -4.33887 -5.42925 0
M  V30 4407 H 415.855 -2.69015 -3.83078 0
M  V30 4408 H 416.028 -3.92796 -5.15379 0
M  V30 4409 N 409.434 1.37368 -0.772513 0
M  V30 4410 C 410.381 2.30262 -0.157488 0
M  V30 4411 C 411.351 1.51137 0.688965 0
M  V30 4412 O 412.536 1.79704 0.641168 0
M  V30 4413 C 409.676 3.37611 0.715045 0
M  V30 4414 C 408.789 4.31746 -0.148098 0
M  V30 4415 C 407.924 5.26171 0.729213 0
M  V30 4416 C 406.963 6.11948 -0.136418 0
M  V30 4417 N 406.1 6.98613 0.698914 0
M  V30 4418 H 410.94 2.82277 -0.955179 0
M  V30 4419 H 408.477 1.38957 -0.482631 0
M  V30 4420 H 410.435 3.98479 1.23575 0
M  V30 4421 H 409.065 2.86959 1.47833 0
M  V30 4422 H 408.117 3.72178 -0.786613 0
M  V30 4423 H 409.429 4.92084 -0.81579 0
M  V30 4424 H 408.583 5.92247 1.31637 0
M  V30 4425 H 407.322 4.66246 1.43059 0
M  V30 4426 H 406.327 5.4485 -0.736102 0
M  V30 4427 H 407.552 6.73945 -0.835134 0
M  V30 4428 H 405.498 6.41215 1.38489 0
M  V30 4429 H 405.415 7.55948 0.0885358 0
M  V30 4430 H 406.683 7.69077 1.27044 0
M  V30 4431 N 410.912 0.523116 1.48665 0
M  V30 4432 C 411.842 -0.23231 2.32342 0
M  V30 4433 C 412.823 -0.941637 1.41659 0
M  V30 4434 O 414.008 -0.928751 1.70552 0
M  V30 4435 C 411.138 -1.28387 3.22698 0
M  V30 4436 C 410.092 -0.693098 4.22351 0
M  V30 4437 C 409.418 -1.8468 5.01794 0
M  V30 4438 C 410.718 0.33063 5.21252 0
M  V30 4439 H 412.412 0.466192 2.95748 0
M  V30 4440 H 409.958 0.225643 1.42221 0
M  V30 4441 H 411.911 -1.82024 3.80059 0
M  V30 4442 H 410.635 -2.01186 2.57278 0
M  V30 4443 H 409.294 -0.178299 3.66166 0
M  V30 4444 H 408.942 -2.56301 4.32804 0
M  V30 4445 H 408.642 -1.45747 5.69238 0
M  V30 4446 H 410.166 -2.38709 5.62006 0
M  V30 4447 H 411.58 -0.118407 5.73178 0
M  V30 4448 H 409.977 0.636974 5.9671 0
M  V30 4449 H 411.047 1.23883 4.68808 0
M  V30 4450 N 412.39 -1.55475 0.257931 0
M  V30 4451 C 413.615 -2.04064 -0.370488 0
M  V30 4452 C 414.04 -1.13565 -1.49948 0
M  V30 4453 O 413.398 -0.130781 -1.80828 0
M  V30 4454 C 413.446 -3.50554 -0.845237 0
M  V30 4455 O 412.55 -3.63173 -1.95394 0
M  V30 4456 H 411.891 -0.659257 -0.0792243 0
M  V30 4457 H 414.421 -2.00903 0.387212 0
M  V30 4458 H 414.431 -3.91588 -1.14555 0
M  V30 4459 H 413.106 -4.15896 -0.0191259 0
M  V30 4460 H 411.683 -3.34039 -1.65748 0
M  V30 4461 N 413.868 0.0150385 -1.57593 0
M  V30 4462 C 415.145 0.7392 -1.81094 0
M  V30 4463 C 415.525 1.92817 -0.859344 0
M  V30 4464 O 414.873 2.28301 0.095362 0
M  V30 4465 C 415.083 1.15907 -3.29191 0
M  V30 4466 C 416.431 1.56918 -3.9454 0
M  V30 4467 O 417.455 1.25328 -3.33424 0
M  V30 4468 O 416.314 2.15604 -5.02173 0
M  V30 4469 H 413.408 0.358631 -0.745193 0
M  V30 4470 H 415.954 -0.00926156 -1.69697 0
M  V30 4471 H 414.726 0.310921 -3.90063 0
M  V30 4472 H 414.349 1.96711 -3.45529 0
M  V30 4473 N 415.346 1.54954 0.287554 0
M  V30 4474 C 416.571 1.79209 1.04397 0
M  V30 4475 C 416.996 0.556431 1.79682 0
M  V30 4476 O 416.354 -0.493518 1.74454 0
M  V30 4477 C 416.402 3.00739 1.98969 0
M  V30 4478 O 415.506 2.74805 3.075 0
M  V30 4479 H 414.847 0.592755 0.299227 0
M  V30 4480 H 417.377 2.02068 0.320886 0
M  V30 4481 H 417.387 3.29077 2.4119 0
M  V30 4482 H 416.062 3.90329 1.43582 0
M  V30 4483 H 414.639 2.57523 2.69697 0
M  V30 4484 N 416.824 -0.551391 1.4764 0
M  V30 4485 C 417.734 -1.68525 1.63207 0
M  V30 4486 C 418.75 -1.6621 0.514815 0
M  V30 4487 O 419.926 -1.85551 0.783113 0
M  V30 4488 C 416.991 -3.05025 1.64805 0
M  V30 4489 C 416.052 -3.18362 2.88 0
M  V30 4490 C 415.285 -4.4835 2.89513 0
M  V30 4491 O 415.508 -5.34163 2.00065 0
M  V30 4492 O 414.442 -4.65602 3.81443 0
M  V30 4493 H 418.268 -1.58333 2.59161 0
M  V30 4494 H 415.853 -0.722063 1.30792 0
M  V30 4495 H 417.735 -3.86245 1.68502 0
M  V30 4496 H 416.41 -3.15587 0.720197 0
M  V30 4497 H 415.317 -2.36518 2.89845 0
M  V30 4498 H 416.65 -3.12707 3.80099 0
M  V30 4499 N 418.302 -1.35869 -0.798587 0
M  V30 4500 C 419.548 -1.2978 -1.55836 0
M  V30 4501 C 419.881 0.125322 -1.93795 0
M  V30 4502 O 419.156 1.07658 -1.61987 0
M  V30 4503 C 419.439 -2.21188 -2.84162 0
M  V30 4504 C 419.292 -3.72155 -2.52628 0
M  V30 4505 C 420.611 -2.11545 -3.85923 0
M  V30 4506 H 417.73 -0.472769 -0.565383 0
M  V30 4507 H 420.372 -1.66341 -0.918192 0
M  V30 4508 H 418.522 -1.90139 -3.38791 0
M  V30 4509 H 420.194 -4.13682 -2.04121 0
M  V30 4510 H 418.437 -3.92042 -1.85704 0
M  V30 4511 H 419.108 -4.31511 -3.44242 0
M  V30 4512 H 421.584 -2.38855 -3.40716 0
M  V30 4513 H 420.46 -2.77688 -4.73477 0
M  V30 4514 H 420.721 -1.09987 -4.282 0
M  V30 4515 N 419.78 1.02168 -1.19998 0
M  V30 4516 C 421.026 1.7606 -1.01855 0
M  V30 4517 C 421.381 1.87178 0.445222 0
M  V30 4518 O 420.674 1.3828 1.32624 0
M  V30 4519 C 420.868 3.18081 -1.62969 0
M  V30 4520 C 420.697 3.20809 -3.15137 0
M  V30 4521 C 419.467 3.28342 -3.84083 0
M  V30 4522 C 421.665 3.07268 -4.1242 0
M  V30 4523 N 419.647 3.2052 -5.23584 0
M  V30 4524 C 421.018 3.0716 -5.38566 0
M  V30 4525 C 423.073 2.91448 -4.03686 0
M  V30 4526 C 421.776 2.92853 -6.56985 0
M  V30 4527 C 423.802 2.78494 -5.21723 0
M  V30 4528 C 423.164 2.79046 -6.46771 0
M  V30 4529 H 419.263 0.655192 -0.426905 0
M  V30 4530 H 421.847 1.21564 -1.52087 0
M  V30 4531 H 420.018 3.70882 -1.15329 0
M  V30 4532 H 421.75 3.80375 -1.38192 0
M  V30 4533 H 418.505 3.34859 -3.34913 0
M  V30 4534 H 418.929 3.19997 -5.96599 0
M  V30 4535 H 423.571 2.89838 -3.07821 0
M  V30 4536 H 421.289 2.93213 -7.53028 0
M  V30 4537 H 424.875 2.67278 -5.16773 0
M  V30 4538 H 423.755 2.69134 -7.36571 0
M  V30 4539 N 421.258 1.00505 1.21394 0
M  V30 4540 C 422.188 0.585684 2.26035 0
M  V30 4541 C 423.169 -0.393525 1.65485 0
M  V30 4542 O 424.354 -0.281497 1.92149 0
M  V30 4543 C 421.484 -0.0884283 3.47187 0
M  V30 4544 C 420.438 0.810567 4.20254 0
M  V30 4545 C 419.764 0.00286382 5.347 0
M  V30 4546 C 421.064 2.1132 4.77641 0
M  V30 4547 H 422.758 1.46039 2.61368 0
M  V30 4548 H 420.304 0.703648 1.25638 0
M  V30 4549 H 422.257 -0.393286 4.19561 0
M  V30 4550 H 420.981 -0.997766 3.10986 0
M  V30 4551 H 419.64 1.09925 3.49731 0
M  V30 4552 H 419.288 -0.907765 4.94741 0
M  V30 4553 H 418.988 0.601444 5.84514 0
M  V30 4554 H 420.512 -0.295808 6.09883 0
M  V30 4555 H 421.926 1.87148 5.41893 0
M  V30 4556 H 420.323 2.66164 5.37845 0
M  V30 4557 H 421.393 2.78393 3.9702 0
M  V30 4558 N 422.737 -1.36956 0.779787 0
M  V30 4559 C 424.014 -1.93697 0.272156 0
M  V30 4560 C 424.394 -1.71267 -1.23413 0
M  V30 4561 O 423.742 -1.06607 -2.02107 0
M  V30 4562 C 423.952 -3.42812 0.654291 0
M  V30 4563 C 425.3 -4.19921 0.628602 0
M  V30 4564 O 426.324 -3.51209 0.594172 0
M  V30 4565 O 425.183 -5.42465 0.662864 0
M  V30 4566 H 422.277 -0.824447 0.0649286 0
M  V30 4567 H 424.823 -1.46196 0.861682 0
M  V30 4568 H 423.595 -3.52754 1.69353 0
M  V30 4569 H 423.218 -3.97582 0.0381369 0
M  V30 4570 N 424.215 -0.530993 -1.48385 0
M  V30 4571 C 425.178 0.220497 -2.28137 0
M  V30 4572 C 426.178 0.866851 -1.35434 0
M  V30 4573 O 427.368 0.726746 -1.58316 0
M  V30 4574 C 424.5 1.31921 -3.1434 0
M  V30 4575 H 425.693 -0.479714 -2.96038 0
M  V30 4576 H 423.246 -0.286968 -1.53643 0
M  V30 4577 H 423.981 2.05264 -2.51072 0
M  V30 4578 H 423.766 0.86085 -3.82533 0
M  V30 4579 H 425.256 1.84776 -3.74497 0
M  V30 4580 N 425.693 1.55336 -0.266172 0
M  V30 4581 C 426.656 2.20878 0.612001 0
M  V30 4582 C 427.656 1.18388 1.08816 0
M  V30 4583 O 428.846 1.4335 0.989774 0
M  V30 4584 C 425.978 2.86765 1.84332 0
M  V30 4585 H 427.171 2.99873 0.0398718 0
M  V30 4586 H 424.724 1.56291 -0.0167309 0
M  V30 4587 H 425.459 2.11759 2.45619 0
M  V30 4588 H 425.244 3.61862 1.5099 0
M  V30 4589 H 426.734 3.36867 2.46801 0
M  V30 4590 N 427.171 -0.0066808 1.57599 0
M  V30 4591 C 428.399 -0.704087 1.94551 0
M  V30 4592 C 428.814 -1.67677 0.867746 0
M  V30 4593 O 428.171 -1.8185 -0.153925 0
M  V30 4594 C 428.222 -1.44177 3.31505 0
M  V30 4595 O 427.943 -0.508097 4.35144 0
M  V30 4596 C 429.444 -2.23429 3.82876 0
M  V30 4597 H 426.664 -0.196523 0.641576 0
M  V30 4598 H 429.208 0.042453 2.04456 0
M  V30 4599 H 427.363 -2.13999 3.22929 0
M  V30 4600 H 427.777 -1.02782 5.14331 0
M  V30 4601 H 429.251 -2.70552 4.8115 0
M  V30 4602 H 429.728 -3.05818 3.15233 0
M  V30 4603 H 430.334 -1.58636 3.94607 0
M  V30 4604 N 428.649 -1.55105 -0.279332 0
M  V30 4605 C 429.581 -1.83952 -1.36727 0
M  V30 4606 C 430.594 -0.723642 -1.45833 0
M  V30 4607 O 431.783 -1.00141 -1.47763 0
M  V30 4608 C 428.883 -1.98183 -2.74912 0
M  V30 4609 C 428.056 -3.28787 -2.88475 0
M  V30 4610 C 427.115 -3.33162 -4.07295 0
M  V30 4611 O 426.141 -4.06576 -3.98353 0
M  V30 4612 N 427.343 -2.60109 -5.18964 0
M  V30 4613 H 430.108 -2.77853 -1.12328 0
M  V30 4614 H 427.669 -1.54945 -0.469442 0
M  V30 4615 H 429.661 -1.98488 -3.52682 0
M  V30 4616 H 428.231 -1.11177 -2.92162 0
M  V30 4617 H 427.451 -3.41075 -1.97641 0
M  V30 4618 H 428.739 -4.14933 -2.94463 0
M  V30 4619 H 428.137 -2.00136 -5.29115 0
M  V30 4620 H 426.694 -2.66143 -5.94988 0
M  V30 4621 N 430.127 0.543554 -1.4793 0
M  V30 4622 C 431.376 1.29649 -1.54512 0
M  V30 4623 C 431.689 1.94382 -0.217973 0
M  V30 4624 O 432.895 2.71017 -0.161908 0
M  V30 4625 C 431.351 2.35175 -2.72435 0
M  V30 4626 C 430.959 1.76572 -4.11736 0
M  V30 4627 C 432.703 3.11564 -2.8832 0
M  V30 4628 C 430.61 2.79958 -5.20939 0
M  V30 4629 H 429.54 0.487541 -0.57517 0
M  V30 4630 H 432.191 0.575708 -1.74235 0
M  V30 4631 H 430.573 3.10229 -2.46118 0
M  V30 4632 H 431.747 1.07799 -4.48013 0
M  V30 4633 H 430.062 1.12722 -4.00852 0
M  V30 4634 H 432.659 3.88794 -3.67074 0
M  V30 4635 H 433.002 3.66594 -1.97268 0
M  V30 4636 H 433.535 2.43623 -3.14472 0
M  V30 4637 H 430.274 2.29766 -6.13912 0
M  V30 4638 H 429.794 3.47101 -4.89164 0
M  V30 4639 H 431.473 3.43198 -5.48474 0
M  V30 4640 N 431.605 1.3629 0.791371 0
M  V30 4641 C 432.852 1.30412 1.54916 0
M  V30 4642 C 433.18 -0.117162 1.94147 0
M  V30 4643 O 432.435 -1.08599 1.62803 0
M  V30 4644 C 432.734 2.17068 2.8393 0
M  V30 4645 C 432.4 3.65645 2.63846 0
M  V30 4646 C 431.062 4.0614 2.58077 0
M  V30 4647 C 433.414 4.59855 2.45322 0
M  V30 4648 C 430.742 5.3899 2.31748 0
M  V30 4649 C 433.094 5.9292 2.2052 0
M  V30 4650 C 431.758 6.32542 2.13183 0
M  V30 4651 H 431.028 0.47721 0.566879 0
M  V30 4652 H 433.675 1.68325 0.913172 0
M  V30 4653 H 431.98 1.72085 3.51986 0
M  V30 4654 H 433.677 2.09846 3.4171 0
M  V30 4655 H 430.267 3.33518 2.69191 0
M  V30 4656 H 434.451 4.29443 2.48782 0
M  V30 4657 H 429.707 5.68672 2.24548 0
M  V30 4658 H 433.881 6.65487 2.05182 0
M  V30 4659 H 431.508 7.35412 1.92544 0
M  V30 4660 N 433.083 -1.0153 1.20538 0
M  V30 4661 C 434.33 -1.75149 1.01633 0
M  V30 4662 C 434.658 -1.89189 -0.451399 0
M  V30 4663 O 433.913 -1.41551 -1.35136 0
M  V30 4664 C 434.212 -3.17213 1.64654 0
M  V30 4665 C 433.878 -3.23146 3.14464 0
M  V30 4666 C 432.54 -3.24472 3.55347 0
M  V30 4667 C 434.892 -3.21207 4.10458 0
M  V30 4668 C 432.22 -3.21532 4.90748 0
M  V30 4669 C 434.572 -3.19808 5.45807 0
M  V30 4670 C 433.236 -3.19439 5.86102 0
M  V30 4671 H 432.506 -0.640914 0.3719 0
M  V30 4672 H 435.153 -1.19071 1.49981 0
M  V30 4673 H 433.458 -3.76457 1.08571 0
M  V30 4674 H 435.155 -3.72871 1.4754 0
M  V30 4675 H 431.745 -3.2285 2.81897 0
M  V30 4676 H 435.929 -3.19351 3.79906 0
M  V30 4677 H 431.185 -3.19578 5.21229 0
M  V30 4678 H 435.359 -3.1726 6.19935 0
M  V30 4679 H 432.986 -3.16915 6.90991 0
M  V30 4680 N 434.561 -1.01147 -1.20859 0
M  V30 4681 C 435.786 -0.716698 -1.94623 0
M  V30 4682 C 436.211 0.715415 -1.73964 0
M  V30 4683 O 435.569 1.49157 -1.03062 0
M  V30 4684 C 435.617 -1.0513 -3.44935 0
M  V30 4685 O 434.721 -0.160131 -4.12089 0
M  V30 4686 H 434.062 -0.266404 -0.608214 0
M  V30 4687 H 436.592 -1.35346 -1.53436 0
M  V30 4688 H 436.602 -1.00086 -3.95533 0
M  V30 4689 H 435.277 -2.09475 -3.59295 0
M  V30 4690 H 433.854 -0.267657 -3.71938 0
M  V30 4691 N 436.039 1.36541 -0.78704 0
M  V30 4692 C 437.269 2.03266 -0.369662 0
M  V30 4693 C 437.677 1.59481 1.01796 0
M  V30 4694 O 437.02 0.778612 1.66383 0
M  V30 4695 C 437.082 3.57779 -0.351371 0
M  V30 4696 C 436.746 4.24756 -1.68617 0
M  V30 4697 C 437.743 4.47811 -2.64124 0
M  V30 4698 C 435.428 4.62277 -1.96481 0
M  V30 4699 C 437.422 5.07464 -3.85693 0
M  V30 4700 C 435.109 5.21649 -3.18317 0
M  V30 4701 C 436.107 5.44182 -4.12741 0
M  V30 4702 O 435.795 6.02307 -5.32429 0
M  V30 4703 H 435.527 0.658977 -0.150751 0
M  V30 4704 H 438.081 1.75548 -1.0664 0
M  V30 4705 H 436.311 3.84606 0.401847 0
M  V30 4706 H 438 4.05879 0.0410147 0
M  V30 4707 H 438.766 4.19221 -2.43883 0
M  V30 4708 H 434.645 4.44065 -1.23805 0
M  V30 4709 H 438.189 5.24968 -4.59407 0
M  V30 4710 H 434.086 5.49664 -3.38437 0
M  V30 4711 H 434.854 6.20775 -5.33461 0
M  V30 4712 N 437.518 0.538854 1.48102 0
M  V30 4713 C 438.766 0.00798599 2.02098 0
M  V30 4714 C 439.087 -1.33922 1.41739 0
M  V30 4715 O 438.357 -1.86932 0.585934 0
M  V30 4716 H 436.937 -3.62179e-05 0.747 0
M  V30 4717 H 439.599 0.7047 1.81714 0
M  V30 4718 H 438.695 -0.0937672 3.11959 0
M  V30 4719 N 438.996 -1.55193 0.274407 0
M  V30 4720 C 439.926 -2.25471 -0.607032 0
M  V30 4721 C 440.907 -1.24461 -1.15946 0
M  V30 4722 O 442.092 -1.53179 -1.19373 0
M  V30 4723 C 439.222 -2.97526 -1.79153 0
M  V30 4724 C 438.176 -4.05459 -1.37067 0
M  V30 4725 C 437.502 -4.65084 -2.6382 0
M  V30 4726 C 438.802 -5.19691 -0.521389 0
M  V30 4727 H 440.496 -2.99393 -0.0209343 0
M  V30 4728 H 438.042 -1.43997 -0.00862866 0
M  V30 4729 H 439.995 -3.45402 -2.41404 0
M  V30 4730 H 438.719 -2.21138 -2.40344 0
M  V30 4731 H 437.378 -3.58393 -0.771355 0
M  V30 4732 H 437.026 -3.85365 -3.23268 0
M  V30 4733 H 436.726 -5.37961 -2.36372 0
M  V30 4734 H 438.25 -5.15708 -3.26921 0
M  V30 4735 H 439.664 -5.63623 -1.04889 0
M  V30 4736 H 438.061 -5.99126 -0.341825 0
M  V30 4737 H 439.131 -4.82713 0.46 0
M  V30 4738 N 440.474 -0.00167713 -1.576 0
M  V30 4739 C 441.722 0.681471 -1.90264 0
M  V30 4740 C 442.043 1.7422 -0.875924 0
M  V30 4741 O 441.313 1.95709 0.0864412 0
M  V30 4742 H 439.893 0.254696 -0.702239 0
M  V30 4743 H 442.555 -0.0429996 -1.94853 0
M  V30 4744 H 441.651 1.15166 -2.90075 0
M  V30 4745 N 441.952 1.55251 0.271103 0
M  V30 4746 C 442.882 1.9127 1.33933 0
M  V30 4747 C 443.863 0.77478 1.5143 0
M  V30 4748 O 445.048 1.03307 1.64442 0
M  V30 4749 C 442.178 2.18627 2.69851 0
M  V30 4750 C 441.132 3.34442 2.67081 0
M  V30 4751 C 440.458 3.47284 4.06569 0
M  V30 4752 C 441.758 4.70784 2.26185 0
M  V30 4753 H 443.452 2.80744 1.04035 0
M  V30 4754 H 440.998 1.35077 0.499017 0
M  V30 4755 H 442.951 2.42413 3.44694 0
M  V30 4756 H 441.675 1.25955 3.01335 0
M  V30 4757 H 440.334 3.10627 1.94695 0
M  V30 4758 H 439.982 2.52074 4.35279 0
M  V30 4759 H 439.682 4.25152 4.0561 0
M  V30 4760 H 441.206 3.73363 4.83148 0
M  V30 4761 H 442.62 4.94102 2.90751 0
M  V30 4762 H 441.017 5.51582 2.36384 0
M  V30 4763 H 442.087 4.69478 1.21319 0
M  V30 4764 N 443.43 -0.535701 1.48216 0
M  V30 4765 C 444.678 -1.28928 1.55634 0
M  V30 4766 C 444.999 -1.93645 0.229514 0
M  V30 4767 O 444.269 -1.81038 -0.74846 0
M  V30 4768 H 442.849 -0.47884 0.573342 0
M  V30 4769 H 445.511 -0.623853 1.84646 0
M  V30 4770 H 444.607 -2.07157 2.33436 0
M  V30 4771 N 444.908 -1.36708 -0.784132 0
M  V30 4772 C 446.133 -1.34565 -1.5782 0
M  V30 4773 C 446.558 0.0695257 -1.87971 0
M  V30 4774 O 445.916 1.04302 -1.48293 0
M  V30 4775 C 445.964 -2.17952 -2.87279 0
M  V30 4776 O 445.068 -1.57563 -3.81114 0
M  V30 4777 H 444.409 -0.460337 -0.478524 0
M  V30 4778 H 446.939 -1.80064 -0.971495 0
M  V30 4779 H 446.949 -2.30721 -3.365 0
M  V30 4780 H 445.624 -3.20823 -2.64661 0
M  V30 4781 H 444.201 -1.53764 -3.39722 0
M  V30 4782 N 446.386 1.0089 -1.21074 0
M  V30 4783 C 447.316 2.1145 -0.990523 0
M  V30 4784 C 448.297 1.69897 0.0831699 0
M  V30 4785 O 449.482 1.94052 -0.0758853 0
M  V30 4786 C 446.612 3.42914 -0.550177 0
M  V30 4787 C 445.566 3.98244 -1.56799 0
M  V30 4788 C 444.892 5.25568 -0.984013 0
M  V30 4789 C 446.192 4.30752 -2.95381 0
M  V30 4790 H 447.886 2.3013 -1.91521 0
M  V30 4791 H 445.432 1.10592 -0.92225 0
M  V30 4792 H 447.385 4.19653 -0.383305 0
M  V30 4793 H 446.109 3.24014 0.41015 0
M  V30 4794 H 444.768 3.23621 -1.72236 0
M  V30 4795 H 444.416 5.02998 -0.0155216 0
M  V30 4796 H 444.116 5.63551 -1.66384 0
M  V30 4797 H 445.64 6.04955 -0.828378 0
M  V30 4798 H 447.054 4.98349 -2.8341 0
M  V30 4799 H 445.451 4.79869 -3.60341 0
M  V30 4800 H 446.521 3.39192 -3.46521 0
M  V30 4801 N 447.864 1.01787 1.20321 0
M  V30 4802 C 449.113 0.703249 1.89043 0
M  V30 4803 C 449.426 -0.770445 1.79787 0
M  V30 4804 O 450.632 -1.19767 2.43656 0
M  V30 4805 C 449.088 1.20749 3.3904 0
M  V30 4806 C 448.696 2.70817 3.56878 0
M  V30 4807 C 450.44 0.968352 4.13308 0
M  V30 4808 C 448.347 3.14716 5.00708 0
M  V30 4809 H 447.277 0.259354 0.707991 0
M  V30 4810 H 449.928 1.23072 1.36108 0
M  V30 4811 H 448.31 0.607989 3.91305 0
M  V30 4812 H 449.484 3.36327 3.14993 0
M  V30 4813 H 447.799 2.92888 2.95983 0
M  V30 4814 H 450.396 1.27173 5.19356 0
M  V30 4815 H 450.739 -0.095149 4.16191 0
M  V30 4816 H 451.272 1.53129 3.67146 0
M  V30 4817 H 448.011 4.20347 5.02979 0
M  V30 4818 H 447.531 2.53927 5.43398 0
M  V30 4819 H 449.21 3.07426 5.69296 0
M  V30 4820 N 449.342 -1.36122 0.79427 0
M  V30 4821 C 450.305 -2.28309 0.201889 0
M  V30 4822 C 451.305 -1.49041 -0.603603 0
M  V30 4823 O 452.495 -1.68964 -0.423888 0
M  V30 4824 C 449.627 -3.3321 -0.719978 0
M  V30 4825 H 450.82 -2.82208 1.01481 0
M  V30 4826 H 448.373 -1.45768 0.564037 0
M  V30 4827 H 449.108 -2.84475 -1.55706 0
M  V30 4828 H 448.893 -3.91835 -0.144266 0
M  V30 4829 H 450.383 -4.02044 -1.12916 0
M  V30 4830 N 450.82 -0.546701 -1.47814 0
M  V30 4831 C 451.75 0.195317 -2.32682 0
M  V30 4832 C 452.731 0.918981 -1.43139 0
M  V30 4833 O 453.916 0.901501 -1.72008 0
M  V30 4834 C 451.046 1.23237 -3.247 0
M  V30 4835 C 450 0.625818 -4.234 0
M  V30 4836 C 449.326 1.76674 -5.04669 0
M  V30 4837 C 450.626 -0.413515 -5.2066 0
M  V30 4838 H 452.32 -0.513184 -2.94969 0
M  V30 4839 H 449.866 -0.248241 -1.41844 0
M  V30 4840 H 451.819 1.75955 -3.82907 0
M  V30 4841 H 450.543 1.97067 -2.60446 0
M  V30 4842 H 449.202 0.120023 -3.66403 0
M  V30 4843 H 448.85 2.49383 -4.36826 0
M  V30 4844 H 448.55 1.36673 -5.71484 0
M  V30 4845 H 450.074 2.29738 -5.65732 0
M  V30 4846 H 451.488 0.0272042 -5.73294 0
M  V30 4847 H 449.885 -0.731825 -5.95621 0
M  V30 4848 H 450.955 -1.31325 -4.66778 0
M  V30 4849 N 452.299 1.55045 -0.282633 0
M  V30 4850 C 453.547 1.99365 0.331334 0
M  V30 4851 C 453.868 1.1725 1.55812 0
M  V30 4852 O 453.138 0.263871 1.94115 0
M  V30 4853 H 451.718 0.736397 0.125414 0
M  V30 4854 H 454.38 1.90964 -0.389711 0
M  V30 4855 H 453.476 3.0596 0.616036 0
M  V30 4856 N 453.777 0.010035 1.57597 0
M  V30 4857 C 455.002 -0.687021 1.95691 0
M  V30 4858 C 455.427 -1.65952 0.885519 0
M  V30 4859 O 454.785 -1.80633 -0.15543 0
M  V30 4860 C 454.833 -1.3864 3.32884 0
M  V30 4861 O 453.937 -2.50115 3.27897 0
M  V30 4862 H 453.278 -0.181989 0.638573 0
M  V30 4863 H 455.808 0.0662122 2.04493 0
M  V30 4864 H 455.818 -1.74754 3.6868 0
M  V30 4865 H 454.493 -0.673411 4.10412 0
M  V30 4866 H 453.07 -2.16253 3.03791 0
M  V30 4867 N 455.255 -1.55392 -0.262866 0
M  V30 4868 C 456.485 -1.80251 -1.00961 0
M  V30 4869 C 456.893 -0.58117 -1.80053 0
M  V30 4870 O 456.236 0.459427 -1.77862 0
M  V30 4871 C 456.298 -2.98207 -2.00781 0
M  V30 4872 C 455.962 -4.34856 -1.40533 0
M  V30 4873 C 456.959 -5.13459 -0.815853 0
M  V30 4874 C 454.644 -4.8153 -1.42948 0
M  V30 4875 C 456.638 -6.36875 -0.258562 0
M  V30 4876 C 454.325 -6.04899 -0.868334 0
M  V30 4877 C 455.323 -6.8241 -0.283884 0
M  V30 4878 O 455.011 -8.03451 0.268644 0
M  V30 4879 H 454.743 -0.604049 -0.303482 0
M  V30 4880 H 457.297 -2.03257 -0.295926 0
M  V30 4881 H 455.527 -2.70917 -2.75936 0
M  V30 4882 H 457.216 -3.10299 -2.61667 0
M  V30 4883 H 457.982 -4.78526 -0.789812 0
M  V30 4884 H 453.861 -4.21201 -1.87378 0
M  V30 4885 H 457.405 -6.97318 0.198257 0
M  V30 4886 H 453.302 -6.39312 -0.891649 0
M  V30 4887 H 454.07 -8.18346 0.158974 0
M  V30 4888 N 456.733 0.527833 -1.48498 0
M  V30 4889 C 457.681 1.65313 -1.63628 0
M  V30 4890 C 458.675 1.6177 -0.502676 0
M  V30 4891 O 459.881 1.66601 -0.681469 0
M  V30 4892 H 456.256 0.547518 -0.515488 0
M  V30 4893 H 458.227 1.49696 -2.58135 0
M  V30 4894 C 456.976 3.03576 -1.6952 0
M  V30 4895 H 456.299 3.06997 -2.56111 0
M  V30 4896 H 457.739 3.81923 -1.84149 0
M  V30 4897 C 456.198 3.34089 -0.43432 0
M  V30 4898 O 456.728 3.99151 0.451852 0
M  V30 4899 N 454.934 2.88991 -0.305368 0
M  V30 4900 H 454.481 2.36222 -1.02747 0
M  V30 4901 H 454.439 3.09776 0.537249 0
M  V30 4902 N 458.211 1.37122 0.776871 0
M  V30 4903 C 459.436 1.354 1.57104 0
M  V30 4904 C 459.861 -0.0595562 1.88006 0
M  V30 4905 O 459.219 -1.03514 1.48844 0
M  V30 4906 C 459.267 2.19472 2.8612 0
M  V30 4907 O 458.371 1.59582 3.80273 0
M  V30 4908 H 457.712 0.462869 0.476076 0
M  V30 4909 H 460.242 1.80577 0.961932 0
M  V30 4910 H 460.252 2.32502 3.35271 0
M  V30 4911 H 458.927 3.22222 2.62956 0
M  V30 4912 H 457.504 1.55564 3.38902 0
M  V30 4913 N 459.689 -1.00246 1.21608 0
M  V30 4914 C 460.936 -1.74061 1.03485 0
M  V30 4915 C 461.264 -1.89658 -0.431308 0
M  V30 4916 O 460.519 -1.42976 -1.33627 0
M  V30 4917 C 460.818 -3.15448 1.68009 0
M  V30 4918 C 460.484 -3.19792 3.17874 0
M  V30 4919 C 459.146 -3.20685 3.58768 0
M  V30 4920 C 461.498 -3.16835 4.13842 0
M  V30 4921 C 458.826 -3.16309 4.94131 0
M  V30 4922 C 461.178 -3.14001 5.49169 0
M  V30 4923 C 459.842 -3.13204 5.89457 0
M  V30 4924 H 459.112 -0.636934 0.378677 0
M  V30 4925 H 461.759 -1.17473 1.51236 0
M  V30 4926 H 460.064 -3.75284 1.12557 0
M  V30 4927 H 461.761 -3.71285 1.51487 0
M  V30 4928 H 458.351 -3.19842 2.85305 0
M  V30 4929 H 462.535 -3.15303 3.83272 0
M  V30 4930 H 457.791 -3.14032 5.24589 0
M  V30 4931 H 461.965 -3.10667 6.23265 0
M  V30 4932 H 459.592 -3.09568 6.94314 0
M  V30 4933 N 461.167 -1.02423 -1.1978 0
M  V30 4934 C 462.117 -0.571689 -2.20716 0
M  V30 4935 C 463.101 0.377077 -1.56419 0
M  V30 4936 O 464.293 0.198801 -1.7588 0
M  V30 4937 C 461.422 0.0808555 -3.43205 0
M  V30 4938 C 460.508 -0.890073 -4.14655 0
M  V30 4939 N 460.899 -2.05065 -4.62366 0
M  V30 4940 C 459.197 -0.71252 -4.40272 0
M  V30 4941 C 459.898 -2.66264 -5.17183 0
M  V30 4942 N 458.874 -1.94264 -5.07703 0
M  V30 4943 H 462.676 -1.45636 -2.55279 0
M  V30 4944 H 460.19 -0.890596 -1.35802 0
M  V30 4945 H 462.187 0.422654 -4.14752 0
M  V30 4946 H 460.847 0.961274 -3.10144 0
M  V30 4947 H 461.858 -2.43026 -4.57339 0
M  V30 4948 H 458.535 0.119199 -4.1733 0
M  V30 4949 H 459.925 -3.64526 -5.64421 0
M  V30 4950 N 462.645 1.35699 -0.801477 0
M  V30 4951 C 463.593 2.3177 -0.196317 0
M  V30 4952 C 464.587 1.56388 0.651081 0
M  V30 4953 O 465.793 1.71557 0.544815 0
M  V30 4954 H 462.168 0.750669 -0.0447189 0
M  V30 4955 H 464.139 2.8036 -1.02181 0
M  V30 4956 C 462.888 3.41671 0.644702 0
M  V30 4957 H 462.211 3.998 0.0019921 0
M  V30 4958 H 463.651 4.11184 1.0346 0
M  V30 4959 C 462.11 2.84271 1.80808 0
M  V30 4960 O 462.64 2.77408 2.9053 0
M  V30 4961 N 460.846 2.41391 1.61799 0
M  V30 4962 H 460.393 2.47173 0.725493 0
M  V30 4963 H 460.351 2.03334 2.39797 0
M  V30 4964 N 464.123 0.554532 1.47522 0
M  V30 4965 C 465.071 -0.207765 2.3167 0
M  V30 4966 C 466.065 -0.911914 1.4276 0
M  V30 4967 O 467.271 -0.833504 1.59539 0
M  V30 4968 H 463.646 -0.0858726 0.747081 0
M  V30 4969 H 465.617 0.521178 2.93813 0
M  V30 4970 C 464.366 -1.2263 3.25357 0
M  V30 4971 H 463.689 -0.693887 3.93732 0
M  V30 4972 H 465.129 -1.73062 3.87073 0
M  V30 4973 C 463.588 -2.27278 2.4869 0
M  V30 4974 O 464.118 -3.34156 2.22941 0
M  V30 4975 N 462.324 -2.01134 2.09746 0
M  V30 4976 H 461.871 -1.14232 2.30887 0
M  V30 4977 H 461.829 -2.71369 1.58765 0
M  V30 4978 N 465.601 -1.54893 0.290851 0
M  V30 4979 C 466.847 -2.0023 -0.321867 0
M  V30 4980 C 467.18 -1.179 -1.54316 0
M  V30 4981 O 466.455 -0.25293 -1.92848 0
M  V30 4982 C 466.738 -3.53456 -0.688515 0
M  V30 4983 C 466.591 -4.46532 0.541209 0
M  V30 4984 C 467.91 -4.13057 -1.51895 0
M  V30 4985 H 465.029 -0.727891 -0.115515 0
M  V30 4986 H 467.671 -1.85722 0.400931 0
M  V30 4987 H 465.821 -3.6595 -1.30433 0
M  V30 4988 H 467.493 -4.4596 1.17973 0
M  V30 4989 H 465.736 -4.17545 1.17636 0
M  V30 4990 H 466.407 -5.51475 0.240675 0
M  V30 4991 H 468.883 -4.03937 -0.99872 0
M  V30 4992 H 467.759 -5.20448 -1.74429 0
M  V30 4993 H 468.02 -3.64284 -2.50498 0
M  V30 4994 N 467.08 -0.0183926 -1.57589 0
M  V30 4995 C 468.31 0.67207 -1.95363 0
M  V30 4996 C 468.718 1.66807 -0.892872 0
M  V30 4997 O 468.061 1.83204 0.134958 0
M  V30 4998 C 468.123 1.44397 -3.29226 0
M  V30 4999 C 467.787 0.607511 -4.52944 0
M  V30 5000 C 468.784 -0.112657 -5.19778 0
M  V30 5001 C 466.469 0.548068 -4.99301 0
M  V30 5002 C 468.463 -0.881057 -6.31281 0
M  V30 5003 C 466.15 -0.224044 -6.10689 0
M  V30 5004 C 467.148 -0.937323 -6.76538 0
M  V30 5005 O 466.836 -1.6968 -7.85789 0
M  V30 5006 H 466.568 0.190925 -0.648478 0
M  V30 5007 H 469.122 -0.0711994 -2.05277 0
M  V30 5008 H 467.352 2.23214 -3.15773 0
M  V30 5009 H 469.041 2.02152 -3.51979 0
M  V30 5010 H 469.807 -0.0759998 -4.8494 0
M  V30 5011 H 465.686 1.09281 -4.4786 0
M  V30 5012 H 469.23 -1.43832 -6.82611 0
M  V30 5013 H 465.127 -0.262457 -6.44966 0
M  V30 5014 H 465.895 -1.61544 -8.024 0
M  V30 5015 N 468.558 1.5553 0.254621 0
M  V30 5016 C 469.974 1.4778 0.602753 0
M  V30 5017 C 470.174 0.707047 1.88688 0
M  V30 5018 O 469.23 0.233288 2.5142 0
M  V30 5019 C 470.543 2.92133 0.712648 0
M  V30 5020 C 472.091 3.02458 0.805488 0
M  V30 5021 C 472.566 4.48102 0.947009 0
M  V30 5022 N 474.057 4.52008 1.01207 0
M  V30 5023 C 474.792 5.61939 1.1407 0
M  V30 5024 N 474.288 6.81697 1.23536 0
M  V30 5025 N 476.081 5.49719 1.17325 0
M  V30 5026 H 468.232 2.04085 -0.588463 0
M  V30 5027 H 470.495 0.926229 -0.202001 0
M  V30 5028 H 470.201 3.51332 -0.160766 0
M  V30 5029 H 470.075 3.42187 1.58707 0
M  V30 5030 H 472.462 2.43344 1.66936 0
M  V30 5031 H 472.543 2.55627 -0.0939266 0
M  V30 5032 H 472.187 5.07824 0.087725 0
M  V30 5033 H 472.117 4.92607 1.86135 0
M  V30 5034 H 474.608 3.65749 0.950577 0
M  V30 5035 H 474.921 7.61228 1.33236 0
M  V30 5036 H 473.266 6.84473 1.20508 0
M  V30 5037 H 476.457 4.55095 1.09573 0
M  V30 5038 H 476.63 6.35432 1.27005 0
M  V30 5039 N 470.036 -0.519951 1.48776 0
M  V30 5040 C 471.313 -1.28123 1.47797 0
M  V30 5041 C 471.693 -2.10196 0.195157 0
M  V30 5042 O 471.041 -2.13167 -0.822925 0
M  V30 5043 C 471.251 -2.15413 2.74587 0
M  V30 5044 C 472.599 -2.75225 3.23321 0
M  V30 5045 O 473.623 -2.25694 2.75574 0
M  V30 5046 O 472.482 -3.65346 4.06429 0
M  V30 5047 H 469.576 -0.578793 0.590701 0
M  V30 5048 H 472.122 -0.535779 1.6102 0
M  V30 5049 H 470.894 -1.54617 3.59457 0
M  V30 5050 H 470.517 -2.97186 2.64132 0
M  V30 5051 N 471.514 -1.37532 -0.769588 0
M  V30 5052 C 472.739 -1.36231 -1.56384 0
M  V30 5053 C 473.164 0.0495849 -1.88035 0
M  V30 5054 O 472.522 1.02723 -1.49391 0
M  V30 5055 C 472.57 -2.20986 -2.84952 0
M  V30 5056 O 471.674 -1.61597 -3.79421 0
M  V30 5057 H 471.015 -0.465387 -0.473615 0
M  V30 5058 H 473.545 -1.81085 -0.952342 0
M  V30 5059 H 473.555 -2.34277 -3.34034 0
M  V30 5060 H 472.23 -3.23612 -2.61243 0
M  V30 5061 H 470.807 -1.57359 -3.38072 0
M  V30 5062 N 472.992 0.995999 -1.22138 0
M  V30 5063 C 474.241 1.72928 -1.03821 0
M  V30 5064 C 474.554 1.90872 0.427444 0
M  V30 5065 O 475.76 2.61496 0.730212 0
M  V30 5066 C 474.216 3.11124 -1.80913 0
M  V30 5067 C 473.824 3.01122 -3.31707 0
M  V30 5068 C 475.568 3.8852 -1.71035 0
M  V30 5069 C 473.475 4.34453 -4.01253 0
M  V30 5070 H 472.405 0.648376 -0.384869 0
M  V30 5071 H 475.056 1.11213 -1.45959 0
M  V30 5072 H 473.438 3.73503 -1.31573 0
M  V30 5073 H 474.612 2.47926 -3.88419 0
M  V30 5074 H 472.927 2.3721 -3.42228 0
M  V30 5075 H 475.524 4.872 -2.20318 0
M  V30 5076 H 475.867 4.1087 -0.670196 0
M  V30 5077 H 476.4 3.32812 -2.17902 0
M  V30 5078 H 473.139 4.17303 -5.05508 0
M  V30 5079 H 472.659 4.87574 -3.49331 0
M  V30 5080 H 474.338 5.03215 -4.06674 0
M  V30 5081 N 474.47 1.03057 1.19235 0
M  V30 5082 C 475.719 0.72326 1.88287 0
M  V30 5083 C 476.032 -0.751333 1.80594 0
M  V30 5084 O 477.238 -1.17176 2.44912 0
M  V30 5085 C 475.694 1.24338 3.3774 0
M  V30 5086 C 475.302 2.74587 3.53986 0
M  V30 5087 C 477.046 1.01213 4.12257 0
M  V30 5088 C 474.953 3.20009 4.97341 0
M  V30 5089 H 473.883 0.266848 0.705201 0
M  V30 5090 H 476.534 1.24509 1.34795 0
M  V30 5091 H 474.916 0.649457 3.90638 0
M  V30 5092 H 476.09 3.39649 3.11408 0
M  V30 5093 H 474.405 2.9601 2.9286 0
M  V30 5094 H 477.002 1.32675 5.17978 0
M  V30 5095 H 477.345 -0.051001 4.16269 0
M  V30 5096 H 477.878 1.57014 3.65501 0
M  V30 5097 H 474.617 4.25659 4.98493 0
M  V30 5098 H 474.137 2.59676 5.40674 0
M  V30 5099 H 475.816 3.13447 5.66003 0
M  V30 5100 N 475.948 -1.35272 0.808662 0
M  V30 5101 C 477.194 -1.99003 0.390581 0
M  V30 5102 C 477.527 -1.63999 -1.0401 0
M  V30 5103 O 476.802 -0.904368 -1.72196 0
M  V30 5104 C 477.085 -3.55454 0.576566 0
M  V30 5105 C 476.938 -4.00249 2.05233 0
M  V30 5106 C 478.257 -4.401 0.00354277 0
M  V30 5107 H 475.376 -0.722917 0.143388 0
M  V30 5108 H 478.018 -1.6039 1.01858 0
M  V30 5109 H 476.168 -3.88477 0.0419766 0
M  V30 5110 H 477.84 -3.77626 2.64946 0
M  V30 5111 H 476.083 -3.51082 2.54801 0
M  V30 5112 H 476.754 -5.0911 2.13333 0
M  V30 5113 H 479.23 -4.13548 0.460117 0
M  V30 5114 H 478.106 -5.48656 0.163575 0
M  V30 5115 H 478.367 -4.28444 -1.09032 0
M  V30 5116 N 477.426 -0.562348 -1.47226 0
M  V30 5117 C 478.666 -0.0426374 -2.04356 0
M  V30 5118 C 479.03 1.28487 -1.42671 0
M  V30 5119 O 480.231 1.89259 -1.90878 0
M  V30 5120 C 478.502 0.0433826 -3.57374 0
M  V30 5121 S 480.061 0.508472 -4.35844 0
M  V30 5122 H 476.879 -0.0276234 -0.710463 0
M  V30 5123 H 479.481 -0.750245 -1.80531 0
M  V30 5124 H 478.185 -0.927072 -3.99792 0
M  V30 5125 H 477.716 0.774387 -3.85703 0
M  V30 5126 H 479.731 1.76719 -4.63665 0
M  V30 5127 N 478.904 1.54736 -0.299062 0
M  V30 5128 C 480.144 2.0201 0.31168 0
M  V30 5129 C 480.508 1.18281 1.5124 0
M  V30 5130 O 481.709 1.55243 2.19438 0
M  V30 5131 C 479.98 3.5123 0.661227 0
M  V30 5132 S 481.539 4.20467 1.2551 0
M  V30 5133 H 478.357 0.704523 0.0957517 0
M  V30 5134 H 480.959 1.90791 -0.426482 0
M  V30 5135 H 479.663 4.09804 -0.221171 0
M  V30 5136 H 479.194 3.66481 1.43023 0
M  V30 5137 H 481.209 4.26083 2.54298 0
M  V30 5138 N 480.382 0.0267497 1.57577 0
M  V30 5139 C 481.631 -0.651736 1.9088 0
M  V30 5140 C 481.944 -1.73427 0.904576 0
M  V30 5141 O 483.15 -2.46923 1.12877 0
M  V30 5142 C 481.606 -1.21048 3.38933 0
M  V30 5143 C 481.214 -0.161362 4.47709 0
M  V30 5144 C 482.958 -1.86562 3.81307 0
M  V30 5145 C 480.865 -0.731611 5.86857 0
M  V30 5146 H 479.795 -0.247198 0.712326 0
M  V30 5147 H 482.446 0.0916641 1.83271 0
M  V30 5148 H 480.828 -2.00542 3.41466 0
M  V30 5149 H 482.002 0.61094 4.56732 0
M  V30 5150 H 480.317 0.394877 4.14523 0
M  V30 5151 H 482.914 -2.30178 4.8262 0
M  V30 5152 H 483.257 -2.70735 3.16241 0
M  V30 5153 H 483.79 -1.13762 3.81186 0
M  V30 5154 H 480.529 0.0719329 6.55461 0
M  V30 5155 H 480.049 -1.47245 5.81445 0
M  V30 5156 H 481.728 -1.22208 6.35354 0
M  V30 5157 N 481.861 -1.55662 -0.24637 0
M  V30 5158 C 482.809 -1.91186 -1.3248 0
M  V30 5159 C 483.803 -0.790996 -1.49799 0
M  V30 5160 O 485.009 -0.975617 -1.51267 0
M  V30 5161 H 481.384 -0.607207 -0.443626 0
M  V30 5162 H 483.355 -2.81221 -0.997853 0
M  V30 5163 C 482.104 -2.22349 -2.67313 0
M  V30 5164 H 481.427 -3.08097 -2.54786 0
M  V30 5165 H 482.867 -2.51107 -3.41645 0
M  V30 5166 C 481.326 -1.04001 -3.20446 0
M  V30 5167 O 481.856 -0.28828 -4.00664 0
M  V30 5168 N 480.062 -0.830494 -2.7848 0
M  V30 5169 H 479.609 -1.4435 -2.13356 0
M  V30 5170 H 479.567 -0.0403258 -3.14374 0
M  V30 5171 N 483.339 0.512053 -1.4905 0
M  V30 5172 C 484.564 1.2959 -1.6193 0
M  V30 5173 C 484.989 1.85906 -0.286454 0
M  V30 5174 O 484.347 1.65312 0.744426 0
M  V30 5175 C 484.395 2.40987 -2.68249 0
M  V30 5176 O 483.499 3.44531 -2.26654 0
M  V30 5177 H 482.84 0.383053 -0.542371 0
M  V30 5178 H 485.37 0.614231 -1.95162 0
M  V30 5179 H 485.38 2.86913 -2.90078 0
M  V30 5180 H 484.055 1.99361 -3.65004 0
M  V30 5181 H 482.632 3.046 -2.15112 0
M  V30 5182 N 484.817 1.37938 0.762283 0
M  V30 5183 C 486.057 1.35076 1.53407 0
M  V30 5184 C 486.421 -0.061546 1.91901 0
M  V30 5185 O 487.622 -0.214973 2.67939 0
M  V30 5186 C 485.893 2.27206 2.75884 0
M  V30 5187 S 487.452 2.42283 3.65848 0
M  V30 5188 H 484.27 0.479387 0.52508 0
M  V30 5189 H 486.872 1.7378 0.895586 0
M  V30 5190 H 485.576 3.28724 2.457 0
M  V30 5191 H 485.107 1.8962 3.44685 0
M  V30 5192 H 487.122 1.64044 4.68299 0
M  V30 5193 N 486.295 -0.989507 1.22664 0
M  V30 5194 C 487.523 -1.76496 1.07967 0
M  V30 5195 C 487.938 -1.85148 -0.369543 0
M  V30 5196 O 487.295 -1.32408 -1.25596 0
M  V30 5197 C 487.346 -3.19642 1.68853 0
M  V30 5198 O 487.067 -3.11453 3.08105 0
M  V30 5199 C 488.568 -4.13621 1.59475 0
M  V30 5200 H 485.788 -0.55418 0.378319 0
M  V30 5201 H 488.332 -1.24378 1.62328 0
M  V30 5202 H 486.487 -3.68816 1.18547 0
M  V30 5203 H 486.901 -4.01499 3.37489 0
M  V30 5204 H 488.375 -5.11801 2.06795 0
M  V30 5205 H 488.852 -4.35718 0.55191 0
M  V30 5206 H 489.458 -3.70346 2.09103 0
M  V30 5207 N 487.773 -1.03688 -1.18687 0
M  V30 5208 C 488.998 -0.757819 -1.93059 0
M  V30 5209 C 489.423 0.678353 -1.75442 0
M  V30 5210 O 488.781 1.46938 -1.06203 0
M  V30 5211 C 488.829 -1.12423 -3.42627 0
M  V30 5212 O 487.933 -0.247505 -4.11657 0
M  V30 5213 H 487.274 -0.279245 -0.602427 0
M  V30 5214 H 489.804 -1.3857 -1.5053 0
M  V30 5215 H 489.814 -1.08454 -3.93322 0
M  V30 5216 H 488.489 -2.17049 -3.54771 0
M  V30 5217 H 487.066 -0.34649 -3.71287 0
M  V30 5218 N 489.251 1.34841 -0.815825 0
M  V30 5219 C 490.184 2.27504 -0.178062 0
M  V30 5220 C 491.162 1.48542 0.661373 0
M  V30 5221 O 492.346 1.77779 0.626653 0
M  V30 5222 C 489.473 3.30246 0.752002 0
M  V30 5223 C 488.519 4.26499 -0.00899172 0
M  V30 5224 S 489.352 5.18169 -1.35134 0
M  V30 5225 C 490.508 6.24449 -0.42596 0
M  V30 5226 H 490.741 2.81248 -0.963684 0
M  V30 5227 H 488.274 1.41781 -0.611355 0
M  V30 5228 H 490.232 3.89933 1.28308 0
M  V30 5229 H 488.893 2.75363 1.51109 0
M  V30 5230 H 488.086 4.99146 0.697766 0
M  V30 5231 H 487.688 3.7103 -0.470396 0
M  V30 5232 H 489.98 6.76404 0.385234 0
M  V30 5233 H 490.923 6.99156 -1.1219 0
M  V30 5234 H 491.331 5.64497 -0.0175461 0
M  V30 5235 N 490.729 0.570148 1.46925 0
M  V30 5236 C 491.976 0.0509529 2.02436 0
M  V30 5237 C 492.304 -1.30405 1.44308 0
M  V30 5238 O 491.559 -1.86493 0.593198 0
M  V30 5239 C 491.858 -0.0780336 3.57315 0
M  V30 5240 C 491.524 1.20775 4.34424 0
M  V30 5241 C 490.186 1.56004 4.5521 0
M  V30 5242 C 492.538 2.0592 4.78797 0
M  V30 5243 C 489.866 2.76201 5.17619 0
M  V30 5244 C 492.218 3.25332 5.42533 0
M  V30 5245 C 490.882 3.60859 5.61549 0
M  V30 5246 H 490.152 0.018645 0.740765 0
M  V30 5247 H 492.799 0.744262 1.76445 0
M  V30 5248 H 491.104 -0.854394 3.82371 0
M  V30 5249 H 492.801 -0.495312 3.97929 0
M  V30 5250 H 489.391 0.923469 4.18533 0
M  V30 5251 H 493.575 1.80008 4.62505 0
M  V30 5252 H 488.831 3.0388 5.30535 0
M  V30 5253 H 493.005 3.91586 5.75876 0
M  V30 5254 H 490.632 4.54088 6.09678 0
M  V30 5255 N 492.207 -1.54576 0.307264 0
M  V30 5256 C 493.17 -2.22423 -0.553224 0
M  V30 5257 C 494.17 -1.21231 -1.05639 0
M  V30 5258 O 495.36 -1.45923 -0.951419 0
M  V30 5259 C 492.492 -2.91552 -1.76664 0
M  V30 5260 H 493.685 -2.99874 0.0396484 0
M  V30 5261 H 491.238 -1.56192 0.0581629 0
M  V30 5262 H 491.973 -2.18196 -2.39918 0
M  V30 5263 H 491.758 -3.65738 -1.41343 0
M  V30 5264 H 493.248 -3.43292 -2.37783 0
M  V30 5265 N 493.685 -0.035106 -1.57561 0
M  V30 5266 C 494.933 0.64096 -1.91667 0
M  V30 5267 C 495.254 1.72323 -0.912681 0
M  V30 5268 O 494.524 1.95849 0.0449089 0
M  V30 5269 H 493.104 0.239743 -0.707483 0
M  V30 5270 H 495.766 -0.084321 -1.94718 0
M  V30 5271 H 494.862 1.08987 -2.92452 0
M  V30 5272 N 495.163 1.55791 0.238111 0
M  V30 5273 C 496.41 1.78033 0.964907 0
M  V30 5274 C 496.738 0.600984 1.84982 0
M  V30 5275 O 495.993 -0.41536 1.91241 0
M  V30 5276 C 496.292 3.05869 1.84875 0
M  V30 5277 C 495.958 4.36808 1.11846 0
M  V30 5278 C 494.62 4.72388 0.916662 0
M  V30 5279 C 496.972 5.17717 0.60151 0
M  V30 5280 C 494.3 5.86406 0.185756 0
M  V30 5281 C 496.652 6.32494 -0.115972 0
M  V30 5282 C 495.316 6.66688 -0.329168 0
M  V30 5283 H 494.586 0.651469 0.353085 0
M  V30 5284 H 497.233 1.90061 0.234318 0
M  V30 5285 H 495.538 2.88891 2.64668 0
M  V30 5286 H 497.235 3.20278 2.41294 0
M  V30 5287 H 493.825 4.08862 1.28569 0
M  V30 5288 H 498.009 4.90678 0.744932 0
M  V30 5289 H 493.265 6.11399 0.0101886 0
M  V30 5290 H 497.439 6.94425 -0.524127 0
M  V30 5291 H 495.066 7.54884 -0.897474 0
M  V30 5292 N 496.642 -0.504142 1.49319 0
M  V30 5293 C 497.888 -1.26033 1.58882 0
M  V30 5294 C 498.221 -1.92268 0.273274 0
M  V30 5295 O 497.496 -1.80567 -0.72291 0
M  V30 5296 C 497.779 -2.32976 2.7458 0
M  V30 5297 C 497.632 -1.71263 4.1592 0
M  V30 5298 C 498.951 -3.34561 2.85932 0
M  V30 5299 H 496.07 -0.456863 0.578312 0
M  V30 5300 H 498.712 -0.558965 1.81592 0
M  V30 5301 H 496.862 -2.92796 2.55348 0
M  V30 5302 H 498.534 -1.15294 4.4666 0
M  V30 5303 H 496.777 -1.01686 4.21714 0
M  V30 5304 H 497.448 -2.48816 4.92742 0
M  V30 5305 H 499.924 -2.84727 3.0343 0
M  V30 5306 H 498.8 -4.06754 3.68568 0
M  V30 5307 H 499.061 -3.96695 1.95154 0
M  V30 5308 N 498.12 -1.38341 -0.754957 0
M  V30 5309 C 499.369 -1.33791 -1.5094 0
M  V30 5310 C 499.682 0.0699267 -1.95475 0
M  V30 5311 O 500.888 0.237956 -2.70455 0
M  V30 5312 C 499.344 -2.34934 -2.72643 0
M  V30 5313 C 498.952 -3.81332 -2.35138 0
M  V30 5314 C 500.696 -2.39425 -3.50536 0
M  V30 5315 C 498.603 -4.74164 -3.53444 0
M  V30 5316 H 497.533 -0.497314 -0.566741 0
M  V30 5317 H 500.184 -1.63888 -0.825403 0
M  V30 5318 H 498.566 -1.97878 -3.43017 0
M  V30 5319 H 499.74 -4.27319 -1.7244 0
M  V30 5320 H 498.055 -3.79946 -1.70382 0
M  V30 5321 H 500.652 -3.0598 -4.38498 0
M  V30 5322 H 500.995 -1.41278 -3.91594 0
M  V30 5323 H 501.528 -2.75274 -2.87174 0
M  V30 5324 H 498.267 -5.73501 -3.17453 0
M  V30 5325 H 497.787 -4.3287 -4.15191 0
M  V30 5326 H 499.466 -4.92111 -4.20043 0
M  V30 5327 N 499.598 0.982988 -1.23187 0
M  V30 5328 C 500.845 1.72392 -1.06241 0
M  V30 5329 C 501.173 1.9032 0.40108 0
M  V30 5330 O 500.428 1.45084 1.31336 0
M  V30 5331 C 500.727 3.12736 -1.73006 0
M  V30 5332 C 500.393 3.14695 -3.22921 0
M  V30 5333 C 499.055 3.14937 -3.63824 0
M  V30 5334 C 501.407 3.10211 -4.1883 0
M  V30 5335 C 498.735 3.08408 -4.99101 0
M  V30 5336 C 501.087 3.05224 -5.54095 0
M  V30 5337 C 499.751 3.03787 -5.94365 0
M  V30 5338 H 499.021 0.630829 -0.388762 0
M  V30 5339 H 501.668 1.15053 -1.53085 0
M  V30 5340 H 499.973 3.73446 -1.18514 0
M  V30 5341 H 501.67 3.68828 -1.57374 0
M  V30 5342 H 498.26 3.15262 -2.90358 0
M  V30 5343 H 502.444 3.09166 -3.8824 0
M  V30 5344 H 497.7 3.05646 -5.29519 0
M  V30 5345 H 501.874 3.00712 -6.28128 0
M  V30 5346 H 499.501 2.98483 -6.99151 0
M  V30 5347 N 501.076 1.04316 1.18135 0
M  V30 5348 C 502.301 0.768047 1.92655 0
M  V30 5349 C 502.726 -0.66904 1.758 0
M  V30 5350 O 502.084 -1.46372 1.06981 0
M  V30 5351 C 502.132 1.14239 3.42026 0
M  V30 5352 O 501.236 0.269333 4.1152 0
M  V30 5353 H 500.577 0.282436 0.600937 0
M  V30 5354 H 503.107 1.39367 1.49793 0
M  V30 5355 H 503.117 1.10538 3.92741 0
M  V30 5356 H 501.792 2.18928 3.53615 0
M  V30 5357 H 500.369 0.366175 3.71098 0
M  V30 5358 N 502.554 -1.34406 0.822964 0
M  V30 5359 C 503.803 -1.97542 0.407458 0
M  V30 5360 C 504.116 -1.65973 -1.035 0
M  V30 5361 O 505.322 -2.22598 -1.55442 0
M  V30 5362 C 503.778 -3.53463 0.677623 0
M  V30 5363 C 503.386 -3.93925 2.1337 0
M  V30 5364 C 505.13 -4.23229 0.328284 0
M  V30 5365 C 503.037 -5.42759 2.34876 0
M  V30 5366 H 501.967 -0.739207 0.148623 0
M  V30 5367 H 504.618 -1.53248 1.00932 0
M  V30 5368 H 503 -3.96 0.00558965 0
M  V30 5369 H 504.174 -3.62494 2.8449 0
M  V30 5370 H 502.489 -3.37097 2.44448 0
M  V30 5371 H 505.086 -5.32659 0.466794 0
M  V30 5372 H 505.429 -4.09899 -0.727224 0
M  V30 5373 H 505.962 -3.86169 0.954896 0
M  V30 5374 H 502.701 -5.61075 3.38932 0
M  V30 5375 H 502.221 -5.75704 1.68299 0
M  V30 5376 H 503.9 -6.0944 2.17236 0
M  V30 5377 N 504.032 -0.577932 -1.46621 0
M  V30 5378 C 505.278 -0.0617793 -2.02706 0
M  V30 5379 C 505.611 1.29294 -1.44903 0
M  V30 5380 O 504.886 1.8461 -0.61232 0
M  V30 5381 C 505.169 0.00911824 -3.60099 0
M  V30 5382 C 505.022 -1.37416 -4.28295 0
M  V30 5383 C 506.341 0.712159 -4.343 0
M  V30 5384 H 503.46 -0.0239246 -0.736612 0
M  V30 5385 H 506.102 -0.744211 -1.74818 0
M  V30 5386 H 504.252 0.590292 -3.83989 0
M  V30 5387 H 505.924 -2.00013 -4.15683 0
M  V30 5388 H 504.167 -1.94319 -3.87843 0
M  V30 5389 H 504.838 -1.27707 -5.37024 0
M  V30 5390 H 507.314 0.218486 -4.15526 0
M  V30 5391 H 506.19 0.730782 -5.44014 0
M  V30 5392 H 506.451 1.77251 -4.05012 0
M  V30 5393 N 505.51 1.54411 -0.315457 0
M  V30 5394 C 506.758 2.00023 0.288971 0
M  V30 5395 C 507.079 1.20529 1.5329 0
M  V30 5396 O 506.349 0.304986 1.93511 0
M  V30 5397 H 504.929 0.738891 0.109766 0
M  V30 5398 H 507.591 1.90094 -0.430129 0
M  V30 5399 H 506.687 3.07198 0.550999 0
M  V30 5400 N 506.988 0.0434614 1.5754 0
M  V30 5401 C 508.235 -0.632035 1.92384 0
M  V30 5402 C 508.563 -1.71304 0.921157 0
M  V30 5403 O 507.818 -1.95583 -0.067744 0
M  V30 5404 C 508.117 -1.2738 3.3393 0
M  V30 5405 C 507.783 -0.321757 4.49751 0
M  V30 5406 C 506.445 -0.0597611 4.81163 0
M  V30 5407 C 508.797 0.331158 5.20147 0
M  V30 5408 C 506.125 0.862715 5.80322 0
M  V30 5409 C 508.477 1.24178 6.20292 0
M  V30 5410 C 507.141 1.51252 6.50138 0
M  V30 5411 H 506.411 -0.231278 0.703983 0
M  V30 5412 H 509.058 0.108294 1.91194 0
M  V30 5413 H 507.363 -2.08921 3.3145 0
M  V30 5414 H 509.06 -1.80326 3.58167 0
M  V30 5415 H 505.65 -0.53614 4.25233 0
M  V30 5416 H 509.834 0.141826 4.96097 0
M  V30 5417 H 505.09 1.08003 6.01785 0
M  V30 5418 H 509.264 1.75381 6.73954 0
M  V30 5419 H 506.891 2.22897 7.26788 0
M  V30 5420 N 508.466 -1.55915 -0.229846 0
M  V30 5421 C 509.399 -1.86734 -1.3117 0
M  V30 5422 C 510.377 -0.723947 -1.45595 0
M  V30 5423 O 511.561 -0.971462 -1.61539 0
M  V30 5424 C 508.688 -2.06707 -2.68309 0
M  V30 5425 C 507.734 -3.2938 -2.70944 0
M  V30 5426 S 508.567 -4.85547 -2.25842 0
M  V30 5427 C 509.723 -5.08546 -3.64873 0
M  V30 5428 H 509.956 -2.78204 -1.04832 0
M  V30 5429 H 507.489 -1.48243 -0.431681 0
M  V30 5430 H 509.447 -2.18898 -3.47267 0
M  V30 5431 H 508.108 -1.16049 -2.91876 0
M  V30 5432 H 507.301 -3.40374 -3.71701 0
M  V30 5433 H 506.903 -3.16004 -2.00044 0
M  V30 5434 H 509.195 -4.96935 -4.60502 0
M  V30 5435 H 510.138 -6.10465 -3.58801 0
M  V30 5436 H 510.546 -4.36314 -3.58176 0
M  V30 5437 N 509.944 0.496216 -1.49584 0
M  V30 5438 C 510.907 1.57952 -1.66084 0
M  V30 5439 C 511.907 1.51729 -0.53244 0
M  V30 5440 O 513.097 1.54796 -0.79899 0
M  V30 5441 C 510.229 2.97604 -1.66268 0
M  V30 5442 H 511.422 1.44649 -2.6271 0
M  V30 5443 H 508.975 0.7208 -1.38687 0
M  V30 5444 H 509.71 3.16378 -0.712432 0
M  V30 5445 H 509.495 3.03528 -2.4822 0
M  V30 5446 H 510.985 3.76301 -1.81073 0
M  V30 5447 N 511.423 1.38739 0.74761 0
M  V30 5448 C 512.373 1.32948 1.85226 0
M  V30 5449 C 513.357 0.212642 1.59489 0
M  V30 5450 O 514.549 0.449121 1.71207 0
M  V30 5451 C 511.678 1.16279 3.23008 0
M  V30 5452 C 510.764 2.32611 3.54617 0
M  V30 5453 N 511.155 3.58065 3.57244 0
M  V30 5454 C 509.453 2.25293 3.84914 0
M  V30 5455 C 510.154 4.34919 3.8629 0
M  V30 5456 N 509.13 3.64348 4.03425 0
M  V30 5457 H 512.932 2.27927 1.85544 0
M  V30 5458 H 510.446 1.32056 0.945253 0
M  V30 5459 H 512.443 1.10214 4.02068 0
M  V30 5460 H 511.103 0.222394 3.23937 0
M  V30 5461 H 512.114 3.91656 3.3886 0
M  V30 5462 H 508.791 1.39446 3.93524 0
M  V30 5463 H 510.181 5.43605 3.94896 0
M  V30 5464 N 512.901 -0.976442 1.23707 0
M  V30 5465 C 514.147 -1.72081 1.07312 0
M  V30 5466 C 514.48 -1.90275 -0.388476 0
M  V30 5467 O 513.755 -1.4579 -1.28746 0
M  V30 5468 C 514.038 -3.11675 1.80363 0
M  V30 5469 C 513.891 -3.01027 3.3422 0
M  V30 5470 C 515.21 -4.1117 1.5693 0
M  V30 5471 H 512.329 -0.624583 0.391236 0
M  V30 5472 H 514.971 -1.13649 1.52263 0
M  V30 5473 H 513.121 -3.61559 1.42153 0
M  V30 5474 H 514.793 -2.58637 3.81975 0
M  V30 5475 H 513.036 -2.3744 3.63049 0
M  V30 5476 H 513.707 -3.9988 3.80525 0
M  V30 5477 H 516.183 -3.7011 1.90151 0
M  V30 5478 H 515.059 -5.06928 2.10513 0
M  V30 5479 H 515.32 -4.392 0.505548 0
M  V30 5480 N 514.379 -1.04941 -1.1758 0
M  V30 5481 C 515.607 -0.778294 -1.91703 0
M  V30 5482 C 516.022 0.665697 -1.76675 0
M  V30 5483 O 515.379 1.45456 -1.10222 0
M  V30 5484 C 515.43 -1.14628 -3.42845 0
M  V30 5485 O 515.151 -2.53359 -3.57409 0
M  V30 5486 C 516.652 -0.900931 -4.34049 0
M  V30 5487 H 513.872 -0.283167 -0.608323 0
M  V30 5488 H 516.416 -1.39942 -1.49119 0
M  V30 5489 H 514.571 -0.569953 -3.83184 0
M  V30 5490 H 514.985 -2.67709 -4.51035 0
M  V30 5491 H 516.459 -1.20817 -5.38616 0
M  V30 5492 H 516.936 0.163966 -4.38894 0
M  V30 5493 H 517.542 -1.46097 -3.99419 0
M  V30 5494 N 515.857 1.33968 -0.830081 0
M  V30 5495 C 516.804 2.29387 -0.255008 0
M  V30 5496 C 517.774 1.53923 0.624243 0
M  V30 5497 O 518.959 1.82262 0.564372 0
M  V30 5498 C 516.099 3.4034 0.571209 0
M  V30 5499 C 515.212 4.30729 -0.331083 0
M  V30 5500 C 514.347 5.2879 0.505389 0
M  V30 5501 C 513.386 6.10819 -0.395843 0
M  V30 5502 N 512.523 7.00948 0.401979 0
M  V30 5503 H 517.363 2.77972 -1.07404 0
M  V30 5504 H 514.9 1.36785 -0.541133 0
M  V30 5505 H 516.858 4.03361 1.06562 0
M  V30 5506 H 515.488 2.9297 1.35529 0
M  V30 5507 H 514.54 3.68507 -0.943759 0
M  V30 5508 H 515.852 4.88181 -1.02377 0
M  V30 5509 H 515.006 5.97297 1.06399 0
M  V30 5510 H 513.745 4.71894 1.23155 0
M  V30 5511 H 512.75 5.41238 -0.966529 0
M  V30 5512 H 513.975 6.69797 -1.12023 0
M  V30 5513 H 511.921 6.46512 1.11168 0
M  V30 5514 H 511.838 7.55643 -0.232167 0
M  V30 5515 H 513.106 7.73774 0.943102 0
M  V30 5516 N 517.335 0.585699 1.46312 0
M  V30 5517 C 518.751 0.247607 1.57668 0
M  V30 5518 C 518.951 -1.25007 1.58037 0
M  V30 5519 O 518.007 -2.03196 1.49893 0
M  V30 5520 C 519.32 0.899456 2.86933 0
M  V30 5521 C 520.868 0.873326 3.00569 0
M  V30 5522 C 521.343 1.50477 4.32574 0
M  V30 5523 N 522.834 1.46925 4.3928 0
M  V30 5524 C 523.569 1.92719 5.40044 0
M  V30 5525 N 523.065 2.46499 6.47464 0
M  V30 5526 N 524.858 1.83617 5.31264 0
M  V30 5527 H 517.009 1.55841 1.44317 0
M  V30 5528 H 519.272 0.651564 0.688599 0
M  V30 5529 H 518.978 1.95313 2.92482 0
M  V30 5530 H 518.852 0.409476 3.74971 0
M  V30 5531 H 521.239 -0.171736 2.946 0
M  V30 5532 H 521.32 1.40136 2.13999 0
M  V30 5533 H 520.964 2.54905 4.39302 0
M  V30 5534 H 520.894 0.951944 5.17924 0
M  V30 5535 H 523.385 1.07616 3.62253 0
M  V30 5536 H 523.698 2.79291 7.20567 0
M  V30 5537 H 522.043 2.50526 6.48276 0
M  V30 5538 H 525.234 1.41358 4.46246 0
M  V30 5539 H 525.407 2.19622 6.09648 0
M  V30 5540 N 518.813 -1.54241 0.323641 0
M  V30 5541 C 520.038 -2.05452 -0.283605 0
M  V30 5542 C 520.463 -1.19823 -1.44997 0
M  V30 5543 O 519.821 -0.207358 -1.8011 0
M  V30 5544 C 519.869 -3.53823 -0.695795 0
M  V30 5545 O 518.973 -3.71134 -1.79815 0
M  V30 5546 H 518.314 -0.662024 -0.0511917 0
M  V30 5547 H 520.844 -1.99079 0.472073 0
M  V30 5548 H 520.854 -3.96094 -0.978434 0
M  V30 5549 H 519.529 -4.15602 0.157287 0
M  V30 5550 H 518.106 -3.40768 -1.51431 0
M  V30 5551 N 520.291 -0.0518155 -1.57515 0
M  V30 5552 C 521.54 0.621286 -1.91893 0
M  V30 5553 C 521.853 1.71966 -0.932052 0
M  V30 5554 O 523.059 2.45096 -1.16791 0
M  V30 5555 C 521.515 1.15641 -3.40816 0
M  V30 5556 C 521.123 0.0901146 -4.47909 0
M  V30 5557 C 522.867 1.80472 -3.84227 0
M  V30 5558 C 520.774 0.638154 -5.87947 0
M  V30 5559 H 519.704 0.235835 -0.716169 0
M  V30 5560 H 522.355 -0.120809 -1.83102 0
M  V30 5561 H 520.737 1.95084 -3.44613 0
M  V30 5562 H 521.911 -0.683525 -4.55702 0
M  V30 5563 H 520.226 -0.460774 -4.13843 0
M  V30 5564 H 522.823 2.22471 -4.86221 0
M  V30 5565 H 523.166 2.65669 -3.20508 0
M  V30 5566 H 523.699 1.07683 -3.82948 0
M  V30 5567 H 520.438 -0.176202 -6.55263 0
M  V30 5568 H 519.958 1.37976 -5.83714 0
M  V30 5569 H 521.637 1.12085 -6.37217 0
M  V30 5570 N 521.769 1.56035 0.221574 0
M  V30 5571 C 522.732 1.91584 1.2581 0
M  V30 5572 C 523.732 0.794425 1.39805 0
M  V30 5573 O 524.922 1.06217 1.38071 0
M  V30 5574 C 522.054 2.16663 2.63192 0
M  V30 5575 H 523.247 2.8429 0.954935 0
M  V30 5576 H 520.8 1.49316 0.461988 0
M  V30 5577 H 521.535 1.26508 2.98607 0
M  V30 5578 H 521.32 2.98358 2.5441 0
M  V30 5579 H 522.81 2.45262 3.37988 0
M  V30 5580 N 523.247 -0.488276 1.49845 0
M  V30 5581 C 524.524 -1.24959 1.50481 0
M  V30 5582 C 524.904 -2.09735 0.239698 0
M  V30 5583 O 524.252 -2.14865 -0.777524 0
M  V30 5584 C 524.462 -2.0954 2.79095 0
M  V30 5585 C 525.81 -2.68305 3.29086 0
M  V30 5586 O 526.834 -2.19797 2.80299 0
M  V30 5587 O 525.693 -3.56643 4.14087 0
M  V30 5588 H 522.787 -0.566133 0.602845 0
M  V30 5589 H 525.333 -0.501504 1.6212 0
M  V30 5590 H 524.105 -1.46958 3.62656 0
M  V30 5591 H 523.728 -2.91517 2.70377 0
M  V30 5592 N 524.725 -1.39134 -0.740242 0
M  V30 5593 C 525.971 -1.36273 -1.50192 0
M  V30 5594 C 526.304 0.0430136 -1.94152 0
M  V30 5595 O 525.579 1.00691 -1.66408 0
M  V30 5596 C 525.862 -2.33041 -2.74525 0
M  V30 5597 C 525.715 -3.82535 -2.36617 0
M  V30 5598 C 527.034 -2.27723 -3.76604 0
M  V30 5599 H 524.153 -0.496323 -0.544823 0
M  V30 5600 H 526.795 -1.70085 -0.846815 0
M  V30 5601 H 524.945 -2.04337 -3.30422 0
M  V30 5602 H 526.617 -4.21967 -1.86391 0
M  V30 5603 H 524.86 -3.99565 -1.68909 0
M  V30 5604 H 525.531 -4.45723 -3.2563 0
M  V30 5605 H 528.007 -2.53091 -3.30279 0
M  V30 5606 H 526.883 -2.97519 -4.61274 0
M  V30 5607 H 527.144 -1.28049 -4.2315 0
M  V30 5608 N 526.204 0.969867 -1.24223 0
M  V30 5609 C 527.167 2.04564 -1.03373 0
M  V30 5610 C 528.167 1.60798 0.00819206 0
M  V30 5611 O 529.357 1.72641 -0.232567 0
M  V30 5612 C 526.489 3.36163 -0.566343 0
M  V30 5613 H 527.682 2.24494 -1.98853 0
M  V30 5614 H 525.235 1.1448 -1.06415 0
M  V30 5615 H 525.97 3.21925 0.391751 0
M  V30 5616 H 525.755 3.69273 -1.31834 0
M  V30 5617 H 527.245 4.1526 -0.441435 0
M  V30 5618 N 527.682 1.05563 1.17022 0
M  V30 5619 C 528.645 0.664098 2.19368 0
M  V30 5620 C 529.645 -0.286358 1.5823 0
M  V30 5621 O 530.835 -0.069728 1.7406 0
M  V30 5622 C 527.967 -0.0239932 3.40892 0
M  V30 5623 H 529.16 1.57 2.55521 0
M  V30 5624 H 526.713 0.849964 1.31169 0
M  V30 5625 H 527.448 -0.942988 3.10287 0
M  V30 5626 H 527.233 0.659351 3.86516 0
M  V30 5627 H 528.723 -0.283909 4.16634 0
M  V30 5628 N 529.16 -1.33526 0.837174 0
M  V30 5629 C 530.385 -2.0258 0.444545 0
M  V30 5630 C 530.81 -1.6258 -0.946006 0
M  V30 5631 O 530.168 -0.817548 -1.6182 0
M  V30 5632 C 530.216 -3.5605 0.571006 0
M  V30 5633 O 529.32 -4.10422 -0.403431 0
M  V30 5634 H 528.661 -0.638866 0.180958 0
M  V30 5635 H 531.191 -1.70462 1.13154 0
M  V30 5636 H 531.201 -4.05488 0.452024 0
M  V30 5637 H 529.876 -3.84509 1.58512 0
M  V30 5638 H 528.453 -3.72113 -0.242147 0
M  V30 5639 N 530.638 -0.59345 -1.46 0
M  V30 5640 C 531.886 -0.082988 -2.0193 0
M  V30 5641 C 532.207 1.28569 -1.46612 0
M  V30 5642 O 531.477 1.84629 -0.654909 0
M  V30 5643 H 530.057 -0.0276882 -0.746487 0
M  V30 5644 H 532.719 -0.771657 -1.78973 0
M  V30 5645 H 531.815 -0.022079 -3.12092 0
M  V30 5646 N 532.116 1.54067 -0.331816 0
M  V30 5647 C 533.527 1.86059 0.15454 0
M  V30 5648 C 533.878 1.25331 1.50952 0
M  V30 5649 O 533.003 0.562441 2.08963 0
M  V30 5650 C 533.598 3.37581 0.287192 0
M  V30 5651 C 532.157 3.69493 0.717773 0
M  V30 5652 C 531.304 2.76863 -0.155569 0
M  V30 5653 H 534.255 1.48797 -0.55182 0
M  V30 5654 H 534.276 3.63744 1.11671 0
M  V30 5655 H 533.788 3.81751 -0.699131 0
M  V30 5656 H 531.889 3.3086 1.71354 0
M  V30 5657 H 532.002 4.76315 0.5158 0
M  V30 5658 H 530.366 2.51995 0.370213 0
M  V30 5659 H 531.149 3.23861 -1.13881 0
M  V30 5660 N 533.594 0.0601682 1.57485 0
M  V30 5661 C 534.842 -0.610386 1.92662 0
M  V30 5662 C 535.163 -1.70849 0.939981 0
M  V30 5663 O 534.433 -1.95895 -0.0137455 0
M  V30 5664 H 533.013 -0.228457 0.711208 0
M  V30 5665 H 535.675 0.115288 1.94559 0
M  V30 5666 H 534.771 -1.0432 2.94149 0
M  V30 5667 N 535.072 -1.5615 -0.213296 0
M  V30 5668 C 536.002 -1.96109 -1.26742 0
M  V30 5669 C 536.983 -0.830448 -1.48451 0
M  V30 5670 O 538.168 -1.09339 -1.60495 0
M  V30 5671 C 535.298 -2.28492 -2.61551 0
M  V30 5672 C 534.252 -3.44124 -2.54485 0
M  V30 5673 C 533.578 -3.62134 -3.93399 0
M  V30 5674 C 534.878 -4.78855 -2.08556 0
M  V30 5675 H 536.572 -2.84412 -0.935434 0
M  V30 5676 H 534.118 -1.36836 -0.44854 0
M  V30 5677 H 536.071 -2.55039 -3.3546 0
M  V30 5678 H 534.795 -1.37052 -2.96453 0
M  V30 5679 H 533.454 -3.17639 -1.83033 0
M  V30 5680 H 533.102 -2.68055 -4.25623 0
M  V30 5681 H 532.802 -4.39913 -3.89551 0
M  V30 5682 H 534.326 -3.91038 -4.68958 0
M  V30 5683 H 535.74 -5.04552 -2.72213 0
M  V30 5684 H 534.137 -5.59975 -2.1575 0
M  V30 5685 H 535.207 -4.73657 -1.03811 0
M  V30 5686 N 536.55 0.480323 -1.50102 0
M  V30 5687 C 537.513 1.56181 -1.6775 0
M  V30 5688 C 538.513 1.51156 -0.548503 0
M  V30 5689 O 539.703 1.5394 -0.815363 0
M  V30 5690 C 536.835 2.95823 -1.69415 0
M  V30 5691 H 538.028 1.41855 -2.6423 0
M  V30 5692 H 535.581 0.70605 -1.39444 0
M  V30 5693 H 536.316 3.15604 -0.745948 0
M  V30 5694 H 536.101 3.00878 -2.51425 0
M  V30 5695 H 537.591 3.74359 -1.85054 0
M  V30 5696 N 538.028 1.39524 0.732853 0
M  V30 5697 C 539.275 1.36865 1.49246 0
M  V30 5698 C 539.603 -0.0347118 1.94469 0
M  V30 5699 O 538.858 -1.01596 1.67262 0
M  V30 5700 C 539.157 2.28916 2.74468 0
M  V30 5701 C 538.823 3.76506 2.481 0
M  V30 5702 C 537.485 4.16721 2.40619 0
M  V30 5703 C 539.837 4.69846 2.25598 0
M  V30 5704 C 537.165 5.48334 2.08679 0
M  V30 5705 C 539.517 6.01739 1.95174 0
M  V30 5706 C 538.181 6.41015 1.86163 0
M  V30 5707 H 537.451 0.500824 0.546129 0
M  V30 5708 H 540.098 1.72047 0.840958 0
M  V30 5709 H 538.403 1.86859 3.4437 0
M  V30 5710 H 540.1 2.2415 3.32502 0
M  V30 5711 H 536.69 3.44635 2.54803 0
M  V30 5712 H 540.874 4.39608 2.30344 0
M  V30 5713 H 536.13 5.77685 2.00226 0
M  V30 5714 H 540.304 6.73591 1.76771 0
M  V30 5715 H 537.931 7.42917 1.61179 0
M  V30 5716 N 539.506 -0.963266 1.24736 0
M  V30 5717 C 540.436 -2.07628 1.06832 0
M  V30 5718 C 541.417 -1.70088 -0.0200566 0
M  V30 5719 O 542.602 -1.93636 0.147854 0
M  V30 5720 C 539.732 -3.40636 0.677069 0
M  V30 5721 C 538.686 -3.9215 1.71471 0
M  V30 5722 C 538.012 -5.21553 1.1784 0
M  V30 5723 C 539.312 -4.19493 3.11164 0
M  V30 5724 H 541.006 -2.22864 1.9993 0
M  V30 5725 H 538.552 -1.07093 0.96266 0
M  V30 5726 H 540.505 -4.17941 0.538792 0
M  V30 5727 H 539.229 -3.25313 -0.289612 0
M  V30 5728 H 537.888 -3.17005 1.84128 0
M  V30 5729 H 537.536 -5.02593 0.202195 0
M  V30 5730 H 537.236 -5.56988 1.87185 0
M  V30 5731 H 538.76 -6.01463 1.05233 0
M  V30 5732 H 540.174 -4.87487 3.01711 0
M  V30 5733 H 538.571 -4.66165 3.77902 0
M  V30 5734 H 539.641 -3.26097 3.58871 0
M  V30 5735 N 540.985 -1.06182 -1.16461 0
M  V30 5736 C 541.948 -0.675723 -2.19013 0
M  V30 5737 C 542.948 0.277963 -1.58379 0
M  V30 5738 O 544.138 0.0604962 -1.74095 0
M  V30 5739 C 541.27 0.00591459 -3.40899 0
M  V30 5740 H 542.463 -1.58353 -2.54685 0
M  V30 5741 H 540.016 -0.856908 -1.30716 0
M  V30 5742 H 540.751 0.92652 -3.10783 0
M  V30 5743 H 540.536 -0.67984 -3.86161 0
M  V30 5744 H 542.026 0.26181 -4.16778 0
M  V30 5745 N 542.463 1.3308 -0.844243 0
M  V30 5746 C 543.693 2.01515 -0.455541 0
M  V30 5747 C 544.101 1.63655 0.949406 0
M  V30 5748 O 543.444 0.84848 1.62931 0
M  V30 5749 C 543.506 3.55967 -0.502801 0
M  V30 5750 C 543.17 4.17222 -1.86481 0
M  V30 5751 C 544.167 4.36205 -2.8288 0
M  V30 5752 C 541.852 4.53528 -2.15911 0
M  V30 5753 C 543.846 4.90649 -4.06869 0
M  V30 5754 C 541.533 5.07679 -3.40155 0
M  V30 5755 C 542.531 5.26186 -4.35451 0
M  V30 5756 O 542.219 5.79183 -5.57496 0
M  V30 5757 H 541.951 0.65199 -0.178565 0
M  V30 5758 H 544.505 1.70867 -1.1399 0
M  V30 5759 H 542.735 3.85965 0.23836 0
M  V30 5760 H 544.424 4.05688 -0.131169 0
M  V30 5761 H 545.19 4.085 -2.61444 0
M  V30 5762 H 541.069 4.38414 -1.42528 0
M  V30 5763 H 544.613 5.0501 -4.81259 0
M  V30 5764 H 540.51 5.34815 -3.61446 0
M  V30 5765 H 541.278 5.97591 -5.5931 0
M  V30 5766 N 543.941 0.601185 1.45683 0
M  V30 5767 C 545.352 0.179659 1.85834 0
M  V30 5768 C 545.703 -1.26189 1.50236 0
M  V30 5769 O 544.828 -1.95587 0.925987 0
M  V30 5770 C 545.423 0.319277 3.37292 0
M  V30 5771 C 543.982 -0.0475092 3.7637 0
M  V30 5772 C 543.129 0.646692 2.69654 0
M  V30 5773 H 546.08 0.808268 1.36575 0
M  V30 5774 H 546.101 -0.4503 3.77826 0
M  V30 5775 H 545.613 1.36855 3.6317 0
M  V30 5776 H 543.714 -1.0962 3.5611 0
M  V30 5777 H 543.827 0.34168 4.7788 0
M  V30 5778 H 542.191 0.0849971 2.54558 0
M  V30 5779 H 542.974 1.69797 2.98369 0
M  V30 5780 N 545.419 -1.53889 0.339982 0
M  V30 5781 C 546.329 -2.28604 -0.526988 0
M  V30 5782 C 547.345 -1.33578 -1.11503 0
M  V30 5783 O 548.521 -1.66612 -1.13148 0
M  V30 5784 C 545.586 -3.04164 -1.66389 0
M  V30 5785 C 544.647 -4.14809 -1.10599 0
M  V30 5786 C 543.88 -4.86756 -2.18871 0
M  V30 5787 O 544.103 -4.58343 -3.39526 0
M  V30 5788 O 543.037 -5.73289 -1.83366 0
M  V30 5789 H 546.863 -3.03594 0.0802707 0
M  V30 5790 H 544.448 -1.4903 0.105141 0
M  V30 5791 H 546.33 -3.51427 -2.32544 0
M  V30 5792 H 545.005 -2.32035 -2.25703 0
M  V30 5793 H 543.912 -3.71857 -0.409067 0
M  V30 5794 H 545.245 -4.89029 -0.557771 0
M  V30 5795 N 546.897 -0.0685191 -1.57451 0
M  V30 5796 C 547.86 0.885173 -2.11417 0
M  V30 5797 C 548.86 1.22853 -1.03748 0
M  V30 5798 O 550.05 1.16235 -1.2975 0
M  V30 5799 C 547.182 2.18964 -2.61281 0
M  V30 5800 H 548.375 0.417034 -2.96986 0
M  V30 5801 H 545.928 0.18014 -1.55258 0
M  V30 5802 H 546.663 2.70321 -1.79156 0
M  V30 5803 H 546.448 1.9534 -3.39977 0
M  V30 5804 H 547.938 2.87242 -3.0312 0
M  V30 5805 N 548.375 1.56261 0.205012 0
M  V30 5806 C 549.621 1.80306 0.9283 0
M  V30 5807 C 549.954 0.640932 1.83319 0
M  V30 5808 O 549.229 -0.359032 1.91158 0
M  V30 5809 C 549.512 3.14547 1.75306 0
M  V30 5810 C 549.365 4.41236 0.873562 0
M  V30 5811 C 550.684 3.45382 2.72762 0
M  V30 5812 H 547.803 0.655929 0.336044 0
M  V30 5813 H 550.445 1.88984 0.196211 0
M  V30 5814 H 548.595 3.0728 2.37721 0
M  V30 5815 H 550.267 4.60539 0.264887 0
M  V30 5816 H 548.51 4.33427 0.179773 0
M  V30 5817 H 549.181 5.31639 1.48541 0
M  V30 5818 H 551.657 3.52884 2.20481 0
M  V30 5819 H 550.533 4.40449 3.2756 0
M  V30 5820 H 550.794 2.68377 3.51321 0
M  V30 5821 N 549.853 -0.472356 1.50355 0
M  V30 5822 C 551.081 -1.24784 1.65035 0
M  V30 5823 C 551.496 -1.85837 0.333176 0
M  V30 5824 O 550.853 -1.69168 -0.68472 0
M  V30 5825 C 550.904 -2.35747 2.74054 0
M  V30 5826 O 550.625 -1.77197 4.00665 0
M  V30 5827 C 552.126 -3.26645 2.99696 0
M  V30 5828 H 549.346 -0.377432 0.554785 0
M  V30 5829 H 551.89 -0.563962 1.9657 0
M  V30 5830 H 550.045 -2.99912 2.45217 0
M  V30 5831 H 550.459 -2.5026 4.60945 0
M  V30 5832 H 551.933 -4.00718 3.79644 0
M  V30 5833 H 552.41 -3.8535 2.10718 0
M  V30 5834 H 553.016 -2.68218 3.3006 0
M  V30 5835 N 551.331 -1.39911 -0.725443 0
M  V30 5836 C 552.263 -1.35301 -1.85003 0
M  V30 5837 C 553.276 -0.260102 -1.60709 0
M  V30 5838 O 554.465 -0.519749 -1.70766 0
M  V30 5839 C 551.565 -1.08039 -3.21218 0
M  V30 5840 C 550.738 -2.28793 -3.7279 0
M  V30 5841 C 549.797 -1.97841 -4.87591 0
M  V30 5842 O 548.823 -2.70616 -5.00755 0
M  V30 5843 N 550.025 -0.950367 -5.72668 0
M  V30 5844 H 552.79 -2.32218 -1.89459 0
M  V30 5845 H 550.351 -1.34137 -0.90658 0
M  V30 5846 H 552.343 -0.853354 -3.95601 0
M  V30 5847 H 550.913 -0.198229 -3.11971 0
M  V30 5848 H 550.133 -2.67388 -2.8965 0
M  V30 5849 H 551.421 -3.09317 -4.03981 0
M  V30 5850 H 550.819 -0.347436 -5.64632 0
M  V30 5851 H 549.376 -0.783232 -6.47077 0
M  V30 5852 N 552.809 0.956637 -1.25245 0
M  V30 5853 C 553.739 2.07058 -1.07931 0
M  V30 5854 C 554.72 1.70096 0.0110361 0
M  V30 5855 O 555.905 1.93555 -0.158121 0
M  V30 5856 C 553.035 3.40272 -0.695124 0
M  V30 5857 C 551.989 3.91235 -1.73549 0
M  V30 5858 C 551.315 5.20921 -1.20604 0
M  V30 5859 C 552.615 4.17837 -3.13385 0
M  V30 5860 H 554.309 2.218 -2.01109 0
M  V30 5861 H 551.855 1.06581 -0.968326 0
M  V30 5862 H 553.808 4.1765 -0.560949 0
M  V30 5863 H 552.532 3.25462 0.272355 0
M  V30 5864 H 551.191 3.16025 -1.85807 0
M  V30 5865 H 550.839 5.02479 -0.228846 0
M  V30 5866 H 550.539 5.55987 -1.90136 0
M  V30 5867 H 552.063 6.00897 -1.08421 0
M  V30 5868 H 553.477 4.8588 -3.04292 0
M  V30 5869 H 551.874 4.64154 -3.80369 0
M  V30 5870 H 552.944 3.2419 -3.60595 0
M  V30 5871 N 554.287 1.06798 1.15896 0
M  V30 5872 C 555.698 0.811355 1.68149 0
M  V30 5873 C 556.049 -0.664339 1.8461 0
M  V30 5874 O 555.174 -1.51485 1.54535 0
M  V30 5875 C 555.769 1.46624 3.05429 0
M  V30 5876 C 554.328 1.25726 3.54781 0
M  V30 5877 C 553.475 1.53949 2.3064 0
M  V30 5878 H 556.426 1.23078 1.00187 0
M  V30 5879 H 556.447 0.88437 3.7008 0
M  V30 5880 H 555.959 2.54025 2.93416 0
M  V30 5881 H 554.06 0.20322 3.72045 0
M  V30 5882 H 554.173 1.97354 4.36564 0
M  V30 5883 H 552.537 0.96025 2.35905 0
M  V30 5884 H 553.32 2.6252 2.2122 0
M  V30 5885 N 555.766 -1.3263 0.851289 0
M  V30 5886 C 557.015 -1.96633 0.449267 0
M  V30 5887 C 557.328 -1.68131 -0.999562 0
M  V30 5888 O 558.534 -2.25845 -1.50685 0
M  V30 5889 C 556.99 -3.51946 0.752446 0
M  V30 5890 C 556.598 -3.89311 2.21678 0
M  V30 5891 C 558.342 -4.22437 0.417983 0
M  V30 5892 C 556.249 -5.37655 2.46336 0
M  V30 5893 H 555.179 -0.735888 0.164269 0
M  V30 5894 H 557.83 -1.51073 1.0416 0
M  V30 5895 H 556.212 -3.95899 0.0895858 0
M  V30 5896 H 557.386 -3.56378 2.92115 0
M  V30 5897 H 555.701 -3.31836 2.51543 0
M  V30 5898 H 558.298 -5.31549 0.579674 0
M  V30 5899 H 558.641 -4.11349 -0.640115 0
M  V30 5900 H 559.174 -3.84057 1.03659 0
M  V30 5901 H 555.913 -5.5376 3.50757 0
M  V30 5902 H 555.433 -5.72005 1.80473 0
M  V30 5903 H 557.112 -6.04695 2.30115 0
M  V30 5904 N 557.244 -0.608902 -1.45362 0
M  V30 5905 C 558.469 -0.10921 -2.07112 0
M  V30 5906 C 558.894 1.19779 -1.45033 0
M  V30 5907 O 558.252 1.72961 -0.543527 0
M  V30 5908 C 558.3 0.0155745 -3.60597 0
M  V30 5909 O 557.404 1.06546 -3.98399 0
M  V30 5910 H 556.745 -0.0746619 -0.659789 0
M  V30 5911 H 559.275 -0.839283 -1.86594 0
M  V30 5912 H 559.285 0.213364 -4.07442 0
M  V30 5913 H 557.96 -0.938765 -4.05167 0
M  V30 5914 H 556.537 0.844024 -3.63223 0
M  V30 5915 N 558.722 1.53707 -0.348139 0
M  V30 5916 C 560.133 1.86213 0.134797 0
M  V30 5917 C 560.484 1.26925 1.49614 0
M  V30 5918 O 559.609 0.584573 2.08355 0
M  V30 5919 C 560.204 3.37866 0.251371 0
M  V30 5920 C 558.763 3.70233 0.678543 0
M  V30 5921 C 557.91 2.76683 -0.184925 0
M  V30 5922 H 560.861 1.48204 -0.567571 0
M  V30 5923 H 560.882 3.64908 1.07806 0
M  V30 5924 H 560.394 3.80988 -0.739581 0
M  V30 5925 H 558.495 3.32659 1.67835 0
M  V30 5926 H 558.608 4.76836 0.465251 0
M  V30 5927 H 556.972 2.52374 0.343465 0
M  V30 5928 H 557.755 3.22635 -1.1731 0
M  V30 5929 N 560.2 0.0768682 1.57412 0
M  V30 5930 C 561.13 -0.886026 2.16037 0
M  V30 5931 C 562.111 -1.30691 1.08876 0
M  V30 5932 O 563.296 -1.37705 1.36934 0
M  V30 5933 C 560.426 -2.1518 2.72608 0
M  V30 5934 C 559.38 -1.87015 3.8498 0
M  V30 5935 C 558.706 -3.20266 4.28175 0
M  V30 5936 C 560.006 -1.17143 5.08994 0
M  V30 5937 H 561.7 -0.397642 2.96748 0
M  V30 5938 H 559.246 -0.189823 1.42743 0
M  V30 5939 H 561.199 -2.82962 3.12266 0
M  V30 5940 H 559.923 -2.66269 1.89125 0
M  V30 5941 H 558.582 -1.21636 3.45833 0
M  V30 5942 H 558.23 -3.69207 3.41607 0
M  V30 5943 H 557.93 -3.0221 5.03927 0
M  V30 5944 H 559.454 -3.89237 4.70454 0
M  V30 5945 H 560.868 -1.75003 5.45937 0
M  V30 5946 H 559.265 -1.09328 5.90057 0
M  V30 5947 H 560.335 -0.151295 4.84664 0
M  V30 5948 N 561.678 -1.56367 -0.196722 0
M  V30 5949 C 562.924 -1.81698 -0.914182 0
M  V30 5950 C 563.279 -0.65367 -1.80956 0
M  V30 5951 O 562.572 0.351224 -1.88353 0
M  V30 5952 C 562.766 -3.10663 -1.767 0
M  V30 5953 C 562.595 -4.39428 -0.955689 0
M  V30 5954 C 561.365 -5.01221 -0.64076 0
M  V30 5955 C 563.563 -5.1337 -0.309165 0
M  V30 5956 N 561.545 -6.13608 0.189358 0
M  V30 5957 C 562.916 -6.18815 0.383225 0
M  V30 5958 C 564.971 -4.97393 -0.224726 0
M  V30 5959 C 563.674 -7.10015 1.15201 0
M  V30 5960 C 565.7 -5.89014 0.530658 0
M  V30 5961 C 565.062 -6.93903 1.2115 0
M  V30 5962 H 561.161 -0.716203 -0.31397 0
M  V30 5963 H 563.745 -1.93838 -0.18304 0
M  V30 5964 H 561.916 -2.99762 -2.46976 0
M  V30 5965 H 563.648 -3.24088 -2.42382 0
M  V30 5966 H 560.403 -4.63669 -0.96479 0
M  V30 5967 H 560.827 -6.74389 0.593979 0
M  V30 5968 H 565.469 -4.16331 -0.736754 0
M  V30 5969 H 563.187 -7.9054 1.67547 0
M  V30 5970 H 566.773 -5.78726 0.597326 0
M  V30 5971 H 565.653 -7.63576 1.78665 0
M  V30 5972 N 563.156 0.464375 -1.50603 0
M  V30 5973 C 564.119 1.54393 -1.69397 0
M  V30 5974 C 565.119 1.50566 -0.564504 0
M  V30 5975 O 566.309 1.53066 -0.831645 0
M  V30 5976 C 563.441 2.9401 -1.72543 0
M  V30 5977 H 564.634 1.39044 -2.65719 0
M  V30 5978 H 562.187 0.69122 -1.40185 0
M  V30 5979 H 562.922 3.14795 -0.77938 0
M  V30 5980 H 562.707 2.98195 -2.54602 0
M  V30 5981 H 564.197 3.72375 -1.89015 0
M  V30 5982 N 564.634 1.40294 0.718013 0
M  V30 5983 C 565.883 1.37746 1.4734 0
M  V30 5984 C 566.196 -0.0180754 1.95592 0
M  V30 5985 O 567.402 -0.166166 2.70991 0
M  V30 5986 C 565.858 2.4208 2.66318 0
M  V30 5987 C 565.466 3.87432 2.24945 0
M  V30 5988 C 567.21 2.48635 3.44065 0
M  V30 5989 C 565.117 4.83368 3.40748 0
M  V30 5990 H 564.047 0.512165 0.553356 0
M  V30 5991 H 566.698 1.66019 0.781661 0
M  V30 5992 H 565.08 2.06903 3.3765 0
M  V30 5993 H 566.254 4.3174 1.6105 0
M  V30 5994 H 564.569 3.8433 1.60249 0
M  V30 5995 H 567.166 3.17499 4.30231 0
M  V30 5996 H 567.509 1.51611 3.87711 0
M  V30 5997 H 568.042 2.82791 2.79775 0
M  V30 5998 H 564.781 5.81716 3.02136 0
M  V30 5999 H 564.301 4.43726 4.03568 0
M  V30 6000 H 565.98 5.03074 4.06848 0
M  V30 6001 N 566.112 -0.949982 1.2575 0
M  V30 6002 C 567.042 -2.06483 1.09028 0
M  V30 6003 C 568.023 -1.701 -0.00201532 0
M  V30 6004 O 569.208 -1.93469 0.168383 0
M  V30 6005 C 566.338 -3.39899 0.71316 0
M  V30 6006 C 565.292 -3.90309 1.75621 0
M  V30 6007 C 564.618 -5.20274 1.23365 0
M  V30 6008 C 565.918 -4.16169 3.15596 0
M  V30 6009 H 567.612 -2.20731 2.02283 0
M  V30 6010 H 565.158 -1.06066 0.973964 0
M  V30 6011 H 567.111 -4.17346 0.58309 0
M  V30 6012 H 565.835 -3.25602 -0.255091 0
M  V30 6013 H 564.494 -3.15035 1.8748 0
M  V30 6014 H 564.142 -5.02351 0.255491 0
M  V30 6015 H 563.842 -5.54971 1.93082 0
M  V30 6016 H 565.366 -6.00314 1.11607 0
M  V30 6017 H 566.78 -4.84259 3.06864 0
M  V30 6018 H 565.177 -4.62131 3.82825 0
M  V30 6019 H 566.247 -3.22273 3.6231 0
M  V30 6020 N 567.59 -1.07411 -1.15328 0
M  V30 6021 C 568.837 -0.797649 -1.86128 0
M  V30 6022 C 569.165 0.676298 -1.82364 0
M  V30 6023 O 568.42 1.51223 -1.24218 0
M  V30 6024 C 568.719 -1.25191 -3.34757 0
M  V30 6025 C 568.385 -2.73191 -3.58716 0
M  V30 6026 C 567.047 -3.13616 -3.64964 0
M  V30 6027 C 569.399 -3.68718 -3.6837 0
M  V30 6028 C 566.727 -4.48383 -3.78377 0
M  V30 6029 C 569.079 -5.03248 -3.83306 0
M  V30 6030 C 567.743 -5.43293 -3.878 0
M  V30 6031 H 567.013 -0.29188 -0.681092 0
M  V30 6032 H 569.66 -1.34524 -1.36292 0
M  V30 6033 H 567.965 -0.623712 -3.86804 0
M  V30 6034 H 569.662 -1.01489 -3.87945 0
M  V30 6035 H 566.252 -2.40898 -3.54494 0
M  V30 6036 H 570.436 -3.38614 -3.62842 0
M  V30 6037 H 565.692 -4.78877 -3.80114 0
M  V30 6038 H 569.866 -5.77142 -3.89718 0
M  V30 6039 H 567.493 -6.47721 -3.97946 0
M  V30 6040 N 569.068 1.32177 -0.85831 0
M  V30 6041 C 570.315 1.97125 -0.463484 0
M  V30 6042 C 570.643 1.67907 0.981705 0
M  V30 6043 O 569.898 0.961717 1.70439 0
M  V30 6044 C 570.197 3.51372 -0.653658 0
M  V30 6045 C 569.863 4.00584 -2.06987 0
M  V30 6046 C 568.525 4.13733 -2.4572 0
M  V30 6047 C 570.877 4.26624 -2.99402 0
M  V30 6048 C 568.205 4.50268 -3.76132 0
M  V30 6049 C 570.557 4.64618 -4.29316 0
M  V30 6050 C 569.221 4.75975 -4.67979 0
M  V30 6051 H 568.491 0.72133 -0.169601 0
M  V30 6052 H 571.138 1.57517 -1.08907 0
M  V30 6053 H 569.443 3.91761 0.0551328 0
M  V30 6054 H 571.14 3.99655 -0.328163 0
M  V30 6055 H 567.73 3.90837 -1.75911 0
M  V30 6056 H 571.914 4.1597 -2.70708 0
M  V30 6057 H 567.17 4.57256 -4.05865 0
M  V30 6058 H 571.344 4.83722 -5.00985 0
M  V30 6059 H 568.971 5.04041 -5.69076 0
M  V30 6060 N 570.547 0.616602 1.45037 0
M  V30 6061 C 571.772 0.120192 2.07051 0
M  V30 6062 C 572.197 -1.19008 1.45666 0
M  V30 6063 O 571.555 -1.7267 0.552692 0
M  V30 6064 C 571.603 0.00354901 3.606 0
M  V30 6065 O 570.707 -1.04431 3.98958 0
M  V30 6066 H 570.048 0.0781599 0.659384 0
M  V30 6067 H 572.578 0.849167 1.86146 0
M  V30 6068 H 572.588 -0.191754 4.07549 0
M  V30 6069 H 571.263 0.960239 4.04663 0
M  V30 6070 H 569.84 -0.824749 3.63665 0
M  V30 6071 N 572.025 -1.5352 0.356285 0
M  V30 6072 C 572.958 -2.2177 -0.537913 0
M  V30 6073 C 573.936 -1.20626 -1.09033 0
M  V30 6074 O 575.12 -1.49494 -1.1482 0
M  V30 6075 C 572.247 -2.90513 -1.74126 0
M  V30 6076 C 571.293 -4.05652 -1.31715 0
M  V30 6077 S 572.126 -5.34505 -0.326236 0
M  V30 6078 C 573.282 -6.06757 -1.53612 0
M  V30 6079 H 573.515 -2.97271 0.0417411 0
M  V30 6080 H 571.048 -1.53761 0.140372 0
M  V30 6081 H 573.006 -3.30735 -2.43155 0
M  V30 6082 H 571.667 -2.14754 -2.29215 0
M  V30 6083 H 570.86 -4.52733 -2.21471 0
M  V30 6084 H 570.462 -3.67272 -0.706183 0
M  V30 6085 H 572.754 -6.30924 -2.46863 0
M  V30 6086 H 573.697 -6.99395 -1.10687 0
M  V30 6087 H 574.105 -5.3708 -1.73796 0
M  V30 6088 N 573.503 -0.0852151 -1.57369 0
M  V30 6089 C 574.433 0.874556 -2.16503 0
M  V30 6090 C 575.414 1.30111 -1.09568 0
M  V30 6091 O 576.599 1.36977 -1.37662 0
M  V30 6092 C 573.729 2.13731 -2.73745 0
M  V30 6093 C 572.683 1.84971 -3.85966 0
M  V30 6094 C 572.009 3.17991 -4.29867 0
M  V30 6095 C 573.309 1.14442 -5.09608 0
M  V30 6096 H 575.003 0.381899 -2.96954 0
M  V30 6097 H 572.549 0.18225 -1.42842 0
M  V30 6098 H 574.502 2.81302 -3.13763 0
M  V30 6099 H 573.226 2.65263 -1.90534 0
M  V30 6100 H 571.885 1.19801 -3.46473 0
M  V30 6101 H 571.533 3.6739 -3.4356 0
M  V30 6102 H 571.233 2.99534 -5.05523 0
M  V30 6103 H 572.757 3.86737 -4.72511 0
M  V30 6104 H 574.171 1.72105 -5.46857 0
M  V30 6105 H 572.568 1.06197 -5.90629 0
M  V30 6106 H 573.638 0.12559 -4.84737 0
M  V30 6107 N 574.981 1.5647 0.188427 0
M  V30 6108 C 575.911 1.98101 1.23606 0
M  V30 6109 C 576.892 0.853961 1.47111 0
M  V30 6110 O 578.077 1.11879 1.58735 0
M  V30 6111 C 575.207 2.32624 2.57882 0
M  V30 6112 C 574.161 3.48129 2.48978 0
M  V30 6113 C 573.487 3.68347 3.87588 0
M  V30 6114 C 574.787 4.82112 2.00911 0
M  V30 6115 H 576.481 2.85864 0.890068 0
M  V30 6116 H 574.027 1.37532 0.426714 0
M  V30 6117 H 575.98 2.60343 3.3136 0
M  V30 6118 H 574.704 1.41751 2.94235 0
M  V30 6119 H 573.363 3.20511 1.77956 0
M  V30 6120 H 573.011 2.74793 4.21305 0
M  V30 6121 H 572.711 4.46055 3.82503 0
M  V30 6122 H 574.235 3.98449 4.62678 0
M  V30 6123 H 575.649 5.08819 2.64151 0
M  V30 6124 H 574.046 5.63337 2.06814 0
M  V30 6125 H 575.116 4.75249 0.96262 0
M  V30 6126 N 576.459 -0.456382 1.50847 0
M  V30 6127 C 577.392 -1.57177 1.65441 0
M  V30 6128 C 578.37 -1.54649 0.502224 0
M  V30 6129 O 579.554 -1.74057 0.723633 0
M  V30 6130 C 576.681 -2.95763 1.65052 0
M  V30 6131 C 575.727 -3.16389 2.86007 0
M  V30 6132 S 576.56 -2.94716 4.47105 0
M  V30 6133 C 577.716 -4.35617 4.49432 0
M  V30 6134 H 577.949 -1.44561 2.59787 0
M  V30 6135 H 575.482 -0.644758 1.40293 0
M  V30 6136 H 577.44 -3.75654 1.65512 0
M  V30 6137 H 576.101 -3.05756 0.719153 0
M  V30 6138 H 575.294 -4.17667 2.82081 0
M  V30 6139 H 574.896 -2.44293 2.8319 0
M  V30 6140 H 577.188 -5.28503 4.239 0
M  V30 6141 H 578.131 -4.44582 5.51137 0
M  V30 6142 H 578.539 -4.18382 3.78967 0
M  V30 6143 N 577.937 -1.40673 -0.710563 0
M  V30 6144 C 578.867 -1.44095 -1.83736 0
M  V30 6145 C 579.848 -0.301286 -1.67411 0
M  V30 6146 O 581.033 -0.510618 -1.87367 0
M  V30 6147 C 578.163 -1.30773 -3.21738 0
M  V30 6148 C 577.117 -2.42395 -3.52745 0
M  V30 6149 C 576.443 -2.14147 -4.89944 0
M  V30 6150 C 577.743 -3.84738 -3.53234 0
M  V30 6151 H 579.437 -2.38396 -1.81129 0
M  V30 6152 H 576.983 -1.14746 -0.870017 0
M  V30 6153 H 578.936 -1.31783 -4.00264 0
M  V30 6154 H 577.66 -0.329507 -3.24934 0
M  V30 6155 H 576.319 -2.40643 -2.76562 0
M  V30 6156 H 575.967 -1.14703 -4.89747 0
M  V30 6157 H 575.667 -2.88934 -5.11655 0
M  V30 6158 H 577.191 -2.16848 -5.70797 0
M  V30 6159 H 578.605 -3.88286 -4.2179 0
M  V30 6160 H 577.002 -4.59085 -3.86473 0
M  V30 6161 H 578.072 -4.13962 -2.52514 0
M  V30 6162 N 579.415 0.9433 -1.26252 0
M  V30 6163 C 580.663 1.68592 -1.11451 0
M  V30 6164 C 580.984 1.91957 0.343123 0
M  V30 6165 O 580.254 1.51475 1.24226 0
M  V30 6166 H 578.834 0.624789 -0.409448 0
M  V30 6167 H 581.496 1.13351 -1.58548 0
M  V30 6168 H 580.592 2.66054 -1.63162 0
M  V30 6169 N 580.893 1.08022 1.14757 0
M  V30 6170 C 582.142 0.802468 1.8505 0
M  V30 6171 C 582.455 -0.674061 1.83619 0
M  V30 6172 O 583.661 -1.06683 2.49662 0
M  V30 6173 C 582.117 1.38551 3.32162 0
M  V30 6174 C 581.725 2.89354 3.42021 0
M  V30 6175 C 583.469 1.18608 4.07594 0
M  V30 6176 C 581.376 3.40815 4.83321 0
M  V30 6177 H 580.306 0.296518 0.693248 0
M  V30 6178 H 582.957 1.30114 1.29393 0
M  V30 6179 H 581.339 0.814556 3.87532 0
M  V30 6180 H 582.513 3.52552 2.96722 0
M  V30 6181 H 580.828 3.08165 2.80041 0
M  V30 6182 H 583.425 1.54525 5.11885 0
M  V30 6183 H 583.768 0.125599 4.1611 0
M  V30 6184 H 584.301 1.72375 3.58513 0
M  V30 6185 H 581.04 4.46418 4.79991 0
M  V30 6186 H 580.56 2.82374 5.29174 0
M  V30 6187 H 582.239 3.37171 5.522 0
M  V30 6188 N 582.371 -1.3172 0.865308 0
M  V30 6189 C 583.648 -1.91574 0.394789 0
M  V30 6190 C 584.028 -1.78769 -1.12271 0
M  V30 6191 O 583.376 -1.19245 -1.94918 0
M  V30 6192 C 583.586 -3.37957 0.870982 0
M  V30 6193 C 584.934 -4.15073 0.894384 0
M  V30 6194 O 585.958 -3.4672 0.816325 0
M  V30 6195 O 584.817 -5.37151 1.00651 0
M  V30 6196 H 581.911 -0.818649 0.117229 0
M  V30 6197 H 584.457 -1.4042 0.952913 0
M  V30 6198 H 583.229 -3.41269 1.91444 0
M  V30 6199 H 582.852 -3.96534 0.290907 0
M  V30 6200 N 583.85 -0.624285 -1.44708 0
M  V30 6201 C 585.075 -0.131171 -2.06985 0
M  V30 6202 C 585.5 1.18234 -1.46295 0
M  V30 6203 O 584.858 1.72375 -0.561842 0
M  V30 6204 C 584.906 -0.0226724 -3.60593 0
M  V30 6205 O 584.01 1.02314 -3.99507 0
M  V30 6206 H 583.351 -0.0816556 -0.65896 0
M  V30 6207 H 585.88 -0.859027 -1.85693 0
M  V30 6208 H 585.891 0.170138 -4.07645 0
M  V30 6209 H 584.566 -0.981685 -4.04148 0
M  V30 6210 H 583.143 0.805452 -3.64097 0
M  V30 6211 N 585.328 1.53329 -0.364422 0
M  V30 6212 C 586.26 2.23286 0.517293 0
M  V30 6213 C 587.273 1.24657 1.04711 0
M  V30 6214 O 588.462 1.50887 0.95369 0
M  V30 6215 C 585.562 2.91604 1.72685 0
M  V30 6216 C 584.735 4.1673 1.32873 0
M  V30 6217 C 583.794 4.68269 2.40022 0
M  V30 6218 O 582.82 5.31976 2.02461 0
M  V30 6219 N 584.022 4.45983 3.7159 0
M  V30 6220 H 586.787 2.99588 -0.0819391 0
M  V30 6221 H 584.348 1.60787 -0.189544 0
M  V30 6222 H 586.34 3.22992 2.4384 0
M  V30 6223 H 584.91 2.18763 2.23297 0
M  V30 6224 H 584.13 3.91657 0.447069 0
M  V30 6225 H 585.418 4.98078 1.03902 0
M  V30 6226 H 584.816 3.95077 4.04883 0
M  V30 6227 H 583.373 4.81924 4.38854 0
M  V30 6228 N 586.806 0.0935595 1.57322 0
M  V30 6229 C 588.053 -0.570509 1.94297 0
M  V30 6230 C 588.381 -1.68286 0.97519 0
M  V30 6231 O 587.636 -1.95699 -0.00548655 0
M  V30 6232 C 587.935 -1.16692 3.37813 0
M  V30 6233 C 587.601 -0.178509 4.50547 0
M  V30 6234 C 586.263 0.0933475 4.81109 0
M  V30 6235 C 588.615 0.496472 5.1883 0
M  V30 6236 C 585.943 1.0469 5.77284 0
M  V30 6237 C 588.295 1.43849 6.16028 0
M  V30 6238 C 586.959 1.71859 6.44997 0
M  V30 6239 H 586.229 -0.208764 0.710984 0
M  V30 6240 H 588.876 0.169066 1.90752 0
M  V30 6241 H 587.181 -1.98271 3.37929 0
M  V30 6242 H 588.878 -1.6884 3.63722 0
M  V30 6243 H 585.468 -0.400584 4.26724 0
M  V30 6244 H 589.652 0.299584 4.95395 0
M  V30 6245 H 584.908 1.27094 5.98044 0
M  V30 6246 H 589.082 1.96734 6.68034 0
M  V30 6247 H 586.709 2.45906 7.19329 0
M  V30 6248 N 588.284 -1.56567 -0.180126 0
M  V30 6249 C 589.524 -1.83285 -0.904761 0
M  V30 6250 C 589.888 -0.673226 -1.7981 0
M  V30 6251 O 591.089 -0.820645 -2.55967 0
M  V30 6252 C 589.36 -3.15086 -1.68688 0
M  V30 6253 S 590.919 -3.63258 -2.46149 0
M  V30 6254 H 587.737 -0.643114 -0.303193 0
M  V30 6255 H 590.339 -1.94785 -0.167034 0
M  V30 6256 H 589.043 -3.97484 -1.02148 0
M  V30 6257 H 588.574 -3.06504 -2.46615 0
M  V30 6258 H 590.589 -3.29884 -3.70663 0
M  V30 6259 N 589.762 0.448376 -1.51087 0
M  V30 6260 C 590.99 1.22143 -1.66999 0
M  V30 6261 C 591.405 1.85283 -0.362699 0
M  V30 6262 O 590.762 1.70236 0.65772 0
M  V30 6263 C 590.813 2.31357 -2.7777 0
M  V30 6264 O 590.534 1.70801 -4.03434 0
M  V30 6265 C 592.035 3.21836 -3.04855 0
M  V30 6266 H 589.255 0.368558 -0.560719 0
M  V30 6267 H 591.799 0.532618 -1.97442 0
M  V30 6268 H 589.954 2.95973 -2.49958 0
M  V30 6269 H 590.368 2.42895 -4.64868 0
M  V30 6270 H 591.842 3.94627 -3.85971 0
M  V30 6271 H 592.319 3.81949 -2.16821 0
M  V30 6272 H 592.925 2.62933 -3.34285 0
M  V30 6273 N 591.24 1.41047 0.703093 0
M  V30 6274 C 592.486 1.40207 1.46526 0
M  V30 6275 C 592.819 0.00847763 1.94198 0
M  V30 6276 O 592.094 -0.962437 1.69019 0
M  V30 6277 C 592.377 2.40238 2.6825 0
M  V30 6278 C 592.23 3.88674 2.26391 0
M  V30 6279 C 593.549 2.37627 3.70434 0
M  V30 6280 H 590.668 0.510594 0.531472 0
M  V30 6281 H 593.31 1.72271 0.801422 0
M  V30 6282 H 591.46 2.13026 3.24888 0
M  V30 6283 H 593.132 4.2676 1.75138 0
M  V30 6284 H 591.375 4.03903 1.58255 0
M  V30 6285 H 592.046 4.542 3.13698 0
M  V30 6286 H 594.522 2.61759 3.23452 0
M  V30 6287 H 593.398 3.09645 4.53223 0
M  V30 6288 H 593.659 1.39223 4.19606 0
M  V30 6289 N 592.718 -0.936591 1.26751 0
M  V30 6290 C 593.628 -2.06949 1.10496 0
M  V30 6291 C 594.644 -1.7396 0.037271 0
M  V30 6292 O 595.82 -1.99941 0.241944 0
M  V30 6293 C 592.885 -3.38612 0.744491 0
M  V30 6294 C 591.946 -3.85355 1.89209 0
M  V30 6295 C 591.179 -5.10735 1.54873 0
M  V30 6296 O 591.402 -5.68602 0.452546 0
M  V30 6297 O 590.336 -5.52632 2.38499 0
M  V30 6298 H 594.162 -2.23571 2.05547 0
M  V30 6299 H 591.747 -1.05428 1.05855 0
M  V30 6300 H 593.629 -4.17711 0.556396 0
M  V30 6301 H 592.304 -3.23218 -0.176582 0
M  V30 6302 H 591.211 -3.07182 2.13518 0
M  V30 6303 H 592.544 -4.05277 2.79305 0
M  V30 6304 N 594.196 -1.08629 -1.14182 0
M  V30 6305 C 595.444 -0.815731 -1.84906 0
M  V30 6306 C 595.765 0.660441 -1.83475 0
M  V30 6307 O 595.035 1.47888 -1.28476 0
M  V30 6308 H 593.615 -0.298773 -0.684648 0
M  V30 6309 H 596.277 -1.37274 -1.38354 0
M  V30 6310 H 595.373 -1.16193 -2.89665 0
M  V30 6311 N 595.674 1.31259 -0.872281 0
M  V30 6312 C 596.921 1.96622 -0.484365 0
M  V30 6313 C 597.249 1.68939 0.963841 0
M  V30 6314 O 596.504 0.97974 1.6941 0
M  V30 6315 C 596.803 3.50659 -0.690889 0
M  V30 6316 C 596.469 3.98366 -2.11224 0
M  V30 6317 C 595.131 4.11104 -2.50094 0
M  V30 6318 C 597.483 4.23425 -3.0391 0
M  V30 6319 C 594.811 4.46254 -3.80887 0
M  V30 6320 C 597.163 4.60039 -4.3422 0
M  V30 6321 C 595.827 4.70984 -4.73001 0
M  V30 6322 H 595.097 0.71949 -0.177242 0
M  V30 6323 H 597.744 1.56353 -1.10571 0
M  V30 6324 H 596.049 3.91798 0.0135782 0
M  V30 6325 H 597.746 3.99284 -0.370534 0
M  V30 6326 H 594.336 3.88949 -1.80047 0
M  V30 6327 H 598.52 4.13075 -2.75104 0
M  V30 6328 H 593.776 4.52926 -4.10692 0
M  V30 6329 H 597.95 4.78381 -5.06088 0
M  V30 6330 H 595.577 4.97977 -5.7439 0
M  V30 6331 N 597.152 0.631951 1.44375 0
M  V30 6332 C 598.401 0.134214 2.01253 0
M  V30 6333 C 598.714 -1.25171 1.50305 0
M  V30 6334 O 599.92 -1.8435 1.99317 0
M  V30 6335 C 598.376 0.189187 3.59402 0
M  V30 6336 C 597.984 1.57647 4.19346 0
M  V30 6337 C 599.728 -0.252044 4.23751 0
M  V30 6338 C 597.635 1.58651 5.69722 0
M  V30 6339 H 596.565 0.0464101 0.75257 0
M  V30 6340 H 599.216 0.790868 1.65582 0
M  V30 6341 H 597.598 -0.534584 3.92375 0
M  V30 6342 H 598.772 2.32389 3.97909 0
M  V30 6343 H 597.087 1.96186 3.67288 0
M  V30 6344 H 599.684 -0.264084 5.34047 0
M  V30 6345 H 600.027 -1.27951 3.96149 0
M  V30 6346 H 600.56 0.41926 3.95584 0
M  V30 6347 H 597.299 2.59237 6.0206 0
M  V30 6348 H 596.819 0.882039 5.93279 0
M  V30 6349 H 598.498 1.32082 6.33375 0
M  V30 6350 N 598.631 -1.53133 0.372548 0
M  V30 6351 C 599.859 -2.05774 -0.215515 0
M  V30 6352 C 600.274 -1.24555 -1.41886 0
M  V30 6353 O 599.631 -0.287951 -1.80214 0
M  V30 6354 C 599.682 -3.5645 -0.602161 0
M  V30 6355 O 599.403 -4.34591 0.553359 0
M  V30 6356 C 600.904 -4.25374 -1.24787 0
M  V30 6357 H 598.124 -0.670009 -0.0364529 0
M  V30 6358 H 600.668 -1.97434 0.532934 0
M  V30 6359 H 598.823 -3.64918 -1.30052 0
M  V30 6360 H 599.237 -5.23954 0.239336 0
M  V30 6361 H 600.711 -5.32097 -1.46891 0
M  V30 6362 H 601.188 -3.79531 -2.21026 0
M  V30 6363 H 601.794 -4.21177 -0.590752 0
M  V30 6364 N 600.109 -0.101901 -1.5727 0
M  V30 6365 C 601.072 0.840129 -2.13247 0
M  V30 6366 C 602.072 1.20625 -1.06331 0
M  V30 6367 O 603.262 1.13456 -1.32186 0
M  V30 6368 C 600.394 2.13372 -2.65867 0
M  V30 6369 H 601.587 0.353945 -2.97804 0
M  V30 6370 H 599.14 0.147167 -1.55606 0
M  V30 6371 H 599.875 2.66461 -1.84849 0
M  V30 6372 H 599.66 1.88085 -3.44044 0
M  V30 6373 H 601.15 2.80748 -3.09145 0
M  V30 6374 N 601.587 1.56661 0.17182 0
M  V30 6375 C 602.517 1.99401 1.21498 0
M  V30 6376 C 603.498 0.869516 1.46197 0
M  V30 6377 O 604.683 1.13556 1.57539 0
M  V30 6378 C 601.813 2.35346 2.55401 0
M  V30 6379 C 600.767 3.5075 2.45272 0
M  V30 6380 C 600.093 3.72437 3.8366 0
M  V30 6381 C 601.393 4.84216 1.95787 0
M  V30 6382 H 603.087 2.86792 0.859699 0
M  V30 6383 H 600.633 1.37977 0.412103 0
M  V30 6384 H 602.586 2.63843 3.2858 0
M  V30 6385 H 601.31 1.44864 2.92715 0
M  V30 6386 H 599.969 3.2238 1.74547 0
M  V30 6387 H 599.617 2.79246 4.18367 0
M  V30 6388 H 599.317 4.50087 3.77751 0
M  V30 6389 H 600.841 4.03334 4.58426 0
M  V30 6390 H 602.255 5.11592 2.5874 0
M  V30 6391 H 600.652 5.65498 2.00827 0
M  V30 6392 H 601.722 4.76243 0.912159 0
M  V30 6393 N 603.065 -0.440357 1.51323 0
M  V30 6394 C 604.311 -1.19181 1.64085 0
M  V30 6395 C 604.644 -1.90936 0.354575 0
M  V30 6396 O 603.919 -1.8347 -0.645675 0
M  V30 6397 C 604.202 -2.2112 2.84215 0
M  V30 6398 C 604.055 -1.53468 4.22809 0
M  V30 6399 C 605.374 -3.22133 2.99864 0
M  V30 6400 H 602.493 -0.431924 0.597169 0
M  V30 6401 H 605.135 -0.481443 1.83799 0
M  V30 6402 H 603.285 -2.81703 2.67537 0
M  V30 6403 H 604.957 -0.962455 4.51148 0
M  V30 6404 H 603.2 -0.837086 4.25647 0
M  V30 6405 H 603.871 -2.27694 5.02852 0
M  V30 6406 H 606.347 -2.71601 3.15233 0
M  V30 6407 H 605.223 -3.90756 3.85488 0
M  V30 6408 H 605.484 -3.88061 2.11804 0
M  V30 6409 N 604.543 -1.41418 -0.695603 0
M  V30 6410 C 605.82 -1.31264 -1.45014 0
M  V30 6411 C 606.2 0.0597994 -2.11015 0
M  V30 6412 O 605.548 1.07403 -2.01685 0
M  V30 6413 C 605.758 -2.466 -2.4696 0
M  V30 6414 C 607.106 -2.87763 -3.12214 0
M  V30 6415 O 608.13 -2.46339 -2.57285 0
M  V30 6416 O 606.989 -3.59395 -4.11701 0
M  V30 6417 H 604.083 -0.516576 -0.645816 0
M  V30 6418 H 606.629 -1.53382 -0.726084 0
M  V30 6419 H 605.401 -3.38183 -1.96845 0
M  V30 6420 H 605.024 -2.26358 -3.26876 0
M  V30 6421 N 606.021 0.929856 -1.27246 0
M  V30 6422 C 606.931 2.0636 -1.11592 0
M  V30 6423 C 607.947 1.73938 -0.046496 0
M  V30 6424 O 609.123 1.9981 -0.252544 0
M  V30 6425 C 606.188 3.38213 -0.762437 0
M  V30 6426 C 605.249 3.84346 -1.9125 0
M  V30 6427 C 604.482 5.09906 -1.57579 0
M  V30 6428 O 604.705 5.68354 -0.482694 0
M  V30 6429 O 603.639 5.51359 -2.41426 0
M  V30 6430 H 607.465 2.22478 -2.0673 0
M  V30 6431 H 605.05 1.04865 -1.06413 0
M  V30 6432 H 606.932 4.1741 -0.57854 0
M  V30 6433 H 605.607 3.23307 0.159439 0
M  V30 6434 H 604.514 3.06045 -2.15144 0
M  V30 6435 H 605.847 4.0379 -2.81451 0
M  V30 6436 N 607.499 1.09233 1.13605 0
M  V30 6437 C 608.729 0.847677 1.88409 0
M  V30 6438 C 609.137 -0.604524 1.79282 0
M  V30 6439 O 608.48 -1.42773 1.15592 0
M  V30 6440 C 608.542 1.20153 3.38827 0
M  V30 6441 C 608.206 2.65824 3.71735 0
M  V30 6442 C 609.203 3.64072 3.71143 0
M  V30 6443 C 606.888 3.01894 4.01454 0
M  V30 6444 C 608.882 4.96419 3.99808 0
M  V30 6445 C 606.569 4.34433 4.29781 0
M  V30 6446 C 607.567 5.31505 4.28942 0
M  V30 6447 O 607.255 6.61659 4.56576 0
M  V30 6448 H 606.987 0.304813 0.603378 0
M  V30 6449 H 609.541 1.4573 1.44748 0
M  V30 6450 H 607.771 0.534946 3.82982 0
M  V30 6451 H 609.46 0.936349 3.94952 0
M  V30 6452 H 610.226 3.37549 3.4826 0
M  V30 6453 H 606.105 2.26971 4.01255 0
M  V30 6454 H 609.649 5.7218 3.99069 0
M  V30 6455 H 605.546 4.607 4.52135 0
M  V30 6456 H 606.314 6.67102 4.74254 0
M  V30 6457 N 608.977 -1.30795 0.87923 0
M  V30 6458 C 610.388 -1.78535 0.546093 0
M  V30 6459 C 610.739 -1.72354 -0.937467 0
M  V30 6460 O 609.864 -1.2969 -1.73233 0
M  V30 6461 C 610.459 -3.24181 0.9845 0
M  V30 6462 C 609.018 -3.69779 0.702871 0
M  V30 6463 C 608.165 -2.51377 1.17068 0
M  V30 6464 H 611.116 -1.17746 1.06403 0
M  V30 6465 H 611.137 -3.79227 0.311045 0
M  V30 6466 H 610.649 -3.28647 2.06429 0
M  V30 6467 H 608.75 -3.70806 -0.365166 0
M  V30 6468 H 608.863 -4.61507 1.28639 0
M  V30 6469 H 607.227 -2.47768 0.590172 0
M  V30 6470 H 608.01 -2.58584 2.25808 0
M  V30 6471 N 610.455 -0.639598 -1.44038 0
M  V30 6472 C 611.871 -0.305953 -1.5664 0
M  V30 6473 C 612.071 1.19055 -1.62567 0
M  V30 6474 O 611.127 1.97492 -1.57331 0
M  V30 6475 C 612.44 -1.00533 -2.83397 0
M  V30 6476 C 613.988 -0.984278 -2.97121 0
M  V30 6477 C 614.463 -1.66428 -4.26691 0
M  V30 6478 N 615.954 -1.63127 -4.33525 0
M  V30 6479 C 616.689 -2.12629 -5.32519 0
M  V30 6480 N 616.185 -2.70359 -6.3787 0
M  V30 6481 N 617.978 -2.03208 -5.24083 0
M  V30 6482 H 610.129 -1.6109 -1.38434 0
M  V30 6483 H 612.392 -0.676672 -0.663942 0
M  V30 6484 H 612.098 -2.06034 -2.85032 0
M  V30 6485 H 611.972 -0.548362 -3.73193 0
M  V30 6486 H 614.359 0.0622792 -2.95034 0
M  V30 6487 H 614.44 -1.47981 -2.08651 0
M  V30 6488 H 614.084 -2.71034 -4.29538 0
M  V30 6489 H 614.014 -1.14351 -5.14034 0
M  V30 6490 H 616.505 -1.20987 -3.58009 0
M  V30 6491 H 616.818 -3.05842 -7.09704 0
M  V30 6492 H 615.163 -2.74414 -6.38531 0
M  V30 6493 H 618.354 -1.57823 -4.40692 0
M  V30 6494 H 618.527 -2.42097 -6.01077 0
M  V30 6495 N 611.933 1.52934 -0.380664 0
M  V30 6496 C 612.863 2.29118 0.450268 0
M  V30 6497 C 613.844 1.32153 1.07096 0
M  V30 6498 O 615.029 1.61038 1.08537 0
M  V30 6499 C 612.159 3.09161 1.58231 0
M  V30 6500 C 611.113 4.13938 1.0881 0
M  V30 6501 C 610.439 4.82153 2.31155 0
M  V30 6502 C 611.739 5.22048 0.162146 0
M  V30 6503 H 613.433 2.98826 -0.185361 0
M  V30 6504 H 610.979 1.43715 -0.0905886 0
M  V30 6505 H 612.932 3.61211 2.17036 0
M  V30 6506 H 611.656 2.3717 2.2454 0
M  V30 6507 H 610.315 3.62855 0.522633 0
M  V30 6508 H 609.963 4.06719 2.95953 0
M  V30 6509 H 609.663 5.52966 1.98752 0
M  V30 6510 H 611.187 5.37004 2.90618 0
M  V30 6511 H 612.601 5.6951 0.658126 0
M  V30 6512 H 610.998 6.00057 -0.0717122 0
M  V30 6513 H 612.068 4.78398 -0.791438 0
M  V30 6514 N 613.412 0.11024 1.57214 0
M  V30 6515 C 614.342 -0.840002 2.17867 0
M  V30 6516 C 615.323 -1.28352 1.11624 0
M  V30 6517 O 616.508 -1.3477 1.39824 0
M  V30 6518 C 613.638 -2.09349 2.77111 0
M  V30 6519 C 612.592 -1.78807 3.8886 0
M  V30 6520 C 611.918 -3.11112 4.34872 0
M  V30 6521 C 613.218 -1.0632 5.11364 0
M  V30 6522 H 614.912 -0.334608 2.97524 0
M  V30 6523 H 612.458 -0.159502 1.43114 0
M  V30 6524 H 614.411 -2.76275 3.18198 0
M  V30 6525 H 613.135 -2.62198 1.9473 0
M  V30 6526 H 611.794 -1.14273 3.48335 0
M  V30 6527 H 611.442 -3.61877 3.49362 0
M  V30 6528 H 611.142 -2.91453 5.10224 0
M  V30 6529 H 612.666 -3.79171 4.78604 0
M  V30 6530 H 614.08 -1.63383 5.49526 0
M  V30 6531 H 612.477 -0.967876 5.92243 0
M  V30 6532 H 613.547 -0.0484569 4.84876 0
M  V30 6533 N 614.89 -1.56749 -0.16351 0
M  V30 6534 C 616.306 -1.51043 -0.515567 0
M  V30 6535 C 616.506 -0.815855 -1.84245 0
M  V30 6536 O 615.562 -0.379477 -2.49632 0
M  V30 6537 C 616.875 -2.95791 -0.541114 0
M  V30 6538 C 618.423 -3.0664 -0.627776 0
M  V30 6539 C 618.898 -4.52861 -0.684141 0
M  V30 6540 N 620.389 -4.5714 -0.746818 0
M  V30 6541 C 621.124 -5.67634 -0.811137 0
M  V30 6542 N 620.62 -6.8774 -0.835811 0
M  V30 6543 N 622.413 -5.55624 -0.850756 0
M  V30 6544 H 614.564 -2.00307 0.70645 0
M  V30 6545 H 616.827 -0.912876 0.255659 0
M  V30 6546 H 616.533 -3.49797 0.365329 0
M  V30 6547 H 616.407 -3.50858 -1.38487 0
M  V30 6548 H 618.794 -2.52663 -1.52464 0
M  V30 6549 H 618.875 -2.54645 0.242805 0
M  V30 6550 H 618.519 -5.07472 0.2085 0
M  V30 6551 H 618.449 -5.02621 -1.57098 0
M  V30 6552 H 620.94 -3.70669 -0.735717 0
M  V30 6553 H 621.253 -7.67701 -0.886279 0
M  V30 6554 H 619.598 -6.90334 -0.803958 0
M  V30 6555 H 622.789 -4.60709 -0.828535 0
M  V30 6556 H 622.962 -6.41756 -0.897418 0
M  V30 6557 N 616.368 0.432326 -1.51554 0
M  V30 6558 C 617.316 1.54572 -1.73811 0
M  V30 6559 C 618.31 1.58246 -0.604539 0
M  V30 6560 O 619.516 1.6193 -0.786041 0
M  V30 6561 H 615.891 0.513626 -0.549265 0
M  V30 6562 H 617.862 1.32977 -2.67132 0
M  V30 6563 C 616.611 2.92181 -1.88483 0
M  V30 6564 H 615.934 2.90088 -2.75116 0
M  V30 6565 H 617.374 3.69439 -2.08065 0
M  V30 6566 C 615.833 3.3065 -0.645909 0
M  V30 6567 O 616.363 4.01216 0.197093 0
M  V30 6568 N 614.569 2.86464 -0.488538 0
M  V30 6569 H 614.116 2.29209 -1.17562 0
M  V30 6570 H 614.074 3.12565 0.339156 0
M  V30 6571 N 617.846 1.41785 0.688094 0
M  V30 6572 C 619.262 1.24419 0.999608 0
M  V30 6573 C 619.462 0.138868 2.01021 0
M  V30 6574 O 618.518 -0.494283 2.47615 0
M  V30 6575 C 619.831 2.59625 1.51709 0
M  V30 6576 C 621.379 2.66869 1.63554 0
M  V30 6577 C 621.854 4.0241 2.18702 0
M  V30 6578 N 623.345 4.04295 2.26053 0
M  V30 6579 C 624.08 5.05977 2.69768 0
M  V30 6580 N 623.576 6.18047 3.13033 0
M  V30 6581 N 625.369 4.93336 2.69398 0
M  V30 6582 H 617.52 2.12392 0.0187427 0
M  V30 6583 H 619.783 0.945347 0.0708673 0
M  V30 6584 H 619.489 3.41297 0.849059 0
M  V30 6585 H 619.363 2.82628 2.49803 0
M  V30 6586 H 621.75 1.8555 2.29467 0
M  V30 6587 H 621.831 2.47668 0.639857 0
M  V30 6588 H 621.475 4.8418 1.53402 0
M  V30 6589 H 621.405 4.18955 3.19037 0
M  V30 6590 H 623.896 3.23383 1.9553 0
M  V30 6591 H 624.209 6.91498 3.45038 0
M  V30 6592 H 622.554 6.21572 3.10923 0
M  V30 6593 H 625.745 4.04865 2.34952 0
M  V30 6594 H 625.918 5.72717 3.03148 0
M  V30 6595 N 619.324 -0.923095 1.27737 0
M  V30 6596 C 620.74 -1.19985 1.05241 0
M  V30 6597 C 620.94 -2.00391 -0.21113 0
M  V30 6598 O 619.996 -2.35324 -0.915366 0
M  V30 6599 C 621.309 -1.94352 2.29451 0
M  V30 6600 C 622.857 -2.07273 2.34536 0
M  V30 6601 C 623.332 -2.85046 3.58487 0
M  V30 6602 N 624.823 -2.92612 3.59072 0
M  V30 6603 C 625.558 -3.53266 4.51654 0
M  V30 6604 N 625.054 -4.15274 5.54545 0
M  V30 6605 N 626.847 -3.50714 4.39268 0
M  V30 6606 H 618.998 -0.386042 2.08862 0
M  V30 6607 H 621.261 -0.233407 0.918817 0
M  V30 6608 H 620.967 -1.42692 3.21453 0
M  V30 6609 H 620.841 -2.94947 2.3513 0
M  V30 6610 H 623.228 -2.58117 1.43037 0
M  V30 6611 H 623.309 -1.05884 2.32857 0
M  V30 6612 H 622.953 -2.34884 4.50324 0
M  V30 6613 H 622.883 -3.8673 3.57418 0
M  V30 6614 H 625.374 -2.48547 2.84663 0
M  V30 6615 H 625.687 -4.59507 6.21348 0
M  V30 6616 H 624.032 -4.13806 5.58382 0
M  V30 6617 H 627.223 -3.01475 3.58093 0
M  V30 6618 H 627.396 -3.97693 5.1161 0
M  V30 6619 N 620.802 -1.09834 -1.13024 0
M  V30 6620 C 621.712 -0.753731 -2.22162 0
M  V30 6621 C 622.728 0.246105 -1.72251 0
M  V30 6622 O 623.904 0.0864051 -2.01215 0
M  V30 6623 C 620.969 -0.183958 -3.46212 0
M  V30 6624 C 620.03 -1.24028 -4.10993 0
M  V30 6625 C 619.263 -0.697597 -5.29121 0
M  V30 6626 O 619.486 0.478092 -5.68393 0
M  V30 6627 O 618.42 -1.4546 -5.84059 0
M  V30 6628 H 622.246 -1.66456 -2.5402 0
M  V30 6629 H 619.831 -0.873026 -1.21238 0
M  V30 6630 H 621.713 0.130257 -4.21199 0
M  V30 6631 H 620.388 0.699823 -3.16045 0
M  V30 6632 H 619.295 -1.60725 -3.37814 0
M  V30 6633 H 620.628 -2.09685 -4.45301 0
M  V30 6634 N 622.28 1.30327 -0.886154 0
M  V30 6635 C 623.21 2.30549 -0.370028 0
M  V30 6636 C 624.191 1.61039 0.547751 0
M  V30 6637 O 625.376 1.8864 0.461353 0
M  V30 6638 C 622.506 3.44808 0.415275 0
M  V30 6639 C 621.46 4.26024 -0.41085 0
M  V30 6640 C 620.786 5.32347 0.501128 0
M  V30 6641 C 622.086 4.95433 -1.65359 0
M  V30 6642 H 623.78 2.73969 -1.20754 0
M  V30 6643 H 621.326 1.3171 -0.582097 0
M  V30 6644 H 623.279 4.13986 0.78699 0
M  V30 6645 H 622.003 3.00197 1.28644 0
M  V30 6646 H 620.662 3.58535 -0.764719 0
M  V30 6647 H 620.31 4.83982 1.37004 0
M  V30 6648 H 620.01 5.87581 -0.0478356 0
M  V30 6649 H 621.534 6.0438 0.869333 0
M  V30 6650 H 622.948 5.5712 -1.35239 0
M  V30 6651 H 621.345 5.60537 -2.14284 0
M  V30 6652 H 622.415 4.21493 -2.39733 0
M  V30 6653 N 623.758 0.647228 1.43697 0
M  V30 6654 C 625.005 0.158188 2.01881 0
M  V30 6655 C 625.333 -1.22573 1.51017 0
M  V30 6656 O 624.588 -1.83086 0.69122 0
M  V30 6657 C 624.887 0.111481 3.57226 0
M  V30 6658 C 624.553 1.43633 4.27411 0
M  V30 6659 C 623.215 1.79915 4.463 0
M  V30 6660 C 625.567 2.31011 4.67208 0
M  V30 6661 C 622.895 3.03251 5.02251 0
M  V30 6662 C 625.247 3.53633 5.24525 0
M  V30 6663 C 623.911 3.90118 5.41631 0
M  V30 6664 H 623.181 0.0578851 0.738736 0
M  V30 6665 H 625.828 0.836746 1.72252 0
M  V30 6666 H 624.133 -0.650507 3.86362 0
M  V30 6667 H 625.83 -0.283682 3.99995 0
M  V30 6668 H 622.42 1.14403 4.1305 0
M  V30 6669 H 626.604 2.04272 4.52313 0
M  V30 6670 H 621.86 3.31575 5.13681 0
M  V30 6671 H 626.034 4.21561 5.5431 0
M  V30 6672 H 623.661 4.85768 5.84751 0
M  V30 6673 N 625.236 -1.5273 0.388769 0
M  V30 6674 C 626.485 -2.00757 -0.194833 0
M  V30 6675 C 626.798 -1.27951 -1.47946 0
M  V30 6676 O 628.004 -1.66686 -2.14308 0
M  V30 6677 C 626.46 -3.57695 -0.397762 0
M  V30 6678 C 626.068 -4.394 0.873583 0
M  V30 6679 C 627.812 -4.14012 -0.937759 0
M  V30 6680 C 625.719 -5.87938 0.638962 0
M  V30 6681 H 624.649 -0.750101 -0.0765845 0
M  V30 6682 H 627.3 -1.76239 0.511086 0
M  V30 6683 H 625.682 -3.7846 -1.16552 0
M  V30 6684 H 626.856 -4.30403 1.64591 0
M  V30 6685 H 625.171 -3.94301 1.33849 0
M  V30 6686 H 627.768 -5.22645 -1.12899 0
M  V30 6687 H 628.111 -3.7007 -1.90666 0
M  V30 6688 H 628.644 -3.97137 -0.229588 0
M  V30 6689 H 625.383 -6.36202 1.57885 0
M  V30 6690 H 624.903 -5.99726 -0.094443 0
M  V30 6691 H 626.582 -6.46423 0.273299 0
M  V30 6692 N 626.714 -0.118576 -1.57153 0
M  V30 6693 C 627.677 0.817464 -2.14127 0
M  V30 6694 C 628.677 1.1949 -1.07604 0
M  V30 6695 O 629.867 1.12048 -1.33382 0
M  V30 6696 C 626.999 2.10541 -2.68115 0
M  V30 6697 H 628.192 0.322339 -2.98163 0
M  V30 6698 H 625.745 0.130655 -1.55753 0
M  V30 6699 H 626.48 2.64485 -1.87665 0
M  V30 6700 H 626.265 1.84425 -3.4602 0
M  V30 6701 H 627.755 2.77453 -3.12105 0
M  V30 6702 N 628.193 1.56834 0.155195 0
M  V30 6703 C 629.156 1.96748 1.17571 0
M  V30 6704 C 630.156 0.853006 1.3631 0
M  V30 6705 O 631.346 1.11978 1.33441 0
M  V30 6706 C 628.478 2.27631 2.53765 0
M  V30 6707 H 629.671 2.88085 0.833498 0
M  V30 6708 H 627.224 1.51141 0.398242 0
M  V30 6709 H 627.959 1.39059 2.92973 0
M  V30 6710 H 627.744 3.0888 2.41527 0
M  V30 6711 H 629.234 2.59377 3.27282 0
M  V30 6712 N 629.671 -0.424282 1.51781 0
M  V30 6713 C 630.917 -1.17434 1.6534 0
M  V30 6714 C 631.25 -1.90549 0.374806 0
M  V30 6715 O 630.525 -1.84145 -0.626179 0
M  V30 6716 C 630.808 -2.18093 2.86544 0
M  V30 6717 C 630.661 -1.48975 4.24413 0
M  V30 6718 C 631.98 -3.18934 3.03264 0
M  V30 6719 H 629.099 -0.425566 0.601716 0
M  V30 6720 H 631.741 -0.461921 1.84299 0
M  V30 6721 H 629.891 -2.78849 2.7051 0
M  V30 6722 H 631.563 -0.914551 4.52143 0
M  V30 6723 H 629.806 -0.791893 4.26511 0
M  V30 6724 H 630.477 -2.22347 5.05238 0
M  V30 6725 H 632.953 -2.68243 3.18096 0
M  V30 6726 H 631.829 -3.86645 3.89611 0
M  V30 6727 H 632.09 -3.85793 2.15908 0
M  V30 6728 N 631.149 -1.42148 -0.680565 0
M  V30 6729 C 632.389 -1.4379 -1.45271 0
M  V30 6730 C 632.753 -0.0504426 -1.91934 0
M  V30 6731 O 633.954 0.0583916 -2.68737 0
M  V30 6732 C 632.225 -2.42904 -2.62168 0
M  V30 6733 S 633.784 -2.63201 -3.51099 0
M  V30 6734 H 630.602 -0.509185 -0.496237 0
M  V30 6735 H 633.204 -1.78706 -0.792744 0
M  V30 6736 H 631.908 -3.4249 -2.26116 0
M  V30 6737 H 631.439 -2.09394 -3.33043 0
M  V30 6738 H 633.454 -1.91068 -4.57938 0
M  V30 6739 N 632.627 0.916307 -1.28225 0
M  V30 6740 C 633.876 1.65975 -1.14608 0
M  V30 6741 C 634.189 1.93204 0.305191 0
M  V30 6742 O 635.395 2.65611 0.562432 0
M  V30 6743 C 633.851 2.98989 -2.00333 0
M  V30 6744 C 633.459 2.79417 -3.50186 0
M  V30 6745 C 635.203 3.76856 -1.95397 0
M  V30 6746 C 633.11 4.08056 -4.28071 0
M  V30 6747 H 632.04 0.622587 -0.425324 0
M  V30 6748 H 634.691 1.01705 -1.52736 0
M  V30 6749 H 633.073 3.6438 -1.5506 0
M  V30 6750 H 634.247 2.22723 -4.034 0
M  V30 6751 H 632.562 2.14966 -3.56621 0
M  V30 6752 H 635.159 4.72203 -2.50856 0
M  V30 6753 H 635.502 4.05776 -0.930137 0
M  V30 6754 H 636.035 3.1828 -2.38626 0
M  V30 6755 H 632.774 3.8431 -5.31024 0
M  V30 6756 H 632.294 4.64371 -3.79631 0
M  V30 6757 H 633.973 4.76333 -4.37854 0
M  V30 6758 N 634.105 1.10431 1.1244 0
M  V30 6759 C 635.354 0.841539 1.83306 0
M  V30 6760 C 635.667 -0.634961 1.85007 0
M  V30 6761 O 636.873 -1.01363 2.51869 0
M  V30 6762 C 635.329 1.45565 3.29149 0
M  V30 6763 C 634.937 2.96544 3.35806 0
M  V30 6764 C 636.681 1.27227 4.04986 0
M  V30 6765 C 634.588 3.5099 4.75983 0
M  V30 6766 H 633.518 0.311156 0.686803 0
M  V30 6767 H 636.169 1.32829 1.26604 0
M  V30 6768 H 634.551 0.896574 3.85717 0
M  V30 6769 H 635.725 3.58766 2.89177 0
M  V30 6770 H 634.04 3.14036 2.73442 0
M  V30 6771 H 636.637 1.65348 5.08492 0
M  V30 6772 H 636.98 0.213834 4.1575 0
M  V30 6773 H 637.513 1.79941 3.54776 0
M  V30 6774 H 634.252 4.56499 4.70413 0
M  V30 6775 H 633.772 2.93535 5.23065 0
M  V30 6776 H 635.451 3.48808 5.44924 0
M  V30 6777 N 635.583 -1.29855 0.893053 0
M  V30 6778 C 636.808 -2.00512 0.530066 0
M  V30 6779 C 637.233 -1.66446 -0.876199 0
M  V30 6780 O 636.591 -0.885446 -1.58207 0
M  V30 6781 C 636.639 -3.53308 0.721505 0
M  V30 6782 O 635.743 -4.11764 -0.228994 0
M  V30 6783 H 635.084 -0.630617 0.207891 0
M  V30 6784 H 637.614 -1.6551 1.20282 0
M  V30 6785 H 637.624 -4.03206 0.623599 0
M  V30 6786 H 636.299 -3.77439 1.74678 0
M  V30 6787 H 634.876 -3.72805 -0.0841034 0
M  V30 6788 N 637.061 -0.65484 -1.43351 0
M  V30 6789 C 638.291 -0.176429 -2.05845 0
M  V30 6790 C 638.699 1.16375 -1.49176 0
M  V30 6791 O 638.042 1.72981 -0.618322 0
M  V30 6792 C 638.104 -0.0125844 -3.59498 0
M  V30 6793 C 637.768 -1.27831 -4.38758 0
M  V30 6794 C 638.765 -2.2074 -4.70712 0
M  V30 6795 C 636.45 -1.52035 -4.78739 0
M  V30 6796 C 638.444 -3.36145 -5.41558 0
M  V30 6797 C 636.131 -2.67732 -5.49329 0
M  V30 6798 C 637.129 -3.59612 -5.80662 0
M  V30 6799 O 636.817 -4.73289 -6.4981 0
M  V30 6800 H 636.549 -0.0879682 -0.670252 0
M  V30 6801 H 639.103 -0.896193 -1.84818 0
M  V30 6802 H 637.333 0.762567 -3.79107 0
M  V30 6803 H 639.022 0.423392 -4.03686 0
M  V30 6804 H 639.788 -2.03284 -4.40341 0
M  V30 6805 H 635.667 -0.813987 -4.53757 0
M  V30 6806 H 639.211 -4.07881 -5.65932 0
M  V30 6807 H 635.108 -2.85122 -5.79116 0
M  V30 6808 H 635.876 -4.72575 -6.68293 0
M  V30 6809 N 638.539 1.52521 -0.396863 0
M  V30 6810 C 639.469 2.29582 0.425941 0
M  V30 6811 C 640.45 1.33281 1.05689 0
M  V30 6812 O 641.635 1.62181 1.06823 0
M  V30 6813 C 638.765 3.10821 1.54943 0
M  V30 6814 C 637.719 4.15069 1.04413 0
M  V30 6815 C 637.045 4.84578 2.26028 0
M  V30 6816 C 638.345 5.22191 0.106767 0
M  V30 6817 H 640.039 2.98612 -0.217045 0
M  V30 6818 H 637.585 1.43611 -0.105826 0
M  V30 6819 H 639.538 3.63492 2.13193 0
M  V30 6820 H 638.262 2.39538 2.22011 0
M  V30 6821 H 636.921 3.63389 0.484118 0
M  V30 6822 H 636.569 4.09835 2.91623 0
M  V30 6823 H 636.269 5.55043 1.92876 0
M  V30 6824 H 637.793 5.40056 2.84906 0
M  V30 6825 H 639.207 5.70176 0.597685 0
M  V30 6826 H 637.604 5.99947 -0.135352 0
M  V30 6827 H 638.674 4.77531 -0.842134 0
M  V30 6828 N 640.017 0.126909 1.57088 0
M  V30 6829 C 641.266 -0.529024 1.94639 0
M  V30 6830 C 641.579 -1.67323 1.01304 0
M  V30 6831 O 642.785 -2.39245 1.28352 0
M  V30 6832 C 641.241 -0.992483 3.45945 0
M  V30 6833 C 640.849 0.123691 4.47829 0
M  V30 6834 C 642.593 -1.61934 3.924 0
M  V30 6835 C 640.5 -0.356911 5.90322 0
M  V30 6836 H 639.43 -0.201397 0.726605 0
M  V30 6837 H 642.081 0.208032 1.82317 0
M  V30 6838 H 640.463 -1.7842 3.53528 0
M  V30 6839 H 641.637 0.900168 4.51922 0
M  V30 6840 H 639.952 0.657699 4.11173 0
M  V30 6841 H 642.549 -1.9902 4.96281 0
M  V30 6842 H 642.892 -2.50075 3.32819 0
M  V30 6843 H 643.425 -0.892894 3.8765 0
M  V30 6844 H 640.164 0.488636 6.53676 0
M  V30 6845 H 639.684 -1.0997 5.89633 0
M  V30 6846 H 641.363 -0.815547 6.41839 0
M  V30 6847 N 641.495 -1.56914 -0.146875 0
M  V30 6848 C 642.743 -1.82994 -0.85777 0
M  V30 6849 C 643.064 -0.707814 -1.817 0
M  V30 6850 O 642.334 0.270521 -1.94023 0
M  V30 6851 H 640.914 -0.675106 -0.319751 0
M  V30 6852 H 643.576 -1.9439 -0.140849 0
M  V30 6853 H 642.672 -2.77928 -1.41994 0
M  V30 6854 N 642.974 0.416227 -1.52004 0
M  V30 6855 C 643.904 1.51365 -1.77795 0
M  V30 6856 C 644.885 1.58059 -0.628601 0
M  V30 6857 O 646.07 1.73447 -0.873478 0
M  V30 6858 C 643.2 2.89256 -1.92219 0
M  V30 6859 C 642.154 2.97415 -3.0778 0
M  V30 6860 C 641.48 4.37492 -3.07417 0
M  V30 6861 C 642.78 2.69551 -4.47369 0
M  V30 6862 H 644.474 1.30033 -2.69688 0
M  V30 6863 H 642.02 0.624112 -1.29772 0
M  V30 6864 H 643.973 3.66008 -2.08845 0
M  V30 6865 H 642.697 3.11866 -0.969917 0
M  V30 6866 H 641.356 2.23107 -2.90893 0
M  V30 6867 H 641.004 4.571 -2.09925 0
M  V30 6868 H 640.704 4.43877 -3.85029 0
M  V30 6869 H 642.228 5.16188 -3.26162 0
M  V30 6870 H 643.642 3.36028 -4.64497 0
M  V30 6871 H 642.039 2.87321 -5.26846 0
M  V30 6872 H 643.109 1.65029 -4.55953 0
M  V30 6873 N 644.452 1.42507 0.673017 0
M  V30 6874 C 645.677 1.4668 1.46627 0
M  V30 6875 C 646.102 0.080066 1.8793 0
M  V30 6876 O 645.46 -0.921879 1.56112 0
M  V30 6877 C 645.508 2.40091 2.69051 0
M  V30 6878 O 644.612 1.8735 3.67387 0
M  V30 6879 H 643.953 0.496908 0.44043 0
M  V30 6880 H 646.483 1.87215 0.825334 0
M  V30 6881 H 646.493 2.56731 3.17101 0
M  V30 6882 H 645.168 3.4084 2.3833 0
M  V30 6883 H 643.745 1.80274 3.26429 0
M  V30 6884 N 645.93 -0.909495 1.28709 0
M  V30 6885 C 646.878 -2.03381 1.12866 0
M  V30 6886 C 647.872 -1.69335 0.0468074 0
M  V30 6887 O 649.078 -1.78819 0.205891 0
M  V30 6888 H 645.453 -0.666452 0.348348 0
M  V30 6889 H 647.424 -2.13885 2.08077 0
M  V30 6890 C 646.173 -3.38092 0.811742 0
M  V30 6891 H 645.496 -3.64786 1.63619 0
M  V30 6892 H 646.936 -4.17477 0.740869 0
M  V30 6893 C 645.395 -3.33395 -0.484679 0
M  V30 6894 O 645.925 -3.72089 -1.5137 0
M  V30 6895 N 644.131 -2.86491 -0.486961 0
M  V30 6896 H 643.678 -2.55199 0.350877 0
M  V30 6897 H 643.636 -2.83731 -1.3544 0
M  V30 6898 N 647.408 -1.11026 -1.11852 0
M  V30 6899 C 648.657 -0.851249 -1.82857 0
M  V30 6900 C 648.97 0.62514 -1.85341 0
M  V30 6901 O 650.176 1.00026 -2.52403 0
M  V30 6902 C 648.632 -1.47309 -3.28372 0
M  V30 6903 C 648.24 -2.9832 -3.34229 0
M  V30 6904 C 649.984 -1.29373 -4.04306 0
M  V30 6905 C 647.891 -3.53509 -4.74115 0
M  V30 6906 H 646.821 -0.314794 -0.685143 0
M  V30 6907 H 649.472 -1.33499 -1.25898 0
M  V30 6908 H 647.854 -0.917017 -3.85236 0
M  V30 6909 H 649.028 -3.60295 -2.87271 0
M  V30 6910 H 647.343 -3.15482 -2.71772 0
M  V30 6911 H 649.94 -1.68042 -5.07608 0
M  V30 6912 H 650.283 -0.235879 -4.15631 0
M  V30 6913 H 650.816 -1.8182 -3.53817 0
M  V30 6914 H 647.555 -4.58987 -4.67986 0
M  V30 6915 H 647.075 -2.96305 -5.21501 0
M  V30 6916 H 648.754 -3.51693 -5.43066 0
M  V30 6917 N 648.886 1.2938 -0.899927 0
M  V30 6918 C 650.114 1.99691 -0.541386 0
M  V30 6919 C 650.529 1.67355 0.873936 0
M  V30 6920 O 649.886 0.918728 1.57688 0
M  V30 6921 C 649.937 3.54168 -0.72438 0
M  V30 6922 O 649.658 3.85359 -2.08399 0
M  V30 6923 C 651.159 4.41746 -0.370819 0
M  V30 6924 H 648.379 0.638037 -0.207726 0
M  V30 6925 H 650.923 1.6491 -1.20934 0
M  V30 6926 H 649.078 3.87261 -0.103607 0
M  V30 6927 H 649.492 4.80032 -2.11352 0
M  V30 6928 H 650.966 5.49256 -0.549693 0
M  V30 6929 H 651.443 4.33712 0.692148 0
M  V30 6930 H 652.049 4.14125 -0.968543 0
M  V30 6931 N 650.364 0.662433 1.43002 0
M  V30 6932 C 651.296 -0.062326 2.29115 0
M  V30 6933 C 652.309 -0.777926 1.43011 0
M  V30 6934 O 653.498 -0.634146 1.66856 0
M  V30 6935 C 650.598 -1.11163 3.2015 0
M  V30 6936 C 649.771 -0.472327 4.34842 0
M  V30 6937 C 648.83 -1.41974 5.06685 0
M  V30 6938 O 647.856 -0.924795 5.61637 0
M  V30 6939 N 649.058 -2.75345 5.11043 0
M  V30 6940 H 651.823 0.676838 2.91957 0
M  V30 6941 H 649.384 0.505907 1.53793 0
M  V30 6942 H 651.376 -1.74643 3.65078 0
M  V30 6943 H 649.946 -1.75266 2.58845 0
M  V30 6944 H 649.166 0.341751 3.92716 0
M  V30 6945 H 650.454 -0.0264381 5.08793 0
M  V30 6946 H 649.852 -3.18108 4.67786 0
M  V30 6947 H 648.409 -3.34105 5.59658 0
M  V30 6948 N 651.842 -1.52309 0.404946 0
M  V30 6949 C 653.09 -2.01368 -0.17186 0
M  V30 6950 C 653.411 -1.29261 -1.46002 0
M  V30 6951 O 652.681 -0.41729 -1.91404 0
M  V30 6952 H 651.261 -0.744034 -0.0664993 0
M  V30 6953 H 653.923 -1.87263 0.540228 0
M  V30 6954 H 653.019 -3.09888 -0.370957 0
M  V30 6955 N 653.32 -0.135238 -1.57019 0
M  V30 6956 C 654.568 0.51777 -1.95355 0
M  V30 6957 C 654.889 1.6617 -1.02042 0
M  V30 6958 O 654.159 1.95738 -0.0797343 0
M  V30 6959 H 652.739 0.194264 -0.721298 0
M  V30 6960 H 655.401 -0.207983 -1.93787 0
M  V30 6961 H 654.497 0.901675 -2.98791 0
M  V30 6962 N 654.798 1.5699 0.138552 0
M  V30 6963 C 656.047 1.82998 0.848205 0
M  V30 6964 C 656.36 0.717829 1.81952 0
M  V30 6965 O 657.566 0.863756 2.57394 0
M  V30 6966 C 656.022 3.24379 1.55904 0
M  V30 6967 C 655.63 4.43552 0.62971 0
M  V30 6968 C 657.374 3.59654 2.25498 0
M  V30 6969 C 655.281 5.75957 1.34266 0
M  V30 6970 H 654.211 0.682495 0.320495 0
M  V30 6971 H 656.862 1.83222 0.100924 0
M  V30 6972 H 655.244 3.18567 2.35226 0
M  V30 6973 H 656.418 4.6062 -0.128882 0
M  V30 6974 H 654.733 4.16379 0.0417526 0
M  V30 6975 H 657.33 4.55837 2.79493 0
M  V30 6976 H 657.673 2.86124 3.02388 0
M  V30 6977 H 658.206 3.67164 1.53087 0
M  V30 6978 H 654.945 6.52604 0.615441 0
M  V30 6979 H 654.465 5.62811 2.07375 0
M  V30 6980 H 656.144 6.19046 1.88126 0
M  V30 6981 N 656.276 -0.40816 1.52223 0
M  V30 6982 C 657.506 -1.17501 1.69932 0
M  V30 6983 C 657.914 -1.84729 0.408874 0
M  V30 6984 O 657.257 -1.7274 -0.625025 0
M  V30 6985 C 657.319 -2.27994 2.77955 0
M  V30 6986 C 656.983 -1.80894 4.19674 0
M  V30 6987 C 657.98 -1.29618 5.03483 0
M  V30 6988 C 655.665 -1.87698 4.65913 0
M  V30 6989 C 657.659 -0.857695 6.31603 0
M  V30 6990 C 655.346 -1.43461 5.94022 0
M  V30 6991 C 656.344 -0.925822 6.76696 0
M  V30 6992 O 656.032 -0.489841 8.02406 0
M  V30 6993 H 655.764 -0.359065 0.572755 0
M  V30 6994 H 658.318 -0.486188 1.99563 0
M  V30 6995 H 656.548 -3.00243 2.43703 0
M  V30 6996 H 658.237 -2.89749 2.84254 0
M  V30 6997 H 659.003 -1.23733 4.68951 0
M  V30 6998 H 654.882 -2.26244 4.01665 0
M  V30 6999 H 658.426 -0.459879 6.96083 0
M  V30 7000 H 654.323 -1.49026 6.28062 0
M  V30 7001 H 655.091 -0.613062 8.16201 0
M  V30 7002 N 657.755 -1.42862 -0.66545 0
M  V30 7003 C 659.001 -1.44043 -1.42757 0
M  V30 7004 C 659.334 -0.0599629 -1.94107 0
M  V30 7005 O 658.609 0.917286 -1.71511 0
M  V30 7006 C 658.892 -2.47266 -2.61786 0
M  V30 7007 C 658.745 -3.94539 -2.16007 0
M  V30 7008 C 660.064 -2.47365 -3.64003 0
M  V30 7009 H 657.183 -0.524506 -0.517748 0
M  V30 7010 H 659.825 -1.74335 -0.755466 0
M  V30 7011 H 657.975 -2.21565 -3.19126 0
M  V30 7012 H 659.647 -4.31254 -1.63762 0
M  V30 7013 H 657.89 -4.07957 -1.47491 0
M  V30 7014 H 658.561 -4.62357 -3.01546 0
M  V30 7015 H 661.037 -2.70243 -3.16399 0
M  V30 7016 H 659.913 -3.21552 -4.44854 0
M  V30 7017 H 660.174 -1.50299 -4.15767 0
M  V30 7018 N 659.233 0.902656 -1.29189 0
M  V30 7019 C 660.48 1.65287 -1.16989 0
M  V30 7020 C 660.808 1.92485 0.279232 0
M  V30 7021 O 660.063 1.53143 1.21843 0
M  V30 7022 C 660.362 3.011 -1.92545 0
M  V30 7023 C 660.028 2.93521 -3.42281 0
M  V30 7024 C 658.69 2.91161 -3.83117 0
M  V30 7025 C 661.042 2.82947 -4.3771 0
M  V30 7026 C 658.37 2.76043 -5.17704 0
M  V30 7027 C 660.722 2.69368 -5.72384 0
M  V30 7028 C 659.386 2.65373 -6.12482 0
M  V30 7029 H 658.656 0.604828 -0.428094 0
M  V30 7030 H 661.303 1.05084 -1.60092 0
M  V30 7031 H 659.608 3.65153 -1.42024 0
M  V30 7032 H 661.305 3.58073 -1.80512 0
M  V30 7033 H 657.895 2.96158 -3.09819 0
M  V30 7034 H 662.079 2.83849 -4.07116 0
M  V30 7035 H 657.335 2.71352 -5.47885 0
M  V30 7036 H 661.509 2.60156 -6.45981 0
M  V30 7037 H 659.136 2.53415 -7.16718 0
M  V30 7038 N 660.711 1.11618 1.11262 0
M  V30 7039 C 661.658 0.7762 2.17356 0
M  V30 7040 C 662.628 -0.253152 1.6416 0
M  V30 7041 O 663.813 -0.129655 1.90359 0
M  V30 7042 C 660.953 0.227581 3.44349 0
M  V30 7043 C 660.066 1.31372 4.1154 0
M  V30 7044 C 659.201 0.72544 5.26223 0
M  V30 7045 C 658.24 1.7913 5.85302 0
M  V30 7046 N 657.377 1.22237 6.91377 0
M  V30 7047 H 662.217 1.68508 2.45783 0
M  V30 7048 H 659.754 0.841475 1.20655 0
M  V30 7049 H 661.712 -0.108483 4.17059 0
M  V30 7050 H 660.342 -0.644486 3.16301 0
M  V30 7051 H 659.394 1.7667 3.36885 0
M  V30 7052 H 660.706 2.12005 4.51504 0
M  V30 7053 H 659.86 0.339541 6.05749 0
M  V30 7054 H 658.599 -0.112188 4.87571 0
M  V30 7055 H 657.604 2.18648 5.04453 0
M  V30 7056 H 658.829 2.63199 6.26022 0
M  V30 7057 H 656.775 0.406423 6.5474 0
M  V30 7058 H 656.692 1.9654 7.30006 0
M  V30 7059 H 657.96 0.863426 7.74703 0
M  V30 7060 N 662.189 -1.289 0.906776 0
M  V30 7061 C 663.119 -2.29932 0.406659 0
M  V30 7062 C 664.1 -1.6189 -0.522061 0
M  V30 7063 O 665.285 -1.8935 -0.431283 0
M  V30 7064 C 662.415 -3.45425 -0.360366 0
M  V30 7065 C 661.369 -4.25316 0.478574 0
M  V30 7066 C 660.695 -5.33076 -0.416373 0
M  V30 7067 C 661.995 -4.92739 1.7322 0
M  V30 7068 H 663.689 -2.72013 1.25097 0
M  V30 7069 H 661.235 -1.30768 0.602977 0
M  V30 7070 H 663.188 -4.15186 -0.721029 0
M  V30 7071 H 661.912 -3.02206 -1.23852 0
M  V30 7072 H 660.571 -3.57273 0.821662 0
M  V30 7073 H 660.219 -4.86101 -1.29287 0
M  V30 7074 H 659.919 -5.8743 0.141309 0
M  V30 7075 H 661.443 -6.05686 -0.773072 0
M  V30 7076 H 662.857 -5.54898 1.44086 0
M  V30 7077 H 661.254 -5.57057 2.23175 0
M  V30 7078 H 662.324 -4.17625 2.46408 0
M  V30 7079 N 663.667 -0.670007 -1.42649 0
M  V30 7080 C 664.914 -0.190286 -2.01604 0
M  V30 7081 C 665.242 1.20155 -1.52948 0
M  V30 7082 O 664.497 1.81964 -0.72026 0
M  V30 7083 C 664.796 -0.168298 -3.57004 0
M  V30 7084 C 664.462 -1.50415 -4.25072 0
M  V30 7085 C 663.124 -1.86992 -4.43382 0
M  V30 7086 C 665.476 -2.38414 -4.63474 0
M  V30 7087 C 662.804 -3.11203 -4.97363 0
M  V30 7088 C 665.156 -3.61933 -5.18833 0
M  V30 7089 C 663.82 -3.98685 -5.35356 0
M  V30 7090 H 663.09 -0.0696305 -0.737721 0
M  V30 7091 H 665.737 -0.864044 -1.70899 0
M  V30 7092 H 664.042 0.588958 -3.87348 0
M  V30 7093 H 665.739 0.22001 -4.00396 0
M  V30 7094 H 662.329 -1.20959 -4.11177 0
M  V30 7095 H 666.513 -2.11442 -4.49006 0
M  V30 7096 H 661.769 -3.39705 -5.08341 0
M  V30 7097 H 665.943 -4.30326 -5.47533 0
M  V30 7098 H 663.57 -4.95009 -5.76949 0
M  V30 7099 N 665.145 1.52092 -0.413018 0
M  V30 7100 C 666.422 1.94356 0.22024 0
M  V30 7101 C 666.802 1.35017 1.62277 0
M  V30 7102 O 666.15 0.527511 2.22328 0
M  V30 7103 C 666.36 3.48289 0.222638 0
M  V30 7104 C 667.708 4.22313 0.440098 0
M  V30 7105 O 668.732 3.54919 0.301826 0
M  V30 7106 O 667.591 5.41829 0.712984 0
M  V30 7107 H 664.685 0.814536 0.14304 0
M  V30 7108 H 667.231 1.63083 -0.469242 0
M  V30 7109 H 666.003 3.83872 -0.758836 0
M  V30 7110 H 665.626 3.85934 0.956057 0
M  V30 7111 N 666.623 0.143563 1.56945 0
M  V30 7112 C 667.853 -0.514699 2.00086 0
M  V30 7113 C 668.261 -1.59184 1.0226 0
M  V30 7114 O 667.604 -1.83697 0.0110514 0
M  V30 7115 C 667.666 -1.17778 3.39659 0
M  V30 7116 C 667.33 -0.245657 4.56339 0
M  V30 7117 C 668.327 0.525343 5.17239 0
M  V30 7118 C 666.012 -0.149564 5.02077 0
M  V30 7119 C 668.006 1.37992 6.22284 0
M  V30 7120 C 665.693 0.708621 6.06978 0
M  V30 7121 C 666.691 1.47197 6.6695 0
M  V30 7122 O 666.379 2.31586 7.6982 0
M  V30 7123 H 666.111 -0.138789 0.661599 0
M  V30 7124 H 668.665 0.234098 2.04062 0
M  V30 7125 H 666.895 -1.97415 3.32512 0
M  V30 7126 H 668.584 -1.73542 3.6693 0
M  V30 7127 H 669.35 0.461118 4.82803 0
M  V30 7128 H 665.229 -0.733457 4.55128 0
M  V30 7129 H 668.773 1.97621 6.69023 0
M  V30 7130 H 664.67 0.77415 6.40841 0
M  V30 7131 H 665.438 2.24796 7.87025 0
M  V30 7132 N 668.101 -1.57061 -0.130224 0
M  V30 7133 C 669.331 -1.88159 -0.853217 0
M  V30 7134 C 669.739 -0.731675 -1.7448 0
M  V30 7135 O 669.082 0.307035 -1.81116 0
M  V30 7136 C 669.144 -3.1415 -1.74785 0
M  V30 7137 C 668.808 -4.45202 -1.03173 0
M  V30 7138 C 669.805 -5.18526 -0.377759 0
M  V30 7139 C 667.49 -4.91912 -1.01624 0
M  V30 7140 C 669.484 -6.36775 0.282123 0
M  V30 7141 C 667.171 -6.10082 -0.352555 0
M  V30 7142 C 668.169 -6.82361 0.295483 0
M  V30 7143 O 667.857 -7.98284 0.948606 0
M  V30 7144 H 667.589 -0.627596 -0.251197 0
M  V30 7145 H 670.143 -2.05034 -0.1226 0
M  V30 7146 H 668.373 -2.93328 -2.51983 0
M  V30 7147 H 670.062 -3.31359 -2.34427 0
M  V30 7148 H 670.828 -4.83498 -0.381417 0
M  V30 7149 H 666.707 -4.35566 -1.51007 0
M  V30 7150 H 670.251 -6.93129 0.788525 0
M  V30 7151 H 666.148 -6.44569 -0.346621 0
M  V30 7152 H 666.916 -8.14054 0.851954 0
M  V30 7153 N 669.579 0.400081 -1.52437 0
M  V30 7154 C 670.804 1.17221 -1.71096 0
M  V30 7155 C 671.229 1.83269 -0.423565 0
M  V30 7156 O 670.587 1.70378 0.619751 0
M  V30 7157 C 670.635 2.20425 -2.85386 0
M  V30 7158 O 669.739 3.26769 -2.51586 0
M  V30 7159 H 669.08 0.341766 -0.569291 0
M  V30 7160 H 671.61 0.467772 -1.99181 0
M  V30 7161 H 671.62 2.64605 -3.10561 0
M  V30 7162 H 670.295 1.71737 -3.78786 0
M  V30 7163 H 668.872 2.87804 -2.37114 0
M  V30 7164 N 671.057 1.43213 0.657864 0
M  V30 7165 C 672.02 1.47687 1.75275 0
M  V30 7166 C 673.02 0.362179 1.56668 0
M  V30 7167 O 674.21 0.623734 1.62651 0
M  V30 7168 C 671.342 1.32497 3.14098 0
M  V30 7169 H 672.535 2.4519 1.7269 0
M  V30 7170 H 670.088 1.2991 0.869087 0
M  V30 7171 H 670.823 0.359831 3.22298 0
M  V30 7172 H 670.608 2.13299 3.29008 0
M  V30 7173 H 672.098 1.38549 3.93946 0
M  V30 7174 N 672.536 -0.895792 1.29666 0
M  V30 7175 C 673.761 -1.68528 1.20885 0
M  V30 7176 C 674.186 -1.8673 -0.226595 0
M  V30 7177 O 673.544 -1.39044 -1.16347 0
M  V30 7178 C 673.592 -3.04512 1.93144 0
M  V30 7179 O 672.696 -3.92963 1.25115 0
M  V30 7180 H 672.037 -0.515371 0.418675 0
M  V30 7181 H 674.567 -1.11878 1.71302 0
M  V30 7182 H 674.577 -3.54628 2.0175 0
M  V30 7183 H 673.252 -2.90582 2.97548 0
M  V30 7184 H 671.829 -3.51399 1.24794 0
M  V30 7185 N 674.014 -1.12206 -1.10668 0
M  V30 7186 C 675.262 -0.874144 -1.82217 0
M  V30 7187 C 675.583 0.601736 -1.85484 0
M  V30 7188 O 674.853 1.43725 -1.33116 0
M  V30 7189 H 673.433 -0.320404 -0.674797 0
M  V30 7190 H 676.095 -1.41606 -1.33917 0
M  V30 7191 H 675.191 -1.25349 -2.85822 0
M  V30 7192 N 675.492 1.28418 -0.913599 0
M  V30 7193 C 676.425 2.25557 -0.346328 0
M  V30 7194 C 677.403 1.53038 0.549366 0
M  V30 7195 O 678.587 1.81937 0.493055 0
M  V30 7196 C 675.714 3.34915 0.504961 0
M  V30 7197 C 674.76 4.25257 -0.325334 0
M  V30 7198 S 675.593 5.06718 -1.73198 0
M  V30 7199 C 676.749 6.19569 -0.887988 0
M  V30 7200 H 676.982 2.73325 -1.16965 0
M  V30 7201 H 674.515 1.36855 -0.714841 0
M  V30 7202 H 676.473 3.98376 0.990301 0
M  V30 7203 H 675.134 2.85814 1.30267 0
M  V30 7204 H 674.327 5.02947 0.325589 0
M  V30 7205 H 673.929 3.66519 -0.744321 0
M  V30 7206 H 676.221 6.77398 -0.117568 0
M  V30 7207 H 677.164 6.88908 -1.63742 0
M  V30 7208 H 677.572 5.62812 -0.436228 0
M  V30 7209 N 676.97 0.677563 1.42291 0
M  V30 7210 C 678.195 0.207901 2.06355 0
M  V30 7211 C 678.62 -1.12723 1.50583 0
M  V30 7212 O 677.978 -1.70171 0.62543 0
M  V30 7213 C 678.026 0.156489 3.6026 0
M  V30 7214 O 677.13 -0.874162 4.03029 0
M  V30 7215 H 676.471 0.106056 0.655475 0
M  V30 7216 H 679.001 0.927354 1.82377 0
M  V30 7217 H 679.011 -0.0187258 4.07996 0
M  V30 7218 H 677.686 1.13101 4.00226 0
M  V30 7219 H 676.263 -0.669764 3.66836 0
M  V30 7220 N 678.448 -1.51871 0.421078 0
M  V30 7221 C 679.378 -2.30231 -0.389363 0
M  V30 7222 C 680.359 -1.34946 -1.03555 0
M  V30 7223 O 681.544 -1.63859 -1.04229 0
M  V30 7224 C 678.674 -3.13247 -1.49979 0
M  V30 7225 C 677.628 -4.16677 -0.977966 0
M  V30 7226 C 676.954 -4.88112 -2.1829 0
M  V30 7227 C 678.254 -5.22295 -0.0236775 0
M  V30 7228 H 679.948 -2.98229 0.264524 0
M  V30 7229 H 677.494 -1.43424 0.12866 0
M  V30 7230 H 679.447 -3.66838 -2.07383 0
M  V30 7231 H 678.171 -2.4304 -2.18173 0
M  V30 7232 H 676.83 -3.64114 -0.426245 0
M  V30 7233 H 676.478 -4.14423 -2.85066 0
M  V30 7234 H 676.178 -5.58041 -1.84021 0
M  V30 7235 H 677.702 -5.44521 -2.76278 0
M  V30 7236 H 679.116 -5.71055 -0.506899 0
M  V30 7237 H 677.513 -5.99656 0.230782 0
M  V30 7238 H 678.583 -4.76131 0.917999 0
M  V30 7239 N 679.926 -0.151884 -1.56866 0
M  V30 7240 C 680.856 0.781943 -2.20018 0
M  V30 7241 C 681.837 1.25347 -1.14987 0
M  V30 7242 O 683.022 1.31015 -1.43348 0
M  V30 7243 C 680.152 2.01928 -2.82564 0
M  V30 7244 C 679.106 1.68434 -3.93464 0
M  V30 7245 C 678.432 2.99472 -4.42968 0
M  V30 7246 C 679.732 0.927244 -5.14003 0
M  V30 7247 H 681.426 0.255607 -2.98307 0
M  V30 7248 H 678.972 0.121502 -1.43486 0
M  V30 7249 H 680.925 2.67741 -3.25411 0
M  V30 7250 H 679.649 2.56943 -2.01614 0
M  V30 7251 H 678.308 1.04998 -3.51242 0
M  V30 7252 H 677.956 3.52488 -3.58834 0
M  V30 7253 H 677.656 2.77823 -5.17772 0
M  V30 7254 H 679.18 3.66348 -4.88489 0
M  V30 7255 H 680.594 1.48756 -5.53665 0
M  V30 7256 H 678.991 0.810513 -5.94601 0
M  V30 7257 H 680.061 -0.0801163 -4.84834 0
M  V30 7258 N 681.404 1.57128 0.121893 0
M  V30 7259 C 682.651 1.847 0.830188 0
M  V30 7260 C 682.979 0.736543 1.80015 0
M  V30 7261 O 682.234 -0.272358 1.93796 0
M  V30 7262 C 682.533 3.1874 1.61677 0
M  V30 7263 C 682.199 4.43901 0.791361 0
M  V30 7264 C 680.861 4.77887 0.563731 0
M  V30 7265 C 683.213 5.20753 0.215823 0
M  V30 7266 C 680.541 5.86168 -0.249737 0
M  V30 7267 C 682.893 6.29891 -0.584821 0
M  V30 7268 C 681.557 6.6241 -0.822794 0
M  V30 7269 H 680.827 0.675866 0.303787 0
M  V30 7270 H 683.474 1.91276 0.0926894 0
M  V30 7271 H 681.779 3.07728 2.42509 0
M  V30 7272 H 683.476 3.37295 2.16872 0
M  V30 7273 H 680.066 4.17272 0.978867 0
M  V30 7274 H 684.25 4.94851 0.378907 0
M  V30 7275 H 679.506 6.0979 -0.44336 0
M  V30 7276 H 683.68 6.88624 -1.03779 0
M  V30 7277 H 681.307 7.46147 -1.45496 0
M  V30 7278 N 682.882 -0.391992 1.52647 0
M  V30 7279 C 683.812 -1.48517 1.8018 0
M  V30 7280 C 684.793 -1.57039 0.653667 0
M  V30 7281 O 685.978 -1.72036 0.900962 0
M  V30 7282 C 683.108 -2.86161 1.96797 0
M  V30 7283 C 682.062 -2.92481 3.12472 0
M  V30 7284 C 681.388 -4.32546 3.14338 0
M  V30 7285 C 682.688 -2.624 4.51601 0
M  V30 7286 H 684.382 -1.25726 2.71723 0
M  V30 7287 H 681.928 -0.603387 1.30749 0
M  V30 7288 H 683.881 -3.62639 2.14641 0
M  V30 7289 H 682.605 -3.10283 1.01941 0
M  V30 7290 H 681.264 -2.18451 2.94406 0
M  V30 7291 H 680.912 -4.53703 2.1717 0
M  V30 7292 H 680.612 -4.37695 3.92042 0
M  V30 7293 H 682.136 -5.10934 3.34333 0
M  V30 7294 H 683.55 -3.28596 4.69785 0
M  V30 7295 H 681.947 -2.78903 5.3135 0
M  V30 7296 H 683.017 -1.57754 4.58521 0
M  V30 7297 N 684.36 -1.4356 -0.65026 0
M  V30 7298 C 685.606 -1.45549 -1.41221 0
M  V30 7299 C 685.939 -0.0805472 -1.94033 0
M  V30 7300 O 685.214 0.899043 -1.72475 0
M  V30 7301 C 685.497 -2.50028 -2.59148 0
M  V30 7302 C 685.35 -3.96808 -2.1181 0
M  V30 7303 C 686.669 -2.51212 -3.61359 0
M  V30 7304 H 683.788 -0.529967 -0.512156 0
M  V30 7305 H 686.43 -1.75127 -0.736933 0
M  V30 7306 H 684.58 -2.24937 -3.16758 0
M  V30 7307 H 686.252 -4.32966 -1.59178 0
M  V30 7308 H 684.495 -4.09498 -1.43156 0
M  V30 7309 H 685.166 -4.6553 -2.96625 0
M  V30 7310 H 687.642 -2.73583 -3.13515 0
M  V30 7311 H 686.518 -3.26252 -4.41419 0
M  V30 7312 H 686.779 -1.54701 -4.1415 0
M  V30 7313 N 685.838 0.888903 -1.30139 0
M  V30 7314 C 687.085 1.64037 -1.18736 0
M  V30 7315 C 687.413 1.92771 0.258801 0
M  V30 7316 O 686.668 1.54427 1.20212 0
M  V30 7317 C 686.967 2.99041 -1.95728 0
M  V30 7318 C 686.633 2.89874 -3.45375 0
M  V30 7319 C 685.295 2.87082 -3.86183 0
M  V30 7320 C 687.647 2.78289 -4.40687 0
M  V30 7321 C 684.975 2.70536 -5.20603 0
M  V30 7322 C 687.327 2.63282 -5.75209 0
M  V30 7323 C 685.991 2.58861 -6.15262 0
M  V30 7324 H 685.261 0.600253 -0.434485 0
M  V30 7325 H 687.908 1.0338 -1.61198 0
M  V30 7326 H 686.213 3.63626 -1.45888 0
M  V30 7327 H 687.91 3.56139 -1.843 0
M  V30 7328 H 684.5 2.92856 -3.12943 0
M  V30 7329 H 688.684 2.79516 -4.10103 0
M  V30 7330 H 683.94 2.65526 -5.50732 0
M  V30 7331 H 688.114 2.5329 -6.48704 0
M  V30 7332 H 685.741 2.45799 -7.19366 0
M  V30 7333 N 687.317 1.12792 1.10072 0
M  V30 7334 C 688.564 0.885545 1.82111 0
M  V30 7335 C 688.892 -0.588519 1.85383 0
M  V30 7336 O 688.147 -1.45124 1.31292 0
M  V30 7337 C 688.446 1.4102 3.28403 0
M  V30 7338 C 688.112 2.89995 3.45273 0
M  V30 7339 C 686.774 3.30671 3.49585 0
M  V30 7340 C 689.126 3.85874 3.50358 0
M  V30 7341 C 686.454 4.65925 3.56553 0
M  V30 7342 C 688.806 5.20963 3.58859 0
M  V30 7343 C 687.47 5.61177 3.61437 0
M  V30 7344 H 686.74 0.324044 0.666391 0
M  V30 7345 H 689.387 1.40874 1.29718 0
M  V30 7346 H 687.692 0.807551 3.83387 0
M  V30 7347 H 689.389 1.19882 3.82661 0
M  V30 7348 H 685.979 2.57537 3.42597 0
M  V30 7349 H 690.163 3.5554 3.46273 0
M  V30 7350 H 685.419 4.96468 3.56833 0
M  V30 7351 H 689.593 5.95079 3.61738 0
M  V30 7352 H 687.22 6.6597 3.66589 0
M  V30 7353 N 688.795 -1.27931 0.920396 0
M  V30 7354 C 689.705 -2.30824 0.419212 0
M  V30 7355 C 690.721 -1.66767 -0.496461 0
M  V30 7356 O 691.897 -1.97763 -0.38104 0
M  V30 7357 C 688.962 -3.45158 -0.326601 0
M  V30 7358 C 688.023 -4.24754 0.623098 0
M  V30 7359 C 687.256 -5.33629 -0.0872172 0
M  V30 7360 O 687.479 -5.55204 -1.30784 0
M  V30 7361 O 686.413 -5.99091 0.580875 0
M  V30 7362 H 690.239 -2.75716 1.27337 0
M  V30 7363 H 687.824 -1.32747 0.685465 0
M  V30 7364 H 689.706 -4.14716 -0.747559 0
M  V30 7365 H 688.381 -3.02336 -1.15648 0
M  V30 7366 H 687.288 -3.57759 1.09359 0
M  V30 7367 H 688.621 -4.71272 1.41998 0
M  V30 7368 N 690.273 -0.685099 -1.4193 0
M  V30 7369 C 691.513 -0.215676 -2.03259 0
M  V30 7370 C 691.877 1.15934 -1.53047 0
M  V30 7371 O 693.078 1.72401 -2.06231 0
M  V30 7372 C 691.349 -0.259649 -3.56456 0
M  V30 7373 S 692.908 0.137262 -4.38585 0
M  V30 7374 H 689.726 -0.0877362 -0.705566 0
M  V30 7375 H 692.328 -0.900547 -1.73523 0
M  V30 7376 H 691.032 -1.26256 -3.90497 0
M  V30 7377 H 690.563 0.444716 -3.90878 0
M  V30 7378 H 692.578 1.36787 -4.76973 0
M  V30 7379 N 691.751 1.51645 -0.429126 0
M  V30 7380 C 692.997 2.02314 0.140286 0
M  V30 7381 C 693.33 1.31314 1.43074 0
M  V30 7382 O 692.605 0.425531 1.89788 0
M  V30 7383 C 692.888 3.5822 0.36749 0
M  V30 7384 C 692.741 4.39846 -0.941039 0
M  V30 7385 C 694.06 4.25055 1.14089 0
M  V30 7386 H 691.179 0.735335 0.0495112 0
M  V30 7387 H 693.821 1.81358 -0.566514 0
M  V30 7388 H 691.971 3.76207 0.969556 0
M  V30 7389 H 693.643 4.33527 -1.57646 0
M  V30 7390 H 691.886 4.05259 -1.54751 0
M  V30 7391 H 692.557 5.47069 -0.73621 0
M  V30 7392 H 695.033 4.11288 0.630986 0
M  V30 7393 H 693.909 5.34038 1.26863 0
M  V30 7394 H 694.17 3.85358 2.16683 0
M  V30 7395 N 693.229 0.160201 1.56784 0
M  V30 7396 C 694.454 -0.497373 2.01348 0
M  V30 7397 C 694.879 -1.56757 1.03966 0
M  V30 7398 O 694.237 -1.81292 0.0174455 0
M  V30 7399 C 694.285 -1.0628 3.44582 0
M  V30 7400 O 693.389 -2.17723 3.50244 0
M  V30 7401 H 692.73 -0.120295 0.653012 0
M  V30 7402 H 695.26 0.260821 2.02931 0
M  V30 7403 H 695.27 -1.38819 3.83658 0
M  V30 7404 H 693.945 -0.279166 4.14962 0
M  V30 7405 H 692.522 -1.86313 3.2302 0
M  V30 7406 N 694.707 -1.5719 -0.113559 0
M  V30 7407 C 695.956 -1.84325 -0.818984 0
M  V30 7408 C 696.269 -0.746685 -1.80787 0
M  V30 7409 O 697.475 -0.904596 -2.55987 0
M  V30 7410 C 695.931 -3.26818 -1.50724 0
M  V30 7411 C 695.539 -4.44498 -0.559065 0
M  V30 7412 C 697.283 -3.63196 -2.19748 0
M  V30 7413 C 695.19 -5.7802 -1.25086 0
M  V30 7414 H 694.12 -0.687507 -0.309596 0
M  V30 7415 H 696.771 -1.8336 -0.0717621 0
M  V30 7416 H 695.153 -3.22269 -2.30128 0
M  V30 7417 H 696.327 -4.60356 0.202146 0
M  V30 7418 H 694.642 -4.16393 0.024495 0
M  V30 7419 H 697.239 -4.60226 -2.72206 0
M  V30 7420 H 697.582 -2.90899 -2.97798 0
M  V30 7421 H 698.115 -3.69553 -1.47226 0
M  V30 7422 H 694.854 -6.53501 -0.511539 0
M  V30 7423 H 694.374 -5.66038 -1.98395 0
M  V30 7424 H 696.053 -6.2196 -1.78253 0
M  V30 7425 N 696.185 0.383891 -1.52853 0
M  V30 7426 C 697.41 1.154 -1.7233 0
M  V30 7427 C 697.835 1.82809 -0.44298 0
M  V30 7428 O 697.193 1.71026 0.601645 0
M  V30 7429 C 697.241 2.17386 -2.87708 0
M  V30 7430 O 696.345 3.24082 -2.55038 0
M  V30 7431 H 695.686 0.335709 -0.572883 0
M  V30 7432 H 698.216 0.44662 -1.99666 0
M  V30 7433 H 698.226 2.61296 -3.1335 0
M  V30 7434 H 696.901 1.6771 -3.80587 0
M  V30 7435 H 695.478 2.85273 -2.40153 0
M  V30 7436 N 697.663 1.43903 0.642637 0
M  V30 7437 C 698.909 1.47291 1.40275 0
M  V30 7438 C 699.264 0.0996024 1.92142 0
M  V30 7439 O 698.557 -0.883423 1.70018 0
M  V30 7440 C 698.751 2.45907 2.59354 0
M  V30 7441 C 698.58 3.92691 2.19143 0
M  V30 7442 C 697.35 4.6097 2.06966 0
M  V30 7443 C 699.548 4.82231 1.78768 0
M  V30 7444 N 697.53 5.9263 1.60196 0
M  V30 7445 C 698.901 6.03246 1.43159 0
M  V30 7446 C 700.956 4.69397 1.66045 0
M  V30 7447 C 699.659 7.12851 0.961014 0
M  V30 7448 C 701.685 5.79016 1.20392 0
M  V30 7449 C 701.047 6.99164 0.857271 0
M  V30 7450 H 697.146 0.594055 0.50855 0
M  V30 7451 H 699.73 1.80153 0.738434 0
M  V30 7452 H 697.901 2.15054 3.23429 0
M  V30 7453 H 699.633 2.39665 3.26102 0
M  V30 7454 H 696.388 4.15622 2.27058 0
M  V30 7455 H 696.812 6.62547 1.39143 0
M  V30 7456 H 701.454 3.76954 1.91482 0
M  V30 7457 H 699.172 8.05113 0.694148 0
M  V30 7458 H 702.758 5.71109 1.11023 0
M  V30 7459 H 701.638 7.82544 0.509408 0
M  V30 7460 N 699.141 -0.881989 1.30609 0
M  V30 7461 C 700.388 -1.63405 1.19604 0
M  V30 7462 C 700.716 -1.92905 -0.248574 0
M  V30 7463 O 699.971 -1.55062 -1.19391 0
M  V30 7464 C 700.27 -2.97999 1.97311 0
M  V30 7465 C 699.936 -2.88039 3.46907 0
M  V30 7466 C 698.598 -2.85029 3.877 0
M  V30 7467 C 700.95 -2.75948 4.42156 0
M  V30 7468 C 698.278 -2.67772 5.2203 0
M  V30 7469 C 700.63 -2.60228 5.76597 0
M  V30 7470 C 699.294 -2.55595 6.16626 0
M  V30 7471 H 698.564 -0.597941 0.437662 0
M  V30 7472 H 701.211 -1.02524 1.61744 0
M  V30 7473 H 699.516 -3.62847 1.47815 0
M  V30 7474 H 701.213 -3.55156 1.86186 0
M  V30 7475 H 697.803 -2.91192 3.14492 0
M  V30 7476 H 701.987 -2.77337 4.1158 0
M  V30 7477 H 697.243 -2.62601 5.52133 0
M  V30 7478 H 701.417 -2.49847 6.50038 0
M  V30 7479 H 699.044 -2.41981 7.20659 0
M  V30 7480 N 700.619 -1.13374 -1.09472 0
M  V30 7481 C 701.849 -0.917019 -1.85133 0
M  V30 7482 C 702.257 0.537568 -1.81402 0
M  V30 7483 O 701.6 1.38385 -1.20811 0
M  V30 7484 C 701.662 -1.32646 -3.34134 0
M  V30 7485 C 701.326 -2.79437 -3.61613 0
M  V30 7486 C 702.323 -3.77596 -3.57375 0
M  V30 7487 C 700.008 -3.16586 -3.89973 0
M  V30 7488 C 702.002 -5.10916 -3.81108 0
M  V30 7489 C 699.689 -4.50085 -4.13361 0
M  V30 7490 C 700.687 -5.47059 -4.0892 0
M  V30 7491 O 700.375 -6.78149 -4.31705 0
M  V30 7492 H 700.107 -0.326997 -0.591649 0
M  V30 7493 H 702.661 -1.51002 -1.39239 0
M  V30 7494 H 700.891 -0.676719 -3.80733 0
M  V30 7495 H 702.58 -1.08229 -3.91205 0
M  V30 7496 H 703.346 -3.50242 -3.35493 0
M  V30 7497 H 699.225 -2.41707 -3.92554 0
M  V30 7498 H 702.769 -5.86597 -3.77558 0
M  V30 7499 H 698.666 -4.77163 -4.34724 0
M  V30 7500 H 699.434 -6.84244 -4.49168 0
M  V30 7501 N 702.098 1.27442 -0.927168 0
M  V30 7502 C 703.346 1.94007 -0.566203 0
M  V30 7503 C 703.667 1.7323 0.895345 0
M  V30 7504 O 702.937 1.07973 1.63459 0
M  V30 7505 H 701.517 0.717917 -0.206409 0
M  V30 7506 H 704.179 1.55161 -1.17945 0
M  V30 7507 H 703.275 3.02401 -0.772028 0
M  V30 7508 N 703.576 0.692616 1.41565 0
M  V30 7509 C 704.822 0.222664 2.01574 0
M  V30 7510 C 705.155 -1.1737 1.54719 0
M  V30 7511 O 704.43 -1.79161 0.757084 0
M  V30 7512 C 704.713 0.277064 3.59033 0
M  V30 7513 C 704.566 1.71016 4.16021 0
M  V30 7514 C 705.885 -0.36479 4.38586 0
M  V30 7515 H 703.004 0.0823839 0.732381 0
M  V30 7516 H 705.646 0.880778 1.68352 0
M  V30 7517 H 703.796 -0.283288 3.87466 0
M  V30 7518 H 705.468 2.32413 3.98475 0
M  V30 7519 H 703.711 2.24525 3.71175 0
M  V30 7520 H 704.382 1.69978 5.25178 0
M  V30 7521 H 706.858 0.112404 4.15948 0
M  V30 7522 H 705.734 -0.296169 5.481 0
M  V30 7523 H 705.995 -1.44506 4.17816 0
M  V30 7524 N 705.054 -1.51416 0.437162 0
M  V30 7525 C 706.002 -2.29328 -0.388765 0
M  V30 7526 C 706.996 -1.35171 -1.02104 0
M  V30 7527 O 708.202 -1.52513 -0.956024 0
M  V30 7528 H 704.577 -0.738048 -0.144183 0
M  V30 7529 H 706.548 -2.96995 0.289212 0
M  V30 7530 C 705.297 -3.14741 -1.47761 0
M  V30 7531 H 704.62 -3.8708 -1.00045 0
M  V30 7532 H 706.06 -3.72313 -2.02877 0
M  V30 7533 C 704.519 -2.30105 -2.46076 0
M  V30 7534 O 705.049 -1.96055 -3.50607 0
M  V30 7535 N 703.255 -1.93331 -2.1696 0
M  V30 7536 H 702.802 -2.2122 -1.31983 0
M  V30 7537 H 702.76 -1.36999 -2.82982 0
M  V30 7538 N 706.532 -0.168513 -1.56696 0
M  V30 7539 C 707.948 0.187686 -1.58493 0
M  V30 7540 C 708.148 1.63063 -1.18375 0
M  V30 7541 O 707.204 2.36142 -0.894042 0
M  V30 7542 C 708.517 -0.0905858 -3.00564 0
M  V30 7543 C 710.065 -0.028575 -3.12987 0
M  V30 7544 C 710.54 -0.279799 -4.57145 0
M  V30 7545 N 712.031 -0.227476 -4.62641 0
M  V30 7546 C 712.766 -0.396073 -5.7203 0
M  V30 7547 N 712.262 -0.623572 -6.89988 0
M  V30 7548 N 714.055 -0.332173 -5.61118 0
M  V30 7549 H 706.206 -1.11042 -1.81062 0
M  V30 7550 H 708.469 -0.441235 -0.839056 0
M  V30 7551 H 708.175 -1.09006 -3.34381 0
M  V30 7552 H 708.049 0.619078 -3.72085 0
M  V30 7553 H 710.436 0.961471 -2.78998 0
M  V30 7554 H 710.517 -0.770905 -2.43907 0
M  V30 7555 H 710.161 -1.26704 -4.91842 0
M  V30 7556 H 710.091 0.48311 -5.24379 0
M  V30 7557 H 712.582 -0.0571723 -3.77857 0
M  V30 7558 H 712.895 -0.741745 -7.69232 0
M  V30 7559 H 711.24 -0.660153 -6.91858 0
M  V30 7560 H 714.431 -0.155051 -4.67843 0
M  V30 7561 H 714.604 -0.466994 -6.46315 0
M  V30 7562 N 708.01 1.57248 0.105221 0
M  V30 7563 C 709.257 1.8557 0.810552 0
M  V30 7564 C 709.585 0.755595 1.79223 0
M  V30 7565 O 708.84 -0.251788 1.94073 0
M  V30 7566 C 709.139 3.20437 1.58287 0
M  V30 7567 C 708.805 4.44716 0.744235 0
M  V30 7568 C 707.467 4.78458 0.513013 0
M  V30 7569 C 709.819 5.20953 0.160578 0
M  V30 7570 C 707.147 5.8587 -0.311894 0
M  V30 7571 C 709.499 6.29235 -0.651596 0
M  V30 7572 C 708.163 6.615 -0.893005 0
M  V30 7573 H 707.433 0.67905 0.296602 0
M  V30 7574 H 710.08 1.91363 0.0723968 0
M  V30 7575 H 708.385 3.10283 2.39232 0
M  V30 7576 H 710.082 3.39576 2.13282 0
M  V30 7577 H 706.672 4.18287 0.934555 0
M  V30 7578 H 710.856 4.95226 0.3264 0
M  V30 7579 H 706.112 6.09286 -0.508012 0
M  V30 7580 H 710.286 6.87484 -1.11077 0
M  V30 7581 H 707.913 7.44562 -1.53401 0
M  V30 7582 N 709.488 -0.375779 1.53054 0
M  V30 7583 C 710.718 -1.1387 1.72386 0
M  V30 7584 C 711.126 -1.8382 0.447966 0
M  V30 7585 O 710.469 -1.74027 -0.588244 0
M  V30 7586 C 710.531 -2.22047 2.82728 0
M  V30 7587 C 710.195 -1.71951 4.23417 0
M  V30 7588 C 711.192 -1.18909 5.06119 0
M  V30 7589 C 708.877 -1.77773 4.69789 0
M  V30 7590 C 710.871 -0.723529 6.3328 0
M  V30 7591 C 708.558 -1.30829 5.96931 0
M  V30 7592 C 709.556 -0.782077 6.78508 0
M  V30 7593 O 709.244 -0.319529 8.03265 0
M  V30 7594 H 708.976 -0.346835 0.580242 0
M  V30 7595 H 711.53 -0.443748 2.00549 0
M  V30 7596 H 709.76 -2.95006 2.50017 0
M  V30 7597 H 711.449 -2.83654 2.90336 0
M  V30 7598 H 712.215 -1.13758 4.7147 0
M  V30 7599 H 708.094 -2.17673 4.06373 0
M  V30 7600 H 711.638 -0.312126 6.96901 0
M  V30 7601 H 707.535 -1.3567 6.31081 0
M  V30 7602 H 708.303 -0.439796 8.17318 0
M  V30 7603 N 710.966 -1.44241 -0.634997 0
M  V30 7604 C 712.243 -1.37296 -1.39317 0
M  V30 7605 C 712.623 -0.0297532 -2.11079 0
M  V30 7606 O 711.971 0.987524 -2.06059 0
M  V30 7607 C 712.181 -2.56853 -2.36279 0
M  V30 7608 C 713.529 -3.00747 -2.99728 0
M  V30 7609 O 714.553 -2.5703 -2.46605 0
M  V30 7610 O 713.412 -3.76533 -3.96087 0
M  V30 7611 H 710.506 -0.543503 -0.623325 0
M  V30 7612 H 713.052 -1.56324 -0.660376 0
M  V30 7613 H 711.824 -3.46228 -1.82324 0
M  V30 7614 H 711.447 -2.40019 -3.16981 0
M  V30 7615 N 712.444 0.87505 -1.31075 0
M  V30 7616 C 713.392 2.00317 -1.18219 0
M  V30 7617 C 714.386 1.69152 -0.0916872 0
M  V30 7618 O 715.592 1.7821 -0.253229 0
M  V30 7619 H 711.967 0.656981 -0.365895 0
M  V30 7620 H 713.938 2.08293 -2.13674 0
M  V30 7621 C 712.687 3.35821 -0.901095 0
M  V30 7622 H 712.01 3.6032 -1.73233 0
M  V30 7623 H 713.45 4.15366 -0.851295 0
M  V30 7624 C 711.909 3.34563 0.396114 0
M  V30 7625 O 712.439 3.75971 1.41452 0
M  V30 7626 N 710.645 2.87681 0.410832 0
M  V30 7627 H 710.192 2.54179 -0.418415 0
M  V30 7628 H 710.15 2.87223 1.27869 0
M  V30 7629 N 713.922 1.13953 1.08869 0
M  V30 7630 C 715.171 0.899431 1.80536 0
M  V30 7631 C 715.484 -0.575781 1.86933 0
M  V30 7632 O 716.69 -0.932988 2.54966 0
M  V30 7633 C 715.146 1.55963 3.24351 0
M  V30 7634 C 714.754 3.07077 3.26202 0
M  V30 7635 C 716.498 1.40046 4.00733 0
M  V30 7636 C 714.405 3.65955 4.64576 0
M  V30 7637 H 713.335 0.332849 0.676556 0
M  V30 7638 H 715.986 1.3679 1.22314 0
M  V30 7639 H 714.368 1.01883 3.82669 0
M  V30 7640 H 715.542 3.67785 2.77617 0
M  V30 7641 H 713.857 3.22576 2.63312 0
M  V30 7642 H 716.454 1.81441 5.02974 0
M  V30 7643 H 716.797 0.345993 4.1486 0
M  V30 7644 H 717.33 1.91137 3.48872 0
M  V30 7645 H 714.069 4.71234 4.55652 0
M  V30 7646 H 713.589 3.10027 5.13462 0
M  V30 7647 H 715.268 3.65968 5.33551 0
M  V30 7648 N 715.4 -1.26948 0.933913 0
M  V30 7649 C 716.332 -2.25768 0.395137 0
M  V30 7650 C 717.345 -1.55637 -0.477585 0
M  V30 7651 O 718.534 -1.76142 -0.289204 0
M  V30 7652 C 715.634 -3.35874 -0.451882 0
M  V30 7653 C 714.807 -4.3554 0.40299 0
M  V30 7654 C 713.866 -5.24809 -0.3824 0
M  V30 7655 O 712.892 -5.68805 0.212057 0
M  V30 7656 N 714.094 -5.55636 -1.68072 0
M  V30 7657 H 716.859 -2.72634 1.24463 0
M  V30 7658 H 714.42 -1.40639 0.802008 0
M  V30 7659 H 716.412 -3.92542 -0.984516 0
M  V30 7660 H 714.982 -2.8856 -1.20215 0
M  V30 7661 H 714.202 -3.78047 1.11688 0
M  V30 7662 H 715.49 -4.99131 0.987201 0
M  V30 7663 H 714.888 -5.2176 -2.18592 0
M  V30 7664 H 713.445 -6.14978 -2.15975 0
M  V30 7665 N 716.879 -0.700114 -1.41195 0
M  V30 7666 C 717.789 -0.0382854 -2.34569 0
M  V30 7667 C 718.805 0.761036 -1.56474 0
M  V30 7668 O 719.981 0.697553 -1.88934 0
M  V30 7669 C 717.046 0.883522 -3.35253 0
M  V30 7670 C 716.107 0.0758957 -4.29233 0
M  V30 7671 C 715.34 0.9538 -5.25108 0
M  V30 7672 O 715.563 2.19326 -5.26547 0
M  V30 7673 O 714.497 0.401049 -6.00562 0
M  V30 7674 H 718.323 -0.808073 -2.92752 0
M  V30 7675 H 715.908 -0.460479 -1.42127 0
M  V30 7676 H 717.79 1.41199 -3.9704 0
M  V30 7677 H 716.465 1.63272 -2.79506 0
M  V30 7678 H 715.372 -0.497274 -3.7078 0
M  V30 7679 H 716.705 -0.634741 -4.8809 0
M  V30 7680 N 718.357 1.51182 -0.445186 0
M  V30 7681 C 719.29 2.24528 0.4077 0
M  V30 7682 C 720.268 1.26778 1.01814 0
M  V30 7683 O 721.452 1.55934 1.05909 0
M  V30 7684 C 718.579 3.00171 1.56892 0
M  V30 7685 C 717.625 4.12641 1.0784 0
M  V30 7686 S 718.458 5.35498 0.014049 0
M  V30 7687 C 719.614 6.14681 1.17975 0
M  V30 7688 H 719.847 2.96522 -0.214987 0
M  V30 7689 H 717.38 1.52681 -0.229781 0
M  V30 7690 H 719.338 3.44349 2.23459 0
M  V30 7691 H 717.999 2.27752 2.16304 0
M  V30 7692 H 717.192 4.64875 1.94698 0
M  V30 7693 H 716.794 3.70765 0.490852 0
M  V30 7694 H 719.086 6.44244 2.09658 0
M  V30 7695 H 720.029 7.04659 0.697222 0
M  V30 7696 H 720.437 5.46299 1.42187 0
M  V30 7697 N 719.835 0.176821 1.56605 0
M  V30 7698 C 721.081 -0.467406 1.9734 0
M  V30 7699 C 721.414 -1.62523 1.06301 0
M  V30 7700 O 720.689 -1.94182 0.11125 0
M  V30 7701 C 720.972 -0.945106 3.47476 0
M  V30 7702 C 720.825 0.213273 4.49294 0
M  V30 7703 C 722.144 -1.8169 4.00845 0
M  V30 7704 H 719.263 -0.168426 0.717497 0
M  V30 7705 H 721.905 0.264065 1.88156 0
M  V30 7706 H 720.055 -1.56841 3.55434 0
M  V30 7707 H 721.727 0.850508 4.53392 0
M  V30 7708 H 719.97 0.867918 4.25029 0
M  V30 7709 H 720.641 -0.163187 5.51759 0
M  V30 7710 H 723.117 -1.29139 3.95553 0
M  V30 7711 H 721.993 -2.12015 5.06301 0
M  V30 7712 H 722.254 -2.76463 3.44994 0
M  V30 7713 N 721.313 -1.57302 -0.09688 0
M  V30 7714 C 722.561 -1.8563 -0.799117 0
M  V30 7715 C 722.882 -0.765263 -1.79356 0
M  V30 7716 O 722.152 0.208657 -1.94786 0
M  V30 7717 H 720.732 -0.684937 -0.298111 0
M  V30 7718 H 723.394 -1.9474 -0.0789341 0
M  V30 7719 H 722.49 -2.82305 -1.3308 0
M  V30 7720 N 722.791 0.367657 -1.53252 0
M  V30 7721 C 724.016 1.13566 -1.73544 0
M  V30 7722 C 724.441 1.82329 -0.462344 0
M  V30 7723 O 723.799 1.71655 0.583472 0
M  V30 7724 C 723.847 2.14322 -2.89997 0
M  V30 7725 O 722.951 3.21359 -2.58461 0
M  V30 7726 H 722.292 0.329614 -0.576412 0
M  V30 7727 H 724.822 0.425417 -2.00128 0
M  V30 7728 H 724.832 2.57958 -3.16104 0
M  V30 7729 H 723.507 1.63664 -3.82344 0
M  V30 7730 H 722.084 2.8271 -2.43165 0
M  V30 7731 N 724.269 1.44576 0.627338 0
M  V30 7732 C 725.685 1.28546 0.945938 0
M  V30 7733 C 725.885 0.224003 2.00251 0
M  V30 7734 O 724.941 -0.388817 2.49488 0
M  V30 7735 C 726.254 2.65825 1.40561 0
M  V30 7736 C 727.802 2.73566 1.52088 0
M  V30 7737 C 728.277 4.11323 2.01438 0
M  V30 7738 N 729.768 4.13519 2.08702 0
M  V30 7739 C 730.503 5.16964 2.48065 0
M  V30 7740 N 729.999 6.30768 2.86538 0
M  V30 7741 N 731.792 5.04319 2.48232 0
M  V30 7742 H 723.943 2.1228 -0.0713567 0
M  V30 7743 H 726.206 0.947503 0.0307081 0
M  V30 7744 H 725.912 3.44591 0.703539 0
M  V30 7745 H 725.786 2.92969 2.37591 0
M  V30 7746 H 728.173 1.95116 2.21391 0
M  V30 7747 H 728.254 2.50159 0.534237 0
M  V30 7748 H 727.898 4.9025 1.32729 0
M  V30 7749 H 727.828 4.32109 3.0098 0
M  V30 7750 H 730.319 3.31385 1.81638 0
M  V30 7751 H 730.632 7.0551 3.15398 0
M  V30 7752 H 728.977 6.342 2.84281 0
M  V30 7753 H 732.168 4.14465 2.17569 0
M  V30 7754 H 732.341 5.85059 2.78585 0
M  V30 7755 N 725.747 -0.868086 1.31537 0
M  V30 7756 C 727.158 -1.437 1.19195 0
M  V30 7757 C 727.509 -1.95169 -0.200842 0
M  V30 7758 O 726.634 -1.86432 -1.09872 0
M  V30 7759 C 727.229 -2.612 2.15778 0
M  V30 7760 C 725.788 -3.1413 2.07363 0
M  V30 7761 C 724.935 -1.86845 2.049 0
M  V30 7762 H 727.886 -0.676457 1.43561 0
M  V30 7763 H 727.907 -3.37948 1.74847 0
M  V30 7764 H 727.419 -2.23709 3.17137 0
M  V30 7765 H 725.52 -3.56238 1.09204 0
M  V30 7766 H 725.633 -3.76285 2.96557 0
M  V30 7767 H 723.997 -2.05886 1.49943 0
M  V30 7768 H 724.78 -1.51589 3.08019 0
M  V30 7769 N 727.225 -1.14528 -1.08264 0
M  V30 7770 C 728.465 -0.924808 -1.82282 0
M  V30 7771 C 728.829 0.538881 -1.84283 0
M  V30 7772 O 730.03 0.877355 -2.54079 0
M  V30 7773 C 728.301 -1.51102 -3.23887 0
M  V30 7774 S 729.86 -1.43232 -4.14765 0
M  V30 7775 H 726.678 -0.333052 -0.62817 0
M  V30 7776 H 729.28 -1.45905 -1.30123 0
M  V30 7777 H 727.984 -2.56942 -3.20014 0
M  V30 7778 H 727.515 -0.975234 -3.8112 0
M  V30 7779 H 729.53 -0.418843 -4.94429 0
M  V30 7780 N 728.703 1.26451 -0.940633 0
M  V30 7781 C 729.952 1.93071 -0.583656 0
M  V30 7782 C 730.265 1.74618 0.881366 0
M  V30 7783 O 731.471 2.35689 1.34769 0
M  V30 7784 C 729.927 3.45927 -0.993106 0
M  V30 7785 C 729.535 3.73115 -2.4797 0
M  V30 7786 C 731.279 4.18554 -0.707998 0
M  V30 7787 C 729.186 5.19408 -2.82788 0
M  V30 7788 H 728.116 0.722824 -0.214572 0
M  V30 7789 H 730.767 1.43538 -1.1432 0
M  V30 7790 H 729.149 3.94341 -0.362099 0
M  V30 7791 H 730.323 3.35408 -3.15971 0
M  V30 7792 H 728.638 3.13719 -2.73805 0
M  V30 7793 H 731.235 5.26293 -0.94447 0
M  V30 7794 H 731.578 4.14782 0.355225 0
M  V30 7795 H 732.111 3.76003 -1.2987 0
M  V30 7796 H 728.85 5.28281 -3.88071 0
M  V30 7797 H 728.37 5.58214 -2.19449 0
M  V30 7798 H 730.049 5.87407 -2.71224 0
M  V30 7799 N 730.181 0.707592 1.40822 0
M  V30 7800 C 731.427 0.252828 2.01823 0
M  V30 7801 C 731.782 -1.13876 1.55081 0
M  V30 7802 O 731.075 -1.75993 0.757439 0
M  V30 7803 C 731.269 0.262892 3.56432 0
M  V30 7804 C 731.098 1.65392 4.18181 0
M  V30 7805 C 729.868 2.25966 4.5196 0
M  V30 7806 C 732.066 2.60272 4.4358 0
M  V30 7807 N 730.048 3.57508 4.9906 0
M  V30 7808 C 731.419 3.76509 4.92586 0
M  V30 7809 C 733.474 2.58386 4.25607 0
M  V30 7810 C 732.177 4.91157 5.25507 0
M  V30 7811 C 734.203 3.72155 4.59625 0
M  V30 7812 C 733.565 4.87123 5.08813 0
M  V30 7813 H 729.664 0.138172 0.769696 0
M  V30 7814 H 732.248 0.927667 1.7118 0
M  V30 7815 H 730.419 -0.381479 3.86522 0
M  V30 7816 H 732.151 -0.20783 4.04166 0
M  V30 7817 H 728.906 1.78138 4.38821 0
M  V30 7818 H 729.33 4.24968 5.27002 0
M  V30 7819 H 733.972 1.7071 3.86805 0
M  V30 7820 H 731.69 5.79483 5.63227 0
M  V30 7821 H 735.276 3.71961 4.47366 0
M  V30 7822 H 734.156 5.73698 5.3464 0
M  V30 7823 N 731.66 -1.50943 0.453197 0
M  V30 7824 C 732.906 -2.03153 -0.100277 0
M  V30 7825 C 733.261 -1.33032 -1.38997 0
M  V30 7826 O 732.554 -0.441423 -1.86446 0
M  V30 7827 C 732.748 -3.55603 -0.357944 0
M  V30 7828 C 732.577 -4.40495 0.905223 0
M  V30 7829 C 731.347 -4.84247 1.44337 0
M  V30 7830 C 733.545 -4.81931 1.79575 0
M  V30 7831 N 731.527 -5.53403 2.65742 0
M  V30 7832 C 732.898 -5.50314 2.85577 0
M  V30 7833 C 734.953 -4.63903 1.80828 0
M  V30 7834 C 733.656 -6.02581 3.92797 0
M  V30 7835 C 735.682 -5.17097 2.86993 0
M  V30 7836 C 735.044 -5.8544 3.91713 0
M  V30 7837 H 731.143 -0.781995 0.00287755 0
M  V30 7838 H 733.727 -1.84651 0.617411 0
M  V30 7839 H 731.898 -3.74087 -1.04467 0
M  V30 7840 H 733.63 -3.9447 -0.904175 0
M  V30 7841 H 730.385 -4.63029 0.995045 0
M  V30 7842 H 730.809 -5.92598 3.27348 0
M  V30 7843 H 735.451 -4.10512 1.0119 0
M  V30 7844 H 733.169 -6.55018 4.73262 0
M  V30 7845 H 736.755 -5.0499 2.88923 0
M  V30 7846 H 735.635 -6.25861 4.72512 0
M  V30 7847 N 733.138 -0.185124 -1.56509 0
M  V30 7848 C 734.085 0.739729 -2.18624 0
M  V30 7849 C 735.055 1.217 -1.13042 0
M  V30 7850 O 736.24 1.28268 -1.41251 0
M  V30 7851 C 733.38 1.95787 -2.84186 0
M  V30 7852 C 732.493 1.52289 -4.04267 0
M  V30 7853 C 731.628 2.69576 -4.57714 0
M  V30 7854 C 730.667 2.22636 -5.70175 0
M  V30 7855 N 729.804 3.33065 -6.18071 0
M  V30 7856 H 734.644 0.203269 -2.97306 0
M  V30 7857 H 732.181 0.0885946 -1.46833 0
M  V30 7858 H 734.139 2.67253 -3.20361 0
M  V30 7859 H 732.769 2.4678 -2.08085 0
M  V30 7860 H 731.821 0.704458 -3.7382 0
M  V30 7861 H 733.133 1.13843 -4.85635 0
M  V30 7862 H 732.287 3.4918 -4.96143 0
M  V30 7863 H 731.026 3.1129 -3.75433 0
M  V30 7864 H 730.031 1.41483 -5.31284 0
M  V30 7865 H 731.256 1.81964 -6.54267 0
M  V30 7866 H 729.202 3.74328 -5.38715 0
M  V30 7867 H 729.119 2.98756 -6.94464 0
M  V30 7868 H 730.387 4.12912 -6.61153 0
M  V30 7869 N 734.616 1.57351 0.0885366 0
M  V30 7870 C 735.546 2.05561 1.10757 0
M  V30 7871 C 736.527 0.945789 1.41382 0
M  V30 7872 O 737.712 1.21747 1.51299 0
M  V30 7873 C 734.842 2.48554 2.42566 0
M  V30 7874 C 733.796 3.63259 2.26334 0
M  V30 7875 C 733.122 3.9225 3.63378 0
M  V30 7876 C 734.422 4.93913 1.69844 0
M  V30 7877 H 736.116 2.90946 0.706468 0
M  V30 7878 H 733.662 1.39968 0.338385 0
M  V30 7879 H 735.615 2.8089 3.14132 0
M  V30 7880 H 734.339 1.60176 2.84625 0
M  V30 7881 H 732.998 3.31179 1.57213 0
M  V30 7882 H 732.646 3.0103 4.02976 0
M  V30 7883 H 732.346 4.69478 3.53362 0
M  V30 7884 H 733.87 4.27067 4.36401 0
M  V30 7885 H 735.284 5.24588 2.31258 0
M  V30 7886 H 733.681 5.75349 1.70569 0
M  V30 7887 H 734.751 4.80409 0.65843 0
M  V30 7888 N 736.094 -0.359525 1.53444 0
M  V30 7889 C 737.334 -1.11014 1.71625 0
M  V30 7890 C 737.698 -1.86376 0.46132 0
M  V30 7891 O 738.899 -2.63724 0.519908 0
M  V30 7892 C 737.17 -2.03907 2.93524 0
M  V30 7893 S 738.729 -2.86408 3.3244 0
M  V30 7894 H 735.547 -0.375352 0.603847 0
M  V30 7895 H 738.149 -0.390604 1.91558 0
M  V30 7896 H 736.853 -1.47316 3.83048 0
M  V30 7897 H 736.384 -2.80324 2.76011 0
M  V30 7898 H 738.399 -4.06241 2.84926 0
M  V30 7899 N 737.572 -1.44907 -0.619662 0
M  V30 7900 C 738.818 -1.49504 -1.37914 0
M  V30 7901 C 739.173 -0.130158 -1.91959 0
M  V30 7902 O 738.466 0.856263 -1.71402 0
M  V30 7903 C 738.66 -2.50002 -2.55409 0
M  V30 7904 C 738.489 -3.96128 -2.12867 0
M  V30 7905 C 737.259 -4.64204 -1.99606 0
M  V30 7906 C 739.457 -4.85014 -1.71074 0
M  V30 7907 N 737.439 -5.95104 -1.50748 0
M  V30 7908 C 738.81 -6.05447 -1.33544 0
M  V30 7909 C 740.865 -4.71979 -1.58557 0
M  V30 7910 C 739.568 -7.1429 -0.847484 0
M  V30 7911 C 741.594 -5.80858 -1.11165 0
M  V30 7912 C 740.956 -7.00439 -0.745932 0
M  V30 7913 H 737.055 -0.60207 -0.499034 0
M  V30 7914 H 739.639 -1.81305 -0.70968 0
M  V30 7915 H 737.81 -2.20172 -3.19967 0
M  V30 7916 H 739.542 -2.44823 -3.22248 0
M  V30 7917 H 736.297 -4.19182 -2.20417 0
M  V30 7918 H 736.721 -6.64676 -1.28585 0
M  V30 7919 H 741.363 -3.79953 -1.85461 0
M  V30 7920 H 739.081 -8.06116 -0.565974 0
M  V30 7921 H 742.667 -5.72803 -1.01923 0
M  V30 7922 H 741.547 -7.83255 -0.384848 0
M  V30 7923 N 739.05 0.861098 -1.31996 0
M  V30 7924 C 740.275 1.65264 -1.2531 0
M  V30 7925 C 740.7 1.87265 0.177007 0
M  V30 7926 O 740.058 1.4208 1.12619 0
M  V30 7927 C 740.106 2.99284 -2.0115 0
M  V30 7928 O 739.21 3.89508 -1.3549 0
M  V30 7929 H 738.551 0.50409 -0.432192 0
M  V30 7930 H 741.081 1.07297 -1.74208 0
M  V30 7931 H 741.091 3.49154 -2.11081 0
M  V30 7932 H 739.766 2.82591 -3.05148 0
M  V30 7933 H 738.343 3.47966 -1.34066 0
M  V30 7934 N 740.528 1.15101 1.07655 0
M  V30 7935 C 741.775 0.923974 1.80191 0
M  V30 7936 C 742.103 -0.549065 1.86589 0
M  V30 7937 O 741.358 -1.42307 1.3434 0
M  V30 7938 C 741.657 1.47954 3.25337 0
M  V30 7939 C 741.323 2.97253 3.39044 0
M  V30 7940 C 739.985 3.38012 3.42493 0
M  V30 7941 C 742.337 3.93219 3.42094 0
M  V30 7942 C 739.665 4.73384 3.4659 0
M  V30 7943 C 742.017 5.28458 3.47728 0
M  V30 7944 C 740.681 5.68717 3.49453 0
M  V30 7945 H 739.951 0.338106 0.659367 0
M  V30 7946 H 742.598 1.43594 1.26701 0
M  V30 7947 H 740.903 0.888691 3.81588 0
M  V30 7948 H 742.6 1.27972 3.80032 0
M  V30 7949 H 739.19 2.64746 3.37057 0
M  V30 7950 H 743.374 3.62805 3.38654 0
M  V30 7951 H 738.63 5.03925 3.46222 0
M  V30 7952 H 742.804 6.02618 3.49034 0
M  V30 7953 H 740.431 6.73596 3.5238 0
M  V30 7954 N 742.006 -1.2595 0.947325 0
M  V30 7955 C 743.253 -1.93463 0.598178 0
M  V30 7956 C 743.581 -1.74271 -0.863705 0
M  V30 7957 O 742.836 -1.07684 -1.63409 0
M  V30 7958 C 743.135 -3.46034 0.894158 0
M  V30 7959 C 742.801 -3.85373 2.3409 0
M  V30 7960 C 741.463 -3.95823 2.73637 0
M  V30 7961 C 743.815 -4.04986 3.2808 0
M  V30 7962 C 741.143 -4.23288 4.06257 0
M  V30 7963 C 743.495 -4.3394 4.60303 0
M  V30 7964 C 742.159 -4.42606 4.99656 0
M  V30 7965 H 741.429 -0.707933 0.218889 0
M  V30 7966 H 744.076 -1.4964 1.19499 0
M  V30 7967 H 742.381 -3.9121 0.214874 0
M  V30 7968 H 744.078 -3.96445 0.602698 0
M  V30 7969 H 740.668 -3.7779 2.02417 0
M  V30 7970 H 744.852 -3.96333 2.9872 0
M  V30 7971 H 740.108 -4.28211 4.36401 0
M  V30 7972 H 744.282 -4.48061 5.33118 0
M  V30 7973 H 741.909 -4.63641 6.02446 0
M  V30 7974 N 743.484 -0.715051 -1.40445 0
M  V30 7975 C 744.712 -0.263959 -2.05209 0
M  V30 7976 C 745.127 1.09403 -1.53871 0
M  V30 7977 O 744.484 1.68746 -0.695064 0
M  V30 7978 C 744.535 -0.234545 -3.60738 0
M  V30 7979 O 744.256 -1.53891 -4.10182 0
M  V30 7980 C 745.757 0.235164 -4.42676 0
M  V30 7981 H 742.977 -0.11876 -0.660407 0
M  V30 7982 H 745.521 -0.973107 -1.79864 0
M  V30 7983 H 743.676 0.425563 -3.85055 0
M  V30 7984 H 744.09 -1.43903 -5.04373 0
M  V30 7985 H 745.564 0.204598 -5.51621 0
M  V30 7986 H 746.041 1.27724 -4.20218 0
M  V30 7987 H 746.647 -0.394649 -4.23465 0
M  V30 7988 N 744.962 1.50701 -0.461195 0
M  V30 7989 C 746.373 1.867 -0.00370227 0
M  V30 7990 C 746.724 1.37673 1.39787 0
M  V30 7991 O 745.849 0.737515 2.03445 0
M  V30 7992 C 746.444 3.388 5.75786e-05 0
M  V30 7993 C 745.003 3.74247 0.402044 0
M  V30 7994 C 744.15 2.74549 -0.389652 0
M  V30 7995 H 747.101 1.43585 -0.675942 0
M  V30 7996 H 747.122 3.719 0.804414 0
M  V30 7997 H 746.634 3.74452 -1.02015 0
M  V30 7998 H 744.735 3.44192 1.42697 0
M  V30 7999 H 744.848 4.78973 0.110265 0
M  V30 8000 H 743.212 2.54226 0.155314 0
M  V30 8001 H 743.995 3.13044 -1.40919 0
M  V30 8002 N 746.441 0.193421 1.56409 0
M  V30 8003 C 747.69 -0.445995 1.96707 0
M  V30 8004 C 748.003 -1.62876 1.08309 0
M  V30 8005 O 749.209 -2.33586 1.38383 0
M  V30 8006 C 747.665 -0.844863 3.49843 0
M  V30 8007 C 747.273 0.31352 4.46902 0
M  V30 8008 C 749.017 -1.45146 3.98915 0
M  V30 8009 C 746.924 -0.106214 5.91305 0
M  V30 8010 H 745.854 -0.170398 0.734493 0
M  V30 8011 H 748.505 0.285172 1.81271 0
M  V30 8012 H 746.887 -1.63265 3.60778 0
M  V30 8013 H 748.061 1.09103 4.47698 0
M  V30 8014 H 746.376 0.8315 4.08014 0
M  V30 8015 H 748.973 -1.77792 5.04276 0
M  V30 8016 H 749.316 -2.35734 3.43126 0
M  V30 8017 H 749.849 -0.727675 3.91088 0
M  V30 8018 H 746.588 0.765442 6.51016 0
M  V30 8019 H 746.108 -0.848623 5.93766 0
M  V30 8020 H 747.787 -0.542588 6.44721 0
M  V30 8021 N 747.919 -1.57396 -0.0801906 0
M  V30 8022 C 749.168 -1.8602 -0.779702 0
M  V30 8023 C 749.481 -0.784864 -1.79163 0
M  V30 8024 O 750.687 -0.958691 -2.54011 0
M  V30 8025 C 749.143 -3.29942 -1.43758 0
M  V30 8026 C 748.751 -4.45584 -0.464654 0
M  V30 8027 C 750.495 -3.67775 -2.11995 0
M  V30 8028 C 748.402 -5.80544 -1.12797 0
M  V30 8029 H 747.332 -0.69392 -0.294943 0
M  V30 8030 H 749.983 -1.83471 -0.0328527 0
M  V30 8031 H 748.365 -3.27078 -2.2324 0
M  V30 8032 H 749.539 -4.59824 0.299749 0
M  V30 8033 H 747.854 -4.16247 0.112813 0
M  V30 8034 H 750.451 -4.65896 -2.62383 0
M  V30 8035 H 750.794 -2.9715 -2.91561 0
M  V30 8036 H 751.327 -3.72593 -1.39354 0
M  V30 8037 H 748.066 -6.54439 -0.372807 0
M  V30 8038 H 747.586 -5.70119 -1.86344 0
M  V30 8039 H 749.265 -6.25602 -1.6502 0
M  V30 8040 N 749.397 0.351382 -1.53633 0
M  V30 8041 C 750.643 1.09411 -1.70754 0
M  V30 8042 C 750.976 1.88544 -0.465293 0
M  V30 8043 O 750.251 1.86923 0.537608 0
M  V30 8044 C 750.534 2.04173 -2.96623 0
M  V30 8045 C 750.387 1.28556 -4.31038 0
M  V30 8046 C 751.706 3.04102 -3.18136 0
M  V30 8047 H 748.825 0.396373 -0.621335 0
M  V30 8048 H 751.467 0.373464 -1.86293 0
M  V30 8049 H 749.617 2.65625 -2.83506 0
M  V30 8050 H 751.289 0.697786 -4.55992 0
M  V30 8051 H 749.532 0.587498 -4.29803 0
M  V30 8052 H 750.203 1.97989 -5.15271 0
M  V30 8053 H 752.679 2.5276 -3.30532 0
M  V30 8054 H 751.555 3.67616 -4.07615 0
M  V30 8055 H 751.816 3.75053 -2.34068 0
M  V30 8056 N 750.875 1.45233 0.611969 0
M  V30 8057 C 751.838 1.53189 1.70487 0
M  V30 8058 C 752.838 0.411839 1.55437 0
M  V30 8059 O 754.028 0.675164 1.60584 0
M  V30 8060 C 751.16 1.42422 3.09723 0
M  V30 8061 H 752.353 2.5056 1.64802 0
M  V30 8062 H 749.906 1.32609 0.827318 0
M  V30 8063 H 750.641 0.462185 3.2099 0
M  V30 8064 H 750.426 2.23658 3.22055 0
M  V30 8065 H 751.916 1.51012 3.89339 0
M  V30 8066 N 752.353 -0.854086 1.3245 0
M  V30 8067 C 753.601 -1.60513 1.228 0
M  V30 8068 C 753.922 -1.93865 -0.210073 0
M  V30 8069 O 753.192 -1.59673 -1.13496 0
M  V30 8070 H 751.772 -0.595099 0.451516 0
M  V30 8071 H 754.434 -1.0216 1.6598 0
M  V30 8072 H 753.53 -2.54182 1.81102 0
M  V30 8073 N 753.831 -1.1567 -1.07043 0
M  V30 8074 C 755.077 -0.9349 -1.79965 0
M  V30 8075 C 755.41 0.536464 -1.86643 0
M  V30 8076 O 754.685 1.39781 -1.35247 0
M  V30 8077 C 754.968 -1.55371 -3.24857 0
M  V30 8078 C 754.821 -3.09589 -3.26305 0
M  V30 8079 C 756.14 -1.24209 -4.22209 0
M  V30 8080 H 753.259 -0.341061 -0.653335 0
M  V30 8081 H 755.901 -1.42883 -1.25237 0
M  V30 8082 H 754.051 -1.13368 -3.71591 0
M  V30 8083 H 755.723 -3.60521 -2.87789 0
M  V30 8084 H 753.966 -3.43315 -2.65174 0
M  V30 8085 H 754.637 -3.48002 -4.28484 0
M  V30 8086 H 757.113 -1.60548 -3.8388 0
M  V30 8087 H 755.989 -1.70119 -5.21872 0
M  V30 8088 H 756.25 -0.15964 -4.41812 0
M  V30 8089 N 755.309 1.25446 -0.953992 0
M  V30 8090 C 756.556 1.93143 -0.608429 0
M  V30 8091 C 756.884 1.74727 0.854451 0
M  V30 8092 O 756.139 1.0855 1.62836 0
M  V30 8093 C 756.438 3.45555 -0.912496 0
M  V30 8094 C 756.104 3.84126 -2.36131 0
M  V30 8095 C 754.766 3.94367 -2.75732 0
M  V30 8096 C 757.118 4.0324 -3.30223 0
M  V30 8097 C 754.446 4.21127 -4.08496 0
M  V30 8098 C 756.798 4.31493 -4.62598 0
M  V30 8099 C 755.462 4.3995 -5.01996 0
M  V30 8100 H 754.732 0.706762 -0.22264 0
M  V30 8101 H 757.379 1.49005 -1.20291 0
M  V30 8102 H 755.684 3.91091 -0.235618 0
M  V30 8103 H 757.381 3.9612 -0.623714 0
M  V30 8104 H 753.971 3.76711 -2.04418 0
M  V30 8105 H 758.155 3.94744 -3.00817 0
M  V30 8106 H 753.411 4.2589 -4.38665 0
M  V30 8107 H 757.585 4.45227 -5.35486 0
M  V30 8108 H 755.212 4.60439 -6.04896 0
M  V30 8109 N 756.787 0.722489 1.40064 0
M  V30 8110 C 758.036 0.261932 1.99992 0
M  V30 8111 C 758.349 -1.15358 1.57961 0
M  V30 8112 O 759.555 -1.71301 2.10637 0
M  V30 8113 C 758.011 0.41737 3.57472 0
M  V30 8114 C 757.619 1.83997 4.08472 0
M  V30 8115 C 759.363 0.0179561 4.24496 0
M  V30 8116 C 757.27 1.94563 5.5848 0
M  V30 8117 H 756.2 0.0941768 0.748095 0
M  V30 8118 H 758.851 0.894572 1.60218 0
M  V30 8119 H 757.233 -0.283965 3.94981 0
M  V30 8120 H 758.407 2.57224 3.82325 0
M  V30 8121 H 756.722 2.19147 3.54067 0
M  V30 8122 H 759.319 0.076085 5.34646 0
M  V30 8123 H 759.662 -1.02498 4.03485 0
M  V30 8124 H 760.195 0.669988 3.92117 0
M  V30 8125 H 756.934 2.97001 5.84355 0
M  V30 8126 H 756.454 1.25756 5.86469 0
M  V30 8127 H 758.133 1.72095 6.23692 0
M  V30 8128 N 758.265 -1.50454 0.469181 0
M  V30 8129 C 759.512 -2.02315 -0.086469 0
M  V30 8130 C 759.84 -1.3513 -1.39893 0
M  V30 8131 O 759.095 -0.465341 -1.90087 0
M  V30 8132 C 759.394 -3.55963 -0.320207 0
M  V30 8133 C 759.06 -4.41615 0.910318 0
M  V30 8134 C 757.722 -4.64743 1.2477 0
M  V30 8135 C 760.074 -4.91661 1.72971 0
M  V30 8136 C 757.402 -5.35161 2.40457 0
M  V30 8137 C 759.754 -5.6335 2.87785 0
M  V30 8138 C 758.418 -5.84732 3.2194 0
M  V30 8139 H 757.688 -0.740324 -0.0316412 0
M  V30 8140 H 760.335 -1.81087 0.622872 0
M  V30 8141 H 758.64 -3.75695 -1.11177 0
M  V30 8142 H 760.337 -3.93653 -0.764071 0
M  V30 8143 H 756.927 -4.23833 0.637467 0
M  V30 8144 H 761.111 -4.73649 1.48224 0
M  V30 8145 H 756.367 -5.49924 2.67196 0
M  V30 8146 H 760.541 -6.0111 3.51624 0
M  V30 8147 H 758.168 -6.39074 4.1169 0
M  V30 8148 N 759.743 -0.201713 -1.56304 0
M  V30 8149 C 760.968 0.443815 -2.02596 0
M  V30 8150 C 761.393 1.53945 -1.08086 0
M  V30 8151 O 760.751 1.81182 -0.0655056 0
M  V30 8152 C 760.799 0.971066 -3.47279 0
M  V30 8153 O 759.903 2.0836 -3.55893 0
M  V30 8154 H 759.244 0.10294 -0.655972 0
M  V30 8155 H 761.774 -0.314533 -2.02168 0
M  V30 8156 H 761.784 1.28598 -3.87204 0
M  V30 8157 H 760.459 0.169048 -4.15556 0
M  V30 8158 H 759.036 1.77683 -3.27846 0
M  V30 8159 N 761.222 1.57436 0.0718424 0
M  V30 8160 C 762.185 2.02703 1.06977 0
M  V30 8161 C 763.185 0.924062 1.31597 0
M  V30 8162 O 764.375 1.18894 1.27318 0
M  V30 8163 C 761.507 2.40763 2.41342 0
M  V30 8164 H 762.7 2.92098 0.679619 0
M  V30 8165 H 760.253 1.5304 0.317565 0
M  V30 8166 H 760.988 1.54394 2.8519 0
M  V30 8167 H 760.773 3.21249 2.24814 0
M  V30 8168 H 762.263 2.76361 3.13073 0
M  V30 8169 N 762.7 -0.34323 1.53817 0
M  V30 8170 C 763.946 -1.08504 1.71332 0
M  V30 8171 C 764.279 -1.88294 0.475285 0
M  V30 8172 O 763.554 -1.87205 -0.527688 0
M  V30 8173 C 763.837 -2.02597 2.97702 0
M  V30 8174 C 763.69 -1.26268 4.31713 0
M  V30 8175 C 765.009 -3.0241 3.19744 0
M  V30 8176 H 762.128 -0.393072 0.623429 0
M  V30 8177 H 764.77 -0.363579 1.86489 0
M  V30 8178 H 762.92 -2.64118 2.8491 0
M  V30 8179 H 764.592 -0.673594 4.56356 0
M  V30 8180 H 762.835 -0.564696 4.30109 0
M  V30 8181 H 763.506 -1.95253 5.16314 0
M  V30 8182 H 765.982 -2.51004 3.31868 0
M  V30 8183 H 764.858 -3.65449 4.09558 0
M  V30 8184 H 765.119 -3.73806 2.36054 0
M  V30 8185 N 764.178 -1.45556 -0.604258 0
M  V30 8186 C 765.11 -1.50494 -1.72871 0
M  V30 8187 C 766.123 -0.395368 -1.57926 0
M  V30 8188 O 767.312 -0.662603 -1.65746 0
M  V30 8189 C 764.412 -1.34874 -3.10906 0
M  V30 8190 C 763.585 -2.59564 -3.52058 0
M  V30 8191 C 762.644 -2.38453 -4.6907 0
M  V30 8192 O 761.67 -3.12082 -4.76018 0
M  V30 8193 N 762.872 -1.43229 -5.62553 0
M  V30 8194 H 765.637 -2.4744 -1.69097 0
M  V30 8195 H 763.198 -1.41338 -0.789636 0
M  V30 8196 H 765.19 -1.18556 -3.86945 0
M  V30 8197 H 763.76 -0.461913 -3.09168 0
M  V30 8198 H 762.98 -2.90974 -2.65946 0
M  V30 8199 H 764.268 -3.42441 -3.76313 0
M  V30 8200 H 763.666 -0.824714 -5.59656 0
M  V30 8201 H 762.223 -1.32882 -6.38111 0
M  V30 8202 N 765.656 0.84705 -1.32902 0
M  V30 8203 C 766.589 1.96038 -1.1681 0
M  V30 8204 C 767.567 1.62468 -0.0656144 0
M  V30 8205 O 768.751 1.87136 -0.226339 0
M  V30 8206 C 765.878 3.29362 -0.789839 0
M  V30 8207 C 764.924 3.81908 -1.89865 0
M  V30 8208 S 765.757 4.04576 -3.50826 0
M  V30 8209 C 766.913 5.40863 -3.14989 0
M  V30 8210 H 767.146 2.09387 -2.11055 0
M  V30 8211 H 764.679 0.999896 -1.1765 0
M  V30 8212 H 766.637 4.06405 -0.578369 0
M  V30 8213 H 765.298 3.13815 0.133878 0
M  V30 8214 H 764.491 4.78357 -1.58716 0
M  V30 8215 H 764.093 3.11733 -2.06636 0
M  V30 8216 H 766.385 6.23393 -2.65306 0
M  V30 8217 H 767.328 5.7698 -4.10488 0
M  V30 8218 H 767.736 5.05228 -2.51804 0
M  V30 8219 N 767.134 1.16236 1.06428 0
M  V30 8220 C 768.362 0.967184 1.82902 0
M  V30 8221 C 768.777 -0.484601 1.82475 0
M  V30 8222 O 768.134 -1.33631 1.24294 0
M  V30 8223 C 768.185 1.48534 3.29576 0
M  V30 8224 O 767.906 2.88026 3.3011 0
M  V30 8225 C 769.407 1.33298 4.22784 0
M  V30 8226 H 766.627 0.342923 0.576754 0
M  V30 8227 H 769.171 1.54232 1.34286 0
M  V30 8228 H 767.326 0.952513 3.75508 0
M  V30 8229 H 767.74 3.11721 4.21818 0
M  V30 8230 H 769.214 1.74385 5.23731 0
M  V30 8231 H 769.691 0.278356 4.38317 0
M  V30 8232 H 770.297 1.85535 3.82697 0
M  V30 8233 N 768.612 -1.24939 0.960631 0
M  V30 8234 C 770.023 -1.74701 0.658529 0
M  V30 8235 C 770.374 -1.77967 -0.825959 0
M  V30 8236 O 769.499 -1.40444 -1.64634 0
M  V30 8237 C 770.094 -3.17263 1.18867 0
M  V30 8238 C 768.653 -3.64561 0.936614 0
M  V30 8239 C 767.8 -2.43423 1.32817 0
M  V30 8240 H 770.751 -1.10741 1.13676 0
M  V30 8241 H 770.772 -3.76481 0.551589 0
M  V30 8242 H 770.284 -3.14854 2.26912 0
M  V30 8243 H 768.385 -3.72378 -0.128608 0
M  V30 8244 H 768.498 -4.52392 1.57729 0
M  V30 8245 H 766.862 -2.43513 0.746548 0
M  V30 8246 H 767.645 -2.437 2.41796 0
M  V30 8247 N 770.09 -0.729906 -1.39679 0
M  V30 8248 C 771.02 -0.101618 -2.33279 0
M  V30 8249 C 772.001 0.729854 -1.53646 0
M  V30 8250 O 773.186 0.67587 -1.82059 0
M  V30 8251 C 770.316 0.81024 -3.37716 0
M  V30 8252 C 769.27 0.0833126 -4.27919 0
M  V30 8253 C 768.596 1.11185 -5.23012 0
M  V30 8254 C 769.896 -1.07107 -5.112 0
M  V30 8255 H 771.59 -0.883452 -2.86069 0
M  V30 8256 H 769.136 -0.426283 -1.37546 0
M  V30 8257 H 771.089 1.25927 -4.02145 0
M  V30 8258 H 769.813 1.62413 -2.83354 0
M  V30 8259 H 768.472 -0.346043 -3.64963 0
M  V30 8260 H 768.12 1.91917 -4.64948 0
M  V30 8261 H 767.82 0.63026 -5.8421 0
M  V30 8262 H 769.344 1.56068 -5.90318 0
M  V30 8263 H 770.758 -0.700726 -5.69002 0
M  V30 8264 H 769.155 -1.48196 -5.81514 0
M  V30 8265 H 770.225 -1.89513 -4.46332 0
M  V30 8266 N 771.568 1.50203 -0.477153 0
M  V30 8267 C 772.796 2.0677 0.0732489 0
M  V30 8268 C 773.211 1.34033 1.32968 0
M  V30 8269 O 772.568 0.411412 1.77802 0
M  V30 8270 C 772.619 3.59751 0.35518 0
M  V30 8271 O 772.34 4.29747 -0.851425 0
M  V30 8272 C 773.841 4.3296 0.951877 0
M  V30 8273 H 771.061 0.670929 -0.00978923 0
M  V30 8274 H 773.605 1.93293 -0.667676 0
M  V30 8275 H 771.76 3.7301 1.04605 0
M  V30 8276 H 772.174 5.2106 -0.599708 0
M  V30 8277 H 773.648 5.40952 1.09888 0
M  V30 8278 H 774.125 3.93856 1.94356 0
M  V30 8279 H 774.731 4.24246 0.299208 0
M  V30 8280 N 773.046 0.209999 1.56195 0
M  V30 8281 C 773.979 -0.744546 2.15712 0
M  V30 8282 C 774.957 -1.19917 1.09812 0
M  V30 8283 O 776.141 -1.284 1.38006 0
M  V30 8284 C 773.268 -2.00733 2.72807 0
M  V30 8285 C 772.314 -1.69363 3.91431 0
M  V30 8286 S 773.147 -0.828579 5.29051 0
M  V30 8287 C 774.303 -2.10118 5.89577 0
M  V30 8288 H 774.536 -0.238636 2.96341 0
M  V30 8289 H 772.069 -0.00517877 1.54399 0
M  V30 8290 H 774.027 -2.73246 3.06344 0
M  V30 8291 H 772.688 -2.48436 1.92193 0
M  V30 8292 H 771.881 -2.63157 4.29842 0
M  V30 8293 H 771.483 -1.04921 3.58981 0
M  V30 8294 H 773.775 -3.05231 6.04847 0
M  V30 8295 H 774.718 -1.76116 6.85849 0
M  V30 8296 H 775.126 -2.23644 5.18308 0
M  V30 8297 N 774.524 -1.57472 -0.0634922 0
M  V30 8298 C 775.772 -1.87283 -0.759563 0
M  V30 8299 C 776.093 -0.803135 -1.77693 0
M  V30 8300 O 775.363 0.167293 -1.95184 0
M  V30 8301 H 773.943 -0.691106 -0.283516 0
M  V30 8302 H 776.605 -1.94864 -0.0376091 0
M  V30 8303 H 775.701 -2.85064 -1.27062 0
M  V30 8304 N 776.003 0.335068 -1.53997 0
M  V30 8305 C 776.951 1.43206 -1.83289 0
M  V30 8306 C 777.945 1.54081 -0.703953 0
M  V30 8307 O 779.151 1.56603 -0.887432 0
M  V30 8308 H 775.526 0.477655 -0.580818 0
M  V30 8309 H 777.497 1.15719 -2.75049 0
M  V30 8310 C 776.246 2.79602 -2.06683 0
M  V30 8311 H 775.569 2.72004 -2.93008 0
M  V30 8312 H 777.009 3.55459 -2.31139 0
M  V30 8313 C 775.468 3.25873 -0.854883 0
M  V30 8314 O 775.998 4.01657 -0.0584648 0
M  V30 8315 N 774.204 2.82777 -0.669729 0
M  V30 8316 H 773.751 2.21269 -1.31901 0
M  V30 8317 H 773.709 3.1409 0.13969 0
M  V30 8318 N 777.481 1.45874 0.596531 0
M  V30 8319 C 778.711 1.5379 1.37958 0
M  V30 8320 C 779.119 0.173086 1.88407 0
M  V30 8321 O 778.462 -0.837498 1.63498 0
M  V30 8322 C 778.524 2.47044 2.61169 0
M  V30 8323 C 778.188 3.93565 2.32283 0
M  V30 8324 C 779.185 4.83162 1.91965 0
M  V30 8325 C 776.87 4.38579 2.44854 0
M  V30 8326 C 778.864 6.15782 1.64593 0
M  V30 8327 C 776.551 5.71238 2.17095 0
M  V30 8328 C 777.549 6.59659 1.77028 0
M  V30 8329 O 777.237 7.89857 1.49601 0
M  V30 8330 H 776.969 0.523 0.428307 0
M  V30 8331 H 779.523 1.91855 0.733529 0
M  V30 8332 H 777.753 2.0397 3.28532 0
M  V30 8333 H 779.442 2.4552 3.23226 0
M  V30 8334 H 780.208 4.49646 1.8178 0
M  V30 8335 H 776.087 3.6999 2.75006 0
M  V30 8336 H 779.631 6.84757 1.33245 0
M  V30 8337 H 775.528 6.04306 2.26901 0
M  V30 8338 H 776.296 8.01991 1.63561 0
M  V30 8339 N 778.959 -0.83999 1.33349 0
M  V30 8340 C 780.205 -1.59753 1.24927 0
M  V30 8341 C 780.538 -1.93318 -0.184855 0
M  V30 8342 O 779.813 -1.586 -1.12589 0
M  V30 8343 C 780.096 -2.90829 2.12345 0
M  V30 8344 C 779.949 -2.63953 3.6421 0
M  V30 8345 C 781.268 -3.92246 1.99577 0
M  V30 8346 H 778.387 -0.579654 0.45516 0
M  V30 8347 H 781.029 -0.968909 1.63439 0
M  V30 8348 H 779.179 -3.44478 1.79631 0
M  V30 8349 H 780.851 -2.16745 4.07209 0
M  V30 8350 H 779.094 -1.97671 3.86146 0
M  V30 8351 H 779.765 -3.57348 4.20721 0
M  V30 8352 H 782.241 -3.479 2.28265 0
M  V30 8353 H 781.117 -4.81793 2.62996 0
M  V30 8354 H 781.378 -4.3138 0.967673 0
M  V30 8355 N 780.437 -1.16799 -1.0581 0
M  V30 8356 C 781.684 -0.952524 -1.78699 0
M  V30 8357 C 782.012 0.51931 -1.87439 0
M  V30 8358 O 781.267 1.40151 -1.36587 0
M  V30 8359 C 781.566 -1.53111 -3.22942 0
M  V30 8360 C 781.232 -3.0261 -3.34273 0
M  V30 8361 C 779.894 -3.43418 -3.37072 0
M  V30 8362 C 782.246 -3.98611 -3.35795 0
M  V30 8363 C 779.574 -4.78838 -3.39015 0
M  V30 8364 C 781.926 -5.33923 -3.39277 0
M  V30 8365 C 780.59 -5.74205 -3.40361 0
M  V30 8366 H 779.86 -0.348553 -0.653905 0
M  V30 8367 H 782.507 -1.45591 -1.244 0
M  V30 8368 H 780.812 -0.949286 -3.80126 0
M  V30 8369 H 782.509 -1.34002 -3.77948 0
M  V30 8370 H 779.099 -2.70075 -3.32803 0
M  V30 8371 H 783.283 -3.68146 -3.32839 0
M  V30 8372 H 778.539 -5.09369 -3.38161 0
M  V30 8373 H 782.713 -6.08094 -3.39403 0
M  V30 8374 H 780.34 -6.79117 -3.4162 0
M  V30 8375 N 781.915 1.24427 -0.967243 0
M  V30 8376 C 783.326 1.74349 -0.667785 0
M  V30 8377 C 783.677 1.78403 0.816509 0
M  V30 8378 O 782.802 1.41315 1.63887 0
M  V30 8379 C 783.397 3.16628 -1.20548 0
M  V30 8380 C 781.956 3.64059 -0.955934 0
M  V30 8381 C 781.103 2.42715 -1.34106 0
M  V30 8382 H 784.054 1.10136 -1.14262 0
M  V30 8383 H 784.075 3.76183 -0.571547 0
M  V30 8384 H 783.587 3.13646 -2.28578 0
M  V30 8385 H 781.688 3.72441 0.108858 0
M  V30 8386 H 781.801 4.51549 -1.60126 0
M  V30 8387 H 780.165 2.43114 -0.759452 0
M  V30 8388 H 780.948 2.42414 -2.43085 0
M  V30 8389 N 783.393 0.737304 1.3929 0
M  V30 8390 C 784.34 0.0988364 2.30588 0
M  V30 8391 C 785.31 -0.727206 1.49335 0
M  V30 8392 O 786.495 -0.686694 1.78014 0
M  V30 8393 C 783.635 -0.800734 3.35682 0
M  V30 8394 C 782.748 0.0381731 4.31983 0
M  V30 8395 C 781.883 -0.862884 5.24145 0
M  V30 8396 C 780.922 -0.0193639 6.12097 0
M  V30 8397 N 780.059 -0.87648 6.96608 0
M  V30 8398 H 784.899 0.883031 2.84617 0
M  V30 8399 H 782.436 0.447111 1.4014 0
M  V30 8400 H 784.394 -1.33676 3.95205 0
M  V30 8401 H 783.024 -1.55088 2.83103 0
M  V30 8402 H 782.076 0.691641 3.74059 0
M  V30 8403 H 783.388 0.690294 4.94 0
M  V30 8404 H 782.542 -1.46667 5.88705 0
M  V30 8405 H 781.281 -1.54878 4.62454 0
M  V30 8406 H 780.286 0.597202 5.46547 0
M  V30 8407 H 781.511 0.663348 6.75852 0
M  V30 8408 H 779.457 -1.54762 6.37483 0
M  V30 8409 H 779.374 -0.280892 7.55478 0
M  V30 8410 H 780.642 -1.46575 7.65595 0
M  V30 8411 N 784.871 -1.49948 0.485112 0
M  V30 8412 C 786.117 -2.0332 -0.0571625 0
M  V30 8413 C 786.472 -1.35951 -1.36144 0
M  V30 8414 O 785.765 -0.480871 -1.85467 0
M  V30 8415 C 785.959 -3.56282 -0.282434 0
M  V30 8416 C 785.788 -4.38476 0.998455 0
M  V30 8417 C 784.558 -4.81076 1.54576 0
M  V30 8418 C 786.756 -4.78013 1.89758 0
M  V30 8419 N 784.738 -5.47641 2.77421 0
M  V30 8420 C 786.109 -5.44133 2.97186 0
M  V30 8421 C 788.164 -4.59963 1.90627 0
M  V30 8422 C 786.867 -5.94113 4.0549 0
M  V30 8423 C 788.893 -5.10893 2.97897 0
M  V30 8424 C 788.255 -5.77 4.04043 0
M  V30 8425 H 784.354 -0.781758 0.0194642 0
M  V30 8426 H 786.938 -1.833 0.65644 0
M  V30 8427 H 785.109 -3.76219 -0.965083 0
M  V30 8428 H 786.841 -3.96299 -0.820298 0
M  V30 8429 H 783.596 -4.60814 1.09304 0
M  V30 8430 H 784.02 -5.85521 3.39844 0
M  V30 8431 H 788.662 -4.08274 1.09875 0
M  V30 8432 H 786.38 -6.44832 4.8705 0
M  V30 8433 H 789.966 -4.98748 2.9957 0
M  V30 8434 H 788.846 -6.15698 4.85681 0
M  V30 8435 N 786.349 -0.21828 -1.56081 0
M  V30 8436 C 787.597 0.413488 -1.97825 0
M  V30 8437 C 787.918 1.60527 -1.10707 0
M  V30 8438 O 787.188 1.9504 -0.183378 0
M  V30 8439 H 785.768 0.155757 -0.730581 0
M  V30 8440 H 788.43 -0.310413 -1.92412 0
M  V30 8441 H 787.526 0.742024 -3.03151 0
M  V30 8442 N 787.827 1.57504 0.0551401 0
M  V30 8443 C 788.759 2.0158 1.09078 0
M  V30 8444 C 789.772 0.92434 1.34014 0
M  V30 8445 O 790.961 1.20202 1.31961 0
M  V30 8446 C 788.061 2.35385 2.43818 0
M  V30 8447 C 787.234 3.66588 2.38605 0
M  V30 8448 C 786.293 3.87874 3.55585 0
M  V30 8449 O 785.319 4.59259 3.36258 0
M  V30 8450 N 786.521 3.31503 4.76536 0
M  V30 8451 H 789.286 2.91039 0.71529 0
M  V30 8452 H 786.847 1.60058 0.243532 0
M  V30 8453 H 788.839 2.46784 3.20749 0
M  V30 8454 H 787.409 1.51731 2.73307 0
M  V30 8455 H 786.629 3.65787 1.46947 0
M  V30 8456 H 787.917 4.52706 2.32239 0
M  V30 8457 H 787.315 2.73592 4.9514 0
M  V30 8458 H 785.872 3.48324 5.50921 0
M  V30 8459 N 789.305 -0.326896 1.54172 0
M  V30 8460 C 790.553 -1.06313 1.71878 0
M  V30 8461 C 790.874 -1.88652 0.493498 0
M  V30 8462 O 790.144 -1.89608 -0.492522 0
M  V30 8463 H 788.724 -0.39549 0.633716 0
M  V30 8464 H 791.386 -0.364139 1.91468 0
M  V30 8465 H 790.482 -1.73105 2.59694 0
M  V30 8466 N 790.784 -1.46188 -0.588786 0
M  V30 8467 C 792.03 -1.51407 -1.34921 0
M  V30 8468 C 792.363 -0.162771 -1.93517 0
M  V30 8469 O 791.638 0.825082 -1.76132 0
M  V30 8470 C 791.921 -2.60795 -2.48311 0
M  V30 8471 C 791.774 -4.05435 -1.94789 0
M  V30 8472 C 793.093 -2.66313 -3.50379 0
M  V30 8473 H 790.212 -0.551213 -0.489217 0
M  V30 8474 H 792.854 -1.78095 -0.661993 0
M  V30 8475 H 791.004 -2.3817 -3.06932 0
M  V30 8476 H 792.676 -4.39328 -1.40672 0
M  V30 8477 H 790.919 -4.15202 -1.25659 0
M  V30 8478 H 791.59 -4.77691 -2.76613 0
M  V30 8479 H 794.066 -2.86634 -3.01629 0
M  V30 8480 H 792.942 -3.44681 -4.27184 0
M  V30 8481 H 793.203 -1.72127 -4.07216 0
M  V30 8482 N 792.262 0.832906 -1.33792 0
M  V30 8483 C 793.51 1.58539 -1.25338 0
M  V30 8484 C 793.831 1.94175 0.179204 0
M  V30 8485 O 793.101 1.61458 1.10941 0
M  V30 8486 H 791.681 0.58784 -0.460926 0
M  V30 8487 H 794.343 0.995064 -1.67584 0
M  V30 8488 H 793.439 2.51268 -1.85123 0
M  V30 8489 N 793.74 1.17359 1.05189 0
M  V30 8490 C 794.986 0.973414 1.78595 0
M  V30 8491 C 795.341 -0.492713 1.85984 0
M  V30 8492 O 794.634 -1.361 1.3486 0
M  V30 8493 C 794.828 1.54821 3.22126 0
M  V30 8494 C 794.657 3.06871 3.28725 0
M  V30 8495 C 793.427 3.75602 3.38011 0
M  V30 8496 C 795.625 4.04467 3.17665 0
M  V30 8497 N 793.607 5.15257 3.33741 0
M  V30 8498 C 794.978 5.30574 3.20766 0
M  V30 8499 C 797.033 3.96138 3.01627 0
M  V30 8500 C 795.736 6.49319 3.09479 0
M  V30 8501 C 797.762 5.14467 2.91681 0
M  V30 8502 C 797.124 6.3946 2.95416 0
M  V30 8503 H 793.223 0.410092 0.665844 0
M  V30 8504 H 795.807 1.48944 1.25395 0
M  V30 8505 H 793.978 1.05853 3.73697 0
M  V30 8506 H 795.71 1.28467 3.83768 0
M  V30 8507 H 792.465 3.26282 3.43273 0
M  V30 8508 H 792.889 5.88263 3.35076 0
M  V30 8509 H 797.531 3.00345 2.97578 0
M  V30 8510 H 795.249 7.45322 3.12283 0
M  V30 8511 H 798.835 5.09803 2.80343 0
M  V30 8512 H 797.715 7.29483 2.87792 0
M  V30 8513 N 795.218 -1.23913 0.973828 0
M  V30 8514 C 796.148 -2.27453 0.527969 0
M  V30 8515 C 797.129 -1.6443 -0.435513 0
M  V30 8516 O 798.314 -1.9137 -0.330306 0
M  V30 8517 C 795.444 -3.4685 -0.176757 0
M  V30 8518 C 794.398 -4.22181 0.703352 0
M  V30 8519 C 793.724 -5.34534 -0.133215 0
M  V30 8520 C 795.024 -4.82865 1.99096 0
M  V30 8521 H 796.718 -2.65 1.3934 0
M  V30 8522 H 794.264 -1.27388 0.671446 0
M  V30 8523 H 796.217 -4.18424 -0.499934 0
M  V30 8524 H 794.941 -3.08346 -1.07659 0
M  V30 8525 H 793.6 -3.52416 1.00989 0
M  V30 8526 H 793.248 -4.92271 -1.03338 0
M  V30 8527 H 792.948 -5.85855 0.452494 0
M  V30 8528 H 794.472 -6.08933 -0.450924 0
M  V30 8529 H 795.886 -5.46481 1.73297 0
M  V30 8530 H 794.283 -5.44444 2.52389 0
M  V30 8531 H 795.353 -4.03977 2.68199 0
M  V30 8532 N 796.696 -0.74468 -1.38897 0
M  V30 8533 C 797.629 -0.0596441 -2.28122 0
M  V30 8534 C 798.607 0.73764 -1.44906 0
M  V30 8535 O 799.791 0.718155 -1.74284 0
M  V30 8536 C 796.918 0.922533 -3.25894 0
M  V30 8537 C 795.964 0.212566 -4.2597 0
M  V30 8538 S 796.797 -1.08035 -5.24489 0
M  V30 8539 C 797.953 -0.101014 -6.25818 0
M  V30 8540 H 798.186 -0.816289 -2.85874 0
M  V30 8541 H 795.719 -0.536882 -1.44765 0
M  V30 8542 H 797.677 1.4839 -3.82741 0
M  V30 8543 H 796.338 1.65209 -2.67142 0
M  V30 8544 H 795.531 0.956106 -4.94848 0
M  V30 8545 H 795.133 -0.277029 -3.72973 0
M  V30 8546 H 797.425 0.736072 -6.7349 0
M  V30 8547 H 798.368 -0.757206 -7.0404 0
M  V30 8548 H 798.776 0.275706 -5.63826 0
M  V30 8549 N 798.174 1.49689 -0.493057 0
M  V30 8550 C 799.137 2.27502 0.278485 0
M  V30 8551 C 800.137 1.33184 0.901037 0
M  V30 8552 O 801.327 1.56415 0.766801 0
M  V30 8553 C 798.459 3.10881 1.39878 0
M  V30 8554 H 799.652 2.97163 -0.404219 0
M  V30 8555 H 797.205 1.54324 -0.247774 0
M  V30 8556 H 797.94 2.45767 2.11587 0
M  V30 8557 H 797.725 3.80219 0.957924 0
M  V30 8558 H 799.215 3.69673 1.94247 0
M  V30 8559 N 799.652 0.226554 1.55963 0
M  V30 8560 C 800.582 -0.676079 2.23498 0
M  V30 8561 C 801.563 -1.19718 1.20837 0
M  V30 8562 O 802.748 -1.24027 1.49436 0
M  V30 8563 C 799.878 -1.88217 2.91876 0
M  V30 8564 C 798.832 -1.4947 4.01052 0
M  V30 8565 C 798.158 -2.77997 4.56751 0
M  V30 8566 C 799.458 -0.680951 5.17842 0
M  V30 8567 H 801.152 -0.112989 2.99187 0
M  V30 8568 H 798.698 -0.0529046 1.43903 0
M  V30 8569 H 800.651 -2.51911 3.37815 0
M  V30 8570 H 799.375 -2.47031 2.13643 0
M  V30 8571 H 798.034 -0.881199 3.55852 0
M  V30 8572 H 797.682 -3.34966 3.75243 0
M  V30 8573 H 797.382 -2.52803 5.30438 0
M  V30 8574 H 798.906 -3.42625 5.05411 0
M  V30 8575 H 800.32 -1.22171 5.60131 0
M  V30 8576 H 798.717 -0.525898 5.97791 0
M  V30 8577 H 799.787 0.311346 4.83899 0
M  V30 8578 N 801.13 -1.57531 -0.0467866 0
M  V30 8579 C 802.355 -1.93087 -0.757123 0
M  V30 8580 C 802.78 -0.825116 -1.69037 0
M  V30 8581 O 802.138 0.220449 -1.79955 0
M  V30 8582 C 802.186 -3.27669 -1.5055 0
M  V30 8583 O 801.29 -3.18667 -2.61773 0
M  V30 8584 H 800.631 -0.631597 -0.204892 0
M  V30 8585 H 803.161 -2.04599 -0.00755232 0
M  V30 8586 H 803.171 -3.6214 -1.87932 0
M  V30 8587 H 801.846 -4.07717 -0.820931 0
M  V30 8588 H 800.423 -2.95798 -2.27064 0
M  V30 8589 N 802.608 0.318715 -1.54344 0
M  V30 8590 C 803.833 1.07987 -1.77069 0
M  V30 8591 C 804.258 1.80766 -0.520117 0
M  V30 8592 O 803.616 1.73424 0.528566 0
M  V30 8593 C 803.664 2.04987 -2.96669 0
M  V30 8594 O 802.768 3.12974 -2.68554 0
M  V30 8595 H 802.109 0.311109 -0.586606 0
M  V30 8596 H 804.639 0.361533 -2.0138 0
M  V30 8597 H 804.649 2.47771 -3.2415 0
M  V30 8598 H 803.324 1.51417 -3.87357 0
M  V30 8599 H 801.901 2.74831 -2.52037 0
M  V30 8600 N 804.086 1.46499 0.581025 0
M  V30 8601 C 805.019 1.51706 1.70472 0
M  V30 8602 C 805.997 0.371036 1.5831 0
M  V30 8603 O 807.181 0.575426 1.79502 0
M  V30 8604 C 804.308 1.3972 3.08538 0
M  V30 8605 C 803.354 2.58525 3.39215 0
M  V30 8606 S 804.187 4.20872 3.311 0
M  V30 8607 C 805.343 4.11398 4.71702 0
M  V30 8608 H 805.576 2.46777 1.65796 0
M  V30 8609 H 803.109 1.34405 0.759908 0
M  V30 8610 H 805.067 1.33492 3.88188 0
M  V30 8611 H 803.728 0.460742 3.10702 0
M  V30 8612 H 802.921 2.46137 4.3981 0
M  V30 8613 H 802.523 2.61752 2.67136 0
M  V30 8614 H 804.815 3.78182 5.62125 0
M  V30 8615 H 805.758 5.11997 4.89147 0
M  V30 8616 H 806.166 3.42624 4.48631 0
M  V30 8617 N 805.565 -0.825799 1.34232 0
M  V30 8618 C 806.811 -1.58419 1.26614 0
M  V30 8619 C 807.144 -1.93503 -0.164341 0
M  V30 8620 O 806.419 -1.59785 -1.109 0
M  V30 8621 C 806.702 -2.8856 2.15418 0
M  V30 8622 C 806.555 -2.60075 3.66989 0
M  V30 8623 C 807.874 -3.90107 2.03726 0
M  V30 8624 H 804.993 -0.574794 0.461282 0
M  V30 8625 H 807.635 -0.951519 1.64457 0
M  V30 8626 H 805.785 -3.42553 1.83275 0
M  V30 8627 H 807.457 -2.12414 4.09485 0
M  V30 8628 H 805.7 -1.93565 3.88221 0
M  V30 8629 H 806.371 -3.52866 4.24488 0
M  V30 8630 H 808.847 -3.45459 2.31942 0
M  V30 8631 H 807.723 -4.78976 2.68092 0
M  V30 8632 H 807.984 -4.30329 1.01337 0
M  V30 8633 N 807.043 -1.17915 -1.04565 0
M  V30 8634 C 807.973 -0.925033 -2.14395 0
M  V30 8635 C 808.954 0.135375 -1.6956 0
M  V30 8636 O 810.139 -0.0161774 -1.94193 0
M  V30 8637 C 807.269 -0.444469 -3.44444 0
M  V30 8638 C 806.223 -1.44478 -4.02877 0
M  V30 8639 C 805.549 -0.821933 -5.28345 0
M  V30 8640 C 806.849 -2.81995 -4.39632 0
M  V30 8641 H 808.543 -1.84354 -2.35911 0
M  V30 8642 H 806.089 -0.887806 -1.13375 0
M  V30 8643 H 808.042 -0.254078 -4.20633 0
M  V30 8644 H 806.766 0.509592 -3.226 0
M  V30 8645 H 805.425 -1.62203 -3.28764 0
M  V30 8646 H 805.073 0.139161 -5.02807 0
M  V30 8647 H 804.773 -1.48976 -5.68401 0
M  V30 8648 H 806.297 -0.641959 -6.07216 0
M  V30 8649 H 807.711 -2.67952 -5.06828 0
M  V30 8650 H 806.108 -3.45414 -4.90723 0
M  V30 8651 H 807.178 -3.35927 -3.49687 0
M  V30 8652 N 808.521 1.23394 -0.980386 0
M  V30 8653 C 809.77 1.91116 -0.644785 0
M  V30 8654 C 810.083 1.77333 0.825367 0
M  V30 8655 O 811.289 2.39858 1.27203 0
M  V30 8656 C 809.745 3.42592 -1.10266 0
M  V30 8657 C 809.353 3.65037 -2.59715 0
M  V30 8658 C 811.097 4.1609 -0.8408 0
M  V30 8659 C 809.004 5.10148 -2.9917 0
M  V30 8660 H 807.934 0.715632 -0.23746 0
M  V30 8661 H 810.585 1.39829 -1.18828 0
M  V30 8662 H 808.967 3.92989 -0.487372 0
M  V30 8663 H 810.141 3.25186 -3.26482 0
M  V30 8664 H 808.456 3.04849 -2.83647 0
M  V30 8665 H 811.053 5.23021 -1.11143 0
M  V30 8666 H 811.396 4.15702 0.223085 0
M  V30 8667 H 811.929 3.71681 -1.41767 0
M  V30 8668 H 808.668 5.15668 -4.04682 0
M  V30 8669 H 808.188 5.50949 -2.37097 0
M  V30 8670 H 809.867 5.7848 -2.89775 0
M  V30 8671 N 809.999 0.752036 1.385 0
M  V30 8672 C 811.41 0.375385 1.82887 0
M  V30 8673 C 811.761 -1.09575 1.62751 0
M  V30 8674 O 810.886 -1.84685 1.12785 0
M  V30 8675 C 811.481 0.674563 3.32017 0
M  V30 8676 C 810.04 0.351208 3.74758 0
M  V30 8677 C 809.187 0.928531 2.61292 0
M  V30 8678 H 812.138 0.948313 1.27251 0
M  V30 8679 H 812.159 -0.0477781 3.8047 0
M  V30 8680 H 811.671 1.74533 3.46641 0
M  V30 8681 H 809.772 -0.713042 3.65714 0
M  V30 8682 H 809.885 0.845675 4.71577 0
M  V30 8683 H 808.249 0.354012 2.52228 0
M  V30 8684 H 809.032 2.0043 2.78716 0
M  V30 8685 N 811.477 -1.49425 0.500989 0
M  V30 8686 C 812.725 -2.02053 -0.0434495 0
M  V30 8687 C 813.046 -1.38285 -1.37486 0
M  V30 8688 O 812.316 -0.538171 -1.88363 0
M  V30 8689 H 810.896 -0.746757 -0.0190469 0
M  V30 8690 H 813.558 -1.83449 0.658227 0
M  V30 8691 H 812.654 -3.11619 -0.173129 0
M  V30 8692 N 812.955 -0.234822 -1.55841 0
M  V30 8693 C 814.185 0.397168 -2.02746 0
M  V30 8694 C 814.593 1.52951 -1.11367 0
M  V30 8695 O 813.936 1.8332 -0.118133 0
M  V30 8696 C 813.998 0.977748 -3.45948 0
M  V30 8697 C 813.662 -0.0208193 -4.56995 0
M  V30 8698 C 814.659 -0.826015 -5.13296 0
M  V30 8699 C 812.344 -0.143416 -5.02095 0
M  V30 8700 C 814.338 -1.74038 -6.1318 0
M  V30 8701 C 812.025 -1.0613 -6.01814 0
M  V30 8702 C 813.023 -1.85832 -6.57233 0
M  V30 8703 O 812.711 -2.76075 -7.55008 0
M  V30 8704 H 812.443 0.0999802 -0.668566 0
M  V30 8705 H 814.997 -0.352673 -2.0235 0
M  V30 8706 H 813.227 1.77693 -3.43456 0
M  V30 8707 H 814.916 1.51854 -3.76424 0
M  V30 8708 H 815.682 -0.741822 -4.79293 0
M  V30 8709 H 811.561 0.466857 -4.5863 0
M  V30 8710 H 815.105 -2.36291 -6.56363 0
M  V30 8711 H 811.002 -1.14646 -6.35237 0
M  V30 8712 H 811.77 -2.703 -7.7258 0
M  V30 8713 N 814.433 1.57553 0.0384317 0
M  V30 8714 C 815.366 2.01307 1.07475 0
M  V30 8715 C 816.344 0.895717 1.35704 0
M  V30 8716 O 817.528 1.16079 1.48519 0
M  V30 8717 C 814.655 2.37817 2.41165 0
M  V30 8718 C 813.701 3.599 2.28855 0
M  V30 8719 S 814.534 5.09418 1.65086 0
M  V30 8720 C 815.69 5.49162 3.00286 0
M  V30 8721 H 815.923 2.88892 0.702034 0
M  V30 8722 H 813.456 1.52394 0.248103 0
M  V30 8723 H 815.414 2.59524 3.18053 0
M  V30 8724 H 814.075 1.507 2.75587 0
M  V30 8725 H 813.268 3.83071 3.27525 0
M  V30 8726 H 812.87 3.37996 1.60109 0
M  V30 8727 H 815.162 5.49274 3.96617 0
M  V30 8728 H 816.105 6.49586 2.81858 0
M  V30 8729 H 816.513 4.76653 3.02427 0
M  V30 8730 N 815.911 -0.310526 1.54511 0
M  V30 8731 C 816.874 -1.3657 1.84068 0
M  V30 8732 C 817.874 -1.44123 0.713097 0
M  V30 8733 O 819.064 -1.43924 0.981399 0
M  V30 8734 C 816.196 -2.75162 2.01243 0
M  V30 8735 H 817.389 -1.1161 2.78358 0
M  V30 8736 H 814.942 -0.546699 1.46427 0
M  V30 8737 H 815.677 -3.05359 1.09208 0
M  V30 8738 H 815.462 -2.71071 2.83307 0
M  V30 8739 H 816.952 -3.51473 2.25514 0
M  V30 8740 N 817.389 -1.46805 -0.573248 0
M  V30 8741 C 818.619 -1.55965 -1.35494 0
M  V30 8742 C 819.027 -0.203038 -1.88107 0
M  V30 8743 O 818.37 0.81138 -1.6481 0
M  V30 8744 C 818.432 -2.51168 -2.57206 0
M  V30 8745 C 818.096 -3.97211 -2.25993 0
M  V30 8746 C 819.093 -4.86155 -1.84254 0
M  V30 8747 C 816.778 -4.42419 -2.37846 0
M  V30 8748 C 818.772 -6.18323 -1.54776 0
M  V30 8749 C 816.459 -5.74619 -2.0798 0
M  V30 8750 C 817.457 -6.62392 -1.66511 0
M  V30 8751 O 817.145 -7.92137 -1.37016 0
M  V30 8752 H 816.877 -0.529748 -0.419932 0
M  V30 8753 H 819.431 -1.92998 -0.702914 0
M  V30 8754 H 817.661 -2.09171 -3.25245 0
M  V30 8755 H 819.35 -2.50631 -3.19279 0
M  V30 8756 H 820.116 -4.52481 -1.74603 0
M  V30 8757 H 815.995 -3.74319 -2.69085 0
M  V30 8758 H 819.539 -6.8679 -1.22334 0
M  V30 8759 H 815.436 -6.0784 -2.17258 0
M  V30 8760 H 816.204 -8.04492 -1.50782 0
M  V30 8761 N 818.867 0.818669 -1.34668 0
M  V30 8762 C 819.8 1.93516 -1.20941 0
M  V30 8763 C 820.778 1.62292 -0.100061 0
M  V30 8764 O 821.962 1.86614 -0.265983 0
M  V30 8765 C 819.089 3.27612 -0.859524 0
M  V30 8766 C 818.135 3.77794 -1.97923 0
M  V30 8767 S 818.968 3.97043 -3.59329 0
M  V30 8768 C 820.124 5.3406 -3.2639 0
M  V30 8769 H 820.357 2.04864 -2.15449 0
M  V30 8770 H 817.89 0.974716 -1.19744 0
M  V30 8771 H 819.848 4.05087 -0.664444 0
M  V30 8772 H 818.509 3.14028 0.0672835 0
M  V30 8773 H 817.702 4.74883 -1.68827 0
M  V30 8774 H 817.304 3.0728 -2.13202 0
M  V30 8775 H 819.596 6.17626 -2.78469 0
M  V30 8776 H 820.539 5.68143 -4.22634 0
M  V30 8777 H 820.947 4.99773 -2.62464 0
M  V30 8778 N 820.346 1.18468 1.03938 0
M  V30 8779 C 821.593 0.980833 1.77161 0
M  V30 8780 C 821.921 -0.489425 1.88242 0
M  V30 8781 O 821.176 -1.37961 1.388 0
M  V30 8782 C 821.475 1.58229 3.20466 0
M  V30 8783 C 821.141 3.07889 3.29416 0
M  V30 8784 C 819.803 3.48737 3.31566 0
M  V30 8785 C 822.155 4.03903 3.29411 0
M  V30 8786 C 819.483 4.84171 3.31355 0
M  V30 8787 C 821.835 5.39253 3.3074 0
M  V30 8788 C 820.499 5.79547 3.31182 0
M  V30 8789 H 819.769 0.358912 0.648277 0
M  V30 8790 H 822.416 1.47552 1.22069 0
M  V30 8791 H 820.721 1.00964 3.78568 0
M  V30 8792 H 822.418 1.39998 3.75768 0
M  V30 8793 H 819.008 2.75335 3.28464 0
M  V30 8794 H 823.192 3.73395 3.2694 0
M  V30 8795 H 818.448 5.14685 3.30015 0
M  V30 8796 H 822.622 6.13417 3.29686 0
M  V30 8797 H 820.249 6.84466 3.30772 0
M  V30 8798 N 821.824 -1.22873 0.986916 0
M  V30 8799 C 822.754 -2.2688 0.552064 0
M  V30 8800 C 823.735 -1.64883 -0.418048 0
M  V30 8801 O 824.92 -1.9171 -0.30999 0
M  V30 8802 C 822.05 -3.47018 -0.139959 0
M  V30 8803 C 821.004 -4.21411 0.748091 0
M  V30 8804 C 820.33 -5.34645 -0.0765132 0
M  V30 8805 C 821.63 -4.80726 2.04206 0
M  V30 8806 H 823.324 -2.63507 1.42143 0
M  V30 8807 H 820.87 -1.26668 0.68492 0
M  V30 8808 H 822.823 -4.18931 -0.455527 0
M  V30 8809 H 821.547 -3.0947 -1.04382 0
M  V30 8810 H 820.206 -3.51325 1.04721 0
M  V30 8811 H 819.854 -4.93339 -0.981109 0
M  V30 8812 H 819.554 -5.85342 0.514606 0
M  V30 8813 H 821.078 -6.09377 -0.386313 0
M  V30 8814 H 822.492 -5.44612 1.79083 0
M  V30 8815 H 820.889 -5.41737 2.5815 0
M  V30 8816 H 821.959 -4.01109 2.72469 0
M  V30 8817 N 823.302 -0.75937 -1.38099 0
M  V30 8818 C 824.53 -0.329111 -2.04266 0
M  V30 8819 C 824.945 1.04453 -1.57274 0
M  V30 8820 O 824.302 1.66449 -0.748397 0
M  V30 8821 C 824.353 -0.349192 -3.5981 0
M  V30 8822 O 824.074 -1.66863 -4.05078 0
M  V30 8823 C 825.575 0.0942106 -4.432 0
M  V30 8824 H 822.795 -0.13971 -0.656294 0
M  V30 8825 H 825.339 -1.02984 -1.76677 0
M  V30 8826 H 823.494 0.302846 -3.86214 0
M  V30 8827 H 823.908 -1.59877 -4.9954 0
M  V30 8828 H 825.382 0.0290004 -5.51992 0
M  V30 8829 H 825.859 1.1429 -4.24069 0
M  V30 8830 H 826.465 -0.529171 -4.21995 0
M  V30 8831 N 824.78 1.49157 -0.508906 0
M  V30 8832 C 825.71 2.32109 0.254469 0
M  V30 8833 C 826.691 1.40754 0.955111 0
M  V30 8834 O 827.876 1.69658 0.944983 0
M  V30 8835 C 825.006 3.21458 1.3146 0
M  V30 8836 C 823.96 4.2167 0.733368 0
M  V30 8837 C 823.286 5.00009 1.8946 0
M  V30 8838 C 824.586 5.21544 -0.280875 0
M  V30 8839 H 826.28 2.9618 -0.43795 0
M  V30 8840 H 823.826 1.4243 -0.212062 0
M  V30 8841 H 825.779 3.78305 1.85643 0
M  V30 8842 H 824.503 2.55346 2.03632 0
M  V30 8843 H 823.162 3.65979 0.213231 0
M  V30 8844 H 822.81 4.30338 2.60419 0
M  V30 8845 H 822.51 5.67821 1.51173 0
M  V30 8846 H 824.034 5.59702 2.44061 0
M  V30 8847 H 825.448 5.73039 0.173095 0
M  V30 8848 H 823.845 5.97291 -0.580006 0
M  V30 8849 H 824.915 4.69969 -1.19404 0
M  V30 8850 N 826.258 0.243083 1.55714 0
M  V30 8851 C 827.205 -0.658078 2.21219 0
M  V30 8852 C 828.175 -1.1742 1.17481 0
M  V30 8853 O 829.36 -1.22937 1.45915 0
M  V30 8854 C 826.5 -1.85104 2.91257 0
M  V30 8855 C 825.613 -1.3718 4.09641 0
M  V30 8856 C 824.748 -2.52403 4.67404 0
M  V30 8857 C 823.787 -2.01321 5.78045 0
M  V30 8858 N 822.924 -3.09896 6.30007 0
M  V30 8859 H 827.764 -0.0927854 2.97856 0
M  V30 8860 H 825.301 -0.0340375 1.47061 0
M  V30 8861 H 827.259 -2.55179 3.3006 0
M  V30 8862 H 825.889 -2.38887 2.17101 0
M  V30 8863 H 824.941 -0.565232 3.76177 0
M  V30 8864 H 826.253 -0.957409 4.89525 0
M  V30 8865 H 825.407 -3.30525 5.08761 0
M  V30 8866 H 824.146 -2.97142 3.86728 0
M  V30 8867 H 823.151 -1.21667 5.36169 0
M  V30 8868 H 824.376 -1.57556 6.6057 0
M  V30 8869 H 822.322 -3.54077 5.52237 0
M  V30 8870 H 822.239 -2.72776 7.05074 0
M  V30 8871 H 823.507 -3.8809 6.76023 0
M  V30 8872 N 827.736 -1.57571 -0.0300757 0
M  V30 8873 C 828.984 -1.88852 -0.719666 0
M  V30 8874 C 829.305 -0.840645 -1.75949 0
M  V30 8875 O 828.575 0.125854 -1.95495 0
M  V30 8876 H 827.155 -0.696965 -0.268792 0
M  V30 8877 H 829.817 -1.949 0.00373285 0
M  V30 8878 H 828.913 -2.87695 -1.20987 0
M  V30 8879 N 829.214 0.302327 -1.54673 0
M  V30 8880 C 830.439 1.06103 -1.78205 0
M  V30 8881 C 830.864 1.80204 -0.53926 0
M  V30 8882 O 830.222 1.73975 0.510142 0
M  V30 8883 C 830.27 2.01829 -2.98827 0
M  V30 8884 O 829.374 3.10108 -2.71858 0
M  V30 8885 H 828.715 0.30487 -0.589873 0
M  V30 8886 H 831.245 0.340153 -2.01753 0
M  V30 8887 H 831.255 2.44319 -3.2676 0
M  V30 8888 H 829.93 1.473 -3.88942 0
M  V30 8889 H 828.507 2.72142 -2.54937 0
M  V30 8890 N 830.692 1.47107 0.565454 0
M  V30 8891 C 831.622 1.61846 1.68309 0
M  V30 8892 C 832.603 0.468159 1.63531 0
M  V30 8893 O 833.788 0.696504 1.8128 0
M  V30 8894 C 830.918 1.62474 3.06952 0
M  V30 8895 C 829.872 2.76649 3.26572 0
M  V30 8896 C 829.198 2.62345 4.65917 0
M  V30 8897 C 830.498 4.18319 3.12741 0
M  V30 8898 H 832.192 2.55407 1.5623 0
M  V30 8899 H 829.738 1.22916 0.750179 0
M  V30 8900 H 831.691 1.71378 3.84977 0
M  V30 8901 H 830.415 0.654692 3.19971 0
M  V30 8902 H 829.074 2.67242 2.50952 0
M  V30 8903 H 828.722 1.63386 4.75725 0
M  V30 8904 H 828.422 3.38936 4.79996 0
M  V30 8905 H 829.946 2.73165 5.46089 0
M  V30 8906 H 831.36 4.28745 3.80593 0
M  V30 8907 H 829.757 4.95632 3.38333 0
M  V30 8908 H 830.827 4.37263 2.09592 0
M  V30 8909 N 832.17 -0.811516 1.35101 0
M  V30 8910 C 833.117 -1.92308 1.27617 0
M  V30 8911 C 834.087 -1.6543 0.149091 0
M  V30 8912 O 835.272 -1.8789 0.331974 0
M  V30 8913 C 832.412 -3.28768 1.04908 0
M  V30 8914 C 831.525 -3.67865 2.26493 0
M  V30 8915 C 830.66 -4.9333 1.96974 0
M  V30 8916 C 829.699 -5.25041 3.1464 0
M  V30 8917 N 828.836 -6.41685 2.84929 0
M  V30 8918 H 833.676 -1.98041 2.22674 0
M  V30 8919 H 831.213 -0.968755 1.10696 0
M  V30 8920 H 833.171 -4.07426 0.897749 0
M  V30 8921 H 831.801 -3.22517 0.135151 0
M  V30 8922 H 830.853 -2.84507 2.52507 0
M  V30 8923 H 832.165 -3.87263 3.14371 0
M  V30 8924 H 831.319 -5.79803 1.78643 0
M  V30 8925 H 830.058 -4.75958 1.06374 0
M  V30 8926 H 829.063 -4.3706 3.33554 0
M  V30 8927 H 830.288 -5.44346 4.06035 0
M  V30 8928 H 828.234 -6.25747 1.96918 0
M  V30 8929 H 828.151 -6.6131 3.66341 0
M  V30 8930 H 829.419 -7.31198 2.70128 0
M  V30 8931 N 833.648 -1.19017 -1.03309 0
M  V30 8932 C 834.58 -0.881847 -2.11556 0
M  V30 8933 C 835.593 0.123711 -1.62329 0
M  V30 8934 O 836.782 -0.105141 -1.7819 0
M  V30 8935 C 833.882 -0.297634 -3.37591 0
M  V30 8936 C 833.055 -1.35072 -4.16022 0
M  V30 8937 C 832.114 -0.780812 -5.20375 0
M  V30 8938 O 831.14 -1.45745 -5.50224 0
M  V30 8939 N 832.342 0.417964 -5.78993 0
M  V30 8940 H 835.107 -1.81359 -2.38598 0
M  V30 8941 H 832.668 -1.0916 -1.19565 0
M  V30 8942 H 834.66 0.097374 -4.04583 0
M  V30 8943 H 833.23 0.538299 -3.0793 0
M  V30 8944 H 832.45 -1.92074 -3.4424 0
M  V30 8945 H 833.738 -2.06044 -4.65213 0
M  V30 8946 H 833.136 0.985281 -5.57054 0
M  V30 8947 H 831.693 0.754802 -6.47415 0
M  V30 8948 N 835.127 1.22348 -0.993418 0
M  V30 8949 C 836.543 1.43222 -0.704238 0
M  V30 8950 C 836.743 1.88009 0.724909 0
M  V30 8951 O 835.799 2.03429 1.49575 0
M  V30 8952 C 837.112 2.47328 -1.71025 0
M  V30 8953 C 838.66 2.61126 -1.72576 0
M  V30 8954 C 839.135 3.68453 -2.72041 0
M  V30 8955 N 840.626 3.75911 -2.70639 0
M  V30 8956 C 841.361 4.58551 -3.44266 0
M  V30 8957 N 840.857 5.45179 -4.27495 0
M  V30 8958 N 842.65 4.52866 -3.32969 0
M  V30 8959 H 834.801 0.915832 -1.91641 0
M  V30 8960 H 837.064 0.464283 -0.826526 0
M  V30 8961 H 836.77 2.21366 -2.73295 0
M  V30 8962 H 836.644 3.45939 -1.50353 0
M  V30 8963 H 839.031 2.86431 -0.710037 0
M  V30 8964 H 839.112 1.62787 -1.97317 0
M  V30 8965 H 838.756 3.43895 -3.73763 0
M  V30 8966 H 838.686 4.66362 -2.4457 0
M  V30 8967 H 841.177 3.14014 -2.10247 0
M  V30 8968 H 841.49 6.0526 -4.80499 0
M  V30 8969 H 839.835 5.44759 -4.31582 0
M  V30 8970 H 843.026 3.84215 -2.67389 0
M  V30 8971 H 843.199 5.17039 -3.90608 0
M  V30 8972 N 836.605 0.766683 1.37694 0
M  V30 8973 C 837.854 0.325425 1.99057 0
M  V30 8974 C 838.167 -1.10275 1.61551 0
M  V30 8975 O 839.373 -1.64513 2.1598 0
M  V30 8976 C 837.829 0.530886 3.55963 0
M  V30 8977 C 837.437 1.96899 4.02411 0
M  V30 8978 C 839.181 0.152997 4.24224 0
M  V30 8979 C 837.088 2.12232 5.52007 0
M  V30 8980 H 836.018 0.117929 0.744721 0
M  V30 8981 H 838.669 0.945091 1.5729 0
M  V30 8982 H 837.051 -0.158162 3.95684 0
M  V30 8983 H 838.225 2.69258 3.73948 0
M  V30 8984 H 836.54 2.303 3.46916 0
M  V30 8985 H 839.137 0.24614 5.34133 0
M  V30 8986 H 839.48 -0.896096 4.06541 0
M  V30 8987 H 840.013 0.794398 3.89787 0
M  V30 8988 H 836.752 3.15442 5.7461 0
M  V30 8989 H 836.272 1.4435 5.82171 0
M  V30 8990 H 837.951 1.9185 6.17902 0
M  V30 8991 N 838.083 -1.48885 0.516809 0
M  V30 8992 C 839.015 -2.27357 -0.290061 0
M  V30 8993 C 840.028 -1.34558 -0.916406 0
M  V30 8994 O 841.217 -1.59715 -0.797073 0
M  V30 8995 C 838.317 -3.07496 -1.42476 0
M  V30 8996 C 837.49 -4.27982 -0.902793 0
M  V30 8997 C 836.549 -4.90038 -1.91701 0
M  V30 8998 O 835.575 -5.49643 -1.47922 0
M  V30 8999 N 836.777 -4.811 -3.24843 0
M  V30 9000 H 839.542 -2.97244 0.382884 0
M  V30 9001 H 837.103 -1.58064 0.35032 0
M  V30 9002 H 839.095 -3.45882 -2.10113 0
M  V30 9003 H 837.665 -2.40115 -2.00159 0
M  V30 9004 H 836.885 -3.94167 -0.0508272 0
M  V30 9005 H 838.173 -5.06003 -0.532723 0
M  V30 9006 H 837.571 -4.33801 -3.63088 0
M  V30 9007 H 836.128 -5.23625 -3.8815 0
M  V30 9008 N 839.561 -0.251338 -1.55583 0
M  V30 9009 C 840.807 0.37272 -1.99346 0
M  V30 9010 C 841.14 1.57266 -1.13934 0
M  V30 9011 O 840.415 1.9343 -0.20377 0
M  V30 9012 C 840.698 0.778245 -3.5159 0
M  V30 9013 C 840.551 -0.427394 -4.47765 0
M  V30 9014 C 841.87 1.62358 -4.09057 0
M  V30 9015 H 838.989 0.134002 -0.724715 0
M  V30 9016 H 841.631 -0.353536 -1.86682 0
M  V30 9017 H 839.781 1.39704 -3.62512 0
M  V30 9018 H 841.453 -1.06586 -4.48818 0
M  V30 9019 H 839.696 -1.06972 -4.20404 0
M  V30 9020 H 840.367 -0.10025 -5.51909 0
M  V30 9021 H 842.843 1.1012 -4.01264 0
M  V30 9022 H 841.719 1.87617 -5.1584 0
M  V30 9023 H 841.98 2.59688 -3.57791 0
M  V30 9024 N 841.039 1.57585 0.0217189 0
M  V30 9025 C 841.972 2.02435 1.05334 0
M  V30 9026 C 842.95 0.91006 1.34747 0
M  V30 9027 O 844.134 1.17648 1.47279 0
M  V30 9028 C 841.261 2.40362 2.38629 0
M  V30 9029 C 840.307 3.62307 2.25025 0
M  V30 9030 S 841.14 5.11141 1.59673 0
M  V30 9031 C 842.296 5.52316 2.94444 0
M  V30 9032 H 842.529 2.89621 0.671354 0
M  V30 9033 H 840.062 1.52648 0.231925 0
M  V30 9034 H 842.02 2.62883 3.15282 0
M  V30 9035 H 840.681 1.53615 2.73973 0
M  V30 9036 H 839.874 3.86523 3.23443 0
M  V30 9037 H 839.476 3.39675 1.56515 0
M  V30 9038 H 841.768 5.53449 3.90768 0
M  V30 9039 H 842.711 6.52539 2.74952 0
M  V30 9040 H 843.119 4.79834 2.97355 0
M  V30 9041 N 842.517 -0.29412 1.54831 0
M  V30 9042 C 843.763 -1.02999 1.74697 0
M  V30 9043 C 844.096 -1.86687 0.534949 0
M  V30 9044 O 843.371 -1.88789 -0.467863 0
M  V30 9045 C 843.654 -1.93024 3.03996 0
M  V30 9046 C 843.507 -1.1247 4.35512 0
M  V30 9047 C 844.826 -2.92085 3.29203 0
M  V30 9048 H 841.945 -0.373039 0.635618 0
M  V30 9049 H 844.587 -0.304065 1.87551 0
M  V30 9050 H 842.737 -2.5492 2.93169 0
M  V30 9051 H 844.409 -0.528067 4.58268 0
M  V30 9052 H 842.652 -0.427574 4.31688 0
M  V30 9053 H 843.323 -1.78728 5.22265 0
M  V30 9054 H 845.799 -2.40319 3.39685 0
M  V30 9055 H 844.675 -3.52234 4.20978 0
M  V30 9056 H 844.936 -3.66107 2.47827 0
M  V30 9057 N 843.995 -1.47404 -0.557645 0
M  V30 9058 C 844.927 -1.55917 -1.67995 0
M  V30 9059 C 845.94 -0.445411 -1.56588 0
M  V30 9060 O 847.129 -0.714999 -1.63554 0
M  V30 9061 C 844.229 -1.44697 -3.06457 0
M  V30 9062 C 843.402 -2.70633 -3.43622 0
M  V30 9063 C 842.461 -2.53256 -4.61246 0
M  V30 9064 O 841.487 -3.27068 -4.65849 0
M  V30 9065 N 842.689 -1.61053 -5.57711 0
M  V30 9066 H 845.454 -2.52694 -1.61139 0
M  V30 9067 H 843.015 -1.43778 -0.744271 0
M  V30 9068 H 845.007 -1.30806 -3.82978 0
M  V30 9069 H 843.577 -0.560039 -3.07542 0
M  V30 9070 H 842.797 -2.99288 -2.56555 0
M  V30 9071 H 844.085 -3.5424 -3.65228 0
M  V30 9072 H 843.483 -1.00235 -5.56749 0
M  V30 9073 H 842.04 -1.53115 -6.33561 0
M  V30 9074 N 845.473 0.80434 -1.35529 0
M  V30 9075 C 846.884 1.37849 -1.25915 0
M  V30 9076 C 847.235 1.95905 0.107495 0
M  V30 9077 O 846.36 1.91462 1.00852 0
M  V30 9078 C 846.955 2.50608 -2.27994 0
M  V30 9079 C 845.514 3.03879 -2.22114 0
M  V30 9080 C 844.661 1.76856 -2.13582 0
M  V30 9081 H 847.612 0.607192 -1.46625 0
M  V30 9082 H 847.633 3.29221 -1.90772 0
M  V30 9083 H 847.145 2.08323 -3.27449 0
M  V30 9084 H 845.246 3.50622 -1.26077 0
M  V30 9085 H 845.359 3.61707 -3.14173 0
M  V30 9086 H 843.723 1.98498 -1.59595 0
M  V30 9087 H 844.506 1.36721 -3.14901 0
M  V30 9088 N 846.951 1.19563 1.02676 0
M  V30 9089 C 848.176 1.02556 1.80269 0
M  V30 9090 C 848.601 -0.421056 1.83327 0
M  V30 9091 O 847.959 -1.30279 1.26084 0
M  V30 9092 C 848.007 1.60165 3.23078 0
M  V30 9093 O 847.111 0.832404 4.03912 0
M  V30 9094 H 846.452 0.362354 0.556413 0
M  V30 9095 H 848.982 1.58633 1.29216 0
M  V30 9096 H 848.992 1.6347 3.7382 0
M  V30 9097 H 847.667 2.65454 3.20167 0
M  V30 9098 H 846.244 0.872768 3.62543 0
M  V30 9099 N 848.429 -1.21819 0.999893 0
M  V30 9100 C 849.339 -2.27691 0.565159 0
M  V30 9101 C 850.355 -1.69587 -0.389398 0
M  V30 9102 O 851.531 -1.99786 -0.254499 0
M  V30 9103 C 848.596 -3.46537 -0.106432 0
M  V30 9104 C 847.657 -4.19932 0.891964 0
M  V30 9105 C 846.89 -5.33103 0.252327 0
M  V30 9106 O 847.113 -5.62398 -0.952103 0
M  V30 9107 O 846.047 -5.94184 0.960698 0
M  V30 9108 H 849.873 -2.67059 1.44613 0
M  V30 9109 H 847.458 -1.28119 0.768499 0
M  V30 9110 H 849.34 -4.18631 -0.482301 0
M  V30 9111 H 848.015 -3.09079 -0.961865 0
M  V30 9112 H 846.922 -3.5008 1.3189 0
M  V30 9113 H 848.255 -4.61287 1.71682 0
M  V30 9114 N 849.908 -0.773975 -1.37286 0
M  V30 9115 C 851.185 -0.263942 -1.93811 0
M  V30 9116 C 851.565 1.24138 -1.70743 0
M  V30 9117 O 850.913 2.02557 -1.05749 0
M  V30 9118 C 851.123 -0.639753 -3.43086 0
M  V30 9119 C 852.471 -0.610796 -4.20184 0
M  V30 9120 O 853.495 -0.579278 -3.51458 0
M  V30 9121 O 852.354 -0.639862 -5.42741 0
M  V30 9122 H 849.448 -0.0614331 -0.824715 0
M  V30 9123 H 851.994 -0.855477 -1.46559 0
M  V30 9124 H 850.766 -1.67856 -3.53469 0
M  V30 9125 H 850.389 -0.0212827 -3.97594 0
M  V30 9126 N 851.386 1.48609 -0.524698 0
M  V30 9127 C 852.635 2.01696 0.0132937 0
M  V30 9128 C 852.948 1.40751 1.35825 0
M  V30 9129 O 854.154 1.85304 1.9843 0
M  V30 9130 C 852.61 3.59824 0.0741012 0
M  V30 9131 C 852.218 4.2975 -1.26564 0
M  V30 9132 C 853.962 4.20774 0.5612 0
M  V30 9133 C 851.869 5.79798 -1.16571 0
M  V30 9134 H 850.799 0.753949 0.00873931 0
M  V30 9135 H 853.45 1.70922 -0.667684 0
M  V30 9136 H 851.832 3.87416 0.820043 0
M  V30 9137 H 853.006 4.13836 -2.02674 0
M  V30 9138 H 851.321 3.80649 -1.68806 0
M  V30 9139 H 853.918 5.30687 0.653853 0
M  V30 9140 H 854.261 3.85734 1.56573 0
M  V30 9141 H 854.794 3.97591 -0.128901 0
M  V30 9142 H 851.533 6.19403 -2.14523 0
M  V30 9143 H 851.053 5.9814 -0.445894 0
M  V30 9144 H 852.732 6.41337 -0.854186 0
M  V30 9145 N 852.864 0.259585 1.55447 0
M  V30 9146 C 854.11 -0.362143 1.9954 0
M  V30 9147 C 854.443 -1.5666 1.14767 0
M  V30 9148 O 853.718 -1.93319 0.214025 0
M  V30 9149 C 854.001 -0.759588 3.51998 0
M  V30 9150 C 853.854 0.451134 4.47532 0
M  V30 9151 C 855.173 -1.60186 4.09913 0
M  V30 9152 H 852.292 -0.130157 0.725416 0
M  V30 9153 H 854.934 0.363431 1.86492 0
M  V30 9154 H 853.084 -1.3778 3.63248 0
M  V30 9155 H 854.756 1.08965 4.48246 0
M  V30 9156 H 852.999 1.092 4.19831 0
M  V30 9157 H 853.67 0.129518 5.51848 0
M  V30 9158 H 856.146 -1.0799 4.01842 0
M  V30 9159 H 855.022 -1.84879 5.16828 0
M  V30 9160 H 855.283 -2.57787 3.59163 0
M  V30 9161 N 854.342 -1.57594 -0.0133615 0
M  V30 9162 C 855.758 -1.5527 -0.369255 0
M  V30 9163 C 855.958 -0.987751 -1.7563 0
M  V30 9164 O 855.014 -0.615683 -2.44879 0
M  V30 9165 C 856.327 -2.99602 -0.25672 0
M  V30 9166 C 857.875 -3.11227 -0.332647 0
M  V30 9167 C 858.35 -4.57321 -0.249387 0
M  V30 9168 N 859.841 -4.62177 -0.3077 0
M  V30 9169 C 860.576 -5.72781 -0.26641 0
M  V30 9170 N 860.072 -6.92575 -0.176494 0
M  V30 9171 N 861.865 -5.61204 -0.317295 0
M  V30 9172 H 854.016 -1.92662 0.894154 0
M  V30 9173 H 856.279 -0.884352 0.341505 0
M  V30 9174 H 855.985 -3.44723 0.697072 0
M  V30 9175 H 855.859 -3.6246 -1.04415 0
M  V30 9176 H 858.246 -2.66045 -1.27688 0
M  V30 9177 H 858.327 -2.51171 0.484412 0
M  V30 9178 H 857.971 -5.03174 0.691242 0
M  V30 9179 H 857.901 -5.15306 -1.08476 0
M  V30 9180 H 860.392 -3.75994 -0.379069 0
M  V30 9181 H 860.705 -7.72653 -0.150518 0
M  V30 9182 H 859.05 -6.94854 -0.142314 0
M  V30 9183 H 862.241 -4.66509 -0.385643 0
M  V30 9184 H 862.414 -6.47388 -0.28165 0
M  V30 9185 N 855.82 0.285905 -1.54985 0
M  V30 9186 C 857.231 0.857869 -1.65824 0
M  V30 9187 C 857.582 1.87531 -0.576763 0
M  V30 9188 O 856.707 2.14528 0.284016 0
M  V30 9189 C 857.302 1.56277 -3.00604 0
M  V30 9190 C 855.861 2.08294 -3.13513 0
M  V30 9191 C 855.008 0.920633 -2.61571 0
M  V30 9192 H 857.959 0.0625463 -1.58577 0
M  V30 9193 H 857.98 2.42912 -2.92872 0
M  V30 9194 H 857.492 0.822017 -3.79295 0
M  V30 9195 H 855.593 2.8537 -2.39572 0
M  V30 9196 H 855.706 2.3071 -4.19892 0
M  V30 9197 H 854.07 1.31043 -2.18403 0
M  V30 9198 H 854.853 0.193594 -3.42754 0
M  V30 9199 N 857.298 1.47698 0.54982 0
M  V30 9200 C 858.208 1.63386 1.68351 0
M  V30 9201 C 859.224 0.516583 1.66155 0
M  V30 9202 O 860.4 0.785088 1.85468 0
M  V30 9203 C 857.465 1.6513 3.04849 0
M  V30 9204 C 856.526 2.88338 3.18056 0
M  V30 9205 C 855.759 2.8999 4.48042 0
M  V30 9206 O 855.982 2.00633 5.3395 0
M  V30 9207 O 854.916 3.81938 4.65196 0
M  V30 9208 H 858.742 2.59329 1.58057 0
M  V30 9209 H 856.327 1.30869 0.72067 0
M  V30 9210 H 858.209 1.68913 3.86065 0
M  V30 9211 H 856.884 0.723555 3.1551 0
M  V30 9212 H 855.791 2.90097 2.36209 0
M  V30 9213 H 857.124 3.80431 3.12302 0
M  V30 9214 N 858.776 -0.797141 1.35954 0
M  V30 9215 C 859.724 -1.93084 1.29697 0
M  V30 9216 C 860.718 -1.68329 0.190152 0
M  V30 9217 O 861.924 -1.7643 0.3567 0
M  V30 9218 H 858.299 -0.634531 0.403577 0
M  V30 9219 H 860.27 -1.95481 2.25455 0
M  V30 9220 C 859.019 -3.29996 1.09536 0
M  V30 9221 H 858.342 -3.49607 1.93946 0
M  V30 9222 H 859.782 -4.09696 1.09202 0
M  V30 9223 C 858.241 -3.36304 -0.200381 0
M  V30 9224 O 858.771 -3.83579 -1.19291 0
M  V30 9225 N 856.977 -2.89587 -0.242406 0
M  V30 9226 H 856.524 -2.51307 0.565897 0
M  V30 9227 H 856.482 -2.94189 -1.10906 0
M  V30 9228 N 860.254 -1.20106 -1.0204 0
M  V30 9229 C 861.502 -1.0069 -1.75231 0
M  V30 9230 C 861.823 0.462491 -1.89436 0
M  V30 9231 O 861.093 1.33455 -1.4341 0
M  V30 9232 H 859.673 -0.369576 -0.649171 0
M  V30 9233 H 862.335 -1.51149 -1.23044 0
M  V30 9234 H 861.431 -1.46205 -2.75736 0
M  V30 9235 N 861.732 1.21287 -1.00634 0
M  V30 9236 C 863.143 1.72136 -0.722914 0
M  V30 9237 C 863.494 1.8091 0.759338 0
M  V30 9238 O 862.619 1.46458 1.59308 0
M  V30 9239 C 863.214 3.12633 -1.30561 0
M  V30 9240 C 861.773 3.60833 -1.07127 0
M  V30 9241 C 860.92 2.38326 -1.4176 0
M  V30 9242 H 863.871 1.06445 -1.17708 0
M  V30 9243 H 863.892 3.74174 -0.690937 0
M  V30 9244 H 863.404 3.06215 -2.38441 0
M  V30 9245 H 861.505 3.72599 -0.00968671 0
M  V30 9246 H 861.618 4.46226 -1.74411 0
M  V30 9247 H 859.982 2.40575 -0.836412 0
M  V30 9248 H 860.765 2.34558 -2.50674 0
M  V30 9249 N 863.21 0.781244 1.36873 0
M  V30 9250 C 864.12 0.174981 2.33947 0
M  V30 9251 C 865.136 -0.668512 1.60645 0
M  V30 9252 O 866.312 -0.586213 1.9268 0
M  V30 9253 C 863.377 -0.686557 3.39834 0
M  V30 9254 C 862.438 0.174489 4.28945 0
M  V30 9255 C 861.671 -0.646024 5.29776 0
M  V30 9256 O 861.894 -1.88254 5.38439 0
M  V30 9257 O 860.828 -0.0502214 6.01879 0
M  V30 9258 H 864.654 0.977382 2.87543 0
M  V30 9259 H 862.239 0.542559 1.392 0
M  V30 9260 H 864.121 -1.1781 4.04597 0
M  V30 9261 H 862.796 -1.46699 2.8855 0
M  V30 9262 H 861.703 0.712604 3.6725 0
M  V30 9263 H 863.036 0.918232 4.83559 0
M  V30 9264 N 864.689 -1.48329 0.532571 0
M  V30 9265 C 865.621 -2.27652 -0.265931 0
M  V30 9266 C 866.634 -1.35522 -0.902083 0
M  V30 9267 O 867.823 -1.60552 -0.780088 0
M  V30 9268 C 864.923 -3.0899 -1.39207 0
M  V30 9269 C 864.096 -4.28915 -0.857349 0
M  V30 9270 C 863.155 -4.92044 -1.86493 0
M  V30 9271 O 862.181 -5.51181 -1.42084 0
M  V30 9272 N 863.383 -4.84518 -3.19723 0
M  V30 9273 H 866.148 -2.96821 0.414389 0
M  V30 9274 H 863.709 -1.57684 0.367066 0
M  V30 9275 H 865.701 -3.48091 -2.06433 0
M  V30 9276 H 864.271 -2.42224 -1.97601 0
M  V30 9277 H 863.491 -3.94199 -0.00901765 0
M  V30 9278 H 864.779 -5.0654 -0.479025 0
M  V30 9279 H 864.177 -4.37628 -3.58467 0
M  V30 9280 H 862.734 -5.27712 -3.82575 0
M  V30 9281 N 866.167 -0.267825 -1.55308 0
M  V30 9282 C 867.578 0.231344 -1.85261 0
M  V30 9283 C 867.929 1.56006 -1.18982 0
M  V30 9284 O 867.054 2.1111 -0.475554 0
M  V30 9285 C 867.649 0.426537 -3.36104 0
M  V30 9286 C 866.208 0.869945 -3.66209 0
M  V30 9287 C 865.355 -0.0409522 -2.7727 0
M  V30 9288 H 868.306 -0.489821 -1.50952 0
M  V30 9289 H 868.327 1.26616 -3.58816 0
M  V30 9290 H 867.839 -0.540678 -3.84315 0
M  V30 9291 H 865.94 1.84889 -3.23492 0
M  V30 9292 H 866.053 0.712316 -4.73775 0
M  V30 9293 H 864.417 0.474097 -2.50249 0
M  V30 9294 H 865.2 -1.00392 -3.28293 0
M  V30 9295 N 867.645 1.57599 0.00500368 0
M  V30 9296 C 868.577 2.04949 1.02609 0
M  V30 9297 C 869.59 0.966507 1.31006 0
M  V30 9298 O 870.779 1.2434 1.2807 0
M  V30 9299 C 867.879 2.43023 2.36206 0
M  V30 9300 C 867.052 3.73993 2.26821 0
M  V30 9301 C 866.111 3.9899 3.43065 0
M  V30 9302 O 865.137 4.69725 3.21477 0
M  V30 9303 N 866.339 3.46496 4.65748 0
M  V30 9304 H 869.104 2.93167 0.622336 0
M  V30 9305 H 866.665 1.60752 0.192488 0
M  V30 9306 H 868.657 2.56863 3.12735 0
M  V30 9307 H 867.227 1.60349 2.68341 0
M  V30 9308 H 866.447 3.70277 1.35235 0
M  V30 9309 H 867.735 4.59865 2.17719 0
M  V30 9310 H 867.133 2.89206 4.86186 0
M  V30 9311 H 865.69 3.65675 5.3956 0
M  V30 9312 N 869.123 -0.277682 1.55134 0
M  V30 9313 C 870.086 -1.32635 1.86924 0
M  V30 9314 C 871.086 -1.42578 0.743507 0
M  V30 9315 O 872.276 -1.4181 1.01171 0
M  V30 9316 C 869.408 -2.70832 2.07034 0
M  V30 9317 H 870.601 -1.0568 2.80663 0
M  V30 9318 H 868.154 -0.515517 1.47554 0
M  V30 9319 H 868.889 -3.02974 1.15661 0
M  V30 9320 H 868.674 -2.65001 2.88993 0
M  V30 9321 H 870.164 -3.46611 2.32918 0
M  V30 9322 N 870.601 -1.47988 -0.541979 0
M  V30 9323 C 871.849 -1.55086 -1.29587 0
M  V30 9324 C 872.17 -0.221304 -1.9374 0
M  V30 9325 O 871.44 0.756128 -1.80719 0
M  V30 9326 H 870.02 -0.571307 -0.481266 0
M  V30 9327 H 872.682 -1.8438 -0.631675 0
M  V30 9328 H 871.778 -2.32556 -2.08144 0
M  V30 9329 N 872.079 0.78992 -1.36375 0
M  V30 9330 C 873.304 1.58389 -1.33895 0
M  V30 9331 C 873.729 1.8794 0.0774934 0
M  V30 9332 O 873.087 1.4785 1.0493 0
M  V30 9333 C 873.135 2.88201 -2.16732 0
M  V30 9334 O 872.239 3.81778 -1.55946 0
M  V30 9335 H 871.58 0.480471 -0.458305 0
M  V30 9336 H 874.11 0.979119 -1.79651 0
M  V30 9337 H 874.12 3.37475 -2.29292 0
M  V30 9338 H 872.795 2.66019 -3.19698 0
M  V30 9339 H 871.372 3.40371 -1.52323 0
M  V30 9340 N 873.557 1.20646 1.01402 0
M  V30 9341 C 874.782 1.04462 1.79172 0
M  V30 9342 C 875.207 -0.401588 1.83763 0
M  V30 9343 O 874.565 -1.28934 1.27459 0
M  V30 9344 C 874.613 1.63583 3.21361 0
M  V30 9345 O 873.717 0.875198 4.03006 0
M  V30 9346 H 873.058 0.368235 0.552539 0
M  V30 9347 H 875.588 1.59994 1.27526 0
M  V30 9348 H 875.598 1.67426 3.72065 0
M  V30 9349 H 874.273 2.68835 3.17334 0
M  V30 9350 H 872.85 0.911172 3.61597 0
M  V30 9351 N 875.035 -1.20752 1.01276 0
M  V30 9352 C 876.263 -1.94006 0.718976 0
M  V30 9353 C 876.678 -1.74544 -0.719711 0
M  V30 9354 O 876.035 -1.05697 -1.48776 0
M  V30 9355 C 876.086 -3.46208 1.04031 0
M  V30 9356 O 875.807 -3.65031 2.42248 0
M  V30 9357 C 877.308 -4.36614 0.767032 0
M  V30 9358 H 874.528 -0.616743 0.264327 0
M  V30 9359 H 877.072 -1.53352 1.3529 0
M  V30 9360 H 875.227 -3.84756 0.451852 0
M  V30 9361 H 875.641 -4.59054 2.53712 0
M  V30 9362 H 877.115 -5.42076 1.04198 0
M  V30 9363 H 877.592 -4.38182 -0.298851 0
M  V30 9364 H 878.198 -4.03723 1.33746 0
M  V30 9365 N 876.513 -0.788492 -1.36457 0
M  V30 9366 C 877.738 -0.371224 -2.04051 0
M  V30 9367 C 878.163 1.004 -1.59064 0
M  V30 9368 O 877.521 1.64663 -0.758679 0
M  V30 9369 C 877.569 -0.442275 -3.57877 0
M  V30 9370 O 876.673 0.55113 -4.08701 0
M  V30 9371 H 876.014 -0.157808 -0.644975 0
M  V30 9372 H 878.544 -1.06935 -1.74431 0
M  V30 9373 H 878.554 -0.305548 -4.06854 0
M  V30 9374 H 877.229 -1.44547 -3.89973 0
M  V30 9375 H 875.806 0.37614 -3.70998 0
M  V30 9376 N 877.991 1.48044 -0.54043 0
M  V30 9377 C 878.938 2.29781 0.216597 0
M  V30 9378 C 879.908 1.38021 0.924094 0
M  V30 9379 O 881.093 1.66985 0.923078 0
M  V30 9380 C 878.233 3.21623 1.2511 0
M  V30 9381 C 877.346 4.28467 0.551384 0
M  V30 9382 C 876.481 5.07477 1.56972 0
M  V30 9383 C 875.52 6.06113 0.854048 0
M  V30 9384 N 874.657 6.78143 1.81842 0
M  V30 9385 H 879.497 2.94001 -0.486578 0
M  V30 9386 H 877.034 1.44929 -0.251789 0
M  V30 9387 H 878.992 3.73279 1.8633 0
M  V30 9388 H 877.622 2.59305 1.92252 0
M  V30 9389 H 876.674 3.79997 -0.174982 0
M  V30 9390 H 877.986 4.98799 -0.0100542 0
M  V30 9391 H 877.14 5.63199 2.25592 0
M  V30 9392 H 875.879 4.37008 2.16507 0
M  V30 9393 H 874.884 5.49585 0.153838 0
M  V30 9394 H 876.109 6.78584 0.264675 0
M  V30 9395 H 874.055 6.10417 2.40265 0
M  V30 9396 H 873.972 7.44587 1.3087 0
M  V30 9397 H 875.24 7.38448 2.49628 0
M  V30 9398 N 879.47 0.276058 1.55163 0
M  V30 9399 C 880.38 -0.621066 2.2623 0
M  V30 9400 C 881.396 -1.16931 1.28853 0
M  V30 9401 O 882.572 -1.1994 1.61791 0
M  V30 9402 C 879.637 -1.78824 2.97023 0
M  V30 9403 C 878.698 -1.27657 4.09881 0
M  V30 9404 C 877.931 -2.38812 4.77289 0
M  V30 9405 O 878.154 -3.58188 4.43912 0
M  V30 9406 O 877.088 -2.06915 5.65217 0
M  V30 9407 H 880.914 -0.0453346 3.03666 0
M  V30 9408 H 878.499 0.0434275 1.49337 0
M  V30 9409 H 880.381 -2.46877 3.41511 0
M  V30 9410 H 879.056 -2.35104 2.22503 0
M  V30 9411 H 877.963 -0.56248 3.69847 0
M  V30 9412 H 879.296 -0.759509 4.86305 0
M  V30 9413 N 880.948 -1.576 0.00335426 0
M  V30 9414 C 881.911 -2.07576 -0.971838 0
M  V30 9415 C 882.911 -0.985796 -1.27038 0
M  V30 9416 O 884.101 -1.24833 -1.21501 0
M  V30 9417 C 881.233 -2.52003 -2.29581 0
M  V30 9418 H 882.426 -2.95008 -0.539481 0
M  V30 9419 H 879.979 -1.54381 -0.244186 0
M  V30 9420 H 880.714 -1.67825 -2.77498 0
M  V30 9421 H 880.499 -3.31609 -2.09231 0
M  V30 9422 H 881.989 -2.90983 -2.99531 0
M  V30 9423 N 882.426 0.269451 -1.5528 0
M  V30 9424 C 883.656 1.01724 -1.79821 0
M  V30 9425 C 884.064 1.80298 -0.573532 0
M  V30 9426 O 883.407 1.77666 0.466963 0
M  V30 9427 C 883.469 2.02043 -2.97353 0
M  V30 9428 C 883.133 1.42375 -4.34256 0
M  V30 9429 C 884.13 0.837611 -5.13108 0
M  V30 9430 C 881.815 1.44988 -4.8092 0
M  V30 9431 C 883.809 0.285557 -6.3676 0
M  V30 9432 C 881.496 0.893969 -6.04526 0
M  V30 9433 C 882.494 0.312809 -6.82283 0
M  V30 9434 O 882.182 -0.234582 -8.03558 0
M  V30 9435 H 881.914 0.30604 -0.602757 0
M  V30 9436 H 884.468 0.30454 -2.0313 0
M  V30 9437 H 882.698 2.77082 -2.69745 0
M  V30 9438 H 884.387 2.6298 -3.09187 0
M  V30 9439 H 885.153 0.81009 -4.78187 0
M  V30 9440 H 881.032 1.89162 -4.20403 0
M  V30 9441 H 884.576 -0.168696 -6.97396 0
M  V30 9442 H 880.473 0.918742 -6.38928 0
M  V30 9443 H 881.241 -0.124282 -8.18406 0
M  V30 9444 N 883.904 1.48273 0.534124 0
M  V30 9445 C 885.153 1.55334 1.28663 0
M  V30 9446 C 885.466 0.230345 1.94239 0
M  V30 9447 O 886.672 0.179161 2.70908 0
M  V30 9448 C 885.128 2.73927 2.33435 0
M  V30 9449 C 884.736 4.12852 1.73947 0
M  V30 9450 C 886.48 2.90298 3.09722 0
M  V30 9451 C 884.387 5.22711 2.76636 0
M  V30 9452 H 883.317 0.578262 0.483869 0
M  V30 9453 H 885.968 1.74598 0.564602 0
M  V30 9454 H 884.35 2.48089 3.08655 0
M  V30 9455 H 885.524 4.48691 1.04944 0
M  V30 9456 H 883.839 4.01562 1.10167 0
M  V30 9457 H 886.436 3.69542 3.86449 0
M  V30 9458 H 886.779 1.99598 3.6533 0
M  V30 9459 H 887.312 3.16017 2.41616 0
M  V30 9460 H 884.051 6.15362 2.25852 0
M  V30 9461 H 883.571 4.91364 3.43979 0
M  V30 9462 H 885.25 5.50648 3.39699 0
M  V30 9463 O 885.421 -0.679058 1.4653 0
M  V30 9464 H 886.112 -1.33158 1.40672 0
M  V30 END ATOM
M  V30 BEGIN BOND
M  V30 END BOND
M  V30 END CTAB
M  END
$$$$
