drugbank_target|P42330 Aldo-keto reductase family 1 member C3 (DB00157; DB00328; DB01536; DB01698; DB02056; DB02266; DB03461; DB07700)
 OpenBabel12092119353D

  0  0  0     0  0            999 V3000
M  V30 BEGIN CTAB
M  V30 COUNTS 5186 5246 0 0 0
M  V30 BEGIN ATOM
M  V30 1 H -0.908 1.98254 -0.117106 0
M  V30 2 N 0 1.576 0 0
M  V30 3 C 0.933 2.03868 1.02534 0
M  V30 4 C 1.911 0.928543 1.3348 0
M  V30 5 O 3.095 1.19667 1.45644 0
M  V30 6 C 0.222 2.43627 2.35294 0
M  V30 7 C -0.732 3.65373 2.2001 0
M  V30 8 S 0.101 5.13292 1.52614 0
M  V30 9 C 1.257 5.56322 2.86805 0
M  V30 10 H 1.49 2.90518 0.631377 0
M  V30 11 H -0.977 1.52953 0.210867 0
M  V30 12 H 0.981 2.67203 3.11629 0
M  V30 13 H -0.358 1.57376 2.7183 0
M  V30 14 H -1.165 3.90944 3.18086 0
M  V30 15 H -1.563 3.418 1.51819 0
M  V30 16 H 0.729 5.58782 3.83104 0
M  V30 17 H 1.672 6.56266 2.65933 0
M  V30 18 H 2.08 4.83886 2.90714 0
M  V30 19 N 1.4781 -0.272755 1.55222 0
M  V30 20 C 2.7551 -1.02562 1.66555 0
M  V30 21 C 3.1351 -2.04282 0.532189 0
M  V30 22 O 2.4831 -2.23662 -0.467717 0
M  V30 23 C 2.6931 -1.6822 3.05782 0
M  V30 24 C 4.0411 -2.19373 3.63539 0
M  V30 25 O 5.0651 -1.78206 3.08417 0
M  V30 26 O 3.9241 -2.94883 4.60115 0
M  V30 27 H 1.0181 -0.475755 0.676451 0
M  V30 28 H 3.5641 -0.268593 1.67561 0
M  V30 29 H 2.3361 -0.945112 3.79715 0
M  V30 30 H 1.9591 -2.50609 3.08676 0
M  V30 31 N 2.9562 -1.48159 -0.537278 0
M  V30 32 C 4.1812 -1.59707 -1.32319 0
M  V30 33 C 4.6062 -0.254859 -1.86365 0
M  V30 34 O 3.9642 0.772378 -1.64024 0
M  V30 35 C 4.0122 -2.6412 -2.45505 0
M  V30 36 O 3.1162 -2.20774 -3.48328 0
M  V30 37 H 2.4572 -0.535791 -0.392204 0
M  V30 38 H 4.9872 -1.94092 -0.647268 0
M  V30 39 H 4.9972 -2.85166 -2.91795 0
M  V30 40 H 3.6722 -3.61567 -2.05528 0
M  V30 41 H 2.2492 -2.09911 -3.08207 0
M  V30 42 N 4.4343 0.785586 -1.36625 0
M  V30 43 C 5.3813 1.89838 -1.31264 0
M  V30 44 C 6.3513 1.65115 -0.180633 0
M  V30 45 O 7.5363 1.87222 -0.36777 0
M  V30 46 C 4.6763 3.26706 -1.11163 0
M  V30 47 C 3.7893 3.63476 -2.33472 0
M  V30 48 C 2.9243 4.89481 -2.06353 0
M  V30 49 C 1.9633 5.18941 -3.24602 0
M  V30 50 N 1.1003 6.36131 -2.97123 0
M  V30 51 H 5.9403 1.93756 -2.26413 0
M  V30 52 H 3.4773 0.947454 -1.12524 0
M  V30 53 H 5.4353 4.05639 -0.975337 0
M  V30 54 H 4.0653 3.222 -0.196674 0
M  V30 55 H 3.1173 2.79636 -2.57891 0
M  V30 56 H 4.4293 3.81193 -3.21704 0
M  V30 57 H 3.5833 5.76288 -1.89675 0
M  V30 58 H 2.3223 4.73841 -1.15437 0
M  V30 59 H 1.3273 4.30615 -3.41834 0
M  V30 60 H 2.5523 5.36498 -4.16349 0
M  V30 61 H 0.4983 6.21875 -2.08823 0
M  V30 62 H 0.4153 6.54198 -3.78894 0
M  V30 63 H 1.6833 7.2591 -2.84033 0
M  V30 64 N 5.9124 1.20967 1.01018 0
M  V30 65 C 6.8624 0.93182 2.08089 0
M  V30 66 C 7.8464 -0.110898 1.60517 0
M  V30 67 O 9.0384 0.0973392 1.76732 0
M  V30 68 C 6.1674 0.492719 3.39746 0
M  V30 69 C 5.2534 1.56922 3.94 0
M  V30 70 N 5.6444 2.79312 4.21686 0
M  V30 71 C 3.9424 1.43688 4.2222 0
M  V30 72 C 4.6434 3.48797 4.65527 0
M  V30 73 N 3.6194 2.76224 4.68189 0
M  V30 74 H 7.4214 1.86175 2.27412 0
M  V30 75 H 4.9354 1.10463 1.19045 0
M  V30 76 H 6.9324 0.275044 4.15992 0
M  V30 77 H 5.5924 -0.430509 3.21833 0
M  V30 78 H 6.6034 3.15903 4.10397 0
M  V30 79 H 3.2804 0.578548 4.13472 0
M  V30 80 H 4.6704 4.53561 4.95714 0
M  V30 81 N 7.3905 -1.2043 1.01659 0
M  V30 82 C 8.3225 -2.22626 0.544988 0
M  V30 83 C 9.3355 -1.58479 -0.372609 0
M  V30 84 O 10.5245 -1.77679 -0.170958 0
M  V30 85 C 7.6245 -3.38141 -0.22663 0
M  V30 86 C 6.7975 -4.31877 0.692876 0
M  V30 87 C 5.8565 -5.26191 -0.0311616 0
M  V30 88 O 4.8825 -5.6612 0.591343 0
M  V30 89 N 6.0845 -5.65618 -1.30601 0
M  V30 90 H 8.8495 -2.63716 1.42388 0
M  V30 91 H 6.4105 -1.34971 0.894116 0
M  V30 92 H 8.4025 -3.98239 -0.72024 0
M  V30 93 H 6.9725 -2.95943 -1.00681 0
M  V30 94 H 6.1925 -3.69746 1.36679 0
M  V30 95 H 7.4805 -4.91426 1.31824 0
M  V30 96 H 6.8785 -5.3519 -1.83269 0
M  V30 97 H 5.4355 -6.28025 -1.74435 0
M  V30 98 N 8.8686 -0.792821 -1.36206 0
M  V30 99 C 10.1086 -0.372238 -2.00982 0
M  V30 100 C 10.4726 1.03749 -1.61555 0
M  V30 101 O 11.6736 1.55934 -2.18948 0
M  V30 102 C 9.9446 -0.534566 -3.5338 0
M  V30 103 S 11.5036 -0.202365 -4.38333 0
M  V30 104 H 8.3216 -0.142044 -0.696667 0
M  V30 105 H 10.9236 -1.03206 -1.66039 0
M  V30 106 H 9.6276 -1.5608 -3.79562 0
M  V30 107 H 9.1586 0.141065 -3.93147 0
M  V30 108 H 11.1736 0.994869 -4.86124 0
M  V30 109 N 10.3467 1.47872 -0.545128 0
M  V30 110 C 11.5927 2.02793 -0.0166104 0
M  V30 111 C 11.9257 1.41987 1.32489 0
M  V30 112 O 11.2007 0.571045 1.85928 0
M  V30 113 C 11.4837 3.59989 0.0893294 0
M  V30 114 C 11.3367 4.3125 -1.27841 0
M  V30 115 C 12.6557 4.32606 0.808724 0
M  V30 116 H 9.7747 0.736962 -0.00751035 0
M  V30 117 H 12.4167 1.76433 -0.705085 0
M  V30 118 H 10.5667 3.82579 0.675681 0
M  V30 119 H 12.2387 4.20035 -1.90704 0
M  V30 120 H 10.4817 3.92076 -1.85632 0
M  V30 121 H 11.1527 5.39736 -1.15713 0
M  V30 122 H 13.6287 4.14936 0.310992 0
M  V30 123 H 12.5047 5.42251 0.851782 0
M  V30 124 H 12.7657 4.00963 1.86229 0
M  V30 125 N 11.8248 0.280983 1.55075 0
M  V30 126 C 12.7718 -0.603937 2.22758 0
M  V30 127 C 13.7418 -1.1452 1.20309 0
M  V30 128 O 14.9268 -1.19343 1.48869 0
M  V30 129 C 12.0668 -1.77947 2.95684 0
M  V30 130 C 11.1798 -1.2715 4.12864 0
M  V30 131 C 10.3148 -2.4093 4.7342 0
M  V30 132 C 9.3538 -1.87165 5.82783 0
M  V30 133 N 8.4908 -2.94441 6.37377 0
M  V30 134 H 13.3308 -0.020124 2.97993 0
M  V30 135 H 10.8678 0.00183425 1.471 0
M  V30 136 H 12.8258 -2.47055 3.36184 0
M  V30 137 H 11.4558 -2.33522 2.22861 0
M  V30 138 H 10.5078 -0.473331 3.77444 0
M  V30 139 H 11.8198 -0.837751 4.91715 0
M  V30 140 H 10.9738 -3.18021 5.1667 0
M  V30 141 H 9.7128 -2.87623 3.93859 0
M  V30 142 H 8.7178 -1.08556 5.38976 0
M  V30 143 H 9.9428 -1.41401 6.64216 0
M  V30 144 H 7.8888 -3.40505 5.60707 0
M  V30 145 H 7.8058 -2.55501 7.11516 0
M  V30 146 H 9.0738 -3.71489 6.85285 0
M  V30 147 N 13.3029 -1.57598 0.00835791 0
M  V30 148 C 14.2329 -2.1198 -0.979113 0
M  V30 149 C 15.2139 -1.03091 -1.35301 0
M  V30 150 O 16.3989 -1.30818 -1.43528 0
M  V30 151 C 13.5289 -2.62995 -2.26828 0
M  V30 152 C 12.4829 -3.76485 -2.03576 0
M  V30 153 C 11.8089 -4.13846 -3.38579 0
M  V30 154 C 13.1089 -5.0342 -1.39161 0
M  V30 155 H 14.8029 -2.94738 -0.526281 0
M  V30 156 H 12.3489 -1.41783 -0.251704 0
M  V30 157 H 14.3019 -2.99669 -2.96271 0
M  V30 158 H 13.0259 -1.7737 -2.7424 0
M  V30 159 H 11.6849 -3.40217 -1.36557 0
M  V30 160 H 11.3329 -3.25232 -3.83709 0
M  V30 161 H 11.0329 -4.90312 -3.23834 0
M  V30 162 H 12.5569 -4.53086 -4.09323 0
M  V30 163 H 13.9709 -5.37812 -1.98573 0
M  V30 164 H 12.3679 -5.84746 -1.34878 0
M  V30 165 H 13.4379 -4.83548 -0.361868 0
M  V30 166 N 14.781 0.264519 -1.55364 0
M  V30 167 C 15.729 1.34702 -1.89626 0
M  V30 168 C 16.723 1.50712 -0.773459 0
M  V30 169 O 17.929 1.52395 -0.957897 0
M  V30 170 H 14.304 0.450682 -0.601988 0
M  V30 171 H 16.275 1.0306 -2.80038 0
M  V30 172 C 15.024 2.6989 -2.19214 0
M  V30 173 H 14.347 2.58365 -3.05103 0
M  V30 174 H 15.787 3.44553 -2.47102 0
M  V30 175 C 14.246 3.21637 -1.00254 0
M  V30 176 O 14.776 4.00973 -0.241501 0
M  V30 177 N 12.982 2.7943 -0.797938 0
M  V30 178 H 12.529 2.15026 -1.4185 0
M  V30 179 H 12.487 3.144 -0.00363422 0
M  V30 180 N 16.2591 1.48442 0.529413 0
M  V30 181 C 17.5361 1.46978 1.29062 0
M  V30 182 C 17.9161 0.181769 2.10316 0
M  V30 183 O 17.2641 -0.836481 2.12639 0
M  V30 184 C 17.4741 2.7321 2.17157 0
M  V30 185 C 18.8221 3.21562 2.77278 0
M  V30 186 O 19.8461 2.74131 2.27444 0
M  V30 187 O 18.7051 4.04094 3.67927 0
M  V30 188 H 15.7991 0.587003 0.582543 0
M  V30 189 H 18.3451 1.60676 0.546021 0
M  V30 190 H 17.1171 3.58465 1.56903 0
M  V30 191 H 16.7401 2.62235 2.98862 0
M  V30 192 N 17.7372 -0.778329 1.37039 0
M  V30 193 C 18.9852 -1.53361 1.31623 0
M  V30 194 C 19.3062 -1.94739 -0.100831 0
M  V30 195 O 18.5762 -1.65797 -1.04347 0
M  V30 196 H 17.1562 -0.568794 0.484234 0
M  V30 197 H 19.8182 -0.926742 1.71457 0
M  V30 198 H 18.9142 -2.43606 1.95096 0
M  V30 199 N 19.2153 -1.21501 -1.00376 0
M  V30 200 C 20.1653 -0.942843 -2.07592 0
M  V30 201 C 21.1493 0.102384 -1.60574 0
M  V30 202 O 22.3413 -0.10671 -1.76678 0
M  V30 203 C 19.4703 -0.510729 -3.3948 0
M  V30 204 C 18.5563 -1.59009 -3.93163 0
M  V30 205 N 18.9473 -2.81544 -4.20198 0
M  V30 206 C 17.2453 -1.45925 -4.21452 0
M  V30 207 C 17.9463 -3.51261 -4.63671 0
M  V30 208 N 16.9223 -2.78703 -4.66718 0
M  V30 209 H 20.7243 -1.87378 -2.26421 0
M  V30 210 H 18.2383 -1.11093 -1.18458 0
M  V30 211 H 20.2353 -0.297101 -4.1584 0
M  V30 212 H 18.8953 0.413436 -3.22057 0
M  V30 213 H 19.9063 -3.18075 -4.08716 0
M  V30 214 H 16.5833 -0.600467 -4.13159 0
M  V30 215 H 17.9733 -4.56183 -4.93302 0
M  V30 216 N 20.6934 1.19889 -1.02296 0
M  V30 217 C 21.9404 1.8942 -0.715972 0
M  V30 218 C 22.2684 1.79251 0.754944 0
M  V30 219 O 21.5234 1.17526 1.56481 0
M  V30 220 C 21.8224 3.39883 -1.10518 0
M  V30 221 C 21.4884 3.70254 -2.57337 0
M  V30 222 C 20.1504 3.78254 -2.97452 0
M  V30 223 C 22.5024 3.84052 -3.52354 0
M  V30 224 C 19.8304 3.97514 -4.31509 0
M  V30 225 C 22.1824 4.04824 -4.86108 0
M  V30 226 C 20.8464 4.11054 -5.25919 0
M  V30 227 H 20.1164 0.693138 -0.261993 0
M  V30 228 H 22.7634 1.42012 -1.28472 0
M  V30 229 H 21.0684 3.8915 -0.454953 0
M  V30 230 H 22.7654 3.9199 -0.845261 0
M  V30 231 H 19.3554 3.64632 -2.25258 0
M  V30 232 H 23.5394 3.77221 -3.22518 0
M  V30 233 H 18.7954 4.00574 -4.61898 0
M  V30 234 H 22.9694 4.14442 -5.59653 0
M  V30 235 H 20.5964 4.2573 -6.29808 0
M  V30 236 N 22.1715 0.800033 1.35784 0
M  V30 237 C 23.1045 0.151499 2.27697 0
M  V30 238 C 24.0825 -0.678663 1.4776 0
M  V30 239 O 25.2665 -0.647358 1.77035 0
M  V30 240 C 22.3935 -0.790492 3.29346 0
M  V30 241 C 21.4395 -0.0407832 4.26481 0
M  V30 242 S 22.2725 1.29077 5.19711 0
M  V30 243 C 23.4285 0.353055 6.24903 0
M  V30 244 H 23.6615 0.930796 2.82353 0
M  V30 245 H 21.1945 0.594767 1.42485 0
M  V30 246 H 23.1525 -1.3285 3.88409 0
M  V30 247 H 21.8135 -1.54312 2.73581 0
M  V30 248 H 21.0065 -0.755971 4.98298 0
M  V30 249 H 20.6085 0.427063 3.71554 0
M  V30 250 H 22.9005 -0.464147 6.75908 0
M  V30 251 H 23.8435 1.04023 7.00418 0
M  V30 252 H 24.2515 -0.0483344 5.64479 0
M  V30 253 N 23.6496 -1.47581 0.552962 0
M  V30 254 C 25.0606 -1.86324 0.118463 0
M  V30 255 C 25.4116 -1.46006 -1.3106 0
M  V30 256 O 24.5366 -0.861182 -1.98526 0
M  V30 257 C 25.1316 -3.3816 0.20821 0
M  V30 258 C 23.6906 -3.7601 -0.171226 0
M  V30 259 C 22.8376 -2.71634 0.557686 0
M  V30 260 H 25.7886 -1.39159 0.762928 0
M  V30 261 H 25.8096 -3.76141 -0.574278 0
M  V30 262 H 25.3216 -3.67473 1.24841 0
M  V30 263 H 23.4226 -3.52313 -1.21269 0
M  V30 264 H 23.5356 -4.78745 0.184379 0
M  V30 265 H 21.8996 -2.547 0.00125792 0
M  V30 266 H 22.6826 -3.0379 1.59896 0
M  V30 267 N 25.1277 -0.289203 -1.54924 0
M  V30 268 C 26.3737 0.323998 -2.00195 0
M  V30 269 C 26.7067 1.54441 -1.17735 0
M  V30 270 O 25.9817 1.92875 -0.250878 0
M  V30 271 C 26.2647 0.692276 -3.53383 0
M  V30 272 C 26.1177 -0.536457 -4.46589 0
M  V30 273 C 27.4367 1.52335 -4.12895 0
M  V30 274 H 24.5557 0.116289 -0.727768 0
M  V30 275 H 27.1977 -0.398954 -1.85764 0
M  V30 276 H 25.3477 1.30822 -3.65811 0
M  V30 277 H 27.0197 -1.17499 -4.46085 0
M  V30 278 H 25.2627 -1.17192 -4.1767 0
M  V30 279 H 25.9337 -0.234806 -5.515 0
M  V30 280 H 28.4097 1.00302 -4.0383 0
M  V30 281 H 27.2857 1.74982 -5.20262 0
M  V30 282 H 27.5467 2.50886 -3.64018 0
M  V30 283 N 26.6058 1.57591 -0.0167156 0
M  V30 284 C 27.5358 2.12496 0.967858 0
M  V30 285 C 28.5168 1.03807 1.34752 0
M  V30 286 O 29.7018 1.31577 1.42833 0
M  V30 287 C 26.8318 2.64194 2.25431 0
M  V30 288 C 25.7858 3.77559 2.01576 0
M  V30 289 C 25.1118 4.15636 3.36379 0
M  V30 290 C 26.4118 5.04151 1.36489 0
M  V30 291 H 28.1058 2.95013 0.510643 0
M  V30 292 H 25.6518 1.41915 0.244181 0
M  V30 293 H 27.6048 3.01236 2.94678 0
M  V30 294 H 26.3288 1.78821 2.73296 0
M  V30 295 H 24.9878 3.40937 1.34751 0
M  V30 296 H 24.6358 3.27263 3.81979 0
M  V30 297 H 24.3358 4.92022 3.21229 0
M  V30 298 H 25.8598 4.5525 4.06915 0
M  V30 299 H 27.2738 5.38857 1.95718 0
M  V30 300 H 25.6708 5.85453 1.31776 0
M  V30 301 H 26.7408 4.83733 0.336219 0
M  V30 302 N 28.0839 -0.256276 1.55502 0
M  V30 303 C 29.3319 -0.983672 1.76545 0
M  V30 304 C 29.6529 -1.86206 0.578982 0
M  V30 305 O 28.9229 -1.91656 -0.405577 0
M  V30 306 H 27.5029 -0.366191 0.651086 0
M  V30 307 H 30.1649 -0.276479 1.92929 0
M  V30 308 H 29.2609 -1.61087 2.67315 0
M  V30 309 N 29.562 -1.4872 -0.521534 0
M  V30 310 C 30.809 -1.57168 -1.27689 0
M  V30 311 C 31.137 -0.249275 -1.92896 0
M  V30 312 O 30.392 0.761162 -1.80291 0
M  V30 313 C 30.691 -2.66497 -2.38148 0
M  V30 314 C 30.357 -4.08664 -1.90538 0
M  V30 315 C 29.019 -4.47357 -1.77271 0
M  V30 316 C 31.371 -4.97724 -1.54663 0
M  V30 317 C 28.699 -5.72905 -1.26478 0
M  V30 318 C 31.051 -6.2377 -1.05329 0
M  V30 319 C 29.715 -6.61311 -0.906861 0
M  V30 320 H 28.985 -0.575117 -0.467249 0
M  V30 321 H 31.632 -1.82472 -0.581051 0
M  V30 322 H 29.937 -2.35085 -3.13437 0
M  V30 323 H 31.634 -2.70246 -2.96257 0
M  V30 324 H 28.224 -3.78111 -2.01816 0
M  V30 325 H 32.408 -4.68501 -1.63768 0
M  V30 326 H 27.664 -6.00709 -1.13835 0
M  V30 327 H 31.838 -6.9217 -0.76644 0
M  V30 328 H 29.465 -7.5848 -0.511083 0
M  V30 329 N 31.0401 0.771051 -1.3745 0
M  V30 330 C 32.2881 1.52661 -1.32435 0
M  V30 331 C 32.6091 1.9479 0.0905024 0
M  V30 332 O 31.8791 1.66348 1.03466 0
M  V30 333 H 30.4591 0.566218 -0.487244 0
M  V30 334 H 33.1211 0.917636 -1.71946 0
M  V30 335 H 32.2171 2.42568 -1.96385 0
M  V30 336 N 32.5182 1.22032 0.997298 0
M  V30 337 C 33.7462 1.06841 1.7718 0
M  V30 338 C 34.1612 -0.381325 1.84909 0
M  V30 339 O 33.5182 -1.26437 1.31605 0
M  V30 340 C 33.5692 1.66814 3.20711 0
M  V30 341 O 33.2902 3.06116 3.13408 0
M  V30 342 C 34.7912 1.56838 4.14628 0
M  V30 343 H 32.0112 0.374782 0.556578 0
M  V30 344 H 34.5552 1.61532 1.2541 0
M  V30 345 H 32.7102 1.16196 3.69564 0
M  V30 346 H 33.1242 3.34926 4.0364 0
M  V30 347 H 34.5982 2.03532 5.13107 0
M  V30 348 H 35.0752 0.524155 4.36061 0
M  V30 349 H 35.6812 2.06741 3.7167 0
M  V30 350 N 33.9963 -1.19345 1.0293 0
M  V30 351 C 35.2263 -1.92717 0.744563 0
M  V30 352 C 35.6343 -1.75751 -0.700579 0
M  V30 353 O 34.9773 -1.07703 -1.48815 0
M  V30 354 C 35.0393 -3.44828 1.01657 0
M  V30 355 C 34.7033 -3.85564 2.45335 0
M  V30 356 C 35.7003 -3.90286 3.43472 0
M  V30 357 C 33.3853 -4.1719 2.79746 0
M  V30 358 C 35.3793 -4.26065 4.74075 0
M  V30 359 C 33.0663 -4.52642 4.10559 0
M  V30 360 C 34.0643 -4.57054 5.07534 0
M  V30 361 O 33.7523 -4.91685 6.36004 0
M  V30 362 H 33.4843 -0.618977 0.271742 0
M  V30 363 H 36.0383 -1.52415 1.37691 0
M  V30 364 H 34.2683 -3.85314 0.327084 0
M  V30 365 H 35.9573 -3.99437 0.721427 0
M  V30 366 H 36.7233 -3.66002 3.18225 0
M  V30 367 H 32.6023 -4.1294 2.04943 0
M  V30 368 H 36.1463 -4.29423 5.49765 0
M  V30 369 H 32.0433 -4.76383 4.35579 0
M  V30 370 H 32.8113 -5.09631 6.40483 0
M  V30 371 N 35.4744 -0.807222 -1.35358 0
M  V30 372 C 36.4374 -0.223665 -2.28106 0
M  V30 373 C 37.4374 0.589354 -1.4961 0
M  V30 374 O 38.6274 0.407745 -1.69361 0
M  V30 375 C 35.7594 0.688149 -3.33882 0
M  V30 376 H 36.9524 -1.04169 -2.81227 0
M  V30 377 H 34.5054 -0.577921 -1.45223 0
M  V30 378 H 35.2404 1.52984 -2.85948 0
M  V30 379 H 35.0254 0.10687 -3.91954 0
M  V30 380 H 36.5154 1.09075 -4.03104 0
M  V30 381 N 36.9525 1.47285 -0.560781 0
M  V30 382 C 38.3635 1.86258 -0.128343 0
M  V30 383 C 38.7145 1.46699 1.30284 0
M  V30 384 O 37.8395 0.871698 1.98067 0
M  V30 385 C 38.4345 3.38044 -0.22614 0
M  V30 386 C 36.9935 3.76096 0.151283 0
M  V30 387 C 36.1405 2.71335 -0.572084 0
M  V30 388 H 39.0915 1.38752 -0.770297 0
M  V30 389 H 39.1125 3.76441 0.554322 0
M  V30 390 H 38.6245 3.66806 -1.26788 0
M  V30 391 H 36.7255 3.52951 1.19399 0
M  V30 392 H 36.8385 4.78641 -0.209765 0
M  V30 393 H 35.2025 2.54696 -0.0147653 0
M  V30 394 H 35.9855 3.02938 -1.61504 0
M  V30 395 N 38.4306 0.297415 1.54768 0
M  V30 396 C 39.8416 -0.195947 1.85669 0
M  V30 397 C 40.1926 -1.53707 1.21937 0
M  V30 398 O 39.3176 -2.10164 0.515754 0
M  V30 399 C 39.9126 -0.362318 3.36857 0
M  V30 400 C 38.4716 -0.799901 3.67802 0
M  V30 401 C 37.6186 0.0938578 2.77141 0
M  V30 402 H 40.5696 0.518538 1.4999 0
M  V30 403 H 40.5906 -1.19745 3.61167 0
M  V30 404 H 40.1026 0.613921 3.83214 0
M  V30 405 H 38.2036 -1.78682 3.26961 0
M  V30 406 H 38.3166 -0.621773 4.75048 0
M  V30 407 H 36.6806 -0.426254 2.51108 0
M  V30 408 H 37.4636 1.06639 3.26318 0
M  V30 409 N 39.9087 -1.5758 0.0250728 0
M  V30 410 C 40.8187 -2.1343 -0.973905 0
M  V30 411 C 41.8347 -1.08556 -1.35984 0
M  V30 412 O 43.0107 -1.40592 -1.44207 0
M  V30 413 C 40.0757 -2.64703 -2.23904 0
M  V30 414 C 39.1367 -3.84276 -1.91391 0
M  V30 415 C 38.3697 -4.33095 -3.11873 0
M  V30 416 O 38.5927 -3.81107 -4.24398 0
M  V30 417 O 37.5267 -5.24984 -2.94406 0
M  V30 418 H 41.3527 -2.99057 -0.529036 0
M  V30 419 H 38.9377 -1.48118 -0.195288 0
M  V30 420 H 40.8197 -2.97769 -2.98181 0
M  V30 421 H 39.4947 -1.82161 -2.6758 0
M  V30 422 H 38.4017 -3.56143 -1.14511 0
M  V30 423 H 39.7347 -4.67968 -1.52534 0
M  V30 424 N 41.3868 0.248026 -1.55636 0
M  V30 425 C 42.6328 0.97767 -1.77678 0
M  V30 426 C 42.9658 1.85016 -0.590135 0
M  V30 427 O 42.2408 1.90095 0.411611 0
M  V30 428 C 42.5238 1.83914 -3.09593 0
M  V30 429 C 42.3768 0.99491 -4.38659 0
M  V30 430 C 43.6958 2.82183 -3.37729 0
M  V30 431 H 40.8148 0.354005 -0.646413 0
M  V30 432 H 43.4568 0.248253 -1.88371 0
M  V30 433 H 41.6068 2.46104 -3.00608 0
M  V30 434 H 43.2788 0.391789 -4.59633 0
M  V30 435 H 41.5218 0.299231 -4.32767 0
M  V30 436 H 42.1928 1.63145 -5.2734 0
M  V30 437 H 44.6688 2.30129 -3.4667 0
M  V30 438 H 43.5448 3.39582 -4.31249 0
M  V30 439 H 43.8058 3.58588 -2.58586 0
M  V30 440 N 42.8649 1.48995 0.513639 0
M  V30 441 C 44.2759 1.5119 1.09537 0
M  V30 442 C 44.6269 0.290906 1.94031 0
M  V30 443 O 43.7519 -0.60049 2.07902 0
M  V30 444 C 44.3469 2.73964 1.99322 0
M  V30 445 C 42.9059 2.78978 2.52682 0
M  V30 446 C 42.0529 2.44934 1.30009 0
M  V30 447 H 45.0039 1.55875 0.298125 0
M  V30 448 H 45.0249 2.53409 2.83838 0
M  V30 449 H 44.5369 3.62813 1.37799 0
M  V30 450 H 42.6379 1.94378 3.1788 0
M  V30 451 H 42.7509 3.8083 2.90698 0
M  V30 452 H 41.1149 1.9644 1.62122 0
M  V30 453 H 41.8979 3.36043 0.702131 0
M  V30 454 N 44.343 -0.763751 1.37857 0
M  V30 455 C 45.759 -1.06542 1.18832 0
M  V30 456 C 45.959 -2.01478 0.0299722 0
M  V30 457 O 45.015 -2.4458 -0.627447 0
M  V30 458 C 46.328 -1.65525 2.51042 0
M  V30 459 C 47.876 -1.77745 2.57635 0
M  V30 460 C 48.351 -2.4014 3.89996 0
M  V30 461 N 49.842 -2.47582 3.91481 0
M  V30 462 C 50.577 -2.96732 4.9065 0
M  V30 463 N 50.073 -3.45993 6.00217 0
M  V30 464 N 51.866 -2.95679 4.78048 0
M  V30 465 H 44.017 -0.133556 2.1198 0
M  V30 466 H 46.28 -0.121879 0.940133 0
M  V30 467 H 45.986 -1.03236 3.36207 0
M  V30 468 H 45.86 -2.64719 2.68707 0
M  V30 469 H 48.247 -2.39164 1.72872 0
M  V30 470 H 48.328 -0.772836 2.43846 0
M  V30 471 H 47.972 -1.79358 4.75177 0
M  V30 472 H 47.902 -3.41223 4.01092 0
M  V30 473 H 50.393 -2.1273 3.12337 0
M  V30 474 H 50.706 -3.81922 6.7183 0
M  V30 475 H 49.051 -3.44077 6.03851 0
M  V30 476 H 52.242 -2.56499 3.91568 0
M  V30 477 H 52.415 -3.33672 5.55488 0
M  V30 478 N 45.8211 -1.22559 -0.990812 0
M  V30 479 C 47.0461 -1.07862 -1.77145 0
M  V30 480 C 47.4711 0.366447 -1.84496 0
M  V30 481 O 46.8291 1.26478 -1.29896 0
M  V30 482 C 46.8771 -1.69686 -3.18181 0
M  V30 483 O 45.9811 -0.951946 -4.01263 0
M  V30 484 H 45.3221 -0.378712 -0.545411 0
M  V30 485 H 47.8521 -1.62399 -1.2445 0
M  V30 486 H 47.8621 -1.74496 -3.68802 0
M  V30 487 H 46.5371 -2.74841 -3.12146 0
M  V30 488 H 45.1141 -0.980011 -3.59792 0
M  V30 489 N 47.2992 1.18797 -1.03562 0
M  V30 490 C 48.2462 2.22253 -0.622259 0
M  V30 491 C 49.2162 1.61987 0.36736 0
M  V30 492 O 50.4012 1.88986 0.262492 0
M  V30 493 C 47.5412 3.45097 0.0138462 0
M  V30 494 C 46.6542 4.19722 -1.02263 0
M  V30 495 C 45.7892 5.30009 -0.355573 0
M  V30 496 C 44.8282 5.96399 -1.37749 0
M  V30 497 N 43.9652 6.98234 -0.735766 0
M  V30 498 H 48.8052 2.56968 -1.50903 0
M  V30 499 H 46.3422 1.26245 -0.755017 0
M  V30 500 H 48.3002 4.15279 0.399948 0
M  V30 501 H 46.9302 3.11018 0.864158 0
M  V30 502 H 45.9822 3.48418 -1.52673 0
M  V30 503 H 47.2942 4.65227 -1.79903 0
M  V30 504 H 46.4482 6.0664 0.0850095 0
M  V30 505 H 45.1872 4.85592 0.452967 0
M  V30 506 H 44.1922 5.18512 -1.82826 0
M  V30 507 H 45.4172 6.42899 -2.18764 0
M  V30 508 H 43.3632 6.55979 0.0525597 0
M  V30 509 H 43.2802 7.41965 -1.44995 0
M  V30 510 H 44.5482 7.78845 -0.31941 0
M  V30 511 N 48.7773 0.814389 1.34928 0
M  V30 512 C 49.7403 0.235759 2.27984 0
M  V30 513 C 50.7403 -0.581412 1.49921 0
M  V30 514 O 51.9303 -0.398758 1.69575 0
M  V30 515 C 49.0623 -0.670433 3.34242 0
M  V30 516 H 50.2553 1.05659 2.80671 0
M  V30 517 H 47.8083 0.585614 1.44915 0
M  V30 518 H 48.5433 -1.51466 2.86755 0
M  V30 519 H 48.3283 -0.0860822 3.92005 0
M  V30 520 H 49.8183 -1.06935 4.03676 0
M  V30 521 N 50.2554 -1.46986 0.568584 0
M  V30 522 C 51.1854 -2.32946 -0.160753 0
M  V30 523 C 52.1664 -1.44487 -0.897631 0
M  V30 524 O 53.3514 -1.73327 -0.875867 0
M  V30 525 C 50.4814 -3.26494 -1.18403 0
M  V30 526 C 49.4354 -4.24282 -0.562895 0
M  V30 527 C 48.7614 -5.07236 -1.69163 0
M  V30 528 C 50.0614 -5.19989 0.490761 0
M  V30 529 H 51.7554 -2.94175 0.556916 0
M  V30 530 H 49.3014 -1.4146 0.26927 0
M  V30 531 H 51.2544 -3.85477 -1.70251 0
M  V30 532 H 49.9784 -2.63343 -1.93179 0
M  V30 533 H 48.6374 -3.66541 -0.0656164 0
M  V30 534 H 48.2854 -4.4048 -2.42871 0
M  V30 535 H 47.9854 -5.7345 -1.28174 0
M  V30 536 H 49.5094 -5.6908 -2.21314 0
M  V30 537 H 50.9234 -5.73271 0.0579047 0
M  V30 538 H 49.3204 -5.94469 0.820165 0
M  V30 539 H 50.3904 -4.64777 1.3824 0
M  V30 540 N 51.7335 -0.305618 -1.54608 0
M  V30 541 C 52.6435 0.57778 -2.27374 0
M  V30 542 C 53.6595 1.14451 -1.31061 0
M  V30 543 O 54.8355 1.16831 -1.6405 0
M  V30 544 C 51.9005 1.73123 -3.00382 0
M  V30 545 C 50.9615 1.19812 -4.12242 0
M  V30 546 C 50.1945 2.2966 -4.81759 0
M  V30 547 O 50.4175 3.49651 -4.50666 0
M  V30 548 O 49.3515 1.96091 -5.69062 0
M  V30 549 H 53.1775 -0.012624 -3.03697 0
M  V30 550 H 50.7625 -0.0719184 -1.49227 0
M  V30 551 H 52.6445 2.40315 -3.4616 0
M  V30 552 H 51.3195 2.30815 -2.26949 0
M  V30 553 H 50.2265 0.491798 -3.70853 0
M  V30 554 H 51.5595 0.666566 -4.87666 0
M  V30 555 N 53.2116 1.57565 -0.0334293 0
M  V30 556 C 54.4576 1.92262 0.645226 0
M  V30 557 C 54.7906 0.910543 1.71531 0
M  V30 558 O 54.0656 -0.066099 1.94388 0
M  V30 559 C 54.3486 3.37422 1.2577 0
M  V30 560 C 54.2016 4.49369 0.196891 0
M  V30 561 C 55.5206 3.82628 2.17449 0
M  V30 562 H 52.6396 0.699171 0.233085 0
M  V30 563 H 55.2816 1.89779 -0.0915694 0
M  V30 564 H 53.4316 3.39669 1.88566 0
M  V30 565 H 55.1036 4.59254 -0.433962 0
M  V30 566 H 53.3466 4.31168 -0.477137 0
M  V30 567 H 54.0176 5.47978 0.665124 0
M  V30 568 H 56.4936 3.82145 1.64634 0
M  V30 569 H 55.3696 4.84883 2.57254 0
M  V30 570 H 55.6306 3.18376 3.0674 0
M  V30 571 N 54.6897 -0.239769 1.55765 0
M  V30 572 C 55.9177 -0.98417 1.81994 0
M  V30 573 C 56.3327 -1.7867 0.610124 0
M  V30 574 O 55.6897 -1.77571 -0.421271 0
M  V30 575 C 55.7407 -1.91635 3.06526 0
M  V30 576 O 55.4617 -1.14629 4.22838 0
M  V30 577 C 56.9627 -2.77616 3.45607 0
M  V30 578 H 54.1827 -0.28928 0.605441 0
M  V30 579 H 56.7267 -0.260499 2.02834 0
M  V30 580 H 54.8817 -2.5942 2.87715 0
M  V30 581 H 55.2957 -1.77745 4.93464 0
M  V30 582 H 56.7697 -3.38759 4.35828 0
M  V30 583 H 57.2467 -3.4909 2.6652 0
M  V30 584 H 57.8527 -2.15271 3.66795 0
M  V30 585 N 56.1678 -1.49265 -0.50573 0
M  V30 586 C 57.1148 -1.65585 -1.6078 0
M  V30 587 C 58.0848 -0.497396 -1.58478 0
M  V30 588 O 59.2698 -0.72385 -1.76536 0
M  V30 589 C 56.4098 -1.72408 -2.98948 0
M  V30 590 C 55.5228 -2.99525 -3.11301 0
M  V30 591 C 54.6578 -2.97356 -4.40174 0
M  V30 592 C 53.6968 -4.19074 -4.46143 0
M  V30 593 N 52.8338 -4.14841 -5.66437 0
M  V30 594 H 57.6738 -2.59688 -1.46172 0
M  V30 595 H 55.2108 -1.28761 -0.711261 0
M  V30 596 H 57.1688 -1.74344 -3.79025 0
M  V30 597 H 55.7988 -0.817753 -3.1227 0
M  V30 598 H 54.8508 -3.07222 -2.24318 0
M  V30 599 H 56.1628 -3.89518 -3.11572 0
M  V30 600 H 55.3168 -2.97829 -5.28567 0
M  V30 601 H 54.0558 -2.05133 -4.42461 0
M  V30 602 H 53.0608 -4.1885 -3.56153 0
M  V30 603 H 54.2858 -5.12483 -4.45575 0
M  V30 604 H 52.2318 -3.25453 -5.69575 0
M  V30 605 H 52.1488 -4.98564 -5.68304 0
M  V30 606 H 53.4168 -4.1941 -6.57051 0
M  V30 607 N 57.6459 0.756429 -1.3826 0
M  V30 608 C 58.5759 1.88374 -1.37976 0
M  V30 609 C 59.5569 1.68311 -0.246082 0
M  V30 610 O 60.7419 1.88944 -0.44874 0
M  V30 611 C 57.8719 3.25864 -1.20125 0
M  V30 612 C 56.8259 3.60523 -2.30666 0
M  V30 613 C 56.1519 4.9672 -1.97923 0
M  V30 614 C 57.4519 3.65692 -3.72916 0
M  V30 615 H 59.1459 1.88869 -2.32312 0
M  V30 616 H 56.6919 0.907272 -1.11824 0
M  V30 617 H 58.6449 4.0438 -1.18552 0
M  V30 618 H 57.3689 3.25841 -0.222498 0
M  V30 619 H 56.0279 2.84324 -2.3142 0
M  V30 620 H 55.6759 4.93253 -0.985393 0
M  V30 621 H 55.3759 5.20878 -2.71955 0
M  V30 622 H 56.8999 5.77618 -1.97964 0
M  V30 623 H 58.3139 4.34328 -3.74208 0
M  V30 624 H 56.7109 4.01358 -4.4613 0
M  V30 625 H 57.7809 2.65987 -4.05436 0
M  V30 626 N 59.124 1.23083 0.984299 0
M  V30 627 C 60.087 1.00979 2.05757 0
M  V30 628 C 61.087 -0.0269573 1.60777 0
M  V30 629 O 62.277 0.212403 1.729 0
M  V30 630 C 59.409 0.527072 3.36801 0
M  V30 631 H 60.602 1.9622 2.26799 0
M  V30 632 H 58.155 1.05072 1.15714 0
M  V30 633 H 58.89 -0.429294 3.21446 0
M  V30 634 H 58.675 1.27515 3.70786 0
M  V30 635 H 60.165 0.392942 4.15747 0
M  V30 636 N 60.6021 -1.18246 1.0419 0
M  V30 637 C 61.8511 -1.87588 0.741194 0
M  V30 638 C 62.1641 -1.81303 -0.734066 0
M  V30 639 O 63.3701 -2.46019 -1.14834 0
M  V30 640 C 61.8261 -3.36538 1.27555 0
M  V30 641 C 61.4341 -3.51349 2.77953 0
M  V30 642 C 63.1781 -4.11273 1.05143 0
M  V30 643 C 61.0851 -4.94265 3.2474 0
M  V30 644 H 60.0151 -0.702622 0.273565 0
M  V30 645 H 62.6661 -1.33601 1.25789 0
M  V30 646 H 61.0481 -3.9 0.686703 0
M  V30 647 H 62.2221 -3.08153 3.42605 0
M  V30 648 H 60.5371 -2.90022 2.98791 0
M  V30 649 H 63.1341 -5.16689 1.37611 0
M  V30 650 H 63.4771 -4.16298 -0.0112774 0
M  V30 651 H 64.0101 -3.63987 1.60495 0
M  V30 652 H 60.7491 -4.94408 4.30396 0
M  V30 653 H 60.2691 -5.38172 2.64823 0
M  V30 654 H 61.9481 -5.62987 3.18834 0
M  V30 655 N 62.0802 -0.821533 -1.34494 0
M  V30 656 C 62.9902 -0.244355 -2.33324 0
M  V30 657 C 64.0062 0.620527 -1.62559 0
M  V30 658 O 65.1822 0.528754 -1.94335 0
M  V30 659 C 62.2472 0.585368 -3.41723 0
M  V30 660 C 61.3082 -0.301752 -4.28238 0
M  V30 661 C 60.5412 0.488466 -5.3146 0
M  V30 662 O 60.7642 1.72186 -5.4379 0
M  V30 663 O 59.6982 -0.12848 -6.01763 0
M  V30 664 H 63.5242 -1.06231 -2.84515 0
M  V30 665 H 61.1092 -0.583645 -1.37528 0
M  V30 666 H 62.9912 1.05747 -4.07916 0
M  V30 667 H 61.6662 1.38068 -2.92778 0
M  V30 668 H 60.5732 -0.821315 -3.64973 0
M  V30 669 H 61.9062 -1.06138 -4.8062 0
M  V30 670 N 63.5583 1.46682 -0.576371 0
M  V30 671 C 64.5213 2.28707 0.150239 0
M  V30 672 C 65.5213 1.38035 0.824794 0
M  V30 673 O 66.7113 1.60476 0.677719 0
M  V30 674 C 63.8433 3.18248 1.22192 0
M  V30 675 H 65.0363 2.94423 -0.570521 0
M  V30 676 H 62.5893 1.52688 -0.334078 0
M  V30 677 H 63.3243 2.57265 1.97447 0
M  V30 678 H 63.1093 3.85 0.742812 0
M  V30 679 H 64.5993 3.80001 1.73172 0
M  V30 680 N 65.0364 0.313813 1.54444 0
M  V30 681 C 66.2844 -0.291099 1.99993 0
M  V30 682 C 66.6054 -1.53418 1.20366 0
M  V30 683 O 65.8754 -1.93544 0.302927 0
M  V30 684 H 64.4554 -0.110552 0.738774 0
M  V30 685 H 67.1174 0.428106 1.9014 0
M  V30 686 H 66.2134 -0.554268 3.07139 0
M  V30 687 N 66.5145 -1.57545 0.0417849 0
M  V30 688 C 67.7615 -1.92317 -0.634082 0
M  V30 689 C 68.0895 -0.919334 -1.71402 0
M  V30 690 O 67.3445 0.0698253 -1.95575 0
M  V30 691 C 67.6435 -3.33794 -1.27735 0
M  V30 692 C 67.3095 -4.49716 -0.326543 0
M  V30 693 C 65.9715 -4.81156 -0.0648814 0
M  V30 694 C 68.3235 -5.20182 0.325623 0
M  V30 695 C 65.6515 -5.80414 0.856539 0
M  V30 696 C 68.0035 -6.20424 1.23518 0
M  V30 697 C 66.6675 -6.50298 1.5056 0
M  V30 698 H 65.9375 -0.703736 -0.232027 0
M  V30 699 H 68.5845 -1.91205 0.106259 0
M  V30 700 H 66.8895 -3.31228 -2.09274 0
M  V30 701 H 68.5865 -3.57975 -1.80707 0
M  V30 702 H 65.1765 -4.25176 -0.540665 0
M  V30 703 H 69.3605 -4.96112 0.136546 0
M  V30 704 H 64.6165 -6.019 1.07363 0
M  V30 705 H 68.7905 -6.74141 1.74664 0
M  V30 706 H 66.4175 -7.27025 2.22123 0
M  V30 707 N 67.9926 0.231505 -1.5589 0
M  V30 708 C 69.4086 0.580748 -1.48659 0
M  V30 709 C 69.6086 1.87617 -0.73498 0
M  V30 710 O 68.6646 2.51046 -0.270586 0
M  V30 711 C 69.9776 0.669202 -2.93159 0
M  V30 712 C 71.5256 0.760499 -3.03621 0
M  V30 713 C 72.0006 0.880383 -4.49459 0
M  V30 714 N 73.4916 0.944861 -4.53461 0
M  V30 715 C 74.2266 1.05716 -5.63571 0
M  V30 716 N 73.7226 1.13403 -6.83456 0
M  V30 717 N 75.5156 1.09152 -5.514 0
M  V30 718 H 67.6666 -0.618695 -2.03189 0
M  V30 719 H 69.9296 -0.215728 -0.923128 0
M  V30 720 H 69.6356 -0.212904 -3.51055 0
M  V30 721 H 69.5096 1.5361 -3.44505 0
M  V30 722 H 71.8966 1.63305 -2.45796 0
M  V30 723 H 71.9776 -0.131864 -2.5546 0
M  V30 724 H 71.6216 0.0123284 -5.07899 0
M  V30 725 H 71.5516 1.78802 -4.95316 0
M  V30 726 H 74.0426 0.896176 -3.6712 0
M  V30 727 H 74.3556 1.21921 -7.63122 0
M  V30 728 H 72.7006 1.10333 -6.86186 0
M  V30 729 H 75.8916 1.02805 -4.56671 0
M  V30 730 H 76.0646 1.17558 -6.37247 0
M  V30 731 N 69.4707 1.49531 0.497807 0
M  V30 732 C 70.4207 1.62829 1.59596 0
M  V30 733 C 71.4047 0.483824 1.53453 0
M  V30 734 O 72.5967 0.736937 1.60929 0
M  V30 735 C 69.7257 1.7011 2.98191 0
M  V30 736 C 68.8117 2.90144 3.09317 0
M  V30 737 N 69.2027 4.1418 2.90324 0
M  V30 738 C 67.5007 2.88148 3.40422 0
M  V30 739 C 68.2017 4.94886 3.05717 0
M  V30 740 N 67.1777 4.28314 3.34736 0
M  V30 741 H 70.9797 2.56446 1.4357 0
M  V30 742 H 68.4937 1.46347 0.704001 0
M  V30 743 H 70.4907 1.77735 3.77115 0
M  V30 744 H 69.1507 0.776315 3.15283 0
M  V30 745 H 70.1617 4.44109 2.66436 0
M  V30 746 H 66.8387 2.05061 3.63671 0
M  V30 747 H 68.2287 6.03432 2.95499 0
M  V30 748 N 70.9488 -0.749086 1.3866 0
M  V30 749 C 72.1978 -1.50371 1.3443 0
M  V30 750 C 72.5108 -1.95503 -0.0616397 0
M  V30 751 O 73.7168 -2.70554 -0.226489 0
M  V30 752 C 72.1728 -2.71644 2.36088 0
M  V30 753 C 71.7808 -2.3352 3.82325 0
M  V30 754 C 73.5248 -3.49518 2.40909 0
M  V30 755 C 71.4318 -3.51431 4.75658 0
M  V30 756 H 70.3618 -0.564628 0.499712 0
M  V30 757 H 73.0128 -0.818449 1.64237 0
M  V30 758 H 71.3948 -3.42175 1.9933 0
M  V30 759 H 72.5688 -1.70627 4.28046 0
M  V30 760 H 70.8838 -1.6877 3.80665 0
M  V30 761 H 73.4808 -4.37197 3.07836 0
M  V30 762 H 73.8238 -3.90992 1.42937 0
M  V30 763 H 74.3568 -2.86005 2.76489 0
M  V30 764 H 71.0958 -3.15019 5.74842 0
M  V30 765 H 70.6158 -4.13352 4.34627 0
M  V30 766 H 72.2948 -4.17953 4.93887 0
M  V30 767 N 72.4269 -1.23603 -0.977757 0
M  V30 768 C 73.7039 -0.977897 -1.69401 0
M  V30 769 C 74.0839 0.502738 -2.05026 0
M  V30 770 O 73.4319 1.47459 -1.74551 0
M  V30 771 C 73.6419 -1.89077 -2.93345 0
M  V30 772 C 74.9899 -2.15579 -3.65802 0
M  V30 773 O 76.0139 -1.86648 -3.03383 0
M  V30 774 O 74.8729 -2.64658 -4.78141 0
M  V30 775 H 71.9669 -0.369025 -0.740101 0
M  V30 776 H 74.5129 -1.34657 -1.03274 0
M  V30 777 H 73.2849 -2.89158 -2.63634 0
M  V30 778 H 72.9079 -1.52463 -3.67207 0
M  V30 779 N 73.905 1.17692 -1.04816 0
M  V30 780 C 75.13 1.92327 -0.776207 0
M  V30 781 C 75.555 1.76082 0.661581 0
M  V30 782 O 74.913 1.076 1.45917 0
M  V30 783 C 74.961 3.41539 -1.15687 0
M  V30 784 O 74.065 4.11402 -0.286775 0
M  V30 785 H 73.406 0.599735 -0.284981 0
M  V30 786 H 75.936 1.49201 -1.4 0
M  V30 787 H 75.946 3.92269 -1.12202 0
M  V30 788 H 74.621 3.52684 -2.20425 0
M  V30 789 H 73.198 3.70939 -0.381903 0
M  V30 790 N 75.3831 0.828654 1.34056 0
M  V30 791 C 76.3461 0.259927 2.27721 0
M  V30 792 C 77.3461 -0.565478 1.50529 0
M  V30 793 O 78.5361 -0.38075 1.69988 0
M  V30 794 C 75.6681 -0.634944 3.34935 0
M  V30 795 H 76.8611 1.0863 2.79534 0
M  V30 796 H 74.4141 0.600951 1.44285 0
M  V30 797 H 75.1491 -1.48416 2.88346 0
M  V30 798 H 74.9341 -0.0444999 3.92075 0
M  V30 799 H 76.4241 -1.02648 4.04788 0
M  V30 800 N 76.8612 -1.46375 0.584142 0
M  V30 801 C 77.8112 -2.27371 -0.169232 0
M  V30 802 C 78.7952 -1.35955 -0.860523 0
M  V30 803 O 79.9872 -1.60119 -0.754382 0
M  V30 804 C 77.1162 -3.22334 -1.18134 0
M  V30 805 C 76.2022 -4.21235 -0.492088 0
M  V30 806 N 76.5932 -5.03766 0.453129 0
M  V30 807 C 74.8912 -4.39773 -0.742652 0
M  V30 808 C 75.5922 -5.75366 0.85609 0
M  V30 809 N 74.5682 -5.43214 0.204926 0
M  V30 810 H 78.3702 -2.88572 0.557097 0
M  V30 811 H 75.8842 -1.57242 0.406042 0
M  V30 812 H 77.8812 -3.79071 -1.73525 0
M  V30 813 H 76.5412 -2.62693 -1.90847 0
M  V30 814 H 77.5522 -5.11227 0.828723 0
M  V30 815 H 74.2292 -3.91279 -1.45625 0
M  V30 816 H 75.6192 -6.5172 1.63434 0
M  V30 817 N 78.3393 -0.321999 -1.54275 0
M  V30 818 C 79.2693 0.537411 -2.27231 0
M  V30 819 C 80.2503 1.12064 -1.27968 0
M  V30 820 O 81.4353 1.14606 -1.56777 0
M  V30 821 C 78.5653 1.69919 -3.02894 0
M  V30 822 C 77.5193 1.24534 -4.09482 0
M  V30 823 C 76.8453 2.49394 -4.72977 0
M  V30 824 C 78.1453 0.361335 -5.21049 0
M  V30 825 H 79.8393 -0.0711406 -2.99315 0
M  V30 826 H 77.3853 -0.0356555 -1.43956 0
M  V30 827 H 79.3383 2.30668 -3.52662 0
M  V30 828 H 78.0623 2.33431 -2.28424 0
M  V30 829 H 76.7213 0.660782 -3.60596 0
M  V30 830 H 76.3693 3.11265 -3.95124 0
M  V30 831 H 76.0693 2.19718 -5.44975 0
M  V30 832 H 77.5933 3.10908 -5.25517 0
M  V30 833 H 79.0073 0.875072 -5.66582 0
M  V30 834 H 77.4043 0.157428 -5.99893 0
M  V30 835 H 78.4743 -0.60822 -4.8107 0
M  V30 836 N 79.8174 1.5752 -0.0501392 0
M  V30 837 C 81.0474 1.96678 0.632573 0
M  V30 838 C 81.4554 0.926298 1.64974 0
M  V30 839 O 80.7984 -0.09802 1.83438 0
M  V30 840 C 80.8604 3.32068 1.37735 0
M  V30 841 C 80.5244 4.54076 0.516131 0
M  V30 842 C 81.5214 5.19445 -0.217357 0
M  V30 843 C 79.2064 5.00304 0.44736 0
M  V30 844 C 81.2004 6.29378 -1.00807 0
M  V30 845 C 78.8874 6.10114 -0.347038 0
M  V30 846 C 79.8854 6.74512 -1.07344 0
M  V30 847 O 79.5734 7.82211 -1.85477 0
M  V30 848 H 79.3054 0.652193 0.177821 0
M  V30 849 H 81.8594 2.05091 -0.112543 0
M  V30 850 H 80.0894 3.20206 2.16807 0
M  V30 851 H 81.7784 3.55981 1.95019 0
M  V30 852 H 82.5444 4.84689 -0.173688 0
M  V30 853 H 78.4234 4.49971 1.00235 0
M  V30 854 H 81.9674 6.79575 -1.57556 0
M  V30 855 H 77.8644 6.44307 -0.392349 0
M  V30 856 H 78.6324 7.98982 -1.77678 0
M  V30 857 N 81.2955 -0.223234 1.56011 0
M  V30 858 C 82.2435 -1.29627 1.93131 0
M  V30 859 C 83.2375 -1.48608 0.813146 0
M  V30 860 O 84.4435 -1.49802 0.997966 0
M  V30 861 H 80.8185 -0.434563 0.613726 0
M  V30 862 H 82.7895 -0.955995 2.82672 0
M  V30 863 C 81.5385 -2.63983 2.26292 0
M  V30 864 H 80.8615 -2.50185 3.11846 0
M  V30 865 H 82.3015 -3.3788 2.56151 0
M  V30 866 C 80.7605 -3.18866 1.08747 0
M  V30 867 O 81.2905 -4.00192 0.347727 0
M  V30 868 N 79.4965 -2.77217 0.871743 0
M  V30 869 H 79.0435 -2.1119 1.47501 0
M  V30 870 H 79.0015 -3.1428 0.0869905 0
M  V30 871 N 82.7736 -1.49793 -0.48987 0
M  V30 872 C 83.7216 -1.67783 -1.61095 0
M  V30 873 C 84.7156 -0.543683 -1.60438 0
M  V30 874 O 85.9216 -0.723647 -1.64813 0
M  V30 875 H 82.2966 -0.529255 -0.534222 0
M  V30 876 H 84.2676 -2.61861 -1.43078 0
M  V30 877 C 83.0166 -1.77191 -2.99164 0
M  V30 878 H 82.3396 -2.63841 -3.0038 0
M  V30 879 H 83.7796 -1.93809 -3.77113 0
M  V30 880 C 82.2386 -0.519203 -3.32875 0
M  V30 881 O 82.7686 0.350124 -4.00171 0
M  V30 882 N 80.9746 -0.378816 -2.8812 0
M  V30 883 H 80.5216 -1.08725 -2.33531 0
M  V30 884 H 80.4796 0.458239 -3.11043 0
M  V30 885 N 84.2517 0.741722 -1.39055 0
M  V30 886 C 85.1617 1.88621 -1.39496 0
M  V30 887 C 86.1777 1.71557 -0.290578 0
M  V30 888 O 87.3537 1.94275 -0.530954 0
M  V30 889 C 84.4187 3.24134 -1.23037 0
M  V30 890 C 83.4797 3.5364 -2.43387 0
M  V30 891 C 82.7127 4.82687 -2.27703 0
M  V30 892 O 82.9357 5.55922 -1.27696 0
M  V30 893 O 81.8697 5.1194 -3.16545 0
M  V30 894 H 85.6957 1.91203 -2.35956 0
M  V30 895 H 83.2807 0.888625 -1.20099 0
M  V30 896 H 85.1627 4.0513 -1.15964 0
M  V30 897 H 83.8377 3.22337 -0.296691 0
M  V30 898 H 82.7447 2.72758 -2.56035 0
M  V30 899 H 84.0777 3.60209 -3.35425 0
M  V30 900 N 85.7298 1.2412 0.971189 0
M  V30 901 C 86.6398 1.04747 2.09917 0
M  V30 902 C 87.6558 -0.0107162 1.73997 0
M  V30 903 O 88.8318 0.186714 2.00533 0
M  V30 904 C 85.8968 0.650828 3.40537 0
M  V30 905 C 84.9578 1.7851 3.90426 0
M  V30 906 C 84.1908 1.40729 5.14812 0
M  V30 907 O 84.4138 0.29557 5.69634 0
M  V30 908 O 83.3478 2.23168 5.58999 0
M  V30 909 H 87.1738 1.99304 2.29154 0
M  V30 910 H 84.7588 1.02908 1.08307 0
M  V30 911 H 86.6408 0.440992 4.19086 0
M  V30 912 H 85.3158 -0.265649 3.22608 0
M  V30 913 H 84.2228 2.04966 3.12953 0
M  V30 914 H 85.5558 2.68023 4.12825 0
M  V30 915 N 87.2079 -1.17134 1.05439 0
M  V30 916 C 88.1399 -2.2078 0.615539 0
M  V30 917 C 89.1529 -1.59584 -0.322001 0
M  V30 918 O 90.3419 -1.78133 -0.114344 0
M  V30 919 C 87.4419 -3.38691 -0.118938 0
M  V30 920 C 86.6149 -4.29454 0.829924 0
M  V30 921 C 85.6739 -5.26024 0.136258 0
M  V30 922 O 84.6999 -5.63952 0.77115 0
M  V30 923 N 85.9019 -5.69487 -1.1254 0
M  V30 924 H 88.6669 -2.59052 1.50705 0
M  V30 925 H 86.2279 -1.32058 0.936603 0
M  V30 926 H 88.2199 -4.00329 -0.593179 0
M  V30 927 H 86.7899 -2.98996 -0.91215 0
M  V30 928 H 86.0099 -3.65211 1.48373 0
M  V30 929 H 87.2979 -4.86984 1.47392 0
M  V30 930 H 86.6959 -5.4075 -1.6615 0
M  V30 931 H 85.2529 -6.33257 -1.54366 0
M  V30 932 N 88.686 -0.835752 -1.33615 0
M  V30 933 C 89.932 -0.430596 -1.98176 0
M  V30 934 C 90.265 1.00684 -1.66061 0
M  V30 935 O 89.54 1.70339 -0.938877 0
M  V30 936 C 89.823 -0.648065 -3.5422 0
M  V30 937 C 89.676 -2.13255 -3.96033 0
M  V30 938 C 90.995 -0.0922113 -4.40003 0
M  V30 939 H 88.114 -0.157924 -0.719881 0
M  V30 940 H 90.756 -1.05069 -1.58305 0
M  V30 941 H 88.906 -0.120237 -3.88314 0
M  V30 942 H 90.578 -2.725 -3.72211 0
M  V30 943 H 88.821 -2.61823 -3.45878 0
M  V30 944 H 89.492 -2.23547 -5.04708 0
M  V30 945 H 91.968 -0.543343 -4.12537 0
M  V30 946 H 90.844 -0.274083 -5.48215 0
M  V30 947 H 91.105 1.00378 -4.30554 0
M  V30 948 N 90.1641 1.46063 -0.591896 0
M  V30 949 C 91.4121 2.01938 -0.0808391 0
M  V30 950 C 91.7331 1.46475 1.28725 0
M  V30 951 O 91.0031 0.652944 1.84698 0
M  V30 952 H 89.5831 0.746516 -0.0268938 0
M  V30 953 H 92.2451 1.79055 -0.769752 0
M  V30 954 H 91.3411 3.12094 -0.0187578 0
M  V30 955 N 91.6422 0.330177 1.54103 0
M  V30 956 C 92.5722 -0.525353 2.27513 0
M  V30 957 C 93.5532 -1.11383 1.2856 0
M  V30 958 O 94.7382 -1.13773 1.57383 0
M  V30 959 C 91.8682 -1.6831 3.03791 0
M  V30 960 C 90.8222 -1.2236 4.10137 0
M  V30 961 C 90.1482 -2.46882 4.74293 0
M  V30 962 C 91.4482 -0.333697 5.21233 0
M  V30 963 H 93.1422 0.087013 2.99274 0
M  V30 964 H 90.6882 0.0432893 1.43935 0
M  V30 965 H 92.6412 -2.28795 3.5388 0
M  V30 966 H 91.3652 -2.32216 2.29659 0
M  V30 967 H 90.0242 -0.64165 3.60941 0
M  V30 968 H 89.6722 -3.09165 3.96769 0
M  V30 969 H 89.3722 -2.16825 5.46133 0
M  V30 970 H 90.8962 -3.08117 5.27159 0
M  V30 971 H 92.3102 -0.845013 5.67038 0
M  V30 972 H 90.7072 -0.125612 5.99969 0
M  V30 973 H 91.7772 0.633724 4.80741 0
M  V30 974 N 93.1203 -1.57491 0.0584922 0
M  V30 975 C 94.0833 -2.1085 -0.898617 0
M  V30 976 C 95.0833 -1.02964 -1.23511 0
M  V30 977 O 96.2733 -1.29007 -1.17059 0
M  V30 978 C 93.4053 -2.59881 -2.20623 0
M  V30 979 H 94.5983 -2.96715 -0.435936 0
M  V30 980 H 92.1513 -1.55141 -0.190023 0
M  V30 981 H 92.8863 -1.77431 -2.71457 0
M  V30 982 H 92.6713 -3.38727 -1.97501 0
M  V30 983 H 94.1613 -3.01285 -2.89166 0
M  V30 984 N 94.5984 0.214957 -1.56127 0
M  V30 985 C 95.8474 0.936451 -1.78643 0
M  V30 986 C 96.1604 1.85237 -0.628229 0
M  V30 987 O 97.3664 2.613 -0.737186 0
M  V30 988 C 95.8224 1.7154 -3.16389 0
M  V30 989 C 95.4304 0.845299 -4.39953 0
M  V30 990 C 97.1744 2.42772 -3.48227 0
M  V30 991 C 95.0814 1.62198 -5.68723 0
M  V30 992 H 94.0114 0.353401 -0.666051 0
M  V30 993 H 96.6624 0.190169 -1.82512 0
M  V30 994 H 95.0444 2.50484 -3.06715 0
M  V30 995 H 96.2184 0.0959353 -4.607 0
M  V30 996 H 94.5334 0.244789 -4.1568 0
M  V30 997 H 97.1304 3.01394 -4.41663 0
M  V30 998 H 97.4734 3.15984 -2.71035 0
M  V30 999 H 98.0064 1.70813 -3.5926 0
M  V30 1000 H 94.7454 0.933011 -6.48826 0
M  V30 1001 H 94.2654 2.34579 -5.52026 0
M  V30 1002 H 95.9444 2.18095 -6.09133 0
M  V30 1003 N 96.0765 1.50051 0.48192 0
M  V30 1004 C 97.4925 1.37237 0.814756 0
M  V30 1005 C 97.6925 0.420109 1.97072 0
M  V30 1006 O 96.7485 -0.141246 2.52105 0
M  V30 1007 C 98.0615 2.78375 1.13701 0
M  V30 1008 C 99.6095 2.87213 1.2441 0
M  V30 1009 C 100.084 4.29161 1.59954 0
M  V30 1010 N 101.575 4.32061 1.66967 0
M  V30 1011 C 102.31 5.38879 1.95952 0
M  V30 1012 N 101.806 6.55918 2.23031 0
M  V30 1013 N 103.599 5.26312 1.97363 0
M  V30 1014 H 95.7505 2.10546 -0.28005 0
M  V30 1015 H 98.0135 0.945921 -0.0627454 0
M  V30 1016 H 97.7195 3.49845 0.360787 0
M  V30 1017 H 97.5935 3.14941 2.07586 0
M  V30 1018 H 99.9805 2.15969 2.01101 0
M  V30 1019 H 100.061 2.54204 0.285299 0
M  V30 1020 H 99.7055 5.00938 0.838067 0
M  V30 1021 H 99.6355 4.59648 2.56966 0
M  V30 1022 H 102.126 3.47661 1.48123 0
M  V30 1023 H 102.439 7.33139 2.44391 0
M  V30 1024 H 100.784 6.59112 2.20447 0
M  V30 1025 H 103.975 4.33876 1.75697 0
M  V30 1026 H 104.148 6.09649 2.19618 0
M  V30 1027 N 97.5546 -0.734337 1.39446 0
M  V30 1028 C 98.7796 -1.52866 1.40167 0
M  V30 1029 C 99.2046 -1.881 -0.00171513 0
M  V30 1030 O 98.5626 -1.51957 -0.988879 0
M  V30 1031 C 98.6106 -2.79235 2.28167 0
M  V30 1032 O 97.7146 -3.75185 1.71201 0
M  V30 1033 H 97.0556 -0.461618 0.477289 0
M  V30 1034 H 99.5856 -0.905949 1.8345 0
M  V30 1035 H 99.5956 -3.27963 2.42702 0
M  V30 1036 H 98.2706 -2.52923 3.30156 0
M  V30 1037 H 96.8476 -3.33958 1.65912 0
M  V30 1038 N 99.0327 -1.24633 -0.964593 0
M  V30 1039 C 99.9797 -1.04144 -2.05968 0
M  V30 1040 C 100.95 0.046262 -1.66036 0
M  V30 1041 O 102.135 -0.108972 -1.90489 0
M  V30 1042 C 99.2747 -0.65563 -3.38815 0
M  V30 1043 C 98.3877 -1.81714 -3.91923 0
M  V30 1044 C 97.5227 -1.37662 -5.13052 0
M  V30 1045 C 96.5617 -2.50788 -5.58365 0
M  V30 1046 N 95.6987 -2.07582 -6.70712 0
M  V30 1047 H 100.539 -1.9787 -2.22827 0
M  V30 1048 H 98.0757 -0.9855 -1.09208 0
M  V30 1049 H 100.034 -0.412954 -4.15151 0
M  V30 1050 H 98.6637 0.244627 -3.21872 0
M  V30 1051 H 97.7157 -2.1734 -3.12198 0
M  V30 1052 H 99.0277 -2.66705 -4.21509 0
M  V30 1053 H 98.1817 -1.093 -5.96773 0
M  V30 1054 H 96.9207 -0.497293 -4.85158 0
M  V30 1055 H 95.9257 -2.79906 -4.73215 0
M  V30 1056 H 97.1507 -3.39283 -5.88272 0
M  V30 1057 H 95.0967 -1.22051 -6.44546 0
M  V30 1058 H 95.0137 -2.86125 -6.99763 0
M  V30 1059 H 96.2817 -1.82369 -7.57867 0
M  V30 1060 N 100.511 1.16574 -1.06058 0
M  V30 1061 C 101.76 1.86385 -0.770944 0
M  V30 1062 C 102.073 1.82448 0.705129 0
M  V30 1063 O 103.279 2.47815 1.10905 0
M  V30 1064 C 101.735 3.34466 -1.32893 0
M  V30 1065 C 101.343 3.46883 -2.83507 0
M  V30 1066 C 103.087 4.09548 -1.11672 0
M  V30 1067 C 100.994 4.89036 -3.32562 0
M  V30 1068 H 99.9238 0.698181 -0.284709 0
M  V30 1069 H 102.575 1.31583 -1.27899 0
M  V30 1070 H 100.957 3.88859 -0.748662 0
M  V30 1071 H 102.131 3.02663 -3.47465 0
M  V30 1072 H 100.446 2.85232 -3.03368 0
M  V30 1073 H 103.043 5.14434 -1.45814 0
M  V30 1074 H 103.386 4.16264 -0.0549535 0
M  V30 1075 H 103.919 3.61387 -1.66265 0
M  V30 1076 H 100.658 4.87499 -4.38207 0
M  V30 1077 H 100.178 5.3389 -2.73351 0
M  V30 1078 H 101.857 5.57843 -3.2775 0
M  V30 1079 N 101.989 0.842826 1.3317 0
M  V30 1080 C 102.952 0.284065 2.27433 0
M  V30 1081 C 103.952 -0.54948 1.5112 0
M  V30 1082 O 105.142 -0.362699 1.70382 0
M  V30 1083 C 102.274 -0.599384 3.35589 0
M  V30 1084 H 103.467 1.11589 2.78366 0
M  V30 1085 H 101.02 0.616221 1.4364 0
M  V30 1086 H 101.755 -1.45349 2.89904 0
M  V30 1087 H 101.54 -0.00291266 3.921 0
M  V30 1088 H 103.03 -0.983488 4.05854 0
M  V30 1089 N 103.467 -1.45747 0.599634 0
M  V30 1090 C 104.744 -1.95585 0.0240846 0
M  V30 1091 C 105.124 -1.54217 -1.44154 0
M  V30 1092 O 104.472 -0.800903 -2.14004 0
M  V30 1093 C 104.682 -3.48344 0.21385 0
M  V30 1094 C 106.03 -4.24504 0.0904902 0
M  V30 1095 O 107.054 -3.55911 0.143558 0
M  V30 1096 O 105.913 -5.46491 -0.0310766 0
M  V30 1097 H 103.007 -0.82602 -0.0402478 0
M  V30 1098 H 105.553 -1.55951 0.669139 0
M  V30 1099 H 104.325 -3.71397 1.23206 0
M  V30 1100 H 103.948 -3.9485 -0.466842 0
M  V30 1101 N 104.945 -0.338344 -1.53925 0
M  V30 1102 C 106.193 0.259245 -2.0043 0
M  V30 1103 C 106.514 1.51484 -1.22791 0
M  V30 1104 O 105.784 1.93037 -0.33368 0
M  V30 1105 H 104.364 0.0987845 -0.740439 0
M  V30 1106 H 107.026 -0.458302 -1.89435 0
M  V30 1107 H 106.122 0.505334 -3.07982 0
M  V30 1108 N 106.423 1.57458 -0.0668435 0
M  V30 1109 C 107.648 1.9804 0.616027 0
M  V30 1110 C 108.073 0.944771 1.62652 0
M  V30 1111 O 107.431 -0.0902094 1.81075 0
M  V30 1112 C 107.479 3.37665 1.26549 0
M  V30 1113 O 106.583 3.36701 2.38131 0
M  V30 1114 H 105.924 0.644719 0.158849 0
M  V30 1115 H 108.454 2.04121 -0.139891 0
M  V30 1116 H 108.464 3.7474 1.6135 0
M  V30 1117 H 107.139 4.12573 0.525016 0
M  V30 1118 H 105.716 3.1139 2.0516 0
M  V30 1119 N 107.901 -0.206675 1.56239 0
M  V30 1120 C 109.147 -0.930218 1.80208 0
M  V30 1121 C 109.48 -1.83387 0.638981 0
M  V30 1122 O 108.755 -1.91119 -0.361066 0
M  V30 1123 C 109.038 -1.75641 3.1436 0
M  V30 1124 C 108.891 -0.878257 4.41142 0
M  V30 1125 C 110.21 -2.73129 3.45092 0
M  V30 1126 H 107.329 -0.336742 0.655571 0
M  V30 1127 H 109.971 -0.198222 1.88963 0
M  V30 1128 H 108.121 -2.38048 3.07027 0
M  V30 1129 H 109.793 -0.269787 4.6051 0
M  V30 1130 H 108.036 -0.184385 4.33408 0
M  V30 1131 H 108.707 -1.49106 5.3148 0
M  V30 1132 H 111.183 -2.20856 3.52649 0
M  V30 1133 H 110.059 -3.28028 4.40101 0
M  V30 1134 H 110.32 -3.51606 2.68003 0
M  V30 1135 N 109.379 -1.50304 -0.473955 0
M  V30 1136 C 110.326 -1.68959 -1.57231 0
M  V30 1137 C 111.296 -0.530899 -1.57387 0
M  V30 1138 O 112.481 -0.761133 -1.74961 0
M  V30 1139 C 109.621 -1.7871 -2.95223 0
M  V30 1140 C 108.734 -3.06061 -3.04878 0
M  V30 1141 C 107.869 -3.06626 -4.33767 0
M  V30 1142 C 106.908 -4.28443 -4.37154 0
M  V30 1143 N 106.045 -4.26763 -5.5751 0
M  V30 1144 H 110.885 -2.6273 -1.40631 0
M  V30 1145 H 108.422 -1.30241 -0.683789 0
M  V30 1146 H 110.38 -1.82344 -3.75242 0
M  V30 1147 H 109.01 -0.883806 -3.10465 0
M  V30 1148 H 108.062 -3.11911 -2.17751 0
M  V30 1149 H 109.374 -3.96039 -3.0324 0
M  V30 1150 H 108.528 -3.08973 -5.22131 0
M  V30 1151 H 107.267 -2.14473 -4.3801 0
M  V30 1152 H 106.272 -4.2631 -3.47188 0
M  V30 1153 H 107.497 -5.2182 -4.34605 0
M  V30 1154 H 105.443 -3.37462 -5.62544 0
M  V30 1155 H 105.36 -5.10507 -5.57601 0
M  V30 1156 H 106.628 -4.33253 -6.48006 0
M  V30 1157 N 110.857 0.726932 -1.39834 0
M  V30 1158 C 112.273 1.03354 -1.21615 0
M  V30 1159 C 112.473 2.01327 -0.08338 0
M  V30 1160 O 111.529 2.46158 0.56238 0
M  V30 1161 C 112.842 1.58811 -2.55342 0
M  V30 1162 C 114.39 1.70851 -2.62257 0
M  V30 1163 C 114.865 2.29716 -3.96225 0
M  V30 1164 N 116.356 2.37116 -3.97907 0
M  V30 1165 C 117.091 2.83619 -4.98345 0
M  V30 1166 N 116.587 3.29958 -6.09179 0
M  V30 1167 N 118.38 2.82901 -4.8572 0
M  V30 1168 H 110.531 0.0773069 -2.12259 0
M  V30 1169 H 112.794 0.0969102 -0.943034 0
M  V30 1170 H 112.5 0.942855 -3.38826 0
M  V30 1171 H 112.374 2.57502 -2.75632 0
M  V30 1172 H 114.761 2.34497 -1.79152 0
M  V30 1173 H 114.842 0.707913 -2.45809 0
M  V30 1174 H 114.486 1.66696 -4.79765 0
M  V30 1175 H 114.416 3.30469 -4.09997 0
M  V30 1176 H 116.907 2.04374 -3.17868 0
M  V30 1177 H 117.22 3.63976 -6.8172 0
M  V30 1178 H 115.565 3.27946 -6.12761 0
M  V30 1179 H 118.756 2.46027 -3.98231 0
M  V30 1180 H 118.929 3.18827 -5.6414 0
M  V30 1181 N 112.336 1.25143 0.95797 0
M  V30 1182 C 113.246 1.06968 2.08794 0
M  V30 1183 C 114.262 0.00773911 1.73998 0
M  V30 1184 O 115.438 0.207972 2.00323 0
M  V30 1185 C 112.503 0.68691 3.39827 0
M  V30 1186 C 111.564 1.82641 3.88511 0
M  V30 1187 C 110.797 1.46181 5.1329 0
M  V30 1188 O 111.02 0.355971 5.69288 0
M  V30 1189 O 109.954 2.29085 5.566 0
M  V30 1190 H 113.78 2.01723 2.27027 0
M  V30 1191 H 111.365 1.04051 1.07209 0
M  V30 1192 H 113.247 0.485417 4.18595 0
M  V30 1193 H 111.922 -0.231417 3.22872 0
M  V30 1194 H 110.829 2.08274 3.10762 0
M  V30 1195 H 112.162 2.72386 4.09959 0
M  V30 1196 N 113.814 -1.1601 1.06675 0
M  V30 1197 C 115.091 -1.82679 0.699114 0
M  V30 1198 C 115.471 -1.94559 -0.819137 0
M  V30 1199 O 114.819 -1.49169 -1.73092 0
M  V30 1200 C 115.029 -3.19445 1.40555 0
M  V30 1201 C 116.377 -3.95171 1.55323 0
M  V30 1202 O 117.401 -3.28976 1.36577 0
M  V30 1203 O 116.26 -5.13833 1.86112 0
M  V30 1204 H 113.354 -0.788954 0.247951 0
M  V30 1205 H 115.9 -1.23179 1.16726 0
M  V30 1206 H 114.672 -3.05856 2.44065 0
M  V30 1207 H 114.295 -3.86625 0.927733 0
M  V30 1208 N 115.292 -0.849877 -1.32721 0
M  V30 1209 C 116.541 -0.447175 -1.96681 0
M  V30 1210 C 116.854 1.00135 -1.68025 0
M  V30 1211 O 118.06 1.50926 -2.25685 0
M  V30 1212 C 116.516 -0.7487 -3.52026 0
M  V30 1213 C 116.124 -2.21264 -3.89546 0
M  V30 1214 C 117.868 -0.413487 -4.22481 0
M  V30 1215 C 115.775 -2.45763 -5.37917 0
M  V30 1216 H 114.705 -0.163486 -0.736063 0
M  V30 1217 H 117.356 -1.03999 -1.51183 0
M  V30 1218 H 115.738 -0.0853727 -3.95908 0
M  V30 1219 H 116.912 -2.91736 -3.56689 0
M  V30 1220 H 115.227 -2.5119 -3.32103 0
M  V30 1221 H 117.824 -0.574017 -5.3161 0
M  V30 1222 H 118.167 0.644492 -4.11281 0
M  V30 1223 H 118.7 -1.03251 -3.84167 0
M  V30 1224 H 115.439 -3.50168 -5.54132 0
M  V30 1225 H 114.959 -1.79864 -5.72197 0
M  V30 1226 H 116.638 -2.29471 -6.0494 0
M  V30 1227 N 116.77 1.45427 -0.607355 0
M  V30 1228 C 118.017 2.02241 -0.102455 0
M  V30 1229 C 118.345 1.4758 1.26691 0
M  V30 1230 O 117.6 0.640468 1.84923 0
M  V30 1231 C 117.899 3.57398 -0.0129263 0
M  V30 1232 C 117.565 4.3121 -1.31792 0
M  V30 1233 C 116.227 4.51092 -1.67539 0
M  V30 1234 C 118.579 4.73401 -2.18039 0
M  V30 1235 C 115.907 5.10422 -2.89285 0
M  V30 1236 C 118.259 5.34078 -3.39034 0
M  V30 1237 C 116.923 5.52184 -3.75033 0
M  V30 1238 H 116.193 0.740051 -0.037491 0
M  V30 1239 H 118.84 1.74494 -0.788926 0
M  V30 1240 H 117.145 3.84421 0.756806 0
M  V30 1241 H 118.842 3.99061 0.393881 0
M  V30 1242 H 115.432 4.16047 -1.02968 0
M  V30 1243 H 119.616 4.57774 -1.91721 0
M  V30 1244 H 114.872 5.22629 -3.17283 0
M  V30 1245 H 119.046 5.65724 -4.06115 0
M  V30 1246 H 116.673 5.97925 -4.69457 0
M  V30 1247 N 118.248 0.346503 1.53744 0
M  V30 1248 C 119.478 -0.250047 2.05081 0
M  V30 1249 C 119.886 -1.44529 1.22098 0
M  V30 1250 O 119.229 -1.81992 0.249917 0
M  V30 1251 C 119.291 -0.725934 3.52094 0
M  V30 1252 C 118.955 0.350053 4.55657 0
M  V30 1253 C 119.952 1.19372 5.0601 0
M  V30 1254 C 117.637 0.504827 4.99757 0
M  V30 1255 C 119.631 2.17768 5.99046 0
M  V30 1256 C 117.318 1.49218 5.92602 0
M  V30 1257 C 118.316 2.32706 6.42135 0
M  V30 1258 O 118.004 3.2976 7.33153 0
M  V30 1259 H 117.736 -0.0515469 0.674032 0
M  V30 1260 H 120.29 0.497559 1.99282 0
M  V30 1261 H 118.52 -1.52483 3.55367 0
M  V30 1262 H 120.209 -1.24336 3.86388 0
M  V30 1263 H 120.975 1.08525 4.72702 0
M  V30 1264 H 116.854 -0.135178 4.60802 0
M  V30 1265 H 120.398 2.82971 6.37631 0
M  V30 1266 H 116.295 1.6012 6.25325 0
M  V30 1267 H 117.063 3.25265 7.51096 0
M  V30 1268 N 119.726 -1.57421 0.075193 0
M  V30 1269 C 120.954 -1.97946 -0.602076 0
M  V30 1270 C 121.369 -0.953674 -1.62943 0
M  V30 1271 O 120.726 0.0592551 -1.82404 0
M  V30 1272 C 120.777 -3.38546 -1.26762 0
M  V30 1273 O 120.498 -4.37195 -0.281376 0
M  V30 1274 C 121.999 -3.93966 -2.03239 0
M  V30 1275 H 119.219 -0.650918 -0.162931 0
M  V30 1276 H 121.763 -2.03959 0.148601 0
M  V30 1277 H 119.918 -3.33609 -1.96936 0
M  V30 1278 H 120.332 -5.18975 -0.759267 0
M  V30 1279 H 121.806 -4.94555 -2.45193 0
M  V30 1280 H 122.283 -3.30693 -2.8903 0
M  V30 1281 H 122.889 -4.02315 -1.37924 0
M  V30 1282 N 121.204 0.198386 -1.56346 0
M  V30 1283 C 122.429 0.939682 -1.84891 0
M  V30 1284 C 122.854 1.76202 -0.658369 0
M  V30 1285 O 122.212 1.76993 0.392851 0
M  V30 1286 C 122.26 1.81428 -3.11635 0
M  V30 1287 O 121.364 2.91265 -2.91956 0
M  V30 1288 H 120.705 0.264807 -0.608912 0
M  V30 1289 H 123.235 0.204695 -2.03573 0
M  V30 1290 H 123.245 2.21958 -3.42343 0
M  V30 1291 H 121.92 1.21004 -3.97908 0
M  V30 1292 H 120.497 2.54514 -2.72538 0
M  V30 1293 N 122.682 1.50554 0.465978 0
M  V30 1294 C 123.629 1.6979 1.56333 0
M  V30 1295 C 124.599 0.539239 1.57103 0
M  V30 1296 O 125.784 0.770401 1.74555 0
M  V30 1297 C 122.924 1.80273 2.94271 0
M  V30 1298 C 122.037 3.07674 3.0325 0
M  V30 1299 C 121.172 3.08922 4.32135 0
M  V30 1300 C 120.211 4.30755 4.34875 0
M  V30 1301 N 119.348 4.29714 5.55239 0
M  V30 1302 H 124.188 2.63472 1.39235 0
M  V30 1303 H 121.725 1.30602 0.676873 0
M  V30 1304 H 123.683 1.84332 3.74269 0
M  V30 1305 H 122.313 0.900258 3.09992 0
M  V30 1306 H 121.365 3.13062 2.16094 0
M  V30 1307 H 122.677 3.97642 3.01135 0
M  V30 1308 H 121.831 3.11738 5.20485 0
M  V30 1309 H 120.57 2.16792 4.36866 0
M  V30 1310 H 119.575 4.28146 3.44922 0
M  V30 1311 H 120.8 5.24117 4.31831 0
M  V30 1312 H 118.746 3.4044 5.60746 0
M  V30 1313 H 118.663 5.13456 5.54886 0
M  V30 1314 H 119.931 4.36683 6.457 0
M  V30 1315 N 124.16 -0.719506 1.40217 0
M  V30 1316 C 125.09 -1.8465 1.42922 0
M  V30 1317 C 126.071 -1.67599 0.29062 0
M  V30 1318 O 127.256 -1.87688 0.498677 0
M  V30 1319 C 124.386 -3.22565 1.28722 0
M  V30 1320 C 123.34 -3.54281 2.40144 0
M  V30 1321 C 122.666 -4.91298 2.11023 0
M  V30 1322 C 123.966 -3.55676 3.82481 0
M  V30 1323 H 125.66 -1.82644 2.37237 0
M  V30 1324 H 123.206 -0.877305 1.1419 0
M  V30 1325 H 125.159 -4.01095 1.29232 0
M  V30 1326 H 123.883 -3.25137 0.308811 0
M  V30 1327 H 122.542 -2.78088 2.38877 0
M  V30 1328 H 122.19 -4.90468 1.11582 0
M  V30 1329 H 121.89 -5.13485 2.8567 0
M  V30 1330 H 123.414 -5.72166 2.13209 0
M  V30 1331 H 124.828 -4.24254 3.85592 0
M  V30 1332 H 123.225 -3.89388 4.56614 0
M  V30 1333 H 124.295 -2.55144 4.12346 0
M  V30 1334 N 125.638 -1.25649 -0.95132 0
M  V30 1335 C 126.884 -1.11766 -1.69941 0
M  V30 1336 C 127.239 0.33735 -1.89419 0
M  V30 1337 O 126.532 1.24491 -1.45645 0
M  V30 1338 C 126.726 -1.80909 -3.08231 0
M  V30 1339 C 126.555 -3.32984 -3.02245 0
M  V30 1340 C 125.325 -4.02247 -3.05819 0
M  V30 1341 C 127.523 -4.29332 -2.83157 0
M  V30 1342 N 125.505 -5.41072 -2.90024 0
M  V30 1343 C 126.876 -5.55265 -2.75828 0
M  V30 1344 C 128.931 -4.19707 -2.67863 0
M  V30 1345 C 127.634 -6.72671 -2.54767 0
M  V30 1346 C 129.66 -5.36809 -2.48173 0
M  V30 1347 C 129.022 -6.61683 -2.41567 0
M  V30 1348 H 125.121 -0.463708 -0.629682 0
M  V30 1349 H 127.705 -1.58796 -1.12659 0
M  V30 1350 H 125.876 -1.36369 -3.63673 0
M  V30 1351 H 127.608 -1.59739 -3.71841 0
M  V30 1352 H 124.363 -3.53531 -3.15139 0
M  V30 1353 H 124.787 -6.13938 -2.85323 0
M  V30 1354 H 129.429 -3.23907 -2.71743 0
M  V30 1355 H 127.147 -7.68577 -2.49629 0
M  V30 1356 H 130.733 -5.31224 -2.37259 0
M  V30 1357 H 129.613 -7.50768 -2.26531 0
M  V30 1358 N 127.117 1.15442 -1.07289 0
M  V30 1359 C 128.342 1.90638 -0.816828 0
M  V30 1360 C 128.767 1.77445 0.624083 0
M  V30 1361 O 128.125 1.10671 1.43602 0
M  V30 1362 C 128.173 3.39008 -1.22906 0
M  V30 1363 O 127.277 4.10701 -0.373975 0
M  V30 1364 H 126.618 0.593555 -0.297638 0
M  V30 1365 H 129.148 1.46198 -1.43134 0
M  V30 1366 H 129.158 3.89801 -1.20497 0
M  V30 1367 H 127.833 3.47929 -2.27856 0
M  V30 1368 H 126.41 3.70046 -0.460499 0
M  V30 1369 N 128.595 0.856903 1.32268 0
M  V30 1370 C 129.823 0.475439 2.01363 0
M  V30 1371 C 130.238 -0.928486 1.64392 0
M  V30 1372 O 129.595 -1.60624 0.866387 0
M  V30 1373 C 129.646 0.607545 3.56358 0
M  V30 1374 O 129.367 1.95617 3.92002 0
M  V30 1375 C 130.868 0.225382 4.42727 0
M  V30 1376 H 128.088 0.186636 0.644521 0
M  V30 1377 H 130.632 1.15446 1.68797 0
M  V30 1378 H 128.787 -0.0237719 3.87393 0
M  V30 1379 H 129.201 1.95455 4.86721 0
M  V30 1380 H 130.675 0.368813 5.50767 0
M  V30 1381 H 131.152 -0.834369 4.31202 0
M  V30 1382 H 131.758 0.831864 4.17085 0
M  V30 1383 N 130.073 -1.45103 0.615059 0
M  V30 1384 C 131.32 -2.02183 0.113179 0
M  V30 1385 C 131.648 -1.48249 -1.25906 0
M  V30 1386 O 130.903 -0.650265 -1.84581 0
M  V30 1387 C 131.202 -3.57386 0.0318797 0
M  V30 1388 C 130.868 -4.30505 1.34077 0
M  V30 1389 C 129.53 -4.50197 1.69929 0
M  V30 1390 C 131.882 -4.72238 2.20546 0
M  V30 1391 C 129.21 -5.08881 2.91988 0
M  V30 1392 C 131.562 -5.32272 3.41861 0
M  V30 1393 C 130.226 -5.50187 3.77956 0
M  V30 1394 H 129.496 -0.739842 0.0414151 0
M  V30 1395 H 132.143 -1.74073 0.798168 0
M  V30 1396 H 130.448 -3.84817 -0.736409 0
M  V30 1397 H 132.145 -3.99264 -0.372712 0
M  V30 1398 H 128.735 -4.15496 1.05173 0
M  V30 1399 H 132.919 -4.56751 1.94146 0
M  V30 1400 H 128.175 -5.20939 3.2005 0
M  V30 1401 H 132.349 -5.63563 4.09109 0
M  V30 1402 H 129.976 -5.95427 4.72622 0
M  V30 1403 N 131.551 -0.354651 -1.53558 0
M  V30 1404 C 132.501 0.513179 -2.2215 0
M  V30 1405 C 133.485 1.05734 -1.21281 0
M  V30 1406 O 134.677 0.989202 -1.46778 0
M  V30 1407 C 131.806 1.65798 -3.00609 0
M  V30 1408 C 130.892 1.12722 -4.08845 0
M  V30 1409 N 131.283 0.318563 -5.04796 0
M  V30 1410 C 129.581 1.40307 -4.23356 0
M  V30 1411 C 130.282 0.0292224 -5.81693 0
M  V30 1412 N 129.258 0.623891 -5.40008 0
M  V30 1413 H 133.06 -0.111586 -2.93688 0
M  V30 1414 H 130.574 -0.162091 -1.61589 0
M  V30 1415 H 132.571 2.29176 -3.48258 0
M  V30 1416 H 131.231 2.28591 -2.306 0
M  V30 1417 H 132.242 -0.0413091 -5.17884 0
M  V30 1418 H 128.919 2.03458 -3.6457 0
M  V30 1419 H 130.309 -0.623808 -6.68998 0
M  V30 1420 N 133.029 1.57378 -0.0835403 0
M  V30 1421 C 134.445 1.57246 0.273109 0
M  V30 1422 C 134.645 1.09385 1.69225 0
M  V30 1423 O 133.701 0.765051 2.40631 0
M  V30 1424 C 135.014 3.00614 0.0720628 0
M  V30 1425 C 136.562 3.12684 0.1407 0
M  V30 1426 C 137.037 4.57989 -0.0322094 0
M  V30 1427 N 138.528 4.63194 0.0230085 0
M  V30 1428 C 139.263 5.73335 -0.0861941 0
M  V30 1429 N 138.759 6.9235 -0.24958 0
M  V30 1430 N 140.552 5.62093 -0.0282886 0
M  V30 1431 H 132.703 1.86801 -1.0109 0
M  V30 1432 H 134.966 0.861687 -0.395222 0
M  V30 1433 H 134.672 3.39786 -0.907662 0
M  V30 1434 H 134.546 3.68193 0.81936 0
M  V30 1435 H 136.933 2.73391 1.11092 0
M  V30 1436 H 137.014 2.47719 -0.637896 0
M  V30 1437 H 136.658 4.97973 -0.999247 0
M  V30 1438 H 136.588 5.21 0.765937 0
M  V30 1439 H 139.079 3.77613 0.14722 0
M  V30 1440 H 139.392 7.72117 -0.324733 0
M  V30 1441 H 137.737 6.94415 -0.285097 0
M  V30 1442 H 140.928 4.67997 0.0981408 0
M  V30 1443 H 141.101 6.47895 -0.116845 0
M  V30 1444 N 134.507 -0.190092 1.56449 0
M  V30 1445 C 135.918 -0.754312 1.70784 0
M  V30 1446 C 136.269 -1.83631 0.690951 0
M  V30 1447 O 135.394 -2.15868 -0.151604 0
M  V30 1448 C 135.989 -1.37503 3.09642 0
M  V30 1449 C 134.548 -1.88628 3.25725 0
M  V30 1450 C 133.695 -0.758098 2.66736 0
M  V30 1451 H 136.646 0.0350524 1.58661 0
M  V30 1452 H 136.667 -2.2445 3.0725 0
M  V30 1453 H 136.179 -0.587302 3.83631 0
M  V30 1454 H 134.28 -2.70103 2.56661 0
M  V30 1455 H 134.393 -2.04462 4.3328 0
M  V30 1456 H 132.757 -1.17369 2.26046 0
M  V30 1457 H 133.54 0.0174705 3.43296 0
M  V30 1458 N 135.985 -1.50799 -0.457987 0
M  V30 1459 C 136.895 -1.73426 -1.57989 0
M  V30 1460 C 137.911 -0.617745 -1.62665 0
M  V30 1461 O 139.087 -0.897614 -1.80291 0
M  V30 1462 C 136.152 -1.83557 -2.94122 0
M  V30 1463 C 135.213 -3.07345 -2.99729 0
M  V30 1464 C 134.446 -3.16983 -4.29368 0
M  V30 1465 O 134.669 -2.33077 -5.20607 0
M  V30 1466 O 133.603 -4.09812 -4.40837 0
M  V30 1467 H 137.429 -2.68555 -1.41817 0
M  V30 1468 H 135.014 -1.35052 -0.638859 0
M  V30 1469 H 136.896 -1.92326 -3.74952 0
M  V30 1470 H 135.571 -0.916137 -3.10465 0
M  V30 1471 H 134.478 -3.04068 -2.1793 0
M  V30 1472 H 135.811 -3.9891 -2.88326 0
M  V30 1473 N 137.463 0.71206 -1.40597 0
M  V30 1474 C 138.393 1.83889 -1.43899 0
M  V30 1475 C 139.374 1.67442 -0.299504 0
M  V30 1476 O 140.559 1.87421 -0.508624 0
M  V30 1477 C 137.689 3.21877 -1.30431 0
M  V30 1478 C 136.643 3.53002 -2.42019 0
M  V30 1479 C 135.969 4.90172 -2.13626 0
M  V30 1480 C 137.269 3.53643 -3.84362 0
M  V30 1481 H 138.963 1.81383 -2.38203 0
M  V30 1482 H 136.509 0.871237 -1.14654 0
M  V30 1483 H 138.462 4.00404 -1.31357 0
M  V30 1484 H 137.186 3.24968 -0.326049 0
M  V30 1485 H 135.845 2.76818 -2.40349 0
M  V30 1486 H 135.493 4.89869 -1.14182 0
M  V30 1487 H 135.193 5.11962 -2.88389 0
M  V30 1488 H 136.717 5.71028 -2.1624 0
M  V30 1489 H 138.131 4.22203 -3.87837 0
M  V30 1490 H 136.528 3.86961 -4.58673 0
M  V30 1491 H 137.598 2.52954 -4.13693 0
M  V30 1492 N 138.941 1.26152 0.944643 0
M  V30 1493 C 140.187 1.11657 1.69294 0
M  V30 1494 C 140.52 -0.339926 1.91202 0
M  V30 1495 O 139.795 -1.24994 1.49019 0
M  V30 1496 C 140.078 1.88236 3.06984 0
M  V30 1497 C 139.931 3.41772 2.92424 0
M  V30 1498 C 141.25 1.67343 4.07043 0
M  V30 1499 H 138.369 0.407004 0.614424 0
M  V30 1500 H 141.011 1.55106 1.09737 0
M  V30 1501 H 139.161 1.51308 3.57824 0
M  V30 1502 H 140.833 3.88433 2.48832 0
M  V30 1503 H 139.076 3.68974 2.28124 0
M  V30 1504 H 139.747 3.90579 3.90067 0
M  V30 1505 H 142.223 1.99509 3.65151 0
M  V30 1506 H 141.099 2.23346 5.01406 0
M  V30 1507 H 141.36 0.617158 4.37771 0
M  V30 1508 N 140.419 -1.14872 1.07899 0
M  V30 1509 C 141.835 -1.37776 0.805606 0
M  V30 1510 C 142.035 -1.92743 -0.587555 0
M  V30 1511 O 141.091 -2.13678 -1.34528 0
M  V30 1512 C 142.404 -2.34361 1.88402 0
M  V30 1513 C 143.952 -2.48012 1.90942 0
M  V30 1514 C 144.427 -3.47893 2.97883 0
M  V30 1515 N 145.918 -3.55433 2.97021 0
M  V30 1516 C 146.653 -4.32553 3.76412 0
M  V30 1517 N 146.149 -5.12959 4.65666 0
M  V30 1518 N 147.942 -4.27697 3.64735 0
M  V30 1519 H 140.093 -0.775365 1.97742 0
M  V30 1520 H 142.356 -0.403521 0.857831 0
M  V30 1521 H 142.062 -2.01098 2.88535 0
M  V30 1522 H 141.936 -3.34206 1.74889 0
M  V30 1523 H 144.323 -2.8057 0.914579 0
M  V30 1524 H 144.404 -1.48147 2.08534 0
M  V30 1525 H 144.048 -3.16069 3.97571 0
M  V30 1526 H 143.978 -4.47527 2.77538 0
M  V30 1527 H 146.469 -2.98048 2.32326 0
M  V30 1528 H 146.782 -5.69065 5.22862 0
M  V30 1529 H 145.127 -5.12245 4.69712 0
M  V30 1530 H 148.318 -3.63949 2.94378 0
M  V30 1531 H 148.491 -4.8755 4.26848 0
M  V30 1532 N 141.898 -0.863906 -1.31812 0
M  V30 1533 C 143.309 -0.52522 -1.7916 0
M  V30 1534 C 143.66 0.957518 -1.71248 0
M  V30 1535 O 142.785 1.74734 -1.27659 0
M  V30 1536 C 143.38 -0.9466 -3.25307 0
M  V30 1537 C 141.939 -0.659668 -3.70574 0
M  V30 1538 C 141.086 -1.14126 -2.52726 0
M  V30 1539 H 144.037 -1.05022 -1.1898 0
M  V30 1540 H 144.058 -0.266766 -3.79564 0
M  V30 1541 H 143.57 -2.02579 -3.31034 0
M  V30 1542 H 141.671 0.408416 -3.70355 0
M  V30 1543 H 141.784 -1.23245 -4.62977 0
M  V30 1544 H 140.148 -0.561216 -2.4844 0
M  V30 1545 H 140.931 -2.22775 -2.61201 0
M  V30 1546 N 143.376 1.44774 -0.622745 0
M  V30 1547 C 144.339 2.29069 0.0774015 0
M  V30 1548 C 145.339 1.4059 0.780461 0
M  V30 1549 O 146.529 1.62551 0.626322 0
M  V30 1550 C 143.661 3.21974 1.12006 0
M  V30 1551 H 144.854 2.92459 -0.663901 0
M  V30 1552 H 142.407 1.51548 -0.382486 0
M  V30 1553 H 143.142 2.63417 1.89162 0
M  V30 1554 H 142.927 3.87168 0.619951 0
M  V30 1555 H 144.417 3.85318 1.60995 0
M  V30 1556 N 144.854 0.36279 1.53368 0
M  V30 1557 C 145.784 -0.476976 2.28576 0
M  V30 1558 C 146.765 -1.08631 1.30894 0
M  V30 1559 O 147.95 -1.10409 1.59761 0
M  V30 1560 C 145.08 -1.61828 3.07293 0
M  V30 1561 C 144.034 -1.13633 4.1264 0
M  V30 1562 C 143.36 -2.36766 4.79423 0
M  V30 1563 C 144.66 -0.223061 5.21823 0
M  V30 1564 H 146.354 0.150474 2.99022 0
M  V30 1565 H 143.9 0.0738103 1.43811 0
M  V30 1566 H 145.853 -2.21237 3.58653 0
M  V30 1567 H 144.577 -2.27292 2.34533 0
M  V30 1568 H 143.236 -0.564945 3.62221 0
M  V30 1569 H 142.884 -3.0068 4.03238 0
M  V30 1570 H 142.584 -2.05192 5.50609 0
M  V30 1571 H 144.108 -2.96865 5.33576 0
M  V30 1572 H 145.522 -0.724545 5.68703 0
M  V30 1573 H 143.919 0.001678 6.001 0
M  V30 1574 H 144.989 0.735553 4.79289 0
M  V30 1575 N 146.332 -1.57332 0.0918853 0
M  V30 1576 C 147.242 -2.17368 -0.882505 0
M  V30 1577 C 148.258 -1.14226 -1.31257 0
M  V30 1578 O 149.434 -1.46582 -1.38115 0
M  V30 1579 C 146.499 -2.73962 -2.12476 0
M  V30 1580 C 145.56 -3.92048 -1.7492 0
M  V30 1581 C 144.793 -4.45933 -2.93223 0
M  V30 1582 O 145.016 -3.98764 -4.07852 0
M  V30 1583 O 143.95 -5.36999 -2.71875 0
M  V30 1584 H 147.776 -3.01031 -0.40172 0
M  V30 1585 H 145.361 -1.48813 -0.132291 0
M  V30 1586 H 147.243 -3.10147 -2.85283 0
M  V30 1587 H 145.918 -1.93347 -2.59613 0
M  V30 1588 H 144.825 -3.6068 -0.993025 0
M  V30 1589 H 146.158 -4.74017 -1.32548 0
M  V30 1590 N 147.81 0.181792 -1.56548 0
M  V30 1591 C 148.758 1.24461 -1.965 0
M  V30 1592 C 149.752 1.464 -0.852261 0
M  V30 1593 O 150.958 1.47103 -1.03733 0
M  V30 1594 H 147.333 0.418138 -0.625031 0
M  V30 1595 H 149.304 0.880714 -2.85107 0
M  V30 1596 C 148.053 2.57891 -2.33212 0
M  V30 1597 H 147.376 2.41829 -3.18369 0
M  V30 1598 H 148.816 3.3097 -2.65019 0
M  V30 1599 C 147.275 3.15871 -1.17163 0
M  V30 1600 O 147.805 3.9913 -0.453708 0
M  V30 1601 N 146.011 2.74808 -0.944936 0
M  V30 1602 H 145.558 2.07205 -1.53049 0
M  V30 1603 H 145.516 3.13939 -0.170286 0
M  V30 1604 N 149.288 1.51039 0.449983 0
M  V30 1605 C 150.513 1.6715 1.22783 0
M  V30 1606 C 150.938 0.363081 1.84563 0
M  V30 1607 O 150.296 -0.675433 1.68249 0
M  V30 1608 C 150.344 2.77985 2.29689 0
M  V30 1609 O 149.448 2.40707 3.34864 0
M  V30 1610 H 148.789 0.557746 0.360299 0
M  V30 1611 H 151.319 1.97535 0.533005 0
M  V30 1612 H 151.329 3.01693 2.74673 0
M  V30 1613 H 150.004 3.72935 1.84098 0
M  V30 1614 H 148.581 2.27523 2.95445 0
M  V30 1615 N 150.766 -0.704594 1.40972 0
M  V30 1616 C 151.696 -1.83124 1.44872 0
M  V30 1617 C 152.677 -1.67281 0.30838 0
M  V30 1618 O 153.862 -1.87149 0.518556 0
M  V30 1619 C 150.992 -3.21181 1.32136 0
M  V30 1620 C 149.946 -3.51714 2.43888 0
M  V30 1621 C 149.272 -4.89032 2.16222 0
M  V30 1622 C 150.572 -3.516 3.86232 0
M  V30 1623 H 152.266 -1.80117 2.39161 0
M  V30 1624 H 149.812 -0.865145 1.15114 0
M  V30 1625 H 151.765 -3.99702 1.33479 0
M  V30 1626 H 150.489 -3.24791 0.343279 0
M  V30 1627 H 149.148 -2.75539 2.41813 0
M  V30 1628 H 148.796 -4.89256 1.16778 0
M  V30 1629 H 148.496 -5.10426 2.911 0
M  V30 1630 H 150.02 -5.69873 2.19265 0
M  V30 1631 H 151.434 -4.2014 3.9007 0
M  V30 1632 H 149.831 -3.84523 4.60719 0
M  V30 1633 H 150.901 -2.50757 4.15029 0
M  V30 1634 N 152.244 -1.26651 -0.937939 0
M  V30 1635 C 153.191 -1.0849 -2.03712 0
M  V30 1636 C 154.161 0.011033 -1.66096 0
M  V30 1637 O 155.346 -0.149353 -1.90215 0
M  V30 1638 C 152.486 -0.72735 -3.37348 0
M  V30 1639 C 151.599 -1.89986 -3.87981 0
M  V30 1640 C 150.734 -1.48513 -5.10017 0
M  V30 1641 C 149.773 -2.62575 -5.5292 0
M  V30 1642 N 148.91 -2.21762 -6.66158 0
M  V30 1643 H 153.75 -2.02551 -2.18579 0
M  V30 1644 H 151.287 -1.00844 -1.07093 0
M  V30 1645 H 153.245 -0.50092 -4.14182 0
M  V30 1646 H 151.875 0.176298 -3.22318 0
M  V30 1647 H 150.927 -2.23913 -3.07518 0
M  V30 1648 H 152.239 -2.75586 -4.15757 0
M  V30 1649 H 151.393 -1.21934 -5.94321 0
M  V30 1650 H 150.132 -0.60009 -4.83994 0
M  V30 1651 H 149.137 -2.8988 -4.67172 0
M  V30 1652 H 150.362 -3.51685 -5.80943 0
M  V30 1653 H 148.308 -1.35696 -6.41812 0
M  V30 1654 H 148.225 -3.00903 -6.93537 0
M  V30 1655 H 149.493 -1.98403 -7.53828 0
M  V30 1656 N 153.722 1.14298 -1.08507 0
M  V30 1657 C 154.669 2.19414 -0.715965 0
M  V30 1658 C 155.639 1.63399 0.298326 0
M  V30 1659 O 156.824 1.89929 0.182101 0
M  V30 1660 C 153.964 3.44845 -0.132534 0
M  V30 1661 C 153.077 4.15007 -1.19973 0
M  V30 1662 C 152.212 5.28024 -0.580048 0
M  V30 1663 C 151.251 5.9002 -1.62921 0
M  V30 1664 N 150.388 6.94485 -1.03125 0
M  V30 1665 H 155.228 2.50336 -1.61666 0
M  V30 1666 H 152.765 1.2293 -0.807882 0
M  V30 1667 H 154.723 4.16601 0.223454 0
M  V30 1668 H 153.353 3.14403 0.731467 0
M  V30 1669 H 152.405 3.41629 -1.67313 0
M  V30 1670 H 153.717 4.57178 -1.99473 0
M  V30 1671 H 152.871 6.06455 -0.172364 0
M  V30 1672 H 151.61 4.87076 0.246603 0
M  V30 1673 H 150.615 5.10291 -2.04654 0
M  V30 1674 H 151.84 6.33042 -2.45835 0
M  V30 1675 H 149.786 6.55612 -0.225711 0
M  V30 1676 H 149.703 7.35148 -1.76334 0
M  V30 1677 H 150.971 7.7679 -0.649458 0
M  V30 1678 N 155.201 0.870884 1.31352 0
M  V30 1679 C 156.164 0.332243 2.26779 0
M  V30 1680 C 157.164 -0.517302 1.52252 0
M  V30 1681 O 158.354 -0.326477 1.71113 0
M  V30 1682 C 155.486 -0.528066 3.36785 0
M  V30 1683 H 156.679 1.17469 2.75937 0
M  V30 1684 H 154.232 0.64655 1.423 0
M  V30 1685 H 154.967 -1.39167 2.92922 0
M  V30 1686 H 154.752 0.0802582 3.92018 0
M  V30 1687 H 156.242 -0.897179 4.07849 0
M  V30 1688 N 156.679 -1.44442 0.630414 0
M  V30 1689 C 157.611 -2.2892 -0.113347 0
M  V30 1690 C 158.624 -1.41243 -0.80959 0
M  V30 1691 O 159.813 -1.65402 -0.671156 0
M  V30 1692 C 156.913 -3.17594 -1.18266 0
M  V30 1693 C 156.086 -4.33682 -0.569073 0
M  V30 1694 C 155.145 -5.03397 -1.53226 0
M  V30 1695 O 154.171 -5.59438 -1.04967 0
M  V30 1696 N 155.373 -5.04783 -2.86661 0
M  V30 1697 H 158.138 -2.93392 0.611636 0
M  V30 1698 H 155.699 -1.54881 0.471523 0
M  V30 1699 H 157.691 -3.61097 -1.82732 0
M  V30 1700 H 156.261 -2.54876 -1.80988 0
M  V30 1701 H 155.481 -3.9338 0.254187 0
M  V30 1702 H 156.769 -5.08608 -0.139767 0
M  V30 1703 H 156.167 -4.60584 -3.28449 0
M  V30 1704 H 154.724 -5.52077 -3.46489 0
M  V30 1705 N 158.157 -0.370918 -1.53173 0
M  V30 1706 C 159.087 0.464847 -2.28826 0
M  V30 1707 C 160.068 1.07936 -1.31468 0
M  V30 1708 O 161.253 1.0956 -1.60344 0
M  V30 1709 C 158.383 1.60196 -3.08147 0
M  V30 1710 C 157.337 1.11443 -4.13237 0
M  V30 1711 C 156.663 2.3422 -4.80672 0
M  V30 1712 C 157.963 0.195384 -5.21934 0
M  V30 1713 H 159.657 -0.166329 -2.98938 0
M  V30 1714 H 157.203 -0.0814359 -1.4377 0
M  V30 1715 H 159.156 2.19332 -3.59822 0
M  V30 1716 H 157.88 2.26045 -2.35735 0
M  V30 1717 H 156.539 0.545727 -3.62515 0
M  V30 1718 H 156.187 2.98537 -4.04827 0
M  V30 1719 H 155.887 2.02269 -5.51689 0
M  V30 1720 H 157.411 2.94032 -5.35143 0
M  V30 1721 H 158.825 0.694375 -5.69079 0
M  V30 1722 H 157.222 -0.0335027 -6.00091 0
M  V30 1723 H 158.292 -0.760961 -4.78892 0
M  V30 1724 N 159.635 1.57281 -0.100228 0
M  V30 1725 C 160.912 1.86014 0.604812 0
M  V30 1726 C 161.292 0.998025 1.86018 0
M  V30 1727 O 160.64 0.0718184 2.28387 0
M  V30 1728 C 160.85 3.36784 0.915278 0
M  V30 1729 C 162.198 4.04957 1.27651 0
M  V30 1730 O 163.222 3.41695 1.00613 0
M  V30 1731 O 162.081 5.16593 1.7831 0
M  V30 1732 H 159.175 0.76942 0.303185 0
M  V30 1733 H 161.721 1.69176 -0.133313 0
M  V30 1734 H 160.493 3.91292 0.0248896 0
M  V30 1735 H 160.116 3.58987 1.70921 0
M  V30 1736 N 161.113 -0.173488 1.56642 0
M  V30 1737 C 162.343 -0.904781 1.85734 0
M  V30 1738 C 162.751 -1.76431 0.68328 0
M  V30 1739 O 162.094 -1.802 -0.356865 0
M  V30 1740 C 162.156 -1.83382 3.09211 0
M  V30 1741 C 161.82 -1.15411 4.42187 0
M  V30 1742 C 162.817 -0.520609 5.17287 0
M  V30 1743 C 160.502 -1.15151 4.88923 0
M  V30 1744 C 162.496 0.106412 6.37311 0
M  V30 1745 C 160.183 -0.520664 6.08878 0
M  V30 1746 C 161.181 0.107196 6.82916 0
M  V30 1747 O 160.869 0.728102 8.00596 0
M  V30 1748 H 160.601 -0.268408 0.62043 0
M  V30 1749 H 163.155 -0.179096 2.04618 0
M  V30 1750 H 161.385 -2.59976 2.86268 0
M  V30 1751 H 163.074 -2.43476 3.24768 0
M  V30 1752 H 163.84 -0.514606 4.82262 0
M  V30 1753 H 159.719 -1.62961 4.31236 0
M  V30 1754 H 163.263 0.597081 6.9504 0
M  V30 1755 H 159.16 -0.524242 6.43368 0
M  V30 1756 H 159.928 0.627138 8.16094 0
M  V30 1757 N 162.591 -1.51276 -0.441967 0
M  V30 1758 C 163.837 -1.63958 -1.19355 0
M  V30 1759 C 164.17 -0.352543 -1.90973 0
M  V30 1760 O 163.445 0.647627 -1.83401 0
M  V30 1761 C 163.728 -2.83979 -2.21422 0
M  V30 1762 C 163.581 -4.22646 -1.53918 0
M  V30 1763 C 164.9 -2.99521 -3.22451 0
M  V30 1764 H 162.019 -0.596709 -0.432559 0
M  V30 1765 H 164.661 -1.83748 -0.483398 0
M  V30 1766 H 162.811 -2.67237 -2.81987 0
M  V30 1767 H 164.483 -4.51045 -0.967256 0
M  V30 1768 H 162.726 -4.25558 -0.841615 0
M  V30 1769 H 163.397 -5.02609 -2.28229 0
M  V30 1770 H 165.873 -3.14944 -2.71937 0
M  V30 1771 H 164.749 -3.85072 -3.91166 0
M  V30 1772 H 165.01 -2.11391 -3.88287 0
M  V30 1773 N 164.069 0.697108 -1.41344 0
M  V30 1774 C 165.346 1.45154 -1.31109 0
M  V30 1775 C 165.726 2.11009 0.0620449 0
M  V30 1776 O 165.074 2.01571 1.07618 0
M  V30 1777 C 165.284 2.47223 -2.46337 0
M  V30 1778 C 166.632 3.1252 -2.87431 0
M  V30 1779 O 167.656 2.57547 -2.46065 0
M  V30 1780 O 166.515 4.12083 -3.58957 0
M  V30 1781 H 163.609 0.646365 -0.515889 0
M  V30 1782 H 166.155 0.727716 -1.53305 0
M  V30 1783 H 164.927 1.97204 -3.37974 0
M  V30 1784 H 164.55 3.27116 -2.2601 0
M  V30 1785 N 165.547 1.27147 0.931209 0
M  V30 1786 C 166.477 1.12081 2.04842 0
M  V30 1787 C 167.458 0.0232364 1.70084 0
M  V30 1788 O 168.643 0.197085 1.93197 0
M  V30 1789 C 165.773 0.76354 3.38803 0
M  V30 1790 C 164.727 1.81396 3.87659 0
M  V30 1791 C 164.053 1.31075 5.18385 0
M  V30 1792 C 165.353 3.21739 4.11438 0
M  V30 1793 H 167.047 2.05537 2.17703 0
M  V30 1794 H 164.593 0.989603 1.04608 0
M  V30 1795 H 166.546 0.644982 4.16435 0
M  V30 1796 H 165.27 -0.206727 3.25945 0
M  V30 1797 H 163.929 1.92136 3.12217 0
M  V30 1798 H 163.577 0.330037 5.01916 0
M  V30 1799 H 163.277 2.013 5.52044 0
M  V30 1800 H 164.801 1.20506 5.98591 0
M  V30 1801 H 166.215 3.14019 4.79651 0
M  V30 1802 H 164.612 3.89644 4.56397 0
M  V30 1803 H 165.682 3.67054 3.16859 0
M  V30 1804 N 167.025 -1.13721 1.09112 0
M  V30 1805 C 168.255 -1.88499 0.845671 0
M  V30 1806 C 168.663 -1.79218 -0.606432 0
M  V30 1807 O 168.006 -1.1544 -1.42896 0
M  V30 1808 C 168.068 -3.38954 1.19793 0
M  V30 1809 C 167.732 -3.72018 2.65428 0
M  V30 1810 C 168.729 -3.7153 3.63677 0
M  V30 1811 C 166.414 -4.01775 3.01467 0
M  V30 1812 C 168.408 -4.00336 4.95994 0
M  V30 1813 C 166.095 -4.30243 4.33975 0
M  V30 1814 C 167.093 -4.29508 5.31048 0
M  V30 1815 O 166.781 -4.5728 6.61173 0
M  V30 1816 H 166.513 -0.603702 0.304171 0
M  V30 1817 H 169.067 -1.44903 1.45576 0
M  V30 1818 H 167.297 -3.83039 0.530871 0
M  V30 1819 H 168.986 -3.95052 0.932146 0
M  V30 1820 H 169.752 -3.4862 3.37179 0
M  V30 1821 H 165.631 -4.01496 2.26544 0
M  V30 1822 H 169.175 -3.99678 5.71755 0
M  V30 1823 H 165.072 -4.52625 4.60219 0
M  V30 1824 H 165.84 -4.74964 6.66597 0
M  V30 1825 N 168.503 -0.877838 -1.30888 0
M  V30 1826 C 169.433 -0.35534 -2.3078 0
M  V30 1827 C 170.414 0.557994 -1.60687 0
M  V30 1828 O 171.599 0.473355 -1.88343 0
M  V30 1829 C 168.729 0.437221 -3.44537 0
M  V30 1830 C 167.683 -0.383715 -4.26276 0
M  V30 1831 C 167.009 0.535014 -5.32017 0
M  V30 1832 C 168.309 -1.62201 -4.96476 0
M  V30 1833 H 170.003 -1.19007 -2.74732 0
M  V30 1834 H 167.549 -0.573698 -1.32078 0
M  V30 1835 H 169.502 0.813334 -4.13477 0
M  V30 1836 H 168.226 1.30553 -2.99372 0
M  V30 1837 H 166.885 -0.741874 -3.59015 0
M  V30 1838 H 166.533 1.40083 -4.831 0
M  V30 1839 H 166.233 -0.0104211 -5.87599 0
M  V30 1840 H 167.757 0.907799 -6.03814 0
M  V30 1841 H 169.171 -1.31689 -5.5797 0
M  V30 1842 H 167.568 -2.10711 -5.61891 0
M  V30 1843 H 168.638 -2.37044 -4.23011 0
M  V30 1844 N 169.982 1.44106 -0.638065 0
M  V30 1845 C 171.231 2.01194 -0.142744 0
M  V30 1846 C 171.544 1.50835 1.24532 0
M  V30 1847 O 172.75 2.00096 1.83504 0
M  V30 1848 C 171.206 3.59319 -0.20442 0
M  V30 1849 C 170.814 4.18674 -1.59423 0
M  V30 1850 C 172.558 4.23854 0.234079 0
M  V30 1851 C 170.465 5.69045 -1.61065 0
M  V30 1852 H 169.395 0.752367 -0.0495998 0
M  V30 1853 H 172.046 1.65246 -0.797881 0
M  V30 1854 H 170.428 3.92598 0.517946 0
M  V30 1855 H 171.602 3.96921 -2.34074 0
M  V30 1856 H 169.917 3.66453 -1.97741 0
M  V30 1857 H 172.514 5.34155 0.241443 0
M  V30 1858 H 172.857 3.96688 1.2627 0
M  V30 1859 H 173.39 3.95403 -0.436025 0
M  V30 1860 H 170.129 6.00956 -2.61787 0
M  V30 1861 H 169.649 5.929 -0.90718 0
M  V30 1862 H 171.328 6.32809 -1.34766 0
M  V30 1863 N 171.46 0.379036 1.52974 0
M  V30 1864 C 172.41 -0.477772 2.22938 0
M  V30 1865 C 173.394 -1.03792 1.22948 0
M  V30 1866 O 174.586 -0.965725 1.48333 0
M  V30 1867 C 171.715 -1.60994 3.03209 0
M  V30 1868 C 170.801 -1.06203 4.10587 0
M  V30 1869 N 171.192 -0.238214 5.05239 0
M  V30 1870 C 169.49 -1.33554 4.25534 0
M  V30 1871 C 170.191 0.0633235 5.81666 0
M  V30 1872 N 169.167 -0.537901 5.40932 0
M  V30 1873 H 172.969 0.158295 2.93473 0
M  V30 1874 H 170.483 0.187778 1.61311 0
M  V30 1875 H 172.48 -2.23607 3.5186 0
M  V30 1876 H 171.14 -2.24893 2.34207 0
M  V30 1877 H 172.151 0.123695 5.17752 0
M  V30 1878 H 168.828 -1.97632 3.6776 0
M  V30 1879 H 170.218 0.730161 6.67921 0
M  V30 1880 N 172.938 -1.57226 0.108567 0
M  V30 1881 C 174.163 -1.99604 -0.563303 0
M  V30 1882 C 174.588 -0.987563 -1.6009 0
M  V30 1883 O 173.946 0.0421687 -1.81251 0
M  V30 1884 C 173.994 -3.40902 -1.17552 0
M  V30 1885 O 173.098 -3.42896 -2.2912 0
M  V30 1886 H 172.439 -0.648704 -0.1417 0
M  V30 1887 H 174.969 -2.03679 0.193961 0
M  V30 1888 H 174.979 -3.78886 -1.51357 0
M  V30 1889 H 173.654 -4.1382 -0.415445 0
M  V30 1890 H 172.231 -3.1672 -1.96832 0
M  V30 1891 N 174.416 0.165178 -1.56732 0
M  V30 1892 C 175.827 0.727046 -1.71962 0
M  V30 1893 C 176.178 1.82508 -0.720078 0
M  V30 1894 O 175.303 2.16082 0.117242 0
M  V30 1895 C 175.898 1.32559 -3.11791 0
M  V30 1896 C 174.457 1.83422 -3.28684 0
M  V30 1897 C 173.604 0.715567 -2.67908 0
M  V30 1898 H 176.555 -0.0602896 -1.58585 0
M  V30 1899 H 176.576 2.19533 -3.10782 0
M  V30 1900 H 176.088 0.526195 -3.84516 0
M  V30 1901 H 174.189 2.65986 -2.60926 0
M  V30 1902 H 174.302 1.97543 -4.36478 0
M  V30 1903 H 172.666 1.13758 -2.27884 0
M  V30 1904 H 173.449 -0.0720836 -3.43224 0
M  V30 1905 N 175.894 1.51508 0.433938 0
M  V30 1906 C 176.827 1.67756 1.54704 0
M  V30 1907 C 177.805 0.525127 1.53887 0
M  V30 1908 O 178.989 0.749393 1.72963 0
M  V30 1909 C 176.116 1.69424 2.9328 0
M  V30 1910 C 175.162 2.90673 3.12108 0
M  V30 1911 S 175.995 4.51431 2.88046 0
M  V30 1912 C 177.151 4.55849 4.28897 0
M  V30 1913 H 177.384 2.61904 1.40689 0
M  V30 1914 H 174.917 1.41235 0.62386 0
M  V30 1915 H 176.875 1.7107 3.73156 0
M  V30 1916 H 175.536 0.764464 3.04655 0
M  V30 1917 H 174.729 2.88251 4.13434 0
M  V30 1918 H 174.331 2.86786 2.40062 0
M  V30 1919 H 176.623 4.31699 5.22152 0
M  V30 1920 H 177.566 5.57676 4.36351 0
M  V30 1921 H 177.974 3.85137 4.12711 0
M  V30 1922 N 177.372 -0.689602 1.41712 0
M  V30 1923 C 178.597 -1.48329 1.44959 0
M  V30 1924 C 179.022 -1.8801 0.0581283 0
M  V30 1925 O 178.38 -1.55026 -0.940035 0
M  V30 1926 C 178.428 -2.71835 2.36935 0
M  V30 1927 O 177.532 -3.69549 1.8305 0
M  V30 1928 H 176.873 -0.446199 0.491734 0
M  V30 1929 H 179.403 -0.847127 1.86239 0
M  V30 1930 H 179.413 -3.20076 2.53013 0
M  V30 1931 H 178.088 -2.42291 3.38035 0
M  V30 1932 H 176.665 -3.2851 1.76452 0
M  V30 1933 N 178.85 -1.27639 -0.924453 0
M  V30 1934 C 179.78 -1.13166 -2.04244 0
M  V30 1935 C 180.761 -0.032256 -1.70069 0
M  V30 1936 O 181.946 -0.207328 -1.9309 0
M  V30 1937 C 179.076 -0.781496 -3.38393 0
M  V30 1938 C 178.03 -1.83449 -3.86692 0
M  V30 1939 C 177.356 -1.33822 -5.17683 0
M  V30 1940 C 178.656 -3.23917 -4.09726 0
M  V30 1941 H 180.35 -2.06689 -2.1661 0
M  V30 1942 H 177.896 -0.995136 -1.04082 0
M  V30 1943 H 179.849 -0.667057 -4.16087 0
M  V30 1944 H 178.573 0.189439 -3.2605 0
M  V30 1945 H 177.232 -1.93789 -3.11193 0
M  V30 1946 H 176.88 -0.35665 -5.01734 0
M  V30 1947 H 176.58 -2.04224 -5.50968 0
M  V30 1948 H 178.104 -1.23679 -5.97943 0
M  V30 1949 H 179.518 -3.16559 -4.77978 0
M  V30 1950 H 177.915 -3.92059 -4.54324 0
M  V30 1951 H 178.985 -3.68729 -3.14908 0
M  V30 1952 N 180.328 1.1314 -1.09713 0
M  V30 1953 C 181.275 2.18642 -0.739196 0
M  V30 1954 C 182.245 1.63706 0.280978 0
M  V30 1955 O 183.43 1.90111 0.161946 0
M  V30 1956 C 180.57 3.44685 -0.169102 0
M  V30 1957 C 179.683 4.13711 -1.24367 0
M  V30 1958 C 178.818 5.27379 -0.636019 0
M  V30 1959 C 177.857 5.88259 -1.69169 0
M  V30 1960 N 176.994 6.93352 -1.10485 0
M  V30 1961 H 181.834 2.48607 -1.64312 0
M  V30 1962 H 179.371 1.22066 -0.820875 0
M  V30 1963 H 181.329 4.16815 0.179256 0
M  V30 1964 H 179.959 3.15161 0.698079 0
M  V30 1965 H 179.011 3.39835 -1.70927 0
M  V30 1966 H 180.323 4.55037 -2.04311 0
M  V30 1967 H 179.477 6.06238 -0.236677 0
M  V30 1968 H 178.216 4.8731 0.194928 0
M  V30 1969 H 177.221 5.08092 -2.10055 0
M  V30 1970 H 178.446 6.30399 -2.52536 0
M  V30 1971 H 176.392 6.55335 -0.295234 0
M  V30 1972 H 176.309 7.33236 -1.84121 0
M  V30 1973 H 177.577 7.76057 -0.73181 0
M  V30 1974 N 181.806 0.884767 1.30421 0
M  V30 1975 C 183.217 0.553656 1.78302 0
M  V30 1976 C 183.568 -0.930153 1.7275 0
M  V30 1977 O 182.693 -1.72681 1.30423 0
M  V30 1978 C 183.288 0.998234 3.2376 0
M  V30 1979 C 181.847 0.71854 3.69478 0
M  V30 1980 C 180.994 1.18132 2.50879 0
M  V30 1981 H 183.945 1.06901 1.17294 0
M  V30 1982 H 183.966 0.327118 3.79091 0
M  V30 1983 H 183.478 2.0782 3.27769 0
M  V30 1984 H 181.579 -0.349444 3.70958 0
M  V30 1985 H 181.692 1.30595 4.60958 0
M  V30 1986 H 180.056 0.600669 2.47516 0
M  V30 1987 H 180.839 2.26902 2.57624 0
M  V30 1988 N 183.284 -1.43765 0.645699 0
M  V30 1989 C 184.532 -2.01499 0.155731 0
M  V30 1990 C 184.853 -1.51151 -1.232 0
M  V30 1991 O 184.123 -0.721044 -1.82148 0
M  V30 1992 H 182.703 -0.745003 0.0545817 0
M  V30 1993 H 185.365 -1.76075 0.835677 0
M  V30 1994 H 184.461 -3.1181 0.134577 0
M  V30 1995 N 184.763 -0.387143 -1.52771 0
M  V30 1996 C 185.673 0.456442 -2.30117 0
M  V30 1997 C 186.689 1.07342 -1.36944 0
M  V30 1998 O 187.865 1.07971 -1.70013 0
M  V30 1999 C 184.93 1.56957 -3.09136 0
M  V30 2000 C 183.991 0.977916 -4.18014 0
M  V30 2001 C 183.224 2.038 -4.93256 0
M  V30 2002 O 183.447 3.25271 -4.68567 0
M  V30 2003 O 182.381 1.6565 -5.78657 0
M  V30 2004 H 186.207 -0.17359 -3.03203 0
M  V30 2005 H 183.792 -0.150919 -1.48636 0
M  V30 2006 H 185.674 2.21628 -3.58412 0
M  V30 2007 H 184.349 2.18461 -2.38865 0
M  V30 2008 H 183.256 0.294525 -3.72939 0
M  V30 2009 H 184.589 0.407128 -4.90513 0
M  V30 2010 N 186.241 1.57166 -0.116904 0
M  V30 2011 C 187.151 2.18745 0.847812 0
M  V30 2012 C 188.167 1.163 1.29423 0
M  V30 2013 O 189.343 1.48761 1.35765 0
M  V30 2014 C 186.408 2.77307 2.0809 0
M  V30 2015 C 185.469 3.94781 1.68661 0
M  V30 2016 C 184.702 4.50541 2.86091 0
M  V30 2017 O 184.925 4.05202 4.01456 0
M  V30 2018 O 183.859 5.41256 2.63298 0
M  V30 2019 H 187.685 3.01632 0.353778 0
M  V30 2020 H 185.27 1.49005 0.108599 0
M  V30 2021 H 187.152 3.14647 2.80313 0
M  V30 2022 H 185.827 1.97452 2.56504 0
M  V30 2023 H 184.734 3.62214 0.935518 0
M  V30 2024 H 186.067 4.76065 1.24991 0
M  V30 2025 N 187.719 -0.156864 1.56817 0
M  V30 2026 C 188.649 -1.19589 2.00551 0
M  V30 2027 C 189.63 -1.4536 0.883426 0
M  V30 2028 O 190.815 -1.56449 1.15054 0
M  V30 2029 C 187.945 -2.53143 2.37773 0
M  V30 2030 C 186.899 -2.41913 3.53075 0
M  V30 2031 C 186.225 -3.80088 3.76081 0
M  V30 2032 C 187.525 -1.91157 4.86062 0
M  V30 2033 H 189.219 -0.832293 2.87599 0
M  V30 2034 H 186.765 -0.398918 1.38364 0
M  V30 2035 H 188.718 -3.26047 2.66967 0
M  V30 2036 H 187.442 -2.91319 1.4765 0
M  V30 2037 H 186.101 -1.71462 3.24031 0
M  V30 2038 H 185.749 -4.15683 2.83225 0
M  V30 2039 H 185.449 -3.73439 4.53671 0
M  V30 2040 H 186.973 -4.54556 4.0769 0
M  V30 2041 H 188.387 -2.53846 5.14038 0
M  V30 2042 H 186.784 -1.95422 5.67389 0
M  V30 2043 H 187.854 -0.866673 4.77092 0
M  V30 2044 N 189.197 -1.51736 -0.425897 0
M  V30 2045 C 190.422 -1.69082 -1.20108 0
M  V30 2046 C 190.847 -0.392398 -1.83962 0
M  V30 2047 O 190.205 0.64858 -1.69302 0
M  V30 2048 C 190.253 -2.81604 -2.25237 0
M  V30 2049 O 189.357 -2.46004 -3.30992 0
M  V30 2050 H 188.698 -0.563408 -0.35138 0
M  V30 2051 H 191.228 -1.98358 -0.501512 0
M  V30 2052 H 191.238 -3.06025 -2.69838 0
M  V30 2053 H 189.913 -3.75817 -1.78142 0
M  V30 2054 H 188.49 -2.32195 -2.91787 0
M  V30 2055 N 190.675 0.682077 -1.42076 0
M  V30 2056 C 192.086 1.26246 -1.37546 0
M  V30 2057 C 192.437 1.96092 -0.0651481 0
M  V30 2058 O 191.562 1.99587 0.836297 0
M  V30 2059 C 192.157 2.29594 -2.49143 0
M  V30 2060 C 190.716 2.83175 -2.47969 0
M  V30 2061 C 189.863 1.57395 -2.28303 0
M  V30 2062 H 192.814 0.475937 -1.51395 0
M  V30 2063 H 192.835 3.11175 -2.18976 0
M  V30 2064 H 192.347 1.78729 -3.44496 0
M  V30 2065 H 190.448 3.3818 -1.56413 0
M  V30 2066 H 190.561 3.32687 -3.44755 0
M  V30 2067 H 188.925 1.83699 -1.76428 0
M  V30 2068 H 189.708 1.08507 -3.25701 0
M  V30 2069 N 192.153 1.28127 0.917671 0
M  V30 2070 C 193.381 1.17892 1.70026 0
M  V30 2071 C 193.796 -0.262958 1.8696 0
M  V30 2072 O 193.153 -1.17811 1.3938 0
M  V30 2073 C 193.204 1.86872 3.09453 0
M  V30 2074 O 192.925 3.25428 2.93306 0
M  V30 2075 C 194.426 1.8289 4.03815 0
M  V30 2076 H 191.646 0.40942 0.531617 0
M  V30 2077 H 194.19 1.69181 1.14883 0
M  V30 2078 H 192.345 1.39464 3.61426 0
M  V30 2079 H 192.759 3.59918 3.81523 0
M  V30 2080 H 194.233 2.35751 4.99125 0
M  V30 2081 H 194.71 0.800412 4.31845 0
M  V30 2082 H 195.316 2.29959 3.57769 0
M  V30 2083 N 193.631 -1.12557 1.10312 0
M  V30 2084 C 194.908 -1.80363 0.756878 0
M  V30 2085 C 195.288 -1.97067 -0.756824 0
M  V30 2086 O 194.636 -1.54601 -1.68259 0
M  V30 2087 C 194.846 -3.14812 1.50647 0
M  V30 2088 C 196.194 -3.90029 1.67817 0
M  V30 2089 O 197.218 -3.24464 1.46974 0
M  V30 2090 O 196.077 -5.07652 2.02365 0
M  V30 2091 H 193.171 -0.780667 0.272926 0
M  V30 2092 H 195.717 -1.19404 1.20586 0
M  V30 2093 H 194.489 -2.97936 2.53672 0
M  V30 2094 H 194.112 -3.83478 1.05026 0
M  V30 2095 N 195.109 -0.891671 -1.2995 0
M  V30 2096 C 196.019 -0.367691 -2.31701 0
M  V30 2097 C 197.035 0.533486 -1.6562 0
M  V30 2098 O 198.211 0.424997 -1.96865 0
M  V30 2099 C 195.276 0.403406 -3.44345 0
M  V30 2100 C 194.337 -0.528328 -4.26037 0
M  V30 2101 C 193.57 0.206063 -5.33302 0
M  V30 2102 O 193.793 1.43119 -5.52153 0
M  V30 2103 O 192.727 -0.447281 -6.00236 0
M  V30 2104 H 196.553 -1.21163 -2.78484 0
M  V30 2105 H 194.138 -0.655725 -1.34241 0
M  V30 2106 H 196.02 0.839753 -4.12948 0
M  V30 2107 H 194.695 1.22354 -2.99685 0
M  V30 2108 H 193.602 -1.01362 -3.60106 0
M  V30 2109 H 194.935 -1.31465 -4.74318 0
M  V30 2110 N 196.587 1.43421 -0.653314 0
M  V30 2111 C 197.535 2.32546 0.0501531 0
M  V30 2112 C 198.529 1.48617 0.812985 0
M  V30 2113 O 199.735 1.64825 0.723375 0
M  V30 2114 H 196.11 0.751185 0.0350032 0
M  V30 2115 H 198.081 2.89602 -0.719261 0
M  V30 2116 C 196.83 3.32925 1.00279 0
M  V30 2117 H 196.153 3.97532 0.425236 0
M  V30 2118 H 197.593 3.9792 1.46409 0
M  V30 2119 C 196.052 2.63532 2.09886 0
M  V30 2120 O 196.582 2.45092 3.18265 0
M  V30 2121 N 194.788 2.22905 1.86445 0
M  V30 2122 H 194.335 2.38103 0.98309 0
M  V30 2123 H 194.293 1.76805 2.59976 0
M  V30 2124 N 198.065 0.39524 1.52563 0
M  V30 2125 C 199.313 -0.184678 2.01254 0
M  V30 2126 C 199.634 -1.46822 1.28329 0
M  V30 2127 O 198.904 -1.91666 0.405094 0
M  V30 2128 H 197.484 -0.0712355 0.743596 0
M  V30 2129 H 200.146 0.528293 1.87603 0
M  V30 2130 H 199.242 -0.390681 3.09645 0
M  V30 2131 N 199.544 -1.57102 0.125237 0
M  V30 2132 C 200.491 -2.15641 -0.822655 0
M  V30 2133 C 201.461 -1.08313 -1.25927 0
M  V30 2134 O 202.646 -1.36251 -1.33567 0
M  V30 2135 C 199.786 -2.76504 -2.06494 0
M  V30 2136 C 198.899 -3.98158 -1.67612 0
M  V30 2137 C 198.034 -4.47088 -2.86854 0
M  V30 2138 C 197.073 -5.6126 -2.44242 0
M  V30 2139 N 196.21 -6.04905 -3.56419 0
M  V30 2140 H 201.05 -2.96313 -0.316625 0
M  V30 2141 H 198.587 -1.46388 -0.144588 0
M  V30 2142 H 200.545 -3.09925 -2.79289 0
M  V30 2143 H 199.175 -1.98512 -2.54545 0
M  V30 2144 H 198.227 -3.70858 -0.846661 0
M  V30 2145 H 199.539 -4.80934 -1.32301 0
M  V30 2146 H 198.693 -4.82451 -3.67867 0
M  V30 2147 H 197.432 -3.63275 -3.25396 0
M  V30 2148 H 196.437 -5.25495 -1.61663 0
M  V30 2149 H 197.662 -6.46843 -2.0681 0
M  V30 2150 H 195.608 -5.24032 -3.94623 0
M  V30 2151 H 195.525 -6.82552 -3.25051 0
M  V30 2152 H 196.793 -6.44907 -4.37853 0
M  V30 2153 N 201.022 0.148545 -1.56898 0
M  V30 2154 C 202.268 0.862694 -1.83536 0
M  V30 2155 C 202.601 1.80889 -0.706604 0
M  V30 2156 O 201.876 1.92328 0.289885 0
M  V30 2157 C 202.159 1.63853 -3.20662 0
M  V30 2158 C 202.012 0.713925 -4.44098 0
M  V30 2159 C 203.331 2.60133 -3.54991 0
M  V30 2160 H 200.45 0.312179 -0.667618 0
M  V30 2161 H 203.092 0.127953 -1.89569 0
M  V30 2162 H 201.242 2.26489 -3.1565 0
M  V30 2163 H 202.914 0.098686 -4.61194 0
M  V30 2164 H 201.157 0.0234019 -4.33794 0
M  V30 2165 H 201.828 1.29278 -5.36648 0
M  V30 2166 H 204.304 2.07616 -3.60603 0
M  V30 2167 H 203.18 3.11468 -4.51972 0
M  V30 2168 H 203.441 3.41417 -2.80868 0
M  V30 2169 N 202.5 1.5196 0.417844 0
M  V30 2170 C 203.749 1.6482 1.16264 0
M  V30 2171 C 204.062 0.379886 1.91876 0
M  V30 2172 O 205.268 0.388154 2.68711 0
M  V30 2173 C 203.724 2.91161 2.1155 0
M  V30 2174 C 203.332 4.25068 1.41495 0
M  V30 2175 C 205.076 3.13383 2.86341 0
M  V30 2176 C 202.983 5.42541 2.35379 0
M  V30 2177 H 201.913 0.613954 0.437694 0
M  V30 2178 H 204.564 1.78442 0.427871 0
M  V30 2179 H 202.946 2.71218 2.88543 0
M  V30 2180 H 204.12 4.55463 0.699263 0
M  V30 2181 H 202.435 4.0888 0.787792 0
M  V30 2182 H 205.032 3.98324 3.5671 0
M  V30 2183 H 205.375 2.27256 3.48798 0
M  V30 2184 H 205.908 3.33757 2.1645 0
M  V30 2185 H 202.647 6.30987 1.77582 0
M  V30 2186 H 202.167 5.16497 3.04945 0
M  V30 2187 H 203.846 5.75272 2.96093 0
M  V30 2188 N 203.978 -0.674533 1.42435 0
M  V30 2189 C 205.225 -1.43459 1.42919 0
M  V30 2190 C 205.553 -1.94446 0.0457312 0
M  V30 2191 O 204.808 -1.7132 -0.94593 0
M  V30 2192 C 205.107 -2.64767 2.40069 0
M  V30 2193 C 204.773 -2.3232 3.86443 0
M  V30 2194 C 203.435 -2.23182 4.26314 0
M  V30 2195 C 205.787 -2.05977 4.78773 0
M  V30 2196 C 203.115 -1.85827 5.56494 0
M  V30 2197 C 205.467 -1.70125 6.09295 0
M  V30 2198 C 204.131 -1.59498 6.48164 0
M  V30 2199 H 203.401 -0.524952 0.522978 0
M  V30 2200 H 206.048 -0.769097 1.75377 0
M  V30 2201 H 204.353 -3.36349 2.00939 0
M  V30 2202 H 206.05 -3.22949 2.37707 0
M  V30 2203 H 202.64 -2.40334 3.54877 0
M  V30 2204 H 206.824 -2.11969 4.48757 0
M  V30 2205 H 202.08 -1.76168 5.8547 0
M  V30 2206 H 206.254 -1.48767 6.80324 0
M  V30 2207 H 203.881 -1.30322 7.48946 0
M  V30 2208 N 205.456 -1.28612 -0.910864 0
M  V30 2209 C 206.733 -1.06632 -1.63979 0
M  V30 2210 C 207.113 0.393351 -2.07403 0
M  V30 2211 O 206.461 1.37999 -1.82122 0
M  V30 2212 C 206.671 -2.0436 -2.8291 0
M  V30 2213 C 208.019 -2.34666 -3.5386 0
M  V30 2214 O 209.043 -2.02467 -2.93062 0
M  V30 2215 O 207.902 -2.89631 -4.63439 0
M  V30 2216 H 204.996 -0.407737 -0.7195 0
M  V30 2217 H 207.542 -1.39942 -0.959914 0
M  V30 2218 H 206.314 -3.02727 -2.47936 0
M  V30 2219 H 205.937 -1.71714 -3.58609 0
M  V30 2220 N 206.934 1.1197 -1.10907 0
M  V30 2221 C 208.183 1.82947 -0.849302 0
M  V30 2222 C 208.496 1.85275 0.627112 0
M  V30 2223 O 209.702 2.52296 1.00295 0
M  V30 2224 C 208.158 3.28529 -1.46959 0
M  V30 2225 C 207.766 3.34546 -2.97965 0
M  V30 2226 C 209.51 4.04443 -1.28942 0
M  V30 2227 C 207.417 4.74491 -3.53004 0
M  V30 2228 H 206.347 0.685477 -0.314065 0
M  V30 2229 H 208.998 1.2604 -1.33365 0
M  V30 2230 H 207.38 3.85333 -0.912917 0
M  V30 2231 H 208.554 2.87654 -3.59989 0
M  V30 2232 H 206.869 2.72108 -3.15192 0
M  V30 2233 H 209.466 5.07787 -1.67502 0
M  V30 2234 H 209.809 4.15656 -0.231456 0
M  V30 2235 H 210.342 3.5401 -1.81443 0
M  V30 2236 H 207.081 4.68474 -4.58489 0
M  V30 2237 H 206.601 5.21816 -2.9575 0
M  V30 2238 H 208.28 5.4344 -3.51115 0
M  V30 2239 N 208.412 0.89855 1.29475 0
M  V30 2240 C 209.658 0.524658 1.95896 0
M  V30 2241 C 209.991 -0.926468 1.70676 0
M  V30 2242 O 209.266 -1.65665 1.01908 0
M  V30 2243 C 209.549 0.81633 3.50725 0
M  V30 2244 C 209.402 2.31907 3.85408 0
M  V30 2245 C 210.721 0.302038 4.39062 0
M  V30 2246 H 207.84 0.19209 0.711527 0
M  V30 2247 H 210.482 1.12502 1.53112 0
M  V30 2248 H 208.632 0.305369 3.87298 0
M  V30 2249 H 210.304 2.89949 3.58786 0
M  V30 2250 H 208.547 2.78027 3.32992 0
M  V30 2251 H 209.218 2.47373 4.93468 0
M  V30 2252 H 211.694 0.739551 4.09475 0
M  V30 2253 H 210.57 0.535331 5.46283 0
M  V30 2254 H 210.831 -0.797216 4.34853 0
M  V30 2255 N 209.89 -1.43072 0.660911 0
M  V30 2256 C 211.167 -1.95307 0.107017 0
M  V30 2257 C 211.547 -1.60192 -1.37484 0
M  V30 2258 O 210.895 -0.890949 -2.10415 0
M  V30 2259 C 211.105 -3.47124 0.361402 0
M  V30 2260 C 212.453 -4.23738 0.270455 0
M  V30 2261 O 213.477 -3.54981 0.294382 0
M  V30 2262 O 212.336 -5.46131 0.200737 0
M  V30 2263 H 209.43 -0.826984 -0.00517729 0
M  V30 2264 H 211.976 -1.52972 0.734681 0
M  V30 2265 H 210.748 -3.65837 1.38848 0
M  V30 2266 H 210.371 -3.96475 -0.298953 0
M  V30 2267 N 211.368 -0.403325 -1.52352 0
M  V30 2268 C 212.298 0.416205 -2.29761 0
M  V30 2269 C 213.279 1.05123 -1.33728 0
M  V30 2270 O 214.464 1.06134 -1.62632 0
M  V30 2271 C 211.594 1.53624 -3.11475 0
M  V30 2272 C 210.548 1.02653 -4.15507 0
M  V30 2273 C 209.874 2.23971 -4.85532 0
M  V30 2274 C 211.174 0.08463 -5.22231 0
M  V30 2275 H 212.868 -0.229701 -2.98518 0
M  V30 2276 H 210.414 -0.111913 -1.43564 0
M  V30 2277 H 212.367 2.1165 -3.64393 0
M  V30 2278 H 211.091 2.20994 -2.40477 0
M  V30 2279 H 209.75 0.46871 -3.63591 0
M  V30 2280 H 209.398 2.89883 -4.11068 0
M  V30 2281 H 209.098 1.90521 -5.55856 0
M  V30 2282 H 210.622 2.82614 -5.41259 0
M  V30 2283 H 212.036 0.573509 -5.70424 0
M  V30 2284 H 210.433 -0.160783 -5.99885 0
M  V30 2285 H 211.503 -0.86237 -4.7717 0
M  V30 2286 N 212.846 1.57033 -0.133567 0
M  V30 2287 C 214.086 1.97575 0.523789 0
M  V30 2288 C 214.45 1.01605 1.62912 0
M  V30 2289 O 215.651 1.3114 2.3464 0
M  V30 2290 C 213.922 3.42256 1.02935 0
M  V30 2291 S 215.481 4.04817 1.69319 0
M  V30 2292 H 212.299 0.690427 0.169799 0
M  V30 2293 H 214.901 1.94234 -0.222101 0
M  V30 2294 H 213.605 4.09842 0.213917 0
M  V30 2295 H 213.136 3.4928 1.81017 0
M  V30 2296 H 215.151 3.96767 2.97977 0
M  V30 2297 N 214.325 -0.140222 1.56975 0
M  V30 2298 C 215.553 -0.866437 1.87884 0
M  V30 2299 C 215.968 -1.74428 0.722517 0
M  V30 2300 O 215.325 -1.79891 -0.30749 0
M  V30 2301 C 215.376 -1.71753 3.18093 0
M  V30 2302 O 215.097 -0.875056 4.29272 0
M  V30 2303 C 216.598 -2.55074 3.62563 0
M  V30 2304 H 213.818 -0.25019 0.622612 0
M  V30 2305 H 216.362 -0.130977 2.0408 0
M  V30 2306 H 214.517 -2.40598 3.03631 0
M  V30 2307 H 214.931 -1.46002 5.03769 0
M  V30 2308 H 216.405 -3.10356 4.5649 0
M  V30 2309 H 216.882 -3.31434 2.88181 0
M  V30 2310 H 217.488 -1.91509 3.79743 0
M  V30 2311 N 215.803 -1.52179 -0.40978 0
M  V30 2312 C 217.031 -1.70054 -1.17853 0
M  V30 2313 C 217.446 -0.409735 -1.843 0
M  V30 2314 O 216.803 0.614183 -1.71855 0
M  V30 2315 C 216.854 -2.83568 -2.24213 0
M  V30 2316 O 216.575 -4.0765 -1.60478 0
M  V30 2317 C 218.076 -3.12947 -3.13973 0
M  V30 2318 H 215.296 -0.569917 -0.354169 0
M  V30 2319 H 217.84 -1.98734 -0.482198 0
M  V30 2320 H 215.995 -2.57409 -2.89516 0
M  V30 2321 H 216.409 -4.70899 -2.30986 0
M  V30 2322 H 217.883 -3.95889 -3.84677 0
M  V30 2323 H 218.36 -2.26472 -3.76307 0
M  V30 2324 H 218.966 -3.40868 -2.5434 0
M  V30 2325 N 217.281 0.66697 -1.42791 0
M  V30 2326 C 218.527 1.42754 -1.44889 0
M  V30 2327 C 218.882 1.92283 -0.0669755 0
M  V30 2328 O 218.175 1.68494 0.912154 0
M  V30 2329 C 218.369 2.6349 -2.4147 0
M  V30 2330 C 218.198 2.25776 -3.88915 0
M  V30 2331 C 216.968 2.1476 -4.57391 0
M  V30 2332 C 219.166 1.86927 -4.79127 0
M  V30 2333 N 217.148 1.70232 -5.89826 0
M  V30 2334 C 218.519 1.53378 -6.00729 0
M  V30 2335 C 220.574 1.73989 -4.66511 0
M  V30 2336 C 219.277 1.08187 -7.11117 0
M  V30 2337 C 221.303 1.30203 -5.76889 0
M  V30 2338 C 220.665 0.975818 -6.97608 0
M  V30 2339 H 216.764 0.518559 -0.585338 0
M  V30 2340 H 219.348 0.768906 -1.78874 0
M  V30 2341 H 217.519 3.27033 -2.09533 0
M  V30 2342 H 219.251 3.30123 -2.34096 0
M  V30 2343 H 216.006 2.3408 -4.11708 0
M  V30 2344 H 216.43 1.50369 -6.6009 0
M  V30 2345 H 221.072 1.97853 -3.7365 0
M  V30 2346 H 218.79 0.830701 -8.03819 0
M  V30 2347 H 222.376 1.20701 -5.69142 0
M  V30 2348 H 221.256 0.642157 -7.81566 0
M  V30 2349 N 218.759 1.29093 0.90403 0
M  V30 2350 C 219.669 1.15727 2.0407 0
M  V30 2351 C 220.685 0.0815308 1.73809 0
M  V30 2352 O 221.861 0.292749 1.99261 0
M  V30 2353 C 218.926 0.830424 3.36608 0
M  V30 2354 C 217.987 1.98955 3.80415 0
M  V30 2355 C 217.22 1.6782 5.06628 0
M  V30 2356 O 217.443 0.597105 5.67266 0
M  V30 2357 O 216.377 2.52486 5.46383 0
M  V30 2358 H 220.203 2.11171 2.18267 0
M  V30 2359 H 217.788 1.08504 1.027 0
M  V30 2360 H 219.67 0.662521 4.16159 0
M  V30 2361 H 218.345 -0.0942678 3.23563 0
M  V30 2362 H 217.252 2.21267 3.01648 0
M  V30 2363 H 218.585 2.89529 3.98037 0
M  V30 2364 N 220.237 -1.11381 1.11499 0
M  V30 2365 C 221.2 -2.15622 0.777153 0
M  V30 2366 C 222.2 -1.59504 -0.203779 0
M  V30 2367 O 223.39 -1.74188 0.020782 0
M  V30 2368 C 220.522 -3.40556 0.153116 0
M  V30 2369 H 221.715 -2.47021 1.70061 0
M  V30 2370 H 219.268 -1.26577 0.916952 0
M  V30 2371 H 220.003 -3.14767 -0.780536 0
M  V30 2372 H 219.788 -3.8257 0.859238 0
M  V30 2373 H 221.278 -4.17546 -0.0671044 0
M  V30 2374 N 221.715 -0.905404 -1.28997 0
M  V30 2375 C 222.648 -0.331959 -2.25773 0
M  V30 2376 C 223.626 0.559099 -1.52685 0
M  V30 2377 O 224.81 0.50463 -1.8162 0
M  V30 2378 C 221.937 0.526276 -3.34586 0
M  V30 2379 C 220.983 -0.298249 -4.25456 0
M  V30 2380 S 221.816 -1.69968 -5.0781 0
M  V30 2381 C 222.972 -0.848519 -6.20122 0
M  V30 2382 H 223.205 -1.15222 -2.74064 0
M  V30 2383 H 220.738 -0.706112 -1.37308 0
M  V30 2384 H 222.696 1.01565 -3.97737 0
M  V30 2385 H 221.357 1.32084 -2.84978 0
M  V30 2386 H 220.55 0.357607 -5.0273 0
M  V30 2387 H 220.152 -0.720968 -3.66985 0
M  V30 2388 H 222.444 -0.0744325 -6.77459 0
M  V30 2389 H 223.387 -1.59353 -6.89937 0
M  V30 2390 H 223.795 -0.400383 -5.63078 0
M  V30 2391 N 223.193 1.4272 -0.668489 0
M  V30 2392 C 224.103 2.34596 0.0139753 0
M  V30 2393 C 225.119 1.5474 0.795703 0
M  V30 2394 O 226.295 1.87334 0.739466 0
M  V30 2395 C 223.36 3.33202 0.957982 0
M  V30 2396 C 222.421 4.28957 0.17149 0
M  V30 2397 C 221.654 5.22853 1.07053 0
M  V30 2398 O 221.877 5.21531 2.31001 0
M  V30 2399 O 220.811 5.9952 0.534727 0
M  V30 2400 H 224.637 2.9448 -0.742661 0
M  V30 2401 H 222.222 1.43117 -0.428705 0
M  V30 2402 H 224.104 3.93796 1.50008 0
M  V30 2403 H 222.779 2.758 1.69458 0
M  V30 2404 H 221.686 3.71796 -0.414558 0
M  V30 2405 H 223.019 4.89383 -0.52586 0
M  V30 2406 N 224.671 0.411399 1.52136 0
M  V30 2407 C 225.618 -0.412975 2.27075 0
M  V30 2408 C 226.588 -1.03912 1.29582 0
M  V30 2409 O 227.773 -1.06296 1.58448 0
M  V30 2410 C 224.913 -1.52247 3.09701 0
M  V30 2411 C 224.026 -0.917021 4.22155 0
M  V30 2412 C 223.161 -1.9994 4.92135 0
M  V30 2413 C 222.2 -1.37101 5.96548 0
M  V30 2414 N 221.337 -2.39364 6.60038 0
M  V30 2415 H 226.177 0.232499 2.97092 0
M  V30 2416 H 223.714 0.126496 1.46555 0
M  V30 2417 H 225.672 -2.17674 3.55913 0
M  V30 2418 H 224.302 -2.13794 2.41851 0
M  V30 2419 H 223.354 -0.151742 3.80097 0
M  V30 2420 H 224.666 -0.418006 4.97045 0
M  V30 2421 H 223.82 -2.73088 5.41763 0
M  V30 2422 H 222.559 -2.53208 4.16818 0
M  V30 2423 H 221.564 -0.624873 5.46237 0
M  V30 2424 H 222.789 -0.845998 6.7381 0
M  V30 2425 H 220.735 -2.91759 5.87548 0
M  V30 2426 H 220.652 -1.9428 7.3061 0
M  V30 2427 H 221.92 -3.12074 7.14304 0
M  V30 2428 N 226.149 -1.5696 0.141893 0
M  V30 2429 C 227.389 -1.9785 -0.513304 0
M  V30 2430 C 227.753 -1.02467 -1.62371 0
M  V30 2431 O 228.954 -1.32382 -2.33941 0
M  V30 2432 C 227.225 -3.42797 -1.01118 0
M  V30 2433 S 228.784 -4.05709 -1.67169 0
M  V30 2434 H 225.602 -0.691318 -0.166135 0
M  V30 2435 H 228.204 -1.94114 0.232398 0
M  V30 2436 H 226.908 -4.0995 -0.192179 0
M  V30 2437 H 226.439 -3.50235 -1.79162 0
M  V30 2438 H 228.454 -3.98342 -2.95868 0
M  V30 2439 N 227.627 0.131896 -1.57047 0
M  V30 2440 C 228.574 1.16236 -1.99393 0
M  V30 2441 C 229.544 1.41863 -0.863943 0
M  V30 2442 O 230.729 1.53946 -1.12718 0
M  V30 2443 C 227.869 2.48708 -2.39245 0
M  V30 2444 C 226.982 2.30127 -3.65603 0
M  V30 2445 C 226.117 3.55738 -3.94492 0
M  V30 2446 C 225.156 3.32259 -5.14073 0
M  V30 2447 N 224.293 4.50039 -5.38896 0
M  V30 2448 H 229.133 0.794251 -2.87221 0
M  V30 2449 H 226.67 0.380707 -1.42088 0
M  V30 2450 H 228.628 3.25969 -2.60384 0
M  V30 2451 H 227.258 2.83437 -1.54478 0
M  V30 2452 H 226.31 1.43845 -3.52154 0
M  V30 2453 H 227.622 2.08746 -4.5302 0
M  V30 2454 H 226.776 4.41423 -4.1621 0
M  V30 2455 H 225.515 3.80138 -3.05526 0
M  V30 2456 H 224.52 2.44963 -4.92212 0
M  V30 2457 H 225.745 3.09242 -6.04604 0
M  V30 2458 H 223.691 4.74584 -4.52886 0
M  V30 2459 H 223.608 4.31716 -6.2061 0
M  V30 2460 H 224.876 5.36895 -5.65123 0
M  V30 2461 N 229.106 1.52395 0.401703 0
M  V30 2462 C 230.383 1.57387 1.16141 0
M  V30 2463 C 230.763 0.359359 2.08019 0
M  V30 2464 O 230.111 -0.65326 2.18963 0
M  V30 2465 C 230.321 2.90631 1.93221 0
M  V30 2466 C 231.669 3.43904 2.49028 0
M  V30 2467 O 232.693 2.92421 2.03393 0
M  V30 2468 O 231.552 4.33823 3.32356 0
M  V30 2469 H 228.646 0.634262 0.530698 0
M  V30 2470 H 231.192 1.64725 0.407883 0
M  V30 2471 H 229.964 3.70473 1.25958 0
M  V30 2472 H 229.587 2.8662 2.75563 0
M  V30 2473 N 230.584 -0.659388 1.43143 0
M  V30 2474 C 231.547 -1.75432 1.47501 0
M  V30 2475 C 232.547 -1.56707 0.360512 0
M  V30 2476 O 233.737 -1.62717 0.622002 0
M  V30 2477 C 230.869 -3.14239 1.32162 0
M  V30 2478 H 232.062 -1.7295 2.45006 0
M  V30 2479 H 229.615 -0.870469 1.29817 0
M  V30 2480 H 230.35 -3.22336 0.356401 0
M  V30 2481 H 230.135 -3.29235 2.12948 0
M  V30 2482 H 231.625 -3.94094 1.3813 0
M  V30 2483 N 232.062 -1.29571 -0.897171 0
M  V30 2484 C 233.31 -1.17456 -1.64464 0
M  V30 2485 C 233.631 0.273698 -1.9307 0
M  V30 2486 O 232.901 1.18684 -1.55855 0
M  V30 2487 H 231.481 -0.431706 -0.609622 0
M  V30 2488 H 234.143 -1.62531 -1.07562 0
M  V30 2489 H 233.239 -1.72648 -2.59998 0
M  V30 2490 N 233.54 1.10788 -1.12088 0
M  V30 2491 C 234.47 2.19083 -0.807755 0
M  V30 2492 C 235.451 1.6858 0.226859 0
M  V30 2493 O 236.636 1.93997 0.0888475 0
M  V30 2494 C 233.766 3.46344 -0.257576 0
M  V30 2495 C 232.72 4.101 -1.22483 0
M  V30 2496 C 232.046 5.32016 -0.535052 0
M  V30 2497 C 233.346 4.54236 -2.57811 0
M  V30 2498 H 235.04 2.45534 -1.71328 0
M  V30 2499 H 232.586 1.1801 -0.825205 0
M  V30 2500 H 234.539 4.21392 -0.0262679 0
M  V30 2501 H 233.263 3.19373 0.683278 0
M  V30 2502 H 231.922 3.37054 -1.44189 0
M  V30 2503 H 231.57 5.01319 0.410827 0
M  V30 2504 H 231.27 5.75625 -1.18024 0
M  V30 2505 H 232.794 6.09799 -0.312695 0
M  V30 2506 H 234.208 5.20575 -2.40155 0
M  V30 2507 H 232.605 5.08682 -3.18375 0
M  V30 2508 H 233.675 3.6734 -3.16528 0
M  V30 2509 N 235.018 0.912232 1.28515 0
M  V30 2510 C 235.981 0.404223 2.25607 0
M  V30 2511 C 236.981 -0.468602 1.53821 0
M  V30 2512 O 238.171 -0.271873 1.72065 0
M  V30 2513 C 235.303 -0.420653 3.38295 0
M  V30 2514 H 236.496 1.26188 2.7206 0
M  V30 2515 H 234.049 0.691495 1.40171 0
M  V30 2516 H 234.784 -1.29777 2.97201 0
M  V30 2517 H 234.569 0.204935 3.91564 0
M  V30 2518 H 236.059 -0.766971 4.10496 0
M  V30 2519 N 236.496 -1.42363 0.676048 0
M  V30 2520 C 237.443 -2.308 -0.00150904 0
M  V30 2521 C 238.413 -1.46032 -0.791444 0
M  V30 2522 O 239.598 -1.74861 -0.76344 0
M  V30 2523 C 236.738 -3.31883 -0.945919 0
M  V30 2524 C 235.851 -4.31741 -0.149675 0
M  V30 2525 C 234.986 -5.19898 -1.08995 0
M  V30 2526 C 234.025 -6.11434 -0.285465 0
M  V30 2527 N 233.162 -6.92138 -1.17851 0
M  V30 2528 H 238.002 -2.88187 0.758455 0
M  V30 2529 H 235.539 -1.41952 0.38576 0
M  V30 2530 H 237.497 -3.89019 -1.50731 0
M  V30 2531 H 236.127 -2.76093 -1.6725 0
M  V30 2532 H 235.179 -3.76713 0.528359 0
M  V30 2533 H 236.491 -4.96534 0.474866 0
M  V30 2534 H 235.645 -5.81772 -1.72123 0
M  V30 2535 H 234.384 -4.55284 -1.74837 0
M  V30 2536 H 233.389 -5.48627 0.359018 0
M  V30 2537 H 234.614 -6.78097 0.368883 0
M  V30 2538 H 232.56 -6.30152 -1.82332 0
M  V30 2539 H 232.477 -7.53542 -0.609082 0
M  V30 2540 H 233.745 -7.58499 -1.79722 0
M  V30 2541 N 237.974 -0.419461 -1.51915 0
M  V30 2542 C 239.199 0.154572 -2.06823 0
M  V30 2543 C 239.624 1.3722 -1.28656 0
M  V30 2544 O 238.982 1.78461 -0.319583 0
M  V30 2545 C 239.03 0.473172 -3.57482 0
M  V30 2546 O 238.134 1.56255 -3.81652 0
M  V30 2547 H 237.475 0.0096924 -0.663929 0
M  V30 2548 H 240.005 -0.595642 -1.95738 0
M  V30 2549 H 240.015 0.728825 -4.01438 0
M  V30 2550 H 238.69 -0.416873 -4.13805 0
M  V30 2551 H 237.267 1.29825 -3.49571 0
M  V30 2552 N 239.452 1.56882 -0.150215 0
M  V30 2553 C 240.701 1.95403 0.500071 0
M  V30 2554 C 241.014 1.03777 1.658 0
M  V30 2555 O 242.22 1.31889 2.37313 0
M  V30 2556 C 240.676 3.4738 0.941018 0
M  V30 2557 C 240.284 4.47596 -0.190158 0
M  V30 2558 C 242.028 3.9476 1.56091 0
M  V30 2559 C 239.935 5.90787 0.269237 0
M  V30 2560 H 238.865 0.729515 0.190588 0
M  V30 2561 H 241.516 1.81988 -0.235074 0
M  V30 2562 H 239.898 3.56138 1.73152 0
M  V30 2563 H 241.072 4.50536 -0.967157 0
M  V30 2564 H 239.387 4.10151 -0.718666 0
M  V30 2565 H 241.984 4.99181 1.9163 0
M  V30 2566 H 242.327 3.36494 2.45107 0
M  V30 2567 H 242.86 3.88932 0.835249 0
M  V30 2568 H 239.599 6.52879 -0.585621 0
M  V30 2569 H 239.119 5.912 1.01204 0
M  V30 2570 H 240.798 6.42979 0.720176 0
M  V30 2571 N 240.93 -0.123565 1.57115 0
M  V30 2572 C 242.178 -0.83051 1.84247 0
M  V30 2573 C 242.499 -1.80629 0.73471 0
M  V30 2574 O 241.769 -1.94403 -0.241688 0
M  V30 2575 H 240.349 -0.309694 0.679778 0
M  V30 2576 H 243.011 -0.111976 1.94578 0
M  V30 2577 H 242.107 -1.37852 2.80006 0
M  V30 2578 N 242.408 -1.52605 -0.393616 0
M  V30 2579 C 243.654 -1.67672 -1.14079 0
M  V30 2580 C 243.987 -0.413121 -1.89755 0
M  V30 2581 O 243.262 0.588952 -1.85369 0
M  V30 2582 C 243.545 -2.9088 -2.12276 0
M  V30 2583 C 243.398 -4.27329 -1.40394 0
M  V30 2584 C 244.717 -3.09628 -3.12759 0
M  V30 2585 H 241.836 -0.610168 -0.413356 0
M  V30 2586 H 244.478 -1.85193 -0.424696 0
M  V30 2587 H 242.628 -2.76073 -2.73342 0
M  V30 2588 H 244.3 -4.53894 -0.82327 0
M  V30 2589 H 242.543 -4.2802 -0.705801 0
M  V30 2590 H 243.214 -5.09615 -2.12123 0
M  V30 2591 H 245.69 -3.23436 -2.61779 0
M  V30 2592 H 244.566 -3.97322 -3.78717 0
M  V30 2593 H 244.827 -2.23637 -3.81365 0
M  V30 2594 N 243.887 0.651787 -1.4349 0
M  V30 2595 C 245.112 1.44434 -1.48841 0
M  V30 2596 C 245.537 1.8779 -0.107955 0
M  V30 2597 O 244.895 1.57464 0.898602 0
M  V30 2598 C 244.943 2.65458 -2.44059 0
M  V30 2599 O 244.047 3.64566 -1.92784 0
M  V30 2600 H 243.388 0.433005 -0.503391 0
M  V30 2601 H 245.918 0.797451 -1.88419 0
M  V30 2602 H 245.928 3.13255 -2.6141 0
M  V30 2603 H 244.603 2.33244 -3.4434 0
M  V30 2604 H 243.18 3.23716 -1.851 0
M  V30 2605 N 245.365 1.30045 0.890287 0
M  V30 2606 C 246.313 1.15873 2.01683 0
M  V30 2607 C 247.307 0.0719403 1.69247 0
M  V30 2608 O 248.513 0.232414 1.78493 0
M  V30 2609 H 244.888 0.358203 0.661207 0
M  V30 2610 H 246.859 2.11229 2.10772 0
M  V30 2611 C 245.608 0.861842 3.36849 0
M  V30 2612 H 244.931 1.69016 3.62317 0
M  V30 2613 H 246.371 0.802762 4.16331 0
M  V30 2614 C 244.83 -0.435132 3.34078 0
M  V30 2615 O 245.36 -1.4583 3.74295 0
M  V30 2616 N 243.566 -0.444377 2.87182 0
M  V30 2617 H 243.113 0.388723 2.5465 0
M  V30 2618 H 243.071 -1.31213 2.85711 0
M  V30 2619 N 246.843 -1.10192 1.12674 0
M  V30 2620 C 248.09 -1.82205 0.883606 0
M  V30 2621 C 248.418 -1.8532 -0.590492 0
M  V30 2622 O 247.673 -1.31137 -1.45264 0
M  V30 2623 C 247.972 -3.28552 1.4067 0
M  V30 2624 C 247.638 -3.45582 2.89627 0
M  V30 2625 C 246.3 -3.49937 3.30299 0
M  V30 2626 C 248.652 -3.50768 3.85501 0
M  V30 2627 C 245.98 -3.57049 4.65546 0
M  V30 2628 C 248.332 -3.59414 5.20581 0
M  V30 2629 C 246.996 -3.62034 5.60792 0
M  V30 2630 H 246.266 -0.666735 0.323334 0
M  V30 2631 H 248.913 -1.29868 1.40736 0
M  V30 2632 H 247.218 -3.83473 0.80347 0
M  V30 2633 H 248.915 -3.82788 1.19475 0
M  V30 2634 H 245.505 -3.42871 2.57172 0
M  V30 2635 H 249.689 -3.46651 3.55171 0
M  V30 2636 H 244.945 -3.57361 4.96088 0
M  V30 2637 H 249.119 -3.62371 5.94693 0
M  V30 2638 H 246.746 -3.67298 6.6558 0
M  V30 2639 N 248.321 -0.919034 -1.28029 0
M  V30 2640 C 249.269 -0.401753 -2.29104 0
M  V30 2641 C 250.263 0.509354 -1.61561 0
M  V30 2642 O 251.469 0.390014 -1.75724 0
M  V30 2643 H 247.844 -0.111331 -0.743713 0
M  V30 2644 H 249.815 -1.2672 -2.70156 0
M  V30 2645 C 248.564 0.338148 -3.46052 0
M  V30 2646 H 247.887 -0.353732 -3.98232 0
M  V30 2647 H 249.327 0.664653 -4.18758 0
M  V30 2648 C 247.786 1.54798 -2.99231 0
M  V30 2649 O 248.316 2.64696 -3.02157 0
M  V30 2650 N 246.522 1.3968 -2.54829 0
M  V30 2651 H 246.069 0.502698 -2.52647 0
M  V30 2652 H 246.027 2.20755 -2.23863 0
M  V30 2653 N 249.799 1.42003 -0.683588 0
M  V30 2654 C 251.215 1.55625 -0.353976 0
M  V30 2655 C 251.415 1.66151 1.14 0
M  V30 2656 O 250.471 1.63329 1.92561 0
M  V30 2657 C 251.784 2.80171 -1.092 0
M  V30 2658 C 253.332 2.93954 -1.07518 0
M  V30 2659 C 253.807 4.21372 -1.79471 0
M  V30 2660 N 255.298 4.28303 -1.76381 0
M  V30 2661 C 256.033 5.25729 -2.28904 0
M  V30 2662 N 255.529 6.29254 -2.89846 0
M  V30 2663 N 257.322 5.17586 -2.19228 0
M  V30 2664 H 249.473 1.33415 -1.6527 0
M  V30 2665 H 251.736 0.64282 -0.696769 0
M  V30 2666 H 251.442 2.78561 -2.14701 0
M  V30 2667 H 251.316 3.7133 -0.662862 0
M  V30 2668 H 253.703 2.95086 -0.028475 0
M  V30 2669 H 253.784 2.04002 -1.54328 0
M  V30 2670 H 253.428 4.21001 -2.84114 0
M  V30 2671 H 253.358 5.10275 -1.30104 0
M  V30 2672 H 255.849 3.54119 -1.31939 0
M  V30 2673 H 256.162 6.99964 -3.27522 0
M  V30 2674 H 254.507 6.29791 -2.93919 0
M  V30 2675 H 257.698 4.35631 -1.71299 0
M  V30 2676 H 257.871 5.93348 -2.60466 0
M  V30 2677 N 251.277 0.427512 1.51691 0
M  V30 2678 C 252.693 0.0792977 1.59403 0
M  V30 2679 C 252.893 -1.41035 1.43914 0
M  V30 2680 O 251.949 -2.17922 1.27539 0
M  V30 2681 C 253.262 0.590636 2.94842 0
M  V30 2682 C 254.81 0.550215 3.08126 0
M  V30 2683 C 255.285 1.03836 4.46074 0
M  V30 2684 N 256.776 0.995943 4.52366 0
M  V30 2685 C 257.511 1.34463 5.57411 0
M  V30 2686 N 257.007 1.76569 6.69922 0
M  V30 2687 N 258.8 1.26343 5.47717 0
M  V30 2688 H 250.951 1.39687 1.60004 0
M  V30 2689 H 253.214 0.575003 0.753708 0
M  V30 2690 H 252.92 1.63251 3.11516 0
M  V30 2691 H 252.794 0.0102061 3.77199 0
M  V30 2692 H 255.181 -0.482654 2.91126 0
M  V30 2693 H 255.262 1.16693 2.27632 0
M  V30 2694 H 254.906 2.06965 4.63819 0
M  V30 2695 H 254.836 0.398286 5.25092 0
M  V30 2696 H 257.327 0.68661 3.7161 0
M  V30 2697 H 257.64 2.01438 7.46085 0
M  V30 2698 H 255.985 1.80488 6.71155 0
M  V30 2699 H 259.176 0.933209 4.58703 0
M  V30 2700 H 259.349 1.53846 6.29472 0
M  V30 2701 N 252.755 -1.56801 0.158532 0
M  V30 2702 C 253.687 -2.14488 -0.807923 0
M  V30 2703 C 254.7 -1.09721 -1.20271 0
M  V30 2704 O 255.889 -1.36956 -1.14478 0
M  V30 2705 C 252.989 -2.66217 -2.09718 0
M  V30 2706 C 252.162 -3.95507 -1.86796 0
M  V30 2707 C 251.221 -4.3243 -2.99818 0
M  V30 2708 O 250.247 -5.00543 -2.71008 0
M  V30 2709 N 251.449 -3.92947 -4.27285 0
M  V30 2710 H 254.214 -2.98042 -0.314816 0
M  V30 2711 H 251.775 -1.61881 -0.0246692 0
M  V30 2712 H 253.767 -2.87924 -2.84398 0
M  V30 2713 H 252.337 -1.87324 -2.50257 0
M  V30 2714 H 251.557 -3.82309 -0.96089 0
M  V30 2715 H 252.845 -4.79972 -1.68833 0
M  V30 2716 H 252.243 -3.38087 -4.53557 0
M  V30 2717 H 250.8 -4.19681 -4.9871 0
M  V30 2718 N 254.233 0.115231 -1.57178 0
M  V30 2719 C 255.163 1.1423 -2.03651 0
M  V30 2720 C 256.144 1.42967 -0.921655 0
M  V30 2721 O 257.329 1.53343 -1.19162 0
M  V30 2722 C 254.459 2.4675 -2.44401 0
M  V30 2723 C 253.413 2.32467 -3.59365 0
M  V30 2724 C 252.739 3.69984 -3.86026 0
M  V30 2725 C 254.039 1.78203 -4.90959 0
M  V30 2726 H 255.733 0.755749 -2.89705 0
M  V30 2727 H 253.279 0.362093 -1.39373 0
M  V30 2728 H 255.232 3.18854 -2.75517 0
M  V30 2729 H 253.956 2.87302 -1.55322 0
M  V30 2730 H 252.615 1.62811 -3.28463 0
M  V30 2731 H 252.263 4.08028 -2.94147 0
M  V30 2732 H 251.963 3.61279 -4.63412 0
M  V30 2733 H 253.487 4.43587 -4.19599 0
M  V30 2734 H 254.901 2.40128 -5.20587 0
M  V30 2735 H 253.298 1.8031 -5.72371 0
M  V30 2736 H 254.368 0.739876 -4.79222 0
M  V30 2737 N 255.711 1.52812 0.385517 0
M  V30 2738 C 256.621 1.80766 1.49535 0
M  V30 2739 C 257.637 0.694651 1.59532 0
M  V30 2740 O 258.813 0.982611 1.75803 0
M  V30 2741 C 255.878 1.97381 2.85029 0
M  V30 2742 C 254.939 3.21295 2.84724 0
M  V30 2743 C 254.172 3.37108 4.13756 0
M  V30 2744 O 254.395 2.5765 5.08893 0
M  V30 2745 O 253.329 4.30378 4.20783 0
M  V30 2746 H 257.155 2.75015 1.28842 0
M  V30 2747 H 254.74 1.37946 0.573697 0
M  V30 2748 H 256.622 2.09996 3.65349 0
M  V30 2749 H 255.297 1.06322 3.05741 0
M  V30 2750 H 254.204 3.1412 2.03174 0
M  V30 2751 H 255.537 4.12212 2.68965 0
M  V30 2752 N 257.189 -0.644168 1.43834 0
M  V30 2753 C 258.122 -1.76906 1.44151 0
M  V30 2754 C 259.1 -1.59774 0.301857 0
M  V30 2755 O 260.284 -1.81834 0.496841 0
M  V30 2756 C 257.411 -3.14321 1.26174 0
M  V30 2757 C 256.457 -3.50134 2.43533 0
M  V30 2758 S 257.29 -3.49085 4.06079 0
M  V30 2759 C 258.446 -4.89142 3.90501 0
M  V30 2760 H 258.679 -1.76368 2.39336 0
M  V30 2761 H 256.212 -0.817624 1.30974 0
M  V30 2762 H 258.17 -3.93625 1.16489 0
M  V30 2763 H 256.831 -3.12412 0.325224 0
M  V30 2764 H 256.024 -4.50095 2.26783 0
M  V30 2765 H 255.626 -2.78264 2.4989 0
M  V30 2766 H 257.918 -5.78036 3.53385 0
M  V30 2767 H 258.861 -5.10945 4.90246 0
M  V30 2768 H 259.269 -4.63102 3.22795 0
M  V30 2769 N 258.668 -1.30515 -0.883378 0
M  V30 2770 C 259.917 -1.18795 -1.63005 0
M  V30 2771 C 260.23 0.255923 -1.93919 0
M  V30 2772 O 261.436 0.494654 -2.66956 0
M  V30 2773 C 259.892 -2.07878 -2.93794 0
M  V30 2774 C 259.5 -3.57184 -2.70414 0
M  V30 2775 C 261.244 -2.04924 -3.71761 0
M  V30 2776 C 259.151 -4.38317 -3.97029 0
M  V30 2777 H 258.081 -0.441031 -0.611562 0
M  V30 2778 H 260.732 -1.55275 -0.977854 0
M  V30 2779 H 259.114 -1.64283 -3.60315 0
M  V30 2780 H 260.288 -4.08937 -2.12384 0
M  V30 2781 H 258.603 -3.61976 -2.0582 0
M  V30 2782 H 261.2 -2.62792 -4.65665 0
M  V30 2783 H 261.543 -1.0331 -4.03277 0
M  V30 2784 H 262.076 -2.46649 -3.12104 0
M  V30 2785 H 258.815 -5.40632 -3.70671 0
M  V30 2786 H 258.335 -3.91326 -4.54559 0
M  V30 2787 H 260.014 -4.49834 -4.65036 0
M  V30 2788 N 260.146 1.09593 -1.13257 0
M  V30 2789 C 261.076 2.18214 -0.830946 0
M  V30 2790 C 262.057 1.68812 0.208966 0
M  V30 2791 O 263.242 1.9408 0.0682666 0
M  V30 2792 C 260.372 3.46051 -0.294296 0
M  V30 2793 C 259.326 4.08778 -1.26826 0
M  V30 2794 C 258.652 5.31419 -0.591449 0
M  V30 2795 C 259.952 4.51476 -2.62615 0
M  V30 2796 H 261.646 2.43703 -1.73923 0
M  V30 2797 H 259.192 1.17128 -0.837675 0
M  V30 2798 H 261.145 4.2134 -0.0709606 0
M  V30 2799 H 259.869 3.20079 0.649366 0
M  V30 2800 H 258.528 3.35505 -1.47756 0
M  V30 2801 H 258.176 5.01727 0.357633 0
M  V30 2802 H 257.876 5.74341 -1.24123 0
M  V30 2803 H 259.4 6.09433 -0.377355 0
M  V30 2804 H 260.814 5.17999 -2.45663 0
M  V30 2805 H 259.211 5.05277 -3.23752 0
M  V30 2806 H 260.281 3.63962 -3.20406 0
M  V30 2807 N 261.624 0.925811 1.2754 0
M  V30 2808 C 262.572 0.413897 2.28888 0
M  V30 2809 C 263.566 -0.500779 1.61829 0
M  V30 2810 O 264.772 -0.38069 1.75928 0
M  V30 2811 H 261.147 0.115274 0.743112 0
M  V30 2812 H 263.118 1.28151 2.69481 0
M  V30 2813 C 261.867 -0.319792 3.46226 0
M  V30 2814 H 261.19 0.374846 3.98039 0
M  V30 2815 H 262.63 -0.642435 4.19105 0
M  V30 2816 C 261.089 -1.53209 3.00048 0
M  V30 2817 O 261.619 -2.6309 3.03557 0
M  V30 2818 N 259.825 -1.38326 2.55566 0
M  V30 2819 H 259.372 -0.489292 2.5291 0
M  V30 2820 H 259.33 -2.19564 2.25031 0
M  V30 2821 N 263.102 -1.41638 0.69111 0
M  V30 2822 C 264.049 -2.30789 0.0229705 0
M  V30 2823 C 265.019 -1.46863 -0.775911 0
M  V30 2824 O 266.204 -1.75661 -0.74485 0
M  V30 2825 C 263.344 -3.32868 -0.910666 0
M  V30 2826 C 262.457 -4.31875 -0.103874 0
M  V30 2827 C 261.592 -5.21024 -1.03475 0
M  V30 2828 C 260.631 -6.11702 -0.220598 0
M  V30 2829 N 259.768 -6.93349 -1.10504 0
M  V30 2830 H 264.608 -2.87366 0.788978 0
M  V30 2831 H 262.145 -1.41535 0.400794 0
M  V30 2832 H 264.103 -3.90596 -1.46597 0
M  V30 2833 H 262.733 -2.77851 -1.64312 0
M  V30 2834 H 261.785 -3.76131 0.568285 0
M  V30 2835 H 263.097 -4.96003 0.527504 0
M  V30 2836 H 262.251 -5.83565 -1.65943 0
M  V30 2837 H 260.99 -4.57112 -1.69999 0
M  V30 2838 H 259.995 -5.48215 0.417187 0
M  V30 2839 H 261.22 -6.77668 0.440784 0
M  V30 2840 H 259.166 -6.3205 -1.75638 0
M  V30 2841 H 259.083 -7.54146 -0.529125 0
M  V30 2842 H 260.351 -7.60362 -1.71667 0
M  V30 2843 N 264.58 -0.43555 -1.51462 0
M  V30 2844 C 265.991 0.0279871 -1.86679 0
M  V30 2845 C 266.342 1.42104 -1.35281 0
M  V30 2846 O 265.467 2.04667 -0.702878 0
M  V30 2847 C 266.062 0.0575626 -3.38751 0
M  V30 2848 C 264.621 0.465507 -3.7351 0
M  V30 2849 C 263.768 -0.342996 -2.75171 0
M  V30 2850 H 266.719 -0.651473 -1.44712 0
M  V30 2851 H 266.74 0.867421 -3.70481 0
M  V30 2852 H 266.252 -0.956448 -3.7613 0
M  V30 2853 H 264.353 1.48519 -3.41721 0
M  V30 2854 H 264.466 0.191546 -4.78717 0
M  V30 2855 H 262.83 0.198442 -2.53926 0
M  V30 2856 H 263.613 -1.35585 -3.15391 0
M  V30 2857 N 266.058 1.56714 -0.166846 0
M  V30 2858 C 267.306 1.96358 0.478305 0
M  V30 2859 C 267.627 1.0537 1.6408 0
M  V30 2860 O 266.897 0.119154 1.95537 0
M  V30 2861 H 265.477 0.725065 0.179692 0
M  V30 2862 H 268.139 1.93329 -0.246985 0
M  V30 2863 H 267.235 3.00547 0.841292 0
M  V30 2864 N 267.536 -0.106894 1.57237 0
M  V30 2865 C 268.466 -1.13148 2.04254 0
M  V30 2866 C 269.447 -1.42476 0.929224 0
M  V30 2867 O 270.632 -1.52709 1.19973 0
M  V30 2868 C 267.762 -2.4545 2.45706 0
M  V30 2869 C 266.716 -2.30558 3.60592 0
M  V30 2870 C 266.042 -3.67931 3.87983 0
M  V30 2871 C 267.342 -1.75597 4.91897 0
M  V30 2872 H 269.036 -0.740374 2.90101 0
M  V30 2873 H 266.582 -0.354696 1.39563 0
M  V30 2874 H 268.535 -3.17389 2.77205 0
M  V30 2875 H 267.259 -2.86475 1.56843 0
M  V30 2876 H 265.918 -1.61067 3.29322 0
M  V30 2877 H 265.566 -4.06462 2.96306 0
M  V30 2878 H 265.266 -3.58817 4.65322 0
M  V30 2879 H 266.79 -4.41356 4.21945 0
M  V30 2880 H 268.204 -2.37364 5.21854 0
M  V30 2881 H 266.601 -1.77272 5.73319 0
M  V30 2882 H 267.671 -0.714451 4.79608 0
M  V30 2883 N 269.014 -1.53014 -0.377408 0
M  V30 2884 C 269.961 -1.78616 -1.46168 0
M  V30 2885 C 270.931 -0.629917 -1.53692 0
M  V30 2886 O 272.116 -0.870861 -1.69766 0
M  V30 2887 C 269.256 -1.97123 -2.8326 0
M  V30 2888 C 268.369 -3.24831 -2.84796 0
M  V30 2889 C 267.504 -3.33591 -4.13389 0
M  V30 2890 C 266.543 -4.55377 -4.09021 0
M  V30 2891 N 265.68 -4.61355 -5.29241 0
M  V30 2892 H 270.52 -2.71142 -1.23637 0
M  V30 2893 H 268.057 -1.34326 -0.599577 0
M  V30 2894 H 270.015 -2.05839 -3.62886 0
M  V30 2895 H 268.645 -1.07946 -3.04216 0
M  V30 2896 H 267.697 -3.25128 -1.97474 0
M  V30 2897 H 269.009 -4.14523 -2.77439 0
M  V30 2898 H 268.163 -3.41554 -5.01424 0
M  V30 2899 H 266.902 -2.41894 -4.23484 0
M  V30 2900 H 265.907 -4.47527 -3.19373 0
M  V30 2901 H 267.132 -5.48402 -4.00539 0
M  V30 2902 H 265.078 -3.72554 -5.39944 0
M  V30 2903 H 264.995 -5.44935 -5.24006 0
M  V30 2904 H 266.263 -4.73586 -6.19141 0
M  V30 2905 N 270.492 0.636531 -1.44174 0
M  V30 2906 C 271.722 1.42146 -1.49927 0
M  V30 2907 C 272.13 1.88812 -0.121063 0
M  V30 2908 O 271.473 1.61126 0.882267 0
M  V30 2909 C 271.535 2.67883 -2.39748 0
M  V30 2910 C 271.199 2.43048 -3.8701 0
M  V30 2911 C 272.196 2.05216 -4.77684 0
M  V30 2912 C 269.881 2.56856 -4.3166 0
M  V30 2913 C 271.875 1.81512 -6.11009 0
M  V30 2914 C 269.562 2.32766 -5.65034 0
M  V30 2915 C 270.56 1.95152 -6.54526 0
M  V30 2916 O 270.248 1.71326 -7.85431 0
M  V30 2917 H 269.98 0.442567 -0.51099 0
M  V30 2918 H 272.534 0.786158 -1.8976 0
M  V30 2919 H 270.764 3.34032 -1.94832 0
M  V30 2920 H 272.453 3.29874 -2.36513 0
M  V30 2921 H 273.219 1.94111 -4.44462 0
M  V30 2922 H 269.098 2.85104 -3.62266 0
M  V30 2923 H 272.642 1.52077 -6.80822 0
M  V30 2924 H 268.539 2.43479 -5.97819 0
M  V30 2925 H 269.307 1.85616 -7.97176 0
M  V30 2926 N 271.97 1.30982 0.876444 0
M  V30 2927 C 272.917 1.18085 1.98304 0
M  V30 2928 C 273.887 0.0682263 1.6596 0
M  V30 2929 O 275.072 0.239937 1.89285 0
M  V30 2930 C 272.212 0.887475 3.33493 0
M  V30 2931 C 271.325 2.08281 3.78475 0
M  V30 2932 C 270.46 1.72678 5.0235 0
M  V30 2933 C 269.499 2.88657 5.39762 0
M  V30 2934 N 268.636 2.53292 6.54819 0
M  V30 2935 H 273.476 2.1275 2.08666 0
M  V30 2936 H 271.013 1.05839 1.02159 0
M  V30 2937 H 272.971 0.697961 4.1132 0
M  V30 2938 H 271.601 -0.022315 3.22792 0
M  V30 2939 H 270.653 2.3833 2.96484 0
M  V30 2940 H 271.965 2.95108 4.02135 0
M  V30 2941 H 271.119 1.50151 5.87826 0
M  V30 2942 H 269.858 0.830327 4.8058 0
M  V30 2943 H 268.863 3.1184 4.52809 0
M  V30 2944 H 270.088 3.79002 5.63502 0
M  V30 2945 H 268.034 1.66163 6.34607 0
M  V30 2946 H 267.951 3.3365 6.7839 0
M  V30 2947 H 269.219 2.34143 7.43503 0
M  V30 2948 N 273.449 -1.08991 1.13837 0
M  V30 2949 C 274.86 -1.62746 0.914917 0
M  V30 2950 C 275.211 -1.88403 -0.547594 0
M  V30 2951 O 274.336 -1.63706 -1.41525 0
M  V30 2952 C 274.931 -2.95662 1.65437 0
M  V30 2953 C 273.49 -3.46225 1.47666 0
M  V30 2954 C 272.637 -2.20562 1.6807 0
M  V30 2955 H 275.588 -0.922946 1.29102 0
M  V30 2956 H 275.609 -3.63825 1.11407 0
M  V30 2957 H 275.121 -2.76956 2.71877 0
M  V30 2958 H 273.222 -3.70046 0.435478 0
M  V30 2959 H 273.335 -4.23368 2.24268 0
M  V30 2960 H 271.699 -2.29439 1.10589 0
M  V30 2961 H 272.482 -2.0437 2.7584 0
M  V30 2962 N 274.927 -0.932562 -1.27047 0
M  V30 2963 C 276.173 -0.576412 -1.94436 0
M  V30 2964 C 276.506 0.880891 -1.73072 0
M  V30 2965 O 275.781 1.62905 -1.06264 0
M  V30 2966 C 276.064 -0.909031 -3.48437 0
M  V30 2967 C 275.917 -2.42044 -3.79123 0
M  V30 2968 C 277.236 -0.418341 -4.38107 0
M  V30 2969 H 274.355 -0.210888 -0.706184 0
M  V30 2970 H 276.997 -1.16522 -1.50075 0
M  V30 2971 H 275.147 -0.407947 -3.86352 0
M  V30 2972 H 276.819 -2.99359 -3.50973 0
M  V30 2973 H 275.062 -2.86758 -3.25503 0
M  V30 2974 H 275.733 -2.6037 -4.86736 0
M  V30 2975 H 278.209 -0.847856 -4.0737 0
M  V30 2976 H 277.085 -0.679981 -5.44672 0
M  V30 2977 H 277.346 0.681642 -4.36814 0
M  V30 2978 N 276.405 1.4127 -0.698611 0
M  V30 2979 C 277.645 2.03044 -0.235062 0
M  V30 2980 C 278.009 1.54146 1.14468 0
M  V30 2981 O 279.21 2.07867 1.70425 0
M  V30 2982 C 277.481 3.56192 -0.293651 0
M  V30 2983 S 279.04 4.38696 0.0954053 0
M  V30 2984 H 275.858 0.704697 -0.0944648 0
M  V30 2985 H 278.46 1.72656 -0.917064 0
M  V30 2986 H 277.164 3.89274 -1.29977 0
M  V30 2987 H 276.695 3.91285 0.407397 0
M  V30 2988 H 278.71 4.78257 1.3223 0
M  V30 2989 N 277.883 0.443576 1.51229 0
M  V30 2990 C 278.831 -0.37904 2.29491 0
M  V30 2991 C 279.825 -1.0153 1.35603 0
M  V30 2992 O 281.031 -0.94955 1.52917 0
M  V30 2993 H 277.406 -0.141053 0.738653 0
M  V30 2994 H 279.377 0.301799 2.9687 0
M  V30 2995 C 278.126 -1.46426 3.15364 0
M  V30 2996 H 277.449 -0.984037 3.87501 0
M  V30 2997 H 278.889 -2.01297 3.7317 0
M  V30 2998 C 277.348 -2.45099 2.31146 0
M  V30 2999 O 277.878 -3.49773 1.9754 0
M  V30 3000 N 276.084 -2.16139 1.94249 0
M  V30 3001 H 275.631 -1.31044 2.21777 0
M  V30 3002 H 275.589 -2.82398 1.38198 0
M  V30 3003 N 279.361 -1.56624 0.175154 0
M  V30 3004 C 280.293 -2.15333 -0.785128 0
M  V30 3005 C 281.306 -1.1099 -1.19101 0
M  V30 3006 O 282.495 -1.38162 -1.13019 0
M  V30 3007 C 279.595 -2.68427 -2.06882 0
M  V30 3008 C 278.768 -3.97466 -1.8259 0
M  V30 3009 C 277.827 -4.35585 -2.95215 0
M  V30 3010 O 276.853 -5.03389 -2.65684 0
M  V30 3011 N 278.055 -3.97457 -4.23094 0
M  V30 3012 H 280.82 -2.98359 -0.283187 0
M  V30 3013 H 278.381 -1.61898 -0.00749817 0
M  V30 3014 H 280.373 -2.90924 -2.81328 0
M  V30 3015 H 278.943 -1.89968 -2.48256 0
M  V30 3016 H 278.163 -3.83307 -0.920287 0
M  V30 3017 H 279.451 -4.81736 -1.63733 0
M  V30 3018 H 278.849 -3.42878 -4.49945 0
M  V30 3019 H 277.406 -4.24947 -4.9423 0
M  V30 3020 N 280.839 0.0985539 -1.57292 0
M  V30 3021 C 282.085 0.803867 -1.86188 0
M  V30 3022 C 282.418 1.78549 -0.763794 0
M  V30 3023 O 281.693 1.93153 0.22855 0
M  V30 3024 C 281.976 1.53568 -3.25713 0
M  V30 3025 C 281.829 0.572277 -4.46145 0
M  V30 3026 C 283.148 2.48708 -3.63087 0
M  V30 3027 H 280.267 0.290781 -0.677211 0
M  V30 3028 H 282.909 0.0675783 -1.8988 0
M  V30 3029 H 281.059 2.16332 -3.22696 0
M  V30 3030 H 282.731 -0.0480894 -4.61275 0
M  V30 3031 H 280.974 -0.114618 -4.33649 0
M  V30 3032 H 281.645 1.12139 -5.40489 0
M  V30 3033 H 284.121 1.96039 -3.67026 0
M  V30 3034 H 282.997 2.96932 -4.61652 0
M  V30 3035 H 283.258 3.32309 -2.91588 0
M  V30 3036 N 282.317 1.53212 0.369288 0
M  V30 3037 C 283.227 1.82342 1.47609 0
M  V30 3038 C 284.243 0.711532 1.58787 0
M  V30 3039 O 285.419 1.0012 1.74751 0
M  V30 3040 C 282.484 2.00393 2.8292 0
M  V30 3041 C 281.545 3.24297 2.81301 0
M  V30 3042 C 280.778 3.41478 4.10157 0
M  V30 3043 O 281.001 2.63033 5.06132 0
M  V30 3044 O 279.935 4.34817 4.16194 0
M  V30 3045 H 283.761 2.76366 1.25918 0
M  V30 3046 H 281.346 1.38547 0.559034 0
M  V30 3047 H 283.228 2.13859 3.63101 0
M  V30 3048 H 281.903 1.09559 3.04596 0
M  V30 3049 H 280.81 3.16257 1.99831 0
M  V30 3050 H 282.143 4.15041 2.64578 0
M  V30 3051 N 283.795 -0.628877 1.44509 0
M  V30 3052 C 285.035 -1.39993 1.48934 0
M  V30 3053 C 285.399 -1.91627 0.119604 0
M  V30 3054 O 286.6 -2.68772 0.0385283 0
M  V30 3055 C 284.871 -2.53241 2.52198 0
M  V30 3056 S 286.43 -3.41383 2.75687 0
M  V30 3057 H 283.248 -0.477558 0.526744 0
M  V30 3058 H 285.85 -0.727804 1.81448 0
M  V30 3059 H 284.554 -2.13622 3.50419 0
M  V30 3060 H 284.085 -3.25278 2.21264 0
M  V30 3061 H 286.1 -4.50752 2.07453 0
M  V30 3062 N 285.273 -1.31445 -0.869486 0
M  V30 3063 C 286.223 -1.15731 -1.96444 0
M  V30 3064 C 287.207 -0.0681855 -1.60755 0
M  V30 3065 O 288.399 -0.293154 -1.74555 0
M  V30 3066 C 285.528 -0.867255 -3.32165 0
M  V30 3067 C 284.614 -1.99738 -3.74119 0
M  V30 3068 N 285.005 -3.24447 -3.88031 0
M  V30 3069 C 283.303 -1.89723 -4.03635 0
M  V30 3070 C 284.004 -3.98374 -4.23879 0
M  V30 3071 N 282.98 -3.26547 -4.3459 0
M  V30 3072 H 286.782 -2.10296 -2.05312 0
M  V30 3073 H 284.296 -1.23009 -1.06031 0
M  V30 3074 H 286.293 -0.735668 -4.10358 0
M  V30 3075 H 284.953 0.0701614 -3.24624 0
M  V30 3076 H 285.964 -3.59557 -3.72746 0
M  V30 3077 H 282.641 -1.03449 -4.04481 0
M  V30 3078 H 284.031 -5.05844 -4.42235 0
M  V30 3079 N 286.751 1.08385 -1.14413 0
M  V30 3080 C 288.162 1.62258 -0.923535 0
M  V30 3081 C 288.513 1.88691 0.537595 0
M  V30 3082 O 287.638 1.64454 1.40655 0
M  V30 3083 C 288.233 2.94781 -1.67002 0
M  V30 3084 C 286.792 3.45437 -1.495 0
M  V30 3085 C 285.939 2.19668 -1.69238 0
M  V30 3086 H 288.89 0.916086 -1.2959 0
M  V30 3087 H 288.911 3.63229 -1.13334 0
M  V30 3088 H 288.423 2.7551 -2.73342 0
M  V30 3089 H 286.524 3.6981 -0.455097 0
M  V30 3090 H 286.637 4.22173 -2.2651 0
M  V30 3091 H 285.001 2.28849 -1.11804 0
M  V30 3092 H 285.784 2.02905 -2.7692 0
M  V30 3093 N 288.23 0.939286 1.26551 0
M  V30 3094 C 289.46 0.601663 1.97645 0
M  V30 3095 C 289.868 -0.827206 1.70159 0
M  V30 3096 O 289.211 -1.56291 0.965338 0
M  V30 3097 C 289.273 0.761725 3.51337 0
M  V30 3098 C 288.937 2.16487 4.0247 0
M  V30 3099 C 289.934 3.14016 4.14355 0
M  V30 3100 C 287.619 2.48494 4.36527 0
M  V30 3101 C 289.613 4.41654 4.59587 0
M  V30 3102 C 287.3 3.76364 4.81449 0
M  V30 3103 C 288.298 4.72758 4.92939 0
M  V30 3104 O 287.986 5.98352 5.36871 0
M  V30 3105 H 287.718 0.225758 0.637189 0
M  V30 3106 H 290.272 1.26178 1.62075 0
M  V30 3107 H 288.502 0.0444808 3.86674 0
M  V30 3108 H 290.191 0.427442 4.03643 0
M  V30 3109 H 290.957 2.90613 3.8829 0
M  V30 3110 H 286.836 1.74202 4.26819 0
M  V30 3111 H 290.38 5.16896 4.68471 0
M  V30 3112 H 286.277 3.99582 5.06956 0
M  V30 3113 H 287.045 6.01507 5.55096 0
M  V30 3114 N 289.708 -1.40897 0.706093 0
M  V30 3115 C 290.955 -2.01054 0.241531 0
M  V30 3116 C 291.283 -1.55956 -1.16223 0
M  V30 3117 O 290.538 -0.766336 -1.80072 0
M  V30 3118 C 290.837 -3.5646 0.259099 0
M  V30 3119 C 290.503 -4.21106 1.61184 0
M  V30 3120 C 289.165 -4.38479 1.98216 0
M  V30 3121 C 291.517 -4.57256 2.50132 0
M  V30 3122 C 288.845 -4.89282 3.2376 0
M  V30 3123 C 291.197 -5.09454 3.7502 0
M  V30 3124 C 289.861 -5.25037 4.12181 0
M  V30 3125 H 289.131 -0.73571 0.0883825 0
M  V30 3126 H 291.778 -1.68645 0.907257 0
M  V30 3127 H 290.083 -3.88721 -0.490189 0
M  V30 3128 H 291.78 -4.00826 -0.11804 0
M  V30 3129 H 288.37 -4.07966 1.31384 0
M  V30 3130 H 292.554 -4.43479 2.228 0
M  V30 3131 H 287.81 -4.99531 3.52532 0
M  V30 3132 H 291.984 -5.36404 4.44121 0
M  V30 3133 H 289.611 -5.64164 5.09532 0
M  V30 3134 N 291.186 -0.45159 -1.50991 0
M  V30 3135 C 292.134 0.366864 -2.29689 0
M  V30 3136 C 293.128 1.00809 -1.36139 0
M  V30 3137 O 294.334 0.941427 -1.53418 0
M  V30 3138 H 290.709 0.137133 -0.739391 0
M  V30 3139 H 292.68 -0.317538 -2.96706 0
M  V30 3140 C 291.429 1.44751 -3.16137 0
M  V30 3141 H 290.752 0.963473 -3.88017 0
M  V30 3142 H 292.192 1.99315 -3.74232 0
M  V30 3143 C 290.651 2.43869 -2.32442 0
M  V30 3144 O 291.181 3.4872 -1.99392 0
M  V30 3145 N 289.387 2.15105 -1.95392 0
M  V30 3146 H 288.934 1.29866 -2.22469 0
M  V30 3147 H 288.892 2.81661 -1.39693 0
M  V30 3148 N 292.664 1.56529 -0.183458 0
M  V30 3149 C 294.08 1.58664 0.172554 0
M  V30 3150 C 294.28 1.19925 1.61926 0
M  V30 3151 O 293.336 0.916534 2.35278 0
M  V30 3152 C 294.649 3.00463 -0.119262 0
M  V30 3153 C 296.197 3.12945 -0.0584396 0
M  V30 3154 C 296.672 4.56857 -0.323408 0
M  V30 3155 N 298.163 4.62403 -0.271612 0
M  V30 3156 C 298.898 5.71626 -0.450639 0
M  V30 3157 N 298.394 6.89362 -0.689384 0
M  V30 3158 N 300.187 5.60775 -0.385701 0
M  V30 3159 H 292.338 1.79994 -1.12765 0
M  V30 3160 H 294.601 0.834808 -0.449222 0
M  V30 3161 H 294.307 3.33326 -1.12192 0
M  V30 3162 H 294.181 3.72659 0.583544 0
M  V30 3163 H 296.568 2.79902 0.934805 0
M  V30 3164 H 296.649 2.4316 -0.794144 0
M  V30 3165 H 296.293 4.9061 -1.31392 0
M  V30 3166 H 296.223 5.24816 0.43305 0
M  V30 3167 H 298.714 3.77785 -0.0932256 0
M  V30 3168 H 299.027 7.68489 -0.815113 0
M  V30 3169 H 297.372 6.91196 -0.726142 0
M  V30 3170 H 300.563 4.67674 -0.199687 0
M  V30 3171 H 300.736 6.4584 -0.528646 0
M  V30 3172 N 294.142 -0.090211 1.57342 0
M  V30 3173 C 295.367 -0.810082 1.90925 0
M  V30 3174 C 295.792 -1.71248 0.778187 0
M  V30 3175 O 295.15 -1.79278 -0.269991 0
M  V30 3176 C 295.198 -1.59529 3.23393 0
M  V30 3177 O 294.302 -2.70461 3.11327 0
M  V30 3178 H 293.643 -0.222231 0.625707 0
M  V30 3179 H 296.173 -0.0639716 2.045 0
M  V30 3180 H 296.183 -1.97847 3.5682 0
M  V30 3181 H 294.858 -0.933055 4.05299 0
M  V30 3182 H 293.435 -2.35135 2.89423 0
M  V30 3183 N 295.62 -1.53406 -0.361157 0
M  V30 3184 C 296.567 -1.80156 -1.44265 0
M  V30 3185 C 297.537 -0.646183 -1.53015 0
M  V30 3186 O 298.722 -0.888818 -1.68833 0
M  V30 3187 C 295.862 -2.00116 -2.81154 0
M  V30 3188 C 294.975 -3.27833 -2.81335 0
M  V30 3189 C 294.11 -3.37957 -4.09828 0
M  V30 3190 C 293.149 -4.59689 -4.04168 0
M  V30 3191 N 292.286 -4.66942 -5.24318 0
M  V30 3192 H 297.126 -2.72438 -1.20754 0
M  V30 3193 H 294.663 -1.34954 -0.585296 0
M  V30 3194 H 296.621 -2.09677 -3.60682 0
M  V30 3195 H 295.251 -1.11167 -3.03054 0
M  V30 3196 H 294.303 -3.27204 -1.94014 0
M  V30 3197 H 295.615 -4.17442 -2.73027 0
M  V30 3198 H 294.769 -3.46853 -4.97773 0
M  V30 3199 H 293.508 -2.46372 -4.20894 0
M  V30 3200 H 292.513 -4.50889 -3.14609 0
M  V30 3201 H 293.738 -5.5262 -3.947 0
M  V30 3202 H 291.684 -3.7826 -5.35962 0
M  V30 3203 H 291.601 -5.50462 -5.18197 0
M  V30 3204 H 292.869 -4.80127 -6.14084 0
M  V30 3205 N 297.098 0.621204 -1.44841 0
M  V30 3206 C 298.028 1.74366 -1.55303 0
M  V30 3207 C 299.009 1.65199 -0.405385 0
M  V30 3208 O 300.194 1.83807 -0.626787 0
M  V30 3209 C 297.324 3.12931 -1.50637 0
M  V30 3210 C 296.278 3.36896 -2.63979 0
M  V30 3211 C 295.604 4.75594 -2.44366 0
M  V30 3212 C 296.904 3.28483 -4.06074 0
M  V30 3213 H 298.598 1.65867 -2.49256 0
M  V30 3214 H 296.144 0.796558 -1.19962 0
M  V30 3215 H 298.097 3.9124 -1.56555 0
M  V30 3216 H 296.821 3.22237 -0.532057 0
M  V30 3217 H 295.48 2.60972 -2.57467 0
M  V30 3218 H 295.128 4.81616 -1.45105 0
M  V30 3219 H 294.828 4.92586 -3.20364 0
M  V30 3220 H 296.352 5.5612 -2.52117 0
M  V30 3221 H 297.766 3.96684 -4.13902 0
M  V30 3222 H 296.163 3.57008 -4.82354 0
M  V30 3223 H 297.233 2.26133 -4.28943 0
M  V30 3224 N 298.576 1.31904 0.862503 0
M  V30 3225 C 299.506 1.22782 1.98612 0
M  V30 3226 C 300.487 0.113362 1.69722 0
M  V30 3227 O 301.672 0.299218 1.91881 0
M  V30 3228 C 298.802 0.942058 3.34279 0
M  V30 3229 C 297.756 2.0169 3.77499 0
M  V30 3230 C 297.082 1.58369 5.10709 0
M  V30 3231 C 298.382 3.43096 3.93805 0
M  V30 3232 H 300.076 2.16788 2.06502 0
M  V30 3233 H 297.622 1.04366 0.992154 0
M  V30 3234 H 299.575 0.864818 4.1243 0
M  V30 3235 H 298.299 -0.0336603 3.26583 0
M  V30 3236 H 296.958 2.08416 3.01593 0
M  V30 3237 H 296.606 0.595628 4.99461 0
M  V30 3238 H 296.306 2.30279 5.40597 0
M  V30 3239 H 297.83 1.52067 5.91361 0
M  V30 3240 H 299.244 3.39003 4.62331 0
M  V30 3241 H 297.641 4.13288 4.35101 0
M  V30 3242 H 298.711 3.83334 2.96957 0
M  V30 3243 N 300.054 -1.07777 1.14986 0
M  V30 3244 C 301.331 -1.7699 0.832695 0
M  V30 3245 C 301.711 -2.001 -0.672561 0
M  V30 3246 O 301.059 -1.61598 -1.6155 0
M  V30 3247 C 301.269 -3.08139 1.63863 0
M  V30 3248 C 302.617 -3.8256 1.84208 0
M  V30 3249 O 303.641 -3.17939 1.60603 0
M  V30 3250 O 302.5 -4.98612 2.23714 0
M  V30 3251 H 299.594 -0.768389 0.305791 0
M  V30 3252 H 302.14 -1.14182 1.25541 0
M  V30 3253 H 300.912 -2.86909 2.6608 0
M  V30 3254 H 300.535 -3.78678 1.21197 0
M  V30 3255 N 301.532 -0.945985 -1.26051 0
M  V30 3256 C 302.779 -0.596118 -1.93527 0
M  V30 3257 C 303.107 0.865559 -1.74179 0
M  V30 3258 O 302.362 1.63524 -1.0751 0
M  V30 3259 C 302.661 -0.890475 -3.46129 0
M  V30 3260 C 302.327 -2.3368 -3.85622 0
M  V30 3261 C 300.989 -2.73216 -3.96114 0
M  V30 3262 C 303.341 -3.27648 -4.05334 0
M  V30 3263 C 300.669 -4.05806 -4.2372 0
M  V30 3264 C 303.021 -4.59841 -4.3443 0
M  V30 3265 C 301.685 -4.99185 -4.43137 0
M  V30 3266 H 300.955 -0.218135 -0.708165 0
M  V30 3267 H 303.602 -1.1934 -1.49768 0
M  V30 3268 H 301.907 -0.210711 -3.91233 0
M  V30 3269 H 303.604 -0.598478 -3.96509 0
M  V30 3270 H 300.194 -2.02015 -3.78005 0
M  V30 3271 H 304.378 -2.98298 -3.96651 0
M  V30 3272 H 299.634 -4.35945 -4.28675 0
M  V30 3273 H 303.808 -5.32641 -4.48628 0
M  V30 3274 H 301.435 -6.01952 -4.64282 0
M  V30 3275 N 303.011 1.40521 -0.713556 0
M  V30 3276 C 304.251 2.02783 -0.256584 0
M  V30 3277 C 304.615 1.55352 1.12827 0
M  V30 3278 O 305.816 2.09663 1.68211 0
M  V30 3279 C 304.087 3.5586 -0.331414 0
M  V30 3280 S 305.646 4.38773 0.0488703 0
M  V30 3281 H 302.464 0.703655 -0.101934 0
M  V30 3282 H 305.066 1.71674 -0.935325 0
M  V30 3283 H 303.77 3.87874 -1.34098 0
M  V30 3284 H 303.301 3.91695 0.365873 0
M  V30 3285 H 305.316 4.79633 1.2715 0
M  V30 3286 N 304.489 0.459591 1.5075 0
M  V30 3287 C 305.436 -0.340524 2.28274 0
M  V30 3288 C 306.406 -0.997371 1.32822 0
M  V30 3289 O 307.591 -1.01202 1.61749 0
M  V30 3290 C 304.731 -1.42317 3.14388 0
M  V30 3291 C 303.844 -0.782251 4.24859 0
M  V30 3292 C 302.979 -1.84182 4.98247 0
M  V30 3293 C 302.018 -1.18053 6.00608 0
M  V30 3294 N 301.155 -2.18244 6.67319 0
M  V30 3295 H 305.995 0.326899 2.96202 0
M  V30 3296 H 303.532 0.173057 1.46078 0
M  V30 3297 H 305.49 -2.06241 3.62658 0
M  V30 3298 H 304.12 -2.05992 2.4853 0
M  V30 3299 H 303.172 -0.0307404 3.80388 0
M  V30 3300 H 304.484 -0.259663 4.98124 0
M  V30 3301 H 303.638 -2.55714 5.50177 0
M  V30 3302 H 302.377 -2.39819 4.24662 0
M  V30 3303 H 301.382 -0.450776 5.47949 0
M  V30 3304 H 302.607 -0.631202 6.7616 0
M  V30 3305 H 300.553 -2.72919 5.96533 0
M  V30 3306 H 300.47 -1.70938 7.36421 0
M  V30 3307 H 301.738 -2.89191 7.23871 0
M  V30 3308 N 305.967 -1.56429 0.191757 0
M  V30 3309 C 307.192 -2.02309 -0.456706 0
M  V30 3310 C 307.617 -1.07103 -1.5463 0
M  V30 3311 O 306.975 -0.0539677 -1.8122 0
M  V30 3312 C 307.023 -3.46654 -0.993159 0
M  V30 3313 O 306.127 -3.54559 -2.10622 0
M  V30 3314 H 305.468 -0.655303 -0.107114 0
M  V30 3315 H 307.998 -2.02364 0.301653 0
M  V30 3316 H 308.008 -3.86377 -1.31061 0
M  V30 3317 H 306.683 -4.1544 -0.195504 0
M  V30 3318 H 305.26 -3.26708 -1.79767 0
M  V30 3319 N 307.445 0.0818655 -1.57387 0
M  V30 3320 C 308.392 1.09834 -2.0299 0
M  V30 3321 C 309.362 1.39043 -0.908639 0
M  V30 3322 O 310.547 1.50282 -1.17559 0
M  V30 3323 C 307.687 2.40971 -2.47037 0
M  V30 3324 C 306.8 2.18379 -3.7274 0
M  V30 3325 C 305.935 3.43008 -4.0561 0
M  V30 3326 C 304.974 3.15736 -5.24383 0
M  V30 3327 N 304.111 4.32667 -5.52941 0
M  V30 3328 H 308.951 0.702472 -2.89602 0
M  V30 3329 H 306.488 0.33531 -1.43227 0
M  V30 3330 H 308.446 3.1752 -2.70623 0
M  V30 3331 H 307.076 2.78379 -1.63417 0
M  V30 3332 H 306.128 1.32569 -3.56552 0
M  V30 3333 H 307.44 1.94227 -4.59431 0
M  V30 3334 H 306.594 4.27958 -4.30043 0
M  V30 3335 H 305.333 3.70225 -3.17466 0
M  V30 3336 H 304.338 2.2918 -4.99757 0
M  V30 3337 H 305.563 2.8985 -6.14136 0
M  V30 3338 H 303.509 4.59935 -4.67756 0
M  V30 3339 H 303.426 4.11753 -6.34031 0
M  V30 3340 H 304.694 5.18644 -5.81918 0
M  V30 3341 N 308.923 1.53595 0.353017 0
M  V30 3342 C 310.2 1.61002 1.11075 0
M  V30 3343 C 310.58 0.425356 2.0677 0
M  V30 3344 O 309.928 -0.583267 2.2093 0
M  V30 3345 C 310.138 2.96631 1.83877 0
M  V30 3346 C 311.486 3.51653 2.37961 0
M  V30 3347 O 312.51 2.98743 1.93987 0
M  V30 3348 O 311.369 4.44177 3.18386 0
M  V30 3349 H 308.463 0.650825 0.510251 0
M  V30 3350 H 311.009 1.6594 0.35527 0
M  V30 3351 H 309.781 3.74293 1.14108 0
M  V30 3352 H 309.404 2.95242 2.66304 0
M  V30 3353 N 310.401 -0.613514 1.45168 0
M  V30 3354 C 311.65 -1.36874 1.4815 0
M  V30 3355 C 311.963 -1.952 0.124982 0
M  V30 3356 O 313.169 -2.71481 0.0324176 0
M  V30 3357 C 311.625 -2.47905 2.60904 0
M  V30 3358 C 311.233 -1.96016 4.02842 0
M  V30 3359 C 312.977 -3.24965 2.73126 0
M  V30 3360 C 310.884 -3.04494 5.06988 0
M  V30 3361 H 309.814 -0.514428 0.551253 0
M  V30 3362 H 312.465 -0.658182 1.7129 0
M  V30 3363 H 310.847 -3.21618 2.31037 0
M  V30 3364 H 312.021 -1.29051 4.4236 0
M  V30 3365 H 310.336 -1.31719 3.95018 0
M  V30 3366 H 312.933 -4.05865 3.48106 0
M  V30 3367 H 313.276 -3.75588 1.79553 0
M  V30 3368 H 313.809 -2.5835 3.0249 0
M  V30 3369 H 310.548 -2.58795 6.0225 0
M  V30 3370 H 310.068 -3.70044 4.72046 0
M  V30 3371 H 311.747 -3.68976 5.31475 0
M  V30 3372 N 311.879 -1.3236 -0.855495 0
M  V30 3373 C 313.125 -1.23054 -1.612 0
M  V30 3374 C 313.458 0.207404 -1.93089 0
M  V30 3375 O 312.733 1.14432 -1.57275 0
M  V30 3376 C 313.016 -2.08937 -2.93287 0
M  V30 3377 C 312.869 -3.61105 -2.68185 0
M  V30 3378 C 314.188 -1.94986 -3.94549 0
M  V30 3379 H 311.307 -0.448364 -0.584926 0
M  V30 3380 H 313.949 -1.62297 -0.987917 0
M  V30 3381 H 312.099 -1.75599 -3.46551 0
M  V30 3382 H 313.771 -4.04652 -2.21483 0
M  V30 3383 H 312.014 -3.83813 -2.02164 0
M  V30 3384 H 312.685 -4.16522 -3.62234 0
M  V30 3385 H 315.161 -2.24189 -3.5054 0
M  V30 3386 H 314.037 -2.57356 -4.84829 0
M  V30 3387 H 314.298 -0.917263 -4.3248 0
M  V30 3388 N 313.357 1.07166 -1.15556 0
M  V30 3389 C 314.287 2.16403 -0.877046 0
M  V30 3390 C 315.268 1.69217 0.173111 0
M  V30 3391 O 316.453 1.94181 0.027084 0
M  V30 3392 C 313.583 3.45349 -0.367632 0
M  V30 3393 C 312.537 4.05995 -1.35468 0
M  V30 3394 C 311.863 5.30045 -0.704038 0
M  V30 3395 C 313.163 4.45804 -2.72132 0
M  V30 3396 H 314.857 2.39959 -1.79053 0
M  V30 3397 H 312.403 1.15325 -0.862331 0
M  V30 3398 H 314.356 4.21095 -0.160317 0
M  V30 3399 H 313.08 3.21385 0.581326 0
M  V30 3400 H 311.739 3.32296 -1.54839 0
M  V30 3401 H 311.387 5.02373 0.251128 0
M  V30 3402 H 311.087 5.71579 -1.36277 0
M  V30 3403 H 312.611 6.08495 -0.50654 0
M  V30 3404 H 314.025 5.12671 -2.56595 0
M  V30 3405 H 312.422 4.98296 -3.34397 0
M  V30 3406 H 313.492 3.57083 -3.28054 0
M  V30 3407 N 314.835 0.952656 1.25548 0
M  V30 3408 C 316.081 0.607272 1.93494 0
M  V30 3409 C 316.414 -0.853245 1.74452 0
M  V30 3410 O 315.689 -1.61194 1.08843 0
M  V30 3411 C 315.972 0.96435 3.46947 0
M  V30 3412 C 315.825 2.48045 3.75225 0
M  V30 3413 C 317.144 0.487987 4.37386 0
M  V30 3414 H 314.263 0.222096 0.702739 0
M  V30 3415 H 316.905 1.18895 1.48203 0
M  V30 3416 H 315.055 0.469361 3.85654 0
M  V30 3417 H 316.727 3.04905 3.46166 0
M  V30 3418 H 314.97 2.919 3.209 0
M  V30 3419 H 315.641 2.6808 4.82532 0
M  V30 3420 H 318.117 0.912558 4.0597 0
M  V30 3421 H 316.993 0.766547 5.43521 0
M  V30 3422 H 317.254 -0.612063 4.37843 0
M  V30 3423 N 316.313 -1.40141 0.720998 0
M  V30 3424 C 317.276 -2.29058 0.0805834 0
M  V30 3425 C 318.276 -1.45632 -0.681758 0
M  V30 3426 O 319.466 -1.6648 -0.512856 0
M  V30 3427 C 316.598 -3.28925 -0.895593 0
M  V30 3428 H 317.791 -2.87191 0.863793 0
M  V30 3429 H 315.344 -1.48553 0.485975 0
M  V30 3430 H 316.079 -2.75822 -1.70566 0
M  V30 3431 H 315.864 -3.90519 -0.351766 0
M  V30 3432 H 317.354 -3.95494 -1.34069 0
M  V30 3433 N 317.792 -0.46758 -1.50504 0
M  V30 3434 C 319.022 0.086288 -2.0642 0
M  V30 3435 C 319.43 1.34369 -1.33197 0
M  V30 3436 O 318.773 1.79431 -0.393747 0
M  V30 3437 C 318.835 0.443846 -3.5675 0
M  V30 3438 C 318.499 -0.711035 -4.51435 0
M  V30 3439 C 319.496 -1.59205 -4.94924 0
M  V30 3440 C 317.181 -0.900363 -4.94165 0
M  V30 3441 C 319.175 -2.64683 -5.79846 0
M  V30 3442 C 316.862 -1.95837 -5.7887 0
M  V30 3443 C 317.86 -2.82997 -6.21612 0
M  V30 3444 O 317.548 -3.86977 -7.0463 0
M  V30 3445 H 317.28 -0.00217814 -0.675996 0
M  V30 3446 H 319.834 -0.654346 -1.94698 0
M  V30 3447 H 318.064 1.23762 -3.6636 0
M  V30 3448 H 319.753 0.932386 -3.95046 0
M  V30 3449 H 320.519 -1.45745 -4.62583 0
M  V30 3450 H 316.398 -0.231427 -4.60419 0
M  V30 3451 H 319.942 -3.32745 -6.13128 0
M  V30 3452 H 315.839 -2.09305 -6.10624 0
M  V30 3453 H 316.607 -3.83923 -7.22873 0
M  V30 3454 N 319.27 1.56325 -0.20005 0
M  V30 3455 C 320.495 2.02548 0.44597 0
M  V30 3456 C 320.92 1.07922 1.5406 0
M  V30 3457 O 320.278 0.0635775 1.81188 0
M  V30 3458 C 320.326 3.47175 0.974761 0
M  V30 3459 O 319.43 3.55671 2.08739 0
M  V30 3460 H 318.771 0.655862 0.103638 0
M  V30 3461 H 321.301 2.02201 -0.312381 0
M  V30 3462 H 321.311 3.87067 1.2901 0
M  V30 3463 H 319.986 4.15538 0.17347 0
M  V30 3464 H 318.563 3.27657 1.78032 0
M  V30 3465 N 320.748 -0.0735177 1.57428 0
M  V30 3466 C 321.711 -1.07192 2.02589 0
M  V30 3467 C 322.711 -1.31695 0.922661 0
M  V30 3468 O 323.901 -1.27445 1.18758 0
M  V30 3469 C 321.033 -2.41599 2.40506 0
M  V30 3470 H 322.226 -0.682727 2.92025 0
M  V30 3471 H 319.779 -0.319193 1.53006 0
M  V30 3472 H 320.514 -2.85354 1.5409 0
M  V30 3473 H 320.299 -2.25156 3.21009 0
M  V30 3474 H 321.789 -3.13367 2.76027 0
M  V30 3475 N 322.226 -1.5378 -0.344866 0
M  V30 3476 C 323.156 -1.84662 -1.42906 0
M  V30 3477 C 324.137 -0.701648 -1.54955 0
M  V30 3478 O 325.322 -0.953438 -1.69184 0
M  V30 3479 C 322.452 -2.05503 -2.79974 0
M  V30 3480 C 321.406 -3.21318 -2.82734 0
M  V30 3481 C 320.732 -3.2749 -4.22675 0
M  V30 3482 C 322.032 -4.59456 -2.48389 0
M  V30 3483 H 323.726 -2.75461 -1.17311 0
M  V30 3484 H 321.272 -1.32542 -0.562896 0
M  V30 3485 H 323.225 -2.25691 -3.55867 0
M  V30 3486 H 321.949 -1.11434 -3.07002 0
M  V30 3487 H 320.608 -3.00984 -2.09294 0
M  V30 3488 H 320.256 -2.31019 -4.4681 0
M  V30 3489 H 319.956 -4.05316 -4.25433 0
M  V30 3490 H 321.48 -3.49887 -5.00412 0
M  V30 3491 H 322.894 -4.79667 -3.13995 0
M  V30 3492 H 321.291 -5.39675 -2.62432 0
M  V30 3493 H 322.361 -4.63155 -1.4358 0
M  V30 3494 N 323.704 0.605807 -1.45491 0
M  V30 3495 C 324.952 1.36207 -1.49305 0
M  V30 3496 C 325.273 1.94519 -0.136863 0
M  V30 3497 O 324.543 1.77261 0.833983 0
M  V30 3498 H 323.123 0.50565 -0.549843 0
M  V30 3499 H 325.785 0.711239 -1.81459 0
M  V30 3500 H 324.881 2.18058 -2.23287 0
M  V30 3501 N 325.182 1.32811 0.848464 0
M  V30 3502 C 326.407 1.26882 1.6406 0
M  V30 3503 C 326.832 -0.15913 1.87426 0
M  V30 3504 O 326.19 -1.11258 1.43148 0
M  V30 3505 C 326.238 2.03997 2.97351 0
M  V30 3506 O 325.342 1.39201 3.88197 0
M  V30 3507 H 324.683 0.436982 0.499943 0
M  V30 3508 H 327.213 1.75224 1.0563 0
M  V30 3509 H 327.223 2.14403 3.47124 0
M  V30 3510 H 325.898 3.0783 2.79666 0
M  V30 3511 H 324.475 1.37381 3.46671 0
M  V30 3512 N 326.66 -1.06551 1.16123 0
M  V30 3513 C 327.592 -2.13908 0.823171 0
M  V30 3514 C 328.605 -1.61926 -0.16843 0
M  V30 3515 O 329.794 -1.78412 0.055962 0
M  V30 3516 C 326.894 -3.38283 0.204424 0
M  V30 3517 C 326.067 -4.19589 1.23548 0
M  V30 3518 C 325.126 -5.2233 0.637011 0
M  V30 3519 O 324.152 -5.54034 1.30516 0
M  V30 3520 N 325.354 -5.77621 -0.577474 0
M  V30 3521 H 328.119 -2.43508 1.74711 0
M  V30 3522 H 325.68 -1.2253 1.05821 0
M  V30 3523 H 327.672 -4.0416 -0.208909 0
M  V30 3524 H 326.242 -3.06329 -0.623012 0
M  V30 3525 H 325.462 -3.49406 1.82507 0
M  V30 3526 H 326.75 -4.70718 1.93137 0
M  V30 3527 H 326.148 -5.54125 -1.13853 0
M  V30 3528 H 324.705 -6.45087 -0.933053 0
M  V30 3529 N 328.138 -0.959301 -1.25041 0
M  V30 3530 C 329.554 -0.664474 -1.4511 0
M  V30 3531 C 329.754 0.776481 -1.85938 0
M  V30 3532 O 328.81 1.55128 -1.99227 0
M  V30 3533 C 330.123 -1.64139 -2.5195 0
M  V30 3534 C 331.671 -1.65309 -2.65786 0
M  V30 3535 C 332.146 -2.61777 -3.75815 0
M  V30 3536 N 333.637 -2.60169 -3.83231 0
M  V30 3537 C 334.372 -3.31489 -4.6787 0
M  V30 3538 N 333.868 -4.12298 -5.56761 0
M  V30 3539 N 335.661 -3.20354 -4.61876 0
M  V30 3540 H 327.812 -1.89043 -0.968332 0
M  V30 3541 H 330.075 -0.813408 -0.4869 0
M  V30 3542 H 329.781 -2.67086 -2.28819 0
M  V30 3543 H 329.655 -1.40756 -3.49954 0
M  V30 3544 H 332.042 -0.630778 -2.8828 0
M  V30 3545 H 332.123 -1.92753 -1.68167 0
M  V30 3546 H 331.767 -3.64137 -3.54071 0
M  V30 3547 H 331.697 -2.31616 -4.72929 0
M  V30 3548 H 334.188 -2.01507 -3.19692 0
M  V30 3549 H 334.501 -4.63625 -6.18281 0
M  V30 3550 H 332.846 -4.16395 -5.56454 0
M  V30 3551 H 336.037 -2.56692 -3.91442 0
M  V30 3552 H 336.21 -3.76201 -5.27614 0
M  V30 3553 N 329.616 1.39756 -0.72842 0
M  V30 3554 C 330.893 1.94574 -0.200079 0
M  V30 3555 C 331.273 1.66569 1.29684 0
M  V30 3556 O 330.621 0.990326 2.05924 0
M  V30 3557 C 330.831 3.45004 -0.526608 0
M  V30 3558 C 332.179 4.21965 -0.472318 0
M  V30 3559 O 333.203 3.53173 -0.463413 0
M  V30 3560 O 332.062 5.44552 -0.461075 0
M  V30 3561 H 329.156 0.826289 -0.0342851 0
M  V30 3562 H 331.702 1.49293 -0.806829 0
M  V30 3563 H 330.474 3.58796 -1.56144 0
M  V30 3564 H 330.097 3.97449 0.109449 0
M  V30 3565 N 331.094 0.475555 1.50254 0
M  V30 3566 C 332.041 -0.316293 2.28622 0
M  V30 3567 C 333.011 -0.983227 1.33873 0
M  V30 3568 O 334.196 -0.994805 1.62814 0
M  V30 3569 C 331.336 -1.38975 3.1588 0
M  V30 3570 C 330.449 -0.737146 4.25664 0
M  V30 3571 C 329.584 -1.78887 5.00173 0
M  V30 3572 C 328.623 -1.11676 6.01826 0
M  V30 3573 N 327.76 -2.11154 6.69596 0
M  V30 3574 H 332.6 0.358297 2.95838 0
M  V30 3575 H 330.137 0.188541 1.45887 0
M  V30 3576 H 332.095 -2.02383 3.64825 0
M  V30 3577 H 330.725 -2.03344 2.50701 0
M  V30 3578 H 329.777 0.0096065 3.80399 0
M  V30 3579 H 331.089 -0.206816 4.98371 0
M  V30 3580 H 330.243 -2.49865 5.52859 0
M  V30 3581 H 328.982 -2.35302 4.27182 0
M  V30 3582 H 327.987 -0.392633 5.48396 0
M  V30 3583 H 329.212 -0.55945 6.76792 0
M  V30 3584 H 327.158 -2.66577 5.99394 0
M  V30 3585 H 327.075 -1.63118 7.38193 0
M  V30 3586 H 328.343 -2.81497 7.26897 0
M  V30 3587 N 332.573 -1.56217 0.208337 0
M  V30 3588 C 333.989 -1.58919 -0.14729 0
M  V30 3589 C 334.189 -1.22486 -1.59998 0
M  V30 3590 O 333.245 -0.953849 -2.3379 0
M  V30 3591 C 334.558 -3.00236 0.167048 0
M  V30 3592 C 336.106 -3.12813 0.108219 0
M  V30 3593 C 336.581 -4.56284 0.396049 0
M  V30 3594 N 338.072 -4.61912 0.345142 0
M  V30 3595 C 338.807 -5.70837 0.541523 0
M  V30 3596 N 338.303 -6.88178 0.798968 0
M  V30 3597 N 340.096 -5.60091 0.474867 0
M  V30 3598 H 332.247 -1.78177 1.15614 0
M  V30 3599 H 334.51 -0.827555 0.462446 0
M  V30 3600 H 334.216 -3.31499 1.1748 0
M  V30 3601 H 334.09 -3.7354 -0.524184 0
M  V30 3602 H 336.477 -2.81354 -0.890157 0
M  V30 3603 H 336.558 -2.41866 0.832729 0
M  V30 3604 H 336.202 -4.88458 1.3918 0
M  V30 3605 H 336.132 -5.25439 -0.349502 0
M  V30 3606 H 338.623 -3.77589 0.153316 0
M  V30 3607 H 338.936 -7.67095 0.93727 0
M  V30 3608 H 337.281 -6.89953 0.836013 0
M  V30 3609 H 340.472 -4.67297 0.274064 0
M  V30 3610 H 340.645 -6.44917 0.631326 0
M  V30 3611 N 334.051 0.0651679 -1.57465 0
M  V30 3612 C 335.297 0.758912 -1.88712 0
M  V30 3613 C 335.652 1.7485 -0.802819 0
M  V30 3614 O 334.945 1.90632 0.192359 0
M  V30 3615 C 335.139 1.50081 -3.24362 0
M  V30 3616 C 334.968 0.584579 -4.45884 0
M  V30 3617 C 333.738 0.219039 -5.04825 0
M  V30 3618 C 335.936 -0.121559 -5.14156 0
M  V30 3619 N 333.918 -0.702222 -6.09871 0
M  V30 3620 C 335.289 -0.899767 -6.13436 0
M  V30 3621 C 337.344 -0.192331 -4.97528 0
M  V30 3622 C 336.047 -1.74218 -6.97883 0
M  V30 3623 C 338.073 -1.02174 -5.82507 0
M  V30 3624 C 337.435 -1.78798 -6.8133 0
M  V30 3625 H 333.534 0.25293 -0.739967 0
M  V30 3626 H 336.118 0.0201744 -1.9469 0
M  V30 3627 H 334.289 2.21023 -3.1938 0
M  V30 3628 H 336.021 2.14409 -3.43236 0
M  V30 3629 H 332.776 0.57336 -4.70117 0
M  V30 3630 H 333.2 -1.15629 -6.67052 0
M  V30 3631 H 337.842 0.385741 -4.21037 0
M  V30 3632 H 335.56 -2.3312 -7.73745 0
M  V30 3633 H 339.146 -1.07957 -5.71696 0
M  V30 3634 H 338.026 -2.41942 -7.45945 0
M  V30 3635 N 335.529 1.53961 0.336706 0
M  V30 3636 C 336.775 1.7179 1.07777 0
M  V30 3637 C 337.108 0.483263 1.88091 0
M  V30 3638 O 336.383 -0.519747 1.87427 0
M  V30 3639 C 336.666 2.98558 2.01334 0
M  V30 3640 C 336.519 4.32245 1.24437 0
M  V30 3641 C 337.838 3.21023 3.01052 0
M  V30 3642 H 334.957 0.625089 0.390426 0
M  V30 3643 H 337.599 1.86641 0.35567 0
M  V30 3644 H 335.749 2.86028 2.62908 0
M  V30 3645 H 337.421 4.56637 0.654243 0
M  V30 3646 H 335.664 4.30344 0.546458 0
M  V30 3647 H 336.335 5.17137 1.93063 0
M  V30 3648 H 338.811 3.32929 2.49595 0
M  V30 3649 H 337.687 4.11104 3.6371 0
M  V30 3650 H 337.948 2.37637 3.72802 0
M  V30 3651 N 337.007 -0.598083 1.45811 0
M  V30 3652 C 338.284 -1.35777 1.40797 0
M  V30 3653 C 338.664 -2.10935 0.083462 0
M  V30 3654 O 338.012 -2.08505 -0.934763 0
M  V30 3655 C 338.222 -2.29666 2.62783 0
M  V30 3656 C 339.57 -2.91977 3.08277 0
M  V30 3657 O 340.594 -2.39984 2.63223 0
M  V30 3658 O 339.453 -3.86376 3.86491 0
M  V30 3659 H 336.547 -0.609291 0.55919 0
M  V30 3660 H 339.093 -0.620379 1.57954 0
M  V30 3661 H 337.865 -1.73454 3.50756 0
M  V30 3662 H 337.488 -3.1077 2.48008 0
M  V30 3663 N 338.485 -1.33259 -0.841409 0
M  V30 3664 C 339.896 -1.22066 -1.41269 0
M  V30 3665 C 340.247 0.161479 -1.95534 0
M  V30 3666 O 339.372 1.06094 -1.88608 0
M  V30 3667 C 339.967 -2.20996 -2.568 0
M  V30 3668 C 338.526 -2.13649 -3.09888 0
M  V30 3669 C 337.673 -2.08623 -1.82679 0
M  V30 3670 H 340.624 -1.44895 -0.647395 0
M  V30 3671 H 340.645 -1.81621 -3.34356 0
M  V30 3672 H 340.157 -3.2158 -2.17274 0
M  V30 3673 H 338.258 -1.16359 -3.53965 0
M  V30 3674 H 338.371 -3.04079 -3.70234 0
M  V30 3675 H 336.735 -1.54061 -2.02824 0
M  V30 3676 H 337.518 -3.1101 -1.45353 0
M  V30 3677 N 339.963 1.05934 -1.16686 0
M  V30 3678 C 340.911 2.15603 -0.872817 0
M  V30 3679 C 341.905 1.68647 0.159576 0
M  V30 3680 O 343.111 1.79995 0.0132125 0
M  V30 3681 H 339.486 0.703885 -0.264671 0
M  V30 3682 H 341.457 2.37613 -1.80507 0
M  V30 3683 C 340.206 3.45457 -0.394344 0
M  V30 3684 H 339.529 3.81984 -1.18019 0
M  V30 3685 H 340.969 4.2339 -0.227408 0
M  V30 3686 C 339.428 3.25021 0.88673 0
M  V30 3687 O 339.958 3.50906 1.95519 0
M  V30 3688 N 338.164 2.78437 0.831925 0
M  V30 3689 H 337.711 2.57572 -0.0377619 0
M  V30 3690 H 337.669 2.65144 1.68956 0
M  V30 3691 N 341.441 0.965919 1.2453 0
M  V30 3692 C 342.666 0.643971 1.97149 0
M  V30 3693 C 343.091 -0.779487 1.71189 0
M  V30 3694 O 342.449 -1.5288 0.974553 0
M  V30 3695 C 342.497 0.922557 3.48599 0
M  V30 3696 O 341.601 0.00707672 4.12399 0
M  V30 3697 H 340.942 0.243647 0.617683 0
M  V30 3698 H 343.472 1.29558 1.58353 0
M  V30 3699 H 343.482 0.853373 3.98976 0
M  V30 3700 H 342.157 1.95996 3.66822 0
M  V30 3701 H 340.734 0.12943 3.72675 0
M  V30 3702 N 342.919 -1.39368 0.735821 0
M  V30 3703 C 344.33 -1.83313 0.354015 0
M  V30 3704 C 344.681 -1.61461 -1.11466 0
M  V30 3705 O 343.806 -1.10621 -1.85989 0
M  V30 3706 C 344.401 -3.32781 0.635769 0
M  V30 3707 C 342.96 -3.75142 0.307448 0
M  V30 3708 C 342.107 -2.62358 0.897974 0
M  V30 3709 H 345.058 -1.28349 0.933398 0
M  V30 3710 H 345.079 -3.80388 -0.0921773 0
M  V30 3711 H 344.591 -3.48654 1.70476 0
M  V30 3712 H 342.692 -3.64857 -0.755674 0
M  V30 3713 H 342.805 -4.72532 0.790583 0
M  V30 3714 H 341.169 -2.52624 0.324551 0
M  V30 3715 H 341.952 -2.81036 1.97164 0
M  V30 3716 N 344.397 -0.483516 -1.5 0
M  V30 3717 C 345.643 0.0672592 -2.02688 0
M  V30 3718 C 345.976 1.38247 -1.36387 0
M  V30 3719 O 345.251 1.88131 -0.493675 0
M  V30 3720 C 345.534 0.238109 -3.59312 0
M  V30 3721 C 345.387 -1.099 -4.36168 0
M  V30 3722 C 346.706 0.986916 -4.28892 0
M  V30 3723 H 343.825 0.0229696 -0.736642 0
M  V30 3724 H 346.467 -0.631527 -1.79197 0
M  V30 3725 H 344.617 0.8333 -3.79458 0
M  V30 3726 H 346.289 -1.73172 -4.27562 0
M  V30 3727 H 344.532 -1.69261 -3.99416 0
M  V30 3728 H 345.203 -0.932954 -5.44059 0
M  V30 3729 H 347.679 0.482302 -4.13295 0
M  V30 3730 H 346.555 1.07527 -5.38265 0
M  V30 3731 H 346.816 2.0265 -3.92919 0
M  V30 3732 N 345.875 1.56104 -0.216619 0
M  V30 3733 C 346.805 2.23063 0.690296 0
M  V30 3734 C 347.786 1.20072 1.20485 0
M  V30 3735 O 348.971 1.48643 1.24976 0
M  V30 3736 C 346.101 2.90672 1.90072 0
M  V30 3737 C 345.055 4.00092 1.5202 0
M  V30 3738 C 344.381 4.54972 2.80899 0
M  V30 3739 C 345.681 5.17398 0.71391 0
M  V30 3740 H 347.375 2.99109 0.132038 0
M  V30 3741 H 344.921 1.43866 0.0620664 0
M  V30 3742 H 346.874 3.36204 2.54057 0
M  V30 3743 H 345.598 2.12066 2.48386 0
M  V30 3744 H 344.257 3.55283 0.903839 0
M  V30 3745 H 343.905 3.73102 3.37348 0
M  V30 3746 H 343.605 5.28817 2.56176 0
M  V30 3747 H 345.129 5.0322 3.45836 0
M  V30 3748 H 346.543 5.59342 1.25735 0
M  V30 3749 H 344.94 5.97444 0.563951 0
M  V30 3750 H 346.01 4.84088 -0.280527 0
M  V30 3751 N 347.353 -0.0568162 1.57498 0
M  V30 3752 C 348.283 -1.06593 2.0775 0
M  V30 3753 C 349.264 -1.39448 0.974082 0
M  V30 3754 O 350.449 -1.48815 1.24771 0
M  V30 3755 C 347.579 -2.37509 2.5339 0
M  V30 3756 C 346.533 -2.1897 3.67745 0
M  V30 3757 C 345.859 -3.55402 3.99492 0
M  V30 3758 C 347.159 -1.59859 4.97235 0
M  V30 3759 H 348.853 -0.647706 2.9231 0
M  V30 3760 H 346.399 -0.310116 1.40621 0
M  V30 3761 H 348.352 -3.08409 2.87162 0
M  V30 3762 H 347.076 -2.8134 1.65878 0
M  V30 3763 H 345.735 -1.50508 3.3428 0
M  V30 3764 H 345.383 -3.9683 3.09088 0
M  V30 3765 H 345.083 -3.43831 4.76502 0
M  V30 3766 H 346.607 -4.27708 4.35773 0
M  V30 3767 H 348.021 -2.20642 5.29141 0
M  V30 3768 H 346.418 -1.58942 5.78669 0
M  V30 3769 H 347.488 -0.561506 4.81638 0
M  V30 3770 N 348.832 -1.54138 -0.328536 0
M  V30 3771 C 349.742 -1.86192 -1.42723 0
M  V30 3772 C 350.758 -0.753382 -1.56844 0
M  V30 3773 O 351.934 -1.04718 -1.72035 0
M  V30 3774 C 348.999 -2.07824 -2.77507 0
M  V30 3775 C 348.06 -3.31641 -2.72603 0
M  V30 3776 C 347.293 -3.52232 -4.00959 0
M  V30 3777 O 347.516 -2.7636 -4.9898 0
M  V30 3778 O 346.45 -4.45699 -4.0452 0
M  V30 3779 H 350.276 -2.79608 -1.18547 0
M  V30 3780 H 347.861 -1.3998 -0.522104 0
M  V30 3781 H 349.743 -2.23411 -3.57303 0
M  V30 3782 H 348.418 -1.17596 -3.01584 0
M  V30 3783 H 347.325 -3.21444 -1.91376 0
M  V30 3784 H 348.658 -4.2191 -2.53481 0
M  V30 3785 N 350.31 0.590341 -1.46126 0
M  V30 3786 C 351.587 1.35029 -1.41515 0
M  V30 3787 C 351.967 2.10888 -0.0946472 0
M  V30 3788 O 351.315 2.08998 0.923693 0
M  V30 3789 C 351.525 2.28269 -2.63997 0
M  V30 3790 C 352.873 2.90338 -3.09821 0
M  V30 3791 O 353.897 2.38585 -2.64492 0
M  V30 3792 O 352.756 3.84321 -3.88535 0
M  V30 3793 H 349.85 0.606317 -0.562413 0
M  V30 3794 H 352.396 0.611994 -1.58281 0
M  V30 3795 H 351.168 1.71591 -3.51671 0
M  V30 3796 H 350.791 3.0945 -2.49652 0
M  V30 3797 N 351.788 1.33704 0.83433 0
M  V30 3798 C 353.199 1.22813 1.4062 0
M  V30 3799 C 353.55 -0.151107 1.95617 0
M  V30 3800 O 352.675 -1.05092 1.89168 0
M  V30 3801 C 353.27 2.22355 2.55624 0
M  V30 3802 C 351.829 2.1529 3.08751 0
M  V30 3803 C 350.976 2.09589 1.8157 0
M  V30 3804 H 353.927 1.45236 0.639702 0
M  V30 3805 H 353.948 1.83391 3.33389 0
M  V30 3806 H 353.46 3.22728 2.15566 0
M  V30 3807 H 351.561 1.18235 3.53343 0
M  V30 3808 H 351.674 3.06038 3.68616 0
M  V30 3809 H 350.038 1.55134 2.02004 0
M  V30 3810 H 350.821 3.11777 1.43701 0
M  V30 3811 N 353.266 -1.05314 1.17247 0
M  V30 3812 C 354.512 -1.78557 0.961513 0
M  V30 3813 C 354.845 -1.87419 -0.508697 0
M  V30 3814 O 354.12 -1.37307 -1.37757 0
M  V30 3815 C 354.403 -3.22514 1.60176 0
M  V30 3816 C 354.256 -3.21673 3.14399 0
M  V30 3817 C 355.575 -4.20318 1.30463 0
M  V30 3818 H 352.694 -0.6482 0.350723 0
M  V30 3819 H 355.336 -1.23102 1.44727 0
M  V30 3820 H 353.486 -3.69867 1.18871 0
M  V30 3821 H 355.158 -2.82405 3.64753 0
M  V30 3822 H 353.401 -2.60048 3.47214 0
M  V30 3823 H 354.072 -4.23271 3.54324 0
M  V30 3824 H 356.548 -3.81454 1.66229 0
M  V30 3825 H 355.424 -5.19289 1.77848 0
M  V30 3826 H 355.685 -4.41526 0.22521 0
M  V30 3827 N 354.744 -0.972509 -1.24016 0
M  V30 3828 C 355.674 -0.525548 -2.27509 0
M  V30 3829 C 356.655 0.437262 -1.64384 0
M  V30 3830 O 357.84 0.332343 -1.91335 0
M  V30 3831 C 354.97 0.180448 -3.46831 0
M  V30 3832 C 353.924 -0.698859 -4.22256 0
M  V30 3833 C 353.25 0.138903 -5.3452 0
M  V30 3834 C 354.55 -1.98582 -4.83076 0
M  V30 3835 H 356.244 -1.39058 -2.65148 0
M  V30 3836 H 353.79 -0.67009 -1.27459 0
M  V30 3837 H 355.743 0.504387 -4.18371 0
M  V30 3838 H 354.467 1.07987 -3.08231 0
M  V30 3839 H 353.126 -1.00614 -3.52523 0
M  V30 3840 H 352.774 1.03862 -4.9216 0
M  V30 3841 H 352.474 -0.446259 -5.85903 0
M  V30 3842 H 353.998 0.457404 -6.08884 0
M  V30 3843 H 355.412 -1.72715 -5.46665 0
M  V30 3844 H 353.809 -2.5181 -5.44713 0
M  V30 3845 H 354.879 -2.67769 -4.04262 0
M  V30 3846 N 356.222 1.38976 -0.743202 0
M  V30 3847 C 357.462 2.02193 -0.29954 0
M  V30 3848 C 357.826 1.5771 1.09506 0
M  V30 3849 O 359.027 2.13184 1.63726 0
M  V30 3850 C 357.298 3.55077 -0.406822 0
M  V30 3851 S 358.857 4.38778 -0.0442109 0
M  V30 3852 H 355.675 0.701335 -0.116836 0
M  V30 3853 H 358.277 1.69651 -0.971529 0
M  V30 3854 H 356.981 3.84942 -1.42295 0
M  V30 3855 H 356.512 3.92383 0.282707 0
M  V30 3856 H 358.527 4.82222 1.16947 0
M  V30 3857 N 357.7 0.491464 1.49741 0
M  V30 3858 C 358.663 -0.280906 2.27472 0
M  V30 3859 C 359.663 -0.902454 1.33088 0
M  V30 3860 O 360.853 -0.768465 1.56334 0
M  V30 3861 C 357.985 -1.40209 3.10732 0
M  V30 3862 H 359.178 0.401056 2.97206 0
M  V30 3863 H 356.731 0.246131 1.5435 0
M  V30 3864 H 357.466 -2.11849 2.45541 0
M  V30 3865 H 357.251 -0.961969 3.80117 0
M  V30 3866 H 358.741 -1.9464 3.69466 0
M  V30 3867 N 359.178 -1.55987 0.224894 0
M  V30 3868 C 360.108 -2.23426 -0.678457 0
M  V30 3869 C 361.089 -1.20709 -1.19847 0
M  V30 3870 O 362.274 -1.49304 -1.24186 0
M  V30 3871 C 359.404 -2.91676 -1.88527 0
M  V30 3872 C 358.358 -4.00893 -1.49896 0
M  V30 3873 C 357.684 -4.56455 -2.78483 0
M  V30 3874 C 358.984 -5.17769 -0.686461 0
M  V30 3875 H 360.678 -2.99175 -0.116173 0
M  V30 3876 H 358.224 -1.43897 -0.054436 0
M  V30 3877 H 360.177 -3.37547 -2.5227 0
M  V30 3878 H 358.901 -2.1338 -2.47258 0
M  V30 3879 H 357.56 -3.55758 -0.884985 0
M  V30 3880 H 357.208 -3.74886 -3.35365 0
M  V30 3881 H 356.908 -5.30169 -2.53368 0
M  V30 3882 H 358.432 -5.05047 -3.43162 0
M  V30 3883 H 359.846 -5.60001 -1.22767 0
M  V30 3884 H 358.243 -5.97735 -0.532259 0
M  V30 3885 H 359.313 -4.83932 0.306196 0
M  V30 3886 N 360.656 0.0484629 -1.57525 0
M  V30 3887 C 361.619 1.03956 -2.04269 0
M  V30 3888 C 362.619 1.30211 -0.943496 0
M  V30 3889 O 363.809 1.25539 -1.20771 0
M  V30 3890 C 360.941 2.37742 -2.44319 0
M  V30 3891 H 362.134 0.636182 -2.93075 0
M  V30 3892 H 359.687 0.294811 -1.53494 0
M  V30 3893 H 360.422 2.82866 -1.5861 0
M  V30 3894 H 360.207 2.20021 -3.24551 0
M  V30 3895 H 361.697 3.08936 -2.80978 0
M  V30 3896 N 362.134 1.5431 0.320358 0
M  V30 3897 C 363.081 1.83918 1.39438 0
M  V30 3898 C 364.051 0.686525 1.51248 0
M  V30 3899 O 365.236 0.933269 1.66417 0
M  V30 3900 C 362.376 2.075 2.75749 0
M  V30 3901 C 361.489 3.35177 2.72544 0
M  V30 3902 C 360.624 3.48704 4.00723 0
M  V30 3903 C 359.663 4.70244 3.91838 0
M  V30 3904 N 358.8 4.80679 5.11754 0
M  V30 3905 H 363.64 2.75544 1.13489 0
M  V30 3906 H 361.177 1.36459 0.549309 0
M  V30 3907 H 363.135 2.19166 3.54996 0
M  V30 3908 H 361.765 1.19163 3 0
M  V30 3909 H 360.817 3.32233 1.85271 0
M  V30 3910 H 362.129 4.24534 2.61863 0
M  V30 3911 H 361.283 3.59928 4.88402 0
M  V30 3912 H 360.022 2.57445 4.14214 0
M  V30 3913 H 359.027 4.59072 3.02544 0
M  V30 3914 H 360.252 5.6289 3.7991 0
M  V30 3915 H 358.198 3.92337 5.25745 0
M  V30 3916 H 358.115 5.64007 5.0342 0
M  V30 3917 H 359.383 4.96239 6.01138 0
M  V30 3918 N 363.613 -0.582584 1.46437 0
M  V30 3919 C 364.56 -1.69164 1.5701 0
M  V30 3920 C 365.53 -1.60847 0.414403 0
M  V30 3921 O 366.715 -1.80058 0.631171 0
M  V30 3922 C 363.855 -3.075 1.56646 0
M  V30 3923 C 362.968 -3.2644 2.82951 0
M  V30 3924 C 362.103 -4.55026 2.7409 0
M  V30 3925 C 361.142 -4.6731 3.95333 0
M  V30 3926 N 360.279 -5.87221 3.84858 0
M  V30 3927 H 365.119 -1.59464 2.51744 0
M  V30 3928 H 362.656 -0.777186 1.24893 0
M  V30 3929 H 364.614 -3.8757 1.5442 0
M  V30 3930 H 363.244 -3.16096 0.654439 0
M  V30 3931 H 362.296 -2.39974 2.95155 0
M  V30 3932 H 363.608 -3.31385 3.72808 0
M  V30 3933 H 362.762 -5.43324 2.6997 0
M  V30 3934 H 361.501 -4.52519 1.81873 0
M  V30 3935 H 360.506 -3.77429 3.99784 0
M  V30 3936 H 361.731 -4.71595 4.88646 0
M  V30 3937 H 359.677 -5.85712 2.95427 0
M  V30 3938 H 359.594 -5.93435 4.6837 0
M  V30 3939 H 360.862 -6.7795 3.84713 0
M  V30 3940 N 365.091 -1.34144 -0.827227 0
M  V30 3941 C 366.041 -1.21923 -1.92663 0
M  V30 3942 C 367.025 -0.119294 -1.60457 0
M  V30 3943 O 368.217 -0.348539 -1.73534 0
M  V30 3944 C 365.346 -0.972492 -3.29238 0
M  V30 3945 C 364.432 -2.1154 -3.67576 0
M  V30 3946 N 364.823 -3.36627 -3.77512 0
M  V30 3947 C 363.121 -2.02468 -3.97395 0
M  V30 3948 C 363.822 -4.11658 -4.1099 0
M  V30 3949 N 362.798 -3.40207 -4.23981 0
M  V30 3950 H 366.6 -2.16721 -1.98517 0
M  V30 3951 H 364.114 -1.2632 -1.02064 0
M  V30 3952 H 366.111 -0.865847 -4.0781 0
M  V30 3953 H 364.771 -0.0331509 -3.24683 0
M  V30 3954 H 365.782 -3.71234 -3.61118 0
M  V30 3955 H 362.459 -1.16265 -4.00985 0
M  V30 3956 H 363.849 -5.19657 -4.25918 0
M  V30 3957 N 366.569 1.04691 -1.17803 0
M  V30 3958 C 367.516 2.12557 -0.899343 0
M  V30 3959 C 368.486 1.65339 0.158771 0
M  V30 3960 O 369.671 1.90789 0.0204797 0
M  V30 3961 C 366.811 3.42481 -0.424315 0
M  V30 3962 C 365.924 4.03346 -1.54713 0
M  V30 3963 C 365.059 5.21208 -1.02546 0
M  V30 3964 C 364.098 5.74089 -2.12339 0
M  V30 3965 N 363.235 6.83247 -1.61612 0
M  V30 3966 H 368.075 2.35734 -1.823 0
M  V30 3967 H 365.612 1.1564 -0.909159 0
M  V30 3968 H 367.57 4.16996 -0.130421 0
M  V30 3969 H 366.2 3.19471 0.462377 0
M  V30 3970 H 365.252 3.2622 -1.95664 0
M  V30 3971 H 366.564 4.38628 -2.37501 0
M  V30 3972 H 365.718 6.02812 -0.685718 0
M  V30 3973 H 364.457 4.87414 -0.167084 0
M  V30 3974 H 363.462 4.91111 -2.47165 0
M  V30 3975 H 364.687 6.0993 -2.98601 0
M  V30 3976 H 362.633 6.5134 -0.780533 0
M  V30 3977 H 362.55 7.17559 -2.38003 0
M  V30 3978 H 363.818 7.68491 -1.30545 0
M  V30 3979 N 368.047 0.979072 1.23499 0
M  V30 3980 C 369.463 0.687475 1.44034 0
M  V30 3981 C 369.663 -0.746801 1.8715 0
M  V30 3982 O 368.719 -1.51939 2.0167 0
M  V30 3983 C 370.032 1.68127 2.49307 0
M  V30 3984 C 371.58 1.69516 2.63122 0
M  V30 3985 C 372.055 2.67723 3.71603 0
M  V30 3986 N 373.546 2.66233 3.79044 0
M  V30 3987 C 374.281 3.38891 4.62537 0
M  V30 3988 N 373.777 4.21103 5.50131 0
M  V30 3989 N 375.57 3.27661 4.56721 0
M  V30 3990 H 367.721 1.90559 0.938135 0
M  V30 3991 H 369.984 0.821051 0.473897 0
M  V30 3992 H 369.69 2.70693 2.2454 0
M  V30 3993 H 369.564 1.46306 3.4767 0
M  V30 3994 H 371.951 0.676561 2.8724 0
M  V30 3995 H 372.032 1.95404 1.65079 0
M  V30 3996 H 371.676 3.69724 3.48233 0
M  V30 3997 H 371.606 2.39111 4.69184 0
M  V30 3998 H 374.097 2.06568 3.16446 0
M  V30 3999 H 374.41 4.73403 6.10827 0
M  V30 4000 H 372.755 4.25195 5.49759 0
M  V30 4001 H 375.946 2.62887 3.87309 0
M  V30 4002 H 376.119 3.84547 5.21562 0
M  V30 4003 N 369.525 -1.3858 0.750561 0
M  V30 4004 C 370.753 -2.04471 0.316098 0
M  V30 4005 C 371.168 -1.56606 -1.05452 0
M  V30 4006 O 370.525 -0.737784 -1.66922 0
M  V30 4007 C 370.576 -3.60025 0.326275 0
M  V30 4008 O 370.297 -4.06133 1.6428 0
M  V30 4009 C 371.798 -4.43131 -0.122429 0
M  V30 4010 H 369.018 -0.65717 0.135528 0
M  V30 4011 H 371.562 -1.77329 1.01857 0
M  V30 4012 H 369.717 -3.86014 -0.327431 0
M  V30 4013 H 370.131 -5.00547 1.56693 0
M  V30 4014 H 371.605 -5.51963 -0.0641473 0
M  V30 4015 H 372.082 -4.23333 -1.16988 0
M  V30 4016 H 372.688 -4.22323 0.50229 0
M  V30 4017 N 371.003 -0.499398 -1.49478 0
M  V30 4018 C 372.414 -0.051215 -1.8663 0
M  V30 4019 C 372.765 1.36238 -1.41186 0
M  V30 4020 O 371.89 2.01502 -0.789051 0
M  V30 4021 C 372.485 -0.0861651 -3.3869 0
M  V30 4022 C 371.044 0.30667 -3.75149 0
M  V30 4023 C 370.191 -0.459397 -2.73468 0
M  V30 4024 H 373.142 -0.712264 -1.41818 0
M  V30 4025 H 373.163 0.709507 -3.73826 0
M  V30 4026 H 372.675 -1.11512 -3.71735 0
M  V30 4027 H 370.776 1.33892 -3.47712 0
M  V30 4028 H 370.889 -0.0116669 -4.79099 0
M  V30 4029 H 369.253 0.0905645 -2.54539 0
M  V30 4030 H 370.036 -1.4884 -3.09357 0
M  V30 4031 N 372.481 1.55866 -0.233164 0
M  V30 4032 C 373.444 2.1953 0.658715 0
M  V30 4033 C 374.444 1.16053 1.11303 0
M  V30 4034 O 375.634 1.41218 1.01996 0
M  V30 4035 C 372.766 2.82791 1.90373 0
M  V30 4036 H 373.959 2.99721 0.10347 0
M  V30 4037 H 371.512 1.56291 0.0164245 0
M  V30 4038 H 372.247 2.06501 2.50056 0
M  V30 4039 H 372.032 3.58578 1.58632 0
M  V30 4040 H 373.522 3.31556 2.53891 0
M  V30 4041 N 373.959 -0.0401083 1.57549 0
M  V30 4042 C 374.889 -1.04384 2.08869 0
M  V30 4043 C 375.87 -1.38407 0.988817 0
M  V30 4044 O 377.055 -1.47483 1.26342 0
M  V30 4045 C 374.185 -2.34808 2.55895 0
M  V30 4046 C 373.139 -2.15057 3.70047 0
M  V30 4047 C 372.465 -3.51145 4.03239 0
M  V30 4048 C 373.765 -1.54576 4.98902 0
M  V30 4049 H 375.459 -0.616666 2.92981 0
M  V30 4050 H 373.005 -0.295184 1.40942 0
M  V30 4051 H 374.958 -3.05346 2.90417 0
M  V30 4052 H 373.682 -2.79565 1.68853 0
M  V30 4053 H 372.341 -1.46954 3.35857 0
M  V30 4054 H 371.989 -3.93529 3.13279 0
M  V30 4055 H 371.689 -3.38758 4.80122 0
M  V30 4056 H 373.213 -4.23062 4.40285 0
M  V30 4057 H 374.627 -2.15017 5.31451 0
M  V30 4058 H 373.024 -1.52796 5.80322 0
M  V30 4059 H 374.094 -0.51039 4.82206 0
M  V30 4060 N 375.437 -1.54477 -0.31217 0
M  V30 4061 C 376.686 -1.72438 -1.04633 0
M  V30 4062 C 376.999 -0.511163 -1.88803 0
M  V30 4063 O 378.205 -0.572341 -2.65399 0
M  V30 4064 C 376.661 -3.05043 -1.9099 0
M  V30 4065 C 376.269 -4.33806 -1.11877 0
M  V30 4066 C 378.013 -3.32364 -2.64073 0
M  V30 4067 C 375.92 -5.57467 -1.97445 0
M  V30 4068 H 374.85 -0.642647 -0.394361 0
M  V30 4069 H 377.501 -1.80966 -0.303929 0
M  V30 4070 H 375.883 -2.90451 -2.69173 0
M  V30 4071 H 377.057 -4.59199 -0.383843 0
M  V30 4072 H 375.372 -4.13336 -0.504252 0
M  V30 4073 H 377.969 -4.21951 -3.28423 0
M  V30 4074 H 378.312 -2.50745 -3.32314 0
M  V30 4075 H 378.845 -3.47875 -1.92944 0
M  V30 4076 H 375.584 -6.41722 -1.33692 0
M  V30 4077 H 375.104 -5.36277 -2.6864 0
M  V30 4078 H 376.783 -5.94303 -2.5576 0
M  V30 4079 N 376.915 0.57481 -1.46744 0
M  V30 4080 C 377.878 1.66533 -1.57478 0
M  V30 4081 C 378.878 1.54338 -0.451263 0
M  V30 4082 O 380.068 1.58814 -0.715813 0
M  V30 4083 C 377.2 3.05999 -1.50259 0
M  V30 4084 H 378.393 1.58372 -2.54673 0
M  V30 4085 H 375.946 0.793301 -1.34672 0
M  V30 4086 H 376.681 3.19709 -0.543725 0
M  V30 4087 H 376.466 3.16259 -2.31781 0
M  V30 4088 H 377.956 3.8537 -1.60872 0
M  V30 4089 N 378.394 1.34581 0.820102 0
M  V30 4090 C 379.324 1.29038 1.94606 0
M  V30 4091 C 380.305 0.1673 1.69275 0
M  V30 4092 O 381.49 0.360112 1.90832 0
M  V30 4093 C 378.62 1.04793 3.31113 0
M  V30 4094 C 377.574 2.13597 3.70891 0
M  V30 4095 C 376.9 1.74537 5.05412 0
M  V30 4096 C 378.2 3.55451 3.8269 0
M  V30 4097 H 379.894 2.23248 1.99501 0
M  V30 4098 H 377.44 1.0747 0.958449 0
M  V30 4099 H 379.393 0.995592 4.0947 0
M  V30 4100 H 378.117 0.0702565 3.26524 0
M  V30 4101 H 376.776 2.17905 2.9481 0
M  V30 4102 H 376.424 0.754226 4.97313 0
M  V30 4103 H 376.124 2.47361 5.32997 0
M  V30 4104 H 377.648 1.70803 5.86224 0
M  V30 4105 H 379.062 3.5354 4.51312 0
M  V30 4106 H 377.459 4.26922 4.21732 0
M  V30 4107 H 378.529 3.92587 2.84611 0
M  V30 4108 N 379.872 -1.04064 1.18357 0
M  V30 4109 C 381.288 -1.2947 0.933258 0
M  V30 4110 C 381.488 -1.97466 -0.401169 0
M  V30 4111 O 380.544 -2.25528 -1.13549 0
M  V30 4112 C 381.857 -2.15337 2.09882 0
M  V30 4113 C 383.405 -2.28683 2.13712 0
M  V30 4114 C 383.88 -3.17917 3.29686 0
M  V30 4115 N 385.371 -3.25504 3.29547 0
M  V30 4116 C 386.106 -3.94706 4.15926 0
M  V30 4117 N 385.602 -4.66239 5.12439 0
M  V30 4118 N 387.395 -3.90986 4.0384 0
M  V30 4119 H 379.546 -0.583359 2.04232 0
M  V30 4120 H 381.809 -0.319921 0.892387 0
M  V30 4121 H 381.515 -1.72682 3.06389 0
M  V30 4122 H 381.389 -3.16015 2.05947 0
M  V30 4123 H 383.776 -2.70575 1.17784 0
M  V30 4124 H 383.857 -1.27596 2.21705 0
M  V30 4125 H 383.501 -2.76736 4.25887 0
M  V30 4126 H 383.431 -4.19036 3.1893 0
M  V30 4127 H 385.922 -2.74547 2.59677 0
M  V30 4128 H 386.235 -5.16638 5.74722 0
M  V30 4129 H 384.58 -4.65143 5.16398 0
M  V30 4130 H 387.771 -3.34234 3.27727 0
M  V30 4131 H 387.944 -4.44646 4.71375 0
M  V30 4132 N 381.35 -0.985608 -1.22978 0
M  V30 4133 C 382.58 -0.674603 -1.95276 0
M  V30 4134 C 382.988 0.763483 -1.73111 0
M  V30 4135 O 382.331 1.52601 -1.02268 0
M  V30 4136 C 382.393 -0.891597 -3.48268 0
M  V30 4137 C 382.057 -2.31275 -3.94158 0
M  V30 4138 C 383.054 -3.29179 -4.02415 0
M  V30 4139 C 380.739 -2.64524 -4.27004 0
M  V30 4140 C 382.733 -4.58407 -4.42879 0
M  V30 4141 C 380.42 -3.93974 -4.67149 0
M  V30 4142 C 381.418 -4.90727 -4.75053 0
M  V30 4143 O 381.106 -6.17865 -5.14294 0
M  V30 4144 H 380.838 -0.249251 -0.628371 0
M  V30 4145 H 383.392 -1.32106 -1.5728 0
M  V30 4146 H 381.622 -0.187962 -3.86243 0
M  V30 4147 H 383.311 -0.576957 -4.01779 0
M  V30 4148 H 384.077 -3.04823 -3.77237 0
M  V30 4149 H 379.956 -1.89923 -4.2006 0
M  V30 4150 H 383.5 -5.33926 -4.48964 0
M  V30 4151 H 379.397 -4.18122 -4.91777 0
M  V30 4152 H 380.165 -6.21694 -5.32389 0
M  V30 4153 N 382.828 1.3818 -0.7579 0
M  V30 4154 C 383.76 2.2901 -0.0932177 0
M  V30 4155 C 384.773 1.47958 0.679136 0
M  V30 4156 O 385.962 1.70773 0.519514 0
M  V30 4157 C 383.062 3.26953 0.89192 0
M  V30 4158 C 382.235 4.37045 0.176303 0
M  V30 4159 C 381.294 5.15148 1.07281 0
M  V30 4160 O 380.32 5.66616 0.541728 0
M  V30 4161 N 381.522 5.28542 2.40049 0
M  V30 4162 H 384.287 2.86694 -0.873303 0
M  V30 4163 H 381.848 1.50007 -0.609054 0
M  V30 4164 H 383.84 3.76083 1.49479 0
M  V30 4165 H 382.41 2.70136 1.57306 0
M  V30 4166 H 381.63 3.89493 -0.607328 0
M  V30 4167 H 382.918 5.07801 -0.318718 0
M  V30 4168 H 382.316 4.88285 2.85647 0
M  V30 4169 H 380.873 5.8103 2.95376 0
M  V30 4170 N 384.306 0.507319 1.49211 0
M  V30 4171 C 385.236 -0.256939 2.32082 0
M  V30 4172 C 386.217 -0.956609 1.40652 0
M  V30 4173 O 387.402 -0.946788 1.69557 0
M  V30 4174 C 384.532 -1.31802 3.21318 0
M  V30 4175 C 383.486 -0.737855 4.21592 0
M  V30 4176 C 382.812 -1.89992 4.99807 0
M  V30 4177 C 384.112 0.275325 5.21574 0
M  V30 4178 H 385.806 0.434798 2.96226 0
M  V30 4179 H 383.352 0.210546 1.42452 0
M  V30 4180 H 385.305 -1.86045 3.78107 0
M  V30 4181 H 384.029 -2.03903 2.5513 0
M  V30 4182 H 382.688 -0.217126 3.65956 0
M  V30 4183 H 382.336 -2.60877 4.30061 0
M  V30 4184 H 382.036 -1.51777 5.6766 0
M  V30 4185 H 383.56 -2.44657 5.59442 0
M  V30 4186 H 384.974 -0.179193 5.7302 0
M  V30 4187 H 383.371 0.573649 5.97352 0
M  V30 4188 H 384.441 1.18903 4.70096 0
M  V30 4189 N 385.784 -1.5574 0.241426 0
M  V30 4190 C 386.716 -2.18469 -0.693091 0
M  V30 4191 C 387.729 -1.15942 -1.14286 0
M  V30 4192 O 388.918 -1.42832 -1.07058 0
M  V30 4193 C 386.018 -2.7696 -1.95311 0
M  V30 4194 C 385.191 -4.04853 -1.65568 0
M  V30 4195 C 384.25 -4.47715 -2.76474 0
M  V30 4196 O 383.276 -5.14205 -2.44094 0
M  V30 4197 N 384.478 -4.15044 -4.05855 0
M  V30 4198 H 387.243 -2.99292 -0.156388 0
M  V30 4199 H 384.804 -1.61784 0.0611752 0
M  V30 4200 H 386.796 -3.02594 -2.68736 0
M  V30 4201 H 385.366 -2.00326 -2.39975 0
M  V30 4202 H 384.586 -3.86865 -0.756886 0
M  V30 4203 H 385.874 -4.88246 -1.43153 0
M  V30 4204 H 385.272 -3.61654 -4.34998 0
M  V30 4205 H 383.829 -4.45526 -4.75762 0
M  V30 4206 N 387.262 0.0317525 -1.57568 0
M  V30 4207 C 388.678 0.38735 -1.54828 0
M  V30 4208 C 388.878 1.7677 -0.967187 0
M  V30 4209 O 387.934 2.45581 -0.587063 0
M  V30 4210 C 389.247 0.291667 -2.99282 0
M  V30 4211 C 390.795 0.368946 -3.10818 0
M  V30 4212 C 391.27 0.302741 -4.56998 0
M  V30 4213 N 392.761 0.361617 -4.61786 0
M  V30 4214 C 393.496 0.333238 -5.72431 0
M  V30 4215 N 392.992 0.257308 -6.92322 0
M  V30 4216 N 394.785 0.382769 -5.60795 0
M  V30 4217 H 386.936 -0.871609 -1.93692 0
M  V30 4218 H 389.199 -0.331161 -0.888277 0
M  V30 4219 H 388.905 -0.656794 -3.45513 0
M  V30 4220 H 388.779 1.08638 -3.61217 0
M  V30 4221 H 391.166 1.30784 -2.64536 0
M  V30 4222 H 391.247 -0.455066 -2.5172 0
M  V30 4223 H 390.891 -0.632473 -5.03947 0
M  V30 4224 H 390.821 1.14482 -5.14005 0
M  V30 4225 H 393.312 0.422923 -3.75526 0
M  V30 4226 H 393.625 0.24068 -7.72425 0
M  V30 4227 H 391.97 0.223396 -6.94641 0
M  V30 4228 H 395.161 0.44006 -4.66027 0
M  V30 4229 H 395.334 0.357184 -6.47015 0
M  V30 4230 N 388.74 1.54641 0.303973 0
M  V30 4231 C 389.988 1.73437 1.0375 0
M  V30 4232 C 390.309 0.521449 1.87899 0
M  V30 4233 O 389.579 -0.46432 1.90318 0
M  V30 4234 H 388.159 0.639518 0.386039 0
M  V30 4235 H 390.821 1.91988 0.335675 0
M  V30 4236 H 389.917 2.62235 1.69231 0
M  V30 4237 N 390.218 -0.567019 1.47046 0
M  V30 4238 C 391.464 -1.32658 1.53394 0
M  V30 4239 C 391.797 -1.93254 0.19148 0
M  V30 4240 O 391.072 -1.77338 -0.798844 0
M  V30 4241 C 391.355 -2.44412 2.64452 0
M  V30 4242 C 391.208 -1.88749 4.08282 0
M  V30 4243 C 392.527 -3.46387 2.71485 0
M  V30 4244 H 389.646 -0.48098 0.558415 0
M  V30 4245 H 392.288 -0.635481 1.79058 0
M  V30 4246 H 390.438 -3.03363 2.427 0
M  V30 4247 H 392.11 -1.34134 4.41368 0
M  V30 4248 H 390.353 -1.19481 4.17021 0
M  V30 4249 H 391.024 -2.69491 4.81745 0
M  V30 4250 H 393.5 -2.9734 2.91081 0
M  V30 4251 H 392.376 -4.2202 3.50985 0
M  V30 4252 H 392.637 -4.04616 1.78153 0
M  V30 4253 N 391.696 -1.35014 -0.812953 0
M  V30 4254 C 392.942 -1.2812 -1.57204 0
M  V30 4255 C 393.275 0.145869 -1.93651 0
M  V30 4256 O 392.55 1.0937 -1.60836 0
M  V30 4257 C 392.833 -2.18162 -2.86492 0
M  V30 4258 C 392.686 -3.69454 -2.56561 0
M  V30 4259 C 394.005 -2.07439 -3.88145 0
M  V30 4260 H 391.124 -0.466746 -0.570366 0
M  V30 4261 H 393.766 -1.65357 -0.935783 0
M  V30 4262 H 391.916 -1.86535 -3.40789 0
M  V30 4263 H 393.588 -4.11493 -2.08497 0
M  V30 4264 H 391.831 -3.9005 -1.89851 0
M  V30 4265 H 392.502 -4.27835 -3.48799 0
M  V30 4266 H 394.978 -2.35228 -3.4323 0
M  V30 4267 H 393.854 -2.7265 -4.76396 0
M  V30 4268 H 394.115 -1.05439 -4.29343 0
M  V30 4269 N 393.175 1.03435 -1.18907 0
M  V30 4270 C 394.421 1.77005 -0.989798 0
M  V30 4271 C 394.754 1.88205 0.478816 0
M  V30 4272 O 394.029 1.39481 1.35556 0
M  V30 4273 C 394.312 3.19925 -1.65287 0
M  V30 4274 C 394.165 3.1663 -3.19477 0
M  V30 4275 C 395.484 4.18189 -1.37134 0
M  V30 4276 H 392.603 0.642538 -0.360991 0
M  V30 4277 H 395.245 1.20784 -1.46667 0
M  V30 4278 H 393.395 3.67929 -1.24741 0
M  V30 4279 H 395.067 2.76567 -3.692 0
M  V30 4280 H 393.31 2.54491 -3.51307 0
M  V30 4281 H 393.981 4.1758 -3.61013 0
M  V30 4282 H 396.457 3.78761 -1.72276 0
M  V30 4283 H 395.333 5.16394 -1.86087 0
M  V30 4284 H 395.594 4.41112 -0.295424 0
M  V30 4285 N 394.653 0.992116 1.22453 0
M  V30 4286 C 395.583 0.561677 2.26644 0
M  V30 4287 C 396.564 -0.411055 1.65059 0
M  V30 4288 O 397.749 -0.301861 1.9184 0
M  V30 4289 C 394.879 -0.125247 3.47074 0
M  V30 4290 C 393.833 0.765948 4.21091 0
M  V30 4291 C 393.159 -0.0538484 5.34673 0
M  V30 4292 C 394.459 2.06242 4.79856 0
M  V30 4293 H 396.153 1.43259 2.62902 0
M  V30 4294 H 393.699 0.690283 1.26377 0
M  V30 4295 H 395.652 -0.437764 4.1912 0
M  V30 4296 H 394.376 -1.03069 3.0991 0
M  V30 4297 H 393.035 1.0621 3.50878 0
M  V30 4298 H 392.683 -0.960188 4.9375 0
M  V30 4299 H 392.383 0.539415 5.85119 0
M  V30 4300 H 393.907 -0.360477 6.09535 0
M  V30 4301 H 395.321 1.8139 5.43848 0
M  V30 4302 H 393.718 2.60444 5.40638 0
M  V30 4303 H 394.788 2.74167 3.99951 0
M  V30 4304 N 396.131 -1.37776 0.765217 0
M  V30 4305 C 397.094 -2.28686 0.153416 0
M  V30 4306 C 398.094 -1.47727 -0.635081 0
M  V30 4307 O 399.284 -1.68027 -0.459632 0
M  V30 4308 C 396.416 -3.31608 -0.790495 0
M  V30 4309 H 397.609 -2.84297 0.954723 0
M  V30 4310 H 395.162 -1.46932 0.53299 0
M  V30 4311 H 395.897 -2.81109 -1.61705 0
M  V30 4312 H 395.682 -3.9144 -0.227348 0
M  V30 4313 H 397.172 -3.99559 -1.21419 0
M  V30 4314 N 397.609 -0.515225 -1.4894 0
M  V30 4315 C 398.556 0.255567 -2.29381 0
M  V30 4316 C 399.526 0.947387 -1.36432 0
M  V30 4317 O 400.711 0.951288 -1.65394 0
M  V30 4318 C 397.851 1.30551 -3.19453 0
M  V30 4319 C 396.964 0.624029 -4.27469 0
M  V30 4320 C 396.099 1.65563 -5.0474 0
M  V30 4321 C 395.138 0.956802 -6.04576 0
M  V30 4322 N 394.275 1.93326 -6.74959 0
M  V30 4323 H 399.115 -0.436607 -2.94784 0
M  V30 4324 H 396.652 -0.227154 -1.45336 0
M  V30 4325 H 398.61 1.92639 -3.70062 0
M  V30 4326 H 397.24 1.96626 -2.56004 0
M  V30 4327 H 396.292 -0.110459 -3.8024 0
M  V30 4328 H 397.604 0.0746092 -4.98744 0
M  V30 4329 H 396.758 2.35119 -5.59289 0
M  V30 4330 H 395.497 2.23893 -4.3327 0
M  V30 4331 H 394.502 0.247097 -5.49244 0
M  V30 4332 H 395.727 0.379814 -6.78037 0
M  V30 4333 H 393.673 2.50591 -6.06251 0
M  V30 4334 H 393.59 1.43489 -7.42258 0
M  V30 4335 H 394.858 2.62126 -7.34105 0
M  V30 4336 N 399.087 1.5561 -0.249682 0
M  V30 4337 C 400.312 2.03865 0.381305 0
M  V30 4338 C 400.737 1.12769 1.50548 0
M  V30 4339 O 400.095 0.121189 1.80895 0
M  V30 4340 C 400.143 3.50101 0.863816 0
M  V30 4341 O 399.247 3.62132 1.97318 0
M  V30 4342 H 398.588 0.658827 0.0827194 0
M  V30 4343 H 401.118 2.01105 -0.376552 0
M  V30 4344 H 401.128 3.90975 1.1663 0
M  V30 4345 H 399.803 4.1588 0.0411816 0
M  V30 4346 H 398.38 3.33155 1.67517 0
M  V30 4347 N 400.565 -0.0233959 1.57583 0
M  V30 4348 C 401.795 -0.723631 1.93513 0
M  V30 4349 C 402.203 -1.69115 0.848333 0
M  V30 4350 O 401.546 -1.82781 -0.183484 0
M  V30 4351 C 401.608 -1.53075 3.25282 0
M  V30 4352 C 401.272 -0.727388 4.51174 0
M  V30 4353 C 402.269 -0.0251924 5.19894 0
M  V30 4354 C 399.954 -0.680256 4.97672 0
M  V30 4355 C 401.948 0.713374 6.33395 0
M  V30 4356 C 399.635 0.0620523 6.11068 0
M  V30 4357 C 400.633 0.757622 6.78785 0
M  V30 4358 O 400.321 1.48787 7.90011 0
M  V30 4359 H 400.053 -0.208051 0.643188 0
M  V30 4360 H 402.607 0.0167489 2.05393 0
M  V30 4361 H 400.837 -2.31508 3.09744 0
M  V30 4362 H 402.526 -2.11413 3.46496 0
M  V30 4363 H 403.292 -0.0526003 4.84971 0
M  V30 4364 H 399.171 -1.21116 4.44805 0
M  V30 4365 H 402.715 1.25683 6.86185 0
M  V30 4366 H 398.612 0.0913634 6.45435 0
M  V30 4367 H 399.38 1.40213 8.06401 0
M  V30 4368 N 402.043 -1.548 -0.295768 0
M  V30 4369 C 402.991 -1.86874 -1.38495 0
M  V30 4370 C 403.985 -0.742938 -1.52239 0
M  V30 4371 O 405.191 -0.926999 -1.54294 0
M  V30 4372 H 401.566 -0.592786 -0.462719 0
M  V30 4373 H 403.537 -2.77904 -1.08682 0
M  V30 4374 C 402.286 -2.13732 -2.74252 0
M  V30 4375 H 401.609 -2.99835 -2.64459 0
M  V30 4376 H 403.049 -2.4011 -3.49461 0
M  V30 4377 C 401.508 -0.937539 -3.23592 0
M  V30 4378 O 402.038 -0.160665 -4.01379 0
M  V30 4379 N 400.244 -0.741478 -2.80981 0
M  V30 4380 H 399.791 -1.37489 -2.1784 0
M  V30 4381 H 399.749 0.0597103 -3.14343 0
M  V30 4382 N 403.521 0.559213 -1.47345 0
M  V30 4383 C 404.431 1.69388 -1.62311 0
M  V30 4384 C 405.447 1.6648 -0.505993 0
M  V30 4385 O 406.623 1.85964 -0.773262 0
M  V30 4386 C 403.688 3.05894 -1.63185 0
M  V30 4387 C 402.749 3.19885 -2.86307 0
M  V30 4388 C 401.982 4.49879 -2.87131 0
M  V30 4389 O 402.205 5.35217 -1.97229 0
M  V30 4390 O 401.139 4.67618 -3.78968 0
M  V30 4391 H 404.965 1.59706 -2.58317 0
M  V30 4392 H 402.55 0.728989 -1.30407 0
M  V30 4393 H 404.432 3.87133 -1.66451 0
M  V30 4394 H 403.107 3.15964 -0.70345 0
M  V30 4395 H 402.014 2.38052 -2.88587 0
M  V30 4396 H 403.347 3.14718 -3.78435 0
M  V30 4397 N 404.999 1.35443 0.805782 0
M  V30 4398 C 405.931 1.24285 1.92577 0
M  V30 4399 C 406.944 0.165962 1.61952 0
M  V30 4400 O 408.133 0.419303 1.73505 0
M  V30 4401 C 405.233 0.891272 3.2697 0
M  V30 4402 C 404.406 2.06669 3.85495 0
M  V30 4403 C 403.465 1.69077 4.98297 0
M  V30 4404 O 402.491 2.4096 5.15681 0
M  V30 4405 N 403.693 0.614869 5.77234 0
M  V30 4406 H 406.458 2.20777 2.02676 0
M  V30 4407 H 404.019 1.28623 0.983243 0
M  V30 4408 H 406.011 0.621256 3.99903 0
M  V30 4409 H 404.581 0.016004 3.12596 0
M  V30 4410 H 403.801 2.50046 3.04747 0
M  V30 4411 H 405.089 2.85237 4.21328 0
M  V30 4412 H 404.487 0.017648 5.65697 0
M  V30 4413 H 403.044 0.404636 6.50543 0
M  V30 4414 N 406.477 -1.02803 1.19454 0
M  V30 4415 C 407.893 -1.28473 0.946937 0
M  V30 4416 C 408.093 -1.97881 -0.380202 0
M  V30 4417 O 407.149 -2.26719 -1.11151 0
M  V30 4418 C 408.462 -2.13099 2.12154 0
M  V30 4419 C 410.01 -2.26404 2.16126 0
M  V30 4420 C 410.485 -3.14402 3.33039 0
M  V30 4421 N 411.976 -3.21991 3.32981 0
M  V30 4422 C 412.711 -3.90272 4.20089 0
M  V30 4423 N 412.207 -4.60777 5.17355 0
M  V30 4424 N 414 -3.8668 4.07964 0
M  V30 4425 H 406.151 -0.561665 2.04839 0
M  V30 4426 H 408.414 -0.310438 0.89573 0
M  V30 4427 H 408.12 -1.69422 3.08203 0
M  V30 4428 H 407.994 -3.13813 2.09287 0
M  V30 4429 H 410.381 -2.69311 1.20647 0
M  V30 4430 H 410.462 -1.25237 2.23045 0
M  V30 4431 H 410.106 -2.72204 4.28798 0
M  V30 4432 H 410.036 -4.1563 3.23356 0
M  V30 4433 H 412.527 -2.71778 2.62574 0
M  V30 4434 H 412.84 -5.10513 5.80169 0
M  V30 4435 H 411.185 -4.5964 5.21302 0
M  V30 4436 H 414.376 -3.30739 3.31254 0
M  V30 4437 H 414.549 -4.39621 4.76064 0
M  V30 4438 N 407.956 -0.998596 -1.21925 0
M  V30 4439 C 409.205 -0.673085 -1.90138 0
M  V30 4440 C 409.518 0.79895 -1.78539 0
M  V30 4441 O 410.724 1.23628 -2.4172 0
M  V30 4442 C 409.18 -1.15339 -3.40918 0
M  V30 4443 C 408.788 -2.65106 -3.61141 0
M  V30 4444 C 410.532 -0.902476 -4.14796 0
M  V30 4445 C 408.439 -3.0671 -5.05651 0
M  V30 4446 H 407.369 -0.248057 -0.712028 0
M  V30 4447 H 410.02 -1.20891 -1.38049 0
M  V30 4448 H 408.402 -0.545658 -3.92223 0
M  V30 4449 H 409.576 -3.31274 -3.20304 0
M  V30 4450 H 407.891 -2.88142 -3.00605 0
M  V30 4451 H 410.488 -1.18895 -5.21314 0
M  V30 4452 H 410.831 0.161349 -4.15987 0
M  V30 4453 H 411.364 -1.47269 -3.69536 0
M  V30 4454 H 408.103 -4.12292 -5.09603 0
M  V30 4455 H 407.623 -2.45249 -5.47369 0
M  V30 4456 H 409.302 -2.9833 -5.74115 0
M  V30 4457 N 409.434 1.37368 -0.772513 0
M  V30 4458 C 410.85 1.53059 -0.452231 0
M  V30 4459 C 411.05 1.73065 1.03203 0
M  V30 4460 O 410.106 1.75245 1.81784 0
M  V30 4461 C 411.419 2.72659 -1.26797 0
M  V30 4462 C 412.967 2.86521 -1.25995 0
M  V30 4463 C 413.442 4.09105 -2.05905 0
M  V30 4464 N 414.933 4.16219 -2.03263 0
M  V30 4465 C 415.668 5.10107 -2.61875 0
M  V30 4466 N 415.164 6.09547 -3.29278 0
M  V30 4467 N 416.957 5.02596 -2.51701 0
M  V30 4468 H 409.108 1.22634 -1.7342 0
M  V30 4469 H 411.371 0.597206 -0.736239 0
M  V30 4470 H 411.077 2.64343 -2.31982 0
M  V30 4471 H 410.951 3.66363 -0.897672 0
M  V30 4472 H 413.338 2.94308 -0.216081 0
M  V30 4473 H 413.419 1.93774 -1.66989 0
M  V30 4474 H 413.063 4.0208 -3.10313 0
M  V30 4475 H 412.993 5.00968 -1.62292 0
M  V30 4476 H 415.484 3.45012 -1.54192 0
M  V30 4477 H 415.797 6.77718 -3.71374 0
M  V30 4478 H 414.142 6.09824 -3.33377 0
M  V30 4479 H 417.333 4.23855 -1.98657 0
M  V30 4480 H 417.506 5.75582 -2.97673 0
M  V30 4481 N 410.912 0.523116 1.48665 0
M  V30 4482 C 411.844 -0.280421 2.27478 0
M  V30 4483 C 412.857 -0.910694 1.34945 0
M  V30 4484 O 414.046 -0.790295 1.60052 0
M  V30 4485 C 411.146 -1.41171 3.08097 0
M  V30 4486 C 410.319 -0.884642 4.28361 0
M  V30 4487 C 409.378 -1.89622 4.90846 0
M  V30 4488 O 408.404 -1.4559 5.50265 0
M  V30 4489 N 409.606 -3.22801 4.82472 0
M  V30 4490 H 412.371 0.395481 2.97079 0
M  V30 4491 H 409.932 0.357018 1.57915 0
M  V30 4492 H 411.924 -2.08645 3.4677 0
M  V30 4493 H 410.494 -1.99139 2.40961 0
M  V30 4494 H 409.714 -0.0341177 3.94185 0
M  V30 4495 H 411.002 -0.511268 5.06225 0
M  V30 4496 H 410.4 -3.61246 4.35336 0
M  V30 4497 H 408.957 -3.85927 5.25265 0
M  V30 4498 N 412.39 -1.55475 0.257931 0
M  V30 4499 C 413.338 -2.23244 -0.653076 0
M  V30 4500 C 414.332 -1.22366 -1.17144 0
M  V30 4501 O 415.538 -1.40347 -1.12706 0
M  V30 4502 H 411.913 -0.716247 -0.229117 0
M  V30 4503 H 413.884 -2.98343 -0.0584788 0
M  V30 4504 C 412.633 -2.95401 -1.83395 0
M  V30 4505 H 411.956 -3.72802 -1.44424 0
M  V30 4506 H 413.396 -3.46165 -2.44838 0
M  V30 4507 C 411.855 -1.99895 -2.71189 0
M  V30 4508 O 412.385 -1.53909 -3.71046 0
M  V30 4509 N 410.591 -1.6676 -2.3799 0
M  V30 4510 H 410.138 -2.04352 -1.56837 0
M  V30 4511 H 410.096 -1.03127 -2.97005 0
M  V30 4512 N 413.868 0.0150385 -1.57593 0
M  V30 4513 C 415.114 0.704043 -1.90187 0
M  V30 4514 C 415.447 1.74249 -0.857366 0
M  V30 4515 O 414.722 1.94092 0.125843 0
M  V30 4516 C 415.005 1.36087 -3.33395 0
M  V30 4517 C 414.858 0.334981 -4.48551 0
M  V30 4518 C 416.177 2.29112 -3.7576 0
M  V30 4519 H 413.296 0.254475 -0.691673 0
M  V30 4520 H 415.938 -0.0331678 -1.89971 0
M  V30 4521 H 414.088 1.98922 -3.3371 0
M  V30 4522 H 415.76 -0.292534 -4.60372 0
M  V30 4523 H 414.003 -0.344325 -4.32431 0
M  V30 4524 H 414.674 0.833316 -5.45674 0
M  V30 4525 H 417.15 1.76308 -3.76902 0
M  V30 4526 H 416.026 2.72043 -4.76743 0
M  V30 4527 H 416.287 3.16385 -3.08793 0
M  V30 4528 N 415.346 1.54954 0.287554 0
M  V30 4529 C 416.278 1.83224 1.37701 0
M  V30 4530 C 417.291 0.715898 1.46215 0
M  V30 4531 O 418.48 0.993565 1.48292 0
M  V30 4532 C 415.58 1.96723 2.75959 0
M  V30 4533 C 414.753 3.27253 2.90215 0
M  V30 4534 C 413.812 3.30998 4.09056 0
M  V30 4535 O 412.838 4.04457 4.00503 0
M  V30 4536 N 414.04 2.57353 5.20336 0
M  V30 4537 H 416.805 2.77254 1.138 0
M  V30 4538 H 414.366 1.54694 0.477652 0
M  V30 4539 H 416.358 1.96615 3.5373 0
M  V30 4540 H 414.928 1.09626 2.92747 0
M  V30 4541 H 414.148 3.40022 1.99447 0
M  V30 4542 H 415.436 4.13365 2.96659 0
M  V30 4543 H 414.834 1.97327 5.30169 0
M  V30 4544 H 413.391 2.62984 5.96391 0
M  V30 4545 N 416.824 -0.551391 1.4764 0
M  V30 4546 C 418.07 -1.31024 1.54792 0
M  V30 4547 C 418.403 -1.9304 0.211967 0
M  V30 4548 O 417.678 -1.78175 -0.77999 0
M  V30 4549 C 417.961 -2.41593 2.67029 0
M  V30 4550 C 417.814 -1.84408 4.10261 0
M  V30 4551 C 419.133 -3.43488 2.75143 0
M  V30 4552 H 416.252 -0.475031 0.563485 0
M  V30 4553 H 418.894 -0.616454 1.79722 0
M  V30 4554 H 417.044 -3.00772 2.45904 0
M  V30 4555 H 418.716 -1.29445 4.42766 0
M  V30 4556 H 416.959 -1.15051 4.18265 0
M  V30 4557 H 417.63 -2.64367 4.84576 0
M  V30 4558 H 420.106 -2.94236 2.94218 0
M  V30 4559 H 418.982 -4.18274 3.55441 0
M  V30 4560 H 419.243 -4.02703 1.82435 0
M  V30 4561 N 418.302 -1.35869 -0.798587 0
M  V30 4562 C 419.549 -1.29588 -1.55606 0
M  V30 4563 C 419.877 0.127456 -1.94082 0
M  V30 4564 O 419.132 1.09461 -1.62225 0
M  V30 4565 C 419.431 -2.1556 -2.85077 0
M  V30 4566 C 419.097 -3.6424 -2.65781 0
M  V30 4567 C 417.759 -4.04766 -2.60227 0
M  V30 4568 C 420.111 -4.58547 -2.47758 0
M  V30 4569 C 417.439 -5.37753 -2.34603 0
M  V30 4570 C 419.791 -5.91742 -2.23662 0
M  V30 4571 C 418.455 -6.31402 -2.16534 0
M  V30 4572 H 417.725 -0.474197 -0.569402 0
M  V30 4573 H 420.372 -1.67839 -0.922086 0
M  V30 4574 H 418.677 -1.70216 -3.52893 0
M  V30 4575 H 420.374 -2.08031 -3.42818 0
M  V30 4576 H 416.964 -3.32086 -2.70956 0
M  V30 4577 H 421.148 -4.28117 -2.51056 0
M  V30 4578 H 416.404 -5.67474 -2.2756 0
M  V30 4579 H 420.578 -6.6439 -2.08708 0
M  V30 4580 H 418.205 -7.34381 -1.96441 0
M  V30 4581 N 419.78 1.02168 -1.19998 0
M  V30 4582 C 420.69 2.14069 -0.959774 0
M  V30 4583 C 421.706 1.73804 0.082655 0
M  V30 4584 O 422.882 2.01133 -0.103633 0
M  V30 4585 C 419.947 3.42936 -0.509459 0
M  V30 4586 C 419.008 3.97474 -1.62213 0
M  V30 4587 C 418.241 5.2019 -1.19321 0
M  V30 4588 O 418.464 5.70369 -0.0597726 0
M  V30 4589 O 417.398 5.67749 -1.99863 0
M  V30 4590 H 421.224 2.37199 -1.89658 0
M  V30 4591 H 418.809 1.12469 -0.983411 0
M  V30 4592 H 420.691 4.20551 -0.267322 0
M  V30 4593 H 419.366 3.21234 0.398821 0
M  V30 4594 H 418.273 3.21161 -1.9185 0
M  V30 4595 H 419.606 4.23555 -2.50723 0
M  V30 4596 N 421.258 1.00505 1.21394 0
M  V30 4597 C 422.505 0.687774 1.90462 0
M  V30 4598 C 422.833 -0.78147 1.7811 0
M  V30 4599 O 422.088 -1.58208 1.1519 0
M  V30 4600 C 422.387 1.0546 3.41486 0
M  V30 4601 C 422.053 2.51812 3.74034 0
M  V30 4602 C 420.715 2.91804 3.82628 0
M  V30 4603 C 423.067 3.46614 3.8924 0
M  V30 4604 C 420.395 4.2556 4.03876 0
M  V30 4605 C 422.747 4.80044 4.11995 0
M  V30 4606 C 421.411 5.19759 4.18816 0
M  V30 4607 H 420.681 0.251674 0.696951 0
M  V30 4608 H 423.328 1.26349 1.43903 0
M  V30 4609 H 421.633 0.397133 3.89782 0
M  V30 4610 H 423.33 0.786976 3.93202 0
M  V30 4611 H 419.92 2.1982 3.67936 0
M  V30 4612 H 424.104 3.16883 3.81967 0
M  V30 4613 H 419.36 4.55901 4.07387 0
M  V30 4614 H 423.534 5.53439 4.22704 0
M  V30 4615 H 421.161 6.23418 4.35033 0
M  V30 4616 N 422.737 -1.36956 0.779787 0
M  V30 4617 C 423.669 -2.28833 0.129639 0
M  V30 4618 C 424.682 -1.4902 -0.655511 0
M  V30 4619 O 425.871 -1.71578 -0.492279 0
M  V30 4620 C 422.971 -3.2833 -0.839792 0
M  V30 4621 C 422.144 -4.3727 -0.10675 0
M  V30 4622 C 421.203 -5.16789 -0.990717 0
M  V30 4623 O 420.229 -5.67406 -0.451516 0
M  V30 4624 N 421.431 -5.32294 -2.3161 0
M  V30 4625 H 424.196 -2.85268 0.918803 0
M  V30 4626 H 421.757 -1.49019 0.632841 0
M  V30 4627 H 423.749 -3.78413 -1.43477 0
M  V30 4628 H 422.319 -2.72605 -1.52988 0
M  V30 4629 H 421.539 -3.88478 0.669216 0
M  V30 4630 H 422.827 -5.07229 0.399464 0
M  V30 4631 H 422.225 -4.92768 -2.77843 0
M  V30 4632 H 420.782 -5.85656 -2.86095 0
M  V30 4633 N 424.215 -0.530993 -1.48385 0
M  V30 4634 C 425.145 0.219985 -2.32461 0
M  V30 4635 C 426.126 0.934111 -1.42156 0
M  V30 4636 O 427.311 0.919694 -1.71042 0
M  V30 4637 C 424.441 1.26674 -3.23375 0
M  V30 4638 C 423.395 0.67069 -4.22712 0
M  V30 4639 C 422.721 1.82017 -5.02766 0
M  V30 4640 C 424.021 -0.358268 -5.2107 0
M  V30 4641 H 425.715 -0.48187 -2.95497 0
M  V30 4642 H 423.261 -0.233182 -1.42099 0
M  V30 4643 H 425.214 1.80006 -3.81019 0
M  V30 4644 H 423.938 1.99818 -2.58341 0
M  V30 4645 H 422.597 0.158878 -3.66256 0
M  V30 4646 H 422.245 2.54002 -4.34157 0
M  V30 4647 H 421.945 1.42727 -5.70003 0
M  V30 4648 H 423.469 2.35725 -5.63264 0
M  V30 4649 H 424.883 0.0880081 -5.73232 0
M  V30 4650 H 423.28 -0.66861 -5.96364 0
M  V30 4651 H 424.35 -1.26367 -4.68145 0
M  V30 4652 N 425.693 1.55336 -0.266172 0
M  V30 4653 C 426.921 2.03801 0.356756 0
M  V30 4654 C 427.336 1.14485 1.50129 0
M  V30 4655 O 426.693 0.163121 1.8177 0
M  V30 4656 C 426.744 3.51455 0.846281 0
M  V30 4657 O 426.465 4.37371 -0.252663 0
M  V30 4658 C 427.966 4.15767 1.53794 0
M  V30 4659 H 425.186 0.665906 0.0825218 0
M  V30 4660 H 427.73 2.00636 -0.39566 0
M  V30 4661 H 425.885 3.55092 1.54881 0
M  V30 4662 H 426.299 5.24358 0.122173 0
M  V30 4663 H 427.773 5.20714 1.83198 0
M  V30 4664 H 428.25 3.63404 2.46646 0
M  V30 4665 H 428.856 4.16107 0.879488 0
M  V30 4666 N 427.171 -0.0066808 1.57599 0
M  V30 4667 C 428.134 -0.985035 2.06953 0
M  V30 4668 C 429.134 -1.27663 0.977687 0
M  V30 4669 O 430.324 -1.22293 1.24057 0
M  V30 4670 C 427.456 -2.3118 2.50536 0
M  V30 4671 H 428.649 -0.558255 2.94658 0
M  V30 4672 H 426.202 -0.254011 1.54222 0
M  V30 4673 H 426.937 -2.78561 1.66054 0
M  V30 4674 H 426.722 -2.11338 3.3027 0
M  V30 4675 H 428.212 -3.01377 2.8907 0
M  V30 4676 N 428.649 -1.55105 -0.279332 0
M  V30 4677 C 429.559 -1.90638 -1.36727 0
M  V30 4678 C 430.575 -0.802899 -1.54368 0
M  V30 4679 O 431.751 -1.10138 -1.68616 0
M  V30 4680 C 428.816 -2.16547 -2.70755 0
M  V30 4681 C 427.877 -3.40146 -2.61915 0
M  V30 4682 C 427.11 -3.6481 -3.8955 0
M  V30 4683 O 427.333 -2.92095 -4.89935 0
M  V30 4684 O 426.267 -4.58343 -3.90135 0
M  V30 4685 H 430.093 -2.83237 -1.09591 0
M  V30 4686 H 427.678 -1.4157 -0.477306 0
M  V30 4687 H 429.56 -2.34665 -3.50014 0
M  V30 4688 H 428.235 -1.27131 -2.9769 0
M  V30 4689 H 427.142 -3.2737 -1.81052 0
M  V30 4690 H 428.475 -4.29761 -2.3993 0
M  V30 4691 N 430.127 0.543554 -1.4793 0
M  V30 4692 C 431.404 1.30458 -1.4574 0
M  V30 4693 C 431.784 2.1048 -0.161692 0
M  V30 4694 O 431.132 2.11831 0.856734 0
M  V30 4695 C 431.342 2.19754 -2.71126 0
M  V30 4696 C 432.69 2.80334 -3.18901 0
M  V30 4697 O 433.714 2.30049 -2.71948 0
M  V30 4698 O 432.573 3.71766 -4.00565 0
M  V30 4699 H 429.667 0.588117 -0.581418 0
M  V30 4700 H 432.213 0.561328 -1.60147 0
M  V30 4701 H 430.985 1.60316 -3.56952 0
M  V30 4702 H 430.608 3.01351 -2.59371 0
M  V30 4703 N 431.605 1.3629 0.791371 0
M  V30 4704 C 432.538 1.24816 1.9104 0
M  V30 4705 C 433.516 0.132739 1.62057 0
M  V30 4706 O 434.7 0.303527 1.8604 0
M  V30 4707 C 431.827 0.925355 3.25814 0
M  V30 4708 C 430.873 2.05495 3.7373 0
M  V30 4709 S 431.706 3.67255 3.89723 0
M  V30 4710 C 432.862 3.37084 5.27376 0
M  V30 4711 H 433.095 2.19533 2.00481 0
M  V30 4712 H 430.628 1.21684 0.950393 0
M  V30 4713 H 432.586 0.745924 4.03666 0
M  V30 4714 H 431.247 -0.00400098 3.141 0
M  V30 4715 H 430.44 1.7836 4.71385 0
M  V30 4716 H 430.042 2.1935 3.02922 0
M  V30 4717 H 432.334 2.90856 6.1189 0
M  V30 4718 H 433.277 4.33995 5.59512 0
M  V30 4719 H 433.685 2.7248 4.94383 0
M  V30 4720 N 433.083 -1.0153 1.20538 0
M  V30 4721 C 434.03 -2.10098 0.955383 0
M  V30 4722 C 435 -1.65702 -0.114878 0
M  V30 4723 O 436.185 -1.90776 0.0301118 0
M  V30 4724 C 433.325 -3.41236 0.514969 0
M  V30 4725 C 432.438 -3.99102 1.65353 0
M  V30 4726 C 431.573 -5.18306 1.16329 0
M  V30 4727 C 430.612 -5.68258 2.27485 0
M  V30 4728 N 429.749 -6.78722 1.7967 0
M  V30 4729 H 434.589 -2.30818 1.88486 0
M  V30 4730 H 432.126 -1.13189 0.939499 0
M  V30 4731 H 434.084 -4.16504 0.240935 0
M  V30 4732 H 432.714 -3.20585 -0.377512 0
M  V30 4733 H 431.766 -3.20918 2.04245 0
M  V30 4734 H 433.078 -4.32177 2.49047 0
M  V30 4735 H 432.232 -6.00782 0.845302 0
M  V30 4736 H 430.971 -4.86799 0.296254 0
M  V30 4737 H 429.976 -4.84385 2.60099 0
M  V30 4738 H 431.201 -6.01798 3.14667 0
M  V30 4739 H 429.147 -6.49042 0.95295 0
M  V30 4740 H 429.064 -7.10996 2.56944 0
M  V30 4741 H 430.332 -7.64759 1.50875 0
M  V30 4742 N 434.561 -1.01147 -1.20859 0
M  V30 4743 C 435.524 -0.582224 -2.21682 0
M  V30 4744 C 436.524 0.344887 -1.57058 0
M  V30 4745 O 437.714 0.134281 -1.73682 0
M  V30 4746 C 434.846 0.150496 -3.40568 0
M  V30 4747 H 436.039 -1.47408 -2.61172 0
M  V30 4748 H 433.592 -0.800695 -1.34233 0
M  V30 4749 H 434.327 1.0575 -3.06574 0
M  V30 4750 H 434.112 -0.515444 -3.88697 0
M  V30 4751 H 435.602 0.438344 -4.15293 0
M  V30 4752 N 436.039 1.36541 -0.78704 0
M  V30 4753 C 437.288 1.98552 -0.35494 0
M  V30 4754 C 437.601 1.63171 1.07864 0
M  V30 4755 O 438.807 2.18399 1.61289 0
M  V30 4756 C 437.263 3.55136 -0.583671 0
M  V30 4757 C 436.871 3.99444 -2.02851 0
M  V30 4758 C 438.615 4.2395 -0.215957 0
M  V30 4759 C 436.522 5.48796 -2.20403 0
M  V30 4760 H 435.452 0.742888 -0.128972 0
M  V30 4761 H 438.103 1.5587 -0.968337 0
M  V30 4762 H 436.485 3.95875 0.0994046 0
M  V30 4763 H 437.659 3.6991 -2.74779 0
M  V30 4764 H 435.974 3.43459 -2.35425 0
M  V30 4765 H 438.571 5.33709 -0.325405 0
M  V30 4766 H 438.914 4.07827 0.835646 0
M  V30 4767 H 439.447 3.88565 -0.852175 0
M  V30 4768 H 436.186 5.69864 -3.23937 0
M  V30 4769 H 435.706 5.79964 -1.52977 0
M  V30 4770 H 437.385 6.14986 -2.01002 0
M  V30 4771 N 437.518 0.538854 1.48102 0
M  V30 4772 C 438.795 -0.0568108 1.95517 0
M  V30 4773 C 439.175 -1.50408 1.48124 0
M  V30 4774 O 438.523 -2.17133 0.711727 0
M  V30 4775 C 438.733 0.0696262 3.48931 0
M  V30 4776 C 440.081 -0.0851202 4.24515 0
M  V30 4777 O 441.105 -0.0037347 3.562 0
M  V30 4778 O 439.964 -0.257025 5.45895 0
M  V30 4779 H 437.058 -0.0743695 0.823649 0
M  V30 4780 H 439.604 0.604081 1.58584 0
M  V30 4781 H 438.376 1.07744 3.76174 0
M  V30 4782 H 437.999 -0.629714 3.92582 0
M  V30 4783 N 438.996 -1.55193 0.274407 0
M  V30 4784 C 440.244 -1.99187 -0.341902 0
M  V30 4785 C 440.565 -1.16422 -1.56431 0
M  V30 4786 O 439.835 -0.253573 -1.94252 0
M  V30 4787 H 438.415 -0.735721 -0.129317 0
M  V30 4788 H 441.077 -1.91168 0.379578 0
M  V30 4789 H 440.173 -3.05629 -0.632253 0
M  V30 4790 N 440.474 -0.00167713 -1.576 0
M  V30 4791 C 441.404 0.988091 -2.11563 0
M  V30 4792 C 442.385 1.35736 -1.02517 0
M  V30 4793 O 443.57 1.44082 -1.30208 0
M  V30 4794 C 440.7 2.27941 -2.62031 0
M  V30 4795 C 439.654 2.0517 -3.75619 0
M  V30 4796 C 438.98 3.4033 -4.12407 0
M  V30 4797 C 440.28 1.41294 -5.02825 0
M  V30 4798 H 441.974 0.538771 -2.94513 0
M  V30 4799 H 439.52 0.257712 -1.41675 0
M  V30 4800 H 441.473 2.97539 -2.9841 0
M  V30 4801 H 440.197 2.74989 -1.76205 0
M  V30 4802 H 438.856 1.37998 -3.39635 0
M  V30 4803 H 438.504 3.85085 -3.23603 0
M  V30 4804 H 438.204 3.25909 -4.88935 0
M  V30 4805 H 439.728 4.1124 -4.51347 0
M  V30 4806 H 441.142 2.00851 -5.36965 0
M  V30 4807 H 439.539 1.37356 -5.84169 0
M  V30 4808 H 440.609 0.382362 -4.8339 0
M  V30 4809 N 441.952 1.55251 0.271103 0
M  V30 4810 C 443.229 1.66664 1.02384 0
M  V30 4811 C 443.609 0.534363 2.04225 0
M  V30 4812 O 442.957 -0.465337 2.23712 0
M  V30 4813 C 443.167 3.05961 1.67895 0
M  V30 4814 C 444.515 3.63772 2.18986 0
M  V30 4815 O 445.539 3.08606 1.77878 0
M  V30 4816 O 444.398 4.60429 2.94393 0
M  V30 4817 H 441.492 0.676957 0.475035 0
M  V30 4818 H 444.038 1.67589 0.26681 0
M  V30 4819 H 442.81 3.79815 0.941071 0
M  V30 4820 H 442.433 3.08943 2.5028 0
M  V30 4821 N 443.43 -0.535701 1.48216 0
M  V30 4822 C 444.846 -0.863701 1.3421 0
M  V30 4823 C 445.046 -1.98458 0.34879 0
M  V30 4824 O 444.102 -2.51432 -0.23204 0
M  V30 4825 C 445.415 -1.23662 2.74095 0
M  V30 4826 C 446.963 -1.34683 2.82541 0
M  V30 4827 C 447.438 -1.75322 4.23115 0
M  V30 4828 N 448.929 -1.82434 4.2576 0
M  V30 4829 C 449.664 -2.15252 5.31464 0
M  V30 4830 N 449.16 -2.46533 6.47452 0
M  V30 4831 N 450.953 -2.16209 5.18855 0
M  V30 4832 H 443.104 0.203965 2.11418 0
M  V30 4833 H 445.367 0.0286033 0.947568 0
M  V30 4834 H 445.073 -0.486674 3.48316 0
M  V30 4835 H 444.947 -2.18805 3.07253 0
M  V30 4836 H 447.334 -2.08756 2.08579 0
M  V30 4837 H 447.415 -0.376756 2.5301 0
M  V30 4838 H 447.059 -1.01812 4.97591 0
M  V30 4839 H 446.989 -2.7337 4.50085 0
M  V30 4840 H 449.48 -1.6056 3.42095 0
M  V30 4841 H 449.793 -2.70662 7.23852 0
M  V30 4842 H 448.138 -2.44065 6.50736 0
M  V30 4843 H 451.329 -1.91224 4.2726 0
M  V30 4844 H 451.502 -2.41453 6.01335 0
M  V30 4845 N 444.908 -1.36708 -0.784132 0
M  V30 4846 C 445.856 -1.31533 -1.91838 0
M  V30 4847 C 446.85 -0.206205 -1.6814 0
M  V30 4848 O 448.056 -0.373519 -1.76082 0
M  V30 4849 H 444.431 -0.409613 -0.630651 0
M  V30 4850 H 446.402 -2.2731 -1.9332 0
M  V30 4851 C 445.151 -1.12679 -3.28936 0
M  V30 4852 H 444.474 -1.97274 -3.4774 0
M  V30 4853 H 445.914 -1.13106 -4.08636 0
M  V30 4854 C 444.373 0.168281 -3.36479 0
M  V30 4855 O 444.903 1.15625 -3.84699 0
M  V30 4856 N 443.109 0.214762 -2.89805 0
M  V30 4857 H 442.656 -0.589852 -2.50756 0
M  V30 4858 H 442.614 1.08094 -2.95234 0
M  V30 4859 N 446.386 1.0089 -1.21074 0
M  V30 4860 C 447.316 2.1145 -0.990523 0
M  V30 4861 C 448.297 1.69897 0.0831699 0
M  V30 4862 O 449.482 1.94052 -0.0758853 0
M  V30 4863 C 446.612 3.42914 -0.550177 0
M  V30 4864 C 445.566 3.98244 -1.56799 0
M  V30 4865 C 444.892 5.25568 -0.984013 0
M  V30 4866 C 446.192 4.30752 -2.95381 0
M  V30 4867 H 447.886 2.3013 -1.91521 0
M  V30 4868 H 445.432 1.10592 -0.92225 0
M  V30 4869 H 447.385 4.19653 -0.383305 0
M  V30 4870 H 446.109 3.24014 0.41015 0
M  V30 4871 H 444.768 3.23621 -1.72236 0
M  V30 4872 H 444.416 5.02998 -0.0155216 0
M  V30 4873 H 444.116 5.63551 -1.66384 0
M  V30 4874 H 445.64 6.04955 -0.828378 0
M  V30 4875 H 447.054 4.98349 -2.8341 0
M  V30 4876 H 445.451 4.79869 -3.60341 0
M  V30 4877 H 446.521 3.39192 -3.46521 0
M  V30 4878 N 447.864 1.01787 1.20321 0
M  V30 4879 C 448.814 0.559976 2.21016 0
M  V30 4880 C 449.798 -0.385366 1.56217 0
M  V30 4881 O 450.99 -0.208126 1.75772 0
M  V30 4882 C 448.119 -0.0990553 3.43157 0
M  V30 4883 C 447.205 0.86807 4.15121 0
M  V30 4884 N 447.596 2.0261 4.63447 0
M  V30 4885 C 445.894 0.689162 4.40643 0
M  V30 4886 C 446.595 2.63518 5.18588 0
M  V30 4887 N 445.571 1.91569 5.08726 0
M  V30 4888 H 449.373 1.44281 2.56048 0
M  V30 4889 H 446.887 0.883381 1.36272 0
M  V30 4890 H 448.884 -0.444643 4.14522 0
M  V30 4891 H 447.544 -0.977709 3.0963 0
M  V30 4892 H 448.555 2.40598 4.58621 0
M  V30 4893 H 445.232 -0.14133 4.17261 0
M  V30 4894 H 446.622 3.61527 5.66346 0
M  V30 4895 N 449.342 -1.36122 0.79427 0
M  V30 4896 C 450.572 -2.03067 0.380437 0
M  V30 4897 C 450.98 -1.60018 -1.00949 0
M  V30 4898 O 450.323 -0.787425 -1.65968 0
M  V30 4899 C 450.385 -3.57587 0.37034 0
M  V30 4900 C 450.049 -4.23855 1.70867 0
M  V30 4901 C 451.046 -4.46404 2.66496 0
M  V30 4902 C 448.731 -4.61229 1.9893 0
M  V30 4903 C 450.725 -5.05412 3.88378 0
M  V30 4904 C 448.412 -5.19953 3.21079 0
M  V30 4905 C 449.41 -5.41985 4.15621 0
M  V30 4906 O 449.098 -5.99475 5.35616 0
M  V30 4907 H 448.83 -0.658168 0.154243 0
M  V30 4908 H 451.384 -1.7498 1.0757 0
M  V30 4909 H 449.614 -3.84814 -0.381444 0
M  V30 4910 H 451.303 -4.05895 -0.0194894 0
M  V30 4911 H 452.069 -4.17921 2.46103 0
M  V30 4912 H 447.948 -4.43402 1.26158 0
M  V30 4913 H 451.492 -5.22524 4.62185 0
M  V30 4914 H 447.389 -5.47862 3.41347 0
M  V30 4915 H 448.157 -6.17937 5.36745 0
M  V30 4916 N 450.82 -0.546701 -1.47814 0
M  V30 4917 C 452.067 -0.0187407 -2.02491 0
M  V30 4918 C 452.395 1.32685 -1.42215 0
M  V30 4919 O 451.65 1.87413 -0.563454 0
M  V30 4920 C 451.949 0.134869 -3.57145 0
M  V30 4921 C 451.615 -1.13849 -4.3629 0
M  V30 4922 C 450.277 -1.48743 -4.57634 0
M  V30 4923 C 452.629 -1.98277 -4.82012 0
M  V30 4924 C 449.957 -2.67932 -5.21948 0
M  V30 4925 C 452.309 -3.16659 -5.4764 0
M  V30 4926 C 450.973 -3.51879 -5.67219 0
M  V30 4927 H 450.243 -0.0068577 -0.740968 0
M  V30 4928 H 452.89 -0.716097 -1.77607 0
M  V30 4929 H 451.195 0.915118 -3.80963 0
M  V30 4930 H 452.892 0.558556 -3.97091 0
M  V30 4931 H 449.482 -0.856767 -4.19949 0
M  V30 4932 H 453.666 -1.72628 -4.6531 0
M  V30 4933 H 448.922 -2.95401 -5.35302 0
M  V30 4934 H 453.096 -3.82374 -5.82033 0
M  V30 4935 H 450.723 -4.44331 -6.16825 0
M  V30 4936 N 452.299 1.55045 -0.282633 0
M  V30 4937 C 453.247 2.24254 0.617478 0
M  V30 4938 C 454.241 1.24215 1.15183 0
M  V30 4939 O 455.447 1.42123 1.10459 0
M  V30 4940 H 451.822 0.719801 0.217693 0
M  V30 4941 H 453.793 2.98398 0.0110076 0
M  V30 4942 C 452.542 2.98281 1.78672 0
M  V30 4943 H 451.865 3.75053 1.38475 0
M  V30 4944 H 453.305 3.50017 2.393 0
M  V30 4945 C 451.764 2.04184 2.67975 0
M  V30 4946 O 452.294 1.59792 3.6855 0
M  V30 4947 N 450.5 1.70526 2.35307 0
M  V30 4948 H 450.047 2.06821 1.53567 0
M  V30 4949 H 450.005 1.07839 2.95327 0
M  V30 4950 N 453.777 0.010035 1.57597 0
M  V30 4951 C 455.002 -0.687021 1.95691 0
M  V30 4952 C 455.427 -1.65952 0.885519 0
M  V30 4953 O 454.785 -1.80633 -0.15543 0
M  V30 4954 C 454.833 -1.3864 3.32884 0
M  V30 4955 O 453.937 -2.50115 3.27897 0
M  V30 4956 H 453.278 -0.181989 0.638573 0
M  V30 4957 H 455.808 0.0662122 2.04493 0
M  V30 4958 H 455.818 -1.74754 3.6868 0
M  V30 4959 H 454.493 -0.673411 4.10412 0
M  V30 4960 H 453.07 -2.16253 3.03791 0
M  V30 4961 N 455.255 -1.55392 -0.262866 0
M  V30 4962 C 456.532 -1.67204 -1.01499 0
M  V30 4963 C 456.912 -0.545186 -2.03939 0
M  V30 4964 O 456.26 0.453467 -2.23955 0
M  V30 4965 C 456.47 -3.06847 -1.6627 0
M  V30 4966 C 457.818 -3.64928 -2.17054 0
M  V30 4967 O 458.842 -3.09545 -1.76239 0
M  V30 4968 O 457.701 -4.61984 -2.91947 0
M  V30 4969 H 454.795 -0.679467 -0.471438 0
M  V30 4970 H 457.341 -1.67729 -0.257918 0
M  V30 4971 H 456.113 -3.80309 -0.920915 0
M  V30 4972 H 455.736 -3.10266 -2.48638 0
M  V30 4973 N 456.733 0.527833 -1.48498 0
M  V30 4974 C 457.958 1.313 -1.60546 0
M  V30 4975 C 458.383 1.86199 -0.26672 0
M  V30 4976 O 457.741 1.64513 0.761918 0
M  V30 4977 C 457.789 2.43818 -2.65678 0
M  V30 4978 O 456.893 3.46916 -2.22987 0
M  V30 4979 H 456.234 0.388784 -0.538277 0
M  V30 4980 H 458.764 0.634896 -1.945 0
M  V30 4981 H 458.774 2.89973 -2.87018 0
M  V30 4982 H 457.449 2.03222 -3.62869 0
M  V30 4983 H 456.026 3.06864 -2.11869 0
M  V30 4984 N 458.211 1.37122 0.776871 0
M  V30 4985 C 459.458 1.32047 1.53524 0
M  V30 4986 C 459.786 -0.0965631 1.9426 0
M  V30 4987 O 459.041 -1.06866 1.63945 0
M  V30 4988 C 459.34 2.20068 2.81611 0
M  V30 4989 C 459.006 3.68423 2.59953 0
M  V30 4990 C 457.668 4.08854 2.53755 0
M  V30 4991 C 460.02 4.62431 2.40431 0
M  V30 4992 C 457.348 5.41417 2.26018 0
M  V30 4993 C 459.7 5.95225 2.14219 0
M  V30 4994 C 458.364 6.34767 2.06462 0
M  V30 4995 H 457.634 0.483196 0.561785 0
M  V30 4996 H 460.281 1.69284 0.895268 0
M  V30 4997 H 458.586 1.75809 3.50141 0
M  V30 4998 H 460.283 2.13458 3.39465 0
M  V30 4999 H 456.873 3.36354 2.65638 0
M  V30 5000 H 461.057 4.32057 2.44213 0
M  V30 5001 H 456.313 5.71022 2.18504 0
M  V30 5002 H 460.487 6.67626 1.98112 0
M  V30 5003 H 458.114 7.37413 1.84733 0
M  V30 5004 N 459.689 -1.00246 1.21608 0
M  V30 5005 C 460.652 -2.07233 0.979133 0
M  V30 5006 C 461.652 -1.6072 -0.0508219 0
M  V30 5007 O 462.842 -1.73196 0.186712 0
M  V30 5008 C 459.974 -3.37546 0.477016 0
M  V30 5009 H 461.167 -2.29687 1.92831 0
M  V30 5010 H 458.72 -1.17261 1.03342 0
M  V30 5011 H 459.455 -3.20773 -0.476966 0
M  V30 5012 H 459.24 -3.72638 1.21997 0
M  V30 5013 H 460.73 -4.16285 0.331181 0
M  V30 5014 N 461.167 -1.02423 -1.1978 0
M  V30 5015 C 462.392 -0.7373 -1.93852 0
M  V30 5016 C 462.817 0.696923 -1.74713 0
M  V30 5017 O 462.175 1.48056 -1.04638 0
M  V30 5018 C 462.223 -1.08783 -3.438 0
M  V30 5019 O 461.327 -0.20383 -4.11896 0
M  V30 5020 H 460.668 -0.27284 -0.605355 0
M  V30 5021 H 463.198 -1.36966 -1.51992 0
M  V30 5022 H 463.208 -1.04276 -3.9445 0
M  V30 5023 H 461.883 -2.13274 -3.57053 0
M  V30 5024 H 460.46 -0.307091 -3.71633 0
M  V30 5025 N 462.645 1.35699 -0.801477 0
M  V30 5026 C 463.595 2.2728 -0.181073 0
M  V30 5027 C 464.579 1.47533 0.642098 0
M  V30 5028 O 465.771 1.69785 0.500193 0
M  V30 5029 C 462.9 3.36626 0.673612 0
M  V30 5030 C 461.986 4.23802 -0.159008 0
M  V30 5031 N 462.377 4.90879 -1.2195 0
M  V30 5032 C 460.675 4.45959 0.0602005 0
M  V30 5033 C 461.376 5.5546 -1.72738 0
M  V30 5034 N 460.352 5.33663 -1.03465 0
M  V30 5035 H 464.154 2.76632 -0.992582 0
M  V30 5036 H 461.668 1.49166 -0.642127 0
M  V30 5037 H 463.665 4.01179 1.13408 0
M  V30 5038 H 462.325 2.88828 1.48353 0
M  V30 5039 H 463.336 4.92497 -1.60209 0
M  V30 5040 H 460.013 4.08969 0.839664 0
M  V30 5041 H 461.403 6.18991 -2.61342 0
M  V30 5042 N 464.123 0.554532 1.47522 0
M  V30 5043 C 465.534 0.120446 1.86311 0
M  V30 5044 C 465.885 -1.30904 1.46145 0
M  V30 5045 O 465.01 -1.98434 0.863294 0
M  V30 5046 C 465.605 0.211808 3.38137 0
M  V30 5047 C 464.164 -0.167224 3.76028 0
M  V30 5048 C 463.311 0.560576 2.71575 0
M  V30 5049 H 466.262 0.764408 1.39077 0
M  V30 5050 H 466.283 -0.570275 3.76202 0
M  V30 5051 H 465.795 1.25232 3.6734 0
M  V30 5052 H 463.896 -1.20894 3.52442 0
M  V30 5053 H 464.009 0.189473 4.78725 0
M  V30 5054 H 462.373 0.00396836 2.547 0
M  V30 5055 H 463.156 1.60219 3.0362 0
M  V30 5056 N 465.601 -1.54893 0.290851 0
M  V30 5057 C 466.549 -2.24579 -0.605576 0
M  V30 5058 C 467.543 -1.24824 -1.14522 0
M  V30 5059 O 468.749 -1.42706 -1.09704 0
M  V30 5060 H 465.124 -0.720946 -0.213872 0
M  V30 5061 H 467.095 -2.984 0.0048173 0
M  V30 5062 C 465.844 -2.99224 -1.77088 0
M  V30 5063 H 465.167 -3.75782 -1.36484 0
M  V30 5064 H 466.607 -3.51281 -2.3744 0
M  V30 5065 C 465.066 -2.05602 -2.66888 0
M  V30 5066 O 465.596 -1.61745 -3.67698 0
M  V30 5067 N 463.802 -1.71771 -2.34399 0
M  V30 5068 H 463.349 -2.07633 -1.52468 0
M  V30 5069 H 463.307 -1.09403 -2.94751 0
M  V30 5070 N 467.08 -0.0183926 -1.57589 0
M  V30 5071 C 468.31 0.67207 -1.95363 0
M  V30 5072 C 468.718 1.66807 -0.892872 0
M  V30 5073 O 468.061 1.83204 0.134958 0
M  V30 5074 C 468.123 1.44397 -3.29226 0
M  V30 5075 C 467.787 0.607511 -4.52944 0
M  V30 5076 C 468.784 -0.112657 -5.19778 0
M  V30 5077 C 466.469 0.548068 -4.99301 0
M  V30 5078 C 468.463 -0.881057 -6.31281 0
M  V30 5079 C 466.15 -0.224044 -6.10689 0
M  V30 5080 C 467.148 -0.937323 -6.76538 0
M  V30 5081 O 466.836 -1.6968 -7.85789 0
M  V30 5082 H 466.568 0.190925 -0.648478 0
M  V30 5083 H 469.122 -0.0711994 -2.05277 0
M  V30 5084 H 467.352 2.23214 -3.15773 0
M  V30 5085 H 469.041 2.02152 -3.51979 0
M  V30 5086 H 469.807 -0.0759998 -4.8494 0
M  V30 5087 H 465.686 1.09281 -4.4786 0
M  V30 5088 H 469.23 -1.43832 -6.82611 0
M  V30 5089 H 465.127 -0.262457 -6.44966 0
M  V30 5090 H 465.895 -1.61544 -8.024 0
M  V30 5091 N 468.558 1.5553 0.254621 0
M  V30 5092 C 469.969 1.67518 0.824286 0
M  V30 5093 C 470.32 0.614429 1.86331 0
M  V30 5094 O 469.445 -0.240736 2.15057 0
M  V30 5095 C 470.04 3.03692 1.50189 0
M  V30 5096 C 468.599 3.17646 2.01935 0
M  V30 5097 C 467.746 2.63373 0.867746 0
M  V30 5098 H 470.697 1.58671 0.0305843 0
M  V30 5099 H 470.718 2.97706 2.36962 0
M  V30 5100 H 470.23 3.80874 0.745431 0
M  V30 5101 H 468.331 2.45273 2.80485 0
M  V30 5102 H 468.444 4.24455 2.22204 0
M  V30 5103 H 466.808 2.20999 1.26616 0
M  V30 5104 H 467.591 3.43074 0.124498 0
M  V30 5105 N 470.036 -0.519951 1.48776 0
M  V30 5106 C 471.266 -1.29783 1.60748 0
M  V30 5107 C 471.674 -1.87253 0.27072 0
M  V30 5108 O 471.017 -1.67628 -0.751438 0
M  V30 5109 C 471.079 -2.47984 2.60277 0
M  V30 5110 C 470.743 -2.11526 4.051 0
M  V30 5111 C 471.74 -1.66608 4.92481 0
M  V30 5112 C 469.425 -2.21742 4.50706 0
M  V30 5113 C 471.419 -1.32384 6.23501 0
M  V30 5114 C 469.106 -1.87129 5.81744 0
M  V30 5115 C 470.104 -1.42523 6.67964 0
M  V30 5116 O 469.792 -1.0837 7.96562 0
M  V30 5117 H 469.524 -0.400562 0.544542 0
M  V30 5118 H 472.078 -0.632879 1.95407 0
M  V30 5119 H 470.308 -3.17493 2.2076 0
M  V30 5120 H 471.997 -3.10036 2.61978 0
M  V30 5121 H 472.763 -1.58178 4.58481 0
M  V30 5122 H 468.642 -2.55415 3.83776 0
M  V30 5123 H 472.186 -0.974949 6.90754 0
M  V30 5124 H 468.083 -1.95204 6.15277 0
M  V30 5125 H 468.851 -1.21681 8.09405 0
M  V30 5126 N 471.514 -1.37532 -0.769588 0
M  V30 5127 C 472.739 -1.36231 -1.56384 0
M  V30 5128 C 473.164 0.0495849 -1.88035 0
M  V30 5129 O 472.522 1.02723 -1.49391 0
M  V30 5130 C 472.57 -2.20986 -2.84952 0
M  V30 5131 O 471.674 -1.61597 -3.79421 0
M  V30 5132 H 471.015 -0.465387 -0.473615 0
M  V30 5133 H 473.545 -1.81085 -0.952342 0
M  V30 5134 H 473.555 -2.34277 -3.34034 0
M  V30 5135 H 472.23 -3.23612 -2.61243 0
M  V30 5136 H 470.807 -1.57359 -3.38072 0
M  V30 5137 N 472.992 0.995999 -1.22138 0
M  V30 5138 C 474.269 1.70834 -0.952642 0
M  V30 5139 C 474.649 2.04257 0.533119 0
M  V30 5140 O 473.997 1.72343 1.50034 0
M  V30 5141 C 474.207 2.96119 -1.84701 0
M  V30 5142 C 475.555 3.68962 -2.10124 0
M  V30 5143 O 476.579 3.0612 -1.82124 0
M  V30 5144 O 475.438 4.82017 -2.57531 0
M  V30 5145 H 472.532 0.745498 -0.357997 0
M  V30 5146 H 475.078 1.05262 -1.33109 0
M  V30 5147 H 473.85 2.67898 -2.85213 0
M  V30 5148 H 473.473 3.6943 -1.46995 0
M  V30 5149 N 474.47 1.03057 1.19235 0
M  V30 5150 C 475.38 0.622922 2.26179 0
M  V30 5151 C 476.396 -0.346113 1.70523 0
M  V30 5152 O 477.572 -0.203572 2.00369 0
M  V30 5153 C 474.637 -0.0182063 3.46695 0
M  V30 5154 C 473.698 0.998546 4.17526 0
M  V30 5155 C 472.931 0.387917 5.32288 0
M  V30 5156 O 473.154 -0.808668 5.64639 0
M  V30 5157 O 472.088 1.1116 5.91546 0
M  V30 5158 H 475.914 1.51363 2.63292 0
M  V30 5159 H 473.499 0.800856 1.26122 0
M  V30 5160 H 475.381 -0.375606 4.19723 0
M  V30 5161 H 474.056 -0.882895 3.11427 0
M  V30 5162 H 472.963 1.40756 3.4661 0
M  V30 5163 H 474.296 1.83366 4.56769 0
M  V30 5164 N 475.948 -1.35272 0.808662 0
M  V30 5165 C 477.178 -2.02652 0.401953 0
M  V30 5166 C 477.586 -1.6108 -0.992462 0
M  V30 5167 O 476.929 -0.804984 -1.65123 0
M  V30 5168 C 476.991 -3.57174 0.408246 0
M  V30 5169 C 476.655 -4.22019 1.75353 0
M  V30 5170 C 477.652 -4.43552 2.71215 0
M  V30 5171 C 475.337 -4.59093 2.03811 0
M  V30 5172 C 477.331 -5.01264 3.93717 0
M  V30 5173 C 475.018 -5.16519 3.26576 0
M  V30 5174 C 476.016 -5.37546 4.21347 0
M  V30 5175 O 475.704 -5.93761 5.41944 0
M  V30 5176 H 475.436 -0.656495 0.161216 0
M  V30 5177 H 477.99 -1.73829 1.0942 0
M  V30 5178 H 476.22 -3.85197 -0.340608 0
M  V30 5179 H 477.909 -4.05893 0.0235623 0
M  V30 5180 H 478.675 -4.15288 2.50522 0
M  V30 5181 H 474.554 -4.42039 1.30854 0
M  V30 5182 H 478.098 -5.17592 4.67701 0
M  V30 5183 H 473.995 -5.4421 3.47139 0
M  V30 5184 H 474.763 -6.1221 5.43269 0
M  V30 5185 O 477.465 -0.703344 -1.4538 0
M  V30 5186 H 478.156 -0.244572 -1.9215 0
M  V30 END ATOM
M  V30 BEGIN BOND
M  V30 END BOND
M  V30 END CTAB
M  END
$$$$
