drugbank_target|Q9NPF7 Interleukin-23 subunit alpha (DB05679; DB14004; DB14762)
 OpenBabel12092120313D

  0  0  0     0  0            999 V3000
M  V30 BEGIN CTAB
M  V30 COUNTS 2905 2943 0 0 0
M  V30 BEGIN ATOM
M  V30 1 H -0.908 1.98254 -0.117106 0
M  V30 2 N 0 1.576 0 0
M  V30 3 C 0.933 2.03868 1.02534 0
M  V30 4 C 1.911 0.928543 1.3348 0
M  V30 5 O 3.095 1.19667 1.45644 0
M  V30 6 C 0.222 2.43627 2.35294 0
M  V30 7 C -0.732 3.65373 2.2001 0
M  V30 8 S 0.101 5.13292 1.52614 0
M  V30 9 C 1.257 5.56322 2.86805 0
M  V30 10 H 1.49 2.90518 0.631377 0
M  V30 11 H -0.977 1.52953 0.210867 0
M  V30 12 H 0.981 2.67203 3.11629 0
M  V30 13 H -0.358 1.57376 2.7183 0
M  V30 14 H -1.165 3.90944 3.18086 0
M  V30 15 H -1.563 3.418 1.51819 0
M  V30 16 H 0.729 5.58782 3.83104 0
M  V30 17 H 1.672 6.56266 2.65933 0
M  V30 18 H 2.08 4.83886 2.90714 0
M  V30 19 N 1.4781 -0.272755 1.55222 0
M  V30 20 C 2.4081 -1.34136 1.91127 0
M  V30 21 C 3.3891 -1.51513 0.773168 0
M  V30 22 O 4.5741 -1.64552 1.03132 0
M  V30 23 C 1.7041 -2.70083 2.1834 0
M  V30 24 C 0.6581 -2.67437 3.34158 0
M  V30 25 C -0.0159 -4.06938 3.46851 0
M  V30 26 C 1.2841 -2.26686 4.70543 0
M  V30 27 H 2.9781 -1.04333 2.80633 0
M  V30 28 H 0.5241 -0.500454 1.35024 0
M  V30 29 H 2.4771 -3.44952 2.42046 0
M  V30 30 H 1.2011 -3.01469 1.25634 0
M  V30 31 H -0.1399 -1.95026 3.1042 0
M  V30 32 H -0.4919 -4.35547 2.51611 0
M  V30 33 H -0.7919 -4.06062 4.2472 0
M  V30 34 H 0.7321 -4.83545 3.72849 0
M  V30 35 H 2.1461 -2.91277 4.93792 0
M  V30 36 H 0.5431 -2.36971 5.5133 0
M  V30 37 H 1.6131 -1.21818 4.69349 0
M  V30 38 N 2.9562 -1.48159 -0.537278 0
M  V30 39 C 4.2042 -1.55497 -1.29094 0
M  V30 40 C 4.5252 -0.227454 -1.93669 0
M  V30 41 O 3.7952 0.750386 -1.80959 0
M  V30 42 H 2.3752 -0.572832 -0.47945 0
M  V30 43 H 5.0372 -1.84579 -0.625818 0
M  V30 44 H 4.1332 -2.33216 -2.07405 0
M  V30 45 N 4.4343 0.785586 -1.36625 0
M  V30 46 C 5.6593 1.57963 -1.34397 0
M  V30 47 C 6.0843 1.87964 0.071526 0
M  V30 48 O 5.4423 1.48182 1.0446 0
M  V30 49 C 5.4903 2.87511 -2.17646 0
M  V30 50 O 4.5943 3.81281 -1.57158 0
M  V30 51 H 3.9353 0.479014 -0.459828 0
M  V30 52 H 6.4653 0.973411 -1.79961 0
M  V30 53 H 6.4753 3.36745 -2.30362 0
M  V30 54 H 5.1503 2.65002 -3.20541 0
M  V30 55 H 3.7273 3.39885 -1.53403 0
M  V30 56 N 5.9124 1.20967 1.01018 0
M  V30 57 C 7.3284 0.965905 1.27053 0
M  V30 58 C 7.5284 -0.350785 1.98423 0
M  V30 59 O 6.5844 -1.07773 2.28344 0
M  V30 60 C 7.8974 2.15294 2.09926 0
M  V30 61 C 9.4454 2.19463 2.23171 0
M  V30 62 C 9.9204 3.3767 3.09424 0
M  V30 63 N 11.4114 3.37724 3.17012 0
M  V30 64 C 12.1464 4.25837 3.83993 0
M  V30 65 N 11.6424 5.24138 4.53047 0
M  V30 66 N 13.4354 4.1366 3.80581 0
M  V30 67 H 5.5864 2.0565 0.531194 0
M  V30 68 H 7.8494 0.90024 0.297106 0
M  V30 69 H 7.5554 3.10684 1.64828 0
M  V30 70 H 7.4294 2.13923 3.10672 0
M  V30 71 H 9.8164 1.24632 2.6749 0
M  V30 72 H 9.8974 2.2488 1.21912 0
M  V30 73 H 9.5414 4.32791 2.65808 0
M  V30 74 H 9.4714 3.29491 4.10784 0
M  V30 75 H 11.9624 2.6658 2.6785 0
M  V30 76 H 12.2754 5.87684 5.01844 0
M  V30 77 H 10.6204 5.28068 4.5185 0
M  V30 78 H 13.8114 3.36127 3.25785 0
M  V30 79 H 13.9844 4.82538 4.32505 0
M  V30 80 N 7.3905 -1.2043 1.01659 0
M  V30 81 C 8.3535 -2.21433 0.591616 0
M  V30 82 C 9.3535 -1.57203 -0.338226 0
M  V30 83 O 10.5435 -1.73737 -0.126918 0
M  V30 84 C 7.6755 -3.40628 -0.136058 0
M  V30 85 H 8.8685 -2.60545 1.48514 0
M  V30 86 H 6.4215 -1.33893 0.806379 0
M  V30 87 H 7.1565 -3.07019 -1.04449 0
M  V30 88 H 6.9415 -3.88475 0.531917 0
M  V30 89 H 8.4315 -4.15475 -0.420735 0
M  V30 90 N 8.8686 -0.792821 -1.36206 0
M  V30 91 C 10.1146 -0.36733 -1.99446 0
M  V30 92 C 10.4476 1.05917 -1.62774 0
M  V30 93 O 9.7226 1.7324 -0.88421 0
M  V30 94 C 10.0056 -0.535044 -3.56103 0
M  V30 95 C 9.8586 -2.00548 -4.02617 0
M  V30 96 C 11.1776 0.0478191 -4.40074 0
M  V30 97 H 8.2966 -0.134941 -0.724541 0
M  V30 98 H 10.9386 -0.999794 -1.61568 0
M  V30 99 H 9.0886 0.00336329 -3.885 0
M  V30 100 H 10.7606 -2.60521 -3.80692 0
M  V30 101 H 9.0036 -2.50686 -3.54032 0
M  V30 102 H 9.6746 -2.07377 -5.11565 0
M  V30 103 H 12.1506 -0.411822 -4.14057 0
M  V30 104 H 11.0266 -0.0995336 -5.4881 0
M  V30 105 H 11.2876 1.14025 -4.27142 0
M  V30 106 N 10.3467 1.47872 -0.545128 0
M  V30 107 C 11.2797 2.2675 0.256885 0
M  V30 108 C 12.2577 1.33293 0.931228 0
M  V30 109 O 13.4417 1.62657 0.95262 0
M  V30 110 C 10.5687 3.09976 1.36501 0
M  V30 111 C 9.6147 4.1892 0.800496 0
M  V30 112 S 10.4477 5.34397 -0.343505 0
M  V30 113 C 11.6037 6.21186 0.766733 0
M  V30 114 H 11.8367 2.94425 -0.412479 0
M  V30 115 H 9.3697 1.50806 -0.331204 0
M  V30 116 H 11.3277 3.585 1.9997 0
M  V30 117 H 9.9887 2.41686 2.00616 0
M  V30 118 H 9.1817 4.76836 1.63227 0
M  V30 119 H 8.7837 3.73215 0.242217 0
M  V30 120 H 11.0757 6.56804 1.66178 0
M  V30 121 H 12.0187 7.07742 0.225204 0
M  V30 122 H 12.4267 5.54574 1.05396 0
M  V30 123 N 11.8248 0.280983 1.55075 0
M  V30 124 C 12.7548 -0.597469 2.25727 0
M  V30 125 C 13.7358 -1.15417 1.24952 0
M  V30 126 O 14.9208 -1.18722 1.53684 0
M  V30 127 C 12.0508 -1.7789 2.98283 0
M  V30 128 C 11.0048 -1.35347 4.06036 0
M  V30 129 C 10.3308 -2.61846 4.66198 0
M  V30 130 C 11.6308 -0.499354 5.19907 0
M  V30 131 H 13.3248 -0.00824265 2.99399 0
M  V30 132 H 10.8708 -0.0025244 1.44 0
M  V30 133 H 12.8238 -2.39937 3.46422 0
M  V30 134 H 11.5478 -2.39405 2.22155 0
M  V30 135 H 10.2068 -0.756156 3.58717 0
M  V30 136 H 9.8548 -3.21632 3.86732 0
M  V30 137 H 9.5548 -2.3409 5.38958 0
M  V30 138 H 11.0788 -3.24732 5.1709 0
M  V30 139 H 12.4928 -1.02498 5.64063 0
M  V30 140 H 10.8898 -0.316424 5.99265 0
M  V30 141 H 11.9598 0.480459 4.82514 0
M  V30 142 N 13.3029 -1.57598 0.00835791 0
M  V30 143 C 14.2329 -2.1198 -0.979113 0
M  V30 144 C 15.2139 -1.03091 -1.35301 0
M  V30 145 O 16.3989 -1.30818 -1.43528 0
M  V30 146 C 13.5289 -2.62995 -2.26828 0
M  V30 147 C 12.4829 -3.76485 -2.03576 0
M  V30 148 C 11.8089 -4.13846 -3.38579 0
M  V30 149 C 13.1089 -5.0342 -1.39161 0
M  V30 150 H 14.8029 -2.94738 -0.526281 0
M  V30 151 H 12.3489 -1.41783 -0.251704 0
M  V30 152 H 14.3019 -2.99669 -2.96271 0
M  V30 153 H 13.0259 -1.7737 -2.7424 0
M  V30 154 H 11.6849 -3.40217 -1.36557 0
M  V30 155 H 11.3329 -3.25232 -3.83709 0
M  V30 156 H 11.0329 -4.90312 -3.23834 0
M  V30 157 H 12.5569 -4.53086 -4.09323 0
M  V30 158 H 13.9709 -5.37812 -1.98573 0
M  V30 159 H 12.3679 -5.84746 -1.34878 0
M  V30 160 H 13.4379 -4.83548 -0.361868 0
M  V30 161 N 14.781 0.264519 -1.55364 0
M  V30 162 C 15.711 1.33121 -1.91836 0
M  V30 163 C 16.692 1.51101 -0.781192 0
M  V30 164 O 17.877 1.64003 -1.04003 0
M  V30 165 C 15.007 2.68921 -2.19769 0
M  V30 166 C 13.961 2.65661 -3.35571 0
M  V30 167 C 13.287 4.05093 -3.49004 0
M  V30 168 C 14.587 2.24187 -4.71739 0
M  V30 169 H 16.281 1.02844 -2.81182 0
M  V30 170 H 13.827 0.493286 -1.35287 0
M  V30 171 H 15.78 3.43663 -2.43872 0
M  V30 172 H 14.504 3.00799 -1.27231 0
M  V30 173 H 13.163 1.93377 -3.1145 0
M  V30 174 H 12.811 4.34206 -2.53917 0
M  V30 175 H 12.511 4.03804 -4.26868 0
M  V30 176 H 14.035 4.81561 -3.75408 0
M  V30 177 H 15.449 2.88654 -4.9533 0
M  V30 178 H 13.846 2.34044 -5.52579 0
M  V30 179 H 14.916 1.19327 -4.69988 0
M  V30 180 N 16.2591 1.48442 0.529413 0
M  V30 181 C 17.1891 1.65902 1.64313 0
M  V30 182 C 18.1701 0.507897 1.6234 0
M  V30 183 O 19.3551 0.740503 1.79528 0
M  V30 184 C 16.4851 1.69911 3.02898 0
M  V30 185 C 15.4391 2.8453 3.19729 0
M  V30 186 C 14.7651 2.73629 4.59381 0
M  V30 187 C 16.0651 4.25821 3.02447 0
M  V30 188 H 17.7591 2.5914 1.49955 0
M  V30 189 H 15.3051 1.24709 0.719982 0
M  V30 190 H 17.2581 1.80715 3.80684 0
M  V30 191 H 15.9821 0.732524 3.18279 0
M  V30 192 H 14.6411 2.73283 2.44361 0
M  V30 193 H 14.2891 1.74938 4.71599 0
M  V30 194 H 13.9891 3.50541 4.71588 0
M  V30 195 H 15.5131 2.86401 5.39265 0
M  V30 196 H 16.9271 4.37898 3.70024 0
M  V30 197 H 15.3241 5.03735 3.26146 0
M  V30 198 H 16.3941 4.42244 1.98867 0
M  V30 199 N 17.7372 -0.778329 1.37039 0
M  V30 200 C 18.6672 -1.90546 1.34962 0
M  V30 201 C 19.6482 -1.68681 0.219274 0
M  V30 202 O 20.8332 -1.89634 0.418624 0
M  V30 203 C 17.9632 -3.27734 1.14925 0
M  V30 204 C 16.9172 -3.64147 2.24902 0
M  V30 205 C 16.2432 -4.99806 1.89996 0
M  V30 206 C 17.5432 -3.71579 3.67051 0
M  V30 207 H 19.2372 -1.92541 2.29277 0
M  V30 208 H 16.7832 -0.924948 1.10366 0
M  V30 209 H 18.7362 -4.06215 1.12104 0
M  V30 210 H 17.4602 -3.26154 0.170631 0
M  V30 211 H 16.1192 -2.8797 2.26868 0
M  V30 212 H 15.7672 -4.94759 0.906796 0
M  V30 213 H 15.4672 -5.25139 2.63634 0
M  V30 214 H 16.9912 -5.80694 1.88749 0
M  V30 215 H 18.4052 -4.40227 3.67251 0
M  V30 216 H 16.8022 -4.08405 4.39688 0
M  V30 217 H 17.8722 -2.72404 4.01154 0
M  V30 218 N 19.2153 -1.21501 -1.00376 0
M  V30 219 C 20.6263 -1.03146 -1.55621 0
M  V30 220 C 20.9773 0.408375 -1.91903 0
M  V30 221 O 20.1023 1.29177 -1.73616 0
M  V30 222 C 20.6973 -1.86612 -2.82775 0
M  V30 223 C 19.2563 -1.72586 -3.34501 0
M  V30 224 C 18.4033 -1.83747 -2.07683 0
M  V30 225 H 21.3543 -1.35505 -0.826081 0
M  V30 226 H 21.3753 -1.3771 -3.54706 0
M  V30 227 H 20.8873 -2.91399 -2.56336 0
M  V30 228 H 18.9883 -0.704877 -3.65872 0
M  V30 229 H 19.1013 -2.54623 -4.05837 0
M  V30 230 H 17.4653 -1.27069 -2.20739 0
M  V30 231 H 18.2483 -2.90044 -1.83655 0
M  V30 232 N 20.6934 1.19889 -1.02296 0
M  V30 233 C 21.9394 1.89973 -0.726759 0
M  V30 234 C 22.2944 1.7776 0.73614 0
M  V30 235 O 21.5874 1.15523 1.52856 0
M  V30 236 C 21.7814 3.39883 -1.10518 0
M  V30 237 C 21.6104 3.66684 -2.60332 0
M  V30 238 C 20.3804 3.85045 -3.27213 0
M  V30 239 C 22.5784 3.68727 -3.58532 0
M  V30 240 N 20.5604 3.99422 -4.66192 0
M  V30 241 C 21.9314 3.88604 -4.83101 0
M  V30 242 C 23.9864 3.51722 -3.52414 0
M  V30 243 C 22.6894 3.9324 -6.02292 0
M  V30 244 C 24.7154 3.57632 -4.71013 0
M  V30 245 C 24.0774 3.77988 -5.94394 0
M  V30 246 H 20.1764 0.714551 -0.317712 0
M  V30 247 H 22.7604 1.44123 -1.30907 0
M  V30 248 H 20.9314 3.8447 -0.551142 0
M  V30 249 H 22.6634 3.97464 -0.761853 0
M  V30 250 H 19.4184 3.83689 -2.77632 0
M  V30 251 H 19.8424 4.10473 -5.38368 0
M  V30 252 H 24.4844 3.34945 -2.58015 0
M  V30 253 H 22.2024 4.08811 -6.97065 0
M  V30 254 H 25.7884 3.45773 -4.67902 0
M  V30 255 H 24.6684 3.82428 -6.8463 0
M  V30 256 N 22.1715 0.800033 1.35784 0
M  V30 257 C 23.3995 0.389606 2.03199 0
M  V30 258 C 23.8145 -0.997375 1.60306 0
M  V30 259 O 23.1715 -1.64154 0.797481 0
M  V30 260 C 23.2225 0.455855 3.58614 0
M  V30 261 O 22.9435 1.78815 3.99946 0
M  V30 262 C 24.4445 0.0374032 4.43284 0
M  V30 263 H 21.6645 0.159132 0.651857 0
M  V30 264 H 24.2085 1.08183 1.73541 0
M  V30 265 H 22.3635 -0.188057 3.86943 0
M  V30 266 H 22.7775 1.74636 4.94573 0
M  V30 267 H 24.2515 0.134882 5.51835 0
M  V30 268 H 24.7285 -1.01651 4.27275 0
M  V30 269 H 25.3345 0.654215 4.20238 0
M  V30 270 N 23.6496 -1.47581 0.552962 0
M  V30 271 C 24.6126 -2.28439 -0.186605 0
M  V30 272 C 25.6126 -1.36706 -0.84665 0
M  V30 273 O 26.8026 -1.59378 -0.703164 0
M  V30 274 C 23.9346 -3.16264 -1.2724 0
M  V30 275 H 25.1276 -2.95294 0.523609 0
M  V30 276 H 22.6806 -1.532 0.309745 0
M  V30 277 H 23.4156 -2.54091 -2.01514 0
M  V30 278 H 23.2006 -3.83769 -0.803968 0
M  V30 279 H 24.6906 -3.77198 -1.79196 0
M  V30 280 N 25.1277 -0.289203 -1.54924 0
M  V30 281 C 26.0597 0.625583 -2.20497 0
M  V30 282 C 27.0727 1.10667 -1.19402 0
M  V30 283 O 28.2617 1.02615 -1.46056 0
M  V30 284 C 25.3617 1.86702 -2.82835 0
M  V30 285 C 24.5347 1.5304 -4.09753 0
M  V30 286 C 23.5937 2.62576 -4.56005 0
M  V30 287 O 22.6197 2.28167 -5.21468 0
M  V30 288 N 23.8217 3.92901 -4.27328 0
M  V30 289 H 26.5867 0.0642801 -2.99631 0
M  V30 290 H 24.1477 -0.110896 -1.6152 0
M  V30 291 H 26.1397 2.59304 -3.10715 0
M  V30 292 H 24.7097 2.33702 -2.07611 0
M  V30 293 H 23.9297 0.637564 -3.8901 0
M  V30 294 H 25.2177 1.28072 -4.92418 0
M  V30 295 H 24.6157 4.23671 -3.74859 0
M  V30 296 H 23.1727 4.61837 -4.59946 0
M  V30 297 N 26.6058 1.57591 -0.0167156 0
M  V30 298 C 27.8538 1.90906 0.663285 0
M  V30 299 C 28.1748 0.892509 1.73376 0
M  V30 300 O 27.4448 -0.0677623 1.95783 0
M  V30 301 H 26.0248 0.704637 0.247983 0
M  V30 302 H 28.6868 1.94803 -0.0615909 0
M  V30 303 H 27.7828 2.9116 1.12393 0
M  V30 304 N 28.0839 -0.256276 1.55502 0
M  V30 305 C 29.4999 -0.604325 1.47716 0
M  V30 306 C 29.6999 -1.88763 0.705039 0
M  V30 307 O 28.7559 -2.51445 0.230613 0
M  V30 308 C 30.0689 -0.715756 2.92057 0
M  V30 309 C 31.6169 -0.808706 3.02372 0
M  V30 310 C 32.0919 -0.951777 4.48001 0
M  V30 311 N 33.5829 -1.01688 4.519 0
M  V30 312 C 34.3179 -1.14668 5.61817 0
M  V30 313 N 33.8139 -1.24261 6.81565 0
M  V30 314 N 35.6069 -1.1791 5.49594 0
M  V30 315 H 27.7579 0.586291 2.04148 0
M  V30 316 H 30.0209 0.201015 0.926443 0
M  V30 317 H 29.7269 0.157027 3.51349 0
M  V30 318 H 29.6009 -1.59071 3.42018 0
M  V30 319 H 31.9879 -1.67195 2.43166 0
M  V30 320 H 32.0689 0.0912063 2.55637 0
M  V30 321 H 31.7129 -0.0931291 5.07815 0
M  V30 322 H 31.6429 -1.86659 4.92408 0
M  V30 323 H 34.1339 -0.954468 3.65648 0
M  V30 324 H 34.4469 -1.34046 7.61086 0
M  V30 325 H 32.7919 -1.21236 6.84344 0
M  V30 326 H 35.9829 -1.10057 4.54978 0
M  V30 327 H 36.1559 -1.27681 6.35296 0
M  V30 328 N 29.562 -1.4872 -0.521534 0
M  V30 329 C 30.525 -1.63379 -1.60748 0
M  V30 330 C 31.525 -0.50661 -1.52611 0
M  V30 331 O 32.715 -0.772601 -1.5613 0
M  V30 332 C 29.847 -1.61192 -3.00383 0
M  V30 333 H 31.04 -2.60217 -1.49087 0
M  V30 334 H 28.593 -1.37444 -0.744235 0
M  V30 335 H 29.328 -0.65863 -3.17541 0
M  V30 336 H 29.113 -2.43032 -3.07698 0
M  V30 337 H 30.603 -1.7466 -3.7932 0
M  V30 338 N 31.0401 0.771051 -1.3745 0
M  V30 339 C 32.2861 1.5319 -1.32894 0
M  V30 340 C 32.6191 1.94008 0.0862511 0
M  V30 341 O 31.8941 1.64124 1.04373 0
M  V30 342 C 32.1771 2.79648 -2.26868 0
M  V30 343 C 32.0301 2.45079 -3.77169 0
M  V30 344 C 33.3491 3.81583 -2.19277 0
M  V30 345 H 30.4681 0.555744 -0.484064 0
M  V30 346 H 33.1101 0.884492 -1.68157 0
M  V30 347 H 31.2601 3.34891 -1.96926 0
M  V30 348 H 32.9321 1.95745 -4.1771 0
M  V30 349 H 31.1751 1.77767 -3.95704 0
M  V30 350 H 31.8461 3.35478 -4.38359 0
M  V30 351 H 34.3221 3.35835 -2.45671 0
M  V30 352 H 33.1981 4.67787 -2.87171 0
M  V30 353 H 33.4591 4.25897 -1.18592 0
M  V30 354 N 32.5182 1.22032 0.997298 0
M  V30 355 C 33.9292 1.0397 1.55071 0
M  V30 356 C 34.2802 -0.398192 1.92117 0
M  V30 357 O 33.4052 -1.28254 1.74298 0
M  V30 358 C 34.0002 1.88109 2.81781 0
M  V30 359 C 32.5592 1.74357 3.33581 0
M  V30 360 C 31.7062 1.84846 2.06706 0
M  V30 361 H 34.6572 1.35941 0.818883 0
M  V30 362 H 34.6782 1.39589 3.53971 0
M  V30 363 H 34.1902 2.92754 2.54787 0
M  V30 364 H 32.2912 0.72427 3.65493 0
M  V30 365 H 32.4042 2.56772 4.04481 0
M  V30 366 H 30.7682 1.28238 2.20062 0
M  V30 367 H 31.5512 2.91014 1.82114 0
M  V30 368 N 33.9963 -1.19345 1.0293 0
M  V30 369 C 35.2443 -1.88665 0.724574 0
M  V30 370 C 35.5653 -1.80036 -0.749144 0
M  V30 371 O 34.8353 -1.2111 -1.53978 0
M  V30 372 H 33.4153 -0.698406 0.265025 0
M  V30 373 H 36.0773 -1.44885 1.30362 0
M  V30 374 H 35.1733 -2.94987 1.01926 0
M  V30 375 N 35.4744 -0.807222 -1.35358 0
M  V30 376 C 36.7224 -0.387122 -1.98358 0
M  V30 377 C 37.0434 1.04942 -1.64354 0
M  V30 378 O 36.3134 1.72615 -0.926339 0
M  V30 379 H 34.8934 -0.140154 -0.733734 0
M  V30 380 H 37.5554 -1.0332 -1.6526 0
M  V30 381 H 36.6514 -0.493352 -3.08176 0
M  V30 382 N 36.9525 1.47285 -0.560781 0
M  V30 383 C 38.1775 2.07359 -0.0410566 0
M  V30 384 C 38.6025 1.41017 1.24483 0
M  V30 385 O 37.9605 0.486368 1.74654 0
M  V30 386 C 38.0085 3.6035 0.134123 0
M  V30 387 O 37.1125 3.94681 1.19587 0
M  V30 388 H 36.4535 0.661887 -0.0529291 0
M  V30 389 H 38.9835 1.89252 -0.777482 0
M  V30 390 H 38.9935 4.0652 0.347207 0
M  V30 391 H 37.6685 4.08034 -0.805047 0
M  V30 392 H 36.2455 3.60251 0.962987 0
M  V30 393 N 38.4306 0.297415 1.54768 0
M  V30 394 C 39.6556 -0.318435 2.04941 0
M  V30 395 C 40.0806 -1.4701 1.17345 0
M  V30 396 O 39.4386 -1.80436 0.176758 0
M  V30 397 C 39.4866 -0.755749 3.52592 0
M  V30 398 O 38.5906 -1.86088 3.68028 0
M  V30 399 H 37.9316 -0.062421 0.661059 0
M  V30 400 H 40.4616 0.438215 1.99852 0
M  V30 401 H 40.4716 -1.04552 3.94376 0
M  V30 402 H 39.1466 0.0867233 4.1581 0
M  V30 403 H 37.7236 -1.57193 3.38149 0
M  V30 404 N 39.9087 -1.5758 0.0250728 0
M  V30 405 C 41.3197 -1.79476 -0.514323 0
M  V30 406 C 41.6707 -0.934956 -1.72491 0
M  V30 407 O 40.7957 -0.144245 -2.15919 0
M  V30 408 C 41.3907 -3.25503 -0.939842 0
M  V30 409 C 39.9497 -3.48408 -1.42438 0
M  V30 410 C 39.0967 -2.74583 -0.387201 0
M  V30 411 H 42.0477 -1.567 0.25113 0
M  V30 412 H 42.0687 -3.34992 -1.80445 0
M  V30 413 H 41.5807 -3.88056 -0.0585628 0
M  V30 414 H 39.6817 -2.91103 -2.32572 0
M  V30 415 H 39.7947 -4.57119 -1.43455 0
M  V30 416 H 38.1587 -2.39942 -0.854409 0
M  V30 417 H 38.9417 -3.39849 0.485543 0
M  V30 418 N 41.3868 0.248026 -1.55636 0
M  V30 419 C 42.3498 1.29044 -1.89421 0
M  V30 420 C 43.3498 1.41134 -0.770581 0
M  V30 421 O 44.5398 1.39854 -1.03858 0
M  V30 422 C 41.6718 2.66831 -2.12165 0
M  V30 423 H 42.8648 1.00305 -2.82629 0
M  V30 424 H 40.4178 0.487265 -1.48511 0
M  V30 425 H 41.1528 3.00711 -1.21422 0
M  V30 426 H 40.9378 2.59438 -2.93997 0
M  V30 427 H 42.4278 3.42103 -2.3949 0
M  V30 428 N 42.8649 1.48995 0.513639 0
M  V30 429 C 44.1109 1.59053 1.26783 0
M  V30 430 C 44.4659 0.268136 1.90522 0
M  V30 431 O 43.7589 -0.730534 1.77126 0
M  V30 432 C 43.9529 2.67756 2.36731 0
M  V30 433 C 43.7819 4.10437 1.83771 0
M  V30 434 C 42.5519 4.7738 1.65639 0
M  V30 435 C 44.7499 4.9608 1.35681 0
M  V30 436 N 42.7319 6.04419 1.07476 0
M  V30 437 C 44.1029 6.13496 0.895715 0
M  V30 438 C 46.1579 4.82177 1.24136 0
M  V30 439 C 44.8609 7.1854 0.3306 0
M  V30 440 C 46.8869 5.87358 0.690229 0
M  V30 441 C 46.2489 7.03993 0.239292 0
M  V30 442 H 42.3479 0.636463 0.454355 0
M  V30 443 H 44.9319 1.85948 0.577196 0
M  V30 444 H 43.1029 2.42655 3.03271 0
M  V30 445 H 44.8349 2.67406 3.0377 0
M  V30 446 H 41.5899 4.33974 1.8964 0
M  V30 447 H 42.0139 6.72214 0.803579 0
M  V30 448 H 46.6559 3.92329 1.57601 0
M  V30 449 H 44.3739 8.08098 -0.0163435 0
M  V30 450 H 47.9599 5.78658 0.603852 0
M  V30 451 H 46.8399 7.83992 -0.180526 0
M  V30 452 N 44.343 -0.763751 1.37857 0
M  V30 453 C 45.571 -1.55293 1.36718 0
M  V30 454 C 45.986 -1.88745 -0.0455434 0
M  V30 455 O 45.343 -1.52039 -1.00947 0
M  V30 456 C 45.394 -2.85831 2.2132 0
M  V30 457 O 45.115 -2.5381 3.57089 0
M  V30 458 C 46.616 -3.80023 2.28249 0
M  V30 459 H 43.836 -0.480841 0.468009 0
M  V30 460 H 46.38 -0.946009 1.81303 0
M  V30 461 H 44.535 -3.42926 1.80223 0
M  V30 462 H 44.949 -3.37459 4.01524 0
M  V30 463 H 46.423 -4.68599 2.91752 0
M  V30 464 H 46.9 -4.1973 1.2932 0
M  V30 465 H 47.506 -3.28855 2.69693 0
M  V30 466 N 45.8211 -1.22559 -0.990812 0
M  V30 467 C 46.7531 -0.955325 -2.08342 0
M  V30 468 C 47.7661 0.0668408 -1.62663 0
M  V30 469 O 48.9551 -0.167421 -1.77713 0
M  V30 470 C 46.0551 -0.415566 -3.36342 0
M  V30 471 C 45.2281 -1.49544 -4.11042 0
M  V30 472 C 44.2871 -0.962399 -5.17324 0
M  V30 473 O 43.3131 -1.64907 -5.44788 0
M  V30 474 N 44.5151 0.215134 -5.80101 0
M  V30 475 H 47.2801 -1.89596 -2.32106 0
M  V30 476 H 44.8411 -1.13276 -1.15673 0
M  V30 477 H 46.8331 -0.0442386 -4.04676 0
M  V30 478 H 45.4031 0.430232 -3.09625 0
M  V30 479 H 44.6231 -2.04 -3.37309 0
M  V30 480 H 45.9111 -2.22195 -4.57719 0
M  V30 481 H 45.3091 0.789779 -5.6016 0
M  V30 482 H 43.8661 0.527826 -6.49659 0
M  V30 483 N 47.2992 1.18797 -1.03562 0
M  V30 484 C 48.5392 1.90346 -0.744832 0
M  V30 485 C 48.9032 1.78231 0.713972 0
M  V30 486 O 50.1042 2.44441 1.11813 0
M  V30 487 C 48.3752 3.36942 -1.19184 0
M  V30 488 S 49.9342 4.26638 -1.02593 0
M  V30 489 H 46.7522 0.657343 -0.270963 0
M  V30 490 H 49.3542 1.43579 -1.32685 0
M  V30 491 H 48.0582 3.43287 -2.24905 0
M  V30 492 H 47.5892 3.88745 -0.603397 0
M  V30 493 H 49.6042 4.96164 0.0596033 0
M  V30 494 N 48.7773 0.814389 1.34928 0
M  V30 495 C 49.7093 0.187834 2.28429 0
M  V30 496 C 50.7223 -0.617374 1.5064 0
M  V30 497 O 51.9113 -0.448454 1.72775 0
M  V30 498 C 49.0113 -0.755962 3.30361 0
M  V30 499 C 48.1843 0.00456686 4.374 0
M  V30 500 C 47.2433 -0.858876 5.19143 0
M  V30 501 O 46.2693 -0.306968 5.68372 0
M  V30 502 N 47.4713 -2.17988 5.38016 0
M  V30 503 H 50.2363 0.991105 2.82838 0
M  V30 504 H 47.7973 0.670561 1.4736 0
M  V30 505 H 49.7893 -1.338 3.81942 0
M  V30 506 H 48.3593 -1.46001 2.7641 0
M  V30 507 H 47.5793 0.767865 3.86649 0
M  V30 508 H 48.8673 0.528422 5.06049 0
M  V30 509 H 48.2653 -2.65212 4.99679 0
M  V30 510 H 46.8223 -2.71098 5.92747 0
M  V30 511 N 50.2554 -1.46986 0.568584 0
M  V30 512 C 51.1874 -2.28233 -0.210337 0
M  V30 513 C 52.2004 -1.37682 -0.868767 0
M  V30 514 O 53.3894 -1.62406 -0.740705 0
M  V30 515 C 50.4894 -3.12293 -1.3163 0
M  V30 516 C 49.6624 -4.30878 -0.7525 0
M  V30 517 C 48.7214 -4.96445 -1.74439 0
M  V30 518 O 47.7474 -5.54482 -1.286 0
M  V30 519 N 48.9494 -4.92171 -3.07812 0
M  V30 520 H 51.7144 -2.95723 0.486648 0
M  V30 521 H 49.2754 -1.56742 0.405409 0
M  V30 522 H 51.2674 -3.53022 -1.97883 0
M  V30 523 H 49.8374 -2.46971 -1.91636 0
M  V30 524 H 49.0574 -3.94104 0.0871128 0
M  V30 525 H 50.3454 -5.07558 -0.35536 0
M  V30 526 H 49.7434 -4.46239 -3.47688 0
M  V30 527 H 48.3004 -5.36884 -3.69592 0
M  V30 528 N 51.7335 -0.305618 -1.54608 0
M  V30 529 C 52.6635 0.561482 -2.26649 0
M  V30 530 C 53.6445 1.13415 -1.26772 0
M  V30 531 O 54.8295 1.16262 -1.55553 0
M  V30 532 C 51.9595 1.73122 -3.01075 0
M  V30 533 C 50.9135 1.2887 -4.08138 0
M  V30 534 C 50.2395 2.54396 -4.70305 0
M  V30 535 C 51.5395 0.416578 -5.20636 0
M  V30 536 H 53.2335 -0.0393902 -2.99374 0
M  V30 537 H 50.7795 -0.020385 -1.43986 0
M  V30 538 H 52.7325 2.34396 -3.50195 0
M  V30 539 H 51.4565 2.3584 -2.25936 0
M  V30 540 H 50.1155 0.698991 -3.59875 0
M  V30 541 H 49.7635 3.15439 -3.918 0
M  V30 542 H 49.4635 2.25486 -5.42614 0
M  V30 543 H 50.9875 3.16464 -5.2219 0
M  V30 544 H 52.4015 0.935116 -5.65622 0
M  V30 545 H 50.7985 0.221046 -5.99693 0
M  V30 546 H 51.8685 -0.557162 -4.81688 0
M  V30 547 N 53.2116 1.57565 -0.0334293 0
M  V30 548 C 54.4366 1.96689 0.657895 0
M  V30 549 C 54.8616 0.910057 1.64619 0
M  V30 550 O 54.2196 -0.128598 1.80843 0
M  V30 551 C 54.2676 3.34905 1.33683 0
M  V30 552 O 53.3716 3.31574 2.45219 0
M  V30 553 H 52.7126 0.641205 0.172489 0
M  V30 554 H 55.2426 2.04372 -0.0965621 0
M  V30 555 H 55.2526 3.71234 1.69262 0
M  V30 556 H 53.9276 4.11366 0.612411 0
M  V30 557 H 52.5046 3.06968 2.11719 0
M  V30 558 N 54.6897 -0.239769 1.55765 0
M  V30 559 C 55.6217 -1.32001 1.87372 0
M  V30 560 C 56.6347 -1.43944 0.760522 0
M  V30 561 O 57.8237 -1.45167 1.0387 0
M  V30 562 C 54.9237 -2.69779 2.05115 0
M  V30 563 C 54.0967 -2.80014 3.36022 0
M  V30 564 C 53.1557 -3.98684 3.4342 0
M  V30 565 O 52.1817 -3.87877 4.16582 0
M  V30 566 N 53.3837 -5.12176 2.73232 0
M  V30 567 H 56.1487 -1.0522 2.80622 0
M  V30 568 H 53.7097 -0.429857 1.56089 0
M  V30 569 H 55.7017 -3.47517 2.07399 0
M  V30 570 H 54.2717 -2.89237 1.18577 0
M  V30 571 H 53.4917 -1.88896 3.45994 0
M  V30 572 H 54.7797 -2.83808 4.22292 0
M  V30 573 H 54.1777 -5.2385 2.13536 0
M  V30 574 H 52.7347 -5.88022 2.81199 0
M  V30 575 N 56.1678 -1.49265 -0.50573 0
M  V30 576 C 57.1148 -1.65585 -1.6078 0
M  V30 577 C 58.0848 -0.497396 -1.58478 0
M  V30 578 O 59.2698 -0.72385 -1.76536 0
M  V30 579 C 56.4098 -1.72408 -2.98948 0
M  V30 580 C 55.5228 -2.99525 -3.11301 0
M  V30 581 C 54.6578 -2.97356 -4.40174 0
M  V30 582 C 53.6968 -4.19074 -4.46143 0
M  V30 583 N 52.8338 -4.14841 -5.66437 0
M  V30 584 H 57.6738 -2.59688 -1.46172 0
M  V30 585 H 55.2108 -1.28761 -0.711261 0
M  V30 586 H 57.1688 -1.74344 -3.79025 0
M  V30 587 H 55.7988 -0.817753 -3.1227 0
M  V30 588 H 54.8508 -3.07222 -2.24318 0
M  V30 589 H 56.1628 -3.89518 -3.11572 0
M  V30 590 H 55.3168 -2.97829 -5.28567 0
M  V30 591 H 54.0558 -2.05133 -4.42461 0
M  V30 592 H 53.0608 -4.1885 -3.56153 0
M  V30 593 H 54.2858 -5.12483 -4.45575 0
M  V30 594 H 52.2318 -3.25453 -5.69575 0
M  V30 595 H 52.1488 -4.98564 -5.68304 0
M  V30 596 H 53.4168 -4.1941 -6.57051 0
M  V30 597 N 57.6459 0.756429 -1.3826 0
M  V30 598 C 58.5759 1.88374 -1.37976 0
M  V30 599 C 59.5569 1.68311 -0.246082 0
M  V30 600 O 60.7419 1.88944 -0.44874 0
M  V30 601 C 57.8719 3.25864 -1.20125 0
M  V30 602 C 56.8259 3.60523 -2.30666 0
M  V30 603 C 56.1519 4.9672 -1.97923 0
M  V30 604 C 57.4519 3.65692 -3.72916 0
M  V30 605 H 59.1459 1.88869 -2.32312 0
M  V30 606 H 56.6919 0.907272 -1.11824 0
M  V30 607 H 58.6449 4.0438 -1.18552 0
M  V30 608 H 57.3689 3.25841 -0.222498 0
M  V30 609 H 56.0279 2.84324 -2.3142 0
M  V30 610 H 55.6759 4.93253 -0.985393 0
M  V30 611 H 55.3759 5.20878 -2.71955 0
M  V30 612 H 56.8999 5.77618 -1.97964 0
M  V30 613 H 58.3139 4.34328 -3.74208 0
M  V30 614 H 56.7109 4.01358 -4.4613 0
M  V30 615 H 57.7809 2.65987 -4.05436 0
M  V30 616 N 59.124 1.23083 0.984299 0
M  V30 617 C 60.364 1.07226 1.74017 0
M  V30 618 C 60.728 -0.384766 1.88105 0
M  V30 619 O 61.929 -0.664411 2.60459 0
M  V30 620 C 60.2 1.77348 3.10294 0
M  V30 621 S 61.759 1.77014 4.01512 0
M  V30 622 H 58.577 0.383819 0.598502 0
M  V30 623 H 61.179 1.56158 1.17622 0
M  V30 624 H 59.883 2.82506 2.97689 0
M  V30 625 H 59.414 1.28682 3.71759 0
M  V30 626 H 61.429 0.825956 4.89277 0
M  V30 627 N 60.6021 -1.18246 1.0419 0
M  V30 628 C 61.8301 -1.92195 0.766072 0
M  V30 629 C 62.2451 -1.76247 -0.676933 0
M  V30 630 O 61.6021 -1.09293 -1.46155 0
M  V30 631 C 61.6531 -3.43568 1.12442 0
M  V30 632 O 61.3741 -3.59015 2.51078 0
M  V30 633 C 62.8751 -4.34613 0.873275 0
M  V30 634 H 60.0951 -0.610114 0.279288 0
M  V30 635 H 62.6391 -1.50007 1.38989 0
M  V30 636 H 60.7941 -3.8354 0.545542 0
M  V30 637 H 61.2081 -4.5273 2.64831 0
M  V30 638 H 62.6821 -5.39374 1.17385 0
M  V30 639 H 63.1591 -4.38781 -0.191909 0
M  V30 640 H 63.7651 -4.00341 1.43551 0
M  V30 641 N 62.0802 -0.821533 -1.34494 0
M  V30 642 C 63.0102 -0.257138 -2.3208 0
M  V30 643 C 63.9912 0.625645 -1.58176 0
M  V30 644 O 65.1762 0.552811 -1.86166 0
M  V30 645 C 62.3062 0.582958 -3.42372 0
M  V30 646 C 61.2602 -0.202571 -4.2752 0
M  V30 647 C 60.5862 0.760179 -5.29269 0
M  V30 648 C 61.8862 -1.40998 -5.02908 0
M  V30 649 H 63.5802 -1.07247 -2.79532 0
M  V30 650 H 61.1262 -0.517163 -1.34393 0
M  V30 651 H 63.0792 0.987972 -4.09655 0
M  V30 652 H 61.8032 1.43133 -2.93565 0
M  V30 653 H 60.4622 -0.588936 -3.61838 0
M  V30 654 H 60.1102 1.60447 -4.76724 0
M  V30 655 H 59.8102 0.238809 -5.87115 0
M  V30 656 H 61.3342 1.16308 -5.9942 0
M  V30 657 H 62.7482 -1.07905 -5.63054 0
M  V30 658 H 61.1452 -1.86689 -5.70322 0
M  V30 659 H 62.2152 -2.1889 -4.32684 0
M  V30 660 N 63.5583 1.46682 -0.576371 0
M  V30 661 C 64.5213 2.28707 0.150239 0
M  V30 662 C 65.5213 1.38035 0.824794 0
M  V30 663 O 66.7113 1.60476 0.677719 0
M  V30 664 C 63.8433 3.18248 1.22192 0
M  V30 665 H 65.0363 2.94423 -0.570521 0
M  V30 666 H 62.5893 1.52688 -0.334078 0
M  V30 667 H 63.3243 2.57265 1.97447 0
M  V30 668 H 63.1093 3.85 0.742812 0
M  V30 669 H 64.5993 3.80001 1.73172 0
M  V30 670 N 65.0364 0.313813 1.54444 0
M  V30 671 C 66.2824 -0.284918 2.01395 0
M  V30 672 C 66.6374 -1.50537 1.19818 0
M  V30 673 O 65.9304 -1.89692 0.269748 0
M  V30 674 C 66.1244 -0.680386 3.50864 0
M  V30 675 C 65.9534 0.500198 4.4691 0
M  V30 676 C 64.7234 0.996248 4.95382 0
M  V30 677 C 66.9214 1.34928 4.96285 0
M  V30 678 N 64.9034 2.14226 5.75309 0
M  V30 679 C 66.2744 2.3426 5.7404 0
M  V30 680 C 68.3294 1.37818 4.78446 0
M  V30 681 C 67.0324 3.36272 6.35856 0
M  V30 682 C 69.0584 2.38695 5.4109 0
M  V30 683 C 68.4204 3.36755 6.18688 0
M  V30 684 H 64.5194 -0.0683689 0.779006 0
M  V30 685 H 67.1034 0.44664 1.89508 0
M  V30 686 H 65.2744 -1.38109 3.63016 0
M  V30 687 H 67.0064 -1.25975 3.84594 0
M  V30 688 H 63.7614 0.56912 4.70168 0
M  V30 689 H 64.1854 2.72005 6.19953 0
M  V30 690 H 68.8274 0.633747 4.18023 0
M  V30 691 H 66.5454 4.11627 6.95405 0
M  V30 692 H 70.1314 2.41721 5.29209 0
M  V30 693 H 69.0114 4.13535 6.66302 0
M  V30 694 N 66.5145 -1.57545 0.0417849 0
M  V30 695 C 67.7395 -1.97035 -0.647455 0
M  V30 696 C 68.1645 -0.918775 -1.64135 0
M  V30 697 O 67.5225 0.119006 -1.80909 0
M  V30 698 C 67.5705 -3.35609 -1.31905 0
M  V30 699 O 66.6745 -3.3287 -2.43457 0
M  V30 700 H 66.0155 -0.64211 -0.169086 0
M  V30 701 H 68.5455 -2.04318 0.107399 0
M  V30 702 H 68.5555 -3.72126 -1.67291 0
M  V30 703 H 67.2305 -4.11685 -0.590586 0
M  V30 704 H 65.8075 -3.08087 -2.10088 0
M  V30 705 N 67.9926 0.231505 -1.5589 0
M  V30 706 C 68.9556 1.27028 -1.90779 0
M  V30 707 C 69.9556 1.40308 -0.785507 0
M  V30 708 O 71.1456 1.38744 -1.05336 0
M  V30 709 C 68.2776 2.64566 -2.14983 0
M  V30 710 H 69.4706 0.973017 -2.83677 0
M  V30 711 H 67.0236 0.471486 -1.49019 0
M  V30 712 H 67.7586 2.99406 -1.24604 0
M  V30 713 H 67.5436 2.56305 -2.96732 0
M  V30 714 H 69.0336 3.39543 -2.43105 0
M  V30 715 N 69.4707 1.49531 0.497807 0
M  V30 716 C 70.4207 1.62829 1.59596 0
M  V30 717 C 71.4047 0.483824 1.53453 0
M  V30 718 O 72.5967 0.736937 1.60929 0
M  V30 719 C 69.7257 1.7011 2.98191 0
M  V30 720 C 68.8117 2.90144 3.09317 0
M  V30 721 N 69.2027 4.1418 2.90324 0
M  V30 722 C 67.5007 2.88148 3.40422 0
M  V30 723 C 68.2017 4.94886 3.05717 0
M  V30 724 N 67.1777 4.28314 3.34736 0
M  V30 725 H 70.9797 2.56446 1.4357 0
M  V30 726 H 68.4937 1.46347 0.704001 0
M  V30 727 H 70.4907 1.77735 3.77115 0
M  V30 728 H 69.1507 0.776315 3.15283 0
M  V30 729 H 70.1617 4.44109 2.66436 0
M  V30 730 H 66.8387 2.05061 3.63671 0
M  V30 731 H 68.2287 6.03432 2.95499 0
M  V30 732 N 70.9488 -0.749086 1.3866 0
M  V30 733 C 72.3598 -1.32664 1.31366 0
M  V30 734 C 72.7108 -1.96179 -0.028484 0
M  V30 735 O 71.8358 -1.9537 -0.93057 0
M  V30 736 C 72.4308 -2.41219 2.37905 0
M  V30 737 C 70.9898 -2.94684 2.34176 0
M  V30 738 C 70.1368 -1.68108 2.20533 0
M  V30 739 H 73.0878 -0.547628 1.48952 0
M  V30 740 H 73.1088 -3.21268 2.0388 0
M  V30 741 H 72.6208 -1.94962 3.35576 0
M  V30 742 H 70.7218 -3.45258 1.401 0
M  V30 743 H 70.8348 -3.48757 3.2849 0
M  V30 744 H 69.1988 -1.91907 1.67463 0
M  V30 745 H 69.9818 -1.23923 3.20153 0
M  V30 746 N 72.4269 -1.23603 -0.977757 0
M  V30 747 C 73.3569 -1.04401 -2.0886 0
M  V30 748 C 74.3379 0.0399052 -1.70053 0
M  V30 749 O 75.5229 -0.125246 -1.93796 0
M  V30 750 C 72.6529 -0.637269 -3.41403 0
M  V30 751 C 71.6069 -1.66883 -3.94124 0
M  V30 752 C 70.9329 -1.11745 -5.22893 0
M  V30 753 C 72.2329 -3.06247 -4.23096 0
M  V30 754 H 73.9269 -1.97316 -2.25182 0
M  V30 755 H 71.4729 -0.950096 -1.08209 0
M  V30 756 H 73.4259 -0.48998 -4.18542 0
M  V30 757 H 72.1499 0.327557 -3.24953 0
M  V30 758 H 70.8089 -1.80416 -3.19133 0
M  V30 759 H 70.4569 -0.143527 -5.02795 0
M  V30 760 H 70.1569 -1.80672 -5.59134 0
M  V30 761 H 71.6809 -0.982067 -6.02651 0
M  V30 762 H 73.0949 -2.96001 -4.90975 0
M  V30 763 H 71.4919 -3.72436 -4.70544 0
M  V30 764 H 72.5619 -3.55041 -3.30263 0
M  V30 765 N 73.905 1.17692 -1.04816 0
M  V30 766 C 75.151 1.88137 -0.75711 0
M  V30 767 C 75.484 1.80604 0.713841 0
M  V30 768 O 74.759 1.21146 1.52164 0
M  V30 769 C 75.042 3.38318 -1.2334 0
M  V30 770 C 74.895 3.54622 -2.76701 0
M  V30 771 C 76.214 4.32214 -0.829415 0
M  V30 772 H 73.333 0.683163 -0.27651 0
M  V30 773 H 75.975 1.38424 -1.30149 0
M  V30 774 H 74.125 3.80787 -0.770286 0
M  V30 775 H 75.797 3.21194 -3.31107 0
M  V30 776 H 74.04 2.97026 -3.16161 0
M  V30 777 H 74.711 4.60028 -3.05088 0
M  V30 778 H 77.187 3.97565 -1.22805 0
M  V30 779 H 76.063 5.35838 -1.19033 0
M  V30 780 H 76.324 4.41294 0.266891 0
M  V30 781 N 75.3831 0.828654 1.34056 0
M  V30 782 C 76.6311 0.41863 1.97717 0
M  V30 783 C 76.9521 -1.02314 1.66002 0
M  V30 784 O 76.2221 -1.71119 0.953683 0
M  V30 785 H 74.8021 0.151809 0.731412 0
M  V30 786 H 77.4641 1.05936 1.63596 0
M  V30 787 H 76.5601 0.542318 3.07352 0
M  V30 788 N 76.8612 -1.46375 0.584142 0
M  V30 789 C 77.8112 -2.27371 -0.169232 0
M  V30 790 C 78.7952 -1.35955 -0.860523 0
M  V30 791 O 79.9872 -1.60119 -0.754382 0
M  V30 792 C 77.1162 -3.22334 -1.18134 0
M  V30 793 C 76.2022 -4.21235 -0.492088 0
M  V30 794 N 76.5932 -5.03766 0.453129 0
M  V30 795 C 74.8912 -4.39773 -0.742652 0
M  V30 796 C 75.5922 -5.75366 0.85609 0
M  V30 797 N 74.5682 -5.43214 0.204926 0
M  V30 798 H 78.3702 -2.88572 0.557097 0
M  V30 799 H 75.8842 -1.57242 0.406042 0
M  V30 800 H 77.8812 -3.79071 -1.73525 0
M  V30 801 H 76.5412 -2.62693 -1.90847 0
M  V30 802 H 77.5522 -5.11227 0.828723 0
M  V30 803 H 74.2292 -3.91279 -1.45625 0
M  V30 804 H 75.6192 -6.5172 1.63434 0
M  V30 805 N 78.3393 -0.321999 -1.54275 0
M  V30 806 C 79.2723 0.58718 -2.20516 0
M  V30 807 C 80.2503 1.11693 -1.18167 0
M  V30 808 O 81.4343 1.18122 -1.46899 0
M  V30 809 C 78.5613 1.80554 -2.86562 0
M  V30 810 C 77.6073 1.40718 -4.02617 0
M  V30 811 S 78.4403 0.445218 -5.33646 0
M  V30 812 C 79.5963 1.6709 -6.03185 0
M  V30 813 H 79.8293 0.0244875 -2.9729 0
M  V30 814 H 77.3623 -0.106087 -1.54035 0
M  V30 815 H 79.3203 2.50462 -3.25237 0
M  V30 816 H 77.9813 2.33942 -2.09595 0
M  V30 817 H 77.1743 2.31501 -4.47687 0
M  V30 818 H 76.7763 0.78782 -3.65608 0
M  V30 819 H 79.0683 2.60856 -6.25268 0
M  V30 820 H 80.0113 1.26239 -6.96756 0
M  V30 821 H 80.4193 1.85716 -5.33076 0
M  V30 822 N 79.8174 1.5752 -0.0501392 0
M  V30 823 C 81.0944 1.83996 0.663685 0
M  V30 824 C 81.4744 0.938339 1.89099 0
M  V30 825 O 80.8224 -0.00087759 2.285 0
M  V30 826 C 81.0324 3.33702 1.02196 0
M  V30 827 C 82.3804 4.00691 1.40469 0
M  V30 828 O 83.4044 3.38321 1.11433 0
M  V30 829 O 82.2634 5.10658 1.94654 0
M  V30 830 H 79.3574 0.759385 0.32751 0
M  V30 831 H 81.9034 1.69514 -0.0794238 0
M  V30 832 H 80.6754 3.91015 0.149364 0
M  V30 833 H 80.2984 3.53368 1.82255 0
M  V30 834 N 81.2955 -0.223234 1.56011 0
M  V30 835 C 82.2255 -1.27988 1.95298 0
M  V30 836 C 83.2065 -1.48976 0.820979 0
M  V30 837 O 84.3915 -1.61188 1.08315 0
M  V30 838 C 81.5215 -2.63 2.26822 0
M  V30 839 C 80.4755 -2.56671 3.42497 0
M  V30 840 C 79.8015 -3.95697 3.59622 0
M  V30 841 C 81.1015 -2.11601 4.77517 0
M  V30 842 H 82.7955 -0.953525 2.8381 0
M  V30 843 H 80.3415 -0.457244 1.36548 0
M  V30 844 H 82.2945 -3.37077 2.52898 0
M  V30 845 H 81.0185 -2.9732 1.35161 0
M  V30 846 H 79.6775 -1.85051 3.16467 0
M  V30 847 H 79.3255 -4.27322 2.6534 0
M  V30 848 H 79.0255 -3.92345 4.37424 0
M  V30 849 H 80.5495 -4.71438 3.88044 0
M  V30 850 H 81.9635 -2.7542 5.02809 0
M  V30 851 H 80.3605 -2.19311 5.5859 0
M  V30 852 H 81.4305 -1.06824 4.72987 0
M  V30 853 N 82.7736 -1.49793 -0.48987 0
M  V30 854 C 84.1896 -1.36803 -0.822022 0
M  V30 855 C 84.3896 -0.409652 -1.97292 0
M  V30 856 O 83.4456 0.154614 -2.52026 0
M  V30 857 C 84.7586 -2.77768 -1.15175 0
M  V30 858 C 86.3066 -2.86549 -1.25931 0
M  V30 859 C 86.7816 -4.28306 -1.62228 0
M  V30 860 N 88.2726 -4.31169 -1.69256 0
M  V30 861 C 89.0076 -5.37832 -1.98807 0
M  V30 862 N 88.5036 -6.54726 -2.26507 0
M  V30 863 N 90.2966 -5.25258 -2.00152 0
M  V30 864 H 82.4476 -2.10691 0.268881 0
M  V30 865 H 84.7106 -0.946241 0.057728 0
M  V30 866 H 84.4166 -3.49648 -0.379335 0
M  V30 867 H 84.2906 -3.13836 -2.09253 0
M  V30 868 H 86.6776 -2.14899 -2.02243 0
M  V30 869 H 86.7586 -2.54049 -0.298776 0
M  V30 870 H 86.4026 -5.00486 -0.864622 0
M  V30 871 H 86.3326 -4.58279 -2.594 0
M  V30 872 H 88.8236 -3.4687 -1.49965 0
M  V30 873 H 89.1366 -7.31833 -2.48276 0
M  V30 874 H 87.4816 -6.57933 -2.23939 0
M  V30 875 H 90.6726 -4.32938 -1.77996 0
M  V30 876 H 90.8456 -6.08476 -2.22848 0
M  V30 877 N 84.2517 0.741722 -1.39055 0
M  V30 878 C 85.1617 1.88621 -1.39496 0
M  V30 879 C 86.1777 1.71557 -0.290578 0
M  V30 880 O 87.3537 1.94275 -0.530954 0
M  V30 881 C 84.4187 3.24134 -1.23037 0
M  V30 882 C 83.4797 3.5364 -2.43387 0
M  V30 883 C 82.7127 4.82687 -2.27703 0
M  V30 884 O 82.9357 5.55922 -1.27696 0
M  V30 885 O 81.8697 5.1194 -3.16545 0
M  V30 886 H 85.6957 1.91203 -2.35956 0
M  V30 887 H 83.2807 0.888625 -1.20099 0
M  V30 888 H 85.1627 4.0513 -1.15964 0
M  V30 889 H 83.8377 3.22337 -0.296691 0
M  V30 890 H 82.7447 2.72758 -2.56035 0
M  V30 891 H 84.0777 3.60209 -3.35425 0
M  V30 892 N 85.7298 1.2412 0.971189 0
M  V30 893 C 86.6398 1.04747 2.09917 0
M  V30 894 C 87.6558 -0.0107162 1.73997 0
M  V30 895 O 88.8318 0.186714 2.00533 0
M  V30 896 C 85.8968 0.650828 3.40537 0
M  V30 897 C 84.9578 1.7851 3.90426 0
M  V30 898 C 84.1908 1.40729 5.14812 0
M  V30 899 O 84.4138 0.29557 5.69634 0
M  V30 900 O 83.3478 2.23168 5.58999 0
M  V30 901 H 87.1738 1.99304 2.29154 0
M  V30 902 H 84.7588 1.02908 1.08307 0
M  V30 903 H 86.6408 0.440992 4.19086 0
M  V30 904 H 85.3158 -0.265649 3.22608 0
M  V30 905 H 84.2228 2.04966 3.12953 0
M  V30 906 H 85.5558 2.68023 4.12825 0
M  V30 907 N 87.2079 -1.17134 1.05439 0
M  V30 908 C 88.4559 -1.87085 0.764429 0
M  V30 909 C 88.7769 -1.81584 -0.710787 0
M  V30 910 O 88.0469 -1.24349 -1.51374 0
M  V30 911 H 86.6269 -0.692627 0.279779 0
M  V30 912 H 89.2889 -1.42087 1.33406 0
M  V30 913 H 88.3849 -2.92759 1.0816 0
M  V30 914 N 88.686 -0.835752 -1.33615 0
M  V30 915 C 89.963 -0.352017 -1.92406 0
M  V30 916 C 90.343 1.16225 -1.76224 0
M  V30 917 O 89.691 1.97526 -1.14873 0
M  V30 918 C 89.901 -0.795485 -3.39813 0
M  V30 919 C 91.249 -0.801703 -4.16963 0
M  V30 920 O 92.273 -0.738889 -3.48452 0
M  V30 921 O 91.132 -0.886607 -5.3926 0
M  V30 922 H 88.226 -0.0989641 -0.821057 0
M  V30 923 H 90.772 -0.921397 -1.42507 0
M  V30 924 H 89.544 -1.83795 -3.45449 0
M  V30 925 H 89.167 -0.202505 -3.97084 0
M  V30 926 N 90.1641 1.46063 -0.591896 0
M  V30 927 C 91.0741 2.34192 0.13831 0
M  V30 928 C 92.0901 1.50305 0.876608 0
M  V30 929 O 93.2661 1.8315 0.837728 0
M  V30 930 C 90.3311 3.27656 1.13326 0
M  V30 931 C 89.3921 4.27445 0.39863 0
M  V30 932 C 88.6251 5.16443 1.34618 0
M  V30 933 O 88.8481 5.08553 2.58321 0
M  V30 934 O 87.7821 5.95843 0.851768 0
M  V30 935 H 91.6081 2.98002 -0.58552 0
M  V30 936 H 89.1931 1.45188 -0.352239 0
M  V30 937 H 91.0751 3.85291 1.70671 0
M  V30 938 H 89.7501 2.6643 1.83839 0
M  V30 939 H 88.6571 3.73471 -0.216895 0
M  V30 940 H 89.9901 4.91482 -0.265709 0
M  V30 941 N 91.6422 0.330177 1.54103 0
M  V30 942 C 92.5522 -0.541534 2.28264 0
M  V30 943 C 93.5682 -1.12351 1.32866 0
M  V30 944 O 94.7442 -1.14206 1.65888 0
M  V30 945 C 91.8092 -1.68322 3.03098 0
M  V30 946 C 90.8702 -1.13238 4.14096 0
M  V30 947 C 90.1032 -2.21966 4.85352 0
M  V30 948 O 90.3262 -3.42437 4.56172 0
M  V30 949 O 89.2602 -1.87013 5.7211 0
M  V30 950 H 93.0862 0.060938 3.03639 0
M  V30 951 H 90.6712 0.09565 1.49093 0
M  V30 952 H 92.5532 -2.34777 3.49939 0
M  V30 953 H 91.2282 -2.27176 2.30593 0
M  V30 954 H 90.1352 -0.432736 3.71589 0
M  V30 955 H 91.4682 -0.588898 4.88664 0
M  V30 956 N 93.1203 -1.57491 0.0584922 0
M  V30 957 C 94.3483 -1.97296 -0.623037 0
M  V30 958 C 94.7633 -0.936338 -1.63946 0
M  V30 959 O 94.1203 0.0785981 -1.82331 0
M  V30 960 C 94.1713 -3.37183 -1.30345 0
M  V30 961 O 93.8923 -4.36872 -0.32773 0
M  V30 962 C 95.3933 -3.91788 -2.07406 0
M  V30 963 H 92.6133 -0.649153 -0.169826 0
M  V30 964 H 95.1573 -2.04106 0.12696 0
M  V30 965 H 93.3123 -3.31502 -2.00463 0
M  V30 966 H 93.7263 -5.18141 -0.814269 0
M  V30 967 H 95.2003 -4.91926 -2.50425 0
M  V30 968 H 95.6773 -3.27609 -2.92521 0
M  V30 969 H 96.2833 -4.00829 -1.42184 0
M  V30 970 N 94.5984 0.214957 -1.56127 0
M  V30 971 C 95.8264 0.955092 -1.83536 0
M  V30 972 C 96.2414 1.77677 -0.638472 0
M  V30 973 O 95.5984 1.78219 0.392968 0
M  V30 974 C 95.6494 1.86734 -3.09536 0
M  V30 975 O 95.3704 1.07887 -4.24608 0
M  V30 976 C 96.8714 2.72082 -3.4998 0
M  V30 977 H 94.0914 0.279611 -0.609966 0
M  V30 978 H 96.6354 0.228197 -2.03223 0
M  V30 979 H 94.7904 2.5481 -2.91806 0
M  V30 980 H 95.2044 1.69872 -4.9623 0
M  V30 981 H 96.6784 3.31782 -4.41163 0
M  V30 982 H 97.1554 3.44806 -2.7204 0
M  V30 983 H 97.7614 2.09409 -3.70173 0
M  V30 984 N 96.0765 1.50051 0.48192 0
M  V30 985 C 97.0245 1.68635 1.60203 0
M  V30 986 C 98.0185 0.552184 1.60148 0
M  V30 987 O 99.2245 0.732377 1.64427 0
M  V30 988 H 95.5995 0.532081 0.531407 0
M  V30 989 H 97.5705 2.62616 1.41688 0
M  V30 990 C 96.3195 1.78775 2.9822 0
M  V30 991 H 95.6425 2.6543 2.98976 0
M  V30 992 H 97.0825 1.95806 3.7608 0
M  V30 993 C 95.5415 0.536849 3.32595 0
M  V30 994 O 96.0715 -0.328897 4.00351 0
M  V30 995 N 94.2775 0.394091 2.87915 0
M  V30 996 H 93.8245 1.09962 2.32951 0
M  V30 997 H 93.7825 -0.441737 3.11281 0
M  V30 998 N 97.5546 -0.734337 1.39446 0
M  V30 999 C 98.8316 -1.48579 1.27215 0
M  V30 1000 C 99.2116 -2.1077 -0.117968 0
M  V30 1001 O 98.5596 -1.98646 -1.12924 0
M  V30 1002 C 98.7696 -2.53667 2.39696 0
M  V30 1003 C 100.118 -3.20031 2.79044 0
M  V30 1004 O 101.142 -2.6398 2.39151 0
M  V30 1005 O 100.001 -4.21455 3.47905 0
M  V30 1006 H 97.0946 -0.659816 0.49857 0
M  V30 1007 H 99.6406 -0.768106 1.51322 0
M  V30 1008 H 98.4126 -2.06096 3.32626 0
M  V30 1009 H 98.0356 -3.32994 2.17258 0
M  V30 1010 N 99.0327 -1.24633 -0.964593 0
M  V30 1011 C 100.279 -1.08949 -1.71049 0
M  V30 1012 C 100.612 0.370302 -1.90637 0
M  V30 1013 O 99.8867 1.27349 -1.47011 0
M  V30 1014 C 100.17 -1.83329 -3.0994 0
M  V30 1015 C 100.023 -3.37077 -2.97824 0
M  V30 1016 C 101.342 -1.60846 -4.09654 0
M  V30 1017 H 98.4607 -0.397178 -0.620821 0
M  V30 1018 H 101.103 -1.5334 -1.12191 0
M  V30 1019 H 99.2527 -1.45597 -3.60186 0
M  V30 1020 H 100.925 -3.84425 -2.5498 0
M  V30 1021 H 99.1677 -3.65298 -2.33965 0
M  V30 1022 H 99.8387 -3.84324 -3.96231 0
M  V30 1023 H 102.315 -1.93674 -3.68279 0
M  V30 1024 H 101.191 -2.1534 -5.04896 0
M  V30 1025 H 101.452 -0.547434 -4.38698 0
M  V30 1026 N 100.511 1.16574 -1.06058 0
M  V30 1027 C 101.922 1.68662 -0.800632 0
M  V30 1028 C 102.273 1.84184 0.67608 0
M  V30 1029 O 101.398 1.53568 1.52466 0
M  V30 1030 C 101.993 3.06356 -1.44676 0
M  V30 1031 C 100.552 3.55575 -1.23465 0
M  V30 1032 C 99.6988 2.31616 -1.52477 0
M  V30 1033 H 102.65 1.00969 -1.22438 0
M  V30 1034 H 102.671 3.70636 -0.860788 0
M  V30 1035 H 102.183 2.95027 -2.52152 0
M  V30 1036 H 100.284 3.72167 -0.179527 0
M  V30 1037 H 100.397 4.37812 -1.94571 0
M  V30 1038 H 98.7608 2.36512 -0.945209 0
M  V30 1039 H 99.5438 2.22887 -2.61106 0
M  V30 1040 N 101.989 0.842826 1.3317 0
M  V30 1041 C 102.939 0.250877 2.26616 0
M  V30 1042 C 103.923 -0.596427 1.49437 0
M  V30 1043 O 105.115 -0.447747 1.71243 0
M  V30 1044 C 102.244 -0.569779 3.38539 0
M  V30 1045 C 101.33 0.289254 4.23112 0
M  V30 1046 N 101.721 1.36987 4.86897 0
M  V30 1047 C 100.019 0.0769631 4.45934 0
M  V30 1048 C 100.72 1.89737 5.49886 0
M  V30 1049 N 99.6959 1.19827 5.30229 0
M  V30 1050 H 103.498 1.07718 2.73448 0
M  V30 1051 H 101.012 0.687693 1.47121 0
M  V30 1052 H 103.009 -1.01018 4.04476 0
M  V30 1053 H 101.669 -1.39401 2.93253 0
M  V30 1054 H 102.68 1.75277 4.87338 0
M  V30 1055 H 99.3569 -0.713507 4.11358 0
M  V30 1056 H 100.747 2.80253 6.10662 0
M  V30 1057 N 103.467 -1.45747 0.599634 0
M  V30 1058 C 104.716 -2.01502 0.0893511 0
M  V30 1059 C 105.029 -1.4748 -1.28488 0
M  V30 1060 O 106.235 -1.95161 -1.88745 0
M  V30 1061 C 104.691 -3.59735 0.109082 0
M  V30 1062 C 104.299 -4.22754 1.48267 0
M  V30 1063 C 106.043 -4.23085 -0.346374 0
M  V30 1064 C 103.95 -5.73115 1.45921 0
M  V30 1065 H 102.88 -0.753417 0.0296347 0
M  V30 1066 H 105.531 -1.67303 0.753788 0
M  V30 1067 H 103.913 -3.91087 -0.621854 0
M  V30 1068 H 105.087 -4.02987 2.23468 0
M  V30 1069 H 103.402 -3.71567 1.87955 0
M  V30 1070 H 105.999 -5.33327 -0.38298 0
M  V30 1071 H 106.342 -3.93201 -1.36743 0
M  V30 1072 H 106.875 -3.9642 0.331038 0
M  V30 1073 H 103.614 -6.07685 2.45762 0
M  V30 1074 H 103.134 -5.95097 0.749665 0
M  V30 1075 H 104.813 -6.3616 1.17941 0
M  V30 1076 N 104.945 -0.338344 -1.53925 0
M  V30 1077 C 105.877 0.555117 -2.22376 0
M  V30 1078 C 106.89 1.06812 -1.22862 0
M  V30 1079 O 108.079 0.979163 -1.49247 0
M  V30 1080 C 105.179 1.77609 -2.88631 0
M  V30 1081 C 104.352 1.39927 -4.14414 0
M  V30 1082 C 103.411 2.47936 -4.64127 0
M  V30 1083 O 102.437 2.11461 -5.28463 0
M  V30 1084 N 103.639 3.79107 -4.39612 0
M  V30 1085 H 106.404 -0.0310778 -2.99684 0
M  V30 1086 H 103.965 -0.162226 -1.61085 0
M  V30 1087 H 105.957 2.49287 -3.18807 0
M  V30 1088 H 104.527 2.26978 -2.14941 0
M  V30 1089 H 103.747 0.513481 -3.90841 0
M  V30 1090 H 105.035 1.12341 -4.96243 0
M  V30 1091 H 104.433 4.11531 -3.88148 0
M  V30 1092 H 102.99 4.4697 -4.74406 0
M  V30 1093 N 106.423 1.57458 -0.0668435 0
M  V30 1094 C 107.663 1.95175 0.607116 0
M  V30 1095 C 108.027 0.946039 1.67075 0
M  V30 1096 O 109.228 1.2107 2.39991 0
M  V30 1097 C 107.499 3.37582 1.17358 0
M  V30 1098 S 109.058 3.97271 1.86336 0
M  V30 1099 H 105.876 0.682604 0.19893 0
M  V30 1100 H 108.478 1.95002 -0.139519 0
M  V30 1101 H 107.182 4.08566 0.387553 0
M  V30 1102 H 106.713 3.41288 1.95669 0
M  V30 1103 H 108.728 3.83772 3.14537 0
M  V30 1104 N 107.901 -0.206675 1.56239 0
M  V30 1105 C 109.149 -0.927007 1.79586 0
M  V30 1106 C 109.47 -1.8427 0.637929 0
M  V30 1107 O 108.74 -1.92849 -0.344398 0
M  V30 1108 H 107.32 -0.345292 0.662407 0
M  V30 1109 H 109.982 -0.21496 1.93711 0
M  V30 1110 H 109.078 -1.52501 2.72305 0
M  V30 1111 N 109.379 -1.50304 -0.473955 0
M  V30 1112 C 110.656 -1.51667 -1.23518 0
M  V30 1113 C 111.036 -0.259701 -2.09496 0
M  V30 1114 O 110.384 0.756986 -2.15597 0
M  V30 1115 C 110.594 -2.81082 -2.06868 0
M  V30 1116 C 111.942 -3.31631 -2.65153 0
M  V30 1117 O 112.966 -2.82384 -2.17113 0
M  V30 1118 O 111.825 -4.17471 -3.52675 0
M  V30 1119 H 108.919 -0.60822 -0.560355 0
M  V30 1120 H 111.465 -1.62592 -0.486011 0
M  V30 1121 H 110.237 -3.64041 -1.4349 0
M  V30 1122 H 109.86 -2.73146 -2.88924 0
M  V30 1123 N 110.857 0.726932 -1.39834 0
M  V30 1124 C 112.105 1.4837 -1.37225 0
M  V30 1125 C 112.426 1.94979 0.0284857 0
M  V30 1126 O 111.696 1.69555 0.981213 0
M  V30 1127 H 110.276 0.55043 -0.505011 0
M  V30 1128 H 112.938 0.862468 -1.74778 0
M  V30 1129 H 112.034 2.36198 -2.04003 0
M  V30 1130 N 112.336 1.25143 0.95797 0
M  V30 1131 C 113.576 1.10893 1.71703 0
M  V30 1132 C 113.94 -0.34478 1.88879 0
M  V30 1133 O 115.141 -0.609014 2.6181 0
M  V30 1134 C 113.412 1.83889 3.06463 0
M  V30 1135 S 114.971 1.85491 3.97666 0
M  V30 1136 H 111.789 0.396428 0.590226 0
M  V30 1137 H 114.391 1.58618 1.14283 0
M  V30 1138 H 113.095 2.88756 2.9163 0
M  V30 1139 H 112.626 1.36538 3.68946 0
M  V30 1140 H 114.641 0.929553 4.87415 0
M  V30 1141 N 113.814 -1.1601 1.06675 0
M  V30 1142 C 115.091 -1.82679 0.699114 0
M  V30 1143 C 115.471 -1.94559 -0.819137 0
M  V30 1144 O 114.819 -1.49169 -1.73092 0
M  V30 1145 C 115.029 -3.19445 1.40555 0
M  V30 1146 C 116.377 -3.95171 1.55323 0
M  V30 1147 O 117.401 -3.28976 1.36577 0
M  V30 1148 O 116.26 -5.13833 1.86112 0
M  V30 1149 H 113.354 -0.788954 0.247951 0
M  V30 1150 H 115.9 -1.23179 1.16726 0
M  V30 1151 H 114.672 -3.05856 2.44065 0
M  V30 1152 H 114.295 -3.86625 0.927733 0
M  V30 1153 N 115.292 -0.849877 -1.32721 0
M  V30 1154 C 116.703 -0.506188 -1.79707 0
M  V30 1155 C 117.054 0.975627 -1.70223 0
M  V30 1156 O 116.179 1.76078 -1.25799 0
M  V30 1157 C 116.774 -0.912044 -3.26293 0
M  V30 1158 C 115.333 -0.620326 -3.71253 0
M  V30 1159 C 114.48 -1.11439 -2.53922 0
M  V30 1160 H 117.431 -1.03754 -1.20087 0
M  V30 1161 H 117.452 -0.226493 -3.79825 0
M  V30 1162 H 116.964 -1.99057 -3.33164 0
M  V30 1163 H 115.065 0.447674 -3.69901 0
M  V30 1164 H 115.178 -1.18327 -4.64258 0
M  V30 1165 H 113.542 -0.534834 -2.49021 0
M  V30 1166 H 114.325 -2.19992 -2.6355 0
M  V30 1167 N 116.77 1.45427 -0.607355 0
M  V30 1168 C 117.702 2.2871 0.149752 0
M  V30 1169 C 118.715 1.39937 0.831958 0
M  V30 1170 O 119.904 1.64313 0.697385 0
M  V30 1171 C 117.004 3.15673 1.23304 0
M  V30 1172 C 116.177 4.32722 0.637996 0
M  V30 1173 C 115.236 5.00895 1.61215 0
M  V30 1174 O 114.262 5.57697 1.13854 0
M  V30 1175 N 115.464 5.00159 2.94655 0
M  V30 1176 H 118.229 2.94328 -0.564882 0
M  V30 1177 H 115.79 1.55612 -0.446823 0
M  V30 1178 H 117.782 3.58144 1.88454 0
M  V30 1179 H 116.352 2.51965 1.8502 0
M  V30 1180 H 115.572 3.93734 -0.191572 0
M  V30 1181 H 116.86 5.08321 0.220665 0
M  V30 1182 H 116.258 4.553 3.35735 0
M  V30 1183 H 114.815 5.46495 3.55228 0
M  V30 1184 N 118.248 0.346503 1.53744 0
M  V30 1185 C 119.496 -0.248612 2.00565 0
M  V30 1186 C 119.817 -1.5083 1.23593 0
M  V30 1187 O 119.087 -1.92858 0.343912 0
M  V30 1188 H 117.667 -0.0948564 0.740953 0
M  V30 1189 H 120.329 0.468341 1.89189 0
M  V30 1190 H 119.425 -0.488994 3.08245 0
M  V30 1191 N 119.726 -1.57421 0.075193 0
M  V30 1192 C 120.656 -2.15942 -0.888324 0
M  V30 1193 C 121.637 -1.08737 -1.30806 0
M  V30 1194 O 122.822 -1.36787 -1.37851 0
M  V30 1195 C 119.952 -2.72379 -2.1547 0
M  V30 1196 C 118.906 -3.8478 -1.87425 0
M  V30 1197 C 118.232 -4.27834 -3.20721 0
M  V30 1198 C 119.532 -5.08869 -1.17684 0
M  V30 1199 H 121.226 -2.96705 -0.400799 0
M  V30 1200 H 118.772 -1.42723 -0.191342 0
M  V30 1201 H 120.725 -3.11965 -2.83295 0
M  V30 1202 H 119.449 -1.88841 -2.6647 0
M  V30 1203 H 118.108 -3.45703 -1.22004 0
M  V30 1204 H 117.756 -3.41214 -3.6957 0
M  V30 1205 H 117.456 -5.03605 -3.02746 0
M  V30 1206 H 118.98 -4.70039 -3.89738 0
M  V30 1207 H 120.394 -5.4575 -1.75584 0
M  V30 1208 H 118.791 -5.8994 -1.09956 0
M  V30 1209 H 119.861 -4.84648 -0.156453 0
M  V30 1210 N 121.204 0.198386 -1.56346 0
M  V30 1211 C 122.62 0.549085 -1.49857 0
M  V30 1212 C 122.82 1.86016 -0.774611 0
M  V30 1213 O 121.876 2.50416 -0.323776 0
M  V30 1214 C 123.189 0.606868 -2.94512 0
M  V30 1215 C 124.737 0.695925 -3.05165 0
M  V30 1216 C 125.212 0.784848 -4.51225 0
M  V30 1217 N 126.703 0.848463 -4.55363 0
M  V30 1218 C 127.438 0.937378 -5.65686 0
M  V30 1219 N 126.934 0.9888 -6.85707 0
M  V30 1220 N 128.727 0.974312 -5.53592 0
M  V30 1221 H 120.878 -0.661655 -2.01831 0
M  V30 1222 H 123.141 -0.235261 -0.918344 0
M  V30 1223 H 122.847 -0.28732 -3.50524 0
M  V30 1224 H 122.721 1.46268 -3.47686 0
M  V30 1225 H 125.108 1.58055 -2.49204 0
M  V30 1226 H 125.189 -0.186022 -2.55123 0
M  V30 1227 H 124.833 -0.0954072 -5.0781 0
M  V30 1228 H 124.763 1.68255 -4.98997 0
M  V30 1229 H 127.254 0.818103 -3.68938 0
M  V30 1230 H 127.567 1.05707 -7.65536 0
M  V30 1231 H 125.912 0.957534 -6.88372 0
M  V30 1232 H 129.103 0.930954 -4.58749 0
M  V30 1233 H 129.276 1.04015 -6.39597 0
M  V30 1234 N 122.682 1.50554 0.465978 0
M  V30 1235 C 123.959 1.5232 1.22712 0
M  V30 1236 C 124.339 0.270807 2.09356 0
M  V30 1237 O 123.687 -0.745541 2.15995 0
M  V30 1238 C 123.897 2.82175 2.05374 0
M  V30 1239 C 125.245 3.33033 2.6339 0
M  V30 1240 O 126.269 2.83531 2.15612 0
M  V30 1241 O 125.128 4.19336 3.50456 0
M  V30 1242 H 122.222 0.611183 0.557122 0
M  V30 1243 H 124.768 1.62847 0.477381 0
M  V30 1244 H 123.54 3.64797 1.41558 0
M  V30 1245 H 123.163 2.74675 2.87471 0
M  V30 1246 N 124.16 -0.719506 1.40217 0
M  V30 1247 C 125.108 -1.85493 1.40339 0
M  V30 1248 C 126.102 -1.66995 0.284415 0
M  V30 1249 O 127.308 -1.74148 0.455252 0
M  V30 1250 H 123.683 -0.610857 0.438586 0
M  V30 1251 H 125.654 -1.82506 2.36081 0
M  V30 1252 C 124.403 -3.23321 1.27901 0
M  V30 1253 H 123.726 -3.38159 2.1328 0
M  V30 1254 H 125.166 -4.02914 1.32045 0
M  V30 1255 C 123.625 -3.36898 -0.0111355 0
M  V30 1256 O 124.155 -3.89674 -0.975538 0
M  V30 1257 N 122.361 -2.90492 -0.0793393 0
M  V30 1258 H 121.908 -2.47731 0.706183 0
M  V30 1259 H 121.866 -2.99955 -0.942038 0
M  V30 1260 N 125.638 -1.25649 -0.95132 0
M  V30 1261 C 126.863 -1.13443 -1.73624 0
M  V30 1262 C 127.288 0.307565 -1.85568 0
M  V30 1263 O 126.646 1.22282 -1.33854 0
M  V30 1264 C 126.694 -1.79723 -3.12621 0
M  V30 1265 O 125.798 -1.07912 -3.98031 0
M  V30 1266 H 125.139 -0.395872 -0.533086 0
M  V30 1267 H 127.669 -1.66276 -1.1922 0
M  V30 1268 H 127.679 -1.86141 -3.63064 0
M  V30 1269 H 126.354 -2.84633 -3.03244 0
M  V30 1270 H 124.931 -1.09398 -3.56492 0
M  V30 1271 N 127.117 1.15442 -1.07289 0
M  V30 1272 C 128.049 2.19773 -0.650585 0
M  V30 1273 C 129.062 1.60076 0.296572 0
M  V30 1274 O 130.251 1.78293 0.0859905 0
M  V30 1275 C 127.351 3.38838 0.0650398 0
M  V30 1276 C 126.524 4.2808 -0.898141 0
M  V30 1277 C 125.583 5.2574 -0.219926 0
M  V30 1278 O 124.609 5.62654 -0.860773 0
M  V30 1279 N 125.811 5.71205 1.03466 0
M  V30 1280 H 128.576 2.56622 -1.54808 0
M  V30 1281 H 126.137 1.30551 -0.957494 0
M  V30 1282 H 128.129 4.01222 0.529415 0
M  V30 1283 H 126.699 3.00409 0.864466 0
M  V30 1284 H 125.919 3.62804 -1.54165 0
M  V30 1285 H 127.207 4.84577 -1.5512 0
M  V30 1286 H 126.605 5.43325 1.57526 0
M  V30 1287 H 125.162 6.35633 1.44272 0
M  V30 1288 N 128.595 0.856903 1.32268 0
M  V30 1289 C 129.842 0.461386 1.97174 0
M  V30 1290 C 130.17 -0.983491 1.67803 0
M  V30 1291 O 129.425 -1.70541 0.959903 0
M  V30 1292 C 129.724 0.649919 3.51441 0
M  V30 1293 C 129.39 2.0656 4.00804 0
M  V30 1294 C 128.052 2.45279 4.13995 0
M  V30 1295 C 130.404 2.98947 4.26943 0
M  V30 1296 C 127.732 3.75653 4.50668 0
M  V30 1297 C 130.084 4.28822 4.65075 0
M  V30 1298 C 128.748 4.67472 4.76472 0
M  V30 1299 H 128.018 0.168833 0.72151 0
M  V30 1300 H 130.665 1.08739 1.57633 0
M  V30 1301 H 128.97 -0.0593018 3.91755 0
M  V30 1302 H 130.667 0.32391 3.9969 0
M  V30 1303 H 127.257 1.75495 3.91024 0
M  V30 1304 H 131.441 2.70265 4.16258 0
M  V30 1305 H 126.697 4.05379 4.57688 0
M  V30 1306 H 130.871 5.0047 4.84255 0
M  V30 1307 H 128.498 5.68539 5.04646 0
M  V30 1308 N 130.073 -1.45103 0.615059 0
M  V30 1309 C 131.313 -2.04069 0.116282 0
M  V30 1310 C 131.677 -1.4721 -1.2326 0
M  V30 1311 O 132.878 -1.97577 -1.82255 0
M  V30 1312 C 131.149 -3.57298 0.085482 0
M  V30 1313 S 132.708 -4.37394 -0.351015 0
M  V30 1314 H 129.526 -0.709006 0.0532183 0
M  V30 1315 H 132.128 -1.77709 0.81484 0
M  V30 1316 H 130.832 -3.9619 1.0706 0
M  V30 1317 H 130.363 -3.88244 -0.634835 0
M  V30 1318 H 132.378 -4.69734 -1.59889 0
M  V30 1319 N 131.551 -0.354651 -1.53558 0
M  V30 1320 C 132.481 0.489091 -2.2832 0
M  V30 1321 C 133.462 1.09324 -1.30316 0
M  V30 1322 O 134.647 1.11255 -1.59173 0
M  V30 1323 C 131.777 1.63456 -3.0643 0
M  V30 1324 C 130.731 1.1582 -4.12031 0
M  V30 1325 C 130.057 2.39305 -4.7816 0
M  V30 1326 C 131.357 0.250731 -5.21698 0
M  V30 1327 H 133.051 -0.134614 -2.99097 0
M  V30 1328 H 130.597 -0.0661826 -1.43848 0
M  V30 1329 H 132.55 2.23136 -3.57475 0
M  V30 1330 H 131.274 2.28533 -2.33325 0
M  V30 1331 H 129.933 0.584146 -3.61916 0
M  V30 1332 H 129.581 3.02814 -4.01637 0
M  V30 1333 H 129.281 2.08109 -5.49513 0
M  V30 1334 H 130.805 2.99691 -5.31994 0
M  V30 1335 H 132.219 0.754695 -5.68311 0
M  V30 1336 H 130.616 0.0301468 -6.00092 0
M  V30 1337 H 131.686 -0.710125 -4.79672 0
M  V30 1338 N 133.029 1.57378 -0.0835403 0
M  V30 1339 C 133.961 2.10389 0.909338 0
M  V30 1340 C 134.974 1.03858 1.25369 0
M  V30 1341 O 136.163 1.31338 1.20882 0
M  V30 1342 C 133.263 2.55908 2.2218 0
M  V30 1343 C 132.436 3.86145 2.05453 0
M  V30 1344 C 131.495 4.17633 3.20108 0
M  V30 1345 O 130.521 4.87043 2.94581 0
M  V30 1346 N 131.723 3.72113 4.45547 0
M  V30 1347 H 134.488 2.962 0.456657 0
M  V30 1348 H 132.049 1.61579 0.101877 0
M  V30 1349 H 134.041 2.74027 2.97811 0
M  V30 1350 H 132.611 1.75171 2.58909 0
M  V30 1351 H 131.831 3.7729 1.1422 0
M  V30 1352 H 133.119 4.7137 1.91541 0
M  V30 1353 H 132.517 3.16062 4.69171 0
M  V30 1354 H 131.074 3.95409 5.18165 0
M  V30 1355 N 134.507 -0.190092 1.56449 0
M  V30 1356 C 135.923 -0.54113 1.50146 0
M  V30 1357 C 136.123 -1.85603 0.784465 0
M  V30 1358 O 135.179 -2.5024 0.337051 0
M  V30 1359 C 136.492 -0.591241 2.9483 0
M  V30 1360 C 138.04 -0.679732 3.0553 0
M  V30 1361 C 138.515 -0.760908 4.51635 0
M  V30 1362 N 140.006 -0.824302 4.55806 0
M  V30 1363 C 140.741 -0.907365 5.66175 0
M  V30 1364 N 140.237 -0.952422 6.86222 0
M  V30 1365 N 142.03 -0.94494 5.541 0
M  V30 1366 H 134.181 0.67235 2.01478 0
M  V30 1367 H 136.444 0.240127 0.917084 0
M  V30 1368 H 136.15 0.305905 3.50367 0
M  V30 1369 H 136.024 -1.44422 3.48457 0
M  V30 1370 H 138.411 -1.56731 2.50039 0
M  V30 1371 H 138.492 0.199549 2.5502 0
M  V30 1372 H 138.136 0.122336 5.07753 0
M  V30 1373 H 138.066 -1.65606 4.99882 0
M  V30 1374 H 140.557 -0.798526 3.69367 0
M  V30 1375 H 140.87 -1.01645 7.66086 0
M  V30 1376 H 139.215 -0.921014 6.8887 0
M  V30 1377 H 142.406 -0.906612 4.59236 0
M  V30 1378 H 142.579 -1.00622 6.4014 0
M  V30 1379 N 135.985 -1.50799 -0.457987 0
M  V30 1380 C 137.234 -1.6168 -1.20593 0
M  V30 1381 C 137.547 -0.32888 -1.92815 0
M  V30 1382 O 138.753 -0.316773 -2.69646 0
M  V30 1383 C 137.209 -2.8545 -2.19195 0
M  V30 1384 C 136.817 -4.21168 -1.52715 0
M  V30 1385 C 138.561 -3.05681 -2.94549 0
M  V30 1386 C 136.468 -5.3611 -2.4968 0
M  V30 1387 H 135.398 -0.602134 -0.453818 0
M  V30 1388 H 138.049 -1.77245 -0.475031 0
M  V30 1389 H 136.431 -2.63472 -2.95632 0
M  V30 1390 H 137.605 -4.53449 -0.819775 0
M  V30 1391 H 135.92 -4.06648 -0.895922 0
M  V30 1392 H 138.517 -3.88727 -3.67145 0
M  V30 1393 H 138.86 -2.17929 -3.54701 0
M  V30 1394 H 139.393 -3.27901 -2.25223 0
M  V30 1395 H 136.132 -6.26057 -1.94249 0
M  V30 1396 H 135.652 -5.0823 -3.18532 0
M  V30 1397 H 137.331 -5.6722 -3.11241 0
M  V30 1398 N 137.463 0.71206 -1.40597 0
M  V30 1399 C 138.413 1.81783 -1.37619 0
M  V30 1400 C 139.397 1.58896 -0.253162 0
M  V30 1401 O 140.589 1.70009 -0.492547 0
M  V30 1402 C 137.718 3.19944 -1.24462 0
M  V30 1403 C 136.804 3.48582 -2.4156 0
M  V30 1404 N 137.195 3.48016 -3.67041 0
M  V30 1405 C 135.493 3.79056 -2.35016 0
M  V30 1406 C 136.194 3.75096 -4.44609 0
M  V30 1407 N 135.17 3.94022 -3.74497 0
M  V30 1408 H 138.972 1.79683 -2.32575 0
M  V30 1409 H 136.486 0.91134 -1.34419 0
M  V30 1410 H 138.483 3.99133 -1.20411 0
M  V30 1411 H 137.143 3.23267 -0.304762 0
M  V30 1412 H 138.154 3.28782 -4.00153 0
M  V30 1413 H 134.831 3.89848 -1.49415 0
M  V30 1414 H 136.221 3.80934 -5.53479 0
M  V30 1415 N 138.941 1.26152 0.944643 0
M  V30 1416 C 139.873 1.03199 2.04652 0
M  V30 1417 C 140.886 -0.00642356 1.62799 0
M  V30 1418 O 142.075 0.233263 1.76969 0
M  V30 1419 C 139.175 0.540111 3.34568 0
M  V30 1420 C 138.348 1.64697 4.05208 0
M  V30 1421 C 137.407 1.15374 5.13396 0
M  V30 1422 O 136.433 1.85013 5.38293 0
M  V30 1423 N 137.635 0.00031529 5.805 0
M  V30 1424 H 140.4 1.9808 2.2491 0
M  V30 1425 H 137.961 1.17491 1.11389 0
M  V30 1426 H 139.953 0.194401 4.04233 0
M  V30 1427 H 138.523 -0.315021 3.11009 0
M  V30 1428 H 137.743 2.16379 3.29506 0
M  V30 1429 H 139.031 2.3903 4.49157 0
M  V30 1430 H 138.429 -0.581336 5.62705 0
M  V30 1431 H 136.986 -0.286346 6.51171 0
M  V30 1432 N 140.419 -1.14872 1.07899 0
M  V30 1433 C 141.667 -1.85422 0.803941 0
M  V30 1434 C 141.988 -1.83051 -0.67211 0
M  V30 1435 O 141.258 -1.27532 -1.48703 0
M  V30 1436 H 139.838 -0.686537 0.294408 0
M  V30 1437 H 142.5 -1.39226 1.3639 0
M  V30 1438 H 141.596 -2.90399 1.14346 0
M  V30 1439 N 141.898 -0.863906 -1.31812 0
M  V30 1440 C 142.828 -0.330843 -2.31144 0
M  V30 1441 C 143.809 0.575005 -1.60087 0
M  V30 1442 O 144.994 0.493304 -1.8783 0
M  V30 1443 C 142.124 0.47374 -3.44054 0
M  V30 1444 C 141.078 -0.338481 -4.26659 0
M  V30 1445 C 140.404 0.591412 -5.31419 0
M  V30 1446 C 141.704 -1.56926 -4.98168 0
M  V30 1447 H 143.398 -1.16086 -2.75979 0
M  V30 1448 H 140.944 -0.559657 -1.32679 0
M  V30 1449 H 142.897 0.857143 -4.12591 0
M  V30 1450 H 141.621 1.33721 -2.9797 0
M  V30 1451 H 140.28 -0.703754 -3.59782 0
M  V30 1452 H 139.928 1.45199 -4.81587 0
M  V30 1453 H 139.628 0.0519022 -5.87577 0
M  V30 1454 H 141.152 0.97179 -6.02817 0
M  V30 1455 H 142.566 -1.25764 -5.59336 0
M  V30 1456 H 140.963 -2.04739 -5.64094 0
M  V30 1457 H 142.033 -2.32544 -4.25501 0
M  V30 1458 N 143.376 1.44774 -0.622745 0
M  V30 1459 C 144.625 2.01334 -0.121397 0
M  V30 1460 C 144.938 1.49505 1.26125 0
M  V30 1461 O 146.144 1.98139 1.85616 0
M  V30 1462 C 144.6 3.59516 -0.166298 0
M  V30 1463 C 144.208 4.20342 -1.54974 0
M  V30 1464 C 145.952 4.23582 0.279021 0
M  V30 1465 C 143.859 5.70721 -1.55021 0
M  V30 1466 H 142.789 0.752851 -0.0416172 0
M  V30 1467 H 145.44 1.66083 -0.780309 0
M  V30 1468 H 143.822 3.92027 0.559557 0
M  V30 1469 H 144.996 3.99381 -2.29851 0
M  V30 1470 H 143.311 3.68529 -1.93843 0
M  V30 1471 H 145.908 5.33868 0.298083 0
M  V30 1472 H 146.251 3.95327 1.30471 0
M  V30 1473 H 146.784 3.95843 -0.394063 0
M  V30 1474 H 143.523 6.03698 -2.55399 0
M  V30 1475 H 143.043 5.93829 -0.844245 0
M  V30 1476 H 144.722 6.34203 -1.28047 0
M  V30 1477 N 144.854 0.36279 1.53368 0
M  V30 1478 C 146.101 -0.227776 2.01215 0
M  V30 1479 C 146.429 -1.49003 1.25014 0
M  V30 1480 O 145.684 -1.92876 0.331236 0
M  V30 1481 C 145.983 -0.568417 3.52851 0
M  V30 1482 C 145.649 0.59918 4.46901 0
M  V30 1483 C 144.311 0.919559 4.72332 0
M  V30 1484 C 146.663 1.38156 5.02556 0
M  V30 1485 C 143.991 2.02434 5.5067 0
M  V30 1486 C 146.343 2.47674 5.821 0
M  V30 1487 C 145.007 2.8025 6.05819 0
M  V30 1488 H 144.277 -0.083349 0.736297 0
M  V30 1489 H 146.924 0.494677 1.85001 0
M  V30 1490 H 145.229 -1.37185 3.66998 0
M  V30 1491 H 146.926 -1.03756 3.87344 0
M  V30 1492 H 143.516 0.339437 4.27254 0
M  V30 1493 H 147.7 1.14729 4.82857 0
M  V30 1494 H 142.956 2.28075 5.67267 0
M  V30 1495 H 147.13 3.08716 6.24234 0
M  V30 1496 H 144.757 3.65979 6.66306 0
M  V30 1497 N 146.332 -1.57332 0.0918853 0
M  V30 1498 C 147.562 -1.98286 -0.580205 0
M  V30 1499 C 147.97 -0.969713 -1.6246 0
M  V30 1500 O 147.313 0.0493501 -1.83634 0
M  V30 1501 C 147.375 -3.35603 -1.28882 0
M  V30 1502 C 147.039 -4.55285 -0.395559 0
M  V30 1503 C 148.036 -5.18687 0.355002 0
M  V30 1504 C 145.721 -5.01314 -0.314556 0
M  V30 1505 C 147.715 -6.26484 1.17458 0
M  V30 1506 C 145.402 -6.08979 0.508677 0
M  V30 1507 C 146.4 -6.71429 1.2519 0
M  V30 1508 O 146.088 -7.77018 2.06151 0
M  V30 1509 H 145.82 -0.656678 -0.160466 0
M  V30 1510 H 148.374 -2.04721 0.16688 0
M  V30 1511 H 146.604 -3.25842 -2.08241 0
M  V30 1512 H 148.293 -3.61026 -1.85512 0
M  V30 1513 H 149.059 -4.84058 0.302134 0
M  V30 1514 H 144.938 -4.5247 -0.882697 0
M  V30 1515 H 148.482 -6.75159 1.75518 0
M  V30 1516 H 144.379 -6.4304 0.563037 0
M  V30 1517 H 145.147 -7.93991 1.98799 0
M  V30 1518 N 147.81 0.181792 -1.56548 0
M  V30 1519 C 148.72 1.24538 -1.98815 0
M  V30 1520 C 149.736 1.49045 -0.897861 0
M  V30 1521 O 150.912 1.61399 -1.20467 0
M  V30 1522 C 147.977 2.56683 -2.33055 0
M  V30 1523 C 147.038 2.40131 -3.55859 0
M  V30 1524 C 146.271 3.65975 -3.88456 0
M  V30 1525 O 146.494 4.70711 -3.22161 0
M  V30 1526 O 145.428 3.6071 -4.81842 0
M  V30 1527 H 149.254 0.916647 -2.89536 0
M  V30 1528 H 146.839 0.387842 -1.44278 0
M  V30 1529 H 148.721 3.34655 -2.56094 0
M  V30 1530 H 147.396 2.89157 -1.45498 0
M  V30 1531 H 146.303 1.60226 -3.38051 0
M  V30 1532 H 147.636 2.12585 -4.43924 0
M  V30 1533 N 149.288 1.51039 0.449983 0
M  V30 1534 C 150.235 1.71439 1.54523 0
M  V30 1535 C 151.205 0.555871 1.56522 0
M  V30 1536 O 152.39 0.788871 1.73728 0
M  V30 1537 C 149.53 1.83384 2.92343 0
M  V30 1538 C 148.643 3.10873 2.9997 0
M  V30 1539 C 147.778 3.13488 4.28834 0
M  V30 1540 C 146.817 4.35343 4.30282 0
M  V30 1541 N 145.954 4.35579 5.5065 0
M  V30 1542 H 150.794 2.64934 1.36433 0
M  V30 1543 H 148.331 1.31312 0.662982 0
M  V30 1544 H 150.289 1.88291 3.72293 0
M  V30 1545 H 148.919 0.933086 3.0902 0
M  V30 1546 H 147.971 3.15336 2.12761 0
M  V30 1547 H 149.283 4.00814 2.96901 0
M  V30 1548 H 148.437 3.17241 5.17149 0
M  V30 1549 H 147.176 2.21414 4.34543 0
M  V30 1550 H 146.181 4.3178 3.40362 0
M  V30 1551 H 147.406 5.28668 4.26248 0
M  V30 1552 H 145.352 3.46369 5.57104 0
M  V30 1553 H 145.269 5.19313 5.49409 0
M  V30 1554 H 146.537 4.43507 6.41032 0
M  V30 1555 N 150.766 -0.704594 1.40972 0
M  V30 1556 C 151.696 -1.83124 1.44872 0
M  V30 1557 C 152.677 -1.67281 0.30838 0
M  V30 1558 O 153.862 -1.87149 0.518556 0
M  V30 1559 C 150.992 -3.21181 1.32136 0
M  V30 1560 C 149.946 -3.51714 2.43888 0
M  V30 1561 C 149.272 -4.89032 2.16222 0
M  V30 1562 C 150.572 -3.516 3.86232 0
M  V30 1563 H 152.266 -1.80117 2.39161 0
M  V30 1564 H 149.812 -0.865145 1.15114 0
M  V30 1565 H 151.765 -3.99702 1.33479 0
M  V30 1566 H 150.489 -3.24791 0.343279 0
M  V30 1567 H 149.148 -2.75539 2.41813 0
M  V30 1568 H 148.796 -4.89256 1.16778 0
M  V30 1569 H 148.496 -5.10426 2.911 0
M  V30 1570 H 150.02 -5.69873 2.19265 0
M  V30 1571 H 151.434 -4.2014 3.9007 0
M  V30 1572 H 149.831 -3.84523 4.60719 0
M  V30 1573 H 150.901 -2.50757 4.15029 0
M  V30 1574 N 152.244 -1.26651 -0.937939 0
M  V30 1575 C 153.174 -1.10993 -2.05433 0
M  V30 1576 C 154.155 -0.0142161 -1.70094 0
M  V30 1577 O 155.34 -0.186837 -1.93299 0
M  V30 1578 C 152.47 -0.745561 -3.39203 0
M  V30 1579 C 151.424 -1.79337 -3.88616 0
M  V30 1580 C 150.75 -1.28324 -5.19073 0
M  V30 1581 C 152.05 -3.19553 -4.13138 0
M  V30 1582 H 153.744 -2.0438 -2.1879 0
M  V30 1583 H 151.29 -0.984041 -1.05131 0
M  V30 1584 H 153.243 -0.622888 -4.16771 0
M  V30 1585 H 151.967 0.22401 -3.25831 0
M  V30 1586 H 150.626 -1.90477 -3.13231 0
M  V30 1587 H 150.274 -0.303414 -5.02084 0
M  V30 1588 H 149.974 -1.98369 -5.53103 0
M  V30 1589 H 151.498 -1.1733 -5.99221 0
M  V30 1590 H 152.912 -3.11471 -4.81309 0
M  V30 1591 H 151.309 -3.87218 -4.58457 0
M  V30 1592 H 152.379 -3.65368 -3.18801 0
M  V30 1593 N 153.722 1.14298 -1.08507 0
M  V30 1594 C 154.97 1.84993 -0.813763 0
M  V30 1595 C 155.291 1.83405 0.662393 0
M  V30 1596 O 154.561 1.28319 1.48024 0
M  V30 1597 H 153.141 0.684966 -0.298045 0
M  V30 1598 H 155.803 1.385 -1.37126 0
M  V30 1599 H 154.899 2.89788 -1.15884 0
M  V30 1600 N 155.201 0.870884 1.31352 0
M  V30 1601 C 156.426 0.495957 2.01383 0
M  V30 1602 C 156.851 -0.904324 1.64935 0
M  V30 1603 O 156.209 -1.59687 0.858466 0
M  V30 1604 C 156.257 0.661433 3.54482 0
M  V30 1605 O 155.361 -0.298851 4.11316 0
M  V30 1606 H 154.702 0.197158 0.634054 0
M  V30 1607 H 157.232 1.17455 1.67527 0
M  V30 1608 H 157.242 0.555072 4.04207 0
M  V30 1609 H 155.917 1.68246 3.8035 0
M  V30 1610 H 154.494 -0.147368 3.72609 0
M  V30 1611 N 156.679 -1.44442 0.630414 0
M  V30 1612 C 157.956 -1.9549 0.0655657 0
M  V30 1613 C 158.336 -1.5724 -1.40851 0
M  V30 1614 O 157.684 -0.846116 -2.12257 0
M  V30 1615 C 157.894 -3.47812 0.287691 0
M  V30 1616 C 159.242 -4.24216 0.180513 0
M  V30 1617 O 160.266 -3.55526 0.219019 0
M  V30 1618 O 159.125 -5.46434 0.0848493 0
M  V30 1619 H 156.219 -0.826688 -0.0227177 0
M  V30 1620 H 158.765 -1.54496 0.702068 0
M  V30 1621 H 157.537 -3.687 1.31056 0
M  V30 1622 H 157.16 -3.95751 -0.382984 0
M  V30 1623 N 158.157 -0.370918 -1.53173 0
M  V30 1624 C 159.406 0.218249 -2.00516 0
M  V30 1625 C 159.719 1.49429 -1.26215 0
M  V30 1626 O 160.925 2.16239 -1.64174 0
M  V30 1627 C 159.381 0.43948 -3.57207 0
M  V30 1628 C 158.989 -0.822244 -4.4039 0
M  V30 1629 C 160.733 0.986012 -4.1289 0
M  V30 1630 C 158.64 -0.570304 -5.88644 0
M  V30 1631 H 157.57 0.0853333 -0.749156 0
M  V30 1632 H 160.221 -0.490483 -1.76823 0
M  V30 1633 H 158.603 1.20961 -3.77074 0
M  V30 1634 H 159.777 -1.59557 -4.32294 0
M  V30 1635 H 158.092 -1.29238 -3.95836 0
M  V30 1636 H 160.689 1.18991 -5.21292 0
M  V30 1637 H 161.032 1.94972 -3.6782 0
M  V30 1638 H 161.565 0.27592 -3.96842 0
M  V30 1639 H 158.304 -1.50449 -6.38001 0
M  V30 1640 H 157.824 0.164427 -5.99575 0
M  V30 1641 H 159.503 -0.19784 -6.46697 0
M  V30 1642 N 159.635 1.57281 -0.100228 0
M  V30 1643 C 160.882 1.94537 0.562268 0
M  V30 1644 C 161.21 0.982315 1.67871 0
M  V30 1645 O 160.465 0.00280936 1.957 0
M  V30 1646 C 160.764 3.38305 1.15259 0
M  V30 1647 C 160.43 4.50618 0.159409 0
M  V30 1648 C 159.092 4.81066 -0.113741 0
M  V30 1649 C 161.444 5.18615 -0.518461 0
M  V30 1650 C 158.772 5.76835 -1.07137 0
M  V30 1651 C 161.124 6.15412 -1.46459 0
M  V30 1652 C 159.788 6.44262 -1.74592 0
M  V30 1653 H 159.058 0.711863 0.205748 0
M  V30 1654 H 161.705 1.90679 -0.17715 0
M  V30 1655 H 160.01 3.38766 1.96836 0
M  V30 1656 H 161.707 3.64435 1.67297 0
M  V30 1657 H 158.297 4.2689 0.382491 0
M  V30 1658 H 162.481 4.95264 -0.320581 0
M  V30 1659 H 157.737 5.975 -1.29628 0
M  V30 1660 H 161.911 6.67194 -1.99564 0
M  V30 1661 H 159.538 7.1828 -2.48953 0
M  V30 1662 N 161.113 -0.173488 1.56642 0
M  V30 1663 C 162.341 -0.906095 1.86004 0
M  V30 1664 C 162.756 -1.75921 0.685355 0
M  V30 1665 O 162.113 -1.79198 -0.345578 0
M  V30 1666 C 162.164 -1.78462 3.14378 0
M  V30 1667 O 161.885 -0.965914 4.27319 0
M  V30 1668 C 163.386 -2.62707 3.57071 0
M  V30 1669 H 160.606 -0.263341 0.617165 0
M  V30 1670 H 163.15 -0.174236 2.03756 0
M  V30 1671 H 161.305 -2.46984 2.98459 0
M  V30 1672 H 161.719 -1.56655 5.00559 0
M  V30 1673 H 163.193 -3.19969 4.49804 0
M  V30 1674 H 163.67 -3.37472 2.81086 0
M  V30 1675 H 164.276 -1.99521 3.75595 0
M  V30 1676 N 162.591 -1.51276 -0.441967 0
M  V30 1677 C 163.839 -1.63392 -1.18943 0
M  V30 1678 C 164.16 -0.350159 -1.9183 0
M  V30 1679 O 163.43 0.633784 -1.85364 0
M  V30 1680 H 162.01 -0.602164 -0.442049 0
M  V30 1681 H 164.672 -1.88186 -0.507165 0
M  V30 1682 H 163.768 -2.45934 -1.92154 0
M  V30 1683 N 164.069 0.697108 -1.41344 0
M  V30 1684 C 164.979 1.84088 -1.45427 0
M  V30 1685 C 165.995 1.70545 -0.34501 0
M  V30 1686 O 167.171 1.92488 -0.592492 0
M  V30 1687 C 164.236 3.20056 -1.33286 0
M  V30 1688 C 163.297 3.45718 -2.54514 0
M  V30 1689 C 162.53 4.75199 -2.42944 0
M  V30 1690 O 162.753 5.51579 -1.45318 0
M  V30 1691 O 161.687 5.0161 -3.32672 0
M  V30 1692 H 165.513 1.836 -2.41919 0
M  V30 1693 H 163.098 0.849966 -1.22866 0
M  V30 1694 H 164.98 4.01236 -1.28794 0
M  V30 1695 H 163.655 3.2123 -0.39909 0
M  V30 1696 H 162.562 2.64474 -2.64583 0
M  V30 1697 H 163.895 3.49356 -3.46715 0
M  V30 1698 N 165.547 1.27147 0.931209 0
M  V30 1699 C 166.958 1.12044 1.49342 0
M  V30 1700 C 167.309 -0.295795 1.93957 0
M  V30 1701 O 166.434 -1.18835 1.80852 0
M  V30 1702 C 167.029 2.02781 2.71414 0
M  V30 1703 C 165.588 1.91794 3.2387 0
M  V30 1704 C 164.735 1.95543 1.96617 0
M  V30 1705 H 167.686 1.40091 0.745672 0
M  V30 1706 H 167.707 1.58156 3.46074 0
M  V30 1707 H 167.219 3.05848 2.38911 0
M  V30 1708 H 165.32 0.916992 3.6114 0
M  V30 1709 H 165.433 2.77852 3.90302 0
M  V30 1710 H 163.797 1.39722 2.12955 0
M  V30 1711 H 164.58 3.00259 1.66432 0
M  V30 1712 N 167.025 -1.13721 1.09112 0
M  V30 1713 C 168.25 -1.89314 0.847053 0
M  V30 1714 C 168.675 -1.78416 -0.595774 0
M  V30 1715 O 168.033 -1.12942 -1.41823 0
M  V30 1716 C 168.081 -3.3701 1.28284 0
M  V30 1717 O 167.185 -4.10054 0.439267 0
M  V30 1718 H 166.526 -0.588745 0.307044 0
M  V30 1719 H 169.056 -1.43902 1.45442 0
M  V30 1720 H 169.066 -3.87834 1.26683 0
M  V30 1721 H 167.741 -3.4426 2.33363 0
M  V30 1722 H 166.318 -3.69266 0.519312 0
M  V30 1723 N 168.503 -0.877838 -1.30888 0
M  V30 1724 C 169.433 -0.35534 -2.3078 0
M  V30 1725 C 170.414 0.557994 -1.60687 0
M  V30 1726 O 171.599 0.473355 -1.88343 0
M  V30 1727 C 168.729 0.437221 -3.44537 0
M  V30 1728 C 167.683 -0.383715 -4.26276 0
M  V30 1729 C 167.009 0.535014 -5.32017 0
M  V30 1730 C 168.309 -1.62201 -4.96476 0
M  V30 1731 H 170.003 -1.19007 -2.74732 0
M  V30 1732 H 167.549 -0.573698 -1.32078 0
M  V30 1733 H 169.502 0.813334 -4.13477 0
M  V30 1734 H 168.226 1.30553 -2.99372 0
M  V30 1735 H 166.885 -0.741874 -3.59015 0
M  V30 1736 H 166.533 1.40083 -4.831 0
M  V30 1737 H 166.233 -0.0104211 -5.87599 0
M  V30 1738 H 167.757 0.907799 -6.03814 0
M  V30 1739 H 169.171 -1.31689 -5.5797 0
M  V30 1740 H 167.568 -2.10711 -5.61891 0
M  V30 1741 H 168.638 -2.37044 -4.23011 0
M  V30 1742 N 169.982 1.44106 -0.638065 0
M  V30 1743 C 170.912 2.33448 0.0494287 0
M  V30 1744 C 171.893 1.48606 0.827672 0
M  V30 1745 O 173.078 1.77308 0.792173 0
M  V30 1746 C 170.208 3.31771 1.02691 0
M  V30 1747 C 169.162 4.26485 0.359823 0
M  V30 1748 C 168.488 5.14729 1.44769 0
M  V30 1749 C 169.788 5.17056 -0.738296 0
M  V30 1750 H 171.482 2.91183 -0.696636 0
M  V30 1751 H 169.028 1.40014 -0.336456 0
M  V30 1752 H 170.981 3.93161 1.51666 0
M  V30 1753 H 169.705 2.7226 1.80395 0
M  V30 1754 H 168.364 3.66437 -0.10934 0
M  V30 1755 H 168.012 4.51566 2.21578 0
M  V30 1756 H 167.712 5.78913 1.00668 0
M  V30 1757 H 169.236 5.78991 1.93911 0
M  V30 1758 H 170.65 5.72342 -0.331354 0
M  V30 1759 H 169.047 5.89879 -1.10286 0
M  V30 1760 H 170.117 4.57652 -1.60258 0
M  V30 1761 N 171.46 0.379036 1.52974 0
M  V30 1762 C 172.871 -0.0972525 1.86447 0
M  V30 1763 C 173.222 -1.47027 1.29914 0
M  V30 1764 O 172.347 -2.07135 0.626433 0
M  V30 1765 C 172.942 -0.183248 3.38304 0
M  V30 1766 C 171.501 -0.603812 3.71525 0
M  V30 1767 C 170.648 0.240632 2.76254 0
M  V30 1768 H 173.599 0.597316 1.4703 0
M  V30 1769 H 173.62 -1.00432 3.67006 0
M  V30 1770 H 173.132 0.816191 3.79421 0
M  V30 1771 H 171.233 -1.61099 3.35973 0
M  V30 1772 H 171.346 -0.369086 4.77676 0
M  V30 1773 H 169.71 -0.292548 2.53014 0
M  V30 1774 H 170.493 1.23786 3.20206 0
M  V30 1775 N 172.938 -1.57226 0.108567 0
M  V30 1776 C 174.215 -1.86333 -0.594939 0
M  V30 1777 C 174.595 -1.00788 -1.85486 0
M  V30 1778 O 173.943 -0.0839293 -2.28346 0
M  V30 1779 C 174.153 -3.37265 -0.897405 0
M  V30 1780 C 175.501 -4.05629 -1.25501 0
M  V30 1781 O 176.525 -3.42224 -0.987998 0
M  V30 1782 O 175.384 -5.17531 -1.75567 0
M  V30 1783 H 172.478 -0.771018 -0.2991 0
M  V30 1784 H 175.024 -1.69102 0.142283 0
M  V30 1785 H 173.796 -3.913 -0.00413806 0
M  V30 1786 H 173.419 -3.59889 -1.69014 0
M  V30 1787 N 174.416 0.165178 -1.56732 0
M  V30 1788 C 175.641 0.900253 -1.86843 0
M  V30 1789 C 176.066 1.74766 -0.695596 0
M  V30 1790 O 175.424 1.77786 0.35522 0
M  V30 1791 C 175.472 1.74777 -3.15413 0
M  V30 1792 O 174.576 2.85007 -2.98068 0
M  V30 1793 H 173.917 0.251832 -0.614391 0
M  V30 1794 H 176.447 0.161468 -2.03962 0
M  V30 1795 H 176.457 2.14646 -3.46974 0
M  V30 1796 H 175.132 1.12537 -4.00385 0
M  V30 1797 H 173.709 2.48676 -2.77875 0
M  V30 1798 N 175.894 1.51508 0.433938 0
M  V30 1799 C 177.305 1.56784 1.01369 0
M  V30 1800 C 177.656 0.393349 1.92217 0
M  V30 1801 O 176.781 -0.489441 2.10792 0
M  V30 1802 C 177.376 2.84144 1.8452 0
M  V30 1803 C 175.935 2.9198 2.37539 0
M  V30 1804 C 175.082 2.51482 1.16843 0
M  V30 1805 H 178.033 1.57236 0.215081 0
M  V30 1806 H 178.054 2.68098 2.70007 0
M  V30 1807 H 177.566 3.69607 1.18373 0
M  V30 1808 H 175.667 2.10955 3.0713 0
M  V30 1809 H 175.78 3.95704 2.70103 0
M  V30 1810 H 174.144 2.04758 1.51481 0
M  V30 1811 H 174.927 3.39293 0.523015 0
M  V30 1812 N 177.372 -0.689602 1.41712 0
M  V30 1813 C 178.618 -1.45181 1.41599 0
M  V30 1814 C 178.951 -1.94181 0.0270081 0
M  V30 1815 O 178.226 -1.6993 -0.946265 0
M  V30 1816 C 178.509 -2.65945 2.42787 0
M  V30 1817 C 178.362 -2.22672 3.90816 0
M  V30 1818 C 179.681 -3.68149 2.41151 0
M  V30 1819 H 176.8 -0.526576 0.515642 0
M  V30 1820 H 179.442 -0.784947 1.73028 0
M  V30 1821 H 177.592 -3.2284 2.16116 0
M  V30 1822 H 179.264 -1.71058 4.28412 0
M  V30 1823 H 177.507 -1.54394 4.05395 0
M  V30 1824 H 178.178 -3.0935 4.57172 0
M  V30 1825 H 180.654 -3.2094 2.64834 0
M  V30 1826 H 179.53 -4.50248 3.13955 0
M  V30 1827 H 179.791 -4.18259 1.43221 0
M  V30 1828 N 178.85 -1.27639 -0.924453 0
M  V30 1829 C 180.098 -1.13941 -1.66918 0
M  V30 1830 C 180.419 0.314589 -1.92446 0
M  V30 1831 O 179.689 1.21964 -1.53303 0
M  V30 1832 H 178.269 -0.418678 -0.618642 0
M  V30 1833 H 180.931 -1.60213 -1.10985 0
M  V30 1834 H 180.027 -1.67094 -2.63602 0
M  V30 1835 N 180.328 1.1314 -1.09713 0
M  V30 1836 C 181.26 2.18343 -0.697056 0
M  V30 1837 C 182.273 1.60669 0.262551 0
M  V30 1838 O 183.462 1.78435 0.0481527 0
M  V30 1839 C 180.562 3.38899 -0.00684728 0
M  V30 1840 C 179.735 4.26078 -0.988741 0
M  V30 1841 C 178.794 5.25155 -0.331394 0
M  V30 1842 O 177.82 5.60701 -0.979926 0
M  V30 1843 N 179.022 5.73271 0.913261 0
M  V30 1844 H 181.787 2.5328 -1.60216 0
M  V30 1845 H 179.348 1.28491 -0.984971 0
M  V30 1846 H 181.34 4.02255 0.444191 0
M  V30 1847 H 179.91 3.02175 0.800551 0
M  V30 1848 H 179.13 3.59453 -1.61826 0
M  V30 1849 H 180.418 4.81178 -1.65364 0
M  V30 1850 H 179.816 5.46544 1.45966 0
M  V30 1851 H 178.373 6.3855 1.30757 0
M  V30 1852 N 181.806 0.884767 1.30421 0
M  V30 1853 C 182.736 0.367574 2.30589 0
M  V30 1854 C 183.717 -0.549464 1.60981 0
M  V30 1855 O 184.902 -0.46336 1.88591 0
M  V30 1856 C 182.032 -0.418944 3.44764 0
M  V30 1857 C 180.986 0.406316 4.26067 0
M  V30 1858 C 180.312 -0.506793 5.32293 0
M  V30 1859 C 181.612 1.64832 4.95608 0
M  V30 1860 H 183.306 1.20462 2.74097 0
M  V30 1861 H 180.852 0.580695 1.31772 0
M  V30 1862 H 182.805 -0.791395 4.13902 0
M  V30 1863 H 181.529 -1.28964 3.0006 0
M  V30 1864 H 180.188 0.760903 3.58617 0
M  V30 1865 H 179.836 -1.37519 4.83836 0
M  V30 1866 H 179.536 0.0415828 5.87585 0
M  V30 1867 H 181.06 -0.875764 6.04287 0
M  V30 1868 H 182.474 1.34646 5.57264 0
M  V30 1869 H 180.871 2.13688 5.60765 0
M  V30 1870 H 181.941 2.39284 4.21748 0
M  V30 1871 N 183.284 -1.43765 0.645699 0
M  V30 1872 C 184.234 -2.27884 -0.0726442 0
M  V30 1873 C 185.218 -1.39483 -0.802086 0
M  V30 1874 O 186.41 -1.63174 -0.685791 0
M  V30 1875 C 183.539 -3.27055 -1.04356 0
M  V30 1876 C 182.625 -4.22944 -0.312985 0
M  V30 1877 N 183.016 -5.01391 0.666386 0
M  V30 1878 C 181.314 -4.42528 -0.55546 0
M  V30 1879 C 182.015 -5.71217 1.09935 0
M  V30 1880 N 180.991 -5.41856 0.435137 0
M  V30 1881 H 184.793 -2.85949 0.678988 0
M  V30 1882 H 182.307 -1.55378 0.472368 0
M  V30 1883 H 184.304 -3.86089 -1.57292 0
M  V30 1884 H 182.964 -2.70551 -1.79534 0
M  V30 1885 H 183.975 -5.07252 1.04481 0
M  V30 1886 H 180.652 -3.97104 -1.28899 0
M  V30 1887 H 182.042 -6.44202 1.90929 0
M  V30 1888 N 184.763 -0.387143 -1.52771 0
M  V30 1889 C 185.726 0.436939 -2.24997 0
M  V30 1890 C 186.726 0.991991 -1.26555 0
M  V30 1891 O 187.916 0.874335 -1.50669 0
M  V30 1892 C 185.048 1.61281 -3.00335 0
M  V30 1893 H 186.241 -0.195365 -2.99263 0
M  V30 1894 H 183.794 -0.139218 -1.55679 0
M  V30 1895 H 184.529 2.2826 -2.30364 0
M  V30 1896 H 184.314 1.22154 -3.72587 0
M  V30 1897 H 185.804 2.19629 -3.5518 0
M  V30 1898 N 186.241 1.57166 -0.116904 0
M  V30 1899 C 187.466 1.999 0.55271 0
M  V30 1900 C 187.891 0.996039 1.59564 0
M  V30 1901 O 187.249 -0.032556 1.81271 0
M  V30 1902 C 187.297 3.4152 1.15742 0
M  V30 1903 O 186.401 3.44106 2.27299 0
M  V30 1904 H 185.742 0.649447 0.138258 0
M  V30 1905 H 188.272 2.03573 -0.204759 0
M  V30 1906 H 188.282 3.79684 1.49346 0
M  V30 1907 H 186.957 4.14034 0.393493 0
M  V30 1908 H 185.534 3.17759 1.9515 0
M  V30 1909 N 187.719 -0.156864 1.56817 0
M  V30 1910 C 188.649 -1.19589 2.00551 0
M  V30 1911 C 189.63 -1.4536 0.883426 0
M  V30 1912 O 190.815 -1.56449 1.15054 0
M  V30 1913 C 187.945 -2.53143 2.37773 0
M  V30 1914 C 186.899 -2.41913 3.53075 0
M  V30 1915 C 186.225 -3.80088 3.76081 0
M  V30 1916 C 187.525 -1.91157 4.86062 0
M  V30 1917 H 189.219 -0.832293 2.87599 0
M  V30 1918 H 186.765 -0.398918 1.38364 0
M  V30 1919 H 188.718 -3.26047 2.66967 0
M  V30 1920 H 187.442 -2.91319 1.4765 0
M  V30 1921 H 186.101 -1.71462 3.24031 0
M  V30 1922 H 185.749 -4.15683 2.83225 0
M  V30 1923 H 185.449 -3.73439 4.53671 0
M  V30 1924 H 186.973 -4.54556 4.0769 0
M  V30 1925 H 188.387 -2.53846 5.14038 0
M  V30 1926 H 186.784 -1.95422 5.67389 0
M  V30 1927 H 187.854 -0.866673 4.77092 0
M  V30 1928 N 189.197 -1.51736 -0.425897 0
M  V30 1929 C 190.127 -1.76827 -1.52494 0
M  V30 1930 C 191.108 -0.618524 -1.58456 0
M  V30 1931 O 192.293 -0.862416 -1.74 0
M  V30 1932 C 189.423 -1.90374 -2.90474 0
M  V30 1933 C 188.377 -3.0588 -2.99369 0
M  V30 1934 C 187.703 -3.04625 -4.3944 0
M  V30 1935 C 189.003 -4.45644 -2.72394 0
M  V30 1936 H 190.697 -2.68855 -1.31748 0
M  V30 1937 H 188.243 -1.29372 -0.632362 0
M  V30 1938 H 190.196 -2.0651 -3.6733 0
M  V30 1939 H 188.92 -0.95004 -3.12477 0
M  V30 1940 H 187.579 -2.89467 -2.24954 0
M  V30 1941 H 187.227 -2.0701 -4.58428 0
M  V30 1942 H 186.927 -3.82195 -4.46319 0
M  V30 1943 H 188.451 -3.22869 -5.18255 0
M  V30 1944 H 189.865 -4.62348 -3.38979 0
M  V30 1945 H 188.262 -5.25006 -2.9067 0
M  V30 1946 H 189.332 -4.54893 -1.67929 0
M  V30 1947 N 190.675 0.682077 -1.42076 0
M  V30 1948 C 191.923 1.4393 -1.41876 0
M  V30 1949 C 192.244 1.94971 -0.0335599 0
M  V30 1950 O 191.514 1.72591 0.926773 0
M  V30 1951 H 190.094 0.534085 -0.522267 0
M  V30 1952 H 192.756 0.806427 -1.77434 0
M  V30 1953 H 191.852 2.29588 -2.11414 0
M  V30 1954 N 192.153 1.28127 0.917671 0
M  V30 1955 C 193.083 1.14248 2.03641 0
M  V30 1956 C 194.064 0.0412748 1.7005 0
M  V30 1957 O 195.249 0.217566 1.92977 0
M  V30 1958 C 192.379 0.799431 3.37974 0
M  V30 1959 C 191.333 1.85497 3.85713 0
M  V30 1960 C 190.659 1.36565 5.16966 0
M  V30 1961 C 191.959 3.26085 4.08002 0
M  V30 1962 H 193.653 2.07835 2.15511 0
M  V30 1963 H 191.199 1.00064 1.03553 0
M  V30 1964 H 193.152 0.689114 4.15727 0
M  V30 1965 H 191.876 -0.172145 3.26146 0
M  V30 1966 H 190.535 1.95437 3.10161 0
M  V30 1967 H 190.183 0.383253 5.01538 0
M  V30 1968 H 189.883 2.07143 5.49878 0
M  V30 1969 H 191.407 1.26848 5.97279 0
M  V30 1970 H 192.821 3.19089 4.76293 0
M  V30 1971 H 191.218 3.94462 4.52238 0
M  V30 1972 H 192.288 3.70394 3.12948 0
M  V30 1973 N 193.631 -1.12557 1.10312 0
M  V30 1974 C 194.856 -1.88405 0.867085 0
M  V30 1975 C 195.281 -1.79038 -0.576817 0
M  V30 1976 O 194.639 -1.14439 -1.40618 0
M  V30 1977 C 194.687 -3.3563 1.31851 0
M  V30 1978 O 193.791 -4.09565 0.482734 0
M  V30 1979 H 193.132 -0.585455 0.313271 0
M  V30 1980 H 195.662 -1.42352 1.4696 0
M  V30 1981 H 195.672 -3.86469 1.3079 0
M  V30 1982 H 194.347 -3.41765 2.37001 0
M  V30 1983 H 192.924 -3.68695 0.558448 0
M  V30 1984 N 195.109 -0.891671 -1.2995 0
M  V30 1985 C 196.041 -0.320695 -2.26945 0
M  V30 1986 C 197.054 0.528497 -1.53983 0
M  V30 1987 O 198.243 0.346959 -1.75096 0
M  V30 1988 C 195.343 0.562066 -3.34207 0
M  V30 1989 C 194.516 -0.259576 -4.36629 0
M  V30 1990 C 193.575 0.554739 -5.23268 0
M  V30 1991 O 192.601 -0.0249311 -5.69195 0
M  V30 1992 N 193.803 1.8625 -5.4981 0
M  V30 1993 H 196.568 -1.15432 -2.76578 0
M  V30 1994 H 194.129 -0.755336 -1.432 0
M  V30 1995 H 196.121 1.11304 -3.89093 0
M  V30 1996 H 194.691 1.29637 -2.84452 0
M  V30 1997 H 193.911 -0.991986 -3.81514 0
M  V30 1998 H 195.199 -0.822564 -5.02107 0
M  V30 1999 H 194.597 2.35628 -5.14292 0
M  V30 2000 H 193.154 2.36078 -6.07545 0
M  V30 2001 N 196.587 1.43421 -0.653314 0
M  V30 2002 C 197.517 2.33487 0.0246656 0
M  V30 2003 C 198.498 1.49475 0.811863 0
M  V30 2004 O 199.683 1.78139 0.773322 0
M  V30 2005 C 196.813 3.32841 0.99166 0
M  V30 2006 C 195.767 4.26842 0.314568 0
M  V30 2007 C 195.093 5.16236 1.39302 0
M  V30 2008 C 196.393 5.16243 -0.793095 0
M  V30 2009 H 198.087 2.90427 -0.727481 0
M  V30 2010 H 195.633 1.39649 -0.351287 0
M  V30 2011 H 197.586 3.94747 1.47487 0
M  V30 2012 H 196.31 2.74158 1.77497 0
M  V30 2013 H 194.969 3.663 -0.148199 0
M  V30 2014 H 194.617 4.53891 2.16776 0
M  V30 2015 H 194.317 5.79948 0.945223 0
M  V30 2016 H 195.841 5.81015 1.87759 0
M  V30 2017 H 197.255 5.71958 -0.392039 0
M  V30 2018 H 195.652 5.88676 -1.16536 0
M  V30 2019 H 196.722 4.55927 -1.65103 0
M  V30 2020 N 198.065 0.39524 1.52563 0
M  V30 2021 C 198.995 -0.428384 2.29537 0
M  V30 2022 C 199.976 -1.05831 1.33169 0
M  V30 2023 O 201.161 -1.06995 1.62067 0
M  V30 2024 C 198.291 -1.55274 3.10656 0
M  V30 2025 C 197.245 -1.04855 4.14957 0
M  V30 2026 C 196.571 -2.26543 4.84337 0
M  V30 2027 C 197.871 -0.112324 5.22179 0
M  V30 2028 H 199.565 0.213867 2.98635 0
M  V30 2029 H 197.111 0.104298 1.43622 0
M  V30 2030 H 199.064 -2.1358 3.63265 0
M  V30 2031 H 197.788 -2.22266 2.39302 0
M  V30 2032 H 196.447 -0.487985 3.63338 0
M  V30 2033 H 196.095 -2.92059 4.09525 0
M  V30 2034 H 195.795 -1.93466 5.54837 0
M  V30 2035 H 197.319 -2.85481 5.39753 0
M  V30 2036 H 198.733 -0.603752 5.70112 0
M  V30 2037 H 197.13 0.128968 5.99961 0
M  V30 2038 H 198.2 0.837052 4.77621 0
M  V30 2039 N 199.544 -1.57102 0.125237 0
M  V30 2040 C 200.476 -2.12726 -0.853237 0
M  V30 2041 C 201.489 -1.07145 -1.22571 0
M  V30 2042 O 202.678 -1.34497 -1.17358 0
M  V30 2043 C 199.778 -2.61709 -2.15317 0
M  V30 2044 C 198.951 -3.91456 -1.95143 0
M  V30 2045 C 198.01 -4.25973 -3.08923 0
M  V30 2046 O 197.036 -4.94682 -2.81564 0
M  V30 2047 N 198.238 -3.83795 -4.35524 0
M  V30 2048 H 201.003 -2.97307 -0.377964 0
M  V30 2049 H 198.564 -1.61792 -0.0590011 0
M  V30 2050 H 200.556 -2.81826 -2.90441 0
M  V30 2051 H 199.126 -1.81974 -2.54174 0
M  V30 2052 H 198.346 -3.80185 -1.04177 0
M  V30 2053 H 199.634 -4.76283 -1.78976 0
M  V30 2054 H 199.032 -3.2839 -4.60626 0
M  V30 2055 H 197.589 -4.09008 -5.07499 0
M  V30 2056 N 201.022 0.148545 -1.56898 0
M  V30 2057 C 202.433 0.708766 -1.72723 0
M  V30 2058 C 202.784 1.81734 -0.739395 0
M  V30 2059 O 201.909 2.16194 0.0943169 0
M  V30 2060 C 202.504 1.29245 -3.13179 0
M  V30 2061 C 201.063 1.79925 -3.30611 0
M  V30 2062 C 200.21 0.687111 -2.68652 0
M  V30 2063 H 203.161 -0.0771063 -1.58513 0
M  V30 2064 H 203.182 2.16224 -3.13093 0
M  V30 2065 H 202.694 0.485382 -3.85053 0
M  V30 2066 H 200.795 2.63203 -2.63732 0
M  V30 2067 H 200.908 1.92903 -4.38549 0
M  V30 2068 H 199.272 1.11335 -2.29078 0
M  V30 2069 H 200.055 -0.108483 -3.43129 0
M  V30 2070 N 202.5 1.5196 0.417844 0
M  V30 2071 C 203.41 1.77554 1.53336 0
M  V30 2072 C 204.426 0.660655 1.6097 0
M  V30 2073 O 205.602 0.945099 1.77848 0
M  V30 2074 C 202.667 1.91291 2.89152 0
M  V30 2075 C 201.728 3.15183 2.91475 0
M  V30 2076 C 200.961 3.28256 4.20813 0
M  V30 2077 O 201.184 2.46798 5.14244 0
M  V30 2078 O 200.118 4.21356 4.29817 0
M  V30 2079 H 203.944 2.7222 1.34647 0
M  V30 2080 H 201.529 1.36698 0.602828 0
M  V30 2081 H 203.411 2.02199 3.69721 0
M  V30 2082 H 202.086 0.998129 3.07927 0
M  V30 2083 H 200.993 3.09739 2.09791 0
M  V30 2084 H 202.326 4.06414 2.77648 0
M  V30 2085 N 203.978 -0.674533 1.42435 0
M  V30 2086 C 205.226 -1.43175 1.42637 0
M  V30 2087 C 205.547 -1.94951 0.0438992 0
M  V30 2088 O 204.817 -1.7308 -0.917607 0
M  V30 2089 H 203.397 -0.531307 0.525092 0
M  V30 2090 H 206.059 -0.797006 1.77859 0
M  V30 2091 H 205.155 -2.28463 2.12629 0
M  V30 2092 N 205.456 -1.28612 -0.910864 0
M  V30 2093 C 206.406 -1.09423 -2.00026 0
M  V30 2094 C 207.39 -0.0170079 -1.60891 0
M  V30 2095 O 208.582 -0.237472 -1.754 0
M  V30 2096 C 205.711 -0.76114 -3.34756 0
M  V30 2097 C 204.797 -1.87735 -3.80285 0
M  V30 2098 N 205.188 -3.11938 -3.98156 0
M  V30 2099 C 203.486 -1.76786 -4.09467 0
M  V30 2100 C 204.187 -3.84687 -4.36338 0
M  V30 2101 N 203.163 -3.12555 -4.44759 0
M  V30 2102 H 206.965 -2.03658 -2.11898 0
M  V30 2103 H 204.479 -1.19573 -1.09891 0
M  V30 2104 H 206.476 -0.604743 -4.12491 0
M  V30 2105 H 205.136 0.173403 -3.24237 0
M  V30 2106 H 206.147 -3.47516 -3.83996 0
M  V30 2107 H 202.824 -0.905284 -4.07567 0
M  V30 2108 H 204.214 -4.91518 -4.58104 0
M  V30 2109 N 206.934 1.1197 -1.10907 0
M  V30 2110 C 207.884 2.15946 -0.731538 0
M  V30 2111 C 208.868 1.58758 0.261699 0
M  V30 2112 O 210.06 1.76863 0.0696722 0
M  V30 2113 C 207.189 3.42877 -0.170299 0
M  V30 2114 C 206.275 4.07037 -1.19087 0
M  V30 2115 N 206.666 4.46135 -2.38322 0
M  V30 2116 C 204.964 4.33884 -1.03252 0
M  V30 2117 C 205.665 4.96331 -3.03366 0
M  V30 2118 N 204.641 4.9214 -2.30865 0
M  V30 2119 H 208.443 2.43947 -1.63912 0
M  V30 2120 H 205.957 1.28927 -0.987505 0
M  V30 2121 H 207.954 4.16732 0.118271 0
M  V30 2122 H 206.614 3.16343 0.731935 0
M  V30 2123 H 207.625 4.38345 -2.75815 0
M  V30 2124 H 204.302 4.17084 -0.186256 0
M  V30 2125 H 205.692 5.36257 -4.04818 0
M  V30 2126 N 208.412 0.89855 1.29475 0
M  V30 2127 C 209.658 0.534065 1.96263 0
M  V30 2128 C 210.013 -0.909415 1.69551 0
M  V30 2129 O 209.306 -1.63596 0.997349 0
M  V30 2130 C 209.5 0.761398 3.49195 0
M  V30 2131 C 209.329 2.22542 3.90775 0
M  V30 2132 C 208.099 2.87264 4.15701 0
M  V30 2133 C 210.297 3.20051 4.02581 0
M  V30 2134 N 208.279 4.24121 4.4384 0
M  V30 2135 C 209.65 4.42023 4.34759 0
M  V30 2136 C 211.705 3.15657 3.85052 0
M  V30 2137 C 210.408 5.60161 4.51235 0
M  V30 2138 C 212.434 4.33078 4.02737 0
M  V30 2139 C 211.796 5.5382 4.35273 0
M  V30 2140 H 207.895 0.245013 0.742625 0
M  V30 2141 H 210.479 1.15912 1.56437 0
M  V30 2142 H 208.65 0.165732 3.88046 0
M  V30 2143 H 210.382 0.362462 4.03074 0
M  V30 2144 H 207.137 2.38064 4.09417 0
M  V30 2145 H 207.561 4.94839 4.6202 0
M  V30 2146 H 212.203 2.23396 3.58962 0
M  V30 2147 H 209.921 6.52913 4.76162 0
M  V30 2148 H 213.507 4.31163 3.90628 0
M  V30 2149 H 212.387 6.43166 4.48672 0
M  V30 2150 N 209.89 -1.43072 0.660911 0
M  V30 2151 C 210.8 -2.34585 -0.0264163 0
M  V30 2152 C 211.816 -1.54316 -0.803898 0
M  V30 2153 O 212.992 -1.86939 -0.749391 0
M  V30 2154 C 210.057 -3.32689 -0.975639 0
M  V30 2155 C 209.118 -4.2886 -0.194236 0
M  V30 2156 C 208.351 -5.22278 -1.09825 0
M  V30 2157 O 208.574 -5.20299 -2.33763 0
M  V30 2158 O 207.508 -5.99228 -0.566513 0
M  V30 2159 H 211.334 -2.94869 0.727034 0
M  V30 2160 H 208.919 -1.43342 0.42111 0
M  V30 2161 H 210.801 -3.92995 -1.52094 0
M  V30 2162 H 209.476 -2.74898 -1.70918 0
M  V30 2163 H 208.383 -3.72011 0.394835 0
M  V30 2164 H 209.716 -4.89655 0.499899 0
M  V30 2165 N 211.368 -0.403325 -1.52352 0
M  V30 2166 C 212.596 0.174012 -2.06167 0
M  V30 2167 C 213.011 1.39347 -1.27388 0
M  V30 2168 O 212.368 1.79597 -0.324201 0
M  V30 2169 C 212.419 0.530223 -3.5759 0
M  V30 2170 O 212.14 -0.640806 -4.33388 0
M  V30 2171 C 213.641 1.16192 -4.27802 0
M  V30 2172 H 210.861 0.0229464 -0.670608 0
M  V30 2173 H 213.405 -0.572604 -1.9632 0
M  V30 2174 H 211.56 1.22673 -3.67464 0
M  V30 2175 H 211.974 -0.344851 -5.23365 0
M  V30 2176 H 213.448 1.36141 -5.34948 0
M  V30 2177 H 213.925 2.13335 -3.83907 0
M  V30 2178 H 214.531 0.505775 -4.22282 0
M  V30 2179 N 212.846 1.57033 -0.133567 0
M  V30 2180 C 213.778 2.13176 0.841944 0
M  V30 2181 C 214.791 1.07794 1.22001 0
M  V30 2182 O 215.98 1.35117 1.16643 0
M  V30 2183 C 213.08 2.62847 2.13926 0
M  V30 2184 C 212.253 3.92486 1.93064 0
M  V30 2185 C 211.312 4.27605 3.0666 0
M  V30 2186 O 210.338 4.96168 2.78937 0
M  V30 2187 N 211.54 3.861 4.33483 0
M  V30 2188 H 214.305 2.97503 0.362192 0
M  V30 2189 H 211.866 1.61821 0.05042 0
M  V30 2190 H 213.858 2.83363 2.88942 0
M  V30 2191 H 212.428 1.83319 2.53205 0
M  V30 2192 H 211.648 3.80732 1.02159 0
M  V30 2193 H 212.936 4.77225 1.76447 0
M  V30 2194 H 212.334 3.30828 4.58878 0
M  V30 2195 H 210.891 4.11694 5.05323 0
M  V30 2196 N 214.325 -0.140222 1.56975 0
M  V30 2197 C 215.257 -1.19818 1.95388 0
M  V30 2198 C 216.27 -1.38816 0.850525 0
M  V30 2199 O 217.459 -1.38267 1.12891 0
M  V30 2200 C 214.559 -2.56189 2.21857 0
M  V30 2201 C 213.732 -2.58077 3.5315 0
M  V30 2202 C 212.791 -3.76037 3.6808 0
M  V30 2203 O 211.817 -3.60598 4.40406 0
M  V30 2204 N 213.019 -4.93763 3.05251 0
M  V30 2205 H 215.784 -0.871609 2.86746 0
M  V30 2206 H 213.345 -0.32972 1.58507 0
M  V30 2207 H 215.337 -3.33623 2.2908 0
M  V30 2208 H 213.907 -2.81111 1.36731 0
M  V30 2209 H 213.127 -1.6651 3.57307 0
M  V30 2210 H 214.415 -2.56377 4.39486 0
M  V30 2211 H 213.813 -5.09209 2.46419 0
M  V30 2212 H 212.37 -5.68949 3.18026 0
M  V30 2213 N 215.803 -1.52179 -0.40978 0
M  V30 2214 C 217.052 -1.65434 -1.15388 0
M  V30 2215 C 217.365 -0.390056 -1.91671 0
M  V30 2216 O 218.571 -0.402399 -2.68501 0
M  V30 2217 C 217.027 -2.92279 -2.10003 0
M  V30 2218 C 216.635 -4.25813 -1.39239 0
M  V30 2219 C 218.379 -3.14897 -2.84675 0
M  V30 2220 C 216.286 -5.43782 -2.32498 0
M  V30 2221 H 215.216 -0.616267 -0.434432 0
M  V30 2222 H 217.867 -1.78666 -0.418401 0
M  V30 2223 H 216.249 -2.72744 -2.871 0
M  V30 2224 H 217.423 -4.55828 -0.675099 0
M  V30 2225 H 215.738 -4.09292 -0.766097 0
M  V30 2226 H 218.335 -4.0021 -3.54593 0
M  V30 2227 H 218.678 -2.29103 -3.47588 0
M  V30 2228 H 219.211 -3.34901 -2.14677 0
M  V30 2229 H 215.95 -6.3192 -1.74233 0
M  V30 2230 H 215.47 -5.18106 -3.02201 0
M  V30 2231 H 217.149 -5.76834 -2.93038 0
M  V30 2232 N 217.281 0.66697 -1.42791 0
M  V30 2233 C 218.692 1.2478 -1.38877 0
M  V30 2234 C 219.043 1.96012 -0.0859426 0
M  V30 2235 O 218.168 2.00463 0.815081 0
M  V30 2236 C 218.763 2.26938 -2.51564 0
M  V30 2237 C 217.322 2.80529 -2.50959 0
M  V30 2238 C 216.469 1.54965 -2.29959 0
M  V30 2239 H 219.42 0.459853 -1.51892 0
M  V30 2240 H 219.441 3.08834 -2.22265 0
M  V30 2241 H 218.953 1.75065 -3.46372 0
M  V30 2242 H 217.054 3.36502 -1.59991 0
M  V30 2243 H 217.167 3.29012 -3.48265 0
M  V30 2244 H 215.531 1.81817 -1.78366 0
M  V30 2245 H 216.314 1.05047 -3.26833 0
M  V30 2246 N 218.759 1.29093 0.90403 0
M  V30 2247 C 219.984 1.19809 1.69294 0
M  V30 2248 C 220.409 -0.238481 1.86582 0
M  V30 2249 O 219.767 -1.1723 1.383 0
M  V30 2250 C 219.815 1.91202 3.05736 0
M  V30 2251 O 218.919 1.22611 3.93752 0
M  V30 2252 H 218.26 0.415385 0.518027 0
M  V30 2253 H 220.79 1.70586 1.12967 0
M  V30 2254 H 220.8 1.99487 3.55906 0
M  V30 2255 H 219.475 2.95692 2.92471 0
M  V30 2256 H 218.052 1.22554 3.52186 0
M  V30 2257 N 220.237 -1.11381 1.11499 0
M  V30 2258 C 221.167 -2.19509 0.796125 0
M  V30 2259 C 222.148 -1.68458 -0.235796 0
M  V30 2260 O 223.333 -1.93947 -0.0991344 0
M  V30 2261 C 220.463 -3.46475 0.239205 0
M  V30 2262 C 219.417 -4.10744 1.20307 0
M  V30 2263 C 218.743 -5.32293 0.50683 0
M  V30 2264 C 220.043 -4.55597 2.55399 0
M  V30 2265 H 221.737 -2.46439 1.70024 0
M  V30 2266 H 219.283 -1.18446 0.818935 0
M  V30 2267 H 221.236 -4.214 0.00392006 0
M  V30 2268 H 219.96 -3.19006 -0.700206 0
M  V30 2269 H 218.619 -3.37813 1.42399 0
M  V30 2270 H 218.267 -5.01095 -0.437408 0
M  V30 2271 H 217.967 -5.76243 1.1497 0
M  V30 2272 H 219.491 -6.09956 0.280351 0
M  V30 2273 H 220.905 -5.21841 2.37391 0
M  V30 2274 H 219.302 -5.10363 3.15673 0
M  V30 2275 H 220.372 -3.69013 3.14575 0
M  V30 2276 N 221.715 -0.905404 -1.28997 0
M  V30 2277 C 222.94 -0.549175 -1.99997 0
M  V30 2278 C 223.365 0.860276 -1.67275 0
M  V30 2279 O 222.723 1.57355 -0.900502 0
M  V30 2280 C 222.771 -0.755185 -3.52604 0
M  V30 2281 O 221.875 0.189692 -4.11964 0
M  V30 2282 H 221.216 -0.213899 -0.628604 0
M  V30 2283 H 223.746 -1.21856 -1.64354 0
M  V30 2284 H 223.756 -0.662045 -4.02593 0
M  V30 2285 H 222.431 -1.78271 -3.75755 0
M  V30 2286 H 221.008 0.0485257 -3.72868 0
M  V30 2287 N 223.193 1.4272 -0.668489 0
M  V30 2288 C 224.604 1.84793 -0.266151 0
M  V30 2289 C 224.955 1.55959 1.19043 0
M  V30 2290 O 224.08 1.01622 1.91055 0
M  V30 2291 C 224.675 3.35436 -0.476271 0
M  V30 2292 C 223.234 3.76182 -0.128113 0
M  V30 2293 C 222.381 2.66344 -0.771777 0
M  V30 2294 H 225.332 1.32656 -0.871098 0
M  V30 2295 H 225.353 3.79515 0.273561 0
M  V30 2296 H 224.865 3.5639 -1.53647 0
M  V30 2297 H 222.966 3.60836 0.928891 0
M  V30 2298 H 223.079 4.75766 -0.564231 0
M  V30 2299 H 221.443 2.53885 -0.203652 0
M  V30 2300 H 222.226 2.90123 -1.83531 0
M  V30 2301 N 224.671 0.411399 1.52136 0
M  V30 2302 C 225.896 -0.165538 2.06738 0
M  V30 2303 C 226.321 -1.379 1.27926 0
M  V30 2304 O 225.679 -1.78628 0.310114 0
M  V30 2305 C 225.727 -0.492124 3.57226 0
M  V30 2306 O 224.831 -1.58276 3.80818 0
M  V30 2307 H 224.172 -0.0132132 0.663869 0
M  V30 2308 H 226.702 0.585253 1.96051 0
M  V30 2309 H 226.712 -0.750104 4.01045 0
M  V30 2310 H 225.387 0.394922 4.14021 0
M  V30 2311 H 223.964 -1.31677 3.48877 0
M  V30 2312 N 226.149 -1.5696 0.141893 0
M  V30 2313 C 227.081 -2.13619 -0.830627 0
M  V30 2314 C 228.094 -1.08439 -1.21428 0
M  V30 2315 O 229.283 -1.35734 -1.15925 0
M  V30 2316 C 226.383 -2.63978 -2.12529 0
M  V30 2317 C 225.556 -3.93504 -1.9098 0
M  V30 2318 C 224.615 -4.29225 -3.04388 0
M  V30 2319 O 223.641 -4.97641 -2.76302 0
M  V30 2320 N 224.843 -3.88393 -4.31429 0
M  V30 2321 H 227.608 -2.97691 -0.34641 0
M  V30 2322 H 225.169 -1.61846 -0.0418375 0
M  V30 2323 H 227.161 -2.84891 -2.87436 0
M  V30 2324 H 225.731 -1.84659 -2.52229 0
M  V30 2325 H 224.951 -3.81269 -1.00139 0
M  V30 2326 H 226.239 -4.78154 -1.73914 0
M  V30 2327 H 225.637 -3.33257 -4.57117 0
M  V30 2328 H 224.194 -4.14368 -5.03133 0
M  V30 2329 N 227.627 0.131896 -1.57047 0
M  V30 2330 C 229.038 0.690407 -1.73465 0
M  V30 2331 C 229.389 1.8094 -0.758629 0
M  V30 2332 O 228.514 2.16282 0.0713813 0
M  V30 2333 C 229.109 1.25916 -3.14532 0
M  V30 2334 C 227.668 1.76409 -3.32501 0
M  V30 2335 C 226.815 0.658579 -2.69366 0
M  V30 2336 H 229.766 -0.0939144 -1.58422 0
M  V30 2337 H 229.787 2.12892 -3.15369 0
M  V30 2338 H 229.299 0.444515 -3.85546 0
M  V30 2339 H 227.4 2.60391 -2.66509 0
M  V30 2340 H 227.513 1.88241 -4.4057 0
M  V30 2341 H 225.877 1.08899 -2.30246 0
M  V30 2342 H 226.66 -0.14487 -3.42994 0
M  V30 2343 N 229.106 1.52395 0.401703 0
M  V30 2344 C 230.352 1.68019 1.14635 0
M  V30 2345 C 230.707 0.408722 1.88009 0
M  V30 2346 O 230 -0.597133 1.82057 0
M  V30 2347 C 230.194 2.84578 2.16217 0
M  V30 2348 C 230.023 4.22938 1.5282 0
M  V30 2349 C 228.793 4.88352 1.29772 0
M  V30 2350 C 230.991 5.04778 0.985094 0
M  V30 2351 N 228.973 6.10726 0.623455 0
M  V30 2352 C 230.344 6.1845 0.438172 0
M  V30 2353 C 232.399 4.90057 0.880275 0
M  V30 2354 C 231.102 7.19013 -0.203306 0
M  V30 2355 C 233.128 5.9086 0.252639 0
M  V30 2356 C 232.49 7.03829 -0.283573 0
M  V30 2357 H 228.589 0.668413 0.405892 0
M  V30 2358 H 231.173 1.89717 0.437674 0
M  V30 2359 H 229.344 2.64483 2.84435 0
M  V30 2360 H 231.076 2.89202 2.83098 0
M  V30 2361 H 227.831 4.46846 1.56926 0
M  V30 2362 H 228.255 6.76323 0.302733 0
M  V30 2363 H 232.897 4.02938 1.28065 0
M  V30 2364 H 230.615 8.05751 -0.615726 0
M  V30 2365 H 234.201 5.81543 0.172954 0
M  V30 2366 H 233.081 7.80493 -0.761575 0
M  V30 2367 N 230.584 -0.659388 1.43143 0
M  V30 2368 C 231.516 -1.7849 1.43784 0
M  V30 2369 C 232.529 -1.5932 0.334787 0
M  V30 2370 O 233.718 -1.68155 0.598842 0
M  V30 2371 C 230.818 -3.15828 1.22906 0
M  V30 2372 C 229.991 -3.61711 2.45934 0
M  V30 2373 C 229.05 -4.77831 2.20371 0
M  V30 2374 O 228.076 -4.87586 2.93681 0
M  V30 2375 N 229.278 -5.67611 1.21647 0
M  V30 2376 H 232.043 -1.7842 2.40803 0
M  V30 2377 H 229.604 -0.84302 1.3822 0
M  V30 2378 H 231.596 -3.91189 1.03697 0
M  V30 2379 H 230.166 -3.10707 0.343542 0
M  V30 2380 H 229.386 -2.76861 2.80609 0
M  V30 2381 H 230.674 -3.89112 3.27825 0
M  V30 2382 H 230.072 -5.62397 0.610449 0
M  V30 2383 H 228.629 -6.42719 1.08423 0
M  V30 2384 N 232.062 -1.29571 -0.897171 0
M  V30 2385 C 233.478 -1.07637 -1.17841 0
M  V30 2386 C 233.678 0.170713 -2.00776 0
M  V30 2387 O 232.734 0.867768 -2.3712 0
M  V30 2388 C 234.047 -2.3332 -1.8969 0
M  V30 2389 C 235.595 -2.38664 -2.02505 0
M  V30 2390 C 236.07 -3.64157 -2.77765 0
M  V30 2391 N 237.561 -3.64894 -2.85318 0
M  V30 2392 C 238.296 -4.58679 -3.44094 0
M  V30 2393 N 237.792 -5.62799 -4.04017 0
M  V30 2394 N 239.585 -4.46245 -3.41793 0
M  V30 2395 H 231.736 -2.09598 -0.343883 0
M  V30 2396 H 233.999 -0.923333 -0.214848 0
M  V30 2397 H 233.705 -3.24262 -1.36187 0
M  V30 2398 H 233.579 -2.41025 -2.9015 0
M  V30 2399 H 235.966 -1.48208 -2.55183 0
M  V30 2400 H 236.047 -2.34943 -1.01171 0
M  V30 2401 H 235.691 -4.54965 -2.25763 0
M  V30 2402 H 235.621 -3.65137 -3.7945 0
M  V30 2403 H 238.112 -2.89613 -2.42761 0
M  V30 2404 H 238.425 -6.3048 -4.46895 0
M  V30 2405 H 236.77 -5.66605 -4.02472 0
M  V30 2406 H 239.961 -3.64094 -2.94199 0
M  V30 2407 H 240.134 -5.19518 -3.87304 0
M  V30 2408 N 233.54 1.10788 -1.12088 0
M  V30 2409 C 234.47 2.19083 -0.807755 0
M  V30 2410 C 235.451 1.6858 0.226859 0
M  V30 2411 O 236.636 1.93997 0.0888475 0
M  V30 2412 C 233.766 3.46344 -0.257576 0
M  V30 2413 C 232.72 4.101 -1.22483 0
M  V30 2414 C 232.046 5.32016 -0.535052 0
M  V30 2415 C 233.346 4.54236 -2.57811 0
M  V30 2416 H 235.04 2.45534 -1.71328 0
M  V30 2417 H 232.586 1.1801 -0.825205 0
M  V30 2418 H 234.539 4.21392 -0.0262679 0
M  V30 2419 H 233.263 3.19373 0.683278 0
M  V30 2420 H 231.922 3.37054 -1.44189 0
M  V30 2421 H 231.57 5.01319 0.410827 0
M  V30 2422 H 231.27 5.75625 -1.18024 0
M  V30 2423 H 232.794 6.09799 -0.312695 0
M  V30 2424 H 234.208 5.20575 -2.40155 0
M  V30 2425 H 232.605 5.08682 -3.18375 0
M  V30 2426 H 233.675 3.6734 -3.16528 0
M  V30 2427 N 235.018 0.912232 1.28515 0
M  V30 2428 C 235.948 0.416403 2.29757 0
M  V30 2429 C 236.929 -0.515194 1.6211 0
M  V30 2430 O 238.114 -0.423253 1.89532 0
M  V30 2431 C 235.244 -0.34572 3.45575 0
M  V30 2432 C 234.198 0.496599 4.25109 0
M  V30 2433 C 233.524 -0.393771 5.33248 0
M  V30 2434 C 234.824 1.75307 4.92001 0
M  V30 2435 H 236.518 1.26249 2.7148 0
M  V30 2436 H 234.064 0.608515 1.30511 0
M  V30 2437 H 236.017 -0.703422 4.15488 0
M  V30 2438 H 234.741 -1.2257 3.02728 0
M  V30 2439 H 233.4 0.8368 3.56922 0
M  V30 2440 H 233.048 -1.27225 4.86644 0
M  V30 2441 H 232.748 0.166209 5.87365 0
M  V30 2442 H 234.272 -0.747389 6.06009 0
M  V30 2443 H 235.686 1.46437 5.54283 0
M  V30 2444 H 234.083 2.25534 5.56106 0
M  V30 2445 H 235.153 2.48176 4.16577 0
M  V30 2446 N 236.496 -1.42363 0.676048 0
M  V30 2447 C 237.426 -2.33497 0.0124832 0
M  V30 2448 C 238.407 -1.50748 -0.787981 0
M  V30 2449 O 239.592 -1.79346 -0.744884 0
M  V30 2450 C 236.722 -3.34377 -0.938582 0
M  V30 2451 C 235.676 -4.27289 -0.246622 0
M  V30 2452 C 235.002 -5.18386 -1.31071 0
M  V30 2453 C 236.302 -5.14916 0.875125 0
M  V30 2454 H 237.996 -2.89233 0.773593 0
M  V30 2455 H 235.542 -1.39073 0.37346 0
M  V30 2456 H 237.495 -3.97044 -1.41188 0
M  V30 2457 H 236.219 -2.76947 -1.73113 0
M  V30 2458 H 234.878 -3.66018 0.206456 0
M  V30 2459 H 234.526 -4.57282 -2.09528 0
M  V30 2460 H 234.226 -5.81378 -0.852839 0
M  V30 2461 H 235.75 -5.83929 -1.78492 0
M  V30 2462 H 237.164 -5.71262 0.482983 0
M  V30 2463 H 235.561 -5.86747 1.25887 0
M  V30 2464 H 236.631 -4.53242 1.72335 0
M  V30 2465 N 237.974 -0.419461 -1.51915 0
M  V30 2466 C 239.39 -0.0708431 -1.59443 0
M  V30 2467 C 239.59 1.41796 -1.43164 0
M  V30 2468 O 238.646 2.18596 -1.26381 0
M  V30 2469 C 239.959 -0.574991 -2.95151 0
M  V30 2470 C 241.507 -0.533867 -3.08413 0
M  V30 2471 C 241.982 -1.01469 -4.46618 0
M  V30 2472 N 243.473 -0.971939 -4.52888 0
M  V30 2473 C 244.208 -1.31505 -5.58116 0
M  V30 2474 N 243.704 -1.73014 -6.70849 0
M  V30 2475 N 245.497 -1.23436 -5.48379 0
M  V30 2476 H 237.648 -1.38836 -1.60743 0
M  V30 2477 H 239.911 -0.570998 -0.756747 0
M  V30 2478 H 239.617 -1.61597 -3.12377 0
M  V30 2479 H 239.491 0.00979777 -3.77199 0
M  V30 2480 H 241.878 0.498086 -2.90866 0
M  V30 2481 H 241.959 -1.15484 -2.28248 0
M  V30 2482 H 241.603 -2.04502 -4.6491 0
M  V30 2483 H 241.533 -0.370433 -5.25295 0
M  V30 2484 H 244.024 -0.666893 -3.71969 0
M  V30 2485 H 244.337 -1.97479 -7.47143 0
M  V30 2486 H 242.682 -1.76926 -6.72103 0
M  V30 2487 H 245.873 -0.908869 -4.59192 0
M  V30 2488 H 246.046 -1.50506 -6.30279 0
M  V30 2489 N 239.452 1.56882 -0.150215 0
M  V30 2490 C 240.699 1.96228 0.500093 0
M  V30 2491 C 241.027 1.03522 1.64661 0
M  V30 2492 O 240.282 0.0650683 1.95592 0
M  V30 2493 C 240.581 3.41801 1.04437 0
M  V30 2494 C 240.247 4.50897 0.0159671 0
M  V30 2495 C 238.909 4.8046 -0.266731 0
M  V30 2496 C 241.261 5.16703 -0.683192 0
M  V30 2497 C 238.589 5.73135 -1.25434 0
M  V30 2498 C 240.941 6.10441 -1.65964 0
M  V30 2499 C 239.605 6.38382 -1.95 0
M  V30 2500 H 238.875 0.718048 0.182997 0
M  V30 2501 H 241.522 1.90019 -0.237724 0
M  V30 2502 H 239.827 3.44857 1.85959 0
M  V30 2503 H 241.524 3.69573 1.55618 0
M  V30 2504 H 238.114 4.27891 0.246485 0
M  V30 2505 H 242.298 4.93993 -0.477983 0
M  V30 2506 H 237.554 5.93074 -1.48571 0
M  V30 2507 H 241.728 6.60507 -2.20689 0
M  V30 2508 H 239.355 7.09996 -2.71679 0
M  V30 2509 N 240.93 -0.123565 1.57115 0
M  V30 2510 C 241.877 -1.15177 2.00007 0
M  V30 2511 C 242.847 -1.41403 0.871454 0
M  V30 2512 O 244.032 -1.53346 1.13533 0
M  V30 2513 C 241.172 -2.47436 2.40561 0
M  V30 2514 C 240.285 -2.28184 3.66819 0
M  V30 2515 C 239.42 -3.53641 3.96373 0
M  V30 2516 C 238.459 -3.29528 5.15827 0
M  V30 2517 N 237.596 -4.47175 5.41275 0
M  V30 2518 H 242.436 -0.779008 2.87638 0
M  V30 2519 H 239.973 -0.373166 1.42288 0
M  V30 2520 H 241.931 -3.24584 2.62109 0
M  V30 2521 H 240.561 -2.82614 1.55978 0
M  V30 2522 H 239.613 -1.41976 3.52912 0
M  V30 2523 H 240.925 -2.0634 4.5412 0
M  V30 2524 H 240.079 -4.39209 4.18545 0
M  V30 2525 H 238.818 -3.78512 3.07538 0
M  V30 2526 H 237.823 -2.42349 4.93505 0
M  V30 2527 H 239.048 -3.06031 6.06236 0
M  V30 2528 H 236.994 -4.72175 4.55397 0
M  V30 2529 H 236.911 -4.28419 6.22891 0
M  V30 2530 H 238.179 -5.3389 5.67963 0
M  V30 2531 N 242.408 -1.52605 -0.393616 0
M  V30 2532 C 243.657 -1.66649 -1.13627 0
M  V30 2533 C 243.97 -0.410364 -1.91247 0
M  V30 2534 O 245.176 -0.430854 -2.68059 0
M  V30 2535 C 243.632 -2.9449 -2.06891 0
M  V30 2536 C 243.24 -4.27266 -1.34714 0
M  V30 2537 C 244.984 -3.17899 -2.81319 0
M  V30 2538 C 242.891 -5.46217 -2.26717 0
M  V30 2539 H 241.821 -0.62084 -0.427871 0
M  V30 2540 H 244.472 -1.791 -0.399428 0
M  V30 2541 H 242.854 -2.75774 -2.84191 0
M  V30 2542 H 244.028 -4.56518 -0.626714 0
M  V30 2543 H 242.343 -4.10081 -0.722643 0
M  V30 2544 H 244.94 -4.03949 -3.50328 0
M  V30 2545 H 245.283 -2.32777 -3.45139 0
M  V30 2546 H 245.816 -3.37159 -2.11113 0
M  V30 2547 H 242.555 -6.33733 -1.67521 0
M  V30 2548 H 242.075 -5.21283 -2.96689 0
M  V30 2549 H 243.754 -5.7991 -2.86903 0
M  V30 2550 N 243.887 0.651787 -1.4349 0
M  V30 2551 C 244.817 1.77621 -1.51569 0
M  V30 2552 C 245.798 1.66022 -0.370253 0
M  V30 2553 O 246.983 1.85095 -0.587658 0
M  V30 2554 C 244.113 3.16056 -1.43966 0
M  V30 2555 C 243.067 3.4242 -2.56774 0
M  V30 2556 C 242.393 4.8067 -2.34223 0
M  V30 2557 C 243.693 3.37023 -3.99015 0
M  V30 2558 H 245.387 1.71117 -2.45681 0
M  V30 2559 H 242.933 0.821825 -1.18246 0
M  V30 2560 H 244.886 3.94472 -1.48221 0
M  V30 2561 H 243.61 3.23293 -0.463586 0
M  V30 2562 H 242.269 2.66375 -2.51873 0
M  V30 2563 H 241.917 4.84585 -1.34856 0
M  V30 2564 H 241.617 4.9927 -3.09844 0
M  V30 2565 H 243.141 5.61342 -2.40265 0
M  V30 2566 H 244.555 4.05374 -4.05395 0
M  V30 2567 H 242.952 3.67159 -4.74673 0
M  V30 2568 H 244.022 2.3518 -4.2405 0
M  V30 2569 N 245.365 1.30045 0.890287 0
M  V30 2570 C 246.781 1.08261 1.17268 0
M  V30 2571 C 246.981 -0.160063 2.00863 0
M  V30 2572 O 246.037 -0.855181 2.37577 0
M  V30 2573 C 247.35 2.34323 1.8845 0
M  V30 2574 C 248.898 2.39735 2.01237 0
M  V30 2575 C 249.373 3.65625 2.7583 0
M  V30 2576 N 250.864 3.66402 2.83379 0
M  V30 2577 C 251.599 4.60498 3.41657 0
M  V30 2578 N 251.095 5.64933 4.01026 0
M  V30 2579 N 252.888 4.48051 3.39421 0
M  V30 2580 H 245.039 2.09777 0.332762 0
M  V30 2581 H 247.302 0.92446 0.209948 0
M  V30 2582 H 247.008 3.2498 1.34465 0
M  V30 2583 H 246.882 2.4256 2.88867 0
M  V30 2584 H 249.269 1.4956 2.54393 0
M  V30 2585 H 249.35 2.35476 0.999232 0
M  V30 2586 H 248.994 4.56156 2.23347 0
M  V30 2587 H 248.924 3.67144 3.77509 0
M  V30 2588 H 251.415 2.90896 2.41222 0
M  V30 2589 H 251.728 6.32841 4.43545 0
M  V30 2590 H 250.073 5.68732 3.99461 0
M  V30 2591 H 253.264 3.65649 2.92264 0
M  V30 2592 H 253.437 5.21565 3.84544 0
M  V30 2593 N 246.843 -1.10192 1.12674 0
M  V30 2594 C 248.068 -1.86523 0.906853 0
M  V30 2595 C 248.493 -1.80221 -0.538711 0
M  V30 2596 O 247.851 -1.17396 -1.38158 0
M  V30 2597 C 247.899 -3.32758 1.3894 0
M  V30 2598 O 247.003 -4.08449 0.5695 0
M  V30 2599 H 246.344 -0.578678 0.325619 0
M  V30 2600 H 248.874 -1.39203 1.49946 0
M  V30 2601 H 248.884 -3.83608 1.38958 0
M  V30 2602 H 247.559 -3.36661 2.44197 0
M  V30 2603 H 246.136 -3.67427 0.636528 0
M  V30 2604 N 248.321 -0.919034 -1.28029 0
M  V30 2605 C 249.251 -0.428581 -2.29533 0
M  V30 2606 C 250.232 0.50659 -1.62381 0
M  V30 2607 O 251.417 0.413195 -1.89753 0
M  V30 2608 C 248.547 0.327388 -3.45753 0
M  V30 2609 C 247.501 -0.519137 -4.2484 0
M  V30 2610 C 246.827 0.365486 -5.33449 0
M  V30 2611 C 248.127 -1.77914 -4.91064 0
M  V30 2612 H 249.821 -1.27687 -2.70807 0
M  V30 2613 H 247.367 -0.615428 -1.30186 0
M  V30 2614 H 249.32 0.681378 -4.15855 0
M  V30 2615 H 248.044 1.20963 -3.03374 0
M  V30 2616 H 246.703 -0.855717 -3.56473 0
M  V30 2617 H 246.351 1.24642 -4.87312 0
M  V30 2618 H 246.051 -0.197356 -5.87268 0
M  V30 2619 H 247.575 0.715241 -6.06396 0
M  V30 2620 H 248.989 -1.49374 -5.53498 0
M  V30 2621 H 247.386 -2.2848 -5.54903 0
M  V30 2622 H 248.456 -2.50382 -4.15255 0
M  V30 2623 N 249.799 1.42003 -0.683588 0
M  V30 2624 C 250.731 2.29183 0.0283068 0
M  V30 2625 C 251.744 1.4415 0.756611 0
M  V30 2626 O 252.933 1.67779 0.609306 0
M  V30 2627 C 250.033 3.21765 1.06398 0
M  V30 2628 C 249.206 4.35496 0.407723 0
M  V30 2629 C 248.265 5.08737 1.34437 0
M  V30 2630 O 247.291 5.62948 0.841318 0
M  V30 2631 N 248.493 5.15075 2.67728 0
M  V30 2632 H 251.258 2.9092 -0.720105 0
M  V30 2633 H 248.819 1.53025 -0.528682 0
M  V30 2634 H 250.811 3.6763 1.69204 0
M  V30 2635 H 249.381 2.61418 1.71404 0
M  V30 2636 H 248.601 3.92165 -0.400012 0
M  V30 2637 H 249.889 5.08776 -0.0490956 0
M  V30 2638 H 249.287 4.72457 3.11129 0
M  V30 2639 H 247.844 5.64556 3.2576 0
M  V30 2640 N 251.277 0.427512 1.51691 0
M  V30 2641 C 252.24 -0.377132 2.26076 0
M  V30 2642 C 253.24 -0.958089 1.29141 0
M  V30 2643 O 254.43 -0.83408 1.52934 0
M  V30 2644 C 251.562 -1.53262 3.04506 0
M  V30 2645 H 252.755 0.27464 2.9864 0
M  V30 2646 H 250.308 0.180445 1.55255 0
M  V30 2647 H 251.043 -2.22072 2.36335 0
M  V30 2648 H 250.828 -1.12232 3.75694 0
M  V30 2649 H 252.318 -2.10135 3.60878 0
M  V30 2650 N 252.755 -1.56801 0.158532 0
M  V30 2651 C 254.002 -1.9649 -0.489679 0
M  V30 2652 C 254.33 -1.04394 -1.6411 0
M  V30 2653 O 253.585 -0.0754401 -1.95555 0
M  V30 2654 C 253.884 -3.4235 -1.02623 0
M  V30 2655 C 253.55 -4.50899 0.00794526 0
M  V30 2656 C 252.212 -4.80312 0.292207 0
M  V30 2657 C 254.564 -5.16333 0.710584 0
M  V30 2658 C 251.892 -5.72461 1.28472 0
M  V30 2659 C 254.244 -6.09553 1.69199 0
M  V30 2660 C 252.908 -6.37339 1.98383 0
M  V30 2661 H 252.178 -0.719009 -0.179186 0
M  V30 2662 H 254.825 -1.8989 0.247798 0
M  V30 2663 H 253.13 -3.45838 -1.84128 0
M  V30 2664 H 254.827 -3.70393 -1.53656 0
M  V30 2665 H 251.417 -4.28015 -0.22379 0
M  V30 2666 H 255.601 -4.93732 0.504174 0
M  V30 2667 H 250.857 -5.92278 1.51714 0
M  V30 2668 H 255.031 -6.59327 2.24189 0
M  V30 2669 H 252.658 -7.08546 2.7544 0
M  V30 2670 N 254.233 0.115231 -1.57178 0
M  V30 2671 C 255.479 0.82357 -1.85325 0
M  V30 2672 C 255.812 1.79349 -0.744814 0
M  V30 2673 O 255.087 1.92899 0.249024 0
M  V30 2674 C 255.37 1.57014 -3.24066 0
M  V30 2675 C 255.223 0.619565 -4.45513 0
M  V30 2676 C 256.542 2.52545 -3.60429 0
M  V30 2677 H 253.661 0.297948 -0.674089 0
M  V30 2678 H 256.303 0.0877138 -1.89797 0
M  V30 2679 H 254.453 2.19742 -3.20383 0
M  V30 2680 H 256.125 0.000837639 -4.613 0
M  V30 2681 H 254.368 -0.0686174 -4.33746 0
M  V30 2682 H 255.039 1.17866 -5.3927 0
M  V30 2683 H 257.515 1.9992 -3.64926 0
M  V30 2684 H 256.391 3.01811 -4.58477 0
M  V30 2685 H 256.652 3.35383 -2.88047 0
M  V30 2686 N 255.711 1.52812 0.385517 0
M  V30 2687 C 256.674 1.77188 1.45386 0
M  V30 2688 C 257.674 0.641953 1.4743 0
M  V30 2689 O 258.864 0.910033 1.4854 0
M  V30 2690 C 255.996 1.87582 2.8465 0
M  V30 2691 H 257.189 2.72583 1.25054 0
M  V30 2692 H 254.742 1.43586 0.617467 0
M  V30 2693 H 255.477 0.941849 3.10322 0
M  V30 2694 H 255.262 2.69748 2.84567 0
M  V30 2695 H 256.752 2.08102 3.62054 0
M  V30 2696 N 257.189 -0.644168 1.43834 0
M  V30 2697 C 258.435 -1.40603 1.46146 0
M  V30 2698 C 258.768 -1.93997 0.0887717 0
M  V30 2699 O 258.043 -1.72854 -0.891724 0
M  V30 2700 C 258.326 -2.58086 2.51124 0
M  V30 2701 C 258.179 -2.10126 3.97702 0
M  V30 2702 C 259.498 -3.60291 2.52742 0
M  V30 2703 H 256.617 -0.509905 0.532134 0
M  V30 2704 H 259.259 -0.729502 1.75437 0
M  V30 2705 H 257.409 -3.15801 2.26278 0
M  V30 2706 H 259.081 -1.57342 4.33637 0
M  V30 2707 H 257.324 -1.41419 4.10101 0
M  V30 2708 H 257.995 -2.94649 4.66783 0
M  V30 2709 H 260.471 -3.12352 2.7491 0
M  V30 2710 H 259.347 -4.40032 3.28121 0
M  V30 2711 H 259.608 -4.1349 1.56455 0
M  V30 2712 N 258.668 -1.30515 -0.883378 0
M  V30 2713 C 259.631 -1.1701 -1.97082 0
M  V30 2714 C 260.631 -0.10089 -1.60483 0
M  V30 2715 O 261.821 -0.349127 -1.70666 0
M  V30 2716 C 258.953 -0.793045 -3.31547 0
M  V30 2717 H 260.146 -2.13622 -2.10489 0
M  V30 2718 H 257.699 -1.13935 -1.06998 0
M  V30 2719 H 258.434 0.172499 -3.23841 0
M  V30 2720 H 258.219 -1.56576 -3.5948 0
M  V30 2721 H 259.709 -0.722073 -4.1131 0
M  V30 2722 N 260.146 1.09593 -1.13257 0
M  V30 2723 C 261.109 2.14359 -0.811358 0
M  V30 2724 C 262.109 1.59808 0.178377 0
M  V30 2725 O 263.299 1.74132 -0.0484911 0
M  V30 2726 C 260.431 3.40269 -0.207276 0
M  V30 2727 H 261.624 2.44284 -1.73969 0
M  V30 2728 H 259.177 1.25102 -0.936973 0
M  V30 2729 H 259.912 3.15969 0.73036 0
M  V30 2730 H 259.697 3.81154 -0.919992 0
M  V30 2731 H 261.187 4.176 0.000667944 0
M  V30 2732 N 261.624 0.925811 1.2754 0
M  V30 2733 C 263.04 0.625767 1.46821 0
M  V30 2734 C 263.24 -0.825506 1.83814 0
M  V30 2735 O 262.296 -1.60356 1.95044 0
M  V30 2736 C 263.609 1.57402 2.56213 0
M  V30 2737 C 265.157 1.58204 2.70075 0
M  V30 2738 C 265.632 2.51721 3.82623 0
M  V30 2739 N 267.123 2.49917 3.89994 0
M  V30 2740 C 267.858 3.18968 4.76494 0
M  V30 2741 N 267.354 3.97391 5.67496 0
M  V30 2742 N 269.147 3.07996 4.70208 0
M  V30 2743 H 261.298 1.86409 1.01811 0
M  V30 2744 H 263.561 0.800213 0.508295 0
M  V30 2745 H 263.267 2.60925 2.35819 0
M  V30 2746 H 263.141 1.31428 3.53563 0
M  V30 2747 H 265.528 0.554124 2.89851 0
M  V30 2748 H 265.609 1.88226 1.73218 0
M  V30 2749 H 265.253 3.54622 3.63601 0
M  V30 2750 H 265.183 2.18996 4.78903 0
M  V30 2751 H 267.674 1.9296 3.24923 0
M  V30 2752 H 267.987 4.4707 6.30356 0
M  V30 2753 H 266.332 4.01495 5.67298 0
M  V30 2754 H 269.523 2.46223 3.9811 0
M  V30 2755 H 269.696 3.6208 5.37403 0
M  V30 2756 N 263.102 -1.41638 0.69111 0
M  V30 2757 C 264.348 -2.01598 0.220519 0
M  V30 2758 C 264.681 -1.54594 -1.17535 0
M  V30 2759 O 263.956 -0.755177 -1.79241 0
M  V30 2760 C 264.239 -3.59062 0.273243 0
M  V30 2761 C 264.092 -4.16203 1.70573 0
M  V30 2762 C 265.411 -4.38546 -0.369457 0
M  V30 2763 H 262.53 -0.732468 0.0816045 0
M  V30 2764 H 265.172 -1.68445 0.878986 0
M  V30 2765 H 263.322 -3.87435 -0.287411 0
M  V30 2766 H 264.994 -3.98722 2.31989 0
M  V30 2767 H 263.237 -3.71414 2.2413 0
M  V30 2768 H 263.908 -5.25358 1.69419 0
M  V30 2769 H 266.384 -4.1596 0.107977 0
M  V30 2770 H 265.26 -5.48069 -0.302002 0
M  V30 2771 H 265.521 -4.17662 -1.44951 0
M  V30 2772 N 264.58 -0.43555 -1.51462 0
M  V30 2773 C 265.827 0.131514 -2.02072 0
M  V30 2774 C 266.155 1.42868 -1.31981 0
M  V30 2775 O 265.41 1.91076 -0.422883 0
M  V30 2776 C 265.709 0.39942 -3.55161 0
M  V30 2777 C 265.375 -0.81172 -4.43533 0
M  V30 2778 C 264.037 -1.14387 -4.67407 0
M  V30 2779 C 266.389 -1.61976 -4.95392 0
M  V30 2780 C 263.717 -2.28477 -5.40384 0
M  V30 2781 C 266.069 -2.75164 -5.6962 0
M  V30 2782 C 264.733 -3.08835 -5.91758 0
M  V30 2783 H 264.003 0.0481244 -0.739436 0
M  V30 2784 H 266.65 -0.58238 -1.8243 0
M  V30 2785 H 264.955 1.19519 -3.73125 0
M  V30 2786 H 266.652 0.85157 -3.91854 0
M  V30 2787 H 263.242 -0.542898 -4.25148 0
M  V30 2788 H 267.426 -1.37637 -4.76833 0
M  V30 2789 H 262.682 -2.5488 -5.55739 0
M  V30 2790 H 266.856 -3.38147 -6.08793 0
M  V30 2791 H 264.483 -3.97353 -6.48086 0
M  V30 2792 N 266.058 1.56714 -0.166846 0
M  V30 2793 C 267.021 2.16539 0.751232 0
M  V30 2794 C 268.021 1.11228 1.16125 0
M  V30 2795 O 269.211 1.36765 1.07894 0
M  V30 2796 C 266.343 2.74462 2.02196 0
M  V30 2797 H 267.536 2.99013 0.230499 0
M  V30 2798 H 265.089 1.56081 0.0826982 0
M  V30 2799 H 265.824 1.95709 2.58589 0
M  V30 2800 H 265.609 3.51527 1.73698 0
M  V30 2801 H 267.099 3.20489 2.67725 0
M  V30 2802 N 267.536 -0.106894 1.57237 0
M  V30 2803 C 268.486 -1.1366 1.9765 0
M  V30 2804 C 269.47 -1.36416 0.853203 0
M  V30 2805 O 270.662 -1.37305 1.11697 0
M  V30 2806 C 267.791 -2.46 2.39455 0
M  V30 2807 C 266.877 -2.26668 3.58445 0
M  V30 2808 N 267.268 -1.77176 4.73754 0
M  V30 2809 C 265.566 -2.57279 3.64312 0
M  V30 2810 C 266.267 -1.71836 5.5574 0
M  V30 2811 N 265.243 -2.16623 4.98573 0
M  V30 2812 H 269.045 -0.74669 2.84256 0
M  V30 2813 H 266.559 -0.314483 1.59326 0
M  V30 2814 H 268.556 -3.2049 2.6663 0
M  V30 2815 H 267.216 -2.85738 1.54219 0
M  V30 2816 H 268.227 -1.46545 4.96734 0
M  V30 2817 H 264.904 -3.00622 2.89711 0
M  V30 2818 H 266.294 -1.34723 6.58255 0
M  V30 2819 N 269.014 -1.53014 -0.377408 0
M  V30 2820 C 270.262 -1.6829 -1.11906 0
M  V30 2821 C 270.583 -0.431206 -1.90173 0
M  V30 2822 O 269.853 0.554595 -1.87886 0
M  V30 2823 H 268.433 -0.620371 -0.416112 0
M  V30 2824 H 271.095 -1.90167 -0.426893 0
M  V30 2825 H 270.191 -2.53862 -1.8155 0
M  V30 2826 N 270.492 0.636531 -1.44174 0
M  V30 2827 C 271.455 1.73063 -1.50273 0
M  V30 2828 C 272.455 1.56113 -0.385397 0
M  V30 2829 O 273.645 1.61707 -0.64781 0
M  V30 2830 C 270.777 3.12096 -1.37145 0
M  V30 2831 H 271.97 1.69031 -2.47727 0
M  V30 2832 H 269.523 0.849706 -1.31186 0
M  V30 2833 H 270.258 3.21728 -0.407636 0
M  V30 2834 H 270.043 3.25805 -2.18159 0
M  V30 2835 H 271.533 3.91846 -1.44382 0
M  V30 2836 N 271.97 1.30982 0.876444 0
M  V30 2837 C 272.933 1.18054 1.96459 0
M  V30 2838 C 273.933 0.109399 1.60427 0
M  V30 2839 O 275.123 0.358173 1.70478 0
M  V30 2840 C 272.255 0.810616 3.31122 0
M  V30 2841 H 273.448 2.14735 2.09354 0
M  V30 2842 H 271.001 1.145 1.06392 0
M  V30 2843 H 271.736 -0.155322 3.23928 0
M  V30 2844 H 271.521 1.58481 3.58645 0
M  V30 2845 H 273.011 0.743876 4.10921 0
M  V30 2846 N 273.449 -1.08991 1.13837 0
M  V30 2847 C 274.677 -1.85011 0.926202 0
M  V30 2848 C 275.092 -1.8135 -0.525127 0
M  V30 2849 O 274.449 -1.21287 -1.36366 0
M  V30 2850 C 274.5 -3.32802 1.41155 0
M  V30 2851 O 274.221 -3.36444 2.80601 0
M  V30 2852 C 275.722 -4.25649 1.23847 0
M  V30 2853 H 272.942 -0.584249 0.32999 0
M  V30 2854 H 275.486 -1.37688 1.51202 0
M  V30 2855 H 273.641 -3.77536 0.868631 0
M  V30 2856 H 274.055 -4.28657 3.02248 0
M  V30 2857 H 275.529 -5.27485 1.62675 0
M  V30 2858 H 276.006 -4.38828 0.18065 0
M  V30 2859 H 276.612 -3.86735 1.76964 0
M  V30 2860 N 274.927 -0.932562 -1.27047 0
M  V30 2861 C 275.857 -0.452902 -2.29066 0
M  V30 2862 C 276.838 0.489338 -1.62909 0
M  V30 2863 O 278.023 0.393046 -1.90181 0
M  V30 2864 C 275.153 0.290698 -3.46081 0
M  V30 2865 C 274.107 -0.564168 -4.24265 0
M  V30 2866 C 273.433 0.308886 -5.33807 0
M  V30 2867 C 274.733 -1.83112 -4.89149 0
M  V30 2868 H 276.427 -1.30552 -2.69437 0
M  V30 2869 H 273.973 -0.629201 -1.29526 0
M  V30 2870 H 275.926 0.637233 -4.16554 0
M  V30 2871 H 274.65 1.17738 -3.0464 0
M  V30 2872 H 273.309 -0.893477 -3.55545 0
M  V30 2873 H 272.957 1.19467 -4.88607 0
M  V30 2874 H 272.657 -0.259633 -5.87026 0
M  V30 2875 H 274.181 0.650884 -6.07121 0
M  V30 2876 H 275.595 -1.55236 -5.51883 0
M  V30 2877 H 273.992 -2.34353 -5.52448 0
M  V30 2878 H 275.062 -2.54772 -4.12576 0
M  V30 2879 N 276.405 1.4127 -0.698611 0
M  V30 2880 C 277.63 2.06024 -0.238512 0
M  V30 2881 C 278.055 1.5224 1.10475 0
M  V30 2882 O 277.413 0.650623 1.69223 0
M  V30 2883 C 277.461 3.59988 -0.209952 0
M  V30 2884 O 276.565 4.04282 0.814235 0
M  V30 2885 H 275.906 0.653829 -0.115775 0
M  V30 2886 H 278.436 1.8098 -0.954326 0
M  V30 2887 H 278.446 4.07979 -0.0418436 0
M  V30 2888 H 277.121 3.98503 -1.1903 0
M  V30 2889 H 275.698 3.6779 0.615234 0
M  V30 2890 N 277.883 0.443576 1.51229 0
M  V30 2891 C 279.294 -0.0180867 1.86691 0
M  V30 2892 C 279.645 -1.41384 1.36033 0
M  V30 2893 O 278.77 -2.04291 0.713722 0
M  V30 2894 C 279.365 -0.039597 3.38777 0
M  V30 2895 C 277.924 -0.445692 3.73752 0
M  V30 2896 C 277.071 0.357584 2.74985 0
M  V30 2897 H 280.022 0.659138 1.44364 0
M  V30 2898 H 280.043 -0.847761 3.70936 0
M  V30 2899 H 279.555 0.976382 3.75617 0
M  V30 2900 H 277.656 -1.46704 3.42503 0
M  V30 2901 H 277.769 -0.166155 4.78812 0
M  V30 2902 H 276.133 -0.184973 2.54027 0
M  V30 2903 H 276.916 1.37256 3.14668 0
M  V30 2904 O 279.4 -1.58373 0.316273 0
M  V30 2905 H 280.091 -1.92143 -0.24513 0
M  V30 END ATOM
M  V30 BEGIN BOND
M  V30 END BOND
M  V30 END CTAB
M  END
$$$$
