drugbank_target|Q9UL51 Potassium/sodium hyperpolarization-activated cyclic nucleotide-gated channel 2 (DB02315; DB02527; DB09083)
 OpenBabel12092120563D

  0  0  0     0  0            999 V3000
M  V30 BEGIN CTAB
M  V30 COUNTS 13619 13820 0 0 0
M  V30 BEGIN ATOM
M  V30 1 H -0.908 1.98254 -0.117106 0
M  V30 2 N 0 1.576 0 0
M  V30 3 C 0.933 2.03868 1.02534 0
M  V30 4 C 1.911 0.928543 1.3348 0
M  V30 5 O 3.095 1.19667 1.45644 0
M  V30 6 C 0.222 2.43627 2.35294 0
M  V30 7 C -0.732 3.65373 2.2001 0
M  V30 8 S 0.101 5.13292 1.52614 0
M  V30 9 C 1.257 5.56322 2.86805 0
M  V30 10 H 1.49 2.90518 0.631377 0
M  V30 11 H -0.977 1.52953 0.210867 0
M  V30 12 H 0.981 2.67203 3.11629 0
M  V30 13 H -0.358 1.57376 2.7183 0
M  V30 14 H -1.165 3.90944 3.18086 0
M  V30 15 H -1.563 3.418 1.51819 0
M  V30 16 H 0.729 5.58782 3.83104 0
M  V30 17 H 1.672 6.56266 2.65933 0
M  V30 18 H 2.08 4.83886 2.90714 0
M  V30 19 N 1.4781 -0.272755 1.55222 0
M  V30 20 C 2.7551 -1.02562 1.66555 0
M  V30 21 C 3.1351 -2.04282 0.532189 0
M  V30 22 O 2.4831 -2.23662 -0.467717 0
M  V30 23 C 2.6931 -1.6822 3.05782 0
M  V30 24 C 4.0411 -2.19373 3.63539 0
M  V30 25 O 5.0651 -1.78206 3.08417 0
M  V30 26 O 3.9241 -2.94883 4.60115 0
M  V30 27 H 1.0181 -0.475755 0.676451 0
M  V30 28 H 3.5641 -0.268593 1.67561 0
M  V30 29 H 2.3361 -0.945112 3.79715 0
M  V30 30 H 1.9591 -2.50609 3.08676 0
M  V30 31 N 2.9562 -1.48159 -0.537278 0
M  V30 32 C 3.9192 -1.61665 -1.62472 0
M  V30 33 C 4.9192 -0.490395 -1.5314 0
M  V30 34 O 6.1092 -0.755998 -1.5694 0
M  V30 35 C 3.2412 -1.57997 -3.02076 0
M  V30 36 H 4.4342 -2.58621 -1.51839 0
M  V30 37 H 1.9872 -1.36647 -0.758771 0
M  V30 38 H 2.7222 -0.624913 -3.18222 0
M  V30 39 H 2.5072 -2.39755 -3.10258 0
M  V30 40 H 3.9972 -1.70627 -3.81151 0
M  V30 41 N 4.4343 0.785586 -1.36625 0
M  V30 42 C 5.8503 1.08419 -1.17122 0
M  V30 43 C 6.0503 2.015 0.00208491 0
M  V30 44 O 5.1063 2.43551 0.666278 0
M  V30 45 C 6.4193 1.69498 -2.48377 0
M  V30 46 C 7.9673 1.81821 -2.54775 0
M  V30 47 C 8.4423 2.46315 -3.86126 0
M  V30 48 N 9.9333 2.53779 -3.87492 0
M  V30 49 C 10.6683 3.045 -4.85868 0
M  V30 50 N 10.1643 3.55499 -5.94637 0
M  V30 51 N 11.9573 3.03247 -4.73284 0
M  V30 52 H 4.1083 0.167264 -2.1174 0
M  V30 53 H 6.3713 0.13682 -0.938075 0
M  V30 54 H 6.0773 1.08571 -3.34522 0
M  V30 55 H 5.9513 2.6896 -2.64462 0
M  V30 56 H 8.3383 2.41884 -1.69045 0
M  V30 57 H 8.4193 0.811532 -2.42586 0
M  V30 58 H 8.0633 1.86895 -4.72263 0
M  V30 59 H 7.9933 3.47561 -3.95612 0
M  V30 60 H 10.4843 2.17672 -3.08913 0
M  V30 61 H 10.7973 3.92562 -6.65669 0
M  V30 62 H 9.1423 3.5364 -5.98301 0
M  V30 63 H 12.3333 2.62696 -3.87438 0
M  V30 64 H 12.5063 3.42467 -5.50109 0
M  V30 65 N 5.9124 1.20967 1.01018 0
M  V30 66 C 7.1604 1.02172 1.74371 0
M  V30 67 C 7.4814 -0.446414 1.89821 0
M  V30 68 O 6.7514 -1.32234 1.44537 0
M  V30 69 H 5.3314 0.375066 0.646014 0
M  V30 70 H 7.9934 1.52187 1.21758 0
M  V30 71 H 7.0894 1.48538 2.74487 0
M  V30 72 N 7.3905 -1.2043 1.01659 0
M  V30 73 C 8.6385 -1.89423 0.704522 0
M  V30 74 C 8.9595 -1.79231 -0.768197 0
M  V30 75 O 8.2295 -1.1947 -1.55254 0
M  V30 76 H 6.8095 -0.701178 0.257602 0
M  V30 77 H 9.4715 -1.4626 1.28818 0
M  V30 78 H 8.5675 -2.96052 0.987916 0
M  V30 79 N 8.8686 -0.792821 -1.36206 0
M  V30 80 C 10.1166 -0.366062 -1.98757 0
M  V30 81 C 10.4376 1.0668 -1.63231 0
M  V30 82 O 9.7076 1.73587 -0.907978 0
M  V30 83 H 8.2876 -0.132364 -0.735179 0
M  V30 84 H 10.9496 -1.01562 -1.66347 0
M  V30 85 H 10.0456 -0.460638 -3.08682 0
M  V30 86 N 10.3467 1.47872 -0.545128 0
M  V30 87 C 11.5947 2.02093 -0.016553 0
M  V30 88 C 11.9157 1.42305 1.3332 0
M  V30 89 O 11.1857 0.593853 1.86682 0
M  V30 90 H 9.7657 0.746993 -0.00313038 0
M  V30 91 H 12.4277 1.81414 -0.712397 0
M  V30 92 H 11.5237 3.11996 0.0805422 0
M  V30 93 N 11.8248 0.280983 1.55075 0
M  V30 94 C 13.2408 -0.0729964 1.59433 0
M  V30 95 C 13.4408 -1.5411 1.29817 0
M  V30 96 O 12.4968 -2.29086 1.06187 0
M  V30 97 C 13.8098 0.306921 2.9913 0
M  V30 98 C 15.3578 0.254023 3.11968 0
M  V30 99 C 15.8328 0.608467 4.5394 0
M  V30 100 N 17.3238 0.560241 4.59799 0
M  V30 101 C 18.0588 0.80722 5.6769 0
M  V30 102 N 17.5548 1.11912 6.83701 0
M  V30 103 N 19.3478 0.735623 5.57266 0
M  V30 104 H 11.4988 1.238 1.7259 0
M  V30 105 H 13.7618 0.500547 0.805082 0
M  V30 106 H 13.4678 1.32816 3.25657 0
M  V30 107 H 13.3418 -0.349363 3.75579 0
M  V30 108 H 15.7288 -0.75794 2.852 0
M  V30 109 H 15.8098 0.944649 2.37718 0
M  V30 110 H 15.4538 1.61814 4.81434 0
M  V30 111 H 15.3838 -0.104013 5.26497 0
M  V30 112 H 17.8748 0.329288 3.76463 0
M  V30 113 H 18.1878 1.29409 7.61888 0
M  V30 114 H 16.5328 1.15695 6.85303 0
M  V30 115 H 19.7238 0.491752 4.6551 0
M  V30 116 H 19.8968 0.931482 6.4127 0
M  V30 117 N 13.3029 -1.57598 0.00835791 0
M  V30 118 C 14.7139 -1.7892 -0.53333 0
M  V30 119 C 15.0649 -0.916609 -1.73473 0
M  V30 120 O 14.1899 -0.121336 -2.1606 0
M  V30 121 C 14.7849 -3.24488 -0.974313 0
M  V30 122 C 13.3439 -3.46878 -1.46125 0
M  V30 123 C 12.4909 -2.74157 -0.416302 0
M  V30 124 H 15.4419 -1.56958 0.234495 0
M  V30 125 H 15.4629 -3.3306 -1.83988 0
M  V30 126 H 14.9749 -3.87972 -0.099718 0
M  V30 127 H 13.0759 -2.8862 -2.35646 0
M  V30 128 H 13.1889 -4.55572 -1.48295 0
M  V30 129 H 11.5529 -2.39022 -0.87981 0
M  V30 130 H 12.3359 -3.40345 0.44947 0
M  V30 131 N 14.781 0.264519 -1.55364 0
M  V30 132 C 16.029 0.993021 -1.76021 0
M  V30 133 C 16.35 1.86511 -0.569099 0
M  V30 134 O 15.62 1.91438 0.415735 0
M  V30 135 H 14.2 0.369639 -0.649135 0
M  V30 136 H 16.862 0.286707 -1.9278 0
M  V30 137 H 15.958 1.62502 -2.66457 0
M  V30 138 N 16.2591 1.48442 0.529413 0
M  V30 139 C 17.1691 1.6569 1.66084 0
M  V30 140 C 18.1851 0.539432 1.65427 0
M  V30 141 O 19.3611 0.810572 1.84368 0
M  V30 142 C 16.4261 1.69315 3.02545 0
M  V30 143 C 15.4871 2.92694 3.14052 0
M  V30 144 C 14.7201 2.96137 4.44003 0
M  V30 145 O 14.9431 2.07973 5.31134 0
M  V30 146 O 13.8771 3.88312 4.59888 0
M  V30 147 H 17.7031 2.61483 1.54469 0
M  V30 148 H 15.2881 1.3185 0.702567 0
M  V30 149 H 17.1701 1.74217 3.83701 0
M  V30 150 H 15.8451 0.766966 3.14483 0
M  V30 151 H 14.7521 2.93324 2.32189 0
M  V30 152 H 16.0851 3.84699 3.0703 0
M  V30 153 N 17.7372 -0.778329 1.37039 0
M  V30 154 C 18.9622 -1.57248 1.35233 0
M  V30 155 C 19.3872 -1.87999 -0.0615568 0
M  V30 156 O 18.7452 -1.48734 -1.03672 0
M  V30 157 C 18.7932 -2.86353 2.19167 0
M  V30 158 O 17.8972 -3.80442 1.59178 0
M  V30 159 H 17.2382 -0.476569 0.462362 0
M  V30 160 H 19.7682 -0.963853 1.80474 0
M  V30 161 H 19.7782 -3.35519 2.32145 0
M  V30 162 H 18.4532 -2.63299 3.21942 0
M  V30 163 H 17.0302 -3.39067 1.55203 0
M  V30 164 N 19.2153 -1.21501 -1.00376 0
M  V30 165 C 20.6263 -1.03146 -1.55621 0
M  V30 166 C 20.9773 0.408375 -1.91903 0
M  V30 167 O 20.1023 1.29177 -1.73616 0
M  V30 168 C 20.6973 -1.86612 -2.82775 0
M  V30 169 C 19.2563 -1.72586 -3.34501 0
M  V30 170 C 18.4033 -1.83747 -2.07683 0
M  V30 171 H 21.3543 -1.35505 -0.826081 0
M  V30 172 H 21.3753 -1.3771 -3.54706 0
M  V30 173 H 20.8873 -2.91399 -2.56336 0
M  V30 174 H 18.9883 -0.704877 -3.65872 0
M  V30 175 H 19.1013 -2.54623 -4.05837 0
M  V30 176 H 17.4653 -1.27069 -2.20739 0
M  V30 177 H 18.2483 -2.90044 -1.83655 0
M  V30 178 N 20.6934 1.19889 -1.02296 0
M  V30 179 C 21.9414 1.89046 -0.714558 0
M  V30 180 C 22.2624 1.79636 0.758681 0
M  V30 181 O 21.5324 1.20292 1.54618 0
M  V30 182 H 20.1124 0.699802 -0.261317 0
M  V30 183 H 22.7744 1.45574 -1.29592 0
M  V30 184 H 21.8704 2.95524 -1.0036 0
M  V30 185 N 22.1715 0.800033 1.35784 0
M  V30 186 C 23.1345 0.211565 2.28221 0
M  V30 187 C 24.1345 -0.59728 1.49296 0
M  V30 188 O 25.3245 -0.416721 1.69142 0
M  V30 189 C 22.4565 -0.705846 3.33513 0
M  V30 190 H 23.6495 1.02677 2.81776 0
M  V30 191 H 21.2025 0.570211 1.45528 0
M  V30 192 H 21.9375 -1.54498 2.85133 0
M  V30 193 H 21.7225 -0.127655 3.91892 0
M  V30 194 H 23.2125 -1.11211 4.02519 0
M  V30 195 N 23.6496 -1.47581 0.552962 0
M  V30 196 C 24.8776 -2.06875 0.0320556 0
M  V30 197 C 25.2926 -1.40625 -1.25976 0
M  V30 198 O 24.6496 -0.501349 -1.75479 0
M  V30 199 C 24.7006 -3.61092 -0.17167 0
M  V30 200 O 24.4216 -4.24858 1.06899 0
M  V30 201 C 25.9226 -4.37242 -0.730344 0
M  V30 202 H 23.1426 -0.669561 0.043915 0
M  V30 203 H 25.6866 -1.89646 0.765163 0
M  V30 204 H 23.8416 -3.7785 -0.854894 0
M  V30 205 H 24.2556 -5.17334 0.864059 0
M  V30 206 H 25.7296 -5.45842 -0.822203 0
M  V30 207 H 26.2066 -4.03235 -1.74064 0
M  V30 208 H 26.8126 -4.25219 -0.0829543 0
M  V30 209 N 25.1277 -0.289203 -1.54924 0
M  V30 210 C 26.5387 0.205791 -1.85562 0
M  V30 211 C 26.8897 1.54351 -1.2112 0
M  V30 212 O 26.0147 2.10435 -0.504601 0
M  V30 213 C 26.6097 0.380177 -3.3666 0
M  V30 214 C 25.1687 0.819395 -3.67373 0
M  V30 215 C 24.3157 -0.079159 -2.77187 0
M  V30 216 H 27.2667 -0.510577 -1.50262 0
M  V30 217 H 27.2877 1.21659 -3.60526 0
M  V30 218 H 26.7997 -0.593589 -3.83534 0
M  V30 219 H 24.9007 1.80413 -3.26009 0
M  V30 220 H 25.0137 0.646957 -4.74712 0
M  V30 221 H 23.3777 0.439565 -2.50878 0
M  V30 222 H 24.1607 -1.04906 -3.26878 0
M  V30 223 N 26.6058 1.57591 -0.0167156 0
M  V30 224 C 27.5688 2.08393 0.954204 0
M  V30 225 C 28.5688 0.996531 1.26198 0
M  V30 226 O 29.7588 1.25858 1.20438 0
M  V30 227 C 26.8908 2.5394 2.27436 0
M  V30 228 H 28.0838 2.95455 0.514451 0
M  V30 229 H 25.6368 1.54582 0.231089 0
M  V30 230 H 26.3718 1.70171 2.76066 0
M  V30 231 H 26.1568 3.33371 2.06412 0
M  V30 232 H 27.6468 2.93512 2.97053 0
M  V30 233 N 28.0839 -0.256276 1.55502 0
M  V30 234 C 29.4949 -0.826068 1.67431 0
M  V30 235 C 29.8459 -1.86396 0.612446 0
M  V30 236 O 28.9709 -2.15031 -0.243025 0
M  V30 237 C 29.5659 -1.50512 3.03532 0
M  V30 238 C 28.1249 -2.02273 3.17431 0
M  V30 239 C 27.2719 -0.870548 2.63281 0
M  V30 240 H 30.2229 -0.0322728 1.58667 0
M  V30 241 H 30.2439 -2.37279 2.97454 0
M  V30 242 H 29.7559 -0.749484 3.80794 0
M  V30 243 H 27.8569 -2.80746 2.44974 0
M  V30 244 H 27.9699 -2.22655 4.24219 0
M  V30 245 H 26.3339 -1.26851 2.20864 0
M  V30 246 H 27.1169 -0.128149 3.43061 0
M  V30 247 N 29.562 -1.4872 -0.521534 0
M  V30 248 C 30.81 -1.56857 -1.27437 0
M  V30 249 C 31.131 -0.247982 -1.93417 0
M  V30 250 O 30.401 0.731151 -1.81744 0
M  V30 251 H 28.981 -0.577885 -0.473347 0
M  V30 252 H 31.643 -1.85233 -0.606205 0
M  V30 253 H 30.739 -2.35402 -2.0492 0
M  V30 254 N 31.0401 0.771051 -1.3745 0
M  V30 255 C 32.4511 1.34737 -1.29239 0
M  V30 256 C 32.8021 1.96109 0.0596908 0
M  V30 257 O 31.9271 1.93865 0.961534 0
M  V30 258 C 32.5221 2.44973 -2.34037 0
M  V30 259 C 31.0811 2.98372 -2.29458 0
M  V30 260 C 30.2281 1.71595 -2.17831 0
M  V30 261 H 33.1791 0.571256 -1.48062 0
M  V30 262 H 33.2001 3.24471 -1.98744 0
M  V30 263 H 32.7121 2.00276 -3.32432 0
M  V30 264 H 30.8131 3.47443 -1.34589 0
M  V30 265 H 30.9261 3.53939 -3.229 0
M  V30 266 H 29.2901 1.94547 -1.64388 0
M  V30 267 H 30.0731 1.29001 -3.18141 0
M  V30 268 N 32.5182 1.22032 0.997298 0
M  V30 269 C 33.9292 1.0397 1.55071 0
M  V30 270 C 34.2802 -0.398192 1.92117 0
M  V30 271 O 33.4052 -1.28254 1.74298 0
M  V30 272 C 34.0002 1.88109 2.81781 0
M  V30 273 C 32.5592 1.74357 3.33581 0
M  V30 274 C 31.7062 1.84846 2.06706 0
M  V30 275 H 34.6572 1.35941 0.818883 0
M  V30 276 H 34.6782 1.39589 3.53971 0
M  V30 277 H 34.1902 2.92754 2.54787 0
M  V30 278 H 32.2912 0.72427 3.65493 0
M  V30 279 H 32.4042 2.56772 4.04481 0
M  V30 280 H 30.7682 1.28238 2.20062 0
M  V30 281 H 31.5512 2.91014 1.82114 0
M  V30 282 N 33.9963 -1.19345 1.0293 0
M  V30 283 C 35.4073 -1.70725 0.755633 0
M  V30 284 C 35.7583 -1.82326 -0.724676 0
M  V30 285 O 34.8833 -1.49471 -1.56484 0
M  V30 286 C 35.4783 -3.10084 1.36503 0
M  V30 287 C 34.0373 -3.58723 1.13994 0
M  V30 288 C 33.1843 -2.35577 1.46283 0
M  V30 289 H 36.1353 -1.0418 1.19718 0
M  V30 290 H 36.1563 -3.72787 0.762217 0
M  V30 291 H 35.6683 -3.01609 2.44241 0
M  V30 292 H 33.7693 -3.72512 0.0807901 0
M  V30 293 H 33.8823 -4.42816 1.82894 0
M  V30 294 H 32.2463 -2.38935 0.88217 0
M  V30 295 H 33.0293 -2.29731 2.55105 0
M  V30 296 N 35.4744 -0.807222 -1.35358 0
M  V30 297 C 36.8854 -0.44876 -1.81226 0
M  V30 298 C 37.2364 1.02929 -1.67033 0
M  V30 299 O 36.3614 1.79991 -1.20133 0
M  V30 300 C 36.9564 -0.807774 -3.2903 0
M  V30 301 C 35.5154 -0.501901 -3.73039 0
M  V30 302 C 34.6624 -1.03304 -2.57339 0
M  V30 303 H 37.6134 -0.998808 -1.23327 0
M  V30 304 H 37.6344 -0.10554 -3.80354 0
M  V30 305 H 37.1464 -1.88357 -3.39328 0
M  V30 306 H 35.2474 0.565128 -3.68289 0
M  V30 307 H 35.3604 -1.03497 -4.67787 0
M  V30 308 H 33.7244 -0.455339 -2.50597 0
M  V30 309 H 34.5074 -2.11496 -2.70415 0
M  V30 310 N 36.9525 1.47285 -0.560781 0
M  V30 311 C 38.3635 1.86258 -0.128343 0
M  V30 312 C 38.7145 1.46699 1.30284 0
M  V30 313 O 37.8395 0.871698 1.98067 0
M  V30 314 C 38.4345 3.38044 -0.22614 0
M  V30 315 C 36.9935 3.76096 0.151283 0
M  V30 316 C 36.1405 2.71335 -0.572084 0
M  V30 317 H 39.0915 1.38752 -0.770297 0
M  V30 318 H 39.1125 3.76441 0.554322 0
M  V30 319 H 38.6245 3.66806 -1.26788 0
M  V30 320 H 36.7255 3.52951 1.19399 0
M  V30 321 H 36.8385 4.78641 -0.209765 0
M  V30 322 H 35.2025 2.54696 -0.0147653 0
M  V30 323 H 35.9855 3.02938 -1.61504 0
M  V30 324 N 38.4306 0.297415 1.54768 0
M  V30 325 C 39.8416 -0.195947 1.85669 0
M  V30 326 C 40.1926 -1.53707 1.21937 0
M  V30 327 O 39.3176 -2.10164 0.515754 0
M  V30 328 C 39.9126 -0.362318 3.36857 0
M  V30 329 C 38.4716 -0.799901 3.67802 0
M  V30 330 C 37.6186 0.0938578 2.77141 0
M  V30 331 H 40.5696 0.518538 1.4999 0
M  V30 332 H 40.5906 -1.19745 3.61167 0
M  V30 333 H 40.1026 0.613921 3.83214 0
M  V30 334 H 38.2036 -1.78682 3.26961 0
M  V30 335 H 38.3166 -0.621773 4.75048 0
M  V30 336 H 36.6806 -0.426254 2.51108 0
M  V30 337 H 37.4636 1.06639 3.26318 0
M  V30 338 N 39.9087 -1.5758 0.0250728 0
M  V30 339 C 41.3197 -1.79476 -0.514323 0
M  V30 340 C 41.6707 -0.934956 -1.72491 0
M  V30 341 O 40.7957 -0.144245 -2.15919 0
M  V30 342 C 41.3907 -3.25503 -0.939842 0
M  V30 343 C 39.9497 -3.48408 -1.42438 0
M  V30 344 C 39.0967 -2.74583 -0.387201 0
M  V30 345 H 42.0477 -1.567 0.25113 0
M  V30 346 H 42.0687 -3.34992 -1.80445 0
M  V30 347 H 41.5807 -3.88056 -0.0585628 0
M  V30 348 H 39.6817 -2.91103 -2.32572 0
M  V30 349 H 39.7947 -4.57119 -1.43455 0
M  V30 350 H 38.1587 -2.39942 -0.854409 0
M  V30 351 H 38.9417 -3.39849 0.485543 0
M  V30 352 N 41.3868 0.248026 -1.55636 0
M  V30 353 C 42.3498 1.29044 -1.89421 0
M  V30 354 C 43.3498 1.41134 -0.770581 0
M  V30 355 O 44.5398 1.39854 -1.03858 0
M  V30 356 C 41.6718 2.66831 -2.12165 0
M  V30 357 H 42.8648 1.00305 -2.82629 0
M  V30 358 H 40.4178 0.487265 -1.48511 0
M  V30 359 H 41.1528 3.00711 -1.21422 0
M  V30 360 H 40.9378 2.59438 -2.93997 0
M  V30 361 H 42.4278 3.42103 -2.3949 0
M  V30 362 N 42.8649 1.48995 0.513639 0
M  V30 363 C 44.2759 1.5119 1.09537 0
M  V30 364 C 44.6269 0.290906 1.94031 0
M  V30 365 O 43.7519 -0.60049 2.07902 0
M  V30 366 C 44.3469 2.73964 1.99322 0
M  V30 367 C 42.9059 2.78978 2.52682 0
M  V30 368 C 42.0529 2.44934 1.30009 0
M  V30 369 H 45.0039 1.55875 0.298125 0
M  V30 370 H 45.0249 2.53409 2.83838 0
M  V30 371 H 44.5369 3.62813 1.37799 0
M  V30 372 H 42.6379 1.94378 3.1788 0
M  V30 373 H 42.7509 3.8083 2.90698 0
M  V30 374 H 41.1149 1.9644 1.62122 0
M  V30 375 H 41.8979 3.36043 0.702131 0
M  V30 376 N 44.343 -0.763751 1.37857 0
M  V30 377 C 45.754 -1.3405 1.29952 0
M  V30 378 C 46.105 -1.96138 -0.0492898 0
M  V30 379 O 45.23 -1.94372 -0.951239 0
M  V30 380 C 45.825 -2.43729 2.35333 0
M  V30 381 C 44.384 -2.97151 2.31037 0
M  V30 382 C 43.531 -1.70438 2.18738 0
M  V30 383 H 46.482 -0.563396 1.48363 0
M  V30 384 H 46.503 -3.23412 2.00462 0
M  V30 385 H 46.015 -1.9851 3.33489 0
M  V30 386 H 44.116 -3.46724 1.3643 0
M  V30 387 H 44.229 -3.52221 3.24772 0
M  V30 388 H 42.593 -1.93673 1.65418 0
M  V30 389 H 43.376 -1.27312 3.18821 0
M  V30 390 N 45.8211 -1.22559 -0.990812 0
M  V30 391 C 46.7531 -0.955325 -2.08342 0
M  V30 392 C 47.7661 0.0668408 -1.62663 0
M  V30 393 O 48.9551 -0.167421 -1.77713 0
M  V30 394 C 46.0551 -0.415566 -3.36342 0
M  V30 395 C 45.2281 -1.49544 -4.11042 0
M  V30 396 C 44.2871 -0.962399 -5.17324 0
M  V30 397 O 43.3131 -1.64907 -5.44788 0
M  V30 398 N 44.5151 0.215134 -5.80101 0
M  V30 399 H 47.2801 -1.89596 -2.32106 0
M  V30 400 H 44.8411 -1.13276 -1.15673 0
M  V30 401 H 46.8331 -0.0442386 -4.04676 0
M  V30 402 H 45.4031 0.430232 -3.09625 0
M  V30 403 H 44.6231 -2.04 -3.37309 0
M  V30 404 H 45.9111 -2.22195 -4.57719 0
M  V30 405 H 45.3091 0.789779 -5.6016 0
M  V30 406 H 43.8661 0.527826 -6.49659 0
M  V30 407 N 47.2992 1.18797 -1.03562 0
M  V30 408 C 48.2312 2.21731 -0.580337 0
M  V30 409 C 49.2442 1.59051 0.347349 0
M  V30 410 O 50.4332 1.77929 0.142669 0
M  V30 411 C 47.5332 3.38459 0.172805 0
M  V30 412 C 46.7062 4.3072 -0.761496 0
M  V30 413 C 45.7652 5.26174 -0.0525547 0
M  V30 414 O 44.7912 5.65108 -0.681333 0
M  V30 415 N 45.9932 5.67624 1.21586 0
M  V30 416 H 48.7582 2.61417 -1.46565 0
M  V30 417 H 46.3192 1.33531 -0.915476 0
M  V30 418 H 48.3112 3.99335 0.656793 0
M  V30 419 H 46.8812 2.97507 0.959602 0
M  V30 420 H 46.1012 3.67525 -1.42544 0
M  V30 421 H 47.3892 4.89267 -1.39626 0
M  V30 422 H 46.7872 5.38038 1.74732 0
M  V30 423 H 45.3442 6.30721 1.64421 0
M  V30 424 N 48.7773 0.814389 1.34928 0
M  V30 425 C 49.7093 0.187834 2.28429 0
M  V30 426 C 50.7223 -0.617374 1.5064 0
M  V30 427 O 51.9113 -0.448454 1.72775 0
M  V30 428 C 49.0113 -0.755962 3.30361 0
M  V30 429 C 48.1843 0.00456686 4.374 0
M  V30 430 C 47.2433 -0.858876 5.19143 0
M  V30 431 O 46.2693 -0.306968 5.68372 0
M  V30 432 N 47.4713 -2.17988 5.38016 0
M  V30 433 H 50.2363 0.991105 2.82838 0
M  V30 434 H 47.7973 0.670561 1.4736 0
M  V30 435 H 49.7893 -1.338 3.81942 0
M  V30 436 H 48.3593 -1.46001 2.7641 0
M  V30 437 H 47.5793 0.767865 3.86649 0
M  V30 438 H 48.8673 0.528422 5.06049 0
M  V30 439 H 48.2653 -2.65212 4.99679 0
M  V30 440 H 46.8223 -2.71098 5.92747 0
M  V30 441 N 50.2554 -1.46986 0.568584 0
M  V30 442 C 51.6664 -1.86188 0.138219 0
M  V30 443 C 52.0174 -1.47388 -1.29504 0
M  V30 444 O 51.1424 -0.88219 -1.97602 0
M  V30 445 C 51.7374 -3.3792 0.244065 0
M  V30 446 C 50.2964 -3.76171 -0.131335 0
M  V30 447 C 49.4434 -2.71027 0.586465 0
M  V30 448 H 52.3944 -1.38342 0.777645 0
M  V30 449 H 52.4154 -3.76729 -0.534351 0
M  V30 450 H 51.9274 -3.66128 1.28731 0
M  V30 451 H 50.0284 -3.5358 -1.17526 0
M  V30 452 H 50.1414 -4.78523 0.235146 0
M  V30 453 H 48.5054 -2.54684 0.0282722 0
M  V30 454 H 49.2884 -3.02077 1.63109 0
M  V30 455 N 51.7335 -0.305618 -1.54608 0
M  V30 456 C 53.1445 0.186098 -1.8577 0
M  V30 457 C 53.4955 1.53058 -1.22751 0
M  V30 458 O 52.6205 2.09888 -0.526893 0
M  V30 459 C 53.2155 0.344449 -3.37044 0
M  V30 460 C 51.7745 0.780384 -3.68221 0
M  V30 461 C 50.9215 -0.108554 -2.77087 0
M  V30 462 H 53.8725 -0.526485 -1.49712 0
M  V30 463 H 53.8935 1.17828 -3.61796 0
M  V30 464 H 53.4055 -0.634235 -3.82883 0
M  V30 465 H 51.5065 1.76945 -3.27904 0
M  V30 466 H 51.6195 0.596572 -4.75371 0
M  V30 467 H 49.9835 0.412931 -2.5133 0
M  V30 468 H 50.7665 -1.08368 -3.25747 0
M  V30 469 N 53.2116 1.57565 -0.0334293 0
M  V30 470 C 54.6226 1.79746 0.504798 0
M  V30 471 C 54.9736 0.944091 1.71992 0
M  V30 472 O 54.0986 0.155694 2.15839 0
M  V30 473 C 54.6936 3.25997 0.922567 0
M  V30 474 C 53.2526 3.49159 1.40588 0
M  V30 475 C 52.3996 2.74785 0.372633 0
M  V30 476 H 55.3506 1.56565 -0.259436 0
M  V30 477 H 55.3716 3.35945 1.78666 0
M  V30 478 H 54.8836 3.88081 0.0379825 0
M  V30 479 H 52.9846 2.92332 2.31025 0
M  V30 480 H 53.0976 4.57873 1.41028 0
M  V30 481 H 51.4616 2.40391 0.841672 0
M  V30 482 H 52.2446 3.39587 -0.503559 0
M  V30 483 N 54.6897 -0.239769 1.55765 0
M  V30 484 C 56.1007 -0.808263 1.68297 0
M  V30 485 C 56.4517 -1.85736 0.632181 0
M  V30 486 O 55.5767 -2.15277 -0.220204 0
M  V30 487 C 56.1717 -1.47284 3.05111 0
M  V30 488 C 54.7307 -1.98895 3.19559 0
M  V30 489 C 53.8777 -0.842575 2.64189 0
M  V30 490 H 56.8287 -0.0154422 1.58692 0
M  V30 491 H 56.8497 -2.34111 2.99954 0
M  V30 492 H 56.3617 -0.709053 3.81568 0
M  V30 493 H 54.4627 -2.78132 2.47938 0
M  V30 494 H 54.5757 -2.18143 4.26556 0
M  V30 495 H 52.9397 -1.24501 2.22197 0
M  V30 496 H 53.7227 -0.0917552 3.43177 0
M  V30 497 N 56.1678 -1.49265 -0.50573 0
M  V30 498 C 57.5788 -1.51769 -1.08734 0
M  V30 499 C 57.9298 -0.301192 -1.93874 0
M  V30 500 O 57.0548 0.589456 -2.08217 0
M  V30 501 C 57.6498 -2.75017 -1.97867 0
M  V30 502 C 56.2088 -2.80314 -2.51199 0
M  V30 503 C 55.3558 -2.4562 -1.28709 0
M  V30 504 H 58.3068 -1.56031 -0.289855 0
M  V30 505 H 58.3278 -2.5491 -2.82491 0
M  V30 506 H 57.8398 -3.63539 -1.35873 0
M  V30 507 H 55.9408 -1.96061 -3.16845 0
M  V30 508 H 56.0538 -3.82366 -2.88675 0
M  V30 509 H 54.4178 -1.97297 -1.61078 0
M  V30 510 H 55.2008 -3.36411 -0.6843 0
M  V30 511 N 57.6459 0.756429 -1.3826 0
M  V30 512 C 59.0569 1.33359 -1.30661 0
M  V30 513 C 59.4079 1.96161 0.0388875 0
M  V30 514 O 58.5329 1.94874 0.940918 0
M  V30 515 C 59.1279 2.42477 -2.36622 0
M  V30 516 C 57.6869 2.95922 -2.3261 0
M  V30 517 C 56.8339 1.69275 -2.19639 0
M  V30 518 H 59.7849 0.55552 -1.4866 0
M  V30 519 H 59.8059 3.22345 -2.02174 0
M  V30 520 H 59.3179 1.96739 -3.34538 0
M  V30 521 H 57.4189 3.45996 -1.38267 0
M  V30 522 H 57.5319 3.50494 -3.26636 0
M  V30 523 H 55.8959 1.92793 -1.66442 0
M  V30 524 H 56.6789 1.25619 -3.19491 0
M  V30 525 N 59.124 1.23083 0.984299 0
M  V30 526 C 60.535 1.05609 1.5396 0
M  V30 527 C 60.886 -0.377793 1.92528 0
M  V30 528 O 60.011 -1.26398 1.75649 0
M  V30 529 C 60.606 1.91087 2.7977 0
M  V30 530 C 59.165 1.77885 3.31713 0
M  V30 531 C 58.312 1.87028 2.04733 0
M  V30 532 H 61.263 1.36802 0.804419 0
M  V30 533 H 61.284 1.43336 3.5247 0
M  V30 534 H 60.796 2.9544 2.51668 0
M  V30 535 H 58.897 0.762995 3.64704 0
M  V30 536 H 59.01 2.61047 4.01735 0
M  V30 537 H 57.374 1.30565 2.18689 0
M  V30 538 H 58.157 2.92929 1.79017 0
M  V30 539 N 60.6021 -1.18246 1.0419 0
M  V30 540 C 61.5651 -2.20128 0.638452 0
M  V30 541 C 62.5651 -1.57885 -0.304805 0
M  V30 542 O 63.7551 -1.73967 -0.0900369 0
M  V30 543 C 60.8871 -3.4084 -0.0637751 0
M  V30 544 H 62.0801 -2.57336 1.54007 0
M  V30 545 H 59.6331 -1.32152 0.834598 0
M  V30 546 H 60.3681 -3.09166 -0.979136 0
M  V30 547 H 60.1531 -3.8726 0.614198 0
M  V30 548 H 61.6431 -4.16274 -0.332512 0
M  V30 549 N 62.0802 -0.821533 -1.34494 0
M  V30 550 C 63.4912 -0.467956 -1.8074 0
M  V30 551 C 63.8422 1.01151 -1.68116 0
M  V30 552 O 62.9672 1.78707 -1.22036 0
M  V30 553 C 63.5622 -0.842627 -3.28154 0
M  V30 554 C 62.1212 -0.541439 -3.72485 0
M  V30 555 C 61.2682 -1.06028 -2.56229 0
M  V30 556 H 64.2192 -1.01183 -1.22261 0
M  V30 557 H 64.2402 -0.145876 -3.8022 0
M  V30 558 H 63.7522 -1.91945 -3.37311 0
M  V30 559 H 61.8532 0.526034 -3.68868 0
M  V30 560 H 61.9662 -1.08453 -4.66663 0
M  V30 561 H 60.3302 -0.481892 -2.501 0
M  V30 562 H 61.1132 -2.14352 -2.68157 0
M  V30 563 N 63.5583 1.46682 -0.576371 0
M  V30 564 C 64.9693 1.86112 -0.148091 0
M  V30 565 C 65.3203 1.48073 1.2872 0
M  V30 566 O 64.4453 0.892656 1.97131 0
M  V30 567 C 65.0403 3.37786 -0.261982 0
M  V30 568 C 63.5993 3.76235 0.111384 0
M  V30 569 C 62.7463 2.70713 -0.60083 0
M  V30 570 H 65.6973 1.37927 -0.78497 0
M  V30 571 H 65.7183 3.77007 0.514364 0
M  V30 572 H 65.2303 3.6544 -1.30671 0
M  V30 573 H 63.3313 3.54198 1.15649 0
M  V30 574 H 63.4443 4.78391 -0.26052 0
M  V30 575 H 61.8083 2.54666 -0.0417783 0
M  V30 576 H 62.5913 3.01208 -1.64708 0
M  V30 577 N 65.0364 0.313813 1.54444 0
M  V30 578 C 66.4474 -0.176243 1.85866 0
M  V30 579 C 66.7984 -1.52405 1.23561 0
M  V30 580 O 65.9234 -2.09605 0.538016 0
M  V30 581 C 66.5184 -0.32657 3.37222 0
M  V30 582 C 65.0774 -0.760846 3.6863 0
M  V30 583 C 64.2244 0.123247 2.77026 0
M  V30 584 H 67.1754 0.534418 1.49431 0
M  V30 585 H 67.1964 -1.15908 3.62416 0
M  V30 586 H 66.7084 0.654531 3.82541 0
M  V30 587 H 64.8094 -1.75204 3.28838 0
M  V30 588 H 64.9224 -0.571353 4.75681 0
M  V30 589 H 63.2864 -0.399597 2.51546 0
M  V30 590 H 64.0694 1.10094 3.25168 0
M  V30 591 N 66.5145 -1.57545 0.0417849 0
M  V30 592 C 67.7625 -1.91937 -0.632829 0
M  V30 593 C 68.0835 -0.919978 -1.71934 0
M  V30 594 O 67.3535 0.0366064 -1.95866 0
M  V30 595 H 65.9335 -0.708493 -0.236742 0
M  V30 596 H 68.5955 -1.9468 0.0925745 0
M  V30 597 H 67.6915 -2.92912 -1.07746 0
M  V30 598 N 67.9926 0.231505 -1.5589 0
M  V30 599 C 69.4036 0.799327 -1.68724 0
M  V30 600 C 69.7546 1.85398 -0.642022 0
M  V30 601 O 68.8796 2.1539 0.208784 0
M  V30 602 C 69.4746 1.45664 -3.05888 0
M  V30 603 C 68.0336 1.97197 -3.20609 0
M  V30 604 C 67.1806 0.828552 -2.64632 0
M  V30 605 H 70.1316 0.00702616 -1.58698 0
M  V30 606 H 70.1526 2.32517 -3.01191 0
M  V30 607 H 69.6646 0.688808 -3.81939 0
M  V30 608 H 67.7656 2.76813 -2.4941 0
M  V30 609 H 67.8786 2.15878 -4.27707 0
M  V30 610 H 66.2426 1.23321 -2.22854 0
M  V30 611 H 67.0256 0.0735544 -3.43221 0
M  V30 612 N 69.4707 1.49531 0.497807 0
M  V30 613 C 70.7187 1.58865 1.24926 0
M  V30 614 C 71.0397 0.278721 1.92998 0
M  V30 615 O 70.3097 -0.702144 1.82885 0
M  V30 616 H 68.8897 0.585343 0.464094 0
M  V30 617 H 71.5517 1.86174 0.57666 0
M  V30 618 H 70.6477 2.38633 2.01149 0
M  V30 619 N 70.9488 -0.749086 1.3866 0
M  V30 620 C 72.3598 -1.32664 1.31366 0
M  V30 621 C 72.7108 -1.96179 -0.028484 0
M  V30 622 O 71.8358 -1.9537 -0.93057 0
M  V30 623 C 72.4308 -2.41219 2.37905 0
M  V30 624 C 70.9898 -2.94684 2.34176 0
M  V30 625 C 70.1368 -1.68108 2.20533 0
M  V30 626 H 73.0878 -0.547628 1.48952 0
M  V30 627 H 73.1088 -3.21268 2.0388 0
M  V30 628 H 72.6208 -1.94962 3.35576 0
M  V30 629 H 70.7218 -3.45258 1.401 0
M  V30 630 H 70.8348 -3.48757 3.2849 0
M  V30 631 H 69.1988 -1.91907 1.67463 0
M  V30 632 H 69.9818 -1.23923 3.20153 0
M  V30 633 N 72.4269 -1.23603 -0.977757 0
M  V30 634 C 73.3899 -1.02069 -2.05218 0
M  V30 635 C 74.3899 0.0184305 -1.60789 0
M  V30 636 O 75.5799 -0.221569 -1.72785 0
M  V30 637 C 72.7119 -0.544926 -3.36517 0
M  V30 638 H 73.9049 -1.9742 -2.25755 0
M  V30 639 H 71.4579 -1.05684 -1.15155 0
M  V30 640 H 72.1929 0.412241 -3.21669 0
M  V30 641 H 71.9779 -1.2948 -3.70105 0
M  V30 642 H 73.4679 -0.414985 -4.15533 0
M  V30 643 N 73.905 1.17692 -1.04816 0
M  V30 644 C 75.316 1.69501 -0.782698 0
M  V30 645 C 75.667 1.83456 0.695577 0
M  V30 646 O 74.792 1.51942 1.54086 0
M  V30 647 C 75.387 3.07874 -1.41419 0
M  V30 648 C 73.946 3.56864 -1.19686 0
M  V30 649 C 73.093 2.3322 -1.50012 0
M  V30 650 H 76.044 1.02262 -1.2136 0
M  V30 651 H 76.065 3.71528 -0.821428 0
M  V30 652 H 75.577 2.97685 -2.49009 0
M  V30 653 H 73.678 3.72337 -0.140043 0
M  V30 654 H 73.791 4.39851 -1.89916 0
M  V30 655 H 72.155 2.37501 -0.920071 0
M  V30 656 H 72.938 2.25644 -2.58727 0
M  V30 657 N 75.3831 0.828654 1.34056 0
M  V30 658 C 76.7941 0.477534 1.8049 0
M  V30 659 C 77.1451 -1.00258 1.6865 0
M  V30 660 O 76.2701 -1.78057 1.22982 0
M  V30 661 C 76.8651 0.860018 3.27703 0
M  V30 662 C 75.4241 0.561185 3.72193 0
M  V30 663 C 74.5711 1.07385 2.55663 0
M  V30 664 H 77.5221 1.0183 1.21722 0
M  V30 665 H 77.5431 0.166038 3.80138 0
M  V30 666 H 77.0551 1.93731 3.36288 0
M  V30 667 H 75.1561 -0.506465 3.69142 0
M  V30 668 H 75.2691 1.10926 4.66082 0
M  V30 669 H 73.6331 0.495149 2.49841 0
M  V30 670 H 74.4161 2.15771 2.67016 0
M  V30 671 N 76.8612 -1.46375 0.584142 0
M  V30 672 C 77.7932 -2.28443 -0.186119 0
M  V30 673 C 78.8062 -1.38596 -0.854115 0
M  V30 674 O 79.9952 -1.63183 -0.723438 0
M  V30 675 C 77.0952 -3.13671 -1.28311 0
M  V30 676 C 76.2682 -4.31652 -0.706758 0
M  V30 677 C 75.3272 -4.98267 -1.69163 0
M  V30 678 O 74.3532 -5.55815 -1.22712 0
M  V30 679 N 75.5552 -4.95408 -3.02575 0
M  V30 680 H 78.3202 -2.9519 0.517986 0
M  V30 681 H 75.8812 -1.56303 0.42201 0
M  V30 682 H 77.8732 -3.55101 -1.94128 0
M  V30 683 H 76.4432 -2.48989 -1.89005 0
M  V30 684 H 75.6632 -3.93989 0.128908 0
M  V30 685 H 76.9512 -5.07906 -0.301506 0
M  V30 686 H 76.3492 -4.49902 -3.42936 0
M  V30 687 H 74.9062 -5.40774 -3.63877 0
M  V30 688 N 78.3393 -0.321999 -1.54275 0
M  V30 689 C 79.2893 0.560185 -2.21011 0
M  V30 690 C 80.2733 1.08283 -1.19011 0
M  V30 691 O 81.4653 1.02011 -1.44647 0
M  V30 692 C 78.5943 1.72137 -2.97025 0
M  V30 693 C 77.6803 1.21369 -4.06363 0
M  V30 694 N 78.0713 0.425566 -5.04007 0
M  V30 695 C 76.3693 1.49255 -4.20284 0
M  V30 696 C 77.0703 0.152601 -5.815 0
M  V30 697 N 76.0463 0.738294 -5.38563 0
M  V30 698 H 79.8483 -0.049265 -2.93859 0
M  V30 699 H 77.3623 -0.127779 -1.61897 0
M  V30 700 H 79.3593 2.36512 -3.43319 0
M  V30 701 H 78.0193 2.33431 -2.25699 0
M  V30 702 H 79.0303 0.068551 -5.17855 0
M  V30 703 H 75.7073 2.11145 -3.60172 0
M  V30 704 H 77.0973 -0.481764 -6.70171 0
M  V30 705 N 79.8174 1.5752 -0.0501392 0
M  V30 706 C 81.2284 1.80271 0.485705 0
M  V30 707 C 81.5794 0.96228 1.70981 0
M  V30 708 O 80.7044 0.178578 2.15662 0
M  V30 709 C 81.2994 3.26957 0.887938 0
M  V30 710 C 79.8584 3.5063 1.36877 0
M  V30 711 C 79.0054 2.75165 0.343468 0
M  V30 712 H 81.9564 1.56281 -0.276028 0
M  V30 713 H 81.9774 3.37821 1.75093 0
M  V30 714 H 81.4894 3.881 -0.0031809 0
M  V30 715 H 79.5904 2.94766 2.27911 0
M  V30 716 H 79.7034 4.59343 1.36164 0
M  V30 717 H 78.0674 2.4127 0.816128 0
M  V30 718 H 78.8504 3.39034 -0.539548 0
M  V30 719 N 81.2955 -0.223234 1.56011 0
M  V30 720 C 82.7065 -0.790368 1.69145 0
M  V30 721 C 83.0575 -1.85055 0.651845 0
M  V30 722 O 82.1825 -2.15498 -0.197359 0
M  V30 723 C 82.7775 -1.4404 3.06656 0
M  V30 724 C 81.3365 -1.95494 3.2165 0
M  V30 725 C 80.4835 -0.814506 2.65068 0
M  V30 726 H 83.4345 0.00139011 1.587 0
M  V30 727 H 83.4555 -2.30916 3.0242 0
M  V30 728 H 82.9675 -0.668543 3.82298 0
M  V30 729 H 81.0685 -2.75487 2.50874 0
M  V30 730 H 81.1815 -2.13607 4.28846 0
M  V30 731 H 79.5455 -1.22137 2.23505 0
M  V30 732 H 80.3285 -0.0553515 3.43255 0
M  V30 733 N 82.7736 -1.49793 -0.48987 0
M  V30 734 C 84.1896 -1.36803 -0.822022 0
M  V30 735 C 84.3896 -0.409652 -1.97292 0
M  V30 736 O 83.4456 0.154614 -2.52026 0
M  V30 737 C 84.7586 -2.77768 -1.15175 0
M  V30 738 C 86.3066 -2.86549 -1.25931 0
M  V30 739 C 86.7816 -4.28306 -1.62228 0
M  V30 740 N 88.2726 -4.31169 -1.69256 0
M  V30 741 C 89.0076 -5.37832 -1.98807 0
M  V30 742 N 88.5036 -6.54726 -2.26507 0
M  V30 743 N 90.2966 -5.25258 -2.00152 0
M  V30 744 H 82.4476 -2.10691 0.268881 0
M  V30 745 H 84.7106 -0.946241 0.057728 0
M  V30 746 H 84.4166 -3.49648 -0.379335 0
M  V30 747 H 84.2906 -3.13836 -2.09253 0
M  V30 748 H 86.6776 -2.14899 -2.02243 0
M  V30 749 H 86.7586 -2.54049 -0.298776 0
M  V30 750 H 86.4026 -5.00486 -0.864622 0
M  V30 751 H 86.3326 -4.58279 -2.594 0
M  V30 752 H 88.8236 -3.4687 -1.49965 0
M  V30 753 H 89.1366 -7.31833 -2.48276 0
M  V30 754 H 87.4816 -6.57933 -2.23939 0
M  V30 755 H 90.6726 -4.32938 -1.77996 0
M  V30 756 H 90.8456 -6.08476 -2.22848 0
M  V30 757 N 84.2517 0.741722 -1.39055 0
M  V30 758 C 85.2147 1.83733 -1.37021 0
M  V30 759 C 86.2147 1.58542 -0.268534 0
M  V30 760 O 87.4047 1.66067 -0.526076 0
M  V30 761 C 84.5367 3.2141 -1.13617 0
M  V30 762 H 85.7297 1.86941 -2.34506 0
M  V30 763 H 83.2827 0.944676 -1.24521 0
M  V30 764 H 84.0177 3.23865 -0.167863 0
M  V30 765 H 83.8027 3.4109 -1.93391 0
M  V30 766 H 85.2927 4.01477 -1.14918 0
M  V30 767 N 85.7298 1.2412 0.971189 0
M  V30 768 C 86.6398 1.04747 2.09917 0
M  V30 769 C 87.6558 -0.0107162 1.73997 0
M  V30 770 O 88.8318 0.186714 2.00533 0
M  V30 771 C 85.8968 0.650828 3.40537 0
M  V30 772 C 84.9578 1.7851 3.90426 0
M  V30 773 C 84.1908 1.40729 5.14812 0
M  V30 774 O 84.4138 0.29557 5.69634 0
M  V30 775 O 83.3478 2.23168 5.58999 0
M  V30 776 H 87.1738 1.99304 2.29154 0
M  V30 777 H 84.7588 1.02908 1.08307 0
M  V30 778 H 86.6408 0.440992 4.19086 0
M  V30 779 H 85.3158 -0.265649 3.22608 0
M  V30 780 H 84.2228 2.04966 3.12953 0
M  V30 781 H 85.5558 2.68023 4.12825 0
M  V30 782 N 87.2079 -1.17134 1.05439 0
M  V30 783 C 88.1709 -2.19439 0.661764 0
M  V30 784 C 89.1709 -1.58199 -0.288042 0
M  V30 785 O 90.3609 -1.74053 -0.0715803 0
M  V30 786 C 87.4929 -3.40889 -0.0276209 0
M  V30 787 H 88.6859 -2.55688 1.56728 0
M  V30 788 H 86.2389 -1.31259 0.848567 0
M  V30 789 H 86.9739 -3.10187 -0.94629 0
M  V30 790 H 86.7589 -3.86586 0.655238 0
M  V30 791 H 88.2489 -4.16603 -0.288342 0
M  V30 792 N 88.686 -0.835752 -1.33615 0
M  V30 793 C 89.616 -0.281739 -2.31794 0
M  V30 794 C 90.597 0.608833 -1.58831 0
M  V30 795 O 91.782 0.533035 -1.86741 0
M  V30 796 C 88.912 0.546612 -3.42971 0
M  V30 797 C 87.866 -0.247904 -4.27281 0
M  V30 798 C 87.192 0.704001 -5.30045 0
M  V30 799 C 88.492 -1.46324 -5.01385 0
M  V30 800 H 90.186 -1.10206 -2.78379 0
M  V30 801 H 87.732 -0.531388 -1.33837 0
M  V30 802 H 89.685 0.944467 -4.1068 0
M  V30 803 H 88.409 1.40011 -2.95067 0
M  V30 804 H 87.068 -0.627281 -3.61194 0
M  V30 805 H 86.716 1.55381 -4.78399 0
M  V30 806 H 86.416 0.176524 -5.87335 0
M  V30 807 H 87.94 1.09944 -6.0062 0
M  V30 808 H 89.354 -1.13871 -5.61877 0
M  V30 809 H 87.751 -1.92728 -5.6831 0
M  V30 810 H 88.821 -2.23467 -4.30338 0
M  V30 811 N 90.1641 1.46063 -0.591896 0
M  V30 812 C 91.5751 1.85944 -0.167822 0
M  V30 813 C 91.9261 1.49429 1.27143 0
M  V30 814 O 91.0511 0.913515 1.96173 0
M  V30 815 C 91.6461 3.37489 -0.297794 0
M  V30 816 C 90.2051 3.76332 0.0714732 0
M  V30 817 C 89.3521 2.7006 -0.629509 0
M  V30 818 H 92.3031 1.37087 -0.799555 0
M  V30 819 H 92.3241 3.77532 0.474349 0
M  V30 820 H 91.8361 3.64034 -1.3454 0
M  V30 821 H 89.9371 3.55405 1.11886 0
M  V30 822 H 90.0501 4.78088 -0.311245 0
M  V30 823 H 88.4141 2.54607 -0.0687867 0
M  V30 824 H 89.1971 2.99444 -1.67894 0
M  V30 825 N 91.6422 0.330177 1.54103 0
M  V30 826 C 93.0532 -0.15652 1.86043 0
M  V30 827 C 93.4042 -1.51086 1.2517 0
M  V30 828 O 92.5292 -2.09023 0.560217 0
M  V30 829 C 93.1242 -0.290784 3.3755 0
M  V30 830 C 91.6832 -0.721705 3.69416 0
M  V30 831 C 90.8302 0.152622 2.7688 0
M  V30 832 H 93.7812 0.550237 1.48856 0
M  V30 833 H 93.8022 -1.12058 3.63625 0
M  V30 834 H 93.3142 0.695068 3.81825 0
M  V30 835 H 91.4152 -1.71706 3.30678 0
M  V30 836 H 91.5282 -0.520869 4.7626 0
M  V30 837 H 89.8922 -0.372894 2.51956 0
M  V30 838 H 90.6752 1.13536 3.23982 0
M  V30 839 N 93.1203 -1.57491 0.0584922 0
M  V30 840 C 94.0303 -2.15448 -0.928414 0
M  V30 841 C 95.0463 -1.11416 -1.3365 0
M  V30 842 O 96.2223 -1.4362 -1.41193 0
M  V30 843 C 93.2873 -2.69393 -2.18239 0
M  V30 844 C 92.3483 -3.88249 -1.83196 0
M  V30 845 C 91.5813 -4.39613 -3.02616 0
M  V30 846 O 91.8043 -3.90023 -4.16219 0
M  V30 847 O 90.7383 -5.31111 -2.83204 0
M  V30 848 H 94.5643 -3.00112 -0.465483 0
M  V30 849 H 92.1493 -1.48499 -0.163826 0
M  V30 850 H 94.0313 -3.04026 -2.91798 0
M  V30 851 H 92.7063 -1.87796 -2.63656 0
M  V30 852 H 91.6133 -3.58492 -1.06931 0
M  V30 853 H 92.9463 -4.71098 -1.42573 0
M  V30 854 N 94.5984 0.214957 -1.56127 0
M  V30 855 C 95.5614 1.24997 -1.92116 0
M  V30 856 C 96.5614 1.39467 -0.800344 0
M  V30 857 O 97.7514 1.37619 -1.06802 0
M  V30 858 C 94.8834 2.62271 -2.17777 0
M  V30 859 H 96.0764 0.942875 -2.84693 0
M  V30 860 H 93.6294 0.455654 -1.49511 0
M  V30 861 H 94.3644 2.98068 -1.27773 0
M  V30 862 H 94.1494 2.53143 -2.99434 0
M  V30 863 H 95.6394 3.36946 -2.46693 0
M  V30 864 N 96.0765 1.50051 0.48192 0
M  V30 865 C 97.0395 1.67584 1.5636 0
M  V30 866 C 98.0395 0.546894 1.51214 0
M  V30 867 O 99.2295 0.813725 1.54026 0
M  V30 868 C 96.3615 1.691 2.96003 0
M  V30 869 H 97.5545 2.64078 1.42136 0
M  V30 870 H 95.1075 1.39369 0.707533 0
M  V30 871 H 95.8425 0.742589 3.15684 0
M  V30 872 H 95.6275 2.51105 3.01146 0
M  V30 873 H 97.1175 1.84656 3.74556 0
M  V30 874 N 97.5546 -0.734337 1.39446 0
M  V30 875 C 98.8316 -1.48579 1.27215 0
M  V30 876 C 99.2116 -2.1077 -0.117968 0
M  V30 877 O 98.5596 -1.98646 -1.12924 0
M  V30 878 C 98.7696 -2.53667 2.39696 0
M  V30 879 C 100.118 -3.20031 2.79044 0
M  V30 880 O 101.142 -2.6398 2.39151 0
M  V30 881 O 100.001 -4.21455 3.47905 0
M  V30 882 H 97.0946 -0.659816 0.49857 0
M  V30 883 H 99.6406 -0.768106 1.51322 0
M  V30 884 H 98.4126 -2.06096 3.32626 0
M  V30 885 H 98.0356 -3.32994 2.17258 0
M  V30 886 N 99.0327 -1.24633 -0.964593 0
M  V30 887 C 99.9427 -1.05859 -2.09359 0
M  V30 888 C 100.959 0.00148855 -1.74 0
M  V30 889 O 102.135 -0.197346 -2.00431 0
M  V30 890 C 99.1997 -0.668879 -3.40187 0
M  V30 891 C 98.2607 -1.80578 -3.89474 0
M  V30 892 C 97.4937 -1.43457 -5.14058 0
M  V30 893 O 97.7167 -0.325775 -5.69469 0
M  V30 894 O 96.6507 -2.2613 -5.57807 0
M  V30 895 H 100.477 -2.00516 -2.28094 0
M  V30 896 H 98.0617 -1.03481 -1.0776 0
M  V30 897 H 99.9437 -0.463211 -4.18846 0
M  V30 898 H 98.6187 0.248536 -3.22744 0
M  V30 899 H 97.5257 -2.06623 -3.11862 0
M  V30 900 H 98.8587 -2.70208 -4.11398 0
M  V30 901 N 100.511 1.16574 -1.06058 0
M  V30 902 C 101.759 1.86677 -0.77434 0
M  V30 903 C 102.08 1.81959 0.701147 0
M  V30 904 O 101.35 1.2515 1.50713 0
M  V30 905 H 99.9298 0.691134 -0.283449 0
M  V30 906 H 102.592 1.41378 -1.34158 0
M  V30 907 H 101.688 2.92181 -1.09711 0
M  V30 908 N 101.989 0.842826 1.3317 0
M  V30 909 C 103.237 0.439577 1.97262 0
M  V30 910 C 103.558 -1.00548 1.67078 0
M  V30 911 O 102.828 -1.70098 0.971779 0
M  V30 912 H 101.408 0.159558 0.72976 0
M  V30 913 H 104.07 1.07665 1.62463 0
M  V30 914 H 103.166 0.574886 3.0676 0
M  V30 915 N 103.467 -1.45747 0.599634 0
M  V30 916 C 104.878 -1.85853 0.177681 0
M  V30 917 C 105.229 -1.50102 -1.26348 0
M  V30 918 O 104.354 -0.923905 -1.95686 0
M  V30 919 C 104.949 -3.37326 0.315688 0
M  V30 920 C 103.508 -3.76365 -0.0515144 0
M  V30 921 C 102.655 -2.69722 0.643822 0
M  V30 922 H 105.606 -1.36661 0.806814 0
M  V30 923 H 105.627 -3.77778 -0.454321 0
M  V30 924 H 105.139 -3.63315 1.36468 0
M  V30 925 H 103.24 -3.55993 -1.09999 0
M  V30 926 H 103.353 -4.77916 0.336594 0
M  V30 927 H 101.717 -2.54567 0.0822881 0
M  V30 928 H 102.5 -2.98549 1.6948 0
M  V30 929 N 104.945 -0.338344 -1.53925 0
M  V30 930 C 106.361 0.0137736 -1.59594 0
M  V30 931 C 106.561 1.49186 -1.35447 0
M  V30 932 O 105.617 2.24987 -1.14616 0
M  V30 933 C 106.93 -0.41773 -2.97784 0
M  V30 934 C 108.478 -0.369633 -3.1081 0
M  V30 935 C 108.953 -0.776524 -4.51369 0
M  V30 936 N 110.444 -0.730506 -4.57403 0
M  V30 937 C 111.179 -1.01736 -5.64303 0
M  V30 938 N 110.675 -1.3721 -6.79077 0
M  V30 939 N 112.468 -0.941942 -5.54151 0
M  V30 940 H 104.619 -1.3012 -1.67876 0
M  V30 941 H 106.882 -0.530082 -0.78595 0
M  V30 942 H 106.588 -1.44811 -3.20504 0
M  V30 943 H 106.462 0.209729 -3.76616 0
M  V30 944 H 108.849 0.651568 -2.87817 0
M  V30 945 H 108.93 -1.03223 -2.34049 0
M  V30 946 H 108.574 -1.79571 -4.75096 0
M  V30 947 H 108.504 -0.0914649 -5.26521 0
M  V30 948 H 110.995 -0.468783 -3.74981 0
M  V30 949 H 111.308 -1.57597 -7.5656 0
M  V30 950 H 109.653 -1.4105 -6.80536 0
M  V30 951 H 112.844 -0.664184 -4.63364 0
M  V30 952 H 113.017 -1.16884 -6.37371 0
M  V30 953 N 106.423 1.57458 -0.0668435 0
M  V30 954 C 107.671 1.92919 0.602214 0
M  V30 955 C 107.992 0.947215 1.70449 0
M  V30 956 O 107.262 -0.00544117 1.95899 0
M  V30 957 H 105.842 0.71217 0.22544 0
M  V30 958 H 108.504 1.94508 -0.123535 0
M  V30 959 H 107.6 2.94589 1.03073 0
M  V30 960 N 107.901 -0.206675 1.56239 0
M  V30 961 C 109.317 -0.557025 1.49564 0
M  V30 962 C 109.517 -1.86424 0.764735 0
M  V30 963 O 108.573 -2.50584 0.310491 0
M  V30 964 C 109.886 -0.622478 2.94186 0
M  V30 965 C 111.434 -0.712099 3.04792 0
M  V30 966 C 111.909 -0.808767 4.50803 0
M  V30 967 N 113.4 -0.8726 4.54907 0
M  V30 968 C 114.135 -0.967365 5.65181 0
M  V30 969 N 113.631 -1.02515 6.85173 0
M  V30 970 N 115.424 -1.00366 5.53067 0
M  V30 971 H 107.575 0.650943 2.02179 0
M  V30 972 H 109.838 0.230387 0.919579 0
M  V30 973 H 109.544 0.268727 3.50672 0
M  V30 974 H 109.418 -1.4811 3.46905 0
M  V30 975 H 111.805 -1.59374 2.48363 0
M  V30 976 H 111.886 0.172489 2.55218 0
M  V30 977 H 111.53 0.0684754 5.07854 0
M  V30 978 H 111.46 -1.70899 4.98098 0
M  V30 979 H 113.951 -0.837657 3.68499 0
M  V30 980 H 114.264 -1.09765 7.64965 0
M  V30 981 H 112.609 -0.994026 6.87855 0
M  V30 982 H 115.8 -0.95527 4.58249 0
M  V30 983 H 115.973 -1.07405 6.39037 0
M  V30 984 N 109.379 -1.50304 -0.473955 0
M  V30 985 C 110.309 -1.71886 -1.58042 0
M  V30 986 C 111.29 -0.567799 -1.60344 0
M  V30 987 O 112.475 -0.806623 -1.76656 0
M  V30 988 C 109.605 -1.81036 -2.96384 0
M  V30 989 C 108.559 -2.962 -3.08949 0
M  V30 990 C 107.885 -2.9049 -4.48909 0
M  V30 991 C 109.185 -4.36752 -2.86434 0
M  V30 992 H 110.879 -2.64527 -1.40234 0
M  V30 993 H 108.425 -1.27295 -0.673201 0
M  V30 994 H 110.378 -1.94719 -3.73714 0
M  V30 995 H 109.102 -0.850147 -3.15341 0
M  V30 996 H 107.761 -2.82164 -2.3405 0
M  V30 997 H 107.409 -1.92321 -4.64781 0
M  V30 998 H 107.109 -3.67802 -4.58253 0
M  V30 999 H 108.633 -3.06218 -5.28264 0
M  V30 1000 H 110.047 -4.5133 -3.53517 0
M  V30 1001 H 108.444 -5.15493 -3.07225 0
M  V30 1002 H 109.514 -4.49321 -1.82316 0
M  V30 1003 N 110.857 0.726932 -1.39834 0
M  V30 1004 C 112.273 1.03354 -1.21615 0
M  V30 1005 C 112.473 2.01327 -0.08338 0
M  V30 1006 O 111.529 2.46158 0.56238 0
M  V30 1007 C 112.842 1.58811 -2.55342 0
M  V30 1008 C 114.39 1.70851 -2.62257 0
M  V30 1009 C 114.865 2.29716 -3.96225 0
M  V30 1010 N 116.356 2.37116 -3.97907 0
M  V30 1011 C 117.091 2.83619 -4.98345 0
M  V30 1012 N 116.587 3.29958 -6.09179 0
M  V30 1013 N 118.38 2.82901 -4.8572 0
M  V30 1014 H 110.531 0.0773069 -2.12259 0
M  V30 1015 H 112.794 0.0969102 -0.943034 0
M  V30 1016 H 112.5 0.942855 -3.38826 0
M  V30 1017 H 112.374 2.57502 -2.75632 0
M  V30 1018 H 114.761 2.34497 -1.79152 0
M  V30 1019 H 114.842 0.707913 -2.45809 0
M  V30 1020 H 114.486 1.66696 -4.79765 0
M  V30 1021 H 114.416 3.30469 -4.09997 0
M  V30 1022 H 116.907 2.04374 -3.17868 0
M  V30 1023 H 117.22 3.63976 -6.8172 0
M  V30 1024 H 115.565 3.27946 -6.12761 0
M  V30 1025 H 118.756 2.46027 -3.98231 0
M  V30 1026 H 118.929 3.18827 -5.6414 0
M  V30 1027 N 112.336 1.25143 0.95797 0
M  V30 1028 C 113.561 1.12521 1.74223 0
M  V30 1029 C 113.986 -0.317402 1.85403 0
M  V30 1030 O 113.344 -1.2299 1.33204 0
M  V30 1031 C 113.392 1.78062 3.1357 0
M  V30 1032 O 112.496 1.058 3.98598 0
M  V30 1033 H 111.837 0.39304 0.535178 0
M  V30 1034 H 114.367 1.65641 1.201 0
M  V30 1035 H 114.377 1.84213 3.64046 0
M  V30 1036 H 113.052 2.83021 3.04749 0
M  V30 1037 H 111.629 1.07506 3.57067 0
M  V30 1038 N 113.814 -1.1601 1.06675 0
M  V30 1039 C 115.23 -1.38622 0.790948 0
M  V30 1040 C 115.43 -1.92109 -0.607965 0
M  V30 1041 O 114.486 -2.12239 -1.36787 0
M  V30 1042 C 115.799 -2.36347 1.85905 0
M  V30 1043 C 117.347 -2.50023 1.88301 0
M  V30 1044 C 117.822 -3.51033 2.94176 0
M  V30 1045 N 119.313 -3.58563 2.93235 0
M  V30 1046 C 120.048 -4.36521 3.71803 0
M  V30 1047 N 119.544 -5.17869 4.602 0
M  V30 1048 N 121.337 -4.31541 3.60178 0
M  V30 1049 H 113.488 -0.796294 1.96908 0
M  V30 1050 H 115.751 -0.412597 0.853503 0
M  V30 1051 H 115.457 -2.04147 2.86386 0
M  V30 1052 H 115.331 -3.36042 1.71334 0
M  V30 1053 H 117.718 -2.81524 0.884769 0
M  V30 1054 H 117.799 -1.5035 2.06951 0
M  V30 1055 H 117.443 -3.20268 3.94196 0
M  V30 1056 H 117.373 -4.50445 2.72776 0
M  V30 1057 H 119.864 -3.00496 2.29152 0
M  V30 1058 H 120.177 -5.74578 5.16797 0
M  V30 1059 H 118.522 -5.17199 4.64253 0
M  V30 1060 H 121.713 -3.67051 2.90502 0
M  V30 1061 H 121.886 -4.9205 4.21653 0
M  V30 1062 N 115.292 -0.849877 -1.32721 0
M  V30 1063 C 116.569 -0.372405 -1.92022 0
M  V30 1064 C 116.949 1.1435 -1.77447 0
M  V30 1065 O 116.297 1.96296 -1.16962 0
M  V30 1066 C 116.507 -0.831482 -3.3895 0
M  V30 1067 C 117.855 -0.845882 -4.16089 0
M  V30 1068 O 118.879 -0.775806 -3.47649 0
M  V30 1069 O 117.738 -0.943753 -5.38289 0
M  V30 1070 H 114.832 -0.107667 -0.819961 0
M  V30 1071 H 117.378 -0.93646 -1.41522 0
M  V30 1072 H 116.15 -1.87448 -3.4348 0
M  V30 1073 H 115.773 -0.24461 -3.96847 0
M  V30 1074 N 116.77 1.45427 -0.607355 0
M  V30 1075 C 117.995 2.07124 -0.107006 0
M  V30 1076 C 118.42 1.44906 1.19933 0
M  V30 1077 O 117.778 0.541687 1.73019 0
M  V30 1078 C 117.826 3.60595 0.0194119 0
M  V30 1079 O 116.93 3.98285 1.0697 0
M  V30 1080 H 116.271 0.659868 -0.0739597 0
M  V30 1081 H 118.801 1.86683 -0.837297 0
M  V30 1082 H 118.811 4.07419 0.2177 0
M  V30 1083 H 117.486 4.05266 -0.934453 0
M  V30 1084 H 116.063 3.63133 0.847889 0
M  V30 1085 N 118.248 0.346503 1.53744 0
M  V30 1086 C 119.473 -0.253074 2.0585 0
M  V30 1087 C 119.898 -1.43202 1.21962 0
M  V30 1088 O 119.256 -1.79783 0.234073 0
M  V30 1089 C 119.304 -0.643193 3.54817 0
M  V30 1090 O 118.408 -1.74286 3.73762 0
M  V30 1091 H 117.749 -0.0413583 0.662711 0
M  V30 1092 H 120.279 0.501574 1.98357 0
M  V30 1093 H 120.289 -0.919526 3.97503 0
M  V30 1094 H 118.964 0.218966 4.15323 0
M  V30 1095 H 117.541 -1.46356 3.42979 0
M  V30 1096 N 119.726 -1.57421 0.075193 0
M  V30 1097 C 120.966 -1.95495 -0.596757 0
M  V30 1098 C 121.33 -0.954886 -1.66571 0
M  V30 1099 O 122.531 -1.22341 -2.39345 0
M  V30 1100 C 120.802 -3.382 -1.15566 0
M  V30 1101 S 122.361 -3.98254 -1.84226 0
M  V30 1102 H 119.179 -0.683649 -0.195307 0
M  V30 1103 H 121.781 -1.94925 0.149859 0
M  V30 1104 H 120.485 -4.08766 -0.36588 0
M  V30 1105 H 120.016 -3.42321 -1.93856 0
M  V30 1106 H 122.031 -3.85435 -3.12497 0
M  V30 1107 N 121.204 0.198386 -1.56346 0
M  V30 1108 C 122.452 0.91747 -1.80075 0
M  V30 1109 C 122.773 1.83929 -0.647692 0
M  V30 1110 O 122.043 1.93029 0.334166 0
M  V30 1111 H 120.623 0.341774 -0.664228 0
M  V30 1112 H 123.285 0.204684 -1.93822 0
M  V30 1113 H 122.381 1.51055 -2.7311 0
M  V30 1114 N 122.682 1.50554 0.465978 0
M  V30 1115 C 124.098 1.38093 0.800154 0
M  V30 1116 C 124.298 0.440988 1.96615 0
M  V30 1117 O 123.354 -0.114499 2.5224 0
M  V30 1118 C 124.667 2.79565 1.10742 0
M  V30 1119 C 126.215 2.88516 1.21357 0
M  V30 1120 C 126.69 4.30833 1.55393 0
M  V30 1121 N 128.181 4.33807 1.62375 0
M  V30 1122 C 128.916 5.40927 1.90225 0
M  V30 1123 N 128.412 6.58247 2.16062 0
M  V30 1124 N 130.205 5.28376 1.9177 0
M  V30 1125 H 122.356 2.10237 -0.302366 0
M  V30 1126 H 124.619 0.945203 -0.0727746 0
M  V30 1127 H 124.325 3.50208 0.323661 0
M  V30 1128 H 124.199 3.17125 2.04234 0
M  V30 1129 H 126.586 2.1809 1.98799 0
M  V30 1130 H 126.667 2.54492 0.258321 0
M  V30 1131 H 126.311 5.01799 0.784889 0
M  V30 1132 H 126.241 4.62347 2.52076 0
M  V30 1133 H 128.732 3.49212 1.44427 0
M  V30 1134 H 129.045 7.3569 2.36601 0
M  V30 1135 H 127.39 6.61413 2.13444 0
M  V30 1136 H 130.581 4.35715 1.71085 0
M  V30 1137 H 130.754 6.11944 2.13139 0
M  V30 1138 N 124.16 -0.719506 1.40217 0
M  V30 1139 C 125.571 -1.29848 1.34151 0
M  V30 1140 C 125.922 -1.96196 0.0131349 0
M  V30 1141 O 125.047 -1.973 -0.88892 0
M  V30 1142 C 125.642 -2.36118 2.42968 0
M  V30 1143 C 124.201 -2.8965 2.40374 0
M  V30 1144 C 123.348 -1.63393 2.24049 0
M  V30 1145 H 126.299 -0.51591 1.5008 0
M  V30 1146 H 126.32 -3.16871 2.10649 0
M  V30 1147 H 125.832 -1.878 3.39636 0
M  V30 1148 H 123.933 -3.42208 1.47392 0
M  V30 1149 H 124.046 -3.4171 3.35814 0
M  V30 1150 H 122.41 -1.88312 1.71495 0
M  V30 1151 H 123.193 -1.17104 3.2271 0
M  V30 1152 N 125.638 -1.25649 -0.95132 0
M  V30 1153 C 126.886 -1.10375 -1.69298 0
M  V30 1154 C 127.207 0.355339 -1.91735 0
M  V30 1155 O 126.477 1.25188 -1.50681 0
M  V30 1156 H 125.057 -0.405461 -0.627384 0
M  V30 1157 H 127.719 -1.57823 -1.14358 0
M  V30 1158 H 126.815 -1.61465 -2.67087 0
M  V30 1159 N 127.117 1.15442 -1.07289 0
M  V30 1160 C 128.345 1.90096 -0.81676 0
M  V30 1161 C 128.76 1.7798 0.629966 0
M  V30 1162 O 128.117 1.1313 1.43206 0
M  V30 1163 C 128.168 3.40466 -1.21512 0
M  V30 1164 O 127.889 3.52232 -2.60508 0
M  V30 1165 C 129.39 4.32145 -0.988198 0
M  V30 1166 H 126.61 0.602495 -0.295366 0
M  V30 1167 H 129.154 1.4627 -1.42918 0
M  V30 1168 H 127.309 3.81958 -0.647039 0
M  V30 1169 H 127.723 4.45549 -2.76742 0
M  V30 1170 H 129.197 5.36072 -1.31645 0
M  V30 1171 H 129.674 4.39135 0.0755063 0
M  V30 1172 H 130.28 3.96395 -1.54115 0
M  V30 1173 N 128.595 0.856903 1.32268 0
M  V30 1174 C 130.006 0.515711 1.79436 0
M  V30 1175 C 130.357 -0.966586 1.70738 0
M  V30 1176 O 129.482 -1.75409 1.26731 0
M  V30 1177 C 130.077 0.929335 3.25805 0
M  V30 1178 C 128.636 0.640006 3.70919 0
M  V30 1179 C 127.783 1.12784 2.53328 0
M  V30 1180 H 130.734 1.04389 1.19535 0
M  V30 1181 H 130.755 0.246633 3.797 0
M  V30 1182 H 130.267 2.00821 3.32103 0
M  V30 1183 H 128.368 -0.428051 3.70133 0
M  V30 1184 H 128.481 1.20788 4.63624 0
M  V30 1185 H 126.845 0.548033 2.48734 0
M  V30 1186 H 127.628 2.21387 2.62379 0
M  V30 1187 N 130.073 -1.45103 0.615059 0
M  V30 1188 C 131.321 -2.01784 0.112955 0
M  V30 1189 C 131.642 -1.48504 -1.26378 0
M  V30 1190 O 130.912 -0.682245 -1.83636 0
M  V30 1191 H 129.492 -0.745993 0.0387668 0
M  V30 1192 H 132.154 -1.77808 0.798141 0
M  V30 1193 H 131.25 -3.12025 0.0684069 0
M  V30 1194 N 131.551 -0.354651 -1.53558 0
M  V30 1195 C 132.514 0.484566 -2.24019 0
M  V30 1196 C 133.514 1.01861 -1.24422 0
M  V30 1197 O 134.704 0.906097 -1.4878 0
M  V30 1198 C 131.836 1.67615 -2.96847 0
M  V30 1199 H 133.029 -0.131843 -2.9961 0
M  V30 1200 H 130.582 -0.106165 -1.55939 0
M  V30 1201 H 131.317 2.33095 -2.25471 0
M  V30 1202 H 131.102 1.30029 -3.69912 0
M  V30 1203 H 132.592 2.27114 -3.50441 0
M  V30 1204 N 133.029 1.57378 -0.0835403 0
M  V30 1205 C 133.992 2.12252 0.864959 0
M  V30 1206 C 134.992 1.04916 1.21858 0
M  V30 1207 O 136.182 1.30853 1.14991 0
M  V30 1208 C 133.314 2.63358 2.16461 0
M  V30 1209 H 134.507 2.97371 0.388676 0
M  V30 1210 H 132.06 1.55423 0.165317 0
M  V30 1211 H 132.795 1.81727 2.686 0
M  V30 1212 H 132.58 3.41826 1.92087 0
M  V30 1213 H 134.07 3.05847 2.84337 0
M  V30 1214 N 134.507 -0.190092 1.56449 0
M  V30 1215 C 135.732 -0.929864 1.85387 0
M  V30 1216 C 136.157 -1.7585 0.667704 0
M  V30 1217 O 135.515 -1.77198 -0.383459 0
M  V30 1218 C 135.563 -1.79773 3.12593 0
M  V30 1219 O 134.667 -2.89713 2.93496 0
M  V30 1220 H 134.008 -0.261574 0.610307 0
M  V30 1221 H 136.538 -0.193896 2.03679 0
M  V30 1222 H 136.548 -2.20139 3.43515 0
M  V30 1223 H 135.223 -1.18892 3.98544 0
M  V30 1224 H 133.8 -2.53065 2.73884 0
M  V30 1225 N 135.985 -1.50799 -0.457987 0
M  V30 1226 C 137.213 -1.66218 -1.23203 0
M  V30 1227 C 137.628 -0.350894 -1.85511 0
M  V30 1228 O 136.985 0.668546 -1.69814 0
M  V30 1229 C 137.036 -2.76291 -2.33121 0
M  V30 1230 O 136.757 -4.02338 -1.73366 0
M  V30 1231 C 138.258 -3.028 -3.2377 0
M  V30 1232 H 135.478 -0.558361 -0.372121 0
M  V30 1233 H 138.022 -1.97099 -0.545179 0
M  V30 1234 H 136.177 -2.48068 -2.97558 0
M  V30 1235 H 136.591 -4.63312 -2.4585 0
M  V30 1236 H 138.065 -3.8345 -3.97077 0
M  V30 1237 H 138.542 -2.14385 -3.83322 0
M  V30 1238 H 139.148 -3.32604 -2.65056 0
M  V30 1239 N 137.463 0.71206 -1.40597 0
M  V30 1240 C 138.426 1.80785 -1.40888 0
M  V30 1241 C 139.426 1.57937 -0.302103 0
M  V30 1242 O 140.616 1.64913 -0.561182 0
M  V30 1243 C 137.748 3.18927 -1.20409 0
M  V30 1244 H 138.941 1.81924 -2.38419 0
M  V30 1245 H 136.494 0.91805 -1.26497 0
M  V30 1246 H 137.229 3.23436 -0.236522 0
M  V30 1247 H 137.014 3.36911 -2.00582 0
M  V30 1248 H 138.504 3.98949 -1.23408 0
M  V30 1249 N 138.941 1.26152 0.944643 0
M  V30 1250 C 139.888 1.07408 2.04285 0
M  V30 1251 C 140.858 -0.0198413 1.66088 0
M  V30 1252 O 142.043 0.139264 1.90291 0
M  V30 1253 C 139.183 0.70945 3.37729 0
M  V30 1254 C 138.296 1.87926 3.88983 0
M  V30 1255 C 137.431 1.45807 5.10797 0
M  V30 1256 C 136.47 2.5964 5.54305 0
M  V30 1257 N 135.607 2.18226 6.67324 0
M  V30 1258 H 140.447 2.01389 2.1965 0
M  V30 1259 H 137.984 1.00275 1.07626 0
M  V30 1260 H 139.942 0.478948 4.14442 0
M  V30 1261 H 138.572 -0.193389 3.2222 0
M  V30 1262 H 137.624 2.22279 3.08701 0
M  V30 1263 H 138.936 2.73377 4.17213 0
M  V30 1264 H 138.09 1.18781 5.94959 0
M  V30 1265 H 136.829 0.574414 4.84305 0
M  V30 1266 H 135.834 2.87399 4.68702 0
M  V30 1267 H 137.059 3.48599 5.828 0
M  V30 1268 H 135.005 1.3229 6.42523 0
M  V30 1269 H 134.922 2.97221 6.95123 0
M  V30 1270 H 136.19 1.94403 7.54869 0
M  V30 1271 N 140.419 -1.14872 1.07899 0
M  V30 1272 C 141.667 -1.85422 0.803941 0
M  V30 1273 C 141.988 -1.83051 -0.67211 0
M  V30 1274 O 141.258 -1.27532 -1.48703 0
M  V30 1275 H 139.838 -0.686537 0.294408 0
M  V30 1276 H 142.5 -1.39226 1.3639 0
M  V30 1277 H 141.596 -2.90399 1.14346 0
M  V30 1278 N 141.898 -0.863906 -1.31812 0
M  V30 1279 C 143.123 -0.48527 -2.01643 0
M  V30 1280 C 143.548 0.913058 -1.64453 0
M  V30 1281 O 142.906 1.6014 -0.849985 0
M  V30 1282 C 142.954 -0.642625 -3.54828 0
M  V30 1283 O 142.058 0.320659 -4.11151 0
M  V30 1284 H 141.399 -0.193793 -0.635091 0
M  V30 1285 H 143.929 -1.16565 -1.68148 0
M  V30 1286 H 143.939 -0.533628 -4.04495 0
M  V30 1287 H 142.614 -1.66227 -3.81237 0
M  V30 1288 H 141.191 0.167126 -3.72525 0
M  V30 1289 N 143.376 1.44774 -0.622745 0
M  V30 1290 C 144.787 1.85546 -0.207226 0
M  V30 1291 C 145.138 1.52093 1.23944 0
M  V30 1292 O 144.263 0.95492 1.94191 0
M  V30 1293 C 144.858 3.36781 -0.369313 0
M  V30 1294 C 143.417 3.76399 -0.00836847 0
M  V30 1295 C 142.564 2.68664 -0.686651 0
M  V30 1296 H 145.515 1.3536 -0.828454 0
M  V30 1297 H 145.536 3.78453 0.394162 0
M  V30 1298 H 145.048 3.61098 -1.42231 0
M  V30 1299 H 143.149 3.57698 1.04322 0
M  V30 1300 H 143.262 4.7732 -0.412584 0
M  V30 1301 H 141.626 2.54404 -0.122777 0
M  V30 1302 H 142.409 2.95815 -1.74208 0
M  V30 1303 N 144.854 0.36279 1.53368 0
M  V30 1304 C 145.802 -0.500155 2.27159 0
M  V30 1305 C 146.796 -1.08575 1.3003 0
M  V30 1306 O 148.002 -1.02927 1.47668 0
M  V30 1307 H 144.377 -0.180009 0.730138 0
M  V30 1308 H 146.348 0.14401 2.98052 0
M  V30 1309 C 145.097 -1.62937 3.07159 0
M  V30 1310 H 144.42 -1.18806 3.8174 0
M  V30 1311 H 145.86 -2.20795 3.61975 0
M  V30 1312 C 144.319 -2.57007 2.17829 0
M  V30 1313 O 144.849 -3.59752 1.78721 0
M  V30 1314 N 143.055 -2.26131 1.82518 0
M  V30 1315 H 142.602 -1.42616 2.14519 0
M  V30 1316 H 142.56 -2.89327 1.23034 0
M  V30 1317 N 146.332 -1.57332 0.0918853 0
M  V30 1318 C 147.58 -1.93853 -0.571446 0
M  V30 1319 C 147.901 -0.974212 -1.6892 0
M  V30 1320 O 147.171 -0.0257254 -1.95883 0
M  V30 1321 H 145.751 -0.715666 -0.214082 0
M  V30 1322 H 148.413 -1.94287 0.154464 0
M  V30 1323 H 147.509 -2.96191 -0.983729 0
M  V30 1324 N 147.81 0.181792 -1.56548 0
M  V30 1325 C 148.72 1.24538 -1.98815 0
M  V30 1326 C 149.736 1.49045 -0.897861 0
M  V30 1327 O 150.912 1.61399 -1.20467 0
M  V30 1328 C 147.977 2.56683 -2.33055 0
M  V30 1329 C 147.038 2.40131 -3.55859 0
M  V30 1330 C 146.271 3.65975 -3.88456 0
M  V30 1331 O 146.494 4.70711 -3.22161 0
M  V30 1332 O 145.428 3.6071 -4.81842 0
M  V30 1333 H 149.254 0.916647 -2.89536 0
M  V30 1334 H 146.839 0.387842 -1.44278 0
M  V30 1335 H 148.721 3.34655 -2.56094 0
M  V30 1336 H 147.396 2.89157 -1.45498 0
M  V30 1337 H 146.303 1.60226 -3.38051 0
M  V30 1338 H 147.636 2.12585 -4.43924 0
M  V30 1339 N 149.288 1.51039 0.449983 0
M  V30 1340 C 150.528 1.64732 1.21007 0
M  V30 1341 C 150.892 0.349865 1.88785 0
M  V30 1342 O 152.093 0.362431 2.66345 0
M  V30 1343 C 150.364 2.80902 2.20973 0
M  V30 1344 S 151.923 3.14851 3.05638 0
M  V30 1345 H 148.741 0.5805 0.410538 0
M  V30 1346 H 151.343 1.88901 0.503634 0
M  V30 1347 H 150.047 3.73627 1.69796 0
M  V30 1348 H 149.578 2.58882 2.96215 0
M  V30 1349 H 151.593 2.60306 4.22439 0
M  V30 1350 N 150.766 -0.704594 1.40972 0
M  V30 1351 C 152.014 -1.46169 1.39568 0
M  V30 1352 C 152.335 -1.95 0.00253745 0
M  V30 1353 O 151.605 -1.71095 -0.954114 0
M  V30 1354 H 150.185 -0.542326 0.513704 0
M  V30 1355 H 152.847 -0.834553 1.76128 0
M  V30 1356 H 151.943 -2.32922 2.07735 0
M  V30 1357 N 152.244 -1.26651 -0.937939 0
M  V30 1358 C 153.66 -1.03834 -1.21205 0
M  V30 1359 C 153.86 0.234502 -2.00131 0
M  V30 1360 O 152.916 0.942767 -2.3424 0
M  V30 1361 C 154.229 -2.27167 -1.97017 0
M  V30 1362 C 155.777 -2.32101 -2.09996 0
M  V30 1363 C 156.252 -3.55136 -2.8921 0
M  V30 1364 N 157.743 -3.55632 -2.96783 0
M  V30 1365 C 158.478 -4.475 -3.58512 0
M  V30 1366 N 157.974 -5.4966 -4.21717 0
M  V30 1367 N 159.767 -4.35145 -3.55816 0
M  V30 1368 H 151.918 -2.08398 -0.410391 0
M  V30 1369 H 154.181 -0.916031 -0.244114 0
M  V30 1370 H 153.887 -3.19765 -1.46434 0
M  V30 1371 H 153.761 -2.31672 -2.97671 0
M  V30 1372 H 156.148 -1.40015 -2.59769 0
M  V30 1373 H 156.229 -2.31605 -1.08594 0
M  V30 1374 H 155.873 -4.47553 -2.40123 0
M  V30 1375 H 155.803 -3.5288 -3.90875 0
M  V30 1376 H 158.294 -2.81743 -2.51852 0
M  V30 1377 H 158.607 -6.15943 -4.66727 0
M  V30 1378 H 156.952 -5.53514 -4.20294 0
M  V30 1379 H 160.143 -3.5455 -3.05634 0
M  V30 1380 H 160.316 -5.06934 -4.03636 0
M  V30 1381 N 153.722 1.14298 -1.08507 0
M  V30 1382 C 154.97 1.84993 -0.813763 0
M  V30 1383 C 155.291 1.83405 0.662393 0
M  V30 1384 O 154.561 1.28319 1.48024 0
M  V30 1385 H 153.141 0.684966 -0.298045 0
M  V30 1386 H 155.803 1.385 -1.37126 0
M  V30 1387 H 154.899 2.89788 -1.15884 0
M  V30 1388 N 155.201 0.870884 1.31352 0
M  V30 1389 C 156.111 0.330783 2.32256 0
M  V30 1390 C 157.127 -0.559767 1.6475 0
M  V30 1391 O 158.303 -0.456263 1.96164 0
M  V30 1392 C 155.368 -0.458137 3.4366 0
M  V30 1393 C 154.429 0.460482 4.26823 0
M  V30 1394 C 153.662 -0.290881 5.32907 0
M  V30 1395 O 153.885 -1.51885 5.49806 0
M  V30 1396 O 152.819 0.351732 6.00871 0
M  V30 1397 H 156.645 1.16718 2.80376 0
M  V30 1398 H 154.23 0.634285 1.35267 0
M  V30 1399 H 156.112 -0.905343 4.1156 0
M  V30 1400 H 154.787 -1.27106 2.97701 0
M  V30 1401 H 153.694 0.956207 3.61673 0
M  V30 1402 H 155.027 1.23903 4.7635 0
M  V30 1403 N 156.679 -1.44442 0.630414 0
M  V30 1404 C 158.09 -1.85434 0.217063 0
M  V30 1405 C 158.441 -1.52748 -1.23136 0
M  V30 1406 O 157.566 -0.965205 -1.93682 0
M  V30 1407 C 158.161 -3.36581 0.387168 0
M  V30 1408 C 156.72 -3.76389 0.0283297 0
M  V30 1409 C 155.867 -2.68296 0.700889 0
M  V30 1410 H 158.818 -1.34919 0.83562 0
M  V30 1411 H 158.839 -3.78657 -0.374086 0
M  V30 1412 H 158.351 -3.60339 1.44144 0
M  V30 1413 H 156.452 -3.58246 -1.02423 0
M  V30 1414 H 156.565 -4.77095 0.437892 0
M  V30 1415 H 154.929 -2.54335 0.136267 0
M  V30 1416 H 155.712 -2.94887 1.75774 0
M  V30 1417 N 158.157 -0.370918 -1.53173 0
M  V30 1418 C 159.089 0.507823 -2.23503 0
M  V30 1419 C 160.102 1.04182 -1.251 0
M  V30 1420 O 161.291 0.947286 -1.5129 0
M  V30 1421 C 158.391 1.71447 -2.92334 0
M  V30 1422 C 157.564 1.31105 -4.17289 0
M  V30 1423 C 156.623 2.38035 -4.69282 0
M  V30 1424 O 155.649 2.00204 -5.32829 0
M  V30 1425 N 156.851 3.69697 -4.47554 0
M  V30 1426 H 159.616 -0.0946382 -2.99551 0
M  V30 1427 H 157.177 -0.196358 -1.60705 0
M  V30 1428 H 159.169 2.42469 -3.24023 0
M  V30 1429 H 157.739 2.22368 -2.19707 0
M  V30 1430 H 156.959 0.430462 -3.91843 0
M  V30 1431 H 158.247 1.0179 -4.98514 0
M  V30 1432 H 157.645 4.03205 -3.9679 0
M  V30 1433 H 156.202 4.36807 -4.8378 0
M  V30 1434 N 159.635 1.57281 -0.100228 0
M  V30 1435 C 160.875 1.96419 0.56558 0
M  V30 1436 C 161.239 0.981265 1.65031 0
M  V30 1437 O 162.44 1.26133 2.37369 0
M  V30 1438 C 160.711 3.39996 1.10171 0
M  V30 1439 S 162.27 4.01134 1.77867 0
M  V30 1440 H 159.088 0.68667 0.184406 0
M  V30 1441 H 161.69 1.94662 -0.180851 0
M  V30 1442 H 160.394 4.09296 0.300803 0
M  V30 1443 H 159.925 3.45361 1.88385 0
M  V30 1444 H 161.94 3.90358 3.06326 0
M  V30 1445 N 161.113 -0.173488 1.56642 0
M  V30 1446 C 162.338 -0.910149 1.86363 0
M  V30 1447 C 162.763 -1.75132 0.686318 0
M  V30 1448 O 162.121 -1.77595 -0.364643 0
M  V30 1449 C 162.169 -1.76447 3.14482 0
M  V30 1450 O 161.273 -2.86584 2.96553 0
M  V30 1451 H 160.614 -0.255086 0.613047 0
M  V30 1452 H 163.144 -0.172283 2.03873 0
M  V30 1453 H 163.154 -2.16483 3.45831 0
M  V30 1454 H 161.829 -1.14658 3.99783 0
M  V30 1455 H 160.406 -2.50146 2.76553 0
M  V30 1456 N 162.591 -1.51276 -0.441967 0
M  V30 1457 C 164.002 -1.56244 -1.02199 0
M  V30 1458 C 164.353 -0.383149 -1.92422 0
M  V30 1459 O 163.478 0.500613 -2.1053 0
M  V30 1460 C 164.073 -2.83162 -1.86024 0
M  V30 1461 C 162.632 -2.90716 -2.39084 0
M  V30 1462 C 161.779 -2.50858 -1.18175 0
M  V30 1463 H 164.73 -1.5712 -0.223416 0
M  V30 1464 H 164.751 -2.66663 -2.71425 0
M  V30 1465 H 164.263 -3.68974 -1.20331 0
M  V30 1466 H 162.364 -2.09323 -3.08244 0
M  V30 1467 H 162.477 -3.94266 -2.72198 0
M  V30 1468 H 160.841 -2.03951 -1.52565 0
M  V30 1469 H 161.624 -3.3901 -0.541001 0
M  V30 1470 N 164.069 0.697108 -1.41344 0
M  V30 1471 C 165.032 1.79281 -1.42797 0
M  V30 1472 C 166.032 1.57607 -0.318837 0
M  V30 1473 O 167.222 1.64309 -0.578642 0
M  V30 1474 C 164.354 3.17632 -1.23785 0
M  V30 1475 H 165.547 1.79385 -2.40335 0
M  V30 1476 H 163.1 0.904582 -1.27464 0
M  V30 1477 H 163.835 3.23167 -0.270814 0
M  V30 1478 H 163.62 3.34765 -2.04144 0
M  V30 1479 H 165.11 3.97617 -1.27633 0
M  V30 1480 N 165.547 1.27147 0.931209 0
M  V30 1481 C 166.795 1.13055 1.6752 0
M  V30 1482 C 167.116 -0.324791 1.92276 0
M  V30 1483 O 166.386 -1.22775 1.52654 0
M  V30 1484 H 164.966 0.415391 0.620854 0
M  V30 1485 H 167.628 1.59623 1.11833 0
M  V30 1486 H 166.724 1.65694 2.64485 0
M  V30 1487 N 167.025 -1.13721 1.09112 0
M  V30 1488 C 168.436 -1.6648 0.845068 0
M  V30 1489 C 168.787 -1.85911 -0.62701 0
M  V30 1490 O 167.912 -1.57556 -1.48341 0
M  V30 1491 C 168.507 -3.02413 1.52748 0
M  V30 1492 C 167.066 -3.52176 1.32849 0
M  V30 1493 C 166.213 -2.27492 1.58564 0
M  V30 1494 H 169.164 -0.976872 1.25072 0
M  V30 1495 H 169.185 -3.68223 0.958752 0
M  V30 1496 H 168.697 -2.88238 2.59885 0
M  V30 1497 H 166.798 -3.7156 0.278137 0
M  V30 1498 H 166.911 -4.32499 2.0611 0
M  V30 1499 H 165.275 -2.33923 1.00758 0
M  V30 1500 H 166.058 -2.15886 2.66924 0
M  V30 1501 N 168.503 -0.877838 -1.30888 0
M  V30 1502 C 169.413 -0.343096 -2.32078 0
M  V30 1503 C 170.429 0.551022 -1.65045 0
M  V30 1504 O 171.605 0.445854 -1.96403 0
M  V30 1505 C 168.67 0.439905 -3.43898 0
M  V30 1506 C 167.731 -0.483111 -4.26573 0
M  V30 1507 C 166.964 0.262616 -5.33053 0
M  V30 1508 O 167.187 1.48967 -5.50604 0
M  V30 1509 O 166.121 -0.383593 -6.00676 0
M  V30 1510 H 169.947 -1.18203 -2.79753 0
M  V30 1511 H 167.532 -0.64145 -1.34929 0
M  V30 1512 H 169.414 0.883504 -4.12034 0
M  V30 1513 H 168.089 1.25526 -2.98371 0
M  V30 1514 H 166.996 -0.975374 -3.61161 0
M  V30 1515 H 168.329 -1.26427 -4.75686 0
M  V30 1516 N 169.982 1.44106 -0.638065 0
M  V30 1517 C 171.23 2.01579 -0.145043 0
M  V30 1518 C 171.551 1.50496 1.24 0
M  V30 1519 O 170.821 0.711374 1.82527 0
M  V30 1520 H 169.401 0.745282 -0.05063 0
M  V30 1521 H 172.063 1.76516 -0.826327 0
M  V30 1522 H 171.159 3.11877 -0.118039 0
M  V30 1523 N 171.46 0.379036 1.52974 0
M  V30 1524 C 172.871 -0.0972525 1.86447 0
M  V30 1525 C 173.222 -1.47027 1.29914 0
M  V30 1526 O 172.347 -2.07135 0.626433 0
M  V30 1527 C 172.942 -0.183248 3.38304 0
M  V30 1528 C 171.501 -0.603812 3.71525 0
M  V30 1529 C 170.648 0.240632 2.76254 0
M  V30 1530 H 173.599 0.597316 1.4703 0
M  V30 1531 H 173.62 -1.00432 3.67006 0
M  V30 1532 H 173.132 0.816191 3.79421 0
M  V30 1533 H 171.233 -1.61099 3.35973 0
M  V30 1534 H 171.346 -0.369086 4.77676 0
M  V30 1535 H 169.71 -0.292548 2.53014 0
M  V30 1536 H 170.493 1.23786 3.20206 0
M  V30 1537 N 172.938 -1.57226 0.108567 0
M  V30 1538 C 173.901 -2.13602 -0.831082 0
M  V30 1539 C 174.901 -1.06841 -1.20173 0
M  V30 1540 O 176.091 -1.32666 -1.12895 0
M  V30 1541 C 173.223 -2.66769 -2.12243 0
M  V30 1542 H 174.416 -2.97951 -0.341317 0
M  V30 1543 H 171.969 -1.55667 -0.14057 0
M  V30 1544 H 172.704 -1.85977 -2.65675 0
M  V30 1545 H 172.489 -3.44839 -1.86625 0
M  V30 1546 H 173.979 -3.10332 -2.79435 0
M  V30 1547 N 174.416 0.165178 -1.56732 0
M  V30 1548 C 175.832 0.517174 -1.50988 0
M  V30 1549 C 176.032 1.84331 -0.813894 0
M  V30 1550 O 175.088 2.49672 -0.37682 0
M  V30 1551 C 176.401 0.544261 -2.95733 0
M  V30 1552 C 177.949 0.631039 -3.06573 0
M  V30 1553 C 178.424 0.68896 -4.52788 0
M  V30 1554 N 179.915 0.751683 -4.5706 0
M  V30 1555 C 180.65 0.817177 -5.67547 0
M  V30 1556 N 180.146 0.843129 -6.8765 0
M  V30 1557 N 181.939 0.856668 -5.55534 0
M  V30 1558 H 174.09 -0.704318 -2.00382 0
M  V30 1559 H 176.353 -0.254687 -0.913148 0
M  V30 1560 H 176.059 -0.361607 -3.49836 0
M  V30 1561 H 175.933 1.3886 -3.5071 0
M  V30 1562 H 178.32 1.52733 -2.52501 0
M  V30 1563 H 178.401 -0.240095 -2.54671 0
M  V30 1564 H 178.045 -0.2031 -5.07494 0
M  V30 1565 H 177.975 1.57633 -5.02454 0
M  V30 1566 H 180.466 0.739661 -3.70591 0
M  V30 1567 H 180.779 0.894448 -7.67606 0
M  V30 1568 H 179.124 0.811304 -6.90248 0
M  V30 1569 H 182.315 0.833437 -4.60621 0
M  V30 1570 H 182.488 0.904247 -6.4166 0
M  V30 1571 N 175.894 1.51508 0.433938 0
M  V30 1572 C 177.142 1.6402 1.18075 0
M  V30 1573 C 177.463 0.360328 1.91642 0
M  V30 1574 O 176.733 -0.623945 1.85698 0
M  V30 1575 H 175.313 0.6045 0.43885 0
M  V30 1576 H 177.975 1.88452 0.497178 0
M  V30 1577 H 177.071 2.46949 1.90847 0
M  V30 1578 N 177.372 -0.689602 1.41712 0
M  V30 1579 C 178.783 -1.26973 1.36875 0
M  V30 1580 C 179.134 -1.96124 0.054748 0
M  V30 1581 O 178.259 -1.99141 -0.84687 0
M  V30 1582 C 178.854 -2.30912 2.47922 0
M  V30 1583 C 177.413 -2.84486 2.46464 0
M  V30 1584 C 176.56 -1.58603 2.27465 0
M  V30 1585 H 179.511 -0.48396 1.51141 0
M  V30 1586 H 179.532 -3.12331 2.17323 0
M  V30 1587 H 179.044 -1.80554 3.43543 0
M  V30 1588 H 177.145 -3.39005 1.54617 0
M  V30 1589 H 177.258 -3.34511 3.42986 0
M  V30 1590 H 175.622 -1.84632 1.75451 0
M  V30 1591 H 176.405 -1.10233 3.25121 0
M  V30 1592 N 178.85 -1.27639 -0.924453 0
M  V30 1593 C 179.797 -1.10644 -2.0255 0
M  V30 1594 C 180.767 -0.00658438 -1.66099 0
M  V30 1595 O 181.952 -0.16952 -1.90045 0
M  V30 1596 C 179.092 -0.76309 -3.36557 0
M  V30 1597 C 178.205 -1.94091 -3.85944 0
M  V30 1598 C 177.34 -1.53914 -5.08413 0
M  V30 1599 C 176.379 -2.68425 -5.50104 0
M  V30 1600 N 175.516 -2.28815 -6.63768 0
M  V30 1601 H 180.356 -2.04858 -2.16419 0
M  V30 1602 H 177.893 -1.01974 -1.06017 0
M  V30 1603 H 179.851 -0.544822 -4.13627 0
M  V30 1604 H 178.481 0.142102 -3.22487 0
M  V30 1605 H 177.533 -2.27162 -3.05125 0
M  V30 1606 H 178.845 -2.7998 -4.12811 0
M  V30 1607 H 177.999 -1.28231 -5.92994 0
M  V30 1608 H 176.738 -0.651391 -4.8333 0
M  V30 1609 H 175.743 -2.94819 -4.64071 0
M  V30 1610 H 176.968 -3.57826 -5.7718 0
M  V30 1611 H 174.914 -1.42495 -6.40337 0
M  V30 1612 H 174.831 -3.08242 -6.90306 0
M  V30 1613 H 176.099 -2.06387 -7.51681 0
M  V30 1614 N 180.328 1.1314 -1.09713 0
M  V30 1615 C 181.574 1.84757 -0.836224 0
M  V30 1616 C 181.907 1.8347 0.636598 0
M  V30 1617 O 181.182 1.27491 1.46889 0
M  V30 1618 C 181.465 3.32782 -1.37578 0
M  V30 1619 C 181.318 3.42567 -2.91493 0
M  V30 1620 C 182.637 4.28307 -1.01198 0
M  V30 1621 H 179.756 0.67082 -0.305236 0
M  V30 1622 H 182.398 1.3278 -1.35903 0
M  V30 1623 H 180.548 3.77177 -0.931097 0
M  V30 1624 H 182.22 3.06862 -3.44432 0
M  V30 1625 H 180.463 2.83349 -3.28475 0
M  V30 1626 H 181.134 4.46674 -3.24324 0
M  V30 1627 H 183.61 3.91999 -1.39556 0
M  V30 1628 H 182.486 5.30307 -1.41653 0
M  V30 1629 H 182.747 4.42029 0.0794833 0
M  V30 1630 N 181.806 0.884767 1.30421 0
M  V30 1631 C 183.031 0.517288 2.00845 0
M  V30 1632 C 183.456 -0.886779 1.65885 0
M  V30 1633 O 182.814 -1.58768 0.875354 0
M  V30 1634 C 182.862 0.698994 3.5376 0
M  V30 1635 O 181.966 -0.255208 4.1161 0
M  V30 1636 H 181.307 0.203872 0.631927 0
M  V30 1637 H 183.837 1.19225 1.66272 0
M  V30 1638 H 183.847 0.597912 4.03595 0
M  V30 1639 H 182.522 1.72271 3.78544 0
M  V30 1640 H 181.099 -0.10784 3.72744 0
M  V30 1641 N 183.284 -1.43765 0.645699 0
M  V30 1642 C 184.531 -2.01898 0.15604 0
M  V30 1643 C 184.859 -1.50887 -1.22733 0
M  V30 1644 O 184.114 -0.689271 -1.8316 0
M  V30 1645 C 184.413 -3.57238 0.107679 0
M  V30 1646 C 184.079 -4.27564 1.43178 0
M  V30 1647 C 182.741 -4.46492 1.7944 0
M  V30 1648 C 185.093 -4.67454 2.30513 0
M  V30 1649 C 182.421 -5.02573 3.02716 0
M  V30 1650 C 184.773 -5.24901 3.53074 0
M  V30 1651 C 183.437 -5.42046 3.89541 0
M  V30 1652 H 182.707 -0.738797 0.057099 0
M  V30 1653 H 185.354 -1.72341 0.834912 0
M  V30 1654 H 183.659 -3.86293 -0.654618 0
M  V30 1655 H 185.356 -3.99965 -0.287938 0
M  V30 1656 H 181.946 -4.13171 1.13963 0
M  V30 1657 H 186.13 -4.5253 2.0379 0
M  V30 1658 H 181.386 -5.14033 3.31028 0
M  V30 1659 H 185.56 -5.54758 4.20971 0
M  V30 1660 H 183.187 -5.85268 4.85145 0
M  V30 1661 N 184.763 -0.387143 -1.52771 0
M  V30 1662 C 185.988 0.198407 -2.06449 0
M  V30 1663 C 186.413 1.39918 -1.25716 0
M  V30 1664 O 185.771 1.79099 -0.281657 0
M  V30 1665 C 185.819 0.548893 -3.56398 0
M  V30 1666 O 184.923 1.64315 -3.78252 0
M  V30 1667 H 184.264 0.0237731 -0.663574 0
M  V30 1668 H 186.794 -0.553989 -1.96957 0
M  V30 1669 H 186.804 0.813812 -3.99801 0
M  V30 1670 H 185.479 -0.329005 -4.14597 0
M  V30 1671 H 184.056 1.37211 -3.46738 0
M  V30 1672 N 186.241 1.57166 -0.116904 0
M  V30 1673 C 187.481 1.97008 0.544715 0
M  V30 1674 C 187.845 0.998713 1.63981 0
M  V30 1675 O 189.046 1.28644 2.36018 0
M  V30 1676 C 187.317 3.41145 1.06559 0
M  V30 1677 S 188.876 4.02998 1.73603 0
M  V30 1678 H 185.694 0.688587 0.177112 0
M  V30 1679 H 188.296 1.94459 -0.201487 0
M  V30 1680 H 187 4.09592 0.257374 0
M  V30 1681 H 186.531 3.4734 1.84712 0
M  V30 1682 H 188.546 3.93585 3.02168 0
M  V30 1683 N 187.719 -0.156864 1.56817 0
M  V30 1684 C 189.135 -0.50916 1.5126 0
M  V30 1685 C 189.335 -1.83897 0.823658 0
M  V30 1686 O 188.391 -2.49469 0.390055 0
M  V30 1687 C 189.704 -0.52857 2.96018 0
M  V30 1688 C 191.252 -0.614771 3.06903 0
M  V30 1689 C 191.727 -0.664938 4.53147 0
M  V30 1690 N 193.218 -0.727433 4.57452 0
M  V30 1691 C 193.953 -0.787067 5.67973 0
M  V30 1692 N 193.449 -0.806649 6.88088 0
M  V30 1693 N 195.242 -0.827195 5.5598 0
M  V30 1694 H 187.393 0.714935 2.00006 0
M  V30 1695 H 189.656 0.259526 0.911784 0
M  V30 1696 H 189.362 0.380154 3.49639 0
M  V30 1697 H 189.236 -1.36998 3.51442 0
M  V30 1698 H 191.623 -1.51392 2.53307 0
M  V30 1699 H 191.704 0.253597 2.5454 0
M  V30 1700 H 191.348 0.230011 5.07379 0
M  V30 1701 H 191.278 -1.54966 5.03282 0
M  V30 1702 H 193.769 -0.719998 3.70978 0
M  V30 1703 H 194.082 -0.853727 7.6807 0
M  V30 1704 H 192.427 -0.774687 6.90669 0
M  V30 1705 H 195.618 -0.808998 4.61056 0
M  V30 1706 H 195.791 -0.870206 6.4213 0
M  V30 1707 N 189.197 -1.51736 -0.425897 0
M  V30 1708 C 190.445 -1.64644 -1.17204 0
M  V30 1709 C 190.766 -0.370486 -1.91448 0
M  V30 1710 O 190.036 0.614088 -1.86026 0
M  V30 1711 H 188.616 -0.606819 -0.435638 0
M  V30 1712 H 191.278 -1.88713 -0.487177 0
M  V30 1713 H 190.374 -2.47958 -1.89534 0
M  V30 1714 N 190.675 0.682077 -1.42076 0
M  V30 1715 C 191.638 1.77756 -1.44691 0
M  V30 1716 C 192.638 1.5726 -0.335535 0
M  V30 1717 O 193.828 1.63686 -0.596037 0
M  V30 1718 C 190.96 3.16301 -1.27146 0
M  V30 1719 H 192.153 1.76826 -2.42224 0
M  V30 1720 H 189.706 0.891012 -1.28416 0
M  V30 1721 H 190.441 3.22862 -0.305075 0
M  V30 1722 H 190.226 3.32581 -2.07683 0
M  V30 1723 H 191.716 3.96241 -1.31843 0
M  V30 1724 N 192.153 1.28127 0.917671 0
M  V30 1725 C 193.116 1.11744 2.00115 0
M  V30 1726 C 194.116 0.0583052 1.60694 0
M  V30 1727 O 195.306 0.303755 1.71531 0
M  V30 1728 C 192.438 0.704862 3.33533 0
M  V30 1729 H 193.631 2.07966 2.16079 0
M  V30 1730 H 191.184 1.11058 1.09981 0
M  V30 1731 H 191.919 -0.258299 3.2327 0
M  V30 1732 H 191.704 1.4699 3.63505 0
M  V30 1733 H 193.194 0.612768 4.1308 0
M  V30 1734 N 193.631 -1.12557 1.10312 0
M  V30 1735 C 194.856 -1.88405 0.867085 0
M  V30 1736 C 195.281 -1.79038 -0.576817 0
M  V30 1737 O 194.639 -1.14439 -1.40618 0
M  V30 1738 C 194.687 -3.3563 1.31851 0
M  V30 1739 O 193.791 -4.09565 0.482734 0
M  V30 1740 H 193.132 -0.585455 0.313271 0
M  V30 1741 H 195.662 -1.42352 1.4696 0
M  V30 1742 H 195.672 -3.86469 1.3079 0
M  V30 1743 H 194.347 -3.41765 2.37001 0
M  V30 1744 H 192.924 -3.68695 0.558448 0
M  V30 1745 N 195.109 -0.891671 -1.2995 0
M  V30 1746 C 196.357 -0.512486 -1.95494 0
M  V30 1747 C 196.678 0.942776 -1.70695 0
M  V30 1748 O 195.948 1.66374 -1.03424 0
M  V30 1749 H 194.528 -0.186533 -0.723336 0
M  V30 1750 H 197.19 -1.13621 -1.58355 0
M  V30 1751 H 196.286 -0.688342 -3.04415 0
M  V30 1752 N 196.587 1.43421 -0.653314 0
M  V30 1753 C 197.998 1.85065 -0.246537 0
M  V30 1754 C 198.349 1.54688 1.2069 0
M  V30 1755 O 197.474 0.995896 1.92122 0
M  V30 1756 C 198.069 3.35922 -0.440666 0
M  V30 1757 C 196.628 3.76297 -0.0882064 0
M  V30 1758 C 195.775 2.67147 -0.743484 0
M  V30 1759 H 198.726 1.33572 -0.856979 0
M  V30 1760 H 198.747 3.79204 0.313798 0
M  V30 1761 H 198.259 3.58 -1.49858 0
M  V30 1762 H 196.36 3.5983 0.96711 0
M  V30 1763 H 196.473 4.76338 -0.513738 0
M  V30 1764 H 194.837 2.54086 -0.176712 0
M  V30 1765 H 195.62 2.92053 -1.80443 0
M  V30 1766 N 198.065 0.39524 1.52563 0
M  V30 1767 C 199.028 -0.425001 2.25225 0
M  V30 1768 C 200.028 -0.985266 1.27079 0
M  V30 1769 O 201.218 -0.866332 1.5113 0
M  V30 1770 C 198.35 -1.59686 3.01186 0
M  V30 1771 H 199.543 0.211233 2.99155 0
M  V30 1772 H 197.096 0.147472 1.55603 0
M  V30 1773 H 197.831 -2.27035 2.31572 0
M  V30 1774 H 197.616 -1.20176 3.73229 0
M  V30 1775 H 199.106 -2.17743 3.5634 0
M  V30 1776 N 199.544 -1.57102 0.125237 0
M  V30 1777 C 200.955 -1.82384 -0.399142 0
M  V30 1778 C 201.306 -1.04276 -1.66195 0
M  V30 1779 O 200.431 -0.281269 -2.14564 0
M  V30 1780 C 201.026 -3.30821 -0.730932 0
M  V30 1781 C 199.585 -3.56762 -1.19992 0
M  V30 1782 C 198.732 -2.7649 -0.211792 0
M  V30 1783 H 201.683 -1.54786 0.350277 0
M  V30 1784 H 201.704 -3.4579 -1.58775 0
M  V30 1785 H 201.216 -3.87643 0.188345 0
M  V30 1786 H 199.317 -3.05305 -2.13588 0
M  V30 1787 H 199.43 -4.65317 -1.14093 0
M  V30 1788 H 197.794 -2.4489 -0.700085 0
M  V30 1789 H 198.577 -3.36073 0.700691 0
M  V30 1790 N 201.022 0.148545 -1.56898 0
M  V30 1791 C 202.27 0.859717 -1.82902 0
M  V30 1792 C 202.591 1.81775 -0.70588 0
M  V30 1793 O 201.861 1.93994 0.272586 0
M  V30 1794 H 200.441 0.320469 -0.674766 0
M  V30 1795 H 203.103 0.142918 -1.94375 0
M  V30 1796 H 202.199 1.4229 -2.77777 0
M  V30 1797 N 202.5 1.5196 0.417844 0
M  V30 1798 C 203.911 1.57851 0.997 0
M  V30 1799 C 204.262 0.413714 1.91789 0
M  V30 1800 O 203.387 -0.467057 2.113 0
M  V30 1801 C 203.982 2.86085 1.81496 0
M  V30 1802 C 202.541 2.94483 2.34428 0
M  V30 1803 C 201.688 2.52707 1.14169 0
M  V30 1804 H 204.639 1.57455 0.198392 0
M  V30 1805 H 204.66 2.70947 2.67148 0
M  V30 1806 H 204.172 3.70842 1.14446 0
M  V30 1807 H 202.273 2.142 3.04875 0
M  V30 1808 H 202.386 3.98546 2.65891 0
M  V30 1809 H 200.75 2.06353 1.49301 0
M  V30 1810 H 201.533 3.39828 0.486999 0
M  V30 1811 N 203.978 -0.674533 1.42435 0
M  V30 1812 C 205.226 -1.43175 1.42637 0
M  V30 1813 C 205.547 -1.94951 0.0438992 0
M  V30 1814 O 204.817 -1.7308 -0.917607 0
M  V30 1815 H 203.397 -0.531307 0.525092 0
M  V30 1816 H 206.059 -0.797006 1.77859 0
M  V30 1817 H 205.155 -2.28463 2.12629 0
M  V30 1818 N 205.456 -1.28612 -0.910864 0
M  V30 1819 C 206.867 -1.14406 -1.47541 0
M  V30 1820 C 207.218 0.264901 -1.94403 0
M  V30 1821 O 206.343 1.15942 -1.82719 0
M  V30 1822 C 206.938 -2.07073 -2.68153 0
M  V30 1823 C 205.497 -1.96923 -3.20778 0
M  V30 1824 C 204.644 -1.98646 -1.93481 0
M  V30 1825 H 207.595 -1.41259 -0.723291 0
M  V30 1826 H 207.616 -1.63642 -3.43514 0
M  V30 1827 H 207.128 -3.09611 -2.34015 0
M  V30 1828 H 205.229 -0.97433 -3.59635 0
M  V30 1829 H 205.342 -2.84026 -3.85832 0
M  V30 1830 H 203.706 -1.43093 -2.10705 0
M  V30 1831 H 204.489 -3.02868 -1.61634 0
M  V30 1832 N 206.934 1.1197 -1.10907 0
M  V30 1833 C 207.897 2.16031 -0.765707 0
M  V30 1834 C 208.897 1.59393 0.212235 0
M  V30 1835 O 210.087 1.74196 -0.0115441 0
M  V30 1836 C 207.219 3.40632 -0.135053 0
M  V30 1837 H 208.412 2.47919 -1.68748 0
M  V30 1838 H 205.965 1.27061 -0.910226 0
M  V30 1839 H 206.7 3.14348 0.797218 0
M  V30 1840 H 206.485 3.8302 -0.838937 0
M  V30 1841 H 207.975 4.17505 0.0892469 0
M  V30 1842 N 208.412 0.89855 1.29475 0
M  V30 1843 C 209.322 0.379974 2.31502 0
M  V30 1844 C 210.338 -0.524695 1.659 0
M  V30 1845 O 211.514 -0.414551 1.97087 0
M  V30 1846 C 208.579 -0.385138 3.44554 0
M  V30 1847 C 207.64 0.550914 4.2575 0
M  V30 1848 C 206.873 -0.177778 5.33404 0
M  V30 1849 O 207.096 -1.40189 5.52904 0
M  V30 1850 O 206.03 0.479106 5.9999 0
M  V30 1851 H 209.856 1.22639 2.77837 0
M  V30 1852 H 207.441 0.662834 1.33891 0
M  V30 1853 H 209.323 -0.817841 4.13388 0
M  V30 1854 H 207.998 -1.20763 3.0033 0
M  V30 1855 H 206.905 1.03271 3.59564 0
M  V30 1856 H 208.238 1.33979 4.73614 0
M  V30 1857 N 209.89 -1.43072 0.660911 0
M  V30 1858 C 210.8 -2.34585 -0.0264163 0
M  V30 1859 C 211.816 -1.54316 -0.803898 0
M  V30 1860 O 212.992 -1.86939 -0.749391 0
M  V30 1861 C 210.057 -3.32689 -0.975639 0
M  V30 1862 C 209.118 -4.2886 -0.194236 0
M  V30 1863 C 208.351 -5.22278 -1.09825 0
M  V30 1864 O 208.574 -5.20299 -2.33763 0
M  V30 1865 O 207.508 -5.99228 -0.566513 0
M  V30 1866 H 211.334 -2.94869 0.727034 0
M  V30 1867 H 208.919 -1.43342 0.42111 0
M  V30 1868 H 210.801 -3.92995 -1.52094 0
M  V30 1869 H 209.476 -2.74898 -1.70918 0
M  V30 1870 H 208.383 -3.72011 0.394835 0
M  V30 1871 H 209.716 -4.89655 0.499899 0
M  V30 1872 N 211.368 -0.403325 -1.52352 0
M  V30 1873 C 212.331 0.413051 -2.25447 0
M  V30 1874 C 213.331 0.978513 -1.276 0
M  V30 1875 O 214.521 0.858305 -1.51587 0
M  V30 1876 C 211.653 1.58087 -3.02029 0
M  V30 1877 H 212.846 -0.227094 -2.99039 0
M  V30 1878 H 210.399 -0.155722 -1.55522 0
M  V30 1879 H 211.134 2.25804 -2.32772 0
M  V30 1880 H 210.919 1.18195 -3.73861 0
M  V30 1881 H 212.409 2.1585 -3.57489 0
M  V30 1882 N 212.846 1.57033 -0.133567 0
M  V30 1883 C 214.094 1.953 0.519848 0
M  V30 1884 C 214.415 1.01866 1.66278 0
M  V30 1885 O 213.685 0.0776513 1.95746 0
M  V30 1886 H 212.265 0.721091 0.195032 0
M  V30 1887 H 214.927 1.93809 -0.205921 0
M  V30 1888 H 214.023 2.98695 0.904854 0
M  V30 1889 N 214.325 -0.140222 1.56975 0
M  V30 1890 C 215.55 -0.870414 1.88251 0
M  V30 1891 C 215.975 -1.73637 0.723312 0
M  V30 1892 O 215.333 -1.78329 -0.32689 0
M  V30 1893 C 215.381 -1.69737 3.18154 0
M  V30 1894 O 214.485 -2.80229 3.02565 0
M  V30 1895 H 213.826 -0.242025 0.61832 0
M  V30 1896 H 216.356 -0.128999 2.04193 0
M  V30 1897 H 216.366 -2.09099 3.50345 0
M  V30 1898 H 215.041 -1.06152 4.02125 0
M  V30 1899 H 213.618 -2.44224 2.81796 0
M  V30 1900 N 215.803 -1.52179 -0.40978 0
M  V30 1901 C 216.713 -1.78364 -1.52392 0
M  V30 1902 C 217.729 -0.669183 -1.60617 0
M  V30 1903 O 218.905 -0.954518 -1.77344 0
M  V30 1904 C 215.97 -1.92822 -2.88133 0
M  V30 1905 C 215.031 -3.16725 -2.898 0
M  V30 1906 C 214.264 -3.30483 -4.19067 0
M  V30 1907 O 214.487 -2.49522 -5.12928 0
M  V30 1908 O 213.421 -4.2363 -4.27576 0
M  V30 1909 H 217.247 -2.72931 -1.33201 0
M  V30 1910 H 214.832 -1.37016 -0.59557 0
M  V30 1911 H 216.714 -2.04157 -3.68643 0
M  V30 1912 H 215.389 -1.01444 -3.07393 0
M  V30 1913 H 214.296 -3.10848 -2.08146 0
M  V30 1914 H 215.629 -4.07881 -2.75489 0
M  V30 1915 N 217.281 0.66697 -1.42791 0
M  V30 1916 C 218.191 1.80962 -1.49299 0
M  V30 1917 C 219.207 1.69775 -0.381108 0
M  V30 1918 O 220.383 1.91188 -0.633188 0
M  V30 1919 C 217.448 3.17156 -1.40045 0
M  V30 1920 C 216.509 3.40242 -2.6179 0
M  V30 1921 C 215.742 4.69939 -2.52969 0
M  V30 1922 O 215.965 5.48372 -1.56985 0
M  V30 1923 O 214.899 4.94441 -3.43237 0
M  V30 1924 H 218.725 1.78427 -2.45759 0
M  V30 1925 H 216.31 0.823713 -1.24641 0
M  V30 1926 H 218.192 3.98413 -1.37276 0
M  V30 1927 H 216.867 3.20312 -0.467138 0
M  V30 1928 H 215.774 2.58802 -2.70134 0
M  V30 1929 H 217.107 3.41923 -3.54047 0
M  V30 1930 N 218.759 1.29093 0.90403 0
M  V30 1931 C 219.722 1.1386 1.98919 0
M  V30 1932 C 220.722 0.0753457 1.60623 0
M  V30 1933 O 221.912 0.321931 1.71199 0
M  V30 1934 C 219.044 0.740198 3.32767 0
M  V30 1935 H 220.237 2.10246 2.13861 0
M  V30 1936 H 217.79 1.12218 1.08797 0
M  V30 1937 H 218.525 -0.223997 3.23525 0
M  V30 1938 H 218.31 1.50838 3.61926 0
M  V30 1939 H 219.8 0.656546 4.12407 0
M  V30 1940 N 220.237 -1.11381 1.11499 0
M  V30 1941 C 221.485 -1.8277 0.862524 0
M  V30 1942 C 221.806 -1.85097 -0.613534 0
M  V30 1943 O 221.076 -1.32198 -1.4457 0
M  V30 1944 H 219.656 -0.676823 0.316101 0
M  V30 1945 H 222.318 -1.34816 1.4075 0
M  V30 1946 H 221.414 -2.86614 1.23527 0
M  V30 1947 N 221.715 -0.905404 -1.28997 0
M  V30 1948 C 223.126 -0.581953 -1.77398 0
M  V30 1949 C 223.477 0.902552 -1.74208 0
M  V30 1950 O 222.602 1.70584 -1.33154 0
M  V30 1951 C 223.197 -1.04961 -3.22131 0
M  V30 1952 C 221.756 -0.777229 -3.68288 0
M  V30 1953 C 220.903 -1.22109 -2.48967 0
M  V30 1954 H 223.854 -1.08754 -1.15578 0
M  V30 1955 H 223.875 -0.387387 -3.78523 0
M  V30 1956 H 223.387 -2.13008 -3.24421 0
M  V30 1957 H 221.488 0.290383 -3.71467 0
M  V30 1958 H 221.601 -1.37911 -4.58822 0
M  V30 1959 H 219.965 -0.639971 -2.46529 0
M  V30 1960 H 220.748 -2.30972 -2.53982 0
M  V30 1961 N 223.193 1.4272 -0.668489 0
M  V30 1962 C 224.156 2.292 0.00448567 0
M  V30 1963 C 225.156 1.43001 0.735339 0
M  V30 1964 O 226.346 1.64461 0.57429 0
M  V30 1965 C 223.478 3.25375 1.01705 0
M  V30 1966 H 224.671 2.90199 -0.756608 0
M  V30 1967 H 222.224 1.50254 -0.430506 0
M  V30 1968 H 222.959 2.69301 1.80686 0
M  V30 1969 H 222.744 3.88944 0.496463 0
M  V30 1970 H 224.234 3.90245 1.48655 0
M  V30 1971 N 224.671 0.411399 1.52136 0
M  V30 1972 C 225.919 -0.163322 2.01439 0
M  V30 1973 C 226.24 -1.45453 1.29879 0
M  V30 1974 O 225.51 -1.91225 0.4254 0
M  V30 1975 H 224.09 -0.0633447 0.744309 0
M  V30 1976 H 226.752 0.548161 1.87033 0
M  V30 1977 H 225.848 -0.357817 3.10042 0
M  V30 1978 N 226.149 -1.5696 0.141893 0
M  V30 1979 C 227.059 -2.20066 -0.812905 0
M  V30 1980 C 228.075 -1.18344 -1.27557 0
M  V30 1981 O 229.251 -1.50902 -1.33381 0
M  V30 1982 C 226.316 -2.80583 -2.03652 0
M  V30 1983 C 225.377 -3.97414 -1.62359 0
M  V30 1984 C 224.61 -4.55036 -2.78887 0
M  V30 1985 O 224.833 -4.11538 -3.94959 0
M  V30 1986 O 223.767 -5.45376 -2.54653 0
M  V30 1987 H 227.593 -3.02157 -0.305746 0
M  V30 1988 H 225.178 -1.49159 -0.0848799 0
M  V30 1989 H 227.06 -3.19067 -2.75272 0
M  V30 1990 H 225.735 -2.01508 -2.5333 0
M  V30 1991 H 224.642 -3.63656 -0.877775 0
M  V30 1992 H 225.975 -4.77994 -1.17401 0
M  V30 1993 N 227.627 0.131896 -1.57047 0
M  V30 1994 C 229.038 0.690407 -1.73465 0
M  V30 1995 C 229.389 1.8094 -0.758629 0
M  V30 1996 O 228.514 2.16282 0.0713813 0
M  V30 1997 C 229.109 1.25916 -3.14532 0
M  V30 1998 C 227.668 1.76409 -3.32501 0
M  V30 1999 C 226.815 0.658579 -2.69366 0
M  V30 2000 H 229.766 -0.0939144 -1.58422 0
M  V30 2001 H 229.787 2.12892 -3.15369 0
M  V30 2002 H 229.299 0.444515 -3.85546 0
M  V30 2003 H 227.4 2.60391 -2.66509 0
M  V30 2004 H 227.513 1.88241 -4.4057 0
M  V30 2005 H 225.877 1.08899 -2.30246 0
M  V30 2006 H 226.66 -0.14487 -3.42994 0
M  V30 2007 N 229.106 1.52395 0.401703 0
M  V30 2008 C 230.522 1.41363 0.740864 0
M  V30 2009 C 230.722 0.523982 1.94568 0
M  V30 2010 O 229.778 -0.00741204 2.52499 0
M  V30 2011 C 231.091 2.84011 0.987847 0
M  V30 2012 C 232.639 2.93404 1.09011 0
M  V30 2013 C 233.114 4.37036 1.3698 0
M  V30 2014 N 234.605 4.40304 1.43829 0
M  V30 2015 C 235.34 5.48508 1.67112 0
M  V30 2016 N 234.836 6.66819 1.87949 0
M  V30 2017 N 236.629 5.36034 1.69187 0
M  V30 2018 H 228.78 2.08765 -0.391262 0
M  V30 2019 H 231.043 0.941265 -0.112798 0
M  V30 2020 H 230.749 3.51265 0.174835 0
M  V30 2021 H 230.623 3.25502 1.906 0
M  V30 2022 H 233.01 2.26325 1.8937 0
M  V30 2023 H 233.091 2.55359 0.15015 0
M  V30 2024 H 232.735 5.04676 0.571353 0
M  V30 2025 H 232.665 4.72623 2.3224 0
M  V30 2026 H 235.156 3.55024 1.29486 0
M  V30 2027 H 235.469 7.45063 2.05185 0
M  V30 2028 H 233.814 6.6987 1.85199 0
M  V30 2029 H 237.005 4.42579 1.52451 0
M  V30 2030 H 237.178 6.20434 1.86993 0
M  V30 2031 N 230.584 -0.659388 1.43143 0
M  V30 2032 C 231.832 -1.41654 1.44147 0
M  V30 2033 C 232.153 -1.94893 0.0645739 0
M  V30 2034 O 231.423 -1.74044 -0.899198 0
M  V30 2035 H 230.003 -0.525708 0.530697 0
M  V30 2036 H 232.665 -0.778097 1.78694 0
M  V30 2037 H 231.761 -2.26195 2.1504 0
M  V30 2038 N 232.062 -1.29571 -0.897171 0
M  V30 2039 C 233.287 -1.20705 -1.68656 0
M  V30 2040 C 233.712 0.228582 -1.86706 0
M  V30 2041 O 233.07 1.16494 -1.3892 0
M  V30 2042 C 233.118 -1.9282 -3.04717 0
M  V30 2043 O 232.222 -1.24697 -3.93096 0
M  V30 2044 H 231.563 -0.418126 -0.515816 0
M  V30 2045 H 234.093 -1.71183 -1.12061 0
M  V30 2046 H 234.103 -2.01372 -3.54843 0
M  V30 2047 H 232.778 -2.97239 -2.90899 0
M  V30 2048 H 231.355 -1.2442 -3.51531 0
M  V30 2049 N 233.54 1.10788 -1.12088 0
M  V30 2050 C 234.472 2.16816 -0.743213 0
M  V30 2051 C 235.485 1.6119 0.228412 0
M  V30 2052 O 236.674 1.78497 0.0102931 0
M  V30 2053 C 233.774 3.38809 -0.0787313 0
M  V30 2054 C 232.947 4.23885 -1.0789 0
M  V30 2055 C 232.006 5.24334 -0.442713 0
M  V30 2056 O 231.032 5.58497 -1.09864 0
M  V30 2057 N 232.234 5.75079 0.791457 0
M  V30 2058 H 234.999 2.49825 -1.65552 0
M  V30 2059 H 232.56 1.26373 -1.012 0
M  V30 2060 H 234.552 4.03107 0.358766 0
M  V30 2061 H 233.122 3.03805 0.736275 0
M  V30 2062 H 232.342 3.55939 -1.69414 0
M  V30 2063 H 233.63 4.77562 -1.75533 0
M  V30 2064 H 233.028 5.49517 1.3434 0
M  V30 2065 H 231.585 6.4118 1.17183 0
M  V30 2066 N 235.018 0.912232 1.28515 0
M  V30 2067 C 235.981 0.404223 2.25607 0
M  V30 2068 C 236.981 -0.468602 1.53821 0
M  V30 2069 O 238.171 -0.271873 1.72065 0
M  V30 2070 C 235.303 -0.420653 3.38295 0
M  V30 2071 H 236.496 1.26188 2.7206 0
M  V30 2072 H 234.049 0.691495 1.40171 0
M  V30 2073 H 234.784 -1.29777 2.97201 0
M  V30 2074 H 234.569 0.204935 3.91564 0
M  V30 2075 H 236.059 -0.766971 4.10496 0
M  V30 2076 N 236.496 -1.42363 0.676048 0
M  V30 2077 C 237.721 -2.06377 0.205705 0
M  V30 2078 C 238.146 -1.50463 -1.12883 0
M  V30 2079 O 237.504 -0.623619 -1.70237 0
M  V30 2080 C 237.552 -3.60277 0.152655 0
M  V30 2081 O 236.656 -4.02935 -0.87845 0
M  V30 2082 H 235.997 -0.655588 0.105359 0
M  V30 2083 H 238.527 -1.82475 0.925412 0
M  V30 2084 H 238.537 -4.07993 -0.0230675 0
M  V30 2085 H 237.212 -4.00346 1.12675 0
M  V30 2086 H 235.789 -3.66764 -0.673668 0
M  V30 2087 N 237.974 -0.419461 -1.51915 0
M  V30 2088 C 239.221 0.152939 -2.01922 0
M  V30 2089 C 239.549 1.4426 -1.30458 0
M  V30 2090 O 238.804 1.91514 -0.402593 0
M  V30 2091 C 239.103 0.437067 -3.54717 0
M  V30 2092 C 238.769 -0.764632 -4.44369 0
M  V30 2093 C 237.431 -1.09423 -4.68594 0
M  V30 2094 C 239.783 -1.56713 -4.97082 0
M  V30 2095 C 237.111 -2.22732 -5.42777 0
M  V30 2096 C 239.463 -2.69107 -5.72507 0
M  V30 2097 C 238.127 -3.02541 -5.95 0
M  V30 2098 H 237.397 0.0559644 -0.738884 0
M  V30 2099 H 240.044 -0.562998 -1.83037 0
M  V30 2100 H 238.349 1.23469 -3.71837 0
M  V30 2101 H 240.046 0.893083 -3.90928 0
M  V30 2102 H 236.636 -0.497775 -4.257 0
M  V30 2103 H 240.82 -1.32571 -4.78266 0
M  V30 2104 H 236.076 -2.48971 -5.58411 0
M  V30 2105 H 240.25 -3.31671 -6.12346 0
M  V30 2106 H 237.877 -3.90457 -6.52264 0
M  V30 2107 N 239.452 1.56882 -0.150215 0
M  V30 2108 C 240.385 2.12712 0.826358 0
M  V30 2109 C 241.363 1.05154 1.24022 0
M  V30 2110 O 242.547 1.33004 1.33575 0
M  V30 2111 C 239.674 2.64945 2.11002 0
M  V30 2112 C 238.72 3.8468 1.84183 0
M  V30 2113 S 239.553 5.25502 1.02995 0
M  V30 2114 C 240.709 5.81125 2.32474 0
M  V30 2115 H 240.942 2.95214 0.351598 0
M  V30 2116 H 238.475 1.54267 0.0641211 0
M  V30 2117 H 240.433 2.95689 2.84742 0
M  V30 2118 H 239.094 1.82568 2.55593 0
M  V30 2119 H 238.287 4.19482 2.79375 0
M  V30 2120 H 237.889 3.54714 1.1855 0
M  V30 2121 H 240.181 5.92753 3.281 0
M  V30 2122 H 241.124 6.78625 2.02171 0
M  V30 2123 H 241.532 5.09392 2.43269 0
M  V30 2124 N 240.93 -0.123565 1.57115 0
M  V30 2125 C 241.862 -1.17739 1.96648 0
M  V30 2126 C 242.875 -1.37906 0.865201 0
M  V30 2127 O 244.064 -1.37062 1.14351 0
M  V30 2128 C 241.164 -2.53821 2.24562 0
M  V30 2129 C 240.337 -2.54317 3.55867 0
M  V30 2130 C 239.396 -3.72112 3.72047 0
M  V30 2131 O 238.422 -3.55907 4.44206 0
M  V30 2132 N 239.624 -4.90498 3.10471 0
M  V30 2133 H 242.389 -0.841147 2.87654 0
M  V30 2134 H 239.95 -0.31289 1.58848 0
M  V30 2135 H 241.942 -3.31175 2.32606 0
M  V30 2136 H 240.512 -2.79645 1.39705 0
M  V30 2137 H 239.732 -1.62711 3.59053 0
M  V30 2138 H 241.02 -2.51701 4.42181 0
M  V30 2139 H 240.418 -5.06567 2.51806 0
M  V30 2140 H 238.975 -5.65544 3.24043 0
M  V30 2141 N 242.408 -1.52605 -0.393616 0
M  V30 2142 C 243.824 -1.41753 -0.733357 0
M  V30 2143 C 244.024 -0.534293 -1.94287 0
M  V30 2144 O 243.08 -0.0059787 -2.52499 0
M  V30 2145 C 244.393 -2.84531 -0.972772 0
M  V30 2146 C 245.941 -2.93978 -1.07453 0
M  V30 2147 C 246.416 -4.37756 -1.3466 0
M  V30 2148 N 247.907 -4.4106 -1.41492 0
M  V30 2149 C 248.642 -5.49387 -1.642 0
M  V30 2150 N 248.138 -6.67806 -1.8441 0
M  V30 2151 N 249.931 -5.36923 -1.66342 0
M  V30 2152 H 242.082 -2.08555 0.402328 0
M  V30 2153 H 244.345 -0.940654 0.117789 0
M  V30 2154 H 244.051 -3.51353 -0.156204 0
M  V30 2155 H 243.925 -3.26508 -1.88871 0
M  V30 2156 H 246.312 -2.27326 -1.88167 0
M  V30 2157 H 246.393 -2.55435 -0.136605 0
M  V30 2158 H 246.037 -5.04972 -0.544581 0
M  V30 2159 H 245.967 -4.73848 -2.2973 0
M  V30 2160 H 248.458 -3.55705 -1.27601 0
M  V30 2161 H 248.771 -7.46141 -2.01231 0
M  V30 2162 H 247.116 -6.70843 -1.81644 0
M  V30 2163 H 250.307 -4.43381 -1.50102 0
M  V30 2164 H 250.48 -6.21416 -1.837 0
M  V30 2165 N 243.887 0.651787 -1.4349 0
M  V30 2166 C 244.819 1.77725 -1.44729 0
M  V30 2167 C 245.832 1.59141 -0.343231 0
M  V30 2168 O 247.021 1.67835 -0.607751 0
M  V30 2169 C 244.121 3.15172 -1.24579 0
M  V30 2170 C 243.294 3.60402 -2.47849 0
M  V30 2171 C 242.353 4.76656 -2.22902 0
M  V30 2172 O 241.379 4.86022 -2.96263 0
M  V30 2173 N 242.581 5.66958 -1.24656 0
M  V30 2174 H 245.346 1.77141 -2.41746 0
M  V30 2175 H 242.907 0.835678 -1.38665 0
M  V30 2176 H 244.899 3.90634 -1.0577 0
M  V30 2177 H 243.469 3.1052 -0.360015 0
M  V30 2178 H 242.689 2.75369 -2.82073 0
M  V30 2179 H 243.977 3.87368 -3.29884 0
M  V30 2180 H 243.375 5.62065 -0.640265 0
M  V30 2181 H 241.932 6.42135 -1.1183 0
M  V30 2182 N 245.365 1.30045 0.890287 0
M  V30 2183 C 246.612 1.18561 1.64163 0
M  V30 2184 C 246.94 -0.260852 1.92743 0
M  V30 2185 O 246.195 -1.20376 1.54299 0
M  V30 2186 C 246.494 1.95409 2.99249 0
M  V30 2187 C 246.16 3.45066 2.90242 0
M  V30 2188 C 244.822 3.85878 2.87492 0
M  V30 2189 C 247.174 4.4039 2.78758 0
M  V30 2190 C 244.502 5.20314 2.7109 0
M  V30 2191 C 246.854 5.74928 2.63894 0
M  V30 2192 C 245.518 6.14986 2.59516 0
M  V30 2193 H 244.788 0.433846 0.600715 0
M  V30 2194 H 247.435 1.61088 1.03552 0
M  V30 2195 H 245.74 1.45501 3.63781 0
M  V30 2196 H 247.437 1.8392 3.56334 0
M  V30 2197 H 244.027 3.12631 2.93189 0
M  V30 2198 H 248.211 4.09806 2.79952 0
M  V30 2199 H 243.467 5.50449 2.66112 0
M  V30 2200 H 247.641 6.48434 2.53981 0
M  V30 2201 H 245.268 7.19104 2.46565 0
M  V30 2202 N 246.843 -1.10192 1.12674 0
M  V30 2203 C 248.091 -1.81845 0.881861 0
M  V30 2204 C 248.412 -1.85737 -0.593867 0
M  V30 2205 O 247.682 -1.33724 -1.4316 0
M  V30 2206 H 246.262 -0.673432 0.323261 0
M  V30 2207 H 248.924 -1.33316 1.42172 0
M  V30 2208 H 248.02 -2.85288 1.2656 0
M  V30 2209 N 248.321 -0.919034 -1.28029 0
M  V30 2210 C 249.284 -0.416182 -2.2539 0
M  V30 2211 C 250.284 0.460438 -1.54067 0
M  V30 2212 O 251.474 0.262744 -1.72207 0
M  V30 2213 C 248.606 0.402707 -3.38513 0
M  V30 2214 H 249.799 -1.27629 -2.71387 0
M  V30 2215 H 247.352 -0.698919 -1.39803 0
M  V30 2216 H 248.087 1.282 -2.97885 0
M  V30 2217 H 247.872 -0.225698 -3.9145 0
M  V30 2218 H 249.362 0.745191 -4.10897 0
M  V30 2219 N 249.799 1.42003 -0.683588 0
M  V30 2220 C 250.729 2.33487 -0.024866 0
M  V30 2221 C 251.71 1.51163 0.779975 0
M  V30 2222 O 252.895 1.79739 0.735362 0
M  V30 2223 C 250.025 3.3487 0.920836 0
M  V30 2224 C 248.979 4.27414 0.223958 0
M  V30 2225 C 248.305 5.19074 1.2832 0
M  V30 2226 C 249.605 5.14445 -0.90242 0
M  V30 2227 H 251.299 2.88819 -0.788921 0
M  V30 2228 H 248.845 1.38873 -0.38083 0
M  V30 2229 H 250.798 3.97787 1.39081 0
M  V30 2230 H 249.522 2.77861 1.71642 0
M  V30 2231 H 248.181 3.65904 -0.225864 0
M  V30 2232 H 247.829 4.58387 2.071 0
M  V30 2233 H 247.529 5.81822 0.821995 0
M  V30 2234 H 249.053 5.84867 1.75392 0
M  V30 2235 H 250.467 5.70998 -0.513272 0
M  V30 2236 H 248.864 5.86072 -1.28997 0
M  V30 2237 H 249.934 4.52322 -1.74737 0
M  V30 2238 N 251.277 0.427512 1.51691 0
M  V30 2239 C 252.207 -0.3796 2.30394 0
M  V30 2240 C 253.188 -1.02982 1.35384 0
M  V30 2241 O 254.373 -1.03534 1.643 0
M  V30 2242 C 251.503 -1.48649 3.1388 0
M  V30 2243 C 250.457 -0.960294 4.17088 0
M  V30 2244 C 249.783 -2.16219 4.89033 0
M  V30 2245 C 251.083 -0.00153679 5.223 0
M  V30 2246 H 252.777 0.277164 2.98114 0
M  V30 2247 H 250.323 0.134739 1.43368 0
M  V30 2248 H 252.276 -2.05826 3.67714 0
M  V30 2249 H 251 -2.1714 2.43962 0
M  V30 2250 H 249.659 -0.410806 3.64291 0
M  V30 2251 H 249.307 -2.83307 4.15628 0
M  V30 2252 H 249.007 -1.81654 5.58816 0
M  V30 2253 H 250.531 -2.73968 5.45687 0
M  V30 2254 H 251.945 -0.482687 5.71264 0
M  V30 2255 H 250.342 0.256199 5.99553 0
M  V30 2256 H 251.412 0.938174 4.75738 0
M  V30 2257 N 252.755 -1.56801 0.158532 0
M  V30 2258 C 253.687 -2.14488 -0.807923 0
M  V30 2259 C 254.7 -1.09721 -1.20271 0
M  V30 2260 O 255.889 -1.36956 -1.14478 0
M  V30 2261 C 252.989 -2.66217 -2.09718 0
M  V30 2262 C 252.162 -3.95507 -1.86796 0
M  V30 2263 C 251.221 -4.3243 -2.99818 0
M  V30 2264 O 250.247 -5.00543 -2.71008 0
M  V30 2265 N 251.449 -3.92947 -4.27285 0
M  V30 2266 H 254.214 -2.98042 -0.314816 0
M  V30 2267 H 251.775 -1.61881 -0.0246692 0
M  V30 2268 H 253.767 -2.87924 -2.84398 0
M  V30 2269 H 252.337 -1.87324 -2.50257 0
M  V30 2270 H 251.557 -3.82309 -0.96089 0
M  V30 2271 H 252.845 -4.79972 -1.68833 0
M  V30 2272 H 252.243 -3.38087 -4.53557 0
M  V30 2273 H 250.8 -4.19681 -4.9871 0
M  V30 2274 N 254.233 0.115231 -1.57178 0
M  V30 2275 C 255.644 0.67197 -1.74188 0
M  V30 2276 C 255.995 1.80125 -0.777777 0
M  V30 2277 O 255.12 2.16346 0.0484376 0
M  V30 2278 C 255.715 1.22573 -3.1585 0
M  V30 2279 C 254.274 1.72872 -3.34353 0
M  V30 2280 C 253.421 0.629972 -2.70049 0
M  V30 2281 H 256.372 -0.110712 -1.58313 0
M  V30 2282 H 256.393 2.09535 -3.17609 0
M  V30 2283 H 255.905 0.403598 -3.85996 0
M  V30 2284 H 254.006 2.5755 -2.69256 0
M  V30 2285 H 254.119 1.83557 -4.42542 0
M  V30 2286 H 252.483 1.0645 -2.31388 0
M  V30 2287 H 253.266 -0.181241 -3.42821 0
M  V30 2288 N 255.711 1.52812 0.385517 0
M  V30 2289 C 256.959 1.67694 1.12797 0
M  V30 2290 C 257.28 0.421115 1.90399 0
M  V30 2291 O 256.55 -0.564551 1.87589 0
M  V30 2292 H 255.13 0.618155 0.419396 0
M  V30 2293 H 257.792 1.89938 0.436972 0
M  V30 2294 H 256.888 2.52896 1.82894 0
M  V30 2295 N 257.189 -0.644168 1.43834 0
M  V30 2296 C 258.435 -1.40603 1.46146 0
M  V30 2297 C 258.768 -1.93997 0.0887717 0
M  V30 2298 O 258.043 -1.72854 -0.891724 0
M  V30 2299 C 258.326 -2.58086 2.51124 0
M  V30 2300 C 258.179 -2.10126 3.97702 0
M  V30 2301 C 259.498 -3.60291 2.52742 0
M  V30 2302 H 256.617 -0.509905 0.532134 0
M  V30 2303 H 259.259 -0.729502 1.75437 0
M  V30 2304 H 257.409 -3.15801 2.26278 0
M  V30 2305 H 259.081 -1.57342 4.33637 0
M  V30 2306 H 257.324 -1.41419 4.10101 0
M  V30 2307 H 257.995 -2.94649 4.66783 0
M  V30 2308 H 260.471 -3.12352 2.7491 0
M  V30 2309 H 259.347 -4.40032 3.28121 0
M  V30 2310 H 259.608 -4.1349 1.56455 0
M  V30 2311 N 258.668 -1.30515 -0.883378 0
M  V30 2312 C 259.616 -1.16941 -2.01066 0
M  V30 2313 C 260.61 -0.0809148 -1.69207 0
M  V30 2314 O 261.816 -0.241877 -1.78367 0
M  V30 2315 H 258.191 -0.361705 -0.659298 0
M  V30 2316 H 260.162 -2.12344 -2.09649 0
M  V30 2317 C 258.911 -0.879694 -3.36388 0
M  V30 2318 H 258.234 -1.70936 -3.61415 0
M  V30 2319 H 259.674 -0.82483 -4.159 0
M  V30 2320 C 258.133 0.417409 -3.34304 0
M  V30 2321 O 258.663 1.43843 -3.75063 0
M  V30 2322 N 256.869 0.429141 -2.87414 0
M  V30 2323 H 256.416 -0.402222 -2.5444 0
M  V30 2324 H 256.374 1.29696 -2.86403 0
M  V30 2325 N 260.146 1.09593 -1.13257 0
M  V30 2326 C 261.093 2.1618 -0.808381 0
M  V30 2327 C 262.063 1.64517 0.228754 0
M  V30 2328 O 263.248 1.9053 0.101381 0
M  V30 2329 C 260.388 3.43973 -0.278675 0
M  V30 2330 C 259.501 4.09545 -1.37466 0
M  V30 2331 C 258.636 5.25088 -0.803479 0
M  V30 2332 C 257.675 5.82579 -1.87799 0
M  V30 2333 N 256.812 6.89486 -1.32488 0
M  V30 2334 H 261.652 2.43254 -1.72138 0
M  V30 2335 H 259.189 1.19392 -0.859294 0
M  V30 2336 H 261.147 4.17174 0.0465583 0
M  V30 2337 H 259.777 3.17223 0.597459 0
M  V30 2338 H 258.829 3.34226 -1.81652 0
M  V30 2339 H 260.141 4.48307 -2.18684 0
M  V30 2340 H 259.295 6.05178 -0.429427 0
M  V30 2341 H 258.034 4.87684 0.0397956 0
M  V30 2342 H 257.039 5.01152 -2.26113 0
M  V30 2343 H 258.264 6.22045 -2.72463 0
M  V30 2344 H 256.21 6.54064 -0.503575 0
M  V30 2345 H 256.127 7.27007 -2.07355 0
M  V30 2346 H 257.395 7.73336 -0.978336 0
M  V30 2347 N 261.624 0.925811 1.2754 0
M  V30 2348 C 262.871 0.565255 1.94451 0
M  V30 2349 C 263.199 -0.89316 1.7278 0
M  V30 2350 O 262.454 -1.65213 1.04895 0
M  V30 2351 C 262.753 0.835296 3.47502 0
M  V30 2352 C 262.419 2.27515 3.89291 0
M  V30 2353 C 261.081 2.66879 4.00411 0
M  V30 2354 C 263.433 3.21158 4.10496 0
M  V30 2355 C 260.761 3.99014 4.30122 0
M  V30 2356 C 263.113 4.52871 4.4169 0
M  V30 2357 C 261.777 4.92072 4.51023 0
M  V30 2358 H 261.047 0.206841 0.711546 0
M  V30 2359 H 263.694 1.16942 1.51647 0
M  V30 2360 H 261.999 0.148442 3.91519 0
M  V30 2361 H 263.696 0.535322 3.97411 0
M  V30 2362 H 260.286 1.95976 3.81171 0
M  V30 2363 H 264.47 2.9195 4.01346 0
M  V30 2364 H 259.726 4.2907 4.35556 0
M  V30 2365 H 263.9 5.25436 4.57045 0
M  V30 2366 H 261.527 5.9449 4.738 0
M  V30 2367 N 263.102 -1.41638 0.69111 0
M  V30 2368 C 264.327 -2.06148 0.227583 0
M  V30 2369 C 264.752 -1.51652 -1.11281 0
M  V30 2370 O 264.11 -0.64164 -1.69566 0
M  V30 2371 C 264.158 -3.60095 0.190858 0
M  V30 2372 O 263.262 -4.03845 -0.835664 0
M  V30 2373 H 262.603 -0.654434 0.112306 0
M  V30 2374 H 265.133 -1.81484 0.944714 0
M  V30 2375 H 265.143 -4.07995 0.020207 0
M  V30 2376 H 263.818 -3.99129 1.16915 0
M  V30 2377 H 262.395 -3.67458 -0.63473 0
M  V30 2378 N 264.58 -0.43555 -1.51462 0
M  V30 2379 C 265.51 0.367376 -2.30592 0
M  V30 2380 C 266.491 1.02263 -1.35928 0
M  V30 2381 O 267.676 1.02661 -1.64847 0
M  V30 2382 C 264.806 1.46983 -3.14664 0
M  V30 2383 C 263.76 0.938161 -4.17591 0
M  V30 2384 C 263.086 2.13622 -4.90173 0
M  V30 2385 C 264.386 -0.0261621 -5.22293 0
M  V30 2386 H 266.08 -0.292969 -2.97963 0
M  V30 2387 H 263.626 -0.14234 -1.43295 0
M  V30 2388 H 265.579 2.03873 -3.688 0
M  V30 2389 H 264.303 2.15843 -2.4511 0
M  V30 2390 H 262.962 0.391481 -3.64504 0
M  V30 2391 H 262.61 2.81098 -4.17124 0
M  V30 2392 H 262.31 1.78688 -5.59772 0
M  V30 2393 H 263.834 2.7107 -5.47132 0
M  V30 2394 H 265.248 0.452384 -5.71512 0
M  V30 2395 H 263.645 -0.287992 -5.99409 0
M  V30 2396 H 264.715 -0.963391 -4.75233 0
M  V30 2397 N 266.058 1.56714 -0.166846 0
M  V30 2398 C 267.474 1.58473 0.189372 0
M  V30 2399 C 267.674 1.18201 1.63189 0
M  V30 2400 O 266.73 0.891528 2.36237 0
M  V30 2401 C 268.043 3.00573 -0.0873872 0
M  V30 2402 C 269.591 3.1299 -0.0252443 0
M  V30 2403 C 270.066 4.57174 -0.274934 0
M  V30 2404 N 271.557 4.62665 -0.222553 0
M  V30 2405 C 272.292 5.72072 -0.389985 0
M  V30 2406 N 271.788 6.90054 -0.616229 0
M  V30 2407 N 273.581 5.61153 -0.326202 0
M  V30 2408 H 265.732 1.8118 -1.10849 0
M  V30 2409 H 267.995 0.839525 -0.440342 0
M  V30 2410 H 267.701 3.34497 -1.0865 0
M  V30 2411 H 267.575 3.72019 0.623037 0
M  V30 2412 H 269.962 2.78895 0.96444 0
M  V30 2413 H 270.043 2.43989 -0.768309 0
M  V30 2414 H 269.687 4.91976 -1.26181 0
M  V30 2415 H 269.617 5.24328 0.48869 0
M  V30 2416 H 272.108 3.77863 -0.0531512 0
M  V30 2417 H 272.421 7.69311 -0.733559 0
M  V30 2418 H 270.766 6.91927 -0.652791 0
M  V30 2419 H 273.957 4.67859 -0.150072 0
M  V30 2420 H 274.13 6.46364 -0.460116 0
M  V30 2421 N 267.536 -0.106894 1.57237 0
M  V30 2422 C 268.469 -1.16125 1.96444 0
M  V30 2423 C 269.447 -1.3947 0.835871 0
M  V30 2424 O 270.631 -1.53425 1.09513 0
M  V30 2425 C 267.758 -2.51277 2.27107 0
M  V30 2426 C 266.804 -2.44285 3.4961 0
M  V30 2427 S 267.637 -1.87077 5.01759 0
M  V30 2428 C 268.793 -3.23877 5.35588 0
M  V30 2429 H 269.026 -0.826971 2.85567 0
M  V30 2430 H 266.559 -0.314124 1.51171 0
M  V30 2431 H 268.517 -3.29035 2.45451 0
M  V30 2432 H 267.178 -2.81879 1.38576 0
M  V30 2433 H 266.371 -3.4387 3.68469 0
M  V30 2434 H 265.973 -1.74652 3.30715 0
M  V30 2435 H 268.265 -4.20122 5.31511 0
M  V30 2436 H 269.208 -3.09833 6.36717 0
M  V30 2437 H 269.616 -3.22864 4.63054 0
M  V30 2438 N 269.014 -1.53014 -0.377408 0
M  V30 2439 C 270.261 -1.68623 -1.12128 0
M  V30 2440 C 270.589 -0.431997 -1.89642 0
M  V30 2441 O 269.844 0.585855 -1.86725 0
M  V30 2442 C 270.143 -2.87982 -2.11663 0
M  V30 2443 C 269.809 -4.24964 -1.50719 0
M  V30 2444 C 268.471 -4.62217 -1.33825 0
M  V30 2445 C 270.823 -5.10199 -1.06519 0
M  V30 2446 C 268.151 -5.82352 -0.712963 0
M  V30 2447 C 270.503 -6.30969 -0.453955 0
M  V30 2448 C 269.167 -6.66944 -0.272411 0
M  V30 2449 H 268.437 -0.617034 -0.410305 0
M  V30 2450 H 271.084 -1.8718 -0.404484 0
M  V30 2451 H 269.389 -2.63889 -2.89603 0
M  V30 2452 H 271.086 -2.97253 -2.6915 0
M  V30 2453 H 267.676 -3.95626 -1.64858 0
M  V30 2454 H 271.86 -4.81978 -1.18368 0
M  V30 2455 H 267.116 -6.08824 -0.560611 0
M  V30 2456 H 271.29 -6.96324 -0.103217 0
M  V30 2457 H 268.917 -7.59898 0.214181 0
M  V30 2458 N 270.492 0.636531 -1.44174 0
M  V30 2459 C 271.74 1.39343 -1.46383 0
M  V30 2460 C 272.061 1.94766 -0.0955715 0
M  V30 2461 O 271.331 1.75452 0.871395 0
M  V30 2462 H 269.911 0.517199 -0.538994 0
M  V30 2463 H 272.573 0.74957 -1.7991 0
M  V30 2464 H 271.669 2.22746 -2.18611 0
M  V30 2465 N 271.97 1.30982 0.876444 0
M  V30 2466 C 273.195 1.23373 1.66715 0
M  V30 2467 C 273.62 -0.19885 1.87046 0
M  V30 2468 O 272.978 -1.1427 1.40756 0
M  V30 2469 C 273.026 1.97644 3.01611 0
M  V30 2470 O 272.13 1.30935 3.91062 0
M  V30 2471 H 271.471 0.426279 0.509099 0
M  V30 2472 H 274.001 1.72944 1.09323 0
M  V30 2473 H 274.011 2.06992 3.51594 0
M  V30 2474 H 272.686 3.01829 2.86133 0
M  V30 2475 H 271.263 1.29996 3.49507 0
M  V30 2476 N 273.449 -1.08991 1.13837 0
M  V30 2477 C 274.381 -2.15606 0.777612 0
M  V30 2478 C 275.394 -1.61533 -0.202739 0
M  V30 2479 O 276.583 -1.78491 0.0181055 0
M  V30 2480 C 273.683 -3.3864 0.132623 0
M  V30 2481 C 272.856 -4.22115 1.1462 0
M  V30 2482 C 271.915 -5.23564 0.526074 0
M  V30 2483 O 270.941 -5.56678 1.18735 0
M  V30 2484 N 272.143 -5.76266 -0.699866 0
M  V30 2485 H 274.908 -2.47159 1.69506 0
M  V30 2486 H 272.469 -1.24747 1.03198 0
M  V30 2487 H 274.461 -4.03626 -0.29459 0
M  V30 2488 H 273.031 -3.04938 -0.687849 0
M  V30 2489 H 272.251 -3.53199 1.75055 0
M  V30 2490 H 273.539 -4.74709 1.83109 0
M  V30 2491 H 272.937 -5.51585 -1.25581 0
M  V30 2492 H 271.494 -6.42963 -1.06968 0
M  V30 2493 N 274.927 -0.932562 -1.27047 0
M  V30 2494 C 275.874 -0.434072 -2.26681 0
M  V30 2495 C 276.844 0.501639 -1.58344 0
M  V30 2496 O 278.029 0.419734 -1.86126 0
M  V30 2497 C 275.169 0.30261 -3.43771 0
M  V30 2498 C 274.282 -0.667774 -4.26808 0
M  V30 2499 C 273.417 0.0892393 -5.31125 0
M  V30 2500 C 272.456 -0.873532 -6.05835 0
M  V30 2501 N 271.593 -0.148832 -7.01942 0
M  V30 2502 H 276.433 -1.28868 -2.68695 0
M  V30 2503 H 273.97 -0.646713 -1.32121 0
M  V30 2504 H 275.928 0.746092 -4.10474 0
M  V30 2505 H 274.558 1.12142 -3.02695 0
M  V30 2506 H 273.61 -1.22978 -3.59973 0
M  V30 2507 H 274.922 -1.40337 -4.78651 0
M  V30 2508 H 274.076 0.592409 -6.03801 0
M  V30 2509 H 272.815 0.85777 -4.80097 0
M  V30 2510 H 271.82 -1.38791 -5.31994 0
M  V30 2511 H 273.045 -1.64193 -6.58952 0
M  V30 2512 H 270.991 0.601365 -6.53238 0
M  V30 2513 H 270.908 -0.82391 -7.51497 0
M  V30 2514 H 272.176 0.333527 -7.78786 0
M  V30 2515 N 276.405 1.4127 -0.698611 0
M  V30 2516 C 277.368 2.29158 -0.044132 0
M  V30 2517 C 278.368 1.44529 0.704841 0
M  V30 2518 O 279.558 1.65643 0.539276 0
M  V30 2519 C 276.69 3.27459 0.947809 0
M  V30 2520 H 277.883 2.88529 -0.817994 0
M  V30 2521 H 275.436 1.49307 -0.46228 0
M  V30 2522 H 276.171 2.73073 1.74933 0
M  V30 2523 H 275.956 3.8991 0.41385 0
M  V30 2524 H 277.446 3.93311 1.40344 0
M  V30 2525 N 277.883 0.443576 1.51229 0
M  V30 2526 C 279.129 -0.120975 2.02439 0
M  V30 2527 C 279.462 -1.41815 1.32674 0
M  V30 2528 O 278.737 -1.89373 0.443622 0
M  V30 2529 C 279.02 -0.333291 3.58554 0
M  V30 2530 C 278.873 0.982968 4.38928 0
M  V30 2531 C 280.192 -1.10028 4.26124 0
M  V30 2532 H 277.311 -0.0424923 0.735774 0
M  V30 2533 H 279.953 0.583794 1.80809 0
M  V30 2534 H 278.103 -0.933614 3.77115 0
M  V30 2535 H 279.775 1.61775 4.32003 0
M  V30 2536 H 278.018 1.58611 4.03763 0
M  V30 2537 H 278.689 0.788379 5.46341 0
M  V30 2538 H 281.165 -0.591711 4.11871 0
M  V30 2539 H 280.041 -1.21761 5.35225 0
M  V30 2540 H 280.302 -2.12996 3.87408 0
M  V30 2541 N 279.361 -1.56624 0.175154 0
M  V30 2542 C 280.271 -2.21741 -0.766042 0
M  V30 2543 C 281.287 -1.21023 -1.25018 0
M  V30 2544 O 282.463 -1.53697 -1.3015 0
M  V30 2545 C 279.528 -2.84839 -1.97655 0
M  V30 2546 C 278.589 -4.00769 -1.53892 0
M  V30 2547 C 277.822 -4.60849 -2.69173 0
M  V30 2548 O 278.045 -4.19823 -3.86141 0
M  V30 2549 O 276.979 -5.50655 -2.43028 0
M  V30 2550 H 280.805 -3.02738 -0.241585 0
M  V30 2551 H 278.39 -1.49305 -0.053222 0
M  V30 2552 H 280.272 -3.24834 -2.68442 0
M  V30 2553 H 278.947 -2.06836 -2.48999 0
M  V30 2554 H 277.854 -3.65436 -0.80044 0
M  V30 2555 H 279.187 -4.80376 -1.07236 0
M  V30 2556 N 280.839 0.0985539 -1.57292 0
M  V30 2557 C 282.255 0.45267 -1.53046 0
M  V30 2558 C 282.455 1.80713 -0.891342 0
M  V30 2559 O 281.511 2.4785 -0.482375 0
M  V30 2560 C 282.824 0.418341 -2.97776 0
M  V30 2561 C 284.372 0.500443 -3.08973 0
M  V30 2562 C 284.847 0.496297 -4.55303 0
M  V30 2563 N 286.338 0.557151 -4.59837 0
M  V30 2564 C 287.073 0.575726 -5.70502 0
M  V30 2565 N 286.569 0.550714 -6.90608 0
M  V30 2566 N 288.362 0.620277 -5.58667 0
M  V30 2567 H 280.513 -0.788673 -1.97215 0
M  V30 2568 H 282.776 -0.293188 -0.901524 0
M  V30 2569 H 282.482 -0.509659 -3.47988 0
M  V30 2570 H 282.356 1.2386 -3.56284 0
M  V30 2571 H 284.743 1.41886 -2.58751 0
M  V30 2572 H 284.824 -0.347894 -2.53423 0
M  V30 2573 H 284.468 -0.418162 -5.06176 0
M  V30 2574 H 284.398 1.3618 -5.08687 0
M  V30 2575 H 286.889 0.581816 -3.73394 0
M  V30 2576 H 287.202 0.568075 -7.70709 0
M  V30 2577 H 285.547 0.517816 -6.93068 0
M  V30 2578 H 288.738 0.637322 -4.63741 0
M  V30 2579 H 288.911 0.631283 -6.44918 0
M  V30 2580 N 282.317 1.53212 0.369288 0
M  V30 2581 C 283.227 1.82342 1.47609 0
M  V30 2582 C 284.243 0.711532 1.58787 0
M  V30 2583 O 285.419 1.0012 1.74751 0
M  V30 2584 C 282.484 2.00393 2.8292 0
M  V30 2585 C 281.545 3.24297 2.81301 0
M  V30 2586 C 280.778 3.41478 4.10157 0
M  V30 2587 O 281.001 2.63033 5.06132 0
M  V30 2588 O 279.935 4.34817 4.16194 0
M  V30 2589 H 283.761 2.76366 1.25918 0
M  V30 2590 H 281.346 1.38547 0.559034 0
M  V30 2591 H 283.228 2.13859 3.63101 0
M  V30 2592 H 281.903 1.09559 3.04596 0
M  V30 2593 H 280.81 3.16257 1.99831 0
M  V30 2594 H 282.143 4.15041 2.64578 0
M  V30 2595 N 283.795 -0.628877 1.44509 0
M  V30 2596 C 284.727 -1.754 1.47538 0
M  V30 2597 C 285.74 -1.58575 0.368506 0
M  V30 2598 O 286.929 -1.66847 0.634376 0
M  V30 2599 C 284.029 -3.1315 1.29577 0
M  V30 2600 C 283.202 -3.56413 2.53551 0
M  V30 2601 C 282.261 -4.7305 2.30457 0
M  V30 2602 O 281.287 -4.81247 3.03957 0
M  V30 2603 N 282.489 -5.64903 1.3366 0
M  V30 2604 H 285.254 -1.73272 2.44534 0
M  V30 2605 H 282.815 -0.813512 1.39977 0
M  V30 2606 H 284.807 -3.88902 1.11971 0
M  V30 2607 H 283.377 -3.09908 0.409371 0
M  V30 2608 H 282.597 -2.70847 2.86419 0
M  V30 2609 H 283.885 -3.82071 3.36005 0
M  V30 2610 H 283.283 -5.60975 0.729604 0
M  V30 2611 H 281.84 -6.40275 1.22032 0
M  V30 2612 N 285.273 -1.31445 -0.869486 0
M  V30 2613 C 286.183 -1.21097 -2.0093 0
M  V30 2614 C 287.199 -0.127584 -1.73532 0
M  V30 2615 O 288.375 -0.345477 -1.98415 0
M  V30 2616 C 285.44 -0.919378 -3.34288 0
M  V30 2617 C 284.501 -2.08971 -3.75006 0
M  V30 2618 C 283.734 -1.81194 -5.02001 0
M  V30 2619 O 283.957 -0.747296 -5.65484 0
M  V30 2620 O 282.891 -2.66883 -5.39497 0
M  V30 2621 H 286.717 -2.16883 -2.12592 0
M  V30 2622 H 284.302 -1.11189 -0.997868 0
M  V30 2623 H 286.184 -0.772625 -4.14257 0
M  V30 2624 H 284.859 0.00844772 -3.23699 0
M  V30 2625 H 283.766 -2.29187 -2.95676 0
M  V30 2626 H 285.099 -2.9998 -3.90221 0
M  V30 2627 N 286.751 1.08385 -1.14413 0
M  V30 2628 C 288.167 1.32844 -0.884563 0
M  V30 2629 C 288.367 1.95841 0.474181 0
M  V30 2630 O 287.423 2.21158 1.21842 0
M  V30 2631 C 288.736 2.22978 -2.01745 0
M  V30 2632 C 290.284 2.36458 -2.05077 0
M  V30 2633 C 290.759 3.29934 -3.1766 0
M  V30 2634 N 292.25 3.37511 -3.17239 0
M  V30 2635 C 292.985 4.09871 -4.0099 0
M  V30 2636 N 292.481 4.84936 -4.94781 0
M  V30 2637 N 294.274 4.05704 -3.89051 0
M  V30 2638 H 286.425 0.658756 -2.01926 0
M  V30 2639 H 288.688 0.352821 -0.879899 0
M  V30 2640 H 288.394 1.83934 -2.99769 0
M  V30 2641 H 288.268 3.23441 -1.94077 0
M  V30 2642 H 290.655 2.7476 -1.0766 0
M  V30 2643 H 290.736 1.35736 -2.16816 0
M  V30 2644 H 290.38 2.92352 -4.15322 0
M  V30 2645 H 290.31 4.30584 -3.03158 0
M  V30 2646 H 292.801 2.83996 -2.49308 0
M  V30 2647 H 293.114 5.37612 -5.55151 0
M  V30 2648 H 291.459 4.83988 -4.98779 0
M  V30 2649 H 294.65 3.46167 -3.15097 0
M  V30 2650 H 294.823 4.61834 -4.54547 0
M  V30 2651 N 288.23 0.939286 1.26551 0
M  V30 2652 C 289.476 0.586715 1.94128 0
M  V30 2653 C 289.809 -0.8717 1.73537 0
M  V30 2654 O 289.084 -1.62339 1.07127 0
M  V30 2655 C 289.367 0.927497 3.4795 0
M  V30 2656 C 289.22 2.44052 3.77834 0
M  V30 2657 C 290.539 0.441569 4.37879 0
M  V30 2658 H 287.658 0.21463 0.705055 0
M  V30 2659 H 290.3 1.17316 1.49455 0
M  V30 2660 H 288.45 0.428431 3.8613 0
M  V30 2661 H 290.122 3.01216 3.4938 0
M  V30 2662 H 288.365 2.8848 3.23978 0
M  V30 2663 H 289.036 2.62947 4.85348 0
M  V30 2664 H 291.512 0.869448 4.06915 0
M  V30 2665 H 290.388 0.708856 5.44304 0
M  V30 2666 H 290.649 -0.658467 4.37169 0
M  V30 2667 N 289.708 -1.40897 0.706093 0
M  V30 2668 C 290.655 -2.30751 0.0474474 0
M  V30 2669 C 291.625 -1.47678 -0.76029 0
M  V30 2670 O 292.81 -1.76441 -0.726177 0
M  V30 2671 C 289.95 -3.33815 -0.875309 0
M  V30 2672 C 289.063 -4.31961 -0.0580623 0
M  V30 2673 C 288.198 -5.22093 -0.979425 0
M  V30 2674 C 287.237 -6.11902 -0.155706 0
M  V30 2675 N 286.374 -6.94482 -1.03144 0
M  V30 2676 H 291.214 -2.86513 0.819413 0
M  V30 2677 H 288.751 -1.41102 0.415783 0
M  V30 2678 H 290.709 -3.92129 -1.42446 0
M  V30 2679 H 289.339 -2.79579 -1.61356 0
M  V30 2680 H 288.391 -3.75507 0.608147 0
M  V30 2681 H 289.703 -4.95415 0.580082 0
M  V30 2682 H 288.857 -5.85292 -1.59744 0
M  V30 2683 H 287.596 -4.5889 -1.65141 0
M  V30 2684 H 286.601 -5.47742 0.475309 0
M  V30 2685 H 287.826 -6.77162 0.512635 0
M  V30 2686 H 285.772 -6.33877 -1.68924 0
M  V30 2687 H 285.689 -7.54665 -0.449108 0
M  V30 2688 H 286.957 -7.6214 -1.63593 0
M  V30 2689 N 291.186 -0.45159 -1.50991 0
M  V30 2690 C 292.411 0.110667 -2.07105 0
M  V30 2691 C 292.836 1.3446 -1.31538 0
M  V30 2692 O 292.194 1.77743 -0.357365 0
M  V30 2693 C 292.242 0.397238 -3.58405 0
M  V30 2694 O 291.346 1.48124 -3.84881 0
M  V30 2695 H 290.687 -0.00439271 -0.663985 0
M  V30 2696 H 293.217 -0.637026 -1.9443 0
M  V30 2697 H 293.227 0.64351 -4.02893 0
M  V30 2698 H 291.902 -0.504553 -4.12828 0
M  V30 2699 H 290.479 1.22381 -3.52246 0
M  V30 2700 N 292.664 1.56529 -0.183458 0
M  V30 2701 C 293.627 2.17324 0.728223 0
M  V30 2702 C 294.627 1.12453 1.14939 0
M  V30 2703 O 295.817 1.37902 1.06437 0
M  V30 2704 C 292.949 2.76591 1.99274 0
M  V30 2705 H 294.142 2.99241 0.198772 0
M  V30 2706 H 291.695 1.5616 0.0661391 0
M  V30 2707 H 292.43 1.98441 2.56499 0
M  V30 2708 H 292.215 3.5335 1.69959 0
M  V30 2709 H 293.705 3.23311 2.6431 0
M  V30 2710 N 294.142 -0.090211 1.57342 0
M  V30 2711 C 295.39 -0.791241 1.85967 0
M  V30 2712 C 295.711 -1.7903 0.772859 0
M  V30 2713 O 294.981 -1.94872 -0.200398 0
M  V30 2714 H 293.561 -0.295205 0.686195 0
M  V30 2715 H 296.223 -0.0706782 1.94772 0
M  V30 2716 H 295.319 -1.31882 2.82867 0
M  V30 2717 N 295.62 -1.53406 -0.361157 0
M  V30 2718 C 296.583 -1.79479 -1.42548 0
M  V30 2719 C 297.583 -0.665327 -1.4639 0
M  V30 2720 O 298.773 -0.933549 -1.47073 0
M  V30 2721 C 295.905 -1.92087 -2.8163 0
M  V30 2722 H 297.098 -2.74538 -1.20701 0
M  V30 2723 H 294.651 -1.4455 -0.594546 0
M  V30 2724 H 295.386 -0.991099 -3.08784 0
M  V30 2725 H 295.171 -2.74241 -2.80239 0
M  V30 2726 H 296.661 -2.13836 -3.58697 0
M  V30 2727 N 297.098 0.621204 -1.44841 0
M  V30 2728 C 298.344 1.38073 -1.49357 0
M  V30 2729 C 298.699 1.91973 -0.128115 0
M  V30 2730 O 297.992 1.71311 0.858087 0
M  V30 2731 C 298.186 2.55675 -2.4973 0
M  V30 2732 C 298.015 2.13289 -3.95901 0
M  V30 2733 C 296.785 2.001 -4.63991 0
M  V30 2734 C 298.983 1.7159 -4.84831 0
M  V30 2735 N 296.965 1.51381 -5.94943 0
M  V30 2736 C 298.336 1.34188 -6.05304 0
M  V30 2737 C 300.391 1.59059 -4.7181 0
M  V30 2738 C 299.094 0.855085 -7.14199 0
M  V30 2739 C 301.12 1.11784 -5.8074 0
M  V30 2740 C 300.482 0.753385 -7.0036 0
M  V30 2741 H 296.581 0.499675 -0.601539 0
M  V30 2742 H 299.165 0.711609 -1.8123 0
M  V30 2743 H 297.336 3.20201 -2.19832 0
M  V30 2744 H 299.068 3.22509 -2.4448 0
M  V30 2745 H 295.823 2.20863 -4.18947 0
M  V30 2746 H 296.247 1.29293 -6.64539 0
M  V30 2747 H 300.889 1.85865 -3.79755 0
M  V30 2748 H 298.607 0.574552 -8.06055 0
M  V30 2749 H 302.193 1.02533 -5.72694 0
M  V30 2750 H 301.073 0.393183 -7.83214 0
M  V30 2751 N 298.576 1.31904 0.862503 0
M  V30 2752 C 299.825 1.21373 1.61094 0
M  V30 2753 C 300.138 -0.22504 1.94301 0
M  V30 2754 O 301.344 -0.452121 2.67709 0
M  V30 2755 C 299.8 2.12525 2.9045 0
M  V30 2756 C 299.408 3.61441 2.64697 0
M  V30 2757 C 301.152 2.10813 3.68454 0
M  V30 2758 C 299.059 4.44578 3.90006 0
M  V30 2759 H 297.989 0.450705 0.604468 0
M  V30 2760 H 300.64 1.56811 0.953027 0
M  V30 2761 H 299.022 1.69994 3.57656 0
M  V30 2762 H 300.196 4.12264 2.05851 0
M  V30 2763 H 298.511 3.65205 2.00036 0
M  V30 2764 H 301.108 2.70167 4.61426 0
M  V30 2765 H 301.451 1.09713 4.01583 0
M  V30 2766 H 301.984 2.51583 3.08141 0
M  V30 2767 H 298.723 5.46461 3.62023 0
M  V30 2768 H 298.243 3.98508 4.48276 0
M  V30 2769 H 299.922 4.57176 4.5782 0
M  V30 2770 N 300.054 -1.07777 1.14986 0
M  V30 2771 C 301.303 -1.79669 0.916617 0
M  V30 2772 C 301.616 -1.87474 -0.557917 0
M  V30 2773 O 302.822 -2.55845 -0.908617 0
M  V30 2774 C 301.278 -3.22848 1.59051 0
M  V30 2775 C 300.886 -3.23257 3.10176 0
M  V30 2776 C 302.63 -3.99379 1.43864 0
M  V30 2777 C 300.537 -4.61063 3.70372 0
M  V30 2778 H 299.467 -0.673349 0.33929 0
M  V30 2779 H 302.118 -1.21003 1.37951 0
M  V30 2780 H 300.5 -3.8168 1.0553 0
M  V30 2781 H 301.674 -2.74095 3.70417 0
M  V30 2782 H 299.989 -2.60222 3.25074 0
M  V30 2783 H 302.586 -5.0122 1.86232 0
M  V30 2784 H 302.929 -4.14511 0.385564 0
M  V30 2785 H 303.462 -3.47032 1.94457 0
M  V30 2786 H 300.201 -4.51135 4.7556 0
M  V30 2787 H 299.721 -5.1048 3.14913 0
M  V30 2788 H 301.4 -5.30034 3.71043 0
M  V30 2789 N 301.532 -0.945985 -1.26051 0
M  V30 2790 C 302.482 -0.430164 -2.23905 0
M  V30 2791 C 303.466 0.47579 -1.53704 0
M  V30 2792 O 304.658 0.310252 -1.7426 0
M  V30 2793 C 301.787 0.298957 -3.41996 0
M  V30 2794 C 300.873 -0.624566 -4.19476 0
M  V30 2795 N 301.264 -1.75245 -4.74471 0
M  V30 2796 C 299.562 -0.431082 -4.43912 0
M  V30 2797 C 300.263 -2.32834 -5.3307 0
M  V30 2798 N 299.239 -1.61583 -5.1903 0
M  V30 2799 H 303.041 -1.29107 -2.64024 0
M  V30 2800 H 300.555 -0.802428 -1.41191 0
M  V30 2801 H 302.552 0.685565 -4.11225 0
M  V30 2802 H 301.212 1.15657 -3.03403 0
M  V30 2803 H 302.223 -2.13449 -4.71868 0
M  V30 2804 H 298.9 0.384364 -4.15727 0
M  V30 2805 H 300.29 -3.27893 -5.86461 0
M  V30 2806 N 303.011 1.40521 -0.713556 0
M  V30 2807 C 304.422 1.83853 -0.324807 0
M  V30 2808 C 304.773 1.59667 1.14021 0
M  V30 2809 O 303.898 1.07649 1.87725 0
M  V30 2810 C 304.493 3.33751 -0.582746 0
M  V30 2811 C 303.052 3.75584 -0.247727 0
M  V30 2812 C 302.199 2.63753 -0.856121 0
M  V30 2813 H 305.15 1.29817 -0.91286 0
M  V30 2814 H 305.171 3.80194 0.152682 0
M  V30 2815 H 304.683 3.51322 -1.64908 0
M  V30 2816 H 302.784 3.63608 0.813624 0
M  V30 2817 H 302.897 4.7373 -0.715307 0
M  V30 2818 H 301.261 2.53108 -0.28432 0
M  V30 2819 H 302.044 2.84137 -1.92668 0
M  V30 2820 N 304.489 0.459591 1.5075 0
M  V30 2821 C 305.719 -0.0972338 2.06371 0
M  V30 2822 C 306.127 -1.35074 1.32483 0
M  V30 2823 O 305.47 -1.79637 0.384226 0
M  V30 2824 C 305.532 -0.462759 3.56509 0
M  V30 2825 C 305.196 0.687084 4.51805 0
M  V30 2826 C 306.193 1.56578 4.95761 0
M  V30 2827 C 303.878 0.874144 4.94635 0
M  V30 2828 C 305.872 2.61604 5.81242 0
M  V30 2829 C 303.559 1.92765 5.79901 0
M  V30 2830 C 304.557 2.79697 6.23104 0
M  V30 2831 O 304.245 3.83235 7.06673 0
M  V30 2832 H 303.977 -0.00140687 0.675999 0
M  V30 2833 H 306.531 0.644011 1.95043 0
M  V30 2834 H 304.761 -1.25703 3.65699 0
M  V30 2835 H 306.45 -0.953323 3.94546 0
M  V30 2836 H 307.216 1.4329 4.6335 0
M  V30 2837 H 303.095 0.207006 4.60535 0
M  V30 2838 H 306.639 3.29489 6.14884 0
M  V30 2839 H 302.536 2.06064 6.11725 0
M  V30 2840 H 303.304 3.80084 7.24899 0
M  V30 2841 N 305.967 -1.56429 0.191757 0
M  V30 2842 C 307.192 -2.02309 -0.456706 0
M  V30 2843 C 307.617 -1.07103 -1.5463 0
M  V30 2844 O 306.975 -0.0539677 -1.8122 0
M  V30 2845 C 307.023 -3.46654 -0.993159 0
M  V30 2846 O 306.127 -3.54559 -2.10622 0
M  V30 2847 H 305.468 -0.655303 -0.107114 0
M  V30 2848 H 307.998 -2.02364 0.301653 0
M  V30 2849 H 308.008 -3.86377 -1.31061 0
M  V30 2850 H 306.683 -4.1544 -0.195504 0
M  V30 2851 H 305.26 -3.26708 -1.79767 0
M  V30 2852 N 307.445 0.0818655 -1.57387 0
M  V30 2853 C 308.722 0.815343 -1.77796 0
M  V30 2854 C 309.102 1.96289 -0.77679 0
M  V30 2855 O 308.45 2.27691 0.192106 0
M  V30 2856 C 308.66 1.29765 -3.23978 0
M  V30 2857 C 310.008 1.7351 -3.8753 0
M  V30 2858 O 311.032 1.39356 -3.27808 0
M  V30 2859 O 309.891 2.36708 -4.92576 0
M  V30 2860 H 306.985 0.389914 -0.729312 0
M  V30 2861 H 309.531 0.0627213 -1.69584 0
M  V30 2862 H 308.303 0.47608 -3.88393 0
M  V30 2863 H 307.926 2.11189 -3.36875 0
M  V30 2864 N 308.923 1.53595 0.353017 0
M  V30 2865 C 310.17 1.70385 1.09431 0
M  V30 2866 C 310.498 0.462113 1.88931 0
M  V30 2867 O 309.753 -0.556074 1.87633 0
M  V30 2868 C 310.052 2.91313 2.07054 0
M  V30 2869 C 309.718 4.27308 1.43939 0
M  V30 2870 C 308.38 4.64287 1.26454 0
M  V30 2871 C 310.732 5.11829 0.983883 0
M  V30 2872 C 308.06 5.83412 0.620226 0
M  V30 2873 C 310.412 6.31611 0.353516 0
M  V30 2874 C 309.076 6.67293 0.166272 0
M  V30 2875 H 308.346 0.623484 0.400436 0
M  V30 2876 H 310.993 1.87799 0.374655 0
M  V30 2877 H 309.298 2.68463 2.85368 0
M  V30 2878 H 310.995 3.01497 2.64387 0
M  V30 2879 H 307.585 3.98198 1.58543 0
M  V30 2880 H 311.769 4.838 1.10685 0
M  V30 2881 H 307.025 6.09639 0.463681 0
M  V30 2882 H 311.199 6.964 -0.00757555 0
M  V30 2883 H 308.826 7.59461 -0.335047 0
M  V30 2884 N 310.401 -0.613514 1.45168 0
M  V30 2885 C 311.817 -0.933629 1.29443 0
M  V30 2886 C 312.017 -2.00028 0.243101 0
M  V30 2887 O 311.073 -2.49848 -0.364992 0
M  V30 2888 C 312.386 -1.38018 2.67155 0
M  V30 2889 C 313.934 -1.49471 2.75004 0
M  V30 2890 C 314.409 -1.97503 4.13227 0
M  V30 2891 N 315.9 -2.04746 4.15491 0
M  V30 2892 C 316.635 -2.43121 5.19307 0
M  V30 2893 N 316.131 -2.80506 6.33473 0
M  V30 2894 N 317.924 -2.43408 5.06664 0
M  V30 2895 H 310.075 0.0916097 2.12202 0
M  V30 2896 H 312.338 -0.0216655 0.947752 0
M  V30 2897 H 312.044 -0.670625 3.45247 0
M  V30 2898 H 311.918 -2.34784 2.95222 0
M  V30 2899 H 314.305 -2.19519 1.9722 0
M  V30 2900 H 314.386 -0.510342 2.50657 0
M  V30 2901 H 314.03 -1.28045 4.91495 0
M  V30 2902 H 313.96 -2.96843 4.34962 0
M  V30 2903 H 316.451 -1.78468 3.33103 0
M  V30 2904 H 316.764 -3.08652 7.08487 0
M  V30 2905 H 315.109 -2.78216 6.36884 0
M  V30 2906 H 318.3 -2.13604 4.16523 0
M  V30 2907 H 318.473 -2.72989 5.87691 0
M  V30 2908 N 311.879 -1.3236 -0.855495 0
M  V30 2909 C 313.126 -1.22872 -1.60962 0
M  V30 2910 C 313.454 0.209658 -1.93367 0
M  V30 2911 O 312.709 1.16243 -1.57436 0
M  V30 2912 C 313.008 -2.03275 -2.93963 0
M  V30 2913 C 312.674 -3.5264 -2.80991 0
M  V30 2914 C 311.336 -3.93364 -2.7716 0
M  V30 2915 C 313.688 -4.47626 -2.66983 0
M  V30 2916 C 311.016 -5.27319 -2.572 0
M  V30 2917 C 313.368 -5.81723 -2.48558 0
M  V30 2918 C 312.032 -6.2165 -2.4312 0
M  V30 2919 H 311.302 -0.44962 -0.589001 0
M  V30 2920 H 313.949 -1.63777 -0.992442 0
M  V30 2921 H 312.254 -1.55095 -3.59795 0
M  V30 2922 H 313.951 -1.93303 -3.51333 0
M  V30 2923 H 310.541 -3.20295 -2.84797 0
M  V30 2924 H 314.725 -4.17084 -2.68988 0
M  V30 2925 H 309.981 -5.57311 -2.51424 0
M  V30 2926 H 314.155 -6.5494 -2.36699 0
M  V30 2927 H 311.782 -7.25388 -2.27412 0
M  V30 2928 N 313.357 1.07166 -1.15556 0
M  V30 2929 C 314.587 1.83248 -0.954133 0
M  V30 2930 C 314.995 1.82449 0.500911 0
M  V30 2931 O 314.338 1.23575 1.35923 0
M  V30 2932 C 314.4 3.31393 -1.39351 0
M  V30 2933 C 314.064 3.5591 -2.86666 0
M  V30 2934 C 315.061 3.49695 -3.8472 0
M  V30 2935 C 312.746 3.83515 -3.24379 0
M  V30 2936 C 314.74 3.70737 -5.18491 0
M  V30 2937 C 312.427 4.04209 -4.58321 0
M  V30 2938 C 313.425 3.97815 -5.55186 0
M  V30 2939 O 313.113 4.17954 -6.86709 0
M  V30 2940 H 312.845 0.584941 -0.338851 0
M  V30 2941 H 315.399 1.36169 -1.53777 0
M  V30 2942 H 313.629 3.79292 -0.75329 0
M  V30 2943 H 315.318 3.88945 -1.16089 0
M  V30 2944 H 316.084 3.28368 -3.56931 0
M  V30 2945 H 311.963 3.87605 -2.49567 0
M  V30 2946 H 315.507 3.65663 -5.94085 0
M  V30 2947 H 311.404 4.25023 -4.85825 0
M  V30 2948 H 312.172 4.35291 -6.93155 0
M  V30 2949 N 314.835 0.952656 1.25548 0
M  V30 2950 C 316.081 0.616826 1.93822 0
M  V30 2951 C 316.436 -0.836684 1.73255 0
M  V30 2952 O 315.729 -1.59218 1.06584 0
M  V30 2953 C 315.923 0.908818 3.45652 0
M  V30 2954 C 315.752 2.38916 3.80984 0
M  V30 2955 C 314.522 3.04637 4.03143 0
M  V30 2956 C 316.72 3.36838 3.88645 0
M  V30 2957 N 314.702 4.42565 4.25453 0
M  V30 2958 C 316.073 4.60065 4.1562 0
M  V30 2959 C 318.128 3.31704 3.71318 0
M  V30 2960 C 316.831 5.78795 4.2707 0
M  V30 2961 C 318.857 4.4977 3.84006 0
M  V30 2962 C 318.219 5.71783 4.11392 0
M  V30 2963 H 314.318 0.27629 0.731565 0
M  V30 2964 H 316.902 1.22443 1.5138 0
M  V30 2965 H 315.073 0.330166 3.86994 0
M  V30 2966 H 316.805 0.533093 4.01174 0
M  V30 2967 H 313.56 2.55215 3.98952 0
M  V30 2968 H 313.984 5.1399 4.40617 0
M  V30 2969 H 318.626 2.3842 3.49164 0
M  V30 2970 H 316.344 6.72521 4.48041 0
M  V30 2971 H 319.93 4.47342 3.71989 0
M  V30 2972 H 318.81 6.61617 4.2099 0
M  V30 2973 N 316.313 -1.40141 0.720998 0
M  V30 2974 C 317.59 -1.94677 0.189757 0
M  V30 2975 C 317.97 -1.65879 -1.30566 0
M  V30 2976 O 317.318 -0.979391 -2.06447 0
M  V30 2977 C 317.528 -3.45279 0.508304 0
M  V30 2978 C 318.876 -4.22209 0.449934 0
M  V30 2979 O 319.9 -3.53413 0.444677 0
M  V30 2980 O 318.759 -5.44788 0.432189 0
M  V30 2981 H 315.853 -0.826459 0.0299026 0
M  V30 2982 H 318.399 -1.49719 0.7989 0
M  V30 2983 H 317.171 -3.59619 1.54239 0
M  V30 2984 H 316.794 -3.97386 -0.130525 0
M  V30 2985 N 317.792 -0.46758 -1.50504 0
M  V30 2986 C 319.039 0.0886219 -2.02306 0
M  V30 2987 C 319.367 1.40037 -1.34981 0
M  V30 2988 O 318.622 1.90136 -0.463318 0
M  V30 2989 C 318.921 0.323995 -3.55928 0
M  V30 2990 C 318.587 -0.905618 -4.41712 0
M  V30 2991 C 317.249 -1.24275 -4.64875 0
M  V30 2992 C 319.601 -1.72448 -4.91845 0
M  V30 2993 C 316.929 -2.39888 -5.35417 0
M  V30 2994 C 319.281 -2.87185 -5.63656 0
M  V30 2995 C 317.945 -3.21317 -5.85074 0
M  V30 2996 H 317.215 0.0324291 -0.74029 0
M  V30 2997 H 319.862 -0.620945 -1.81153 0
M  V30 2998 H 318.167 1.11577 -3.75577 0
M  V30 2999 H 319.864 0.76826 -3.93572 0
M  V30 3000 H 316.454 -0.632956 -4.239 0
M  V30 3001 H 320.638 -1.4772 -4.73806 0
M  V30 3002 H 315.894 -2.66611 -5.50208 0
M  V30 3003 H 320.068 -3.50985 -6.01484 0
M  V30 3004 H 317.695 -4.1101 -6.39511 0
M  V30 3005 N 319.27 1.56325 -0.20005 0
M  V30 3006 C 320.498 2.02105 0.442874 0
M  V30 3007 C 320.913 1.08014 1.5485 0
M  V30 3008 O 320.27 0.0858797 1.82298 0
M  V30 3009 C 320.321 3.47549 0.994583 0
M  V30 3010 O 320.042 4.38049 -0.0669322 0
M  V30 3011 C 321.543 4.0887 1.7129 0
M  V30 3012 H 318.763 0.661807 0.110691 0
M  V30 3013 H 321.307 2.02134 -0.310207 0
M  V30 3014 H 319.462 3.48204 1.69803 0
M  V30 3015 H 319.876 5.23368 0.344462 0
M  V30 3016 H 321.35 5.12475 2.05118 0
M  V30 3017 H 321.827 3.52615 2.61838 0
M  V30 3018 H 322.433 4.12002 1.05518 0
M  V30 3019 N 320.748 -0.0735177 1.57428 0
M  V30 3020 C 321.681 -1.11932 1.98863 0
M  V30 3021 C 322.659 -1.37666 0.865266 0
M  V30 3022 O 323.843 -1.51068 1.12742 0
M  V30 3023 C 320.97 -2.46403 2.32386 0
M  V30 3024 C 320.016 -2.36815 3.54713 0
M  V30 3025 S 320.849 -1.76392 5.05614 0
M  V30 3026 C 322.005 -3.12444 5.42337 0
M  V30 3027 H 322.238 -0.766212 2.87257 0
M  V30 3028 H 319.771 -0.281987 1.51803 0
M  V30 3029 H 321.729 -3.23755 2.52375 0
M  V30 3030 H 320.39 -2.78876 1.44524 0
M  V30 3031 H 319.583 -3.35977 3.7568 0
M  V30 3032 H 319.185 -1.67598 3.34345 0
M  V30 3033 H 321.477 -4.08753 5.40303 0
M  V30 3034 H 322.42 -2.96258 6.43146 0
M  V30 3035 H 322.828 -3.1297 4.69798 0
M  V30 3036 N 322.226 -1.5378 -0.344866 0
M  V30 3037 C 323.156 -1.84662 -1.42906 0
M  V30 3038 C 324.137 -0.701648 -1.54955 0
M  V30 3039 O 325.322 -0.953438 -1.69184 0
M  V30 3040 C 322.452 -2.05503 -2.79974 0
M  V30 3041 C 321.406 -3.21318 -2.82734 0
M  V30 3042 C 320.732 -3.2749 -4.22675 0
M  V30 3043 C 322.032 -4.59456 -2.48389 0
M  V30 3044 H 323.726 -2.75461 -1.17311 0
M  V30 3045 H 321.272 -1.32542 -0.562896 0
M  V30 3046 H 323.225 -2.25691 -3.55867 0
M  V30 3047 H 321.949 -1.11434 -3.07002 0
M  V30 3048 H 320.608 -3.00984 -2.09294 0
M  V30 3049 H 320.256 -2.31019 -4.4681 0
M  V30 3050 H 319.956 -4.05316 -4.25433 0
M  V30 3051 H 321.48 -3.49887 -5.00412 0
M  V30 3052 H 322.894 -4.79667 -3.13995 0
M  V30 3053 H 321.291 -5.39675 -2.62432 0
M  V30 3054 H 322.361 -4.63155 -1.4358 0
M  V30 3055 N 323.704 0.605807 -1.45491 0
M  V30 3056 C 324.634 1.72709 -1.57143 0
M  V30 3057 C 325.615 1.6476 -0.422884 0
M  V30 3058 O 326.8 1.83132 -0.646247 0
M  V30 3059 C 323.93 3.11316 -1.53948 0
M  V30 3060 C 322.884 3.34077 -2.67537 0
M  V30 3061 C 322.21 4.72975 -2.49397 0
M  V30 3062 C 323.51 3.24158 -4.09535 0
M  V30 3063 H 325.204 1.63214 -2.51001 0
M  V30 3064 H 322.75 0.78379 -1.208 0
M  V30 3065 H 324.703 3.89557 -1.60696 0
M  V30 3066 H 323.427 3.21655 -0.566205 0
M  V30 3067 H 322.086 2.58227 -2.6022 0
M  V30 3068 H 321.734 4.8005 -1.50205 0
M  V30 3069 H 321.434 4.8916 -3.25571 0
M  V30 3070 H 322.958 5.53414 -2.58002 0
M  V30 3071 H 324.372 3.92271 -4.18086 0
M  V30 3072 H 322.769 3.51872 -4.86113 0
M  V30 3073 H 323.839 2.2157 -4.31317 0
M  V30 3074 N 325.182 1.32811 0.848464 0
M  V30 3075 C 326.429 1.23724 1.60308 0
M  V30 3076 C 326.757 -0.1994 1.93475 0
M  V30 3077 O 326.012 -1.15406 1.5805 0
M  V30 3078 C 326.311 2.04831 2.92881 0
M  V30 3079 C 325.977 3.54125 2.79117 0
M  V30 3080 C 324.639 3.94829 2.7507 0
M  V30 3081 C 326.991 4.49036 2.64606 0
M  V30 3082 C 324.319 5.28675 2.544 0
M  V30 3083 C 326.671 5.83033 2.4547 0
M  V30 3084 C 325.335 6.22931 2.39819 0
M  V30 3085 H 324.605 0.452737 0.586609 0
M  V30 3086 H 327.252 1.64301 0.983743 0
M  V30 3087 H 325.557 1.57001 3.58968 0
M  V30 3088 H 327.254 1.95164 3.50303 0
M  V30 3089 H 323.844 3.21801 2.83094 0
M  V30 3090 H 328.028 4.18505 2.66772 0
M  V30 3091 H 323.284 5.58637 2.48465 0
M  V30 3092 H 327.458 6.56186 2.33222 0
M  V30 3093 H 325.085 7.26584 2.23562 0
M  V30 3094 N 326.66 -1.06551 1.16123 0
M  V30 3095 C 327.593 -2.13382 0.80892 0
M  V30 3096 C 328.571 -1.61128 -0.21827 0
M  V30 3097 O 329.755 -1.88219 -0.102952 0
M  V30 3098 C 326.882 -3.38083 0.204303 0
M  V30 3099 C 325.928 -4.09133 1.20469 0
M  V30 3100 S 326.761 -4.5948 2.75024 0
M  V30 3101 C 327.917 -5.87446 2.16005 0
M  V30 3102 H 328.15 -2.42937 1.71373 0
M  V30 3103 H 325.683 -1.18947 0.984428 0
M  V30 3104 H 327.641 -4.10268 -0.138081 0
M  V30 3105 H 326.302 -3.0669 -0.678234 0
M  V30 3106 H 325.495 -4.98685 0.730019 0
M  V30 3107 H 325.097 -3.4295 1.49202 0
M  V30 3108 H 327.389 -6.60065 1.5271 0
M  V30 3109 H 328.332 -6.39639 3.03756 0
M  V30 3110 H 328.74 -5.41354 1.59989 0
M  V30 3111 N 328.138 -0.959301 -1.25041 0
M  V30 3112 C 329.384 -0.617525 -1.9317 0
M  V30 3113 C 329.717 0.843981 -1.74902 0
M  V30 3114 O 328.992 1.60615 -1.09696 0
M  V30 3115 C 329.275 -0.982736 -3.46431 0
M  V30 3116 C 329.128 -2.50032 -3.73904 0
M  V30 3117 C 330.447 -0.511176 -4.37121 0
M  V30 3118 H 327.566 -0.22582 -0.701552 0
M  V30 3119 H 330.208 -1.19679 -1.4757 0
M  V30 3120 H 328.358 -0.489806 -3.854 0
M  V30 3121 H 330.03 -3.06737 -3.44544 0
M  V30 3122 H 328.273 -2.93598 -3.19348 0
M  V30 3123 H 328.944 -2.70635 -4.81103 0
M  V30 3124 H 331.42 -0.934075 -4.0548 0
M  V30 3125 H 330.296 -0.795361 -5.43107 0
M  V30 3126 H 330.557 0.588834 -4.38161 0
M  V30 3127 N 329.616 1.39756 -0.72842 0
M  V30 3128 C 330.864 2.00248 -0.272946 0
M  V30 3129 C 331.185 1.58077 1.14178 0
M  V30 3130 O 330.455 0.826014 1.77634 0
M  V30 3131 H 329.035 0.740554 -0.0979247 0
M  V30 3132 H 331.697 1.70903 -0.936912 0
M  V30 3133 H 330.793 3.10495 -0.316142 0
M  V30 3134 N 331.094 0.475555 1.50254 0
M  V30 3135 C 332.042 -0.330276 2.30243 0
M  V30 3136 C 333.036 -0.986306 1.37726 0
M  V30 3137 O 334.242 -0.9169 1.54897 0
M  V30 3138 H 330.617 -0.125353 0.741479 0
M  V30 3139 H 332.588 0.364702 2.96163 0
M  V30 3140 C 331.337 -1.39704 3.18399 0
M  V30 3141 H 330.66 -0.901621 3.89501 0
M  V30 3142 H 332.1 -1.93336 3.77355 0
M  V30 3143 C 330.559 -2.4014 2.36293 0
M  V30 3144 O 331.089 -3.45504 2.04914 0
M  V30 3145 N 329.295 -2.1197 1.98789 0
M  V30 3146 H 328.842 -1.2631 2.24507 0
M  V30 3147 H 328.8 -2.79403 1.44157 0
M  V30 3148 N 332.573 -1.56217 0.208337 0
M  V30 3149 C 333.503 -2.22694 -0.702116 0
M  V30 3150 C 334.484 -1.19432 -1.2112 0
M  V30 3151 O 335.669 -1.47978 -1.25762 0
M  V30 3152 C 332.799 -2.8966 -1.9161 0
M  V30 3153 C 331.753 -3.9928 -1.5414 0
M  V30 3154 C 331.079 -4.53476 -2.83308 0
M  V30 3155 C 332.379 -5.17012 -0.741339 0
M  V30 3156 H 334.073 -2.99034 -0.147898 0
M  V30 3157 H 331.619 -1.43831 -0.0696951 0
M  V30 3158 H 333.572 -3.34852 -2.55836 0
M  V30 3159 H 332.296 -2.10746 -2.49507 0
M  V30 3160 H 330.955 -3.54799 -0.922668 0
M  V30 3161 H 330.603 -3.71308 -3.39322 0
M  V30 3162 H 330.303 -5.27451 -2.58976 0
M  V30 3163 H 331.827 -5.01378 -3.485 0
M  V30 3164 H 333.241 -5.58667 -1.28699 0
M  V30 3165 H 331.638 -5.97137 -0.595627 0
M  V30 3166 H 332.708 -4.8423 0.254851 0
M  V30 3167 N 334.051 0.0651679 -1.57465 0
M  V30 3168 C 335.3 0.761916 -1.86756 0
M  V30 3169 C 335.613 1.78406 -0.801925 0
M  V30 3170 O 336.819 2.53084 -0.982885 0
M  V30 3171 C 335.275 1.40603 -3.31299 0
M  V30 3172 C 334.883 0.422115 -4.46007 0
M  V30 3173 C 336.627 2.08476 -3.69781 0
M  V30 3174 C 334.534 1.07252 -5.81593 0
M  V30 3175 H 333.464 0.288308 -0.696702 0
M  V30 3176 H 336.115 0.015344 -1.83494 0
M  V30 3177 H 334.497 2.20109 -3.29193 0
M  V30 3178 H 335.671 -0.343613 -4.59517 0
M  V30 3179 H 333.986 -0.152527 -4.16121 0
M  V30 3180 H 336.583 2.57925 -4.68379 0
M  V30 3181 H 336.926 2.88712 -2.99919 0
M  V30 3182 H 337.459 1.35792 -3.73905 0
M  V30 3183 H 334.198 0.310342 -6.54765 0
M  V30 3184 H 333.718 1.80895 -5.71872 0
M  V30 3185 H 335.397 1.59043 -6.27148 0
M  V30 3186 N 335.529 1.53961 0.336706 0
M  V30 3187 C 336.778 1.70751 1.07363 0
M  V30 3188 C 337.091 0.481061 1.89592 0
M  V30 3189 O 338.297 0.530046 2.66276 0
M  V30 3190 C 336.753 3.01965 1.95818 0
M  V30 3191 C 336.361 4.31971 1.18764 0
M  V30 3192 C 338.105 3.28121 2.69327 0
M  V30 3193 C 336.012 5.54255 2.06289 0
M  V30 3194 H 334.942 0.636292 0.404535 0
M  V30 3195 H 337.593 1.80459 0.332681 0
M  V30 3196 H 335.975 2.86132 2.7376 0
M  V30 3197 H 337.149 4.5853 0.456849 0
M  V30 3198 H 335.464 4.12481 0.569946 0
M  V30 3199 H 338.061 4.16673 3.35094 0
M  V30 3200 H 338.404 2.45426 3.36261 0
M  V30 3201 H 338.937 3.44762 1.98454 0
M  V30 3202 H 335.676 6.39513 1.43885 0
M  V30 3203 H 335.196 5.31935 2.77138 0
M  V30 3204 H 336.875 5.90159 2.65182 0
M  V30 3205 N 337.007 -0.598083 1.45811 0
M  V30 3206 C 338.256 -1.35295 1.49594 0
M  V30 3207 C 338.569 -1.95057 0.145679 0
M  V30 3208 O 339.775 -2.71431 0.0612099 0
M  V30 3209 C 338.231 -2.45124 2.63519 0
M  V30 3210 C 337.839 -1.91732 4.04899 0
M  V30 3211 C 339.583 -3.2205 2.76558 0
M  V30 3212 C 337.49 -2.991 5.1019 0
M  V30 3213 H 336.42 -0.508552 0.556679 0
M  V30 3214 H 339.071 -0.639977 1.71978 0
M  V30 3215 H 337.453 -3.19149 2.34435 0
M  V30 3216 H 338.627 -1.24352 4.43704 0
M  V30 3217 H 336.942 -1.27522 3.96393 0
M  V30 3218 H 339.539 -4.0215 3.52391 0
M  V30 3219 H 339.882 -3.73663 1.83526 0
M  V30 3220 H 340.415 -2.55127 3.05213 0
M  V30 3221 H 337.154 -2.52393 6.04961 0
M  V30 3222 H 336.674 -3.65017 4.75944 0
M  V30 3223 H 338.353 -3.63318 5.35359 0
M  V30 3224 N 338.485 -1.33259 -0.841409 0
M  V30 3225 C 339.896 -1.22066 -1.41269 0
M  V30 3226 C 340.247 0.161479 -1.95534 0
M  V30 3227 O 339.372 1.06094 -1.88608 0
M  V30 3228 C 339.967 -2.20996 -2.568 0
M  V30 3229 C 338.526 -2.13649 -3.09888 0
M  V30 3230 C 337.673 -2.08623 -1.82679 0
M  V30 3231 H 340.624 -1.44895 -0.647395 0
M  V30 3232 H 340.645 -1.81621 -3.34356 0
M  V30 3233 H 340.157 -3.2158 -2.17274 0
M  V30 3234 H 338.258 -1.16359 -3.53965 0
M  V30 3235 H 338.371 -3.04079 -3.70234 0
M  V30 3236 H 336.735 -1.54061 -2.02824 0
M  V30 3237 H 337.518 -3.1101 -1.45353 0
M  V30 3238 N 339.963 1.05934 -1.16686 0
M  V30 3239 C 341.209 1.79065 -0.95203 0
M  V30 3240 C 341.542 1.87147 0.518629 0
M  V30 3241 O 340.817 1.36574 1.38484 0
M  V30 3242 C 341.1 3.23359 -1.58464 0
M  V30 3243 C 340.953 3.23336 -3.12689 0
M  V30 3244 C 342.272 4.21004 -1.28232 0
M  V30 3245 H 339.391 0.65005 -0.34728 0
M  V30 3246 H 342.033 1.23868 -1.44072 0
M  V30 3247 H 340.183 3.70493 -1.16908 0
M  V30 3248 H 341.855 2.84336 -3.6325 0
M  V30 3249 H 340.098 2.61886 -3.4583 0
M  V30 3250 H 340.769 4.25144 -3.52075 0
M  V30 3251 H 343.245 3.8233 -1.64203 0
M  V30 3252 H 342.121 5.20225 -1.75092 0
M  V30 3253 H 342.382 4.41639 -0.201791 0
M  V30 3254 N 341.441 0.965919 1.2453 0
M  V30 3255 C 342.689 0.625593 1.92174 0
M  V30 3256 C 343.01 -0.841652 1.75901 0
M  V30 3257 O 342.28 -1.60061 1.12948 0
M  V30 3258 H 340.86 0.228388 0.71123 0
M  V30 3259 H 343.522 1.2266 1.51461 0
M  V30 3260 H 342.618 0.864653 2.99884 0
M  V30 3261 N 342.919 -1.39368 0.735821 0
M  V30 3262 C 344.168 -1.99733 0.281004 0
M  V30 3263 C 344.481 -1.59055 -1.13846 0
M  V30 3264 O 345.687 -2.12262 -1.69284 0
M  V30 3265 C 344.143 -3.57057 0.451462 0
M  V30 3266 C 343.751 -4.06697 1.87886 0
M  V30 3267 C 345.495 -4.2446 0.0584616 0
M  V30 3268 C 343.402 -5.56598 1.99883 0
M  V30 3269 H 342.332 -0.747163 0.101311 0
M  V30 3270 H 344.983 -1.59357 0.909819 0
M  V30 3271 H 343.365 -3.95234 -0.246263 0
M  V30 3272 H 344.539 -3.79853 2.60861 0
M  V30 3273 H 342.854 -3.5196 2.22515 0
M  V30 3274 H 345.451 -5.34549 0.127099 0
M  V30 3275 H 345.794 -4.04444 -0.986433 0
M  V30 3276 H 346.327 -3.9146 0.707374 0
M  V30 3277 H 343.066 -5.81494 3.02564 0
M  V30 3278 H 342.586 -5.85242 1.31346 0
M  V30 3279 H 344.265 -6.22022 1.78039 0
M  V30 3280 N 344.397 -0.483516 -1.5 0
M  V30 3281 C 345.625 0.0644831 -2.06799 0
M  V30 3282 C 346.04 1.32399 -1.34596 0
M  V30 3283 O 345.397 1.77626 -0.418946 0
M  V30 3284 C 345.448 0.339927 -3.59898 0
M  V30 3285 O 345.169 -0.869635 -4.29382 0
M  V30 3286 C 346.67 0.933515 -4.33359 0
M  V30 3287 H 343.89 -0.0126333 -0.670881 0
M  V30 3288 H 346.434 -0.675864 -1.93009 0
M  V30 3289 H 344.589 1.03022 -3.7345 0
M  V30 3290 H 345.003 -0.62179 -5.20801 0
M  V30 3291 H 346.477 1.07593 -5.41413 0
M  V30 3292 H 346.954 1.92685 -3.94676 0
M  V30 3293 H 347.56 0.281221 -4.24369 0
M  V30 3294 N 345.875 1.56104 -0.216619 0
M  V30 3295 C 347.122 1.98172 0.416416 0
M  V30 3296 C 347.45 1.10413 1.60122 0
M  V30 3297 O 346.705 0.147967 1.9514 0
M  V30 3298 C 347.004 3.45923 0.898464 0
M  V30 3299 C 346.67 4.50559 -0.175288 0
M  V30 3300 C 345.332 4.78897 -0.470271 0
M  V30 3301 C 347.684 5.1334 -0.901728 0
M  V30 3302 C 345.012 5.67299 -1.4963 0
M  V30 3303 C 347.364 6.02853 -1.91705 0
M  V30 3304 C 346.028 6.29537 -2.21901 0
M  V30 3305 H 345.298 0.725164 0.152377 0
M  V30 3306 H 347.945 1.88839 -0.318103 0
M  V30 3307 H 346.25 3.52434 1.71165 0
M  V30 3308 H 347.947 3.75841 1.39803 0
M  V30 3309 H 344.537 4.28551 0.0647806 0
M  V30 3310 H 348.721 4.91521 -0.687072 0
M  V30 3311 H 343.977 5.86239 -1.73592 0
M  V30 3312 H 348.151 6.50552 -2.48505 0
M  V30 3313 H 345.778 6.97835 -3.01548 0
M  V30 3314 N 347.353 -0.0568162 1.57498 0
M  V30 3315 C 348.6 -0.753104 1.87975 0
M  V30 3316 C 348.928 -1.76815 0.81035 0
M  V30 3317 O 348.183 -1.94756 -0.19199 0
M  V30 3318 C 348.482 -1.48359 3.25153 0
M  V30 3319 C 348.148 -0.60713 4.46794 0
M  V30 3320 C 346.81 -0.365642 4.79809 0
M  V30 3321 C 349.162 -0.000305978 5.212 0
M  V30 3322 C 346.49 0.491905 5.84634 0
M  V30 3323 C 348.842 0.844781 6.26934 0
M  V30 3324 C 347.506 1.096 6.58441 0
M  V30 3325 H 346.776 -0.27558 0.687849 0
M  V30 3326 H 349.423 -0.0135173 1.91495 0
M  V30 3327 H 347.728 -2.29577 3.17492 0
M  V30 3328 H 349.425 -2.02739 3.45974 0
M  V30 3329 H 346.015 -0.805487 4.20963 0
M  V30 3330 H 350.199 -0.173961 4.95995 0
M  V30 3331 H 345.455 0.695131 6.07436 0
M  V30 3332 H 349.629 1.32165 6.83744 0
M  V30 3333 H 347.256 1.76224 7.39492 0
M  V30 3334 N 348.832 -1.54138 -0.328536 0
M  V30 3335 C 349.779 -1.83176 -1.40411 0
M  V30 3336 C 350.749 -0.678494 -1.5161 0
M  V30 3337 O 351.934 -0.92443 -1.6691 0
M  V30 3338 C 349.074 -2.06035 -2.76846 0
M  V30 3339 C 348.187 -3.33727 -2.74318 0
M  V30 3340 C 347.322 -3.46574 -4.02567 0
M  V30 3341 C 346.361 -4.68159 -3.94327 0
M  V30 3342 N 345.498 -4.77959 -5.14296 0
M  V30 3343 H 350.338 -2.74938 -1.14948 0
M  V30 3344 H 347.875 -1.36166 -0.556538 0
M  V30 3345 H 349.833 -2.1728 -3.56153 0
M  V30 3346 H 348.463 -1.1757 -3.00628 0
M  V30 3347 H 347.515 -3.31246 -1.8703 0
M  V30 3348 H 348.827 -4.23139 -2.64111 0
M  V30 3349 H 347.981 -3.57333 -4.90304 0
M  V30 3350 H 346.72 -2.55245 -4.15574 0
M  V30 3351 H 345.725 -4.57461 -3.04974 0
M  V30 3352 H 346.95 -5.60868 -3.82889 0
M  V30 3353 H 344.896 -3.89544 -5.27818 0
M  V30 3354 H 344.813 -5.6133 -5.06404 0
M  V30 3355 H 346.081 -4.93044 -6.03761 0
M  V30 3356 N 350.31 0.590341 -1.46126 0
M  V30 3357 C 351.587 1.35029 -1.41515 0
M  V30 3358 C 351.967 2.10888 -0.0946472 0
M  V30 3359 O 351.315 2.08998 0.923693 0
M  V30 3360 C 351.525 2.28269 -2.63997 0
M  V30 3361 C 352.873 2.90338 -3.09821 0
M  V30 3362 O 353.897 2.38585 -2.64492 0
M  V30 3363 O 352.756 3.84321 -3.88535 0
M  V30 3364 H 349.85 0.606317 -0.562413 0
M  V30 3365 H 352.396 0.611994 -1.58281 0
M  V30 3366 H 351.168 1.71591 -3.51671 0
M  V30 3367 H 350.791 3.0945 -2.49652 0
M  V30 3368 N 351.788 1.33704 0.83433 0
M  V30 3369 C 352.698 1.26382 1.97648 0
M  V30 3370 C 353.714 0.173548 1.73132 0
M  V30 3371 O 354.89 0.397962 1.97429 0
M  V30 3372 C 351.955 1.00769 3.31733 0
M  V30 3373 C 351.016 2.1884 3.69334 0
M  V30 3374 C 350.249 1.9444 4.9702 0
M  V30 3375 O 350.472 0.896961 5.63303 0
M  V30 3376 O 349.406 2.81093 5.32231 0
M  V30 3377 H 353.232 2.22444 2.06767 0
M  V30 3378 H 350.817 1.13795 0.968037 0
M  V30 3379 H 352.699 0.882186 4.12062 0
M  V30 3380 H 351.374 0.0773783 3.23608 0
M  V30 3381 H 350.281 2.36946 2.89495 0
M  V30 3382 H 351.614 3.10221 3.82131 0
M  V30 3383 N 353.266 -1.05314 1.17247 0
M  V30 3384 C 354.494 -1.81971 0.984593 0
M  V30 3385 C 354.909 -1.82929 -0.467166 0
M  V30 3386 O 354.266 -1.25564 -1.32438 0
M  V30 3387 C 354.317 -3.28143 1.51672 0
M  V30 3388 O 354.038 -3.27347 2.91163 0
M  V30 3389 C 355.539 -4.21493 1.37326 0
M  V30 3390 H 352.759 -0.573455 0.348411 0
M  V30 3391 H 355.303 -1.32808 1.55506 0
M  V30 3392 H 353.458 -3.74582 0.988302 0
M  V30 3393 H 353.872 -4.18824 3.15732 0
M  V30 3394 H 355.346 -5.22043 1.79375 0
M  V30 3395 H 355.823 -4.38031 0.320169 0
M  V30 3396 H 356.429 -3.80909 1.89178 0
M  V30 3397 N 354.744 -0.972509 -1.24016 0
M  V30 3398 C 355.972 -0.654803 -1.96265 0
M  V30 3399 C 356.387 0.776708 -1.72083 0
M  V30 3400 O 355.744 1.52171 -1.00748 0
M  V30 3401 C 355.795 -0.92592 -3.49441 0
M  V30 3402 O 355.516 -2.30116 -3.72798 0
M  V30 3403 C 357.017 -0.623068 -4.38899 0
M  V30 3404 H 354.237 -0.243907 -0.6251 0
M  V30 3405 H 356.781 -1.30175 -1.57717 0
M  V30 3406 H 354.936 -0.325108 -3.86033 0
M  V30 3407 H 355.35 -2.38483 -4.67147 0
M  V30 3408 H 356.824 -0.863189 -5.45209 0
M  V30 3409 H 357.301 0.442754 -4.36963 0
M  V30 3410 H 357.907 -1.204 -4.07902 0
M  V30 3411 N 356.222 1.38976 -0.743202 0
M  V30 3412 C 357.185 2.28901 -0.117014 0
M  V30 3413 C 358.185 1.46698 0.658503 0
M  V30 3414 O 359.375 1.67274 0.486305 0
M  V30 3415 C 356.507 3.30309 0.84315 0
M  V30 3416 H 357.7 2.8578 -0.909373 0
M  V30 3417 H 355.253 1.47761 -0.509547 0
M  V30 3418 H 355.988 2.785 1.66157 0
M  V30 3419 H 355.773 3.91029 0.289594 0
M  V30 3420 H 357.263 3.97577 1.2776 0
M  V30 3421 N 357.7 0.491464 1.49741 0
M  V30 3422 C 359.111 0.0413169 1.86654 0
M  V30 3423 C 359.462 -1.36985 1.40462 0
M  V30 3424 O 358.587 -2.01917 0.778354 0
M  V30 3425 C 359.182 0.0682023 3.38731 0
M  V30 3426 C 357.741 -0.32656 3.74981 0
M  V30 3427 C 356.888 0.444888 2.73708 0
M  V30 3428 H 359.839 0.704733 1.42194 0
M  V30 3429 H 359.86 -0.729322 3.73445 0
M  V30 3430 H 359.372 1.09539 3.72321 0
M  V30 3431 H 357.473 -1.35734 3.46997 0
M  V30 3432 H 357.586 -0.013741 4.79098 0
M  V30 3433 H 355.95 -0.104062 2.54487 0
M  V30 3434 H 356.733 1.47197 3.10142 0
M  V30 3435 N 359.178 -1.55987 0.224894 0
M  V30 3436 C 360.424 -1.99433 -0.39973 0
M  V30 3437 C 360.779 -1.11004 -1.57149 0
M  V30 3438 O 360.072 -0.160725 -1.90925 0
M  V30 3439 C 360.266 -3.46394 -0.880106 0
M  V30 3440 C 360.095 -4.4904 0.243565 0
M  V30 3441 C 358.865 -5.00272 0.711056 0
M  V30 3442 C 361.063 -5.03195 1.06299 0
M  V30 3443 N 359.045 -5.86628 1.80944 0
M  V30 3444 C 360.416 -5.86508 2.01017 0
M  V30 3445 C 362.471 -4.8555 1.10205 0
M  V30 3446 C 361.174 -6.54062 2.99324 0
M  V30 3447 C 363.2 -5.53866 2.07332 0
M  V30 3448 C 362.562 -6.3695 3.00789 0
M  V30 3449 H 358.661 -0.773815 -0.112847 0
M  V30 3450 H 361.245 -1.91754 0.337432 0
M  V30 3451 H 359.416 -3.54515 -1.58662 0
M  V30 3452 H 361.148 -3.76752 -1.47783 0
M  V30 3453 H 357.903 -4.72655 0.29906 0
M  V30 3454 H 358.327 -6.34507 2.36073 0
M  V30 3455 H 362.969 -4.20966 0.39343 0
M  V30 3456 H 360.687 -7.17827 3.71147 0
M  V30 3457 H 364.273 -5.42178 2.11032 0
M  V30 3458 H 363.153 -6.8888 3.74718 0
M  V30 3459 N 360.656 0.0484629 -1.57525 0
M  V30 3460 C 361.905 0.742065 -1.87553 0
M  V30 3461 C 362.218 1.77545 -0.820802 0
M  V30 3462 O 363.424 2.52027 -1.00967 0
M  V30 3463 C 361.88 1.37081 -3.32771 0
M  V30 3464 C 361.488 0.374786 -4.4643 0
M  V30 3465 C 363.232 2.04542 -3.71972 0
M  V30 3466 C 361.139 1.01077 -5.82698 0
M  V30 3467 H 360.069 0.280903 -0.699721 0
M  V30 3468 H 362.72 -0.00411877 -1.835 0
M  V30 3469 H 361.102 2.16605 -3.31509 0
M  V30 3470 H 362.276 -0.392331 -4.59127 0
M  V30 3471 H 360.591 -0.196653 -4.15935 0
M  V30 3472 H 363.188 2.52943 -4.71088 0
M  V30 3473 H 363.531 2.85515 -3.02964 0
M  V30 3474 H 364.064 1.31819 -3.75325 0
M  V30 3475 H 360.803 0.240878 -6.55057 0
M  V30 3476 H 360.323 1.74819 -5.73758 0
M  V30 3477 H 362.002 1.52383 -6.28799 0
M  V30 3478 N 362.134 1.5431 0.320358 0
M  V30 3479 C 363.38 1.72924 1.05949 0
M  V30 3480 C 363.713 0.503185 1.87568 0
M  V30 3481 O 362.988 -0.499839 1.87968 0
M  V30 3482 C 363.271 3.00676 1.98156 0
M  V30 3483 C 363.124 4.3354 1.19845 0
M  V30 3484 C 364.443 3.24198 2.9763 0
M  V30 3485 H 361.562 0.629195 0.383774 0
M  V30 3486 H 364.204 1.87008 0.335854 0
M  V30 3487 H 362.354 2.888 2.59859 0
M  V30 3488 H 364.026 4.57305 0.605773 0
M  V30 3489 H 362.269 4.309 0.500784 0
M  V30 3490 H 362.94 5.19156 1.87567 0
M  V30 3491 H 365.416 3.35557 2.4605 0
M  V30 3492 H 364.292 4.14938 3.59329 0
M  V30 3493 H 364.553 2.41577 3.7026 0
M  V30 3494 N 363.613 -0.582584 1.46437 0
M  V30 3495 C 364.86 -1.34079 1.51753 0
M  V30 3496 C 365.188 -1.93762 0.169299 0
M  V30 3497 O 364.443 -1.76989 -0.835062 0
M  V30 3498 C 364.742 -2.48964 2.56421 0
M  V30 3499 C 364.408 -2.07273 4.00436 0
M  V30 3500 C 363.07 -1.95618 4.39644 0
M  V30 3501 C 365.422 -1.75111 4.90903 0
M  V30 3502 C 362.75 -1.5006 5.67185 0
M  V30 3503 C 365.102 -1.31032 6.18881 0
M  V30 3504 C 363.766 -1.17954 6.56996 0
M  V30 3505 H 363.036 -0.49063 0.555304 0
M  V30 3506 H 365.683 -0.656007 1.79913 0
M  V30 3507 H 363.988 -3.22889 2.21923 0
M  V30 3508 H 365.685 -3.07178 2.57765 0
M  V30 3509 H 362.275 -2.17279 3.69443 0
M  V30 3510 H 366.459 -1.83001 4.61329 0
M  V30 3511 H 361.715 -1.38577 5.95488 0
M  V30 3512 H 365.889 -1.052 6.88408 0
M  V30 3513 H 363.516 -0.824279 7.55718 0
M  V30 3514 N 365.091 -1.34144 -0.827227 0
M  V30 3515 C 366.039 -1.25364 -1.95925 0
M  V30 3516 C 367.033 -0.152608 -1.68711 0
M  V30 3517 O 368.239 -0.317311 -1.77181 0
M  V30 3518 H 364.614 -0.389342 -0.643364 0
M  V30 3519 H 366.585 -2.21045 -2.00454 0
M  V30 3520 C 365.334 -1.02158 -3.32354 0
M  V30 3521 H 364.657 -1.86111 -3.5384 0
M  V30 3522 H 366.097 -1.00048 -4.12027 0
M  V30 3523 C 364.556 0.275244 -3.35774 0
M  V30 3524 O 365.086 1.27806 -3.80826 0
M  V30 3525 N 363.292 0.306853 -2.88975 0
M  V30 3526 H 362.839 -0.509777 -2.52506 0
M  V30 3527 H 362.797 1.17432 -2.91646 0
M  V30 3528 N 366.569 1.04691 -1.17803 0
M  V30 3529 C 367.815 1.78045 -0.970969 0
M  V30 3530 C 368.148 1.87686 0.498751 0
M  V30 3531 O 367.423 1.38035 1.37027 0
M  V30 3532 C 367.706 3.2166 -1.61884 0
M  V30 3533 C 367.559 3.20001 -3.161 0
M  V30 3534 C 368.878 4.1962 -1.3269 0
M  V30 3535 H 365.997 0.64633 -0.354155 0
M  V30 3536 H 368.639 1.22333 -1.45378 0
M  V30 3537 H 366.789 3.69232 -1.20831 0
M  V30 3538 H 368.461 2.80467 -3.66246 0
M  V30 3539 H 366.704 2.58203 -3.48588 0
M  V30 3540 H 367.375 4.21386 -3.56564 0
M  V30 3541 H 369.851 3.80567 -1.68249 0
M  V30 3542 H 368.727 5.18339 -1.80599 0
M  V30 3543 H 368.988 4.414 -0.248622 0
M  V30 3544 N 368.047 0.979072 1.23499 0
M  V30 3545 C 369.293 0.648178 1.92163 0
M  V30 3546 C 369.626 -0.816049 1.76222 0
M  V30 3547 O 368.901 -1.58849 1.12237 0
M  V30 3548 C 369.184 1.03773 3.44824 0
M  V30 3549 C 369.037 2.55948 3.69879 0
M  V30 3550 C 370.356 0.580653 4.36253 0
M  V30 3551 H 367.475 0.236952 0.69787 0
M  V30 3552 H 370.117 1.22012 1.45647 0
M  V30 3553 H 368.267 0.551058 3.84572 0
M  V30 3554 H 369.939 3.12179 3.3962 0
M  V30 3555 H 368.182 2.98641 3.14636 0
M  V30 3556 H 368.853 2.78255 4.76737 0
M  V30 3557 H 371.329 0.998465 4.03943 0
M  V30 3558 H 370.205 0.881663 5.41773 0
M  V30 3559 H 370.466 -0.519052 4.39042 0
M  V30 3560 N 369.525 -1.3858 0.750561 0
M  V30 3561 C 370.75 -2.04997 0.314812 0
M  V30 3562 C 371.175 -1.56235 -1.04749 0
M  V30 3563 O 370.533 -0.712981 -1.66692 0
M  V30 3564 C 370.581 -3.58961 0.343415 0
M  V30 3565 O 369.685 -4.07025 -0.663628 0
M  V30 3566 H 369.026 -0.649081 0.139962 0
M  V30 3567 H 371.556 -1.77313 1.02084 0
M  V30 3568 H 371.566 -4.07542 0.193233 0
M  V30 3569 H 370.241 -3.93811 1.33738 0
M  V30 3570 H 368.818 -3.6982 -0.478307 0
M  V30 3571 N 371.003 -0.499398 -1.49478 0
M  V30 3572 C 372.28 0.108629 -1.95298 0
M  V30 3573 C 372.66 1.54282 -1.44084 0
M  V30 3574 O 372.008 2.18944 -0.653908 0
M  V30 3575 C 372.218 0.0229111 -3.48992 0
M  V30 3576 C 373.566 0.197643 -4.2414 0
M  V30 3577 O 374.59 0.0981735 -3.56065 0
M  V30 3578 O 373.449 0.401669 -5.45022 0
M  V30 3579 H 370.543 0.096181 -0.821388 0
M  V30 3580 H 373.089 -0.561822 -1.6013 0
M  V30 3581 H 371.861 -0.977321 -3.78899 0
M  V30 3582 H 371.484 0.733579 -3.90774 0
M  V30 3583 N 372.481 1.55866 -0.233164 0
M  V30 3584 C 373.709 2.02998 0.399905 0
M  V30 3585 C 374.124 1.11274 1.52524 0
M  V30 3586 O 373.481 0.124528 1.82075 0
M  V30 3587 C 373.532 3.4958 0.920639 0
M  V30 3588 O 373.253 4.37808 -0.159834 0
M  V30 3589 C 374.754 4.12411 1.62578 0
M  V30 3590 H 371.974 0.664006 0.0966281 0
M  V30 3591 H 374.518 2.0143 -0.353013 0
M  V30 3592 H 372.673 3.51727 1.62379 0
M  V30 3593 H 373.087 5.23981 0.23337 0
M  V30 3594 H 374.561 5.16711 1.94201 0
M  V30 3595 H 375.038 3.5809 2.54299 0
M  V30 3596 H 375.644 4.14148 0.967553 0
M  V30 3597 N 373.959 -0.0401083 1.57549 0
M  V30 3598 C 375.206 -0.733125 1.88763 0
M  V30 3599 C 375.534 -1.75946 0.829058 0
M  V30 3600 O 374.789 -1.94949 -0.171323 0
M  V30 3601 C 375.088 -1.44902 3.26708 0
M  V30 3602 C 374.754 -0.559707 4.47413 0
M  V30 3603 C 373.416 -0.314731 4.8017 0
M  V30 3604 C 375.768 0.0549743 5.21171 0
M  V30 3605 C 373.096 0.553886 5.8408 0
M  V30 3606 C 375.448 0.911229 6.26003 0
M  V30 3607 C 374.112 1.16577 6.57241 0
M  V30 3608 H 373.382 -0.268269 0.690733 0
M  V30 3609 H 376.029 0.00679408 1.91499 0
M  V30 3610 H 374.334 -2.26197 3.1991 0
M  V30 3611 H 376.031 -1.99058 3.48105 0
M  V30 3612 H 372.621 -0.760793 4.21794 0
M  V30 3613 H 376.805 -0.121344 4.96152 0
M  V30 3614 H 372.061 0.759518 6.06664 0
M  V30 3615 H 376.235 1.3941 6.82303 0
M  V30 3616 H 373.862 1.84058 7.37582 0
M  V30 3617 N 375.437 -1.54477 -0.31217 0
M  V30 3618 C 376.684 -1.73227 -1.04875 0
M  V30 3619 C 377.012 -0.512042 -1.87639 0
M  V30 3620 O 376.267 0.506131 -1.89042 0
M  V30 3621 C 376.566 -2.967 -1.99258 0
M  V30 3622 C 376.232 -4.30974 -1.32559 0
M  V30 3623 C 374.894 -4.67477 -1.141 0
M  V30 3624 C 377.246 -5.14258 -0.847835 0
M  V30 3625 C 374.574 -5.84852 -0.465326 0
M  V30 3626 C 376.926 -6.32327 -0.185931 0
M  V30 3627 C 375.59 -6.67499 0.0107077 0
M  V30 3628 H 374.86 -0.633881 -0.383765 0
M  V30 3629 H 377.507 -1.88727 -0.324731 0
M  V30 3630 H 375.812 -2.75935 -2.7815 0
M  V30 3631 H 377.509 -3.08401 -2.563 0
M  V30 3632 H 374.099 -4.02262 -1.4793 0
M  V30 3633 H 378.283 -4.86565 -0.978192 0
M  V30 3634 H 373.539 -6.10654 -0.301883 0
M  V30 3635 H 377.713 -6.96135 0.192211 0
M  V30 3636 H 375.34 -7.58306 0.536287 0
M  V30 3637 N 376.915 0.57481 -1.46744 0
M  V30 3638 C 377.845 1.69337 -1.60771 0
M  V30 3639 C 378.826 1.63825 -0.457736 0
M  V30 3640 O 380.011 1.8172 -0.684947 0
M  V30 3641 C 377.141 3.0798 -1.60517 0
M  V30 3642 C 376.095 3.28327 -2.74564 0
M  V30 3643 C 375.421 4.67578 -2.59373 0
M  V30 3644 C 376.721 3.15398 -4.16319 0
M  V30 3645 H 378.415 1.57853 -2.54407 0
M  V30 3646 H 375.961 0.75799 -1.22436 0
M  V30 3647 H 377.914 3.86061 -1.68923 0
M  V30 3648 H 376.638 3.20381 -0.634305 0
M  V30 3649 H 375.297 2.52649 -2.65639 0
M  V30 3650 H 374.945 4.76755 -1.60353 0
M  V30 3651 H 374.645 4.82144 -3.35873 0
M  V30 3652 H 376.169 5.47817 -2.69682 0
M  V30 3653 H 377.583 3.83315 -4.26313 0
M  V30 3654 H 375.98 3.41482 -4.93468 0
M  V30 3655 H 377.05 2.12372 -4.3592 0
M  V30 3656 N 378.394 1.34581 0.820102 0
M  V30 3657 C 379.327 1.20735 1.93644 0
M  V30 3658 C 380.305 0.0983343 1.62302 0
M  V30 3659 O 381.489 0.263997 1.86642 0
M  V30 3660 C 378.616 0.856037 3.27704 0
M  V30 3661 C 377.662 1.97521 3.78005 0
M  V30 3662 S 378.495 3.58906 3.97425 0
M  V30 3663 C 379.651 3.25822 5.34407 0
M  V30 3664 H 379.884 2.15231 2.05093 0
M  V30 3665 H 377.417 1.1964 0.97599 0
M  V30 3666 H 379.375 0.660133 4.05157 0
M  V30 3667 H 378.036 -0.0706253 3.14021 0
M  V30 3668 H 377.229 1.68321 4.75062 0
M  V30 3669 H 376.831 2.12875 3.07507 0
M  V30 3670 H 379.123 2.77812 6.17922 0
M  V30 3671 H 380.066 4.22029 5.68592 0
M  V30 3672 H 380.474 2.61932 5.00052 0
M  V30 3673 N 379.872 -1.04064 1.18357 0
M  V30 3674 C 381.149 -1.74252 0.888581 0
M  V30 3675 C 381.529 -2.02138 -0.60856 0
M  V30 3676 O 380.877 -1.66656 -1.56327 0
M  V30 3677 C 381.087 -3.0277 1.73584 0
M  V30 3678 C 382.435 -3.76506 1.96286 0
M  V30 3679 O 383.459 -3.12668 1.70637 0
M  V30 3680 O 382.318 -4.91243 2.39464 0
M  V30 3681 H 379.412 -0.758271 0.330082 0
M  V30 3682 H 381.958 -1.1013 1.2911 0
M  V30 3683 H 380.73 -2.78299 2.75073 0
M  V30 3684 H 380.353 -3.74631 1.33183 0
M  V30 3685 N 381.35 -0.985608 -1.22978 0
M  V30 3686 C 382.28 -0.549649 -2.26939 0
M  V30 3687 C 383.261 0.419803 -1.64838 0
M  V30 3688 O 384.446 0.31203 -1.91677 0
M  V30 3689 C 381.576 0.143652 -3.47003 0
M  V30 3690 C 380.53 -0.743606 -4.21491 0
M  V30 3691 C 379.856 0.0822027 -5.34637 0
M  V30 3692 C 381.156 -2.03694 -4.80943 0
M  V30 3693 H 382.85 -1.41862 -2.63658 0
M  V30 3694 H 380.396 -0.683571 -1.26741 0
M  V30 3695 H 382.349 0.459985 -4.18882 0
M  V30 3696 H 381.073 1.04711 -3.09359 0
M  V30 3697 H 379.732 -1.04347 -3.51436 0
M  V30 3698 H 379.38 0.986359 -4.93234 0
M  V30 3699 H 379.08 -0.508377 -5.85397 0
M  V30 3700 H 380.604 0.392797 -6.09335 0
M  V30 3701 H 382.018 -1.78504 -5.44802 0
M  V30 3702 H 380.415 -2.57573 -5.42011 0
M  V30 3703 H 381.485 -2.72042 -4.01399 0
M  V30 3704 N 382.828 1.3818 -0.7579 0
M  V30 3705 C 384.074 2.00316 -0.316453 0
M  V30 3706 C 384.407 1.60026 1.10025 0
M  V30 3707 O 383.682 0.839835 1.75434 0
M  V30 3708 C 383.965 3.57349 -0.444245 0
M  V30 3709 C 383.818 4.07591 -1.90236 0
M  V30 3710 C 385.137 4.3981 0.1598 0
M  V30 3711 H 382.256 0.727741 -0.116459 0
M  V30 3712 H 384.898 1.6406 -0.958352 0
M  V30 3713 H 383.048 3.88365 0.102233 0
M  V30 3714 H 384.72 3.87199 -2.50748 0
M  V30 3715 H 382.963 3.60297 -2.41595 0
M  V30 3716 H 383.634 5.16677 -1.94291 0
M  V30 3717 H 386.11 4.14971 -0.306314 0
M  V30 3718 H 384.986 5.48885 0.0401675 0
M  V30 3719 H 385.247 4.24102 1.24859 0
M  V30 3720 N 384.306 0.507319 1.49211 0
M  V30 3721 C 385.236 -0.256939 2.32082 0
M  V30 3722 C 386.217 -0.956609 1.40652 0
M  V30 3723 O 387.402 -0.946788 1.69557 0
M  V30 3724 C 384.532 -1.31802 3.21318 0
M  V30 3725 C 383.486 -0.737855 4.21592 0
M  V30 3726 C 382.812 -1.89992 4.99807 0
M  V30 3727 C 384.112 0.275325 5.21574 0
M  V30 3728 H 385.806 0.434798 2.96226 0
M  V30 3729 H 383.352 0.210546 1.42452 0
M  V30 3730 H 385.305 -1.86045 3.78107 0
M  V30 3731 H 384.029 -2.03903 2.5513 0
M  V30 3732 H 382.688 -0.217126 3.65956 0
M  V30 3733 H 382.336 -2.60877 4.30061 0
M  V30 3734 H 382.036 -1.51777 5.6766 0
M  V30 3735 H 383.56 -2.44657 5.59442 0
M  V30 3736 H 384.974 -0.179193 5.7302 0
M  V30 3737 H 383.371 0.573649 5.97352 0
M  V30 3738 H 384.441 1.18903 4.70096 0
M  V30 3739 N 385.784 -1.5574 0.241426 0
M  V30 3740 C 386.732 -2.22538 -0.676718 0
M  V30 3741 C 387.726 -1.21117 -1.18436 0
M  V30 3742 O 388.932 -1.39144 -1.14188 0
M  V30 3743 H 385.307 -0.713776 -0.236701 0
M  V30 3744 H 387.278 -2.98264 -0.0901187 0
M  V30 3745 C 386.027 -2.93439 -1.86518 0
M  V30 3746 H 385.35 -3.7125 -1.4837 0
M  V30 3747 H 386.79 -3.43549 -2.48495 0
M  V30 3748 C 385.249 -1.97008 -2.73294 0
M  V30 3749 O 385.779 -1.49965 -3.72657 0
M  V30 3750 N 383.985 -1.64227 -2.39745 0
M  V30 3751 H 383.532 -2.02677 -1.58996 0
M  V30 3752 H 383.49 -0.999708 -2.98083 0
M  V30 3753 N 387.262 0.0317525 -1.57568 0
M  V30 3754 C 388.509 0.723104 -1.89149 0
M  V30 3755 C 388.837 1.75504 -0.838377 0
M  V30 3756 O 388.092 1.95037 0.160982 0
M  V30 3757 C 388.391 1.43167 -3.27472 0
M  V30 3758 C 388.057 0.535972 -4.47703 0
M  V30 3759 C 386.719 0.289262 -4.8033 0
M  V30 3760 C 389.071 -0.0826125 -5.21135 0
M  V30 3761 C 386.399 -0.584853 -5.83778 0
M  V30 3762 C 388.751 -0.944414 -6.25511 0
M  V30 3763 C 387.415 -1.20061 -6.56614 0
M  V30 3764 H 386.685 0.264602 -0.692146 0
M  V30 3765 H 389.332 -0.0169496 -1.91492 0
M  V30 3766 H 387.637 2.24497 -3.21105 0
M  V30 3767 H 389.334 1.97209 -3.49155 0
M  V30 3768 H 385.924 0.738414 -4.22191 0
M  V30 3769 H 390.108 0.0950302 -4.96209 0
M  V30 3770 H 385.364 -0.79168 -6.06253 0
M  V30 3771 H 389.538 -1.43026 -6.81554 0
M  V30 3772 H 387.165 -1.87967 -7.36595 0
M  V30 3773 N 388.74 1.54641 0.303973 0
M  V30 3774 C 390.156 1.45788 0.649463 0
M  V30 3775 C 390.356 0.64666 1.90842 0
M  V30 3776 O 389.412 0.153183 2.52035 0
M  V30 3777 C 390.725 2.89718 0.805227 0
M  V30 3778 C 392.273 2.99742 0.901305 0
M  V30 3779 C 392.748 4.44863 1.08909 0
M  V30 3780 N 394.239 4.48559 1.15536 0
M  V30 3781 C 394.974 5.58026 1.3189 0
M  V30 3782 N 394.47 6.77422 1.45161 0
M  V30 3783 N 396.263 5.45708 1.34755 0
M  V30 3784 H 388.414 2.05854 -0.523237 0
M  V30 3785 H 390.677 0.932186 -0.172431 0
M  V30 3786 H 390.383 3.51666 -0.0489108 0
M  V30 3787 H 390.257 3.36964 1.69513 0
M  V30 3788 H 392.644 2.3791 1.74593 0
M  V30 3789 H 392.725 2.55797 -0.0125531 0
M  V30 3790 H 392.369 5.07288 0.249241 0
M  V30 3791 H 392.299 4.86436 2.01713 0
M  V30 3792 H 394.79 3.6254 1.06646 0
M  V30 3793 H 395.103 7.56604 1.57387 0
M  V30 3794 H 393.448 6.80292 1.42223 0
M  V30 3795 H 396.639 4.51378 1.23996 0
M  V30 3796 H 396.812 6.3107 1.47157 0
M  V30 3797 N 390.218 -0.567019 1.47046 0
M  V30 3798 C 391.446 -1.35027 1.56765 0
M  V30 3799 C 391.861 -1.8758 0.214316 0
M  V30 3800 O 391.218 -1.64471 -0.790919 0
M  V30 3801 C 391.269 -2.52698 2.58507 0
M  V30 3802 O 390.99 -2.0232 3.88585 0
M  V30 3803 C 392.491 -3.45043 2.78316 0
M  V30 3804 H 389.711 -0.41195 0.529658 0
M  V30 3805 H 392.255 -0.687832 1.92585 0
M  V30 3806 H 390.41 -3.149 2.25648 0
M  V30 3807 H 390.824 -2.79068 4.44096 0
M  V30 3808 H 392.298 -4.2405 3.53391 0
M  V30 3809 H 392.775 -3.97971 1.85784 0
M  V30 3810 H 393.381 -2.88665 3.12334 0
M  V30 3811 N 391.696 -1.35014 -0.812953 0
M  V30 3812 C 392.944 -1.27678 -1.56661 0
M  V30 3813 C 393.265 0.150359 -1.94419 0
M  V30 3814 O 392.535 1.08532 -1.63088 0
M  V30 3815 H 391.115 -0.469602 -0.580933 0
M  V30 3816 H 393.777 -1.69043 -0.970076 0
M  V30 3817 H 392.873 -1.88833 -2.48492 0
M  V30 3818 N 393.175 1.03435 -1.18907 0
M  V30 3819 C 394.424 1.76143 -0.982669 0
M  V30 3820 C 394.737 1.89416 0.487953 0
M  V30 3821 O 395.943 2.59041 0.813036 0
M  V30 3822 C 394.399 3.16722 -1.70924 0
M  V30 3823 C 394.007 3.11522 -3.21959 0
M  V30 3824 C 395.751 3.93764 -1.58588 0
M  V30 3825 C 393.658 4.46999 -3.87228 0
M  V30 3826 H 392.588 0.660292 -0.364047 0
M  V30 3827 H 395.239 1.158 -1.42347 0
M  V30 3828 H 393.621 3.775 -1.19623 0
M  V30 3829 H 394.795 2.60158 -3.80335 0
M  V30 3830 H 393.11 2.47978 -3.34508 0
M  V30 3831 H 395.707 4.93963 -2.04707 0
M  V30 3832 H 396.05 4.12794 -0.539142 0
M  V30 3833 H 396.583 3.39576 -2.07203 0
M  V30 3834 H 393.322 4.33174 -4.91976 0
M  V30 3835 H 392.842 4.98441 -3.33642 0
M  V30 3836 H 394.521 5.15898 -3.90459 0
M  V30 3837 N 394.653 0.992116 1.22453 0
M  V30 3838 C 395.899 0.668523 1.91464 0
M  V30 3839 C 396.232 -0.797313 1.77078 0
M  V30 3840 O 395.507 -1.5765 1.13916 0
M  V30 3841 C 395.79 1.07424 3.43703 0
M  V30 3842 C 395.643 2.59857 3.67143 0
M  V30 3843 C 396.962 0.626891 4.35612 0
M  V30 3844 H 394.081 0.244341 0.695318 0
M  V30 3845 H 396.723 1.2355 1.44345 0
M  V30 3846 H 394.873 0.591816 3.83966 0
M  V30 3847 H 396.545 3.15764 3.3629 0
M  V30 3848 H 394.788 3.01961 3.11451 0
M  V30 3849 H 395.459 2.83296 4.73759 0
M  V30 3850 H 397.935 1.04125 4.02861 0
M  V30 3851 H 396.811 0.939076 5.40807 0
M  V30 3852 H 397.072 -0.472457 4.39568 0
M  V30 3853 N 396.131 -1.37776 0.765217 0
M  V30 3854 C 397.38 -1.99092 0.323307 0
M  V30 3855 C 397.693 -1.61434 -1.10446 0
M  V30 3856 O 398.899 -2.15805 -1.64743 0
M  V30 3857 C 397.355 -3.56019 0.527098 0
M  V30 3858 C 396.963 -4.0262 1.96471 0
M  V30 3859 C 398.707 -4.2424 0.148483 0
M  V30 3860 C 396.614 -5.52233 2.11644 0
M  V30 3861 H 395.544 -0.744846 0.117137 0
M  V30 3862 H 398.195 -1.57391 0.943417 0
M  V30 3863 H 396.577 -3.95667 -0.162372 0
M  V30 3864 H 397.751 -3.74234 2.68859 0
M  V30 3865 H 396.066 -3.47161 2.29931 0
M  V30 3866 H 398.663 -5.34159 0.240456 0
M  V30 3867 H 399.006 -4.06446 -0.900422 0
M  V30 3868 H 399.539 -3.89872 0.79025 0
M  V30 3869 H 396.278 -5.74945 3.1483 0
M  V30 3870 H 395.798 -5.82324 1.4373 0
M  V30 3871 H 397.477 -6.18106 1.91193 0
M  V30 3872 N 397.609 -0.515225 -1.4894 0
M  V30 3873 C 398.519 0.259774 -2.33157 0
M  V30 3874 C 399.535 0.953501 -1.45548 0
M  V30 3875 O 400.711 0.931735 -1.78552 0
M  V30 3876 C 397.776 1.30193 -3.21326 0
M  V30 3877 C 396.837 0.620129 -4.24797 0
M  V30 3878 C 396.07 1.61263 -5.08753 0
M  V30 3879 O 396.293 2.84389 -4.94448 0
M  V30 3880 O 395.227 1.16013 -5.90614 0
M  V30 3881 H 399.053 -0.429932 -3.00641 0
M  V30 3882 H 396.638 -0.276346 -1.46822 0
M  V30 3883 H 398.52 1.90455 -3.75905 0
M  V30 3884 H 397.195 1.97431 -2.56521 0
M  V30 3885 H 396.102 -0.0226019 -3.74093 0
M  V30 3886 H 397.435 -0.0100493 -4.92199 0
M  V30 3887 N 399.087 1.5561 -0.249682 0
M  V30 3888 C 400.364 1.90932 0.424761 0
M  V30 3889 C 400.744 1.17078 1.75658 0
M  V30 3890 O 400.092 0.289176 2.26663 0
M  V30 3891 C 400.302 3.43975 0.590109 0
M  V30 3892 C 401.65 4.15281 0.884714 0
M  V30 3893 O 402.674 3.49729 0.67587 0
M  V30 3894 O 401.533 5.31236 1.28259 0
M  V30 3895 H 398.627 0.794815 0.228468 0
M  V30 3896 H 401.173 1.67135 -0.293954 0
M  V30 3897 H 399.945 3.89748 -0.34818 0
M  V30 3898 H 399.568 3.73644 1.35926 0
M  V30 3899 N 400.565 -0.0233959 1.57583 0
M  V30 3900 C 401.513 -1.04063 2.08023 0
M  V30 3901 C 402.507 -1.37084 0.995204 0
M  V30 3902 O 403.713 -1.35923 1.18004 0
M  V30 3903 H 400.088 -0.353144 0.663922 0
M  V30 3904 H 402.059 -0.589453 2.9252 0
M  V30 3905 C 400.808 -2.33123 2.57971 0
M  V30 3906 H 400.131 -2.08577 3.4108 0
M  V30 3907 H 401.571 -3.02632 2.96967 0
M  V30 3908 C 400.03 -3.02483 1.48342 0
M  V30 3909 O 400.56 -3.92541 0.852898 0
M  V30 3910 N 398.766 -2.63909 1.21658 0
M  V30 3911 H 398.313 -1.90758 1.73116 0
M  V30 3912 H 398.271 -3.10633 0.485218 0
M  V30 3913 N 402.043 -1.548 -0.295768 0
M  V30 3914 C 403.271 -1.78327 -1.04914 0
M  V30 3915 C 403.686 -0.545316 -1.80753 0
M  V30 3916 O 403.043 0.485013 -1.75937 0
M  V30 3917 C 403.094 -2.99418 -2.02561 0
M  V30 3918 O 402.815 -4.18431 -1.29798 0
M  V30 3919 C 404.316 -3.35375 -2.89895 0
M  V30 3920 H 401.536 -0.594618 -0.310918 0
M  V30 3921 H 404.08 -2.01763 -0.333454 0
M  V30 3922 H 402.235 -2.78175 -2.69624 0
M  V30 3923 H 402.649 -4.86736 -1.95419 0
M  V30 3924 H 404.123 -4.23332 -3.54251 0
M  V30 3925 H 404.6 -2.53761 -3.58472 0
M  V30 3926 H 405.206 -3.58796 -2.28355 0
M  V30 3927 N 403.521 0.559213 -1.47345 0
M  V30 3928 C 404.431 1.69388 -1.62311 0
M  V30 3929 C 405.447 1.6648 -0.505993 0
M  V30 3930 O 406.623 1.85964 -0.773262 0
M  V30 3931 C 403.688 3.05894 -1.63185 0
M  V30 3932 C 402.749 3.19885 -2.86307 0
M  V30 3933 C 401.982 4.49879 -2.87131 0
M  V30 3934 O 402.205 5.35217 -1.97229 0
M  V30 3935 O 401.139 4.67618 -3.78968 0
M  V30 3936 H 404.965 1.59706 -2.58317 0
M  V30 3937 H 402.55 0.728989 -1.30407 0
M  V30 3938 H 404.432 3.87133 -1.66451 0
M  V30 3939 H 403.107 3.15964 -0.70345 0
M  V30 3940 H 402.014 2.38052 -2.88587 0
M  V30 3941 H 403.347 3.14718 -3.78435 0
M  V30 3942 N 404.999 1.35443 0.805782 0
M  V30 3943 C 406.248 1.28097 1.55801 0
M  V30 3944 C 406.561 -0.142428 1.95081 0
M  V30 3945 O 407.767 -0.33817 2.69386 0
M  V30 3946 C 406.223 2.24653 2.81174 0
M  V30 3947 C 405.831 3.72342 2.49129 0
M  V30 3948 C 407.575 2.2625 3.59181 0
M  V30 3949 C 405.482 4.60719 3.70799 0
M  V30 3950 H 404.412 0.475937 0.584808 0
M  V30 3951 H 407.063 1.60712 0.885661 0
M  V30 3952 H 405.445 1.85011 3.50124 0
M  V30 3953 H 406.619 4.20624 1.88181 0
M  V30 3954 H 404.934 3.73361 1.84366 0
M  V30 3955 H 407.531 2.89495 4.49552 0
M  V30 3956 H 407.874 1.26647 3.96568 0
M  V30 3957 H 408.407 2.64426 2.97193 0
M  V30 3958 H 405.146 5.61324 3.3852 0
M  V30 3959 H 404.666 4.17163 4.3097 0
M  V30 3960 H 406.345 4.76182 4.38018 0
M  V30 3961 N 406.477 -1.02803 1.19454 0
M  V30 3962 C 407.726 -1.7562 0.991996 0
M  V30 3963 C 408.039 -1.89672 -0.477901 0
M  V30 3964 O 409.245 -2.59468 -0.799287 0
M  V30 3965 C 407.701 -3.15812 1.72601 0
M  V30 3966 C 407.309 -3.0981 3.23607 0
M  V30 3967 C 409.053 -3.92918 1.60674 0
M  V30 3968 C 406.96 -4.44939 3.89594 0
M  V30 3969 H 405.89 -0.658352 0.367543 0
M  V30 3970 H 408.541 -1.15044 1.42959 0
M  V30 3971 H 406.923 -3.7686 1.21624 0
M  V30 3972 H 408.097 -2.58138 3.81709 0
M  V30 3973 H 406.412 -2.46201 3.35819 0
M  V30 3974 H 409.009 -4.9287 2.07323 0
M  V30 3975 H 409.352 -4.12502 0.561025 0
M  V30 3976 H 409.885 -3.38472 2.09001 0
M  V30 3977 H 406.624 -4.30559 4.94267 0
M  V30 3978 H 406.144 -4.96664 3.36281 0
M  V30 3979 H 407.823 -5.1382 3.93189 0
M  V30 3980 N 407.956 -0.998596 -1.21925 0
M  V30 3981 C 408.886 -0.573688 -2.26343 0
M  V30 3982 C 409.867 0.402296 -1.65274 0
M  V30 3983 O 411.052 0.291683 -1.91997 0
M  V30 3984 C 408.182 0.106839 -3.47136 0
M  V30 3985 C 407.136 -0.788269 -4.20678 0
M  V30 3986 C 406.462 0.0254927 -5.34694 0
M  V30 3987 C 407.762 -2.08784 -4.78755 0
M  V30 3988 H 409.456 -1.44651 -2.62138 0
M  V30 3989 H 407.002 -0.696975 -1.26009 0
M  V30 3990 H 408.955 0.415531 -4.19346 0
M  V30 3991 H 407.679 1.01424 -3.10452 0
M  V30 3992 H 406.338 -1.08069 -3.50309 0
M  V30 3993 H 405.986 0.933989 -4.94253 0
M  V30 3994 H 405.686 -0.570437 -5.84825 0
M  V30 3995 H 407.21 0.328147 -6.09718 0
M  V30 3996 H 408.624 -1.84272 -5.42878 0
M  V30 3997 H 407.021 -2.63307 -5.39249 0
M  V30 3998 H 408.091 -2.76284 -3.98491 0
M  V30 3999 N 409.434 1.37368 -0.772513 0
M  V30 4000 C 410.711 1.93839 -0.26188 0
M  V30 4001 C 411.091 1.7061 1.24319 0
M  V30 4002 O 410.439 1.05534 2.02669 0
M  V30 4003 C 410.649 3.43154 -0.636102 0
M  V30 4004 C 411.997 4.20249 -0.606324 0
M  V30 4005 O 413.021 3.5152 -0.575538 0
M  V30 4006 O 411.88 5.42809 -0.634086 0
M  V30 4007 H 408.974 0.82478 -0.0605555 0
M  V30 4008 H 411.52 1.4665 -0.853917 0
M  V30 4009 H 410.292 3.53647 -1.6748 0
M  V30 4010 H 409.915 3.97596 -0.0170516 0
M  V30 4011 N 410.912 0.523116 1.48665 0
M  V30 4012 C 412.323 0.0808997 1.86525 0
M  V30 4013 C 412.674 -1.33975 1.43336 0
M  V30 4014 O 411.799 -2.00221 0.821009 0
M  V30 4015 C 412.394 0.140037 3.3851 0
M  V30 4016 C 410.953 -0.246948 3.75589 0
M  V30 4017 C 410.1 0.502845 2.72703 0
M  V30 4018 H 413.051 0.734736 1.40667 0
M  V30 4019 H 413.072 -0.649945 3.74908 0
M  V30 4020 H 412.584 1.17412 3.69914 0
M  V30 4021 H 410.685 -1.28343 3.49798 0
M  V30 4022 H 410.798 0.0878859 4.79019 0
M  V30 4023 H 409.162 -0.0500581 2.54651 0
M  V30 4024 H 409.945 1.53743 3.0695 0
M  V30 4025 N 412.39 -1.55475 0.257931 0
M  V30 4026 C 413.3 -2.2549 -0.647425 0
M  V30 4027 C 414.316 -1.2748 -1.18427 0
M  V30 4028 O 415.492 -1.6038 -1.2182 0
M  V30 4029 C 412.557 -2.94916 -1.82278 0
M  V30 4030 C 411.618 -4.08363 -1.32432 0
M  V30 4031 C 410.851 -4.74469 -2.44366 0
M  V30 4032 O 411.074 -4.39701 -3.63344 0
M  V30 4033 O 410.008 -5.62763 -2.13497 0
M  V30 4034 H 413.834 -3.03593 -0.0807707 0
M  V30 4035 H 411.419 -1.49377 0.0259962 0
M  V30 4036 H 413.301 -3.38606 -2.50846 0
M  V30 4037 H 411.976 -2.19744 -2.37685 0
M  V30 4038 H 410.883 -3.69166 -0.605605 0
M  V30 4039 H 412.216 -4.85385 -0.816211 0
M  V30 4040 N 413.868 0.0150385 -1.57593 0
M  V30 4041 C 414.815 1.01126 -2.07466 0
M  V30 4042 C 415.785 1.35064 -0.966794 0
M  V30 4043 O 416.97 1.4516 -1.23827 0
M  V30 4044 C 414.11 2.30276 -2.57035 0
M  V30 4045 C 413.223 2.02373 -3.81666 0
M  V30 4046 C 412.358 3.25496 -4.19793 0
M  V30 4047 C 411.397 2.93211 -5.37303 0
M  V30 4048 N 410.534 4.08826 -5.70794 0
M  V30 4049 H 415.374 0.57901 -2.92321 0
M  V30 4050 H 412.911 0.27426 -1.44521 0
M  V30 4051 H 414.869 3.05757 -2.83846 0
M  V30 4052 H 413.499 2.71197 -1.75077 0
M  V30 4053 H 412.551 1.17327 -3.61854 0
M  V30 4054 H 413.863 1.74567 -4.67256 0
M  V30 4055 H 413.017 4.09333 -4.47807 0
M  V30 4056 H 411.756 3.56428 -3.32882 0
M  V30 4057 H 410.761 2.07777 -5.09027 0
M  V30 4058 H 411.986 2.63542 -6.25877 0
M  V30 4059 H 409.932 4.39682 -4.86842 0
M  V30 4060 H 409.849 3.84491 -6.50924 0
M  V30 4061 H 411.117 4.93496 -6.03392 0
M  V30 4062 N 415.346 1.54954 0.287554 0
M  V30 4063 C 416.595 1.74081 1.01877 0
M  V30 4064 C 416.908 0.541135 1.87966 0
M  V30 4065 O 418.114 0.614491 2.64455 0
M  V30 4066 C 416.57 3.08042 1.86113 0
M  V30 4067 C 416.178 4.35531 1.04961 0
M  V30 4068 C 417.922 3.36523 2.58752 0
M  V30 4069 C 415.829 5.60538 1.88551 0
M  V30 4070 H 414.759 0.64884 0.384087 0
M  V30 4071 H 417.41 1.81426 0.275101 0
M  V30 4072 H 415.792 2.94696 2.64519 0
M  V30 4073 H 416.966 4.59751 0.31074 0
M  V30 4074 H 415.281 4.14085 0.43843 0
M  V30 4075 H 417.878 4.27122 3.21668 0
M  V30 4076 H 418.221 2.56 3.28283 0
M  V30 4077 H 418.754 3.50901 1.87386 0
M  V30 4078 H 415.493 6.43767 1.23466 0
M  V30 4079 H 415.013 5.40483 2.60074 0
M  V30 4080 H 416.692 5.98297 2.46273 0
M  V30 4081 N 416.824 -0.551391 1.4764 0
M  V30 4082 C 417.771 -1.65796 1.60563 0
M  V30 4083 C 418.741 -1.59932 0.448428 0
M  V30 4084 O 419.926 -1.78679 0.669222 0
M  V30 4085 C 417.066 -3.04108 1.63133 0
M  V30 4086 C 416.179 -3.20365 2.89811 0
M  V30 4087 C 415.314 -4.49109 2.8368 0
M  V30 4088 C 414.353 -4.58819 4.05156 0
M  V30 4089 N 413.49 -5.78926 3.97227 0
M  V30 4090 H 418.33 -1.54088 2.5507 0
M  V30 4091 H 415.867 -0.75052 1.26513 0
M  V30 4092 H 417.825 -3.84207 1.62606 0
M  V30 4093 H 416.455 -3.14637 0.721341 0
M  V30 4094 H 415.507 -2.33659 3.00179 0
M  V30 4095 H 416.819 -3.23402 3.79753 0
M  V30 4096 H 415.973 -5.37475 2.81434 0
M  V30 4097 H 414.712 -4.4856 1.91431 0
M  V30 4098 H 413.717 -3.68864 4.077 0
M  V30 4099 H 414.942 -4.61124 4.98539 0
M  V30 4100 H 412.888 -5.79314 3.07785 0
M  V30 4101 H 412.805 -5.83367 4.80853 0
M  V30 4102 H 414.073 -6.69637 3.99007 0
M  V30 4103 N 418.302 -1.35869 -0.798587 0
M  V30 4104 C 419.249 -1.29446 -1.91082 0
M  V30 4105 C 420.219 -0.16487 -1.6528 0
M  V30 4106 O 421.404 -0.349888 -1.87564 0
M  V30 4107 C 418.544 -1.0804 -3.27752 0
M  V30 4108 C 417.657 -2.29993 -3.65687 0
M  V30 4109 C 416.792 -2.01673 -4.91428 0
M  V30 4110 C 415.831 -3.19636 -5.22015 0
M  V30 4111 N 414.968 -2.91039 -6.38937 0
M  V30 4112 H 419.808 -2.24553 -1.95907 0
M  V30 4113 H 417.345 -1.11615 -0.958148 0
M  V30 4114 H 419.303 -0.936586 -4.06551 0
M  V30 4115 H 417.933 -0.16592 -3.22373 0
M  V30 4116 H 416.985 -2.55211 -2.82085 0
M  V30 4117 H 418.297 -3.18052 -3.84245 0
M  V30 4118 H 417.451 -1.84168 -5.78072 0
M  V30 4119 H 416.19 -1.10911 -4.74921 0
M  V30 4120 H 415.195 -3.37709 -4.33858 0
M  V30 4121 H 416.42 -4.11211 -5.40447 0
M  V30 4122 H 414.366 -2.0288 -6.2384 0
M  V30 4123 H 414.283 -3.72635 -6.57784 0
M  V30 4124 H 415.551 -2.77093 -7.28587 0
M  V30 4125 N 419.78 1.02168 -1.19998 0
M  V30 4126 C 420.727 2.10601 -0.944228 0
M  V30 4127 C 421.697 1.65639 0.123664 0
M  V30 4128 O 422.882 1.9079 -0.0199941 0
M  V30 4129 C 420.022 3.41504 -0.496865 0
M  V30 4130 C 419.135 3.99973 -1.63234 0
M  V30 4131 C 418.27 5.18915 -1.13579 0
M  V30 4132 C 417.309 5.69456 -2.24468 0
M  V30 4133 N 416.446 6.79665 -1.76068 0
M  V30 4134 H 421.286 2.31814 -1.8726 0
M  V30 4135 H 418.823 1.13686 -0.933483 0
M  V30 4136 H 420.781 4.16626 -0.218843 0
M  V30 4137 H 419.411 3.2038 0.394508 0
M  V30 4138 H 418.463 3.21997 -2.0254 0
M  V30 4139 H 419.775 4.33492 -2.46752 0
M  V30 4140 H 418.929 6.01222 -0.813429 0
M  V30 4141 H 417.668 4.8695 -0.270434 0
M  V30 4142 H 416.673 4.85757 -2.57526 0
M  V30 4143 H 417.898 6.03459 -3.11472 0
M  V30 4144 H 415.844 6.49538 -0.918516 0
M  V30 4145 H 415.761 7.12349 -2.5317 0
M  V30 4146 H 417.029 7.65549 -1.46817 0
M  V30 4147 N 421.258 1.00505 1.21394 0
M  V30 4148 C 422.488 0.705584 1.94178 0
M  V30 4149 C 422.896 -0.735846 1.74304 0
M  V30 4150 O 422.239 -1.50954 1.04683 0
M  V30 4151 C 422.301 0.94689 3.46806 0
M  V30 4152 C 421.965 2.37517 3.90429 0
M  V30 4153 C 422.962 3.35539 3.97127 0
M  V30 4154 C 420.647 2.71284 4.22742 0
M  V30 4155 C 422.641 4.65395 4.3553 0
M  V30 4156 C 420.328 4.01356 4.60822 0
M  V30 4157 C 421.326 4.98223 4.67186 0
M  V30 4158 O 421.014 6.25969 5.04399 0
M  V30 4159 H 420.746 0.259216 0.624326 0
M  V30 4160 H 423.3 1.34592 1.55159 0
M  V30 4161 H 421.53 0.249386 3.85895 0
M  V30 4162 H 423.219 0.640804 4.0081 0
M  V30 4163 H 423.985 3.10786 3.7234 0
M  V30 4164 H 419.864 1.96581 4.16985 0
M  V30 4165 H 423.408 5.41002 4.40412 0
M  V30 4166 H 419.305 4.25893 4.85063 0
M  V30 4167 H 420.073 6.30085 5.22431 0
M  V30 4168 N 422.737 -1.36956 0.779787 0
M  V30 4169 C 423.667 -2.32761 0.185651 0
M  V30 4170 C 424.648 -1.56177 -0.673989 0
M  V30 4171 O 425.833 -1.84378 -0.609797 0
M  V30 4172 C 422.963 -3.40418 -0.687964 0
M  V30 4173 C 421.917 -4.27941 0.0710102 0
M  V30 4174 C 421.243 -5.26681 -0.922573 0
M  V30 4175 C 422.543 -5.07006 1.25467 0
M  V30 4176 H 424.237 -2.82698 0.986008 0
M  V30 4177 H 421.783 -1.3592 0.475592 0
M  V30 4178 H 423.736 -4.06423 -1.11348 0
M  V30 4179 H 422.46 -2.89025 -1.52093 0
M  V30 4180 H 421.119 -3.63478 0.47739 0
M  V30 4181 H 420.767 -4.71565 -1.7503 0
M  V30 4182 H 420.467 -5.86103 -0.419237 0
M  V30 4183 H 421.991 -5.9556 -1.34686 0
M  V30 4184 H 423.405 -5.66105 0.905401 0
M  V30 4185 H 421.802 -5.75793 1.69063 0
M  V30 4186 H 422.872 -4.3921 2.05481 0
M  V30 4187 N 424.215 -0.530993 -1.48385 0
M  V30 4188 C 425.631 -0.188919 -1.58478 0
M  V30 4189 C 425.831 1.30786 -1.53288 0
M  V30 4190 O 424.887 2.08619 -1.42248 0
M  V30 4191 C 426.2 -0.792343 -2.90073 0
M  V30 4192 C 427.748 -0.76117 -3.03604 0
M  V30 4193 C 428.223 -1.34319 -4.37861 0
M  V30 4194 N 429.714 -1.3052 -4.44431 0
M  V30 4195 C 430.449 -1.72543 -5.46824 0
M  V30 4196 N 429.945 -2.22299 -6.56167 0
M  V30 4197 N 431.738 -1.63773 -5.37712 0
M  V30 4198 H 423.889 -1.50377 -1.50002 0
M  V30 4199 H 426.152 -0.625559 -0.712306 0
M  V30 4200 H 425.858 -1.84323 -2.99529 0
M  V30 4201 H 425.732 -0.270026 -3.76232 0
M  V30 4202 H 428.119 0.280957 -2.93759 0
M  V30 4203 H 428.2 -1.32097 -2.19053 0
M  V30 4204 H 427.844 -2.38425 -4.4846 0
M  V30 4205 H 427.774 -0.759064 -5.21101 0
M  V30 4206 H 430.265 -0.940973 -3.65997 0
M  V30 4207 H 430.578 -2.52356 -7.30436 0
M  V30 4208 H 428.923 -2.26293 -6.57127 0
M  V30 4209 H 432.114 -1.24698 -4.51185 0
M  V30 4210 H 432.287 -1.96844 -6.17379 0
M  V30 4211 N 425.693 1.55336 -0.266172 0
M  V30 4212 C 426.921 2.03801 0.356756 0
M  V30 4213 C 427.336 1.14485 1.50129 0
M  V30 4214 O 426.693 0.163121 1.8177 0
M  V30 4215 C 426.744 3.51455 0.846281 0
M  V30 4216 O 426.465 4.37371 -0.252663 0
M  V30 4217 C 427.966 4.15767 1.53794 0
M  V30 4218 H 425.186 0.665906 0.0825218 0
M  V30 4219 H 427.73 2.00636 -0.39566 0
M  V30 4220 H 425.885 3.55092 1.54881 0
M  V30 4221 H 426.299 5.24358 0.122173 0
M  V30 4222 H 427.773 5.20714 1.83198 0
M  V30 4223 H 428.25 3.63404 2.46646 0
M  V30 4224 H 428.856 4.16107 0.879488 0
M  V30 4225 N 427.171 -0.0066808 1.57599 0
M  V30 4226 C 428.417 -0.68835 1.91398 0
M  V30 4227 C 428.772 -1.7175 0.86716 0
M  V30 4228 O 428.065 -1.91215 -0.121475 0
M  V30 4229 C 428.259 -1.37939 3.29708 0
M  V30 4230 C 428.088 -0.418689 4.47747 0
M  V30 4231 C 426.858 -0.031526 5.0529 0
M  V30 4232 C 429.056 0.312301 5.13351 0
M  V30 4233 N 427.038 0.928088 6.06844 0
M  V30 4234 C 428.409 1.12682 6.09674 0
M  V30 4235 C 430.464 0.376853 4.96472 0
M  V30 4236 C 429.167 2 6.90936 0
M  V30 4237 C 431.193 1.23723 5.78314 0
M  V30 4238 C 430.555 2.03962 6.74225 0
M  V30 4239 H 426.654 -0.225292 0.748844 0
M  V30 4240 H 429.238 0.0520973 1.9463 0
M  V30 4241 H 427.409 -2.09017 3.27363 0
M  V30 4242 H 429.141 -2.01522 3.50957 0
M  V30 4243 H 425.896 -0.398485 4.71921 0
M  V30 4244 H 426.32 1.40307 6.62301 0
M  V30 4245 H 430.962 -0.22921 4.22178 0
M  V30 4246 H 428.68 2.61676 7.64559 0
M  V30 4247 H 432.266 1.291 5.67296 0
M  V30 4248 H 431.146 2.69461 7.36451 0
M  V30 4249 N 428.649 -1.55105 -0.279332 0
M  V30 4250 C 429.896 -1.75412 -1.01177 0
M  V30 4251 C 430.224 -0.551728 -1.86511 0
M  V30 4252 O 429.479 0.465919 -1.90073 0
M  V30 4253 C 429.778 -3.0086 -1.92919 0
M  V30 4254 C 429.444 -4.33689 -1.23387 0
M  V30 4255 C 428.106 -4.69792 -1.04159 0
M  V30 4256 C 430.458 -5.15941 -0.738562 0
M  V30 4257 C 427.786 -5.85707 -0.341166 0
M  V30 4258 C 430.138 -6.32579 -0.0517636 0
M  V30 4259 C 428.802 -6.67326 0.152292 0
M  V30 4260 H 428.072 -0.641879 -0.370233 0
M  V30 4261 H 430.719 -1.89373 -0.284627 0
M  V30 4262 H 429.024 -2.81773 -2.72234 0
M  V30 4263 H 430.721 -3.13768 -2.49701 0
M  V30 4264 H 427.311 -4.05309 -1.39364 0
M  V30 4265 H 431.495 -4.8853 -0.874764 0
M  V30 4266 H 426.751 -6.11157 -0.172287 0
M  V30 4267 H 430.925 -6.9557 0.339828 0
M  V30 4268 H 428.552 -7.56998 0.697014 0
M  V30 4269 N 430.127 0.543554 -1.4793 0
M  V30 4270 C 431.373 1.30201 -1.55485 0
M  V30 4271 C 431.706 1.92925 -0.222201 0
M  V30 4272 O 430.981 1.78586 0.77053 0
M  V30 4273 C 431.264 2.40174 -2.68307 0
M  V30 4274 C 431.117 1.8223 -4.11233 0
M  V30 4275 C 432.436 3.42024 -2.76961 0
M  V30 4276 H 429.555 0.472036 -0.565996 0
M  V30 4277 H 432.197 0.606914 -1.80046 0
M  V30 4278 H 430.347 2.99463 -2.47495 0
M  V30 4279 H 432.019 1.27096 -4.43446 0
M  V30 4280 H 430.262 1.12832 -4.18869 0
M  V30 4281 H 430.933 2.61793 -4.85972 0
M  V30 4282 H 433.409 2.92672 -2.95774 0
M  V30 4283 H 432.285 4.16383 -3.57654 0
M  V30 4284 H 432.546 4.0173 -1.84568 0
M  V30 4285 N 431.605 1.3629 0.791371 0
M  V30 4286 C 432.851 1.30605 1.55146 0
M  V30 4287 C 433.184 -0.115042 1.93859 0
M  V30 4288 O 432.459 -1.06798 1.62556 0
M  V30 4289 C 432.742 2.22692 2.82985 0
M  V30 4290 C 432.595 3.73489 2.50651 0
M  V30 4291 C 433.914 2.13588 3.84796 0
M  V30 4292 H 431.033 0.475761 0.562868 0
M  V30 4293 H 433.675 1.66825 0.909358 0
M  V30 4294 H 431.825 1.91933 3.37778 0
M  V30 4295 H 433.497 4.14758 2.01924 0
M  V30 4296 H 431.74 3.93021 1.83622 0
M  V30 4297 H 432.411 4.3333 3.41949 0
M  V30 4298 H 434.887 2.40659 3.39445 0
M  V30 4299 H 433.763 2.80195 4.71998 0
M  V30 4300 H 434.024 1.12256 4.27611 0
M  V30 4301 N 433.083 -1.0153 1.20538 0
M  V30 4302 C 434.36 -1.72327 0.925343 0
M  V30 4303 C 434.74 -2.03383 -0.565547 0
M  V30 4304 O 434.088 -1.69934 -1.52757 0
M  V30 4305 C 434.298 -2.9902 1.79967 0
M  V30 4306 C 435.646 -3.72258 2.04228 0
M  V30 4307 O 436.67 -3.08979 1.77231 0
M  V30 4308 O 435.529 -4.86053 2.4983 0
M  V30 4309 H 432.623 -0.751099 0.346092 0
M  V30 4310 H 435.169 -1.07366 1.31417 0
M  V30 4311 H 433.941 -2.72402 2.80915 0
M  V30 4312 H 433.564 -3.71721 1.41099 0
M  V30 4313 N 434.561 -1.01147 -1.20859 0
M  V30 4314 C 435.808 -0.697865 -1.90095 0
M  V30 4315 C 436.136 0.772014 -1.78522 0
M  V30 4316 O 435.391 1.57595 -1.16027 0
M  V30 4317 C 435.69 -1.0727 -3.40922 0
M  V30 4318 C 435.356 -2.53792 -3.72693 0
M  V30 4319 C 434.018 -2.93829 -3.81075 0
M  V30 4320 C 436.37 -3.48674 -3.87397 0
M  V30 4321 C 433.698 -4.27696 -4.01613 0
M  V30 4322 C 436.05 -4.82223 -4.09444 0
M  V30 4323 C 434.714 -5.21973 -4.16054 0
M  V30 4324 H 433.984 -0.255367 -0.695607 0
M  V30 4325 H 436.631 -1.27111 -1.43231 0
M  V30 4326 H 434.936 -0.417799 -3.89566 0
M  V30 4327 H 436.633 -0.807818 -3.92779 0
M  V30 4328 H 433.223 -2.21768 -3.66765 0
M  V30 4329 H 437.407 -3.18904 -3.80281 0
M  V30 4330 H 432.663 -4.58055 -4.04964 0
M  V30 4331 H 436.837 -5.55672 -4.19763 0
M  V30 4332 H 434.464 -6.25717 -4.31721 0
M  V30 4333 N 436.039 1.36541 -0.78704 0
M  V30 4334 C 437.285 1.99599 -0.358872 0
M  V30 4335 C 437.618 1.62323 1.06606 0
M  V30 4336 O 436.893 0.876858 1.73613 0
M  V30 4337 C 437.176 3.56327 -0.519944 0
M  V30 4338 C 437.029 4.03464 -1.98839 0
M  V30 4339 C 438.348 4.4005 0.0664737 0
M  V30 4340 H 435.467 0.725107 -0.131869 0
M  V30 4341 H 438.109 1.6199 -0.992936 0
M  V30 4342 H 436.259 3.88495 0.0198321 0
M  V30 4343 H 437.931 3.81793 -2.58905 0
M  V30 4344 H 436.174 3.55092 -2.49183 0
M  V30 4345 H 436.845 5.12439 -2.05207 0
M  V30 4346 H 439.321 4.14228 -0.394267 0
M  V30 4347 H 438.197 5.48847 -0.0762682 0
M  V30 4348 H 438.458 4.26655 1.15835 0
M  V30 4349 N 437.518 0.538854 1.48102 0
M  V30 4350 C 438.743 0.0102694 2.07397 0
M  V30 4351 C 439.168 -1.26562 1.39153 0
M  V30 4352 O 438.526 -1.75357 0.460387 0
M  V30 4353 C 438.574 -0.187602 3.60112 0
M  V30 4354 O 437.678 -1.25432 3.92862 0
M  V30 4355 H 437.019 0.0430975 0.6626 0
M  V30 4356 H 439.549 0.749301 1.90385 0
M  V30 4357 H 439.559 -0.407517 4.0596 0
M  V30 4358 H 438.234 0.744386 4.09184 0
M  V30 4359 H 436.811 -1.01636 3.58782 0
M  V30 4360 N 438.996 -1.55193 0.274407 0
M  V30 4361 C 440.221 -2.04446 -0.348824 0
M  V30 4362 C 440.646 -1.15149 -1.48735 0
M  V30 4363 O 440.004 -0.149952 -1.80679 0
M  V30 4364 C 440.052 -3.51431 -0.808009 0
M  V30 4365 O 439.156 -3.65225 -1.91531 0
M  V30 4366 H 438.497 -0.66006 -0.0722276 0
M  V30 4367 H 441.027 -2.00481 0.408498 0
M  V30 4368 H 441.037 -3.92781 -1.10395 0
M  V30 4369 H 439.712 -4.15892 0.0249865 0
M  V30 4370 H 438.289 -3.35778 -1.62196 0
M  V30 4371 N 440.474 -0.00167713 -1.576 0
M  V30 4372 C 441.723 0.682021 -1.89819 0
M  V30 4373 C 442.036 1.74844 -0.876871 0
M  V30 4374 O 443.242 2.48688 -1.08934 0
M  V30 4375 C 441.698 1.26425 -3.36964 0
M  V30 4376 C 441.306 0.232568 -4.47396 0
M  V30 4377 C 443.05 1.92604 -3.78291 0
M  V30 4378 C 440.957 0.824882 -5.85619 0
M  V30 4379 H 439.887 0.258499 -0.708304 0
M  V30 4380 H 442.538 -0.0624957 -1.83394 0
M  V30 4381 H 440.92 2.05949 -3.38232 0
M  V30 4382 H 442.094 -0.5382 -4.57646 0
M  V30 4383 H 440.409 -0.32888 -4.15099 0
M  V30 4384 H 443.006 2.37827 -4.78897 0
M  V30 4385 H 443.349 2.75732 -3.11894 0
M  V30 4386 H 443.882 1.19812 -3.79328 0
M  V30 4387 H 440.621 0.0323542 -6.55492 0
M  V30 4388 H 440.141 1.56477 -5.79029 0
M  V30 4389 H 441.82 1.32301 -6.33329 0
M  V30 4390 N 441.952 1.55251 0.271103 0
M  V30 4391 C 443.363 1.66635 0.842007 0
M  V30 4392 C 443.714 0.594631 1.86972 0
M  V30 4393 O 442.839 -0.263532 2.14789 0
M  V30 4394 C 443.434 3.02082 1.53401 0
M  V30 4395 C 441.993 3.15487 2.05293 0
M  V30 4396 C 441.14 2.62438 0.895631 0
M  V30 4397 H 444.091 1.58629 0.0474117 0
M  V30 4398 H 444.112 2.95176 2.40107 0
M  V30 4399 H 443.624 3.80062 0.785786 0
M  V30 4400 H 441.725 2.42284 2.83071 0
M  V30 4401 H 441.838 4.22075 2.26693 0
M  V30 4402 H 440.202 2.19644 1.28953 0
M  V30 4403 H 440.985 3.42923 0.160878 0
M  V30 4404 N 443.43 -0.535701 1.48216 0
M  V30 4405 C 444.676 -1.29375 1.56173 0
M  V30 4406 C 445.009 -1.92804 0.232429 0
M  V30 4407 O 444.284 -1.78992 -0.761048 0
M  V30 4408 C 444.567 -2.38747 2.69577 0
M  V30 4409 C 444.42 -1.80046 4.12193 0
M  V30 4410 C 445.739 -3.40551 2.78771 0
M  V30 4411 H 442.858 -0.469027 0.568491 0
M  V30 4412 H 445.5 -0.597358 1.80365 0
M  V30 4413 H 443.65 -2.98147 2.4908 0
M  V30 4414 H 445.322 -1.24742 4.44114 0
M  V30 4415 H 443.565 -1.10609 4.19462 0
M  V30 4416 H 444.236 -2.59212 4.87353 0
M  V30 4417 H 446.712 -2.91099 2.97322 0
M  V30 4418 H 445.588 -4.1448 3.59857 0
M  V30 4419 H 445.849 -4.00746 1.86696 0
M  V30 4420 N 444.908 -1.36708 -0.784132 0
M  V30 4421 C 446.185 -1.21776 -1.53069 0
M  V30 4422 C 446.565 0.193876 -2.10208 0
M  V30 4423 O 445.913 1.20012 -1.94446 0
M  V30 4424 C 446.123 -2.30395 -2.62143 0
M  V30 4425 C 447.471 -2.67325 -3.29882 0
M  V30 4426 O 448.495 -2.29478 -2.7243 0
M  V30 4427 O 447.354 -3.32485 -4.33724 0
M  V30 4428 H 444.448 -0.474459 -0.677361 0
M  V30 4429 H 446.994 -1.48454 -0.82216 0
M  V30 4430 H 445.766 -3.2498 -2.17953 0
M  V30 4431 H 445.389 -2.05112 -3.40609 0
M  V30 4432 N 446.386 1.0089 -1.21074 0
M  V30 4433 C 447.616 1.77933 -1.04993 0
M  V30 4434 C 448.024 1.84847 0.403495 0
M  V30 4435 O 447.367 1.30606 1.29181 0
M  V30 4436 C 447.429 3.23541 -1.56722 0
M  V30 4437 C 447.093 3.40214 -3.05129 0
M  V30 4438 C 448.09 3.2881 -4.02716 0
M  V30 4439 C 445.775 3.65781 -3.44252 0
M  V30 4440 C 447.769 3.42732 -5.37414 0
M  V30 4441 C 445.456 3.79346 -4.79103 0
M  V30 4442 C 446.454 3.67827 -5.75493 0
M  V30 4443 O 446.142 3.80965 -7.07899 0
M  V30 4444 H 445.874 0.566157 -0.369381 0
M  V30 4445 H 448.428 1.27826 -1.60779 0
M  V30 4446 H 446.658 3.74766 -0.953285 0
M  V30 4447 H 448.347 3.82245 -1.36543 0
M  V30 4448 H 449.113 3.08986 -3.73835 0
M  V30 4449 H 444.992 3.73831 -2.69762 0
M  V30 4450 H 448.536 3.33658 -6.12632 0
M  V30 4451 H 444.433 3.98672 -5.07672 0
M  V30 4452 H 445.201 3.97937 -7.15254 0
M  V30 4453 N 447.864 1.01787 1.20321 0
M  V30 4454 C 449.113 0.703249 1.89043 0
M  V30 4455 C 449.426 -0.770445 1.79787 0
M  V30 4456 O 450.632 -1.19767 2.43656 0
M  V30 4457 C 449.088 1.20749 3.3904 0
M  V30 4458 C 448.696 2.70817 3.56878 0
M  V30 4459 C 450.44 0.968352 4.13308 0
M  V30 4460 C 448.347 3.14716 5.00708 0
M  V30 4461 H 447.277 0.259354 0.707991 0
M  V30 4462 H 449.928 1.23072 1.36108 0
M  V30 4463 H 448.31 0.607989 3.91305 0
M  V30 4464 H 449.484 3.36327 3.14993 0
M  V30 4465 H 447.799 2.92888 2.95983 0
M  V30 4466 H 450.396 1.27173 5.19356 0
M  V30 4467 H 450.739 -0.095149 4.16191 0
M  V30 4468 H 451.272 1.53129 3.67146 0
M  V30 4469 H 448.011 4.20347 5.02979 0
M  V30 4470 H 447.531 2.53927 5.43398 0
M  V30 4471 H 449.21 3.07426 5.69296 0
M  V30 4472 N 449.342 -1.36122 0.79427 0
M  V30 4473 C 450.589 -1.99111 0.368905 0
M  V30 4474 C 450.917 -1.63032 -1.0607 0
M  V30 4475 O 450.172 -0.879303 -1.74833 0
M  V30 4476 C 450.471 -3.5409 0.48527 0
M  V30 4477 C 450.137 -4.10003 1.87638 0
M  V30 4478 C 448.799 -4.24986 2.257 0
M  V30 4479 C 451.151 -4.40423 2.78706 0
M  V30 4480 C 448.479 -4.67701 3.54221 0
M  V30 4481 C 450.831 -4.84573 4.0666 0
M  V30 4482 C 449.495 -4.97761 4.44737 0
M  V30 4483 H 448.765 -0.7286 0.134992 0
M  V30 4484 H 451.412 -1.62534 1.01267 0
M  V30 4485 H 449.717 -3.91052 -0.241984 0
M  V30 4486 H 451.414 -4.00766 0.137109 0
M  V30 4487 H 448.004 -3.98784 1.57064 0
M  V30 4488 H 452.188 -4.28412 2.50553 0
M  V30 4489 H 447.444 -4.761 3.83587 0
M  V30 4490 H 451.618 -5.07074 4.77336 0
M  V30 4491 H 449.245 -5.30618 5.44379 0
M  V30 4492 N 450.82 -0.546701 -1.47814 0
M  V30 4493 C 451.75 0.195317 -2.32682 0
M  V30 4494 C 452.731 0.918981 -1.43139 0
M  V30 4495 O 453.916 0.901501 -1.72008 0
M  V30 4496 C 451.046 1.23237 -3.247 0
M  V30 4497 C 450 0.625818 -4.234 0
M  V30 4498 C 449.326 1.76674 -5.04669 0
M  V30 4499 C 450.626 -0.413515 -5.2066 0
M  V30 4500 H 452.32 -0.513184 -2.94969 0
M  V30 4501 H 449.866 -0.248241 -1.41844 0
M  V30 4502 H 451.819 1.75955 -3.82907 0
M  V30 4503 H 450.543 1.97067 -2.60446 0
M  V30 4504 H 449.202 0.120023 -3.66403 0
M  V30 4505 H 448.85 2.49383 -4.36826 0
M  V30 4506 H 448.55 1.36673 -5.71484 0
M  V30 4507 H 450.074 2.29738 -5.65732 0
M  V30 4508 H 451.488 0.0272042 -5.73294 0
M  V30 4509 H 449.885 -0.731825 -5.95621 0
M  V30 4510 H 450.955 -1.31325 -4.66778 0
M  V30 4511 N 452.299 1.55045 -0.282633 0
M  V30 4512 C 453.548 1.98938 0.332667 0
M  V30 4513 C 453.861 1.17455 1.56409 0
M  V30 4514 O 455.067 1.51527 2.25282 0
M  V30 4515 C 453.523 3.54105 0.643226 0
M  V30 4516 C 453.131 4.44374 -0.568814 0
M  V30 4517 C 454.875 4.06569 1.22074 0
M  V30 4518 C 452.782 5.90943 -0.232426 0
M  V30 4519 H 451.712 0.743043 0.128075 0
M  V30 4520 H 454.363 1.79341 -0.388464 0
M  V30 4521 H 452.745 3.69532 1.42346 0
M  V30 4522 H 453.919 4.40718 -1.34551 0
M  V30 4523 H 452.234 4.02585 -1.06369 0
M  V30 4524 H 454.831 5.13626 1.48635 0
M  V30 4525 H 455.174 3.56057 2.15707 0
M  V30 4526 H 455.707 3.94612 0.502621 0
M  V30 4527 H 452.446 6.45567 -1.13683 0
M  V30 4528 H 451.966 5.9765 0.507357 0
M  V30 4529 H 453.645 6.4677 0.172657 0
M  V30 4530 N 453.777 0.010035 1.57597 0
M  V30 4531 C 455.023 -0.673697 1.91283 0
M  V30 4532 C 455.356 -1.72863 0.884979 0
M  V30 4533 O 454.631 -1.94268 -0.0949487 0
M  V30 4534 C 454.914 -1.30766 3.35518 0
M  V30 4535 C 454.767 -0.263578 4.49027 0
M  V30 4536 C 456.086 -2.23105 3.79358 0
M  V30 4537 H 453.205 -0.243439 0.695634 0
M  V30 4538 H 455.847 0.0633864 1.89894 0
M  V30 4539 H 453.997 -1.93588 3.36832 0
M  V30 4540 H 455.669 0.365738 4.59848 0
M  V30 4541 H 453.912 0.413077 4.31829 0
M  V30 4542 H 454.583 -0.746398 5.4693 0
M  V30 4543 H 457.059 -1.70289 3.79659 0
M  V30 4544 H 455.935 -2.64424 4.81011 0
M  V30 4545 H 456.196 -3.11433 3.13787 0
M  V30 4546 N 455.255 -1.55392 -0.262866 0
M  V30 4547 C 456.165 -1.92077 -1.34698 0
M  V30 4548 C 457.181 -0.819227 -1.53508 0
M  V30 4549 O 458.357 -1.11921 -1.67439 0
M  V30 4550 C 455.422 -2.19407 -2.68443 0
M  V30 4551 C 454.483 -3.42905 -2.58292 0
M  V30 4552 C 453.716 -3.68921 -3.85659 0
M  V30 4553 O 453.939 -2.97275 -4.8681 0
M  V30 4554 O 452.873 -4.62455 -3.85252 0
M  V30 4555 H 456.699 -2.84384 -1.06581 0
M  V30 4556 H 454.284 -1.42069 -0.462264 0
M  V30 4557 H 456.166 -2.38365 -3.47506 0
M  V30 4558 H 454.841 -1.30282 -2.96325 0
M  V30 4559 H 453.748 -3.29272 -1.7757 0
M  V30 4560 H 455.081 -4.32282 -2.35358 0
M  V30 4561 N 456.733 0.527833 -1.48498 0
M  V30 4562 C 457.68 1.6322 -1.6318 0
M  V30 4563 C 458.65 1.59199 -0.473815 0
M  V30 4564 O 459.835 1.77591 -0.697563 0
M  V30 4565 C 456.975 3.01474 -1.67951 0
M  V30 4566 C 456.088 3.15713 -2.94871 0
M  V30 4567 C 455.223 4.44539 -2.90789 0
M  V30 4568 C 454.262 4.52315 -4.12404 0
M  V30 4569 N 453.399 5.72533 -4.06387 0
M  V30 4570 H 458.239 1.50011 -2.57489 0
M  V30 4571 H 455.776 0.730298 -1.27691 0
M  V30 4572 H 457.734 3.81572 -1.68698 0
M  V30 4573 H 456.364 3.1345 -0.771306 0
M  V30 4574 H 455.416 2.28854 -3.03859 0
M  V30 4575 H 456.728 3.1732 -3.8485 0
M  V30 4576 H 455.882 5.3293 -2.89949 0
M  V30 4577 H 454.621 4.45457 -1.98542 0
M  V30 4578 H 453.626 3.62331 -4.13517 0
M  V30 4579 H 454.851 4.53134 -5.05812 0
M  V30 4580 H 452.797 5.74344 -3.16962 0
M  V30 4581 H 452.714 5.75643 -4.90073 0
M  V30 4582 H 453.982 6.63204 -4.0961 0
M  V30 4583 N 458.211 1.37122 0.776871 0
M  V30 4584 C 459.459 1.31787 1.53221 0
M  V30 4585 C 459.78 -0.0987589 1.9475 0
M  V30 4586 O 459.05 -1.0417 1.65908 0
M  V30 4587 H 457.63 0.484839 0.568278 0
M  V30 4588 H 460.292 1.71556 0.924917 0
M  V30 4589 H 459.388 1.95355 2.43398 0
M  V30 4590 N 459.689 -1.00246 1.21608 0
M  V30 4591 C 460.938 -1.73476 1.02902 0
M  V30 4592 C 461.251 -1.90643 -0.437561 0
M  V30 4593 O 462.457 -2.61105 -0.74407 0
M  V30 4594 C 460.913 -3.12079 1.79261 0
M  V30 4595 C 460.521 -3.02877 3.30106 0
M  V30 4596 C 462.265 -3.89421 1.68972 0
M  V30 4597 C 460.172 -4.36575 3.98944 0
M  V30 4598 H 459.102 -0.650408 0.381425 0
M  V30 4599 H 461.753 -1.11985 1.45367 0
M  V30 4600 H 460.135 -3.74196 1.2959 0
M  V30 4601 H 461.309 -2.49983 3.87098 0
M  V30 4602 H 459.624 -2.39022 3.40965 0
M  V30 4603 H 462.221 -4.88362 2.17731 0
M  V30 4604 H 462.564 -4.1122 0.648397 0
M  V30 4605 H 463.097 -3.33963 2.16133 0
M  V30 4606 H 459.836 -4.19978 5.03288 0
M  V30 4607 H 459.356 -4.8942 3.4674 0
M  V30 4608 H 461.035 -5.05364 4.04 0
M  V30 4609 N 461.167 -1.02423 -1.1978 0
M  V30 4610 C 462.444 -0.632802 -1.85081 0
M  V30 4611 C 462.824 0.888745 -1.9148 0
M  V30 4612 O 462.172 1.78357 -1.42832 0
M  V30 4613 C 462.382 -1.28947 -3.24305 0
M  V30 4614 C 463.73 -1.40976 -4.00513 0
M  V30 4615 O 464.754 -1.24628 -3.33686 0
M  V30 4616 O 463.613 -1.67467 -5.20209 0
M  V30 4617 H 460.707 -0.219348 -0.79738 0
M  V30 4618 H 463.253 -1.12209 -1.27307 0
M  V30 4619 H 462.025 -2.3288 -3.14456 0
M  V30 4620 H 461.648 -0.787748 -3.89718 0
M  V30 4621 N 462.645 1.35699 -0.801477 0
M  V30 4622 C 463.87 2.03687 -0.390678 0
M  V30 4623 C 464.295 1.60015 0.988778 0
M  V30 4624 O 463.653 0.774357 1.63931 0
M  V30 4625 C 463.701 3.57439 -0.476404 0
M  V30 4626 O 462.805 4.09208 0.512106 0
M  V30 4627 H 462.146 0.64344 -0.163956 0
M  V30 4628 H 464.676 1.73403 -1.08594 0
M  V30 4629 H 464.686 4.06544 -0.344357 0
M  V30 4630 H 463.361 3.88576 -1.48262 0
M  V30 4631 H 461.938 3.7134 0.340721 0
M  V30 4632 N 464.123 0.554532 1.47522 0
M  V30 4633 C 465.033 -0.197865 2.33764 0
M  V30 4634 C 466.049 -0.914576 1.48025 0
M  V30 4635 O 467.225 -0.884067 1.80959 0
M  V30 4636 C 464.29 -1.21628 3.24665 0
M  V30 4637 C 463.351 -0.507283 4.26292 0
M  V30 4638 C 462.584 -1.47718 5.1285 0
M  V30 4639 O 462.807 -2.7118 5.01814 0
M  V30 4640 O 461.741 -1.00313 5.93482 0
M  V30 4641 H 465.567 0.50949 2.99396 0
M  V30 4642 H 463.152 0.315176 1.46038 0
M  V30 4643 H 465.034 -1.80421 3.80823 0
M  V30 4644 H 463.709 -1.9056 2.61665 0
M  V30 4645 H 462.616 0.121778 3.73902 0
M  V30 4646 H 463.949 0.140544 4.91999 0
M  V30 4647 N 465.601 -1.54893 0.290851 0
M  V30 4648 C 466.847 -2.0023 -0.321867 0
M  V30 4649 C 467.18 -1.179 -1.54316 0
M  V30 4650 O 466.455 -0.25293 -1.92848 0
M  V30 4651 C 466.738 -3.53456 -0.688515 0
M  V30 4652 C 466.591 -4.46532 0.541209 0
M  V30 4653 C 467.91 -4.13057 -1.51895 0
M  V30 4654 H 465.029 -0.727891 -0.115515 0
M  V30 4655 H 467.671 -1.85722 0.400931 0
M  V30 4656 H 465.821 -3.6595 -1.30433 0
M  V30 4657 H 467.493 -4.4596 1.17973 0
M  V30 4658 H 465.736 -4.17545 1.17636 0
M  V30 4659 H 466.407 -5.51475 0.240675 0
M  V30 4660 H 468.883 -4.03937 -0.99872 0
M  V30 4661 H 467.759 -5.20448 -1.74429 0
M  V30 4662 H 468.02 -3.64284 -2.50498 0
M  V30 4663 N 467.08 -0.0183926 -1.57589 0
M  V30 4664 C 468.31 0.67207 -1.95363 0
M  V30 4665 C 468.718 1.66807 -0.892872 0
M  V30 4666 O 468.061 1.83204 0.134958 0
M  V30 4667 C 468.123 1.44397 -3.29226 0
M  V30 4668 C 467.787 0.607511 -4.52944 0
M  V30 4669 C 468.784 -0.112657 -5.19778 0
M  V30 4670 C 466.469 0.548068 -4.99301 0
M  V30 4671 C 468.463 -0.881057 -6.31281 0
M  V30 4672 C 466.15 -0.224044 -6.10689 0
M  V30 4673 C 467.148 -0.937323 -6.76538 0
M  V30 4674 O 466.836 -1.6968 -7.85789 0
M  V30 4675 H 466.568 0.190925 -0.648478 0
M  V30 4676 H 469.122 -0.0711994 -2.05277 0
M  V30 4677 H 467.352 2.23214 -3.15773 0
M  V30 4678 H 469.041 2.02152 -3.51979 0
M  V30 4679 H 469.807 -0.0759998 -4.8494 0
M  V30 4680 H 465.686 1.09281 -4.4786 0
M  V30 4681 H 469.23 -1.43832 -6.82611 0
M  V30 4682 H 465.127 -0.262457 -6.44966 0
M  V30 4683 H 465.895 -1.61544 -8.024 0
M  V30 4684 N 468.558 1.5553 0.254621 0
M  V30 4685 C 469.505 1.89666 1.31512 0
M  V30 4686 C 470.475 0.750057 1.482 0
M  V30 4687 O 471.66 1.00301 1.62309 0
M  V30 4688 C 468.8 2.19009 2.667 0
M  V30 4689 C 467.913 3.46435 2.58083 0
M  V30 4690 C 467.048 3.65386 3.85573 0
M  V30 4691 C 466.087 4.8644 3.71541 0
M  V30 4692 N 465.224 5.01952 4.90906 0
M  V30 4693 H 470.064 2.80109 1.017 0
M  V30 4694 H 467.601 1.38666 0.490938 0
M  V30 4695 H 469.559 2.34025 3.45381 0
M  V30 4696 H 468.189 1.31779 2.94676 0
M  V30 4697 H 467.241 3.39792 1.71013 0
M  V30 4698 H 468.553 4.35258 2.43622 0
M  V30 4699 H 467.707 3.80319 4.72697 0
M  V30 4700 H 466.446 2.74781 4.02922 0
M  V30 4701 H 465.451 4.71491 2.82801 0
M  V30 4702 H 466.676 5.78497 3.55694 0
M  V30 4703 H 464.622 4.14283 5.08631 0
M  V30 4704 H 464.539 5.84851 4.79046 0
M  V30 4705 H 465.807 5.21289 5.7955 0
M  V30 4706 N 470.036 -0.519951 1.48776 0
M  V30 4707 C 471.264 -1.29971 1.60982 0
M  V30 4708 C 471.679 -1.86803 0.273885 0
M  V30 4709 O 471.036 -1.66904 -0.738193 0
M  V30 4710 C 471.087 -2.44346 2.66415 0
M  V30 4711 O 470.808 -1.89855 3.94825 0
M  V30 4712 C 472.309 -3.36014 2.89153 0
M  V30 4713 H 469.529 -0.394891 0.542496 0
M  V30 4714 H 472.073 -0.626214 1.94676 0
M  V30 4715 H 470.228 -3.07562 2.35552 0
M  V30 4716 H 470.642 -2.64798 4.5275 0
M  V30 4717 H 472.116 -4.12593 3.66703 0
M  V30 4718 H 472.593 -3.91859 1.98351 0
M  V30 4719 H 473.199 -2.78582 3.21359 0
M  V30 4720 N 471.514 -1.37532 -0.769588 0
M  V30 4721 C 472.477 -1.33292 -1.86456 0
M  V30 4722 C 473.477 -0.236537 -1.59051 0
M  V30 4723 O 474.667 -0.492511 -1.67093 0
M  V30 4724 C 471.799 -1.07118 -3.23633 0
M  V30 4725 H 472.992 -2.30692 -1.91628 0
M  V30 4726 H 470.545 -1.22593 -0.969572 0
M  V30 4727 H 471.28 -0.102578 -3.24138 0
M  V30 4728 H 471.065 -1.86479 -3.44917 0
M  V30 4729 H 472.555 -1.06806 -4.03711 0
M  V30 4730 N 472.992 0.995999 -1.22138 0
M  V30 4731 C 474.408 1.25917 -0.980667 0
M  V30 4732 C 474.608 1.98819 0.327604 0
M  V30 4733 O 473.664 2.29587 1.05101 0
M  V30 4734 C 474.977 2.07399 -2.17729 0
M  V30 4735 C 476.525 2.20594 -2.22052 0
M  V30 4736 C 477 3.05462 -3.41258 0
M  V30 4737 N 478.491 3.13049 -3.41401 0
M  V30 4738 C 479.226 3.78997 -4.30289 0
M  V30 4739 N 478.722 4.46899 -5.2939 0
M  V30 4740 N 480.515 3.75728 -4.18073 0
M  V30 4741 H 472.666 0.507158 -2.06256 0
M  V30 4742 H 474.929 0.28658 -0.903646 0
M  V30 4743 H 474.635 1.61191 -3.12586 0
M  V30 4744 H 474.509 3.08154 -2.17534 0
M  V30 4745 H 476.896 2.66017 -1.27745 0
M  V30 4746 H 476.977 1.1928 -2.26287 0
M  V30 4747 H 476.621 2.60739 -4.35864 0
M  V30 4748 H 476.551 4.06911 -3.34262 0
M  V30 4749 H 479.042 2.64721 -2.69688 0
M  V30 4750 H 479.355 4.94952 -5.935 0
M  V30 4751 H 477.7 4.45657 -5.33306 0
M  V30 4752 H 480.891 3.2184 -3.39907 0
M  V30 4753 H 481.064 4.26845 -4.87553 0
M  V30 4754 N 474.47 1.03057 1.19235 0
M  V30 4755 C 475.433 0.617418 2.20727 0
M  V30 4756 C 476.433 -0.319856 1.57587 0
M  V30 4757 O 477.623 -0.106633 1.73873 0
M  V30 4758 C 474.755 -0.096296 3.40764 0
M  V30 4759 H 475.948 1.51544 2.58794 0
M  V30 4760 H 473.501 0.821949 1.32942 0
M  V30 4761 H 474.236 -1.00859 3.08217 0
M  V30 4762 H 474.021 0.577217 3.87828 0
M  V30 4763 H 475.511 -0.372219 4.15938 0
M  V30 4764 N 475.948 -1.35272 0.808662 0
M  V30 4765 C 476.878 -2.32315 0.234981 0
M  V30 4766 C 477.859 -1.57572 -0.64071 0
M  V30 4767 O 479.044 -1.8563 -0.570551 0
M  V30 4768 C 476.174 -3.41801 -0.615601 0
M  V30 4769 C 475.128 -4.27694 0.161767 0
M  V30 4770 C 474.454 -5.28519 -0.810649 0
M  V30 4771 C 475.754 -5.04231 1.36193 0
M  V30 4772 H 477.448 -2.80543 1.04575 0
M  V30 4773 H 474.994 -1.3488 0.504315 0
M  V30 4774 H 476.947 -4.08693 -1.02702 0
M  V30 4775 H 475.671 -2.92186 -1.45928 0
M  V30 4776 H 474.33 -3.62384 0.554382 0
M  V30 4777 H 473.978 -4.75171 -1.64988 0
M  V30 4778 H 473.678 -5.8686 -0.294822 0
M  V30 4779 H 475.202 -5.98283 -1.22023 0
M  V30 4780 H 476.616 -5.64058 1.02528 0
M  V30 4781 H 475.013 -5.72077 1.81239 0
M  V30 4782 H 476.083 -4.34753 2.14751 0
M  V30 4783 N 477.426 -0.562348 -1.47226 0
M  V30 4784 C 478.842 -0.222492 -1.58042 0
M  V30 4785 C 479.042 1.27505 -1.56028 0
M  V30 4786 O 478.098 2.05555 -1.46641 0
M  V30 4787 C 479.411 -0.853694 -2.88327 0
M  V30 4788 C 480.959 -0.825397 -3.01921 0
M  V30 4789 C 481.434 -1.43576 -4.34914 0
M  V30 4790 N 482.925 -1.39918 -4.41562 0
M  V30 4791 C 483.66 -1.84103 -5.43041 0
M  V30 4792 N 483.156 -2.36167 -6.51304 0
M  V30 4793 N 484.949 -1.75142 -5.34118 0
M  V30 4794 H 477.1 -1.53525 -1.46778 0
M  V30 4795 H 479.363 -0.640527 -0.698877 0
M  V30 4796 H 479.069 -1.90635 -2.95552 0
M  V30 4797 H 478.943 -0.34977 -3.75575 0
M  V30 4798 H 481.33 0.218583 -2.94289 0
M  V30 4799 H 481.411 -1.36713 -2.16202 0
M  V30 4800 H 481.055 -2.47884 -4.43301 0
M  V30 4801 H 480.985 -0.869427 -5.19373 0
M  V30 4802 H 483.476 -1.0184 -3.63919 0
M  V30 4803 H 483.789 -2.67793 -7.24919 0
M  V30 4804 H 482.134 -2.40181 -6.52179 0
M  V30 4805 H 485.325 -1.34241 -4.48439 0
M  V30 4806 H 485.498 -2.09895 -6.13065 0
M  V30 4807 N 478.904 1.54736 -0.299062 0
M  V30 4808 C 480.153 1.99279 0.311549 0
M  V30 4809 C 480.466 1.19107 1.55154 0
M  V30 4810 O 481.672 1.53908 2.23662 0
M  V30 4811 C 480.128 3.54768 0.605632 0
M  V30 4812 C 479.736 4.43746 -0.615914 0
M  V30 4813 C 481.48 4.07841 1.17754 0
M  V30 4814 C 479.387 5.90663 -0.29509 0
M  V30 4815 H 478.317 0.744359 0.120187 0
M  V30 4816 H 480.968 1.78919 -0.407464 0
M  V30 4817 H 479.35 3.71021 1.38419 0
M  V30 4818 H 480.524 4.39267 -1.39218 0
M  V30 4819 H 478.839 4.01434 -1.10633 0
M  V30 4820 H 481.436 5.15174 1.43179 0
M  V30 4821 H 481.779 3.58324 2.11918 0
M  V30 4822 H 482.312 3.95123 0.460739 0
M  V30 4823 H 479.051 6.44325 -1.20524 0
M  V30 4824 H 478.571 5.98155 0.44394 0
M  V30 4825 H 480.25 6.46916 0.104048 0
M  V30 4826 N 480.382 0.0267497 1.57577 0
M  V30 4827 C 481.628 -0.653371 1.91987 0
M  V30 4828 C 481.961 -1.71915 0.903263 0
M  V30 4829 O 481.236 -1.94358 -0.0743387 0
M  V30 4830 C 481.519 -1.272 3.36886 0
M  V30 4831 C 481.372 -0.215938 4.49281 0
M  V30 4832 C 482.691 -2.19069 3.81703 0
M  V30 4833 H 479.81 -0.236047 0.698177 0
M  V30 4834 H 482.452 0.0835236 1.89816 0
M  V30 4835 H 480.602 -1.90005 3.38866 0
M  V30 4836 H 482.274 0.41449 4.59434 0
M  V30 4837 H 480.517 0.458855 4.31366 0
M  V30 4838 H 481.188 -0.688347 5.47691 0
M  V30 4839 H 483.664 -1.66253 3.81444 0
M  V30 4840 H 482.54 -2.59307 4.83788 0
M  V30 4841 H 482.801 -3.08087 3.17072 0
M  V30 4842 N 481.861 -1.55662 -0.24637 0
M  V30 4843 C 483.277 -1.48098 -0.594907 0
M  V30 4844 C 483.477 -0.717044 -1.8831 0
M  V30 4845 O 482.533 -0.246618 -2.51293 0
M  V30 4846 C 483.846 -2.92507 -0.697146 0
M  V30 4847 C 485.394 -3.02881 -0.789436 0
M  V30 4848 C 485.869 -4.48598 -0.923232 0
M  V30 4849 N 487.36 -4.52538 -0.988088 0
M  V30 4850 C 488.095 -5.62536 -1.11089 0
M  V30 4851 N 487.591 -6.82342 -1.19919 0
M  V30 4852 N 489.384 -5.50334 -1.14408 0
M  V30 4853 H 481.535 -2.0377 0.599278 0
M  V30 4854 H 483.798 -0.925145 0.20691 0
M  V30 4855 H 483.504 -3.51242 0.179396 0
M  V30 4856 H 483.378 -3.43024 -1.5689 0
M  V30 4857 H 485.765 -2.44226 -1.65643 0
M  V30 4858 H 485.846 -2.55574 0.107482 0
M  V30 4859 H 485.49 -5.07864 -0.0607927 0
M  V30 4860 H 485.42 -4.93587 -1.8352 0
M  V30 4861 H 487.911 -3.66248 -0.931167 0
M  V30 4862 H 488.224 -7.61924 -1.29197 0
M  V30 4863 H 486.569 -6.85102 -1.16876 0
M  V30 4864 H 489.76 -4.5567 -1.07158 0
M  V30 4865 H 489.933 -6.36096 -1.23634 0
M  V30 4866 N 483.339 0.512053 -1.4905 0
M  V30 4867 C 484.586 1.26686 -1.57978 0
M  V30 4868 C 484.914 1.92733 -0.261553 0
M  V30 4869 O 484.169 1.80772 0.749667 0
M  V30 4870 C 484.468 2.36446 -2.68008 0
M  V30 4871 C 484.134 1.87932 -4.09869 0
M  V30 4872 C 482.796 1.74419 -4.48477 0
M  V30 4873 C 485.148 1.5149 -4.98698 0
M  V30 4874 C 482.476 1.22827 -5.73699 0
M  V30 4875 C 484.828 1.01355 -6.24428 0
M  V30 4876 C 483.492 0.864735 -6.61875 0
M  V30 4877 H 482.762 0.463577 -0.578081 0
M  V30 4878 H 485.409 0.569421 -1.82838 0
M  V30 4879 H 483.714 3.11933 -2.37076 0
M  V30 4880 H 485.411 2.9453 -2.72127 0
M  V30 4881 H 482.001 1.99405 -3.79389 0
M  V30 4882 H 486.185 1.60782 -4.69535 0
M  V30 4883 H 481.441 1.10008 -6.01422 0
M  V30 4884 H 485.615 0.722351 -6.92644 0
M  V30 4885 H 483.242 0.462777 -7.5879 0
M  V30 4886 N 484.817 1.37938 0.762283 0
M  V30 4887 C 486.045 1.36883 1.55147 0
M  V30 4888 C 486.46 -0.0435348 1.8875 0
M  V30 4889 O 485.817 -1.00786 1.52146 0
M  V30 4890 C 485.868 2.21624 2.85596 0
M  V30 4891 O 485.589 3.57358 2.5343 0
M  V30 4892 C 487.09 2.28653 3.7978 0
M  V30 4893 H 484.31 0.468521 0.480343 0
M  V30 4894 H 486.854 1.81404 0.944079 0
M  V30 4895 H 485.009 1.80588 3.42734 0
M  V30 4896 H 485.423 4.01883 3.37032 0
M  V30 4897 H 486.897 2.9225 4.68288 0
M  V30 4898 H 487.374 1.29767 4.19592 0
M  V30 4899 H 487.98 2.70043 3.28568 0
M  V30 4900 N 486.295 -0.989507 1.22664 0
M  V30 4901 C 487.242 -2.08024 0.999733 0
M  V30 4902 C 488.212 -1.65909 -0.0797047 0
M  V30 4903 O 489.397 -1.90669 0.0705715 0
M  V30 4904 C 486.537 -3.40067 0.587234 0
M  V30 4905 C 485.65 -3.95505 1.73781 0
M  V30 4906 C 484.785 -5.15722 1.27297 0
M  V30 4907 C 483.824 -5.63305 2.39488 0
M  V30 4908 N 482.961 -6.74758 1.94026 0
M  V30 4909 H 487.801 -2.26768 1.9334 0
M  V30 4910 H 485.338 -1.11171 0.963297 0
M  V30 4911 H 487.296 -4.15899 0.329227 0
M  V30 4912 H 485.926 -3.21314 -0.309426 0
M  V30 4913 H 484.978 -3.16513 2.11006 0
M  V30 4914 H 486.29 -4.26797 2.58158 0
M  V30 4915 H 485.444 -5.98854 0.972546 0
M  V30 4916 H 484.183 -4.86061 0.399445 0
M  V30 4917 H 483.188 -4.78759 2.70315 0
M  V30 4918 H 484.413 -5.94988 3.27362 0
M  V30 4919 H 482.359 -6.46874 1.09041 0
M  V30 4920 H 482.276 -7.05386 2.71968 0
M  V30 4921 H 483.544 -7.61387 1.67062 0
M  V30 4922 N 487.773 -1.03688 -1.18687 0
M  V30 4923 C 489.022 -0.733235 -1.879 0
M  V30 4924 C 489.335 0.741745 -1.8099 0
M  V30 4925 O 490.541 1.15875 -2.4553 0
M  V30 4926 C 488.997 -1.26127 -3.37076 0
M  V30 4927 C 488.605 -2.76461 -3.52524 0
M  V30 4928 C 490.349 -1.03398 -4.11715 0
M  V30 4929 C 488.256 -3.22642 -4.95637 0
M  V30 4930 H 487.186 -0.270584 -0.703776 0
M  V30 4931 H 489.837 -1.25222 -1.34133 0
M  V30 4932 H 488.219 -0.670165 -3.90288 0
M  V30 4933 H 489.393 -3.41296 -3.09602 0
M  V30 4934 H 487.708 -2.97559 -2.91286 0
M  V30 4935 H 490.305 -1.3542 -5.17267 0
M  V30 4936 H 490.648 0.0289246 -4.1629 0
M  V30 4937 H 491.181 -1.5895 -3.64664 0
M  V30 4938 H 487.92 -4.28296 -4.96228 0
M  V30 4939 H 487.44 -2.62539 -5.39289 0
M  V30 4940 H 489.119 -3.16444 -5.64333 0
M  V30 4941 N 489.251 1.34841 -0.815825 0
M  V30 4942 C 490.181 2.32187 -0.247298 0
M  V30 4943 C 491.162 1.5791 0.632344 0
M  V30 4944 O 492.347 1.8593 0.560698 0
M  V30 4945 C 489.477 3.42122 0.597466 0
M  V30 4946 C 488.431 4.27602 -0.184446 0
M  V30 4947 C 487.757 5.28942 0.782609 0
M  V30 4948 C 489.057 5.03502 -1.38865 0
M  V30 4949 H 490.751 2.79985 -1.06061 0
M  V30 4950 H 488.297 1.34611 -0.511461 0
M  V30 4951 H 490.25 4.09232 1.00533 0
M  V30 4952 H 488.974 2.92956 1.44376 0
M  V30 4953 H 487.633 3.62085 -0.573592 0
M  V30 4954 H 487.281 4.7604 1.62466 0
M  V30 4955 H 486.981 5.87008 0.263695 0
M  V30 4956 H 488.505 5.98922 1.18848 0
M  V30 4957 H 489.919 5.63506 -1.05518 0
M  V30 4958 H 488.316 5.71108 -1.8427 0
M  V30 4959 H 489.386 4.33608 -2.17054 0
M  V30 4960 N 490.729 0.570148 1.46925 0
M  V30 4961 C 491.954 0.0542592 2.07329 0
M  V30 4962 C 492.379 -1.23582 1.41806 0
M  V30 4963 O 491.737 -1.74341 0.497479 0
M  V30 4964 C 491.785 -0.111175 3.60429 0
M  V30 4965 O 490.889 -1.17071 3.95434 0
M  V30 4966 H 490.23 0.0571425 0.661537 0
M  V30 4967 H 492.76 0.789516 1.88753 0
M  V30 4968 H 492.77 -0.321315 4.06733 0
M  V30 4969 H 491.445 0.831012 4.07513 0
M  V30 4970 H 490.022 -0.940029 3.60857 0
M  V30 4971 N 492.207 -1.54576 0.307264 0
M  V30 4972 C 493.137 -2.26708 -0.55907 0
M  V30 4973 C 494.118 -1.26893 -1.1328 0
M  V30 4974 O 495.303 -1.55677 -1.16097 0
M  V30 4975 C 492.433 -3.01259 -1.72801 0
M  V30 4976 C 491.387 -4.08275 -1.28435 0
M  V30 4977 C 490.713 -4.70575 -2.53895 0
M  V30 4978 C 492.013 -5.2068 -0.411038 0
M  V30 4979 H 493.707 -2.9937 0.042576 0
M  V30 4980 H 491.253 -1.43983 0.0219173 0
M  V30 4981 H 493.206 -3.50444 -2.34023 0
M  V30 4982 H 491.93 -2.26187 -2.356 0
M  V30 4983 H 490.589 -3.59949 -0.695161 0
M  V30 4984 H 490.237 -3.92136 -3.15021 0
M  V30 4985 H 489.937 -5.42854 -2.24908 0
M  V30 4986 H 491.461 -5.22527 -3.15908 0
M  V30 4987 H 492.875 -5.65721 -0.929097 0
M  V30 4988 H 491.272 -5.99716 -0.214664 0
M  V30 4989 H 492.342 -4.81629 0.562287 0
M  V30 4990 N 493.685 -0.035106 -1.57561 0
M  V30 4991 C 494.615 0.942993 -2.13612 0
M  V30 4992 C 495.596 1.33531 -1.05373 0
M  V30 4993 O 496.781 1.41287 -1.33235 0
M  V30 4994 C 493.911 2.22332 -2.66807 0
M  V30 4995 C 492.865 1.97156 -3.79886 0
M  V30 4996 C 492.191 3.31506 -4.19533 0
M  V30 4997 C 493.491 1.30596 -5.05709 0
M  V30 4998 H 495.185 0.476179 -2.95589 0
M  V30 4999 H 492.731 0.227602 -1.4219 0
M  V30 5000 H 494.684 2.91142 -3.04654 0
M  V30 5001 H 493.408 2.7119 -1.81999 0
M  V30 5002 H 492.067 1.30763 -3.42486 0
M  V30 5003 H 491.715 3.78134 -3.31698 0
M  V30 5004 H 491.415 3.15465 -4.95738 0
M  V30 5005 H 492.939 4.01574 -4.59968 0
M  V30 5006 H 494.353 1.89416 -5.41105 0
M  V30 5007 H 492.75 1.24934 -5.86951 0
M  V30 5008 H 493.82 0.279742 -4.84092 0
M  V30 5009 N 495.163 1.55791 0.238111 0
M  V30 5010 C 496.579 1.48411 0.587045 0
M  V30 5011 C 496.779 0.72702 1.87927 0
M  V30 5012 O 495.835 0.259942 2.51158 0
M  V30 5013 C 497.148 2.92873 0.681623 0
M  V30 5014 C 498.696 3.03295 0.773363 0
M  V30 5015 C 499.171 4.49082 0.899428 0
M  V30 5016 N 500.662 4.53056 0.964075 0
M  V30 5017 C 501.397 5.63117 1.08104 0
M  V30 5018 N 500.893 6.82969 1.16299 0
M  V30 5019 N 502.686 5.50933 1.11488 0
M  V30 5020 H 494.837 2.0345 -0.610076 0
M  V30 5021 H 497.1 0.924034 -0.211813 0
M  V30 5022 H 496.806 3.51142 -0.19802 0
M  V30 5023 H 496.68 3.43851 1.55069 0
M  V30 5024 H 499.067 2.45101 1.64346 0
M  V30 5025 H 499.148 2.55513 -0.121034 0
M  V30 5026 H 498.792 5.07889 0.0338586 0
M  V30 5027 H 498.722 4.94553 1.809 0
M  V30 5028 H 501.213 3.66737 0.91173 0
M  V30 5029 H 501.526 7.62598 1.25155 0
M  V30 5030 H 499.871 6.85712 1.13241 0
M  V30 5031 H 503.062 4.56231 1.0474 0
M  V30 5032 H 503.235 6.36743 1.20259 0
M  V30 5033 N 496.642 -0.504142 1.49319 0
M  V30 5034 C 497.572 -1.61473 1.68667 0
M  V30 5035 C 498.553 -1.61455 0.535378 0
M  V30 5036 O 499.738 -1.78245 0.770868 0
M  V30 5037 C 496.868 -2.99971 1.75028 0
M  V30 5038 C 495.822 -3.14854 2.89916 0
M  V30 5039 C 495.148 -4.54671 2.81387 0
M  V30 5040 C 496.448 -2.95176 4.30893 0
M  V30 5041 H 498.142 -1.45535 2.61648 0
M  V30 5042 H 495.688 -0.698711 1.25913 0
M  V30 5043 H 497.641 -3.77562 1.8715 0
M  V30 5044 H 496.365 -3.1699 0.786441 0
M  V30 5045 H 495.024 -2.39687 2.77391 0
M  V30 5046 H 494.672 -4.68562 1.82917 0
M  V30 5047 H 494.372 -4.6557 3.58494 0
M  V30 5048 H 495.896 -5.34327 2.95512 0
M  V30 5049 H 497.31 -3.62538 4.44116 0
M  V30 5050 H 495.707 -3.17549 5.09198 0
M  V30 5051 H 496.777 -1.91332 4.45556 0
M  V30 5052 N 498.12 -1.38341 -0.754957 0
M  V30 5053 C 499.05 -1.38176 -1.88227 0
M  V30 5054 C 500.031 -0.247873 -1.68284 0
M  V30 5055 O 501.216 -0.45075 -1.88896 0
M  V30 5056 C 498.346 -1.20471 -3.25736 0
M  V30 5057 C 497.3 -2.3105 -3.60278 0
M  V30 5058 C 496.626 -1.98452 -4.96509 0
M  V30 5059 C 497.926 -3.73305 -3.65295 0
M  V30 5060 H 499.62 -2.32512 -1.88622 0
M  V30 5061 H 497.166 -1.1192 -0.906082 0
M  V30 5062 H 499.119 -1.18982 -4.04254 0
M  V30 5063 H 497.843 -0.225965 -3.25817 0
M  V30 5064 H 496.502 -2.31723 -2.84078 0
M  V30 5065 H 496.15 -0.990641 -4.93148 0
M  V30 5066 H 495.85 -2.7251 -5.20588 0
M  V30 5067 H 497.374 -1.98578 -5.77407 0
M  V30 5068 H 498.788 -3.7467 -4.3393 0
M  V30 5069 H 497.185 -4.46557 -4.00883 0
M  V30 5070 H 498.255 -4.05719 -2.65556 0
M  V30 5071 N 499.598 0.982988 -1.23187 0
M  V30 5072 C 501.014 1.2487 -0.993967 0
M  V30 5073 C 501.214 1.99155 0.306498 0
M  V30 5074 O 500.27 2.30688 1.0266 0
M  V30 5075 C 501.583 2.05078 -2.19917 0
M  V30 5076 C 503.131 2.18227 -2.2438 0
M  V30 5077 C 503.606 3.01825 -3.44479 0
M  V30 5078 N 505.097 3.09411 -3.44702 0
M  V30 5079 C 505.832 3.74412 -4.34285 0
M  V30 5080 N 505.328 4.41259 -5.341 0
M  V30 5081 N 507.121 3.71273 -4.22035 0
M  V30 5082 H 499.272 0.485253 -2.06783 0
M  V30 5083 H 501.535 0.276979 -0.906635 0
M  V30 5084 H 501.241 1.57867 -3.14279 0
M  V30 5085 H 501.115 3.05829 -2.2079 0
M  V30 5086 H 503.502 2.64648 -1.30559 0
M  V30 5087 H 503.583 1.16873 -2.2754 0
M  V30 5088 H 503.227 2.56102 -4.38605 0
M  V30 5089 H 503.157 4.03342 -3.38559 0
M  V30 5090 H 505.648 2.61845 -2.7248 0
M  V30 5091 H 505.961 4.88629 -5.98717 0
M  V30 5092 H 504.306 4.39975 -5.38002 0
M  V30 5093 H 507.497 3.18217 -3.43301 0
M  V30 5094 H 507.67 4.21649 -4.92053 0
M  V30 5095 N 501.076 1.04316 1.18135 0
M  V30 5096 C 502.006 0.657299 2.24058 0
M  V30 5097 C 502.987 -0.340678 1.66654 0
M  V30 5098 O 504.172 -0.220223 1.92947 0
M  V30 5099 C 501.302 0.0220715 3.47293 0
M  V30 5100 C 500.256 0.943857 4.17463 0
M  V30 5101 C 499.582 0.172973 5.3442 0
M  V30 5102 C 500.882 2.26409 4.70677 0
M  V30 5103 H 502.576 1.5428 2.56589 0
M  V30 5104 H 500.122 0.743263 1.23335 0
M  V30 5105 H 502.075 -0.259607 4.206 0
M  V30 5106 H 500.799 -0.898323 3.14003 0
M  V30 5107 H 499.458 1.20996 3.46057 0
M  V30 5108 H 499.106 -0.749907 4.97379 0
M  V30 5109 H 498.806 0.787098 5.82304 0
M  V30 5110 H 500.33 -0.101628 6.10515 0
M  V30 5111 H 501.744 2.04294 5.35665 0
M  V30 5112 H 500.141 2.8314 5.29105 0
M  V30 5113 H 501.211 2.90883 3.87962 0
M  V30 5114 N 502.554 -1.34406 0.822964 0
M  V30 5115 C 503.779 -2.0304 0.423034 0
M  V30 5116 C 504.204 -1.61568 -0.963196 0
M  V30 5117 O 503.562 -0.800339 -1.62678 0
M  V30 5118 C 503.61 -3.56636 0.53321 0
M  V30 5119 O 502.714 -4.09971 -0.446939 0
M  V30 5120 H 502.055 -0.64075 0.174171 0
M  V30 5121 H 504.585 -1.71653 1.11339 0
M  V30 5122 H 504.595 -4.05945 0.408991 0
M  V30 5123 H 503.27 -3.86168 1.54425 0
M  V30 5124 H 501.847 -3.71835 -0.281601 0
M  V30 5125 N 504.032 -0.577932 -1.46621 0
M  V30 5126 C 505.448 -0.239242 -1.57797 0
M  V30 5127 C 505.648 1.25843 -1.57371 0
M  V30 5128 O 504.704 2.03988 -1.48813 0
M  V30 5129 C 506.017 -0.884227 -2.87405 0
M  V30 5130 C 507.565 -0.857373 -3.01028 0
M  V30 5131 C 508.04 -1.48181 -4.33366 0
M  V30 5132 N 509.531 -1.44593 -4.40053 0
M  V30 5133 C 510.266 -1.89852 -5.41058 0
M  V30 5134 N 509.762 -2.43062 -6.48762 0
M  V30 5135 N 511.555 -1.80797 -5.3223 0
M  V30 5136 H 503.706 -1.55073 -1.45142 0
M  V30 5137 H 505.969 -0.647903 -0.692044 0
M  V30 5138 H 505.675 -1.93759 -2.93514 0
M  V30 5139 H 505.549 -0.389585 -3.75183 0
M  V30 5140 H 507.936 0.187357 -2.94505 0
M  V30 5141 H 508.017 -1.38999 -2.14739 0
M  V30 5142 H 507.661 -2.52572 -4.40647 0
M  V30 5143 H 507.591 -0.924464 -5.18422 0
M  V30 5144 H 510.082 -1.05694 -3.62819 0
M  V30 5145 H 510.395 -2.75466 -7.22038 0
M  V30 5146 H 508.74 -2.47085 -6.49595 0
M  V30 5147 H 511.931 -1.38989 -4.46989 0
M  V30 5148 H 512.104 -2.16385 -6.10804 0
M  V30 5149 N 505.51 1.54411 -0.315457 0
M  V30 5150 C 506.44 2.27002 0.547039 0
M  V30 5151 C 507.421 1.27492 1.12605 0
M  V30 5152 O 508.606 1.5629 1.15269 0
M  V30 5153 C 505.736 3.02171 1.71201 0
M  V30 5154 C 504.69 4.0895 1.26268 0
M  V30 5155 C 504.016 4.71915 2.51396 0
M  V30 5156 C 505.316 5.20891 0.383419 0
M  V30 5157 H 507.01 2.99343 -0.0584517 0
M  V30 5158 H 504.556 1.4397 -0.0295527 0
M  V30 5159 H 506.509 3.51681 2.32161 0
M  V30 5160 H 505.233 2.27433 2.34397 0
M  V30 5161 H 503.892 3.60312 0.676062 0
M  V30 5162 H 503.54 3.93801 3.12937 0
M  V30 5163 H 503.24 5.44039 2.22026 0
M  V30 5164 H 504.764 5.24195 3.13133 0
M  V30 5165 H 506.178 5.66206 0.899082 0
M  V30 5166 H 504.575 5.99821 0.182857 0
M  V30 5167 H 505.645 4.81324 -0.587821 0
M  V30 5168 N 506.988 0.0434614 1.5754 0
M  V30 5169 C 508.237 -0.631454 1.91561 0
M  V30 5170 C 508.55 -1.72457 0.92292 0
M  V30 5171 O 509.756 -2.45712 1.15489 0
M  V30 5172 C 508.212 -1.17447 3.40197 0
M  V30 5173 C 507.82 -0.113867 4.47855 0
M  V30 5174 C 509.564 -1.82507 3.83264 0
M  V30 5175 C 507.471 -0.669326 5.876 0
M  V30 5176 H 506.401 -0.239629 0.714908 0
M  V30 5177 H 509.052 0.111097 1.83163 0
M  V30 5178 H 507.434 -1.96909 3.43574 0
M  V30 5179 H 508.608 0.659348 4.56058 0
M  V30 5180 H 506.923 0.438821 4.14081 0
M  V30 5181 H 509.52 -2.25047 4.85034 0
M  V30 5182 H 509.863 -2.67365 3.19095 0
M  V30 5183 H 510.396 -1.09712 3.82372 0
M  V30 5184 H 507.135 0.141449 6.55347 0
M  V30 5185 H 506.655 -1.4107 5.82974 0
M  V30 5186 H 508.334 -1.15463 6.36614 0
M  V30 5187 N 508.466 -1.55915 -0.229846 0
M  V30 5188 C 509.882 -1.48721 -0.579166 0
M  V30 5189 C 510.082 -0.736976 -1.87539 0
M  V30 5190 O 509.138 -0.273258 -2.51017 0
M  V30 5191 C 510.451 -2.9323 -0.666082 0
M  V30 5192 C 511.999 -3.03701 -0.757267 0
M  V30 5193 C 512.474 -4.49552 -0.8756 0
M  V30 5194 N 513.965 -4.53561 -0.940035 0
M  V30 5195 C 514.7 -5.63683 -1.05116 0
M  V30 5196 N 514.196 -6.83576 -1.12675 0
M  V30 5197 N 515.989 -5.51516 -1.08565 0
M  V30 5198 H 508.14 -2.03123 0.620857 0
M  V30 5199 H 510.403 -0.922898 0.21671 0
M  V30 5200 H 510.109 -3.51032 0.21664 0
M  V30 5201 H 509.983 -3.44668 -1.53243 0
M  V30 5202 H 512.37 -2.45969 -1.63043 0
M  V30 5203 H 512.451 -2.55446 0.134583 0
M  V30 5204 H 512.095 -5.079 -0.00692351 0
M  V30 5205 H 512.025 -4.95506 -1.78274 0
M  V30 5206 H 514.516 -3.67215 -0.892269 0
M  V30 5207 H 514.829 -7.63251 -1.21109 0
M  V30 5208 H 513.174 -6.86303 -1.09603 0
M  V30 5209 H 516.365 -4.5678 -1.02319 0
M  V30 5210 H 516.538 -6.37372 -1.1688 0
M  V30 5211 N 509.944 0.496216 -1.49584 0
M  V30 5212 C 511.174 1.27209 -1.62793 0
M  V30 5213 C 511.582 1.86799 -0.300476 0
M  V30 5214 O 510.925 1.68802 0.724674 0
M  V30 5215 C 510.987 2.43812 -2.64189 0
M  V30 5216 C 510.651 2.05055 -4.08414 0
M  V30 5217 C 511.648 1.58752 -4.9507 0
M  V30 5218 C 509.333 2.14543 -4.54177 0
M  V30 5219 C 511.327 1.22448 -6.25528 0
M  V30 5220 C 509.014 1.77851 -5.84647 0
M  V30 5221 C 510.012 1.31878 -6.70147 0
M  V30 5222 O 509.7 0.956834 -7.98185 0
M  V30 5223 H 509.432 0.391848 -0.550846 0
M  V30 5224 H 511.986 0.601712 -1.96389 0
M  V30 5225 H 510.216 3.13941 -2.25783 0
M  V30 5226 H 511.905 3.05829 -2.66877 0
M  V30 5227 H 512.671 1.50863 -4.60939 0
M  V30 5228 H 508.55 2.49277 -3.87791 0
M  V30 5229 H 512.094 0.864933 -6.92217 0
M  V30 5230 H 507.991 1.8539 -6.18305 0
M  V30 5231 H 508.759 1.08789 -8.11238 0
M  V30 5232 N 511.423 1.38739 0.74761 0
M  V30 5233 C 512.672 1.3459 1.50228 0
M  V30 5234 C 512.985 -0.0595592 1.95509 0
M  V30 5235 O 514.191 -0.22361 2.70578 0
M  V30 5236 C 512.647 2.36377 2.71393 0
M  V30 5237 C 512.255 3.82573 2.33113 0
M  V30 5238 C 513.999 2.41281 3.49262 0
M  V30 5239 C 511.906 4.76032 3.50924 0
M  V30 5240 H 510.836 0.500312 0.564096 0
M  V30 5241 H 513.487 1.64324 0.8167 0
M  V30 5242 H 511.869 1.99694 3.41962 0
M  V30 5243 H 513.043 4.28227 1.70171 0
M  V30 5244 H 511.358 3.80844 1.68365 0
M  V30 5245 H 513.955 3.08301 4.36869 0
M  V30 5246 H 514.298 1.43353 3.9084 0
M  V30 5247 H 514.831 2.76793 2.85711 0
M  V30 5248 H 511.57 5.75177 3.14408 0
M  V30 5249 H 511.09 4.35066 4.12889 0
M  V30 5250 H 512.769 4.94331 4.17427 0
M  V30 5251 N 512.901 -0.976442 1.23707 0
M  V30 5252 C 513.851 -2.0544 0.988851 0
M  V30 5253 C 514.835 -1.60762 -0.0665901 0
M  V30 5254 O 516.027 -1.76396 0.14604 0
M  V30 5255 C 513.156 -3.38258 0.586223 0
M  V30 5256 C 512.242 -3.89523 1.67728 0
M  V30 5257 N 512.633 -4.13823 2.90834 0
M  V30 5258 C 510.931 -4.18097 1.55277 0
M  V30 5259 C 511.632 -4.55731 3.61502 0
M  V30 5260 N 510.608 -4.60394 2.8903 0
M  V30 5261 H 514.41 -2.22191 1.92376 0
M  V30 5262 H 511.924 -1.15954 1.13704 0
M  V30 5263 H 513.921 -4.15075 0.389658 0
M  V30 5264 H 512.581 -3.22898 -0.341594 0
M  V30 5265 H 513.592 -4.01529 3.271 0
M  V30 5266 H 510.269 -4.11719 0.692351 0
M  V30 5267 H 511.659 -4.83018 4.67059 0
M  V30 5268 N 514.379 -1.04941 -1.1758 0
M  V30 5269 C 515.311 -0.606174 -2.21039 0
M  V30 5270 C 516.324 0.328763 -1.59446 0
M  V30 5271 O 517.513 0.121895 -1.78083 0
M  V30 5272 C 514.613 0.133294 -3.38638 0
M  V30 5273 C 513.786 -0.811711 -4.29802 0
M  V30 5274 C 512.845 -0.113958 -5.26077 0
M  V30 5275 O 511.871 -0.747237 -5.64274 0
M  V30 5276 N 513.073 1.14953 -5.69004 0
M  V30 5277 H 515.838 -1.49606 -2.59689 0
M  V30 5278 H 513.399 -0.930997 -1.32454 0
M  V30 5279 H 515.391 0.610144 -4.00074 0
M  V30 5280 H 513.961 0.924816 -2.98607 0
M  V30 5281 H 513.181 -1.46824 -3.65837 0
M  V30 5282 H 514.469 -1.45326 -4.87604 0
M  V30 5283 H 513.867 1.68441 -5.40041 0
M  V30 5284 H 512.424 1.57049 -6.32597 0
M  V30 5285 N 515.857 1.33968 -0.830081 0
M  V30 5286 C 517.103 1.98773 -0.431394 0
M  V30 5287 C 517.458 1.64598 0.99626 0
M  V30 5288 O 516.751 0.911022 1.68555 0
M  V30 5289 C 516.945 3.52679 -0.57898 0
M  V30 5290 C 516.774 4.01807 -2.01943 0
M  V30 5291 C 515.544 4.30062 -2.65282 0
M  V30 5292 C 517.742 4.18663 -2.98707 0
M  V30 5293 N 515.724 4.65272 -4.00493 0
M  V30 5294 C 517.095 4.57133 -4.18843 0
M  V30 5295 C 519.15 4.00929 -2.95229 0
M  V30 5296 C 517.853 4.79723 -5.35965 0
M  V30 5297 C 519.879 4.2469 -4.11573 0
M  V30 5298 C 519.241 4.63454 -5.30462 0
M  V30 5299 H 515.34 0.75435 -0.206107 0
M  V30 5300 H 517.924 1.62247 -1.07629 0
M  V30 5301 H 516.095 3.88383 0.0360632 0
M  V30 5302 H 517.827 4.04412 -0.152596 0
M  V30 5303 H 514.582 4.21231 -2.16475 0
M  V30 5304 H 515.006 4.87101 -4.70172 0
M  V30 5305 H 519.648 3.70082 -2.04448 0
M  V30 5306 H 517.366 5.09434 -6.27297 0
M  V30 5307 H 520.952 4.12497 -4.10289 0
M  V30 5308 H 519.832 4.81476 -6.18992 0
M  V30 5309 N 517.335 0.585699 1.46312 0
M  V30 5310 C 518.245 -0.148236 2.34131 0
M  V30 5311 C 519.261 -0.882972 1.49932 0
M  V30 5312 O 520.437 -0.845484 1.82794 0
M  V30 5313 C 517.502 -1.14714 3.27172 0
M  V30 5314 C 516.563 -0.416746 4.27272 0
M  V30 5315 C 515.796 -1.36806 5.15868 0
M  V30 5316 O 516.019 -2.60475 5.07454 0
M  V30 5317 O 514.953 -0.877018 5.95476 0
M  V30 5318 H 518.779 0.572882 2.98248 0
M  V30 5319 H 516.364 0.346082 1.45336 0
M  V30 5320 H 518.246 -1.72303 3.84564 0
M  V30 5321 H 516.921 -1.84967 2.65648 0
M  V30 5322 H 515.828 0.201061 3.73559 0
M  V30 5323 H 517.161 0.244872 4.9159 0
M  V30 5324 N 518.813 -1.54241 0.323641 0
M  V30 5325 C 519.723 -2.28033 -0.551205 0
M  V30 5326 C 520.739 -1.32388 -1.12913 0
M  V30 5327 O 521.915 -1.65403 -1.14908 0
M  V30 5328 C 518.98 -3.02382 -1.69606 0
M  V30 5329 C 518.041 -4.13612 -1.14993 0
M  V30 5330 C 517.274 -4.84407 -2.24022 0
M  V30 5331 O 517.497 -4.54716 -3.44368 0
M  V30 5332 O 516.431 -5.71312 -1.89436 0
M  V30 5333 H 520.257 -3.03662 0.048066 0
M  V30 5334 H 517.842 -1.49133 0.0893289 0
M  V30 5335 H 519.724 -3.48941 -2.36259 0
M  V30 5336 H 518.399 -2.29628 -2.28151 0
M  V30 5337 H 517.306 -3.71402 -0.448484 0
M  V30 5338 H 518.639 -4.8841 -0.609608 0
M  V30 5339 N 520.291 -0.0518155 -1.57515 0
M  V30 5340 C 521.54 0.621286 -1.91893 0
M  V30 5341 C 521.853 1.71966 -0.932052 0
M  V30 5342 O 523.059 2.45096 -1.16791 0
M  V30 5343 C 521.515 1.15641 -3.40816 0
M  V30 5344 C 521.123 0.0901146 -4.47909 0
M  V30 5345 C 522.867 1.80472 -3.84227 0
M  V30 5346 C 520.774 0.638154 -5.87947 0
M  V30 5347 H 519.704 0.235835 -0.716169 0
M  V30 5348 H 522.355 -0.120809 -1.83102 0
M  V30 5349 H 520.737 1.95084 -3.44613 0
M  V30 5350 H 521.911 -0.683525 -4.55702 0
M  V30 5351 H 520.226 -0.460774 -4.13843 0
M  V30 5352 H 522.823 2.22471 -4.86221 0
M  V30 5353 H 523.166 2.65669 -3.20508 0
M  V30 5354 H 523.699 1.07683 -3.82948 0
M  V30 5355 H 520.438 -0.176202 -6.55263 0
M  V30 5356 H 519.958 1.37976 -5.83714 0
M  V30 5357 H 521.637 1.12085 -6.37217 0
M  V30 5358 N 521.769 1.56035 0.221574 0
M  V30 5359 C 523.016 1.79047 0.94597 0
M  V30 5360 C 523.344 0.62057 1.84334 0
M  V30 5361 O 522.599 -0.395053 1.91671 0
M  V30 5362 C 522.898 3.07813 1.8162 0
M  V30 5363 C 522.564 4.3797 1.07206 0
M  V30 5364 C 521.226 4.73334 0.866508 0
M  V30 5365 C 523.578 5.18326 0.546565 0
M  V30 5366 C 520.906 5.8657 0.123549 0
M  V30 5367 C 523.258 6.32335 -0.18305 0
M  V30 5368 C 521.922 6.66301 -0.399861 0
M  V30 5369 H 521.192 0.655178 0.346155 0
M  V30 5370 H 523.839 1.90299 0.214146 0
M  V30 5371 H 522.144 2.91682 2.61589 0
M  V30 5372 H 523.841 3.2282 2.37884 0
M  V30 5373 H 520.431 4.10202 1.24226 0
M  V30 5374 H 524.615 4.9144 0.692847 0
M  V30 5375 H 519.871 6.11376 -0.0546591 0
M  V30 5376 H 524.045 6.9383 -0.59775 0
M  V30 5377 H 521.672 7.53889 -0.977489 0
M  V30 5378 N 523.247 -0.488276 1.49845 0
M  V30 5379 C 524.197 -1.58556 1.63842 0
M  V30 5380 C 525.181 -1.53142 0.493586 0
M  V30 5381 O 526.373 -1.60457 0.747169 0
M  V30 5382 C 523.502 -2.97101 1.72005 0
M  V30 5383 C 522.588 -3.07463 2.92108 0
M  V30 5384 N 522.979 -2.87681 4.16021 0
M  V30 5385 C 521.277 -3.3858 2.90309 0
M  V30 5386 C 521.978 -3.0256 4.96822 0
M  V30 5387 N 520.954 -3.32002 4.30437 0
M  V30 5388 H 524.756 -1.41935 2.57355 0
M  V30 5389 H 522.27 -0.694668 1.46793 0
M  V30 5390 H 524.267 -3.75976 1.80132 0
M  V30 5391 H 522.927 -3.14782 0.796375 0
M  V30 5392 H 523.938 -2.63603 4.45796 0
M  V30 5393 H 520.615 -3.62357 2.07372 0
M  V30 5394 H 522.005 -2.9165 6.05301 0
M  V30 5395 N 524.725 -1.39134 -0.740242 0
M  V30 5396 C 525.658 -1.3182 -1.86276 0
M  V30 5397 C 526.636 -0.192794 -1.61453 0
M  V30 5398 O 527.82 -0.372365 -1.84786 0
M  V30 5399 C 524.947 -1.04564 -3.22155 0
M  V30 5400 C 523.993 -2.19224 -3.65846 0
M  V30 5401 S 524.826 -3.81466 -3.75824 0
M  V30 5402 C 525.982 -3.56425 -5.14502 0
M  V30 5403 H 526.215 -2.26822 -1.92195 0
M  V30 5404 H 523.748 -1.25127 -0.904576 0
M  V30 5405 H 525.706 -0.895228 -4.00619 0
M  V30 5406 H 524.367 -0.112578 -3.13898 0
M  V30 5407 H 523.56 -1.95732 -4.6444 0
M  V30 5408 H 523.162 -2.30441 -2.94572 0
M  V30 5409 H 525.454 -3.13366 -6.00673 0
M  V30 5410 H 526.397 -4.54462 -5.43019 0
M  V30 5411 H 526.805 -2.90641 -4.8393 0
M  V30 5412 N 526.204 0.969867 -1.24223 0
M  V30 5413 C 527.432 1.74756 -1.10761 0
M  V30 5414 C 527.847 1.85713 0.340041 0
M  V30 5415 O 527.204 1.34389 1.23474 0
M  V30 5416 C 527.255 3.16915 -1.73917 0
M  V30 5417 O 526.976 3.06511 -3.13021 0
M  V30 5418 C 528.477 4.11032 -1.66036 0
M  V30 5419 H 525.697 0.548092 -0.387087 0
M  V30 5420 H 528.241 1.2178 -1.64286 0
M  V30 5421 H 526.396 3.66884 -1.244 0
M  V30 5422 H 526.81 3.96079 -3.43834 0
M  V30 5423 H 528.284 5.08446 -2.14911 0
M  V30 5424 H 528.761 4.34785 -0.621159 0
M  V30 5425 H 529.367 3.66972 -2.14969 0
M  V30 5426 N 527.682 1.05563 1.17022 0
M  V30 5427 C 528.912 0.787307 1.91011 0
M  V30 5428 C 529.32 -0.661256 1.77268 0
M  V30 5429 O 528.663 -1.46379 1.10991 0
M  V30 5430 C 528.725 1.09313 3.42478 0
M  V30 5431 C 528.389 2.53863 3.80004 0
M  V30 5432 C 529.386 3.52081 3.82538 0
M  V30 5433 C 527.071 2.88969 4.10855 0
M  V30 5434 C 529.065 4.83449 4.15399 0
M  V30 5435 C 526.752 4.2054 4.43384 0
M  V30 5436 C 527.75 5.17589 4.45635 0
M  V30 5437 O 527.438 6.46799 4.77395 0
M  V30 5438 H 527.17 0.285463 0.61277 0
M  V30 5439 H 529.724 1.41051 1.49311 0
M  V30 5440 H 527.954 0.412833 3.8449 0
M  V30 5441 H 529.643 0.810224 3.97731 0
M  V30 5442 H 530.409 3.26299 3.58823 0
M  V30 5443 H 526.288 2.1409 4.08272 0
M  V30 5444 H 529.832 5.59194 4.1707 0
M  V30 5445 H 525.729 4.46083 4.66563 0
M  V30 5446 H 526.497 6.51677 4.95237 0
M  V30 5447 N 529.16 -1.33526 0.837174 0
M  V30 5448 C 530.437 -1.92369 0.354065 0
M  V30 5449 C 530.817 -1.76348 -1.16038 0
M  V30 5450 O 530.165 -1.15083 -1.97403 0
M  V30 5451 C 530.375 -3.39728 0.799101 0
M  V30 5452 C 531.723 -4.16877 0.806139 0
M  V30 5453 O 532.747 -3.48373 0.742597 0
M  V30 5454 O 531.606 -5.39166 0.892345 0
M  V30 5455 H 528.7 -0.820952 0.0998378 0
M  V30 5456 H 531.246 -1.42409 0.922913 0
M  V30 5457 H 530.018 -3.45254 1.84162 0
M  V30 5458 H 529.641 -3.97062 0.206731 0
M  V30 5459 N 530.638 -0.59345 -1.46 0
M  V30 5460 C 531.568 0.121192 -2.33185 0
M  V30 5461 C 532.549 0.872977 -1.4599 0
M  V30 5462 O 533.734 0.846321 -1.74789 0
M  V30 5463 C 530.864 1.12844 -3.28456 0
M  V30 5464 C 529.818 0.4908 -4.25177 0
M  V30 5465 C 529.144 1.60529 -5.10034 0
M  V30 5466 C 530.444 -0.578949 -5.19081 0
M  V30 5467 H 532.138 -0.606767 -2.93187 0
M  V30 5468 H 529.684 -0.293242 -1.40983 0
M  V30 5469 H 531.637 1.63684 -3.88311 0
M  V30 5470 H 530.361 1.88681 -2.66584 0
M  V30 5471 H 529.02 0.00339328 -3.666 0
M  V30 5472 H 528.668 2.35359 -4.44539 0
M  V30 5473 H 528.368 1.18422 -5.75543 0
M  V30 5474 H 529.892 2.11623 -5.72755 0
M  V30 5475 H 531.306 -0.155199 -5.7309 0
M  V30 5476 H 529.703 -0.920947 -5.92991 0
M  V30 5477 H 530.773 -1.46109 -4.62364 0
M  V30 5478 N 532.116 1.54067 -0.331816 0
M  V30 5479 C 533.079 2.23275 0.517768 0
M  V30 5480 C 534.079 1.22897 1.03697 0
M  V30 5481 O 535.269 1.47419 0.928084 0
M  V30 5482 C 532.401 2.94326 1.72004 0
M  V30 5483 H 533.594 2.99773 -0.0873507 0
M  V30 5484 H 531.147 1.56079 -0.0830042 0
M  V30 5485 H 531.882 2.21986 2.36417 0
M  V30 5486 H 531.667 3.67941 1.35507 0
M  V30 5487 H 533.157 3.47031 2.32291 0
M  V30 5488 N 533.594 0.0601682 1.57485 0
M  V30 5489 C 534.819 -0.624416 1.97777 0
M  V30 5490 C 535.244 -1.63051 0.937867 0
M  V30 5491 O 534.602 -1.81036 -0.0978845 0
M  V30 5492 C 534.65 -1.27979 3.37126 0
M  V30 5493 O 533.754 -2.39556 3.35688 0
M  V30 5494 H 533.095 -0.161581 0.64404 0
M  V30 5495 H 535.625 0.131237 2.04179 0
M  V30 5496 H 535.635 -1.62937 3.74053 0
M  V30 5497 H 534.31 -0.542501 4.12347 0
M  V30 5498 H 532.887 -2.06478 3.10517 0
M  V30 5499 N 535.072 -1.5615 -0.213296 0
M  V30 5500 C 536.035 -1.92249 -1.24792 0
M  V30 5501 C 537.035 -0.801828 -1.39382 0
M  V30 5502 O 538.225 -1.06948 -1.37506 0
M  V30 5503 C 535.357 -2.18056 -2.62039 0
M  V30 5504 H 536.55 -2.84793 -0.939845 0
M  V30 5505 H 534.103 -1.49559 -0.454062 0
M  V30 5506 H 534.838 -1.2809 -2.97932 0
M  V30 5507 H 534.623 -2.99703 -2.52825 0
M  V30 5508 H 536.113 -2.47051 -3.36683 0
M  V30 5509 N 536.55 0.480323 -1.50102 0
M  V30 5510 C 537.796 1.23489 -1.60867 0
M  V30 5511 C 538.129 1.91809 -0.303827 0
M  V30 5512 O 537.404 1.81694 0.694092 0
M  V30 5513 C 537.687 2.28578 -2.78252 0
M  V30 5514 C 537.54 1.64624 -4.18592 0
M  V30 5515 C 538.859 3.2997 -2.91218 0
M  V30 5516 H 535.978 0.447605 -0.585507 0
M  V30 5517 H 538.62 0.530005 -1.82458 0
M  V30 5518 H 536.77 2.88697 -2.59974 0
M  V30 5519 H 538.442 1.08173 -4.48438 0
M  V30 5520 H 536.685 0.949645 -4.23278 0
M  V30 5521 H 537.356 2.40946 -4.96638 0
M  V30 5522 H 539.832 2.79864 -3.07921 0
M  V30 5523 H 538.708 4.00839 -3.74993 0
M  V30 5524 H 538.969 3.93541 -2.0144 0
M  V30 5525 N 538.028 1.39524 0.732853 0
M  V30 5526 C 538.961 1.32806 1.85574 0
M  V30 5527 C 539.939 0.201354 1.61348 0
M  V30 5528 O 541.123 0.38216 1.84585 0
M  V30 5529 C 538.25 1.06271 3.21596 0
M  V30 5530 C 537.296 2.21161 3.64678 0
M  V30 5531 S 538.129 3.83454 3.73796 0
M  V30 5532 C 539.285 3.59149 5.12604 0
M  V30 5533 H 539.518 2.27838 1.9099 0
M  V30 5534 H 537.051 1.25605 0.897927 0
M  V30 5535 H 539.009 0.916461 4.00139 0
M  V30 5536 H 537.67 0.129223 3.13834 0
M  V30 5537 H 536.863 1.98193 4.63396 0
M  V30 5538 H 536.465 2.32 2.93346 0
M  V30 5539 H 538.757 3.16547 5.99003 0
M  V30 5540 H 539.7 4.57335 5.40602 0
M  V30 5541 H 540.108 2.93203 4.82382 0
M  V30 5542 N 539.506 -0.963266 1.24736 0
M  V30 5543 C 540.922 -1.23273 1.01371 0
M  V30 5544 C 541.122 -1.99618 -0.274776 0
M  V30 5545 O 540.178 -2.32293 -0.989769 0
M  V30 5546 C 541.491 -2.01554 2.23152 0
M  V30 5547 C 543.039 -2.14629 2.27823 0
M  V30 5548 C 543.514 -2.96307 3.49237 0
M  V30 5549 N 545.005 -3.03887 3.49581 0
M  V30 5550 C 545.74 -3.67456 4.40186 0
M  V30 5551 N 545.236 -4.32706 5.41052 0
M  V30 5552 N 547.029 -3.64511 4.27888 0
M  V30 5553 H 539.18 -0.452294 2.07528 0
M  V30 5554 H 541.443 -0.262521 0.910926 0
M  V30 5555 H 541.149 -1.52847 3.1675 0
M  V30 5556 H 541.023 -3.02278 2.25628 0
M  V30 5557 H 543.41 -2.62537 1.34753 0
M  V30 5558 H 543.491 -1.13238 2.2937 0
M  V30 5559 H 543.135 -2.49091 4.42624 0
M  V30 5560 H 543.065 -3.97905 3.44933 0
M  V30 5561 H 545.556 -2.57477 2.76611 0
M  V30 5562 H 545.869 -4.79042 6.06415 0
M  V30 5563 H 544.214 -4.31361 5.44934 0
M  V30 5564 H 547.405 -3.12715 3.4832 0
M  V30 5565 H 547.578 -4.13768 4.98698 0
M  V30 5566 N 540.985 -1.06182 -1.16461 0
M  V30 5567 C 542.234 -0.772927 -1.86303 0
M  V30 5568 C 542.547 0.703187 -1.82523 0
M  V30 5569 O 543.753 1.10641 -2.47933 0
M  V30 5570 C 542.209 -1.33249 -3.34324 0
M  V30 5571 C 541.817 -2.83876 -3.46581 0
M  V30 5572 C 543.561 -1.12108 -4.09429 0
M  V30 5573 C 541.468 -3.33082 -4.88682 0
M  V30 5574 H 540.398 -0.285452 -0.697878 0
M  V30 5575 H 543.049 -1.28039 -1.31447 0
M  V30 5576 H 541.431 -0.7528 -3.88779 0
M  V30 5577 H 542.605 -3.47786 -3.02293 0
M  V30 5578 H 540.92 -3.03671 -2.84909 0
M  V30 5579 H 543.517 -1.46361 -5.14279 0
M  V30 5580 H 543.86 -0.0593832 -4.16258 0
M  V30 5581 H 544.393 -1.6665 -3.6121 0
M  V30 5582 H 541.132 -4.38726 -4.87032 0
M  V30 5583 H 540.652 -2.73919 -5.33599 0
M  V30 5584 H 542.331 -3.28344 -5.57494 0
M  V30 5585 N 542.463 1.3308 -0.844243 0
M  V30 5586 C 543.703 1.99414 -0.448697 0
M  V30 5587 C 544.067 1.65398 0.975058 0
M  V30 5588 O 545.268 2.24741 1.47461 0
M  V30 5589 C 543.539 3.51081 -0.669089 0
M  V30 5590 S 545.098 4.37241 -0.369564 0
M  V30 5591 H 541.916 0.690736 -0.168538 0
M  V30 5592 H 544.518 1.61977 -1.0947 0
M  V30 5593 H 543.222 3.73326 -1.70457 0
M  V30 5594 H 542.753 3.93399 -0.00913211 0
M  V30 5595 H 544.768 4.89568 0.808552 0
M  V30 5596 N 543.941 0.601185 1.45683 0
M  V30 5597 C 544.889 -0.133955 2.32214 0
M  V30 5598 C 545.883 -0.866034 1.45589 0
M  V30 5599 O 547.089 -0.782326 1.6211 0
M  V30 5600 H 543.464 -0.0620613 0.749435 0
M  V30 5601 H 545.435 0.614389 2.92007 0
M  V30 5602 C 544.184 -1.12216 3.29094 0
M  V30 5603 H 543.507 -0.568273 3.95741 0
M  V30 5604 H 544.947 -1.60659 3.92383 0
M  V30 5605 C 543.406 -2.19251 2.55794 0
M  V30 5606 O 543.936 -3.26894 2.33459 0
M  V30 5607 N 542.142 -1.9436 2.16039 0
M  V30 5608 H 541.689 -1.06829 2.34404 0
M  V30 5609 H 541.647 -2.66181 1.67318 0
M  V30 5610 N 545.419 -1.53889 0.339982 0
M  V30 5611 C 546.349 -2.27843 -0.510856 0
M  V30 5612 C 547.33 -1.29267 -1.10563 0
M  V30 5613 O 548.515 -1.58104 -1.12768 0
M  V30 5614 C 545.645 -3.04857 -1.66372 0
M  V30 5615 C 544.599 -4.10907 -1.19746 0
M  V30 5616 C 543.925 -4.75855 -2.43857 0
M  V30 5617 C 545.225 -5.21435 -0.300501 0
M  V30 5618 H 546.919 -2.99212 0.106067 0
M  V30 5619 H 544.465 -1.43904 0.0524533 0
M  V30 5620 H 546.418 -3.5533 -2.26537 0
M  V30 5621 H 545.142 -2.31133 -2.30749 0
M  V30 5622 H 543.801 -3.61342 -0.618654 0
M  V30 5623 H 543.449 -3.9873 -3.06633 0
M  V30 5624 H 543.149 -5.47502 -2.13343 0
M  V30 5625 H 544.673 -5.2911 -3.04754 0
M  V30 5626 H 546.087 -5.67565 -0.80889 0
M  V30 5627 H 544.484 -6.00036 -0.0874076 0
M  V30 5628 H 545.554 -4.80328 0.664321 0
M  V30 5629 N 546.897 -0.0685191 -1.57451 0
M  V30 5630 C 548.146 0.600898 -1.92541 0
M  V30 5631 C 548.459 1.70967 -0.950239 0
M  V30 5632 O 549.665 2.43844 -1.19384 0
M  V30 5633 C 548.121 1.12019 -3.42023 0
M  V30 5634 C 547.729 0.0426028 -4.4798 0
M  V30 5635 C 549.473 1.76386 -3.86119 0
M  V30 5636 C 547.38 0.575759 -5.88591 0
M  V30 5637 H 546.31 0.228225 -0.71863 0
M  V30 5638 H 548.961 -0.140223 -1.82963 0
M  V30 5639 H 547.343 1.91418 -3.46663 0
M  V30 5640 H 548.517 -0.73182 -4.54952 0
M  V30 5641 H 546.832 -0.504642 -4.13331 0
M  V30 5642 H 549.429 2.17302 -4.88553 0
M  V30 5643 H 549.772 2.62255 -3.23308 0
M  V30 5644 H 550.305 1.03615 -3.84069 0
M  V30 5645 H 547.044 -0.245691 -6.55039 0
M  V30 5646 H 546.564 1.31778 -5.85145 0
M  V30 5647 H 548.243 1.0532 -6.3837 0
M  V30 5648 N 548.375 1.56261 0.205012 0
M  V30 5649 C 549.6 1.84491 0.947512 0
M  V30 5650 C 550.025 0.650894 1.76479 0
M  V30 5651 O 549.383 -0.40035 1.76824 0
M  V30 5652 C 549.431 3.10863 1.82747 0
M  V30 5653 O 548.535 2.90719 2.925 0
M  V30 5654 H 547.876 0.607783 0.267386 0
M  V30 5655 H 550.406 2.03485 0.213323 0
M  V30 5656 H 550.416 3.41399 2.23407 0
M  V30 5657 H 549.091 3.97392 1.2269 0
M  V30 5658 H 547.668 2.71457 2.55667 0
M  V30 5659 N 549.853 -0.472356 1.50355 0
M  V30 5660 C 550.786 -1.58923 1.63764 0
M  V30 5661 C 551.764 -1.55173 0.485793 0
M  V30 5662 O 552.948 -1.74815 0.705132 0
M  V30 5663 C 550.075 -2.97497 1.61905 0
M  V30 5664 C 549.121 -3.19405 2.82635 0
M  V30 5665 S 549.954 -2.99441 4.43954 0
M  V30 5666 C 551.11 -4.40359 4.44786 0
M  V30 5667 H 551.343 -1.47309 2.58239 0
M  V30 5668 H 548.876 -0.659601 1.39602 0
M  V30 5669 H 550.834 -3.77389 1.61518 0
M  V30 5670 H 549.495 -3.06502 0.686683 0
M  V30 5671 H 548.688 -4.20636 2.77636 0
M  V30 5672 H 548.29 -2.47283 2.80583 0
M  V30 5673 H 550.582 -5.32969 4.1827 0
M  V30 5674 H 551.525 -4.50403 5.46391 0
M  V30 5675 H 551.933 -4.22378 3.74509 0
M  V30 5676 N 551.331 -1.39911 -0.725443 0
M  V30 5677 C 552.264 -1.33788 -1.84867 0
M  V30 5678 C 553.242 -0.209907 -1.61239 0
M  V30 5679 O 554.426 -0.391943 -1.8438 0
M  V30 5680 C 551.553 -1.07975 -3.21028 0
M  V30 5681 C 550.599 -2.23092 -3.635 0
M  V30 5682 S 551.432 -3.85431 -3.71757 0
M  V30 5683 C 552.588 -3.61862 -5.10692 0
M  V30 5684 H 552.821 -2.28848 -1.89779 0
M  V30 5685 H 550.354 -1.26079 -0.891254 0
M  V30 5686 H 552.312 -0.937669 -3.99647 0
M  V30 5687 H 550.973 -0.145865 -3.13761 0
M  V30 5688 H 550.166 -2.00647 -4.62338 0
M  V30 5689 H 549.768 -2.33553 -2.92112 0
M  V30 5690 H 552.06 -3.19719 -5.97316 0
M  V30 5691 H 553.003 -4.60196 -5.38169 0
M  V30 5692 H 553.411 -2.95757 -4.8082 0
M  V30 5693 N 552.809 0.956637 -1.25245 0
M  V30 5694 C 553.739 2.07058 -1.07931 0
M  V30 5695 C 554.72 1.70096 0.0110361 0
M  V30 5696 O 555.905 1.93555 -0.158121 0
M  V30 5697 C 553.035 3.40272 -0.695124 0
M  V30 5698 C 551.989 3.91235 -1.73549 0
M  V30 5699 C 551.315 5.20921 -1.20604 0
M  V30 5700 C 552.615 4.17837 -3.13385 0
M  V30 5701 H 554.309 2.218 -2.01109 0
M  V30 5702 H 551.855 1.06581 -0.968326 0
M  V30 5703 H 553.808 4.1765 -0.560949 0
M  V30 5704 H 552.532 3.25462 0.272355 0
M  V30 5705 H 551.191 3.16025 -1.85807 0
M  V30 5706 H 550.839 5.02479 -0.228846 0
M  V30 5707 H 550.539 5.55987 -1.90136 0
M  V30 5708 H 552.063 6.00897 -1.08421 0
M  V30 5709 H 553.477 4.8588 -3.04292 0
M  V30 5710 H 551.874 4.64154 -3.80369 0
M  V30 5711 H 552.944 3.2419 -3.60595 0
M  V30 5712 N 554.287 1.06798 1.15896 0
M  V30 5713 C 555.217 0.704677 2.22613 0
M  V30 5714 C 556.198 -0.305252 1.67339 0
M  V30 5715 O 557.383 -0.179247 1.93371 0
M  V30 5716 C 554.513 0.0957325 3.47168 0
M  V30 5717 C 553.467 1.0322 4.15367 0
M  V30 5718 C 552.793 0.286293 5.33933 0
M  V30 5719 C 554.093 2.36341 4.65768 0
M  V30 5720 H 555.787 1.59688 2.53259 0
M  V30 5721 H 553.333 0.769257 1.21731 0
M  V30 5722 H 555.286 -0.170333 4.21056 0
M  V30 5723 H 554.01 -0.831516 3.15838 0
M  V30 5724 H 552.669 1.28309 3.43413 0
M  V30 5725 H 552.317 -0.644237 4.98857 0
M  V30 5726 H 552.017 0.910436 5.80504 0
M  V30 5727 H 553.541 0.0278938 6.10594 0
M  V30 5728 H 554.955 2.1561 5.31211 0
M  V30 5729 H 553.352 2.94299 5.2298 0
M  V30 5730 H 554.422 2.99047 3.81705 0
M  V30 5731 N 555.766 -1.3263 0.851289 0
M  V30 5732 C 556.696 -2.31449 0.308771 0
M  V30 5733 C 557.677 -1.59531 -0.590255 0
M  V30 5734 O 558.862 -1.87351 -0.511205 0
M  V30 5735 C 555.992 -3.43586 -0.506548 0
M  V30 5736 C 554.946 -4.26963 0.297753 0
M  V30 5737 C 554.272 -5.30831 -0.642094 0
M  V30 5738 C 555.572 -4.99643 1.52166 0
M  V30 5739 H 557.266 -2.77074 1.13447 0
M  V30 5740 H 554.812 -1.33207 0.546971 0
M  V30 5741 H 556.765 -4.11754 -0.896474 0
M  V30 5742 H 555.489 -2.96681 -1.36558 0
M  V30 5743 H 554.148 -3.60437 0.669391 0
M  V30 5744 H 553.796 -4.8018 -1.49788 0
M  V30 5745 H 553.496 -5.87501 -0.107968 0
M  V30 5746 H 555.02 -6.01862 -1.02927 0
M  V30 5747 H 556.434 -5.6051 1.20421 0
M  V30 5748 H 554.831 -5.66022 1.99347 0
M  V30 5749 H 555.901 -4.27701 2.28474 0
M  V30 5750 N 557.244 -0.608902 -1.45362 0
M  V30 5751 C 558.484 -0.10763 -2.04116 0
M  V30 5752 C 558.848 1.23883 -1.46686 0
M  V30 5753 O 560.049 1.83091 -1.96803 0
M  V30 5754 C 558.32 -0.0703351 -3.57331 0
M  V30 5755 S 559.879 0.369554 -4.37241 0
M  V30 5756 H 556.697 -0.0502123 -0.709225 0
M  V30 5757 H 559.299 -0.8073 -1.78053 0
M  V30 5758 H 558.003 -1.05379 -3.9664 0
M  V30 5759 H 557.534 0.651287 -3.87971 0
M  V30 5760 H 559.549 1.61878 -4.69052 0
M  V30 5761 N 558.722 1.53707 -0.348139 0
M  V30 5762 C 559.672 2.2193 0.522592 0
M  V30 5763 C 560.656 1.20831 1.06248 0
M  V30 5764 O 561.848 1.46357 0.995415 0
M  V30 5765 C 558.977 2.99904 1.6707 0
M  V30 5766 C 558.063 4.08364 1.14454 0
M  V30 5767 N 558.454 5.04656 0.339958 0
M  V30 5768 C 556.752 4.22757 1.421 0
M  V30 5769 C 557.453 5.81675 0.0538806 0
M  V30 5770 N 556.429 5.39739 0.646776 0
M  V30 5771 H 560.231 2.93733 -0.099135 0
M  V30 5772 H 557.745 1.61656 -0.15524 0
M  V30 5773 H 559.742 3.47284 2.30651 0
M  V30 5774 H 558.402 2.29629 2.29566 0
M  V30 5775 H 559.413 5.17896 -0.0193552 0
M  V30 5776 H 556.09 3.63704 2.05002 0
M  V30 5777 H 557.48 6.69256 -0.595443 0
M  V30 5778 N 560.2 0.0768682 1.57412 0
M  V30 5779 C 561.446 -0.585926 1.94778 0
M  V30 5780 C 561.801 -1.66912 0.956982 0
M  V30 5781 O 561.094 -1.9159 -0.0199454 0
M  V30 5782 C 561.288 -1.20268 3.36557 0
M  V30 5783 C 561.117 -0.18076 4.49337 0
M  V30 5784 C 559.887 0.236362 5.04747 0
M  V30 5785 C 562.085 0.583978 5.10974 0
M  V30 5786 N 560.067 1.24846 6.01071 0
M  V30 5787 C 561.438 1.44841 6.02844 0
M  V30 5788 C 563.493 0.639492 4.93776 0
M  V30 5789 C 562.196 2.36343 6.79363 0
M  V30 5790 C 564.222 1.54204 5.70942 0
M  V30 5791 C 563.584 2.39414 6.62465 0
M  V30 5792 H 559.683 -0.185281 0.759734 0
M  V30 5793 H 562.267 0.155193 1.9408 0
M  V30 5794 H 560.438 -1.9137 3.37982 0
M  V30 5795 H 562.17 -1.82636 3.61146 0
M  V30 5796 H 558.925 -0.14777 4.73369 0
M  V30 5797 H 559.349 1.75217 6.53933 0
M  V30 5798 H 563.991 -0.00510074 4.228 0
M  V30 5799 H 561.709 3.01836 7.49614 0
M  V30 5800 H 565.295 1.5899 5.59655 0
M  V30 5801 H 564.175 3.0812 7.21132 0
M  V30 5802 N 561.678 -1.56367 -0.196722 0
M  V30 5803 C 562.955 -1.71359 -0.943159 0
M  V30 5804 C 563.335 -0.631192 -2.01443 0
M  V30 5805 O 562.683 0.358071 -2.25677 0
M  V30 5806 C 562.893 -3.13623 -1.53106 0
M  V30 5807 C 564.241 -3.73806 -2.01381 0
M  V30 5808 O 565.265 -3.16742 -1.62951 0
M  V30 5809 O 564.124 -4.73951 -2.7209 0
M  V30 5810 H 561.218 -0.698851 -0.442195 0
M  V30 5811 H 563.764 -1.68672 -0.186547 0
M  V30 5812 H 562.536 -3.83873 -0.758785 0
M  V30 5813 H 562.159 -3.20532 -2.35255 0
M  V30 5814 N 563.156 0.464375 -1.50603 0
M  V30 5815 C 564.404 1.21356 -1.61608 0
M  V30 5816 C 564.725 1.92329 -0.321643 0
M  V30 5817 O 563.995 1.84403 0.661232 0
M  V30 5818 H 562.575 0.45094 -0.595535 0
M  V30 5819 H 565.237 0.535046 -1.87412 0
M  V30 5820 H 564.333 1.95783 -2.43054 0
M  V30 5821 N 564.634 1.40294 0.718013 0
M  V30 5822 C 565.874 1.39888 1.49032 0
M  V30 5823 C 566.238 -0.000462935 1.92 0
M  V30 5824 O 567.439 -0.129622 2.68487 0
M  V30 5825 C 565.71 2.35868 2.68516 0
M  V30 5826 S 567.269 2.53799 3.57954 0
M  V30 5827 H 564.087 0.495849 0.509563 0
M  V30 5828 H 566.689 1.76541 0.839846 0
M  V30 5829 H 565.393 3.36375 2.35117 0
M  V30 5830 H 564.924 2.0049 3.38478 0
M  V30 5831 H 566.939 1.78859 4.62843 0
M  V30 5832 N 566.112 -0.949982 1.2575 0
M  V30 5833 C 567.042 -2.06483 1.09028 0
M  V30 5834 C 568.023 -1.701 -0.00201532 0
M  V30 5835 O 569.208 -1.93469 0.168383 0
M  V30 5836 C 566.338 -3.39899 0.71316 0
M  V30 5837 C 565.292 -3.90309 1.75621 0
M  V30 5838 C 564.618 -5.20274 1.23365 0
M  V30 5839 C 565.918 -4.16169 3.15596 0
M  V30 5840 H 567.612 -2.20731 2.02283 0
M  V30 5841 H 565.158 -1.06066 0.973964 0
M  V30 5842 H 567.111 -4.17346 0.58309 0
M  V30 5843 H 565.835 -3.25602 -0.255091 0
M  V30 5844 H 564.494 -3.15035 1.8748 0
M  V30 5845 H 564.142 -5.02351 0.255491 0
M  V30 5846 H 563.842 -5.54971 1.93082 0
M  V30 5847 H 565.366 -6.00314 1.11607 0
M  V30 5848 H 566.78 -4.84259 3.06864 0
M  V30 5849 H 565.177 -4.62131 3.82825 0
M  V30 5850 H 566.247 -3.22273 3.6231 0
M  V30 5851 N 567.59 -1.07411 -1.15328 0
M  V30 5852 C 568.522 -0.652924 -2.19703 0
M  V30 5853 C 569.535 0.294869 -1.60107 0
M  V30 5854 O 570.724 0.0840932 -1.78302 0
M  V30 5855 C 567.824 0.061434 -3.38844 0
M  V30 5856 C 566.997 -0.902696 -4.27984 0
M  V30 5857 C 566.056 -0.225521 -5.25717 0
M  V30 5858 O 565.082 -0.86676 -5.62562 0
M  V30 5859 N 566.284 1.02858 -5.71315 0
M  V30 5860 H 569.049 -1.55081 -2.56457 0
M  V30 5861 H 566.61 -0.958883 -1.30449 0
M  V30 5862 H 568.602 0.525145 -4.01278 0
M  V30 5863 H 567.172 0.861269 -3.00501 0
M  V30 5864 H 566.392 -1.54551 -3.6264 0
M  V30 5865 H 567.68 -1.55636 -4.84412 0
M  V30 5866 H 567.078 1.56948 -5.43492 0
M  V30 5867 H 565.635 1.43596 -6.35786 0
M  V30 5868 N 569.068 1.32177 -0.85831 0
M  V30 5869 C 570.315 1.97125 -0.463484 0
M  V30 5870 C 570.643 1.67907 0.981705 0
M  V30 5871 O 569.898 0.961717 1.70439 0
M  V30 5872 C 570.197 3.51372 -0.653658 0
M  V30 5873 C 569.863 4.00584 -2.06987 0
M  V30 5874 C 568.525 4.13733 -2.4572 0
M  V30 5875 C 570.877 4.26624 -2.99402 0
M  V30 5876 C 568.205 4.50268 -3.76132 0
M  V30 5877 C 570.557 4.64618 -4.29316 0
M  V30 5878 C 569.221 4.75975 -4.67979 0
M  V30 5879 H 568.491 0.72133 -0.169601 0
M  V30 5880 H 571.138 1.57517 -1.08907 0
M  V30 5881 H 569.443 3.91761 0.0551328 0
M  V30 5882 H 571.14 3.99655 -0.328163 0
M  V30 5883 H 567.73 3.90837 -1.75911 0
M  V30 5884 H 571.914 4.1597 -2.70708 0
M  V30 5885 H 567.17 4.57256 -4.05865 0
M  V30 5886 H 571.344 4.83722 -5.00985 0
M  V30 5887 H 568.971 5.04041 -5.69076 0
M  V30 5888 N 570.547 0.616602 1.45037 0
M  V30 5889 C 571.477 -0.0840787 2.33349 0
M  V30 5890 C 572.458 -0.849641 1.4736 0
M  V30 5891 O 573.643 -0.818407 1.76113 0
M  V30 5892 C 570.773 -1.07604 3.3021 0
M  V30 5893 C 569.727 -0.423096 4.25904 0
M  V30 5894 C 569.053 -1.52394 5.12523 0
M  V30 5895 C 570.353 0.661457 5.18095 0
M  V30 5896 H 572.047 0.653333 2.92185 0
M  V30 5897 H 569.593 0.315634 1.40498 0
M  V30 5898 H 571.546 -1.57485 3.90866 0
M  V30 5899 H 570.27 -1.84416 2.69552 0
M  V30 5900 H 568.929 0.05493 3.66559 0
M  V30 5901 H 568.577 -2.28257 4.48227 0
M  V30 5902 H 568.277 -1.09251 5.77354 0
M  V30 5903 H 569.801 -2.02485 5.76049 0
M  V30 5904 H 571.215 0.246353 5.7277 0
M  V30 5905 H 569.612 1.01517 5.91451 0
M  V30 5906 H 570.682 1.53446 4.59981 0
M  V30 5907 N 572.025 -1.5352 0.356285 0
M  V30 5908 C 573.271 -2.01414 -0.236653 0
M  V30 5909 C 573.604 -1.24339 -1.49176 0
M  V30 5910 O 572.879 -0.334496 -1.91602 0
M  V30 5911 C 573.162 -3.56059 -0.537982 0
M  V30 5912 C 573.015 -4.43835 0.730112 0
M  V30 5913 C 574.334 -4.19127 -1.34239 0
M  V30 5914 H 571.453 -0.732135 -0.0845386 0
M  V30 5915 H 574.095 -1.83854 0.479341 0
M  V30 5916 H 572.245 -3.71153 -1.14795 0
M  V30 5917 H 573.917 -4.40555 1.36782 0
M  V30 5918 H 572.16 -4.1218 1.3524 0
M  V30 5919 H 572.831 -5.49958 0.474358 0
M  V30 5920 H 575.307 -4.07809 -0.826498 0
M  V30 5921 H 574.183 -5.27378 -1.52198 0
M  V30 5922 H 574.444 -3.74581 -2.34822 0
M  V30 5923 N 573.503 -0.0852151 -1.57369 0
M  V30 5924 C 574.914 0.445428 -1.81309 0
M  V30 5925 C 575.265 1.68795 -1.00013 0
M  V30 5926 O 574.39 2.15211 -0.226573 0
M  V30 5927 C 574.985 0.814887 -3.28854 0
M  V30 5928 C 573.544 1.29032 -3.53592 0
M  V30 5929 C 572.691 0.282089 -2.75861 0
M  V30 5930 H 575.642 -0.310771 -1.55627 0
M  V30 5931 H 575.663 1.67524 -3.41637 0
M  V30 5932 H 575.175 -0.0896309 -3.87996 0
M  V30 5933 H 573.276 2.21289 -2.9977 0
M  V30 5934 H 573.389 1.25898 -4.62262 0
M  V30 5935 H 571.753 0.762182 -2.43029 0
M  V30 5936 H 572.536 -0.614936 -3.37748 0
M  V30 5937 N 574.981 1.5647 0.188427 0
M  V30 5938 C 575.914 1.90146 1.26173 0
M  V30 5939 C 576.892 0.762294 1.43624 0
M  V30 5940 O 578.076 1.01395 1.58907 0
M  V30 5941 C 575.203 2.13748 2.62735 0
M  V30 5942 C 574.249 3.36448 2.62116 0
M  V30 5943 S 575.082 4.91364 2.12889 0
M  V30 5944 C 576.238 5.18041 3.51261 0
M  V30 5945 H 576.471 2.80886 0.974192 0
M  V30 5946 H 574.004 1.49335 0.392226 0
M  V30 5947 H 575.962 2.28028 3.41341 0
M  V30 5948 H 574.623 1.23747 2.88696 0
M  V30 5949 H 573.816 3.50109 3.62546 0
M  V30 5950 H 573.418 3.21196 1.91596 0
M  V30 5951 H 575.71 5.0897 4.47164 0
M  V30 5952 H 576.653 6.19764 3.42489 0
M  V30 5953 H 577.061 4.45657 3.46482 0
M  V30 5954 N 576.459 -0.456382 1.50847 0
M  V30 5955 C 577.389 -1.56025 1.73719 0
M  V30 5956 C 578.37 -1.5967 0.586473 0
M  V30 5957 O 579.555 -1.75702 0.827185 0
M  V30 5958 C 576.685 -2.94251 1.84483 0
M  V30 5959 C 575.639 -3.05471 2.99786 0
M  V30 5960 C 574.965 -4.45489 2.95709 0
M  V30 5961 C 576.265 -2.81318 4.40065 0
M  V30 5962 H 577.959 -1.37138 2.66146 0
M  V30 5963 H 575.505 -0.658299 1.28072 0
M  V30 5964 H 577.458 -3.71417 1.99067 0
M  V30 5965 H 576.182 -3.14328 0.886891 0
M  V30 5966 H 574.841 -2.30741 2.84876 0
M  V30 5967 H 574.489 -4.62505 1.97732 0
M  V30 5968 H 574.189 -4.53929 3.73125 0
M  V30 5969 H 575.713 -5.24655 3.12362 0
M  V30 5970 H 577.127 -3.48226 4.55425 0
M  V30 5971 H 575.524 -3.01188 5.19043 0
M  V30 5972 H 576.594 -1.7706 4.51418 0
M  V30 5973 N 577.937 -1.40673 -0.710563 0
M  V30 5974 C 578.869 -1.37256 -1.83558 0
M  V30 5975 C 579.882 -0.277133 -1.60424 0
M  V30 5976 O 581.071 -0.537831 -1.70205 0
M  V30 5977 C 578.171 -1.1144 -3.20054 0
M  V30 5978 C 577.344 -2.32734 -3.70342 0
M  V30 5979 C 576.403 -2.03002 -4.85465 0
M  V30 5980 O 575.429 -2.75912 -4.97857 0
M  V30 5981 N 576.631 -1.01105 -5.71627 0
M  V30 5982 H 579.396 -2.34215 -1.86985 0
M  V30 5983 H 576.957 -1.35091 -0.892301 0
M  V30 5984 H 578.949 -0.895265 -3.94673 0
M  V30 5985 H 577.519 -0.231307 -3.11743 0
M  V30 5986 H 576.739 -2.70446 -2.86798 0
M  V30 5987 H 578.027 -3.13584 -4.00678 0
M  V30 5988 H 577.425 -0.407303 -5.64232 0
M  V30 5989 H 575.982 -0.85182 -6.4621 0
M  V30 5990 N 579.415 0.9433 -1.26252 0
M  V30 5991 C 580.692 1.66639 -1.02424 0
M  V30 5992 C 581.072 2.06335 0.446006 0
M  V30 5993 O 580.42 1.78551 1.42589 0
M  V30 5994 C 580.63 2.88019 -1.97094 0
M  V30 5995 C 581.978 3.59718 -2.25584 0
M  V30 5996 O 583.002 2.9812 -1.94943 0
M  V30 5997 O 581.861 4.7066 -2.77743 0
M  V30 5998 H 578.955 0.729643 -0.389294 0
M  V30 5999 H 581.501 0.995218 -1.37454 0
M  V30 6000 H 580.273 2.5556 -2.96319 0
M  V30 6001 H 579.896 3.62863 -1.62532 0
M  V30 6002 N 580.893 1.08022 1.14757 0
M  V30 6003 C 582.14 0.807509 1.85703 0
M  V30 6004 C 582.468 -0.666617 1.8272 0
M  V30 6005 O 581.723 -1.50562 1.25018 0
M  V30 6006 C 582.022 1.26964 3.34088 0
M  V30 6007 C 581.688 2.7509 3.57262 0
M  V30 6008 C 580.35 3.15547 3.63296 0
M  V30 6009 C 582.702 3.70667 3.66409 0
M  V30 6010 C 580.03 4.50384 3.75994 0
M  V30 6011 C 582.382 5.05274 3.80632 0
M  V30 6012 C 581.046 5.45342 3.84913 0
M  V30 6013 H 580.316 0.295488 0.679535 0
M  V30 6014 H 582.963 1.35245 1.35577 0
M  V30 6015 H 581.268 0.644216 3.86467 0
M  V30 6016 H 582.965 1.03544 3.87401 0
M  V30 6017 H 579.555 2.42775 3.53212 0
M  V30 6018 H 583.739 3.40533 3.61041 0
M  V30 6019 H 578.995 4.80886 3.77569 0
M  V30 6020 H 583.169 5.79201 3.86652 0
M  V30 6021 H 580.796 6.49823 3.94505 0
M  V30 6022 N 582.371 -1.3172 0.865308 0
M  V30 6023 C 583.782 -1.79104 0.527126 0
M  V30 6024 C 584.133 -1.7135 -0.955695 0
M  V30 6025 O 583.258 -1.27845 -1.74598 0
M  V30 6026 C 583.853 -3.25207 0.950061 0
M  V30 6027 C 582.412 -3.70504 0.663611 0
M  V30 6028 C 581.559 -2.52605 1.14395 0
M  V30 6029 H 584.51 -1.18868 1.05148 0
M  V30 6030 H 584.531 -3.79535 0.270805 0
M  V30 6031 H 584.043 -3.30818 2.02931 0
M  V30 6032 H 582.144 -3.70398 -0.404474 0
M  V30 6033 H 582.257 -4.62845 1.23737 0
M  V30 6034 H 580.621 -2.4838 0.563859 0
M  V30 6035 H 581.404 -2.60964 2.23053 0
M  V30 6036 N 583.85 -0.624285 -1.44708 0
M  V30 6037 C 585.266 -0.289322 -1.56956 0
M  V30 6038 C 585.466 1.20773 -1.61295 0
M  V30 6039 O 584.522 1.9915 -1.55227 0
M  V30 6040 C 585.835 -0.975215 -2.84447 0
M  V30 6041 C 587.383 -0.952709 -2.98148 0
M  V30 6042 C 587.858 -1.61893 -4.28433 0
M  V30 6043 N 589.349 -1.5852 -4.35231 0
M  V30 6044 C 590.084 -2.06969 -5.34744 0
M  V30 6045 N 589.58 -2.63579 -6.40701 0
M  V30 6046 N 591.373 -1.97638 -5.26209 0
M  V30 6047 H 583.524 -1.59612 -1.40135 0
M  V30 6048 H 585.787 -0.669592 -0.671081 0
M  V30 6049 H 585.493 -2.02999 -2.87201 0
M  V30 6050 H 585.367 -0.508749 -3.73753 0
M  V30 6051 H 587.754 0.093568 -2.94952 0
M  V30 6052 H 587.835 -1.4576 -2.10209 0
M  V30 6053 H 587.479 -2.66463 -4.32389 0
M  V30 6054 H 587.409 -1.08893 -5.15218 0
M  V30 6055 H 589.899 -1.17183 -3.59272 0
M  V30 6056 H 590.213 -2.98298 -7.12908 0
M  V30 6057 H 588.558 -2.67626 -6.41406 0
M  V30 6058 H 591.749 -1.5314 -4.42341 0
M  V30 6059 H 591.922 -2.35708 -6.03611 0
M  V30 6060 N 585.328 1.53329 -0.364422 0
M  V30 6061 C 586.276 2.27212 0.497737 0
M  V30 6062 C 587.27 1.30146 1.08437 0
M  V30 6063 O 588.476 1.47778 1.0277 0
M  V30 6064 H 584.851 0.730329 0.179232 0
M  V30 6065 H 586.822 2.98037 -0.147182 0
M  V30 6066 C 585.571 3.07333 1.6261 0
M  V30 6067 H 584.894 3.81866 1.184 0
M  V30 6068 H 586.334 3.62209 2.20409 0
M  V30 6069 C 584.793 2.18102 2.56775 0
M  V30 6070 O 585.323 1.79104 3.59562 0
M  V30 6071 N 583.529 1.82759 2.25937 0
M  V30 6072 H 583.076 2.14671 1.42387 0
M  V30 6073 H 583.034 1.23342 2.89196 0
M  V30 6074 N 586.806 0.0935595 1.57322 0
M  V30 6075 C 588.046 -0.573901 1.96178 0
M  V30 6076 C 588.41 -1.65445 0.97426 0
M  V30 6077 O 589.611 -2.37901 1.25126 0
M  V30 6078 C 587.882 -1.11612 3.39526 0
M  V30 6079 S 589.441 -1.79566 4.00377 0
M  V30 6080 H 586.259 -0.187315 0.685882 0
M  V30 6081 H 588.861 0.172597 1.94737 0
M  V30 6082 H 587.565 -0.31815 4.09165 0
M  V30 6083 H 587.096 -1.89848 3.4456 0
M  V30 6084 H 589.111 -3.07978 3.89056 0
M  V30 6085 N 588.284 -1.56567 -0.180126 0
M  V30 6086 C 589.53 -1.82658 -0.894859 0
M  V30 6087 C 589.885 -0.672826 -1.80252 0
M  V30 6088 O 589.178 0.331227 -1.88715 0
M  V30 6089 C 589.372 -3.1252 -1.73395 0
M  V30 6090 C 589.201 -4.40417 -0.909028 0
M  V30 6091 C 587.971 -5.01872 -0.587562 0
M  V30 6092 C 590.169 -5.13669 -0.254698 0
M  V30 6093 N 588.151 -6.13373 0.254428 0
M  V30 6094 C 589.522 -6.18373 0.448837 0
M  V30 6095 C 591.577 -4.97603 -0.171958 0
M  V30 6096 C 590.28 -7.08753 1.22725 0
M  V30 6097 C 592.306 -5.88418 0.593101 0
M  V30 6098 C 591.668 -6.92579 1.28503 0
M  V30 6099 H 587.767 -0.719493 -0.306356 0
M  V30 6100 H 590.351 -1.94021 -0.16247 0
M  V30 6101 H 588.522 -3.02365 -2.43783 0
M  V30 6102 H 590.254 -3.2664 -2.38931 0
M  V30 6103 H 587.009 -4.64666 -0.915557 0
M  V30 6104 H 587.433 -6.73721 0.665474 0
M  V30 6105 H 592.075 -4.17089 -0.692555 0
M  V30 6106 H 589.793 -7.88718 1.75923 0
M  V30 6107 H 593.379 -5.78059 0.658674 0
M  V30 6108 H 592.259 -7.61638 1.86754 0
M  V30 6109 N 589.762 0.448376 -1.51087 0
M  V30 6110 C 591.008 1.20049 -1.6345 0
M  V30 6111 C 591.341 1.91121 -0.344444 0
M  V30 6112 O 590.616 1.83125 0.655396 0
M  V30 6113 C 590.899 2.22624 -2.83038 0
M  V30 6114 C 590.752 1.55708 -4.21989 0
M  V30 6115 C 592.071 3.23718 -2.98152 0
M  V30 6116 H 589.19 0.435085 -0.59487 0
M  V30 6117 H 591.832 0.491183 -1.83541 0
M  V30 6118 H 589.982 2.83117 -2.66039 0
M  V30 6119 H 591.654 0.986367 -4.50631 0
M  V30 6120 H 589.897 0.859647 -4.25197 0
M  V30 6121 H 590.568 2.30357 -5.01637 0
M  V30 6122 H 593.044 2.73269 -3.13788 0
M  V30 6123 H 591.92 3.92795 -3.83411 0
M  V30 6124 H 592.181 3.89179 -2.09743 0
M  V30 6125 N 591.24 1.41047 0.703093 0
M  V30 6126 C 592.465 1.43537 1.49706 0
M  V30 6127 C 592.89 0.0401853 1.88057 0
M  V30 6128 O 592.248 -0.954785 1.54122 0
M  V30 6129 C 592.296 2.3433 2.74084 0
M  V30 6130 O 591.4 1.79515 3.71279 0
M  V30 6131 H 590.741 0.487454 0.450871 0
M  V30 6132 H 593.271 1.85422 0.86486 0
M  V30 6133 H 593.281 2.49947 3.22476 0
M  V30 6134 H 591.956 3.35708 2.45506 0
M  V30 6135 H 590.533 1.7331 3.30179 0
M  V30 6136 N 592.718 -0.936591 1.26751 0
M  V30 6137 C 593.967 -1.67778 1.11953 0
M  V30 6138 C 594.28 -1.92694 -0.33589 0
M  V30 6139 O 595.486 -2.64682 -0.604618 0
M  V30 6140 C 593.942 -3.02138 1.95551 0
M  V30 6141 C 593.55 -2.84953 3.45696 0
M  V30 6142 C 595.294 -3.79917 1.89377 0
M  V30 6143 C 593.201 -4.14814 4.21525 0
M  V30 6144 H 592.131 -0.629275 0.415366 0
M  V30 6145 H 594.782 -1.04122 1.51099 0
M  V30 6146 H 593.164 -3.668 1.49243 0
M  V30 6147 H 594.338 -2.29112 3.99805 0
M  V30 6148 H 592.653 -2.20612 3.53156 0
M  V30 6149 H 595.25 -4.76134 2.43312 0
M  V30 6150 H 595.593 -4.07204 0.865464 0
M  V30 6151 H 596.126 -3.22037 2.33532 0
M  V30 6152 H 592.865 -3.92709 5.24843 0
M  V30 6153 H 592.385 -4.70352 3.72195 0
M  V30 6154 H 594.064 -4.83239 4.3022 0
M  V30 6155 N 594.196 -1.08629 -1.14182 0
M  V30 6156 C 595.144 -0.71284 -2.21408 0
M  V30 6157 C 596.138 0.282457 -1.67029 0
M  V30 6158 O 597.344 0.144783 -1.79417 0
M  V30 6159 H 593.719 -0.212497 -0.721352 0
M  V30 6160 H 595.69 -1.6265 -2.50175 0
M  V30 6161 C 594.439 -0.140704 -3.47415 0
M  V30 6162 H 593.762 -0.897739 -3.8959 0
M  V30 6163 H 595.202 0.0827677 -4.23919 0
M  V30 6164 C 593.661 1.122 -3.17668 0
M  V30 6165 O 594.191 2.20652 -3.35672 0
M  V30 6166 N 592.397 1.03328 -2.71609 0
M  V30 6167 H 591.944 0.150666 -2.57159 0
M  V30 6168 H 591.902 1.8789 -2.52081 0
M  V30 6169 N 595.674 1.31259 -0.872281 0
M  V30 6170 C 596.922 1.96233 -0.483409 0
M  V30 6171 C 597.243 1.69276 0.968012 0
M  V30 6172 O 596.513 1.00943 1.67891 0
M  V30 6173 H 595.093 0.726025 -0.175774 0
M  V30 6174 H 597.755 1.60024 -1.11258 0
M  V30 6175 H 596.851 3.05403 -0.643075 0
M  V30 6176 N 597.152 0.631951 1.44375 0
M  V30 6177 C 598.085 -0.121822 2.27875 0
M  V30 6178 C 599.063 -0.850457 1.38586 0
M  V30 6179 O 600.247 -0.854378 1.68026 0
M  V30 6180 C 597.374 -1.17859 3.17533 0
M  V30 6181 C 596.42 -0.550391 4.22934 0
M  V30 6182 S 597.253 0.660145 5.31415 0
M  V30 6183 C 598.409 -0.396613 6.24642 0
M  V30 6184 H 598.642 0.586537 2.91457 0
M  V30 6185 H 596.175 0.420146 1.48574 0
M  V30 6186 H 598.133 -1.78335 3.69739 0
M  V30 6187 H 596.794 -1.85915 2.53169 0
M  V30 6188 H 595.987 -1.34631 4.85685 0
M  V30 6189 H 595.589 -0.0202306 3.73995 0
M  V30 6190 H 597.881 -1.26893 6.65511 0
M  V30 6191 H 598.824 0.195345 7.0783 0
M  V30 6192 H 599.232 -0.72288 5.59852 0
M  V30 6193 N 598.631 -1.53133 0.372548 0
M  V30 6194 C 599.877 -2.01654 -0.215277 0
M  V30 6195 C 600.21 -1.25914 -1.47849 0
M  V30 6196 O 599.485 -0.3548 -1.91237 0
M  V30 6197 C 599.768 -3.56609 -0.500187 0
M  V30 6198 C 599.621 -4.43036 0.777145 0
M  V30 6199 C 600.94 -4.20528 -1.29786 0
M  V30 6200 H 598.059 -0.732991 -0.0767686 0
M  V30 6201 H 600.701 -1.83335 0.498814 0
M  V30 6202 H 598.851 -3.7235 -1.10852 0
M  V30 6203 H 600.523 -4.39079 1.41447 0
M  V30 6204 H 598.766 -4.10723 1.39604 0
M  V30 6205 H 599.437 -5.49424 0.532662 0
M  V30 6206 H 601.913 -4.08663 -0.783198 0
M  V30 6207 H 600.789 -5.28962 -1.46596 0
M  V30 6208 H 601.05 -3.77051 -2.30836 0
M  V30 6209 N 600.109 -0.101901 -1.5727 0
M  V30 6210 C 601.057 0.872034 -2.15635 0
M  V30 6211 C 602.051 1.28742 -1.10099 0
M  V30 6212 O 603.257 1.26116 -1.28432 0
M  V30 6213 H 599.632 0.299269 -0.689886 0
M  V30 6214 H 601.603 0.355137 -2.96279 0
M  V30 6215 C 600.352 2.11886 -2.7568 0
M  V30 6216 H 599.675 1.80813 -3.56576 0
M  V30 6217 H 601.115 2.78077 -3.20077 0
M  V30 6218 C 599.574 2.89739 -1.7191 0
M  V30 6219 O 600.104 3.84522 -1.16213 0
M  V30 6220 N 598.31 2.53407 -1.42245 0
M  V30 6221 H 597.857 1.76398 -1.87727 0
M  V30 6222 H 597.815 3.05795 -0.730529 0
M  V30 6223 N 601.587 1.56661 0.17182 0
M  V30 6224 C 602.537 1.92781 1.21736 0
M  V30 6225 C 603.521 0.796065 1.39827 0
M  V30 6226 O 604.713 1.05924 1.41806 0
M  V30 6227 C 601.842 2.29079 2.55691 0
M  V30 6228 C 600.928 3.48765 2.41296 0
M  V30 6229 N 601.319 4.66022 1.96614 0
M  V30 6230 C 599.617 3.53362 2.72124 0
M  V30 6231 C 600.318 5.48159 1.94669 0
M  V30 6232 N 599.294 4.89189 2.37054 0
M  V30 6233 H 603.096 2.80926 0.863592 0
M  V30 6234 H 600.61 1.57889 0.380096 0
M  V30 6235 H 602.607 2.5315 3.31241 0
M  V30 6236 H 601.267 1.42272 2.91871 0
M  V30 6237 H 602.278 4.9025 1.66959 0
M  V30 6238 H 598.955 2.77033 3.12345 0
M  V30 6239 H 600.345 6.52121 1.61826 0
M  V30 6240 N 603.065 -0.440357 1.51323 0
M  V30 6241 C 604.29 -1.21716 1.67928 0
M  V30 6242 C 604.715 -1.84328 0.374826 0
M  V30 6243 O 604.073 -1.68675 -0.664706 0
M  V30 6244 C 604.121 -2.27914 2.79442 0
M  V30 6245 O 603.225 -3.33325 2.42834 0
M  V30 6246 H 602.566 -0.35674 0.560029 0
M  V30 6247 H 605.096 -0.520417 1.97871 0
M  V30 6248 H 605.106 -2.72746 3.03436 0
M  V30 6249 H 603.781 -1.8172 3.741 0
M  V30 6250 H 602.358 -2.9399 2.294 0
M  V30 6251 N 604.543 -1.41418 -0.695603 0
M  V30 6252 C 605.789 -1.41983 -1.45645 0
M  V30 6253 C 606.144 -0.0282216 -1.92379 0
M  V30 6254 O 605.437 0.945916 -1.66622 0
M  V30 6255 C 605.631 -2.36112 -2.68302 0
M  V30 6256 C 605.46 -3.84288 -2.33566 0
M  V30 6257 C 604.23 -4.52971 -2.23932 0
M  V30 6258 C 606.428 -4.75264 -1.96543 0
M  V30 6259 N 604.41 -5.86276 -1.82081 0
M  V30 6260 C 605.781 -5.97517 -1.6545 0
M  V30 6261 C 607.836 -4.62911 -1.83352 0
M  V30 6262 C 606.539 -7.08793 -1.22492 0
M  V30 6263 C 608.565 -5.74149 -1.41799 0
M  V30 6264 C 607.927 -6.95501 -1.11617 0
M  V30 6265 H 604.026 -0.574771 -0.530247 0
M  V30 6266 H 606.61 -1.77289 -0.804788 0
M  V30 6267 H 604.781 -2.02902 -3.31188 0
M  V30 6268 H 606.513 -2.27397 -3.34773 0
M  V30 6269 H 603.268 -4.06909 -2.42327 0
M  V30 6270 H 603.692 -6.56926 -1.63638 0
M  V30 6271 H 608.334 -3.69588 -2.05341 0
M  V30 6272 H 606.052 -8.01982 -0.992482 0
M  V30 6273 H 609.638 -5.66595 -1.32143 0
M  V30 6274 H 608.518 -7.80114 -0.799493 0
M  V30 6275 N 606.021 0.929856 -1.27246 0
M  V30 6276 C 607.246 1.71674 -1.16374 0
M  V30 6277 C 607.671 1.86064 0.276024 0
M  V30 6278 O 607.029 1.3591 1.19992 0
M  V30 6279 C 607.077 3.09526 -1.85003 0
M  V30 6280 O 606.181 3.96142 -1.14653 0
M  V30 6281 H 605.522 0.52629 -0.404863 0
M  V30 6282 H 608.052 1.16381 -1.68276 0
M  V30 6283 H 608.062 3.59852 -1.92276 0
M  V30 6284 H 606.737 2.98369 -2.89739 0
M  V30 6285 H 605.314 3.54584 -1.15433 0
M  V30 6286 N 607.499 1.09233 1.13605 0
M  V30 6287 C 608.409 0.741939 2.22559 0
M  V30 6288 C 609.425 -0.255236 1.72118 0
M  V30 6289 O 610.601 -0.0970747 2.01166 0
M  V30 6290 C 607.666 0.165595 3.46304 0
M  V30 6291 C 606.727 1.21846 4.11645 0
M  V30 6292 C 605.96 0.669526 5.29484 0
M  V30 6293 O 606.183 -0.508228 5.68131 0
M  V30 6294 O 605.117 1.42361 5.84822 0
M  V30 6295 H 608.943 1.65107 2.54899 0
M  V30 6296 H 606.528 0.866584 1.21699 0
M  V30 6297 H 608.41 -0.152592 4.21124 0
M  V30 6298 H 607.085 -0.716573 3.15669 0
M  V30 6299 H 605.992 1.58931 3.38662 0
M  V30 6300 H 607.325 2.07321 4.46407 0
M  V30 6301 N 608.977 -1.30795 0.87923 0
M  V30 6302 C 609.907 -2.30742 0.357796 0
M  V30 6303 C 610.888 -1.60747 -0.556283 0
M  V30 6304 O 612.073 -1.88393 -0.47135 0
M  V30 6305 C 609.203 -3.44583 -0.433555 0
M  V30 6306 C 608.157 -4.26235 0.388251 0
M  V30 6307 C 607.483 -5.32073 -0.529352 0
M  V30 6308 C 608.783 -4.96303 1.62729 0
M  V30 6309 H 610.477 -2.74605 1.19299 0
M  V30 6310 H 608.023 -1.32017 0.575104 0
M  V30 6311 H 609.976 -4.13563 -0.808934 0
M  V30 6312 H 608.7 -2.99511 -1.30234 0
M  V30 6313 H 607.359 -3.58936 0.745695 0
M  V30 6314 H 607.007 -4.83249 -1.39569 0
M  V30 6315 H 606.707 -5.87598 0.0166741 0
M  V30 6316 H 608.231 -6.0391 -0.901373 0
M  V30 6317 H 609.645 -5.5783 1.32283 0
M  V30 6318 H 608.042 -5.61666 2.11309 0
M  V30 6319 H 609.112 -4.22758 2.37494 0
M  V30 6320 N 610.455 -0.639598 -1.44038 0
M  V30 6321 C 611.685 -0.154586 -2.06021 0
M  V30 6322 C 612.093 1.17951 -1.47933 0
M  V30 6323 O 611.436 1.73627 -0.59994 0
M  V30 6324 C 611.498 0.0255459 -3.59491 0
M  V30 6325 C 611.162 -1.2317 -4.40089 0
M  V30 6326 C 612.159 -2.15735 -4.73027 0
M  V30 6327 C 609.844 -1.46949 -4.80324 0
M  V30 6328 C 611.838 -3.30382 -5.45093 0
M  V30 6329 C 609.525 -2.61891 -5.52138 0
M  V30 6330 C 610.523 -3.53433 -5.84443 0
M  V30 6331 O 610.211 -4.6637 -6.54793 0
M  V30 6332 H 609.943 -0.0808543 -0.671147 0
M  V30 6333 H 612.497 -0.876541 -1.85758 0
M  V30 6334 H 610.727 0.802733 -3.78276 0
M  V30 6335 H 612.416 0.466184 -4.03214 0
M  V30 6336 H 613.182 -1.98602 -4.42473 0
M  V30 6337 H 609.061 -0.765815 -4.54595 0
M  V30 6338 H 612.605 -4.01856 -5.70226 0
M  V30 6339 H 608.502 -2.78964 -5.82108 0
M  V30 6340 H 609.27 -4.6546 -6.73267 0
M  V30 6341 N 611.933 1.52934 -0.380664 0
M  V30 6342 C 613.158 2.06363 0.207157 0
M  V30 6343 C 613.583 1.25122 1.4045 0
M  V30 6344 O 612.941 0.274062 1.79217 0
M  V30 6345 C 612.989 3.56162 0.563996 0
M  V30 6346 O 612.093 3.77552 1.65917 0
M  V30 6347 H 611.434 0.663468 0.0265859 0
M  V30 6348 H 613.964 1.9719 -0.545635 0
M  V30 6349 H 613.974 3.99453 0.830752 0
M  V30 6350 H 612.649 4.14732 -0.311427 0
M  V30 6351 H 611.226 3.46154 1.3868 0
M  V30 6352 N 613.412 0.11024 1.57214 0
M  V30 6353 C 614.659 -0.54987 1.94891 0
M  V30 6354 C 614.987 -1.67243 0.992984 0
M  V30 6355 O 614.242 -1.95694 0.0152703 0
M  V30 6356 C 614.541 -1.13102 3.39032 0
M  V30 6357 C 614.207 -0.130713 4.5071 0
M  V30 6358 C 612.869 0.14437 4.80983 0
M  V30 6359 C 615.221 0.551472 5.18274 0
M  V30 6360 C 612.549 1.10807 5.76141 0
M  V30 6361 C 614.901 1.50375 6.14467 0
M  V30 6362 C 613.565 1.78691 6.43138 0
M  V30 6363 H 612.835 -0.201212 0.713158 0
M  V30 6364 H 615.482 0.189288 1.90562 0
M  V30 6365 H 613.787 -1.94675 3.40013 0
M  V30 6366 H 615.484 -1.64973 3.65493 0
M  V30 6367 H 612.074 -0.355301 4.27125 0
M  V30 6368 H 616.258 0.35211 4.95049 0
M  V30 6369 H 611.514 1.3343 5.96663 0
M  V30 6370 H 615.688 2.03808 6.65909 0
M  V30 6371 H 613.315 2.53522 7.1668 0
M  V30 6372 N 614.89 -1.56749 -0.16351 0
M  V30 6373 C 615.853 -1.96121 -1.18613 0
M  V30 6374 C 616.853 -0.845765 -1.36761 0
M  V30 6375 O 618.043 -1.11268 -1.34033 0
M  V30 6376 C 615.175 -2.26282 -2.54969 0
M  V30 6377 H 616.368 -2.87639 -0.848764 0
M  V30 6378 H 613.921 -1.50928 -0.406251 0
M  V30 6379 H 614.656 -1.37504 -2.93706 0
M  V30 6380 H 614.441 -3.07595 -2.43162 0
M  V30 6381 H 615.931 -2.57638 -3.28653 0
M  V30 6382 N 616.368 0.432326 -1.51554 0
M  V30 6383 C 617.298 1.53242 -1.76179 0
M  V30 6384 C 618.279 1.58717 -0.611801 0
M  V30 6385 O 619.464 1.74364 -0.855033 0
M  V30 6386 C 616.594 2.91278 -1.89141 0
M  V30 6387 C 615.548 3.00663 -3.04608 0
M  V30 6388 C 614.874 4.40728 -3.02759 0
M  V30 6389 C 616.174 2.74281 -4.44485 0
M  V30 6390 H 617.868 1.32886 -2.68294 0
M  V30 6391 H 615.414 0.637841 -1.29103 0
M  V30 6392 H 617.367 3.68203 -2.04951 0
M  V30 6393 H 616.091 3.12877 -0.936785 0
M  V30 6394 H 614.75 2.26179 -2.88511 0
M  V30 6395 H 614.398 4.59301 -2.05065 0
M  V30 6396 H 614.098 4.47936 -3.80299 0
M  V30 6397 H 615.622 5.19619 -3.20669 0
M  V30 6398 H 617.036 3.40936 -4.60907 0
M  V30 6399 H 615.433 2.92893 -5.23769 0
M  V30 6400 H 616.503 1.69856 -4.54177 0
M  V30 6401 N 617.846 1.41785 0.688094 0
M  V30 6402 C 619.093 1.41544 1.44816 0
M  V30 6403 C 619.421 0.0271746 1.94481 0
M  V30 6404 O 618.676 -0.962235 1.7041 0
M  V30 6405 C 618.975 2.37532 2.67046 0
M  V30 6406 C 618.641 3.84209 2.35996 0
M  V30 6407 C 617.303 4.24165 2.27239 0
M  V30 6408 C 619.655 4.76785 2.10536 0
M  V30 6409 C 616.983 5.54695 1.91128 0
M  V30 6410 C 619.335 6.07644 1.75931 0
M  V30 6411 C 617.999 6.46613 1.65675 0
M  V30 6412 H 617.269 0.517945 0.529919 0
M  V30 6413 H 619.916 1.74635 0.785797 0
M  V30 6414 H 618.221 1.9772 3.38251 0
M  V30 6415 H 619.918 2.34615 3.25203 0
M  V30 6416 H 616.508 3.52567 2.4371 0
M  V30 6417 H 620.692 4.46714 2.16242 0
M  V30 6418 H 615.948 5.83762 1.81746 0
M  V30 6419 H 620.122 6.78874 1.55252 0
M  V30 6420 H 617.749 7.47668 1.37463 0
M  V30 6421 N 619.324 -0.923095 1.27737 0
M  V30 6422 C 620.271 -2.02432 1.1086 0
M  V30 6423 C 621.241 -1.66098 0.00835195 0
M  V30 6424 O 622.426 -1.90027 0.171542 0
M  V30 6425 C 619.566 -3.36476 0.766671 0
M  V30 6426 C 618.679 -3.85737 1.94501 0
M  V30 6427 C 617.814 -5.08249 1.54455 0
M  V30 6428 C 616.853 -5.49818 2.6901 0
M  V30 6429 N 615.99 -6.63524 2.29521 0
M  V30 6430 H 620.83 -2.16201 2.05089 0
M  V30 6431 H 618.367 -1.05909 1.02087 0
M  V30 6432 H 620.325 -4.13569 0.549223 0
M  V30 6433 H 618.955 -3.22502 -0.13867 0
M  V30 6434 H 618.007 -3.04883 2.27487 0
M  V30 6435 H 619.319 -4.12513 2.80419 0
M  V30 6436 H 618.473 -5.92857 1.28862 0
M  V30 6437 H 617.212 -4.83261 0.656534 0
M  V30 6438 H 616.217 -4.63757 2.95313 0
M  V30 6439 H 617.442 -5.76799 3.5844 0
M  V30 6440 H 615.388 -6.40185 1.43177 0
M  V30 6441 H 615.305 -6.89978 3.08977 0
M  V30 6442 H 616.573 -7.51461 2.07187 0
M  V30 6443 N 620.802 -1.09834 -1.13024 0
M  V30 6444 C 621.765 -0.745058 -2.16752 0
M  V30 6445 C 622.765 0.227435 -1.59183 0
M  V30 6446 O 623.955 0.0050786 -1.74199 0
M  V30 6447 C 621.087 -0.102543 -3.40746 0
M  V30 6448 H 622.28 -1.66375 -2.49518 0
M  V30 6449 H 619.833 -0.898061 -1.27924 0
M  V30 6450 H 620.568 0.827177 -3.13573 0
M  V30 6451 H 620.353 -0.80235 -3.83803 0
M  V30 6452 H 621.843 0.129082 -4.174 0
M  V30 6453 N 622.28 1.30327 -0.886154 0
M  V30 6454 C 623.213 2.26241 -0.298407 0
M  V30 6455 C 624.191 1.51839 0.581704 0
M  V30 6456 O 625.375 1.80851 0.531536 0
M  V30 6457 C 622.502 3.33768 0.575888 0
M  V30 6458 C 621.548 4.25852 -0.235057 0
M  V30 6459 S 622.381 5.10277 -1.62411 0
M  V30 6460 C 623.537 6.21313 -0.756368 0
M  V30 6461 H 623.77 2.75744 -1.11141 0
M  V30 6462 H 621.303 1.38341 -0.685651 0
M  V30 6463 H 623.261 3.96186 1.07458 0
M  V30 6464 H 621.922 2.82986 1.363 0
M  V30 6465 H 621.115 5.02143 0.432198 0
M  V30 6466 H 620.717 3.68015 -0.666409 0
M  V30 6467 H 623.009 6.77495 0.0261451 0
M  V30 6468 H 623.952 6.92226 -1.49093 0
M  V30 6469 H 624.36 5.63611 -0.316749 0
M  V30 6470 N 623.758 0.647228 1.43697 0
M  V30 6471 C 624.983 0.164083 2.0675 0
M  V30 6472 C 625.408 -1.15892 1.48158 0
M  V30 6473 O 624.766 -1.71459 0.589194 0
M  V30 6474 C 624.814 0.0800368 3.60511 0
M  V30 6475 O 623.918 -0.959453 4.01084 0
M  V30 6476 H 623.259 0.0921288 0.657578 0
M  V30 6477 H 625.789 0.88846 1.84303 0
M  V30 6478 H 625.799 -0.105263 4.07864 0
M  V30 6479 H 624.474 1.04586 4.02535 0
M  V30 6480 H 623.051 -0.747425 3.65333 0
M  V30 6481 N 625.236 -1.5273 0.388769 0
M  V30 6482 C 626.186 -2.23238 -0.463567 0
M  V30 6483 C 627.17 -1.23606 -1.03007 0
M  V30 6484 O 628.362 -1.48945 -0.956261 0
M  V30 6485 C 625.491 -3.04228 -1.5906 0
M  V30 6486 C 624.577 -4.11255 -1.03587 0
M  V30 6487 N 624.968 -5.0538 -0.206038 0
M  V30 6488 C 623.266 -4.26376 -1.30841 0
M  V30 6489 C 623.967 -5.81613 0.100359 0
M  V30 6490 N 622.943 -5.41264 -0.503447 0
M  V30 6491 H 626.745 -2.93367 0.176978 0
M  V30 6492 H 624.259 -1.61188 0.198046 0
M  V30 6493 H 626.256 -3.53277 -2.21362 0
M  V30 6494 H 624.916 -2.35634 -2.23398 0
M  V30 6495 H 625.927 -5.17663 0.156659 0
M  V30 6496 H 622.604 -3.69011 -1.95287 0
M  V30 6497 H 623.994 -6.67442 0.772676 0
M  V30 6498 N 626.714 -0.118576 -1.57153 0
M  V30 6499 C 627.647 0.869046 -2.11004 0
M  V30 6500 C 628.625 1.26115 -1.02634 0
M  V30 6501 O 629.809 1.36228 -1.30285 0
M  V30 6502 C 626.936 2.16297 -2.6064 0
M  V30 6503 C 625.982 1.91896 -3.80891 0
M  V30 6504 S 626.815 1.13562 -5.2332 0
M  V30 6505 C 627.971 2.44135 -5.76324 0
M  V30 6506 H 628.204 0.411005 -2.94445 0
M  V30 6507 H 625.737 0.0951891 -1.54106 0
M  V30 6508 H 627.695 2.90642 -2.89892 0
M  V30 6509 H 626.356 2.59219 -1.77382 0
M  V30 6510 H 625.549 2.8777 -4.13768 0
M  V30 6511 H 625.151 1.25672 -3.52253 0
M  V30 6512 H 627.443 3.39976 -5.86022 0
M  V30 6513 H 628.386 2.15803 -6.74414 0
M  V30 6514 H 628.794 2.53483 -5.04387 0
M  V30 6515 N 628.193 1.56834 0.155195 0
M  V30 6516 C 629.123 2.00678 1.19376 0
M  V30 6517 C 630.104 0.884973 1.45266 0
M  V30 6518 O 631.289 1.1522 1.56326 0
M  V30 6519 C 628.419 2.38042 2.5289 0
M  V30 6520 C 627.373 3.53332 2.41538 0
M  V30 6521 C 626.699 3.76485 3.79688 0
M  V30 6522 C 627.999 4.86265 1.9064 0
M  V30 6523 H 629.693 2.87688 0.829232 0
M  V30 6524 H 627.239 1.38407 0.397445 0
M  V30 6525 H 629.192 2.67314 3.25763 0
M  V30 6526 H 627.916 1.4796 2.91162 0
M  V30 6527 H 626.575 3.24213 1.71117 0
M  V30 6528 H 626.223 2.83667 4.15382 0
M  V30 6529 H 625.923 4.54068 3.72956 0
M  V30 6530 H 627.447 4.08174 4.54122 0
M  V30 6531 H 628.861 5.14308 2.53299 0
M  V30 6532 H 627.258 5.67597 1.94818 0
M  V30 6533 H 628.328 4.77184 0.861596 0
M  V30 6534 N 629.671 -0.424282 1.51781 0
M  V30 6535 C 630.911 -1.18194 1.66762 0
M  V30 6536 C 631.275 -1.88164 0.381857 0
M  V30 6537 O 632.476 -2.65692 0.407586 0
M  V30 6538 C 630.747 -2.16173 2.84612 0
M  V30 6539 S 632.306 -3.0025 3.19993 0
M  V30 6540 H 629.124 -0.400626 0.587384 0
M  V30 6541 H 631.726 -0.471499 1.89729 0
M  V30 6542 H 630.43 -1.6343 3.76455 0
M  V30 6543 H 629.961 -2.91778 2.63873 0
M  V30 6544 H 631.976 -4.1796 2.67439 0
M  V30 6545 N 631.149 -1.42148 -0.680565 0
M  V30 6546 C 632.398 -1.41604 -1.43636 0
M  V30 6547 C 632.711 -0.0337887 -1.95571 0
M  V30 6548 O 633.917 0.0942588 -2.71336 0
M  V30 6549 C 632.373 -2.49056 -2.59806 0
M  V30 6550 C 631.981 -3.9326 -2.14594 0
M  V30 6551 C 633.725 -2.5767 -3.37352 0
M  V30 6552 C 631.632 -4.92232 -3.27813 0
M  V30 6553 H 630.562 -0.526656 -0.539583 0
M  V30 6554 H 633.213 -1.68033 -0.737369 0
M  V30 6555 H 631.595 -2.15782 -3.32045 0
M  V30 6556 H 632.769 -4.35858 -1.49546 0
M  V30 6557 H 631.084 -3.88443 -1.50002 0
M  V30 6558 H 633.681 -3.28794 -4.21662 0
M  V30 6559 H 634.024 -1.61837 -3.83555 0
M  V30 6560 H 634.557 -2.90109 -2.72179 0
M  V30 6561 H 631.296 -5.89522 -2.86607 0
M  V30 6562 H 630.816 -4.5427 -3.91661 0
M  V30 6563 H 632.495 -5.13684 -3.93367 0
M  V30 6564 N 632.627 0.916307 -1.28225 0
M  V30 6565 C 633.875 1.6619 -1.15002 0
M  V30 6566 C 634.196 1.92642 0.302329 0
M  V30 6567 O 633.466 1.54076 1.20985 0
M  V30 6568 H 632.046 0.615964 -0.422608 0
M  V30 6569 H 634.708 1.09963 -1.60917 0
M  V30 6570 H 633.804 2.62533 -1.68769 0
M  V30 6571 N 634.105 1.10431 1.1244 0
M  V30 6572 C 635.335 0.867612 1.87499 0
M  V30 6573 C 635.743 -0.585475 1.79913 0
M  V30 6574 O 635.086 -1.41539 1.171 0
M  V30 6575 C 635.148 1.2374 3.37533 0
M  V30 6576 C 634.812 2.69751 3.68895 0
M  V30 6577 C 635.809 3.67988 3.67261 0
M  V30 6578 C 633.494 3.06135 3.98229 0
M  V30 6579 C 635.488 5.00632 3.9452 0
M  V30 6580 C 633.175 4.38967 4.25149 0
M  V30 6581 C 634.173 5.36025 4.23281 0
M  V30 6582 O 633.861 6.66465 4.49533 0
M  V30 6583 H 633.593 0.311196 0.600111 0
M  V30 6584 H 636.147 1.47257 1.43194 0
M  V30 6585 H 634.377 0.575537 3.82393 0
M  V30 6586 H 636.066 0.978187 3.93937 0
M  V30 6587 H 636.832 3.41224 3.44661 0
M  V30 6588 H 632.711 2.31214 3.98825 0
M  V30 6589 H 636.255 5.7638 3.92978 0
M  V30 6590 H 632.152 4.6547 4.47223 0
M  V30 6591 H 632.92 6.72095 4.67152 0
M  V30 6592 N 635.583 -1.29855 0.893053 0
M  V30 6593 C 636.831 -1.9544 0.514566 0
M  V30 6594 C 637.152 -1.70795 -0.940959 0
M  V30 6595 O 636.422 -1.03601 -1.66264 0
M  V30 6596 H 635.002 -0.723137 0.187302 0
M  V30 6597 H 637.664 -1.58234 1.13789 0
M  V30 6598 H 636.76 -3.04341 0.691581 0
M  V30 6599 N 637.061 -0.65484 -1.43351 0
M  V30 6600 C 638.477 -0.32255 -1.56307 0
M  V30 6601 C 638.677 1.17324 -1.63821 0
M  V30 6602 O 637.733 1.95813 -1.59417 0
M  V30 6603 C 639.046 -1.03533 -2.82314 0
M  V30 6604 C 640.594 -1.01574 -2.9606 0
M  V30 6605 C 641.069 -1.70945 -4.24902 0
M  V30 6606 N 642.56 -1.67716 -4.3177 0
M  V30 6607 C 643.295 -2.18265 -5.30234 0
M  V30 6608 N 642.791 -2.7711 -6.34966 0
M  V30 6609 N 644.584 -2.08756 -5.21898 0
M  V30 6610 H 636.735 -1.62549 -1.36717 0
M  V30 6611 H 638.998 -0.683676 -0.656727 0
M  V30 6612 H 638.704 -2.09045 -2.8283 0
M  V30 6613 H 638.578 -0.587913 -3.7259 0
M  V30 6614 H 640.965 0.0309834 -2.95084 0
M  V30 6615 H 641.046 -1.50186 -2.07069 0
M  V30 6616 H 640.69 -2.75574 -4.26639 0
M  V30 6617 H 640.62 -1.19797 -5.12793 0
M  V30 6618 H 643.111 -1.24777 -3.56706 0
M  V30 6619 H 643.424 -3.13353 -7.06421 0
M  V30 6620 H 641.769 -2.81171 -6.35585 0
M  V30 6621 H 644.96 -1.62488 -4.38994 0
M  V30 6622 H 645.133 -2.48459 -5.98475 0
M  V30 6623 N 638.539 1.52521 -0.396863 0
M  V30 6624 C 639.471 2.24333 0.469814 0
M  V30 6625 C 640.484 1.2685 1.02043 0
M  V30 6626 O 641.673 1.52876 0.92147 0
M  V30 6627 C 638.773 2.95202 1.66461 0
M  V30 6628 C 637.946 4.19454 1.24003 0
M  V30 6629 C 637.005 4.73255 2.30036 0
M  V30 6630 O 636.031 5.36151 1.91131 0
M  V30 6631 N 637.233 4.53765 3.62047 0
M  V30 6632 H 639.998 2.99347 -0.145468 0
M  V30 6633 H 637.559 1.60348 -0.223606 0
M  V30 6634 H 639.551 3.28092 2.36934 0
M  V30 6635 H 638.121 2.2345 2.18607 0
M  V30 6636 H 637.341 3.92517 0.363892 0
M  V30 6637 H 638.629 5.0017 0.933135 0
M  V30 6638 H 638.027 4.03576 3.96412 0
M  V30 6639 H 636.584 4.91124 4.28533 0
M  V30 6640 N 640.017 0.126909 1.57088 0
M  V30 6641 C 640.98 -0.806097 2.14557 0
M  V30 6642 C 641.98 -1.18918 1.08236 0
M  V30 6643 O 643.17 -1.11339 1.33975 0
M  V30 6644 C 640.302 -2.09116 2.69227 0
M  V30 6645 H 641.495 -0.306522 2.98329 0
M  V30 6646 H 639.048 -0.122393 1.5582 0
M  V30 6647 H 639.783 -2.63486 1.89065 0
M  V30 6648 H 639.568 -1.82588 3.46993 0
M  V30 6649 H 641.058 -2.75794 3.13572 0
M  V30 6650 N 641.495 -1.56914 -0.146875 0
M  V30 6651 C 642.906 -1.72799 -0.706928 0
M  V30 6652 C 643.257 -0.741329 -1.81656 0
M  V30 6653 O 642.382 0.0920162 -2.16204 0
M  V30 6654 C 642.977 -3.13317 -1.28911 0
M  V30 6655 C 641.536 -3.30803 -1.79573 0
M  V30 6656 C 640.683 -2.68725 -0.684252 0
M  V30 6657 H 643.634 -1.58504 0.0787931 0
M  V30 6658 H 643.655 -3.13323 -2.15891 0
M  V30 6659 H 643.167 -3.85104 -0.481284 0
M  V30 6660 H 641.268 -2.64012 -2.62923 0
M  V30 6661 H 641.381 -4.38754 -1.92436 0
M  V30 6662 H 639.745 -2.29196 -1.11091 0
M  V30 6663 H 640.528 -3.43117 0.112134 0
M  V30 6664 N 642.974 0.416227 -1.52004 0
M  V30 6665 C 643.884 1.53147 -1.77717 0
M  V30 6666 C 644.9 1.609 -0.662368 0
M  V30 6667 O 646.076 1.77747 -0.946991 0
M  V30 6668 C 643.141 2.88948 -1.91598 0
M  V30 6669 C 642.202 2.9114 -3.15493 0
M  V30 6670 C 641.435 4.20464 -3.28703 0
M  V30 6671 O 641.658 5.13981 -2.47345 0
M  V30 6672 O 640.592 4.29368 -4.21813 0
M  V30 6673 H 644.418 1.34357 -2.72363 0
M  V30 6674 H 642.003 0.601373 -1.36762 0
M  V30 6675 H 643.885 3.69505 -2.02593 0
M  V30 6676 H 642.56 3.07821 -1.00141 0
M  V30 6677 H 641.467 2.09461 -3.09962 0
M  V30 6678 H 642.8 2.77216 -4.06709 0
M  V30 6679 N 644.452 1.42507 0.673017 0
M  V30 6680 C 645.677 1.4668 1.46627 0
M  V30 6681 C 646.102 0.080066 1.8793 0
M  V30 6682 O 645.46 -0.921879 1.56112 0
M  V30 6683 C 645.508 2.40091 2.69051 0
M  V30 6684 O 644.612 1.8735 3.67387 0
M  V30 6685 H 643.953 0.496908 0.44043 0
M  V30 6686 H 646.483 1.87215 0.825334 0
M  V30 6687 H 646.493 2.56731 3.17101 0
M  V30 6688 H 645.168 3.4084 2.3833 0
M  V30 6689 H 643.745 1.80274 3.26429 0
M  V30 6690 N 645.93 -0.909495 1.28709 0
M  V30 6691 C 646.863 -2.01388 1.07323 0
M  V30 6692 C 647.841 -1.62596 -0.0119757 0
M  V30 6693 O 649.025 -1.88003 0.136796 0
M  V30 6694 C 646.152 -3.32755 0.631797 0
M  V30 6695 C 645.198 -3.90532 1.71428 0
M  V30 6696 S 646.031 -4.20853 3.31124 0
M  V30 6697 C 647.187 -5.55276 2.88825 0
M  V30 6698 H 647.42 -2.19219 2.00824 0
M  V30 6699 H 644.953 -1.05489 1.12745 0
M  V30 6700 H 646.911 -4.08702 0.38381 0
M  V30 6701 H 645.572 -3.12818 -0.283451 0
M  V30 6702 H 644.765 -4.85385 1.35712 0
M  V30 6703 H 644.367 -3.21237 1.91528 0
M  V30 6704 H 646.659 -6.35341 2.3526 0
M  V30 6705 H 647.602 -5.95907 3.82492 0
M  V30 6706 H 648.01 -5.16666 2.27412 0
M  V30 6707 N 647.408 -1.11026 -1.11852 0
M  V30 6708 C 648.636 -0.878818 -1.87308 0
M  V30 6709 C 649.051 0.57111 -1.79955 0
M  V30 6710 O 648.408 1.39409 -1.17777 0
M  V30 6711 C 648.459 -1.3264 -3.36287 0
M  V30 6712 O 648.18 -2.71948 -3.43476 0
M  V30 6713 C 649.681 -1.12974 -4.28663 0
M  V30 6714 H 646.901 -0.315015 -0.592458 0
M  V30 6715 H 649.445 -1.47649 -1.41492 0
M  V30 6716 H 647.6 -0.772269 -3.79625 0
M  V30 6717 H 648.014 -2.91241 -4.3621 0
M  V30 6718 H 649.488 -1.49198 -5.31454 0
M  V30 6719 H 649.965 -0.0689127 -4.39146 0
M  V30 6720 H 650.571 -1.67064 -3.91113 0
M  V30 6721 N 648.886 1.2938 -0.899927 0
M  V30 6722 C 650.163 1.9046 -0.445443 0
M  V30 6723 C 650.543 1.81683 1.07492 0
M  V30 6724 O 649.891 1.24371 1.91688 0
M  V30 6725 C 650.101 3.35529 -0.960279 0
M  V30 6726 C 651.449 4.12556 -1.00412 0
M  V30 6727 O 652.473 3.44434 -0.907965 0
M  V30 6728 O 651.332 5.34294 -1.14857 0
M  V30 6729 H 648.426 0.815253 -0.138893 0
M  V30 6730 H 650.972 1.37844 -0.989808 0
M  V30 6731 H 649.744 3.36074 -2.00425 0
M  V30 6732 H 649.367 3.95624 -0.395939 0
M  V30 6733 N 650.364 0.662433 1.43002 0
M  V30 6734 C 651.613 0.176873 2.00923 0
M  V30 6735 C 651.926 -1.21954 1.52927 0
M  V30 6736 O 653.132 -1.80081 2.03182 0
M  V30 6737 C 651.588 0.265379 3.5892 0
M  V30 6738 C 651.196 1.66507 4.15908 0
M  V30 6739 C 652.94 -0.162103 4.2419 0
M  V30 6740 C 650.847 1.707 5.66229 0
M  V30 6741 H 649.777 0.0623627 0.751417 0
M  V30 6742 H 652.428 0.825813 1.63868 0
M  V30 6743 H 650.81 -0.451235 3.93421 0
M  V30 6744 H 651.984 2.40777 3.92891 0
M  V30 6745 H 650.299 2.03932 3.63044 0
M  V30 6746 H 652.896 -0.150745 5.34487 0
M  V30 6747 H 653.239 -1.19519 3.98774 0
M  V30 6748 H 653.772 0.503075 3.94606 0
M  V30 6749 H 650.511 2.7195 5.96426 0
M  V30 6750 H 650.031 1.00768 5.91275 0
M  V30 6751 H 651.71 1.45487 6.3043 0
M  V30 6752 N 651.842 -1.52309 0.404946 0
M  V30 6753 C 653.088 -2.02731 -0.164857 0
M  V30 6754 C 653.443 -1.28543 -1.43159 0
M  V30 6755 O 652.736 -0.381883 -1.87756 0
M  V30 6756 C 652.93 -3.54284 -0.470895 0
M  V30 6757 C 652.759 -4.43152 0.764625 0
M  V30 6758 C 651.529 -4.88594 1.28858 0
M  V30 6759 C 653.727 -4.874 1.64152 0
M  V30 6760 N 651.709 -5.61577 2.48001 0
M  V30 6761 C 653.08 -5.59121 2.67924 0
M  V30 6762 C 655.135 -4.69421 1.65978 0
M  V30 6763 C 653.838 -6.14772 3.73427 0
M  V30 6764 C 655.864 -5.25966 2.70396 0
M  V30 6765 C 655.226 -5.97606 3.7289 0
M  V30 6766 H 651.325 -0.78169 -0.0220025 0
M  V30 6767 H 653.909 -1.86522 0.558354 0
M  V30 6768 H 652.08 -3.70574 -1.16315 0
M  V30 6769 H 653.812 -3.91394 -1.02921 0
M  V30 6770 H 650.567 -4.6596 0.847232 0
M  V30 6771 H 650.991 -6.02712 3.08329 0
M  V30 6772 H 655.633 -4.13524 0.88079 0
M  V30 6773 H 653.351 -6.69743 4.52184 0
M  V30 6774 H 656.937 -5.13926 2.72711 0
M  V30 6775 H 655.817 -6.40577 4.52361 0
M  V30 6776 N 653.32 -0.135238 -1.57019 0
M  V30 6777 C 654.25 0.805235 -2.19176 0
M  V30 6778 C 655.231 1.2656 -1.13651 0
M  V30 6779 O 656.416 1.32528 -1.4195 0
M  V30 6780 C 653.546 2.04914 -2.80406 0
M  V30 6781 C 652.5 1.72598 -3.91655 0
M  V30 6782 C 651.826 3.04154 -4.39766 0
M  V30 6783 C 653.126 0.981709 -5.12991 0
M  V30 6784 H 654.82 0.287232 -2.98019 0
M  V30 6785 H 652.366 0.136714 -1.4335 0
M  V30 6786 H 654.319 2.71178 -3.22553 0
M  V30 6787 H 653.043 2.59067 -1.98877 0
M  V30 6788 H 651.702 1.08717 -3.50109 0
M  V30 6789 H 651.35 3.56274 -3.55075 0
M  V30 6790 H 651.05 2.83299 -5.14796 0
M  V30 6791 H 652.574 3.71509 -4.84576 0
M  V30 6792 H 653.988 1.5462 -5.52056 0
M  V30 6793 H 652.385 0.873533 -5.93708 0
M  V30 6794 H 653.455 -0.0286887 -4.84892 0
M  V30 6795 N 654.798 1.5699 0.138552 0
M  V30 6796 C 656.026 1.87976 0.864437 0
M  V30 6797 C 656.441 0.724372 1.74351 0
M  V30 6798 O 655.798 -0.305575 1.79924 0
M  V30 6799 C 655.849 3.18276 1.71414 0
M  V30 6800 O 655.57 4.29365 0.870487 0
M  V30 6801 C 657.071 3.62834 2.54688 0
M  V30 6802 H 654.291 0.622878 0.249528 0
M  V30 6803 H 656.835 2.04094 0.128805 0
M  V30 6804 H 654.99 3.03886 2.40274 0
M  V30 6805 H 655.404 5.03924 1.45466 0
M  V30 6806 H 656.878 4.5682 3.0987 0
M  V30 6807 H 657.355 2.88533 3.31127 0
M  V30 6808 H 657.961 3.79946 1.91105 0
M  V30 6809 N 656.276 -0.40816 1.52223 0
M  V30 6810 C 657.209 -1.51834 1.70357 0
M  V30 6811 C 658.187 -1.52973 0.551171 0
M  V30 6812 O 659.371 -1.71667 0.778642 0
M  V30 6813 C 656.498 -2.90362 1.74378 0
M  V30 6814 C 655.544 -3.0713 2.95928 0
M  V30 6815 S 656.377 -2.80342 4.56255 0
M  V30 6816 C 657.533 -4.21098 4.63063 0
M  V30 6817 H 657.766 -1.36223 2.64255 0
M  V30 6818 H 655.299 -0.599798 1.42274 0
M  V30 6819 H 657.257 -3.70199 1.77379 0
M  V30 6820 H 655.918 -3.03314 0.816063 0
M  V30 6821 H 655.111 -4.08482 2.95226 0
M  V30 6822 H 654.713 -2.3516 2.90819 0
M  V30 6823 H 657.005 -5.14749 4.40499 0
M  V30 6824 H 657.948 -4.26823 5.65002 0
M  V30 6825 H 658.356 -4.06114 3.92086 0
M  V30 6826 N 657.755 -1.42862 -0.66545 0
M  V30 6827 C 658.685 -1.49867 -1.79059 0
M  V30 6828 C 659.666 -0.354394 -1.66367 0
M  V30 6829 O 660.851 -0.569969 -1.85647 0
M  V30 6830 C 657.981 -1.40943 -3.17415 0
M  V30 6831 C 656.935 -2.53495 -3.44854 0
M  V30 6832 C 656.261 -2.29626 -4.82883 0
M  V30 6833 C 657.561 -3.95781 -3.40815 0
M  V30 6834 H 659.255 -2.44037 -1.73453 0
M  V30 6835 H 656.801 -1.17456 -0.833071 0
M  V30 6836 H 658.754 -1.4445 -3.95869 0
M  V30 6837 H 657.478 -0.432716 -3.23721 0
M  V30 6838 H 656.137 -2.4932 -2.68766 0
M  V30 6839 H 655.785 -1.30226 -4.8585 0
M  V30 6840 H 655.485 -3.05065 -5.02204 0
M  V30 6841 H 657.009 -2.34897 -5.63609 0
M  V30 6842 H 658.423 -4.01508 -4.09224 0
M  V30 6843 H 656.82 -4.71148 -3.71672 0
M  V30 6844 H 657.89 -4.21786 -2.39216 0
M  V30 6845 N 659.233 0.902656 -1.29189 0
M  V30 6846 C 660.458 1.69167 -1.19989 0
M  V30 6847 C 660.883 1.86607 0.236495 0
M  V30 6848 O 660.241 1.38425 1.17082 0
M  V30 6849 C 660.289 3.05532 -1.91527 0
M  V30 6850 O 659.393 3.93621 -1.2303 0
M  V30 6851 H 658.734 0.517584 -0.415936 0
M  V30 6852 H 661.264 1.12785 -1.70706 0
M  V30 6853 H 661.274 3.55693 -1.99866 0
M  V30 6854 H 659.949 2.92156 -2.96003 0
M  V30 6855 H 658.526 3.52055 -1.22928 0
M  V30 6856 N 660.711 1.11618 1.11262 0
M  V30 6857 C 661.644 0.719995 2.16544 0
M  V30 6858 C 662.622 -0.28471 1.60088 0
M  V30 6859 O 663.806 -0.180693 1.87632 0
M  V30 6860 C 660.933 0.0643302 3.38639 0
M  V30 6861 C 659.979 1.03448 4.13764 0
M  V30 6862 S 660.812 2.55789 4.70459 0
M  V30 6863 C 661.968 1.91529 5.95875 0
M  V30 6864 H 662.201 1.61181 2.49816 0
M  V30 6865 H 659.734 0.934401 1.22916 0
M  V30 6866 H 661.692 -0.307609 4.09346 0
M  V30 6867 H 660.353 -0.804471 3.03623 0
M  V30 6868 H 659.546 0.523188 5.01277 0
M  V30 6869 H 659.148 1.34893 3.48826 0
M  V30 6870 H 661.44 1.25286 6.65815 0
M  V30 6871 H 662.383 2.77047 6.51652 0
M  V30 6872 H 662.791 1.37468 5.47506 0
M  V30 6873 N 662.189 -1.289 0.906776 0
M  V30 6874 C 663.438 -1.9455 0.532262 0
M  V30 6875 C 663.751 -1.72219 -0.927353 0
M  V30 6876 O 664.957 -2.32033 -1.40971 0
M  V30 6877 C 663.413 -3.48438 0.901041 0
M  V30 6878 C 663.021 -3.79558 2.37991 0
M  V30 6879 C 664.765 -4.20284 0.596777 0
M  V30 6880 C 662.672 -5.26723 2.68918 0
M  V30 6881 H 661.602 -0.728259 0.195333 0
M  V30 6882 H 664.253 -1.46519 1.10474 0
M  V30 6883 H 662.635 -3.95162 0.257419 0
M  V30 6884 H 663.809 -3.43668 3.06967 0
M  V30 6885 H 662.124 -3.20868 2.65391 0
M  V30 6886 H 664.721 -5.28612 0.8046 0
M  V30 6887 H 665.064 -4.13694 -0.465072 0
M  V30 6888 H 665.597 -3.79315 1.19855 0
M  V30 6889 H 662.336 -5.38384 3.73928 0
M  V30 6890 H 661.856 -5.63836 2.04571 0
M  V30 6891 H 663.535 -5.94391 2.55555 0
M  V30 6892 N 663.667 -0.670007 -1.42649 0
M  V30 6893 C 664.913 -0.190568 -2.01903 0
M  V30 6894 C 665.246 1.19817 -1.52832 0
M  V30 6895 O 664.521 1.80342 -0.728485 0
M  V30 6896 C 664.804 -0.21991 -3.59428 0
M  V30 6897 C 664.657 -1.64376 -4.18689 0
M  V30 6898 C 665.976 0.434519 -4.3795 0
M  V30 6899 H 663.095 -0.0707219 -0.733599 0
M  V30 6900 H 665.737 -0.853883 -1.69732 0
M  V30 6901 H 663.887 0.344894 -3.86966 0
M  V30 6902 H 665.559 -2.26044 -4.02122 0
M  V30 6903 H 663.802 -2.18591 -3.747 0
M  V30 6904 H 664.473 -1.61601 -5.27815 0
M  V30 6905 H 666.949 -0.0462156 -4.16074 0
M  V30 6906 H 665.825 0.38333 -5.4756 0
M  V30 6907 H 666.086 1.51135 -4.15464 0
M  V30 6908 N 665.145 1.52092 -0.413018 0
M  V30 6909 C 666.393 2.01456 0.161178 0
M  V30 6910 C 666.714 1.30034 1.45314 0
M  V30 6911 O 665.984 0.427435 1.9118 0
M  V30 6912 H 664.564 0.744376 0.0625526 0
M  V30 6913 H 667.226 1.86974 -0.550151 0
M  V30 6914 H 666.322 3.1008 0.354517 0
M  V30 6915 N 666.623 0.143563 1.56945 0
M  V30 6916 C 667.586 -0.783295 2.154 0
M  V30 6917 C 668.586 -1.17763 1.09492 0
M  V30 6918 O 669.776 -1.09912 1.35148 0
M  V30 6919 C 666.908 -2.06248 2.7143 0
M  V30 6920 H 668.101 -0.274863 2.98638 0
M  V30 6921 H 665.654 -0.105859 1.55941 0
M  V30 6922 H 666.389 -2.61466 1.91849 0
M  V30 6923 H 666.174 -1.78897 3.4891 0
M  V30 6924 H 667.664 -2.72453 3.16479 0
M  V30 6925 N 668.101 -1.57061 -0.130224 0
M  V30 6926 C 669.329 -1.88432 -0.854456 0
M  V30 6927 C 669.744 -0.733608 -1.73964 0
M  V30 6928 O 669.101 0.296029 -1.80083 0
M  V30 6929 C 669.152 -3.1918 -1.69724 0
M  V30 6930 O 668.873 -4.2982 -0.847705 0
M  V30 6931 C 670.374 -3.6418 -2.5276 0
M  V30 6932 H 667.594 -0.624193 -0.246221 0
M  V30 6933 H 670.138 -2.04159 -0.11798 0
M  V30 6934 H 668.293 -3.05156 -2.3866 0
M  V30 6935 H 668.707 -5.04689 -1.42792 0
M  V30 6936 H 670.181 -4.58457 -3.07443 0
M  V30 6937 H 670.658 -2.90285 -3.29592 0
M  V30 6938 H 671.264 -3.80954 -1.89087 0
M  V30 6939 N 669.579 0.400081 -1.52437 0
M  V30 6940 C 670.819 1.15526 -1.68622 0
M  V30 6941 C 671.183 1.87533 -0.411744 0
M  V30 6942 O 672.384 2.6501 -0.449804 0
M  V30 6943 C 670.655 2.11618 -2.88015 0
M  V30 6944 S 672.214 2.95121 -3.24729 0
M  V30 6945 H 669.032 0.39123 -0.593683 0
M  V30 6946 H 671.634 0.441255 -1.90455 0
M  V30 6947 H 670.338 1.5742 -3.79008 0
M  V30 6948 H 669.869 2.87544 -2.68481 0
M  V30 6949 H 671.884 4.13653 -2.74055 0
M  V30 6950 N 671.057 1.43213 0.657864 0
M  V30 6951 C 672.287 1.478 1.44356 0
M  V30 6952 C 672.695 0.0930206 1.88971 0
M  V30 6953 O 672.038 -0.906089 1.59799 0
M  V30 6954 C 672.1 2.35745 2.71412 0
M  V30 6955 C 671.764 3.83359 2.48767 0
M  V30 6956 C 672.761 4.74585 2.12285 0
M  V30 6957 C 670.446 4.27799 2.63235 0
M  V30 6958 C 672.44 6.08247 1.90562 0
M  V30 6959 C 670.127 5.61516 2.41128 0
M  V30 6960 C 671.125 6.51557 2.04847 0
M  V30 6961 O 670.813 7.82802 1.82967 0
M  V30 6962 H 670.545 0.504363 0.450104 0
M  V30 6963 H 673.099 1.88572 0.814241 0
M  V30 6964 H 671.329 1.89852 3.36887 0
M  V30 6965 H 673.018 2.31589 3.33348 0
M  V30 6966 H 673.784 4.41531 2.00687 0
M  V30 6967 H 669.663 3.57993 2.90451 0
M  V30 6968 H 673.207 6.78489 1.62168 0
M  V30 6969 H 669.104 5.94139 2.52327 0
M  V30 6970 H 669.872 7.94332 1.97429 0
M  V30 6971 N 672.536 -0.895792 1.29666 0
M  V30 6972 C 673.499 -1.98189 1.15124 0
M  V30 6973 C 674.499 -1.60572 0.0855717 0
M  V30 6974 O 675.689 -1.70991 0.332826 0
M  V30 6975 C 672.821 -3.32289 0.761372 0
M  V30 6976 H 674.014 -2.12518 2.11603 0
M  V30 6977 H 671.567 -1.0808 1.12908 0
M  V30 6978 H 672.302 -3.23662 -0.203393 0
M  V30 6979 H 672.087 -3.60958 1.53139 0
M  V30 6980 H 673.577 -4.1198 0.682792 0
M  V30 6981 N 674.014 -1.12206 -1.10668 0
M  V30 6982 C 674.947 -0.731468 -2.16159 0
M  V30 6983 C 675.925 0.276216 -1.60237 0
M  V30 6984 O 677.109 0.17074 -1.87725 0
M  V30 6985 C 674.236 -0.0822882 -3.386 0
M  V30 6986 C 673.282 -1.05641 -4.1321 0
M  V30 6987 S 674.115 -2.58281 -4.69096 0
M  V30 6988 C 675.271 -1.94686 -5.94851 0
M  V30 6989 H 675.504 -1.62504 -2.48957 0
M  V30 6990 H 673.037 -0.940906 -1.22419 0
M  V30 6991 H 674.995 0.285896 -4.09503 0
M  V30 6992 H 673.656 0.788358 -3.04046 0
M  V30 6993 H 672.849 -0.549764 -5.00993 0
M  V30 6994 H 672.451 -1.36741 -3.48106 0
M  V30 6995 H 674.743 -1.28815 -6.65141 0
M  V30 6996 H 675.686 -2.80499 -6.50174 0
M  V30 6997 H 676.094 -1.40369 -5.46769 0
M  V30 6998 N 675.492 1.28418 -0.913599 0
M  V30 6999 C 676.739 1.94981 -0.546674 0
M  V30 7000 C 677.067 1.7192 0.909606 0
M  V30 7001 O 676.322 1.03314 1.66207 0
M  V30 7002 C 676.621 3.48283 -0.802099 0
M  V30 7003 C 676.287 3.91444 -2.2379 0
M  V30 7004 C 674.949 4.02939 -2.63046 0
M  V30 7005 C 677.301 4.13542 -3.17227 0
M  V30 7006 C 674.629 4.3391 -3.94891 0
M  V30 7007 C 676.981 4.45992 -4.48636 0
M  V30 7008 C 675.645 4.55698 -4.87746 0
M  V30 7009 H 674.915 0.713487 -0.200042 0
M  V30 7010 H 677.562 1.52756 -1.15489 0
M  V30 7011 H 675.867 3.91643 -0.111076 0
M  V30 7012 H 677.564 3.97903 -0.497375 0
M  V30 7013 H 674.154 3.83024 -1.9233 0
M  V30 7014 H 678.338 4.04114 -2.88107 0
M  V30 7015 H 673.594 4.39631 -4.24894 0
M  V30 7016 H 677.768 4.62038 -5.21051 0
M  V30 7017 H 675.395 4.79451 -5.89942 0
M  V30 7018 N 676.97 0.677563 1.42291 0
M  V30 7019 C 678.219 0.198173 2.00724 0
M  V30 7020 C 678.532 -1.20325 1.54211 0
M  V30 7021 O 679.738 -1.77916 2.05081 0
M  V30 7022 C 678.194 0.303432 3.58619 0
M  V30 7023 C 677.802 1.70909 4.14119 0
M  V30 7024 C 679.546 -0.117103 4.24338 0
M  V30 7025 C 677.453 1.76696 5.64387 0
M  V30 7026 H 676.383 0.070329 0.750713 0
M  V30 7027 H 679.034 0.843147 1.62982 0
M  V30 7028 H 677.416 -0.409482 3.93877 0
M  V30 7029 H 678.59 2.44931 3.90315 0
M  V30 7030 H 676.905 2.07771 3.6086 0
M  V30 7031 H 679.502 -0.0940471 5.34617 0
M  V30 7032 H 679.845 -1.15283 4.00019 0
M  V30 7033 H 680.378 0.5449 3.9405 0
M  V30 7034 H 677.117 2.7826 5.93508 0
M  V30 7035 H 676.637 1.07034 5.90173 0
M  V30 7036 H 678.316 1.52166 6.28852 0
M  V30 7037 N 678.448 -1.51871 0.421078 0
M  V30 7038 C 679.696 -2.01539 -0.150492 0
M  V30 7039 C 680.017 -1.30803 -1.44623 0
M  V30 7040 O 679.287 -0.437568 -1.90951 0
M  V30 7041 H 677.867 -0.744698 -0.0586041 0
M  V30 7042 H 680.529 -1.8668 0.560059 0
M  V30 7043 H 679.625 -3.10264 -0.338068 0
M  V30 7044 N 679.926 -0.151884 -1.56866 0
M  V30 7045 C 680.876 0.797799 -2.13586 0
M  V30 7046 C 681.86 1.20613 -1.06496 0
M  V30 7047 O 683.052 1.17173 -1.32663 0
M  V30 7048 C 680.181 2.03493 -2.76488 0
M  V30 7049 C 679.267 1.64948 -3.90708 0
M  V30 7050 N 679.658 0.972513 -4.96363 0
M  V30 7051 C 677.956 1.94186 -4.01507 0
M  V30 7052 C 678.657 0.785661 -5.7637 0
M  V30 7053 N 677.633 1.32105 -5.27304 0
M  V30 7054 H 681.435 0.271403 -2.92644 0
M  V30 7055 H 678.949 0.049487 -1.62325 0
M  V30 7056 H 680.946 2.72532 -3.15487 0
M  V30 7057 H 679.606 2.56646 -1.98904 0
M  V30 7058 H 680.617 0.632724 -5.1402 0
M  V30 7059 H 677.294 2.49154 -3.35005 0
M  V30 7060 H 678.684 0.251749 -6.71428 0
M  V30 7061 N 681.404 1.57128 0.121893 0
M  V30 7062 C 682.367 1.99197 1.13372 0
M  V30 7063 C 683.367 0.881728 1.3447 0
M  V30 7064 O 684.557 1.14783 1.31036 0
M  V30 7065 C 681.689 2.32963 2.4888 0
M  V30 7066 H 682.882 2.89788 0.772204 0
M  V30 7067 H 680.435 1.51952 0.366093 0
M  V30 7068 H 681.17 1.45243 2.89957 0
M  V30 7069 H 680.955 3.13934 2.34921 0
M  V30 7070 H 682.445 2.66261 3.21706 0
M  V30 7071 N 682.882 -0.391992 1.52647 0
M  V30 7072 C 684.11 -1.1586 1.71418 0
M  V30 7073 C 684.525 -1.8381 0.431216 0
M  V30 7074 O 683.882 -1.7256 -0.594085 0
M  V30 7075 C 683.933 -2.20888 2.86165 0
M  V30 7076 O 683.654 -1.5571 4.09495 0
M  V30 7077 C 685.155 -3.103 3.1659 0
M  V30 7078 H 682.375 -0.347494 0.574011 0
M  V30 7079 H 684.919 -0.458972 1.99283 0
M  V30 7080 H 683.074 -2.86492 2.6077 0
M  V30 7081 H 683.488 -2.25474 4.73563 0
M  V30 7082 H 684.962 -3.8003 4.00351 0
M  V30 7083 H 685.439 -3.73639 2.30848 0
M  V30 7084 H 686.045 -2.50345 3.43813 0
M  V30 7085 N 684.36 -1.4356 -0.65026 0
M  V30 7086 C 685.323 -1.48615 -1.74489 0
M  V30 7087 C 686.323 -0.370483 -1.56474 0
M  V30 7088 O 687.513 -0.632351 -1.62317 0
M  V30 7089 C 684.645 -1.34161 -3.13391 0
M  V30 7090 H 685.838 -2.46103 -1.71387 0
M  V30 7091 H 683.391 -1.30369 -0.862186 0
M  V30 7092 H 684.126 -0.376918 -3.22102 0
M  V30 7093 H 683.911 -2.1504 -3.27872 0
M  V30 7094 H 685.401 -1.40637 -3.93206 0
M  V30 7095 N 685.838 0.888903 -1.30139 0
M  V30 7096 C 686.768 2.01046 -1.18755 0
M  V30 7097 C 687.749 1.69916 -0.0791438 0
M  V30 7098 O 688.934 1.92445 -0.260498 0
M  V30 7099 C 686.064 3.36109 -0.874518 0
M  V30 7100 C 685.018 3.81486 -1.94043 0
M  V30 7101 C 684.344 5.13796 -1.48047 0
M  V30 7102 C 685.644 4.00637 -3.35093 0
M  V30 7103 H 687.338 2.10828 -2.12584 0
M  V30 7104 H 684.884 1.01298 -1.02346 0
M  V30 7105 H 686.837 4.14089 -0.781548 0
M  V30 7106 H 685.561 3.26449 0.0994519 0
M  V30 7107 H 684.22 3.05731 -2.02297 0
M  V30 7108 H 683.868 5.0056 -0.494878 0
M  V30 7109 H 683.568 5.45127 -2.19341 0
M  V30 7110 H 685.092 5.94305 -1.40121 0
M  V30 7111 H 686.506 4.69067 -3.2962 0
M  V30 7112 H 684.903 4.43339 -4.04438 0
M  V30 7113 H 685.973 3.0462 -3.77273 0
M  V30 7114 N 687.317 1.12792 1.10072 0
M  V30 7115 C 688.566 0.880232 1.81479 0
M  V30 7116 C 688.879 -0.595575 1.86312 0
M  V30 7117 O 690.085 -0.959979 2.53962 0
M  V30 7118 C 688.541 1.52514 3.25987 0
M  V30 7119 C 688.149 3.036 3.29441 0
M  V30 7120 C 689.893 1.35788 4.02196 0
M  V30 7121 C 687.8 3.61007 4.68431 0
M  V30 7122 H 686.73 0.325654 0.680048 0
M  V30 7123 H 689.381 1.35485 1.23758 0
M  V30 7124 H 687.763 0.978188 3.83728 0
M  V30 7125 H 688.937 3.64819 2.81502 0
M  V30 7126 H 687.252 3.19765 2.66719 0
M  V30 7127 H 689.849 1.76096 5.0487 0
M  V30 7128 H 690.192 0.301972 4.15203 0
M  V30 7129 H 690.725 1.87426 3.50879 0
M  V30 7130 H 687.464 4.66375 4.60625 0
M  V30 7131 H 686.984 3.04564 5.16721 0
M  V30 7132 H 688.663 3.60289 5.37402 0
M  V30 7133 N 688.795 -1.27931 0.920396 0
M  V30 7134 C 689.727 -2.26175 0.371169 0
M  V30 7135 C 690.74 -1.55122 -0.494065 0
M  V30 7136 O 691.929 -1.75825 -0.30787 0
M  V30 7137 C 689.029 -3.35376 -0.487481 0
M  V30 7138 C 688.202 -4.35943 0.356772 0
M  V30 7139 C 687.261 -5.24374 -0.438042 0
M  V30 7140 O 686.287 -5.68998 0.151715 0
M  V30 7141 N 687.489 -5.53823 -1.73956 0
M  V30 7142 H 690.254 -2.73938 1.21564 0
M  V30 7143 H 687.815 -1.41482 0.787047 0
M  V30 7144 H 689.807 -3.91476 -1.02609 0
M  V30 7145 H 688.377 -2.87269 -1.23269 0
M  V30 7146 H 687.597 -3.7921 1.07672 0
M  V30 7147 H 688.885 -5.0015 0.934206 0
M  V30 7148 H 688.283 -5.19413 -2.24114 0
M  V30 7149 H 686.84 -6.12653 -2.22486 0
M  V30 7150 N 690.273 -0.685099 -1.4193 0
M  V30 7151 C 691.498 -0.218842 -2.06242 0
M  V30 7152 C 691.923 1.11923 -1.51178 0
M  V30 7153 O 691.281 1.69837 -0.634446 0
M  V30 7154 C 691.329 -0.175592 -3.60172 0
M  V30 7155 O 690.433 0.852776 -4.03487 0
M  V30 7156 H 689.774 -0.109531 -0.654904 0
M  V30 7157 H 692.304 -0.937013 -1.81882 0
M  V30 7158 H 692.314 -0.00291151 -4.08 0
M  V30 7159 H 690.989 -1.15222 -3.99621 0
M  V30 7160 H 689.566 0.650301 -3.67186 0
M  V30 7161 N 691.751 1.51645 -0.429126 0
M  V30 7162 C 692.681 2.30434 0.377148 0
M  V30 7163 C 693.662 1.35493 1.02838 0
M  V30 7164 O 694.847 1.6441 1.03359 0
M  V30 7165 C 691.977 3.14038 1.48315 0
M  V30 7166 C 690.931 4.1719 0.955855 0
M  V30 7167 C 690.257 4.89263 2.15698 0
M  V30 7168 C 691.557 5.223 -0.00402136 0
M  V30 7169 H 693.251 2.98085 -0.280336 0
M  V30 7170 H 690.797 1.43354 -0.136265 0
M  V30 7171 H 692.75 3.67933 2.05435 0
M  V30 7172 H 691.474 2.44193 2.16881 0
M  V30 7173 H 690.133 3.64335 0.406929 0
M  V30 7174 H 689.781 4.15929 2.82864 0
M  V30 7175 H 689.481 5.59009 1.81059 0
M  V30 7176 H 691.005 5.45978 2.73387 0
M  V30 7177 H 692.419 5.71315 0.476607 0
M  V30 7178 H 690.816 5.99525 -0.26258 0
M  V30 7179 H 691.886 4.75638 -0.943236 0
M  V30 7180 N 693.229 0.160201 1.56784 0
M  V30 7181 C 694.506 -0.533355 1.88188 0
M  V30 7182 C 694.886 -1.82072 1.06831 0
M  V30 7183 O 694.234 -2.27946 0.158959 0
M  V30 7184 C 694.444 -0.786034 3.40033 0
M  V30 7185 C 695.792 -1.12097 4.09536 0
M  V30 7186 O 696.816 -0.874949 3.45287 0
M  V30 7187 O 695.675 -1.58457 5.23023 0
M  V30 7188 H 692.769 -0.273589 0.780434 0
M  V30 7189 H 695.315 0.197803 1.68543 0
M  V30 7190 H 694.087 0.124515 3.91102 0
M  V30 7191 H 693.71 -1.57091 3.65251 0
M  V30 7192 N 694.707 -1.5719 -0.113559 0
M  V30 7193 C 695.932 -1.89702 -0.838336 0
M  V30 7194 C 696.357 -0.752679 -1.72384 0
M  V30 7195 O 695.715 0.296575 -1.78858 0
M  V30 7196 C 695.763 -3.20989 -1.64312 0
M  V30 7197 O 694.867 -3.07278 -2.75053 0
M  V30 7198 H 694.208 -0.622339 -0.231496 0
M  V30 7199 H 696.738 -2.04382 -0.0943228 0
M  V30 7200 H 696.748 -3.53843 -2.03123 0
M  V30 7201 H 695.423 -4.03869 -0.993119 0
M  V30 7202 H 694 -2.85901 -2.39406 0
M  V30 7203 N 696.185 0.383891 -1.52853 0
M  V30 7204 C 697.41 1.154 -1.7233 0
M  V30 7205 C 697.835 1.82809 -0.44298 0
M  V30 7206 O 697.193 1.71026 0.601645 0
M  V30 7207 C 697.241 2.17386 -2.87708 0
M  V30 7208 O 696.345 3.24082 -2.55038 0
M  V30 7209 H 695.686 0.335709 -0.572883 0
M  V30 7210 H 698.216 0.44662 -1.99666 0
M  V30 7211 H 698.226 2.61296 -3.1335 0
M  V30 7212 H 696.901 1.6771 -3.80587 0
M  V30 7213 H 695.478 2.85273 -2.40153 0
M  V30 7214 N 697.663 1.43903 0.642637 0
M  V30 7215 C 699.079 1.27536 0.959519 0
M  V30 7216 C 699.279 0.202751 2.00477 0
M  V30 7217 O 698.335 -0.415256 2.49062 0
M  V30 7218 C 699.648 2.6432 1.43372 0
M  V30 7219 C 701.196 2.71937 1.54981 0
M  V30 7220 C 701.671 4.09164 2.05789 0
M  V30 7221 N 703.162 4.11282 2.13076 0
M  V30 7222 C 703.897 5.14303 2.53534 0
M  V30 7223 N 703.393 6.27693 2.93212 0
M  V30 7224 N 705.186 5.01657 2.53567 0
M  V30 7225 H 697.337 2.12344 -0.0488376 0
M  V30 7226 H 699.6 0.947124 0.0407559 0
M  V30 7227 H 699.306 3.43826 0.740048 0
M  V30 7228 H 699.18 2.90432 2.40685 0
M  V30 7229 H 701.567 1.92757 2.23448 0
M  V30 7230 H 701.648 2.49578 0.560739 0
M  V30 7231 H 701.292 4.88815 1.37921 0
M  V30 7232 H 701.222 4.28893 3.05546 0
M  V30 7233 H 703.713 3.2944 1.85143 0
M  V30 7234 H 704.026 7.02125 3.22863 0
M  V30 7235 H 702.371 6.31149 2.90991 0
M  V30 7236 H 705.562 4.12134 2.21952 0
M  V30 7237 H 705.735 5.82072 2.84774 0
M  V30 7238 N 699.141 -0.881989 1.30609 0
M  V30 7239 C 700.557 -1.16576 1.09005 0
M  V30 7240 C 700.757 -2.00961 -0.14727 0
M  V30 7241 O 699.813 -2.38117 -0.840036 0
M  V30 7242 C 701.126 -1.86954 2.35518 0
M  V30 7243 C 702.674 -1.99706 2.41011 0
M  V30 7244 C 703.149 -2.73497 3.67374 0
M  V30 7245 N 704.64 -2.8104 3.68199 0
M  V30 7246 C 705.375 -3.38718 4.62664 0
M  V30 7247 N 704.871 -3.97421 5.67475 0
M  V30 7248 N 706.664 -3.36561 4.50203 0
M  V30 7249 H 698.815 -0.319398 2.09985 0
M  V30 7250 H 701.078 -0.204058 0.925778 0
M  V30 7251 H 700.784 -1.32393 3.2583 0
M  V30 7252 H 700.658 -2.87317 2.44395 0
M  V30 7253 H 703.045 -2.53436 1.51176 0
M  V30 7254 H 703.126 -0.984218 2.36108 0
M  V30 7255 H 702.77 -2.20438 4.57569 0
M  V30 7256 H 702.7 -3.75163 3.6954 0
M  V30 7257 H 705.191 -2.39365 2.92426 0
M  V30 7258 H 705.504 -4.39507 6.35652 0
M  V30 7259 H 703.849 -3.95832 5.71264 0
M  V30 7260 H 707.04 -2.8993 3.67503 0
M  V30 7261 H 707.213 -3.81215 5.24003 0
M  V30 7262 N 700.619 -1.13374 -1.09472 0
M  V30 7263 C 701.551 -0.768466 -2.15933 0
M  V30 7264 C 702.564 0.209585 -1.61445 0
M  V30 7265 O 703.753 -0.010539 -1.78497 0
M  V30 7266 C 700.853 -0.118266 -3.38694 0
M  V30 7267 C 700.026 -1.12829 -4.22597 0
M  V30 7268 C 699.085 -0.503875 -5.23782 0
M  V30 7269 O 698.111 -1.16374 -5.57177 0
M  V30 7270 N 699.313 0.724288 -5.75964 0
M  V30 7271 H 702.078 -1.68457 -2.47876 0
M  V30 7272 H 699.639 -1.02668 -1.25183 0
M  V30 7273 H 701.631 0.311698 -4.03498 0
M  V30 7274 H 700.201 0.700769 -3.04644 0
M  V30 7275 H 699.421 -1.73556 -3.53938 0
M  V30 7276 H 700.709 -1.81095 -4.75481 0
M  V30 7277 H 700.107 1.27918 -5.51048 0
M  V30 7278 H 698.664 1.09692 -6.42504 0
M  V30 7279 N 702.098 1.27442 -0.927168 0
M  V30 7280 C 703.328 1.9821 -0.582775 0
M  V30 7281 C 703.736 1.69361 0.843406 0
M  V30 7282 O 703.079 0.950381 1.57205 0
M  V30 7283 C 703.141 3.52048 -0.728165 0
M  V30 7284 C 702.805 4.04518 -2.12637 0
M  V30 7285 C 703.802 4.17332 -3.10048 0
M  V30 7286 C 701.487 4.38879 -2.44317 0
M  V30 7287 C 703.481 4.6378 -4.37249 0
M  V30 7288 C 701.168 4.85018 -3.71753 0
M  V30 7289 C 702.166 4.97428 -4.68033 0
M  V30 7290 O 701.854 5.42556 -5.93202 0
M  V30 7291 H 701.586 0.639314 -0.219667 0
M  V30 7292 H 704.14 1.63272 -1.24626 0
M  V30 7293 H 702.37 3.86699 -0.00758143 0
M  V30 7294 H 704.059 4.04033 -0.388906 0
M  V30 7295 H 704.825 3.91046 -2.86894 0
M  V30 7296 H 700.704 4.28462 -1.70121 0
M  V30 7297 H 704.248 4.73382 -5.12402 0
M  V30 7298 H 700.145 5.10746 -3.94726 0
M  V30 7299 H 700.913 5.60811 -5.96182 0
M  V30 7300 N 703.576 0.692616 1.41565 0
M  V30 7301 C 704.508 -0.0137132 2.29196 0
M  V30 7302 C 705.521 -0.747417 1.44629 0
M  V30 7303 O 706.71 -0.598611 1.68163 0
M  V30 7304 C 703.81 -1.04347 3.22436 0
M  V30 7305 C 702.983 -0.379985 4.35746 0
M  V30 7306 C 702.042 -1.31195 5.09583 0
M  V30 7307 O 701.068 -0.805455 5.63472 0
M  V30 7308 N 702.27 -2.64443 5.16769 0
M  V30 7309 H 705.035 0.738614 2.90456 0
M  V30 7310 H 702.596 0.538415 1.52685 0
M  V30 7311 H 704.588 -1.6686 3.687 0
M  V30 7312 H 703.158 -1.69736 2.62504 0
M  V30 7313 H 702.378 0.424975 3.91903 0
M  V30 7314 H 703.666 0.0814904 5.08735 0
M  V30 7315 H 703.064 -3.08114 4.74428 0
M  V30 7316 H 701.621 -3.22159 5.66619 0
M  V30 7317 N 705.054 -1.51416 0.437162 0
M  V30 7318 C 705.964 -2.31493 -0.380537 0
M  V30 7319 C 706.98 -1.40399 -1.02782 0
M  V30 7320 O 708.156 -1.73471 -1.02323 0
M  V30 7321 C 705.221 -3.1413 -1.46709 0
M  V30 7322 C 704.282 -4.21003 -0.839953 0
M  V30 7323 C 703.515 -4.9969 -1.87473 0
M  V30 7324 O 703.738 -4.79008 -3.09689 0
M  V30 7325 O 702.672 -5.8379 -1.46536 0
M  V30 7326 H 706.498 -3.02469 0.273183 0
M  V30 7327 H 704.083 -1.48059 0.199706 0
M  V30 7328 H 705.965 -3.65505 -2.09724 0
M  V30 7329 H 704.64 -2.45919 -2.10489 0
M  V30 7330 H 703.547 -3.73706 -0.171752 0
M  V30 7331 H 704.88 -4.91587 -0.245638 0
M  V30 7332 N 706.532 -0.168513 -1.56696 0
M  V30 7333 C 707.479 0.762875 -2.17828 0
M  V30 7334 C 708.449 1.22892 -1.11745 0
M  V30 7335 O 709.634 1.29759 -1.39883 0
M  V30 7336 C 706.774 1.9879 -2.82093 0
M  V30 7337 C 705.887 1.56568 -4.02629 0
M  V30 7338 C 705.022 2.74416 -4.54829 0
M  V30 7339 C 704.061 2.28671 -5.67782 0
M  V30 7340 N 703.198 3.39602 -6.14504 0
M  V30 7341 H 708.038 0.23479 -2.97074 0
M  V30 7342 H 705.575 0.104163 -1.46731 0
M  V30 7343 H 707.533 2.70636 -3.17509 0
M  V30 7344 H 706.163 2.48973 -2.05456 0
M  V30 7345 H 705.215 0.744067 -3.73052 0
M  V30 7346 H 706.527 1.18988 -4.844 0
M  V30 7347 H 705.681 3.54423 -4.92412 0
M  V30 7348 H 704.42 3.15254 -3.7211 0
M  V30 7349 H 703.425 1.4711 -5.29753 0
M  V30 7350 H 704.65 1.88894 -6.52301 0
M  V30 7351 H 702.596 3.80021 -5.34715 0
M  V30 7352 H 702.513 3.06105 -6.91257 0
M  V30 7353 H 703.781 4.19902 -6.56737 0
M  V30 7354 N 708.01 1.57248 0.105221 0
M  V30 7355 C 709.24 1.89492 0.823175 0
M  V30 7356 C 709.648 0.75934 1.73294 0
M  V30 7357 O 708.991 -0.278182 1.81581 0
M  V30 7358 C 709.053 3.16891 1.69765 0
M  V30 7359 C 708.717 4.46787 0.960769 0
M  V30 7360 C 709.714 5.19061 0.295218 0
M  V30 7361 C 707.399 4.93467 0.937854 0
M  V30 7362 C 709.393 6.36246 -0.383393 0
M  V30 7363 C 707.08 6.10566 0.255452 0
M  V30 7364 C 708.078 6.81804 -0.404003 0
M  V30 7365 O 707.766 7.96673 -1.07549 0
M  V30 7366 H 707.498 0.631512 0.24118 0
M  V30 7367 H 710.052 2.05203 0.0899655 0
M  V30 7368 H 708.282 2.973 2.47285 0
M  V30 7369 H 709.971 3.35046 2.29126 0
M  V30 7370 H 710.737 4.84044 0.304448 0
M  V30 7371 H 706.616 4.37913 1.44058 0
M  V30 7372 H 710.16 6.91787 -0.898696 0
M  V30 7373 H 706.057 6.45039 0.244032 0
M  V30 7374 H 706.825 8.12596 -0.981355 0
M  V30 7375 N 709.488 -0.375779 1.53054 0
M  V30 7376 C 710.435 -1.45978 1.78771 0
M  V30 7377 C 711.405 -1.53625 0.631552 0
M  V30 7378 O 712.59 -1.69674 0.872667 0
M  V30 7379 C 709.73 -2.8305 1.97425 0
M  V30 7380 C 708.843 -2.84451 3.25134 0
M  V30 7381 C 707.978 -4.13034 3.34031 0
M  V30 7382 C 707.017 -4.08536 4.55812 0
M  V30 7383 N 706.154 -5.2875 4.61918 0
M  V30 7384 H 710.994 -1.23349 2.71273 0
M  V30 7385 H 708.531 -0.598147 1.3439 0
M  V30 7386 H 710.489 -3.62666 2.06225 0
M  V30 7387 H 709.119 -3.04101 1.0827 0
M  V30 7388 H 708.171 -1.97127 3.25338 0
M  V30 7389 H 709.483 -2.76998 4.14818 0
M  V30 7390 H 708.637 -5.0106 3.42087 0
M  V30 7391 H 707.376 -4.23226 2.42345 0
M  V30 7392 H 706.381 -3.18897 4.47867 0
M  V30 7393 H 707.606 -3.99955 5.48828 0
M  V30 7394 H 705.552 -5.39547 3.73129 0
M  V30 7395 H 705.469 -5.23426 5.45492 0
M  V30 7396 H 706.737 -6.18637 4.74245 0
M  V30 7397 N 710.966 -1.44241 -0.634997 0
M  V30 7398 C 711.898 -1.46793 -1.76024 0
M  V30 7399 C 712.911 -0.361781 -1.58729 0
M  V30 7400 O 714.1 -0.627297 -1.67114 0
M  V30 7401 C 711.2 -1.28248 -3.13697 0
M  V30 7402 C 710.373 -2.52038 -3.57485 0
M  V30 7403 C 709.432 -2.2845 -4.74022 0
M  V30 7404 O 708.458 -3.01915 -4.82531 0
M  V30 7405 N 709.66 -1.31264 -5.65464 0
M  V30 7406 H 712.425 -2.43797 -1.74307 0
M  V30 7407 H 709.986 -1.39631 -0.819438 0
M  V30 7408 H 711.978 -1.10321 -3.89373 0
M  V30 7409 H 710.548 -0.39623 -3.10079 0
M  V30 7410 H 709.768 -2.85268 -2.72059 0
M  V30 7411 H 711.056 -3.34382 -3.83492 0
M  V30 7412 H 710.454 -0.705817 -5.6128 0
M  V30 7413 H 709.011 -1.19316 -6.40786 0
M  V30 7414 N 712.444 0.87505 -1.31075 0
M  V30 7415 C 713.69 1.63009 -1.20647 0
M  V30 7416 C 714.023 1.9276 0.236045 0
M  V30 7417 O 713.298 1.55559 1.16754 0
M  V30 7418 C 713.581 2.96357 -2.0456 0
M  V30 7419 C 713.434 2.73516 -3.57084 0
M  V30 7420 C 714.753 3.974 -1.89107 0
M  V30 7421 H 711.872 0.591518 -0.439631 0
M  V30 7422 H 714.514 1.0119 -1.60812 0
M  V30 7423 H 712.664 3.49119 -1.70435 0
M  V30 7424 H 714.336 2.27465 -4.01319 0
M  V30 7425 H 712.579 2.0784 -3.80769 0
M  V30 7426 H 713.25 3.68377 -4.11099 0
M  V30 7427 H 715.726 3.5383 -2.18961 0
M  V30 7428 H 714.602 4.88596 -2.5013 0
M  V30 7429 H 714.863 4.33794 -0.85296 0
M  V30 7430 N 713.922 1.13953 1.08869 0
M  V30 7431 C 714.832 0.835666 2.19212 0
M  V30 7432 C 715.848 -0.182005 1.73045 0
M  V30 7433 O 717.024 -0.0116661 2.01397 0
M  V30 7434 C 714.089 0.312325 3.4529 0
M  V30 7435 C 713.15 1.39196 4.06107 0
M  V30 7436 C 712.383 0.893496 5.26168 0
M  V30 7437 O 712.606 -0.266807 5.69776 0
M  V30 7438 O 711.54 1.67037 5.78258 0
M  V30 7439 H 715.366 1.75769 2.47667 0
M  V30 7440 H 712.951 0.917421 1.17914 0
M  V30 7441 H 714.833 0.0261582 4.21392 0
M  V30 7442 H 713.508 -0.582042 3.18424 0
M  V30 7443 H 712.415 1.73152 3.31616 0
M  V30 7444 H 713.748 2.26068 4.37212 0
M  V30 7445 N 715.4 -1.26948 0.933913 0
M  V30 7446 C 716.332 -2.25768 0.395137 0
M  V30 7447 C 717.345 -1.55637 -0.477585 0
M  V30 7448 O 718.534 -1.76142 -0.289204 0
M  V30 7449 C 715.634 -3.35874 -0.451882 0
M  V30 7450 C 714.807 -4.3554 0.40299 0
M  V30 7451 C 713.866 -5.24809 -0.3824 0
M  V30 7452 O 712.892 -5.68805 0.212057 0
M  V30 7453 N 714.094 -5.55636 -1.68072 0
M  V30 7454 H 716.859 -2.72634 1.24463 0
M  V30 7455 H 714.42 -1.40639 0.802008 0
M  V30 7456 H 716.412 -3.92542 -0.984516 0
M  V30 7457 H 714.982 -2.8856 -1.20215 0
M  V30 7458 H 714.202 -3.78047 1.11688 0
M  V30 7459 H 715.49 -4.99131 0.987201 0
M  V30 7460 H 714.888 -5.2176 -2.18592 0
M  V30 7461 H 713.445 -6.14978 -2.15975 0
M  V30 7462 N 716.879 -0.700114 -1.41195 0
M  V30 7463 C 718.109 -0.241828 -2.0518 0
M  V30 7464 C 718.517 1.1157 -1.52803 0
M  V30 7465 O 717.86 1.70926 -0.673042 0
M  V30 7466 C 717.922 -0.12695 -3.59276 0
M  V30 7467 C 717.586 -1.41725 -4.34469 0
M  V30 7468 C 718.583 -2.35604 -4.63451 0
M  V30 7469 C 716.268 -1.67189 -4.73659 0
M  V30 7470 C 718.262 -3.53204 -5.3059 0
M  V30 7471 C 715.949 -2.85073 -5.40534 0
M  V30 7472 C 716.947 -3.77904 -5.68927 0
M  V30 7473 O 716.635 -4.93723 -6.34424 0
M  V30 7474 H 716.367 -0.109247 -0.667114 0
M  V30 7475 H 718.921 -0.954538 -1.81873 0
M  V30 7476 H 717.151 0.641571 -3.81341 0
M  V30 7477 H 718.84 0.294748 -4.04828 0
M  V30 7478 H 719.606 -2.1719 -4.33651 0
M  V30 7479 H 715.485 -0.957935 -4.50937 0
M  V30 7480 H 719.029 -4.25679 -5.52669 0
M  V30 7481 H 714.926 -3.03402 -5.69752 0
M  V30 7482 H 715.694 -4.93597 -6.5292 0
M  V30 7483 N 718.357 1.51182 -0.445186 0
M  V30 7484 C 719.29 2.24528 0.4077 0
M  V30 7485 C 720.268 1.26778 1.01814 0
M  V30 7486 O 721.452 1.55934 1.05909 0
M  V30 7487 C 718.579 3.00171 1.56892 0
M  V30 7488 C 717.625 4.12641 1.0784 0
M  V30 7489 S 718.458 5.35498 0.014049 0
M  V30 7490 C 719.614 6.14681 1.17975 0
M  V30 7491 H 719.847 2.96522 -0.214987 0
M  V30 7492 H 717.38 1.52681 -0.229781 0
M  V30 7493 H 719.338 3.44349 2.23459 0
M  V30 7494 H 717.999 2.27752 2.16304 0
M  V30 7495 H 717.192 4.64875 1.94698 0
M  V30 7496 H 716.794 3.70765 0.490852 0
M  V30 7497 H 719.086 6.44244 2.09658 0
M  V30 7498 H 720.029 7.04659 0.697222 0
M  V30 7499 H 720.437 5.46299 1.42187 0
M  V30 7500 N 719.835 0.176821 1.56605 0
M  V30 7501 C 721.06 -0.47599 2.01864 0
M  V30 7502 C 721.485 -1.55645 1.05623 0
M  V30 7503 O 720.843 -1.81263 0.0366729 0
M  V30 7504 C 720.891 -1.02619 3.4569 0
M  V30 7505 O 719.995 -2.13996 3.52533 0
M  V30 7506 H 719.336 -0.113363 0.654251 0
M  V30 7507 H 721.866 0.28233 2.02643 0
M  V30 7508 H 721.876 -1.34742 3.85109 0
M  V30 7509 H 720.551 -0.235138 4.15235 0
M  V30 7510 H 719.128 -1.82876 3.24978 0
M  V30 7511 N 721.313 -1.57302 -0.09688 0
M  V30 7512 C 722.56 -1.85997 -0.800699 0
M  V30 7513 C 722.888 -0.765089 -1.7882 0
M  V30 7514 O 722.143 0.241492 -1.94204 0
M  V30 7515 C 722.442 -3.21272 -1.56586 0
M  V30 7516 C 722.108 -4.45104 -0.72064 0
M  V30 7517 C 720.77 -4.78723 -0.487632 0
M  V30 7518 C 723.122 -5.2103 -0.132948 0
M  V30 7519 C 720.45 -5.85697 0.34296 0
M  V30 7520 C 722.802 -6.28881 0.684957 0
M  V30 7521 C 721.466 -6.61017 0.928073 0
M  V30 7522 H 720.736 -0.680613 -0.292997 0
M  V30 7523 H 723.383 -1.91399 -0.0622474 0
M  V30 7524 H 721.688 -3.11547 -2.37583 0
M  V30 7525 H 723.385 -3.40702 -2.11478 0
M  V30 7526 H 719.975 -4.18777 -0.912359 0
M  V30 7527 H 724.159 -4.95392 -0.300132 0
M  V30 7528 H 719.415 -6.09008 0.540317 0
M  V30 7529 H 723.589 -6.86886 1.14721 0
M  V30 7530 H 721.216 -7.43738 1.57348 0
M  V30 7531 N 722.791 0.367657 -1.53252 0
M  V30 7532 C 723.741 1.45035 -1.75923 0
M  V30 7533 C 724.725 1.48736 -0.613719 0
M  V30 7534 O 725.917 1.54012 -0.872313 0
M  V30 7535 C 723.046 2.82493 -1.9507 0
M  V30 7536 C 722.132 2.83279 -3.15617 0
M  V30 7537 N 722.523 2.53712 -4.37566 0
M  V30 7538 C 720.821 3.1444 -3.16297 0
M  V30 7539 C 721.522 2.62123 -5.19294 0
M  V30 7540 N 720.498 2.96747 -4.55458 0
M  V30 7541 H 724.3 1.21035 -2.6782 0
M  V30 7542 H 721.814 0.575822 -1.51849 0
M  V30 7543 H 723.811 3.60473 -2.0944 0
M  V30 7544 H 722.471 3.07459 -1.044 0
M  V30 7545 H 723.482 2.27344 -4.65333 0
M  V30 7546 H 720.159 3.44733 -2.35511 0
M  V30 7547 H 721.549 2.42628 -6.26563 0
M  V30 7548 N 724.269 1.44576 0.627338 0
M  V30 7549 C 725.216 1.51734 1.73912 0
M  V30 7550 C 726.186 0.364745 1.62046 0
M  V30 7551 O 727.371 0.575503 1.81914 0
M  V30 7552 C 724.511 1.47116 3.12171 0
M  V30 7553 C 723.624 2.72778 3.34986 0
M  V30 7554 C 722.759 2.59968 4.63239 0
M  V30 7555 C 721.798 3.80776 4.79245 0
M  V30 7556 N 720.935 3.66618 5.98778 0
M  V30 7557 H 725.775 2.46722 1.6713 0
M  V30 7558 H 723.312 1.22444 0.815224 0
M  V30 7559 H 725.27 1.42429 3.92135 0
M  V30 7560 H 723.9 0.556928 3.17959 0
M  V30 7561 H 722.952 2.87637 2.48936 0
M  V30 7562 H 724.264 3.62441 3.42692 0
M  V30 7563 H 723.418 2.53135 5.51369 0
M  V30 7564 H 722.157 1.67872 4.57898 0
M  V30 7565 H 721.162 3.87989 3.89544 0
M  V30 7566 H 722.387 4.73913 4.86398 0
M  V30 7567 H 720.333 2.77277 5.9452 0
M  V30 7568 H 720.25 4.499 6.07557 0
M  V30 7569 H 721.518 3.63684 6.89459 0
M  V30 7570 N 725.747 -0.868086 1.31537 0
M  V30 7571 C 726.677 -1.99131 1.21939 0
M  V30 7572 C 727.658 -1.69768 0.106166 0
M  V30 7573 O 728.843 -1.92006 0.291081 0
M  V30 7574 C 725.973 -3.34676 0.927879 0
M  V30 7575 C 724.927 -3.7835 2.00088 0
M  V30 7576 C 724.253 -5.11375 1.56203 0
M  V30 7577 C 725.553 -3.95256 3.41424 0
M  V30 7578 H 727.247 -2.07419 2.15911 0
M  V30 7579 H 724.793 -0.996569 1.03945 0
M  V30 7580 H 726.746 -4.12793 0.847327 0
M  V30 7581 H 725.47 -3.26565 -0.0475042 0
M  V30 7582 H 724.129 -3.02474 2.07135 0
M  V30 7583 H 723.777 -4.99709 0.57445 0
M  V30 7584 H 723.477 -5.41568 2.27985 0
M  V30 7585 H 725.001 -5.92001 1.49558 0
M  V30 7586 H 726.415 -4.63764 3.3704 0
M  V30 7587 H 724.812 -4.36849 4.1144 0
M  V30 7588 H 725.882 -2.98579 3.82072 0
M  V30 7589 N 727.225 -1.14528 -1.08264 0
M  V30 7590 C 728.636 -0.925261 -1.6216 0
M  V30 7591 C 728.987 0.535587 -1.88748 0
M  V30 7592 O 728.112 1.4048 -1.64604 0
M  V30 7593 C 728.707 -1.67316 -2.94603 0
M  V30 7594 C 727.266 -1.49868 -3.45278 0
M  V30 7595 C 726.413 -1.69471 -2.19487 0
M  V30 7596 H 729.364 -1.29687 -0.914707 0
M  V30 7597 H 729.385 -1.13721 -3.63109 0
M  V30 7598 H 728.897 -2.73635 -2.75219 0
M  V30 7599 H 726.998 -0.459032 -3.69762 0
M  V30 7600 H 727.111 -2.2696 -4.21931 0
M  V30 7601 H 725.475 -1.12048 -2.2873 0
M  V30 7602 H 726.258 -2.77136 -2.0261 0
M  V30 7603 N 728.703 1.26451 -0.940633 0
M  V30 7604 C 729.666 2.24651 -0.454378 0
M  V30 7605 C 730.666 1.54826 0.434222 0
M  V30 7606 O 731.856 1.72628 0.233477 0
M  V30 7607 C 728.988 3.39148 0.345192 0
M  V30 7608 H 730.181 2.69182 -1.32217 0
M  V30 7609 H 727.734 1.38596 -0.722547 0
M  V30 7610 H 728.469 3.00018 1.23125 0
M  V30 7611 H 728.254 3.9101 -0.292107 0
M  V30 7612 H 729.744 4.12103 0.675341 0
M  V30 7613 N 730.181 0.707592 1.40822 0
M  V30 7614 C 731.458 0.171172 1.9485 0
M  V30 7615 C 731.838 -1.32143 1.64625 0
M  V30 7616 O 731.186 -2.07372 0.959647 0
M  V30 7617 C 731.396 0.475334 3.45748 0
M  V30 7618 C 732.744 0.409625 4.22619 0
M  V30 7619 O 733.768 0.410934 3.53822 0
M  V30 7620 O 732.627 0.380185 5.45176 0
M  V30 7621 H 729.721 0.022015 0.826707 0
M  V30 7622 H 732.267 0.784577 1.50474 0
M  V30 7623 H 731.039 1.50801 3.61075 0
M  V30 7624 H 730.662 -0.168439 3.97243 0
M  V30 7625 N 731.66 -1.50943 0.453197 0
M  V30 7626 C 732.907 -2.02212 -0.107922 0
M  V30 7627 C 733.235 -1.33639 -1.41318 0
M  V30 7628 O 732.49 -0.445154 -1.9057 0
M  V30 7629 C 732.789 -3.55603 -0.357944 0
M  V30 7630 C 732.455 -4.42556 0.863427 0
M  V30 7631 C 731.117 -4.6604 1.19834 0
M  V30 7632 C 733.469 -4.93468 1.67747 0
M  V30 7633 C 730.797 -5.37681 2.34768 0
M  V30 7634 C 733.149 -5.6637 2.81793 0
M  V30 7635 C 731.813 -5.88113 3.1572 0
M  V30 7636 H 731.083 -0.739947 -0.0394916 0
M  V30 7637 H 733.73 -1.81738 0.60363 0
M  V30 7638 H 732.035 -3.74495 -1.15156 0
M  V30 7639 H 733.732 -3.92821 -0.805781 0
M  V30 7640 H 730.322 -4.24485 0.592478 0
M  V30 7641 H 734.506 -4.75194 1.43192 0
M  V30 7642 H 729.762 -5.52727 2.61348 0
M  V30 7643 H 733.936 -6.04806 3.45229 0
M  V30 7644 H 731.563 -6.43404 4.04889 0
M  V30 7645 N 733.138 -0.185124 -1.56509 0
M  V30 7646 C 734.554 0.170865 -1.58683 0
M  V30 7647 C 734.754 1.61799 -1.20098 0
M  V30 7648 O 733.81 2.35181 -0.919038 0
M  V30 7649 C 735.123 -0.122459 -3.00451 0
M  V30 7650 C 736.671 -0.0617699 -3.12939 0
M  V30 7651 C 737.146 -0.328269 -4.56822 0
M  V30 7652 N 738.637 -0.276533 -4.62374 0
M  V30 7653 C 739.372 -0.456722 -5.71578 0
M  V30 7654 N 738.868 -0.69672 -6.89288 0
M  V30 7655 N 740.661 -0.391669 -5.60734 0
M  V30 7656 H 732.812 -1.12956 -1.79874 0
M  V30 7657 H 735.075 -0.45011 -0.834329 0
M  V30 7658 H 734.781 -1.12546 -3.33206 0
M  V30 7659 H 734.655 0.579578 -3.72721 0
M  V30 7660 H 737.042 0.931826 -2.80002 0
M  V30 7661 H 737.123 -0.796732 -2.43076 0
M  V30 7662 H 736.767 -1.31914 -4.9047 0
M  V30 7663 H 736.697 0.427465 -5.24862 0
M  V30 7664 H 739.188 -0.0972458 -3.77775 0
M  V30 7665 H 739.501 -0.823291 -7.68402 0
M  V30 7666 H 737.846 -0.733497 -6.91119 0
M  V30 7667 H 741.037 -0.204663 -4.67652 0
M  V30 7668 H 741.21 -0.535518 -6.45783 0
M  V30 7669 N 734.616 1.57351 0.0885366 0
M  V30 7670 C 735.548 1.99221 1.13329 0
M  V30 7671 C 736.561 0.895705 1.35945 0
M  V30 7672 O 737.75 1.17376 1.34481 0
M  V30 7673 C 734.85 2.3016 2.48756 0
M  V30 7674 C 734.023 3.61444 2.46327 0
M  V30 7675 C 733.082 3.80244 3.63732 0
M  V30 7676 O 732.108 4.52024 3.45924 0
M  V30 7677 N 733.31 3.2132 4.8346 0
M  V30 7678 H 736.075 2.89456 0.776862 0
M  V30 7679 H 733.636 1.59505 0.277428 0
M  V30 7680 H 735.628 2.39925 3.25911 0
M  V30 7681 H 734.198 1.459 2.76464 0
M  V30 7682 H 733.418 3.62588 1.54673 0
M  V30 7683 H 734.706 4.47678 2.41789 0
M  V30 7684 H 734.104 2.63028 5.00832 0
M  V30 7685 H 732.661 3.3656 5.58185 0
M  V30 7686 N 736.094 -0.359525 1.53444 0
M  V30 7687 C 737.041 -1.44073 1.8031 0
M  V30 7688 C 738.011 -1.52946 0.647811 0
M  V30 7689 O 739.196 -1.68739 0.890614 0
M  V30 7690 C 736.336 -2.80941 2.00416 0
M  V30 7691 C 735.449 -2.80986 3.28132 0
M  V30 7692 C 734.584 -4.09468 3.38393 0
M  V30 7693 C 733.623 -4.03679 4.60119 0
M  V30 7694 N 732.76 -5.23821 4.675 0
M  V30 7695 H 737.6 -1.20464 2.72566 0
M  V30 7696 H 735.137 -0.583859 1.35017 0
M  V30 7697 H 737.095 -3.60459 2.1006 0
M  V30 7698 H 735.725 -3.02936 1.11489 0
M  V30 7699 H 734.777 -1.93666 3.27411 0
M  V30 7700 H 736.089 -2.72583 4.17732 0
M  V30 7701 H 735.243 -4.97404 3.47382 0
M  V30 7702 H 733.982 -4.20632 2.4682 0
M  V30 7703 H 732.987 -3.14129 4.51224 0
M  V30 7704 H 734.212 -3.94112 5.5304 0
M  V30 7705 H 732.158 -5.35559 3.7883 0
M  V30 7706 H 732.075 -5.17611 5.51013 0
M  V30 7707 H 733.343 -6.13572 4.8078 0
M  V30 7708 N 737.572 -1.44907 -0.619662 0
M  V30 7709 C 738.821 -1.47569 -1.37501 0
M  V30 7710 C 739.134 -0.116707 -1.95252 0
M  V30 7711 O 740.34 -0.020909 -2.71492 0
M  V30 7712 C 738.796 -2.59851 -2.49009 0
M  V30 7713 C 738.404 -4.02008 -1.97722 0
M  V30 7714 C 740.148 -2.71746 -3.2612 0
M  V30 7715 C 738.055 -5.05693 -3.0664 0
M  V30 7716 H 736.985 -0.549068 -0.51676 0
M  V30 7717 H 739.636 -1.71009 -0.665437 0
M  V30 7718 H 738.018 -2.29671 -3.22594 0
M  V30 7719 H 739.192 -4.41809 -1.30925 0
M  V30 7720 H 737.507 -3.94456 -1.33392 0
M  V30 7721 H 740.104 -3.46382 -4.07337 0
M  V30 7722 H 740.447 -1.77959 -3.76346 0
M  V30 7723 H 740.98 -3.01392 -2.5963 0
M  V30 7724 H 737.719 -6.01148 -2.61345 0
M  V30 7725 H 737.239 -4.70473 -3.72042 0
M  V30 7726 H 738.918 -5.29906 -3.71226 0
M  V30 7727 N 739.05 0.861098 -1.31996 0
M  V30 7728 C 740 1.95703 -1.1698 0
M  V30 7729 C 740.984 1.60709 -0.0784201 0
M  V30 7730 O 742.176 1.74365 -0.304262 0
M  V30 7731 C 739.305 3.31606 -0.888388 0
M  V30 7732 C 738.391 3.7284 -2.02117 0
M  V30 7733 N 738.782 3.85957 -3.26911 0
M  V30 7734 C 737.08 4.02419 -1.92289 0
M  V30 7735 C 737.781 4.21333 -4.01065 0
M  V30 7736 N 736.757 4.32502 -3.29307 0
M  V30 7737 H 740.559 2.03968 -2.11599 0
M  V30 7738 H 738.073 1.05245 -1.23682 0
M  V30 7739 H 740.07 4.09881 -0.761782 0
M  V30 7740 H 738.73 3.24662 0.0494898 0
M  V30 7741 H 739.741 3.70449 -3.61923 0
M  V30 7742 H 736.418 4.03814 -1.06022 0
M  V30 7743 H 737.808 4.39005 -5.08649 0
M  V30 7744 N 740.528 1.15101 1.07655 0
M  V30 7745 C 741.805 0.834578 1.76902 0
M  V30 7746 C 742.185 -0.670431 2.00171 0
M  V30 7747 O 741.533 -1.61378 1.6177 0
M  V30 7748 C 741.743 1.64191 3.07965 0
M  V30 7749 C 743.091 1.84615 3.82364 0
M  V30 7750 O 744.115 1.60941 3.17768 0
M  V30 7751 O 742.974 2.24244 4.98374 0
M  V30 7752 H 740.068 0.306608 0.768063 0
M  V30 7753 H 742.614 1.25663 1.14048 0
M  V30 7754 H 741.386 2.66386 2.86626 0
M  V30 7755 H 741.009 1.216 3.78549 0
M  V30 7756 N 742.006 -1.2595 0.947325 0
M  V30 7757 C 743.236 -1.97258 0.614235 0
M  V30 7758 C 743.644 -1.70682 -0.816355 0
M  V30 7759 O 742.987 -0.97527 -1.55673 0
M  V30 7760 C 743.049 -3.50845 0.784081 0
M  V30 7761 C 742.713 -4.01084 2.19045 0
M  V30 7762 C 743.71 -4.12347 3.16648 0
M  V30 7763 C 741.395 -4.34936 2.51268 0
M  V30 7764 C 743.389 -4.56766 4.44572 0
M  V30 7765 C 741.076 -4.79043 3.79422 0
M  V30 7766 C 742.074 -4.89919 4.75887 0
M  V30 7767 O 741.762 -5.3305 6.01758 0
M  V30 7768 H 741.494 -0.635738 0.22981 0
M  V30 7769 H 744.048 -1.61268 1.27207 0
M  V30 7770 H 742.278 -3.86638 0.069101 0
M  V30 7771 H 743.967 -4.03363 0.453135 0
M  V30 7772 H 744.733 -3.86432 2.93079 0
M  V30 7773 H 740.612 -4.25702 1.76916 0
M  V30 7774 H 744.156 -4.6517 5.19868 0
M  V30 7775 H 740.053 -5.04402 4.02802 0
M  V30 7776 H 740.821 -5.51255 6.05029 0
M  V30 7777 N 743.484 -0.715051 -1.40445 0
M  V30 7778 C 744.714 -0.263576 -2.04912 0
M  V30 7779 C 745.122 1.09943 -1.53978 0
M  V30 7780 O 744.465 1.70203 -0.691133 0
M  V30 7781 C 744.527 -0.165048 -3.59121 0
M  V30 7782 C 744.191 -1.46325 -4.32941 0
M  V30 7783 C 745.188 -2.40506 -4.60926 0
M  V30 7784 C 742.873 -1.72203 -4.7186 0
M  V30 7785 C 744.867 -3.58812 -5.26814 0
M  V30 7786 C 742.554 -2.9079 -5.3748 0
M  V30 7787 C 743.552 -3.83917 -5.64887 0
M  V30 7788 O 743.24 -5.00424 -6.29151 0
M  V30 7789 H 742.972 -0.116317 -0.665918 0
M  V30 7790 H 745.526 -0.973774 -1.8085 0
M  V30 7791 H 743.756 0.601088 -3.82 0
M  V30 7792 H 745.445 0.251794 -4.05118 0
M  V30 7793 H 746.211 -2.21778 -4.31323 0
M  V30 7794 H 742.09 -1.00571 -4.49896 0
M  V30 7795 H 745.634 -4.31517 -5.48123 0
M  V30 7796 H 741.531 -3.09428 -5.66502 0
M  V30 7797 H 742.299 -5.00494 -6.47648 0
M  V30 7798 N 744.962 1.50701 -0.461195 0
M  V30 7799 C 745.872 2.32069 0.343661 0
M  V30 7800 C 746.888 1.42016 1.00535 0
M  V30 7801 O 748.064 1.75077 0.995498 0
M  V30 7802 C 745.129 3.16424 1.41692 0
M  V30 7803 C 744.19 4.22286 0.772869 0
M  V30 7804 C 743.423 5.02609 1.79499 0
M  V30 7805 O 743.646 4.83874 3.0203 0
M  V30 7806 O 742.58 5.86047 1.3723 0
M  V30 7807 H 746.406 3.01996 -0.321268 0
M  V30 7808 H 743.991 1.47723 -0.223235 0
M  V30 7809 H 745.873 3.68795 2.03883 0
M  V30 7810 H 744.548 2.49236 2.0655 0
M  V30 7811 H 743.455 3.73931 0.112277 0
M  V30 7812 H 744.788 4.91915 0.167399 0
M  V30 7813 N 746.441 0.193421 1.56409 0
M  V30 7814 C 747.391 -0.74089 2.15627 0
M  V30 7815 C 748.375 -1.17747 1.09656 0
M  V30 7816 O 749.567 -1.13615 1.35723 0
M  V30 7817 C 746.696 -1.96091 2.81786 0
M  V30 7818 C 745.782 -1.54531 3.94944 0
M  V30 7819 N 746.173 -0.840569 4.98767 0
M  V30 7820 C 744.471 -1.83473 4.06514 0
M  V30 7821 C 745.172 -0.632571 5.7825 0
M  V30 7822 N 744.148 -1.18078 5.30621 0
M  V30 7823 H 747.95 -0.193718 2.93261 0
M  V30 7824 H 745.464 -0.00643211 1.62399 0
M  V30 7825 H 747.461 -2.64071 3.22602 0
M  V30 7826 H 746.121 -2.51282 2.05639 0
M  V30 7827 H 747.132 -0.496218 5.15517 0
M  V30 7828 H 743.809 -2.40184 3.41493 0
M  V30 7829 H 745.199 -0.0736433 6.7186 0
M  V30 7830 N 747.919 -1.57396 -0.0801906 0
M  V30 7831 C 749.335 -1.53564 -0.434778 0
M  V30 7832 C 749.535 -0.912372 -1.79661 0
M  V30 7833 O 748.591 -0.511268 -2.4727 0
M  V30 7834 C 749.904 -2.98244 -0.383561 0
M  V30 7835 C 751.452 -3.09536 -0.46435 0
M  V30 7836 C 751.927 -4.55851 -0.443128 0
M  V30 7837 N 753.418 -4.60456 -0.503448 0
M  V30 7838 C 754.153 -5.71135 -0.509106 0
M  V30 7839 N 753.649 -6.91203 -0.47008 0
M  V30 7840 N 755.442 -5.59353 -0.555035 0
M  V30 7841 H 747.593 -1.96281 0.811635 0
M  V30 7842 H 749.856 -0.898041 0.303689 0
M  V30 7843 H 749.562 -3.47369 0.550236 0
M  V30 7844 H 749.436 -3.57705 -1.19694 0
M  V30 7845 H 751.823 -2.6039 -1.38857 0
M  V30 7846 H 751.904 -2.53 0.377445 0
M  V30 7847 H 751.548 -5.05653 0.477207 0
M  V30 7848 H 751.478 -5.10242 -1.30234 0
M  V30 7849 H 753.969 -3.74048 -0.538199 0
M  V30 7850 H 754.282 -7.7132 -0.478091 0
M  V30 7851 H 752.627 -6.93625 -0.436897 0
M  V30 7852 H 755.818 -4.64453 -0.583158 0
M  V30 7853 H 755.991 -6.4561 -0.555976 0
M  V30 7854 N 749.397 0.351382 -1.53633 0
M  V30 7855 C 750.627 1.11113 -1.74176 0
M  V30 7856 C 751.035 1.83084 -0.477154 0
M  V30 7857 O 750.378 1.74941 0.560483 0
M  V30 7858 C 750.44 2.17521 -2.86225 0
M  V30 7859 C 750.104 1.65193 -4.26099 0
M  V30 7860 C 751.101 1.10842 -5.07947 0
M  V30 7861 C 748.786 1.70277 -4.72558 0
M  V30 7862 C 750.78 0.622689 -6.34351 0
M  V30 7863 C 748.467 1.21316 -5.98937 0
M  V30 7864 C 749.465 0.674033 -6.79666 0
M  V30 7865 O 749.153 0.191696 -8.03671 0
M  V30 7866 H 748.885 0.33756 -0.585687 0
M  V30 7867 H 751.439 0.411786 -2.0123 0
M  V30 7868 H 749.669 2.90991 -2.54678 0
M  V30 7869 H 751.358 2.78999 -2.94812 0
M  V30 7870 H 752.124 1.06243 -4.7322 0
M  V30 7871 H 748.003 2.11181 -4.09785 0
M  V30 7872 H 751.547 0.201216 -6.9731 0
M  V30 7873 H 747.444 1.25613 -6.3316 0
M  V30 7874 H 748.212 0.309712 -8.17914 0
M  V30 7875 N 750.875 1.45233 0.611969 0
M  V30 7876 C 751.807 1.49575 1.73666 0
M  V30 7877 C 752.82 0.386987 1.58134 0
M  V30 7878 O 754.009 0.653804 1.66095 0
M  V30 7879 C 751.109 1.33223 3.11617 0
M  V30 7880 C 750.282 2.57694 3.5343 0
M  V30 7881 C 749.341 2.35962 4.70328 0
M  V30 7882 O 748.367 3.09553 4.77667 0
M  V30 7883 N 749.569 1.40243 5.63305 0
M  V30 7884 H 752.334 2.46539 1.70407 0
M  V30 7885 H 749.895 1.40917 0.79712 0
M  V30 7886 H 751.887 1.16502 3.87569 0
M  V30 7887 H 750.457 0.44551 3.09409 0
M  V30 7888 H 749.677 2.8956 2.67486 0
M  V30 7889 H 750.965 3.40441 3.78124 0
M  V30 7890 H 750.363 0.795023 5.60086 0
M  V30 7891 H 748.92 1.29496 6.38807 0
M  V30 7892 N 752.353 -0.854086 1.3245 0
M  V30 7893 C 753.601 -1.60513 1.228 0
M  V30 7894 C 753.922 -1.93865 -0.210073 0
M  V30 7895 O 753.192 -1.59673 -1.13496 0
M  V30 7896 H 751.772 -0.595099 0.451516 0
M  V30 7897 H 754.434 -1.0216 1.6598 0
M  V30 7898 H 753.53 -2.54182 1.81102 0
M  V30 7899 N 753.831 -1.1567 -1.07043 0
M  V30 7900 C 754.778 -0.856336 -2.14326 0
M  V30 7901 C 755.748 0.192051 -1.64986 0
M  V30 7902 O 756.933 0.0589148 -1.90709 0
M  V30 7903 C 754.073 -0.355227 -3.43267 0
M  V30 7904 C 753.186 -1.46555 -4.06381 0
M  V30 7905 C 752.321 -0.920245 -5.23168 0
M  V30 7906 C 751.36 -2.00729 -5.78251 0
M  V30 7907 N 750.497 -1.47813 -6.86364 0
M  V30 7908 H 755.337 -1.77514 -2.39359 0
M  V30 7909 H 752.874 -0.885676 -1.17449 0
M  V30 7910 H 754.832 -0.0463804 -4.17174 0
M  V30 7911 H 753.462 0.526649 -3.18475 0
M  V30 7912 H 752.514 -1.89052 -3.30096 0
M  V30 7913 H 753.826 -2.28616 -4.43324 0
M  V30 7914 H 752.98 -0.564127 -6.04072 0
M  V30 7915 H 751.719 -0.0688477 -4.87651 0
M  V30 7916 H 750.724 -2.3722 -4.95991 0
M  V30 7917 H 751.949 -2.86252 -6.15822 0
M  V30 7918 H 749.895 -0.649145 -6.5278 0
M  V30 7919 H 749.812 -2.23498 -7.22208 0
M  V30 7920 H 751.08 -1.15036 -7.70965 0
M  V30 7921 N 755.309 1.25446 -0.953992 0
M  V30 7922 C 756.242 2.24341 -0.417912 0
M  V30 7923 C 757.22 1.54709 0.5004 0
M  V30 7924 O 758.404 1.83414 0.434923 0
M  V30 7925 C 755.531 3.36352 0.398155 0
M  V30 7926 C 754.577 4.24007 -0.460461 0
M  V30 7927 S 755.41 5.00951 -1.89231 0
M  V30 7928 C 756.566 6.1643 -1.08465 0
M  V30 7929 H 756.799 2.69465 -1.25602 0
M  V30 7930 H 754.332 1.34512 -0.758018 0
M  V30 7931 H 756.29 4.01325 0.863059 0
M  V30 7932 H 754.951 2.89813 1.21108 0
M  V30 7933 H 754.144 5.03728 0.165415 0
M  V30 7934 H 753.746 3.63965 -0.860549 0
M  V30 7935 H 756.038 6.76681 -0.333017 0
M  V30 7936 H 756.981 6.8335 -1.85577 0
M  V30 7937 H 757.389 5.61139 -0.615062 0
M  V30 7938 N 756.787 0.722489 1.40064 0
M  V30 7939 C 758.034 0.264979 2.00759 0
M  V30 7940 C 758.362 -1.14395 1.57302 0
M  V30 7941 O 757.617 -1.79165 0.787298 0
M  V30 7942 C 757.916 0.300682 3.56133 0
M  V30 7943 C 757.582 1.66087 4.19197 0
M  V30 7944 C 756.244 2.03319 4.36136 0
M  V30 7945 C 758.596 2.55452 4.54306 0
M  V30 7946 C 755.924 3.29448 4.8547 0
M  V30 7947 C 758.276 3.8094 5.05042 0
M  V30 7948 C 756.94 4.1828 5.2019 0
M  V30 7949 H 756.21 0.0969625 0.734629 0
M  V30 7950 H 758.857 0.926877 1.67575 0
M  V30 7951 H 757.162 -0.44479 3.89267 0
M  V30 7952 H 758.859 -0.0712542 4.00937 0
M  V30 7953 H 755.449 1.36137 4.06405 0
M  V30 7954 H 759.633 2.27961 4.40849 0
M  V30 7955 H 754.889 3.58338 4.95382 0
M  V30 7956 H 759.063 4.50351 5.31184 0
M  V30 7957 H 756.69 5.16081 5.58179 0
M  V30 7958 N 758.265 -1.50454 0.469181 0
M  V30 7959 C 759.542 -1.9504 -0.147955 0
M  V30 7960 C 759.922 -1.40946 -1.57154 0
M  V30 7961 O 759.27 -0.609663 -2.20217 0
M  V30 7962 C 759.48 -3.48875 -0.0932198 0
M  V30 7963 C 760.828 -4.23655 -0.283056 0
M  V30 7964 O 761.852 -3.55795 -0.169892 0
M  V30 7965 O 760.711 -5.44102 -0.511396 0
M  V30 7966 H 757.805 -0.819283 -0.11271 0
M  V30 7967 H 760.351 -1.6123 0.529446 0
M  V30 7968 H 759.123 -3.80791 0.900784 0
M  V30 7969 H 758.746 -3.89217 -0.812161 0
M  V30 7970 N 759.743 -0.201713 -1.56304 0
M  V30 7971 C 760.653 0.728296 -2.23009 0
M  V30 7972 C 761.669 1.22945 -1.23128 0
M  V30 7973 O 762.845 1.27523 -1.55884 0
M  V30 7974 C 759.91 1.92792 -2.88153 0
M  V30 7975 C 758.971 1.47068 -4.03323 0
M  V30 7976 C 758.204 2.61312 -4.65351 0
M  V30 7977 O 758.427 3.7896 -4.26317 0
M  V30 7978 O 757.361 2.33646 -5.54701 0
M  V30 7979 H 761.187 0.190166 -3.03104 0
M  V30 7980 H 758.772 0.0278725 -1.49374 0
M  V30 7981 H 760.654 2.6289 -3.29343 0
M  V30 7982 H 759.329 2.45452 -2.11033 0
M  V30 7983 H 758.236 0.738299 -3.66742 0
M  V30 7984 H 759.569 0.990666 -4.82127 0
M  V30 7985 N 761.222 1.57436 0.0718424 0
M  V30 7986 C 762.499 1.78312 0.804006 0
M  V30 7987 C 762.879 0.789273 1.9579 0
M  V30 7988 O 762.227 -0.177605 2.27809 0
M  V30 7989 C 762.437 3.24798 1.277 0
M  V30 7990 C 763.785 3.88627 1.71039 0
M  V30 7991 O 764.809 3.28689 1.37266 0
M  V30 7992 O 763.668 4.94073 2.33567 0
M  V30 7993 H 760.762 0.73178 0.385262 0
M  V30 7994 H 763.308 1.69621 0.0519219 0
M  V30 7995 H 762.08 3.88688 0.45134 0
M  V30 7996 H 761.703 3.38213 2.0904 0
M  V30 7997 N 762.7 -0.34323 1.53817 0
M  V30 7998 C 763.925 -1.1079 1.75329 0
M  V30 7999 C 764.35 -1.81571 0.491293 0
M  V30 8000 O 763.708 -1.72561 -0.556089 0
M  V30 8001 C 763.756 -2.09681 2.9337 0
M  V30 8002 O 762.86 -3.17207 2.63541 0
M  V30 8003 H 762.201 -0.320402 0.581583 0
M  V30 8004 H 764.731 -0.393525 2.0078 0
M  V30 8005 H 764.741 -2.52897 3.20168 0
M  V30 8006 H 763.416 -1.5756 3.84899 0
M  V30 8007 H 761.993 -2.78806 2.47632 0
M  V30 8008 N 764.178 -1.45556 -0.604258 0
M  V30 8009 C 765.427 -1.49019 -1.35928 0
M  V30 8010 C 765.74 -0.137409 -1.95117 0
M  V30 8011 O 766.946 -0.0497032 -2.71455 0
M  V30 8012 C 765.402 -2.62477 -2.46239 0
M  V30 8013 C 765.01 -4.04082 -1.93447 0
M  V30 8014 C 766.754 -2.7519 -3.23219 0
M  V30 8015 C 764.661 -5.08917 -3.0126 0
M  V30 8016 H 763.591 -0.554518 -0.510907 0
M  V30 8017 H 766.242 -1.71705 -0.647262 0
M  V30 8018 H 764.624 -2.3308 -3.2014 0
M  V30 8019 H 765.798 -4.43173 -1.26232 0
M  V30 8020 H 764.113 -3.95849 -1.29201 0
M  V30 8021 H 766.71 -3.50683 -4.0364 0
M  V30 8022 H 767.053 -1.81941 -3.74437 0
M  V30 8023 H 767.586 -3.04129 -2.56418 0
M  V30 8024 H 764.325 -6.03886 -2.54955 0
M  V30 8025 H 763.845 -4.74393 -3.67031 0
M  V30 8026 H 765.524 -5.33814 -3.65584 0
M  V30 8027 N 765.656 0.84705 -1.32902 0
M  V30 8028 C 766.586 1.97166 -1.25091 0
M  V30 8029 C 767.567 1.69578 -0.133161 0
M  V30 8030 O 768.752 1.91519 -0.321591 0
M  V30 8031 C 765.882 3.33157 -0.981006 0
M  V30 8032 C 764.836 3.75119 -2.06082 0
M  V30 8033 C 764.162 5.08826 -1.64318 0
M  V30 8034 C 765.462 3.89774 -3.47669 0
M  V30 8035 H 767.156 2.03958 -2.19184 0
M  V30 8036 H 764.702 0.979907 -1.05517 0
M  V30 8037 H 766.655 4.11393 -0.912891 0
M  V30 8038 H 765.379 3.266 -0.00445559 0
M  V30 8039 H 764.038 2.9914 -2.11921 0
M  V30 8040 H 763.686 4.98732 -0.653876 0
M  V30 8041 H 763.386 5.37873 -2.36572 0
M  V30 8042 H 764.91 5.89546 -1.58958 0
M  V30 8043 H 766.324 4.58343 -3.44376 0
M  V30 8044 H 764.721 4.30248 -4.18338 0
M  V30 8045 H 765.791 2.92463 -3.86773 0
M  V30 8046 N 767.134 1.16236 1.06428 0
M  V30 8047 C 768.382 0.941171 1.78847 0
M  V30 8048 C 768.703 -0.53248 1.87589 0
M  V30 8049 O 767.973 -1.38686 1.38358 0
M  V30 8050 H 766.553 0.345228 0.66244 0
M  V30 8051 H 769.215 1.46479 1.28569 0
M  V30 8052 H 768.311 1.35871 2.80972 0
M  V30 8053 N 768.612 -1.24939 0.960631 0
M  V30 8054 C 769.522 -2.29374 0.492435 0
M  V30 8055 C 770.538 -1.68262 -0.443154 0
M  V30 8056 O 771.714 -1.98875 -0.31793 0
M  V30 8057 C 768.779 -3.46023 -0.216626 0
M  V30 8058 C 767.84 -4.22557 0.757915 0
M  V30 8059 C 767.073 -5.33636 0.0825969 0
M  V30 8060 O 767.296 -5.59084 -1.13054 0
M  V30 8061 O 766.23 -5.96939 0.771177 0
M  V30 8062 H 770.056 -2.71525 1.36044 0
M  V30 8063 H 767.641 -1.30499 0.72735 0
M  V30 8064 H 769.523 -4.16885 -0.615241 0
M  V30 8065 H 768.198 -3.05862 -1.05971 0
M  V30 8066 H 767.105 -3.54099 1.20685 0
M  V30 8067 H 768.438 -4.66516 1.5692 0
M  V30 8068 N 770.09 -0.729906 -1.39679 0
M  V30 8069 C 771.02 -0.101618 -2.33279 0
M  V30 8070 C 772.001 0.729854 -1.53646 0
M  V30 8071 O 773.186 0.67587 -1.82059 0
M  V30 8072 C 770.316 0.81024 -3.37716 0
M  V30 8073 C 769.27 0.0833126 -4.27919 0
M  V30 8074 C 768.596 1.11185 -5.23012 0
M  V30 8075 C 769.896 -1.07107 -5.112 0
M  V30 8076 H 771.59 -0.883452 -2.86069 0
M  V30 8077 H 769.136 -0.426283 -1.37546 0
M  V30 8078 H 771.089 1.25927 -4.02145 0
M  V30 8079 H 769.813 1.62413 -2.83354 0
M  V30 8080 H 768.472 -0.346043 -3.64963 0
M  V30 8081 H 768.12 1.91917 -4.64948 0
M  V30 8082 H 767.82 0.63026 -5.8421 0
M  V30 8083 H 769.344 1.56068 -5.90318 0
M  V30 8084 H 770.758 -0.700726 -5.69002 0
M  V30 8085 H 769.155 -1.48196 -5.81514 0
M  V30 8086 H 770.225 -1.89513 -4.46332 0
M  V30 8087 N 771.568 1.50203 -0.477153 0
M  V30 8088 C 772.516 2.30278 0.327826 0
M  V30 8089 C 773.51 1.37831 0.984839 0
M  V30 8090 O 774.716 1.54994 0.915251 0
M  V30 8091 H 771.091 0.741612 0.124564 0
M  V30 8092 H 773.062 2.96124 -0.367853 0
M  V30 8093 C 771.811 3.18548 1.39365 0
M  V30 8094 H 771.134 3.89596 0.897475 0
M  V30 8095 H 772.574 3.77561 1.92934 0
M  V30 8096 C 771.033 2.36548 2.39889 0
M  V30 8097 O 771.563 2.05282 3.45286 0
M  V30 8098 N 769.769 1.99015 2.11758 0
M  V30 8099 H 769.316 2.24641 1.26071 0
M  V30 8100 H 769.274 1.44454 2.7925 0
M  V30 8101 N 773.046 0.209999 1.56195 0
M  V30 8102 C 774.294 -0.423974 1.97603 0
M  V30 8103 C 774.615 -1.61112 1.09854 0
M  V30 8104 O 773.885 -1.95134 0.173032 0
M  V30 8105 H 772.465 -0.159629 0.729745 0
M  V30 8106 H 775.127 0.300205 1.92574 0
M  V30 8107 H 774.223 -0.75809 3.02753 0
M  V30 8108 N 774.524 -1.57472 -0.0634922 0
M  V30 8109 C 775.935 -1.76303 -0.614337 0
M  V30 8110 C 776.286 -0.836578 -1.77471 0
M  V30 8111 O 775.411 -0.0227184 -2.16388 0
M  V30 8112 C 776.006 -3.19709 -1.12122 0
M  V30 8113 C 774.565 -3.39856 -1.61786 0
M  V30 8114 C 773.712 -2.71975 -0.540845 0
M  V30 8115 H 776.663 -1.57864 0.162702 0
M  V30 8116 H 776.684 -3.24326 -1.98979 0
M  V30 8117 H 776.196 -3.87114 -0.276472 0
M  V30 8118 H 774.297 -2.77578 -2.48558 0
M  V30 8119 H 774.41 -4.48338 -1.68908 0
M  V30 8120 H 772.774 -2.34763 -0.987854 0
M  V30 8121 H 773.557 -3.4204 0.293856 0
M  V30 8122 N 776.003 0.335068 -1.53997 0
M  V30 8123 C 776.933 1.41727 -1.85568 0
M  V30 8124 C 777.914 1.54505 -0.7115 0
M  V30 8125 O 779.099 1.68573 -0.964191 0
M  V30 8126 C 776.229 2.7866 -2.07282 0
M  V30 8127 C 775.183 2.80682 -3.23112 0
M  V30 8128 C 774.509 4.20581 -3.30175 0
M  V30 8129 C 775.809 2.45458 -4.61029 0
M  V30 8130 H 777.503 1.15555 -2.76202 0
M  V30 8131 H 775.049 0.554445 -1.32898 0
M  V30 8132 H 777.002 3.54423 -2.27952 0
M  V30 8133 H 775.726 3.06286 -1.13387 0
M  V30 8134 H 774.385 2.07373 -3.02311 0
M  V30 8135 H 774.033 4.4533 -2.33859 0
M  V30 8136 H 773.733 4.22843 -4.08016 0
M  V30 8137 H 775.257 4.98174 -3.53066 0
M  V30 8138 H 776.671 3.10934 -4.81656 0
M  V30 8139 H 775.068 2.5899 -5.41336 0
M  V30 8140 H 776.138 1.40628 -4.6406 0
M  V30 8141 N 777.481 1.45874 0.596531 0
M  V30 8142 C 778.897 1.30524 0.918459 0
M  V30 8143 C 779.097 0.266429 1.99731 0
M  V30 8144 O 778.153 -0.335809 2.50257 0
M  V30 8145 C 779.466 2.68747 1.3489 0
M  V30 8146 C 781.014 2.7673 1.46251 0
M  V30 8147 C 781.489 4.15504 1.92667 0
M  V30 8148 N 782.98 4.17853 1.99883 0
M  V30 8149 C 783.715 5.22109 2.37044 0
M  V30 8150 N 783.211 6.36704 2.73094 0
M  V30 8151 N 785.004 5.09471 2.37479 0
M  V30 8152 H 777.155 2.12081 -0.116368 0
M  V30 8153 H 779.418 0.947941 0.0106033 0
M  V30 8154 H 779.124 3.46006 0.630288 0
M  V30 8155 H 778.998 2.97942 2.31323 0
M  V30 8156 H 781.385 1.99768 2.17202 0
M  V30 8157 H 781.466 2.51236 0.481054 0
M  V30 8158 H 781.11 4.92956 1.223 0
M  V30 8159 H 781.04 4.38396 2.91747 0
M  V30 8160 H 783.531 3.35163 1.74568 0
M  V30 8161 H 783.844 7.12041 3.00362 0
M  V30 8162 H 782.189 6.40087 2.70764 0
M  V30 8163 H 785.38 4.18987 2.08728 0
M  V30 8164 H 785.553 5.90837 2.66112 0
M  V30 8165 N 778.959 -0.83999 1.33349 0
M  V30 8166 C 779.869 -1.98182 1.25543 0
M  V30 8167 C 780.885 -1.73204 0.166208 0
M  V30 8168 O 782.061 -1.97596 0.389589 0
M  V30 8169 C 779.126 -3.32157 0.993614 0
M  V30 8170 C 778.187 -3.70258 2.17273 0
M  V30 8171 C 777.42 -4.9784 1.92331 0
M  V30 8172 O 777.643 -5.63679 0.873074 0
M  V30 8173 O 776.577 -5.33418 2.78835 0
M  V30 8174 H 780.403 -2.07708 2.21565 0
M  V30 8175 H 777.988 -0.972852 1.13384 0
M  V30 8176 H 779.87 -4.12433 0.864711 0
M  V30 8177 H 778.545 -3.23637 0.0636596 0
M  V30 8178 H 777.452 -2.90497 2.35716 0
M  V30 8179 H 778.785 -3.83442 3.08598 0
M  V30 8180 N 780.437 -1.16799 -1.0581 0
M  V30 8181 C 781.347 -0.893492 -2.16919 0
M  V30 8182 C 782.363 0.136061 -1.73467 0
M  V30 8183 O 783.539 -0.0417348 -2.01357 0
M  V30 8184 C 780.604 -0.403763 -3.44341 0
M  V30 8185 C 779.665 -1.49914 -4.02274 0
M  V30 8186 C 778.898 -1.03269 -5.23614 0
M  V30 8187 O 779.121 0.115647 -5.70283 0
M  V30 8188 O 778.055 -1.8231 -5.73626 0
M  V30 8189 H 781.881 -1.82274 -2.42919 0
M  V30 8190 H 779.466 -0.948361 -1.1544 0
M  V30 8191 H 781.348 -0.137874 -4.21174 0
M  V30 8192 H 780.023 0.497413 -3.19855 0
M  V30 8193 H 778.93 -1.81883 -3.26909 0
M  V30 8194 H 780.263 -2.3758 -4.31064 0
M  V30 8195 N 781.915 1.24427 -0.967243 0
M  V30 8196 C 783.164 1.91789 -0.624478 0
M  V30 8197 C 783.477 1.76448 0.844129 0
M  V30 8198 O 784.683 2.38495 1.2974 0
M  V30 8199 C 783.139 3.43743 -1.06626 0
M  V30 8200 C 782.747 3.67771 -2.55829 0
M  V30 8201 C 784.491 4.16958 -0.79662 0
M  V30 8202 C 782.398 5.13293 -2.93742 0
M  V30 8203 H 781.328 0.71811 -0.229856 0
M  V30 8204 H 783.979 1.41081 -1.17339 0
M  V30 8205 H 782.361 3.93484 -0.445663 0
M  V30 8206 H 783.535 3.28631 -3.23015 0
M  V30 8207 H 781.85 3.07841 -2.80398 0
M  V30 8208 H 784.447 5.24171 -1.05589 0
M  V30 8209 H 784.79 4.15442 0.267163 0
M  V30 8210 H 785.323 3.73164 -1.37816 0
M  V30 8211 H 782.062 5.19931 -3.9919 0
M  V30 8212 H 781.582 5.53433 -2.3124 0
M  V30 8213 H 783.261 5.81521 -2.83623 0
M  V30 8214 N 783.393 0.737304 1.3929 0
M  V30 8215 C 784.639 0.286681 2.00763 0
M  V30 8216 C 784.972 -1.12388 1.58375 0
M  V30 8217 O 784.247 -1.76661 0.813699 0
M  V30 8218 C 784.53 0.391147 3.57969 0
M  V30 8219 C 784.383 1.84165 4.1037 0
M  V30 8220 C 785.702 -0.225072 4.39524 0
M  V30 8221 H 782.821 0.105642 0.729389 0
M  V30 8222 H 785.463 0.933892 1.65464 0
M  V30 8223 H 783.613 -0.159875 3.88171 0
M  V30 8224 H 785.285 2.44972 3.90879 0
M  V30 8225 H 783.528 2.3622 3.63844 0
M  V30 8226 H 784.199 1.866 5.19504 0
M  V30 8227 H 786.675 0.244677 4.1538 0
M  V30 8228 H 785.551 -0.121646 5.48765 0
M  V30 8229 H 785.812 -1.31141 4.22202 0
M  V30 8230 N 784.871 -1.49948 0.485112 0
M  V30 8231 C 785.819 -2.30449 -0.315609 0
M  V30 8232 C 786.813 -1.38351 -0.977516 0
M  V30 8233 O 788.019 -1.55477 -0.907019 0
M  V30 8234 H 784.394 -0.742262 -0.120629 0
M  V30 8235 H 786.365 -2.95925 0.383552 0
M  V30 8236 C 785.114 -3.19283 -1.37673 0
M  V30 8237 H 784.437 -3.90067 -0.876801 0
M  V30 8238 H 785.877 -3.78579 -1.90929 0
M  V30 8239 C 784.336 -2.37817 -2.38631 0
M  V30 8240 O 784.866 -2.0711 -3.44192 0
M  V30 8241 N 783.072 -2.00135 -2.107 0
M  V30 8242 H 782.619 -2.25307 -1.24878 0
M  V30 8243 H 782.577 -1.45933 -2.7848 0
M  V30 8244 N 786.349 -0.21828 -1.56081 0
M  V30 8245 C 787.596 0.414307 -1.98216 0
M  V30 8246 C 787.924 1.60005 -1.10584 0
M  V30 8247 O 787.179 1.95124 -0.150043 0
M  V30 8248 C 787.478 0.894782 -3.46018 0
M  V30 8249 C 787.144 -0.180083 -4.5054 0
M  V30 8250 C 785.806 -0.475367 -4.78846 0
M  V30 8251 C 788.158 -0.907191 -5.13244 0
M  V30 8252 C 785.486 -1.50233 -5.67139 0
M  V30 8253 C 787.838 -1.92347 -6.02649 0
M  V30 8254 C 786.502 -2.22571 -6.293 0
M  V30 8255 H 785.772 0.151606 -0.725325 0
M  V30 8256 H 788.419 -0.320113 -1.88806 0
M  V30 8257 H 786.724 1.7079 -3.52616 0
M  V30 8258 H 788.421 1.39403 -3.75989 0
M  V30 8259 H 785.011 0.06022 -4.28558 0
M  V30 8260 H 789.195 -0.692303 -4.91448 0
M  V30 8261 H 784.451 -1.74215 -5.86054 0
M  V30 8262 H 788.625 -2.49197 -6.50288 0
M  V30 8263 H 786.252 -3.0229 -6.97513 0
M  V30 8264 N 787.827 1.57504 0.0551401 0
M  V30 8265 C 788.775 2.05884 1.08233 0
M  V30 8266 C 789.769 0.967383 1.39061 0
M  V30 8267 O 790.975 1.15242 1.38273 0
M  V30 8268 H 787.35 0.656673 0.366449 0
M  V30 8269 H 789.321 2.91273 0.648269 0
M  V30 8270 C 788.07 2.53221 2.38273 0
M  V30 8271 H 787.393 3.36809 2.15406 0
M  V30 8272 H 788.833 2.9081 3.08554 0
M  V30 8273 C 787.292 1.42218 3.05411 0
M  V30 8274 O 787.822 0.773638 3.9418 0
M  V30 8275 N 786.028 1.16316 2.66306 0
M  V30 8276 H 785.575 1.69237 1.94207 0
M  V30 8277 H 785.533 0.422534 3.11548 0
M  V30 8278 N 789.305 -0.326896 1.54172 0
M  V30 8279 C 790.545 -1.07349 1.73941 0
M  V30 8280 C 790.909 -1.85355 0.50075 0
M  V30 8281 O 792.11 -2.62562 0.575731 0
M  V30 8282 C 790.381 -1.97636 2.97783 0
M  V30 8283 S 791.94 -2.79292 3.3844 0
M  V30 8284 H 788.758 -0.362459 0.611673 0
M  V30 8285 H 791.36 -0.349884 1.92344 0
M  V30 8286 H 790.064 -1.39158 3.86087 0
M  V30 8287 H 789.595 -2.74406 2.81895 0
M  V30 8288 H 791.61 -4.00106 2.93478 0
M  V30 8289 N 790.784 -1.46188 -0.588786 0
M  V30 8290 C 792.2 -1.31009 -0.911524 0
M  V30 8291 C 792.4 -0.277017 -1.99587 0
M  V30 8292 O 791.456 0.322532 -2.50432 0
M  V30 8293 C 792.769 -2.69459 -1.33463 0
M  V30 8294 C 794.317 -2.77502 -1.44782 0
M  V30 8295 C 794.792 -4.1652 -1.90461 0
M  V30 8296 N 796.283 -4.18907 -1.97665 0
M  V30 8297 C 797.018 -5.23359 -2.34271 0
M  V30 8298 N 796.514 -6.38143 -2.69714 0
M  V30 8299 N 798.307 -5.10723 -2.34774 0
M  V30 8300 H 790.458 -2.12016 0.127614 0
M  V30 8301 H 792.721 -0.947984 -0.00557599 0
M  V30 8302 H 792.427 -3.46336 -0.611929 0
M  V30 8303 H 792.301 -2.99165 -2.2974 0
M  V30 8304 H 794.688 -2.00917 -2.1614 0
M  V30 8305 H 794.769 -2.51488 -0.467724 0
M  V30 8306 H 794.413 -4.93597 -1.19684 0
M  V30 8307 H 794.343 -4.39937 -2.89418 0
M  V30 8308 H 796.834 -3.36084 -1.72789 0
M  V30 8309 H 797.147 -7.13624 -2.96582 0
M  V30 8310 H 795.492 -6.41514 -2.67366 0
M  V30 8311 H 798.683 -4.20088 -2.06503 0
M  V30 8312 H 798.856 -5.9224 -2.62975 0
M  V30 8313 N 792.262 0.832906 -1.33792 0
M  V30 8314 C 793.209 1.94314 -1.24541 0
M  V30 8315 C 794.179 1.65646 -0.122753 0
M  V30 8316 O 795.364 1.88394 -0.30204 0
M  V30 8317 C 792.504 3.30395 -0.996641 0
M  V30 8318 C 791.617 3.71422 -2.20612 0
M  V30 8319 C 790.752 4.96401 -1.89101 0
M  V30 8320 C 789.791 5.2998 -3.06247 0
M  V30 8321 N 788.928 6.46137 -2.74685 0
M  V30 8322 H 793.768 2.01559 -2.19495 0
M  V30 8323 H 791.305 0.986243 -1.09141 0
M  V30 8324 H 793.263 4.08803 -0.832817 0
M  V30 8325 H 791.893 3.22691 -0.0838242 0
M  V30 8326 H 790.945 2.88488 -2.47949 0
M  V30 8327 H 792.257 3.92215 -3.0817 0
M  V30 8328 H 791.411 5.82572 -1.69396 0
M  V30 8329 H 790.15 4.7759 -0.987882 0
M  V30 8330 H 789.155 4.42312 -3.26559 0
M  V30 8331 H 790.38 5.50737 -3.97323 0
M  V30 8332 H 788.326 6.28801 -1.86938 0
M  V30 8333 H 788.243 6.67054 -3.55774 0
M  V30 8334 H 789.511 7.35403 -2.58461 0
M  V30 8335 N 793.74 1.17359 1.05189 0
M  V30 8336 C 794.67 0.91365 2.14883 0
M  V30 8337 C 795.651 -0.144365 1.69486 0
M  V30 8338 O 796.836 0.00587861 1.94199 0
M  V30 8339 C 793.966 0.426196 3.44675 0
M  V30 8340 C 792.92 1.4234 4.03638 0
M  V30 8341 C 792.246 0.793902 5.28773 0
M  V30 8342 C 793.546 2.7966 4.41121 0
M  V30 8343 H 795.24 1.831 2.36885 0
M  V30 8344 H 792.786 0.881781 1.13845 0
M  V30 8345 H 794.739 0.231767 4.20762 0
M  V30 8346 H 793.463 -0.526693 3.22325 0
M  V30 8347 H 792.122 1.60457 3.2962 0
M  V30 8348 H 791.77 -0.165824 5.02727 0
M  V30 8349 H 791.47 1.45959 5.69183 0
M  V30 8350 H 792.994 0.609747 6.07548 0
M  V30 8351 H 794.408 2.6526 5.08242 0
M  V30 8352 H 792.805 3.42807 4.92548 0
M  V30 8353 H 793.875 3.34068 3.51464 0
M  V30 8354 N 795.218 -1.23913 0.973828 0
M  V30 8355 C 796.464 -1.92436 0.640026 0
M  V30 8356 C 796.797 -1.75875 -0.823512 0
M  V30 8357 O 796.072 -1.11563 -1.59323 0
M  V30 8358 C 796.355 -3.4526 1.0231 0
M  V30 8359 C 796.208 -3.70961 2.54378 0
M  V30 8360 C 797.527 -4.36495 0.562155 0
M  V30 8361 H 794.646 -0.698868 0.233992 0
M  V30 8362 H 797.288 -1.46163 1.21393 0
M  V30 8363 H 795.438 -3.84802 0.534751 0
M  V30 8364 H 797.11 -3.40941 3.10737 0
M  V30 8365 H 795.353 -3.15899 2.97305 0
M  V30 8366 H 796.024 -4.77912 2.76232 0
M  V30 8367 H 798.5 -4.04363 0.981333 0
M  V30 8368 H 797.376 -5.42142 0.858689 0
M  V30 8369 H 797.637 -4.38818 -0.537659 0
M  V30 8370 N 796.696 -0.74468 -1.38897 0
M  V30 8371 C 797.659 -0.11945 -2.28889 0
M  V30 8372 C 798.659 0.656942 -1.46768 0
M  V30 8373 O 799.849 0.484525 -1.67326 0
M  V30 8374 C 796.981 0.839635 -3.30398 0
M  V30 8375 H 798.174 -0.912414 -2.85683 0
M  V30 8376 H 795.727 -0.511119 -1.47707 0
M  V30 8377 H 796.462 1.6586 -2.78677 0
M  V30 8378 H 796.247 0.285432 -3.9106 0
M  V30 8379 H 797.737 1.27337 -3.97712 0
M  V30 8380 N 798.174 1.49689 -0.493057 0
M  V30 8381 C 799.399 2.07331 0.0535114 0
M  V30 8382 C 799.824 1.35196 1.30781 0
M  V30 8383 O 799.182 0.406246 1.7669 0
M  V30 8384 C 799.23 3.59364 0.29825 0
M  V30 8385 O 798.334 3.88819 1.37454 0
M  V30 8386 H 797.675 0.663612 -0.0227018 0
M  V30 8387 H 800.205 1.926 -0.690402 0
M  V30 8388 H 800.215 4.04515 0.532159 0
M  V30 8389 H 798.89 4.1128 -0.618207 0
M  V30 8390 H 797.467 3.55487 1.12621 0
M  V30 8391 N 799.652 0.226554 1.55963 0
M  V30 8392 C 800.585 -0.721625 2.1649 0
M  V30 8393 C 801.563 -1.18745 1.11078 0
M  V30 8394 O 802.747 -1.26929 1.3936 0
M  V30 8395 C 799.874 -1.97828 2.74921 0
M  V30 8396 C 798.92 -1.65202 3.93206 0
M  V30 8397 S 799.753 -0.772419 5.299 0
M  V30 8398 C 800.909 -2.03853 5.91773 0
M  V30 8399 H 801.142 -0.207192 2.96577 0
M  V30 8400 H 798.675 0.0111976 1.54396 0
M  V30 8401 H 800.633 -2.69982 3.09225 0
M  V30 8402 H 799.294 -2.46384 1.94817 0
M  V30 8403 H 798.487 -2.58583 4.32609 0
M  V30 8404 H 798.089 -1.01108 3.60074 0
M  V30 8405 H 800.381 -2.98799 6.08051 0
M  V30 8406 H 801.324 -1.68831 6.87678 0
M  V30 8407 H 801.732 -2.18134 5.20651 0
M  V30 8408 N 801.13 -1.57531 -0.0467866 0
M  V30 8409 C 802.541 -1.76945 -0.595603 0
M  V30 8410 C 802.892 -0.855354 -1.76573 0
M  V30 8411 O 802.017 -0.045668 -2.16352 0
M  V30 8412 C 802.612 -3.20881 -1.08725 0
M  V30 8413 C 801.171 -3.41553 -1.58172 0
M  V30 8414 C 800.318 -2.72533 -0.511968 0
M  V30 8415 H 803.269 -1.57682 0.179436 0
M  V30 8416 H 803.29 -3.26419 -1.95528 0
M  V30 8417 H 802.802 -3.87385 -0.235398 0
M  V30 8418 H 800.903 -2.80199 -2.456 0
M  V30 8419 H 801.016 -4.50104 -1.64143 0
M  V30 8420 H 799.38 -2.35797 -0.962899 0
M  V30 8421 H 800.163 -3.41709 0.330117 0
M  V30 8422 N 802.608 0.318715 -1.54344 0
M  V30 8423 C 803.538 1.39751 -1.87061 0
M  V30 8424 C 804.519 1.53741 -0.727848 0
M  V30 8425 O 805.704 1.67541 -0.982016 0
M  V30 8426 C 802.834 2.76446 -2.10226 0
M  V30 8427 C 801.788 2.77239 -3.26071 0
M  V30 8428 C 801.114 4.17056 -3.34617 0
M  V30 8429 C 802.414 2.40555 -4.63606 0
M  V30 8430 H 804.108 1.12619 -2.77412 0
M  V30 8431 H 801.654 0.540318 -1.33479 0
M  V30 8432 H 803.607 3.51985 -2.31699 0
M  V30 8433 H 802.331 3.05066 -1.16629 0
M  V30 8434 H 800.99 2.04155 -3.04493 0
M  V30 8435 H 800.638 4.42824 -2.3857 0
M  V30 8436 H 800.338 4.18492 -4.12478 0
M  V30 8437 H 801.862 4.94401 -3.5833 0
M  V30 8438 H 803.276 3.05808 -4.84927 0
M  V30 8439 H 801.673 2.53234 -5.44052 0
M  V30 8440 H 802.743 1.35698 -4.65526 0
M  V30 8441 N 804.086 1.46499 0.581025 0
M  V30 8442 C 805.333 1.51896 1.33918 0
M  V30 8443 C 805.661 0.171361 1.93744 0
M  V30 8444 O 804.916 -0.833178 1.77078 0
M  V30 8445 C 805.215 2.56686 2.48691 0
M  V30 8446 C 804.881 4.00656 2.06847 0
M  V30 8447 C 803.543 4.39852 1.9515 0
M  V30 8448 C 805.895 4.91089 1.74589 0
M  V30 8449 C 803.223 5.67345 1.49456 0
M  V30 8450 C 805.575 6.1902 1.30373 0
M  V30 8451 C 804.239 6.57121 1.17255 0
M  V30 8452 H 803.509 0.555826 0.490039 0
M  V30 8453 H 806.156 1.79983 0.654092 0
M  V30 8454 H 804.461 2.22266 3.22653 0
M  V30 8455 H 806.158 2.58091 3.06904 0
M  V30 8456 H 802.748 3.69674 2.16886 0
M  V30 8457 H 806.932 4.61523 1.8251 0
M  V30 8458 H 802.188 5.95635 1.37944 0
M  V30 8459 H 806.362 6.8852 1.04467 0
M  V30 8460 H 803.989 7.55805 0.816236 0
M  V30 8461 N 805.565 -0.825799 1.34232 0
M  V30 8462 C 806.528 -1.91808 1.25468 0
M  V30 8463 C 807.528 -1.59893 0.170567 0
M  V30 8464 O 808.718 -1.68986 0.422996 0
M  V30 8465 C 805.85 -3.27786 0.93644 0
M  V30 8466 H 807.043 -2.01003 2.22571 0
M  V30 8467 H 804.596 -1.01944 1.18479 0
M  V30 8468 H 805.331 -3.24285 -0.0315408 0
M  V30 8469 H 805.116 -3.52333 1.72057 0
M  V30 8470 H 806.606 -4.07782 0.900214 0
M  V30 8471 N 807.043 -1.17915 -1.04565 0
M  V30 8472 C 807.991 -0.897919 -2.1457 0
M  V30 8473 C 808.985 0.139883 -1.68821 0
M  V30 8474 O 810.191 -0.00779463 -1.79998 0
M  V30 8475 H 806.566 -0.272867 -0.700748 0
M  V30 8476 H 808.537 -1.83268 -2.3549 0
M  V30 8477 C 807.286 -0.434634 -3.44973 0
M  V30 8478 H 806.609 -1.22469 -3.8058 0
M  V30 8479 H 808.049 -0.276804 -4.23095 0
M  V30 8480 C 806.508 0.848738 -3.26034 0
M  V30 8481 O 807.038 1.9141 -3.53164 0
M  V30 8482 N 805.244 0.799373 -2.79389 0
M  V30 8483 H 804.791 -0.0678192 -2.57511 0
M  V30 8484 H 804.749 1.6585 -2.67098 0
M  V30 8485 N 808.521 1.23394 -0.980386 0
M  V30 8486 C 809.484 2.23092 -0.525619 0
M  V30 8487 C 810.484 1.56129 0.384745 0
M  V30 8488 O 811.674 1.73284 0.178439 0
M  V30 8489 C 808.806 3.40074 0.23712 0
M  V30 8490 H 809.999 2.64839 -1.40714 0
M  V30 8491 H 807.552 1.36227 -0.766275 0
M  V30 8492 H 808.287 3.03783 1.13518 0
M  V30 8493 H 808.072 3.89883 -0.416356 0
M  V30 8494 H 809.562 4.14043 0.543892 0
M  V30 8495 N 809.999 0.752036 1.385 0
M  V30 8496 C 811.276 0.233075 1.94206 0
M  V30 8497 C 811.656 -1.26838 1.68746 0
M  V30 8498 O 811.004 -2.04214 1.02513 0
M  V30 8499 C 811.214 0.58509 3.44061 0
M  V30 8500 C 812.562 0.543871 4.21102 0
M  V30 8501 O 813.586 0.523291 3.52335 0
M  V30 8502 O 812.445 0.553436 5.4369 0
M  V30 8503 H 809.539 0.0483049 0.825588 0
M  V30 8504 H 812.085 0.832053 1.47902 0
M  V30 8505 H 810.857 1.62212 3.56094 0
M  V30 8506 H 810.48 -0.0419738 3.97578 0
M  V30 8507 N 811.477 -1.49425 0.500989 0
M  V30 8508 C 812.888 -1.86624 0.0532011 0
M  V30 8509 C 813.239 -1.41331 -1.36088 0
M  V30 8510 O 812.364 -0.791195 -2.01418 0
M  V30 8511 C 812.959 -3.38681 0.0897693 0
M  V30 8512 C 811.518 -3.75181 -0.302677 0
M  V30 8513 C 810.665 -2.73419 0.462307 0
M  V30 8514 H 813.616 -1.41743 0.713773 0
M  V30 8515 H 813.637 -3.73902 -0.705528 0
M  V30 8516 H 813.149 -3.71616 1.11907 0
M  V30 8517 H 811.25 -3.47855 -1.33521 0
M  V30 8518 H 811.363 -4.79097 0.0167653 0
M  V30 8519 H 809.727 -2.54548 -0.0878557 0
M  V30 8520 H 810.51 -3.09198 1.49169 0
M  V30 8521 N 812.955 -0.234822 -1.55841 0
M  V30 8522 C 813.903 0.686145 -2.22249 0
M  V30 8523 C 814.897 1.18948 -1.20614 0
M  V30 8524 O 816.103 1.14777 -1.38659 0
M  V30 8525 H 812.478 0.239724 -0.712767 0
M  V30 8526 H 814.449 0.102762 -2.98223 0
M  V30 8527 C 813.198 1.8776 -2.92646 0
M  V30 8528 H 812.521 1.49943 -3.70617 0
M  V30 8529 H 813.961 2.4995 -3.42493 0
M  V30 8530 C 812.42 2.74127 -1.95847 0
M  V30 8531 O 812.95 3.7329 -1.48384 0
M  V30 8532 N 811.156 2.4044 -1.63209 0
M  V30 8533 H 810.703 1.59854 -2.02001 0
M  V30 8534 H 810.661 2.98504 -0.987063 0
M  V30 8535 N 814.433 1.57553 0.0384317 0
M  V30 8536 C 815.68 1.88841 0.731116 0
M  V30 8537 C 816.008 0.83093 1.75857 0
M  V30 8538 O 815.263 -0.169248 1.94967 0
M  V30 8539 C 815.562 3.26862 1.44554 0
M  V30 8540 C 815.228 4.47472 0.554946 0
M  V30 8541 C 813.89 4.80203 0.309621 0
M  V30 8542 C 816.242 5.21165 -0.0605204 0
M  V30 8543 C 813.57 5.8402 -0.560101 0
M  V30 8544 C 815.922 6.25905 -0.91789 0
M  V30 8545 C 814.586 6.57117 -1.17277 0
M  V30 8546 H 813.856 0.691018 0.267534 0
M  V30 8547 H 816.503 1.91498 -0.00883195 0
M  V30 8548 H 814.808 3.2015 2.25856 0
M  V30 8549 H 816.505 3.48316 1.98688 0
M  V30 8550 H 813.095 4.21874 0.756304 0
M  V30 8551 H 817.279 4.96164 0.116064 0
M  V30 8552 H 812.535 6.06583 -0.765974 0
M  V30 8553 H 816.709 6.82155 -1.40136 0
M  V30 8554 H 814.336 7.37385 -1.84843 0
M  V30 8555 N 815.911 -0.310526 1.54511 0
M  V30 8556 C 817.157 -1.04846 1.73595 0
M  V30 8557 C 817.49 -1.87244 0.515118 0
M  V30 8558 O 816.765 -1.88282 -0.48786 0
M  V30 8559 C 817.048 -1.96237 3.01932 0
M  V30 8560 C 816.901 -1.17082 4.34295 0
M  V30 8561 C 818.22 -2.9556 3.26086 0
M  V30 8562 H 815.339 -0.37976 0.631626 0
M  V30 8563 H 817.981 -0.32394 1.87218 0
M  V30 8564 H 816.131 -2.58015 2.90449 0
M  V30 8565 H 817.803 -0.576643 4.57682 0
M  V30 8566 H 816.046 -0.473336 4.3121 0
M  V30 8567 H 816.717 -1.84257 5.20339 0
M  V30 8568 H 819.193 -2.43908 3.37117 0
M  V30 8569 H 818.069 -3.5668 4.17218 0
M  V30 8570 H 818.33 -3.68715 2.4393 0
M  V30 8571 N 817.389 -1.46805 -0.573248 0
M  V30 8572 C 818.617 -1.56191 -1.3569 0
M  V30 8573 C 819.032 -0.206362 -1.87669 0
M  V30 8574 O 818.389 0.797883 -1.64134 0
M  V30 8575 C 818.44 -2.57433 -2.53792 0
M  V30 8576 O 818.161 -3.87724 -2.03965 0
M  V30 8577 C 819.662 -2.76851 -3.4622 0
M  V30 8578 H 816.882 -0.527907 -0.414192 0
M  V30 8579 H 819.426 -1.92292 -0.695989 0
M  V30 8580 H 817.581 -2.24311 -3.15854 0
M  V30 8581 H 817.995 -4.42909 -2.80948 0
M  V30 8582 H 819.469 -3.5159 -4.25545 0
M  V30 8583 H 819.946 -1.84095 -3.98755 0
M  V30 8584 H 820.552 -3.11107 -2.89987 0
M  V30 8585 N 818.867 0.818669 -1.34668 0
M  V30 8586 C 819.83 1.9114 -1.26483 0
M  V30 8587 C 820.83 1.598 -0.179044 0
M  V30 8588 O 822.02 1.6876 -0.431952 0
M  V30 8589 C 819.152 3.27285 -0.95381 0
M  V30 8590 H 820.345 1.9982 -2.23634 0
M  V30 8591 H 817.898 1.01314 -1.19018 0
M  V30 8592 H 818.633 3.24297 0.0143428 0
M  V30 8593 H 818.418 3.51416 -1.73924 0
M  V30 8594 H 819.908 4.07299 -0.921827 0
M  V30 8595 N 820.346 1.18468 1.03938 0
M  V30 8596 C 821.279 0.856251 2.11527 0
M  V30 8597 C 822.257 -0.182323 1.61575 0
M  V30 8598 O 823.441 -0.061 1.88401 0
M  V30 8599 C 820.568 0.279562 3.37544 0
M  V30 8600 C 819.614 1.29552 4.06348 0
M  V30 8601 S 820.447 2.85191 4.5324 0
M  V30 8602 C 821.603 2.29037 5.82489 0
M  V30 8603 H 821.836 1.76742 2.39059 0
M  V30 8604 H 819.369 1.01068 1.16725 0
M  V30 8605 H 821.327 -0.0466579 4.10473 0
M  V30 8606 H 819.988 -0.60975 3.08125 0
M  V30 8607 H 819.181 0.840922 4.96935 0
M  V30 8608 H 818.783 1.56804 3.39541 0
M  V30 8609 H 821.075 1.67376 6.565 0
M  V30 8610 H 822.018 3.17929 6.32714 0
M  V30 8611 H 822.426 1.72009 5.37655 0
M  V30 8612 N 821.824 -1.22873 0.986916 0
M  V30 8613 C 822.754 -2.2688 0.552064 0
M  V30 8614 C 823.735 -1.64883 -0.418048 0
M  V30 8615 O 824.92 -1.9171 -0.30999 0
M  V30 8616 C 822.05 -3.47018 -0.139959 0
M  V30 8617 C 821.004 -4.21411 0.748091 0
M  V30 8618 C 820.33 -5.34645 -0.0765132 0
M  V30 8619 C 821.63 -4.80726 2.04206 0
M  V30 8620 H 823.324 -2.63507 1.42143 0
M  V30 8621 H 820.87 -1.26668 0.68492 0
M  V30 8622 H 822.823 -4.18931 -0.455527 0
M  V30 8623 H 821.547 -3.0947 -1.04382 0
M  V30 8624 H 820.206 -3.51325 1.04721 0
M  V30 8625 H 819.854 -4.93339 -0.981109 0
M  V30 8626 H 819.554 -5.85342 0.514606 0
M  V30 8627 H 821.078 -6.09377 -0.386313 0
M  V30 8628 H 822.492 -5.44612 1.79083 0
M  V30 8629 H 820.889 -5.41737 2.5815 0
M  V30 8630 H 821.959 -4.01109 2.72469 0
M  V30 8631 N 823.302 -0.75937 -1.38099 0
M  V30 8632 C 824.53 -0.329111 -2.04266 0
M  V30 8633 C 824.945 1.04453 -1.57274 0
M  V30 8634 O 824.302 1.66449 -0.748397 0
M  V30 8635 C 824.353 -0.349192 -3.5981 0
M  V30 8636 O 824.074 -1.66863 -4.05078 0
M  V30 8637 C 825.575 0.0942106 -4.432 0
M  V30 8638 H 822.795 -0.13971 -0.656294 0
M  V30 8639 H 825.339 -1.02984 -1.76677 0
M  V30 8640 H 823.494 0.302846 -3.86214 0
M  V30 8641 H 823.908 -1.59877 -4.9954 0
M  V30 8642 H 825.382 0.0290004 -5.51992 0
M  V30 8643 H 825.859 1.1429 -4.24069 0
M  V30 8644 H 826.465 -0.529171 -4.21995 0
M  V30 8645 N 824.78 1.49157 -0.508906 0
M  V30 8646 C 825.727 2.2927 0.265288 0
M  V30 8647 C 826.697 1.3603 0.953162 0
M  V30 8648 O 827.882 1.64989 0.958291 0
M  V30 8649 C 825.022 3.18897 1.31904 0
M  V30 8650 C 824.135 4.27201 0.642144 0
M  V30 8651 C 823.27 5.04033 1.67701 0
M  V30 8652 C 822.309 6.04165 0.982422 0
M  V30 8653 N 821.446 6.74133 1.96186 0
M  V30 8654 H 826.286 2.94967 -0.424107 0
M  V30 8655 H 823.823 1.45431 -0.220991 0
M  V30 8656 H 825.781 3.69242 1.94206 0
M  V30 8657 H 824.411 2.55168 1.97709 0
M  V30 8658 H 823.463 3.80283 -0.0943395 0
M  V30 8659 H 824.775 4.98708 0.0957507 0
M  V30 8660 H 823.929 5.58287 2.37487 0
M  V30 8661 H 822.668 4.32317 2.25728 0
M  V30 8662 H 821.673 5.49135 0.270378 0
M  V30 8663 H 822.898 6.7787 0.408554 0
M  V30 8664 H 820.844 6.05183 2.53159 0
M  V30 8665 H 820.761 7.41643 1.46634 0
M  V30 8666 H 822.029 7.32987 2.65236 0
M  V30 8667 N 826.258 0.243083 1.55714 0
M  V30 8668 C 827.188 -0.652336 2.24203 0
M  V30 8669 C 828.169 -1.1843 1.221 0
M  V30 8670 O 829.354 -1.22435 1.50743 0
M  V30 8671 C 826.484 -1.85111 2.93856 0
M  V30 8672 C 825.438 -1.45208 4.02615 0
M  V30 8673 C 824.764 -2.73137 4.59674 0
M  V30 8674 C 826.064 -0.625988 5.18535 0
M  V30 8675 H 827.758 -0.0812504 2.9929 0
M  V30 8676 H 825.304 -0.0376388 1.43951 0
M  V30 8677 H 827.257 -2.48314 3.40468 0
M  V30 8678 H 825.981 -2.44751 2.16251 0
M  V30 8679 H 824.64 -0.843406 3.56766 0
M  V30 8680 H 824.288 -3.30967 3.78774 0
M  V30 8681 H 823.988 -2.47163 5.33089 0
M  V30 8682 H 825.512 -3.37245 5.09017 0
M  V30 8683 H 826.926 -1.16223 5.61396 0
M  V30 8684 H 825.323 -0.462465 5.98315 0
M  V30 8685 H 826.393 0.362652 4.83542 0
M  V30 8686 N 827.736 -1.57571 -0.0300757 0
M  V30 8687 C 828.683 -2.06492 -1.03101 0
M  V30 8688 C 829.653 -0.953862 -1.3598 0
M  V30 8689 O 830.838 -1.22436 -1.46335 0
M  V30 8690 C 827.978 -2.54826 -2.32718 0
M  V30 8691 C 827.091 -3.79718 -2.06006 0
M  V30 8692 C 826.226 -4.16668 -3.29487 0
M  V30 8693 C 825.265 -5.3448 -2.98324 0
M  V30 8694 N 824.402 -5.66867 -4.14254 0
M  V30 8695 H 829.242 -2.91755 -0.606877 0
M  V30 8696 H 826.779 -1.44252 -0.288038 0
M  V30 8697 H 828.737 -2.80916 -3.08451 0
M  V30 8698 H 827.367 -1.72481 -2.72856 0
M  V30 8699 H 826.419 -3.60718 -1.20774 0
M  V30 8700 H 827.731 -4.65569 -1.79017 0
M  V30 8701 H 826.885 -4.43881 -4.13588 0
M  V30 8702 H 825.624 -3.29466 -3.59588 0
M  V30 8703 H 824.629 -5.07021 -2.12625 0
M  V30 8704 H 825.854 -6.23334 -2.69502 0
M  V30 8705 H 823.8 -4.82625 -4.44308 0
M  V30 8706 H 823.717 -6.47226 -3.90685 0
M  V30 8707 H 824.985 -5.98656 -4.99231 0
M  V30 8708 N 829.214 0.302327 -1.54673 0
M  V30 8709 C 830.461 1.0377 -1.73891 0
M  V30 8710 C 830.789 1.87309 -0.523979 0
M  V30 8711 O 830.044 1.8936 0.494084 0
M  V30 8712 C 830.343 1.97365 -2.97963 0
M  V30 8713 C 830.009 1.29812 -4.3181 0
M  V30 8714 C 828.671 1.11121 -4.68194 0
M  V30 8715 C 831.023 0.815073 -5.14787 0
M  V30 8716 C 828.351 0.428077 -5.85136 0
M  V30 8717 C 830.703 0.145665 -6.32432 0
M  V30 8718 C 829.367 -0.0532098 -6.67479 0
M  V30 8719 H 828.637 0.379721 -0.636312 0
M  V30 8720 H 831.284 0.312708 -1.8893 0
M  V30 8721 H 829.589 2.76387 -2.777 0
M  V30 8722 H 831.286 2.54331 -3.10027 0
M  V30 8723 H 827.876 1.45366 -4.03196 0
M  V30 8724 H 832.06 0.947191 -4.87178 0
M  V30 8725 H 827.316 0.262995 -6.10834 0
M  V30 8726 H 831.49 -0.236533 -6.95998 0
M  V30 8727 H 829.117 -0.58456 -7.57949 0
M  V30 8728 N 830.692 1.47107 0.565454 0
M  V30 8729 C 831.602 1.61591 1.70075 0
M  V30 8730 C 832.618 0.498931 1.66693 0
M  V30 8731 O 833.794 0.765372 1.8629 0
M  V30 8732 C 830.859 1.61887 3.06583 0
M  V30 8733 C 829.92 2.84949 3.21096 0
M  V30 8734 C 829.153 2.85221 4.51093 0
M  V30 8735 O 829.376 1.94959 5.36048 0
M  V30 8736 O 828.31 3.76982 4.69221 0
M  V30 8737 H 832.136 2.57638 1.60799 0
M  V30 8738 H 829.721 1.30097 0.73451 0
M  V30 8739 H 831.603 1.64809 3.87835 0
M  V30 8740 H 830.278 0.69005 3.16259 0
M  V30 8741 H 829.185 2.87575 2.39273 0
M  V30 8742 H 830.518 3.77098 3.1632 0
M  V30 8743 N 832.17 -0.811516 1.35101 0
M  V30 8744 C 833.416 -1.57068 1.28287 0
M  V30 8745 C 833.749 -1.93667 -0.143808 0
M  V30 8746 O 833.024 -1.60953 -1.09199 0
M  V30 8747 C 833.307 -2.86259 2.18466 0
M  V30 8748 C 833.16 -2.56168 3.69727 0
M  V30 8749 C 834.479 -3.87924 2.07852 0
M  V30 8750 H 831.598 -0.569869 0.467353 0
M  V30 8751 H 834.24 -0.934023 1.65457 0
M  V30 8752 H 832.39 -3.4059 1.86898 0
M  V30 8753 H 834.062 -2.08059 4.11715 0
M  V30 8754 H 832.305 -1.89436 3.90252 0
M  V30 8755 H 832.976 -3.48344 4.28206 0
M  V30 8756 H 835.452 -3.4298 2.35593 0
M  V30 8757 H 834.328 -4.76106 2.73157 0
M  V30 8758 H 834.589 -4.2923 1.05896 0
M  V30 8759 N 833.648 -1.19017 -1.03309 0
M  V30 8760 C 834.895 -0.990214 -1.76638 0
M  V30 8761 C 835.223 0.479435 -1.88498 0
M  V30 8762 O 834.478 1.37223 -1.39529 0
M  V30 8763 C 834.777 -1.59927 -3.19622 0
M  V30 8764 C 834.443 -3.09632 -3.27779 0
M  V30 8765 C 833.105 -3.50491 -3.29712 0
M  V30 8766 C 835.457 -4.05644 -3.27264 0
M  V30 8767 C 832.785 -4.85921 -3.28782 0
M  V30 8768 C 835.137 -5.41 -3.27875 0
M  V30 8769 C 833.801 -5.81295 -3.28104 0
M  V30 8770 H 833.071 -0.362345 -0.646364 0
M  V30 8771 H 835.718 -1.48197 -1.21284 0
M  V30 8772 H 834.023 -1.0297 -3.78027 0
M  V30 8773 H 835.72 -1.41989 -3.7502 0
M  V30 8774 H 832.31 -2.77073 -3.26999 0
M  V30 8775 H 836.494 -3.75124 -3.24955 0
M  V30 8776 H 831.75 -5.16427 -3.27281 0
M  V30 8777 H 835.924 -6.15157 -3.26428 0
M  V30 8778 H 833.551 -6.86211 -3.27138 0
M  V30 8779 N 835.127 1.22348 -0.993418 0
M  V30 8780 C 836.059 2.23626 -0.502404 0
M  V30 8781 C 837.072 1.57739 0.402784 0
M  V30 8782 O 838.261 1.77321 0.204835 0
M  V30 8783 C 835.361 3.37647 0.291118 0
M  V30 8784 C 834.534 4.33121 -0.610332 0
M  V30 8785 C 833.593 5.26035 0.131572 0
M  V30 8786 O 832.619 5.67145 -0.483199 0
M  V30 8787 N 833.821 5.63023 1.41371 0
M  V30 8788 H 836.586 2.66385 -1.37329 0
M  V30 8789 H 834.147 1.36653 -0.868196 0
M  V30 8790 H 836.139 3.96792 0.796107 0
M  V30 8791 H 834.709 2.93967 1.0631 0
M  V30 8792 H 833.929 3.72287 -1.29598 0
M  V30 8793 H 835.217 4.93853 -1.22422 0
M  V30 8794 H 834.615 5.31596 1.93449 0
M  V30 8795 H 833.172 6.24582 1.86388 0
M  V30 8796 N 836.605 0.766683 1.37694 0
M  V30 8797 C 838.016 0.394761 1.82479 0
M  V30 8798 C 838.367 -1.07842 1.63904 0
M  V30 8799 O 837.492 -1.83479 1.14737 0
M  V30 8800 C 838.087 0.70974 3.31283 0
M  V30 8801 C 836.646 0.390936 3.74364 0
M  V30 8802 C 835.793 0.956192 2.60293 0
M  V30 8803 H 838.744 0.961756 1.26238 0
M  V30 8804 H 838.765 -0.00742144 3.80499 0
M  V30 8805 H 838.277 1.782 3.4477 0
M  V30 8806 H 836.378 -0.674213 3.66449 0
M  V30 8807 H 836.491 0.895645 4.70654 0
M  V30 8808 H 834.855 0.380744 2.51838 0
M  V30 8809 H 835.638 2.03375 2.76575 0
M  V30 8810 N 838.083 -1.48885 0.516809 0
M  V30 8811 C 839.331 -2.02088 -0.0220166 0
M  V30 8812 C 839.652 -1.39735 -1.36011 0
M  V30 8813 O 838.922 -0.558119 -1.87781 0
M  V30 8814 H 837.502 -0.746917 -0.0111255 0
M  V30 8815 H 840.164 -1.8274 0.677647 0
M  V30 8816 H 839.26 -3.11786 -0.140067 0
M  V30 8817 N 839.561 -0.251338 -1.55583 0
M  V30 8818 C 840.838 0.422729 -1.90977 0
M  V30 8819 C 841.218 1.75534 -1.17265 0
M  V30 8820 O 840.566 2.26632 -0.291588 0
M  V30 8821 C 840.776 0.586448 -3.44037 0
M  V30 8822 C 842.124 0.880294 -4.15375 0
M  V30 8823 O 843.148 0.672148 -3.49801 0
M  V30 8824 O 842.007 1.27694 -5.31372 0
M  V30 8825 H 839.101 0.227622 -0.795058 0
M  V30 8826 H 841.647 -0.295733 -1.67103 0
M  V30 8827 H 840.419 -0.352327 -3.89711 0
M  V30 8828 H 840.042 1.35528 -3.73789 0
M  V30 8829 N 841.039 1.57585 0.0217189 0
M  V30 8830 C 842.269 1.9359 0.721572 0
M  V30 8831 C 842.677 0.850132 1.69025 0
M  V30 8832 O 842.02 -0.181539 1.82801 0
M  V30 8833 C 842.082 3.25445 1.52729 0
M  V30 8834 C 841.746 4.51251 0.722586 0
M  V30 8835 C 842.743 5.19896 0.0196598 0
M  V30 8836 C 840.428 4.97745 0.674959 0
M  V30 8837 C 842.422 6.33319 -0.720114 0
M  V30 8838 C 840.109 6.11062 -0.068555 0
M  V30 8839 C 841.107 6.78704 -0.764845 0
M  V30 8840 O 840.795 7.89852 -1.49627 0
M  V30 8841 H 840.527 0.643409 0.207366 0
M  V30 8842 H 843.081 2.05391 -0.0189346 0
M  V30 8843 H 841.311 3.0999 2.31178 0
M  V30 8844 H 843 3.46721 2.11044 0
M  V30 8845 H 843.766 4.84977 0.0474394 0
M  V30 8846 H 839.645 4.44934 1.20643 0
M  V30 8847 H 843.189 6.86051 -1.26413 0
M  V30 8848 H 839.086 6.45425 -0.0982318 0
M  V30 8849 H 839.854 8.06251 -1.41071 0
M  V30 8850 N 842.517 -0.29412 1.54831 0
M  V30 8851 C 843.766 -1.02614 1.73647 0
M  V30 8852 C 844.079 -1.88193 0.533162 0
M  V30 8853 O 845.285 -2.64713 0.603275 0
M  V30 8854 C 843.741 -1.87417 3.07251 0
M  V30 8855 C 843.349 -1.06806 4.35082 0
M  V30 8856 C 845.093 -2.60176 3.35423 0
M  V30 8857 C 843 -1.90926 5.59733 0
M  V30 8858 H 841.93 -0.386834 0.647206 0
M  V30 8859 H 844.581 -0.282789 1.81308 0
M  V30 8860 H 842.963 -2.65765 2.93572 0
M  V30 8861 H 844.137 -0.330226 4.59615 0
M  V30 8862 H 842.452 -0.455979 4.13896 0
M  V30 8863 H 845.049 -3.23476 4.25755 0
M  V30 8864 H 845.392 -3.29365 2.54606 0
M  V30 8865 H 845.925 -1.88871 3.50103 0
M  V30 8866 H 842.664 -1.26194 6.43238 0
M  V30 8867 H 842.184 -2.62363 5.39375 0
M  V30 8868 H 843.863 -2.48807 5.97247 0
M  V30 8869 N 843.995 -1.47404 -0.557645 0
M  V30 8870 C 845.244 -1.53268 -1.31118 0
M  V30 8871 C 845.557 -0.199414 -1.94581 0
M  V30 8872 O 846.763 -0.136039 -2.71159 0
M  V30 8873 C 845.219 -2.70178 -2.37764 0
M  V30 8874 C 844.827 -4.10032 -1.80493 0
M  V30 8875 C 846.571 -2.85334 -3.14301 0
M  V30 8876 C 844.478 -5.18244 -2.84916 0
M  V30 8877 H 843.408 -0.570491 -0.493007 0
M  V30 8878 H 846.059 -1.73678 -0.592308 0
M  V30 8879 H 844.441 -2.43147 -3.12563 0
M  V30 8880 H 845.615 -4.46964 -1.12069 0
M  V30 8881 H 843.93 -3.99759 -1.16542 0
M  V30 8882 H 846.527 -3.63347 -3.92279 0
M  V30 8883 H 846.87 -1.93761 -3.68459 0
M  V30 8884 H 847.403 -3.12133 -2.46613 0
M  V30 8885 H 844.142 -6.11691 -2.35614 0
M  V30 8886 H 843.662 -4.85829 -3.51753 0
M  V30 8887 H 845.341 -5.45174 -3.48417 0
M  V30 8888 N 845.473 0.80434 -1.35529 0
M  V30 8889 C 846.889 1.10023 -1.15616 0
M  V30 8890 C 847.089 2.01478 0.0298535 0
M  V30 8891 O 846.145 2.42609 0.699778 0
M  V30 8892 C 847.458 1.72905 -2.46017 0
M  V30 8893 C 849.006 1.85315 -2.52245 0
M  V30 8894 C 849.481 2.51612 -3.82695 0
M  V30 8895 N 850.972 2.59095 -3.83958 0
M  V30 8896 C 851.707 3.11167 -4.81625 0
M  V30 8897 N 851.203 3.63659 -5.89681 0
M  V30 8898 N 852.996 3.09741 -4.6906 0
M  V30 8899 H 845.147 0.196428 -2.1149 0
M  V30 8900 H 847.41 0.149735 -0.9361 0
M  V30 8901 H 847.116 1.13171 -3.32994 0
M  V30 8902 H 846.99 2.72579 -2.6073 0
M  V30 8903 H 849.377 2.44191 -1.65695 0
M  V30 8904 H 849.458 0.844886 -2.41444 0
M  V30 8905 H 849.102 1.93385 -4.69643 0
M  V30 8906 H 849.032 3.5298 -3.90785 0
M  V30 8907 H 851.523 2.21908 -3.05884 0
M  V30 8908 H 851.836 4.01699 -6.60195 0
M  V30 8909 H 850.181 3.61852 -5.9337 0
M  V30 8910 H 853.372 2.68011 -3.83781 0
M  V30 8911 H 853.545 3.50016 -5.45338 0
M  V30 8912 N 846.951 1.19563 1.02676 0
M  V30 8913 C 847.861 0.950691 2.14474 0
M  V30 8914 C 848.877 -0.0900219 1.73767 0
M  V30 8915 O 850.053 0.0951063 2.01175 0
M  V30 8916 C 847.118 0.494917 3.43149 0
M  V30 8917 C 846.179 1.60527 3.98158 0
M  V30 8918 C 845.412 1.17115 5.20692 0
M  V30 8919 O 845.635 0.0355937 5.70389 0
M  V30 8920 O 844.569 1.97454 5.68591 0
M  V30 8921 H 848.395 1.88651 2.38001 0
M  V30 8922 H 845.98 0.978635 1.12885 0
M  V30 8923 H 847.862 0.249492 4.20661 0
M  V30 8924 H 846.537 -0.412434 3.21062 0
M  V30 8925 H 845.444 1.90487 3.21971 0
M  V30 8926 H 846.777 2.48925 4.24614 0
M  V30 8927 N 848.429 -1.21819 0.999893 0
M  V30 8928 C 849.677 -1.90375 0.678351 0
M  V30 8929 C 849.998 -1.78155 -0.792824 0
M  V30 8930 O 849.268 -1.17319 -1.56885 0
M  V30 8931 H 847.848 -0.704661 0.247915 0
M  V30 8932 H 850.51 -1.48021 1.2679 0
M  V30 8933 H 849.606 -2.97385 0.947023 0
M  V30 8934 N 849.908 -0.773975 -1.37286 0
M  V30 8935 C 851.136 -0.350758 -2.03905 0
M  V30 8936 C 851.551 1.02779 -1.58373 0
M  V30 8937 O 850.908 1.65646 -0.766009 0
M  V30 8938 C 850.959 -0.387335 -3.59419 0
M  V30 8939 O 850.68 -1.7115 -4.03286 0
M  V30 8940 C 852.181 0.047198 -4.43275 0
M  V30 8941 H 849.401 -0.146663 -0.654775 0
M  V30 8942 H 851.945 -1.04852 -1.75574 0
M  V30 8943 H 850.1 0.261865 -3.86514 0
M  V30 8944 H 850.514 -1.65166 -4.97816 0
M  V30 8945 H 851.988 -0.0295474 -5.51992 0
M  V30 8946 H 852.465 1.09786 -4.25257 0
M  V30 8947 H 853.071 -0.573899 -4.2141 0
M  V30 8948 N 851.386 1.48609 -0.524698 0
M  V30 8949 C 852.635 2.01696 0.0132937 0
M  V30 8950 C 852.948 1.40751 1.35825 0
M  V30 8951 O 854.154 1.85304 1.9843 0
M  V30 8952 C 852.61 3.59824 0.0741012 0
M  V30 8953 C 852.218 4.2975 -1.26564 0
M  V30 8954 C 853.962 4.20774 0.5612 0
M  V30 8955 C 851.869 5.79798 -1.16571 0
M  V30 8956 H 850.799 0.753949 0.00873931 0
M  V30 8957 H 853.45 1.70922 -0.667684 0
M  V30 8958 H 851.832 3.87416 0.820043 0
M  V30 8959 H 853.006 4.13836 -2.02674 0
M  V30 8960 H 851.321 3.80649 -1.68806 0
M  V30 8961 H 853.918 5.30687 0.653853 0
M  V30 8962 H 854.261 3.85734 1.56573 0
M  V30 8963 H 854.794 3.97591 -0.128901 0
M  V30 8964 H 851.533 6.19403 -2.14523 0
M  V30 8965 H 851.053 5.9814 -0.445894 0
M  V30 8966 H 852.732 6.41337 -0.854186 0
M  V30 8967 N 852.864 0.259585 1.55447 0
M  V30 8968 C 854.112 -0.360893 1.98852 0
M  V30 8969 C 854.433 -1.57535 1.14924 0
M  V30 8970 O 853.703 -1.94485 0.235025 0
M  V30 8971 H 852.283 -0.136332 0.734454 0
M  V30 8972 H 854.945 0.361319 1.91522 0
M  V30 8973 H 854.041 -0.661388 3.05012 0
M  V30 8974 N 854.342 -1.57594 -0.0133615 0
M  V30 8975 C 855.289 -2.07574 -1.00905 0
M  V30 8976 C 856.259 -0.968231 -1.34961 0
M  V30 8977 O 857.444 -1.23981 -1.45028 0
M  V30 8978 C 854.584 -2.5728 -2.30002 0
M  V30 8979 C 853.697 -3.81881 -2.01967 0
M  V30 8980 C 852.832 -4.20139 -3.25049 0
M  V30 8981 C 851.871 -5.37614 -2.92639 0
M  V30 8982 N 851.008 -5.71229 -4.08218 0
M  V30 8983 H 855.848 -2.92382 -0.575899 0
M  V30 8984 H 853.385 -1.4455 -0.272722 0
M  V30 8985 H 855.343 -2.84171 -3.05454 0
M  V30 8986 H 853.973 -1.75365 -2.71011 0
M  V30 8987 H 853.025 -3.61979 -1.16942 0
M  V30 8988 H 854.337 -4.67441 -1.74069 0
M  V30 8989 H 853.491 -4.48242 -4.08857 0
M  V30 8990 H 852.23 -3.33262 -3.56073 0
M  V30 8991 H 851.235 -5.09248 -2.07235 0
M  V30 8992 H 852.46 -6.26157 -2.62876 0
M  V30 8993 H 850.406 -4.8731 -4.39164 0
M  V30 8994 H 850.323 -6.51333 -3.83799 0
M  V30 8995 H 851.591 -6.03917 -4.92854 0
M  V30 8996 N 855.82 0.285905 -1.54985 0
M  V30 8997 C 856.767 1.35306 -1.86978 0
M  V30 8998 C 857.737 1.49682 -0.720046 0
M  V30 8999 O 858.922 1.64297 -0.970107 0
M  V30 9000 C 856.062 2.71059 -2.13591 0
M  V30 9001 C 855.175 2.6501 -3.41165 0
M  V30 9002 C 854.31 3.92856 -3.57544 0
M  V30 9003 C 853.349 3.81266 -4.78855 0
M  V30 9004 N 852.486 5.00919 -4.9196 0
M  V30 9005 H 857.326 1.07323 -2.78003 0
M  V30 9006 H 854.863 0.518776 -1.37649 0
M  V30 9007 H 856.821 3.50026 -2.27019 0
M  V30 9008 H 855.451 2.97271 -1.25816 0
M  V30 9009 H 854.503 1.77824 -3.36278 0
M  V30 9010 H 855.815 2.52342 -4.30262 0
M  V30 9011 H 854.969 4.80263 -3.70718 0
M  V30 9012 H 853.708 4.08377 -2.66608 0
M  V30 9013 H 852.713 2.92243 -4.65698 0
M  V30 9014 H 853.938 3.67277 -5.71213 0
M  V30 9015 H 851.884 5.16875 -4.03951 0
M  V30 9016 H 851.801 4.90732 -5.75081 0
M  V30 9017 H 853.069 5.89935 -5.09507 0
M  V30 9018 N 857.298 1.47698 0.54982 0
M  V30 9019 C 858.231 1.55288 1.67215 0
M  V30 9020 C 859.209 0.404533 1.57487 0
M  V30 9021 O 860.393 0.613372 1.78241 0
M  V30 9022 C 857.52 1.46233 3.05505 0
M  V30 9023 C 856.566 2.65662 3.33655 0
M  V30 9024 S 857.399 4.278 3.22098 0
M  V30 9025 C 858.555 4.21311 4.62869 0
M  V30 9026 H 858.788 2.50238 1.60524 0
M  V30 9027 H 856.321 1.35987 0.731227 0
M  V30 9028 H 858.279 1.41696 3.85269 0
M  V30 9029 H 856.94 0.526543 3.09655 0
M  V30 9030 H 856.133 2.55411 4.3449 0
M  V30 9031 H 855.735 2.67359 2.61524 0
M  V30 9032 H 858.027 3.90021 5.53977 0
M  V30 9033 H 858.97 5.22257 4.78177 0
M  V30 9034 H 859.378 3.52063 4.41262 0
M  V30 9035 N 858.776 -0.797141 1.35954 0
M  V30 9036 C 860.006 -1.5835 1.32698 0
M  V30 9037 C 860.414 -1.88959 -0.0955298 0
M  V30 9038 O 859.757 -1.49987 -1.06064 0
M  V30 9039 C 859.819 -2.93529 2.0756 0
M  V30 9040 C 859.483 -2.85688 3.56695 0
M  V30 9041 C 860.48 -2.58467 4.51099 0
M  V30 9042 C 858.165 -3.04508 3.99475 0
M  V30 9043 C 860.159 -2.50157 5.8626 0
M  V30 9044 C 857.846 -2.9582 5.34728 0
M  V30 9045 C 858.844 -2.68681 6.27933 0
M  V30 9046 O 858.532 -2.59973 7.60703 0
M  V30 9047 H 858.264 -0.49807 0.457059 0
M  V30 9048 H 860.818 -0.997889 1.79531 0
M  V30 9049 H 859.048 -3.54111 1.55378 0
M  V30 9050 H 860.737 -3.54744 1.9726 0
M  V30 9051 H 861.503 -2.43638 4.19363 0
M  V30 9052 H 857.382 -3.24641 3.27306 0
M  V30 9053 H 860.926 -2.28894 6.58979 0
M  V30 9054 H 856.823 -3.10211 5.66074 0
M  V30 9055 H 857.591 -2.75511 7.70737 0
M  V30 9056 N 860.254 -1.20106 -1.0204 0
M  V30 9057 C 861.501 -1.00889 -1.75578 0
M  V30 9058 C 861.829 0.459415 -1.88996 0
M  V30 9059 O 861.084 1.35735 -1.40977 0
M  V30 9060 C 861.383 -1.63308 -3.17908 0
M  V30 9061 C 861.049 -3.13091 -3.24476 0
M  V30 9062 C 859.711 -3.53968 -3.25976 0
M  V30 9063 C 862.063 -4.09093 -3.22944 0
M  V30 9064 C 859.391 -4.89381 -3.2361 0
M  V30 9065 C 861.743 -5.44447 -3.22119 0
M  V30 9066 C 860.407 -5.84742 -3.2192 0
M  V30 9067 H 859.677 -0.36918 -0.642485 0
M  V30 9068 H 862.324 -1.49475 -1.19706 0
M  V30 9069 H 860.629 -1.06974 -3.76914 0
M  V30 9070 H 862.326 -1.45958 -3.73493 0
M  V30 9071 H 858.916 -2.80526 -3.24042 0
M  V30 9072 H 863.1 -3.78549 -3.20958 0
M  V30 9073 H 858.356 -5.1987 -3.21785 0
M  V30 9074 H 862.53 -6.18584 -3.19885 0
M  V30 9075 H 860.157 -6.89642 -3.19841 0
M  V30 9076 N 861.732 1.21287 -1.00634 0
M  V30 9077 C 862.981 1.89706 -0.685178 0
M  V30 9078 C 863.294 1.79044 0.787566 0
M  V30 9079 O 864.5 2.42502 1.22086 0
M  V30 9080 C 862.956 3.40176 -1.17508 0
M  V30 9081 C 862.564 3.59446 -2.674 0
M  V30 9082 C 864.308 4.14213 -0.928869 0
M  V30 9083 C 862.215 5.03688 -3.09923 0
M  V30 9084 H 861.145 0.710434 -0.252586 0
M  V30 9085 H 863.796 1.37277 -1.21768 0
M  V30 9086 H 862.178 3.91867 -0.570622 0
M  V30 9087 H 863.352 3.18188 -3.33306 0
M  V30 9088 H 861.667 2.98764 -2.9005 0
M  V30 9089 H 864.264 5.20546 -1.22212 0
M  V30 9090 H 864.607 4.16082 0.134859 0
M  V30 9091 H 865.14 3.68591 -1.49619 0
M  V30 9092 H 861.879 5.06968 -4.15529 0
M  V30 9093 H 861.399 5.45796 -2.4873 0
M  V30 9094 H 863.078 5.72204 -3.0198 0
M  V30 9095 N 863.21 0.781244 1.36873 0
M  V30 9096 C 864.142 0.132075 2.28819 0
M  V30 9097 C 865.155 -0.653925 1.49089 0
M  V30 9098 O 866.344 -0.490453 1.7163 0
M  V30 9099 C 863.444 -0.836297 3.28419 0
M  V30 9100 C 862.617 -0.102097 4.37281 0
M  V30 9101 C 861.676 -0.985217 5.16894 0
M  V30 9102 O 860.702 -0.445478 5.67454 0
M  V30 9103 N 861.904 -2.31043 5.3254 0
M  V30 9104 H 864.669 0.921838 2.85171 0
M  V30 9105 H 862.23 0.634427 1.48952 0
M  V30 9106 H 864.222 -1.43074 3.78566 0
M  V30 9107 H 862.792 -1.52698 2.72767 0
M  V30 9108 H 862.012 0.67335 3.88407 0
M  V30 9109 H 863.3 0.404862 5.07187 0
M  V30 9110 H 862.698 -2.77318 4.93063 0
M  V30 9111 H 861.255 -2.85472 5.8596 0
M  V30 9112 N 864.689 -1.48329 0.532571 0
M  V30 9113 C 865.639 -2.2664 -0.24868 0
M  V30 9114 C 866.623 -1.32861 -0.907563 0
M  V30 9115 O 867.815 -1.57382 -0.809942 0
M  V30 9116 C 864.944 -3.18004 -1.29339 0
M  V30 9117 C 864.03 -4.19256 -0.639166 0
M  V30 9118 N 864.421 -5.05043 0.276597 0
M  V30 9119 C 862.719 -4.36906 -0.896062 0
M  V30 9120 C 863.42 -5.78009 0.654261 0
M  V30 9121 N 862.396 -5.43598 0.0147447 0
M  V30 9122 H 866.198 -2.90344 0.455792 0
M  V30 9123 H 863.712 -1.58566 0.350778 0
M  V30 9124 H 865.709 -3.72767 -1.86682 0
M  V30 9125 H 864.369 -2.55855 -1.99921 0
M  V30 9126 H 865.38 -5.13813 0.649351 0
M  V30 9127 H 862.057 -3.85945 -1.59226 0
M  V30 9128 H 863.447 -6.57039 1.40532 0
M  V30 9129 N 866.167 -0.267825 -1.55308 0
M  V30 9130 C 867.415 0.350343 -1.9904 0
M  V30 9131 C 867.736 1.56924 -1.15758 0
M  V30 9132 O 867.006 1.94358 -0.245336 0
M  V30 9133 H 865.586 0.132435 -0.735167 0
M  V30 9134 H 868.248 -0.371471 -1.91327 0
M  V30 9135 H 867.344 0.645203 -3.05358 0
M  V30 9136 N 867.645 1.57599 0.00500368 0
M  V30 9137 C 868.891 1.90631 0.691919 0
M  V30 9138 C 869.224 0.868443 1.737 0
M  V30 9139 O 868.499 -0.113482 1.94169 0
M  V30 9140 C 868.782 3.34255 1.33961 0
M  V30 9141 C 868.635 4.48755 0.306413 0
M  V30 9142 C 869.954 3.77211 2.26715 0
M  V30 9143 H 867.073 0.693279 0.250066 0
M  V30 9144 H 869.715 1.89946 -0.0452634 0
M  V30 9145 H 867.865 3.3497 1.96793 0
M  V30 9146 H 869.537 4.60176 -0.321841 0
M  V30 9147 H 867.78 4.32203 -0.371852 0
M  V30 9148 H 868.451 5.46193 0.798554 0
M  V30 9149 H 870.927 3.78017 1.73904 0
M  V30 9150 H 869.803 4.78466 2.69002 0
M  V30 9151 H 870.064 3.10801 3.14413 0
M  V30 9152 N 869.123 -0.277682 1.55134 0
M  V30 9153 C 870.369 -1.0114 1.7578 0
M  V30 9154 C 870.702 -1.86109 0.554719 0
M  V30 9155 O 869.977 -1.89275 -0.447813 0
M  V30 9156 C 870.26 -1.89789 3.06027 0
M  V30 9157 C 870.113 -1.07844 4.3668 0
M  V30 9158 C 871.432 -2.88577 3.32282 0
M  V30 9159 H 868.551 -0.366277 0.639539 0
M  V30 9160 H 871.193 -0.284155 1.87863 0
M  V30 9161 H 869.343 -2.51796 2.95856 0
M  V30 9162 H 871.015 -0.479432 4.58802 0
M  V30 9163 H 869.258 -0.381764 4.32117 0
M  V30 9164 H 869.929 -1.73179 5.24131 0
M  V30 9165 H 872.405 -2.36702 3.42215 0
M  V30 9166 H 871.281 -3.47749 4.2469 0
M  V30 9167 H 871.542 -3.63458 2.51696 0
M  V30 9168 N 870.601 -1.47988 -0.541979 0
M  V30 9169 C 871.826 -1.59286 -1.32826 0
M  V30 9170 C 872.251 -0.24894 -1.86445 0
M  V30 9171 O 871.609 0.777581 -1.63778 0
M  V30 9172 C 871.657 -2.6334 -2.46343 0
M  V30 9173 O 870.761 -2.19667 -3.49028 0
M  V30 9174 H 870.102 -0.534543 -0.393903 0
M  V30 9175 H 872.632 -1.93885 -0.653427 0
M  V30 9176 H 872.642 -2.84238 -2.92699 0
M  V30 9177 H 871.317 -3.60913 -2.06675 0
M  V30 9178 H 869.894 -2.08932 -3.08872 0
M  V30 9179 N 872.079 0.78992 -1.36375 0
M  V30 9180 C 873.325 1.55007 -1.3077 0
M  V30 9181 C 873.658 1.93871 0.112979 0
M  V30 9182 O 872.933 1.6267 1.06625 0
M  V30 9183 C 873.216 2.82748 -2.22993 0
M  V30 9184 C 873.069 2.50253 -3.73756 0
M  V30 9185 C 874.388 3.84569 -2.13998 0
M  V30 9186 H 871.507 0.562362 -0.476359 0
M  V30 9187 H 874.149 0.907582 -1.66922 0
M  V30 9188 H 872.299 3.37573 -1.92292 0
M  V30 9189 H 873.971 2.01482 -4.14973 0
M  V30 9190 H 872.214 1.83203 -3.93216 0
M  V30 9191 H 872.885 3.41487 -4.33694 0
M  V30 9192 H 875.361 3.39188 -2.4102 0
M  V30 9193 H 874.237 4.717 -2.80697 0
M  V30 9194 H 874.498 4.27491 -1.12711 0
M  V30 9195 N 873.557 1.20646 1.01402 0
M  V30 9196 C 874.487 0.98155 2.11867 0
M  V30 9197 C 875.468 -0.0903712 1.6986 0
M  V30 9198 O 876.653 0.0676586 1.94082 0
M  V30 9199 C 873.783 0.535636 3.43145 0
M  V30 9200 C 872.737 1.55109 3.98905 0
M  V30 9201 C 872.063 0.961725 5.2598 0
M  V30 9202 C 873.363 2.93552 4.32001 0
M  V30 9203 H 875.057 1.90544 2.3094 0
M  V30 9204 H 872.603 0.917554 1.10982 0
M  V30 9205 H 874.556 0.365512 4.19812 0
M  V30 9206 H 873.28 -0.423882 3.23838 0
M  V30 9207 H 871.939 1.70862 3.24348 0
M  V30 9208 H 871.587 -0.00580108 5.03 0
M  V30 9209 H 871.287 1.63993 5.64252 0
M  V30 9210 H 872.811 0.802726 6.053 0
M  V30 9211 H 874.225 2.81295 4.99546 0
M  V30 9212 H 872.622 3.58303 4.81393 0
M  V30 9213 H 873.692 3.4508 3.40658 0
M  V30 9214 N 875.035 -1.20752 1.01276 0
M  V30 9215 C 876.263 -1.94006 0.718976 0
M  V30 9216 C 876.678 -1.74544 -0.719711 0
M  V30 9217 O 876.035 -1.05697 -1.48776 0
M  V30 9218 C 876.086 -3.46208 1.04031 0
M  V30 9219 O 875.807 -3.65031 2.42248 0
M  V30 9220 C 877.308 -4.36614 0.767032 0
M  V30 9221 H 874.528 -0.616743 0.264327 0
M  V30 9222 H 877.072 -1.53352 1.3529 0
M  V30 9223 H 875.227 -3.84756 0.451852 0
M  V30 9224 H 875.641 -4.59054 2.53712 0
M  V30 9225 H 877.115 -5.42076 1.04198 0
M  V30 9226 H 877.592 -4.38182 -0.298851 0
M  V30 9227 H 878.198 -4.03723 1.33746 0
M  V30 9228 N 876.513 -0.788492 -1.36457 0
M  V30 9229 C 877.46 -0.18435 -2.30063 0
M  V30 9230 C 878.43 0.67128 -1.51931 0
M  V30 9231 O 879.615 0.620152 -1.8044 0
M  V30 9232 C 876.755 0.675596 -3.38422 0
M  V30 9233 C 875.868 -0.198475 -4.31544 0
M  V30 9234 C 875.003 0.667757 -5.26986 0
M  V30 9235 C 874.042 -0.207825 -6.11747 0
M  V30 9236 N 873.179 0.617335 -6.99381 0
M  V30 9237 H 878.019 -0.988056 -2.81143 0
M  V30 9238 H 875.556 -0.498815 -1.38384 0
M  V30 9239 H 877.514 1.18916 -3.99894 0
M  V30 9240 H 876.144 1.44474 -2.88664 0
M  V30 9241 H 875.196 -0.829995 -3.71235 0
M  V30 9242 H 876.508 -0.873163 -4.91098 0
M  V30 9243 H 875.662 1.24716 -5.93743 0
M  V30 9244 H 874.401 1.37607 -4.67884 0
M  V30 9245 H 873.406 -0.799638 -5.43954 0
M  V30 9246 H 874.631 -0.913729 -6.72925 0
M  V30 9247 H 872.577 1.30996 -6.42788 0
M  V30 9248 H 872.494 0.000307255 -7.56 0
M  V30 9249 H 873.762 1.1806 -7.70508 0
M  V30 9250 N 877.991 1.48044 -0.54043 0
M  V30 9251 C 879.239 2.02097 -0.0101367 0
M  V30 9252 C 879.56 1.41881 1.33771 0
M  V30 9253 O 878.83 0.587923 1.8687 0
M  V30 9254 H 877.41 0.747 -0.000758716 0
M  V30 9255 H 880.072 1.81639 -0.706634 0
M  V30 9256 H 879.168 3.11969 0.0904474 0
M  V30 9257 N 879.47 0.276058 1.55163 0
M  V30 9258 C 880.418 -0.626978 2.2399 0
M  V30 9259 C 881.412 -1.15708 1.23725 0
M  V30 9260 O 882.618 -1.1106 1.41653 0
M  V30 9261 H 878.993 -0.220742 0.718872 0
M  V30 9262 H 880.964 -0.0236569 2.98391 0
M  V30 9263 C 879.713 -1.79935 2.97521 0
M  V30 9264 H 879.036 -1.40064 3.74463 0
M  V30 9265 H 880.476 -2.40781 3.48999 0
M  V30 9266 C 878.935 -2.68838 2.03046 0
M  V30 9267 O 879.465 -3.69224 1.58229 0
M  V30 9268 N 877.671 -2.36028 1.69527 0
M  V30 9269 H 877.218 -1.54442 2.06169 0
M  V30 9270 H 877.176 -2.95782 1.06586 0
M  V30 9271 N 880.948 -1.576 0.00335426 0
M  V30 9272 C 881.895 -2.08632 -0.986975 0
M  V30 9273 C 882.865 -0.982491 -1.33927 0
M  V30 9274 O 884.05 -1.25513 -1.43705 0
M  V30 9275 C 881.19 -2.59705 -2.27261 0
M  V30 9276 C 880.303 -3.84002 -1.97905 0
M  V30 9277 C 879.438 -4.23563 -3.20574 0
M  V30 9278 C 878.477 -5.40688 -2.8692 0
M  V30 9279 N 877.614 -5.75526 -4.02136 0
M  V30 9280 H 882.454 -2.92977 -0.544855 0
M  V30 9281 H 879.991 -1.44831 -0.257376 0
M  V30 9282 H 881.949 -2.87395 -3.02423 0
M  V30 9283 H 880.579 -1.7823 -2.69136 0
M  V30 9284 H 879.631 -3.63199 -1.13096 0
M  V30 9285 H 880.943 -4.69261 -1.69102 0
M  V30 9286 H 880.097 -4.52554 -4.04079 0
M  V30 9287 H 878.836 -3.37019 -3.52518 0
M  V30 9288 H 877.841 -5.11417 -2.01822 0
M  V30 9289 H 879.066 -6.2891 -2.5622 0
M  V30 9290 H 877.012 -4.9194 -4.33971 0
M  V30 9291 H 876.929 -6.55367 -3.76869 0
M  V30 9292 H 878.197 -6.0911 -4.8642 0
M  V30 9293 N 882.426 0.269451 -1.5528 0
M  V30 9294 C 883.336 1.35511 -1.91505 0
M  V30 9295 C 884.352 1.53854 -0.812712 0
M  V30 9296 O 885.528 1.67912 -1.1121 0
M  V30 9297 C 882.593 2.6937 -2.18267 0
M  V30 9298 C 881.654 2.59743 -3.41807 0
M  V30 9299 C 880.887 3.87219 -3.67283 0
M  V30 9300 O 881.11 4.88066 -2.95208 0
M  V30 9301 O 880.044 3.87209 -4.60818 0
M  V30 9302 H 883.87 1.07785 -2.8393 0
M  V30 9303 H 881.455 0.468282 -1.41871 0
M  V30 9304 H 883.337 3.48513 -2.36889 0
M  V30 9305 H 882.012 2.96874 -1.29024 0
M  V30 9306 H 880.919 1.78964 -3.28516 0
M  V30 9307 H 882.252 2.37188 -4.3128 0
M  V30 9308 N 883.904 1.48273 0.534124 0
M  V30 9309 C 884.837 1.57053 1.65559 0
M  V30 9310 C 885.815 0.421213 1.5705 0
M  V30 9311 O 886.999 0.632242 1.77581 0
M  V30 9312 C 884.126 1.49465 3.03937 0
M  V30 9313 C 883.172 2.69186 3.30819 0
M  V30 9314 S 884.005 4.31192 3.17543 0
M  V30 9315 C 885.161 4.26197 4.58375 0
M  V30 9316 H 885.394 2.51927 1.57861 0
M  V30 9317 H 882.927 1.36755 0.716763 0
M  V30 9318 H 884.885 1.45775 3.83745 0
M  V30 9319 H 883.546 0.559357 3.09079 0
M  V30 9320 H 882.739 2.60005 4.31756 0
M  V30 9321 H 882.341 2.70118 2.58674 0
M  V30 9322 H 884.633 3.95874 5.49809 0
M  V30 9323 H 885.576 5.27299 4.72611 0
M  V30 9324 H 885.984 3.56723 4.37503 0
M  V30 9325 N 885.382 -0.782676 1.36792 0
M  V30 9326 C 886.329 -1.89558 1.31667 0
M  V30 9327 C 887.299 -1.65076 0.184147 0
M  V30 9328 O 888.484 -1.87143 0.371753 0
M  V30 9329 C 885.624 -3.26469 1.11858 0
M  V30 9330 C 884.737 -3.62978 2.34245 0
M  V30 9331 C 883.872 -4.89041 2.07394 0
M  V30 9332 C 882.911 -5.18249 3.25706 0
M  V30 9333 N 882.048 -6.35497 2.98476 0
M  V30 9334 H 886.888 -1.93274 2.26824 0
M  V30 9335 H 884.425 -0.945057 1.12726 0
M  V30 9336 H 886.383 -4.05431 0.983968 0
M  V30 9337 H 885.013 -3.22158 0.203531 0
M  V30 9338 H 884.065 -2.79087 2.58485 0
M  V30 9339 H 885.377 -3.80507 3.22514 0
M  V30 9340 H 884.531 -5.75883 1.90901 0
M  V30 9341 H 883.27 -4.73594 1.16446 0
M  V30 9342 H 882.275 -4.29887 3.4275 0
M  V30 9343 H 883.5 -5.35611 4.1749 0
M  V30 9344 H 881.446 -6.21429 2.10146 0
M  V30 9345 H 881.363 -6.5339 3.80286 0
M  V30 9346 H 882.631 -7.25304 2.85577 0
M  V30 9347 N 886.86 -1.21182 -1.00761 0
M  V30 9348 C 887.79 -0.992773 -2.11344 0
M  V30 9349 C 888.771 0.0813618 -1.69905 0
M  V30 9350 O 889.956 -0.0779503 -1.94043 0
M  V30 9351 C 887.086 -0.553826 -3.42856 0
M  V30 9352 C 886.04 -1.57223 -3.98077 0
M  V30 9353 C 885.366 -0.989605 -5.25463 0
M  V30 9354 C 886.666 -2.95839 -4.30438 0
M  V30 9355 H 888.36 -1.91766 -2.29927 0
M  V30 9356 H 885.906 -0.923426 -1.10494 0
M  V30 9357 H 887.859 -0.387771 -4.19612 0
M  V30 9358 H 886.583 0.406702 -3.24058 0
M  V30 9359 H 885.242 -1.7258 -3.23437 0
M  V30 9360 H 884.89 -0.0208743 -5.02996 0
M  V30 9361 H 884.59 -1.66984 -5.63374 0
M  V30 9362 H 886.114 -0.834815 -6.04866 0
M  V30 9363 H 887.528 -2.8394 -4.98047 0
M  V30 9364 H 885.925 -3.60851 -4.79486 0
M  V30 9365 H 886.995 -3.46882 -3.38823 0
M  V30 9366 N 888.338 1.20213 -1.01915 0
M  V30 9367 C 889.563 1.94163 -0.729076 0
M  V30 9368 C 889.988 1.74416 0.704323 0
M  V30 9369 O 889.346 1.0401 1.48498 0
M  V30 9370 C 889.394 3.44258 -1.07324 0
M  V30 9371 O 888.498 4.11979 -0.186367 0
M  V30 9372 H 887.839 0.606506 -0.270272 0
M  V30 9373 H 890.369 1.52571 -1.3632 0
M  V30 9374 H 890.379 3.94888 -1.02603 0
M  V30 9375 H 889.054 3.57954 -2.11759 0
M  V30 9376 H 887.631 3.7176 -0.291334 0
M  V30 9377 N 889.816 0.795718 1.36037 0
M  V30 9378 C 891.093 0.294743 1.93367 0
M  V30 9379 C 891.473 -1.21406 1.72696 0
M  V30 9380 O 890.821 -2.00849 1.08959 0
M  V30 9381 C 891.031 0.694254 3.42025 0
M  V30 9382 C 892.379 0.677566 4.19159 0
M  V30 9383 O 893.403 0.635119 3.50492 0
M  V30 9384 O 892.262 0.726127 5.41655 0
M  V30 9385 H 889.356 0.0745459 0.823633 0
M  V30 9386 H 891.902 0.878685 1.4518 0
M  V30 9387 H 890.674 1.73458 3.50753 0
M  V30 9388 H 890.297 0.0845338 3.9751 0
M  V30 9389 N 891.294 -1.47756 0.548274 0
M  V30 9390 C 892.542 -2.02089 0.0208542 0
M  V30 9391 C 892.863 -1.42589 -1.33017 0
M  V30 9392 O 892.133 -0.597825 -1.86555 0
M  V30 9393 H 890.713 -0.746985 0.00472023 0
M  V30 9394 H 893.375 -1.81262 0.716257 0
M  V30 9395 H 892.471 -3.12012 -0.0739016 0
M  V30 9396 N 892.772 -0.284283 -1.55015 0
M  V30 9397 C 893.997 0.335799 -2.04664 0
M  V30 9398 C 894.422 1.47999 -1.16094 0
M  V30 9399 O 893.78 1.8058 -0.161454 0
M  V30 9400 C 893.828 0.785615 -3.51938 0
M  V30 9401 O 892.932 1.89202 -3.66437 0
M  V30 9402 H 892.273 0.0680233 -0.660506 0
M  V30 9403 H 894.803 -0.421255 -2.00216 0
M  V30 9404 H 894.813 1.07892 -3.93476 0
M  V30 9405 H 893.488 -0.0514675 -4.15868 0
M  V30 9406 H 892.065 1.60055 -3.36804 0
M  V30 9407 N 894.251 1.57596 -0.0117121 0
M  V30 9408 C 895.481 1.95077 0.680346 0
M  V30 9409 C 895.889 0.885793 1.67184 0
M  V30 9410 O 895.232 -0.142723 1.83145 0
M  V30 9411 C 895.294 3.28611 1.45791 0
M  V30 9412 C 894.958 4.52682 0.626706 0
M  V30 9413 C 895.955 5.19821 -0.0906223 0
M  V30 9414 C 893.64 4.99064 0.569229 0
M  V30 9415 C 895.634 6.31649 -0.854289 0
M  V30 9416 C 893.321 6.10779 -0.198155 0
M  V30 9417 C 894.319 6.76929 -0.908636 0
M  V30 9418 O 894.007 7.86501 -1.66348 0
M  V30 9419 H 893.739 0.647663 0.193672 0
M  V30 9420 H 896.293 2.05305 -0.0624969 0
M  V30 9421 H 894.523 3.14824 2.2455 0
M  V30 9422 H 896.212 3.51119 2.03642 0
M  V30 9423 H 896.978 4.84968 -0.0554421 0
M  V30 9424 H 892.857 4.47393 1.11178 0
M  V30 9425 H 896.401 6.83215 -1.40937 0
M  V30 9426 H 892.298 6.45072 -0.235114 0
M  V30 9427 H 893.066 8.03078 -1.58141 0
M  V30 9428 N 895.729 -0.261212 1.5542 0
M  V30 9429 C 896.976 -0.99123 1.76581 0
M  V30 9430 C 897.304 -1.85854 0.573457 0
M  V30 9431 O 896.559 -1.90604 -0.443705 0
M  V30 9432 C 896.858 -1.89395 3.03091 0
M  V30 9433 C 896.524 -1.18318 4.351 0
M  V30 9434 C 895.186 -0.986688 4.70975 0
M  V30 9435 C 897.538 -0.678299 5.16767 0
M  V30 9436 C 894.866 -0.272788 5.86065 0
M  V30 9437 C 897.218 0.0220646 6.32596 0
M  V30 9438 C 895.882 0.230161 6.67103 0
M  V30 9439 H 895.152 -0.362717 0.646156 0
M  V30 9440 H 897.799 -0.262506 1.89692 0
M  V30 9441 H 896.104 -2.68927 2.8493 0
M  V30 9442 H 897.801 -2.46022 3.16661 0
M  V30 9443 H 894.391 -1.34625 4.06908 0
M  V30 9444 H 898.575 -0.817691 4.89518 0
M  V30 9445 H 893.831 -0.10095 6.11317 0
M  V30 9446 H 898.005 0.420981 6.95126 0
M  V30 9447 H 895.632 0.785312 7.56133 0
M  V30 9448 N 897.207 -1.48554 -0.526253 0
M  V30 9449 C 898.455 -1.56452 -1.27935 0
M  V30 9450 C 898.776 -0.24184 -1.93495 0
M  V30 9451 O 898.046 0.736917 -1.81511 0
M  V30 9452 H 896.626 -0.576379 -0.47518 0
M  V30 9453 H 899.288 -1.85039 -0.612083 0
M  V30 9454 H 898.384 -2.34751 -2.05666 0
M  V30 9455 N 898.685 0.775411 -1.37205 0
M  V30 9456 C 899.595 1.91967 -1.34855 0
M  V30 9457 C 900.611 1.72214 -0.248656 0
M  V30 9458 O 901.787 1.95512 -0.483421 0
M  V30 9459 C 898.852 3.27038 -1.15096 0
M  V30 9460 C 897.913 3.5947 -2.34691 0
M  V30 9461 C 897.146 4.88097 -2.15865 0
M  V30 9462 O 897.369 5.58871 -1.14102 0
M  V30 9463 O 896.303 5.19507 -3.03967 0
M  V30 9464 H 900.129 1.969 -2.31223 0
M  V30 9465 H 897.714 0.917647 -1.17897 0
M  V30 9466 H 899.596 4.07837 -1.0605 0
M  V30 9467 H 898.271 3.22965 -0.217999 0
M  V30 9468 H 897.178 2.7892 -2.49308 0
M  V30 9469 H 898.511 3.68282 -3.26541 0
M  V30 9470 N 900.163 1.21714 1.00117 0
M  V30 9471 C 901.412 1.03087 1.73367 0
M  V30 9472 C 901.725 -0.435532 1.90689 0
M  V30 9473 O 902.931 -0.741291 2.61184 0
M  V30 9474 C 901.387 1.79593 3.11888 0
M  V30 9475 C 900.995 3.30428 3.02525 0
M  V30 9476 C 902.739 1.69386 3.89241 0
M  V30 9477 C 900.646 3.99408 4.3615 0
M  V30 9478 H 899.576 0.382117 0.650002 0
M  V30 9479 H 902.227 1.45486 1.11831 0
M  V30 9480 H 900.609 1.29988 3.74058 0
M  V30 9481 H 901.783 3.87364 2.49571 0
M  V30 9482 H 900.098 3.4122 2.38659 0
M  V30 9483 H 902.695 2.18251 4.8813 0
M  V30 9484 H 903.038 0.652773 4.1115 0
M  V30 9485 H 903.571 2.16489 3.33733 0
M  V30 9486 H 900.31 5.03735 4.19442 0
M  V30 9487 H 899.83 3.47261 4.8905 0
M  V30 9488 H 901.509 4.04537 5.04934 0
M  V30 9489 N 901.641 -1.19671 1.02551 0
M  V30 9490 C 902.881 -1.90971 0.728668 0
M  V30 9491 C 903.245 -1.7762 -0.729057 0
M  V30 9492 O 904.446 -2.43484 -1.13882 0
M  V30 9493 C 902.717 -3.3794 1.16323 0
M  V30 9494 S 904.276 -4.27493 0.989722 0
M  V30 9495 H 901.094 -0.659617 0.265381 0
M  V30 9496 H 903.696 -1.44698 1.31463 0
M  V30 9497 H 902.4 -3.45181 2.21986 0
M  V30 9498 H 901.931 -3.89243 0.570417 0
M  V30 9499 H 903.946 -4.96096 -0.101666 0
M  V30 9500 N 903.119 -0.802921 -1.35613 0
M  V30 9501 C 904.049 -0.225131 -2.32412 0
M  V30 9502 C 905.03 0.647383 -1.57299 0
M  V30 9503 O 906.215 0.578414 -1.85386 0
M  V30 9504 C 903.345 0.630085 -3.41537 0
M  V30 9505 C 902.299 -0.143635 -4.27759 0
M  V30 9506 C 901.625 0.833046 -5.28171 0
M  V30 9507 C 902.925 -1.34054 -5.04804 0
M  V30 9508 H 904.619 -1.03385 -2.80984 0
M  V30 9509 H 902.165 -0.498593 -1.35093 0
M  V30 9510 H 904.118 1.04433 -4.08254 0
M  V30 9511 H 902.842 1.47165 -2.91565 0
M  V30 9512 H 901.501 -0.539015 -3.62616 0
M  V30 9513 H 901.149 1.67001 -4.74468 0
M  V30 9514 H 900.849 0.319697 -5.8673 0
M  V30 9515 H 902.373 1.24558 -5.97761 0
M  V30 9516 H 903.787 -1.00136 -5.64487 0
M  V30 9517 H 902.184 -1.78812 -5.72841 0
M  V30 9518 H 903.254 -2.12906 -4.35659 0
M  V30 9519 N 904.597 1.47463 -0.556102 0
M  V30 9520 C 905.527 2.32801 0.180497 0
M  V30 9521 C 906.508 1.43721 0.909848 0
M  V30 9522 O 907.693 1.72578 0.89053 0
M  V30 9523 C 904.823 3.25478 1.21167 0
M  V30 9524 C 903.777 4.2379 0.598846 0
M  V30 9525 C 903.103 5.05783 1.73457 0
M  V30 9526 C 904.403 5.20387 -0.446659 0
M  V30 9527 H 906.097 2.94636 -0.531956 0
M  V30 9528 H 903.643 1.41683 -0.257267 0
M  V30 9529 H 905.596 3.8402 1.73513 0
M  V30 9530 H 904.32 2.61695 1.95405 0
M  V30 9531 H 902.979 3.66472 0.0966897 0
M  V30 9532 H 902.627 4.38405 2.46596 0
M  V30 9533 H 902.327 5.72343 1.33031 0
M  V30 9534 H 903.851 5.67183 2.26131 0
M  V30 9535 H 905.265 5.73299 -0.00930019 0
M  V30 9536 H 903.662 5.95143 -0.769735 0
M  V30 9537 H 904.732 4.65932 -1.34295 0
M  V30 9538 N 906.075 0.2925 1.54862 0
M  V30 9539 C 907.303 -0.322113 2.04377 0
M  V30 9540 C 907.718 -1.48164 1.17016 0
M  V30 9541 O 907.075 -1.81466 0.19395 0
M  V30 9542 C 907.126 -0.786506 3.5284 0
M  V30 9543 O 906.847 0.326863 4.36879 0
M  V30 9544 C 908.348 -1.46715 4.18318 0
M  V30 9545 H 905.568 -0.0712074 0.667211 0
M  V30 9546 H 908.112 0.429657 1.99935 0
M  V30 9547 H 906.267 -1.48832 3.5767 0
M  V30 9548 H 906.681 -0.0331558 5.2449 0
M  V30 9549 H 908.155 -1.74333 5.23748 0
M  V30 9550 H 908.632 -2.40443 3.67538 0
M  V30 9551 H 909.238 -0.808735 4.1754 0
M  V30 9552 N 907.553 -1.57587 0.0200696 0
M  V30 9553 C 908.969 -1.56018 -0.336237 0
M  V30 9554 C 909.169 -1.02478 -1.73495 0
M  V30 9555 O 908.225 -0.667487 -2.43518 0
M  V30 9556 C 909.538 -3.00079 -0.193112 0
M  V30 9557 C 911.086 -3.11863 -0.266557 0
M  V30 9558 C 911.561 -4.57747 -0.152326 0
M  V30 9559 N 913.052 -4.62726 -0.209596 0
M  V30 9560 C 913.787 -5.73217 -0.144855 0
M  V30 9561 N 913.283 -6.92794 -0.0295487 0
M  V30 9562 N 915.076 -5.61751 -0.198184 0
M  V30 9563 H 907.227 -1.90722 0.93482 0
M  V30 9564 H 909.49 -0.876909 0.360186 0
M  V30 9565 H 909.196 -3.43167 0.770036 0
M  V30 9566 H 909.07 -3.64593 -0.967029 0
M  V30 9567 H 911.457 -2.68693 -1.22016 0
M  V30 9568 H 911.538 -2.50087 0.53758 0
M  V30 9569 H 911.182 -5.01595 0.797817 0
M  V30 9570 H 911.112 -5.17491 -0.97521 0
M  V30 9571 H 913.603 -3.76713 -0.299229 0
M  V30 9572 H 913.916 -7.72799 0.0134071 0
M  V30 9573 H 912.261 -6.95 0.00510737 0
M  V30 9574 H 915.452 -4.67222 -0.286603 0
M  V30 9575 H 915.625 -6.47839 -0.144266 0
M  V30 9576 N 909.032 0.252966 -1.55557 0
M  V30 9577 C 910.28 0.979912 -1.76754 0
M  V30 9578 C 910.601 1.86083 -0.582944 0
M  V30 9579 O 909.871 1.91742 0.401497 0
M  V30 9580 H 908.451 0.364805 -0.651864 0
M  V30 9581 H 911.113 0.272372 -1.92987 0
M  V30 9582 H 910.209 1.60518 -2.67657 0
M  V30 9583 N 910.51 1.48831 0.518367 0
M  V30 9584 C 911.926 1.35209 0.847979 0
M  V30 9585 C 912.126 0.371927 1.98038 0
M  V30 9586 O 911.182 -0.202681 2.51685 0
M  V30 9587 C 912.495 2.7552 1.20455 0
M  V30 9588 C 914.043 2.84094 1.31377 0
M  V30 9589 C 914.518 4.25132 1.70372 0
M  V30 9590 N 916.009 4.27861 1.77453 0
M  V30 9591 C 916.744 5.3394 2.09035 0
M  V30 9592 N 916.24 6.50285 2.3896 0
M  V30 9593 N 918.033 5.21343 2.10139 0
M  V30 9594 H 910.184 2.11166 -0.228624 0
M  V30 9595 H 912.447 0.94717 -0.0396599 0
M  V30 9596 H 912.153 3.48861 0.445991 0
M  V30 9597 H 912.027 3.09785 2.15204 0
M  V30 9598 H 914.414 2.11001 2.06307 0
M  V30 9599 H 914.495 2.53433 0.347203 0
M  V30 9600 H 914.139 4.98745 0.959975 0
M  V30 9601 H 914.069 4.53245 2.68098 0
M  V30 9602 H 916.56 3.43945 1.56557 0
M  V30 9603 H 916.873 7.26961 2.62196 0
M  V30 9604 H 915.218 6.5354 2.36454 0
M  V30 9605 H 918.409 4.29462 1.86225 0
M  V30 9606 H 918.582 6.04112 2.34419 0
M  V30 9607 N 911.988 -0.768124 1.37614 0
M  V30 9608 C 913.404 -1.06919 1.18493 0
M  V30 9609 C 913.604 -2.01486 0.0235753 0
M  V30 9610 O 912.66 -2.4438 -0.635209 0
M  V30 9611 C 913.973 -1.66321 2.50515 0
M  V30 9612 C 915.521 -1.78562 2.57069 0
M  V30 9613 C 915.996 -2.41377 3.89231 0
M  V30 9614 N 917.487 -2.48824 3.90693 0
M  V30 9615 C 918.222 -2.98288 4.89706 0
M  V30 9616 N 917.718 -3.47897 5.99115 0
M  V30 9617 N 919.511 -2.97196 4.77107 0
M  V30 9618 H 911.662 -0.140286 2.11936 0
M  V30 9619 H 913.925 -0.124863 0.939741 0
M  V30 9620 H 913.631 -1.04303 3.35878 0
M  V30 9621 H 913.505 -2.65571 2.67866 0
M  V30 9622 H 915.892 -2.39712 1.72111 0
M  V30 9623 H 915.973 -0.780574 2.43599 0
M  V30 9624 H 915.617 -1.80866 4.74605 0
M  V30 9625 H 915.547 -3.42495 4.00006 0
M  V30 9626 H 918.038 -2.1372 3.1166 0
M  V30 9627 H 918.351 -3.84053 6.70614 0
M  V30 9628 H 916.696 -3.45993 6.02755 0
M  V30 9629 H 919.887 -2.57741 3.90752 0
M  V30 9630 H 920.06 -3.35434 5.54426 0
M  V30 9631 N 913.466 -1.22244 -0.994698 0
M  V30 9632 C 914.694 -1.07218 -1.76952 0
M  V30 9633 C 915.109 0.377388 -1.8499 0
M  V30 9634 O 914.466 1.26157 -1.31874 0
M  V30 9635 C 914.517 -1.67496 -3.20355 0
M  V30 9636 O 914.238 -3.06782 -3.12756 0
M  V30 9637 C 915.739 -1.57721 -4.14294 0
M  V30 9638 H 912.959 -0.375966 -0.555779 0
M  V30 9639 H 915.503 -1.61799 -1.25065 0
M  V30 9640 H 913.658 -1.16982 -3.69315 0
M  V30 9641 H 914.072 -3.35784 -4.02926 0
M  V30 9642 H 915.546 -2.04623 -5.12673 0
M  V30 9643 H 916.023 -0.533434 -4.35949 0
M  V30 9644 H 916.629 -2.07531 -3.71229 0
M  V30 9645 N 914.944 1.19125 -1.03184 0
M  V30 9646 C 915.907 2.20662 -0.619766 0
M  V30 9647 C 916.907 1.57621 0.318179 0
M  V30 9648 O 918.097 1.73885 0.104783 0
M  V30 9649 C 915.229 3.40774 0.0926696 0
M  V30 9650 H 916.422 2.58633 -1.5182 0
M  V30 9651 H 913.975 1.32855 -0.823364 0
M  V30 9652 H 914.71 3.08324 1.00531 0
M  V30 9653 H 914.495 3.87766 -0.581344 0
M  V30 9654 H 915.985 4.15977 0.367792 0
M  V30 9655 N 916.422 0.810101 1.35185 0
M  V30 9656 C 917.647 0.40364 2.03434 0
M  V30 9657 C 918.072 -0.97857 1.60641 0
M  V30 9658 O 917.43 -1.63435 0.784779 0
M  V30 9659 C 917.478 0.499154 3.57129 0
M  V30 9660 O 916.582 -0.486039 4.09526 0
M  V30 9661 H 915.923 0.168049 0.642383 0
M  V30 9662 H 918.453 1.09696 1.72708 0
M  V30 9663 H 918.463 0.370236 4.06317 0
M  V30 9664 H 917.138 1.50733 3.87624 0
M  V30 9665 H 915.715 -0.31707 3.7155 0
M  V30 9666 N 917.9 -1.47166 0.563914 0
M  V30 9667 C 919.146 -2.02756 0.0424338 0
M  V30 9668 C 919.479 -1.43662 -1.3067 0
M  V30 9669 O 918.754 -0.594676 -1.85186 0
M  V30 9670 C 919.037 -3.60074 -0.0434793 0
M  V30 9671 C 918.89 -4.29587 1.33323 0
M  V30 9672 C 920.209 -4.336 -0.753568 0
M  V30 9673 H 917.328 -0.736806 0.0168946 0
M  V30 9674 H 919.97 -1.75521 0.727496 0
M  V30 9675 H 918.12 -3.83409 -0.626906 0
M  V30 9676 H 919.792 -4.17573 1.96037 0
M  V30 9677 H 918.035 -3.8968 1.9061 0
M  V30 9678 H 918.706 -5.38218 1.22576 0
M  V30 9679 H 921.182 -4.15299 -0.258126 0
M  V30 9680 H 920.058 -5.43291 -0.782659 0
M  V30 9681 H 920.319 -4.03302 -1.81108 0
M  V30 9682 N 919.378 -0.300708 -1.54705 0
M  V30 9683 C 920.794 0.0526874 -1.59513 0
M  V30 9684 C 920.994 1.52444 -1.31769 0
M  V30 9685 O 920.05 2.27716 -1.09096 0
M  V30 9686 C 921.363 -0.344989 -2.98714 0
M  V30 9687 C 922.911 -0.29373 -3.11619 0
M  V30 9688 C 923.386 -0.666225 -4.53129 0
M  V30 9689 N 924.877 -0.618749 -4.59049 0
M  V30 9690 C 925.612 -0.879447 -5.66616 0
M  V30 9691 N 925.108 -1.2061 -6.82221 0
M  V30 9692 N 926.901 -0.806528 -5.56284 0
M  V30 9693 H 919.052 -1.25988 -1.71 0
M  V30 9694 H 921.315 -0.510758 -0.798643 0
M  V30 9695 H 921.021 -1.36953 -3.2394 0
M  V30 9696 H 920.895 0.301507 -3.75993 0
M  V30 9697 H 923.282 0.72156 -2.86142 0
M  V30 9698 H 923.363 -0.974844 -2.36496 0
M  V30 9699 H 923.007 -1.67932 -4.79334 0
M  V30 9700 H 922.937 0.0369575 -5.26587 0
M  V30 9701 H 925.428 -0.377202 -3.76013 0
M  V30 9702 H 925.741 -1.391 -7.60178 0
M  V30 9703 H 924.086 -1.24413 -6.83774 0
M  V30 9704 H 927.277 -0.550993 -4.64846 0
M  V30 9705 H 927.45 -1.01307 -6.40032 0
M  V30 9706 N 920.856 1.57574 -0.0284266 0
M  V30 9707 C 921.819 2.09096 0.938691 0
M  V30 9708 C 922.819 1.00588 1.25454 0
M  V30 9709 O 924.009 1.2675 1.19499 0
M  V30 9710 C 921.141 2.55624 2.25542 0
M  V30 9711 H 922.334 2.95829 0.49248 0
M  V30 9712 H 919.887 1.5475 0.219594 0
M  V30 9713 H 920.622 1.72218 2.74793 0
M  V30 9714 H 920.407 3.34896 2.03929 0
M  V30 9715 H 921.897 2.95712 2.94863 0
M  V30 9716 N 922.334 -0.244713 1.55689 0
M  V30 9717 C 923.611 -0.995407 1.68378 0
M  V30 9718 C 923.991 -2.03288 0.568949 0
M  V30 9719 O 923.339 -2.24469 -0.427299 0
M  V30 9720 C 923.549 -1.62678 3.08767 0
M  V30 9721 C 924.897 -2.1278 3.67437 0
M  V30 9722 O 925.921 -1.72614 3.11581 0
M  V30 9723 O 924.78 -2.86536 4.65359 0
M  V30 9724 H 921.874 -0.463476 0.684923 0
M  V30 9725 H 924.42 -0.238326 1.68018 0
M  V30 9726 H 923.192 -0.876469 3.81358 0
M  V30 9727 H 922.815 -2.45 3.13146 0
M  V30 9728 N 923.813 -1.49104 -0.510467 0
M  V30 9729 C 925.041 -1.61806 -1.28944 0
M  V30 9730 C 925.456 -0.285774 -1.86625 0
M  V30 9731 O 924.813 0.727551 -1.67371 0
M  V30 9732 C 924.864 -2.67966 -2.42645 0
M  V30 9733 O 924.585 -3.96026 -1.87337 0
M  V30 9734 C 926.086 -2.91286 -3.34166 0
M  V30 9735 H 923.306 -0.544999 -0.391429 0
M  V30 9736 H 925.85 -1.95071 -0.613805 0
M  V30 9737 H 924.005 -2.37505 -3.06056 0
M  V30 9738 H 924.419 -4.54427 -2.61909 0
M  V30 9739 H 925.893 -3.69323 -4.1025 0
M  V30 9740 H 926.37 -2.00842 -3.90588 0
M  V30 9741 H 926.976 -3.23127 -2.76531 0
M  V30 9742 N 925.291 0.760815 -1.38019 0
M  V30 9743 C 926.521 1.54776 -1.3685 0
M  V30 9744 C 926.929 1.89146 0.0453971 0
M  V30 9745 O 926.272 1.52746 1.0205 0
M  V30 9746 C 926.334 2.87923 -2.15269 0
M  V30 9747 C 925.998 2.76131 -3.64144 0
M  V30 9748 C 926.995 2.46417 -4.57794 0
M  V30 9749 C 924.68 2.9381 -4.07408 0
M  V30 9750 C 926.674 2.34525 -5.92686 0
M  V30 9751 C 924.361 2.81539 -5.42383 0
M  V30 9752 C 925.359 2.51938 -6.34836 0
M  V30 9753 O 925.047 2.39713 -7.67329 0
M  V30 9754 H 924.779 0.485776 -0.470104 0
M  V30 9755 H 927.333 0.949939 -1.82113 0
M  V30 9756 H 925.563 3.49867 -1.64712 0
M  V30 9757 H 927.252 3.49389 -2.06596 0
M  V30 9758 H 928.018 2.32433 -4.25676 0
M  V30 9759 H 923.897 3.15849 -3.35799 0
M  V30 9760 H 927.441 2.11342 -6.64816 0
M  V30 9761 H 923.338 2.95093 -5.741 0
M  V30 9762 H 924.106 2.5498 -7.77771 0
M  V30 9763 N 926.769 1.22769 0.988202 0
M  V30 9764 C 928.009 1.06673 1.74356 0
M  V30 9765 C 928.373 -0.390737 1.87982 0
M  V30 9766 O 929.574 -0.672677 2.60247 0
M  V30 9767 C 927.845 1.76361 3.10856 0
M  V30 9768 S 929.404 1.75738 4.02071 0
M  V30 9769 H 926.222 0.381917 0.599717 0
M  V30 9770 H 928.824 1.55784 1.18117 0
M  V30 9771 H 927.528 2.81559 2.98584 0
M  V30 9772 H 927.059 1.27501 3.72165 0
M  V30 9773 H 929.074 0.810418 4.89537 0
M  V30 9774 N 928.247 -1.18576 1.03814 0
M  V30 9775 C 929.663 -1.4051 0.756909 0
M  V30 9776 C 929.863 -1.9057 -0.654631 0
M  V30 9777 O 928.919 -2.0884 -1.41922 0
M  V30 9778 C 930.232 -2.4081 1.80087 0
M  V30 9779 C 931.78 -2.54541 1.82148 0
M  V30 9780 C 932.255 -3.58102 2.85529 0
M  V30 9781 N 933.746 -3.65607 2.84404 0
M  V30 9782 C 934.481 -4.45458 3.61047 0
M  V30 9783 N 933.977 -5.28937 4.47434 0
M  V30 9784 N 935.77 -4.40196 3.49548 0
M  V30 9785 H 927.921 -0.844075 1.94908 0
M  V30 9786 H 930.184 -0.433287 0.843188 0
M  V30 9787 H 929.89 -2.1107 2.81322 0
M  V30 9788 H 929.764 -3.4012 1.63089 0
M  V30 9789 H 932.151 -2.83598 0.815855 0
M  V30 9790 H 932.232 -1.55352 2.03223 0
M  V30 9791 H 931.876 -3.29786 3.86269 0
M  V30 9792 H 931.806 -4.56963 2.6171 0
M  V30 9793 H 934.297 -3.05994 2.21756 0
M  V30 9794 H 934.61 -5.8701 5.02632 0
M  V30 9795 H 932.955 -5.28366 4.51503 0
M  V30 9796 H 936.146 -3.74026 2.81464 0
M  V30 9797 H 936.319 -5.02186 4.09528 0
M  V30 9798 N 929.725 -0.817259 -1.34754 0
M  V30 9799 C 930.655 -0.249769 -2.3216 0
M  V30 9800 C 931.636 0.630663 -1.57977 0
M  V30 9801 O 932.821 0.558719 -1.85989 0
M  V30 9802 C 929.951 0.593825 -3.42186 0
M  V30 9803 C 928.905 -0.188997 -4.27583 0
M  V30 9804 C 928.231 0.776979 -5.29025 0
M  V30 9805 C 929.531 -1.39401 -5.03354 0
M  V30 9806 H 931.225 -1.06359 -2.79872 0
M  V30 9807 H 928.771 -0.512894 -1.34556 0
M  V30 9808 H 930.724 1.00097 -4.09339 0
M  V30 9809 H 929.448 1.44064 -2.93109 0
M  V30 9810 H 928.107 -0.577445 -3.62024 0
M  V30 9811 H 927.755 1.61959 -4.76212 0
M  V30 9812 H 927.455 0.257448 -5.87036 0
M  V30 9813 H 928.979 1.18211 -5.99048 0
M  V30 9814 H 930.393 -1.06117 -5.63393 0
M  V30 9815 H 928.79 -1.84878 -5.70912 0
M  V30 9816 H 929.86 -2.17515 -4.33377 0
M  V30 9817 N 931.203 1.46865 -0.571711 0
M  V30 9818 C 932.433 2.06518 -0.0583129 0
M  V30 9819 C 932.841 1.4227 1.24723 0
M  V30 9820 O 932.184 0.518293 1.76237 0
M  V30 9821 C 932.246 3.5898 0.193214 0
M  V30 9822 C 931.91 4.45355 -1.02507 0
M  V30 9823 C 932.907 4.82575 -1.93435 0
M  V30 9824 C 930.592 4.86656 -1.24382 0
M  V30 9825 C 932.586 5.59912 -3.04595 0
M  V30 9826 C 930.273 5.63754 -2.35849 0
M  V30 9827 C 931.271 6.00294 -3.25785 0
M  V30 9828 O 930.959 6.75836 -4.35318 0
M  V30 9829 H 930.691 0.674188 -0.0494584 0
M  V30 9830 H 933.245 1.89644 -0.788934 0
M  V30 9831 H 931.475 3.7412 0.978319 0
M  V30 9832 H 933.164 4.006 0.653769 0
M  V30 9833 H 933.93 4.51256 -1.77745 0
M  V30 9834 H 929.809 4.57672 -0.55292 0
M  V30 9835 H 933.353 5.88351 -3.74818 0
M  V30 9836 H 929.25 5.94487 -2.51506 0
M  V30 9837 H 930.018 6.94247 -4.33547 0
M  V30 9838 N 932.681 0.308908 1.54543 0
M  V30 9839 C 933.906 -0.303196 2.05172 0
M  V30 9840 C 934.331 -1.46133 1.18434 0
M  V30 9841 O 933.689 -1.803 0.190162 0
M  V30 9842 C 933.737 -0.729526 3.53143 0
M  V30 9843 O 932.841 -1.83348 3.69401 0
M  V30 9844 H 932.182 -0.0575066 0.661505 0
M  V30 9845 H 934.712 0.453055 1.99521 0
M  V30 9846 H 934.722 -1.01619 3.95143 0
M  V30 9847 H 933.397 0.117622 4.15734 0
M  V30 9848 H 931.974 -1.54676 3.39308 0
M  V30 9849 N 934.159 -1.57557 0.0367827 0
M  V30 9850 C 935.089 -2.13712 -0.940719 0
M  V30 9851 C 936.07 -1.05515 -1.33419 0
M  V30 9852 O 937.255 -1.33385 -1.41146 0
M  V30 9853 C 934.385 -2.67043 -2.22048 0
M  V30 9854 C 933.339 -3.80096 -1.96752 0
M  V30 9855 C 932.665 -4.19886 -3.31059 0
M  V30 9856 C 933.965 -5.05848 -1.30058 0
M  V30 9857 H 935.659 -2.9564 -0.473033 0
M  V30 9858 H 933.205 -1.42214 -0.226089 0
M  V30 9859 H 935.158 -3.04964 -2.90818 0
M  V30 9860 H 933.882 -1.82287 -2.70996 0
M  V30 9861 H 932.541 -3.42625 -1.30398 0
M  V30 9862 H 932.189 -3.32101 -3.77781 0
M  V30 9863 H 931.889 -4.96073 -3.14937 0
M  V30 9864 H 933.413 -4.60395 -4.01084 0
M  V30 9865 H 934.827 -5.41306 -1.8884 0
M  V30 9866 H 933.224 -5.87084 -1.24309 0
M  V30 9867 H 934.294 -4.84122 -0.274591 0
M  V30 9868 N 935.637 0.236453 -1.55816 0
M  V30 9869 C 936.862 0.98449 -1.82545 0
M  V30 9870 C 937.287 1.77755 -0.615206 0
M  V30 9871 O 936.645 1.75982 0.435895 0
M  V30 9872 C 936.693 1.88973 -3.07118 0
M  V30 9873 O 935.797 2.98298 -2.84766 0
M  V30 9874 H 935.138 0.279577 -0.602273 0
M  V30 9875 H 937.668 0.254277 -2.03014 0
M  V30 9876 H 937.678 2.3024 -3.36829 0
M  V30 9877 H 936.353 1.30671 -3.94839 0
M  V30 9878 H 934.93 2.61085 -2.6625 0
M  V30 9879 N 937.115 1.49373 0.502552 0
M  V30 9880 C 938.361 1.59016 1.25864 0
M  V30 9881 C 938.694 0.27532 1.92238 0
M  V30 9882 O 937.969 -0.720988 1.80643 0
M  V30 9883 C 938.252 2.74828 2.32683 0
M  V30 9884 C 938.105 4.16102 1.7082 0
M  V30 9885 C 939.424 2.86288 3.34256 0
M  V30 9886 H 936.543 0.578798 0.456248 0
M  V30 9887 H 939.185 1.81651 0.557032 0
M  V30 9888 H 937.335 2.5566 2.92524 0
M  V30 9889 H 939.007 4.46782 1.14818 0
M  V30 9890 H 937.25 4.21822 1.01238 0
M  V30 9891 H 937.921 4.93006 2.48292 0
M  V30 9892 H 940.397 3.03733 2.84404 0
M  V30 9893 H 939.273 3.69001 4.06362 0
M  V30 9894 H 939.534 1.95576 3.96488 0
M  V30 9895 N 938.594 -0.753485 1.38421 0
M  V30 9896 C 939.871 -1.50318 1.25155 0
M  V30 9897 C 940.251 -2.10588 -0.147003 0
M  V30 9898 O 939.599 -1.97071 -1.15651 0
M  V30 9899 C 939.809 -2.56946 2.36177 0
M  V30 9900 C 941.157 -3.23846 2.74607 0
M  V30 9901 O 942.181 -2.67251 2.3549 0
M  V30 9902 O 941.04 -4.2621 3.42064 0
M  V30 9903 H 938.134 -0.666624 0.48943 0
M  V30 9904 H 940.68 -0.788887 1.50249 0
M  V30 9905 H 939.452 -2.1066 3.29754 0
M  V30 9906 H 939.075 -3.35956 2.12648 0
M  V30 9907 N 940.072 -1.23292 -0.981677 0
M  V30 9908 C 941.02 -1.0104 -2.09508 0
M  V30 9909 C 942.014 0.0501977 -1.69326 0
M  V30 9910 O 943.22 -0.103197 -1.79704 0
M  V30 9911 H 939.595 -0.309629 -0.685298 0
M  V30 9912 H 941.566 -1.95493 -2.25444 0
M  V30 9913 C 940.315 -0.616885 -3.42184 0
M  V30 9914 H 939.638 -1.4247 -3.73554 0
M  V30 9915 H 941.078 -0.500688 -4.21033 0
M  V30 9916 C 939.537 0.674721 -3.30074 0
M  V30 9917 O 940.067 1.72421 -3.62814 0
M  V30 9918 N 938.273 0.650151 -2.83234 0
M  V30 9919 H 937.82 -0.204225 -2.56789 0
M  V30 9920 H 937.778 1.51458 -2.75514 0
M  V30 9921 N 941.55 1.18024 -1.04442 0
M  V30 9922 C 942.797 1.88098 -0.750022 0
M  V30 9923 C 943.125 1.80583 0.722489 0
M  V30 9924 O 942.38 1.20329 1.54335 0
M  V30 9925 C 942.679 3.37834 -1.16631 0
M  V30 9926 C 942.345 3.65553 -2.63974 0
M  V30 9927 C 941.007 3.72827 -3.04226 0
M  V30 9928 C 943.359 3.77634 -3.59224 0
M  V30 9929 C 940.687 3.89666 -4.38608 0
M  V30 9930 C 943.039 3.9599 -4.9333 0
M  V30 9931 C 941.703 4.01501 -5.33248 0
M  V30 9932 H 940.973 0.6883 -0.274452 0
M  V30 9933 H 943.62 1.39671 -1.31012 0
M  V30 9934 H 941.925 3.88266 -0.525071 0
M  V30 9935 H 943.622 3.90402 -0.915827 0
M  V30 9936 H 940.212 3.6051 -2.31798 0
M  V30 9937 H 944.396 3.71342 -3.2927 0
M  V30 9938 H 939.652 3.92178 -4.69048 0
M  V30 9939 H 943.826 4.0428 -5.67037 0
M  V30 9940 H 941.453 4.14301 -6.37384 0
M  V30 9941 N 943.028 0.824394 1.34319 0
M  V30 9942 C 943.976 0.235628 2.31403 0
M  V30 9943 C 944.97 -0.624443 1.57471 0
M  V30 9944 O 946.176 -0.515618 1.72457 0
M  V30 9945 H 942.551 0.0574537 0.749802 0
M  V30 9946 H 944.522 1.06925 2.78585 0
M  V30 9947 C 943.271 -0.586617 3.42716 0
M  V30 9948 H 942.594 0.0658669 3.99746 0
M  V30 9949 H 944.034 -0.964661 4.1288 0
M  V30 9950 C 942.493 -1.75957 2.87299 0
M  V30 9951 O 943.023 -2.8578 2.82299 0
M  V30 9952 N 941.229 -1.57678 2.44102 0
M  V30 9953 H 940.776 -0.683436 2.48369 0
M  V30 9954 H 940.734 -2.36311 2.07375 0
M  V30 9955 N 944.506 -1.46559 0.579492 0
M  V30 9956 C 945.416 -2.34066 -0.15816 0
M  V30 9957 C 946.432 -1.49556 -0.88932 0
M  V30 9958 O 947.608 -1.82434 -0.853226 0
M  V30 9959 C 944.673 -3.26683 -1.161 0
M  V30 9960 C 943.734 -4.27092 -0.434855 0
M  V30 9961 C 942.967 -5.15283 -1.38992 0
M  V30 9962 O 943.19 -5.06345 -2.62623 0
M  V30 9963 O 942.124 -5.95099 -0.902253 0
M  V30 9964 H 945.95 -2.98488 0.560234 0
M  V30 9965 H 943.535 -1.45482 0.339918 0
M  V30 9966 H 945.417 -3.8383 -1.73932 0
M  V30 9967 H 944.092 -2.64862 -1.86091 0
M  V30 9968 H 942.999 -3.73641 0.185224 0
M  V30 9969 H 944.332 -4.9169 0.224031 0
M  V30 9970 N 945.984 -0.3171 -1.54377 0
M  V30 9971 C 947.23 0.287836 -2.00747 0
M  V30 9972 C 947.563 1.52292 -1.20502 0
M  V30 9973 O 946.838 1.92391 -0.285626 0
M  V30 9974 C 947.121 0.628423 -3.54574 0
M  V30 9975 C 946.974 -0.616922 -4.45549 0
M  V30 9976 C 948.293 1.44862 -4.15575 0
M  V30 9977 H 945.412 0.103144 -0.729747 0
M  V30 9978 H 948.054 -0.432396 -1.85014 0
M  V30 9979 H 946.204 1.24203 -3.68111 0
M  V30 9980 H 947.876 -1.25526 -4.43893 0
M  V30 9981 H 946.119 -1.24706 -4.15489 0
M  V30 9982 H 946.79 -0.334243 -5.50987 0
M  V30 9983 H 949.266 0.930015 -4.05574 0
M  V30 9984 H 948.142 1.6557 -5.23333 0
M  V30 9985 H 948.403 2.44279 -3.68484 0
M  V30 9986 N 947.462 1.57535 -0.0451378 0
M  V30 9987 C 948.392 2.14208 0.929372 0
M  V30 9988 C 949.373 1.06221 1.32858 0
M  V30 9989 O 950.558 1.34132 1.40436 0
M  V30 9990 C 947.688 2.68217 2.20629 0
M  V30 9991 C 946.642 3.81134 1.94734 0
M  V30 9992 C 945.968 4.21636 3.28828 0
M  V30 9993 C 947.268 5.06531 1.27374 0
M  V30 9994 H 948.962 2.95886 0.457348 0
M  V30 9995 H 946.508 1.42332 0.218544 0
M  V30 9996 H 948.461 3.06502 2.89196 0
M  V30 9997 H 947.185 1.83722 2.70026 0
M  V30 9998 H 945.844 3.43312 1.28579 0
M  V30 9999 H 945.492 3.34099 3.76014 0
M  V30 10000 H 945.192 4.97736 3.12302 0
M  V30 10001 H 946.716 4.62516 3.98637 0
M  V30 10002 H 948.13 5.423 1.85967 0
M  V30 10003 H 946.527 5.87735 1.21194 0
M  V30 10004 H 947.597 4.84261 0.248913 0
M  V30 10005 N 948.94 -0.228186 1.55939 0
M  V30 10006 C 949.85 -1.30386 1.9503 0
M  V30 10007 C 950.866 -1.51645 0.853218 0
M  V30 10008 O 952.042 -1.64904 1.15623 0
M  V30 10009 C 949.107 -2.63489 2.25332 0
M  V30 10010 C 948.168 -2.5059 3.48573 0
M  V30 10011 C 947.401 -3.77345 3.7742 0
M  V30 10012 O 947.624 -4.80067 3.08045 0
M  V30 10013 O 946.558 -3.74855 4.70922 0
M  V30 10014 H 950.384 -1.0022 2.86687 0
M  V30 10015 H 947.969 -0.430503 1.43063 0
M  V30 10016 H 949.851 -3.4211 2.46046 0
M  V30 10017 H 948.526 -2.93349 1.3685 0
M  V30 10018 H 947.433 -1.70191 3.33145 0
M  V30 10019 H 948.766 -2.2567 4.37417 0
M  V30 10020 N 950.418 -1.49637 -0.494624 0
M  V30 10021 C 951.328 -1.69522 -1.62172 0
M  V30 10022 C 952.344 -0.577894 -1.64123 0
M  V30 10023 O 953.52 -0.853382 -1.82426 0
M  V30 10024 C 950.585 -1.7633 -2.9851 0
M  V30 10025 C 949.646 -2.99944 -3.07135 0
M  V30 10026 C 948.879 -3.06419 -4.36971 0
M  V30 10027 O 949.102 -2.20312 -5.26136 0
M  V30 10028 O 948.036 -3.9894 -4.507 0
M  V30 10029 H 951.862 -2.65017 -1.48324 0
M  V30 10030 H 949.447 -1.33454 -0.671603 0
M  V30 10031 H 951.329 -1.83125 -3.7953 0
M  V30 10032 H 950.004 -0.840155 -3.12607 0
M  V30 10033 H 948.911 -2.98664 -2.2528 0
M  V30 10034 H 950.244 -3.9176 -2.97968 0
M  V30 10035 N 951.896 0.746133 -1.38819 0
M  V30 10036 C 953.126 1.53316 -1.38484 0
M  V30 10037 C 953.534 1.89183 0.0253332 0
M  V30 10038 O 952.877 1.5382 1.00424 0
M  V30 10039 C 952.939 2.85623 -2.18311 0
M  V30 10040 C 952.603 2.72253 -3.67052 0
M  V30 10041 C 953.6 2.41547 -4.60381 0
M  V30 10042 C 951.285 2.89472 -4.10501 0
M  V30 10043 C 953.279 2.28226 -5.9514 0
M  V30 10044 C 950.966 2.7577 -5.45338 0
M  V30 10045 C 951.964 2.45191 -6.37472 0
M  V30 10046 O 951.652 2.31561 -7.69828 0
M  V30 10047 H 951.384 0.480763 -0.475229 0
M  V30 10048 H 953.938 0.93057 -1.83111 0
M  V30 10049 H 952.168 3.481 -1.68414 0
M  V30 10050 H 953.857 3.47178 -2.10291 0
M  V30 10051 H 954.623 2.27905 -4.28117 0
M  V30 10052 H 950.502 3.12269 -3.3913 0
M  V30 10053 H 954.046 2.04279 -6.6702 0
M  V30 10054 H 949.943 2.88987 -5.77197 0
M  V30 10055 H 950.711 2.46716 -7.80432 0
M  V30 10056 N 953.375 1.23811 0.975125 0
M  V30 10057 C 954.786 1.0675 1.53171 0
M  V30 10058 C 955.137 -0.363475 1.92804 0
M  V30 10059 O 954.262 -1.25089 1.76583 0
M  V30 10060 C 954.857 1.93161 2.78342 0
M  V30 10061 C 953.416 1.80346 3.30382 0
M  V30 10062 C 952.563 1.88544 2.03338 0
M  V30 10063 H 955.514 1.37396 0.79423 0
M  V30 10064 H 955.535 1.45951 3.51395 0
M  V30 10065 H 955.047 2.97302 2.49465 0
M  V30 10066 H 953.148 0.790077 3.64127 0
M  V30 10067 H 953.261 2.64026 3.99784 0
M  V30 10068 H 951.625 1.32186 2.17713 0
M  V30 10069 H 952.408 2.94252 1.76836 0
M  V30 10070 N 954.853 -1.17469 1.05066 0
M  V30 10071 C 955.786 -2.2031 0.594863 0
M  V30 10072 C 956.764 -1.58196 -0.375878 0
M  V30 10073 O 957.948 -1.8629 -0.287798 0
M  V30 10074 C 955.075 -3.38452 -0.129614 0
M  V30 10075 C 954.121 -4.19007 0.795943 0
M  V30 10076 S 954.954 -4.8433 2.28441 0
M  V30 10077 C 956.11 -6.05862 1.57107 0
M  V30 10078 H 956.343 -2.58632 1.46618 0
M  V30 10079 H 953.876 -1.28063 0.862511 0
M  V30 10080 H 955.834 -4.06914 -0.541416 0
M  V30 10081 H 954.495 -2.98521 -0.976948 0
M  V30 10082 H 953.688 -5.0345 0.235396 0
M  V30 10083 H 953.29 -3.55976 1.14705 0
M  V30 10084 H 955.582 -6.71895 0.86969 0
M  V30 10085 H 956.525 -6.66442 2.39292 0
M  V30 10086 H 956.933 -5.54477 1.05903 0
M  V30 10087 N 956.331 -0.831506 -1.3388 0
M  V30 10088 C 957.264 -0.2046 -2.27281 0
M  V30 10089 C 958.242 0.643992 -1.49303 0
M  V30 10090 O 959.426 0.605863 -1.78498 0
M  V30 10091 C 956.553 0.713409 -3.31101 0
M  V30 10092 C 955.599 -0.0587654 -4.2646 0
M  V30 10093 S 956.432 -1.41172 -5.16557 0
M  V30 10094 C 957.588 -0.498807 -6.23909 0
M  V30 10095 H 957.821 -0.996442 -2.80104 0
M  V30 10096 H 955.354 -0.62786 -1.41058 0
M  V30 10097 H 957.312 1.23748 -3.91403 0
M  V30 10098 H 955.973 1.47885 -2.77108 0
M  V30 10099 H 955.166 0.639466 -4.99927 0
M  V30 10100 H 954.768 -0.513665 -3.70456 0
M  V30 10101 H 957.06 0.306268 -6.76807 0
M  V30 10102 H 958.003 -1.20342 -6.97799 0
M  V30 10103 H 958.411 -0.0834242 -5.64438 0
M  V30 10104 N 957.809 1.4625 -0.587256 0
M  V30 10105 C 959.225 1.57641 -0.249284 0
M  V30 10106 C 959.425 1.58169 1.24839 0
M  V30 10107 O 958.481 1.50109 2.03036 0
M  V30 10108 C 959.794 2.86837 -0.902509 0
M  V30 10109 C 961.342 3.00476 -0.876524 0
M  V30 10110 C 961.817 4.32414 -1.50938 0
M  V30 10111 N 963.308 4.39124 -1.47392 0
M  V30 10112 C 964.043 5.39838 -1.93293 0
M  V30 10113 N 963.539 6.47202 -2.47188 0
M  V30 10114 N 965.332 5.31068 -1.84183 0
M  V30 10115 H 957.483 1.44151 -1.55994 0
M  V30 10116 H 959.746 0.687905 -0.652297 0
M  V30 10117 H 959.452 2.92274 -1.95624 0
M  V30 10118 H 959.326 3.74927 -0.413466 0
M  V30 10119 H 961.713 2.94618 0.168601 0
M  V30 10120 H 961.794 2.1385 -1.40363 0
M  V30 10121 H 961.438 4.3903 -2.55372 0
M  V30 10122 H 961.368 5.17823 -0.957455 0
M  V30 10123 H 963.859 3.62138 -1.08002 0
M  V30 10124 H 964.172 7.20269 -2.80058 0
M  V30 10125 H 962.517 6.48009 -2.51216 0
M  V30 10126 H 965.708 4.46095 -1.41833 0
M  V30 10127 H 965.881 6.09414 -2.2027 0
M  V30 10128 N 959.287 0.325282 1.54207 0
M  V30 10129 C 960.703 -0.0273036 1.59577 0
M  V30 10130 C 960.903 -1.50329 1.34177 0
M  V30 10131 O 959.959 -2.25951 1.12705 0
M  V30 10132 C 961.272 0.392468 2.98128 0
M  V30 10133 C 962.82 0.343269 3.11112 0
M  V30 10134 C 963.295 0.738229 4.52011 0
M  V30 10135 N 964.786 0.691701 4.58006 0
M  V30 10136 C 965.521 0.969479 5.65145 0
M  V30 10137 N 965.017 1.31448 6.80216 0
M  V30 10138 N 966.81 0.894926 5.5493 0
M  V30 10139 H 958.961 1.28692 1.68974 0
M  V30 10140 H 961.224 0.523399 0.790416 0
M  V30 10141 H 960.93 1.42089 3.2172 0
M  V30 10142 H 960.804 -0.241651 3.76425 0
M  V30 10143 H 963.191 -0.675946 2.87254 0
M  V30 10144 H 963.272 1.01235 2.34915 0
M  V30 10145 H 962.916 1.75537 4.76602 0
M  V30 10146 H 962.846 0.0468226 5.26579 0
M  V30 10147 H 965.337 0.436975 3.75365 0
M  V30 10148 H 965.65 1.51177 7.57869 0
M  V30 10149 H 963.995 1.35276 6.81708 0
M  V30 10150 H 967.186 0.624876 4.6391 0
M  V30 10151 H 967.359 1.11476 6.38339 0
M  V30 10152 N 960.765 -1.57509 0.0534917 0
M  V30 10153 C 961.728 -2.10563 -0.905307 0
M  V30 10154 C 962.728 -1.02571 -1.23838 0
M  V30 10155 O 963.918 -1.28635 -1.17468 0
M  V30 10156 C 961.05 -2.5918 -2.21447 0
M  V30 10157 H 962.243 -2.96575 -0.445354 0
M  V30 10158 H 959.796 -1.55079 -0.194947 0
M  V30 10159 H 960.531 -1.76568 -2.72019 0
M  V30 10160 H 960.316 -3.38098 -1.98575 0
M  V30 10161 H 961.806 -3.00365 -2.90122 0
M  V30 10162 N 962.243 0.219913 -1.56058 0
M  V30 10163 C 963.49 0.944064 -1.79147 0
M  V30 10164 C 963.818 1.84268 -0.622531 0
M  V30 10165 O 963.073 1.91713 0.393013 0
M  V30 10166 C 963.372 1.81293 -3.08006 0
M  V30 10167 C 963.038 1.0674 -4.38084 0
M  V30 10168 C 961.7 0.86147 -4.73426 0
M  V30 10169 C 964.052 0.541049 -5.18384 0
M  V30 10170 C 961.38 0.117307 -5.86583 0
M  V30 10171 C 963.732 -0.189779 -6.32315 0
M  V30 10172 C 962.396 -0.406951 -6.66258 0
M  V30 10173 H 961.666 0.345458 -0.655546 0
M  V30 10174 H 964.313 0.212121 -1.90322 0
M  V30 10175 H 962.618 2.61278 -2.9196 0
M  V30 10176 H 964.315 2.3754 -3.23072 0
M  V30 10177 H 960.905 1.23789 -4.10334 0
M  V30 10178 H 965.089 0.687617 -4.91514 0
M  V30 10179 H 960.345 -0.0611651 -6.11369 0
M  V30 10180 H 964.519 -0.605134 -6.93766 0
M  V30 10181 H 962.146 -0.985511 -7.53785 0
M  V30 10182 N 963.721 1.49897 0.486681 0
M  V30 10183 C 964.631 1.70379 1.6127 0
M  V30 10184 C 965.647 0.58659 1.63814 0
M  V30 10185 O 966.823 0.863044 1.81971 0
M  V30 10186 C 963.888 1.77911 2.97571 0
M  V30 10187 C 962.949 3.01569 3.0554 0
M  V30 10188 C 962.182 3.08732 4.35339 0
M  V30 10189 O 962.405 2.23099 5.2496 0
M  V30 10190 O 961.339 4.01325 4.48578 0
M  V30 10191 H 965.165 2.65799 1.46916 0
M  V30 10192 H 962.75 1.33808 0.664516 0
M  V30 10193 H 964.632 1.85135 3.78554 0
M  V30 10194 H 963.307 0.856722 3.12157 0
M  V30 10195 H 962.214 2.99854 2.23693 0
M  V30 10196 H 963.547 3.93335 2.95886 0
M  V30 10197 N 965.199 -0.738761 1.39212 0
M  V30 10198 C 966.427 -1.52801 1.39497 0
M  V30 10199 C 966.842 -1.88797 -0.0114917 0
M  V30 10200 O 966.199 -1.53835 -0.981887 0
M  V30 10201 C 966.25 -2.81793 2.2644 0
M  V30 10202 O 965.971 -2.47328 3.61608 0
M  V30 10203 C 967.472 -3.75844 2.35067 0
M  V30 10204 H 964.692 -0.472322 0.476606 0
M  V30 10205 H 967.236 -0.913153 1.8298 0
M  V30 10206 H 965.391 -3.3962 1.8638 0
M  V30 10207 H 965.805 -3.30162 4.07545 0
M  V30 10208 H 967.279 -4.6326 3.00157 0
M  V30 10209 H 967.756 -4.17329 1.3687 0
M  V30 10210 H 968.362 -3.23937 2.75581 0
M  V30 10211 N 966.677 -1.24326 -0.968545 0
M  V30 10212 C 967.923 -1.08406 -1.71394 0
M  V30 10213 C 968.256 0.376353 -1.90518 0
M  V30 10214 O 967.531 1.27816 -1.46606 0
M  V30 10215 C 967.814 -1.82344 -3.1052 0
M  V30 10216 C 967.667 -3.3613 -2.98893 0
M  V30 10217 C 968.986 -1.59545 -4.10163 0
M  V30 10218 H 966.105 -0.395205 -0.622079 0
M  V30 10219 H 968.747 -1.52983 -1.12677 0
M  V30 10220 H 966.897 -1.44452 -3.60646 0
M  V30 10221 H 968.569 -3.83614 -2.56199 0
M  V30 10222 H 966.812 -3.64553 -2.35124 0
M  V30 10223 H 967.483 -3.83064 -3.97449 0
M  V30 10224 H 969.959 -1.92504 -3.68892 0
M  V30 10225 H 968.835 -2.13736 -5.05577 0
M  V30 10226 H 969.096 -0.533503 -4.38869 0
M  V30 10227 N 968.156 1.1691 -1.05688 0
M  V30 10228 C 969.119 2.19297 -0.666433 0
M  V30 10229 C 970.119 1.5826 0.284674 0
M  V30 10230 O 971.309 1.74068 0.0678757 0
M  V30 10231 C 968.441 3.40894 0.0203656 0
M  V30 10232 H 969.634 2.55354 -1.57272 0
M  V30 10233 H 967.187 1.31078 -0.851359 0
M  V30 10234 H 967.922 3.10388 0.939686 0
M  V30 10235 H 967.707 3.86446 -0.663464 0
M  V30 10236 H 969.197 4.16664 0.279475 0
M  V30 10237 N 969.634 0.838594 1.33437 0
M  V30 10238 C 970.883 0.430484 1.97053 0
M  V30 10239 C 971.196 -1.01556 1.6717 0
M  V30 10240 O 972.402 -1.52834 2.24397 0
M  V30 10241 C 970.858 0.718828 3.52648 0
M  V30 10242 C 970.466 2.17953 3.91408 0
M  V30 10243 C 972.21 0.377654 4.22817 0
M  V30 10244 C 970.117 2.41194 5.39981 0
M  V30 10245 H 969.047 0.157239 0.737422 0
M  V30 10246 H 971.698 1.02714 1.5206 0
M  V30 10247 H 970.08 0.0518042 3.95966 0
M  V30 10248 H 971.254 2.88701 3.59149 0
M  V30 10249 H 969.569 2.48366 3.34221 0
M  V30 10250 H 972.166 0.528926 5.32077 0
M  V30 10251 H 972.509 -0.679338 4.1072 0
M  V30 10252 H 973.042 0.999899 3.85028 0
M  V30 10253 H 969.781 3.45457 5.57081 0
M  V30 10254 H 969.301 1.75007 5.73701 0
M  V30 10255 H 970.98 2.24334 6.06863 0
M  V30 10256 N 971.112 -1.45937 0.595003 0
M  V30 10257 C 972.389 -1.95592 0.0178748 0
M  V30 10258 C 972.769 -1.53758 -1.44643 0
M  V30 10259 O 972.117 -0.794104 -2.14257 0
M  V30 10260 C 972.327 -3.4841 0.202789 0
M  V30 10261 C 973.675 -4.2453 0.0770121 0
M  V30 10262 O 974.699 -3.55954 0.132257 0
M  V30 10263 O 973.558 -5.46479 -0.0484271 0
M  V30 10264 H 970.652 -0.825888 -0.0428702 0
M  V30 10265 H 973.198 -1.56162 0.664184 0
M  V30 10266 H 971.97 -3.71787 1.22027 0
M  V30 10267 H 971.593 -3.947 -0.479376 0
M  V30 10268 N 972.59 -0.333456 -1.54032 0
M  V30 10269 C 974.006 0.0188405 -1.59589 0
M  V30 10270 C 974.206 1.49615 -1.34972 0
M  V30 10271 O 973.262 2.2535 -1.13901 0
M  V30 10272 C 974.575 -0.408273 -2.97915 0
M  V30 10273 C 976.123 -0.359763 -3.10926 0
M  V30 10274 C 976.598 -0.76219 -4.51613 0
M  V30 10275 N 978.089 -0.715981 -4.57633 0
M  V30 10276 C 978.824 -0.999436 -5.64623 0
M  V30 10277 N 978.32 -1.35053 -6.79509 0
M  V30 10278 N 980.113 -0.924343 -5.54448 0
M  V30 10279 H 972.264 -1.29587 -1.68289 0
M  V30 10280 H 974.527 -0.527584 -0.787629 0
M  V30 10281 H 974.233 -1.43793 -3.20962 0
M  V30 10282 H 974.107 0.221685 -3.76548 0
M  V30 10283 H 976.494 0.660703 -2.87609 0
M  V30 10284 H 976.575 -1.02479 -2.34375 0
M  V30 10285 H 976.219 -1.78062 -4.75664 0
M  V30 10286 H 976.149 -0.0747478 -5.26547 0
M  V30 10287 H 978.64 -0.456875 -3.75128 0
M  V30 10288 H 978.953 -1.55194 -7.57057 0
M  V30 10289 H 977.298 -1.38889 -6.80981 0
M  V30 10290 H 980.489 -0.649469 -4.63573 0
M  V30 10291 H 980.662 -1.1486 -6.37739 0
M  V30 10292 N 974.068 1.57479 -0.061844 0
M  V30 10293 C 974.998 2.15181 0.9066 0
M  V30 10294 C 975.979 1.07624 1.31724 0
M  V30 10295 O 977.164 1.35614 1.39006 0
M  V30 10296 C 974.294 2.70542 2.17771 0
M  V30 10297 C 973.248 3.83178 1.9068 0
M  V30 10298 C 972.574 4.25099 3.24337 0
M  V30 10299 C 973.874 5.07853 1.21994 0
M  V30 10300 H 975.568 2.96355 0.42594 0
M  V30 10301 H 973.114 1.42556 0.203435 0
M  V30 10302 H 975.067 3.09552 2.85929 0
M  V30 10303 H 973.791 1.86575 2.68062 0
M  V30 10304 H 972.45 3.44656 1.24931 0
M  V30 10305 H 972.098 3.38069 3.72449 0
M  V30 10306 H 971.798 5.01021 3.07005 0
M  V30 10307 H 973.322 4.66718 3.93709 0
M  V30 10308 H 974.736 5.44242 1.80204 0
M  V30 10309 H 973.133 5.88987 1.14954 0
M  V30 10310 H 974.203 4.84497 0.197536 0
M  V30 10311 N 975.546 -0.211634 1.56173 0
M  V30 10312 C 976.823 -0.959467 1.70451 0
M  V30 10313 C 977.203 -2.02036 0.611942 0
M  V30 10314 O 976.551 -2.25325 -0.37959 0
M  V30 10315 C 976.761 -1.56092 3.12148 0
M  V30 10316 C 978.109 -2.04939 3.71867 0
M  V30 10317 O 979.133 -1.65966 3.15172 0
M  V30 10318 O 977.992 -2.766 4.71333 0
M  V30 10319 H 975.086 -0.448844 0.6946 0
M  V30 10320 H 977.632 -0.202633 1.68486 0
M  V30 10321 H 976.404 -0.79538 3.83131 0
M  V30 10322 H 976.027 -2.38303 3.18273 0
M  V30 10323 N 977.024 -1.50153 -0.478725 0
M  V30 10324 C 978.44 -1.3741 -0.811833 0
M  V30 10325 C 978.64 -0.424303 -1.96982 0
M  V30 10326 O 977.696 0.13588 -2.52134 0
M  V30 10327 C 979.009 -2.78616 -1.13108 0
M  V30 10328 C 980.557 -2.87477 -1.23798 0
M  V30 10329 C 981.032 -4.295 -1.5904 0
M  V30 10330 N 982.523 -4.32415 -1.66047 0
M  V30 10331 C 983.258 -5.39295 -1.94805 0
M  V30 10332 N 982.754 -6.56392 -2.21635 0
M  V30 10333 N 984.547 -5.26731 -1.96243 0
M  V30 10334 H 976.698 -2.10486 0.284531 0
M  V30 10335 H 978.961 -0.945786 0.0647585 0
M  V30 10336 H 978.667 -3.49921 -0.35334 0
M  V30 10337 H 978.541 -3.15382 -2.06915 0
M  V30 10338 H 980.928 -2.16396 -2.00641 0
M  V30 10339 H 981.009 -2.54264 -0.279888 0
M  V30 10340 H 980.653 -5.01115 -0.827404 0
M  V30 10341 H 980.583 -4.60194 -2.55987 0
M  V30 10342 H 983.074 -3.47975 -1.47383 0
M  V30 10343 H 983.387 -7.33658 -2.4283 0
M  V30 10344 H 981.732 -6.59579 -2.19043 0
M  V30 10345 H 984.923 -4.34249 -1.74773 0
M  V30 10346 H 985.096 -6.10115 -2.1832 0
M  V30 10347 N 978.502 0.731368 -1.39602 0
M  V30 10348 C 979.751 1.48647 -1.36334 0
M  V30 10349 C 980.064 1.95565 0.0367383 0
M  V30 10350 O 981.27 2.7082 0.192017 0
M  V30 10351 C 979.726 2.68616 -2.39528 0
M  V30 10352 C 979.334 2.28632 -3.85268 0
M  V30 10353 C 981.078 3.46422 -2.45341 0
M  V30 10354 C 978.985 3.45345 -4.80095 0
M  V30 10355 H 977.915 0.558218 -0.506861 0
M  V30 10356 H 980.566 0.797467 -1.65266 0
M  V30 10357 H 978.948 3.39609 -2.03671 0
M  V30 10358 H 980.122 1.65162 -4.30184 0
M  V30 10359 H 978.437 1.63909 -3.82783 0
M  V30 10360 H 981.034 4.33241 -3.13379 0
M  V30 10361 H 981.377 3.8914 -1.47904 0
M  V30 10362 H 981.91 2.82461 -2.80108 0
M  V30 10363 H 978.649 3.07674 -5.78807 0
M  V30 10364 H 978.169 4.07784 -4.39855 0
M  V30 10365 H 979.848 4.1163 -4.99169 0
M  V30 10366 N 979.98 1.24838 0.961938 0
M  V30 10367 C 981.228 1.08936 1.70227 0
M  V30 10368 C 981.549 -0.371582 1.91427 0
M  V30 10369 O 980.819 -1.26461 1.49614 0
M  V30 10370 H 979.399 0.400128 0.630799 0
M  V30 10371 H 982.061 1.56848 1.15692 0
M  V30 10372 H 981.157 1.59195 2.68446 0
M  V30 10373 N 981.458 -1.16348 1.06306 0
M  V30 10374 C 982.405 -2.20741 0.673962 0
M  V30 10375 C 983.375 -1.628 -0.329454 0
M  V30 10376 O 984.56 -1.89547 -0.218313 0
M  V30 10377 C 981.7 -3.45036 0.0667008 0
M  V30 10378 C 980.813 -4.17221 1.12031 0
M  V30 10379 C 979.948 -5.29034 0.479176 0
M  V30 10380 C 978.987 -5.93021 1.51631 0
M  V30 10381 N 978.124 -6.96327 0.898528 0
M  V30 10382 H 982.964 -2.53376 1.56859 0
M  V30 10383 H 980.501 -1.24449 0.784276 0
M  V30 10384 H 982.459 -4.16099 -0.302916 0
M  V30 10385 H 981.089 -3.1295 -0.791333 0
M  V30 10386 H 980.141 -3.4476 1.60763 0
M  V30 10387 H 981.453 -4.60902 1.90712 0
M  V30 10388 H 980.607 -6.06674 0.0565993 0
M  V30 10389 H 979.346 -4.86517 -0.33951 0
M  V30 10390 H 978.351 -5.14104 1.94878 0
M  V30 10391 H 979.576 -6.37618 2.3371 0
M  V30 10392 H 977.522 -6.55923 0.100555 0
M  V30 10393 H 977.439 -7.38379 1.62272 0
M  V30 10394 H 978.707 -7.77888 0.5011 0
M  V30 10395 N 982.937 -0.845659 -1.3299 0
M  V30 10396 C 983.884 -0.281761 -2.29074 0
M  V30 10397 C 984.854 0.606237 -1.54641 0
M  V30 10398 O 986.039 0.543063 -1.82908 0
M  V30 10399 C 983.179 0.531451 -3.40983 0
M  V30 10400 C 982.292 -0.381328 -4.30314 0
M  V30 10401 C 981.427 0.443643 -5.29344 0
M  V30 10402 C 980.466 -0.467101 -6.10315 0
M  V30 10403 N 979.603 0.320148 -7.0137 0
M  V30 10404 H 984.443 -1.10641 -2.76699 0
M  V30 10405 H 981.98 -0.55706 -1.36144 0
M  V30 10406 H 983.938 1.01848 -4.04577 0
M  V30 10407 H 982.568 1.32101 -2.94532 0
M  V30 10408 H 981.62 -0.986701 -3.6738 0
M  V30 10409 H 982.932 -1.08067 -4.86953 0
M  V30 10410 H 982.086 0.994212 -5.98498 0
M  V30 10411 H 980.825 1.17639 -4.73299 0
M  V30 10412 H 979.83 -1.02963 -5.40073 0
M  V30 10413 H 981.055 -1.19832 -6.68444 0
M  V30 10414 H 979.001 1.03615 -6.47765 0
M  V30 10415 H 978.918 -0.320338 -7.55321 0
M  V30 10416 H 980.186 0.852735 -7.74822 0
M  V30 10417 N 984.415 1.45619 -0.602734 0
M  V30 10418 C 985.363 2.32228 0.131484 0
M  V30 10419 C 986.357 1.45681 0.864484 0
M  V30 10420 O 987.563 1.62193 0.7806 0
M  V30 10421 H 983.938 0.7495 0.0612638 0
M  V30 10422 H 985.909 2.91941 -0.617496 0
M  V30 10423 C 984.658 3.29213 1.11866 0
M  V30 10424 H 983.981 3.95801 0.564061 0
M  V30 10425 H 985.421 3.92554 1.60242 0
M  V30 10426 C 983.88 2.56028 2.18978 0
M  V30 10427 O 984.41 2.33806 3.26646 0
M  V30 10428 N 982.616 2.16245 1.94129 0
M  V30 10429 H 982.163 2.34518 1.06579 0
M  V30 10430 H 982.121 1.67601 2.66003 0
M  V30 10431 N 985.893 0.34162 1.53853 0
M  V30 10432 C 987.118 -0.259608 2.05769 0
M  V30 10433 C 987.543 -1.43588 1.21507 0
M  V30 10434 O 986.901 -1.79856 0.228364 0
M  V30 10435 C 986.949 -0.654455 3.54611 0
M  V30 10436 O 986.053 -1.75472 3.73207 0
M  V30 10437 H 985.394 -0.0434621 0.662576 0
M  V30 10438 H 987.924 0.495274 1.98515 0
M  V30 10439 H 987.934 -0.932142 3.97209 0
M  V30 10440 H 986.609 0.205779 4.15391 0
M  V30 10441 H 985.186 -1.47444 3.42512 0
M  V30 10442 N 987.371 -1.57444 0.0701946 0
M  V30 10443 C 988.62 -1.92605 -0.598849 0
M  V30 10444 C 988.933 -0.952058 -1.70866 0
M  V30 10445 O 990.139 -1.19643 -2.43716 0
M  V30 10446 C 988.595 -3.42142 -1.11655 0
M  V30 10447 C 988.203 -4.47984 -0.0378355 0
M  V30 10448 C 989.947 -3.86307 -1.75975 0
M  V30 10449 C 987.854 -5.88652 -0.569495 0
M  V30 10450 H 986.784 -0.718873 -0.22746 0
M  V30 10451 H 989.435 -1.82948 0.14217 0
M  V30 10452 H 987.817 -3.46866 -1.91049 0
M  V30 10453 H 988.991 -4.54874 0.736661 0
M  V30 10454 H 987.306 -4.13277 0.50904 0
M  V30 10455 H 989.903 -4.88784 -2.16782 0
M  V30 10456 H 990.246 -3.23587 -2.61911 0
M  V30 10457 H 990.779 -3.84179 -1.03206 0
M  V30 10458 H 987.518 -6.55013 0.252662 0
M  V30 10459 H 987.038 -5.85285 -1.31155 0
M  V30 10460 H 988.717 -6.38482 -1.04641 0
M  V30 10461 N 988.849 0.203349 -1.56283 0
M  V30 10462 C 989.779 1.2549 -1.96912 0
M  V30 10463 C 990.76 1.47919 -0.839884 0
M  V30 10464 O 991.945 1.59795 -1.10359 0
M  V30 10465 C 989.075 2.6009 -2.30153 0
M  V30 10466 C 988.029 2.52289 -3.45738 0
M  V30 10467 C 987.355 3.91086 -3.64632 0
M  V30 10468 C 988.655 2.05503 -4.80173 0
M  V30 10469 H 990.349 0.917306 -2.85002 0
M  V30 10470 H 987.895 0.439818 -1.37119 0
M  V30 10471 H 989.848 3.33829 -2.5717 0
M  V30 10472 H 988.572 2.95574 -1.38937 0
M  V30 10473 H 987.231 1.81006 -3.18798 0
M  V30 10474 H 986.879 4.23908 -2.7076 0
M  V30 10475 H 986.579 3.86742 -4.42385 0
M  V30 10476 H 988.103 4.66459 -3.94016 0
M  V30 10477 H 989.517 2.68995 -5.06275 0
M  V30 10478 H 987.914 2.1218 -5.61337 0
M  V30 10479 H 988.984 1.00793 -4.74309 0
M  V30 10480 N 990.327 1.50405 0.470755 0
M  V30 10481 C 991.257 1.72222 1.57676 0
M  V30 10482 C 992.238 0.57121 1.60222 0
M  V30 10483 O 993.423 0.810381 1.76484 0
M  V30 10484 C 990.553 1.81666 2.95998 0
M  V30 10485 C 989.507 2.96857 3.08318 0
M  V30 10486 C 988.833 2.91445 4.4829 0
M  V30 10487 C 990.133 4.37361 2.85504 0
M  V30 10488 H 991.827 2.64825 1.39671 0
M  V30 10489 H 989.373 1.27438 0.67049 0
M  V30 10490 H 991.326 1.95514 3.73299 0
M  V30 10491 H 990.05 0.856856 3.1516 0
M  V30 10492 H 988.709 2.82661 2.33449 0
M  V30 10493 H 988.357 1.93309 4.64371 0
M  V30 10494 H 988.057 3.68776 4.57469 0
M  V30 10495 H 989.581 3.07341 5.27611 0
M  V30 10496 H 990.995 4.52081 3.52555 0
M  V30 10497 H 989.392 5.16145 3.06127 0
M  V30 10498 H 990.462 4.49708 1.81359 0
M  V30 10499 N 991.805 -0.723954 1.39988 0
M  V30 10500 C 992.755 -1.82943 1.36073 0
M  V30 10501 C 993.739 -1.59105 0.239682 0
M  V30 10502 O 994.931 -1.7042 0.478116 0
M  V30 10503 C 992.06 -3.20988 1.21745 0
M  V30 10504 C 991.146 -3.50618 2.38596 0
M  V30 10505 N 991.537 -3.51115 3.64077 0
M  V30 10506 C 989.835 -3.81035 2.31794 0
M  V30 10507 C 990.536 -3.78852 4.41413 0
M  V30 10508 N 989.512 -3.97182 3.71143 0
M  V30 10509 H 993.314 -1.81649 2.31043 0
M  V30 10510 H 990.828 -0.922703 1.33641 0
M  V30 10511 H 992.825 -4.00139 1.17022 0
M  V30 10512 H 991.485 -3.23513 0.277344 0
M  V30 10513 H 992.496 -3.32163 3.97351 0
M  V30 10514 H 989.173 -3.911 1.46105 0
M  V30 10515 H 990.563 -3.85612 5.5023 0
M  V30 10516 N 993.283 -1.25346 -0.955304 0
M  V30 10517 C 994.23 -1.05672 -2.05188 0
M  V30 10518 C 995.2 0.0339217 -1.66065 0
M  V30 10519 O 996.385 -0.123126 -1.90402 0
M  V30 10520 C 993.525 -0.680791 -3.38318 0
M  V30 10521 C 992.638 -1.84622 -3.90562 0
M  V30 10522 C 991.773 -1.41471 -5.12015 0
M  V30 10523 C 990.812 -2.54931 -5.56486 0
M  V30 10524 N 989.949 -2.1256 -6.69151 0
M  V30 10525 H 994.789 -1.9952 -2.2135 0
M  V30 10526 H 992.326 -0.993588 -1.08472 0
M  V30 10527 H 994.284 -0.443794 -4.14833 0
M  V30 10528 H 992.914 0.2207 -3.22045 0
M  V30 10529 H 991.966 -2.19654 -3.10574 0
M  V30 10530 H 993.278 -2.6983 -4.19515 0
M  V30 10531 H 992.432 -1.13732 -5.95945 0
M  V30 10532 H 991.171 -0.533334 -4.84775 0
M  V30 10533 H 990.176 -2.83415 -4.71122 0
M  V30 10534 H 991.401 -3.43645 -5.85734 0
M  V30 10535 H 989.347 -1.26838 -6.43621 0
M  V30 10536 H 989.264 -2.91317 -6.97618 0
M  V30 10537 H 990.532 -1.87996 -7.5649 0
M  V30 10538 N 994.761 1.15782 -1.06922 0
M  V30 10539 C 996.007 1.86741 -0.790922 0
M  V30 10540 C 996.34 1.81863 0.681149 0
M  V30 10541 O 995.615 1.23871 1.49954 0
M  V30 10542 C 995.898 3.36038 -1.29422 0
M  V30 10543 C 995.751 3.49573 -2.83052 0
M  V30 10544 C 997.07 4.30647 -0.907239 0
M  V30 10545 H 994.189 0.678064 -0.288787 0
M  V30 10546 H 996.831 1.36054 -1.32624 0
M  V30 10547 H 994.981 3.79336 -0.838843 0
M  V30 10548 H 996.653 3.1517 -3.36847 0
M  V30 10549 H 994.896 2.91275 -3.21467 0
M  V30 10550 H 995.567 4.5445 -3.13335 0
M  V30 10551 H 998.043 3.95286 -1.29956 0
M  V30 10552 H 996.919 5.33604 -1.28679 0
M  V30 10553 H 997.18 4.41703 0.187251 0
M  V30 10554 N 996.239 0.8527 1.3254 0
M  V30 10555 C 997.171 0.253181 2.27797 0
M  V30 10556 C 998.184 -0.573977 1.52346 0
M  V30 10557 O 999.373 -0.398786 1.73988 0
M  V30 10558 C 996.473 -0.661034 3.32391 0
M  V30 10559 C 995.646 0.12984 4.37207 0
M  V30 10560 C 994.705 -0.709837 5.2139 0
M  V30 10561 O 993.731 -0.144056 5.69018 0
M  V30 10562 N 994.933 -2.0249 5.44039 0
M  V30 10563 H 997.698 1.07171 2.79883 0
M  V30 10564 H 995.259 0.712491 1.45379 0
M  V30 10565 H 997.251 -1.22806 3.85617 0
M  V30 10566 H 995.821 -1.38025 2.80478 0
M  V30 10567 H 995.041 0.878289 3.84291 0
M  V30 10568 H 996.329 0.673141 5.04328 0
M  V30 10569 H 995.727 -2.50792 5.0707 0
M  V30 10570 H 994.284 -2.5401 6.00269 0
M  V30 10571 N 997.718 -1.45297 0.610449 0
M  V30 10572 C 998.668 -2.27639 -0.128194 0
M  V30 10573 C 999.652 -1.37485 -0.835861 0
M  V30 10574 O 1000.84 -1.61454 -0.725378 0
M  V30 10575 C 997.973 -3.24413 -1.123 0
M  V30 10576 C 997.059 -4.22055 -0.416029 0
M  V30 10577 N 997.45 -5.02867 0.543921 0
M  V30 10578 C 995.748 -4.41041 -0.663208 0
M  V30 10579 C 996.449 -5.73728 0.959731 0
M  V30 10580 N 995.425 -5.42756 0.302873 0
M  V30 10581 H 999.227 -2.8752 0.609056 0
M  V30 10582 H 996.741 -1.56484 0.434338 0
M  V30 10583 H 998.738 -3.82139 -1.6666 0
M  V30 10584 H 997.398 -2.66092 -1.86078 0
M  V30 10585 H 998.409 -5.09649 0.920799 0
M  V30 10586 H 995.086 -3.93842 -1.38544 0
M  V30 10587 H 996.476 -6.48666 1.75163 0
M  V30 10588 N 999.196 -0.349774 -1.5367 0
M  V30 10589 C 1000.47 0.300419 -1.93279 0
M  V30 10590 C 1000.85 1.67721 -1.28191 0
M  V30 10591 O 1000.2 2.24319 -0.435127 0
M  V30 10592 C 1000.41 0.366466 -3.47071 0
M  V30 10593 C 1001.76 0.614349 -4.20132 0
M  V30 10594 O 1002.78 0.448327 -3.53367 0
M  V30 10595 O 1001.64 0.936421 -5.38417 0
M  V30 10596 H 998.736 0.176599 -0.807924 0
M  V30 10597 H 1001.28 -0.401405 -1.64884 0
M  V30 10598 H 1000.05 -0.599455 -3.86681 0
M  V30 10599 H 999.677 1.11482 -3.81651 0
M  V30 10600 N 1000.67 1.57404 -0.0785433 0
M  V30 10601 C 1001.6 2.16131 0.883726 0
M  V30 10602 C 1002.58 1.09015 1.30575 0
M  V30 10603 O 1003.77 1.3708 1.37559 0
M  V30 10604 C 1000.9 2.72836 2.1489 0
M  V30 10605 C 999.854 3.85178 1.86605 0
M  V30 10606 C 999.18 4.28516 3.1981 0
M  V30 10607 C 1000.48 5.09118 1.16601 0
M  V30 10608 H 1002.17 2.9679 0.394484 0
M  V30 10609 H 999.72 1.42763 0.188304 0
M  V30 10610 H 1001.67 3.12567 2.8263 0
M  V30 10611 H 1000.4 1.89408 2.66068 0
M  V30 10612 H 999.056 3.45962 1.21268 0
M  V30 10613 H 998.704 3.42 3.68843 0
M  V30 10614 H 998.404 5.04249 3.01674 0
M  V30 10615 H 999.928 4.70868 3.88737 0
M  V30 10616 H 1001.34 5.46123 1.74422 0
M  V30 10617 H 999.739 5.90173 1.087 0
M  V30 10618 H 1000.81 4.8468 0.146138 0
M  V30 10619 N 1002.15 -0.195058 1.56388 0
M  V30 10620 C 1003.1 -1.26122 1.95438 0
M  V30 10621 C 1004.09 -1.47117 0.839818 0
M  V30 10622 O 1005.3 -1.47978 1.02482 0
M  V30 10623 H 1001.67 -0.423422 0.621464 0
M  V30 10624 H 1003.65 -0.904854 2.8435 0
M  V30 10625 C 1002.39 -2.59858 2.31017 0
M  V30 10626 H 1001.72 -2.44519 3.16308 0
M  V30 10627 H 1003.16 -3.33205 2.62203 0
M  V30 10628 C 1001.62 -3.16853 1.14481 0
M  V30 10629 O 1002.15 -3.995 0.419853 0
M  V30 10630 N 1000.35 -2.75599 0.921604 0
M  V30 10631 H 999.9 -2.08495 1.51287 0
M  V30 10632 H 999.858 -3.14072 0.143663 0
M  V30 10633 N 1003.63 -1.50653 -0.462772 0
M  V30 10634 C 1004.85 -1.66103 -1.24196 0
M  V30 10635 C 1005.28 -0.347421 -1.84864 0
M  V30 10636 O 1004.64 0.689673 -1.6767 0
M  V30 10637 C 1004.69 -2.76027 -2.32037 0
M  V30 10638 O 1003.79 -2.37859 -3.36893 0
M  V30 10639 H 1003.13 -0.554672 -0.365014 0
M  V30 10640 H 1005.66 -1.97076 -0.549734 0
M  V30 10641 H 1005.67 -2.99354 -2.77221 0
M  V30 10642 H 1004.35 -3.71361 -1.87253 0
M  V30 10643 H 1002.92 -2.2501 -2.97363 0
M  V30 10644 N 1005.11 0.71652 -1.4037 0
M  V30 10645 C 1006.36 1.47347 -1.38324 0
M  V30 10646 C 1006.68 1.94995 0.0139949 0
M  V30 10647 O 1005.95 1.7028 0.968585 0
M  V30 10648 H 1004.53 0.546662 -0.509087 0
M  V30 10649 H 1007.19 0.849455 -1.75415 0
M  V30 10650 H 1006.29 2.34675 -2.05752 0
M  V30 10651 N 1006.59 1.25851 0.948643 0
M  V30 10652 C 1007.83 1.11119 1.69648 0
M  V30 10653 C 1008.17 -0.345995 1.91093 0
M  V30 10654 O 1007.44 -1.25467 1.48621 0
M  V30 10655 C 1007.72 1.87261 3.0758 0
M  V30 10656 C 1007.58 3.40842 2.93507 0
M  V30 10657 C 1008.9 1.6605 4.07573 0
M  V30 10658 H 1006.01 0.405052 0.615713 0
M  V30 10659 H 1008.66 1.54756 1.10229 0
M  V30 10660 H 1006.81 1.50172 3.58303 0
M  V30 10661 H 1008.48 3.87641 2.50064 0
M  V30 10662 H 1006.72 3.68248 2.29294 0
M  V30 10663 H 1007.39 3.89339 3.91305 0
M  V30 10664 H 1009.87 1.98348 3.65783 0
M  V30 10665 H 1008.74 2.21753 5.02113 0
M  V30 10666 H 1009.01 0.603256 4.37965 0
M  V30 10667 N 1008.06 -1.15214 1.07534 0
M  V30 10668 C 1009.31 -1.86043 0.799629 0
M  V30 10669 C 1009.64 -1.82435 -0.674356 0
M  V30 10670 O 1008.89 -1.24379 -1.51091 0
M  V30 10671 C 1009.19 -3.34623 1.25547 0
M  V30 10672 C 1008.86 -3.58425 2.73573 0
M  V30 10673 C 1007.52 -3.6463 3.14004 0
M  V30 10674 C 1009.87 -3.67977 3.6911 0
M  V30 10675 C 1007.2 -3.779 4.48786 0
M  V30 10676 C 1009.55 -3.82771 5.03656 0
M  V30 10677 C 1008.22 -3.87222 5.43705 0
M  V30 10678 H 1007.49 -0.680781 0.292605 0
M  V30 10679 H 1010.13 -1.36149 1.34669 0
M  V30 10680 H 1008.44 -3.86737 0.627828 0
M  V30 10681 H 1010.14 -3.87836 1.01901 0
M  V30 10682 H 1006.73 -3.54238 2.41275 0
M  V30 10683 H 1010.91 -3.62482 3.39 0
M  V30 10684 H 1006.17 -3.79604 4.79281 0
M  V30 10685 H 1010.34 -3.89104 5.77556 0
M  V30 10686 H 1007.97 -3.97256 6.48145 0
M  V30 10687 N 1009.54 -0.859717 -1.32086 0
M  V30 10688 C 1010.49 -0.296897 -2.30697 0
M  V30 10689 C 1011.48 0.582473 -1.59071 0
M  V30 10690 O 1012.69 0.469713 -1.73763 0
M  V30 10691 H 1009.07 -0.0773132 -0.748015 0
M  V30 10692 H 1011.04 -1.14273 -2.75652 0
M  V30 10693 C 1009.79 0.495546 -3.44151 0
M  V30 10694 H 1009.11 -0.171829 -3.99431 0
M  V30 10695 H 1010.55 0.854854 -4.15293 0
M  V30 10696 C 1009.01 1.68278 -2.91863 0
M  V30 10697 O 1009.54 2.78194 -2.89777 0
M  V30 10698 N 1007.74 1.51151 -2.48197 0
M  V30 10699 H 1007.29 0.617345 -2.50093 0
M  V30 10700 H 1007.25 2.3073 -2.13567 0
M  V30 10701 N 1011.02 1.44971 -0.618145 0
M  V30 10702 C 1011.97 2.32354 0.106846 0
M  V30 10703 C 1012.96 1.4659 0.848984 0
M  V30 10704 O 1014.17 1.63012 0.763354 0
M  V30 10705 H 1010.54 0.750108 0.0533109 0
M  V30 10706 H 1012.51 2.9127 -0.648426 0
M  V30 10707 C 1011.26 3.30381 1.08368 0
M  V30 10708 H 1010.59 3.96377 0.52205 0
M  V30 10709 H 1012.03 3.94231 1.56069 0
M  V30 10710 C 1010.49 2.58336 2.1625 0
M  V30 10711 O 1011.02 2.37258 3.24148 0
M  V30 10712 N 1009.22 2.18292 1.91825 0
M  V30 10713 H 1008.77 2.35635 1.04086 0
M  V30 10714 H 1008.73 1.70413 2.6421 0
M  V30 10715 N 1012.5 0.357919 1.53482 0
M  V30 10716 C 1013.43 -0.526753 2.23065 0
M  V30 10717 C 1014.44 -1.05239 1.24212 0
M  V30 10718 O 1015.63 -0.960078 1.50482 0
M  V30 10719 C 1012.73 -1.73919 2.9087 0
M  V30 10720 C 1011.91 -1.34638 4.16163 0
M  V30 10721 C 1010.96 -2.42005 4.67247 0
M  V30 10722 O 1009.99 -2.04714 5.31113 0
M  V30 10723 N 1011.19 -3.73478 4.44404 0
M  V30 10724 H 1013.96 0.0692386 2.9962 0
M  V30 10725 H 1011.52 0.182726 1.60866 0
M  V30 10726 H 1013.51 -2.45207 3.21956 0
M  V30 10727 H 1012.08 -2.24223 2.17814 0
M  V30 10728 H 1011.3 -0.463667 3.91464 0
M  V30 10729 H 1012.59 -1.06012 4.97633 0
M  V30 10730 H 1011.99 -4.06555 3.93357 0
M  V30 10731 H 1010.54 -4.40893 4.80059 0
M  V30 10732 N 1013.98 -1.5736 0.0868897 0
M  V30 10733 C 1014.89 -2.17087 -0.889402 0
M  V30 10734 C 1015.9 -1.13809 -1.31619 0
M  V30 10735 O 1017.08 -1.46143 -1.38579 0
M  V30 10736 C 1014.14 -2.73286 -2.13344 0
M  V30 10737 C 1013.2 -3.91491 -1.76164 0
M  V30 10738 C 1012.44 -4.45 -2.94637 0
M  V30 10739 O 1012.66 -3.97467 -4.09116 0
M  V30 10740 O 1011.59 -5.36133 -2.73579 0
M  V30 10741 H 1015.42 -3.00902 -0.411275 0
M  V30 10742 H 1013.01 -1.4877 -0.137015 0
M  V30 10743 H 1014.89 -3.0924 -2.86266 0
M  V30 10744 H 1013.56 -1.92521 -2.60225 0
M  V30 10745 H 1012.47 -3.60363 -1.00447 0
M  V30 10746 H 1013.8 -4.73593 -1.34053 0
M  V30 10747 N 1015.45 0.186762 -1.56489 0
M  V30 10748 C 1016.4 1.25084 -1.96104 0
M  V30 10749 C 1017.4 1.4667 -0.847609 0
M  V30 10750 O 1018.6 1.47432 -1.03266 0
M  V30 10751 H 1014.98 0.420121 -0.623701 0
M  V30 10752 H 1016.95 0.889761 -2.84826 0
M  V30 10753 C 1015.7 2.5863 -2.32392 0
M  V30 10754 H 1015.02 2.42838 -3.176 0
M  V30 10755 H 1016.46 3.3181 -2.63967 0
M  V30 10756 C 1014.92 3.16241 -1.16159 0
M  V30 10757 O 1015.45 3.99272 -0.441034 0
M  V30 10758 N 1013.66 2.75106 -0.936206 0
M  V30 10759 H 1013.2 2.0769 -1.5239 0
M  V30 10760 H 1013.16 3.13991 -0.160317 0
M  V30 10761 N 1016.93 1.50896 0.454776 0
M  V30 10762 C 1017.9 1.70377 1.53312 0
M  V30 10763 C 1018.9 0.57408 1.50203 0
M  V30 10764 O 1020.09 0.841374 1.52534 0
M  V30 10765 C 1017.22 1.74411 2.92905 0
M  V30 10766 H 1018.41 2.66599 1.37349 0
M  V30 10767 H 1015.96 1.40622 0.68228 0
M  V30 10768 H 1016.7 0.799408 3.14293 0
M  V30 10769 H 1016.48 2.56496 2.96568 0
M  V30 10770 H 1017.97 1.91382 3.71164 0
M  V30 10771 N 1018.41 -0.709066 1.40748 0
M  V30 10772 C 1019.66 -1.4646 1.38681 0
M  V30 10773 C 1019.97 -1.95599 -0.0056209 0
M  V30 10774 O 1021.18 -2.71091 -0.148907 0
M  V30 10775 C 1019.63 -2.64771 2.43771 0
M  V30 10776 C 1019.24 -2.22474 3.88856 0
M  V30 10777 C 1020.99 -3.42475 2.50821 0
M  V30 10778 C 1018.89 -3.37663 4.85528 0
M  V30 10779 H 1017.82 -0.550084 0.515678 0
M  V30 10780 H 1020.47 -0.771074 1.66513 0
M  V30 10781 H 1018.86 -3.36325 2.09048 0
M  V30 10782 H 1020.03 -1.58297 4.32757 0
M  V30 10783 H 1018.35 -1.57798 3.85342 0
M  V30 10784 H 1020.94 -4.28201 3.20232 0
M  V30 10785 H 1021.29 -3.86738 1.54076 0
M  V30 10786 H 1021.82 -2.77969 2.84567 0
M  V30 10787 H 1018.56 -2.98426 5.83628 0
M  V30 10788 H 1018.08 -4.00734 4.46287 0
M  V30 10789 H 1019.76 -4.03636 5.05655 0
M  V30 10790 N 1019.89 -1.26353 -0.941956 0
M  V30 10791 C 1021.14 -1.11241 -1.68251 0
M  V30 10792 C 1021.45 0.344055 -1.9255 0
M  V30 10793 O 1022.66 0.615832 -2.64423 0
M  V30 10794 C 1021.11 -1.94269 -3.02965 0
M  V30 10795 C 1020.72 -3.44485 -2.86415 0
M  V30 10796 C 1022.47 -1.87764 -3.80716 0
M  V30 10797 C 1020.37 -4.19763 -4.16597 0
M  V30 10798 H 1019.3 -0.412694 -0.63103 0
M  V30 10799 H 1021.95 -1.50656 -1.04762 0
M  V30 10800 H 1020.34 -1.47687 -3.6743 0
M  V30 10801 H 1021.51 -3.9883 -2.30805 0
M  V30 10802 H 1019.82 -3.52218 -2.22107 0
M  V30 10803 H 1022.42 -2.41292 -4.77161 0
M  V30 10804 H 1022.76 -0.848195 -4.07568 0
M  V30 10805 H 1023.3 -2.32165 -3.23024 0
M  V30 10806 H 1020.04 -5.23173 -3.9493 0
M  V30 10807 H 1019.56 -3.70198 -4.71925 0
M  V30 10808 H 1021.24 -4.28168 -4.85058 0
M  V30 10809 N 1021.37 1.14642 -1.08144 0
M  V30 10810 C 1022.3 2.19283 -0.6669 0
M  V30 10811 C 1023.31 1.60292 0.284668 0
M  V30 10812 O 1024.5 1.78352 0.0727383 0
M  V30 10813 C 1021.6 3.38877 0.0398572 0
M  V30 10814 C 1020.77 4.274 -0.929929 0
M  V30 10815 C 1019.83 5.25562 -0.258991 0
M  V30 10816 O 1018.86 5.61999 -0.902563 0
M  V30 10817 N 1020.06 5.71958 0.992177 0
M  V30 10818 H 1022.83 2.55464 -1.5671 0
M  V30 10819 H 1020.39 1.29836 -0.96717 0
M  V30 10820 H 1022.38 4.01605 0.499583 0
M  V30 10821 H 1020.95 3.01043 0.842118 0
M  V30 10822 H 1020.17 3.61649 -1.56857 0
M  V30 10823 H 1021.46 4.83411 -1.58717 0
M  V30 10824 H 1020.86 5.44481 1.53484 0
M  V30 10825 H 1019.41 6.36687 1.39544 0
M  V30 10826 N 1022.85 0.866709 1.31628 0
M  V30 10827 C 1023.76 0.323408 2.3236 0
M  V30 10828 C 1024.77 -0.564995 1.64572 0
M  V30 10829 O 1025.95 -0.462489 1.96018 0
M  V30 10830 C 1023.01 -0.469045 3.43513 0
M  V30 10831 C 1022.07 0.446928 4.26967 0
M  V30 10832 C 1021.31 -0.307799 5.32812 0
M  V30 10833 O 1021.53 -1.5363 5.49321 0
M  V30 10834 O 1020.46 0.332653 6.0098 0
M  V30 10835 H 1024.29 1.15827 2.80745 0
M  V30 10836 H 1021.87 0.629987 1.35468 0
M  V30 10837 H 1023.76 -0.918405 4.1127 0
M  V30 10838 H 1022.43 -1.28051 2.97296 0
M  V30 10839 H 1021.34 0.944719 3.61975 0
M  V30 10840 H 1022.67 1.2239 4.76741 0
M  V30 10841 N 1024.32 -1.44642 0.625825 0
M  V30 10842 C 1025.57 -2.01308 0.125682 0
M  V30 10843 C 1025.89 -1.49773 -1.25807 0
M  V30 10844 O 1027.09 -1.98533 -1.85194 0
M  V30 10845 C 1025.55 -3.59479 0.17395 0
M  V30 10846 C 1025.16 -4.20011 1.55868 0
M  V30 10847 C 1026.9 -4.2364 -0.270005 0
M  V30 10848 C 1024.81 -5.7039 1.56235 0
M  V30 10849 H 1023.74 -0.75276 0.0432194 0
M  V30 10850 H 1026.39 -1.65916 0.783842 0
M  V30 10851 H 1024.77 -3.92145 -0.551212 0
M  V30 10852 H 1025.94 -3.98891 2.307 0
M  V30 10853 H 1024.26 -3.68116 1.94627 0
M  V30 10854 H 1026.86 -5.33931 -0.28672 0
M  V30 10855 H 1027.2 -3.95603 -1.29629 0
M  V30 10856 H 1027.73 -3.95759 0.402487 0
M  V30 10857 H 1024.47 -6.03154 2.56683 0
M  V30 10858 H 1023.99 -5.93648 0.856881 0
M  V30 10859 H 1025.67 -6.33929 1.29396 0
M  V30 10860 N 1025.8 -0.366053 -1.5329 0
M  V30 10861 C 1027.05 0.223824 -2.01561 0
M  V30 10862 C 1027.38 1.48382 -1.25286 0
M  V30 10863 O 1026.66 1.91385 -0.34669 0
M  V30 10864 C 1026.94 0.5153 -3.56394 0
M  V30 10865 C 1026.79 -0.758357 -4.43361 0
M  V30 10866 C 1028.11 1.31568 -4.19974 0
M  V30 10867 H 1025.23 0.0798751 -0.732659 0
M  V30 10868 H 1027.87 -0.491038 -1.83545 0
M  V30 10869 H 1026.02 1.12429 -3.71876 0
M  V30 10870 H 1027.69 -1.39584 -4.39675 0
M  V30 10871 H 1025.94 -1.37862 -4.11311 0
M  V30 10872 H 1026.61 -0.509366 -5.49645 0
M  V30 10873 H 1029.08 0.800514 -4.08327 0
M  V30 10874 H 1027.96 1.48837 -5.28336 0
M  V30 10875 H 1028.22 2.32432 -3.76069 0
M  V30 10876 N 1027.28 1.57312 -0.0952337 0
M  V30 10877 C 1028.23 2.14032 0.863657 0
M  V30 10878 C 1029.2 1.0589 1.27971 0
M  V30 10879 O 1030.38 1.33678 1.36143 0
M  V30 10880 C 1027.52 2.72513 2.11733 0
M  V30 10881 C 1026.63 3.94887 1.7518 0
M  V30 10882 C 1025.77 4.41533 2.95334 0
M  V30 10883 C 1024.81 5.56496 2.54908 0
M  V30 10884 N 1023.95 5.97993 3.67897 0
M  V30 10885 H 1028.79 2.95655 0.373115 0
M  V30 10886 H 1026.32 1.46085 0.172497 0
M  V30 10887 H 1028.28 3.04539 2.85153 0
M  V30 10888 H 1026.91 1.93618 2.58287 0
M  V30 10889 H 1025.96 3.69175 0.917279 0
M  V30 10890 H 1027.27 4.78322 1.41455 0
M  V30 10891 H 1026.43 4.75343 3.77007 0
M  V30 10892 H 1025.17 3.56999 3.3227 0
M  V30 10893 H 1024.17 5.22314 1.71662 0
M  V30 10894 H 1025.4 6.42779 2.19117 0
M  V30 10895 H 1023.34 5.16405 4.04551 0
M  V30 10896 H 1023.26 6.76225 3.38018 0
M  V30 10897 H 1024.53 6.36434 4.5008 0
M  V30 10898 N 1028.76 -0.17846 1.56586 0
M  V30 10899 C 1029.99 -0.910674 1.85446 0
M  V30 10900 C 1030.4 -1.76647 0.677675 0
M  V30 10901 O 1029.74 -1.80086 -0.362584 0
M  V30 10902 C 1029.8 -1.84363 3.08627 0
M  V30 10903 C 1029.46 -1.16814 4.41818 0
M  V30 10904 C 1030.46 -0.53703 5.17119 0
M  V30 10905 C 1028.15 -1.16703 4.88555 0
M  V30 10906 C 1030.14 0.0861778 6.37342 0
M  V30 10907 C 1027.83 -0.539992 6.0871 0
M  V30 10908 C 1028.83 0.0855135 6.82946 0
M  V30 10909 O 1028.51 0.70268 8.00823 0
M  V30 10910 H 1028.25 -0.270377 0.619574 0
M  V30 10911 H 1030.8 -0.185591 2.0456 0
M  V30 10912 H 1029.03 -2.60884 2.85441 0
M  V30 10913 H 1030.72 -2.44506 3.23993 0
M  V30 10914 H 1031.48 -0.529915 4.82096 0
M  V30 10915 H 1027.36 -1.64329 4.30717 0
M  V30 10916 H 1030.91 0.575011 6.95226 0
M  V30 10917 H 1026.8 -0.544666 6.43198 0
M  V30 10918 H 1027.57 0.601224 8.16289 0
M  V30 10919 N 1030.24 -1.51135 -0.446768 0
M  V30 10920 C 1031.51 -1.5387 -1.20762 0
M  V30 10921 C 1031.89 -0.297446 -2.08994 0
M  V30 10922 O 1031.24 0.717975 -2.16927 0
M  V30 10923 C 1031.45 -2.84767 -2.01764 0
M  V30 10924 C 1032.8 -3.3636 -2.59128 0
M  V30 10925 O 1033.82 -2.86254 -2.11984 0
M  V30 10926 O 1032.68 -4.23765 -3.45088 0
M  V30 10927 H 1029.78 -0.618228 -0.549293 0
M  V30 10928 H 1032.32 -1.63442 -0.456605 0
M  V30 10929 H 1031.09 -3.6657 -1.36901 0
M  V30 10930 H 1030.72 -2.78313 -2.8395 0
M  V30 10931 N 1031.71 0.701592 -1.41122 0
M  V30 10932 C 1033.13 1.01143 -1.23459 0
M  V30 10933 C 1033.33 2.01144 -0.11968 0
M  V30 10934 O 1032.39 2.47132 0.517889 0
M  V30 10935 C 1033.7 1.54179 -2.58165 0
M  V30 10936 C 1035.25 1.66093 -2.65296 0
M  V30 10937 C 1035.72 2.22532 -4.00304 0
M  V30 10938 N 1037.21 2.299 -4.0212 0
M  V30 10939 C 1037.95 2.74584 -5.0338 0
M  V30 10940 N 1037.44 3.18917 -6.15032 0
M  V30 10941 N 1039.24 2.74094 -4.90743 0
M  V30 10942 H 1031.39 0.0390087 -2.12364 0
M  V30 10943 H 1033.65 0.0798848 -0.944628 0
M  V30 10944 H 1033.36 0.881587 -3.40472 0
M  V30 10945 H 1033.23 2.52488 -2.80231 0
M  V30 10946 H 1035.62 2.31227 -1.83352 0
M  V30 10947 H 1035.7 0.663461 -2.47046 0
M  V30 10948 H 1035.34 1.58016 -4.82694 0
M  V30 10949 H 1035.27 3.2302 -4.15891 0
M  V30 10950 H 1037.76 1.98607 -3.21502 0
M  V30 10951 H 1038.08 3.5162 -6.88174 0
M  V30 10952 H 1036.42 3.1684 -6.18577 0
M  V30 10953 H 1039.61 2.38804 -4.02604 0
M  V30 10954 H 1039.79 3.086 -5.69798 0
M  V30 10955 N 1033.19 1.2685 0.935242 0
M  V30 10956 C 1034.1 1.10716 2.06831 0
M  V30 10957 C 1035.12 0.0391222 1.73956 0
M  V30 10958 O 1036.29 0.244071 1.99916 0
M  V30 10959 C 1033.36 0.748093 3.38533 0
M  V30 10960 C 1032.42 1.89619 3.85153 0
M  V30 10961 C 1031.65 1.55416 5.1057 0
M  V30 10962 O 1031.88 0.458596 5.68553 0
M  V30 10963 O 1030.81 2.39087 5.52378 0
M  V30 10964 H 1034.64 2.05785 2.23352 0
M  V30 10965 H 1032.22 1.05967 1.05315 0
M  V30 10966 H 1034.1 0.560841 4.17651 0
M  V30 10967 H 1032.78 -0.173142 3.23237 0
M  V30 10968 H 1031.68 2.13845 3.06954 0
M  V30 10969 H 1033.02 2.79737 4.04979 0
M  V30 10970 N 1034.67 -1.14067 1.0875 0
M  V30 10971 C 1035.6 -2.18306 0.664652 0
M  V30 10972 C 1036.58 -1.59312 -0.325359 0
M  V30 10973 O 1037.77 -1.87111 -0.228385 0
M  V30 10974 C 1034.89 -3.38693 -0.0218723 0
M  V30 10975 C 1033.94 -4.16263 0.928844 0
M  V30 10976 S 1034.77 -4.76817 2.43734 0
M  V30 10977 C 1035.93 -6.00557 1.76302 0
M  V30 10978 H 1036.16 -2.53837 1.54772 0
M  V30 10979 H 1033.69 -1.25254 0.902817 0
M  V30 10980 H 1035.65 -4.0843 -0.411686 0
M  V30 10981 H 1034.31 -3.01478 -0.881481 0
M  V30 10982 H 1033.51 -5.02446 0.395446 0
M  V30 10983 H 1033.11 -3.52146 1.25972 0
M  V30 10984 H 1035.4 -6.68788 1.08301 0
M  V30 10985 H 1036.34 -6.58492 2.60373 0
M  V30 10986 H 1036.75 -5.50827 1.23489 0
M  V30 10987 N 1036.15 -0.873678 -1.31166 0
M  V30 10988 C 1037.39 -0.487178 -1.96861 0
M  V30 10989 C 1037.73 0.95887 -1.68877 0
M  V30 10990 O 1037 1.6758 -0.987279 0
M  V30 10991 C 1037.29 -0.74925 -3.52219 0
M  V30 10992 C 1037.14 -2.2451 -3.89763 0
M  V30 10993 C 1038.46 -0.218194 -4.39559 0
M  V30 10994 H 1035.58 -0.178477 -0.715063 0
M  V30 10995 H 1038.22 -1.0956 -1.55231 0
M  V30 10996 H 1036.37 -0.231403 -3.8781 0
M  V30 10997 H 1038.04 -2.83049 -3.64254 0
M  V30 10998 H 1036.28 -2.71621 -3.38237 0
M  V30 10999 H 1036.95 -2.37911 -4.98099 0
M  V30 11000 H 1039.43 -0.661274 -4.10812 0
M  V30 11001 H 1038.31 -0.430983 -5.47205 0
M  V30 11002 H 1038.57 0.880056 -4.33252 0
M  V30 11003 N 1037.63 1.44308 -0.633487 0
M  V30 11004 C 1038.56 2.28943 0.108474 0
M  V30 11005 C 1039.57 1.41415 0.806582 0
M  V30 11006 O 1040.76 1.65544 0.667634 0
M  V30 11007 C 1037.86 3.17845 1.1759 0
M  V30 11008 C 1037.03 4.33802 0.559842 0
M  V30 11009 C 1036.09 5.03722 1.52154 0
M  V30 11010 O 1035.12 5.5966 1.03776 0
M  V30 11011 N 1036.32 5.05392 2.85586 0
M  V30 11012 H 1039.09 2.93262 -0.617879 0
M  V30 11013 H 1036.65 1.54781 -0.474819 0
M  V30 11014 H 1038.64 3.61485 1.81963 0
M  V30 11015 H 1037.21 2.55261 1.80445 0
M  V30 11016 H 1036.43 3.93325 -0.262559 0
M  V30 11017 H 1037.72 5.08637 0.128942 0
M  V30 11018 H 1037.11 4.61282 3.27468 0
M  V30 11019 H 1035.67 5.52813 3.45313 0
M  V30 11020 N 1039.1 0.374177 1.53094 0
M  V30 11021 C 1040.04 -0.503065 2.23611 0
M  V30 11022 C 1041.05 -1.03915 1.25321 0
M  V30 11023 O 1042.24 -0.944064 1.51492 0
M  V30 11024 C 1039.34 -1.70825 2.92698 0
M  V30 11025 C 1038.51 -1.30217 4.17567 0
M  V30 11026 C 1037.57 -2.37036 4.69788 0
M  V30 11027 O 1036.6 -1.99069 5.33254 0
M  V30 11028 N 1037.8 -3.68743 4.4834 0
M  V30 11029 H 1040.56 0.101013 2.9953 0
M  V30 11030 H 1038.12 0.199778 1.60663 0
M  V30 11031 H 1040.12 -2.41779 3.24538 0
M  V30 11032 H 1038.69 -2.219 2.2018 0
M  V30 11033 H 1037.91 -0.422121 3.91933 0
M  V30 11034 H 1039.19 -1.00728 4.9873 0
M  V30 11035 H 1038.59 -4.0236 3.97647 0
M  V30 11036 H 1037.15 -4.35776 4.84709 0
M  V30 11037 N 1040.58 -1.57259 0.103575 0
M  V30 11038 C 1041.55 -2.13337 -0.837859 0
M  V30 11039 C 1042.55 -1.06459 -1.20512 0
M  V30 11040 O 1043.74 -1.32307 -1.13316 0
M  V30 11041 C 1040.87 -2.66093 -2.13089 0
M  V30 11042 H 1042.06 -2.97842 -0.350775 0
M  V30 11043 H 1039.61 -1.55621 -0.145511 0
M  V30 11044 H 1040.35 -1.85133 -2.66264 0
M  V30 11045 H 1040.13 -3.44244 -1.87719 0
M  V30 11046 H 1041.62 -3.09443 -2.80419 0
M  V30 11047 N 1042.06 0.170153 -1.56679 0
M  V30 11048 C 1042.97 1.23057 -1.99735 0
M  V30 11049 C 1043.99 1.48374 -0.908912 0
M  V30 11050 O 1045.16 1.60499 -1.21663 0
M  V30 11051 C 1042.23 2.54944 -2.34956 0
M  V30 11052 C 1041.29 2.3748 -3.57634 0
M  V30 11053 C 1040.52 3.63078 -3.91165 0
M  V30 11054 O 1040.74 4.68304 -3.2565 0
M  V30 11055 O 1039.68 3.57119 -4.8451 0
M  V30 11056 H 1043.5 0.895104 -2.9021 0
M  V30 11057 H 1041.09 0.377109 -1.44562 0
M  V30 11058 H 1042.97 3.32742 -2.58574 0
M  V30 11059 H 1041.65 2.88068 -1.47643 0
M  V30 11060 H 1040.55 1.57709 -3.39232 0
M  V30 11061 H 1041.89 2.0928 -4.45491 0
M  V30 11062 N 1043.54 1.5137 0.438746 0
M  V30 11063 C 1044.47 1.75528 1.53987 0
M  V30 11064 C 1045.45 0.605067 1.58975 0
M  V30 11065 O 1046.63 0.847634 1.74725 0
M  V30 11066 C 1043.76 1.87904 2.92078 0
M  V30 11067 C 1042.72 3.0333 3.01951 0
M  V30 11068 C 1042.04 3.00888 4.42007 0
M  V30 11069 C 1043.34 4.43319 2.76163 0
M  V30 11070 H 1045.04 2.67728 1.34022 0
M  V30 11071 H 1042.58 1.28831 0.643308 0
M  V30 11072 H 1044.54 2.03388 3.69068 0
M  V30 11073 H 1043.26 0.923514 3.13271 0
M  V30 11074 H 1041.92 2.87549 2.274 0
M  V30 11075 H 1041.57 2.03116 4.60166 0
M  V30 11076 H 1041.27 3.78397 4.49544 0
M  V30 11077 H 1042.79 3.18464 5.20973 0
M  V30 11078 H 1044.21 4.59458 3.42887 0
M  V30 11079 H 1042.6 5.22523 2.9511 0
M  V30 11080 H 1043.67 4.53453 1.71779 0
M  V30 11081 N 1045.02 -0.694098 1.41492 0
M  V30 11082 C 1046.26 -1.45127 1.4065 0
M  V30 11083 C 1046.59 -1.94993 0.0170289 0
M  V30 11084 O 1045.86 -1.71799 -0.941372 0
M  V30 11085 H 1044.44 -0.538493 0.51772 0
M  V30 11086 H 1047.1 -0.821441 1.76744 0
M  V30 11087 H 1046.19 -2.31372 2.0946 0
M  V30 11088 N 1046.49 -1.27344 -0.928501 0
M  V30 11089 C 1047.43 -1.05797 -2.03322 0
M  V30 11090 C 1048.44 -0.0143086 -1.62794 0
M  V30 11091 O 1049.63 -0.25578 -1.76658 0
M  V30 11092 C 1046.73 -0.582673 -3.33853 0
M  V30 11093 C 1045.9 -1.69844 -4.03078 0
M  V30 11094 C 1044.96 -1.21902 -5.11885 0
M  V30 11095 O 1043.99 -1.91853 -5.35893 0
M  V30 11096 N 1045.19 -0.0742392 -5.80453 0
M  V30 11097 H 1047.95 -2.00928 -2.22369 0
M  V30 11098 H 1045.51 -1.189 -1.09883 0
M  V30 11099 H 1047.51 -0.245862 -4.03952 0
M  V30 11100 H 1046.08 0.27539 -3.11385 0
M  V30 11101 H 1045.3 -2.20557 -3.26723 0
M  V30 11102 H 1046.58 -2.4473 -4.46077 0
M  V30 11103 H 1045.98 0.509631 -5.634 0
M  V30 11104 H 1044.54 0.203399 -6.51483 0
M  V30 11105 N 1047.97 1.13488 -1.09353 0
M  V30 11106 C 1049.39 1.36739 -0.823086 0
M  V30 11107 C 1049.59 1.93476 0.562963 0
M  V30 11108 O 1048.64 2.15374 1.31796 0
M  V30 11109 C 1049.96 2.31943 -1.91371 0
M  V30 11110 C 1051.51 2.4556 -1.94085 0
M  V30 11111 C 1051.98 3.44072 -3.02289 0
M  V30 11112 N 1053.47 3.51622 -3.01524 0
M  V30 11113 C 1054.21 4.27724 -3.8189 0
M  V30 11114 N 1053.7 5.06987 -4.72161 0
M  V30 11115 N 1055.5 4.23018 -3.70152 0
M  V30 11116 H 1047.65 0.75012 -1.98713 0
M  V30 11117 H 1049.91 0.392564 -0.862901 0
M  V30 11118 H 1049.62 1.97408 -2.91072 0
M  V30 11119 H 1049.49 3.31952 -1.79131 0
M  V30 11120 H 1051.88 2.79382 -0.950234 0
M  V30 11121 H 1051.96 1.45479 -2.10403 0
M  V30 11122 H 1051.6 3.10981 -4.01564 0
M  V30 11123 H 1051.53 4.43956 -2.83214 0
M  V30 11124 H 1054.02 2.95066 -2.36103 0
M  V30 11125 H 1054.34 5.6236 -5.30067 0
M  V30 11126 H 1052.68 5.06222 -4.76197 0
M  V30 11127 H 1055.87 3.60171 -2.98989 0
M  V30 11128 H 1056.04 4.82075 -4.33022 0
M  V30 11129 N 1049.45 0.880621 1.30701 0
M  V30 11130 C 1050.7 0.497611 1.966 0
M  V30 11131 C 1051.03 -0.949901 1.69383 0
M  V30 11132 O 1050.31 -1.67054 0.996152 0
M  V30 11133 C 1050.59 0.767919 3.51817 0
M  V30 11134 C 1050.44 2.26574 3.88567 0
M  V30 11135 C 1051.76 0.241502 4.39437 0
M  V30 11136 H 1048.88 0.182267 0.714106 0
M  V30 11137 H 1051.52 1.10382 1.54648 0
M  V30 11138 H 1049.67 0.251967 3.87682 0
M  V30 11139 H 1051.34 2.84977 3.62748 0
M  V30 11140 H 1049.59 2.73411 3.36792 0
M  V30 11141 H 1050.26 2.40549 4.9683 0
M  V30 11142 H 1052.73 0.683051 4.10455 0
M  V30 11143 H 1051.61 0.459997 5.46969 0
M  V30 11144 H 1051.87 -0.857068 4.33713 0
M  V30 11145 N 1050.93 -1.4397 0.641131 0
M  V30 11146 C 1052.18 -2.01548 0.149333 0
M  V30 11147 C 1052.5 -1.50759 -1.23679 0
M  V30 11148 O 1051.77 -0.715257 -1.82376 0
M  V30 11149 H 1050.35 -0.745173 0.0522161 0
M  V30 11150 H 1053.01 -1.7634 0.830082 0
M  V30 11151 H 1052.11 -3.11851 0.124676 0
M  V30 11152 N 1052.41 -0.382291 -1.52893 0
M  V30 11153 C 1053.34 0.447829 -2.29165 0
M  V30 11154 C 1054.32 1.06956 -1.32267 0
M  V30 11155 O 1055.5 1.08365 -1.61154 0
M  V30 11156 C 1052.63 1.57902 -3.09329 0
M  V30 11157 C 1051.59 1.08369 -4.14053 0
M  V30 11158 C 1050.91 2.30641 -4.82399 0
M  V30 11159 C 1052.21 0.156591 -5.22065 0
M  V30 11160 H 1053.91 -0.188541 -2.98806 0
M  V30 11161 H 1051.45 -0.0921179 -1.43705 0
M  V30 11162 H 1053.41 2.16652 -3.61442 0
M  V30 11163 H 1052.13 2.24287 -2.37409 0
M  V30 11164 H 1050.79 0.518772 -3.62911 0
M  V30 11165 H 1050.44 2.9552 -4.07034 0
M  V30 11166 H 1050.14 1.98163 -5.53177 0
M  V30 11167 H 1051.66 2.90047 -5.37313 0
M  V30 11168 H 1053.08 0.652065 -5.6958 0
M  V30 11169 H 1051.47 -0.0780978 -6.00049 0
M  V30 11170 H 1052.54 -0.796529 -4.78313 0
M  V30 11171 N 1053.89 1.57202 -0.111913 0
M  V30 11172 C 1055.13 1.9495 0.547795 0
M  V30 11173 C 1055.46 0.994763 1.67137 0
M  V30 11174 O 1054.72 0.0173528 1.95692 0
M  V30 11175 C 1055.01 3.39152 1.12741 0
M  V30 11176 C 1054.68 4.50724 0.125916 0
M  V30 11177 C 1053.34 4.80968 -0.149489 0
M  V30 11178 C 1055.69 5.18215 -0.556987 0
M  V30 11179 C 1053.02 5.76023 -1.1142 0
M  V30 11180 C 1055.37 6.14307 -1.51029 0
M  V30 11181 C 1054.04 6.42947 -1.79375 0
M  V30 11182 H 1053.31 0.713372 0.200453 0
M  V30 11183 H 1055.96 1.90542 -0.191316 0
M  V30 11184 H 1054.26 3.4022 1.94313 0
M  V30 11185 H 1055.96 3.65668 1.64584 0
M  V30 11186 H 1052.55 4.27162 0.350756 0
M  V30 11187 H 1056.73 4.95012 -0.357378 0
M  V30 11188 H 1051.99 5.9652 -1.34064 0
M  V30 11189 H 1056.16 6.65692 -2.04516 0
M  V30 11190 H 1053.79 7.1641 -2.54284 0
M  V30 11191 N 1055.36 -0.161842 1.56767 0
M  V30 11192 C 1056.77 -0.723385 1.72116 0
M  V30 11193 C 1057.13 -1.82355 0.723961 0
M  V30 11194 O 1056.25 -2.16107 -0.112643 0
M  V30 11195 C 1056.85 -1.31895 3.12072 0
M  V30 11196 C 1055.4 -1.82722 3.29074 0
M  V30 11197 C 1054.55 -0.709863 2.6806 0
M  V30 11198 H 1057.5 0.0636647 1.58572 0
M  V30 11199 H 1057.52 -2.18871 3.11249 0
M  V30 11200 H 1057.04 -0.51801 3.84627 0
M  V30 11201 H 1055.14 -2.6543 2.61491 0
M  V30 11202 H 1055.25 -1.96614 4.36898 0
M  V30 11203 H 1053.61 -1.13273 2.28126 0
M  V30 11204 H 1054.4 0.0793884 3.43208 0
M  V30 11205 N 1056.84 -1.516 -0.430713 0
M  V30 11206 C 1058.25 -1.57 -1.01035 0
M  V30 11207 C 1058.6 -0.397439 -1.92132 0
M  V30 11208 O 1057.73 0.484954 -2.10896 0
M  V30 11209 C 1058.32 -2.84536 -1.83915 0
M  V30 11210 C 1056.88 -2.92485 -2.36917 0
M  V30 11211 C 1056.03 -2.5173 -1.16308 0
M  V30 11212 H 1058.98 -1.57281 -0.211734 0
M  V30 11213 H 1059 -2.68672 -2.69435 0
M  V30 11214 H 1058.51 -3.69858 -1.17586 0
M  V30 11215 H 1056.61 -2.11608 -3.0668 0
M  V30 11216 H 1056.73 -3.96277 -2.6926 0
M  V30 11217 H 1055.09 -2.05079 -1.51045 0
M  V30 11218 H 1055.87 -3.39403 -0.515793 0
M  V30 11219 N 1058.32 0.686584 -1.41858 0
M  V30 11220 C 1059.73 1.26682 -1.37145 0
M  V30 11221 C 1060.08 1.96112 -0.058922 0
M  V30 11222 O 1059.21 1.99321 0.842629 0
M  V30 11223 C 1059.8 2.30383 -2.48413 0
M  V30 11224 C 1058.36 2.83961 -2.47069 0
M  V30 11225 C 1057.51 1.58119 -2.27802 0
M  V30 11226 H 1060.46 0.480742 -1.51243 0
M  V30 11227 H 1060.48 3.11868 -2.17987 0
M  V30 11228 H 1059.99 1.79822 -3.43927 0
M  V30 11229 H 1058.09 3.38675 -1.55338 0
M  V30 11230 H 1058.21 3.3378 -3.43697 0
M  V30 11231 H 1056.57 1.84258 -1.75844 0
M  V30 11232 H 1057.35 1.09541 -3.25355 0
M  V30 11233 N 1059.8 1.27835 0.921735 0
M  V30 11234 C 1061.21 1.13151 1.48505 0
M  V30 11235 C 1061.56 -0.281373 1.94172 0
M  V30 11236 O 1060.68 -1.17487 1.8173 0
M  V30 11237 C 1061.28 2.04792 2.69899 0
M  V30 11238 C 1059.84 1.94196 3.22436 0
M  V30 11239 C 1058.99 1.96999 1.95158 0
M  V30 11240 H 1061.94 1.40641 0.735241 0
M  V30 11241 H 1061.96 1.60724 3.44889 0
M  V30 11242 H 1061.47 3.07615 2.36631 0
M  V30 11243 H 1059.57 0.943805 3.60448 0
M  V30 11244 H 1059.68 2.80744 3.88226 0
M  V30 11245 H 1058.05 1.41301 2.11911 0
M  V30 11246 H 1058.83 3.01487 1.64196 0
M  V30 11247 N 1061.28 -1.12907 1.09954 0
M  V30 11248 C 1062.69 -1.65847 0.857417 0
M  V30 11249 C 1063.04 -1.86372 -0.613176 0
M  V30 11250 O 1062.16 -1.58654 -1.47166 0
M  V30 11251 C 1062.76 -3.01269 1.54991 0
M  V30 11252 C 1061.32 -3.51179 1.35462 0
M  V30 11253 C 1060.46 -2.26307 1.60251 0
M  V30 11254 H 1063.41 -0.96755 1.25794 0
M  V30 11255 H 1063.44 -3.675 0.986091 0
M  V30 11256 H 1062.95 -2.86299 2.6202 0
M  V30 11257 H 1061.05 -3.71343 0.305742 0
M  V30 11258 H 1061.16 -4.30955 2.09318 0
M  V30 11259 H 1059.53 -2.33167 1.02494 0
M  V30 11260 H 1060.31 -2.13896 2.68521 0
M  V30 11261 N 1062.75 -0.88754 -1.30232 0
M  V30 11262 C 1064.16 -0.55745 -1.78184 0
M  V30 11263 C 1064.52 0.926474 -1.72948 0
M  V30 11264 O 1063.64 1.72403 -1.3079 0
M  V30 11265 C 1064.24 -1.00512 -3.23547 0
M  V30 11266 C 1062.79 -0.726402 -3.69324 0
M  V30 11267 C 1061.94 -1.18666 -2.50627 0
M  V30 11268 H 1064.89 -1.07151 -1.17066 0
M  V30 11269 H 1064.91 -0.335185 -3.79021 0
M  V30 11270 H 1064.43 -2.08517 -3.27326 0
M  V30 11271 H 1062.53 0.341548 -3.71031 0
M  V30 11272 H 1062.64 -1.31575 -4.60679 0
M  V30 11273 H 1061 -0.605936 -2.47387 0
M  V30 11274 H 1061.79 -2.2745 -2.57141 0
M  V30 11275 N 1064.23 1.43628 -0.648757 0
M  V30 11276 C 1065.64 1.85142 -0.24066 0
M  V30 11277 C 1065.99 1.54304 1.21181 0
M  V30 11278 O 1065.12 0.989792 1.92437 0
M  V30 11279 C 1065.71 3.3606 -0.429999 0
M  V30 11280 C 1064.27 3.76323 -0.0762588 0
M  V30 11281 C 1063.42 2.67382 -0.734999 0
M  V30 11282 H 1066.37 1.33844 -0.852734 0
M  V30 11283 H 1066.39 3.79102 0.325836 0
M  V30 11284 H 1065.9 3.58474 -1.48721 0
M  V30 11285 H 1064.01 3.59521 0.978529 0
M  V30 11286 H 1064.12 4.76498 -0.498612 0
M  V30 11287 H 1062.48 2.54141 -0.168644 0
M  V30 11288 H 1063.27 2.92625 -1.79515 0
M  V30 11289 N 1065.71 0.390394 1.52688 0
M  V30 11290 C 1066.64 -0.479319 2.24132 0
M  V30 11291 C 1067.66 -1.0258 1.26416 0
M  V30 11292 O 1068.84 -0.927943 1.52484 0
M  V30 11293 C 1065.94 -1.67711 2.94493 0
M  V30 11294 C 1065.12 -1.2578 4.18925 0
M  V30 11295 C 1064.18 -2.3204 4.72275 0
M  V30 11296 O 1063.2 -1.93402 5.35336 0
M  V30 11297 N 1064.4 -3.63967 4.52226 0
M  V30 11298 H 1067.17 0.132777 2.99406 0
M  V30 11299 H 1064.73 0.216807 1.60442 0
M  V30 11300 H 1066.72 -2.38323 3.27084 0
M  V30 11301 H 1065.29 -2.19552 2.22521 0
M  V30 11302 H 1064.51 -0.380528 3.92359 0
M  V30 11303 H 1065.8 -0.954329 4.9977 0
M  V30 11304 H 1065.2 -3.98119 4.01892 0
M  V30 11305 H 1063.76 -4.30611 4.89303 0
M  V30 11306 N 1067.19 -1.57141 0.120249 0
M  V30 11307 C 1068.43 -1.95527 -0.538245 0
M  V30 11308 C 1068.77 -1.00373 -1.6625 0
M  V30 11309 O 1068.04 -0.0411734 -1.94456 0
M  V30 11310 C 1068.33 -3.43843 -1.06976 0
M  V30 11311 C 1068.18 -4.49771 0.0511596 0
M  V30 11312 C 1069.5 -3.94035 -1.96022 0
M  V30 11313 H 1066.62 -0.710958 -0.194183 0
M  V30 11314 H 1069.26 -1.88986 0.196061 0
M  V30 11315 H 1067.41 -3.49548 -1.69553 0
M  V30 11316 H 1069.08 -4.56163 0.686503 0
M  V30 11317 H 1067.32 -4.27882 0.714127 0
M  V30 11318 H 1067.99 -5.50812 -0.361995 0
M  V30 11319 H 1070.47 -3.9064 -1.43315 0
M  V30 11320 H 1069.35 -4.98329 -2.3013 0
M  V30 11321 H 1069.61 -3.34803 -2.8872 0
M  V30 11322 N 1068.67 0.153526 -1.5685 0
M  V30 11323 C 1069.89 0.882335 -1.87143 0
M  V30 11324 C 1070.31 1.75034 -0.707702 0
M  V30 11325 O 1069.67 1.79624 0.32273 0
M  V30 11326 C 1069.72 1.74444 -3.16625 0
M  V30 11327 O 1069.44 0.911419 -4.28515 0
M  V30 11328 C 1070.94 2.58139 -3.60388 0
M  V30 11329 H 1068.16 0.25546 -0.620469 0
M  V30 11330 H 1070.7 0.148275 -2.03962 0
M  V30 11331 H 1068.86 2.43163 -3.0158 0
M  V30 11332 H 1069.27 1.50268 -5.02513 0
M  V30 11333 H 1070.75 3.14215 -4.53842 0
M  V30 11334 H 1071.22 3.33865 -2.85361 0
M  V30 11335 H 1071.83 1.94721 -3.78105 0
M  V30 11336 N 1070.14 1.51827 0.422667 0
M  V30 11337 C 1071.37 1.69337 1.19748 0
M  V30 11338 C 1071.79 0.396312 1.83878 0
M  V30 11339 O 1071.15 -0.644976 1.6944 0
M  V30 11340 C 1071.2 2.82082 2.24637 0
M  V30 11341 O 1070.3 2.46708 3.30468 0
M  V30 11342 H 1069.65 0.564154 0.35018 0
M  V30 11343 H 1072.18 1.98465 0.497289 0
M  V30 11344 H 1072.19 3.06599 2.69186 0
M  V30 11345 H 1070.86 3.76195 1.77341 0
M  V30 11346 H 1069.44 2.32815 2.91293 0
M  V30 11347 N 1071.62 -0.679052 1.4222 0
M  V30 11348 C 1072.59 -1.77448 1.45069 0
M  V30 11349 C 1073.59 -1.57189 0.338882 0
M  V30 11350 O 1074.78 -1.63559 0.599519 0
M  V30 11351 C 1071.91 -3.1603 1.27819 0
M  V30 11352 H 1073.1 -1.7631 2.426 0
M  V30 11353 H 1070.65 -0.888277 1.28605 0
M  V30 11354 H 1071.39 -3.22796 0.311946 0
M  V30 11355 H 1071.17 -3.32138 2.08391 0
M  V30 11356 H 1072.66 -3.9596 1.32686 0
M  V30 11357 N 1073.1 -1.28322 -0.914942 0
M  V30 11358 C 1074.35 -1.14785 -1.65853 0
M  V30 11359 C 1074.66 0.303135 -1.93237 0
M  V30 11360 O 1075.87 0.559606 -2.6567 0
M  V30 11361 C 1074.32 -2.00652 -2.98776 0
M  V30 11362 C 1073.93 -3.50483 -2.79044 0
M  V30 11363 C 1075.68 -1.95798 -3.76648 0
M  V30 11364 C 1073.58 -4.28505 -4.076 0
M  V30 11365 H 1072.51 -0.425987 -0.622135 0
M  V30 11366 H 1075.16 -1.52844 -1.01543 0
M  V30 11367 H 1073.55 -1.55447 -3.64214 0
M  V30 11368 H 1074.72 -4.03636 -2.22293 0
M  V30 11369 H 1073.04 -3.5685 -2.14586 0
M  V30 11370 H 1075.63 -2.51359 -4.71935 0
M  V30 11371 H 1075.98 -0.934455 -4.05677 0
M  V30 11372 H 1076.51 -2.38965 -3.18026 0
M  V30 11373 H 1073.25 -5.31433 -3.83744 0
M  V30 11374 H 1072.77 -3.80125 -4.63966 0
M  V30 11375 H 1074.45 -4.3836 -4.75867 0
M  V30 11376 N 1074.58 1.12322 -1.10551 0
M  V30 11377 C 1075.54 2.16273 -0.758844 0
M  V30 11378 C 1076.54 1.59325 0.217294 0
M  V30 11379 O 1077.73 1.74199 -0.00601346 0
M  V30 11380 C 1074.86 3.40674 -0.124238 0
M  V30 11381 H 1076.06 2.48454 -1.6796 0
M  V30 11382 H 1073.61 1.2735 -0.906188 0
M  V30 11383 H 1074.34 3.14094 0.807194 0
M  V30 11384 H 1074.13 3.83284 -0.826772 0
M  V30 11385 H 1075.62 4.17474 0.102502 0
M  V30 11386 N 1076.06 0.894434 1.2976 0
M  V30 11387 C 1077.28 0.532916 1.99919 0
M  V30 11388 C 1077.7 -0.881022 1.66983 0
M  V30 11389 O 1077.06 -1.58076 0.912035 0
M  V30 11390 C 1077.11 0.70936 3.54472 0
M  V30 11391 O 1076.83 2.06764 3.86239 0
M  V30 11392 C 1078.33 0.352089 4.419 0
M  V30 11393 H 1075.55 0.205019 0.638912 0
M  V30 11394 H 1078.09 1.20233 1.65421 0
M  V30 11395 H 1076.25 0.0871901 3.87302 0
M  V30 11396 H 1076.66 2.09315 4.80924 0
M  V30 11397 H 1078.14 0.526405 5.49484 0
M  V30 11398 H 1078.61 -0.710527 4.33415 0
M  V30 11399 H 1079.22 0.950979 4.14532 0
M  V30 11400 N 1077.53 -1.43282 0.656365 0
M  V30 11401 C 1078.46 -2.33492 -0.0196962 0
M  V30 11402 C 1079.45 -1.49647 -0.80868 0
M  V30 11403 O 1080.63 -1.78303 -0.769529 0
M  V30 11404 C 1077.76 -3.33052 -0.984574 0
M  V30 11405 C 1076.71 -4.26908 -0.305483 0
M  V30 11406 C 1076.04 -5.16531 -1.38202 0
M  V30 11407 C 1077.34 -5.16073 0.804081 0
M  V30 11408 H 1079.03 -2.90272 0.733661 0
M  V30 11409 H 1076.58 -1.39574 0.354259 0
M  V30 11410 H 1078.53 -3.9506 -1.46647 0
M  V30 11411 H 1077.26 -2.74535 -1.76913 0
M  V30 11412 H 1075.92 -3.66268 0.155995 0
M  V30 11413 H 1075.56 -4.54351 -2.1581 0
M  V30 11414 H 1075.26 -5.80148 -0.932878 0
M  V30 11415 H 1076.79 -5.81414 -1.86522 0
M  V30 11416 H 1078.2 -5.71873 0.404212 0
M  V30 11417 H 1076.6 -5.88427 1.17789 0
M  V30 11418 H 1077.67 -4.55574 1.66073 0
M  V30 11419 N 1079.01 -0.398486 -1.52479 0
M  V30 11420 C 1079.95 0.467426 -2.24383 0
M  V30 11421 C 1080.96 1.01908 -1.26959 0
M  V30 11422 O 1082.15 0.919843 -1.52974 0
M  V30 11423 C 1079.25 1.66146 -2.95379 0
M  V30 11424 C 1078.42 1.23557 -4.19586 0
M  V30 11425 C 1077.48 2.29532 -4.73499 0
M  V30 11426 O 1076.51 1.90561 -5.36354 0
M  V30 11427 N 1077.71 3.61564 -4.5415 0
M  V30 11428 H 1080.47 -0.148653 -2.99331 0
M  V30 11429 H 1078.03 -0.225313 -1.60325 0
M  V30 11430 H 1080.03 2.36585 -3.28344 0
M  V30 11431 H 1078.6 2.18369 -2.23682 0
M  V30 11432 H 1077.82 0.359715 -3.92555 0
M  V30 11433 H 1079.1 0.927812 -5.00269 0
M  V30 11434 H 1078.5 3.95983 -4.03998 0
M  V30 11435 H 1077.06 4.2801 -4.9158 0
M  V30 11436 N 1080.49 1.57075 -0.12858 0
M  V30 11437 C 1081.42 2.12907 0.848708 0
M  V30 11438 C 1082.44 1.07406 1.22343 0
M  V30 11439 O 1083.63 1.34746 1.17071 0
M  V30 11440 C 1080.73 2.62167 2.1476 0
M  V30 11441 C 1079.9 3.91871 1.94309 0
M  V30 11442 C 1078.96 4.26629 3.08016 0
M  V30 11443 O 1077.98 4.9528 2.80511 0
M  V30 11444 N 1079.19 3.84721 4.34706 0
M  V30 11445 H 1081.95 2.97387 0.371636 0
M  V30 11446 H 1079.51 1.61805 0.0555574 0
M  V30 11447 H 1081.5 2.82444 2.89841 0
M  V30 11448 H 1080.07 1.82514 2.53786 0
M  V30 11449 H 1079.29 3.80406 1.03367 0
M  V30 11450 H 1080.58 4.76662 1.77962 0
M  V30 11451 H 1079.98 3.2937 4.59926 0
M  V30 11452 H 1078.54 4.10087 5.06628 0
M  V30 11453 N 1081.97 -0.145205 1.5693 0
M  V30 11454 C 1082.93 -1.16316 1.97492 0
M  V30 11455 C 1083.93 -1.35764 0.861668 0
M  V30 11456 O 1085.12 -1.32726 1.12825 0
M  V30 11457 C 1082.25 -2.52311 2.29242 0
M  V30 11458 H 1083.45 -0.815138 2.8861 0
M  V30 11459 H 1081 -0.38861 1.51392 0
M  V30 11460 H 1081.74 -2.92081 1.40922 0
M  V30 11461 H 1081.52 -2.39555 3.10412 0
M  V30 11462 H 1083.01 -3.25624 2.61456 0
M  V30 11463 N 1083.45 -1.52049 -0.414609 0
M  V30 11464 C 1084.41 -1.74382 -1.4874 0
M  V30 11465 C 1085.41 -0.613701 -1.48628 0
M  V30 11466 O 1086.6 -0.88152 -1.50249 0
M  V30 11467 C 1083.73 -1.82116 -2.88178 0
M  V30 11468 H 1084.93 -2.70147 -1.30233 0
M  V30 11469 H 1082.48 -1.42382 -0.644756 0
M  V30 11470 H 1083.21 -0.882457 -3.12063 0
M  V30 11471 H 1083 -2.64268 -2.89663 0
M  V30 11472 H 1084.49 -2.01155 -3.65959 0
M  V30 11473 N 1084.93 0.6715 -1.42579 0
M  V30 11474 C 1085.89 1.76676 -1.46008 0
M  V30 11475 C 1086.89 1.57007 -0.347213 0
M  V30 11476 O 1088.08 1.63238 -0.608185 0
M  V30 11477 C 1085.21 3.15348 -1.29494 0
M  V30 11478 H 1086.4 1.75021 -2.43531 0
M  V30 11479 H 1083.96 0.881444 -1.29075 0
M  V30 11480 H 1084.69 3.22626 -0.32906 0
M  V30 11481 H 1084.48 3.31028 -2.10149 0
M  V30 11482 H 1085.97 3.95251 -1.34784 0
M  V30 11483 N 1086.4 1.28806 0.908124 0
M  V30 11484 C 1087.34 1.07538 2.01273 0
M  V30 11485 C 1088.31 -0.0102454 1.62597 0
M  V30 11486 O 1089.5 0.138797 1.87988 0
M  V30 11487 C 1086.63 0.635337 3.32688 0
M  V30 11488 C 1085.67 1.71843 3.90349 0
M  V30 11489 S 1086.5 3.31571 4.20501 0
M  V30 11490 C 1087.66 2.89416 5.54968 0
M  V30 11491 H 1087.89 2.01058 2.19005 0
M  V30 11492 H 1085.43 1.12857 1.05369 0
M  V30 11493 H 1087.38 0.388159 4.08661 0
M  V30 11494 H 1086.05 -0.280122 3.12848 0
M  V30 11495 H 1085.24 1.36228 4.8524 0
M  V30 11496 H 1084.84 1.91869 3.21033 0
M  V30 11497 H 1087.13 2.35936 6.35091 0
M  V30 11498 H 1088.08 3.83126 5.955 0
M  V30 11499 H 1088.48 2.27962 5.16424 0
M  V30 11500 N 1087.88 -1.11734 1.11145 0
M  V30 11501 C 1089.11 -1.87755 0.881062 0
M  V30 11502 C 1089.53 -1.79461 -0.563496 0
M  V30 11503 O 1088.89 -1.15481 -1.39763 0
M  V30 11504 C 1088.94 -3.34641 1.34342 0
M  V30 11505 O 1088.04 -4.09195 0.513157 0
M  V30 11506 H 1087.38 -0.583111 0.317613 0
M  V30 11507 H 1089.91 -1.41256 1.48013 0
M  V30 11508 H 1089.92 -3.85486 1.33658 0
M  V30 11509 H 1088.6 -3.39994 2.39534 0
M  V30 11510 H 1087.17 -3.68269 0.585833 0
M  V30 11511 N 1089.36 -0.901303 -1.29284 0
M  V30 11512 C 1090.61 -0.528043 -1.95494 0
M  V30 11513 C 1090.93 0.92597 -1.71044 0
M  V30 11514 O 1090.19 1.67185 -1.01723 0
M  V30 11515 C 1090.49 -0.768828 -3.49033 0
M  V30 11516 C 1090.15 -2.20045 -3.93562 0
M  V30 11517 C 1088.82 -2.59189 -4.05431 0
M  V30 11518 C 1091.17 -3.13266 -4.1655 0
M  V30 11519 C 1088.5 -3.90733 -4.37658 0
M  V30 11520 C 1090.85 -4.4436 -4.50252 0
M  V30 11521 C 1089.51 -4.83375 -4.60331 0
M  V30 11522 H 1088.78 -0.193225 -0.715364 0
M  V30 11523 H 1091.43 -1.14027 -1.53851 0
M  V30 11524 H 1089.73 -0.0736997 -3.91731 0
M  V30 11525 H 1091.43 -0.459384 -3.9836 0
M  V30 11526 H 1088.02 -1.88666 -3.84842 0
M  V30 11527 H 1092.21 -2.84237 -4.06845 0
M  V30 11528 H 1087.46 -4.2068 -4.43665 0
M  V30 11529 H 1091.64 -5.16618 -4.66989 0
M  V30 11530 H 1089.26 -5.8534 -4.85058 0
M  V30 11531 N 1090.84 1.42931 -0.663954 0
M  V30 11532 C 1092.08 2.03557 -0.185479 0
M  V30 11533 C 1092.44 1.51309 1.18193 0
M  V30 11534 O 1093.64 2.03649 1.75444 0
M  V30 11535 C 1091.91 3.56802 -0.206705 0
M  V30 11536 S 1093.47 4.38333 0.202356 0
M  V30 11537 H 1090.29 0.706791 -0.0772523 0
M  V30 11538 H 1092.89 1.74841 -0.874688 0
M  V30 11539 H 1091.6 3.92328 -1.20445 0
M  V30 11540 H 1091.13 3.90175 0.502693 0
M  V30 11541 H 1093.14 4.7489 1.43853 0
M  V30 11542 N 1092.32 0.406567 1.52266 0
M  V30 11543 C 1093.73 -0.063607 1.86592 0
M  V30 11544 C 1094.08 -1.4466 1.32544 0
M  V30 11545 O 1093.2 -2.05971 0.663692 0
M  V30 11546 C 1093.8 -0.122198 3.3858 0
M  V30 11547 C 1092.36 -0.536701 3.72554 0
M  V30 11548 C 1091.5 0.290422 2.75775 0
M  V30 11549 H 1094.45 0.623738 1.45929 0
M  V30 11550 H 1094.48 -0.937964 3.68758 0
M  V30 11551 H 1093.99 0.884495 3.77887 0
M  V30 11552 H 1092.09 -1.55013 3.38824 0
M  V30 11553 H 1092.2 -0.282867 4.78264 0
M  V30 11554 H 1090.57 -0.246864 2.53501 0
M  V30 11555 H 1091.35 1.29541 3.17921 0
M  V30 11556 N 1093.79 -1.57004 0.136909 0
M  V30 11557 C 1094.73 -2.13355 -0.837405 0
M  V30 11558 C 1095.74 -1.08053 -1.21772 0
M  V30 11559 O 1096.93 -1.35365 -1.16355 0
M  V30 11560 C 1094.03 -2.63302 -2.13366 0
M  V30 11561 C 1093.2 -3.92896 -1.92228 0
M  V30 11562 C 1092.26 -4.28257 -3.05749 0
M  V30 11563 O 1091.29 -4.96761 -2.7788 0
M  V30 11564 N 1092.49 -3.87021 -4.3266 0
M  V30 11565 H 1095.25 -2.9758 -0.35586 0
M  V30 11566 H 1092.81 -1.61832 -0.0469758 0
M  V30 11567 H 1094.81 -2.83977 -2.88339 0
M  V30 11568 H 1093.38 -1.83858 -2.52814 0
M  V30 11569 H 1092.6 -3.80949 -1.01349 0
M  V30 11570 H 1093.88 -4.776 -1.75431 0
M  V30 11571 H 1093.28 -3.31804 -4.58173 0
M  V30 11572 H 1091.84 -4.12768 -5.04446 0
M  V30 11573 N 1095.27 0.136881 -1.57004 0
M  V30 11574 C 1096.52 0.849031 -1.84172 0
M  V30 11575 C 1096.85 1.80359 -0.720027 0
M  V30 11576 O 1096.13 1.92538 0.275584 0
M  V30 11577 C 1096.41 1.61465 -3.21871 0
M  V30 11578 C 1096.26 0.680902 -4.44616 0
M  V30 11579 C 1097.58 2.57488 -3.56914 0
M  V30 11580 H 1094.7 0.307209 -0.669919 0
M  V30 11581 H 1097.34 0.113862 -1.89659 0
M  V30 11582 H 1095.49 2.24137 -3.17325 0
M  V30 11583 H 1097.16 0.0644094 -4.61255 0
M  V30 11584 H 1095.41 -0.00883629 -4.33799 0
M  V30 11585 H 1096.08 1.25286 -5.37594 0
M  V30 11586 H 1098.55 2.0493 -3.62136 0
M  V30 11587 H 1097.43 3.08101 -4.54274 0
M  V30 11588 H 1097.69 3.39321 -2.83397 0
M  V30 11589 N 1096.75 1.52266 0.40654 0
M  V30 11590 C 1097.71 1.75168 1.47814 0
M  V30 11591 C 1098.71 0.621575 1.48301 0
M  V30 11592 O 1099.9 0.889476 1.4978 0
M  V30 11593 C 1097.04 1.83642 2.87208 0
M  V30 11594 H 1098.23 2.70834 1.28798 0
M  V30 11595 H 1095.78 1.42722 0.637196 0
M  V30 11596 H 1096.52 0.898994 3.1159 0
M  V30 11597 H 1096.3 2.65801 2.88257 0
M  V30 11598 H 1097.79 2.03093 3.64888 0
M  V30 11599 N 1098.23 -0.663929 1.42933 0
M  V30 11600 C 1099.64 -0.978346 1.26097 0
M  V30 11601 C 1099.84 -2.00756 0.172968 0
M  V30 11602 O 1098.9 -2.48418 -0.452184 0
M  V30 11603 C 1100.21 -1.4728 2.62162 0
M  V30 11604 C 1101.76 -1.59001 2.69606 0
M  V30 11605 C 1102.24 -2.1184 4.06064 0
M  V30 11606 N 1103.73 -2.19158 4.08074 0
M  V30 11607 C 1104.46 -2.61141 5.10483 0
M  V30 11608 N 1103.96 -3.02498 6.23271 0
M  V30 11609 N 1105.75 -2.60986 4.97838 0
M  V30 11610 H 1097.9 0.0173096 2.12393 0
M  V30 11611 H 1100.17 -0.0548116 0.946414 0
M  V30 11612 H 1099.87 -0.791008 3.42689 0
M  V30 11613 H 1099.75 -2.4497 2.86827 0
M  V30 11614 H 1102.13 -2.26284 1.89418 0
M  V30 11615 H 1102.21 -0.597728 2.48718 0
M  V30 11616 H 1101.86 -1.45162 4.86714 0
M  V30 11617 H 1101.79 -3.1188 4.2431 0
M  V30 11618 H 1104.28 -1.90013 3.26655 0
M  V30 11619 H 1104.59 -3.33251 6.97254 0
M  V30 11620 H 1102.94 -3.00328 6.2676 0
M  V30 11621 H 1106.13 -2.28046 4.08794 0
M  V30 11622 H 1106.3 -2.93384 5.7778 0
M  V30 11623 N 1099.71 -1.29285 -0.901281 0
M  V30 11624 C 1101.12 -1.15499 -1.46686 0
M  V30 11625 C 1101.47 0.250446 -1.94595 0
M  V30 11626 O 1100.59 1.14581 -1.83576 0
M  V30 11627 C 1101.19 -2.0906 -2.66607 0
M  V30 11628 C 1099.75 -1.99301 -3.19306 0
M  V30 11629 C 1098.89 -2.00079 -1.91999 0
M  V30 11630 H 1101.85 -1.41793 -0.712773 0
M  V30 11631 H 1101.87 -1.6619 -3.42288 0
M  V30 11632 H 1101.38 -3.11341 -2.31707 0
M  V30 11633 H 1099.48 -1.00103 -3.58901 0
M  V30 11634 H 1099.59 -2.86885 -3.8371 0
M  V30 11635 H 1097.96 -1.44655 -2.09636 0
M  V30 11636 H 1098.74 -3.04061 -1.59379 0
M  V30 11637 N 1101.18 1.11143 -1.11736 0
M  V30 11638 C 1102.11 2.19339 -0.800795 0
M  V30 11639 C 1103.1 1.68508 0.23221 0
M  V30 11640 O 1104.28 1.93967 0.0950063 0
M  V30 11641 C 1101.41 3.46424 -0.246579 0
M  V30 11642 C 1100.36 4.10487 -1.21181 0
M  V30 11643 C 1099.69 5.32183 -0.518158 0
M  V30 11644 C 1100.99 4.55052 -2.56368 0
M  V30 11645 H 1102.68 2.46077 -1.70548 0
M  V30 11646 H 1100.23 1.18271 -0.821454 0
M  V30 11647 H 1102.18 4.21398 -0.0128889 0
M  V30 11648 H 1100.91 3.19154 0.693415 0
M  V30 11649 H 1099.57 3.3751 -1.43118 0
M  V30 11650 H 1099.21 5.01187 0.426742 0
M  V30 11651 H 1098.91 5.75997 -1.16196 0
M  V30 11652 H 1100.44 6.09895 -0.293333 0
M  V30 11653 H 1101.85 5.21335 -2.38501 0
M  V30 11654 H 1100.25 5.0969 -3.16758 0
M  V30 11655 H 1101.32 3.68343 -3.1536 0
M  V30 11656 N 1102.66 0.908147 1.28804 0
M  V30 11657 C 1103.91 0.539201 1.95501 0
M  V30 11658 C 1104.24 -0.913759 1.7136 0
M  V30 11659 O 1103.52 -1.64904 1.03136 0
M  V30 11660 C 1103.8 0.842372 3.50109 0
M  V30 11661 C 1103.65 2.34765 3.83673 0
M  V30 11662 C 1104.97 0.334658 4.38826 0
M  V30 11663 H 1102.09 0.197373 0.71008 0
M  V30 11664 H 1104.73 1.13637 1.52272 0
M  V30 11665 H 1102.88 0.334143 3.8706 0
M  V30 11666 H 1104.55 2.92607 3.56621 0
M  V30 11667 H 1102.8 2.80494 3.30916 0
M  V30 11668 H 1103.47 2.51034 4.91616 0
M  V30 11669 H 1105.94 0.769961 4.08914 0
M  V30 11670 H 1104.82 0.575914 5.4587 0
M  V30 11671 H 1105.08 -0.764878 4.35433 0
M  V30 11672 N 1104.14 -1.42577 0.671525 0
M  V30 11673 C 1105.39 -2.01185 0.192051 0
M  V30 11674 C 1105.71 -1.53349 -1.20454 0
M  V30 11675 O 1104.98 -0.753781 -1.80817 0
M  V30 11676 H 1103.56 -0.743898 0.0680106 0
M  V30 11677 H 1106.22 -1.74539 0.8673 0
M  V30 11678 H 1105.32 -3.11516 0.190796 0
M  V30 11679 N 1105.62 -0.414636 -1.52048 0
M  V30 11680 C 1107.03 0.0537107 -1.86623 0
M  V30 11681 C 1107.38 1.43955 -1.3331 0
M  V30 11682 O 1106.51 2.05616 -0.674606 0
M  V30 11683 C 1107.1 0.104241 -3.3864 0
M  V30 11684 C 1105.66 0.516936 -3.72833 0
M  V30 11685 C 1104.81 -0.305042 -2.75617 0
M  V30 11686 H 1107.76 -0.631469 -1.45596 0
M  V30 11687 H 1107.78 0.918395 -3.6925 0
M  V30 11688 H 1107.29 -0.904523 -3.77412 0
M  V30 11689 H 1105.39 1.53214 -3.39641 0
M  V30 11690 H 1105.5 0.2575 -4.78408 0
M  V30 11691 H 1103.87 0.233416 -2.53628 0
M  V30 11692 H 1104.65 -1.31226 -3.1723 0
M  V30 11693 N 1107.1 1.56929 -0.145233 0
M  V30 11694 C 1108.03 2.19685 0.791263 0
M  V30 11695 C 1109.01 1.14455 1.25833 0
M  V30 11696 O 1110.19 1.42791 1.31622 0
M  V30 11697 C 1107.32 2.81705 2.03124 0
M  V30 11698 C 1106.28 3.92746 1.70101 0
M  V30 11699 C 1105.6 4.41694 3.01347 0
M  V30 11700 C 1106.9 5.13606 0.949025 0
M  V30 11701 H 1108.6 2.98196 0.26825 0
M  V30 11702 H 1106.14 1.43434 0.127584 0
M  V30 11703 H 1108.1 3.24273 2.69119 0
M  V30 11704 H 1106.82 2.00523 2.57795 0
M  V30 11705 H 1105.48 3.50794 1.06486 0
M  V30 11706 H 1105.13 3.57336 3.54006 0
M  V30 11707 H 1104.83 5.1659 2.80016 0
M  V30 11708 H 1106.35 4.86931 3.68416 0
M  V30 11709 H 1107.76 5.53029 1.51102 0
M  V30 11710 H 1106.16 5.94252 0.835711 0
M  V30 11711 H 1107.23 4.84863 -0.0595631 0
M  V30 11712 N 1108.58 -0.128553 1.57075 0
M  V30 11713 C 1109.54 -1.14215 1.98715 0
M  V30 11714 C 1110.54 -1.34843 0.876019 0
M  V30 11715 O 1111.73 -1.31522 1.14227 0
M  V30 11716 C 1108.86 -2.49865 2.31905 0
M  V30 11717 H 1110.05 -0.784481 2.89458 0
M  V30 11718 H 1107.61 -0.372531 1.51796 0
M  V30 11719 H 1108.34 -2.9057 1.44012 0
M  V30 11720 H 1108.13 -2.3625 3.12935 0
M  V30 11721 H 1109.62 -3.22832 2.64895 0
M  V30 11722 N 1110.05 -1.5248 -0.398459 0
M  V30 11723 C 1110.98 -1.79549 -1.49279 0
M  V30 11724 C 1111.96 -0.647004 -1.57315 0
M  V30 11725 O 1113.15 -0.893661 -1.72416 0
M  V30 11726 C 1110.28 -1.95582 -2.86993 0
M  V30 11727 C 1109.23 -3.1123 -2.93803 0
M  V30 11728 C 1108.56 -3.12501 -4.33874 0
M  V30 11729 C 1109.86 -4.50485 -2.64312 0
M  V30 11730 H 1111.55 -2.71187 -1.26877 0
M  V30 11731 H 1109.1 -1.30492 -0.608924 0
M  V30 11732 H 1111.05 -2.13102 -3.63546 0
M  V30 11733 H 1109.78 -1.00625 -3.10712 0
M  V30 11734 H 1108.44 -2.93477 -2.19697 0
M  V30 11735 H 1108.08 -2.15245 -4.54619 0
M  V30 11736 H 1107.78 -3.90183 -4.39353 0
M  V30 11737 H 1109.31 -3.32164 -5.12347 0
M  V30 11738 H 1110.72 -4.68387 -3.30585 0
M  V30 11739 H 1109.12 -5.30163 -2.81153 0
M  V30 11740 H 1110.19 -4.57848 -1.59696 0
M  V30 11741 N 1111.53 0.65634 -1.43283 0
M  V30 11742 C 1112.78 1.41347 -1.44449 0
M  V30 11743 C 1113.1 1.94879 -0.0687217 0
M  V30 11744 O 1112.37 1.74235 0.895492 0
M  V30 11745 H 1110.95 0.524578 -0.531815 0
M  V30 11746 H 1113.61 0.774292 -1.7886 0
M  V30 11747 H 1112.71 2.25737 -2.15521 0
M  V30 11748 N 1113.01 1.29761 0.894412 0
M  V30 11749 C 1114.23 1.21064 1.68399 0
M  V30 11750 C 1114.66 -0.224608 1.86754 0
M  V30 11751 O 1114.02 -1.16199 1.39167 0
M  V30 11752 C 1114.07 1.93468 3.04306 0
M  V30 11753 O 1113.17 1.25533 3.9283 0
M  V30 11754 H 1112.51 0.419223 0.514925 0
M  V30 11755 H 1115.04 1.71421 1.11696 0
M  V30 11756 H 1115.05 2.02127 3.54413 0
M  V30 11757 H 1113.73 2.97857 2.90265 0
M  V30 11758 H 1112.3 1.25168 3.51266 0
M  V30 11759 N 1114.49 -1.10549 1.12324 0
M  V30 11760 C 1115.9 -1.63991 0.892402 0
M  V30 11761 C 1116.25 -1.87631 -0.573506 0
M  V30 11762 O 1115.37 -1.6174 -1.43768 0
M  V30 11763 C 1115.97 -2.97914 1.61347 0
M  V30 11764 C 1114.53 -3.48227 1.42881 0
M  V30 11765 C 1113.68 -2.22857 1.65015 0
M  V30 11766 H 1116.63 -0.94065 1.27818 0
M  V30 11767 H 1116.65 -3.65326 1.06382 0
M  V30 11768 H 1116.16 -2.80677 2.68034 0
M  V30 11769 H 1114.26 -3.70611 0.384441 0
M  V30 11770 H 1114.37 -4.26419 2.18413 0
M  V30 11771 H 1112.74 -2.30941 1.07417 0
M  V30 11772 H 1113.52 -2.08152 2.72997 0
M  V30 11773 N 1115.97 -0.914965 -1.28321 0
M  V30 11774 C 1117.38 -0.613297 -1.47346 0
M  V30 11775 C 1117.58 0.84106 -1.83108 0
M  V30 11776 O 1116.64 1.62004 -1.93678 0
M  V30 11777 C 1117.95 -1.55224 -2.57538 0
M  V30 11778 C 1119.5 -1.55909 -2.71407 0
M  V30 11779 C 1119.97 -2.48468 -3.84744 0
M  V30 11780 N 1121.46 -2.46602 -3.92099 0
M  V30 11781 C 1122.2 -3.14917 -4.79182 0
M  V30 11782 N 1121.7 -3.92566 -5.70845 0
M  V30 11783 N 1123.49 -3.03998 -4.72802 0
M  V30 11784 H 1115.64 -1.85539 -1.03388 0
M  V30 11785 H 1117.9 -0.795875 -0.515061 0
M  V30 11786 H 1117.61 -2.58917 -2.38023 0
M  V30 11787 H 1117.48 -1.28426 -3.54664 0
M  V30 11788 H 1119.87 -0.52953 -2.9031 0
M  V30 11789 H 1119.95 -1.86751 -1.74808 0
M  V30 11790 H 1119.59 -3.51526 -3.66595 0
M  V30 11791 H 1119.52 -2.14928 -4.80743 0
M  V30 11792 H 1122.02 -1.90199 -3.26547 0
M  V30 11793 H 1122.33 -4.41709 -6.34123 0
M  V30 11794 H 1120.67 -3.96671 -5.70681 0
M  V30 11795 H 1123.86 -2.42839 -4.00184 0
M  V30 11796 H 1124.04 -3.57511 -5.40454 0
M  V30 11797 N 1117.44 1.42219 -0.679077 0
M  V30 11798 C 1118.37 2.33493 -0.0174528 0
M  V30 11799 C 1119.35 1.50915 0.78477 0
M  V30 11800 O 1120.54 1.79504 0.741065 0
M  V30 11801 C 1117.67 3.34576 0.931463 0
M  V30 11802 C 1116.62 4.2734 0.237527 0
M  V30 11803 C 1115.95 5.18664 1.29967 0
M  V30 11804 C 1117.25 5.14729 -0.886082 0
M  V30 11805 H 1118.94 2.89068 -0.779748 0
M  V30 11806 H 1116.49 1.38993 -0.376419 0
M  V30 11807 H 1118.44 3.97343 1.40343 0
M  V30 11808 H 1117.17 2.77315 1.72523 0
M  V30 11809 H 1115.83 3.65973 -0.214245 0
M  V30 11810 H 1115.47 4.57727 2.08554 0
M  V30 11811 H 1115.17 5.81558 0.840463 0
M  V30 11812 H 1116.7 5.84308 1.77249 0
M  V30 11813 H 1118.11 5.71158 -0.495141 0
M  V30 11814 H 1116.51 5.86478 -1.27135 0
M  V30 11815 H 1117.58 4.52874 -1.733 0
M  V30 11816 N 1118.92 0.422693 1.51826 0
M  V30 11817 C 1120.17 -0.148861 2.02253 0
M  V30 11818 C 1120.5 -1.43629 1.30707 0
M  V30 11819 O 1119.78 -1.89967 0.417482 0
M  V30 11820 C 1120.06 -0.382672 3.58061 0
M  V30 11821 C 1119.91 0.922386 4.40241 0
M  V30 11822 C 1121.23 -1.1589 4.24567 0
M  V30 11823 H 1118.35 -0.0526279 0.735119 0
M  V30 11824 H 1120.99 0.558821 1.81596 0
M  V30 11825 H 1119.14 -0.985495 3.75793 0
M  V30 11826 H 1120.81 1.55806 4.34191 0
M  V30 11827 H 1119.06 1.53032 4.05911 0
M  V30 11828 H 1119.73 0.713012 5.47376 0
M  V30 11829 H 1122.2 -0.648415 4.11017 0
M  V30 11830 H 1121.08 -1.29125 5.33496 0
M  V30 11831 H 1121.34 -2.18315 3.84436 0
M  V30 11832 N 1120.4 -1.5685 0.153553 0
M  V30 11833 C 1121.82 -1.58306 -0.202801 0
M  V30 11834 C 1122.02 -1.16813 -1.64186 0
M  V30 11835 O 1121.07 -0.871468 -2.36985 0
M  V30 11836 C 1122.38 -3.00636 0.0619012 0
M  V30 11837 C 1123.93 -3.13 -0.00129219 0
M  V30 11838 C 1124.41 -4.57391 0.236164 0
M  V30 11839 N 1125.9 -4.62837 0.18332 0
M  V30 11840 C 1126.63 -5.72382 0.341471 0
M  V30 11841 N 1126.13 -6.90552 0.557704 0
M  V30 11842 N 1127.92 -5.61409 0.278615 0
M  V30 11843 H 1120.07 -1.82113 1.09309 0
M  V30 11844 H 1122.34 -0.843228 0.433209 0
M  V30 11845 H 1122.04 -3.35406 1.0581 0
M  V30 11846 H 1121.92 -3.71477 -0.654555 0
M  V30 11847 H 1124.3 -2.78068 -0.98805 0
M  V30 11848 H 1124.38 -2.44632 0.747596 0
M  V30 11849 H 1124.03 -4.93029 1.22005 0
M  V30 11850 H 1123.96 -5.23894 -0.533125 0
M  V30 11851 H 1126.45 -3.77894 0.0211138 0
M  V30 11852 H 1126.76 -7.69905 0.66831 0
M  V30 11853 H 1125.11 -6.92456 0.594105 0
M  V30 11854 H 1128.3 -4.6797 0.110401 0
M  V30 11855 H 1128.47 -6.46731 0.4053 0
M  V30 11856 N 1121.88 0.120221 -1.57141 0
M  V30 11857 C 1123.29 0.473718 -1.52408 0
M  V30 11858 C 1123.49 1.81925 -0.866354 0
M  V30 11859 O 1122.55 2.48491 -0.448173 0
M  V30 11860 C 1123.86 0.459338 -2.97171 0
M  V30 11861 C 1125.41 0.542975 -3.08254 0
M  V30 11862 C 1125.89 0.558996 -4.54576 0
M  V30 11863 N 1127.38 0.620469 -4.59026 0
M  V30 11864 C 1128.11 0.654292 -5.69655 0
M  V30 11865 N 1127.61 0.645835 -6.89783 0
M  V30 11866 N 1129.4 0.697208 -5.57759 0
M  V30 11867 H 1121.55 -0.76142 -1.98283 0
M  V30 11868 H 1123.81 -0.280736 -0.905479 0
M  V30 11869 H 1123.52 -0.461654 -3.48657 0
M  V30 11870 H 1123.39 1.28759 -3.54543 0
M  V30 11871 H 1125.78 1.45439 -2.56772 0
M  V30 11872 H 1125.86 -0.312936 -2.53879 0
M  V30 11873 H 1125.51 -0.348367 -5.06704 0
M  V30 11874 H 1125.44 1.43177 -5.06762 0
M  V30 11875 H 1127.93 0.633218 -3.72557 0
M  V30 11876 H 1128.24 0.674233 -7.69853 0
M  V30 11877 H 1126.59 0.613279 -6.92289 0
M  V30 11878 H 1129.78 0.70117 -4.62819 0
M  V30 11879 H 1129.95 0.7201 -6.43986 0
M  V30 11880 N 1123.36 1.52689 0.390367 0
M  V30 11881 C 1124.77 1.59623 0.968366 0
M  V30 11882 C 1125.12 0.44824 1.91011 0
M  V30 11883 O 1124.24 -0.428868 2.12108 0
M  V30 11884 C 1124.84 2.89312 1.76306 0
M  V30 11885 C 1123.4 2.98664 2.29079 0
M  V30 11886 C 1122.54 2.54725 1.09593 0
M  V30 11887 H 1125.5 1.57787 0.169959 0
M  V30 11888 H 1125.52 2.75721 2.62217 0
M  V30 11889 H 1125.03 3.72846 1.07738 0
M  V30 11890 H 1123.13 2.19665 3.00962 0
M  V30 11891 H 1123.24 4.03277 2.58659 0
M  V30 11892 H 1121.61 2.09012 1.45554 0
M  V30 11893 H 1122.39 3.40651 0.425625 0
M  V30 11894 N 1124.83 -0.648732 1.43629 0
M  V30 11895 C 1126.25 -1.23001 1.40455 0
M  V30 11896 C 1126.6 -1.95886 0.110897 0
M  V30 11897 O 1125.72 -2.01485 -0.789487 0
M  V30 11898 C 1126.32 -2.23716 2.54434 0
M  V30 11899 C 1124.88 -2.77311 2.54511 0
M  V30 11900 C 1124.02 -1.52024 2.31914 0
M  V30 11901 H 1126.97 -0.440473 1.52465 0
M  V30 11902 H 1126.99 -3.05979 2.26179 0
M  V30 11903 H 1126.51 -1.7064 3.48574 0
M  V30 11904 H 1124.61 -3.34437 1.64263 0
M  V30 11905 H 1124.72 -3.2455 3.52426 0
M  V30 11906 H 1123.08 -1.79531 1.80667 0
M  V30 11907 H 1123.87 -1.00876 3.28145 0
M  V30 11908 N 1126.31 -1.30234 -0.887518 0
M  V30 11909 C 1127.72 -1.17048 -1.45453 0
M  V30 11910 C 1128.07 0.229793 -1.9485 0
M  V30 11911 O 1127.2 1.12628 -1.84781 0
M  V30 11912 C 1127.79 -2.11876 -2.64375 0
M  V30 11913 C 1126.35 -2.02676 -3.17174 0
M  V30 11914 C 1125.5 -2.02104 -1.89866 0
M  V30 11915 H 1128.45 -1.42541 -0.697694 0
M  V30 11916 H 1128.47 -1.69811 -3.40506 0
M  V30 11917 H 1127.98 -3.13781 -2.28392 0
M  V30 11918 H 1126.09 -1.03904 -3.57819 0
M  V30 11919 H 1126.2 -2.90939 -3.80646 0
M  V30 11920 H 1124.56 -1.4687 -2.0809 0
M  V30 11921 H 1125.35 -3.05735 -1.56145 0
M  V30 11922 N 1127.79 1.09952 -1.12909 0
M  V30 11923 C 1129.04 1.81657 -0.885729 0
M  V30 11924 C 1129.36 1.85863 0.589913 0
M  V30 11925 O 1128.63 1.34028 1.42875 0
M  V30 11926 H 1127.21 0.672743 -0.324694 0
M  V30 11927 H 1129.87 1.33013 -1.42456 0
M  V30 11928 H 1128.97 2.85018 -1.27167 0
M  V30 11929 N 1129.27 0.921757 1.27833 0
M  V30 11930 C 1130.68 0.604496 1.76643 0
M  V30 11931 C 1131.03 -0.880294 1.75343 0
M  V30 11932 O 1130.16 -1.68875 1.35315 0
M  V30 11933 C 1130.75 1.09055 3.20768 0
M  V30 11934 C 1129.31 0.824066 3.67268 0
M  V30 11935 C 1128.46 1.25269 2.47392 0
M  V30 11936 H 1131.41 1.10217 1.14184 0
M  V30 11937 H 1131.43 0.435558 3.77999 0
M  V30 11938 H 1130.94 2.17122 3.21682 0
M  V30 11939 H 1129.04 -0.243055 3.71806 0
M  V30 11940 H 1129.15 1.43743 4.57028 0
M  V30 11941 H 1127.52 0.671313 2.45694 0
M  V30 11942 H 1128.3 2.34188 2.5102 0
M  V30 11943 N 1130.75 -1.41857 0.686609 0
M  V30 11944 C 1131.71 -2.29187 0.0247022 0
M  V30 11945 C 1132.71 -1.43926 -0.717069 0
M  V30 11946 O 1133.9 -1.65179 -0.5533 0
M  V30 11947 C 1131.03 -3.26644 -0.975537 0
M  V30 11948 H 1132.22 -2.89212 0.793503 0
M  V30 11949 H 1129.78 -1.49694 0.449605 0
M  V30 11950 H 1130.51 -2.7158 -1.77242 0
M  V30 11951 H 1130.3 -3.89545 -0.446892 0
M  V30 11952 H 1131.79 -3.92107 -1.43673 0
M  V30 11953 N 1132.22 -0.430739 -1.51599 0
M  V30 11954 C 1133.64 0.0339139 -1.86669 0
M  V30 11955 C 1133.99 1.42533 -1.34829 0
M  V30 11956 O 1133.11 2.04889 -0.696376 0
M  V30 11957 C 1133.71 0.0683174 -3.38731 0
M  V30 11958 C 1132.27 0.477363 -3.73361 0
M  V30 11959 C 1131.41 -0.334258 -2.75278 0
M  V30 11960 H 1134.36 -0.646875 -1.44918 0
M  V30 11961 H 1134.38 0.879179 -3.70204 0
M  V30 11962 H 1133.9 -0.944501 -3.76432 0
M  V30 11963 H 1132 1.49603 -3.41247 0
M  V30 11964 H 1132.11 0.206744 -4.78654 0
M  V30 11965 H 1130.47 0.206503 -2.53861 0
M  V30 11966 H 1131.26 -1.34583 -3.1582 0
M  V30 11967 N 1133.7 1.56767 -0.161869 0
M  V30 11968 C 1134.67 2.16299 0.758104 0
M  V30 11969 C 1135.67 1.10859 1.16478 0
M  V30 11970 O 1136.86 1.36422 1.08327 0
M  V30 11971 C 1133.99 2.73819 2.03067 0
M  V30 11972 H 1135.18 2.98938 0.239992 0
M  V30 11973 H 1132.73 1.56054 0.0876532 0
M  V30 11974 H 1133.47 1.94887 2.59209 0
M  V30 11975 H 1133.25 3.50974 1.74813 0
M  V30 11976 H 1134.74 3.19638 2.68741 0
M  V30 11977 N 1135.18 -0.111886 1.57202 0
M  V30 11978 C 1136.14 -1.12101 1.99915 0
M  V30 11979 C 1137.14 -1.33906 0.890272 0
M  V30 11980 O 1138.33 -1.30303 1.15615 0
M  V30 11981 C 1135.47 -2.47392 2.34543 0
M  V30 11982 H 1136.66 -0.753736 2.90274 0
M  V30 11983 H 1134.21 -0.35641 1.52182 0
M  V30 11984 H 1134.95 -2.89026 1.47086 0
M  V30 11985 H 1134.73 -2.32917 3.15423 0
M  V30 11986 H 1136.22 -3.20004 2.68304 0
M  V30 11987 N 1136.66 -1.52894 -0.382264 0
M  V30 11988 C 1137.62 -1.77497 -1.45008 0
M  V30 11989 C 1138.62 -0.64509 -1.47293 0
M  V30 11990 O 1139.81 -0.913192 -1.48346 0
M  V30 11991 C 1136.94 -1.88188 -2.8425 0
M  V30 11992 H 1138.14 -2.72849 -1.24473 0
M  V30 11993 H 1135.69 -1.43717 -0.61441 0
M  V30 11994 H 1136.42 -0.948451 -3.10121 0
M  V30 11995 H 1136.21 -2.70353 -2.83992 0
M  V30 11996 H 1137.7 -2.08873 -3.6161 0
M  V30 11997 N 1138.14 0.641106 -1.43971 0
M  V30 11998 C 1139.36 1.43324 -1.4991 0
M  V30 11999 C 1139.79 1.87705 -0.121908 0
M  V30 12000 O 1139.15 1.58127 0.886875 0
M  V30 12001 C 1139.19 2.63637 -2.46025 0
M  V30 12002 O 1138.3 3.63123 -1.95488 0
M  V30 12003 H 1137.64 0.429252 -0.506595 0
M  V30 12004 H 1140.17 0.783427 -1.89007 0
M  V30 12005 H 1140.18 3.11304 -2.63731 0
M  V30 12006 H 1138.85 2.30678 -3.46064 0
M  V30 12007 H 1137.43 3.22332 -1.87501 0
M  V30 12008 N 1139.62 1.30703 0.880598 0
M  V30 12009 C 1141.03 1.17818 1.4483 0
M  V30 12010 C 1141.38 -0.219456 1.94969 0
M  V30 12011 O 1140.5 -1.11646 1.85375 0
M  V30 12012 C 1141.1 2.13275 2.63247 0
M  V30 12013 C 1139.66 2.04356 3.16094 0
M  V30 12014 C 1138.8 2.03108 1.88792 0
M  V30 12015 H 1141.75 1.42909 0.690125 0
M  V30 12016 H 1141.78 1.71615 3.39601 0
M  V30 12017 H 1141.29 3.14988 2.26725 0
M  V30 12018 H 1139.39 1.058 3.57263 0
M  V30 12019 H 1139.5 2.92953 3.79098 0
M  V30 12020 H 1137.87 1.47971 2.07308 0
M  V30 12021 H 1138.65 3.06558 1.54521 0
M  V30 12022 N 1141.09 -1.09351 1.1349 0
M  V30 12023 C 1142.34 -1.81185 0.89535 0
M  V30 12024 C 1142.66 -1.86173 -0.580048 0
M  V30 12025 O 1141.93 -1.34784 -1.42162 0
M  V30 12026 H 1140.51 -0.671011 0.328257 0
M  V30 12027 H 1143.17 -1.32255 1.43159 0
M  V30 12028 H 1142.27 -2.84339 1.28676 0
M  V30 12029 N 1142.57 -0.928524 -1.27343 0
M  V30 12030 C 1143.98 -0.613856 -1.7632 0
M  V30 12031 C 1144.33 0.870983 -1.75808 0
M  V30 12032 O 1143.46 1.68155 -1.36209 0
M  V30 12033 C 1144.05 -1.10755 -3.20186 0
M  V30 12034 C 1142.61 -0.843532 -3.66826 0
M  V30 12035 C 1141.76 -1.26579 -2.46724 0
M  V30 12036 H 1144.71 -1.10821 -1.13598 0
M  V30 12037 H 1144.73 -0.455598 -3.77763 0
M  V30 12038 H 1144.24 -2.18825 -3.20526 0
M  V30 12039 H 1142.34 0.223334 -3.7193 0
M  V30 12040 H 1142.46 -1.46165 -4.56259 0
M  V30 12041 H 1140.82 -0.684334 -2.45334 0
M  V30 12042 H 1141.6 -2.35516 -2.49774 0
M  V30 12043 N 1144.05 1.41491 -0.694123 0
M  V30 12044 C 1145.46 1.84283 -0.299439 0
M  V30 12045 C 1145.81 1.58081 1.16211 0
M  V30 12046 O 1144.94 1.05051 1.89191 0
M  V30 12047 C 1145.53 3.34522 -0.536696 0
M  V30 12048 C 1144.09 3.7589 -0.195944 0
M  V30 12049 C 1143.24 2.64908 -0.819692 0
M  V30 12050 H 1146.19 1.31063 -0.894884 0
M  V30 12051 H 1146.21 3.79947 0.205062 0
M  V30 12052 H 1145.72 3.53561 -1.6005 0
M  V30 12053 H 1143.82 3.62452 0.863655 0
M  V30 12054 H 1143.94 4.74671 -0.649954 0
M  V30 12055 H 1142.3 2.53476 -0.249412 0
M  V30 12056 H 1143.08 2.86765 -1.88734 0
M  V30 12057 N 1145.53 0.438773 1.51369 0
M  V30 12058 C 1146.94 -0.0240139 1.86685 0
M  V30 12059 C 1147.29 -1.41816 1.35583 0
M  V30 12060 O 1146.41 -2.04517 0.707232 0
M  V30 12061 C 1147.01 -0.0503527 3.38763 0
M  V30 12062 C 1145.57 -0.457556 3.73609 0
M  V30 12063 C 1144.72 0.348852 2.75097 0
M  V30 12064 H 1147.67 0.654552 1.44573 0
M  V30 12065 H 1147.69 -0.859534 3.70665 0
M  V30 12066 H 1147.2 0.964451 3.75925 0
M  V30 12067 H 1145.3 -1.47791 3.42036 0
M  V30 12068 H 1145.41 -0.181357 4.78757 0
M  V30 12069 H 1143.78 -0.193037 2.53967 0
M  V30 12070 H 1144.56 1.36256 3.15102 0
M  V30 12071 N 1147.01 -1.56678 0.170181 0
M  V30 12072 C 1148.42 -1.83452 -0.346742 0
M  V30 12073 C 1148.77 -1.08993 -1.63141 0
M  V30 12074 O 1147.89 -0.342607 -2.13671 0
M  V30 12075 C 1148.49 -3.32779 -0.635882 0
M  V30 12076 C 1147.05 -3.60052 -1.09725 0
M  V30 12077 C 1146.19 -2.76983 -0.132516 0
M  V30 12078 H 1149.14 -1.53719 0.394465 0
M  V30 12079 H 1149.17 -3.50195 -1.48806 0
M  V30 12080 H 1148.68 -3.86944 0.299291 0
M  V30 12081 H 1146.78 -3.11297 -2.04756 0
M  V30 12082 H 1146.89 -4.68393 -1.00719 0
M  V30 12083 H 1145.26 -2.46794 -0.62966 0
M  V30 12084 H 1146.04 -3.33929 0.796658 0
M  V30 12085 N 1148.48 0.103547 -1.57259 0
M  V30 12086 C 1149.45 1.11039 -2.00507 0
M  V30 12087 C 1150.45 1.33432 -0.897361 0
M  V30 12088 O 1151.64 1.29688 -1.16304 0
M  V30 12089 C 1148.77 2.46144 -2.35851 0
M  V30 12090 H 1149.96 0.738332 -2.90669 0
M  V30 12091 H 1147.51 0.348334 -1.52369 0
M  V30 12092 H 1148.25 2.88242 -1.48617 0
M  V30 12093 H 1148.03 2.31241 -3.16654 0
M  V30 12094 H 1149.52 3.18577 -2.69997 0
M  V30 12095 N 1149.96 1.53094 0.37415 0
M  V30 12096 C 1151.19 1.73061 1.143 0
M  V30 12097 C 1151.61 0.454611 1.82524 0
M  V30 12098 O 1150.97 -0.590743 1.71406 0
M  V30 12099 C 1151.02 2.89086 2.15549 0
M  V30 12100 O 1150.12 2.57096 3.22452 0
M  V30 12101 H 1149.46 0.575009 0.332055 0
M  V30 12102 H 1151.99 1.99946 0.433897 0
M  V30 12103 H 1152 3.15007 2.59296 0
M  V30 12104 H 1150.68 3.81647 1.65283 0
M  V30 12105 H 1149.25 2.41965 2.83738 0
M  V30 12106 N 1151.44 -0.633461 1.44309 0
M  V30 12107 C 1152.85 -1.21504 1.41752 0
M  V30 12108 C 1153.2 -1.95758 0.131667 0
M  V30 12109 O 1152.33 -2.02311 -0.768072 0
M  V30 12110 C 1152.92 -2.21005 2.56792 0
M  V30 12111 C 1151.48 -2.74596 2.57438 0
M  V30 12112 C 1150.63 -1.49555 2.33513 0
M  V30 12113 H 1153.58 -0.424277 1.52923 0
M  V30 12114 H 1153.6 -3.03563 2.29412 0
M  V30 12115 H 1153.11 -1.66934 3.50364 0
M  V30 12116 H 1151.21 -3.32676 1.67801 0
M  V30 12117 H 1151.33 -3.20794 3.55849 0
M  V30 12118 H 1149.69 -1.77605 1.82561 0
M  V30 12119 H 1150.47 -0.973899 3.29196 0
M  V30 12120 N 1152.92 -1.31168 -0.873655 0
M  V30 12121 C 1154.33 -1.18584 -1.44203 0
M  V30 12122 C 1154.68 0.209114 -1.95082 0
M  V30 12123 O 1153.81 1.10662 -1.85965 0
M  V30 12124 C 1154.4 -2.14668 -2.62112 0
M  V30 12125 C 1152.96 -2.06029 -3.15006 0
M  V30 12126 C 1152.11 -2.04106 -1.87712 0
M  V30 12127 H 1155.06 -1.43273 -0.682536 0
M  V30 12128 H 1155.08 -1.73413 -3.38686 0
M  V30 12129 H 1154.59 -3.16186 -2.25051 0
M  V30 12130 H 1152.69 -1.07693 -3.56697 0
M  V30 12131 H 1152.8 -2.9496 -3.77539 0
M  V30 12132 H 1151.17 -1.49069 -2.0652 0
M  V30 12133 H 1151.95 -3.07373 -1.52894 0
M  V30 12134 N 1154.4 1.08748 -1.14068 0
M  V30 12135 C 1155.64 1.80707 -0.904947 0
M  V30 12136 C 1155.97 1.86478 0.570167 0
M  V30 12137 O 1155.24 1.35536 1.41445 0
M  V30 12138 H 1153.82 0.669261 -0.331811 0
M  V30 12139 H 1156.48 1.31494 -1.43859 0
M  V30 12140 H 1155.57 2.83653 -1.30182 0
M  V30 12141 N 1155.87 0.935264 1.26849 0
M  V30 12142 C 1156.84 0.44485 2.24842 0
M  V30 12143 C 1157.84 -0.440781 1.54641 0
M  V30 12144 O 1159.03 -0.240793 1.72528 0
M  V30 12145 C 1156.16 -0.359566 3.38998 0
M  V30 12146 H 1157.35 1.31074 2.6974 0
M  V30 12147 H 1154.91 0.716665 1.38901 0
M  V30 12148 H 1155.64 -1.24396 2.99493 0
M  V30 12149 H 1155.43 0.275529 3.91131 0
M  V30 12150 H 1156.92 -0.692804 4.11813 0
M  V30 12151 N 1157.35 -1.41121 0.701616 0
M  V30 12152 C 1158.76 -1.84122 0.309208 0
M  V30 12153 C 1159.11 -1.58695 -1.15371 0
M  V30 12154 O 1158.24 -1.06053 -1.88631 0
M  V30 12155 C 1158.83 -3.34233 0.554429 0
M  V30 12156 C 1157.39 -3.7578 0.215876 0
M  V30 12157 C 1156.54 -2.6447 0.833729 0
M  V30 12158 H 1159.49 -1.30587 0.901822 0
M  V30 12159 H 1159.51 -3.8005 -0.18491 0
M  V30 12160 H 1159.02 -3.52707 1.61923 0
M  V30 12161 H 1157.13 -3.62905 -0.844421 0
M  V30 12162 H 1157.24 -4.74319 0.675118 0
M  V30 12163 H 1155.6 -2.5334 0.262851 0
M  V30 12164 H 1156.39 -2.85761 1.90252 0
M  V30 12165 N 1158.83 -0.446794 -1.51134 0
M  V30 12166 C 1159.79 0.348311 -2.26538 0
M  V30 12167 C 1160.79 0.941566 -1.3035 0
M  V30 12168 O 1161.98 0.814537 -1.53984 0
M  V30 12169 C 1159.12 1.49371 -3.06433 0
M  V30 12170 H 1160.31 -0.312648 -2.98266 0
M  V30 12171 H 1157.86 -0.200201 -1.55013 0
M  V30 12172 H 1158.6 2.19045 -2.39144 0
M  V30 12173 H 1158.38 1.07439 -3.77093 0
M  V30 12174 H 1159.87 2.05522 -3.63525 0
M  V30 12175 N 1160.31 1.56586 -0.178487 0
M  V30 12176 C 1161.53 2.01915 0.473841 0
M  V30 12177 C 1161.96 1.05789 1.55533 0
M  V30 12178 O 1161.32 0.0386018 1.81259 0
M  V30 12179 C 1161.36 3.45799 1.02251 0
M  V30 12180 O 1160.47 3.52761 2.1362 0
M  V30 12181 H 1159.81 0.654372 0.112666 0
M  V30 12182 H 1162.34 2.02613 -0.284486 0
M  V30 12183 H 1162.35 3.85252 1.34332 0
M  V30 12184 H 1161.02 4.1526 0.230719 0
M  V30 12185 H 1159.6 3.25172 1.8253 0
M  V30 12186 N 1161.79 -0.095206 1.57312 0
M  V30 12187 C 1163.2 -0.649733 1.7503 0
M  V30 12188 C 1163.55 -1.7912 0.800652 0
M  V30 12189 O 1162.67 -2.1639 -0.0208831 0
M  V30 12190 C 1163.27 -1.18541 3.17386 0
M  V30 12191 C 1161.83 -1.686 3.36528 0
M  V30 12192 C 1160.97 -0.595531 2.7083 0
M  V30 12193 H 1163.93 0.130863 1.5816 0
M  V30 12194 H 1163.95 -2.05473 3.20252 0
M  V30 12195 H 1163.46 -0.35441 3.86478 0
M  V30 12196 H 1161.56 -2.541 2.72514 0
M  V30 12197 H 1161.67 -1.77907 4.44844 0
M  V30 12198 H 1160.04 -1.03495 2.32725 0
M  V30 12199 H 1160.82 0.224883 3.42563 0
M  V30 12200 N 1163.26 -1.53291 -0.366026 0
M  V30 12201 C 1164.68 -1.43053 -0.707669 0
M  V30 12202 C 1164.88 -0.56925 -1.93292 0
M  V30 12203 O 1163.94 -0.0515214 -2.52447 0
M  V30 12204 C 1165.25 -2.86239 -0.921292 0
M  V30 12205 C 1166.8 -2.95868 -1.02133 0
M  V30 12206 C 1167.27 -4.40114 -1.26743 0
M  V30 12207 N 1168.76 -4.43541 -1.33514 0
M  V30 12208 C 1169.5 -5.52259 -1.54264 0
M  V30 12209 N 1168.99 -6.71024 -1.72335 0
M  V30 12210 N 1170.79 -5.39836 -1.5663 0
M  V30 12211 H 1162.94 -2.07795 0.43988 0
M  V30 12212 H 1165.2 -0.938376 0.134736 0
M  V30 12213 H 1164.91 -3.51578 -0.0928042 0
M  V30 12214 H 1164.78 -3.29862 -1.82951 0
M  V30 12215 H 1167.17 -2.30683 -1.84036 0
M  V30 12216 H 1167.25 -2.5564 -0.0905097 0
M  V30 12217 H 1166.89 -5.05872 -0.453409 0
M  V30 12218 H 1166.82 -4.77914 -2.21146 0
M  V30 12219 H 1169.31 -3.57949 -1.21165 0
M  V30 12220 H 1169.63 -7.49649 -1.8774 0
M  V30 12221 H 1167.97 -6.7401 -1.69514 0
M  V30 12222 H 1171.16 -4.46017 -1.4208 0
M  V30 12223 H 1171.34 -6.24629 -1.72461 0
M  V30 12224 N 1164.74 0.6258 -1.44643 0
M  V30 12225 C 1165.71 1.71941 -1.51555 0
M  V30 12226 C 1166.71 1.55822 -0.396988 0
M  V30 12227 O 1167.9 1.61221 -0.65981 0
M  V30 12228 C 1165.03 3.11068 -1.39461 0
M  V30 12229 H 1166.22 1.67185 -2.48976 0
M  V30 12230 H 1163.77 0.839934 -1.31814 0
M  V30 12231 H 1164.51 3.21416 -0.431534 0
M  V30 12232 H 1164.29 3.24175 -2.20574 0
M  V30 12233 H 1165.78 3.90762 -1.4729 0
M  V30 12234 N 1166.22 1.31629 0.866686 0
M  V30 12235 C 1167.63 1.19347 1.43573 0
M  V30 12236 C 1167.98 -0.198765 1.95191 0
M  V30 12237 O 1167.11 -1.09674 1.86549 0
M  V30 12238 C 1167.7 2.16055 2.6097 0
M  V30 12239 C 1166.26 2.07697 3.13909 0
M  V30 12240 C 1165.41 2.05099 1.86627 0
M  V30 12241 H 1168.36 1.43633 0.674929 0
M  V30 12242 H 1168.38 1.75207 3.37761 0
M  V30 12243 H 1167.89 3.17375 2.23371 0
M  V30 12244 H 1165.99 1.09583 3.56121 0
M  V30 12245 H 1166.11 2.96958 3.75969 0
M  V30 12246 H 1164.47 1.50162 2.05727 0
M  V30 12247 H 1165.25 3.0818 1.51261 0
M  V30 12248 N 1167.7 -1.08142 1.14644 0
M  V30 12249 C 1169.12 -1.32656 0.887388 0
M  V30 12250 C 1169.32 -1.95942 -0.470012 0
M  V30 12251 O 1168.37 -2.21417 -1.21371 0
M  V30 12252 C 1169.68 -2.22549 2.02219 0
M  V30 12253 C 1171.23 -2.36021 2.0558 0
M  V30 12254 C 1171.71 -3.29257 3.18361 0
M  V30 12255 N 1173.2 -3.36835 3.17957 0
M  V30 12256 C 1173.93 -4.09017 4.01862 0
M  V30 12257 N 1173.43 -4.83882 4.95812 0
M  V30 12258 N 1175.22 -4.04875 3.89913 0
M  V30 12259 H 1167.37 -0.654457 2.02066 0
M  V30 12260 H 1169.64 -0.350947 0.880648 0
M  V30 12261 H 1169.34 -1.83296 3.00159 0
M  V30 12262 H 1169.22 -3.23027 1.94765 0
M  V30 12263 H 1171.6 -2.74531 1.08245 0
M  V30 12264 H 1171.68 -1.35275 2.17105 0
M  V30 12265 H 1171.33 -2.91468 4.15944 0
M  V30 12266 H 1171.26 -4.29938 3.04074 0
M  V30 12267 H 1173.75 -2.83465 2.49912 0
M  V30 12268 H 1174.06 -5.3643 5.56294 0
M  V30 12269 H 1172.41 -4.82926 4.99808 0
M  V30 12270 H 1175.6 -3.45496 3.15833 0
M  V30 12271 H 1175.77 -4.60866 4.55529 0
M  V30 12272 N 1169.18 -0.941978 -1.26351 0
M  V30 12273 C 1170.41 -0.606748 -1.97803 0
M  V30 12274 C 1170.82 0.818441 -1.70138 0
M  V30 12275 O 1170.18 1.54583 -0.970076 0
M  V30 12276 C 1170.23 -0.840431 -3.51595 0
M  V30 12277 O 1169.95 -2.20957 -3.78299 0
M  V30 12278 C 1171.45 -0.515855 -4.40288 0
M  V30 12279 H 1168.67 -0.228591 -0.630862 0
M  V30 12280 H 1171.21 -1.2629 -1.60845 0
M  V30 12281 H 1169.37 -0.230875 -3.86711 0
M  V30 12282 H 1169.78 -2.2702 -4.72824 0
M  V30 12283 H 1171.26 -0.72998 -5.47152 0
M  V30 12284 H 1171.73 0.549178 -4.35753 0
M  V30 12285 H 1172.34 -1.10417 -4.10717 0
M  V30 12286 N 1170.66 1.40747 -0.709091 0
M  V30 12287 C 1171.88 2.05841 -0.253816 0
M  V30 12288 C 1172.31 1.53056 1.09341 0
M  V30 12289 O 1171.66 0.663181 1.68735 0
M  V30 12290 C 1171.71 3.59822 -0.236699 0
M  V30 12291 O 1170.82 4.04876 0.784168 0
M  V30 12292 H 1170.16 0.65295 -0.120631 0
M  V30 12293 H 1172.69 1.80266 -0.967749 0
M  V30 12294 H 1172.7 4.07936 -0.0721616 0
M  V30 12295 H 1171.37 3.97608 -1.21988 0
M  V30 12296 H 1169.95 3.68237 0.587884 0
M  V30 12297 N 1172.13 0.454803 1.50895 0
M  V30 12298 C 1173.54 -0.00421212 1.867 0
M  V30 12299 C 1173.9 -1.4037 1.3708 0
M  V30 12300 O 1173.02 -2.03755 0.728884 0
M  V30 12301 C 1173.62 -0.0144196 3.38797 0
M  V30 12302 C 1172.17 -0.417905 3.74073 0
M  V30 12303 C 1171.32 0.37801 2.74711 0
M  V30 12304 H 1174.27 0.669849 1.4387 0
M  V30 12305 H 1174.29 -0.820172 3.71555 0
M  V30 12306 H 1173.81 1.00427 3.74881 0
M  V30 12307 H 1171.91 -1.44155 3.43584 0
M  V30 12308 H 1172.02 -0.130568 4.78922 0
M  V30 12309 H 1170.38 -0.166089 2.54158 0
M  V30 12310 H 1171.17 1.3959 3.13639 0
M  V30 12311 N 1173.61 -1.56489 0.186789 0
M  V30 12312 C 1174.84 -2.01429 -0.459326 0
M  V30 12313 C 1175.25 -1.06611 -1.56303 0
M  V30 12314 O 1174.59 -0.0617053 -1.83596 0
M  V30 12315 C 1174.65 -3.42778 -1.08367 0
M  V30 12316 C 1174.32 -4.56843 -0.119719 0
M  V30 12317 C 1175.32 -5.15594 0.667782 0
M  V30 12318 C 1173 -5.02299 -0.0110494 0
M  V30 12319 C 1174.99 -6.18242 1.551 0
M  V30 12320 C 1172.68 -6.04793 0.875738 0
M  V30 12321 C 1173.68 -6.62637 1.65534 0
M  V30 12322 O 1173.37 -7.63141 2.52728 0
M  V30 12323 H 1173.1 -0.665175 -0.120492 0
M  V30 12324 H 1175.65 -2.03338 0.290283 0
M  V30 12325 H 1173.88 -3.3783 -1.8817 0
M  V30 12326 H 1175.57 -3.71577 -1.63357 0
M  V30 12327 H 1176.34 -4.81348 0.594085 0
M  V30 12328 H 1172.22 -4.56977 -0.607667 0
M  V30 12329 H 1175.76 -6.63319 2.15995 0
M  V30 12330 H 1171.66 -6.38462 0.950581 0
M  V30 12331 H 1172.43 -7.80527 2.46415 0
M  V30 12332 N 1175.09 0.086862 -1.5736 0
M  V30 12333 C 1176.34 0.787281 -1.86135 0
M  V30 12334 C 1176.66 1.78866 -0.776667 0
M  V30 12335 O 1175.93 1.94915 0.19625 0
M  V30 12336 H 1174.51 0.293744 -0.686821 0
M  V30 12337 H 1177.17 0.0665326 -1.94786 0
M  V30 12338 H 1176.27 1.3128 -2.83147 0
M  V30 12339 N 1176.57 1.53483 0.357892 0
M  V30 12340 C 1177.82 1.69701 1.09754 0
M  V30 12341 C 1178.14 0.455389 1.89608 0
M  V30 12342 O 1177.41 -0.530623 1.88577 0
M  V30 12343 H 1175.99 0.62562 0.408178 0
M  V30 12344 H 1178.65 1.90696 0.402641 0
M  V30 12345 H 1177.74 2.56154 1.78302 0
M  V30 12346 N 1178.05 -0.61812 1.44973 0
M  V30 12347 C 1178.98 -1.74035 1.55673 0
M  V30 12348 C 1179.96 -1.65112 0.4089 0
M  V30 12349 O 1181.14 -1.83673 0.630698 0
M  V30 12350 C 1178.27 -3.1261 1.51303 0
M  V30 12351 C 1177.23 -3.36334 2.64696 0
M  V30 12352 C 1176.55 -4.75072 2.45378 0
M  V30 12353 C 1177.85 -3.27618 4.06772 0
M  V30 12354 H 1179.55 -1.65336 2.49608 0
M  V30 12355 H 1177.09 -0.794003 1.20132 0
M  V30 12356 H 1179.04 -3.90906 1.57388 0
M  V30 12357 H 1177.77 -3.22123 0.538914 0
M  V30 12358 H 1176.43 -2.60423 2.58022 0
M  V30 12359 H 1176.08 -4.81306 1.46129 0
M  V30 12360 H 1175.78 -4.91903 3.21412 0
M  V30 12361 H 1177.3 -5.55582 2.53301 0
M  V30 12362 H 1178.71 -3.95802 4.14746 0
M  V30 12363 H 1177.11 -3.55981 4.83113 0
M  V30 12364 H 1178.18 -2.25219 4.29423 0
M  V30 12365 N 1179.52 -1.32087 -0.859693 0
M  V30 12366 C 1180.93 -1.20107 -1.42938 0
M  V30 12367 C 1181.29 0.188411 -1.95293 0
M  V30 12368 O 1180.41 1.08683 -1.87128 0
M  V30 12369 C 1181.01 -2.17436 -2.59821 0
M  V30 12370 C 1179.56 -2.09359 -3.12803 0
M  V30 12371 C 1178.71 -2.06086 -1.85537 0
M  V30 12372 H 1181.66 -1.43989 -0.667302 0
M  V30 12373 H 1181.68 -1.76996 -3.36828 0
M  V30 12374 H 1181.2 -3.18555 -2.21685 0
M  V30 12375 H 1179.3 -1.1147 -3.55535 0
M  V30 12376 H 1179.41 -2.98947 -3.74389 0
M  V30 12377 H 1177.77 -1.51251 -2.04928 0
M  V30 12378 H 1178.56 -3.08978 -1.49625 0
M  V30 12379 N 1181 1.07532 -1.15215 0
M  V30 12380 C 1181.96 2.1286 -0.84989 0
M  V30 12381 C 1182.96 1.60103 0.149524 0
M  V30 12382 O 1184.15 1.74017 -0.0798918 0
M  V30 12383 C 1181.29 3.3984 -0.268617 0
M  V30 12384 H 1182.48 2.41106 -1.78347 0
M  V30 12385 H 1180.03 1.23392 -0.959386 0
M  V30 12386 H 1180.77 3.17235 0.67325 0
M  V30 12387 H 1180.55 3.79433 -0.988592 0
M  V30 12388 H 1182.04 4.17533 -0.0746554 0
M  V30 12389 N 1182.48 0.948665 1.2585 0
M  V30 12390 C 1183.44 0.468673 2.24357 0
M  V30 12391 C 1184.44 -0.424355 1.551 0
M  V30 12392 O 1185.63 -0.222481 1.72773 0
M  V30 12393 C 1182.77 -0.32359 3.39361 0
M  V30 12394 H 1183.96 1.33928 2.68334 0
M  V30 12395 H 1181.51 0.731357 1.38133 0
M  V30 12396 H 1182.25 -1.21212 3.00796 0
M  V30 12397 H 1182.03 0.316998 3.90816 0
M  V30 12398 H 1183.52 -0.649087 4.12525 0
M  V30 12399 N 1183.96 -1.40369 0.716545 0
M  V30 12400 C 1185.37 -1.83783 0.328719 0
M  V30 12401 C 1185.72 -1.5991 -1.13681 0
M  V30 12402 O 1184.85 -1.08048 -1.87496 0
M  V30 12403 C 1185.44 -3.33626 0.589848 0
M  V30 12404 C 1184 -3.7553 0.25572 0
M  V30 12405 C 1183.15 -2.63571 0.861733 0
M  V30 12406 H 1186.1 -1.29623 0.915621 0
M  V30 12407 H 1186.12 -3.80225 -0.14459 0
M  V30 12408 H 1185.63 -3.5097 1.65655 0
M  V30 12409 H 1183.73 -3.63781 -0.805883 0
M  V30 12410 H 1183.84 -4.73577 0.725388 0
M  V30 12411 H 1182.21 -2.53047 0.289706 0
M  V30 12412 H 1182.99 -2.83727 1.93272 0
M  V30 12413 N 1185.44 -0.462799 -1.50652 0
M  V30 12414 C 1186.37 0.325724 -2.31217 0
M  V30 12415 C 1187.35 0.997942 -1.3775 0
M  V30 12416 O 1188.53 0.996707 -1.66671 0
M  V30 12417 C 1185.66 1.41283 -3.17264 0
M  V30 12418 C 1184.62 0.862687 -4.19216 0
M  V30 12419 C 1183.94 2.04746 -4.93946 0
M  V30 12420 C 1185.24 -0.120365 -5.22161 0
M  V30 12421 H 1186.94 -0.346666 -2.97386 0
M  V30 12422 H 1184.48 -0.168163 -1.43015 0
M  V30 12423 H 1186.44 1.97188 -3.72418 0
M  V30 12424 H 1185.16 2.11387 -2.48964 0
M  V30 12425 H 1183.82 0.325671 -3.65151 0
M  V30 12426 H 1183.47 2.73529 -4.22127 0
M  V30 12427 H 1183.17 1.68562 -5.62904 0
M  V30 12428 H 1184.69 2.61157 -5.51932 0
M  V30 12429 H 1186.1 0.349226 -5.72235 0
M  V30 12430 H 1184.5 -0.396061 -5.98792 0
M  V30 12431 H 1185.57 -1.04895 -4.73418 0
M  V30 12432 N 1186.91 1.56388 -0.195085 0
M  V30 12433 C 1187.88 2.17859 0.712053 0
M  V30 12434 C 1188.88 1.13304 1.141 0
M  V30 12435 O 1190.07 1.38689 1.05409 0
M  V30 12436 C 1187.2 2.78065 1.97213 0
M  V30 12437 H 1188.39 2.9938 0.176529 0
M  V30 12438 H 1185.95 1.56205 0.0545322 0
M  V30 12439 H 1186.68 2.00342 2.55017 0
M  V30 12440 H 1186.47 3.54603 1.67329 0
M  V30 12441 H 1187.96 3.25266 2.619 0
M  V30 12442 N 1188.39 -0.0785156 1.57404 0
M  V30 12443 C 1189.64 -0.777399 1.8655 0
M  V30 12444 C 1189.96 -1.78451 0.786142 0
M  V30 12445 O 1189.23 -1.95016 -0.185911 0
M  V30 12446 H 1187.81 -0.290097 0.688369 0
M  V30 12447 H 1190.47 -0.0562017 1.94819 0
M  V30 12448 H 1189.57 -1.29776 2.83839 0
M  V30 12449 N 1189.87 -1.5367 -0.349747 0
M  V30 12450 C 1191.28 -1.62135 -0.925704 0
M  V30 12451 C 1191.63 -0.498725 -1.89756 0
M  V30 12452 O 1190.76 0.372481 -2.1317 0
M  V30 12453 C 1191.35 -2.93885 -1.68573 0
M  V30 12454 C 1189.91 -3.04632 -2.2108 0
M  V30 12455 C 1189.06 -2.57541 -1.02801 0
M  V30 12456 H 1192.01 -1.58182 -0.128065 0
M  V30 12457 H 1192.03 -2.82577 -2.54815 0
M  V30 12458 H 1191.54 -3.75571 -0.978153 0
M  V30 12459 H 1189.64 -2.27567 -2.95032 0
M  V30 12460 H 1189.76 -4.09993 -2.47876 0
M  V30 12461 H 1188.12 -2.12798 -1.39962 0
M  V30 12462 H 1188.9 -3.4166 -0.335157 0
M  V30 12463 N 1191.35 0.610423 -1.45298 0
M  V30 12464 C 1192.31 1.70324 -1.5337 0
M  V30 12465 C 1193.31 1.55393 -0.413492 0
M  V30 12466 O 1194.5 1.60512 -0.676872 0
M  V30 12467 C 1191.63 3.09572 -1.42752 0
M  V30 12468 H 1192.83 1.64535 -2.50736 0
M  V30 12469 H 1190.38 0.825906 -1.32697 0
M  V30 12470 H 1191.11 3.2094 -0.465601 0
M  V30 12471 H 1190.9 3.21817 -2.24 0
M  V30 12472 H 1192.39 3.89178 -1.51427 0
M  V30 12473 N 1192.83 1.32541 0.852676 0
M  V30 12474 C 1193.76 1.24254 1.97694 0
M  V30 12475 C 1194.74 0.125971 1.69633 0
M  V30 12476 O 1195.92 0.31347 1.91653 0
M  V30 12477 C 1193.05 0.966874 3.3357 0
M  V30 12478 C 1192.01 2.0449 3.75989 0
M  V30 12479 C 1191.33 1.6216 5.09518 0
M  V30 12480 C 1192.63 3.46013 3.91244 0
M  V30 12481 H 1194.33 2.18317 2.04886 0
M  V30 12482 H 1191.87 1.05101 0.984371 0
M  V30 12483 H 1193.83 0.895444 4.11776 0
M  V30 12484 H 1192.55 -0.0093893 3.26599 0
M  V30 12485 H 1191.21 2.10651 3.00036 0
M  V30 12486 H 1190.86 0.632729 4.99005 0
M  V30 12487 H 1190.56 2.3429 5.38871 0
M  V30 12488 H 1192.08 1.56457 5.90215 0
M  V30 12489 H 1193.49 3.4243 4.59799 0
M  V30 12490 H 1191.89 4.1651 4.32017 0
M  V30 12491 H 1192.96 3.8553 2.941 0
M  V30 12492 N 1194.3 -1.0692 1.15784 0
M  V30 12493 C 1195.72 -1.61069 0.944123 0
M  V30 12494 C 1196.07 -1.8936 -0.513522 0
M  V30 12495 O 1195.19 -1.66232 -1.38549 0
M  V30 12496 C 1195.79 -2.9263 1.70743 0
M  V30 12497 C 1194.35 -3.43505 1.53887 0
M  V30 12498 C 1193.49 -2.17495 1.72021 0
M  V30 12499 H 1196.44 -0.89951 1.30746 0
M  V30 12500 H 1196.46 -3.61757 1.17951 0
M  V30 12501 H 1195.98 -2.72007 2.76828 0
M  V30 12502 H 1194.08 -3.69201 0.502153 0
M  V30 12503 H 1194.19 -4.19254 2.31868 0
M  V30 12504 H 1192.55 -2.27407 1.1471 0
M  V30 12505 H 1193.34 -1.99362 2.79481 0
M  V30 12506 N 1195.78 -0.955326 -1.25345 0
M  V30 12507 C 1196.75 -0.480564 -2.24105 0
M  V30 12508 C 1197.75 0.416123 -1.55322 0
M  V30 12509 O 1198.94 0.213315 -1.72889 0
M  V30 12510 C 1196.07 0.305589 -3.39528 0
M  V30 12511 H 1197.26 -1.35349 -2.6762 0
M  V30 12512 H 1194.81 -0.738673 -1.37744 0
M  V30 12513 H 1195.55 1.19615 -3.01434 0
M  V30 12514 H 1195.33 -0.337719 -3.90643 0
M  V30 12515 H 1196.82 0.627201 -4.12863 0
M  V30 12516 N 1197.26 1.39987 -0.723979 0
M  V30 12517 C 1198.68 1.54547 -0.398403 0
M  V30 12518 C 1198.88 1.69348 1.09194 0
M  V30 12519 O 1197.93 1.68778 1.87804 0
M  V30 12520 C 1199.25 2.76929 -1.1718 0
M  V30 12521 C 1200.79 2.90754 -1.15893 0
M  V30 12522 C 1201.27 4.16059 -1.91465 0
M  V30 12523 N 1202.76 4.23076 -1.88576 0
M  V30 12524 C 1203.5 5.18957 -2.43867 0
M  V30 12525 N 1202.99 6.20695 -3.0775 0
M  V30 12526 N 1204.78 5.11095 -2.33962 0
M  V30 12527 H 1196.94 1.28626 -1.69024 0
M  V30 12528 H 1199.2 0.6226 -0.714894 0
M  V30 12529 H 1198.9 2.72298 -2.22591 0
M  V30 12530 H 1198.78 3.69279 -0.768941 0
M  V30 12531 H 1201.17 2.94884 -0.112978 0
M  V30 12532 H 1201.25 1.99498 -1.60107 0
M  V30 12533 H 1200.89 4.12691 -2.96055 0
M  V30 12534 H 1200.82 5.06339 -1.44665 0
M  V30 12535 H 1203.31 3.50195 -1.42027 0
M  V30 12536 H 1203.62 6.90296 -3.47435 0
M  V30 12537 H 1201.97 6.21114 -3.11837 0
M  V30 12538 H 1205.16 4.30546 -1.83706 0
M  V30 12539 H 1205.33 5.85644 -2.77353 0
M  V30 12540 N 1198.74 0.470782 1.50404 0
M  V30 12541 C 1200.16 0.124919 1.5911 0
M  V30 12542 C 1200.36 -1.36855 1.47895 0
M  V30 12543 O 1199.41 -2.1418 1.33728 0
M  V30 12544 C 1200.72 0.674839 2.9303 0
M  V30 12545 C 1202.27 0.638239 3.06424 0
M  V30 12546 C 1202.75 1.1657 4.42917 0
M  V30 12547 N 1204.24 1.1251 4.49328 0
M  V30 12548 C 1204.97 1.50373 5.53331 0
M  V30 12549 N 1204.47 1.95684 6.6459 0
M  V30 12550 N 1206.26 1.41978 5.43874 0
M  V30 12551 H 1198.41 1.44212 1.55938 0
M  V30 12552 H 1200.68 0.596354 0.73693 0
M  V30 12553 H 1200.38 1.72106 3.06712 0
M  V30 12554 H 1200.26 0.118234 3.77015 0
M  V30 12555 H 1202.64 -0.399075 2.92389 0
M  V30 12556 H 1202.72 1.23164 2.24197 0
M  V30 12557 H 1202.37 2.20164 4.57701 0
M  V30 12558 H 1202.3 0.548513 5.23736 0
M  V30 12559 H 1204.79 0.79276 3.69491 0
M  V30 12560 H 1205.1 2.22724 7.40009 0
M  V30 12561 H 1203.45 1.99636 6.65711 0
M  V30 12562 H 1206.64 1.0642 4.55842 0
M  V30 12563 H 1206.81 1.71812 6.24808 0
M  V30 12564 N 1200.22 -1.56282 0.203376 0
M  V30 12565 C 1201.15 -2.2247 -0.709183 0
M  V30 12566 C 1202.13 -1.19046 -1.21499 0
M  V30 12567 O 1203.31 -1.47578 -1.26231 0
M  V30 12568 C 1200.44 -2.8905 -1.92529 0
M  V30 12569 C 1199.4 -3.98789 -1.55407 0
M  V30 12570 C 1198.72 -4.52574 -2.84747 0
M  V30 12571 C 1200.02 -5.16774 -0.75775 0
M  V30 12572 H 1201.72 -2.98986 -0.157392 0
M  V30 12573 H 1199.26 -1.43808 -0.0742613 0
M  V30 12574 H 1201.22 -3.34038 -2.56898 0
M  V30 12575 H 1199.94 -2.09952 -2.50175 0
M  V30 12576 H 1198.6 -3.54504 -0.933928 0
M  V30 12577 H 1198.25 -3.70229 -3.40499 0
M  V30 12578 H 1197.95 -5.26627 -2.6065 0
M  V30 12579 H 1199.47 -5.00269 -3.5009 0
M  V30 12580 H 1200.89 -5.58256 -1.30472 0
M  V30 12581 H 1199.28 -5.96945 -0.614583 0
M  V30 12582 H 1200.35 -4.84308 0.239476 0
M  V30 12583 N 1201.7 0.070167 -1.57444 0
M  V30 12584 C 1202.92 0.785703 -1.91941 0
M  V30 12585 C 1203.35 1.70243 -0.799932 0
M  V30 12586 O 1202.7 1.79608 0.247139 0
M  V30 12587 C 1202.75 1.55398 -3.25398 0
M  V30 12588 O 1201.86 2.66475 -3.14746 0
M  V30 12589 H 1201.2 0.214245 -0.628486 0
M  V30 12590 H 1203.73 0.0379243 -2.04565 0
M  V30 12591 H 1203.74 1.93287 -3.5931 0
M  V30 12592 H 1202.41 0.881366 -4.06454 0
M  V30 12593 H 1200.99 2.3143 -2.92394 0
M  V30 12594 N 1203.17 1.53854 0.341593 0
M  V30 12595 C 1204.59 1.44161 0.684821 0
M  V30 12596 C 1204.79 0.599929 1.92362 0
M  V30 12597 O 1203.85 0.0916771 2.52334 0
M  V30 12598 C 1205.16 2.87668 0.875637 0
M  V30 12599 C 1206.71 2.97455 0.974131 0
M  V30 12600 C 1207.18 4.42075 1.19725 0
M  V30 12601 N 1208.67 4.45609 1.2644 0
M  V30 12602 C 1209.41 5.54643 1.45459 0
M  V30 12603 N 1208.9 6.7368 1.61637 0
M  V30 12604 N 1210.7 5.4226 1.48022 0
M  V30 12605 H 1202.85 2.07069 -0.472883 0
M  V30 12606 H 1205.11 0.936114 -0.149648 0
M  V30 12607 H 1204.82 3.51681 0.0368595 0
M  V30 12608 H 1204.69 3.32731 1.7768 0
M  V30 12609 H 1207.08 2.33582 1.80343 0
M  V30 12610 H 1207.16 2.55751 0.0498282 0
M  V30 12611 H 1206.8 5.06529 0.372872 0
M  V30 12612 H 1206.73 4.81372 2.13515 0
M  V30 12613 H 1209.22 3.59831 1.15455 0
M  V30 12614 H 1209.54 7.52541 1.7579 0
M  V30 12615 H 1207.88 6.76622 1.5877 0
M  V30 12616 H 1211.07 4.48221 1.34966 0
M  V30 12617 H 1211.25 6.27293 1.62502 0
M  V30 12618 N 1204.65 -0.602709 1.4562 0
M  V30 12619 C 1205.61 -1.69508 1.54271 0
M  V30 12620 C 1206.61 -1.55171 0.421727 0
M  V30 12621 O 1207.8 -1.60151 0.685375 0
M  V30 12622 C 1204.94 -3.0881 1.44392 0
M  V30 12623 H 1206.13 -1.63203 2.51605 0
M  V30 12624 H 1203.68 -0.818857 1.33133 0
M  V30 12625 H 1204.42 -3.20689 0.482614 0
M  V30 12626 H 1204.2 -3.20625 2.25704 0
M  V30 12627 H 1205.69 -3.8837 1.53488 0
M  V30 12628 N 1206.13 -1.32992 -0.845635 0
M  V30 12629 C 1207.35 -1.27231 -1.6379 0
M  V30 12630 C 1207.78 0.155141 -1.87459 0
M  V30 12631 O 1207.14 1.10953 -1.43384 0
M  V30 12632 C 1207.19 -2.04629 -2.96916 0
M  V30 12633 O 1206.29 -1.40027 -3.879 0
M  V30 12634 H 1205.63 -0.438045 -0.499011 0
M  V30 12635 H 1208.16 -1.75448 -1.05257 0
M  V30 12636 H 1208.17 -2.15141 -3.46667 0
M  V30 12637 H 1206.85 -3.08425 -2.79011 0
M  V30 12638 H 1205.42 -1.38118 -3.46378 0
M  V30 12639 N 1207.61 1.06304 -1.1635 0
M  V30 12640 C 1209.02 1.31227 -0.90838 0
M  V30 12641 C 1209.22 1.96665 0.438779 0
M  V30 12642 O 1208.28 2.2332 1.17833 0
M  V30 12643 C 1209.59 2.19303 -2.05734 0
M  V30 12644 C 1211.14 2.3272 -2.09309 0
M  V30 12645 C 1211.62 3.24151 -3.23559 0
M  V30 12646 N 1213.11 3.31734 -3.23275 0
M  V30 12647 C 1213.84 4.02572 -4.08318 0
M  V30 12648 N 1213.34 4.75933 -5.03448 0
M  V30 12649 N 1215.13 3.98621 -3.96305 0
M  V30 12650 H 1207.28 0.622228 -2.03081 0
M  V30 12651 H 1209.54 0.336892 -0.886119 0
M  V30 12652 H 1209.25 1.78497 -3.03037 0
M  V30 12653 H 1209.12 3.19888 -1.99879 0
M  V30 12654 H 1211.51 2.72774 -1.12599 0
M  V30 12655 H 1211.59 1.31804 -2.19229 0
M  V30 12656 H 1211.24 2.84813 -4.20528 0
M  V30 12657 H 1211.17 4.25046 -3.10875 0
M  V30 12658 H 1213.66 2.79453 -2.5439 0
M  V30 12659 H 1213.97 5.27512 -5.64758 0
M  V30 12660 H 1212.32 4.74913 -5.07427 0
M  V30 12661 H 1215.51 3.40427 -3.21289 0
M  V30 12662 H 1215.68 4.5356 -4.62804 0
M  V30 12663 N 1209.09 0.96196 1.24836 0
M  V30 12664 C 1210.5 0.660388 1.7463 0
M  V30 12665 C 1210.85 -0.824064 1.78055 0
M  V30 12666 O 1209.97 -1.64485 1.40619 0
M  V30 12667 C 1210.57 1.19205 3.17137 0
M  V30 12668 C 1209.13 0.940493 3.64461 0
M  V30 12669 C 1208.27 1.33076 2.43282 0
M  V30 12670 H 1211.22 1.13794 1.1062 0
M  V30 12671 H 1211.25 0.555595 3.76422 0
M  V30 12672 H 1210.76 2.27247 3.14612 0
M  V30 12673 H 1208.86 -0.124645 3.72391 0
M  V30 12674 H 1208.97 1.5821 4.52224 0
M  V30 12675 H 1207.34 0.749139 2.43434 0
M  V30 12676 H 1208.12 2.42055 2.43442 0
M  V30 12677 N 1210.56 -1.39601 0.731392 0
M  V30 12678 C 1211.49 -2.33268 0.1041 0
M  V30 12679 C 1212.47 -1.53724 -0.728219 0
M  V30 12680 O 1213.66 -1.82131 -0.673933 0
M  V30 12681 C 1210.79 -3.37802 -0.806646 0
M  V30 12682 C 1209.74 -4.27928 -0.0787588 0
M  V30 12683 C 1209.07 -5.23131 -1.10628 0
M  V30 12684 C 1210.37 -5.11086 1.07651 0
M  V30 12685 H 1212.06 -2.85975 0.886496 0
M  V30 12686 H 1209.61 -1.375 0.427746 0
M  V30 12687 H 1211.56 -4.02278 -1.25499 0
M  V30 12688 H 1210.29 -2.83527 -1.62112 0
M  V30 12689 H 1208.95 -3.64926 0.349926 0
M  V30 12690 H 1208.59 -4.65152 -1.91422 0
M  V30 12691 H 1208.29 -5.84277 -0.624043 0
M  V30 12692 H 1209.82 -5.90483 -1.5544 0
M  V30 12693 H 1211.23 -5.68927 0.706781 0
M  V30 12694 H 1209.63 -5.81356 1.48814 0
M  V30 12695 H 1210.7 -4.46131 1.89988 0
M  V30 12696 N 1212.04 -0.478751 -1.50152 0
M  V30 12697 C 1213.27 0.0732929 -2.0727 0
M  V30 12698 C 1213.69 1.32066 -1.33941 0
M  V30 12699 O 1213.05 1.7707 -0.389367 0
M  V30 12700 C 1213.1 0.332528 -3.59064 0
M  V30 12701 O 1212.2 1.41158 -3.8749 0
M  V30 12702 H 1211.54 -0.0163684 -0.663798 0
M  V30 12703 H 1214.07 -0.671993 -1.9325 0
M  V30 12704 H 1214.08 0.570735 -4.03988 0
M  V30 12705 H 1212.76 -0.578934 -4.11851 0
M  V30 12706 H 1211.34 1.16008 -3.54396 0
M  V30 12707 N 1213.52 1.56172 -0.211661 0
M  V30 12708 C 1214.48 2.18602 0.688906 0
M  V30 12709 C 1215.48 1.14508 1.12892 0
M  V30 12710 O 1216.67 1.39799 1.03932 0
M  V30 12711 C 1213.81 2.80141 1.94253 0
M  V30 12712 H 1215 2.9955 0.144765 0
M  V30 12713 H 1212.55 1.56254 0.0379615 0
M  V30 12714 H 1213.29 2.03035 2.52878 0
M  V30 12715 H 1213.07 3.56358 1.63558 0
M  V30 12716 H 1214.56 3.28026 2.58436 0
M  V30 12717 N 1215 -0.0618163 1.57479 0
M  V30 12718 C 1216.22 -0.775513 1.92355 0
M  V30 12719 C 1216.65 -1.69816 0.808949 0
M  V30 12720 O 1216.01 -1.79736 -0.23761 0
M  V30 12721 C 1216.05 -1.5367 3.26218 0
M  V30 12722 O 1215.16 -2.64802 3.16155 0
M  V30 12723 H 1214.5 -0.210909 0.629614 0
M  V30 12724 H 1217.03 -0.0270752 2.04582 0
M  V30 12725 H 1217.04 -1.91379 3.6033 0
M  V30 12726 H 1215.71 -0.859798 4.06916 0
M  V30 12727 H 1214.29 -2.29876 2.93618 0
M  V30 12728 N 1216.48 -1.54033 -0.333429 0
M  V30 12729 C 1217.41 -1.79056 -1.43079 0
M  V30 12730 C 1218.42 -0.672176 -1.48276 0
M  V30 12731 O 1219.61 -0.949103 -1.51176 0
M  V30 12732 C 1216.71 -1.88443 -2.81678 0
M  V30 12733 C 1215.88 -3.18493 -2.99802 0
M  V30 12734 C 1214.94 -3.18708 -4.18702 0
M  V30 12735 O 1213.97 -3.92389 -4.12334 0
M  V30 12736 N 1215.17 -2.41792 -5.27747 0
M  V30 12737 H 1217.94 -2.73753 -1.21981 0
M  V30 12738 H 1215.5 -1.53207 -0.523365 0
M  V30 12739 H 1217.49 -1.86027 -3.59411 0
M  V30 12740 H 1216.06 -1.00887 -2.95872 0
M  V30 12741 H 1215.28 -3.33951 -2.09453 0
M  V30 12742 H 1216.57 -4.04376 -3.088 0
M  V30 12743 H 1215.96 -1.81501 -5.35793 0
M  V30 12744 H 1214.52 -2.45163 -6.03936 0
M  V30 12745 N 1217.95 0.594978 -1.45938 0
M  V30 12746 C 1219.37 1.17703 -1.44924 0
M  V30 12747 C 1219.72 1.9534 -0.183522 0
M  V30 12748 O 1218.84 2.04276 0.714163 0
M  V30 12749 C 1219.44 2.14119 -2.62561 0
M  V30 12750 C 1218 2.67674 -2.64627 0
M  V30 12751 C 1217.14 1.43312 -2.37397 0
M  V30 12752 H 1220.09 0.383583 -1.53995 0
M  V30 12753 H 1220.11 2.97374 -2.3738 0
M  V30 12754 H 1219.63 1.57586 -3.54667 0
M  V30 12755 H 1217.73 3.28111 -1.76562 0
M  V30 12756 H 1217.84 3.11246 -3.64229 0
M  V30 12757 H 1216.2 1.72702 -1.87206 0
M  V30 12758 H 1216.99 0.886276 -3.31663 0
M  V30 12759 N 1219.43 1.33438 0.838571 0
M  V30 12760 C 1220.66 1.28097 1.63113 0
M  V30 12761 C 1221.08 -0.145197 1.87539 0
M  V30 12762 O 1220.44 -1.10191 1.43971 0
M  V30 12763 C 1220.49 2.06201 2.95827 0
M  V30 12764 O 1219.59 1.42082 3.87152 0
M  V30 12765 H 1218.93 0.440685 0.496681 0
M  V30 12766 H 1221.46 1.76004 1.04325 0
M  V30 12767 H 1221.47 2.16977 3.45521 0
M  V30 12768 H 1220.15 3.099 2.77371 0
M  V30 12769 H 1218.73 1.39953 3.45641 0
M  V30 12770 N 1220.91 -1.05686 1.16912 0
M  V30 12771 C 1221.84 -2.15268 0.904532 0
M  V30 12772 C 1222.82 -1.69424 -0.151548 0
M  V30 12773 O 1224.01 -1.942 -0.00235371 0
M  V30 12774 C 1221.14 -3.44853 0.411581 0
M  V30 12775 C 1220.09 -4.04237 1.40628 0
M  V30 12776 C 1219.42 -5.29105 0.771479 0
M  V30 12777 C 1220.72 -4.42303 2.77787 0
M  V30 12778 H 1222.41 -2.37659 1.82094 0
M  V30 12779 H 1219.96 -1.14217 0.876947 0
M  V30 12780 H 1221.91 -4.20857 0.213929 0
M  V30 12781 H 1220.63 -3.22099 -0.540352 0
M  V30 12782 H 1219.29 -3.30297 1.59058 0
M  V30 12783 H 1218.94 -5.02652 -0.187133 0
M  V30 12784 H 1218.64 -5.69797 1.43545 0
M  V30 12785 H 1220.16 -6.07801 0.583988 0
M  V30 12786 H 1221.58 -5.09362 2.63103 0
M  V30 12787 H 1219.98 -4.93997 3.40716 0
M  V30 12788 H 1221.05 -3.52877 3.32575 0
M  V30 12789 N 1222.39 -0.968567 -1.24324 0
M  V30 12790 C 1223.8 -0.66964 -1.74278 0
M  V30 12791 C 1224.15 0.81461 -1.7849 0
M  V30 12792 O 1223.28 1.63736 -1.4149 0
M  V30 12793 C 1223.87 -1.20885 -3.165 0
M  V30 12794 C 1222.43 -0.959808 -3.63957 0
M  V30 12795 C 1221.58 -1.34365 -2.42573 0
M  V30 12796 H 1224.53 -1.14379 -1.10015 0
M  V30 12797 H 1224.55 -0.57555 -3.76122 0
M  V30 12798 H 1224.06 -2.28912 -3.13402 0
M  V30 12799 H 1222.16 0.104894 -3.72452 0
M  V30 12800 H 1222.27 -1.60606 -4.51378 0
M  V30 12801 H 1220.64 -0.762039 -2.43033 0
M  V30 12802 H 1221.42 -2.43343 -2.42155 0
M  V30 12803 N 1223.87 1.39211 -0.738786 0
M  V30 12804 C 1224.82 2.27869 -0.0772787 0
M  V30 12805 C 1225.8 1.44452 0.708683 0
M  V30 12806 O 1226.99 1.67329 0.57707 0
M  V30 12807 C 1224.12 3.33206 0.826364 0
M  V30 12808 C 1223.21 4.24086 0.034349 0
M  V30 12809 N 1223.6 4.95928 -0.99446 0
M  V30 12810 C 1221.9 4.45221 0.26343 0
M  V30 12811 C 1222.6 5.62757 -1.47238 0
M  V30 12812 N 1221.57 5.37824 -0.790305 0
M  V30 12813 H 1225.38 2.80869 -0.865447 0
M  V30 12814 H 1222.89 1.51938 -0.573462 0
M  V30 12815 H 1224.89 3.95592 1.31578 0
M  V30 12816 H 1223.55 2.81765 1.61365 0
M  V30 12817 H 1224.56 4.99289 -1.37591 0
M  V30 12818 H 1221.23 4.04717 1.02522 0
M  V30 12819 H 1222.62 6.30261 -2.32853 0
M  V30 12820 N 1225.34 0.486708 1.49896 0
M  V30 12821 C 1226.59 -0.0627279 2.02003 0
M  V30 12822 C 1226.91 -1.38799 1.36967 0
M  V30 12823 O 1226.18 -1.88868 0.520173 0
M  V30 12824 H 1224.76 -0.0261718 0.746541 0
M  V30 12825 H 1227.43 0.640692 1.84068 0
M  V30 12826 H 1226.52 -0.202856 3.1144 0
M  V30 12827 N 1226.82 -1.56058 0.219941 0
M  V30 12828 C 1227.79 -2.18964 -0.677303 0
M  V30 12829 C 1228.79 -1.15105 -1.12283 0
M  V30 12830 O 1229.98 -1.40348 -1.03189 0
M  V30 12831 C 1227.11 -2.81167 -1.92764 0
M  V30 12832 H 1228.3 -2.99623 -0.128877 0
M  V30 12833 H 1225.85 -1.56272 -0.0296744 0
M  V30 12834 H 1226.59 -2.04374 -2.51797 0
M  V30 12835 H 1226.37 -3.5722 -1.61666 0
M  V30 12836 H 1227.86 -3.29391 -2.56693 0
M  V30 12837 N 1228.3 0.053464 -1.57509 0
M  V30 12838 C 1229.71 0.603099 -1.76691 0
M  V30 12839 C 1230.06 1.76934 -0.847861 0
M  V30 12840 O 1229.19 2.16369 -0.0364962 0
M  V30 12841 C 1229.78 1.10084 -3.20417 0
M  V30 12842 C 1228.34 1.59618 -3.4088 0
M  V30 12843 C 1227.49 0.523516 -2.72313 0
M  V30 12844 H 1230.44 -0.172751 -1.57757 0
M  V30 12845 H 1230.46 1.9691 -3.25587 0
M  V30 12846 H 1229.97 0.251818 -3.87282 0
M  V30 12847 H 1228.07 2.46786 -2.79155 0
M  V30 12848 H 1228.19 1.6605 -4.49404 0
M  V30 12849 H 1226.55 0.972886 -2.35387 0
M  V30 12850 H 1227.33 -0.315629 -3.41846 0
M  V30 12851 N 1229.78 1.54207 0.325255 0
M  V30 12852 C 1231.03 1.71991 1.0613 0
M  V30 12853 C 1231.35 0.495505 1.88599 0
M  V30 12854 O 1230.62 -0.490504 1.8966 0
M  V30 12855 H 1229.2 0.634137 0.394816 0
M  V30 12856 H 1231.86 1.91507 0.362101 0
M  V30 12857 H 1230.96 2.59878 1.72829 0
M  V30 12858 N 1231.26 -0.58723 1.46251 0
M  V30 12859 C 1232.67 -1.16933 1.45546 0
M  V30 12860 C 1233.02 -1.9524 0.193879 0
M  V30 12861 O 1232.14 -2.04652 -0.70332 0
M  V30 12862 C 1232.74 -2.12723 2.63693 0
M  V30 12863 C 1231.3 -2.66267 2.66043 0
M  V30 12864 C 1230.45 -1.42051 2.38153 0
M  V30 12865 H 1233.4 -0.375411 1.54196 0
M  V30 12866 H 1233.42 -2.96111 2.38953 0
M  V30 12867 H 1232.93 -1.55703 3.55497 0
M  V30 12868 H 1231.03 -3.2717 1.783 0
M  V30 12869 H 1231.14 -3.0931 3.65874 0
M  V30 12870 H 1229.51 -1.71707 1.88119 0
M  V30 12871 H 1230.29 -0.868675 3.32128 0
M  V30 12872 N 1232.74 -1.33881 -0.831482 0
M  V30 12873 C 1233.7 -1.24654 -1.92339 0
M  V30 12874 C 1234.7 -0.163788 -1.59964 0
M  V30 12875 O 1235.89 -0.415829 -1.69164 0
M  V30 12876 C 1233.02 -0.922537 -3.2818 0
M  V30 12877 H 1234.21 -2.21717 -2.01944 0
M  V30 12878 H 1231.77 -1.18046 -1.02445 0
M  V30 12879 H 1232.5 0.0452872 -3.24268 0
M  V30 12880 H 1232.29 -1.70562 -3.53059 0
M  V30 12881 H 1233.78 -0.88292 -4.0816 0
M  V30 12882 N 1234.21 1.05064 -1.1747 0
M  V30 12883 C 1235.18 2.1101 -0.89485 0
M  V30 12884 C 1236.18 1.60384 0.11553 0
M  V30 12885 O 1237.37 1.73808 -0.116785 0
M  V30 12886 C 1234.5 3.39194 -0.340642 0
M  V30 12887 H 1235.69 2.37269 -1.83421 0
M  V30 12888 H 1233.24 1.21329 -0.985343 0
M  V30 12889 H 1233.98 3.18591 0.605808 0
M  V30 12890 H 1233.76 3.77251 -1.06885 0
M  V30 12891 H 1235.25 4.17281 -0.163204 0
M  V30 12892 N 1235.69 0.975146 1.23809 0
M  V30 12893 C 1236.92 0.658605 1.96665 0
M  V30 12894 C 1237.34 -0.766744 1.71763 0
M  V30 12895 O 1236.7 -1.52151 0.985887 0
M  V30 12896 C 1236.75 0.948438 3.47904 0
M  V30 12897 O 1235.85 0.0377241 4.12383 0
M  V30 12898 H 1235.19 0.248231 0.615855 0
M  V30 12899 H 1237.72 1.30732 1.57386 0
M  V30 12900 H 1237.73 0.883 3.9833 0
M  V30 12901 H 1236.41 1.98717 3.65355 0
M  V30 12902 H 1234.98 0.157122 3.72569 0
M  V30 12903 N 1237.17 -1.38817 0.746158 0
M  V30 12904 C 1238.4 -2.0457 0.309605 0
M  V30 12905 C 1238.81 -1.5627 -1.05948 0
M  V30 12906 O 1238.17 -0.73248 -1.67156 0
M  V30 12907 C 1238.22 -3.60126 0.314843 0
M  V30 12908 O 1237.94 -4.06652 1.6299 0
M  V30 12909 C 1239.44 -4.4309 -0.136497 0
M  V30 12910 H 1236.66 -0.657597 0.133441 0
M  V30 12911 H 1239.21 -1.77651 1.01293 0
M  V30 12912 H 1237.36 -3.85908 -0.339685 0
M  V30 12913 H 1237.78 -5.01042 1.55103 0
M  V30 12914 H 1239.25 -5.5194 -0.0816714 0
M  V30 12915 H 1239.73 -4.22959 -1.18332 0
M  V30 12916 H 1240.33 -4.22481 0.488879 0
M  V30 12917 N 1238.65 -0.49465 -1.49636 0
M  V30 12918 C 1240.06 -0.150217 -1.58892 0
M  V30 12919 C 1240.26 1.34485 -1.50053 0
M  V30 12920 O 1239.32 2.12026 -1.37118 0
M  V30 12921 C 1240.63 -0.721372 -2.91919 0
M  V30 12922 C 1242.18 -0.686908 -3.0537 0
M  V30 12923 C 1242.66 -1.23601 -4.41006 0
M  V30 12924 N 1244.15 -1.19644 -4.47481 0
M  V30 12925 C 1244.88 -1.59157 -5.50869 0
M  V30 12926 N 1244.38 -2.06232 -6.61393 0
M  V30 12927 N 1246.17 -1.50612 -5.41546 0
M  V30 12928 H 1238.32 -1.46675 -1.53624 0
M  V30 12929 H 1240.58 -0.608003 -0.727349 0
M  V30 12930 H 1240.29 -1.76964 -3.03935 0
M  V30 12931 H 1240.16 -0.178199 -3.76779 0
M  V30 12932 H 1242.55 0.352508 -2.92987 0
M  V30 12933 H 1242.63 -1.26716 -2.22209 0
M  V30 12934 H 1242.28 -2.27418 -4.5414 0
M  V30 12935 H 1242.21 -0.631765 -5.22797 0
M  V30 12936 H 1244.7 -0.851443 -3.68183 0
M  V30 12937 H 1245.01 -2.34469 -7.36372 0
M  V30 12938 H 1243.36 -2.10202 -6.6245 0
M  V30 12939 H 1246.55 -1.13659 -4.54092 0
M  V30 12940 H 1246.72 -1.8173 -6.21995 0
M  V30 12941 N 1240.13 1.55939 -0.228214 0
M  V30 12942 C 1241.54 1.84612 0.278417 0
M  V30 12943 C 1241.89 1.14973 1.58983 0
M  V30 12944 O 1241.01 0.421673 2.12252 0
M  V30 12945 C 1241.61 3.3491 0.511935 0
M  V30 12946 C 1240.17 3.63876 0.962861 0
M  V30 12947 C 1239.31 2.77284 0.0296246 0
M  V30 12948 H 1242.26 1.52149 -0.451245 0
M  V30 12949 H 1242.29 3.55477 1.35707 0
M  V30 12950 H 1241.8 3.85567 -0.442697 0
M  V30 12951 H 1239.9 3.18682 1.93062 0
M  V30 12952 H 1240.01 4.71809 0.832659 0
M  V30 12953 H 1238.38 2.48961 0.53763 0
M  V30 12954 H 1239.16 3.30742 -0.920044 0
M  V30 12955 N 1241.6 -0.0451101 1.57535 0
M  V30 12956 C 1242.57 -1.03521 2.0449 0
M  V30 12957 C 1243.57 -1.30009 0.946265 0
M  V30 12958 O 1244.76 -1.25282 1.21038 0
M  V30 12959 C 1241.89 -2.37221 2.44824 0
M  V30 12960 H 1243.08 -0.629943 2.93209 0
M  V30 12961 H 1240.64 -0.291544 1.53557 0
M  V30 12962 H 1241.37 -2.82528 1.59212 0
M  V30 12963 H 1241.16 -2.19329 3.25018 0
M  V30 12964 H 1242.65 -3.08337 2.81635 0
M  V30 12965 N 1243.08 -1.54377 -0.317073 0
M  V30 12966 C 1244.31 -1.77184 -1.07798 0
M  V30 12967 C 1244.73 -0.52204 -1.80711 0
M  V30 12968 O 1244.09 0.52672 -1.7348 0
M  V30 12969 C 1244.14 -2.96887 -2.04671 0
M  V30 12970 O 1243.24 -2.68887 -3.12688 0
M  V30 12971 H 1242.58 -0.586937 -0.310485 0
M  V30 12972 H 1245.11 -2.01419 -0.35939 0
M  V30 12973 H 1245.12 -3.24414 -2.47426 0
M  V30 12974 H 1243.8 -3.87518 -1.51005 0
M  V30 12975 H 1242.38 -2.52329 -2.74562 0
M  V30 12976 N 1244.56 0.579466 -1.4656 0
M  V30 12977 C 1245.79 1.36837 -1.55854 0
M  V30 12978 C 1246.21 1.87019 -0.20141 0
M  V30 12979 O 1245.57 1.61746 0.81901 0
M  V30 12980 C 1245.62 2.52965 -2.56985 0
M  V30 12981 O 1244.72 3.54505 -2.10713 0
M  V30 12982 H 1244.06 0.407379 -0.524345 0
M  V30 12983 H 1246.59 0.702558 -1.9216 0
M  V30 12984 H 1246.6 2.99838 -2.76697 0
M  V30 12985 H 1245.28 2.15793 -3.55536 0
M  V30 12986 H 1243.85 3.14089 -2.01003 0
M  V30 12987 N 1246.04 1.3432 0.824371 0
M  V30 12988 C 1247.26 1.2982 1.61745 0
M  V30 12989 C 1247.69 -0.125298 1.87682 0
M  V30 12990 O 1247.05 -1.08658 1.45131 0
M  V30 12991 C 1247.09 2.09327 2.93623 0
M  V30 12992 O 1246.2 1.4618 3.85623 0
M  V30 12993 H 1245.54 0.445929 0.491979 0
M  V30 12994 H 1248.07 1.77101 1.02452 0
M  V30 12995 H 1248.08 2.20629 3.43201 0
M  V30 12996 H 1246.75 3.12825 2.74069 0
M  V30 12997 H 1245.33 1.43611 3.44137 0
M  V30 12998 N 1247.52 -1.0444 1.18026 0
M  V30 12999 C 1248.74 -1.81234 0.998089 0
M  V30 13000 C 1249.16 -1.83271 -0.453559 0
M  V30 13001 O 1248.52 -1.26545 -1.31502 0
M  V30 13002 C 1248.57 -3.27007 1.54106 0
M  V30 13003 O 1248.29 -3.25174 2.93587 0
M  V30 13004 C 1249.79 -4.20461 1.40455 0
M  V30 13005 H 1247.01 -0.57085 0.352663 0
M  V30 13006 H 1249.55 -1.31649 1.56489 0
M  V30 13007 H 1247.71 -3.73837 1.01611 0
M  V30 13008 H 1248.12 -4.16466 3.18836 0
M  V30 13009 H 1249.6 -5.20695 1.83249 0
M  V30 13010 H 1250.07 -4.37781 0.352713 0
M  V30 13011 H 1250.68 -3.79493 1.92004 0
M  V30 13012 N 1248.99 -0.981699 -1.2329 0
M  V30 13013 C 1250.41 -0.688087 -1.73558 0
M  V30 13014 C 1250.76 0.795633 -1.79344 0
M  V30 13015 O 1249.88 1.62227 -1.43218 0
M  V30 13016 C 1250.48 -1.24235 -3.152 0
M  V30 13017 C 1249.04 -0.998356 -3.62918 0
M  V30 13018 C 1248.18 -1.3693 -2.41134 0
M  V30 13019 H 1251.13 -1.15539 -1.08795 0
M  V30 13020 H 1251.15 -0.61541 -3.7549 0
M  V30 13021 H 1250.67 -2.32223 -3.10957 0
M  V30 13022 H 1248.77 0.0653847 -3.72543 0
M  V30 13023 H 1248.88 -1.65385 -4.49649 0
M  V30 13024 H 1247.24 -0.787773 -2.42211 0
M  V30 13025 H 1248.03 -2.45898 -2.39561 0
M  V30 13026 N 1250.47 1.3842 -0.753509 0
M  V30 13027 C 1251.89 1.53668 -0.431095 0
M  V30 13028 C 1252.09 1.71626 1.05578 0
M  V30 13029 O 1251.14 1.72723 1.84182 0
M  V30 13030 C 1252.46 2.74381 -1.23027 0
M  V30 13031 C 1254.01 2.8823 -1.22034 0
M  V30 13032 C 1254.48 4.11904 -2.00248 0
M  V30 13033 N 1255.97 4.18981 -1.97508 0
M  V30 13034 C 1256.71 5.13667 -2.5482 0
M  V30 13035 N 1256.2 6.14027 -3.20846 0
M  V30 13036 N 1258 5.06017 -2.44751 0
M  V30 13037 H 1250.15 1.25012 -1.71714 0
M  V30 13038 H 1252.41 0.607296 -0.727939 0
M  V30 13039 H 1252.12 2.67515 -2.28317 0
M  V30 13040 H 1251.99 3.67565 -0.847098 0
M  V30 13041 H 1254.38 2.94578 -0.175502 0
M  V30 13042 H 1254.46 1.96057 -1.64303 0
M  V30 13043 H 1254.1 4.06318 -3.04742 0
M  V30 13044 H 1254.03 5.03157 -1.55373 0
M  V30 13045 H 1256.52 3.47104 -1.49423 0
M  V30 13046 H 1256.84 6.82771 -3.61999 0
M  V30 13047 H 1255.18 6.1436 -3.24941 0
M  V30 13048 H 1258.37 4.26552 -1.92797 0
M  V30 13049 H 1258.54 5.7963 -2.89713 0
M  V30 13050 N 1251.95 0.502579 1.49372 0
M  V30 13051 C 1252.88 -0.264307 2.31999 0
M  V30 13052 C 1253.86 -0.96107 1.40348 0
M  V30 13053 O 1255.05 -0.952167 1.69255 0
M  V30 13054 C 1252.18 -1.32822 3.20898 0
M  V30 13055 C 1251.13 -0.751236 4.21355 0
M  V30 13056 C 1250.46 -1.91578 4.99201 0
M  V30 13057 C 1251.76 0.258764 5.21659 0
M  V30 13058 H 1253.45 0.425391 2.96363 0
M  V30 13059 H 1251 0.206022 1.42519 0
M  V30 13060 H 1252.95 -1.87245 3.77515 0
M  V30 13061 H 1251.67 -2.04712 2.54481 0
M  V30 13062 H 1250.33 -0.228743 3.65886 0
M  V30 13063 H 1249.98 -2.62241 4.2923 0
M  V30 13064 H 1249.68 -1.53578 5.67175 0
M  V30 13065 H 1251.2 -2.46432 5.58663 0
M  V30 13066 H 1252.62 -0.197385 5.7296 0
M  V30 13067 H 1251.02 0.554681 5.97531 0
M  V30 13068 H 1252.09 1.1741 4.70471 0
M  V30 13069 N 1253.43 -1.55816 0.23648 0
M  V30 13070 C 1254.68 -1.98294 -0.390373 0
M  V30 13071 C 1255 -1.12573 -1.59224 0
M  V30 13072 O 1254.27 -0.206128 -1.94813 0
M  V30 13073 H 1252.85 -0.732349 -0.14722 0
M  V30 13074 H 1255.51 -1.92037 0.332848 0
M  V30 13075 H 1254.61 -3.03996 -0.706595 0
M  V30 13076 N 1254.91 0.036755 -1.57557 0
M  V30 13077 C 1256.32 0.584324 -1.7732 0
M  V30 13078 C 1256.67 1.76025 -0.86658 0
M  V30 13079 O 1255.79 2.16318 -0.059443 0
M  V30 13080 C 1256.39 1.06679 -3.21566 0
M  V30 13081 C 1254.95 1.55994 -3.42553 0
M  V30 13082 C 1254.09 0.494604 -2.72853 0
M  V30 13083 H 1257.05 -0.189473 -1.57565 0
M  V30 13084 H 1257.07 1.93446 -3.27657 0
M  V30 13085 H 1256.58 0.210727 -3.87527 0
M  V30 13086 H 1254.68 2.43811 -2.81757 0
M  V30 13087 H 1254.79 1.61274 -4.5114 0
M  V30 13088 H 1253.16 0.947865 -2.36406 0
M  V30 13089 H 1253.94 -0.351868 -3.41492 0
M  V30 13090 N 1256.39 1.54543 0.308881 0
M  V30 13091 C 1257.61 1.77431 1.06422 0
M  V30 13092 C 1258.03 0.529972 1.81209 0
M  V30 13093 O 1257.39 -0.499912 1.7552 0
M  V30 13094 C 1257.44 2.9769 2.05092 0
M  V30 13095 O 1257.16 4.17315 1.33341 0
M  V30 13096 C 1258.66 3.32905 2.92727 0
M  V30 13097 H 1255.88 0.591961 0.315948 0
M  V30 13098 H 1258.42 2.01473 0.350547 0
M  V30 13099 H 1256.58 2.7588 2.71973 0
M  V30 13100 H 1256.99 4.85061 1.99539 0
M  V30 13101 H 1258.47 4.20314 3.57827 0
M  V30 13102 H 1258.94 2.50713 3.6061 0
M  V30 13103 H 1259.55 3.56847 2.31388 0
M  V30 13104 N 1257.86 -0.571685 1.46866 0
M  V30 13105 C 1259.27 -1.15383 1.46778 0
M  V30 13106 C 1259.63 -1.95023 0.214576 0
M  V30 13107 O 1258.75 -2.05386 -0.681574 0
M  V30 13108 C 1259.35 -2.09915 2.65935 0
M  V30 13109 C 1257.9 -2.6343 2.68852 0
M  V30 13110 C 1257.05 -1.39517 2.39646 0
M  V30 13111 H 1260 -0.359036 1.54585 0
M  V30 13112 H 1260.02 -2.9356 2.42081 0
M  V30 13113 H 1259.54 -1.51923 3.57129 0
M  V30 13114 H 1257.64 -3.2526 1.8176 0
M  V30 13115 H 1257.75 -3.05412 3.69134 0
M  V30 13116 H 1256.11 -1.69702 1.8993 0
M  V30 13117 H 1256.9 -0.833399 3.33031 0
M  V30 13118 N 1259.34 -1.34755 -0.817236 0
M  V30 13119 C 1260.3 -1.26687 -1.91006 0
M  V30 13120 C 1261.3 -0.180745 -1.59781 0
M  V30 13121 O 1262.49 -0.433748 -1.68714 0
M  V30 13122 C 1259.63 -0.957293 -3.27183 0
M  V30 13123 H 1260.82 -2.23846 -1.99582 0
M  V30 13124 H 1258.37 -1.19125 -1.01187 0
M  V30 13125 H 1259.11 0.0108917 -3.24298 0
M  V30 13126 H 1258.89 -1.74297 -3.5123 0
M  V30 13127 H 1260.38 -0.926161 -4.072 0
M  V30 13128 N 1260.82 1.03812 -1.18578 0
M  V30 13129 C 1261.78 2.10049 -0.91718 0
M  V30 13130 C 1262.78 1.60498 0.0985122 0
M  V30 13131 O 1263.97 1.73674 -0.135213 0
M  V30 13132 C 1261.1 3.38813 -0.376599 0
M  V30 13133 H 1262.3 2.3531 -1.85927 0
M  V30 13134 H 1259.85 1.20277 -0.998156 0
M  V30 13135 H 1260.59 3.19216 0.571983 0
M  V30 13136 H 1260.37 3.76096 -1.10881 0
M  V30 13137 H 1261.86 4.17084 -0.207453 0
M  V30 13138 N 1262.3 0.988223 1.22768 0
M  V30 13139 C 1263.71 0.69816 1.4352 0
M  V30 13140 C 1263.91 -0.732872 1.877 0
M  V30 13141 O 1262.97 -1.50436 2.02793 0
M  V30 13142 C 1264.28 1.69975 2.4805 0
M  V30 13143 C 1265.83 1.71467 2.61855 0
M  V30 13144 C 1266.31 2.70477 3.69603 0
M  V30 13145 N 1267.8 2.69043 3.77055 0
M  V30 13146 C 1268.53 3.42319 4.60006 0
M  V30 13147 N 1268.03 4.2518 5.46986 0
M  V30 13148 N 1269.82 3.31047 4.54274 0
M  V30 13149 H 1261.97 1.91251 0.923948 0
M  V30 13150 H 1264.23 0.82455 0.467783 0
M  V30 13151 H 1263.94 2.72354 2.22523 0
M  V30 13152 H 1263.81 1.48885 3.46573 0
M  V30 13153 H 1266.2 0.697889 2.86729 0
M  V30 13154 H 1266.28 1.96625 1.63622 0
M  V30 13155 H 1265.93 3.72302 3.45476 0
M  V30 13156 H 1265.86 2.42591 4.67394 0
M  V30 13157 H 1268.35 2.08914 3.14902 0
M  V30 13158 H 1268.66 4.77929 6.07292 0
M  V30 13159 H 1267.01 4.29268 5.46584 0
M  V30 13160 H 1270.2 2.65758 3.85345 0
M  V30 13161 H 1270.37 3.88413 5.1869 0
M  V30 13162 N 1263.78 -1.38018 0.760839 0
M  V30 13163 C 1264.74 -2.28734 0.146154 0
M  V30 13164 C 1265.74 -1.47525 -0.639768 0
M  V30 13165 O 1266.93 -1.6788 -0.464964 0
M  V30 13166 C 1264.06 -3.31356 -0.801019 0
M  V30 13167 H 1265.25 -2.84599 0.945692 0
M  V30 13168 H 1262.81 -1.471 0.528323 0
M  V30 13169 H 1263.54 -2.80594 -1.62597 0
M  V30 13170 H 1263.33 -3.91366 -0.239775 0
M  V30 13171 H 1264.82 -3.99171 -1.22687 0
M  V30 13172 N 1265.25 -0.510493 -1.49103 0
M  V30 13173 C 1266.22 0.251915 -2.27811 0
M  V30 13174 C 1267.22 0.885432 -1.34226 0
M  V30 13175 O 1268.41 0.748494 -1.573 0
M  V30 13176 C 1265.54 1.3624 -3.12492 0
M  V30 13177 H 1266.73 -0.438872 -2.96671 0
M  V30 13178 H 1264.28 -0.265767 -1.54024 0
M  V30 13179 H 1265.02 2.08705 -2.48219 0
M  V30 13180 H 1264.8 0.913485 -3.81311 0
M  V30 13181 H 1266.29 1.89919 -3.71915 0
M  V30 13182 N 1266.73 1.55688 -0.24474 0
M  V30 13183 C 1267.69 2.20014 0.642382 0
M  V30 13184 C 1268.69 1.16877 1.10437 0
M  V30 13185 O 1269.88 1.41972 1.00943 0
M  V30 13186 C 1267.02 2.84198 1.88267 0
M  V30 13187 H 1268.21 2.9979 0.0811937 0
M  V30 13188 H 1265.76 1.56299 0.00480917 0
M  V30 13189 H 1266.5 2.08354 2.48514 0
M  V30 13190 H 1266.28 3.59747 1.55963 0
M  V30 13191 H 1267.77 3.33434 2.5142 0
M  V30 13192 N 1268.21 -0.0283989 1.57574 0
M  V30 13193 C 1269.62 -0.574912 1.77628 0
M  V30 13194 C 1269.97 -1.75563 0.875903 0
M  V30 13195 O 1269.1 -2.16284 0.0709141 0
M  V30 13196 C 1269.69 -1.04972 3.22128 0
M  V30 13197 C 1268.25 -1.54175 3.43376 0
M  V30 13198 C 1267.4 -0.480127 2.73112 0
M  V30 13199 H 1270.35 0.197826 1.57462 0
M  V30 13200 H 1270.37 -1.91705 3.28678 0
M  V30 13201 H 1269.88 -0.190173 3.87634 0
M  V30 13202 H 1267.98 -2.42313 2.83046 0
M  V30 13203 H 1268.1 -1.58879 4.51989 0
M  V30 13204 H 1266.46 -0.935314 2.36905 0
M  V30 13205 H 1267.24 0.369973 3.41301 0
M  V30 13206 N 1269.69 -1.54705 -0.300681 0
M  V30 13207 C 1270.91 -1.78318 -1.05913 0
M  V30 13208 C 1271.34 -0.541177 -1.80147 0
M  V30 13209 O 1270.7 0.508291 -1.74029 0
M  V30 13210 C 1270.74 -2.99041 -2.01511 0
M  V30 13211 O 1269.85 -2.72188 -3.09818 0
M  V30 13212 H 1269.19 -0.590197 -0.304242 0
M  V30 13213 H 1271.72 -2.01789 -0.338006 0
M  V30 13214 H 1271.73 -3.2702 -2.43971 0
M  V30 13215 H 1270.4 -3.89098 -1.46886 0
M  V30 13216 H 1268.98 -2.55227 -2.71871 0
M  V30 13217 N 1271.17 0.563888 -1.47167 0
M  V30 13218 C 1272.58 1.14603 -1.47388 0
M  V30 13219 C 1272.93 1.94907 -0.224916 0
M  V30 13220 O 1272.05 2.05745 0.670672 0
M  V30 13221 C 1272.65 2.08501 -2.67044 0
M  V30 13222 C 1271.21 2.62 -2.70246 0
M  V30 13223 C 1270.35 1.38244 -2.40383 0
M  V30 13224 H 1273.31 0.350833 -1.54774 0
M  V30 13225 H 1273.33 2.92272 -2.43634 0
M  V30 13226 H 1272.84 1.50027 -3.57929 0
M  V30 13227 H 1270.94 3.24292 -1.83482 0
M  V30 13228 H 1271.05 3.0345 -3.70749 0
M  V30 13229 H 1269.42 1.68692 -1.90827 0
M  V30 13230 H 1270.2 0.815726 -3.33468 0
M  V30 13231 N 1272.64 1.35187 0.810078 0
M  V30 13232 C 1273.92 1.18832 1.55365 0
M  V30 13233 C 1274.3 -0.233956 2.098 0
M  V30 13234 O 1273.65 -1.23701 1.92121 0
M  V30 13235 C 1273.86 2.25351 2.66492 0
M  V30 13236 C 1275.21 2.60981 3.34924 0
M  V30 13237 O 1276.23 2.24238 2.7676 0
M  V30 13238 O 1275.09 3.24147 4.3999 0
M  V30 13239 H 1272.18 0.461446 0.686292 0
M  V30 13240 H 1274.73 1.46858 0.850341 0
M  V30 13241 H 1273.5 3.20762 2.24115 0
M  V30 13242 H 1273.13 1.98575 3.44462 0
M  V30 13243 N 1274.12 -1.03182 1.19127 0
M  V30 13244 C 1275.54 -1.28773 0.942854 0
M  V30 13245 C 1275.74 -1.97759 -0.386483 0
M  V30 13246 O 1274.79 -2.26365 -1.1187 0
M  V30 13247 C 1276.11 -2.13771 2.11476 0
M  V30 13248 C 1277.66 -2.27089 2.15406 0
M  V30 13249 C 1278.13 -3.15458 3.32039 0
M  V30 13250 N 1279.62 -3.23046 3.31957 0
M  V30 13251 C 1280.36 -3.91604 4.18848 0
M  V30 13252 N 1279.85 -4.62418 5.15889 0
M  V30 13253 N 1281.65 -3.87974 4.06734 0
M  V30 13254 H 1273.8 -0.568165 2.0466 0
M  V30 13255 H 1276.06 -0.31328 0.89474 0
M  V30 13256 H 1275.77 -1.704 3.07663 0
M  V30 13257 H 1275.64 -3.14476 2.0829 0
M  V30 13258 H 1278.03 -2.69693 1.19791 0
M  V30 13259 H 1278.11 -1.25945 2.22647 0
M  V30 13260 H 1277.75 -2.73564 4.27931 0
M  V30 13261 H 1277.68 -4.16654 3.22035 0
M  V30 13262 H 1280.17 -2.7261 2.6171 0
M  V30 13263 H 1280.49 -5.12353 5.78545 0
M  V30 13264 H 1278.83 -4.61293 5.1984 0
M  V30 13265 H 1282.02 -3.31789 3.30202 0
M  V30 13266 H 1282.19 -4.4113 4.74666 0
M  V30 13267 N 1275.6 -0.99472 -1.22242 0
M  V30 13268 C 1277.02 -0.705762 -1.43147 0
M  V30 13269 C 1277.22 0.722908 -1.88086 0
M  V30 13270 O 1276.27 1.49359 -2.03588 0
M  V30 13271 C 1277.59 -1.71288 -2.47145 0
M  V30 13272 C 1279.13 -1.72853 -2.60942 0
M  V30 13273 C 1279.61 -2.72433 -3.68163 0
M  V30 13274 N 1281.1 -2.71039 -3.75623 0
M  V30 13275 C 1281.83 -3.44753 -4.58184 0
M  V30 13276 N 1281.33 -4.28075 -5.44724 0
M  V30 13277 N 1283.12 -3.33451 -4.52512 0
M  V30 13278 H 1275.27 -1.91738 -0.913792 0
M  V30 13279 H 1277.54 -0.82702 -0.463403 0
M  V30 13280 H 1277.24 -2.7353 -2.21075 0
M  V30 13281 H 1277.12 -1.50721 -3.45779 0
M  V30 13282 H 1279.5 -0.713085 -2.86355 0
M  V30 13283 H 1279.59 -1.9749 -1.62577 0
M  V30 13284 H 1279.23 -3.74129 -3.43497 0
M  V30 13285 H 1279.16 -2.45066 -4.66101 0
M  V30 13286 H 1281.65 -2.10581 -3.1379 0
M  V30 13287 H 1281.96 -4.81143 -6.04749 0
M  V30 13288 H 1280.31 -4.32161 -5.44299 0
M  V30 13289 H 1283.5 -2.67797 -3.8393 0
M  V30 13290 H 1283.67 -3.91158 -5.16623 0
M  V30 13291 N 1277.08 1.37613 -0.768148 0
M  V30 13292 C 1278.36 1.93921 -0.255724 0
M  V30 13293 C 1278.74 1.70215 1.2486 0
M  V30 13294 O 1278.08 1.0489 2.03003 0
M  V30 13295 C 1278.29 3.43354 -0.625204 0
M  V30 13296 C 1279.64 4.20439 -0.592978 0
M  V30 13297 O 1280.67 3.51701 -0.564375 0
M  V30 13298 O 1279.52 5.43008 -0.616849 0
M  V30 13299 H 1276.62 0.824968 -0.0579366 0
M  V30 13300 H 1279.16 1.46921 -0.849257 0
M  V30 13301 H 1277.94 3.54177 -1.66356 0
M  V30 13302 H 1277.56 3.976 -0.00442816 0
M  V30 13303 N 1278.56 0.518393 1.4883 0
M  V30 13304 C 1279.78 -0.0183131 2.07392 0
M  V30 13305 C 1280.21 -1.28468 1.37396 0
M  V30 13306 O 1279.56 -1.75975 0.436177 0
M  V30 13307 C 1279.61 -0.237211 3.59819 0
M  V30 13308 O 1278.72 -1.30835 3.91096 0
M  V30 13309 H 1278.06 0.0339621 0.663131 0
M  V30 13310 H 1280.59 0.722993 1.914 0
M  V30 13311 H 1280.6 -0.463424 4.0536 0
M  V30 13312 H 1279.27 0.687925 4.10171 0
M  V30 13313 H 1277.85 -1.06571 3.57347 0
M  V30 13314 N 1280.03 -1.55556 0.252993 0
M  V30 13315 C 1281 -2.20351 -0.630705 0
M  V30 13316 C 1282 -1.17461 -1.09816 0
M  V30 13317 O 1283.19 -1.42505 -1.00189 0
M  V30 13318 C 1280.32 -2.85192 -1.86757 0
M  V30 13319 H 1281.51 -2.99829 -0.0652939 0
M  V30 13320 H 1279.07 -1.563 0.00347982 0
M  V30 13321 H 1279.8 -2.09669 -2.47406 0
M  V30 13322 H 1279.59 -3.60569 -1.54053 0
M  V30 13323 H 1281.08 -3.34762 -2.49648 0
M  V30 13324 N 1281.51 0.0200419 -1.57587 0
M  V30 13325 C 1282.74 0.724241 -1.94344 0
M  V30 13326 C 1283.16 1.67612 -0.853688 0
M  V30 13327 O 1282.52 1.80303 0.189873 0
M  V30 13328 C 1282.57 1.44967 -3.30177 0
M  V30 13329 O 1281.67 2.56326 -3.23064 0
M  V30 13330 H 1281.01 0.194142 -0.634984 0
M  V30 13331 H 1283.54 -0.0271756 -2.04582 0
M  V30 13332 H 1283.55 1.81758 -3.65278 0
M  V30 13333 H 1282.23 0.75161 -4.09052 0
M  V30 13334 H 1280.81 2.22011 -2.99609 0
M  V30 13335 N 1282.99 1.54862 0.292472 0
M  V30 13336 C 1284.4 1.65459 0.864891 0
M  V30 13337 C 1284.75 0.568808 1.87774 0
M  V30 13338 O 1283.88 -0.293107 2.14406 0
M  V30 13339 C 1284.47 2.99939 1.5755 0
M  V30 13340 C 1283.03 3.12628 2.09621 0
M  V30 13341 C 1282.18 2.61179 0.931713 0
M  V30 13342 H 1285.13 1.58549 0.0692679 0
M  V30 13343 H 1285.15 2.91839 2.44152 0
M  V30 13344 H 1284.66 3.78943 0.838088 0
M  V30 13345 H 1282.76 2.3836 2.86383 0
M  V30 13346 H 1282.88 4.18911 2.32488 0
M  V30 13347 H 1281.24 2.17846 1.31967 0
M  V30 13348 H 1282.02 3.42669 0.208121 0
M  V30 13349 N 1284.47 -0.556076 1.47464 0
M  V30 13350 C 1285.72 -1.31061 1.53842 0
M  V30 13351 C 1286.04 -1.93943 0.202806 0
M  V30 13352 O 1285.31 -1.7999 -0.773338 0
M  V30 13353 H 1283.89 -0.486696 0.566689 0
M  V30 13354 H 1286.55 -0.64924 1.83769 0
M  V30 13355 H 1285.65 -2.10354 2.30559 0
M  V30 13356 N 1285.95 -1.35615 -0.802897 0
M  V30 13357 C 1286.91 -1.28705 -1.89651 0
M  V30 13358 C 1287.91 -0.197681 -1.5958 0
M  V30 13359 O 1289.1 -0.451618 -1.68244 0
M  V30 13360 C 1286.23 -0.991941 -3.26149 0
M  V30 13361 H 1287.43 -2.25951 -1.97196 0
M  V30 13362 H 1284.98 -1.20192 -0.999179 0
M  V30 13363 H 1285.71 -0.0235051 -3.24291 0
M  V30 13364 H 1285.5 -1.78013 -3.49362 0
M  V30 13365 H 1286.99 -0.969298 -4.06195 0
M  V30 13366 N 1287.43 1.02549 -1.19673 0
M  V30 13367 C 1288.39 2.09064 -0.939407 0
M  V30 13368 C 1289.39 1.60593 0.0814837 0
M  V30 13369 O 1290.58 1.73521 -0.153626 0
M  V30 13370 C 1287.71 3.38395 -0.412513 0
M  V30 13371 H 1288.9 2.33325 -1.88413 0
M  V30 13372 H 1286.46 1.19211 -1.01086 0
M  V30 13373 H 1287.19 3.19805 0.538094 0
M  V30 13374 H 1286.98 3.74898 -1.14863 0
M  V30 13375 H 1288.47 4.16841 -0.251678 0
M  V30 13376 N 1288.9 1.00119 1.21713 0
M  V30 13377 C 1290.15 0.680377 1.90303 0
M  V30 13378 C 1290.47 -0.790927 1.7824 0
M  V30 13379 O 1289.74 -1.5676 1.17486 0
M  V30 13380 H 1288.32 0.248665 0.704397 0
M  V30 13381 H 1290.98 1.26948 1.47886 0
M  V30 13382 H 1290.08 0.950188 2.97284 0
M  V30 13383 N 1290.38 -1.37203 0.775435 0
M  V30 13384 C 1291.63 -1.99207 0.340756 0
M  V30 13385 C 1291.95 -1.61861 -1.08747 0
M  V30 13386 O 1291.22 -0.88583 -1.74728 0
M  V30 13387 H 1289.8 -0.736803 0.123004 0
M  V30 13388 H 1292.46 -1.67625 0.994379 0
M  V30 13389 H 1291.56 -3.09243 0.421346 0
M  V30 13390 N 1291.86 -0.526279 -1.48553 0
M  V30 13391 C 1292.79 0.227364 -2.3239 0
M  V30 13392 C 1293.77 0.93862 -1.41859 0
M  V30 13393 O 1294.96 0.925119 -1.70749 0
M  V30 13394 C 1292.09 1.277 -3.22971 0
M  V30 13395 C 1291.04 0.684107 -4.22497 0
M  V30 13396 C 1290.37 1.83612 -5.02186 0
M  V30 13397 C 1291.67 -0.341723 -5.21181 0
M  V30 13398 H 1293.36 -0.472486 -2.95648 0
M  V30 13399 H 1290.91 -0.228669 -1.42173 0
M  V30 13400 H 1292.86 1.81215 -3.80446 0
M  V30 13401 H 1291.58 2.00638 -2.57705 0
M  V30 13402 H 1290.24 0.170505 -3.66203 0
M  V30 13403 H 1289.89 2.55379 -4.33348 0
M  V30 13404 H 1289.59 1.44536 -5.69547 0
M  V30 13405 H 1291.11 2.37513 -5.62512 0
M  V30 13406 H 1292.53 0.106207 -5.73202 0
M  V30 13407 H 1290.92 -0.649673 -5.96573 0
M  V30 13408 H 1291.99 -1.2488 -4.68543 0
M  V30 13409 N 1293.34 1.5542 -0.261239 0
M  V30 13410 C 1294.61 1.91243 0.41056 0
M  V30 13411 C 1294.99 1.1838 1.74784 0
M  V30 13412 O 1294.34 0.306013 2.26442 0
M  V30 13413 C 1294.55 3.44404 0.56453 0
M  V30 13414 C 1295.9 4.15927 0.853827 0
M  V30 13415 O 1296.92 3.50222 0.649861 0
M  V30 13416 O 1295.78 5.32175 1.24308 0
M  V30 13417 H 1292.88 0.796491 0.222555 0
M  V30 13418 H 1295.42 1.66912 -0.306367 0
M  V30 13419 H 1294.2 3.89478 -0.377134 0
M  V30 13420 H 1293.82 3.74644 1.33145 0
M  V30 13421 N 1294.82 -0.0116844 1.57596 0
M  V30 13422 C 1296.23 -0.55604 1.78228 0
M  V30 13423 C 1296.58 -1.74624 0.894474 0
M  V30 13424 O 1295.7 -2.16196 0.0938498 0
M  V30 13425 C 1296.3 -1.0155 3.23223 0
M  V30 13426 C 1294.86 -1.50525 3.44992 0
M  V30 13427 C 1294 -0.451133 2.73606 0
M  V30 13428 H 1296.95 0.214516 1.57243 0
M  V30 13429 H 1296.98 -1.88208 3.30693 0
M  V30 13430 H 1296.49 -0.149048 3.87814 0
M  V30 13431 H 1294.59 -2.39298 2.856 0
M  V30 13432 H 1294.7 -1.54076 4.53649 0
M  V30 13433 H 1293.07 -0.910135 2.37884 0
M  V30 13434 H 1293.85 0.406152 3.40889 0
M  V30 13435 N 1296.29 -1.55015 -0.284256 0
M  V30 13436 C 1297.23 -1.83517 -1.3731 0
M  V30 13437 C 1298.24 -0.719009 -1.46062 0
M  V30 13438 O 1299.43 -0.996719 -1.4808 0
M  V30 13439 C 1296.53 -1.97309 -2.7554 0
M  V30 13440 C 1295.7 -3.2787 -2.89517 0
M  V30 13441 C 1294.76 -3.31868 -4.08351 0
M  V30 13442 O 1293.79 -4.05309 -3.99642 0
M  V30 13443 N 1294.99 -2.5846 -5.19787 0
M  V30 13444 H 1297.75 -2.77495 -1.1321 0
M  V30 13445 H 1295.31 -1.54795 -0.474359 0
M  V30 13446 H 1297.31 -1.97367 -3.53311 0
M  V30 13447 H 1295.88 -1.10249 -2.92513 0
M  V30 13448 H 1295.1 -3.40445 -1.98722 0
M  V30 13449 H 1296.38 -4.13996 -2.95779 0
M  V30 13450 H 1295.78 -1.98455 -5.29747 0
M  V30 13451 H 1294.34 -2.64253 -5.9583 0
M  V30 13452 N 1297.77 0.548248 -1.47757 0
M  V30 13453 C 1299.05 1.3092 -1.45325 0
M  V30 13454 C 1299.43 2.1053 -0.155008 0
M  V30 13455 O 1298.78 2.11558 0.863455 0
M  V30 13456 C 1298.99 2.20614 -2.70426 0
M  V30 13457 C 1300.33 2.81345 -3.18009 0
M  V30 13458 O 1301.36 2.30911 -2.71216 0
M  V30 13459 O 1300.22 3.73036 -3.99383 0
M  V30 13460 H 1297.31 0.58996 -0.579548 0
M  V30 13461 H 1299.86 0.56641 -1.59968 0
M  V30 13462 H 1298.63 1.61449 -3.56441 0
M  V30 13463 H 1298.25 3.02173 -2.58413 0
M  V30 13464 N 1299.25 1.36039 0.795694 0
M  V30 13465 C 1300.47 1.33222 1.58955 0
M  V30 13466 C 1300.9 -0.0854596 1.87906 0
M  V30 13467 O 1300.26 -1.05555 1.47403 0
M  V30 13468 C 1300.31 2.15508 2.89117 0
M  V30 13469 O 1299.41 1.54327 3.82436 0
M  V30 13470 H 1298.75 0.456264 0.48241 0
M  V30 13471 H 1301.28 1.79234 0.986726 0
M  V30 13472 H 1301.29 2.2786 3.38444 0
M  V30 13473 H 1299.97 3.18568 2.67371 0
M  V30 13474 H 1298.54 1.50879 3.41013 0
M  V30 13475 N 1300.73 -1.01913 1.20215 0
M  V30 13476 C 1301.69 -2.08563 0.950481 0
M  V30 13477 C 1302.69 -1.60634 -0.0729659 0
M  V30 13478 O 1303.88 -1.73437 0.162826 0
M  V30 13479 C 1301.01 -3.38171 0.430453 0
M  V30 13480 H 1302.21 -2.32323 1.89647 0
M  V30 13481 H 1299.76 -1.18674 1.01716 0
M  V30 13482 H 1300.49 -3.20086 -0.521126 0
M  V30 13483 H 1300.28 -3.74284 1.1685 0
M  V30 13484 H 1301.77 -4.16702 0.273781 0
M  V30 13485 N 1302.21 -1.00763 -1.2118 0
M  V30 13486 C 1303.62 -0.720905 -1.42391 0
M  V30 13487 C 1303.82 0.702918 -1.88842 0
M  V30 13488 O 1302.88 1.47191 -2.05161 0
M  V30 13489 C 1304.19 -1.739 -2.45315 0
M  V30 13490 C 1305.74 -1.75611 -2.59094 0
M  V30 13491 C 1306.21 -2.76323 -3.65253 0
M  V30 13492 N 1307.71 -2.75007 -3.72727 0
M  V30 13493 C 1308.44 -3.49594 -4.54502 0
M  V30 13494 N 1307.94 -4.33828 -5.40153 0
M  V30 13495 N 1309.73 -3.38232 -4.4895 0
M  V30 13496 H 1301.88 -1.92697 -0.893404 0
M  V30 13497 H 1304.14 -0.831888 -0.454606 0
M  V30 13498 H 1303.85 -2.75859 -2.18162 0
M  V30 13499 H 1303.72 -1.5438 -3.44161 0
M  V30 13500 H 1306.11 -0.743416 -2.85582 0
M  V30 13501 H 1306.19 -1.99203 -1.60474 0
M  V30 13502 H 1305.84 -3.77751 -3.39509 0
M  V30 13503 H 1305.77 -2.49996 -4.63476 0
M  V30 13504 H 1308.26 -2.13897 -3.11539 0
M  V30 13505 H 1308.57 -4.8753 -5.99612 0
M  V30 13506 H 1306.91 -4.3791 -5.39685 0
M  V30 13507 H 1310.11 -2.71855 -3.81068 0
M  V30 13508 H 1310.28 -3.96615 -5.12445 0
M  V30 13509 N 1303.68 1.3679 -0.7827 0
M  V30 13510 C 1304.91 2.04206 -0.362571 0
M  V30 13511 C 1305.33 1.58637 1.01074 0
M  V30 13512 O 1304.69 0.751692 1.64983 0
M  V30 13513 C 1304.74 3.58062 -0.4271 0
M  V30 13514 O 1303.84 4.08463 0.56845 0
M  V30 13515 H 1303.19 0.645638 -0.155073 0
M  V30 13516 H 1305.72 1.74883 -1.06194 0
M  V30 13517 H 1305.73 4.0698 -0.288298 0
M  V30 13518 H 1304.4 3.90582 -1.42893 0
M  V30 13519 H 1302.98 3.70835 0.391863 0
M  V30 13520 N 1305.16 0.53415 1.48272 0
M  V30 13521 C 1306.58 0.192291 1.58437 0
M  V30 13522 C 1306.78 -1.3046 1.53566 0
M  V30 13523 O 1305.83 -2.08316 1.42692 0
M  V30 13524 C 1307.15 0.798515 2.89904 0
M  V30 13525 C 1308.7 0.76763 3.03441 0
M  V30 13526 C 1309.17 1.3525 4.37574 0
M  V30 13527 N 1310.66 1.31466 4.44152 0
M  V30 13528 C 1311.4 1.73706 5.46456 0
M  V30 13529 N 1310.89 2.23695 6.55692 0
M  V30 13530 N 1312.69 1.64918 5.37363 0
M  V30 13531 H 1304.84 1.50696 1.49681 0
M  V30 13532 H 1307.1 0.627073 0.710973 0
M  V30 13533 H 1306.81 1.8496 2.99136 0
M  V30 13534 H 1306.68 0.278033 3.76174 0
M  V30 13535 H 1309.07 -0.274704 2.93819 0
M  V30 13536 H 1309.15 1.32562 2.18771 0
M  V30 13537 H 1308.79 2.39379 4.47951 0
M  V30 13538 H 1308.72 0.770153 5.20938 0
M  V30 13539 H 1311.21 0.948761 3.65796 0
M  V30 13540 H 1311.53 2.5391 7.29897 0
M  V30 13541 H 1309.87 2.27691 6.56644 0
M  V30 13542 H 1313.06 1.25658 4.50919 0
M  V30 13543 H 1313.23 1.98157 6.16958 0
M  V30 13544 N 1306.64 -1.55279 0.269478 0
M  V30 13545 C 1307.57 -2.25278 -0.614188 0
M  V30 13546 C 1308.55 -1.24092 -1.1634 0
M  V30 13547 O 1309.74 -1.52799 -1.19858 0
M  V30 13548 C 1306.87 -2.96956 -1.80096 0
M  V30 13549 C 1305.82 -4.05021 -1.38353 0
M  V30 13550 C 1305.15 -4.64244 -2.65295 0
M  V30 13551 C 1306.45 -5.19523 -0.537886 0
M  V30 13552 H 1308.14 -2.99385 -0.0304397 0
M  V30 13553 H 1305.69 -1.43994 -0.0132004 0
M  V30 13554 H 1307.64 -3.44633 -2.42499 0
M  V30 13555 H 1306.36 -2.20374 -2.41045 0
M  V30 13556 H 1305.02 -3.58146 -0.78273 0
M  V30 13557 H 1304.67 -3.84337 -3.2449 0
M  V30 13558 H 1304.37 -5.37208 -2.38079 0
M  V30 13559 H 1305.89 -5.14668 -3.28557 0
M  V30 13560 H 1307.31 -5.63287 -1.06677 0
M  V30 13561 H 1305.71 -5.99014 -0.360845 0
M  V30 13562 H 1306.78 -4.82857 0.444672 0
M  V30 13563 N 1308.12 0.00332656 -1.576 0
M  V30 13564 C 1309.34 0.703587 -1.95101 0
M  V30 13565 C 1309.77 1.66697 -0.871418 0
M  V30 13566 O 1309.13 1.80494 0.170739 0
M  V30 13567 C 1309.17 1.41457 -3.31696 0
M  V30 13568 O 1308.28 2.52885 -3.25765 0
M  V30 13569 H 1307.62 0.187396 -0.637008 0
M  V30 13570 H 1310.15 -0.0488727 -2.04542 0
M  V30 13571 H 1310.16 1.77874 -3.67185 0
M  V30 13572 H 1308.83 0.708182 -4.09826 0
M  V30 13573 H 1307.41 2.18821 -3.01947 0
M  V30 13574 N 1309.6 1.55164 0.276031 0
M  V30 13575 C 1310.82 1.7998 1.03063 0
M  V30 13576 C 1311.25 0.569769 1.79263 0
M  V30 13577 O 1310.6 -0.48054 1.74816 0
M  V30 13578 C 1310.65 3.02209 1.96728 0
M  V30 13579 O 1309.76 2.77083 3.05449 0
M  V30 13580 H 1309.1 0.594963 0.294814 0
M  V30 13581 H 1311.63 2.02301 0.305861 0
M  V30 13582 H 1311.64 3.3086 2.38738 0
M  V30 13583 H 1310.31 3.91386 1.40677 0
M  V30 13584 H 1308.89 2.5952 2.67776 0
M  V30 13585 N 1311.07 -0.540404 1.48045 0
M  V30 13586 C 1312.02 -1.66695 1.62221 0
M  V30 13587 C 1313.02 -1.6219 0.488943 0
M  V30 13588 O 1314.22 -1.67173 0.66732 0
M  V30 13589 H 1310.6 -0.551868 0.510828 0
M  V30 13590 H 1312.57 -1.51879 2.56856 0
M  V30 13591 C 1311.32 -3.05002 1.6694 0
M  V30 13592 H 1310.64 -3.09157 2.53499 0
M  V30 13593 H 1312.08 -3.8347 1.80904 0
M  V30 13594 C 1310.54 -3.34445 0.40598 0
M  V30 13595 O 1311.07 -3.98753 -0.485676 0
M  V30 13596 N 1309.28 -2.8924 0.280857 0
M  V30 13597 H 1308.82 -2.37085 1.00741 0
M  V30 13598 H 1308.78 -3.09309 -0.563493 0
M  V30 13599 N 1312.55 -1.36459 -0.788468 0
M  V30 13600 C 1313.48 -1.33545 -1.91541 0
M  V30 13601 C 1314.46 -0.206762 -1.68839 0
M  V30 13602 O 1315.65 -0.404553 -1.89939 0
M  V30 13603 C 1312.78 -1.12492 -3.28577 0
M  V30 13604 C 1311.73 -2.22196 -3.65805 0
M  V30 13605 C 1311.06 -1.86285 -5.01201 0
M  V30 13606 C 1312.36 -3.64286 -3.7429 0
M  V30 13607 H 1314.05 -2.27844 -1.94236 0
M  V30 13608 H 1311.6 -1.09677 -0.933105 0
M  V30 13609 H 1313.55 -1.09089 -4.07035 0
M  V30 13610 H 1312.28 -0.146446 -3.26272 0
M  V30 13611 H 1310.93 -2.24727 -2.89644 0
M  V30 13612 H 1310.58 -0.87009 -4.95417 0
M  V30 13613 H 1310.28 -2.59734 -5.27079 0
M  V30 13614 H 1311.81 -1.84439 -5.82078 0
M  V30 13615 H 1313.22 -3.63977 -4.42937 0
M  V30 13616 H 1311.62 -4.36648 -4.11653 0
M  V30 13617 H 1312.69 -3.99123 -2.75371 0
M  V30 13618 O 1314.07 0.928019 -1.32174 0
M  V30 13619 H 1314.76 1.55982 -1.14844 0
M  V30 END ATOM
M  V30 BEGIN BOND
M  V30 END BOND
M  V30 END CTAB
M  END
$$$$
