drugbank_target|Q8WX39 Epididymal-specific lipocalin-9 (DB01760; DB02924; DB03087; DB03711; DB04512)
 OpenBabel12092120513D

  0  0  0     0  0            999 V3000
M  V30 BEGIN CTAB
M  V30 COUNTS 2817 2849 0 0 0
M  V30 BEGIN ATOM
M  V30 1 H -0.908 1.98254 -0.117106 0
M  V30 2 N 0 1.576 0 0
M  V30 3 C 0.933 2.03868 1.02534 0
M  V30 4 C 1.911 0.928543 1.3348 0
M  V30 5 O 3.095 1.19667 1.45644 0
M  V30 6 C 0.222 2.43627 2.35294 0
M  V30 7 C -0.732 3.65373 2.2001 0
M  V30 8 S 0.101 5.13292 1.52614 0
M  V30 9 C 1.257 5.56322 2.86805 0
M  V30 10 H 1.49 2.90518 0.631377 0
M  V30 11 H -0.977 1.52953 0.210867 0
M  V30 12 H 0.981 2.67203 3.11629 0
M  V30 13 H -0.358 1.57376 2.7183 0
M  V30 14 H -1.165 3.90944 3.18086 0
M  V30 15 H -1.563 3.418 1.51819 0
M  V30 16 H 0.729 5.58782 3.83104 0
M  V30 17 H 1.672 6.56266 2.65933 0
M  V30 18 H 2.08 4.83886 2.90714 0
M  V30 19 N 1.4781 -0.272755 1.55222 0
M  V30 20 C 2.4411 -1.32041 1.87344 0
M  V30 21 C 3.4411 -1.42342 0.74803 0
M  V30 22 O 4.6311 -1.41488 1.0162 0
M  V30 23 C 1.7631 -2.70173 2.07893 0
M  V30 24 H 2.9561 -1.04789 2.80997 0
M  V30 25 H 0.5091 -0.51083 1.47717 0
M  V30 26 H 1.2441 -3.02605 1.16622 0
M  V30 27 H 1.0291 -2.64082 2.89833 0
M  V30 28 H 2.5191 -3.45869 2.34017 0
M  V30 29 N 2.9562 -1.48159 -0.537278 0
M  V30 30 C 3.8862 -1.65029 -1.6519 0
M  V30 31 C 4.8672 -0.499281 -1.62607 0
M  V30 32 O 6.0522 -0.730972 -1.79918 0
M  V30 33 C 3.1822 -1.68303 -3.03795 0
M  V30 34 C 2.1362 -2.8283 -3.21234 0
M  V30 35 C 1.4622 -2.71189 -4.60826 0
M  V30 36 C 2.7622 -4.24211 -3.04701 0
M  V30 37 H 4.4562 -2.58341 -1.51328 0
M  V30 38 H 2.0022 -1.24325 -0.726585 0
M  V30 39 H 3.9552 -1.78693 -3.81637 0
M  V30 40 H 2.6792 -0.715635 -3.18663 0
M  V30 41 H 1.3382 -2.71983 -2.45807 0
M  V30 42 H 0.9862 -1.72435 -4.7252 0
M  V30 43 H 0.6862 -3.48035 -4.7344 0
M  V30 44 H 2.2102 -2.83537 -5.40777 0
M  V30 45 H 3.6242 -4.3593 -3.72341 0
M  V30 46 H 2.0212 -5.01998 -3.28813 0
M  V30 47 H 3.0912 -4.41184 -2.01209 0
M  V30 48 N 4.4343 0.785586 -1.36625 0
M  V30 49 C 5.3643 1.91259 -1.33949 0
M  V30 50 C 6.3453 1.68795 -0.210325 0
M  V30 51 O 7.5303 1.89854 -0.408561 0
M  V30 52 C 4.6603 3.28339 -1.13186 0
M  V30 53 C 3.6143 3.65335 -2.22967 0
M  V30 54 C 2.9403 5.00806 -1.87342 0
M  V30 55 C 4.2403 3.7352 -3.65075 0
M  V30 56 H 5.9343 1.93755 -2.28253 0
M  V30 57 H 3.4803 0.930788 -1.09874 0
M  V30 58 H 5.4333 4.06804 -1.09948 0
M  V30 59 H 4.1573 3.2624 -0.153332 0
M  V30 60 H 2.8163 2.89169 -2.25337 0
M  V30 61 H 2.4643 4.95233 -0.880545 0
M  V30 62 H 2.1643 5.26529 -2.60846 0
M  V30 63 H 3.6883 5.81687 -1.85667 0
M  V30 64 H 5.1023 4.42168 -3.64911 0
M  V30 65 H 3.4993 4.10731 -4.37516 0
M  V30 66 H 4.5693 2.74527 -3.99703 0
M  V30 67 N 5.9124 1.20967 1.01018 0
M  V30 68 C 6.8424 0.988272 2.11555 0
M  V30 69 C 7.8234 -0.0849778 1.69888 0
M  V30 70 O 9.0084 0.0738202 1.9406 0
M  V30 71 C 6.1384 0.546528 3.42973 0
M  V30 72 C 5.0924 1.56375 3.9841 0
M  V30 73 C 4.4184 0.97842 5.25672 0
M  V30 74 C 5.7184 2.94922 4.31066 0
M  V30 75 H 7.4124 1.91276 2.30334 0
M  V30 76 H 4.9584 0.921073 1.1069 0
M  V30 77 H 6.9114 0.378839 4.19694 0
M  V30 78 H 5.6354 -0.413598 3.23971 0
M  V30 79 H 4.2944 1.71891 3.23804 0
M  V30 80 H 3.9424 0.0101688 5.02999 0
M  V30 81 H 3.6424 1.65784 5.63728 0
M  V30 82 H 5.1664 0.821939 6.05043 0
M  V30 83 H 6.5804 2.8288 4.9865 0
M  V30 84 H 4.9774 3.5983 4.80253 0
M  V30 85 H 6.0474 3.4616 3.39561 0
M  V30 86 N 7.3905 -1.2043 1.01659 0
M  V30 87 C 8.3205 -2.25466 0.607226 0
M  V30 88 C 9.3015 -1.65853 -0.377716 0
M  V30 89 O 10.4865 -1.92409 -0.263149 0
M  V30 90 C 7.6165 -3.47256 -0.0552949 0
M  V30 91 C 6.5705 -4.19462 0.850632 0
M  V30 92 C 5.8965 -5.34673 0.0538859 0
M  V30 93 C 7.1965 -4.75603 2.15868 0
M  V30 94 H 8.8905 -2.59962 1.48526 0
M  V30 95 H 6.4365 -1.2496 0.715605 0
M  V30 96 H 8.3895 -4.19917 -0.353233 0
M  V30 97 H 7.1135 -3.11924 -0.968045 0
M  V30 98 H 5.7725 -3.48667 1.13257 0
M  V30 99 H 5.4205 -4.95585 -0.860514 0
M  V30 100 H 5.1205 -5.83913 0.657192 0
M  V30 101 H 6.6445 -6.10138 -0.237598 0
M  V30 102 H 8.0585 -5.40083 1.92311 0
M  V30 103 H 6.4555 -5.3528 2.71284 0
M  V30 104 H 7.5255 -3.94346 2.82169 0
M  V30 105 N 8.8686 -0.792821 -1.36206 0
M  V30 106 C 10.0936 -0.377701 -2.03932 0
M  V30 107 C 10.5186 0.998947 -1.59382 0
M  V30 108 O 9.8766 1.64421 -0.763903 0
M  V30 109 C 9.9246 -0.453635 -3.57735 0
M  V30 110 O 9.0286 0.538151 -4.08874 0
M  V30 111 H 8.3696 -0.159855 -0.644471 0
M  V30 112 H 10.8996 -1.07488 -1.7409 0
M  V30 113 H 10.9096 -0.318464 -4.06755 0
M  V30 114 H 9.5846 -1.45784 -3.89512 0
M  V30 115 H 8.1616 0.364359 -3.71116 0
M  V30 116 N 10.3467 1.47872 -0.545128 0
M  V30 117 C 11.2767 2.32661 0.197793 0
M  V30 118 C 12.2577 1.43041 0.920504 0
M  V30 119 O 13.4427 1.71912 0.90333 0
M  V30 120 C 10.5727 3.24569 1.23582 0
M  V30 121 C 9.5267 4.23333 0.630323 0
M  V30 122 C 8.8527 5.0448 1.77211 0
M  V30 123 C 10.1527 5.20704 -0.407974 0
M  V30 124 H 11.8467 2.95024 -0.510045 0
M  V30 125 H 9.3927 1.4187 -0.246731 0
M  V30 126 H 11.3457 3.8272 1.76362 0
M  V30 127 H 10.0697 2.60236 1.97344 0
M  V30 128 H 8.7287 3.6639 0.123922 0
M  V30 129 H 8.3767 4.36561 2.49847 0
M  V30 130 H 8.0767 5.71339 1.37281 0
M  V30 131 H 9.6007 5.65487 2.3034 0
M  V30 132 H 11.0147 5.7329 0.033305 0
M  V30 133 H 9.4117 5.95699 -0.725486 0
M  V30 134 H 10.4817 4.66917 -1.30828 0
M  V30 135 N 11.8248 0.280983 1.55075 0
M  V30 136 C 13.0728 -0.333455 1.9933 0
M  V30 137 C 13.3938 -1.55937 1.17085 0
M  V30 138 O 12.6638 -1.94143 0.261805 0
M  V30 139 H 11.2438 -0.126197 0.736263 0
M  V30 140 H 13.9058 0.387678 1.91005 0
M  V30 141 H 13.0018 -0.619292 3.05894 0
M  V30 142 N 13.3029 -1.57598 0.00835791 0
M  V30 143 C 14.2329 -2.1198 -0.979113 0
M  V30 144 C 15.2139 -1.03091 -1.35301 0
M  V30 145 O 16.3989 -1.30818 -1.43528 0
M  V30 146 C 13.5289 -2.62995 -2.26828 0
M  V30 147 C 12.4829 -3.76485 -2.03576 0
M  V30 148 C 11.8089 -4.13846 -3.38579 0
M  V30 149 C 13.1089 -5.0342 -1.39161 0
M  V30 150 H 14.8029 -2.94738 -0.526281 0
M  V30 151 H 12.3489 -1.41783 -0.251704 0
M  V30 152 H 14.3019 -2.99669 -2.96271 0
M  V30 153 H 13.0259 -1.7737 -2.7424 0
M  V30 154 H 11.6849 -3.40217 -1.36557 0
M  V30 155 H 11.3329 -3.25232 -3.83709 0
M  V30 156 H 11.0329 -4.90312 -3.23834 0
M  V30 157 H 12.5569 -4.53086 -4.09323 0
M  V30 158 H 13.9709 -5.37812 -1.98573 0
M  V30 159 H 12.3679 -5.84746 -1.34878 0
M  V30 160 H 13.4379 -4.83548 -0.361868 0
M  V30 161 N 14.781 0.264519 -1.55364 0
M  V30 162 C 16.006 1.01726 -1.80739 0
M  V30 163 C 16.431 1.78836 -0.583044 0
M  V30 164 O 15.789 1.75167 0.467566 0
M  V30 165 C 15.837 1.94482 -3.03659 0
M  V30 166 O 14.941 3.03386 -2.7934 0
M  V30 167 H 14.282 0.290395 -0.597132 0
M  V30 168 H 16.812 0.290854 -2.02522 0
M  V30 169 H 16.822 2.36278 -3.32621 0
M  V30 170 H 15.497 1.37772 -3.92418 0
M  V30 171 H 14.074 2.65844 -2.61498 0
M  V30 172 N 16.2591 1.48442 0.529413 0
M  V30 173 C 17.1891 1.65902 1.64313 0
M  V30 174 C 18.1701 0.507897 1.6234 0
M  V30 175 O 19.3551 0.740503 1.79528 0
M  V30 176 C 16.4851 1.69911 3.02898 0
M  V30 177 C 15.4391 2.8453 3.19729 0
M  V30 178 C 14.7651 2.73629 4.59381 0
M  V30 179 C 16.0651 4.25821 3.02447 0
M  V30 180 H 17.7591 2.5914 1.49955 0
M  V30 181 H 15.3051 1.24709 0.719982 0
M  V30 182 H 17.2581 1.80715 3.80684 0
M  V30 183 H 15.9821 0.732524 3.18279 0
M  V30 184 H 14.6411 2.73283 2.44361 0
M  V30 185 H 14.2891 1.74938 4.71599 0
M  V30 186 H 13.9891 3.50541 4.71588 0
M  V30 187 H 15.5131 2.86401 5.39265 0
M  V30 188 H 16.9271 4.37898 3.70024 0
M  V30 189 H 15.3241 5.03735 3.26146 0
M  V30 190 H 16.3941 4.42244 1.98867 0
M  V30 191 N 17.7372 -0.778329 1.37039 0
M  V30 192 C 18.9862 -1.53189 1.3121 0
M  V30 193 C 19.2992 -1.95328 -0.103095 0
M  V30 194 O 20.5052 -2.70012 -0.283826 0
M  V30 195 C 18.9612 -2.76591 2.30272 0
M  V30 196 C 18.5692 -2.41577 3.77286 0
M  V30 197 C 20.3132 -3.5455 2.33441 0
M  V30 198 C 18.2202 -3.61441 4.68096 0
M  V30 199 H 17.1502 -0.5751 0.487622 0
M  V30 200 H 19.8012 -0.853101 1.62464 0
M  V30 201 H 18.1832 -3.46326 1.92027 0
M  V30 202 H 19.3572 -1.79668 4.2433 0
M  V30 203 H 17.6722 -1.76806 3.76999 0
M  V30 204 H 20.2692 -4.43628 2.98493 0
M  V30 205 H 20.6122 -3.93936 1.34611 0
M  V30 206 H 21.1452 -2.91805 2.7036 0
M  V30 207 H 17.8842 -3.27142 5.6803 0
M  V30 208 H 17.4042 -4.22478 4.25761 0
M  V30 209 H 19.0832 -4.28335 4.8491 0
M  V30 210 N 19.2153 -1.21501 -1.00376 0
M  V30 211 C 20.1783 -0.976927 -2.07337 0
M  V30 212 C 21.1783 0.0525322 -1.60714 0
M  V30 213 O 22.3683 -0.184869 -1.73216 0
M  V30 214 C 19.5003 -0.473423 -3.37597 0
M  V30 215 H 20.6933 -1.92587 -2.29892 0
M  V30 216 H 18.2463 -1.03217 -1.17371 0
M  V30 217 H 18.9813 0.480379 -3.20722 0
M  V30 218 H 18.7663 -1.216 -3.72768 0
M  V30 219 H 20.2563 -0.32675 -4.1632 0
M  V30 220 N 20.6934 1.19889 -1.02296 0
M  V30 221 C 21.6564 2.21116 -0.603351 0
M  V30 222 C 22.6564 1.5738 0.329884 0
M  V30 223 O 23.8464 1.73802 0.117702 0
M  V30 224 C 20.9784 3.40696 0.117992 0
M  V30 225 H 22.1714 2.59754 -1.49893 0
M  V30 226 H 19.7244 1.33463 -0.813468 0
M  V30 227 H 20.4594 3.07569 1.0282 0
M  V30 228 H 20.2444 3.88188 -0.552511 0
M  V30 229 H 21.7344 4.15692 0.398696 0
M  V30 230 N 22.1715 0.800033 1.35784 0
M  V30 231 C 23.1035 0.163596 2.28615 0
M  V30 232 C 24.1165 -0.633317 1.49976 0
M  V30 233 O 25.3055 -0.466754 1.72289 0
M  V30 234 C 22.4055 -0.790958 3.29541 0
M  V30 235 C 21.5785 -0.0418255 4.3738 0
M  V30 236 C 20.6375 -0.91389 5.18203 0
M  V30 237 O 19.6635 -0.367234 5.68014 0
M  V30 238 N 20.8655 -2.23682 5.35674 0
M  V30 239 H 23.6305 0.96105 2.83873 0
M  V30 240 H 21.1915 0.654894 1.48063 0
M  V30 241 H 23.1835 -1.37844 3.80501 0
M  V30 242 H 21.7535 -1.48925 2.74846 0
M  V30 243 H 20.9735 0.726813 3.87442 0
M  V30 244 H 22.2615 0.474719 5.06581 0
M  V30 245 H 21.6595 -2.70497 4.96838 0
M  V30 246 H 20.2165 -2.77369 5.89839 0
M  V30 247 N 23.6496 -1.47581 0.552962 0
M  V30 248 C 24.5596 -2.33743 -0.200353 0
M  V30 249 C 25.5756 -1.47928 -0.916151 0
M  V30 250 O 26.7516 -1.80865 -0.885993 0
M  V30 251 C 23.8166 -3.24536 -1.21973 0
M  V30 252 C 22.8776 -4.26238 -0.511819 0
M  V30 253 C 22.1106 -5.12693 -1.48263 0
M  V30 254 O 22.3336 -5.01525 -2.71714 0
M  V30 255 O 21.2676 -5.93375 -1.00945 0
M  V30 256 H 25.0936 -2.9945 0.506304 0
M  V30 257 H 22.6786 -1.46071 0.313622 0
M  V30 258 H 24.5606 -3.80631 -1.80827 0
M  V30 259 H 23.2356 -2.61462 -1.90839 0
M  V30 260 H 22.1426 -3.73914 0.117799 0
M  V30 261 H 23.4756 -4.92014 0.135308 0
M  V30 262 N 25.1277 -0.289203 -1.54924 0
M  V30 263 C 26.3747 0.323519 -1.99899 0
M  V30 264 C 26.7027 1.54797 -1.17762 0
M  V30 265 O 25.9577 1.94237 -0.238835 0
M  V30 266 C 26.2567 0.736119 -3.49737 0
M  V30 267 C 25.9227 -0.385276 -4.49251 0
M  V30 268 C 24.5847 -0.693156 -4.76181 0
M  V30 269 C 26.9367 -1.14021 -5.08575 0
M  V30 270 C 24.2647 -1.7593 -5.59701 0
M  V30 271 C 26.6167 -2.19619 -5.93254 0
M  V30 272 C 25.2807 -2.51026 -6.185 0
M  V30 273 H 24.5507 0.118384 -0.731482 0
M  V30 274 H 27.1977 -0.405847 -1.8715 0
M  V30 275 H 25.5027 1.54539 -3.60035 0
M  V30 276 H 27.1997 1.22118 -3.81953 0
M  V30 277 H 23.7897 -0.135202 -4.28387 0
M  V30 278 H 27.9737 -0.915611 -4.87781 0
M  V30 279 H 23.2297 -2.0075 -5.77503 0
M  V30 280 H 27.4037 -2.78581 -6.38252 0
M  V30 281 H 25.0307 -3.33772 -6.83008 0
M  V30 282 N 26.6058 1.57591 -0.0167156 0
M  V30 283 C 27.8828 1.82547 0.702564 0
M  V30 284 C 28.2628 0.898018 1.91047 0
M  V30 285 O 27.6108 -0.0493456 2.28447 0
M  V30 286 C 27.8208 3.31459 1.09251 0
M  V30 287 C 29.1688 3.97622 1.48937 0
M  V30 288 O 30.1928 3.35881 1.18584 0
M  V30 289 O 29.0518 5.06415 2.05442 0
M  V30 290 H 26.1458 0.752268 0.343544 0
M  V30 291 H 28.6918 1.69644 -0.0434495 0
M  V30 292 H 27.4638 3.9061 0.23227 0
M  V30 293 H 27.0868 3.49422 1.89709 0
M  V30 294 N 28.0839 -0.256276 1.55502 0
M  V30 295 C 29.4949 -0.826068 1.67431 0
M  V30 296 C 29.8459 -1.86396 0.612446 0
M  V30 297 O 28.9709 -2.15031 -0.243025 0
M  V30 298 C 29.5659 -1.50512 3.03532 0
M  V30 299 C 28.1249 -2.02273 3.17431 0
M  V30 300 C 27.2719 -0.870548 2.63281 0
M  V30 301 H 30.2229 -0.0322728 1.58667 0
M  V30 302 H 30.2439 -2.37279 2.97454 0
M  V30 303 H 29.7559 -0.749484 3.80794 0
M  V30 304 H 27.8569 -2.80746 2.44974 0
M  V30 305 H 27.9699 -2.22655 4.24219 0
M  V30 306 H 26.3339 -1.26851 2.20864 0
M  V30 307 H 27.1169 -0.128149 3.43061 0
M  V30 308 N 29.562 -1.4872 -0.521534 0
M  V30 309 C 30.512 -1.60269 -1.62166 0
M  V30 310 C 31.496 -0.45935 -1.54204 0
M  V30 311 O 32.688 -0.711241 -1.62081 0
M  V30 312 C 29.817 -1.65344 -3.00859 0
M  V30 313 C 28.903 -2.85187 -3.13894 0
M  V30 314 N 29.294 -4.09509 -2.96877 0
M  V30 315 C 27.592 -2.82695 -3.44963 0
M  V30 316 C 28.293 -4.89959 -3.13552 0
M  V30 317 N 27.269 -4.22934 -3.41508 0
M  V30 318 H 31.071 -2.5413 -1.47632 0
M  V30 319 H 28.585 -1.45209 -0.727194 0
M  V30 320 H 30.582 -1.71713 -3.79895 0
M  V30 321 H 29.242 -0.726058 -3.16478 0
M  V30 322 H 30.253 -4.39814 -2.73467 0
M  V30 323 H 26.93 -1.99249 -3.66887 0
M  V30 324 H 28.32 -5.98654 -3.05061 0
M  V30 325 N 31.0401 0.771051 -1.3745 0
M  V30 326 C 32.2681 1.56015 -1.35893 0
M  V30 327 C 32.6831 1.88718 0.0555523 0
M  V30 328 O 32.0401 1.51502 1.01752 0
M  V30 329 C 32.0911 2.87001 -2.19801 0
M  V30 330 O 31.8121 2.557 -3.55738 0
M  V30 331 C 33.3131 3.81228 -2.26231 0
M  V30 332 H 30.5331 0.483317 -0.465453 0
M  V30 333 H 33.0771 0.955611 -1.80799 0
M  V30 334 H 31.2321 3.43877 -1.78402 0
M  V30 335 H 31.6461 3.39584 -3.99729 0
M  V30 336 H 33.1201 4.70139 -2.89263 0
M  V30 337 H 33.5971 4.20409 -1.27093 0
M  V30 338 H 34.2031 3.30281 -2.67945 0
M  V30 339 N 32.5182 1.22032 0.997298 0
M  V30 340 C 33.7642 1.04376 1.73878 0
M  V30 341 C 34.0972 -0.420716 1.89588 0
M  V30 342 O 33.3722 -1.31202 1.43583 0
M  V30 343 C 33.6552 1.75047 3.14691 0
M  V30 344 C 33.5082 3.29062 3.06656 0
M  V30 345 C 34.8272 1.49928 4.13775 0
M  V30 346 H 31.9462 0.380578 0.631133 0
M  V30 347 H 34.5882 1.50312 1.16217 0
M  V30 348 H 32.7382 1.35996 3.63919 0
M  V30 349 H 34.4102 3.7753 2.65083 0
M  V30 350 H 32.6532 3.58967 2.43568 0
M  V30 351 H 33.3242 3.73683 4.06282 0
M  V30 352 H 35.8002 1.83842 3.73285 0
M  V30 353 H 34.6762 2.01878 5.10428 0
M  V30 354 H 34.9372 0.430929 4.39995 0
M  V30 355 N 33.9963 -1.19345 1.0293 0
M  V30 356 C 34.9293 -2.21347 0.555029 0
M  V30 357 C 35.9073 -1.57492 -0.404351 0
M  V30 358 O 37.0913 -1.85741 -0.321352 0
M  V30 359 C 34.2183 -3.38163 -0.19064 0
M  V30 360 C 33.2643 -4.20375 0.720236 0
M  V30 361 S 34.0973 -4.88371 2.19668 0
M  V30 362 C 35.2533 -6.08597 1.46153 0
M  V30 363 H 35.4863 -2.61235 1.41929 0
M  V30 364 H 33.0193 -1.29598 0.839272 0
M  V30 365 H 34.9773 -4.05871 -0.614724 0
M  V30 366 H 33.6383 -2.9671 -1.03063 0
M  V30 367 H 32.8313 -5.03793 0.14455 0
M  V30 368 H 32.4333 -3.57987 1.08266 0
M  V30 369 H 34.7253 -6.73354 0.748357 0
M  V30 370 H 35.6683 -6.7065 2.27233 0
M  V30 371 H 36.0763 -5.56297 0.958842 0
M  V30 372 N 35.4744 -0.807222 -1.35358 0
M  V30 373 C 36.4064 -0.175717 -2.28525 0
M  V30 374 C 37.4194 0.625354 -1.5031 0
M  V30 375 O 38.6084 0.457611 -1.72535 0
M  V30 376 C 35.7084 0.773471 -3.29956 0
M  V30 377 C 34.8814 0.0186296 -4.37396 0
M  V30 378 C 33.9404 0.886395 -5.18681 0
M  V30 379 O 32.9664 0.337106 -5.68201 0
M  V30 380 N 34.1684 2.20839 -5.36852 0
M  V30 381 H 36.9334 -0.976091 -2.83359 0
M  V30 382 H 34.4944 -0.662737 -1.47714 0
M  V30 383 H 36.4864 1.35824 -3.81227 0
M  V30 384 H 35.0564 1.47465 -2.75632 0
M  V30 385 H 34.2764 -0.747349 -3.87051 0
M  V30 386 H 35.5644 -0.501577 -5.06322 0
M  V30 387 H 34.9624 2.67858 -4.98265 0
M  V30 388 H 33.5194 2.74237 -5.91301 0
M  V30 389 N 36.9525 1.47285 -0.560781 0
M  V30 390 C 38.3685 1.58065 -0.22081 0
M  V30 391 C 38.5685 1.55892 1.27671 0
M  V30 392 O 37.6245 1.46422 2.0571 0
M  V30 393 C 38.9375 2.88418 -0.850625 0
M  V30 394 C 40.4855 3.02009 -0.822184 0
M  V30 395 C 40.9605 4.35066 -1.43113 0
M  V30 396 N 42.4515 4.41711 -1.39448 0
M  V30 397 C 43.1865 5.43237 -1.83525 0
M  V30 398 N 42.6825 6.51555 -2.35474 0
M  V30 399 N 44.4755 5.34304 -1.74574 0
M  V30 400 H 36.6265 1.46941 -1.53369 0
M  V30 401 H 38.8895 0.699558 -0.639783 0
M  V30 402 H 38.5955 2.95755 -1.9032 0
M  V30 403 H 38.4695 3.75612 -0.345773 0
M  V30 404 H 40.8565 2.94266 0.221714 0
M  V30 405 H 40.9375 2.16347 -1.36483 0
M  V30 406 H 40.5815 4.43565 -2.47412 0
M  V30 407 H 40.5115 5.19465 -0.863899 0
M  V30 408 H 43.0025 3.64027 -1.01452 0
M  V30 409 H 43.3155 7.25203 -2.67021 0
M  V30 410 H 41.6605 6.52435 -2.39487 0
M  V30 411 H 44.8515 4.48581 -1.33763 0
M  V30 412 H 45.0245 6.13288 -2.09242 0
M  V30 413 N 38.4306 0.297415 1.54768 0
M  V30 414 C 39.3786 -0.596051 2.24833 0
M  V30 415 C 40.3726 -1.13992 1.25308 0
M  V30 416 O 41.5786 -1.09098 1.4317 0
M  V30 417 H 37.9536 -0.210814 0.721846 0
M  V30 418 H 39.9246 0.0174667 2.98395 0
M  V30 419 C 38.6736 -1.75818 2.99972 0
M  V30 420 H 37.9966 -1.3489 3.76357 0
M  V30 421 H 39.4366 -2.35949 3.52284 0
M  V30 422 C 37.8956 -2.66014 2.06732 0
M  V30 423 O 38.4256 -3.67009 1.63302 0
M  V30 424 N 36.6316 -2.33669 1.72763 0
M  V30 425 H 36.1786 -1.51586 2.08277 0
M  V30 426 H 36.1366 -2.94285 1.10652 0
M  V30 427 N 39.9087 -1.5758 0.0250728 0
M  V30 428 C 41.1387 -1.95646 -0.663783 0
M  V30 429 C 41.5467 -0.899935 -1.66427 0
M  V30 430 O 40.8897 0.127191 -1.83259 0
M  V30 431 C 40.9517 -3.29835 -1.43 0
M  V30 432 C 40.6157 -4.53197 -0.588305 0
M  V30 433 C 41.6127 -5.19726 0.13469 0
M  V30 434 C 39.2977 -4.99529 -0.526897 0
M  V30 435 C 41.2917 -6.30902 0.90781 0
M  V30 436 C 38.9787 -6.10589 0.24993 0
M  V30 437 C 39.9767 -6.76134 0.965994 0
M  V30 438 O 39.6647 -7.85062 1.7301 0
M  V30 439 H 39.3967 -0.649282 -0.188174 0
M  V30 440 H 41.9507 -2.05245 0.0799006 0
M  V30 441 H 40.1807 -3.16716 -2.21873 0
M  V30 442 H 41.8697 -3.52833 -2.00658 0
M  V30 443 H 42.6357 -4.84904 0.0965562 0
M  V30 444 H 38.5147 -4.48319 -1.07381 0
M  V30 445 H 42.0587 -6.81995 1.46724 0
M  V30 446 H 37.9557 -6.44849 0.289795 0
M  V30 447 H 38.7237 -8.01708 1.64944 0
M  V30 448 N 41.3868 0.248026 -1.55636 0
M  V30 449 C 42.3348 1.32683 -1.91045 0
M  V30 450 C 43.3288 1.49883 -0.789401 0
M  V30 451 O 44.5348 1.51371 -0.974007 0
M  V30 452 H 40.9098 0.444272 -0.606734 0
M  V30 453 H 42.8808 1.00085 -2.81115 0
M  V30 454 C 41.6298 2.6755 -2.22064 0
M  V30 455 H 40.9528 2.55114 -3.07826 0
M  V30 456 H 42.3928 3.41912 -2.50743 0
M  V30 457 C 40.8518 3.20556 -1.0366 0
M  V30 458 O 41.3818 4.00695 -0.284016 0
M  V30 459 N 39.5878 2.78568 -0.82753 0
M  V30 460 H 39.1348 2.1351 -1.44123 0
M  V30 461 H 39.0928 3.14378 -0.0369803 0
M  V30 462 N 42.8649 1.48995 0.513639 0
M  V30 463 C 44.1109 1.58076 1.27042 0
M  V30 464 C 44.4439 0.261026 1.92438 0
M  V30 465 O 43.7189 -0.734393 1.80103 0
M  V30 466 C 44.0019 2.73091 2.34719 0
M  V30 467 C 43.8549 4.14821 1.73907 0
M  V30 468 C 45.1739 2.83796 3.36375 0
M  V30 469 H 42.2929 0.575391 0.460536 0
M  V30 470 H 44.9349 1.81232 0.570516 0
M  V30 471 H 43.0849 2.53479 2.94416 0
M  V30 472 H 44.7569 4.45917 1.18135 0
M  V30 473 H 42.9999 4.21058 1.0437 0
M  V30 474 H 43.6709 4.91147 2.51949 0
M  V30 475 H 46.1469 3.01611 2.86653 0
M  V30 476 H 45.0229 3.65971 4.09093 0
M  V30 477 H 45.2839 1.92624 3.9793 0
M  V30 478 N 44.343 -0.763751 1.37857 0
M  V30 479 C 45.306 -1.85889 1.34081 0
M  V30 480 C 46.306 -1.58949 0.243277 0
M  V30 481 O 47.496 -1.66882 0.499589 0
M  V30 482 C 44.628 -3.23176 1.08489 0
M  V30 483 H 45.821 -1.90648 2.31502 0
M  V30 484 H 43.374 -0.964367 1.23003 0
M  V30 485 H 44.109 -3.24091 0.116318 0
M  V30 486 H 43.894 -3.44124 1.8794 0
M  V30 487 H 45.384 -4.03254 1.08517 0
M  V30 488 N 45.8211 -1.22559 -0.990812 0
M  V30 489 C 47.2371 -0.985996 -1.255 0
M  V30 490 C 47.4371 0.319173 -1.98956 0
M  V30 491 O 46.4931 1.04127 -2.3003 0
M  V30 492 C 47.8061 -2.18607 -2.06474 0
M  V30 493 C 49.3541 -2.22985 -2.19651 0
M  V30 494 C 49.8291 -3.4255 -3.04012 0
M  V30 495 N 51.3201 -3.42725 -3.11599 0
M  V30 496 C 52.0551 -4.31892 -3.7717 0
M  V30 497 N 51.5511 -5.31279 -4.44651 0
M  V30 498 N 53.3441 -4.19662 -3.73952 0
M  V30 499 H 45.4951 -2.06469 -0.49841 0
M  V30 500 H 47.7581 -0.904853 -0.282747 0
M  V30 501 H 47.4641 -3.13267 -1.59865 0
M  V30 502 H 47.3381 -2.18838 -3.07229 0
M  V30 503 H 49.7251 -1.28871 -2.65474 0
M  V30 504 H 49.8061 -2.26791 -1.18319 0
M  V30 505 H 49.4501 -4.36965 -2.58889 0
M  V30 506 H 49.3801 -3.35984 -4.0549 0
M  V30 507 H 51.8711 -2.70807 -2.63575 0
M  V30 508 H 52.1841 -5.95593 -4.92431 0
M  V30 509 H 50.5291 -5.3519 -4.43392 0
M  V30 510 H 53.7201 -3.41268 -3.20396 0
M  V30 511 H 53.8931 -4.89358 -4.24774 0
M  V30 512 N 47.2992 1.18797 -1.03562 0
M  V30 513 C 48.5452 1.8893 -0.737113 0
M  V30 514 C 48.8782 1.79837 0.732956 0
M  V30 515 O 48.1532 1.19525 1.5344 0
M  V30 516 C 48.4362 3.39607 -1.19745 0
M  V30 517 C 48.2892 3.57537 -2.72924 0
M  V30 518 C 49.6082 4.33069 -0.783526 0
M  V30 519 H 46.7272 0.686057 -0.269249 0
M  V30 520 H 49.3692 1.39797 -1.28673 0
M  V30 521 H 47.5192 3.81583 -0.729855 0
M  V30 522 H 49.1912 3.24688 -3.27682 0
M  V30 523 H 47.4342 3.00363 -3.12993 0
M  V30 524 H 48.1052 4.63238 -3.00191 0
M  V30 525 H 50.5812 3.98846 -1.18581 0
M  V30 526 H 49.4572 5.3707 -1.13343 0
M  V30 527 H 49.7182 4.40986 0.313681 0
M  V30 528 N 48.7773 0.814389 1.34928 0
M  V30 529 C 50.0023 0.410097 2.03305 0
M  V30 530 C 50.4273 -0.973464 1.60951 0
M  V30 531 O 49.7853 -1.63185 0.789964 0
M  V30 532 C 49.8333 0.51049 3.56968 0
M  V30 533 O 48.9373 -0.473035 4.09678 0
M  V30 534 H 48.2783 0.170088 0.641846 0
M  V30 535 H 50.8083 1.10244 1.72358 0
M  V30 536 H 50.8183 0.383135 4.06197 0
M  V30 537 H 49.4933 1.51963 3.87144 0
M  V30 538 H 48.0703 -0.305272 3.71648 0
M  V30 539 N 50.2554 -1.46986 0.568584 0
M  V30 540 C 51.5034 -2.02041 0.0487022 0
M  V30 541 C 51.8244 -1.44408 -1.31039 0
M  V30 542 O 51.0944 -0.623477 -1.85714 0
M  V30 543 H 49.6744 -0.746849 0.015014 0
M  V30 544 H 52.3364 -1.80257 0.741168 0
M  V30 545 H 51.4324 -3.12085 -0.0308961 0
M  V30 546 N 51.7335 -0.305618 -1.54608 0
M  V30 547 C 52.9795 0.302746 -2.00528 0
M  V30 548 C 53.3125 1.53184 -1.19367 0
M  V30 549 O 52.5875 1.92598 -0.271321 0
M  V30 550 C 52.8705 0.654756 -3.54097 0
M  V30 551 C 52.7235 -0.583793 -4.45995 0
M  V30 552 C 54.0425 1.47947 -4.14487 0
M  V30 553 H 51.1615 0.108564 -0.72896 0
M  V30 554 H 53.8035 -0.418634 -1.85331 0
M  V30 555 H 51.9535 1.26935 -3.67178 0
M  V30 556 H 53.6255 -1.22224 -4.44814 0
M  V30 557 H 51.8685 -1.21615 -4.16404 0
M  V30 558 H 52.5395 -0.293287 -5.5122 0
M  V30 559 H 55.0155 0.96013 -4.04871 0
M  V30 560 H 53.8915 1.69454 -5.22088 0
M  V30 561 H 54.1525 2.47011 -3.66658 0
M  V30 562 N 53.2116 1.57565 -0.0334293 0
M  V30 563 C 54.4576 1.93088 0.639417 0
M  V30 564 C 54.8126 0.910589 1.69488 0
M  V30 565 O 54.1056 -0.0727725 1.91462 0
M  V30 566 C 54.2996 3.33112 1.29504 0
M  V30 567 C 54.1286 4.48667 0.304604 0
M  V30 568 C 52.8986 5.05207 -0.0970777 0
M  V30 569 C 55.0966 5.1239 -0.442845 0
M  V30 570 N 53.0786 6.04286 -1.08223 0
M  V30 571 C 54.4496 6.06609 -1.28161 0
M  V30 572 C 56.5046 4.95352 -0.50308 0
M  V30 573 C 55.2076 6.85622 -2.17519 0
M  V30 574 C 57.2336 5.74978 -1.38401 0
M  V30 575 C 56.5956 6.68816 -2.21054 0
M  V30 576 H 52.6946 0.754335 0.206161 0
M  V30 577 H 55.2786 1.94435 -0.101613 0
M  V30 578 H 53.4496 3.32576 2.00618 0
M  V30 579 H 55.1816 3.55972 1.92525 0
M  V30 580 H 51.9366 4.72782 0.278255 0
M  V30 581 H 52.3606 6.58516 -1.57117 0
M  V30 582 H 57.0026 4.22625 0.121694 0
M  V30 583 H 54.7206 7.57652 -2.81049 0
M  V30 584 H 58.3066 5.63826 -1.43496 0
M  V30 585 H 57.1866 7.29355 -2.88116 0
M  V30 586 N 54.6897 -0.239769 1.55765 0
M  V30 587 C 55.9197 -0.982743 1.8173 0
M  V30 588 C 56.3277 -1.7917 0.607835 0
M  V30 589 O 55.6707 -1.78525 -0.432973 0
M  V30 590 C 55.7327 -1.96332 3.01155 0
M  V30 591 C 55.3967 -1.34062 4.36894 0
M  V30 592 C 56.3937 -0.739539 5.14613 0
M  V30 593 C 54.0787 -1.35784 4.83599 0
M  V30 594 C 56.0727 -0.163989 6.37189 0
M  V30 595 C 53.7597 -0.778441 6.06122 0
M  V30 596 C 54.7577 -0.182548 6.82756 0
M  V30 597 O 54.4457 0.387887 8.02964 0
M  V30 598 H 54.1777 -0.294481 0.608487 0
M  V30 599 H 56.7317 -0.26572 2.03674 0
M  V30 600 H 54.9617 -2.71884 2.74984 0
M  V30 601 H 56.6507 -2.57032 3.14149 0
M  V30 602 H 57.4167 -0.718687 4.79646 0
M  V30 603 H 53.2957 -1.81105 4.23936 0
M  V30 604 H 56.8397 0.301753 6.96947 0
M  V30 605 H 52.7367 -0.796645 6.40565 0
M  V30 606 H 53.5047 0.28044 8.18019 0
M  V30 607 N 56.1678 -1.49265 -0.50573 0
M  V30 608 C 57.3928 -1.62478 -1.28902 0
M  V30 609 C 57.8178 -0.294332 -1.85783 0
M  V30 610 O 57.1758 0.737412 -1.65626 0
M  V30 611 C 57.2238 -2.69268 -2.39848 0
M  V30 612 O 56.3278 -2.28113 -3.43567 0
M  V30 613 H 55.6688 -0.54399 -0.380751 0
M  V30 614 H 58.1988 -1.95421 -0.605952 0
M  V30 615 H 58.2088 -2.91291 -2.85681 0
M  V30 616 H 56.8838 -3.65846 -1.97812 0
M  V30 617 H 55.4608 -2.16401 -3.03685 0
M  V30 618 N 57.6459 0.756429 -1.3826 0
M  V30 619 C 58.8949 1.51082 -1.3363 0
M  V30 620 C 59.2079 1.95467 0.0720068 0
M  V30 621 O 60.4139 2.7043 0.240834 0
M  V30 622 C 58.8699 2.72893 -2.34644 0
M  V30 623 C 58.4779 2.35544 -3.81081 0
M  V30 624 C 60.2219 3.50791 -2.39052 0
M  V30 625 C 58.1289 3.53948 -4.73787 0
M  V30 626 H 57.0589 0.56727 -0.49671 0
M  V30 627 H 59.7099 0.827147 -1.638 0
M  V30 628 H 58.0919 3.43227 -1.97513 0
M  V30 629 H 59.2659 1.72894 -4.27135 0
M  V30 630 H 57.5809 1.70786 -3.79764 0
M  V30 631 H 60.1779 4.38823 -3.05513 0
M  V30 632 H 60.5209 3.91745 -1.40861 0
M  V30 633 H 61.0539 2.87467 -2.74968 0
M  V30 634 H 57.7929 3.18064 -5.73163 0
M  V30 635 H 57.3129 4.15651 -4.32428 0
M  V30 636 H 58.9919 4.20566 -4.91663 0
M  V30 637 N 59.124 1.23083 0.984299 0
M  V30 638 C 60.371 1.06057 1.72505 0
M  V30 639 C 60.699 -0.403105 1.90277 0
M  V30 640 O 59.954 -1.3149 1.44944 0
M  V30 641 C 60.253 1.72673 3.1292 0
M  V30 642 C 59.919 3.22586 3.15038 0
M  V30 643 C 58.581 3.63489 3.15324 0
M  V30 644 C 60.933 4.185 3.10657 0
M  V30 645 C 58.261 4.98772 3.08939 0
M  V30 646 C 60.613 5.53769 3.05814 0
M  V30 647 C 59.277 5.94041 3.04419 0
M  V30 648 H 58.547 0.388091 0.631242 0
M  V30 649 H 61.194 1.52963 1.15215 0
M  V30 650 H 59.499 1.18116 3.73572 0
M  V30 651 H 61.196 1.56982 3.68996 0
M  V30 652 H 57.786 2.90022 3.15571 0
M  V30 653 H 61.97 3.87911 3.09579 0
M  V30 654 H 57.226 5.29193 3.0621 0
M  V30 655 H 61.4 6.27808 3.0138 0
M  V30 656 H 59.027 6.98833 2.99227 0
M  V30 657 N 60.6021 -1.18246 1.0419 0
M  V30 658 C 61.5351 -2.20746 0.578474 0
M  V30 659 C 62.5131 -1.57912 -0.387624 0
M  V30 660 O 63.6971 -1.86071 -0.301634 0
M  V30 661 C 60.8241 -3.38346 -0.154762 0
M  V30 662 C 59.8701 -4.19587 0.764782 0
M  V30 663 S 60.7031 -4.86014 2.24835 0
M  V30 664 C 61.8591 -6.07012 1.526 0
M  V30 665 H 62.0921 -2.59715 1.44691 0
M  V30 666 H 59.6251 -1.287 0.85297 0
M  V30 667 H 61.5831 -4.065 -0.571641 0
M  V30 668 H 60.2441 -2.97786 -0.999105 0
M  V30 669 H 59.4371 -5.03611 0.197976 0
M  V30 670 H 59.0391 -3.56818 1.12057 0
M  V30 671 H 61.3311 -6.72523 0.819733 0
M  V30 672 H 62.2741 -6.68202 2.34333 0
M  V30 673 H 62.6821 -5.55249 1.01779 0
M  V30 674 N 62.0802 -0.821533 -1.34494 0
M  V30 675 C 63.0432 -0.247847 -2.27856 0
M  V30 676 C 64.0432 0.573453 -1.50227 0
M  V30 677 O 65.2332 0.389759 -1.69784 0
M  V30 678 C 62.3652 0.652698 -3.34593 0
M  V30 679 H 63.5582 -1.07146 -2.80107 0
M  V30 680 H 61.1112 -0.593291 -1.44602 0
M  V30 681 H 61.8462 1.49943 -2.87555 0
M  V30 682 H 61.6312 0.065292 -3.92046 0
M  V30 683 H 63.1212 1.04793 -4.04238 0
M  V30 684 N 63.5583 1.46682 -0.576371 0
M  V30 685 C 64.7833 2.07304 -0.0630475 0
M  V30 686 C 65.2083 1.42329 1.2298 0
M  V30 687 O 64.5663 0.504865 1.74129 0
M  V30 688 C 64.6143 3.60472 0.095895 0
M  V30 689 O 63.7183 3.95927 1.15394 0
M  V30 690 H 63.0593 0.661288 -0.0599463 0
M  V30 691 H 65.5893 1.88417 -0.797511 0
M  V30 692 H 65.5993 4.06865 0.304071 0
M  V30 693 H 64.2743 4.07157 -0.84828 0
M  V30 694 H 62.8513 3.61252 0.924724 0
M  V30 695 N 65.0364 0.313813 1.54444 0
M  V30 696 C 66.3134 -0.345447 1.92525 0
M  V30 697 C 66.6934 -1.70667 1.24242 0
M  V30 698 O 66.0414 -2.25273 0.382654 0
M  V30 699 C 66.2514 -0.44737 3.46121 0
M  V30 700 C 67.5994 -0.712238 4.18584 0
M  V30 701 O 68.6234 -0.530678 3.52225 0
M  V30 702 O 67.4824 -1.06183 5.36085 0
M  V30 703 H 64.5764 -0.195407 0.803583 0
M  V30 704 H 67.1224 0.362813 1.65776 0
M  V30 705 H 65.8944 0.509043 3.87975 0
M  V30 706 H 65.5174 -1.20359 3.78945 0
M  V30 707 N 66.5145 -1.57545 0.0417849 0
M  V30 708 C 67.7915 -1.83642 -0.673433 0
M  V30 709 C 68.1715 -0.928298 -1.89594 0
M  V30 710 O 67.5195 0.0129955 -2.28496 0
M  V30 711 C 67.7295 -3.33155 -1.03964 0
M  V30 712 C 69.0775 -3.99941 -1.42592 0
M  V30 713 O 70.1015 -3.37725 -1.13226 0
M  V30 714 O 68.9605 -5.09619 -1.9736 0
M  V30 715 H 66.0545 -0.757638 -0.331533 0
M  V30 716 H 68.6005 -1.69554 0.070433 0
M  V30 717 H 67.3725 -3.9093 -0.170098 0
M  V30 718 H 66.9955 -3.52396 -1.84126 0
M  V30 719 N 67.9926 0.231505 -1.5589 0
M  V30 720 C 68.9226 1.29022 -1.94617 0
M  V30 721 C 69.9036 1.4941 -0.813067 0
M  V30 722 O 71.0886 1.6176 -1.07459 0
M  V30 723 C 68.2186 2.64199 -2.25424 0
M  V30 724 C 67.1726 2.58484 -3.41131 0
M  V30 725 C 66.4986 3.97599 -3.57518 0
M  V30 726 C 67.7986 2.1413 -4.76388 0
M  V30 727 H 69.4926 0.968563 -2.83301 0
M  V30 728 H 67.0386 0.464479 -1.36303 0
M  V30 729 H 68.9916 3.38413 -2.51107 0
M  V30 730 H 67.7156 2.98032 -1.33583 0
M  V30 731 H 66.3746 1.86727 -3.15481 0
M  V30 732 H 66.0226 4.28723 -2.6307 0
M  V30 733 H 65.7226 3.94659 -4.35337 0
M  V30 734 H 67.2466 4.7349 -3.85538 0
M  V30 735 H 68.6606 2.78083 -5.01341 0
M  V30 736 H 67.0576 2.2227 -5.57419 0
M  V30 737 H 68.1276 1.09331 -4.72414 0
M  V30 738 N 69.4707 1.49531 0.497807 0
M  V30 739 C 70.4187 1.66926 1.61983 0
M  V30 740 C 71.4127 0.535167 1.60724 0
M  V30 741 O 72.6187 0.714896 1.65195 0
M  V30 742 H 68.9937 0.526415 0.537021 0
M  V30 743 H 70.9647 2.61098 1.44465 0
M  V30 744 C 69.7137 1.75602 3.00099 0
M  V30 745 H 69.0367 2.62244 3.01775 0
M  V30 746 H 70.4767 1.91807 3.78135 0
M  V30 747 C 68.9357 0.501543 3.33146 0
M  V30 748 O 69.4657 -0.371342 3.9998 0
M  V30 749 N 67.6717 0.363531 2.88317 0
M  V30 750 H 67.2187 1.07485 2.34104 0
M  V30 751 H 67.1767 -0.474728 3.10795 0
M  V30 752 N 70.9488 -0.749086 1.3866 0
M  V30 753 C 72.3648 -1.05276 1.19955 0
M  V30 754 C 72.5648 -2.01435 0.05134 0
M  V30 755 O 71.6208 -2.45232 -0.60147 0
M  V30 756 C 72.9338 -1.62853 2.52783 0
M  V30 757 C 74.4818 -1.75002 2.59506 0
M  V30 758 C 74.9568 -2.35991 3.92521 0
M  V30 759 N 76.4478 -2.43416 3.94085 0
M  V30 760 C 77.1828 -2.91511 4.9377 0
M  V30 761 N 76.6788 -3.39608 6.03853 0
M  V30 762 N 78.4718 -2.90592 4.81157 0
M  V30 763 H 70.6228 -0.111066 2.12109 0
M  V30 764 H 72.8858 -0.111901 0.941373 0
M  V30 765 H 72.5918 -0.99664 3.37283 0
M  V30 766 H 72.4658 -2.61854 2.715 0
M  V30 767 H 74.8528 -2.37317 1.75398 0
M  V30 768 H 74.9338 -0.74693 2.44652 0
M  V30 769 H 74.5778 -1.74308 4.77053 0
M  V30 770 H 74.5078 -3.3695 4.04688 0
M  V30 771 H 76.9988 -2.09405 3.14576 0
M  V30 772 H 77.3118 -3.74775 6.75843 0
M  V30 773 H 75.6568 -3.37653 6.07466 0
M  V30 774 H 78.8478 -2.52332 3.94267 0
M  V30 775 H 79.0208 -3.27762 5.58996 0
M  V30 776 N 72.4269 -1.23603 -0.977757 0
M  V30 777 C 73.6759 -1.06377 -1.71368 0
M  V30 778 C 73.9889 0.399062 -1.91486 0
M  V30 779 O 75.1949 0.691312 -2.62551 0
M  V30 780 C 73.6509 -1.85512 -3.08404 0
M  V30 781 C 73.2589 -3.36141 -2.96164 0
M  V30 782 C 75.0029 -1.76783 -3.85938 0
M  V30 783 C 72.9099 -4.07659 -4.28449 0
M  V30 784 H 71.8399 -0.394452 -0.642591 0
M  V30 785 H 74.4909 -1.47594 -1.09034 0
M  V30 786 H 72.8729 -1.37103 -3.71509 0
M  V30 787 H 74.0469 -3.92056 -2.42133 0
M  V30 788 H 72.3619 -3.45712 -2.32104 0
M  V30 789 H 74.9589 -2.27526 -4.83876 0
M  V30 790 H 75.3019 -0.731116 -4.0983 0
M  V30 791 H 75.8349 -2.22818 -3.2954 0
M  V30 792 H 72.5739 -5.11648 -4.09752 0
M  V30 793 H 72.0939 -3.5653 -4.82334 0
M  V30 794 H 73.7729 -4.141 -4.97122 0
M  V30 795 N 73.905 1.17692 -1.04816 0
M  V30 796 C 74.852 2.21581 -0.645797 0
M  V30 797 C 75.822 1.62367 0.350159 0
M  V30 798 O 77.007 1.89254 0.242433 0
M  V30 799 C 74.147 3.45092 -0.0227568 0
M  V30 800 C 73.26 4.18613 -1.06709 0
M  V30 801 C 72.395 5.29602 -0.411767 0
M  V30 802 C 71.434 5.94904 -1.44067 0
M  V30 803 N 70.571 6.97414 -0.809781 0
M  V30 804 H 75.411 2.55353 -1.5362 0
M  V30 805 H 72.948 1.25438 -0.768364 0
M  V30 806 H 74.906 4.15679 0.35588 0
M  V30 807 H 73.536 3.11917 0.831122 0
M  V30 808 H 72.588 3.46779 -1.5636 0
M  V30 809 H 73.9 4.63293 -1.84827 0
M  V30 810 H 73.054 6.06696 0.0206623 0
M  V30 811 H 71.793 4.86045 0.401438 0
M  V30 812 H 70.798 5.16544 -1.88316 0
M  V30 813 H 72.023 6.40542 -2.25571 0
M  V30 814 H 69.969 6.55998 -0.0170186 0
M  V30 815 H 69.886 7.40386 -1.52856 0
M  V30 816 H 71.154 7.78463 -0.401999 0
M  V30 817 N 75.3831 0.828654 1.34056 0
M  V30 818 C 76.2931 0.256725 2.33191 0
M  V30 819 C 77.3091 -0.611898 1.62886 0
M  V30 820 O 78.4851 -0.51844 1.94613 0
M  V30 821 C 75.5501 -0.567238 3.42028 0
M  V30 822 C 74.6111 0.324458 4.28072 0
M  V30 823 C 73.8441 -0.460274 5.31712 0
M  V30 824 O 74.0671 -1.693 5.44696 0
M  V30 825 O 73.0011 0.160391 6.01686 0
M  V30 826 H 76.8271 1.07739 2.83947 0
M  V30 827 H 74.4121 0.59093 1.37217 0
M  V30 828 H 76.2941 -1.03582 4.08471 0
M  V30 829 H 74.9691 -1.36513 2.93506 0
M  V30 830 H 73.8761 0.840659 3.64532 0
M  V30 831 H 75.2091 1.08685 4.8005 0
M  V30 832 N 76.8612 -1.46375 0.584142 0
M  V30 833 C 77.8092 -2.32042 -0.161047 0
M  V30 834 C 78.8032 -1.44569 -0.882966 0
M  V30 835 O 80.0092 -1.61186 -0.801191 0
M  V30 836 H 76.3842 -0.748659 -0.0708033 0
M  V30 837 H 78.3552 -2.92704 0.580269 0
M  V30 838 C 77.1042 -3.27762 -1.1605 0
M  V30 839 H 76.4272 -3.95051 -0.614419 0
M  V30 840 H 77.8672 -3.90481 -1.65228 0
M  V30 841 C 76.3262 -2.53218 -2.22221 0
M  V30 842 O 76.8562 -2.29628 -3.29597 0
M  V30 843 N 75.0622 -2.13756 -1.96868 0
M  V30 844 H 74.6092 -2.33142 -1.09557 0
M  V30 845 H 74.5672 -1.642 -2.68115 0
M  V30 846 N 78.3393 -0.321999 -1.54275 0
M  V30 847 C 79.5873 0.280489 -2.00144 0
M  V30 848 C 79.9083 1.52777 -1.21178 0
M  V30 849 O 79.1783 1.9338 -0.313187 0
M  V30 850 H 77.7583 0.106632 -0.73935 0
M  V30 851 H 80.4203 -0.438184 -1.8991 0
M  V30 852 H 79.5163 0.537972 -3.07428 0
M  V30 853 N 79.8174 1.5752 -0.0501392 0
M  V30 854 C 81.0944 1.83996 0.663685 0
M  V30 855 C 81.4744 0.938339 1.89099 0
M  V30 856 O 80.8224 -0.00087759 2.285 0
M  V30 857 C 81.0324 3.33702 1.02196 0
M  V30 858 C 82.3804 4.00691 1.40469 0
M  V30 859 O 83.4044 3.38321 1.11433 0
M  V30 860 O 82.2634 5.10658 1.94654 0
M  V30 861 H 79.3574 0.759385 0.32751 0
M  V30 862 H 81.9034 1.69514 -0.0794238 0
M  V30 863 H 80.6754 3.91015 0.149364 0
M  V30 864 H 80.2984 3.53368 1.82255 0
M  V30 865 N 81.2955 -0.223234 1.56011 0
M  V30 866 C 82.2255 -1.27988 1.95298 0
M  V30 867 C 83.2065 -1.48976 0.820979 0
M  V30 868 O 84.3915 -1.61188 1.08315 0
M  V30 869 C 81.5215 -2.63 2.26822 0
M  V30 870 C 80.4755 -2.56671 3.42497 0
M  V30 871 C 79.8015 -3.95697 3.59622 0
M  V30 872 C 81.1015 -2.11601 4.77517 0
M  V30 873 H 82.7955 -0.953525 2.8381 0
M  V30 874 H 80.3415 -0.457244 1.36548 0
M  V30 875 H 82.2945 -3.37077 2.52898 0
M  V30 876 H 81.0185 -2.9732 1.35161 0
M  V30 877 H 79.6775 -1.85051 3.16467 0
M  V30 878 H 79.3255 -4.27322 2.6534 0
M  V30 879 H 79.0255 -3.92345 4.37424 0
M  V30 880 H 80.5495 -4.71438 3.88044 0
M  V30 881 H 81.9635 -2.7542 5.02809 0
M  V30 882 H 80.3605 -2.19311 5.5859 0
M  V30 883 H 81.4305 -1.06824 4.72987 0
M  V30 884 N 82.7736 -1.49793 -0.48987 0
M  V30 885 C 84.1896 -1.36803 -0.822022 0
M  V30 886 C 84.3896 -0.409652 -1.97292 0
M  V30 887 O 83.4456 0.154614 -2.52026 0
M  V30 888 C 84.7586 -2.77768 -1.15175 0
M  V30 889 C 86.3066 -2.86549 -1.25931 0
M  V30 890 C 86.7816 -4.28306 -1.62228 0
M  V30 891 N 88.2726 -4.31169 -1.69256 0
M  V30 892 C 89.0076 -5.37832 -1.98807 0
M  V30 893 N 88.5036 -6.54726 -2.26507 0
M  V30 894 N 90.2966 -5.25258 -2.00152 0
M  V30 895 H 82.4476 -2.10691 0.268881 0
M  V30 896 H 84.7106 -0.946241 0.057728 0
M  V30 897 H 84.4166 -3.49648 -0.379335 0
M  V30 898 H 84.2906 -3.13836 -2.09253 0
M  V30 899 H 86.6776 -2.14899 -2.02243 0
M  V30 900 H 86.7586 -2.54049 -0.298776 0
M  V30 901 H 86.4026 -5.00486 -0.864622 0
M  V30 902 H 86.3326 -4.58279 -2.594 0
M  V30 903 H 88.8236 -3.4687 -1.49965 0
M  V30 904 H 89.1366 -7.31833 -2.48276 0
M  V30 905 H 87.4816 -6.57933 -2.23939 0
M  V30 906 H 90.6726 -4.32938 -1.77996 0
M  V30 907 H 90.8456 -6.08476 -2.22848 0
M  V30 908 N 84.2517 0.741722 -1.39055 0
M  V30 909 C 85.4977 1.50336 -1.36113 0
M  V30 910 C 85.8307 1.94148 0.0450796 0
M  V30 911 O 85.1057 1.66301 1.00868 0
M  V30 912 C 85.3887 2.74773 -2.32749 0
M  V30 913 C 85.2417 2.37023 -3.82283 0
M  V30 914 C 86.5607 3.76846 -2.27322 0
M  V30 915 H 83.6797 0.545351 -0.495743 0
M  V30 916 H 86.3217 0.848624 -1.69995 0
M  V30 917 H 84.4717 3.30639 -2.03986 0
M  V30 918 H 86.1437 1.8684 -4.21768 0
M  V30 919 H 84.3867 1.69334 -3.99385 0
M  V30 920 H 85.0577 3.26104 -4.45376 0
M  V30 921 H 87.5337 3.30548 -2.5274 0
M  V30 922 H 86.4097 4.6159 -2.97028 0
M  V30 923 H 86.6707 4.23286 -1.27599 0
M  V30 924 N 85.7298 1.2412 0.971189 0
M  V30 925 C 86.9768 1.07881 1.71371 0
M  V30 926 C 87.3048 -0.382901 1.90694 0
M  V30 927 O 86.5598 -1.29945 1.46331 0
M  V30 928 C 86.8588 1.75983 3.11071 0
M  V30 929 C 86.5248 3.25909 3.11599 0
M  V30 930 C 85.1868 3.66813 3.11451 0
M  V30 931 C 87.5388 4.21771 3.062 0
M  V30 932 C 84.8668 5.02021 3.03631 0
M  V30 933 C 87.2188 5.56982 2.99923 0
M  V30 934 C 85.8828 5.97237 2.98102 0
M  V30 935 H 85.1528 0.394764 0.62709 0
M  V30 936 H 87.7998 1.54176 1.13587 0
M  V30 937 H 86.1048 1.22072 3.72298 0
M  V30 938 H 87.8018 1.60887 3.6731 0
M  V30 939 H 84.3918 2.93353 3.12477 0
M  V30 940 H 88.5758 3.91172 3.05447 0
M  V30 941 H 83.8318 5.32411 3.0058 0
M  V30 942 H 88.0058 6.30969 2.94704 0
M  V30 943 H 85.6328 7.01967 2.91798 0
M  V30 944 N 87.2079 -1.17134 1.05439 0
M  V30 945 C 88.4539 -1.87733 0.767077 0
M  V30 946 C 88.7869 -1.8098 -0.704253 0
M  V30 947 O 88.0619 -1.21951 -1.5152 0
M  V30 948 C 88.3449 -3.37659 1.25133 0
M  V30 949 C 88.1979 -3.53149 2.78578 0
M  V30 950 C 89.5169 -4.31768 0.852324 0
M  V30 951 H 86.6359 -0.681687 0.280129 0
M  V30 952 H 89.2779 -1.37732 1.30881 0
M  V30 953 H 87.4279 -3.80373 0.790469 0
M  V30 954 H 89.0999 -3.19434 3.32806 0
M  V30 955 H 87.3429 -2.95345 3.17732 0
M  V30 956 H 88.0139 -4.58403 3.07523 0
M  V30 957 H 90.4899 -3.96909 1.24911 0
M  V30 958 H 89.3659 -5.35199 1.21873 0
M  V30 959 H 89.6269 -4.41429 -0.243485 0
M  V30 960 N 88.686 -0.835752 -1.33615 0
M  V30 961 C 90.102 -0.523139 -1.50783 0
M  V30 962 C 90.302 0.950171 -1.77691 0
M  V30 963 O 89.358 1.73411 -1.83534 0
M  V30 964 C 90.671 -1.39378 -2.66448 0
M  V30 965 C 92.219 -1.39223 -2.80332 0
M  V30 966 C 92.694 -2.24765 -3.99055 0
M  V30 967 N 94.185 -2.22458 -4.06284 0
M  V30 968 C 94.92 -2.85386 -4.97336 0
M  V30 969 N 94.416 -3.57354 -5.93523 0
M  V30 970 N 96.209 -2.74872 -4.90308 0
M  V30 971 H 88.36 -1.78952 -1.14411 0
M  V30 972 H 90.623 -0.763297 -0.562212 0
M  V30 973 H 90.329 -2.44061 -2.53234 0
M  V30 974 H 90.203 -1.0676 -3.61776 0
M  V30 975 H 92.59 -0.353136 -2.92979 0
M  V30 976 H 92.671 -1.75846 -1.85773 0
M  V30 977 H 92.315 -3.28732 -3.87167 0
M  V30 978 H 92.245 -1.85485 -4.92852 0
M  V30 979 H 94.736 -1.70119 -3.37443 0
M  V30 980 H 95.049 -4.02584 -6.59656 0
M  V30 981 H 93.394 -3.61461 -5.93608 0
M  V30 982 H 96.585 -2.18213 -4.14126 0
M  V30 983 H 96.758 -3.24199 -5.61069 0
M  V30 984 N 90.1641 1.46063 -0.591896 0
M  V30 985 C 91.1121 2.32124 0.148739 0
M  V30 986 C 92.1061 1.45035 0.875286 0
M  V30 987 O 93.3121 1.61609 0.792632 0
M  V30 988 H 89.6871 0.749024 0.066832 0
M  V30 989 H 91.6581 2.92392 -0.595783 0
M  V30 990 C 90.4071 3.28373 1.1431 0
M  V30 991 H 89.7301 3.95371 0.59346 0
M  V30 992 H 91.1701 3.91352 1.63155 0
M  V30 993 C 89.6291 2.54393 2.20875 0
M  V30 994 O 90.1591 2.31373 3.28374 0
M  V30 995 N 88.3651 2.14797 1.95731 0
M  V30 996 H 87.9121 2.33719 1.08319 0
M  V30 997 H 87.8701 1.65619 2.67241 0
M  V30 998 N 91.6422 0.330177 1.54103 0
M  V30 999 C 92.8912 -0.271336 1.99867 0
M  V30 1000 C 93.2042 -1.52723 1.22209 0
M  V30 1001 O 94.4102 -2.20515 1.58383 0
M  V30 1002 C 92.8662 -0.534032 3.55916 0
M  V30 1003 C 92.4742 0.705193 4.42415 0
M  V30 1004 C 94.2182 -1.09514 4.1013 0
M  V30 1005 C 92.1252 0.414035 5.89949 0
M  V30 1006 H 91.0552 -0.105166 0.74663 0
M  V30 1007 H 93.7062 0.443429 1.78062 0
M  V30 1008 H 92.0882 -1.30915 3.73734 0
M  V30 1009 H 93.2622 1.4804 4.36372 0
M  V30 1010 H 91.5772 1.18698 3.99124 0
M  V30 1011 H 94.1742 -1.3277 5.17954 0
M  V30 1012 H 94.5172 -2.04656 3.62521 0
M  V30 1013 H 95.0502 -0.381038 3.95971 0
M  V30 1014 H 91.7892 1.33481 6.41766 0
M  V30 1015 H 91.3092 -0.323336 5.98928 0
M  V30 1016 H 92.9882 0.0263105 6.46995 0
M  V30 1017 N 93.1203 -1.57491 0.0584922 0
M  V30 1018 C 94.0303 -2.15448 -0.928414 0
M  V30 1019 C 95.0463 -1.11416 -1.3365 0
M  V30 1020 O 96.2223 -1.4362 -1.41193 0
M  V30 1021 C 93.2873 -2.69393 -2.18239 0
M  V30 1022 C 92.3483 -3.88249 -1.83196 0
M  V30 1023 C 91.5813 -4.39613 -3.02616 0
M  V30 1024 O 91.8043 -3.90023 -4.16219 0
M  V30 1025 O 90.7383 -5.31111 -2.83204 0
M  V30 1026 H 94.5643 -3.00112 -0.465483 0
M  V30 1027 H 92.1493 -1.48499 -0.163826 0
M  V30 1028 H 94.0313 -3.04026 -2.91798 0
M  V30 1029 H 92.7063 -1.87796 -2.63656 0
M  V30 1030 H 91.6133 -3.58492 -1.06931 0
M  V30 1031 H 92.9463 -4.71098 -1.42573 0
M  V30 1032 N 94.5984 0.214957 -1.56127 0
M  V30 1033 C 95.5484 1.27006 -1.8935 0
M  V30 1034 C 96.5324 1.41969 -0.757202 0
M  V30 1035 O 97.7244 1.44673 -1.01973 0
M  V30 1036 C 94.8534 2.61911 -2.2194 0
M  V30 1037 C 93.9394 2.50822 -3.41978 0
M  V30 1038 N 94.3304 2.09391 -4.60423 0
M  V30 1039 C 92.6284 2.81765 -3.45723 0
M  V30 1040 C 93.3294 2.09712 -5.42582 0
M  V30 1041 N 92.3054 2.50454 -4.82466 0
M  V30 1042 H 96.1074 0.940734 -2.78437 0
M  V30 1043 H 93.6214 0.423492 -1.56781 0
M  V30 1044 H 95.6184 3.38096 -2.43919 0
M  V30 1045 H 94.2784 2.95684 -1.34169 0
M  V30 1046 H 95.2894 1.80416 -4.85459 0
M  V30 1047 H 91.9664 3.19865 -2.68314 0
M  V30 1048 H 93.3564 1.79748 -6.4741 0
M  V30 1049 N 96.0765 1.50051 0.48192 0
M  V30 1050 C 97.0065 1.71046 1.58951 0
M  V30 1051 C 97.9875 0.559288 1.60642 0
M  V30 1052 O 99.1725 0.797243 1.77081 0
M  V30 1053 C 96.3025 1.79462 2.97339 0
M  V30 1054 C 95.2565 2.94558 3.10515 0
M  V30 1055 C 94.5825 2.88105 4.50444 0
M  V30 1056 C 95.8825 4.35227 2.88747 0
M  V30 1057 H 97.5765 2.6378 1.41635 0
M  V30 1058 H 95.1225 1.26936 0.679942 0
M  V30 1059 H 97.0755 1.92734 3.74742 0
M  V30 1060 H 95.7995 0.833412 3.15788 0
M  V30 1061 H 94.4585 2.80918 2.35543 0
M  V30 1062 H 94.1065 1.89853 4.65795 0
M  V30 1063 H 93.8065 3.65366 4.60197 0
M  V30 1064 H 95.3305 3.03412 5.29881 0
M  V30 1065 H 96.7445 4.49449 3.55905 0
M  V30 1066 H 95.1415 5.13856 3.09955 0
M  V30 1067 H 96.2115 4.48347 1.84696 0
M  V30 1068 N 97.5546 -0.734337 1.39446 0
M  V30 1069 C 98.5016 -1.84835 1.38219 0
M  V30 1070 C 99.4716 -1.64331 0.24179 0
M  V30 1071 O 100.657 -1.85728 0.437002 0
M  V30 1072 C 97.7966 -3.22355 1.23212 0
M  V30 1073 C 96.9096 -3.5456 2.46801 0
M  V30 1074 C 96.0446 -4.81485 2.24377 0
M  V30 1075 C 95.0836 -5.06536 3.43639 0
M  V30 1076 N 94.2206 -6.24665 3.20528 0
M  V30 1077 H 99.0606 -1.85219 2.33448 0
M  V30 1078 H 96.5976 -0.905039 1.15963 0
M  V30 1079 H 98.5556 -4.0174 1.12522 0
M  V30 1080 H 97.1856 -3.21248 0.316121 0
M  V30 1081 H 96.2376 -2.69872 2.68092 0
M  V30 1082 H 97.5496 -3.6899 3.3563 0
M  V30 1083 H 96.7036 -5.68852 2.10933 0
M  V30 1084 H 95.4426 -4.6923 1.32944 0
M  V30 1085 H 94.4476 -4.17632 3.5758 0
M  V30 1086 H 95.6726 -5.20676 4.35974 0
M  V30 1087 H 93.6186 -6.13696 2.3176 0
M  V30 1088 H 93.5356 -6.39685 4.02913 0
M  V30 1089 H 94.8036 -7.14868 3.10779 0
M  V30 1090 N 99.0327 -1.24633 -0.964593 0
M  V30 1091 C 99.9807 -1.03917 -2.08096 0
M  V30 1092 C 100.975 0.0268581 -1.69379 0
M  V30 1093 O 102.181 -0.127952 -1.79545 0
M  V30 1094 H 98.5557 -0.319044 -0.680966 0
M  V30 1095 H 100.527 -1.98581 -2.22729 0
M  V30 1096 C 99.2757 -0.663983 -3.41301 0
M  V30 1097 H 98.5987 -1.47605 -3.71555 0
M  V30 1098 H 100.039 -0.558663 -4.20303 0
M  V30 1099 C 98.4977 0.629169 -3.30973 0
M  V30 1100 O 99.0277 1.67404 -3.65156 0
M  V30 1101 N 97.2337 0.611057 -2.84103 0
M  V30 1102 H 96.7807 -0.239593 -2.56483 0
M  V30 1103 H 96.7387 1.47647 -2.77575 0
M  V30 1104 N 100.511 1.16574 -1.06058 0
M  V30 1105 C 101.759 1.86677 -0.77434 0
M  V30 1106 C 102.08 1.81959 0.701147 0
M  V30 1107 O 101.35 1.2515 1.50713 0
M  V30 1108 H 99.9298 0.691134 -0.283449 0
M  V30 1109 H 102.592 1.41378 -1.34158 0
M  V30 1110 H 101.688 2.92181 -1.09711 0
M  V30 1111 N 101.989 0.842826 1.3317 0
M  V30 1112 C 103.214 0.453129 2.02389 0
M  V30 1113 C 103.639 -0.939105 1.6298 0
M  V30 1114 O 102.997 -1.61472 0.8244 0
M  V30 1115 C 103.045 0.586094 3.55805 0
M  V30 1116 O 102.149 -0.386029 4.10589 0
M  V30 1117 H 101.49 0.183664 0.638094 0
M  V30 1118 H 104.02 1.13875 1.69981 0
M  V30 1119 H 104.03 0.469209 4.05293 0
M  V30 1120 H 102.705 1.6014 3.83833 0
M  V30 1121 H 101.282 -0.226371 3.72212 0
M  V30 1122 N 103.467 -1.45747 0.599634 0
M  V30 1123 C 104.397 -2.33235 -0.111306 0
M  V30 1124 C 105.378 -1.46359 -0.866781 0
M  V30 1125 O 106.563 -1.75146 -0.838904 0
M  V30 1126 C 103.693 -3.28932 -1.11451 0
M  V30 1127 C 102.647 -4.25381 -0.472772 0
M  V30 1128 C 101.973 -5.1071 -1.58365 0
M  V30 1129 C 103.273 -5.18831 0.600948 0
M  V30 1130 H 104.967 -2.92927 0.61919 0
M  V30 1131 H 102.513 -1.40857 0.299215 0
M  V30 1132 H 104.466 -3.89002 -1.62036 0
M  V30 1133 H 103.19 -2.67381 -1.8755 0
M  V30 1134 H 101.849 -3.66598 0.0121472 0
M  V30 1135 H 101.497 -4.45533 -2.33473 0
M  V30 1136 H 101.197 -5.7604 -1.15982 0
M  V30 1137 H 102.721 -5.73647 -2.09194 0
M  V30 1138 H 104.135 -5.73019 0.179491 0
M  V30 1139 H 102.532 -5.92595 0.946076 0
M  V30 1140 H 103.602 -4.6174 1.48068 0
M  V30 1141 N 104.945 -0.338344 -1.53925 0
M  V30 1142 C 106.194 0.260732 -2.00008 0
M  V30 1143 C 106.507 1.52073 -1.23017 0
M  V30 1144 O 107.713 2.19672 -1.5955 0
M  V30 1145 C 106.169 0.51515 -3.56194 0
M  V30 1146 C 105.777 -0.728645 -4.42035 0
M  V30 1147 C 107.521 1.07337 -4.10706 0
M  V30 1148 C 105.428 -0.445315 -5.89721 0
M  V30 1149 H 104.358 0.101205 -0.747177 0
M  V30 1150 H 107.009 -0.452866 -1.77824 0
M  V30 1151 H 105.391 1.28932 -3.74423 0
M  V30 1152 H 106.565 -1.50352 -4.35581 0
M  V30 1153 H 104.88 -1.20813 -3.98489 0
M  V30 1154 H 107.477 1.30022 -5.18651 0
M  V30 1155 H 107.82 2.0273 -3.63602 0
M  V30 1156 H 108.353 0.360034 -3.96167 0
M  V30 1157 H 105.092 -1.36883 -6.41049 0
M  V30 1158 H 104.612 0.291569 -5.99091 0
M  V30 1159 H 106.291 -0.0606218 -6.46972 0
M  V30 1160 N 106.423 1.57458 -0.0668435 0
M  V30 1161 C 107.67 1.93301 0.603406 0
M  V30 1162 C 107.998 0.946486 1.69917 0
M  V30 1163 O 107.253 -0.0387021 1.95662 0
M  V30 1164 C 107.552 3.35784 1.22409 0
M  V30 1165 C 107.218 4.50179 0.254955 0
M  V30 1166 C 105.88 4.81199 -0.0116746 0
M  V30 1167 C 108.232 5.19598 -0.408338 0
M  V30 1168 C 105.56 5.78978 -0.94877 0
M  V30 1169 C 107.912 6.18381 -1.33372 0
M  V30 1170 C 106.576 6.47821 -1.60887 0
M  V30 1171 H 105.846 0.707338 0.220802 0
M  V30 1172 H 108.493 1.91012 -0.136665 0
M  V30 1173 H 106.798 3.34515 2.03978 0
M  V30 1174 H 108.495 3.60804 1.74989 0
M  V30 1175 H 105.085 4.25983 0.472954 0
M  V30 1176 H 109.269 4.95832 -0.215456 0
M  V30 1177 H 104.525 6.00115 -1.16925 0
M  V30 1178 H 108.699 6.71277 -1.85367 0
M  V30 1179 H 106.326 7.23399 -2.33661 0
M  V30 1180 N 107.901 -0.206675 1.56239 0
M  V30 1181 C 109.178 -0.954051 1.70755 0
M  V30 1182 C 109.558 -2.01841 0.618353 0
M  V30 1183 O 108.906 -2.25444 -0.372434 0
M  V30 1184 C 109.116 -1.551 3.12642 0
M  V30 1185 C 110.464 -2.03757 3.72516 0
M  V30 1186 O 111.488 -1.64965 3.15698 0
M  V30 1187 O 110.347 -2.75103 4.72208 0
M  V30 1188 H 107.441 -0.446636 0.696021 0
M  V30 1189 H 109.987 -0.197283 1.68549 0
M  V30 1190 H 108.759 -0.783212 3.83382 0
M  V30 1191 H 108.382 -2.37291 3.19028 0
M  V30 1192 N 109.379 -1.50304 -0.473955 0
M  V30 1193 C 110.626 -1.6115 -1.22625 0
M  V30 1194 C 110.954 -0.310517 -1.92005 0
M  V30 1195 O 110.209 0.703419 -1.82621 0
M  V30 1196 C 110.508 -2.73938 -2.29549 0
M  V30 1197 C 110.174 -4.14519 -1.7744 0
M  V30 1198 C 108.836 -4.5277 -1.62949 0
M  V30 1199 C 111.188 -5.02392 -1.3875 0
M  V30 1200 C 108.516 -5.76639 -1.08187 0
M  V30 1201 C 110.868 -6.26805 -0.854309 0
M  V30 1202 C 109.532 -6.63861 -0.696011 0
M  V30 1203 H 108.802 -0.589691 -0.448715 0
M  V30 1204 H 111.449 -1.84228 -0.522705 0
M  V30 1205 H 109.754 -2.44937 -3.05799 0
M  V30 1206 H 111.451 -2.79534 -2.87509 0
M  V30 1207 H 108.041 -3.8434 -1.89685 0
M  V30 1208 H 112.225 -4.73474 -1.4878 0
M  V30 1209 H 107.481 -6.04027 -0.946666 0
M  V30 1210 H 111.655 -6.94258 -0.545843 0
M  V30 1211 H 109.282 -7.59722 -0.26952 0
M  V30 1212 N 110.857 0.726932 -1.39834 0
M  V30 1213 C 111.767 1.87131 -1.41489 0
M  V30 1214 C 112.783 1.71239 -0.308757 0
M  V30 1215 O 113.959 1.93701 -0.551529 0
M  V30 1216 C 111.024 3.22811 -1.26468 0
M  V30 1217 C 110.085 3.51039 -2.47124 0
M  V30 1218 C 109.318 4.80245 -2.3281 0
M  V30 1219 O 109.541 5.54537 -1.33585 0
M  V30 1220 O 108.475 5.08554 -3.21957 0
M  V30 1221 H 112.301 1.8869 -2.3797 0
M  V30 1222 H 109.886 0.875837 -1.21035 0
M  V30 1223 H 111.768 4.03877 -1.20255 0
M  V30 1224 H 110.443 3.22005 -0.330862 0
M  V30 1225 H 109.35 2.70027 -2.58914 0
M  V30 1226 H 110.683 3.56632 -3.39227 0
M  V30 1227 N 112.336 1.25143 0.95797 0
M  V30 1228 C 113.566 1.12261 1.73439 0
M  V30 1229 C 113.974 -0.326715 1.86358 0
M  V30 1230 O 113.317 -1.2367 1.35836 0
M  V30 1231 C 113.379 1.69966 3.16784 0
M  V30 1232 C 113.043 3.18936 3.27305 0
M  V30 1233 C 114.04 4.15968 3.11877 0
M  V30 1234 C 111.725 3.59083 3.51234 0
M  V30 1235 C 113.719 5.51126 3.20217 0
M  V30 1236 C 111.406 4.9438 3.5921 0
M  V30 1237 C 112.404 5.90211 3.43716 0
M  V30 1238 O 112.092 7.23046 3.51368 0
M  V30 1239 H 111.824 0.392476 0.550399 0
M  V30 1240 H 114.378 1.65927 1.21068 0
M  V30 1241 H 112.608 1.10744 3.70503 0
M  V30 1242 H 114.297 1.52232 3.76272 0
M  V30 1243 H 115.063 3.86292 2.93264 0
M  V30 1244 H 110.942 2.84989 3.62356 0
M  V30 1245 H 114.486 6.25905 3.0804 0
M  V30 1246 H 110.383 5.23723 3.77339 0
M  V30 1247 H 111.151 7.31097 3.6802 0
M  V30 1248 N 113.814 -1.1601 1.06675 0
M  V30 1249 C 114.747 -2.1947 0.625168 0
M  V30 1250 C 115.725 -1.58699 -0.354041 0
M  V30 1251 O 116.909 -1.86669 -0.262098 0
M  V30 1252 C 114.036 -3.38598 -0.0829593 0
M  V30 1253 C 113.082 -4.1787 0.853611 0
M  V30 1254 S 113.915 -4.81135 2.35094 0
M  V30 1255 C 115.071 -6.03639 1.65441 0
M  V30 1256 H 115.304 -2.56587 1.50168 0
M  V30 1257 H 112.837 -1.26862 0.880078 0
M  V30 1258 H 114.795 -4.07621 -0.485288 0
M  V30 1259 H 113.456 -2.99839 -0.935716 0
M  V30 1260 H 112.649 -5.03078 0.304755 0
M  V30 1261 H 112.251 -3.54361 1.196 0
M  V30 1262 H 114.543 -6.70632 0.962201 0
M  V30 1263 H 115.486 -6.63081 2.48454 0
M  V30 1264 H 115.894 -5.52965 1.13534 0
M  V30 1265 N 115.292 -0.849877 -1.32721 0
M  V30 1266 C 116.538 -0.451591 -1.97708 0
M  V30 1267 C 116.871 0.989175 -1.6712 0
M  V30 1268 O 116.146 1.69334 -0.956891 0
M  V30 1269 C 116.429 -0.685598 -3.53513 0
M  V30 1270 C 116.282 -2.17444 -3.93749 0
M  V30 1271 C 117.601 -0.138874 -4.39881 0
M  V30 1272 H 114.72 -0.16555 -0.718166 0
M  V30 1273 H 117.362 -1.06742 -1.57182 0
M  V30 1274 H 115.512 -0.161416 -3.88165 0
M  V30 1275 H 117.184 -2.76433 -3.693 0
M  V30 1276 H 115.427 -2.65476 -3.43081 0
M  V30 1277 H 116.098 -2.28888 -5.02309 0
M  V30 1278 H 118.574 -0.587068 -4.11938 0
M  V30 1279 H 117.45 -0.332213 -5.47894 0
M  V30 1280 H 117.711 0.95806 -4.31594 0
M  V30 1281 N 116.77 1.45427 -0.607355 0
M  V30 1282 C 117.702 2.2871 0.149752 0
M  V30 1283 C 118.715 1.39937 0.831958 0
M  V30 1284 O 119.904 1.64313 0.697385 0
M  V30 1285 C 117.004 3.15673 1.23304 0
M  V30 1286 C 116.177 4.32722 0.637996 0
M  V30 1287 C 115.236 5.00895 1.61215 0
M  V30 1288 O 114.262 5.57697 1.13854 0
M  V30 1289 N 115.464 5.00159 2.94655 0
M  V30 1290 H 118.229 2.94328 -0.564882 0
M  V30 1291 H 115.79 1.55612 -0.446823 0
M  V30 1292 H 117.782 3.58144 1.88454 0
M  V30 1293 H 116.352 2.51965 1.8502 0
M  V30 1294 H 115.572 3.93734 -0.191572 0
M  V30 1295 H 116.86 5.08321 0.220665 0
M  V30 1296 H 116.258 4.553 3.35735 0
M  V30 1297 H 114.815 5.46495 3.55228 0
M  V30 1298 N 118.248 0.346503 1.53744 0
M  V30 1299 C 119.496 -0.248612 2.00565 0
M  V30 1300 C 119.817 -1.5083 1.23593 0
M  V30 1301 O 119.087 -1.92858 0.343912 0
M  V30 1302 H 117.667 -0.0948564 0.740953 0
M  V30 1303 H 120.329 0.468341 1.89189 0
M  V30 1304 H 119.425 -0.488994 3.08245 0
M  V30 1305 N 119.726 -1.57421 0.075193 0
M  V30 1306 C 120.636 -2.1642 -0.905511 0
M  V30 1307 C 121.652 -1.12828 -1.32461 0
M  V30 1308 O 122.828 -1.45109 -1.39661 0
M  V30 1309 C 119.893 -2.71693 -2.15369 0
M  V30 1310 C 118.954 -3.90171 -1.79068 0
M  V30 1311 C 118.187 -4.42798 -2.97936 0
M  V30 1312 O 118.41 -3.94416 -4.12058 0
M  V30 1313 O 117.344 -5.34085 -2.77555 0
M  V30 1314 H 121.17 -3.00588 -0.433626 0
M  V30 1315 H 118.755 -1.48664 -0.148067 0
M  V30 1316 H 120.637 -3.07104 -2.88557 0
M  V30 1317 H 119.312 -1.90582 -2.61649 0
M  V30 1318 H 118.219 -3.59606 -1.03122 0
M  V30 1319 H 119.552 -4.72584 -1.37569 0
M  V30 1320 N 121.204 0.198386 -1.56346 0
M  V30 1321 C 122.444 0.92609 -1.82217 0
M  V30 1322 C 122.808 1.80584 -0.652195 0
M  V30 1323 O 124.009 2.56907 -0.790716 0
M  V30 1324 C 122.28 1.72354 -3.13096 0
M  V30 1325 S 123.839 2.50371 -3.6036 0
M  V30 1326 H 120.657 0.310677 -0.639532 0
M  V30 1327 H 123.259 0.189755 -1.94577 0
M  V30 1328 H 121.963 1.0678 -3.96265 0
M  V30 1329 H 121.494 2.50175 -3.03605 0
M  V30 1330 H 123.509 3.74488 -3.25535 0
M  V30 1331 N 122.682 1.50554 0.465978 0
M  V30 1332 C 123.928 1.62038 1.21949 0
M  V30 1333 C 124.261 0.322116 1.9151 0
M  V30 1334 O 123.536 -0.676723 1.82348 0
M  V30 1335 C 123.819 2.80421 2.25912 0
M  V30 1336 C 123.672 4.20144 1.60622 0
M  V30 1337 C 124.991 2.94354 3.27176 0
M  V30 1338 H 122.11 0.589752 0.441998 0
M  V30 1339 H 124.752 1.82956 0.51257 0
M  V30 1340 H 122.902 2.62717 2.86203 0
M  V30 1341 H 124.574 4.49449 1.03889 0
M  V30 1342 H 122.817 4.24165 0.909211 0
M  V30 1343 H 123.488 4.98914 2.36196 0
M  V30 1344 H 125.964 3.10578 2.76913 0
M  V30 1345 H 124.84 3.788 3.97242 0
M  V30 1346 H 125.101 2.05186 3.916 0
M  V30 1347 N 124.16 -0.719506 1.40217 0
M  V30 1348 C 125.123 -1.8153 1.39927 0
M  V30 1349 C 126.123 -1.58095 0.293723 0
M  V30 1350 O 127.313 -1.65209 0.552429 0
M  V30 1351 C 124.445 -3.19561 1.18716 0
M  V30 1352 H 125.638 -1.83186 2.37451 0
M  V30 1353 H 123.191 -0.924746 1.26008 0
M  V30 1354 H 123.926 -3.23557 0.219366 0
M  V30 1355 H 123.711 -3.3797 1.98793 0
M  V30 1356 H 125.201 -3.99598 1.21291 0
M  V30 1357 N 125.638 -1.25649 -0.95132 0
M  V30 1358 C 126.884 -1.10757 -1.69884 0
M  V30 1359 C 127.217 0.350061 -1.91019 0
M  V30 1360 O 126.492 1.25783 -1.48354 0
M  V30 1361 C 126.775 -1.86606 -3.07978 0
M  V30 1362 C 126.628 -3.40217 -2.94232 0
M  V30 1363 C 127.947 -1.65182 -4.07925 0
M  V30 1364 H 125.066 -0.40374 -0.616574 0
M  V30 1365 H 127.708 -1.54521 -1.10558 0
M  V30 1366 H 125.858 -1.49409 -3.58621 0
M  V30 1367 H 127.53 -3.87108 -2.50889 0
M  V30 1368 H 125.773 -3.67759 -2.30078 0
M  V30 1369 H 126.444 -3.88505 -3.92133 0
M  V30 1370 H 128.92 -1.9757 -3.66204 0
M  V30 1371 H 127.796 -2.20683 -5.02583 0
M  V30 1372 H 128.057 -0.593933 -4.38092 0
M  V30 1373 N 127.117 1.15442 -1.07289 0
M  V30 1374 C 128.363 1.86489 -0.796846 0
M  V30 1375 C 128.696 1.82078 0.675371 0
M  V30 1376 O 127.971 1.24346 1.4956 0
M  V30 1377 C 128.254 3.35626 -1.30489 0
M  V30 1378 C 128.107 3.48673 -2.84161 0
M  V30 1379 C 129.426 4.30357 -0.920907 0
M  V30 1380 H 126.545 0.677144 -0.290939 0
M  V30 1381 H 129.187 1.35633 -1.33056 0
M  V30 1382 H 127.337 3.79068 -0.850883 0
M  V30 1383 H 129.009 3.14099 -3.37846 0
M  V30 1384 H 127.252 2.90253 -3.22391 0
M  V30 1385 H 127.923 4.53453 -3.14777 0
M  V30 1386 H 130.399 3.94871 -1.3121 0
M  V30 1387 H 129.275 5.33193 -1.30372 0
M  V30 1388 H 129.536 4.4176 0.173226 0
M  V30 1389 N 128.595 0.856903 1.32268 0
M  V30 1390 C 129.841 0.462069 1.97466 0
M  V30 1391 C 130.174 -0.980298 1.67642 0
M  V30 1392 O 129.449 -1.68824 0.965858 0
M  V30 1393 C 129.732 0.704336 3.53145 0
M  V30 1394 C 129.585 2.19529 3.9259 0
M  V30 1395 C 130.904 0.1622 4.39801 0
M  V30 1396 H 128.023 0.169357 0.717278 0
M  V30 1397 H 130.665 1.07574 1.56614 0
M  V30 1398 H 128.815 0.181999 3.88073 0
M  V30 1399 H 130.487 2.78387 3.67829 0
M  V30 1400 H 128.73 2.67292 3.41668 0
M  V30 1401 H 129.401 2.31549 5.01088 0
M  V30 1402 H 131.877 0.608905 4.11621 0
M  V30 1403 H 130.753 0.361265 5.4771 0
M  V30 1404 H 131.014 -0.935158 4.32096 0
M  V30 1405 N 130.073 -1.45103 0.615059 0
M  V30 1406 C 131.319 -2.02483 0.113347 0
M  V30 1407 C 131.652 -1.48146 -1.25564 0
M  V30 1408 O 130.927 -0.659104 -1.82992 0
M  V30 1409 C 131.21 -3.60005 0.0825278 0
M  V30 1410 C 131.063 -4.2466 1.48271 0
M  V30 1411 C 132.382 -4.35972 -0.601401 0
M  V30 1412 H 129.501 -0.735764 0.0426632 0
M  V30 1413 H 132.143 -1.72868 0.788461 0
M  V30 1414 H 130.293 -3.85367 -0.492378 0
M  V30 1415 H 131.965 -4.10458 2.10527 0
M  V30 1416 H 130.208 -3.82772 2.04127 0
M  V30 1417 H 130.879 -5.336 1.41332 0
M  V30 1418 H 133.355 -4.15947 -0.112666 0
M  V30 1419 H 132.231 -5.45697 -0.592097 0
M  V30 1420 H 132.492 -4.09391 -1.66887 0
M  V30 1421 N 131.551 -0.354651 -1.53558 0
M  V30 1422 C 132.791 0.238651 -2.03002 0
M  V30 1423 C 133.155 1.46878 -1.23656 0
M  V30 1424 O 134.356 2.13699 -1.63053 0
M  V30 1425 C 132.627 0.534175 -3.53386 0
M  V30 1426 S 134.186 1.10271 -4.24719 0
M  V30 1427 H 131.004 0.0702908 -0.707517 0
M  V30 1428 H 133.606 -0.494987 -1.8913 0
M  V30 1429 H 132.31 -0.368765 -4.0874 0
M  V30 1430 H 131.841 1.29718 -3.71398 0
M  V30 1431 H 133.856 2.38772 -4.34974 0
M  V30 1432 N 133.029 1.57378 -0.0835403 0
M  V30 1433 C 133.939 2.16897 0.894021 0
M  V30 1434 C 134.955 1.13528 1.31861 0
M  V30 1435 O 136.131 1.45848 1.3889 0
M  V30 1436 C 133.196 2.72831 2.13925 0
M  V30 1437 C 132.257 3.91115 1.76997 0
M  V30 1438 C 131.49 4.44371 2.95584 0
M  V30 1439 O 131.713 3.96596 4.09961 0
M  V30 1440 O 130.647 5.35549 2.74719 0
M  V30 1441 H 134.473 3.00814 0.417679 0
M  V30 1442 H 132.058 1.48741 0.140181 0
M  V30 1443 H 133.94 3.0863 2.86924 0
M  V30 1444 H 132.615 1.91967 2.60635 0
M  V30 1445 H 131.522 3.60148 1.01214 0
M  V30 1446 H 132.855 4.73307 1.3506 0
M  V30 1447 N 134.507 -0.190092 1.56449 0
M  V30 1448 C 135.454 -1.23557 1.94942 0
M  V30 1449 C 136.424 -1.44972 0.810696 0
M  V30 1450 O 137.609 -1.58023 1.06927 0
M  V30 1451 C 134.749 -2.57416 2.2985 0
M  V30 1452 C 133.862 -2.43537 3.5681 0
M  V30 1453 C 132.997 -3.70134 3.81017 0
M  V30 1454 C 132.036 -3.51109 5.01387 0
M  V30 1455 N 131.173 -4.6973 5.21822 0
M  V30 1456 H 136.013 -0.900304 2.84075 0
M  V30 1457 H 133.55 -0.43318 1.40577 0
M  V30 1458 H 135.508 -3.35409 2.48106 0
M  V30 1459 H 134.138 -2.88975 1.43852 0
M  V30 1460 H 133.19 -1.56816 3.46573 0
M  V30 1461 H 134.502 -2.25415 4.4496 0
M  V30 1462 H 133.656 -4.56566 3.9954 0
M  V30 1463 H 132.395 -3.91215 2.91207 0
M  V30 1464 H 131.4 -2.63063 4.82782 0
M  V30 1465 H 132.625 -3.31468 5.9271 0
M  V30 1466 H 130.571 -4.91065 4.34961 0
M  V30 1467 H 130.488 -4.54452 6.0416 0
M  V30 1468 H 131.756 -5.57499 5.44808 0
M  V30 1469 N 135.985 -1.50799 -0.457987 0
M  V30 1470 C 137.213 -1.66218 -1.23203 0
M  V30 1471 C 137.628 -0.350894 -1.85511 0
M  V30 1472 O 136.985 0.668546 -1.69814 0
M  V30 1473 C 137.036 -2.76291 -2.33121 0
M  V30 1474 O 136.757 -4.02338 -1.73366 0
M  V30 1475 C 138.258 -3.028 -3.2377 0
M  V30 1476 H 135.478 -0.558361 -0.372121 0
M  V30 1477 H 138.022 -1.97099 -0.545179 0
M  V30 1478 H 136.177 -2.48068 -2.97558 0
M  V30 1479 H 136.591 -4.63312 -2.4585 0
M  V30 1480 H 138.065 -3.8345 -3.97077 0
M  V30 1481 H 138.542 -2.14385 -3.83322 0
M  V30 1482 H 139.148 -3.32604 -2.65056 0
M  V30 1483 N 137.463 0.71206 -1.40597 0
M  V30 1484 C 138.373 1.8562 -1.43466 0
M  V30 1485 C 139.389 1.70902 -0.326902 0
M  V30 1486 O 140.565 1.93105 -0.572043 0
M  V30 1487 C 137.63 3.21451 -1.29884 0
M  V30 1488 C 136.691 3.48398 -2.50833 0
M  V30 1489 C 135.924 4.77749 -2.3789 0
M  V30 1490 O 136.147 5.53089 -1.39459 0
M  V30 1491 O 135.081 5.05111 -3.27333 0
M  V30 1492 H 138.907 1.86155 -2.39958 0
M  V30 1493 H 136.492 0.86295 -1.21957 0
M  V30 1494 H 138.374 4.02579 -1.24531 0
M  V30 1495 H 137.049 3.21636 -0.364997 0
M  V30 1496 H 135.956 2.67265 -2.61763 0
M  V30 1497 H 137.289 3.53014 -3.4299 0
M  V30 1498 N 138.941 1.26152 0.944643 0
M  V30 1499 C 139.888 1.07408 2.04285 0
M  V30 1500 C 140.858 -0.0198413 1.66088 0
M  V30 1501 O 142.043 0.139264 1.90291 0
M  V30 1502 C 139.183 0.70945 3.37729 0
M  V30 1503 C 138.296 1.87926 3.88983 0
M  V30 1504 C 137.431 1.45807 5.10797 0
M  V30 1505 C 136.47 2.5964 5.54305 0
M  V30 1506 N 135.607 2.18226 6.67324 0
M  V30 1507 H 140.447 2.01389 2.1965 0
M  V30 1508 H 137.984 1.00275 1.07626 0
M  V30 1509 H 139.942 0.478948 4.14442 0
M  V30 1510 H 138.572 -0.193389 3.2222 0
M  V30 1511 H 137.624 2.22279 3.08701 0
M  V30 1512 H 138.936 2.73377 4.17213 0
M  V30 1513 H 138.09 1.18781 5.94959 0
M  V30 1514 H 136.829 0.574414 4.84305 0
M  V30 1515 H 135.834 2.87399 4.68702 0
M  V30 1516 H 137.059 3.48599 5.828 0
M  V30 1517 H 135.005 1.3229 6.42523 0
M  V30 1518 H 134.922 2.97221 6.95123 0
M  V30 1519 H 136.19 1.94403 7.54869 0
M  V30 1520 N 140.419 -1.14872 1.07899 0
M  V30 1521 C 141.367 -2.21857 0.698727 0
M  V30 1522 C 142.361 -1.66845 -0.293086 0
M  V30 1523 O 143.567 -1.79321 -0.156204 0
M  V30 1524 H 139.942 -0.722691 0.207899 0
M  V30 1525 H 141.913 -2.51205 1.61054 0
M  V30 1526 C 140.662 -3.47498 0.11858 0
M  V30 1527 H 139.985 -3.90154 0.872914 0
M  V30 1528 H 141.425 -4.23858 -0.109759 0
M  V30 1529 C 139.884 -3.16947 -1.1422 0
M  V30 1530 O 140.414 -3.3426 -2.22785 0
M  V30 1531 N 138.62 -2.70946 -1.05055 0
M  V30 1532 H 138.167 -2.57058 -0.167038 0
M  V30 1533 H 138.125 -2.50879 -1.89491 0
M  V30 1534 N 141.898 -0.863906 -1.31812 0
M  V30 1535 C 143.146 -0.470904 -1.96537 0
M  V30 1536 C 143.467 0.978771 -1.68657 0
M  V30 1537 O 142.737 1.6853 -0.998717 0
M  V30 1538 H 141.317 -0.171148 -0.72713 0
M  V30 1539 H 143.979 -1.10236 -1.60729 0
M  V30 1540 H 143.075 -0.623616 -3.05806 0
M  V30 1541 N 143.376 1.44774 -0.622745 0
M  V30 1542 C 144.286 2.34433 0.0886031 0
M  V30 1543 C 145.302 1.52131 0.844529 0
M  V30 1544 O 146.478 1.84886 0.798691 0
M  V30 1545 C 143.543 3.29986 1.0635 0
M  V30 1546 C 142.604 4.28195 0.307873 0
M  V30 1547 C 141.837 5.19183 1.23633 0
M  V30 1548 O 142.06 5.13918 2.47476 0
M  V30 1549 O 140.994 5.97515 0.725189 0
M  V30 1550 H 144.82 2.96693 -0.648599 0
M  V30 1551 H 142.405 1.44408 -0.382957 0
M  V30 1552 H 144.287 3.88825 1.6246 0
M  V30 1553 H 142.962 2.70269 1.78146 0
M  V30 1554 H 141.869 3.72927 -0.296064 0
M  V30 1555 H 143.202 4.90808 -0.3699 0
M  V30 1556 N 144.854 0.36279 1.53368 0
M  V30 1557 C 146.084 -0.228281 2.05335 0
M  V30 1558 C 146.492 -1.43226 1.23625 0
M  V30 1559 O 145.835 -1.81717 0.269206 0
M  V30 1560 C 145.897 -0.688549 3.52845 0
M  V30 1561 C 145.561 0.398362 4.5526 0
M  V30 1562 C 146.558 1.24732 5.04716 0
M  V30 1563 C 144.243 0.557805 4.99193 0
M  V30 1564 C 146.237 2.2411 5.96702 0
M  V30 1565 C 143.924 1.55495 5.90986 0
M  V30 1566 C 144.922 2.39503 6.39631 0
M  V30 1567 O 144.61 3.37517 7.29615 0
M  V30 1568 H 144.342 -0.044395 0.674541 0
M  V30 1569 H 146.896 0.518668 1.98744 0
M  V30 1570 H 145.126 -1.48706 3.56964 0
M  V30 1571 H 146.815 -1.20231 3.87685 0
M  V30 1572 H 147.581 1.13532 4.71525 0
M  V30 1573 H 143.46 -0.0862959 4.60919 0
M  V30 1574 H 147.004 2.89718 6.34594 0
M  V30 1575 H 142.901 1.66744 6.23592 0
M  V30 1576 H 143.669 3.33213 7.47604 0
M  V30 1577 N 146.332 -1.57332 0.0918853 0
M  V30 1578 C 147.557 -1.98995 -0.584442 0
M  V30 1579 C 147.982 -0.970528 -1.61128 0
M  V30 1580 O 147.34 0.0613904 -1.81196 0
M  V30 1581 C 147.388 -3.39636 -1.21161 0
M  V30 1582 O 146.492 -3.40447 -2.32744 0
M  V30 1583 H 145.833 -0.647165 -0.148572 0
M  V30 1584 H 148.363 -2.03873 0.172347 0
M  V30 1585 H 148.373 -3.7726 -1.55367 0
M  V30 1586 H 147.048 -4.13356 -0.459313 0
M  V30 1587 H 145.625 -3.14614 -2.0018 0
M  V30 1588 N 147.81 0.181792 -1.56548 0
M  V30 1589 C 149.059 0.898348 -1.8059 0
M  V30 1590 C 149.372 1.83862 -0.667379 0
M  V30 1591 O 150.578 2.59678 -0.792446 0
M  V30 1592 C 149.034 1.64791 -3.19956 0
M  V30 1593 C 148.642 0.751789 -4.41647 0
M  V30 1594 C 150.386 2.35331 -3.53298 0
M  V30 1595 C 148.293 1.50098 -5.72035 0
M  V30 1596 H 147.223 0.339194 -0.673397 0
M  V30 1597 H 149.874 0.151413 -1.82874 0
M  V30 1598 H 148.256 2.43921 -3.11959 0
M  V30 1599 H 149.43 -0.0018076 -4.608 0
M  V30 1600 H 147.745 0.156562 -4.16106 0
M  V30 1601 H 150.342 2.91958 -4.47956 0
M  V30 1602 H 150.685 3.10164 -2.77676 0
M  V30 1603 H 151.218 1.63154 -3.62803 0
M  V30 1604 H 147.957 0.795175 -6.50659 0
M  V30 1605 H 147.477 2.22817 -5.56878 0
M  V30 1606 H 149.156 2.05125 -6.13622 0
M  V30 1607 N 149.288 1.51039 0.449983 0
M  V30 1608 C 150.236 1.71995 1.5659 0
M  V30 1609 C 151.23 0.586029 1.5894 0
M  V30 1610 O 152.436 0.76709 1.62837 0
M  V30 1611 H 148.811 0.543233 0.520001 0
M  V30 1612 H 150.782 2.65562 1.36085 0
M  V30 1613 C 149.531 1.8506 2.9436 0
M  V30 1614 H 148.854 2.71712 2.93279 0
M  V30 1615 H 150.294 2.0374 3.71842 0
M  V30 1616 C 148.753 0.607277 3.31382 0
M  V30 1617 O 149.283 -0.243903 4.00959 0
M  V30 1618 N 147.489 0.455073 2.87015 0
M  V30 1619 H 147.036 1.14879 2.30566 0
M  V30 1620 H 146.994 -0.375611 3.12148 0
M  V30 1621 N 150.766 -0.704594 1.40972 0
M  V30 1622 C 151.996 -1.49138 1.42974 0
M  V30 1623 C 152.404 -1.89175 0.0308406 0
M  V30 1624 O 151.747 -1.56734 -0.958138 0
M  V30 1625 C 151.809 -2.79016 2.26694 0
M  V30 1626 C 151.473 -2.61236 3.74973 0
M  V30 1627 C 152.47 -2.27773 4.67349 0
M  V30 1628 C 150.155 -2.77158 4.18914 0
M  V30 1629 C 152.149 -2.10457 6.01653 0
M  V30 1630 C 149.836 -2.59459 5.53285 0
M  V30 1631 C 150.834 -2.26158 6.4447 0
M  V30 1632 O 150.522 -2.08605 7.76363 0
M  V30 1633 H 150.254 -0.466443 0.489292 0
M  V30 1634 H 152.808 -0.8758 1.85793 0
M  V30 1635 H 151.038 -3.42947 1.78673 0
M  V30 1636 H 152.727 -3.40782 2.20504 0
M  V30 1637 H 153.493 -2.15095 4.34694 0
M  V30 1638 H 149.372 -3.02064 3.48251 0
M  V30 1639 H 152.916 -1.84387 6.72791 0
M  V30 1640 H 148.813 -2.71725 5.85522 0
M  V30 1641 H 149.581 -2.23439 7.87412 0
M  V30 1642 N 152.244 -1.26651 -0.937939 0
M  V30 1643 C 153.154 -1.10276 -2.07066 0
M  V30 1644 C 154.17 -0.0354197 -1.73964 0
M  V30 1645 O 155.346 -0.239816 -1.99967 0
M  V30 1646 C 152.411 -0.740887 -3.38691 0
M  V30 1647 C 151.472 -1.88799 -3.85556 0
M  V30 1648 C 150.705 -1.54329 -5.10899 0
M  V30 1649 O 150.928 -0.446494 -5.6865 0
M  V30 1650 O 149.862 -2.37911 -5.52885 0
M  V30 1651 H 153.688 -2.05309 -2.23789 0
M  V30 1652 H 151.273 -1.05743 -1.0554 0
M  V30 1653 H 153.155 -0.55195 -4.1777 0
M  V30 1654 H 151.83 0.180022 -3.23199 0
M  V30 1655 H 150.737 -2.13191 -3.07409 0
M  V30 1656 H 152.07 -2.78874 -4.05574 0
M  V30 1657 N 153.722 1.14298 -1.08507 0
M  V30 1658 C 154.97 1.84993 -0.813763 0
M  V30 1659 C 155.291 1.83405 0.662393 0
M  V30 1660 O 154.561 1.28319 1.48024 0
M  V30 1661 H 153.141 0.684966 -0.298045 0
M  V30 1662 H 155.803 1.385 -1.37126 0
M  V30 1663 H 154.899 2.89788 -1.15884 0
M  V30 1664 N 155.201 0.870884 1.31352 0
M  V30 1665 C 156.133 0.28455 2.27427 0
M  V30 1666 C 157.146 -0.552927 1.53123 0
M  V30 1667 O 158.335 -0.374771 1.74521 0
M  V30 1668 C 155.435 -0.615164 3.3327 0
M  V30 1669 C 154.608 0.190079 4.36987 0
M  V30 1670 C 153.667 -0.637917 5.22319 0
M  V30 1671 O 152.693 -0.065626 5.69162 0
M  V30 1672 N 153.895 -1.94973 5.46778 0
M  V30 1673 H 156.66 1.11017 2.7838 0
M  V30 1674 H 154.221 0.732458 1.44384 0
M  V30 1675 H 156.213 -1.1748 3.87273 0
M  V30 1676 H 154.783 -1.34146 2.82354 0
M  V30 1677 H 154.003 0.931165 3.83044 0
M  V30 1678 H 155.291 0.742579 5.03352 0
M  V30 1679 H 154.689 -2.4378 5.10478 0
M  V30 1680 H 153.246 -2.45713 6.03712 0
M  V30 1681 N 156.679 -1.44442 0.630414 0
M  V30 1682 C 157.627 -2.32437 -0.0871428 0
M  V30 1683 C 158.621 -1.47304 -0.836525 0
M  V30 1684 O 159.827 -1.63653 -0.749506 0
M  V30 1685 H 156.202 -0.750533 -0.0469495 0
M  V30 1686 H 158.173 -2.90709 0.673096 0
M  V30 1687 C 156.922 -3.31288 -1.05563 0
M  V30 1688 H 156.245 -3.96805 -0.488426 0
M  V30 1689 H 157.685 -3.9554 -1.52721 0
M  V30 1690 C 156.144 -2.6016 -2.14052 0
M  V30 1691 O 156.674 -2.39997 -3.22124 0
M  V30 1692 N 154.88 -2.19911 -1.89967 0
M  V30 1693 H 154.427 -2.36509 -1.02085 0
M  V30 1694 H 154.385 -1.72646 -2.62756 0
M  V30 1695 N 158.157 -0.370918 -1.53173 0
M  V30 1696 C 159.385 0.217704 -2.05751 0
M  V30 1697 C 159.8 1.42018 -1.24404 0
M  V30 1698 O 159.157 1.80245 -0.286033 0
M  V30 1699 C 159.208 0.605954 -3.56385 0
M  V30 1700 O 158.929 -0.548734 -4.3465 0
M  V30 1701 C 160.43 1.2524 -4.25241 0
M  V30 1702 H 157.65 0.0371659 -0.66997 0
M  V30 1703 H 160.194 -0.530832 -1.9749 0
M  V30 1704 H 158.349 1.3044 -3.6478 0
M  V30 1705 H 158.763 -0.23376 -5.23979 0
M  V30 1706 H 160.237 1.47458 -5.3194 0
M  V30 1707 H 160.714 2.2143 -3.79296 0
M  V30 1708 H 161.32 0.595233 -4.21114 0
M  V30 1709 N 159.635 1.57281 -0.100228 0
M  V30 1710 C 160.881 1.94826 0.563101 0
M  V30 1711 C 161.214 0.982475 1.67514 0
M  V30 1712 O 160.489 0.0164069 1.94493 0
M  V30 1713 C 160.772 3.42453 1.11346 0
M  V30 1714 C 160.625 4.498 0.00612081 0
M  V30 1715 C 161.944 3.91506 2.01024 0
M  V30 1716 H 159.063 0.708428 0.203221 0
M  V30 1717 H 161.705 1.8922 -0.171979 0
M  V30 1718 H 159.855 3.47361 1.7399 0
M  V30 1719 H 161.527 4.57 -0.628357 0
M  V30 1720 H 159.77 4.28756 -0.659581 0
M  V30 1721 H 160.441 5.50306 0.432109 0
M  V30 1722 H 162.917 3.88784 1.48278 0
M  V30 1723 H 161.793 4.95358 2.36457 0
M  V30 1724 H 162.054 3.31099 2.92961 0
M  V30 1725 N 161.113 -0.173488 1.56642 0
M  V30 1726 C 162.076 -1.19859 1.95362 0
M  V30 1727 C 163.076 -1.37296 0.83704 0
M  V30 1728 O 164.266 -1.34739 1.10413 0
M  V30 1729 C 161.398 -2.56405 2.24654 0
M  V30 1730 H 162.591 -0.867062 2.87092 0
M  V30 1731 H 160.144 -0.415853 1.50666 0
M  V30 1732 H 160.879 -2.94576 1.35631 0
M  V30 1733 H 160.664 -2.45115 3.06041 0
M  V30 1734 H 162.154 -3.30287 2.5554 0
M  V30 1735 N 162.591 -1.51276 -0.441967 0
M  V30 1736 C 163.837 -1.63958 -1.19355 0
M  V30 1737 C 164.17 -0.352543 -1.90973 0
M  V30 1738 O 163.445 0.647627 -1.83401 0
M  V30 1739 C 163.728 -2.83979 -2.21422 0
M  V30 1740 C 163.581 -4.22646 -1.53918 0
M  V30 1741 C 164.9 -2.99521 -3.22451 0
M  V30 1742 H 162.019 -0.596709 -0.432559 0
M  V30 1743 H 164.661 -1.83748 -0.483398 0
M  V30 1744 H 162.811 -2.67237 -2.81987 0
M  V30 1745 H 164.483 -4.51045 -0.967256 0
M  V30 1746 H 162.726 -4.25558 -0.841615 0
M  V30 1747 H 163.397 -5.02609 -2.28229 0
M  V30 1748 H 165.873 -3.14944 -2.71937 0
M  V30 1749 H 164.749 -3.85072 -3.91166 0
M  V30 1750 H 165.01 -2.11391 -3.88287 0
M  V30 1751 N 164.069 0.697108 -1.41344 0
M  V30 1752 C 165.294 1.49096 -1.44171 0
M  V30 1753 C 165.719 1.88038 -0.0481568 0
M  V30 1754 O 165.077 1.54525 0.948243 0
M  V30 1755 C 165.125 2.73088 -2.3549 0
M  V30 1756 O 164.229 3.70514 -1.81088 0
M  V30 1757 H 163.57 0.448801 -0.489361 0
M  V30 1758 H 166.1 0.856992 -1.85787 0
M  V30 1759 H 166.11 3.21413 -2.51312 0
M  V30 1760 H 164.785 2.44081 -3.36745 0
M  V30 1761 H 163.362 3.29441 -1.74708 0
M  V30 1762 N 165.547 1.27147 0.931209 0
M  V30 1763 C 166.457 1.11372 2.06478 0
M  V30 1764 C 167.473 0.044645 1.73943 0
M  V30 1765 O 168.649 0.250417 1.99837 0
M  V30 1766 C 165.714 0.758838 3.38294 0
M  V30 1767 C 164.775 1.90841 3.84549 0
M  V30 1768 C 164.008 1.57036 5.10074 0
M  V30 1769 O 164.231 0.476645 5.68405 0
M  V30 1770 O 163.165 2.40839 5.51616 0
M  V30 1771 H 166.991 2.06493 2.22698 0
M  V30 1772 H 164.576 1.06301 1.04978 0
M  V30 1773 H 166.458 0.574098 4.17471 0
M  V30 1774 H 165.133 -0.162879 3.2329 0
M  V30 1775 H 164.04 2.14819 3.06274 0
M  V30 1776 H 165.373 2.81021 4.04089 0
M  V30 1777 N 167.025 -1.13721 1.09112 0
M  V30 1778 C 168.253 -1.88773 0.846899 0
M  V30 1779 C 168.668 -1.7896 -0.601572 0
M  V30 1780 O 168.025 -1.15394 -1.41388 0
M  V30 1781 C 168.076 -3.3849 1.26913 0
M  V30 1782 O 167.797 -3.48043 2.66079 0
M  V30 1783 C 169.298 -4.30518 1.05682 0
M  V30 1784 H 166.518 -0.59772 0.304914 0
M  V30 1785 H 169.062 -1.43977 1.45227 0
M  V30 1786 H 167.217 -3.80881 0.707723 0
M  V30 1787 H 167.631 -4.4109 2.83795 0
M  V30 1788 H 169.105 -5.3391 1.40156 0
M  V30 1789 H 169.582 -4.392 -0.00563416 0
M  V30 1790 H 170.188 -3.93893 1.60402 0
M  V30 1791 N 168.503 -0.877838 -1.30888 0
M  V30 1792 C 169.78 -0.413052 -1.91189 0
M  V30 1793 C 170.16 1.1056 -1.79832 0
M  V30 1794 O 169.508 1.93771 -1.21099 0
M  V30 1795 C 169.718 -0.903191 -3.3711 0
M  V30 1796 C 171.066 -0.93395 -4.14201 0
M  V30 1797 O 172.09 -0.849373 -3.45925 0
M  V30 1798 O 170.949 -1.05772 -5.36167 0
M  V30 1799 H 168.043 -0.125035 -0.817493 0
M  V30 1800 H 170.589 -0.966269 -1.39504 0
M  V30 1801 H 169.361 -1.94692 -3.39427 0
M  V30 1802 H 168.984 -0.328732 -3.96239 0
M  V30 1803 N 169.982 1.44106 -0.638065 0
M  V30 1804 C 171.212 2.06037 -0.152394 0
M  V30 1805 C 171.62 1.47808 1.18108 0
M  V30 1806 O 170.963 0.598092 1.73691 0
M  V30 1807 C 171.025 3.59488 0.0293714 0
M  V30 1808 C 170.689 4.4022 -1.22702 0
M  V30 1809 C 171.686 4.73256 -2.15232 0
M  V30 1810 C 169.371 4.8048 -1.46437 0
M  V30 1811 C 171.365 5.45444 -3.29802 0
M  V30 1812 C 169.052 5.52417 -2.61303 0
M  V30 1813 C 170.05 5.84819 -3.52811 0
M  V30 1814 O 169.738 6.55289 -4.65673 0
M  V30 1815 H 169.47 0.671233 -0.0801401 0
M  V30 1816 H 172.024 1.85851 -0.874563 0
M  V30 1817 H 170.254 3.78191 0.806758 0
M  V30 1818 H 171.943 4.03164 0.470475 0
M  V30 1819 H 172.709 4.42684 -1.98131 0
M  V30 1820 H 168.588 4.54676 -0.760977 0
M  V30 1821 H 172.132 5.70653 -4.01249 0
M  V30 1822 H 168.029 5.82404 -2.78344 0
M  V30 1823 H 168.797 6.73762 -4.64744 0
M  V30 1824 N 171.46 0.379036 1.52974 0
M  V30 1825 C 172.876 0.0285448 1.59574 0
M  V30 1826 C 173.076 -1.45542 1.39355 0
M  V30 1827 O 172.132 -2.2187 1.20541 0
M  V30 1828 C 173.445 0.496535 2.96572 0
M  V30 1829 C 174.993 0.451909 3.0972 0
M  V30 1830 C 175.468 0.895924 4.49152 0
M  V30 1831 N 176.959 0.851522 4.55306 0
M  V30 1832 C 177.694 1.16661 5.61407 0
M  V30 1833 N 177.19 1.55166 6.752 0
M  V30 1834 N 178.983 1.08853 5.51459 0
M  V30 1835 H 171.134 1.34525 1.64367 0
M  V30 1836 H 173.397 0.550733 0.771619 0
M  V30 1837 H 173.103 1.53258 3.16552 0
M  V30 1838 H 172.977 -0.109802 3.7704 0
M  V30 1839 H 175.364 -0.575029 2.89443 0
M  V30 1840 H 175.445 1.09392 2.3123 0
M  V30 1841 H 175.089 1.92104 4.70168 0
M  V30 1842 H 175.019 0.23103 5.26093 0
M  V30 1843 H 177.51 0.568038 3.73606 0
M  V30 1844 H 177.823 1.776 7.52116 0
M  V30 1845 H 176.168 1.59044 6.76557 0
M  V30 1846 H 179.359 0.786803 4.6144 0
M  V30 1847 H 179.532 1.33742 6.34048 0
M  V30 1848 N 172.938 -1.57226 0.108567 0
M  V30 1849 C 173.868 -2.17778 -0.84232 0
M  V30 1850 C 174.849 -1.11487 -1.2847 0
M  V30 1851 O 176.034 -1.39681 -1.34918 0
M  V30 1852 C 173.164 -2.76888 -2.09644 0
M  V30 1853 C 172.118 -3.88669 -1.79221 0
M  V30 1854 C 171.444 -4.34541 -3.11574 0
M  V30 1855 C 172.744 -5.11251 -1.06864 0
M  V30 1856 H 174.438 -2.97489 -0.337774 0
M  V30 1857 H 171.984 -1.43097 -0.161025 0
M  V30 1858 H 173.937 -3.17904 -2.76614 0
M  V30 1859 H 172.661 -1.94451 -2.62405 0
M  V30 1860 H 171.32 -3.48213 -1.14644 0
M  V30 1861 H 170.968 -3.48977 -3.62249 0
M  V30 1862 H 170.668 -5.09914 -2.91996 0
M  V30 1863 H 172.192 -4.782 -3.7968 0
M  V30 1864 H 173.606 -5.49352 -1.63968 0
M  V30 1865 H 172.003 -5.9214 -0.974178 0
M  V30 1866 H 173.073 -4.8487 -0.0536168 0
M  V30 1867 N 174.416 0.165178 -1.56732 0
M  V30 1868 C 175.663 0.880807 -1.8234 0
M  V30 1869 C 175.991 1.81977 -0.686621 0
M  V30 1870 O 175.246 1.92971 0.325697 0
M  V30 1871 C 175.545 1.70405 -3.1416 0
M  V30 1872 C 175.211 0.913475 -4.4155 0
M  V30 1873 C 173.873 0.695303 -4.7615 0
M  V30 1874 C 176.225 0.359349 -5.1996 0
M  V30 1875 C 173.553 -0.0879947 -5.86634 0
M  V30 1876 C 175.905 -0.410893 -6.31264 0
M  V30 1877 C 174.569 -0.639808 -6.64427 0
M  V30 1878 H 173.839 0.32231 -0.667231 0
M  V30 1879 H 176.486 0.145402 -1.90947 0
M  V30 1880 H 174.791 2.50903 -3.00923 0
M  V30 1881 H 176.488 2.26091 -3.31186 0
M  V30 1882 H 173.078 1.09357 -4.14414 0
M  V30 1883 H 177.262 0.515228 -4.93618 0
M  V30 1884 H 172.518 -0.27503 -6.10781 0
M  V30 1885 H 176.692 -0.847494 -6.91224 0
M  V30 1886 H 174.319 -1.24864 -7.49875 0
M  V30 1887 N 175.894 1.51508 0.433938 0
M  V30 1888 C 177.143 1.63578 1.18005 0
M  V30 1889 C 177.456 0.359514 1.92268 0
M  V30 1890 O 178.662 0.359632 2.69108 0
M  V30 1891 C 177.118 2.88901 2.14626 0
M  V30 1892 C 176.726 4.23544 1.45995 0
M  V30 1893 C 178.47 3.10328 2.89649 0
M  V30 1894 C 176.377 5.40014 2.4112 0
M  V30 1895 H 175.307 0.609277 0.444182 0
M  V30 1896 H 177.958 1.77978 0.446773 0
M  V30 1897 H 176.34 2.68142 2.91403 0
M  V30 1898 H 177.514 4.54696 0.747532 0
M  V30 1899 H 175.829 4.08021 0.831115 0
M  V30 1900 H 178.426 3.94518 3.60915 0
M  V30 1901 H 178.769 2.23544 3.51189 0
M  V30 1902 H 179.302 3.31443 2.19978 0
M  V30 1903 H 176.041 6.29068 1.84264 0
M  V30 1904 H 175.561 5.13233 3.10406 0
M  V30 1905 H 177.24 5.72099 3.02177 0
M  V30 1906 N 177.372 -0.689602 1.41712 0
M  V30 1907 C 178.6 -1.47827 1.44758 0
M  V30 1908 C 179.015 -1.88721 0.0545703 0
M  V30 1909 O 178.372 -1.57176 -0.927463 0
M  V30 1910 C 178.423 -2.73698 2.3616 0
M  V30 1911 O 178.144 -2.34524 3.7004 0
M  V30 1912 C 179.645 -3.67389 2.48072 0
M  V30 1913 H 176.865 -0.455357 0.49284 0
M  V30 1914 H 179.409 -0.848574 1.86063 0
M  V30 1915 H 177.564 -3.32891 1.98148 0
M  V30 1916 H 177.978 -3.15701 4.18847 0
M  V30 1917 H 179.452 -4.52475 3.16181 0
M  V30 1918 H 179.929 -4.12284 1.51388 0
M  V30 1919 H 180.535 -3.14097 2.86746 0
M  V30 1920 N 178.85 -1.27639 -0.924453 0
M  V30 1921 C 180.097 -1.14167 -1.67249 0
M  V30 1922 C 180.425 0.311863 -1.91984 0
M  V30 1923 O 179.68 1.24425 -1.51053 0
M  V30 1924 C 179.979 -1.87407 -3.04325 0
M  V30 1925 C 179.645 -3.37249 -2.99289 0
M  V30 1926 C 178.307 -3.7812 -2.97622 0
M  V30 1927 C 180.659 -4.32845 -2.90336 0
M  V30 1928 C 177.987 -5.12944 -2.8479 0
M  V30 1929 C 180.339 -5.6773 -2.79045 0
M  V30 1930 C 179.003 -6.07889 -2.7573 0
M  V30 1931 H 178.273 -0.417766 -0.612007 0
M  V30 1932 H 180.92 -1.58286 -1.07786 0
M  V30 1933 H 179.225 -1.35805 -3.67511 0
M  V30 1934 H 180.922 -1.74408 -3.61086 0
M  V30 1935 H 177.512 -3.04748 -3.01374 0
M  V30 1936 H 181.696 -4.02239 -2.90719 0
M  V30 1937 H 176.952 -5.432 -2.80612 0
M  V30 1938 H 181.126 -6.41472 -2.71083 0
M  V30 1939 H 178.753 -7.12314 -2.65544 0
M  V30 1940 N 180.328 1.1314 -1.09713 0
M  V30 1941 C 181.278 2.16709 -0.708593 0
M  V30 1942 C 182.262 1.58471 0.278523 0
M  V30 1943 O 183.454 1.76779 0.088427 0
M  V30 1944 C 180.583 3.43039 -0.133923 0
M  V30 1945 C 179.669 4.08277 -1.14763 0
M  V30 1946 N 180.06 4.48637 -2.33577 0
M  V30 1947 C 178.358 4.34954 -0.986446 0
M  V30 1948 C 179.059 4.9952 -2.98085 0
M  V30 1949 N 178.035 4.94561 -2.25632 0
M  V30 1950 H 181.837 2.45672 -1.61315 0
M  V30 1951 H 179.351 1.29967 -0.973775 0
M  V30 1952 H 181.348 4.16583 0.162465 0
M  V30 1953 H 180.008 3.15549 0.765447 0
M  V30 1954 H 181.019 4.41246 -2.7115 0
M  V30 1955 H 177.696 4.17258 -0.142008 0
M  V30 1956 H 179.086 5.40521 -3.99108 0
M  V30 1957 N 181.806 0.884767 1.30421 0
M  V30 1958 C 182.736 0.367574 2.30589 0
M  V30 1959 C 183.717 -0.549464 1.60981 0
M  V30 1960 O 184.902 -0.46336 1.88591 0
M  V30 1961 C 182.032 -0.418944 3.44764 0
M  V30 1962 C 180.986 0.406316 4.26067 0
M  V30 1963 C 180.312 -0.506793 5.32293 0
M  V30 1964 C 181.612 1.64832 4.95608 0
M  V30 1965 H 183.306 1.20462 2.74097 0
M  V30 1966 H 180.852 0.580695 1.31772 0
M  V30 1967 H 182.805 -0.791395 4.13902 0
M  V30 1968 H 181.529 -1.28964 3.0006 0
M  V30 1969 H 180.188 0.760903 3.58617 0
M  V30 1970 H 179.836 -1.37519 4.83836 0
M  V30 1971 H 179.536 0.0415828 5.87585 0
M  V30 1972 H 181.06 -0.875764 6.04287 0
M  V30 1973 H 182.474 1.34646 5.57264 0
M  V30 1974 H 180.871 2.13688 5.60765 0
M  V30 1975 H 181.941 2.39284 4.21748 0
M  V30 1976 N 183.284 -1.43765 0.645699 0
M  V30 1977 C 184.216 -2.29027 -0.0890605 0
M  V30 1978 C 185.229 -1.42093 -0.794563 0
M  V30 1979 O 186.418 -1.66104 -0.653575 0
M  V30 1980 C 183.518 -3.18831 -1.14891 0
M  V30 1981 C 182.691 -4.34261 -0.523043 0
M  V30 1982 C 181.75 -5.04994 -1.47878 0
M  V30 1983 O 180.776 -5.6052 -0.990277 0
M  V30 1984 N 181.978 -5.07795 -2.81291 0
M  V30 1985 H 184.743 -2.92727 0.64272 0
M  V30 1986 H 182.304 -1.54373 0.487924 0
M  V30 1987 H 184.296 -3.63015 -1.78892 0
M  V30 1988 H 182.866 -2.56782 -1.78275 0
M  V30 1989 H 182.086 -3.93088 0.295896 0
M  V30 1990 H 183.374 -5.08728 -0.0858147 0
M  V30 1991 H 182.772 -4.64042 -3.23546 0
M  V30 1992 H 181.329 -5.55721 -3.40614 0
M  V30 1993 N 184.763 -0.387143 -1.52771 0
M  V30 1994 C 185.711 0.463953 -2.27926 0
M  V30 1995 C 186.705 1.06493 -1.31741 0
M  V30 1996 O 187.911 1.00565 -1.49287 0
M  V30 1997 H 184.286 0.16837 -0.732909 0
M  V30 1998 H 186.257 -0.19141 -2.97785 0
M  V30 1999 C 185.006 1.5803 -3.09713 0
M  V30 2000 H 184.329 1.12718 -3.83581 0
M  V30 2001 H 185.769 2.15008 -3.65442 0
M  V30 2002 C 184.228 2.53509 -2.2189 0
M  V30 2003 O 184.758 3.56863 -1.84422 0
M  V30 2004 N 182.964 2.23199 -1.86093 0
M  V30 2005 H 182.511 1.39185 -2.16761 0
M  V30 2006 H 182.469 2.87333 -1.27621 0
M  V30 2007 N 186.241 1.57166 -0.116904 0
M  V30 2008 C 187.488 1.95123 0.541603 0
M  V30 2009 C 187.816 1.00006 1.6682 0
M  V30 2010 O 187.071 0.0235658 1.95686 0
M  V30 2011 C 187.37 3.39508 1.11664 0
M  V30 2012 C 187.036 4.50762 0.111606 0
M  V30 2013 C 185.698 4.80918 -0.164758 0
M  V30 2014 C 188.05 5.18036 -0.573438 0
M  V30 2015 C 185.378 5.75666 -1.13249 0
M  V30 2016 C 187.73 6.13824 -1.52978 0
M  V30 2017 C 186.394 6.42374 -1.81415 0
M  V30 2018 H 185.664 0.714005 0.198187 0
M  V30 2019 H 188.311 1.9048 -0.197365 0
M  V30 2020 H 186.616 3.40835 1.93232 0
M  V30 2021 H 188.313 3.66189 1.63422 0
M  V30 2022 H 184.903 4.27272 0.337192 0
M  V30 2023 H 189.087 4.94896 -0.373092 0
M  V30 2024 H 184.343 5.96092 -1.35958 0
M  V30 2025 H 188.517 6.65039 -2.06629 0
M  V30 2026 H 186.144 7.15599 -2.56557 0
M  V30 2027 N 187.719 -0.156864 1.56817 0
M  V30 2028 C 189.135 -0.50916 1.5126 0
M  V30 2029 C 189.335 -1.83897 0.823658 0
M  V30 2030 O 188.391 -2.49469 0.390055 0
M  V30 2031 C 189.704 -0.52857 2.96018 0
M  V30 2032 C 191.252 -0.614771 3.06903 0
M  V30 2033 C 191.727 -0.664938 4.53147 0
M  V30 2034 N 193.218 -0.727433 4.57452 0
M  V30 2035 C 193.953 -0.787067 5.67973 0
M  V30 2036 N 193.449 -0.806649 6.88088 0
M  V30 2037 N 195.242 -0.827195 5.5598 0
M  V30 2038 H 187.393 0.714935 2.00006 0
M  V30 2039 H 189.656 0.259526 0.911784 0
M  V30 2040 H 189.362 0.380154 3.49639 0
M  V30 2041 H 189.236 -1.36998 3.51442 0
M  V30 2042 H 191.623 -1.51392 2.53307 0
M  V30 2043 H 191.704 0.253597 2.5454 0
M  V30 2044 H 191.348 0.230011 5.07379 0
M  V30 2045 H 191.278 -1.54966 5.03282 0
M  V30 2046 H 193.769 -0.719998 3.70978 0
M  V30 2047 H 194.082 -0.853727 7.6807 0
M  V30 2048 H 192.427 -0.774687 6.90669 0
M  V30 2049 H 195.618 -0.808998 4.61056 0
M  V30 2050 H 195.791 -0.870206 6.4213 0
M  V30 2051 N 189.197 -1.51736 -0.425897 0
M  V30 2052 C 190.145 -1.74464 -1.53834 0
M  V30 2053 C 191.139 -0.611241 -1.57988 0
M  V30 2054 O 192.345 -0.792899 -1.61596 0
M  V30 2055 H 188.72 -0.551437 -0.511293 0
M  V30 2056 H 190.691 -2.67694 -1.31843 0
M  V30 2057 C 189.44 -1.8972 -2.91379 0
M  V30 2058 H 188.763 -2.76344 -2.88919 0
M  V30 2059 H 190.203 -2.09629 -3.68553 0
M  V30 2060 C 188.662 -0.65992 -3.30374 0
M  V30 2061 O 189.192 0.180083 -4.01296 0
M  V30 2062 N 187.398 -0.500677 -2.86254 0
M  V30 2063 H 186.945 -1.18532 -2.28709 0
M  V30 2064 H 186.903 0.325903 -3.12706 0
M  V30 2065 N 190.675 0.682077 -1.42076 0
M  V30 2066 C 191.923 1.4393 -1.41876 0
M  V30 2067 C 192.244 1.94971 -0.0335599 0
M  V30 2068 O 191.514 1.72591 0.926773 0
M  V30 2069 H 190.094 0.534085 -0.522267 0
M  V30 2070 H 192.756 0.806427 -1.77434 0
M  V30 2071 H 191.852 2.29588 -2.11414 0
M  V30 2072 N 192.153 1.28127 0.917671 0
M  V30 2073 C 193.381 1.17892 1.70026 0
M  V30 2074 C 193.796 -0.262958 1.8696 0
M  V30 2075 O 193.153 -1.17811 1.3938 0
M  V30 2076 C 193.204 1.86872 3.09453 0
M  V30 2077 O 192.925 3.25428 2.93306 0
M  V30 2078 C 194.426 1.8289 4.03815 0
M  V30 2079 H 191.646 0.40942 0.531617 0
M  V30 2080 H 194.19 1.69181 1.14883 0
M  V30 2081 H 192.345 1.39464 3.61426 0
M  V30 2082 H 192.759 3.59918 3.81523 0
M  V30 2083 H 194.233 2.35751 4.99125 0
M  V30 2084 H 194.71 0.800412 4.31845 0
M  V30 2085 H 195.316 2.29959 3.57769 0
M  V30 2086 N 193.631 -1.12557 1.10312 0
M  V30 2087 C 194.541 -2.21841 0.763142 0
M  V30 2088 C 195.557 -1.72354 -0.238801 0
M  V30 2089 O 196.733 -2.01249 -0.0778746 0
M  V30 2090 C 193.798 -3.46131 0.198632 0
M  V30 2091 C 192.859 -4.10464 1.25769 0
M  V30 2092 C 192.092 -5.28821 0.72002 0
M  V30 2093 O 192.315 -5.6859 -0.453993 0
M  V30 2094 O 191.249 -5.83437 1.47935 0
M  V30 2095 H 195.075 -2.53312 1.67532 0
M  V30 2096 H 192.66 -1.20867 0.878157 0
M  V30 2097 H 194.542 -4.2125 -0.112401 0
M  V30 2098 H 193.217 -3.16338 -0.686419 0
M  V30 2099 H 192.124 -3.3713 1.62156 0
M  V30 2100 H 193.457 -4.44408 2.11571 0
M  V30 2101 N 195.109 -0.891671 -1.2995 0
M  V30 2102 C 196.337 -0.52866 -2.00032 0
M  V30 2103 C 196.752 0.884574 -1.66795 0
M  V30 2104 O 196.109 1.5827 -0.908669 0
M  V30 2105 C 196.16 -0.701814 -3.54622 0
M  V30 2106 O 195.881 -2.05942 -3.86678 0
M  V30 2107 C 197.382 -0.342683 -4.41973 0
M  V30 2108 H 194.602 -0.203659 -0.639347 0
M  V30 2109 H 197.146 -1.19881 -1.65677 0
M  V30 2110 H 195.301 -0.0789468 -3.8732 0
M  V30 2111 H 195.715 -2.08291 -4.81368 0
M  V30 2112 H 197.189 -0.514709 -5.49595 0
M  V30 2113 H 197.666 0.71975 -4.33262 0
M  V30 2114 H 198.272 -0.942154 -4.14733 0
M  V30 2115 N 196.587 1.43421 -0.653314 0
M  V30 2116 C 197.537 2.2792 0.060558 0
M  V30 2117 C 198.521 1.39906 0.794677 0
M  V30 2118 O 199.713 1.63536 0.677128 0
M  V30 2119 C 196.842 3.27603 1.0262 0
M  V30 2120 C 195.928 4.23104 0.290551 0
M  V30 2121 N 196.319 5.01031 -0.692967 0
M  V30 2122 C 194.617 4.42816 0.531984 0
M  V30 2123 C 195.318 5.70626 -1.12963 0
M  V30 2124 N 194.294 5.41617 -0.463867 0
M  V30 2125 H 198.096 2.85585 -0.694143 0
M  V30 2126 H 195.61 1.55126 -0.480602 0
M  V30 2127 H 197.607 3.86918 1.55242 0
M  V30 2128 H 196.267 2.71499 1.78096 0
M  V30 2129 H 197.278 5.0669 -1.07169 0
M  V30 2130 H 193.955 3.97782 1.26791 0
M  V30 2131 H 195.345 6.4318 -1.94343 0
M  V30 2132 N 198.065 0.39524 1.52563 0
M  V30 2133 C 199.293 -0.184943 2.06072 0
M  V30 2134 C 199.708 -1.40021 1.26647 0
M  V30 2135 O 199.065 -1.79767 0.314672 0
M  V30 2136 C 199.116 -0.549179 3.57304 0
M  V30 2137 O 198.837 0.617813 4.33722 0
M  V30 2138 C 200.338 -1.18459 4.2718 0
M  V30 2139 H 197.558 -0.0265025 0.670476 0
M  V30 2140 H 200.102 0.562184 1.96621 0
M  V30 2141 H 198.257 -1.2462 3.66809 0
M  V30 2142 H 198.671 0.317091 5.23541 0
M  V30 2143 H 200.145 -1.38976 5.34219 0
M  V30 2144 H 200.622 -2.15368 3.82771 0
M  V30 2145 H 201.228 -0.528163 4.22008 0
M  V30 2146 N 199.544 -1.57102 0.125237 0
M  V30 2147 C 200.474 -2.18659 -0.819174 0
M  V30 2148 C 201.455 -1.12843 -1.27281 0
M  V30 2149 O 202.64 -1.41104 -1.33429 0
M  V30 2150 C 199.77 -2.79096 -2.06695 0
M  V30 2151 C 198.724 -3.90548 -1.75088 0
M  V30 2152 C 198.05 -4.37821 -3.06948 0
M  V30 2153 C 199.35 -5.12356 -1.01435 0
M  V30 2154 H 201.044 -2.9783 -0.306202 0
M  V30 2155 H 198.59 -1.4326 -0.145839 0
M  V30 2156 H 200.543 -3.2082 -2.73226 0
M  V30 2157 H 199.267 -1.97223 -2.60328 0
M  V30 2158 H 197.926 -3.49409 -1.10944 0
M  V30 2159 H 197.574 -3.52799 -3.58527 0
M  V30 2160 H 197.274 -5.12982 -2.86571 0
M  V30 2161 H 198.798 -4.822 -3.74587 0
M  V30 2162 H 200.212 -5.5106 -1.58132 0
M  V30 2163 H 198.609 -5.9314 -0.911319 0
M  V30 2164 H 199.679 -4.849 -0.00218681 0
M  V30 2165 N 201.022 0.148545 -1.56898 0
M  V30 2166 C 201.985 1.16736 -1.97244 0
M  V30 2167 C 202.985 1.35947 -0.858777 0
M  V30 2168 O 204.175 1.32966 -1.12542 0
M  V30 2169 C 201.307 2.52798 -2.28705 0
M  V30 2170 H 202.5 0.821279 -2.88435 0
M  V30 2171 H 200.053 0.391831 -1.51309 0
M  V30 2172 H 200.788 2.92381 -1.403 0
M  V30 2173 H 200.573 2.40216 -3.09901 0
M  V30 2174 H 202.063 3.26179 -2.60762 0
M  V30 2175 N 202.5 1.5196 0.417844 0
M  V30 2176 C 203.43 1.77634 1.51554 0
M  V30 2177 C 204.411 0.626918 1.58126 0
M  V30 2178 O 205.596 0.871632 1.7354 0
M  V30 2179 C 202.726 1.91911 2.8946 0
M  V30 2180 C 201.68 3.07463 2.97743 0
M  V30 2181 C 201.006 3.06951 4.37819 0
M  V30 2182 C 202.306 4.47082 2.70027 0
M  V30 2183 H 204 2.6955 1.3032 0
M  V30 2184 H 201.546 1.29706 0.625492 0
M  V30 2185 H 203.499 2.08455 3.6623 0
M  V30 2186 H 202.223 0.966598 3.11969 0
M  V30 2187 H 200.882 2.90656 2.23416 0
M  V30 2188 H 200.53 2.09438 4.57323 0
M  V30 2189 H 200.23 3.84556 4.44286 0
M  V30 2190 H 201.754 3.25613 5.16535 0
M  V30 2191 H 203.168 4.6414 3.36522 0
M  V30 2192 H 201.565 5.2654 2.87881 0
M  V30 2193 H 202.635 4.55777 1.65514 0
M  V30 2194 N 203.978 -0.674533 1.42435 0
M  V30 2195 C 205.208 -1.46071 1.46105 0
M  V30 2196 C 205.616 -1.89067 0.0709605 0
M  V30 2197 O 204.959 -1.58731 -0.924677 0
M  V30 2198 C 205.021 -2.74145 2.32561 0
M  V30 2199 C 204.685 -2.53224 3.8043 0
M  V30 2200 C 205.682 -2.17809 4.72075 0
M  V30 2201 C 203.367 -2.6821 4.24698 0
M  V30 2202 C 205.361 -1.97648 6.05982 0
M  V30 2203 C 203.048 -2.47665 5.58664 0
M  V30 2204 C 204.046 -2.12437 6.49122 0
M  V30 2205 O 203.734 -1.9209 7.80613 0
M  V30 2206 H 203.466 -0.455959 0.499076 0
M  V30 2207 H 206.02 -0.836193 1.87609 0
M  V30 2208 H 204.25 -3.3908 1.85908 0
M  V30 2209 H 205.939 -3.36028 2.27683 0
M  V30 2210 H 206.705 -2.05826 4.39159 0
M  V30 2211 H 202.584 -2.94609 3.54579 0
M  V30 2212 H 206.128 -1.70075 6.7655 0
M  V30 2213 H 202.025 -2.59244 5.91154 0
M  V30 2214 H 202.793 -2.06686 7.91974 0
M  V30 2215 N 205.456 -1.28612 -0.910864 0
M  V30 2216 C 206.366 -1.14643 -2.0468 0
M  V30 2217 C 207.382 -0.0723121 -1.7385 0
M  V30 2218 O 208.558 -0.282178 -1.99413 0
M  V30 2219 C 205.623 -0.812561 -3.37044 0
M  V30 2220 C 204.684 -1.96935 -3.81465 0
M  V30 2221 C 203.917 -1.65131 -5.07511 0
M  V30 2222 O 204.14 -0.567013 -5.67575 0
M  V30 2223 O 203.074 -2.49585 -5.47714 0
M  V30 2224 H 206.9 -2.1001 -2.19384 0
M  V30 2225 H 204.485 -1.07958 -1.03274 0
M  V30 2226 H 206.367 -0.640441 -4.16505 0
M  V30 2227 H 205.042 0.111426 -3.23508 0
M  V30 2228 H 203.949 -2.19664 -3.02818 0
M  V30 2229 H 205.282 -2.87414 -3.99567 0
M  V30 2230 N 206.934 1.1197 -1.10907 0
M  V30 2231 C 208.162 1.87402 -0.876824 0
M  V30 2232 C 208.577 1.79894 0.573025 0
M  V30 2233 O 207.934 1.17629 1.39534 0
M  V30 2234 C 207.985 3.36428 -1.32282 0
M  V30 2235 O 207.706 3.43765 -2.71582 0
M  V30 2236 C 209.207 4.28783 -1.12518 0
M  V30 2237 H 206.427 0.592793 -0.314384 0
M  V30 2238 H 208.971 1.41649 -1.47499 0
M  V30 2239 H 207.126 3.79706 -0.768229 0
M  V30 2240 H 207.54 4.3652 -2.90776 0
M  V30 2241 H 209.014 5.31613 -1.48633 0
M  V30 2242 H 209.491 4.39153 -0.0642394 0
M  V30 2243 H 210.097 3.91291 -1.66648 0
M  V30 2244 N 208.412 0.89855 1.29475 0
M  V30 2245 C 209.652 0.530771 1.97388 0
M  V30 2246 C 210.016 -0.905832 1.69289 0
M  V30 2247 O 211.217 -1.38042 2.30646 0
M  V30 2248 C 209.488 0.81369 3.48014 0
M  V30 2249 S 211.047 0.550048 4.35339 0
M  V30 2250 H 207.865 0.196956 0.683176 0
M  V30 2251 H 210.467 1.16074 1.57312 0
M  V30 2252 H 209.171 1.85749 3.65958 0
M  V30 2253 H 208.702 0.171795 3.93025 0
M  V30 2254 H 210.717 -0.605423 4.92493 0
M  V30 2255 N 209.89 -1.43072 0.660911 0
M  V30 2256 C 210.8 -2.34585 -0.0264163 0
M  V30 2257 C 211.816 -1.54316 -0.803898 0
M  V30 2258 O 212.992 -1.86939 -0.749391 0
M  V30 2259 C 210.057 -3.32689 -0.975639 0
M  V30 2260 C 209.118 -4.2886 -0.194236 0
M  V30 2261 C 208.351 -5.22278 -1.09825 0
M  V30 2262 O 208.574 -5.20299 -2.33763 0
M  V30 2263 O 207.508 -5.99228 -0.566513 0
M  V30 2264 H 211.334 -2.94869 0.727034 0
M  V30 2265 H 208.919 -1.43342 0.42111 0
M  V30 2266 H 210.801 -3.92995 -1.52094 0
M  V30 2267 H 209.476 -2.74898 -1.70918 0
M  V30 2268 H 208.383 -3.72011 0.394835 0
M  V30 2269 H 209.716 -4.89655 0.499899 0
M  V30 2270 N 211.368 -0.403325 -1.52352 0
M  V30 2271 C 212.315 0.425011 -2.26853 0
M  V30 2272 C 213.285 1.04598 -1.29029 0
M  V30 2273 O 214.47 1.07135 -1.57882 0
M  V30 2274 C 211.61 1.53888 -3.08889 0
M  V30 2275 C 210.723 0.939396 -4.21663 0
M  V30 2276 C 209.858 2.02547 -4.91068 0
M  V30 2277 C 208.897 1.40263 -5.95813 0
M  V30 2278 N 208.034 2.4286 -6.58759 0
M  V30 2279 H 212.874 -0.21674 -2.97211 0
M  V30 2280 H 210.411 -0.118722 -1.4662 0
M  V30 2281 H 212.369 2.19558 -3.54753 0
M  V30 2282 H 210.999 2.15074 -2.40714 0
M  V30 2283 H 210.051 0.171898 -3.80011 0
M  V30 2284 H 211.363 0.44436 -4.96817 0
M  V30 2285 H 210.517 2.75958 -5.40308 0
M  V30 2286 H 209.256 2.55415 -4.15469 0
M  V30 2287 H 208.261 0.653833 -5.45898 0
M  V30 2288 H 209.486 0.881719 -6.73352 0
M  V30 2289 H 207.432 2.94871 -5.85992 0
M  V30 2290 H 207.349 1.98152 -7.2957 0
M  V30 2291 H 208.617 3.15858 -7.12639 0
M  V30 2292 N 212.846 1.57033 -0.133567 0
M  V30 2293 C 214.076 1.99754 0.527429 0
M  V30 2294 C 214.484 1.01245 1.59832 0
M  V30 2295 O 213.827 -0.000645496 1.837 0
M  V30 2296 C 213.889 3.38903 1.19939 0
M  V30 2297 C 213.553 4.56174 0.274709 0
M  V30 2298 C 214.55 5.17563 -0.492398 0
M  V30 2299 C 212.235 5.01972 0.18153 0
M  V30 2300 C 214.229 6.2315 -1.34027 0
M  V30 2301 C 211.916 6.07416 -0.669958 0
M  V30 2302 C 212.914 6.67874 -1.42947 0
M  V30 2303 O 212.602 7.71279 -2.2668 0
M  V30 2304 H 212.334 0.660702 0.142999 0
M  V30 2305 H 214.888 2.04207 -0.221099 0
M  V30 2306 H 213.118 3.31248 1.99528 0
M  V30 2307 H 214.807 3.65818 1.75875 0
M  V30 2308 H 215.573 4.83087 -0.430367 0
M  V30 2309 H 211.452 4.54652 0.762422 0
M  V30 2310 H 214.996 6.70268 -1.93357 0
M  V30 2311 H 210.893 6.41321 -0.73333 0
M  V30 2312 H 211.661 7.88441 -2.1978 0
M  V30 2313 N 214.325 -0.140222 1.56975 0
M  V30 2314 C 215.573 -0.850005 1.83356 0
M  V30 2315 C 215.894 -1.81399 0.71551 0
M  V30 2316 O 215.164 -1.94136 -0.262294 0
M  V30 2317 H 213.744 -0.316886 0.676456 0
M  V30 2318 H 216.406 -0.132608 1.94448 0
M  V30 2319 H 215.502 -1.40814 2.78528 0
M  V30 2320 N 215.803 -1.52179 -0.40978 0
M  V30 2321 C 216.733 -1.78435 -1.5061 0
M  V30 2322 C 217.714 -0.635295 -1.57791 0
M  V30 2323 O 218.899 -0.880823 -1.73076 0
M  V30 2324 C 216.029 -1.93444 -2.88439 0
M  V30 2325 C 214.983 -3.09038 -2.96108 0
M  V30 2326 C 214.309 -3.09268 -4.36185 0
M  V30 2327 C 215.609 -4.48508 -2.67652 0
M  V30 2328 H 217.303 -2.70237 -1.28889 0
M  V30 2329 H 214.849 -1.30036 -0.618605 0
M  V30 2330 H 216.802 -2.10394 -3.65119 0
M  V30 2331 H 215.526 -0.983129 -3.11452 0
M  V30 2332 H 214.185 -2.91837 -2.21872 0
M  V30 2333 H 213.833 -2.11861 -4.56206 0
M  V30 2334 H 213.533 -3.86907 -4.42241 0
M  V30 2335 H 215.057 -3.28348 -5.14801 0
M  V30 2336 H 216.471 -4.65918 -3.34056 0
M  V30 2337 H 214.868 -5.28059 -2.85085 0
M  V30 2338 H 215.938 -4.56649 -1.63095 0
M  V30 2339 N 217.281 0.66697 -1.42791 0
M  V30 2340 C 218.529 1.42417 -1.43394 0
M  V30 2341 C 218.85 1.94925 -0.0542373 0
M  V30 2342 O 218.12 1.73564 0.908415 0
M  V30 2343 H 216.7 0.528515 -0.527902 0
M  V30 2344 H 219.362 0.787562 -1.78279 0
M  V30 2345 H 218.458 2.27333 -2.13837 0
M  V30 2346 N 218.759 1.29093 0.90403 0
M  V30 2347 C 219.984 1.19809 1.69294 0
M  V30 2348 C 220.409 -0.238481 1.86582 0
M  V30 2349 O 219.767 -1.1723 1.383 0
M  V30 2350 C 219.815 1.91202 3.05736 0
M  V30 2351 O 218.919 1.22611 3.93752 0
M  V30 2352 H 218.26 0.415385 0.518027 0
M  V30 2353 H 220.79 1.70586 1.12967 0
M  V30 2354 H 220.8 1.99487 3.55906 0
M  V30 2355 H 219.475 2.95692 2.92471 0
M  V30 2356 H 218.052 1.22554 3.52186 0
M  V30 2357 N 220.237 -1.11381 1.11499 0
M  V30 2358 C 221.169 -2.17207 0.731704 0
M  V30 2359 C 222.182 -1.61066 -0.236957 0
M  V30 2360 O 223.371 -1.78489 -0.0197591 0
M  V30 2361 C 220.471 -3.38846 0.0607624 0
M  V30 2362 C 219.644 -4.24451 1.0564 0
M  V30 2363 C 218.703 -5.24562 0.4149 0
M  V30 2364 O 217.729 -5.59071 1.069 0
M  V30 2365 N 218.931 -5.74651 -0.821943 0
M  V30 2366 H 221.696 -2.50699 1.64225 0
M  V30 2367 H 219.257 -1.26908 1.00529 0
M  V30 2368 H 221.249 -4.02911 -0.380139 0
M  V30 2369 H 219.819 -3.03411 -0.752376 0
M  V30 2370 H 219.039 -3.56833 1.67524 0
M  V30 2371 H 220.327 -4.78486 1.72998 0
M  V30 2372 H 219.725 -5.48797 -1.37252 0
M  V30 2373 H 218.282 -6.40549 -1.20582 0
M  V30 2374 N 221.715 -0.905404 -1.28997 0
M  V30 2375 C 222.663 -0.377431 -2.29517 0
M  V30 2376 C 223.657 0.526461 -1.61012 0
M  V30 2377 O 224.863 0.40863 -1.753 0
M  V30 2378 H 221.238 -0.103437 -0.744852 0
M  V30 2379 H 223.209 -1.23848 -2.71485 0
M  V30 2380 C 221.958 0.374833 -3.45674 0
M  V30 2381 H 221.281 -0.311474 -3.98585 0
M  V30 2382 H 222.721 0.70903 -4.1803 0
M  V30 2383 C 221.18 1.57963 -2.97572 0
M  V30 2384 O 221.71 2.67886 -2.99333 0
M  V30 2385 N 219.916 1.42375 -2.53333 0
M  V30 2386 H 219.463 0.529466 -2.521 0
M  V30 2387 H 219.421 2.23117 -2.21509 0
M  V30 2388 N 223.193 1.4272 -0.668489 0
M  V30 2389 C 224.442 2.00846 -0.185389 0
M  V30 2390 C 224.755 1.53442 1.21305 0
M  V30 2391 O 225.961 2.03944 1.79218 0
M  V30 2392 C 224.417 3.58805 -0.280591 0
M  V30 2393 C 224.025 4.15198 -1.68268 0
M  V30 2394 C 225.769 4.24255 0.14412 0
M  V30 2395 C 223.676 5.655 -1.73099 0
M  V30 2396 H 222.606 0.751145 -0.0655475 0
M  V30 2397 H 225.257 1.63516 -0.832752 0
M  V30 2398 H 223.639 3.93608 0.434553 0
M  V30 2399 H 224.813 3.91866 -2.42441 0
M  V30 2400 H 223.128 3.62176 -2.05469 0
M  V30 2401 H 225.725 5.34547 0.128086 0
M  V30 2402 H 226.068 3.99277 1.17827 0
M  V30 2403 H 226.601 3.94389 -0.519798 0
M  V30 2404 H 223.34 5.95268 -2.74475 0
M  V30 2405 H 222.86 5.90842 -1.03274 0
M  V30 2406 H 224.539 6.29808 -1.48158 0
M  V30 2407 N 224.671 0.411399 1.52136 0
M  V30 2408 C 225.92 -0.165009 2.01024 0
M  V30 2409 C 226.233 -1.4603 1.30133 0
M  V30 2410 O 227.439 -2.1181 1.69849 0
M  V30 2411 C 225.895 -0.344618 3.58246 0
M  V30 2412 C 225.503 0.938716 4.38055 0
M  V30 2413 C 227.247 -0.876195 4.15359 0
M  V30 2414 C 225.154 0.726172 5.86925 0
M  V30 2415 H 224.084 -0.0654407 0.751155 0
M  V30 2416 H 226.735 0.537192 1.75461 0
M  V30 2417 H 225.117 -1.10921 3.80148 0
M  V30 2418 H 226.291 1.70963 4.27912 0
M  V30 2419 H 224.606 1.39688 3.92271 0
M  V30 2420 H 227.203 -1.05128 5.24263 0
M  V30 2421 H 227.546 -1.85152 3.7286 0
M  V30 2422 H 228.079 -0.170607 3.97434 0
M  V30 2423 H 224.818 1.67312 6.33788 0
M  V30 2424 H 224.338 -0.00540283 5.998 0
M  V30 2425 H 226.017 0.369231 6.45946 0
M  V30 2426 N 226.149 -1.5696 0.141893 0
M  V30 2427 C 227.426 -1.87553 -0.555281 0
M  V30 2428 C 227.806 -1.04699 -1.83306 0
M  V30 2429 O 227.154 -0.132346 -2.28116 0
M  V30 2430 C 227.364 -3.39093 -0.825664 0
M  V30 2431 C 228.712 -4.08199 -1.16869 0
M  V30 2432 O 229.736 -3.44242 -0.915185 0
M  V30 2433 O 228.595 -5.21139 -1.6455 0
M  V30 2434 H 225.689 -0.777188 -0.282679 0
M  V30 2435 H 228.235 -1.68763 0.17812 0
M  V30 2436 H 227.007 -3.91221 0.0788633 0
M  V30 2437 H 226.63 -3.63393 -1.61343 0
M  V30 2438 N 227.627 0.131896 -1.57047 0
M  V30 2439 C 228.557 1.16384 -2.02428 0
M  V30 2440 C 229.538 1.43936 -0.90644 0
M  V30 2441 O 230.723 1.54599 -1.17528 0
M  V30 2442 C 227.853 2.49328 -2.4177 0
M  V30 2443 C 226.807 2.36266 -3.56879 0
M  V30 2444 C 226.133 3.74057 -3.8208 0
M  V30 2445 C 227.433 1.834 -4.89042 0
M  V30 2446 H 229.127 0.786433 -2.88887 0
M  V30 2447 H 226.673 0.376855 -1.38981 0
M  V30 2448 H 228.626 3.21759 -2.7212 0
M  V30 2449 H 227.35 2.88934 -1.52266 0
M  V30 2450 H 226.009 1.66286 -3.26718 0
M  V30 2451 H 225.657 4.11125 -2.89803 0
M  V30 2452 H 225.357 3.66174 -4.59554 0
M  V30 2453 H 226.881 4.48012 -4.1487 0
M  V30 2454 H 228.295 2.45636 -5.18011 0
M  V30 2455 H 226.692 1.8637 -5.70426 0
M  V30 2456 H 227.762 0.790662 -4.7841 0
M  V30 2457 N 229.106 1.52395 0.401703 0
M  V30 2458 C 230.334 1.70676 1.16949 0
M  V30 2459 C 230.749 0.419503 1.8408 0
M  V30 2460 O 230.106 -0.605061 1.72178 0
M  V30 2461 C 230.157 2.84753 2.22706 0
M  V30 2462 O 229.878 4.08495 1.58314 0
M  V30 2463 C 231.379 3.14608 3.12309 0
M  V30 2464 H 228.599 0.571787 0.351142 0
M  V30 2465 H 231.143 1.98987 0.471652 0
M  V30 2466 H 229.298 2.58941 2.88147 0
M  V30 2467 H 229.712 4.72117 2.28485 0
M  V30 2468 H 231.186 3.97923 3.82572 0
M  V30 2469 H 231.663 2.28464 3.75101 0
M  V30 2470 H 232.269 3.42212 2.52529 0
M  V30 2471 N 230.584 -0.659388 1.43143 0
M  V30 2472 C 231.532 -1.79374 1.4808 0
M  V30 2473 C 232.526 -1.65639 0.354988 0
M  V30 2474 O 233.732 -1.7206 0.528704 0
M  V30 2475 H 230.107 -0.591705 0.4641 0
M  V30 2476 H 232.078 -1.72329 2.43609 0
M  V30 2477 C 230.827 -3.17606 1.41499 0
M  V30 2478 H 230.15 -3.28809 2.27431 0
M  V30 2479 H 231.59 -3.96951 1.49015 0
M  V30 2480 C 230.049 -3.36642 0.131765 0
M  V30 2481 O 230.579 -3.93461 -0.809386 0
M  V30 2482 N 228.785 -2.90567 0.0439396 0
M  V30 2483 H 228.332 -2.44513 0.810619 0
M  V30 2484 H 228.29 -3.03681 -0.813969 0
M  V30 2485 N 232.062 -1.29571 -0.897171 0
M  V30 2486 C 233.009 -1.14916 -2.00158 0
M  V30 2487 C 233.979 -0.0418149 -1.66047 0
M  V30 2488 O 235.164 -0.209793 -1.89643 0
M  V30 2489 C 232.304 -0.834307 -3.34863 0
M  V30 2490 C 231.417 -2.02234 -3.8174 0
M  V30 2491 C 230.552 -1.64664 -5.05034 0
M  V30 2492 C 229.591 -2.80033 -5.44286 0
M  V30 2493 N 228.728 -2.42843 -6.58765 0
M  V30 2494 H 233.568 -2.09403 -2.12025 0
M  V30 2495 H 231.105 -1.042 -1.0383 0
M  V30 2496 H 233.063 -0.632436 -4.12379 0
M  V30 2497 H 231.693 0.0736656 -3.22716 0
M  V30 2498 H 230.745 -2.33583 -3.00238 0
M  V30 2499 H 232.057 -2.88673 -4.06779 0
M  V30 2500 H 231.211 -1.4078 -5.9014 0
M  V30 2501 H 229.95 -0.753766 -4.8184 0
M  V30 2502 H 228.955 -3.04596 -4.57713 0
M  V30 2503 H 230.18 -3.69989 -5.6946 0
M  V30 2504 H 228.126 -1.56046 -6.3717 0
M  V30 2505 H 228.043 -3.22815 -6.83613 0
M  V30 2506 H 229.311 -2.22285 -7.47134 0
M  V30 2507 N 233.54 1.10788 -1.12088 0
M  V30 2508 C 234.817 1.79136 -0.785476 0
M  V30 2509 C 235.197 1.98246 0.725377 0
M  V30 2510 O 234.545 1.57258 1.65778 0
M  V30 2511 C 234.755 3.12375 -1.55636 0
M  V30 2512 C 236.103 3.8731 -1.74001 0
M  V30 2513 O 237.127 3.22085 -1.52117 0
M  V30 2514 O 235.986 5.04369 -2.10415 0
M  V30 2515 H 233.08 0.776226 -0.285311 0
M  V30 2516 H 235.626 1.1747 -1.2247 0
M  V30 2517 H 234.398 2.93863 -2.5838 0
M  V30 2518 H 234.021 3.81758 -1.11114 0
M  V30 2519 N 235.018 0.912232 1.28515 0
M  V30 2520 C 236.429 0.591352 1.77087 0
M  V30 2521 C 236.78 -0.8933 1.74684 0
M  V30 2522 O 235.905 -1.69876 1.34056 0
M  V30 2523 C 236.5 1.06668 3.2157 0
M  V30 2524 C 235.059 0.79675 3.67871 0
M  V30 2525 C 234.206 1.23427 2.48316 0
M  V30 2526 H 237.157 1.09365 1.15 0
M  V30 2527 H 237.178 0.407455 3.78312 0
M  V30 2528 H 236.69 2.14726 3.23287 0
M  V30 2529 H 234.791 -0.270679 3.71616 0
M  V30 2530 H 234.904 1.40343 4.58084 0
M  V30 2531 H 233.268 0.653036 2.46186 0
M  V30 2532 H 234.051 2.32316 2.52753 0
M  V30 2533 N 236.496 -1.42363 0.676048 0
M  V30 2534 C 237.736 -2.03392 0.20273 0
M  V30 2535 C 238.1 -1.52306 -1.16906 0
M  V30 2536 O 239.301 -2.05129 -1.73711 0
M  V30 2537 C 237.572 -3.56614 0.236947 0
M  V30 2538 S 239.131 -4.38489 -0.165186 0
M  V30 2539 H 235.949 -0.70611 0.0832418 0
M  V30 2540 H 238.551 -1.74093 0.88948 0
M  V30 2541 H 237.255 -3.91293 1.23767 0
M  V30 2542 H 236.786 -3.90587 -0.469596 0
M  V30 2543 H 238.801 -4.76093 -1.39822 0
M  V30 2544 N 237.974 -0.419461 -1.51915 0
M  V30 2545 C 239.204 0.151915 -2.06041 0
M  V30 2546 C 239.612 1.38539 -1.28855 0
M  V30 2547 O 238.955 1.80592 -0.336463 0
M  V30 2548 C 239.017 0.557119 -3.55157 0
M  V30 2549 C 238.681 -0.567054 -4.53468 0
M  V30 2550 C 239.678 -1.43379 -4.99738 0
M  V30 2551 C 237.363 -0.742693 -4.96779 0
M  V30 2552 C 239.357 -2.46102 -5.87973 0
M  V30 2553 C 237.044 -1.77322 -5.84808 0
M  V30 2554 C 238.042 -2.63078 -6.30301 0
M  V30 2555 O 237.73 -3.64364 -7.16585 0
M  V30 2556 H 237.462 0.0193293 -0.675724 0
M  V30 2557 H 240.016 -0.592073 -1.96682 0
M  V30 2558 H 238.246 1.35355 -3.62238 0
M  V30 2559 H 239.935 1.05759 -3.9188 0
M  V30 2560 H 240.701 -1.30954 -4.66986 0
M  V30 2561 H 236.58 -0.0848307 -4.60922 0
M  V30 2562 H 240.124 -3.13071 -6.23404 0
M  V30 2563 H 236.021 -1.89773 -6.16974 0
M  V30 2564 H 236.789 -3.60731 -7.34721 0
M  V30 2565 N 239.452 1.56882 -0.150215 0
M  V30 2566 C 240.677 2.01027 0.510184 0
M  V30 2567 C 241.102 1.02966 1.57415 0
M  V30 2568 O 240.46 0.00590158 1.81299 0
M  V30 2569 C 240.508 3.43899 1.08472 0
M  V30 2570 O 239.612 3.4885 2.19948 0
M  V30 2571 H 238.953 0.652233 0.124451 0
M  V30 2572 H 241.483 2.03093 -0.247894 0
M  V30 2573 H 241.493 3.82766 1.41259 0
M  V30 2574 H 240.168 4.14776 0.305582 0
M  V30 2575 H 238.745 3.21827 1.88366 0
M  V30 2576 N 240.93 -0.123565 1.57115 0
M  V30 2577 C 241.877 -1.15177 2.00007 0
M  V30 2578 C 242.847 -1.41403 0.871454 0
M  V30 2579 O 244.032 -1.53346 1.13533 0
M  V30 2580 C 241.172 -2.47436 2.40561 0
M  V30 2581 C 240.285 -2.28184 3.66819 0
M  V30 2582 C 239.42 -3.53641 3.96373 0
M  V30 2583 C 238.459 -3.29528 5.15827 0
M  V30 2584 N 237.596 -4.47175 5.41275 0
M  V30 2585 H 242.436 -0.779008 2.87638 0
M  V30 2586 H 239.973 -0.373166 1.42288 0
M  V30 2587 H 241.931 -3.24584 2.62109 0
M  V30 2588 H 240.561 -2.82614 1.55978 0
M  V30 2589 H 239.613 -1.41976 3.52912 0
M  V30 2590 H 240.925 -2.0634 4.5412 0
M  V30 2591 H 240.079 -4.39209 4.18545 0
M  V30 2592 H 238.818 -3.78512 3.07538 0
M  V30 2593 H 237.823 -2.42349 4.93505 0
M  V30 2594 H 239.048 -3.06031 6.06236 0
M  V30 2595 H 236.994 -4.72175 4.55397 0
M  V30 2596 H 236.911 -4.28419 6.22891 0
M  V30 2597 H 238.179 -5.3389 5.67963 0
M  V30 2598 N 242.408 -1.52605 -0.393616 0
M  V30 2599 C 243.358 -1.73436 -1.48 0
M  V30 2600 C 244.342 -0.588386 -1.49756 0
M  V30 2601 O 245.534 -0.846047 -1.5547 0
M  V30 2602 C 242.663 -1.90247 -2.85764 0
M  V30 2603 C 241.749 -3.10763 -2.88595 0
M  V30 2604 N 242.14 -4.33196 -2.61103 0
M  V30 2605 C 240.438 -3.10914 -3.19763 0
M  V30 2606 C 241.139 -5.1477 -2.70899 0
M  V30 2607 N 240.115 -4.50356 -3.04435 0
M  V30 2608 H 243.917 -2.65727 -1.25563 0
M  V30 2609 H 241.431 -1.5085 -0.601513 0
M  V30 2610 H 243.428 -2.03291 -3.63976 0
M  V30 2611 H 242.088 -0.991663 -3.09186 0
M  V30 2612 H 243.099 -4.61408 -2.35209 0
M  V30 2613 H 239.776 -2.29626 -3.4868 0
M  V30 2614 H 241.166 -6.22355 -2.53227 0
M  V30 2615 N 243.887 0.651787 -1.4349 0
M  V30 2616 C 245.117 1.43728 -1.48411 0
M  V30 2617 C 245.525 1.8893 -0.10103 0
M  V30 2618 O 244.868 1.60182 0.899307 0
M  V30 2619 C 244.93 2.70411 -2.36893 0
M  V30 2620 C 244.594 2.4714 -3.8441 0
M  V30 2621 C 245.591 2.10271 -4.75481 0
M  V30 2622 C 243.276 2.6142 -4.28912 0
M  V30 2623 C 245.27 1.87982 -6.0905 0
M  V30 2624 C 242.957 2.38746 -5.62533 0
M  V30 2625 C 243.955 2.02083 -6.5242 0
M  V30 2626 O 243.643 1.79647 -7.8357 0
M  V30 2627 H 243.375 0.447962 -0.506267 0
M  V30 2628 H 245.929 0.80624 -1.88915 0
M  V30 2629 H 244.159 3.36079 -1.91278 0
M  V30 2630 H 245.848 3.32364 -2.33 0
M  V30 2631 H 246.614 1.98814 -4.42378 0
M  V30 2632 H 242.493 2.88931 -3.59222 0
M  V30 2633 H 246.037 1.5929 -6.7917 0
M  V30 2634 H 241.934 2.49806 -5.95203 0
M  V30 2635 H 242.702 1.9406 -7.95162 0
M  V30 2636 N 245.365 1.30045 0.890287 0
M  V30 2637 C 246.781 1.08261 1.17268 0
M  V30 2638 C 246.981 -0.160063 2.00863 0
M  V30 2639 O 246.037 -0.855181 2.37577 0
M  V30 2640 C 247.35 2.34323 1.8845 0
M  V30 2641 C 248.898 2.39735 2.01237 0
M  V30 2642 C 249.373 3.65625 2.7583 0
M  V30 2643 N 250.864 3.66402 2.83379 0
M  V30 2644 C 251.599 4.60498 3.41657 0
M  V30 2645 N 251.095 5.64933 4.01026 0
M  V30 2646 N 252.888 4.48051 3.39421 0
M  V30 2647 H 245.039 2.09777 0.332762 0
M  V30 2648 H 247.302 0.92446 0.209948 0
M  V30 2649 H 247.008 3.2498 1.34465 0
M  V30 2650 H 246.882 2.4256 2.88867 0
M  V30 2651 H 249.269 1.4956 2.54393 0
M  V30 2652 H 249.35 2.35476 0.999232 0
M  V30 2653 H 248.994 4.56156 2.23347 0
M  V30 2654 H 248.924 3.67144 3.77509 0
M  V30 2655 H 251.415 2.90896 2.41222 0
M  V30 2656 H 251.728 6.32841 4.43545 0
M  V30 2657 H 250.073 5.68732 3.99461 0
M  V30 2658 H 253.264 3.65649 2.92264 0
M  V30 2659 H 253.437 5.21565 3.84544 0
M  V30 2660 N 246.843 -1.10192 1.12674 0
M  V30 2661 C 248.068 -1.86523 0.906853 0
M  V30 2662 C 248.493 -1.80221 -0.538711 0
M  V30 2663 O 247.851 -1.17396 -1.38158 0
M  V30 2664 C 247.899 -3.32758 1.3894 0
M  V30 2665 O 247.003 -4.08449 0.5695 0
M  V30 2666 H 246.344 -0.578678 0.325619 0
M  V30 2667 H 248.874 -1.39203 1.49946 0
M  V30 2668 H 248.884 -3.83608 1.38958 0
M  V30 2669 H 247.559 -3.36661 2.44197 0
M  V30 2670 H 246.136 -3.67427 0.636528 0
M  V30 2671 N 248.321 -0.919034 -1.28029 0
M  V30 2672 C 249.732 -0.600735 -1.76771 0
M  V30 2673 C 250.083 0.884024 -1.75156 0
M  V30 2674 O 249.208 1.69163 -1.34956 0
M  V30 2675 C 249.803 -1.08372 -3.21 0
M  V30 2676 C 248.362 -0.816248 -3.67443 0
M  V30 2677 C 247.509 -1.24742 -2.47658 0
M  V30 2678 H 250.46 -1.09974 -1.14418 0
M  V30 2679 H 250.481 -0.427512 -3.78091 0
M  V30 2680 H 249.993 -2.16437 -3.22144 0
M  V30 2681 H 248.094 0.250968 -3.71754 0
M  V30 2682 H 248.207 -1.4277 -4.57333 0
M  V30 2683 H 246.571 -0.666083 -2.45836 0
M  V30 2684 H 247.354 -2.33653 -2.51518 0
M  V30 2685 N 249.799 1.42003 -0.683588 0
M  V30 2686 C 251.21 1.84501 -0.285736 0
M  V30 2687 C 251.561 1.57213 1.17382 0
M  V30 2688 O 250.686 1.03642 1.89966 0
M  V30 2689 C 251.281 3.34912 -0.511821 0
M  V30 2690 C 249.84 3.76025 -0.168005 0
M  V30 2691 C 248.987 2.6551 -0.799983 0
M  V30 2692 H 251.938 1.31724 -0.885119 0
M  V30 2693 H 251.959 3.79784 0.233292 0
M  V30 2694 H 251.471 3.54741 -1.57418 0
M  V30 2695 H 249.572 3.61801 0.890567 0
M  V30 2696 H 249.685 4.75141 -0.614661 0
M  V30 2697 H 248.049 2.53654 -0.230568 0
M  V30 2698 H 248.832 2.8816 -1.86597 0
M  V30 2699 N 251.277 0.427512 1.51691 0
M  V30 2700 C 252.693 0.0792977 1.59403 0
M  V30 2701 C 252.893 -1.41035 1.43914 0
M  V30 2702 O 251.949 -2.17922 1.27539 0
M  V30 2703 C 253.262 0.590636 2.94842 0
M  V30 2704 C 254.81 0.550215 3.08126 0
M  V30 2705 C 255.285 1.03836 4.46074 0
M  V30 2706 N 256.776 0.995943 4.52366 0
M  V30 2707 C 257.511 1.34463 5.57411 0
M  V30 2708 N 257.007 1.76569 6.69922 0
M  V30 2709 N 258.8 1.26343 5.47717 0
M  V30 2710 H 250.951 1.39687 1.60004 0
M  V30 2711 H 253.214 0.575003 0.753708 0
M  V30 2712 H 252.92 1.63251 3.11516 0
M  V30 2713 H 252.794 0.0102061 3.77199 0
M  V30 2714 H 255.181 -0.482654 2.91126 0
M  V30 2715 H 255.262 1.16693 2.27632 0
M  V30 2716 H 254.906 2.06965 4.63819 0
M  V30 2717 H 254.836 0.398286 5.25092 0
M  V30 2718 H 257.327 0.68661 3.7161 0
M  V30 2719 H 257.64 2.01438 7.46085 0
M  V30 2720 H 255.985 1.80488 6.71155 0
M  V30 2721 H 259.176 0.933209 4.58703 0
M  V30 2722 H 259.349 1.53846 6.29472 0
M  V30 2723 N 252.755 -1.56801 0.158532 0
M  V30 2724 C 254.166 -1.83189 -0.360366 0
M  V30 2725 C 254.517 -1.07778 -1.63946 0
M  V30 2726 O 253.642 -0.326718 -2.13919 0
M  V30 2727 C 254.237 -3.32297 -0.660595 0
M  V30 2728 C 252.796 -3.59227 -1.12398 0
M  V30 2729 C 251.943 -2.76877 -0.153097 0
M  V30 2730 H 254.894 -1.54008 0.383031 0
M  V30 2731 H 254.915 -3.4908 -1.51405 0
M  V30 2732 H 254.427 -3.87156 0.270527 0
M  V30 2733 H 252.528 -3.09766 -2.07064 0
M  V30 2734 H 252.641 -4.67632 -1.04197 0
M  V30 2735 H 251.005 -2.46319 -0.647983 0
M  V30 2736 H 251.788 -3.34511 0.77182 0
M  V30 2737 N 254.233 0.115231 -1.57178 0
M  V30 2738 C 255.644 0.67197 -1.74188 0
M  V30 2739 C 255.995 1.80125 -0.777777 0
M  V30 2740 O 255.12 2.16346 0.0484376 0
M  V30 2741 C 255.715 1.22573 -3.1585 0
M  V30 2742 C 254.274 1.72872 -3.34353 0
M  V30 2743 C 253.421 0.629972 -2.70049 0
M  V30 2744 H 256.372 -0.110712 -1.58313 0
M  V30 2745 H 256.393 2.09535 -3.17609 0
M  V30 2746 H 255.905 0.403598 -3.85996 0
M  V30 2747 H 254.006 2.5755 -2.69256 0
M  V30 2748 H 254.119 1.83557 -4.42542 0
M  V30 2749 H 252.483 1.0645 -2.31388 0
M  V30 2750 H 253.266 -0.181241 -3.42821 0
M  V30 2751 N 255.711 1.52812 0.385517 0
M  V30 2752 C 256.644 1.72592 1.49289 0
M  V30 2753 C 257.622 0.573819 1.52138 0
M  V30 2754 O 258.806 0.80404 1.70492 0
M  V30 2755 C 255.933 1.78669 2.87741 0
M  V30 2756 C 254.979 3.00455 3.02703 0
M  V30 2757 S 255.812 4.60366 2.73538 0
M  V30 2758 C 256.968 4.69263 4.14177 0
M  V30 2759 H 257.201 2.66248 1.32285 0
M  V30 2760 H 254.734 1.43148 0.578611 0
M  V30 2761 H 256.692 1.82855 3.67524 0
M  V30 2762 H 255.353 0.861 3.02069 0
M  V30 2763 H 254.546 3.01258 4.04054 0
M  V30 2764 H 254.148 2.94278 2.30817 0
M  V30 2765 H 256.44 4.48092 5.08153 0
M  V30 2766 H 257.383 5.71276 4.18388 0
M  V30 2767 H 257.791 3.98072 4.00249 0
M  V30 2768 N 257.189 -0.644168 1.43834 0
M  V30 2769 C 258.605 -0.960875 1.27434 0
M  V30 2770 C 258.805 -2.00499 0.200618 0
M  V30 2771 O 257.861 -2.49018 -0.417906 0
M  V30 2772 C 259.174 -1.43653 2.64167 0
M  V30 2773 C 260.722 -1.55271 2.71772 0
M  V30 2774 C 261.197 -2.06224 4.08944 0
M  V30 2775 N 262.688 -2.13513 4.11055 0
M  V30 2776 C 263.423 -2.54081 5.14033 0
M  V30 2777 N 262.919 -2.9388 6.27381 0
M  V30 2778 N 264.712 -2.54101 5.01387 0
M  V30 2779 H 256.863 0.0465779 2.12349 0
M  V30 2780 H 259.126 -0.0417638 0.94708 0
M  V30 2781 H 258.832 -0.743706 3.43747 0
M  V30 2782 H 258.706 -2.40993 2.90176 0
M  V30 2783 H 261.093 -2.23653 1.92519 0
M  V30 2784 H 261.174 -0.563395 2.49519 0
M  V30 2785 H 260.818 -1.38441 4.88668 0
M  V30 2786 H 260.748 -3.06003 4.28567 0
M  V30 2787 H 263.239 -1.85493 3.29242 0
M  V30 2788 H 263.552 -3.2361 7.01781 0
M  V30 2789 H 261.897 -2.91663 6.30839 0
M  V30 2790 H 265.088 -2.22391 4.11898 0
M  V30 2791 H 265.261 -2.85394 5.81768 0
M  V30 2792 N 258.668 -1.30515 -0.883378 0
M  V30 2793 C 259.914 -1.20617 -1.63778 0
M  V30 2794 C 260.269 0.236469 -1.90941 0
M  V30 2795 O 259.562 1.16596 -1.52039 0
M  V30 2796 C 259.756 -1.96994 -2.98209 0
M  V30 2797 C 259.585 -3.48537 -2.84169 0
M  V30 2798 C 258.355 -4.17893 -2.84067 0
M  V30 2799 C 260.553 -4.43738 -2.60001 0
M  V30 2800 N 258.535 -5.55685 -2.60936 0
M  V30 2801 C 259.906 -5.69105 -2.46007 0
M  V30 2802 C 261.961 -4.33316 -2.45239 0
M  V30 2803 C 260.664 -6.8523 -2.18752 0
M  V30 2804 C 262.69 -5.4921 -2.19369 0
M  V30 2805 C 262.052 -6.73558 -2.06153 0
M  V30 2806 H 258.151 -0.496434 -0.604216 0
M  V30 2807 H 260.735 -1.64544 -1.04083 0
M  V30 2808 H 258.906 -1.55455 -3.55933 0
M  V30 2809 H 260.638 -1.79225 -3.62851 0
M  V30 2810 H 257.393 -3.69739 -2.95956 0
M  V30 2811 H 257.817 -6.28199 -2.52378 0
M  V30 2812 H 262.459 -3.37856 -2.54191 0
M  V30 2813 H 260.177 -7.80729 -2.08537 0
M  V30 2814 H 263.763 -5.43054 -2.08766 0
M  V30 2815 H 262.643 -7.61721 -1.86416 0
M  V30 2816 O 260.185 1.01953 -1.25251 0
M  V30 2817 H 260.876 1.63744 -1.03478 0
M  V30 END ATOM
M  V30 BEGIN BOND
M  V30 END BOND
M  V30 END CTAB
M  END
$$$$
