drugbank_target|O94760 N(G),N(G)-dimethylarginine dimethylaminohydrolase 1 (DB00155; DB00213; DB00736; DB05351)
 OpenBabel12092119393D

  0  0  0     0  0            999 V3000
M  V30 BEGIN CTAB
M  V30 COUNTS 4383 4417 0 0 0
M  V30 BEGIN ATOM
M  V30 1 H -0.908 1.98254 -0.117106 0
M  V30 2 N 0 1.576 0 0
M  V30 3 C 0.933 2.03868 1.02534 0
M  V30 4 C 1.911 0.928543 1.3348 0
M  V30 5 O 3.095 1.19667 1.45644 0
M  V30 6 C 0.222 2.43627 2.35294 0
M  V30 7 C -0.732 3.65373 2.2001 0
M  V30 8 S 0.101 5.13292 1.52614 0
M  V30 9 C 1.257 5.56322 2.86805 0
M  V30 10 H 1.49 2.90518 0.631377 0
M  V30 11 H -0.977 1.52953 0.210867 0
M  V30 12 H 0.981 2.67203 3.11629 0
M  V30 13 H -0.358 1.57376 2.7183 0
M  V30 14 H -1.165 3.90944 3.18086 0
M  V30 15 H -1.563 3.418 1.51819 0
M  V30 16 H 0.729 5.58782 3.83104 0
M  V30 17 H 1.672 6.56266 2.65933 0
M  V30 18 H 2.08 4.83886 2.90714 0
M  V30 19 N 1.4781 -0.272755 1.55222 0
M  V30 20 C 2.4411 -1.32041 1.87344 0
M  V30 21 C 3.4411 -1.42342 0.74803 0
M  V30 22 O 4.6311 -1.41488 1.0162 0
M  V30 23 C 1.7631 -2.70173 2.07893 0
M  V30 24 H 2.9561 -1.04789 2.80997 0
M  V30 25 H 0.5091 -0.51083 1.47717 0
M  V30 26 H 1.2441 -3.02605 1.16622 0
M  V30 27 H 1.0291 -2.64082 2.89833 0
M  V30 28 H 2.5191 -3.45869 2.34017 0
M  V30 29 N 2.9562 -1.48159 -0.537278 0
M  V30 30 C 4.2042 -1.55497 -1.29094 0
M  V30 31 C 4.5252 -0.227454 -1.93669 0
M  V30 32 O 3.7952 0.750386 -1.80959 0
M  V30 33 H 2.3752 -0.572832 -0.47945 0
M  V30 34 H 5.0372 -1.84579 -0.625818 0
M  V30 35 H 4.1332 -2.33216 -2.07405 0
M  V30 36 N 4.4343 0.785586 -1.36625 0
M  V30 37 C 5.3643 1.91259 -1.33949 0
M  V30 38 C 6.3453 1.68795 -0.210325 0
M  V30 39 O 7.5303 1.89854 -0.408561 0
M  V30 40 C 4.6603 3.28339 -1.13186 0
M  V30 41 C 3.6143 3.65335 -2.22967 0
M  V30 42 C 2.9403 5.00806 -1.87342 0
M  V30 43 C 4.2403 3.7352 -3.65075 0
M  V30 44 H 5.9343 1.93755 -2.28253 0
M  V30 45 H 3.4803 0.930788 -1.09874 0
M  V30 46 H 5.4333 4.06804 -1.09948 0
M  V30 47 H 4.1573 3.2624 -0.153332 0
M  V30 48 H 2.8163 2.89169 -2.25337 0
M  V30 49 H 2.4643 4.95233 -0.880545 0
M  V30 50 H 2.1643 5.26529 -2.60846 0
M  V30 51 H 3.6883 5.81687 -1.85667 0
M  V30 52 H 5.1023 4.42168 -3.64911 0
M  V30 53 H 3.4993 4.10731 -4.37516 0
M  V30 54 H 4.5693 2.74527 -3.99703 0
M  V30 55 N 5.9124 1.20967 1.01018 0
M  V30 56 C 7.1604 1.02172 1.74371 0
M  V30 57 C 7.4814 -0.446414 1.89821 0
M  V30 58 O 6.7514 -1.32234 1.44537 0
M  V30 59 H 5.3314 0.375066 0.646014 0
M  V30 60 H 7.9934 1.52187 1.21758 0
M  V30 61 H 7.0894 1.48538 2.74487 0
M  V30 62 N 7.3905 -1.2043 1.01659 0
M  V30 63 C 8.3405 -2.21076 0.557623 0
M  V30 64 C 9.3245 -1.56176 -0.387029 0
M  V30 65 O 10.5165 -1.7575 -0.209996 0
M  V30 66 C 7.6455 -3.43146 -0.102707 0
M  V30 67 C 6.7315 -4.15213 0.863652 0
M  V30 68 N 7.1225 -4.63662 2.02117 0
M  V30 69 C 5.4205 -4.40716 0.684472 0
M  V30 70 C 6.1215 -5.18868 2.62966 0
M  V30 71 N 5.0975 -5.0893 1.91027 0
M  V30 72 H 8.8995 -2.56201 1.44008 0
M  V30 73 H 6.4135 -1.36366 0.881931 0
M  V30 74 H 8.4105 -4.14475 -0.449054 0
M  V30 75 H 7.0705 -3.09526 -0.981003 0
M  V30 76 H 8.0815 -4.58877 2.40109 0
M  V30 77 H 4.7585 -4.17245 -0.14577 0
M  V30 78 H 6.1485 -5.6673 3.60924 0
M  V30 79 N 8.8686 -0.792821 -1.36206 0
M  V30 80 C 10.2796 -0.429513 -1.81692 0
M  V30 81 C 10.6306 1.04695 -1.65932 0
M  V30 82 O 9.7556 1.81256 -1.18218 0
M  V30 83 C 10.3506 -0.772831 -3.29868 0
M  V30 84 C 8.9096 -0.462307 -3.7355 0
M  V30 85 C 8.0566 -1.00569 -2.5842 0
M  V30 86 H 11.0076 -0.985672 -1.24379 0
M  V30 87 H 11.0286 -0.0651928 -3.80444 0
M  V30 88 H 10.5406 -1.84747 -3.41307 0
M  V30 89 H 8.6416 0.604158 -3.67669 0
M  V30 90 H 8.7546 -0.985299 -4.68859 0
M  V30 91 H 7.1186 -0.428734 -2.51066 0
M  V30 92 H 7.9016 -2.08616 -2.72643 0
M  V30 93 N 10.3467 1.47872 -0.545128 0
M  V30 94 C 11.3097 2.28337 0.198717 0
M  V30 95 C 12.3097 1.36255 0.853888 0
M  V30 96 O 13.4997 1.59003 0.711606 0
M  V30 97 C 10.6317 3.15585 1.28915 0
M  V30 98 H 11.8247 2.95567 -0.507941 0
M  V30 99 H 9.3777 1.53362 -0.301616 0
M  V30 100 H 10.1127 2.53019 2.02859 0
M  V30 101 H 9.8977 3.83337 0.824309 0
M  V30 102 H 11.3877 3.76243 1.81194 0
M  V30 103 N 11.8248 0.280983 1.55075 0
M  V30 104 C 12.7878 -0.590896 2.21452 0
M  V30 105 C 13.7878 -1.07682 1.19421 0
M  V30 106 O 14.9778 -0.97605 1.44288 0
M  V30 107 C 12.1098 -1.81587 2.88511 0
M  V30 108 H 13.3028 -0.0112554 2.99898 0
M  V30 109 H 10.8558 0.0316438 1.56268 0
M  V30 110 H 11.5908 -2.43587 2.14093 0
M  V30 111 H 11.3758 -1.4753 3.63287 0
M  V30 112 H 12.8658 -2.43575 3.39206 0
M  V30 113 N 13.3029 -1.57598 0.00835791 0
M  V30 114 C 14.5499 -1.90928 -0.674732 0
M  V30 115 C 14.8779 -0.88277 -1.73313 0
M  V30 116 O 14.1329 0.111294 -1.95383 0
M  V30 117 C 14.4319 -3.3101 -1.34787 0
M  V30 118 C 14.0979 -4.48922 -0.421861 0
M  V30 119 C 12.7599 -4.8091 -0.166927 0
M  V30 120 C 15.1119 -5.20755 0.215211 0
M  V30 121 C 12.4399 -5.821 0.733232 0
M  V30 122 C 14.7919 -6.22905 1.1033 0
M  V30 123 C 13.4559 -6.53346 1.36733 0
M  V30 124 H 12.7259 -0.698656 -0.246902 0
M  V30 125 H 15.3729 -1.91387 0.0656779 0
M  V30 126 H 13.6779 -3.26714 -2.16253 0
M  V30 127 H 15.3749 -3.54061 -1.8826 0
M  V30 128 H 11.9649 -4.23934 -0.630729 0
M  V30 129 H 16.1489 -4.9629 0.0312829 0
M  V30 130 H 11.4049 -6.04042 0.945712 0
M  V30 131 H 15.5789 -6.77694 1.60325 0
M  V30 132 H 13.2059 -7.31573 2.06652 0
M  V30 133 N 14.781 0.264519 -1.55364 0
M  V30 134 C 16.029 0.993021 -1.76021 0
M  V30 135 C 16.35 1.86511 -0.569099 0
M  V30 136 O 15.62 1.91438 0.415735 0
M  V30 137 H 14.2 0.369639 -0.649135 0
M  V30 138 H 16.862 0.286707 -1.9278 0
M  V30 139 H 15.958 1.62502 -2.66457 0
M  V30 140 N 16.2591 1.48442 0.529413 0
M  V30 141 C 17.6751 1.34575 0.858004 0
M  V30 142 C 17.8751 0.3572 1.98309 0
M  V30 143 O 16.9311 -0.221379 2.51528 0
M  V30 144 C 18.2441 2.74617 1.22499 0
M  V30 145 C 19.7921 2.83109 1.33484 0
M  V30 146 C 20.2671 4.23854 1.73526 0
M  V30 147 N 21.7581 4.2653 1.80628 0
M  V30 148 C 22.4931 5.32372 2.12997 0
M  V30 149 N 21.9891 6.48491 2.43786 0
M  V30 150 N 23.7821 5.19766 2.14008 0
M  V30 151 H 15.9331 2.1133 -0.212925 0
M  V30 152 H 18.1961 0.947439 -0.0326199 0
M  V30 153 H 17.9021 3.4852 0.471905 0
M  V30 154 H 17.7761 3.08177 2.17501 0
M  V30 155 H 20.1631 2.09462 2.0787 0
M  V30 156 H 20.2441 2.53168 0.366027 0
M  V30 157 H 19.8881 4.98018 0.997013 0
M  V30 158 H 19.8181 4.5124 2.71459 0
M  V30 159 H 22.3091 3.42772 1.59108 0
M  V30 160 H 22.6221 7.24993 2.67592 0
M  V30 161 H 20.9671 6.51765 2.41304 0
M  V30 162 H 24.1581 4.28066 1.89412 0
M  V30 163 H 24.3311 6.02354 2.38902 0
M  V30 164 N 17.7372 -0.778329 1.37039 0
M  V30 165 C 18.7002 -1.87301 1.32102 0
M  V30 166 C 19.7002 -1.59198 0.226405 0
M  V30 167 O 20.8902 -1.67403 0.481861 0
M  V30 168 C 18.0222 -3.24309 1.05055 0
M  V30 169 H 19.2152 -1.93093 2.29467 0
M  V30 170 H 16.7682 -0.977358 1.21973 0
M  V30 171 H 17.5032 -3.24196 0.0819373 0
M  V30 172 H 17.2882 -3.46098 1.84279 0
M  V30 173 H 18.7782 -4.04382 1.04234 0
M  V30 174 N 19.2153 -1.21501 -1.00376 0
M  V30 175 C 20.4433 -1.059 -1.77744 0
M  V30 176 C 20.8583 0.391125 -1.84704 0
M  V30 177 O 20.2153 1.27133 -1.30933 0
M  V30 178 C 20.2663 -1.65111 -3.21591 0
M  V30 179 O 19.9873 -3.0445 -3.15027 0
M  V30 180 C 21.4883 -1.54637 -4.15454 0
M  V30 181 H 18.7083 -0.371825 -0.558558 0
M  V30 182 H 21.2523 -1.60865 -1.26264 0
M  V30 183 H 19.4073 -1.14235 -3.70175 0
M  V30 184 H 19.8213 -3.3278 -4.0541 0
M  V30 185 H 21.2953 -2.00808 -5.14179 0
M  V30 186 H 21.7723 -0.501022 -4.36333 0
M  V30 187 H 22.3783 -2.04767 -3.72761 0
M  V30 188 N 20.6934 1.19889 -1.02296 0
M  V30 189 C 21.6434 2.20777 -0.56934 0
M  V30 190 C 22.6274 1.56379 0.378741 0
M  V30 191 O 23.8194 1.75859 0.200673 0
M  V30 192 C 20.9484 3.43196 0.0845077 0
M  V30 193 C 20.0344 4.14749 -0.88566 0
M  V30 194 N 20.4254 4.62584 -2.04573 0
M  V30 195 C 18.7234 4.40347 -0.707835 0
M  V30 196 C 19.4244 5.17466 -2.65714 0
M  V30 197 N 18.4004 5.0791 -1.93723 0
M  V30 198 H 22.2024 2.55434 -1.45365 0
M  V30 199 H 19.7164 1.35897 -0.88915 0
M  V30 200 H 21.7134 4.14707 0.427067 0
M  V30 201 H 20.3734 3.10042 0.964574 0
M  V30 202 H 21.3844 4.57597 -2.4254 0
M  V30 203 H 18.0614 4.17317 0.12364 0
M  V30 204 H 19.4514 5.64808 -3.63925 0
M  V30 205 N 22.1715 0.800033 1.35784 0
M  V30 206 C 23.1345 0.211565 2.28221 0
M  V30 207 C 24.1345 -0.59728 1.49296 0
M  V30 208 O 25.3245 -0.416721 1.69142 0
M  V30 209 C 22.4565 -0.705846 3.33513 0
M  V30 210 H 23.6495 1.02677 2.81776 0
M  V30 211 H 21.2025 0.570211 1.45528 0
M  V30 212 H 21.9375 -1.54498 2.85133 0
M  V30 213 H 21.7225 -0.127655 3.91892 0
M  V30 214 H 23.2125 -1.11211 4.02519 0
M  V30 215 N 23.6496 -1.47581 0.552962 0
M  V30 216 C 24.8956 -2.02782 0.0273648 0
M  V30 217 C 25.2286 -1.42687 -1.31734 0
M  V30 218 O 24.5036 -0.580897 -1.85623 0
M  V30 219 C 24.7866 -3.60031 -0.0702371 0
M  V30 220 C 24.6396 -4.30566 1.30126 0
M  V30 221 C 25.9586 -4.33028 -0.785771 0
M  V30 222 H 23.0776 -0.736912 0.0114185 0
M  V30 223 H 25.7196 -1.76056 0.714432 0
M  V30 224 H 23.8696 -3.82932 -0.655382 0
M  V30 225 H 25.5416 -4.19018 1.92929 0
M  V30 226 H 23.7846 -3.91086 1.87709 0
M  V30 227 H 24.4556 -5.39114 1.18573 0
M  V30 228 H 26.9316 -4.15095 -0.288982 0
M  V30 229 H 25.8076 -5.42695 -0.823013 0
M  V30 230 H 26.0686 -4.01945 -1.841 0
M  V30 231 N 25.1277 -0.289203 -1.54924 0
M  V30 232 C 26.3737 0.323998 -2.00195 0
M  V30 233 C 26.7067 1.54441 -1.17735 0
M  V30 234 O 25.9817 1.92875 -0.250878 0
M  V30 235 C 26.2647 0.692276 -3.53383 0
M  V30 236 C 26.1177 -0.536457 -4.46589 0
M  V30 237 C 27.4367 1.52335 -4.12895 0
M  V30 238 H 24.5557 0.116289 -0.727768 0
M  V30 239 H 27.1977 -0.398954 -1.85764 0
M  V30 240 H 25.3477 1.30822 -3.65811 0
M  V30 241 H 27.0197 -1.17499 -4.46085 0
M  V30 242 H 25.2627 -1.17192 -4.1767 0
M  V30 243 H 25.9337 -0.234806 -5.515 0
M  V30 244 H 28.4097 1.00302 -4.0383 0
M  V30 245 H 27.2857 1.74982 -5.20262 0
M  V30 246 H 27.5467 2.50886 -3.64018 0
M  V30 247 N 26.6058 1.57591 -0.0167156 0
M  V30 248 C 28.0218 1.55946 0.339557 0
M  V30 249 C 28.2218 1.02109 1.73713 0
M  V30 250 O 27.2778 0.662303 2.43659 0
M  V30 251 C 28.5908 3.00037 0.199499 0
M  V30 252 C 30.1388 3.11805 0.273193 0
M  V30 253 C 30.6138 4.57713 0.162068 0
M  V30 254 N 32.1048 4.6268 0.219444 0
M  V30 255 C 32.8398 5.73185 0.157054 0
M  V30 256 N 32.3358 6.92786 0.0442936 0
M  V30 257 N 34.1288 5.61707 0.21014 0
M  V30 258 H 26.2798 1.90921 -0.930758 0
M  V30 259 H 28.5428 0.877674 -0.358319 0
M  V30 260 H 28.2488 3.4333 -0.76273 0
M  V30 261 H 28.1228 3.64387 0.974786 0
M  V30 262 H 30.5098 2.68433 1.22587 0
M  V30 263 H 30.5908 2.50201 -0.532256 0
M  V30 264 H 30.2348 5.01763 -0.78714 0
M  V30 265 H 30.1648 5.17283 0.986222 0
M  V30 266 H 32.6558 3.76649 0.307246 0
M  V30 267 H 32.9688 7.728 0.00304069 0
M  V30 268 H 31.3138 6.94999 0.00968457 0
M  V30 269 H 34.5048 4.6716 0.296546 0
M  V30 270 H 34.6778 6.47807 0.158054 0
M  V30 271 N 28.0839 -0.256276 1.55502 0
M  V30 272 C 29.0469 -1.30047 1.88734 0
M  V30 273 C 30.0469 -1.4154 0.763086 0
M  V30 274 O 31.2369 -1.40403 1.03115 0
M  V30 275 C 28.3689 -2.67953 2.10747 0
M  V30 276 H 29.5619 -1.01802 2.82093 0
M  V30 277 H 27.1149 -0.495134 1.4825 0
M  V30 278 H 27.8499 -3.01351 1.19825 0
M  V30 279 H 27.6349 -2.60993 2.92617 0
M  V30 280 H 29.1249 -3.43368 2.37673 0
M  V30 281 N 29.562 -1.4872 -0.521534 0
M  V30 282 C 30.492 -1.66771 -1.63431 0
M  V30 283 C 31.473 -0.516499 -1.62069 0
M  V30 284 O 32.658 -0.750013 -1.79132 0
M  V30 285 C 29.788 -1.71515 -3.01993 0
M  V30 286 C 28.742 -2.86222 -3.18216 0
M  V30 287 C 28.068 -2.76061 -4.57924 0
M  V30 288 C 29.368 -4.27419 -3.00184 0
M  V30 289 H 31.062 -2.59932 -1.48579 0
M  V30 290 H 28.608 -1.25089 -0.713358 0
M  V30 291 H 30.561 -1.82731 -3.7972 0
M  V30 292 H 29.285 -0.749393 -3.17886 0
M  V30 293 H 27.944 -2.74575 -2.42908 0
M  V30 294 H 27.592 -1.77437 -4.70665 0
M  V30 295 H 27.292 -3.53037 -4.69722 0
M  V30 296 H 28.816 -2.89256 -5.37739 0
M  V30 297 H 30.23 -4.39855 -3.67697 0
M  V30 298 H 28.627 -5.05458 -3.2347 0
M  V30 299 H 29.697 -4.43293 -1.96518 0
M  V30 300 N 31.0401 0.771051 -1.3745 0
M  V30 301 C 32.4511 1.34737 -1.29239 0
M  V30 302 C 32.8021 1.96109 0.0596908 0
M  V30 303 O 31.9271 1.93865 0.961534 0
M  V30 304 C 32.5221 2.44973 -2.34037 0
M  V30 305 C 31.0811 2.98372 -2.29458 0
M  V30 306 C 30.2281 1.71595 -2.17831 0
M  V30 307 H 33.1791 0.571256 -1.48062 0
M  V30 308 H 33.2001 3.24471 -1.98744 0
M  V30 309 H 32.7121 2.00276 -3.32432 0
M  V30 310 H 30.8131 3.47443 -1.34589 0
M  V30 311 H 30.9261 3.53939 -3.229 0
M  V30 312 H 29.2901 1.94547 -1.64388 0
M  V30 313 H 30.0731 1.29001 -3.18141 0
M  V30 314 N 32.5182 1.22032 0.997298 0
M  V30 315 C 33.4282 1.00271 2.12092 0
M  V30 316 C 34.4442 -0.047621 1.73935 0
M  V30 317 O 35.6202 0.144136 2.00884 0
M  V30 318 C 32.6852 0.578449 3.4184 0
M  V30 319 C 31.7462 1.70189 3.94125 0
M  V30 320 C 30.9792 1.29778 5.17681 0
M  V30 321 O 31.2022 0.174676 5.70132 0
M  V30 322 O 30.1362 2.11261 5.63607 0
M  V30 323 H 33.9622 1.94398 2.3333 0
M  V30 324 H 31.5472 1.00587 1.10465 0
M  V30 325 H 33.4292 0.351998 4.19927 0
M  V30 326 H 32.1042 -0.334019 3.21972 0
M  V30 327 H 31.0112 1.98282 3.1723 0
M  V30 328 H 32.3442 2.59206 4.18417 0
M  V30 329 N 33.9963 -1.19345 1.0293 0
M  V30 330 C 35.2213 -1.93538 0.745511 0
M  V30 331 C 35.6463 -1.75007 -0.689511 0
M  V30 332 O 35.0043 -1.05265 -1.47611 0
M  V30 333 C 35.0523 -3.43336 1.10239 0
M  V30 334 O 34.1563 -4.11806 0.221289 0
M  V30 335 H 33.4973 -0.604193 0.275404 0
M  V30 336 H 36.0273 -1.5141 1.37609 0
M  V30 337 H 36.0373 -3.94004 1.05947 0
M  V30 338 H 34.7123 -3.56146 2.14786 0
M  V30 339 H 33.2893 -3.715 0.322842 0
M  V30 340 N 35.4744 -0.807222 -1.35358 0
M  V30 341 C 36.4044 -0.232509 -2.3234 0
M  V30 342 C 37.3854 0.642386 -1.57504 0
M  V30 343 O 38.5704 0.572526 -1.85569 0
M  V30 344 C 35.7004 0.619238 -3.41735 0
M  V30 345 C 34.6544 -0.157215 -4.27711 0
M  V30 346 C 33.9804 0.816273 -5.28433 0
M  V30 347 C 35.2804 -1.35656 -5.04376 0
M  V30 348 H 36.9744 -1.04276 -2.80654 0
M  V30 349 H 34.5204 -0.50288 -1.34934 0
M  V30 350 H 36.4734 1.03137 -4.08584 0
M  V30 351 H 35.1974 1.46239 -2.92031 0
M  V30 352 H 33.8564 -0.550525 -3.62443 0
M  V30 353 H 33.5044 1.65494 -4.74996 0
M  V30 354 H 33.2044 0.301067 -5.86828 0
M  V30 355 H 34.7284 1.22659 -5.98153 0
M  V30 356 H 36.1424 -1.01927 -5.64166 0
M  V30 357 H 34.5394 -1.8063 -5.7227 0
M  V30 358 H 35.6094 -2.14288 -4.34981 0
M  V30 359 N 36.9525 1.47285 -0.560781 0
M  V30 360 C 38.2005 2.02064 -0.0379868 0
M  V30 361 C 38.5215 1.43711 1.31803 0
M  V30 362 O 37.7915 0.61362 1.86042 0
M  V30 363 H 36.3715 0.746918 -0.0110531 0
M  V30 364 H 39.0335 1.80648 -0.731598 0
M  V30 365 H 38.1295 3.12064 0.0474463 0
M  V30 366 N 38.4306 0.297415 1.54768 0
M  V30 367 C 39.3626 -0.613881 2.20826 0
M  V30 368 C 40.3756 -1.10032 1.19987 0
M  V30 369 O 41.5646 -1.01839 1.46598 0
M  V30 370 C 38.6646 -1.852 2.83821 0
M  V30 371 C 37.8376 -1.50865 4.10559 0
M  V30 372 C 36.8966 -2.60154 4.57391 0
M  V30 373 O 35.9226 -2.25398 5.2267 0
M  V30 374 N 37.1246 -3.90629 4.29406 0
M  V30 375 H 39.8896 -0.048389 2.99661 0
M  V30 376 H 37.4506 0.11946 1.61459 0
M  V30 377 H 39.4426 -2.57652 3.12086 0
M  V30 378 H 38.0126 -2.32597 2.08847 0
M  V30 379 H 37.2326 -0.616925 3.89343 0
M  V30 380 H 38.5206 -1.25458 4.9309 0
M  V30 381 H 37.9186 -4.21677 3.77101 0
M  V30 382 H 36.4756 -4.59391 4.62388 0
M  V30 383 N 39.9087 -1.5758 0.0250728 0
M  V30 384 C 40.8587 -2.06468 -0.967201 0
M  V30 385 C 41.8427 -0.964376 -1.28797 0
M  V30 386 O 43.0347 -1.22797 -1.27475 0
M  V30 387 C 40.1637 -2.59203 -2.25097 0
M  V30 388 C 39.2497 -3.76157 -1.95874 0
M  V30 389 N 39.6407 -4.86919 -1.36905 0
M  V30 390 C 37.9387 -3.84566 -2.25887 0
M  V30 391 C 38.6397 -5.68172 -1.24724 0
M  V30 392 N 37.6157 -5.14953 -1.74138 0
M  V30 393 H 41.4177 -2.89508 -0.506176 0
M  V30 394 H 38.9317 -1.61399 -0.18004 0
M  V30 395 H 40.9287 -2.92517 -2.97052 0
M  V30 396 H 39.5887 -1.77592 -2.71829 0
M  V30 397 H 40.5997 -5.07256 -1.04459 0
M  V30 398 H 37.2767 -3.13854 -2.75321 0
M  V30 399 H 38.6667 -6.67221 -0.791605 0
M  V30 400 N 41.3868 0.248026 -1.55636 0
M  V30 401 C 42.3498 1.29044 -1.89421 0
M  V30 402 C 43.3498 1.41134 -0.770581 0
M  V30 403 O 44.5398 1.39854 -1.03858 0
M  V30 404 C 41.6718 2.66831 -2.12165 0
M  V30 405 H 42.8648 1.00305 -2.82629 0
M  V30 406 H 40.4178 0.487265 -1.48511 0
M  V30 407 H 41.1528 3.00711 -1.21422 0
M  V30 408 H 40.9378 2.59438 -2.93997 0
M  V30 409 H 42.4278 3.42103 -2.3949 0
M  V30 410 N 42.8649 1.48995 0.513639 0
M  V30 411 C 43.7949 1.67636 1.62544 0
M  V30 412 C 44.7759 0.525087 1.61793 0
M  V30 413 O 45.9609 0.759502 1.78732 0
M  V30 414 C 43.0909 1.73114 3.01079 0
M  V30 415 C 42.0449 2.87905 3.16693 0
M  V30 416 C 41.3709 2.78486 4.56453 0
M  V30 417 C 42.6709 4.29005 2.97913 0
M  V30 418 H 44.3649 2.60716 1.47198 0
M  V30 419 H 41.9109 1.25465 0.706714 0
M  V30 420 H 43.8639 1.84742 3.78746 0
M  V30 421 H 42.5879 0.766241 3.17484 0
M  V30 422 H 41.2469 2.75859 2.41448 0
M  V30 423 H 40.8949 1.7993 4.69717 0
M  V30 424 H 40.5949 3.55523 4.67843 0
M  V30 425 H 42.1189 2.92104 5.36197 0
M  V30 426 H 43.5329 4.41798 3.65359 0
M  V30 427 H 41.9299 5.07166 3.20785 0
M  V30 428 H 42.9999 4.44329 1.94165 0
M  V30 429 N 44.343 -0.763751 1.37857 0
M  V30 430 C 45.759 -1.06542 1.18832 0
M  V30 431 C 45.959 -2.01478 0.0299722 0
M  V30 432 O 45.015 -2.4458 -0.627447 0
M  V30 433 C 46.328 -1.65525 2.51042 0
M  V30 434 C 47.876 -1.77745 2.57635 0
M  V30 435 C 48.351 -2.4014 3.89996 0
M  V30 436 N 49.842 -2.47582 3.91481 0
M  V30 437 C 50.577 -2.96732 4.9065 0
M  V30 438 N 50.073 -3.45993 6.00217 0
M  V30 439 N 51.866 -2.95679 4.78048 0
M  V30 440 H 44.017 -0.133556 2.1198 0
M  V30 441 H 46.28 -0.121879 0.940133 0
M  V30 442 H 45.986 -1.03236 3.36207 0
M  V30 443 H 45.86 -2.64719 2.68707 0
M  V30 444 H 48.247 -2.39164 1.72872 0
M  V30 445 H 48.328 -0.772836 2.43846 0
M  V30 446 H 47.972 -1.79358 4.75177 0
M  V30 447 H 47.902 -3.41223 4.01092 0
M  V30 448 H 50.393 -2.1273 3.12337 0
M  V30 449 H 50.706 -3.81922 6.7183 0
M  V30 450 H 49.051 -3.44077 6.03851 0
M  V30 451 H 52.242 -2.56499 3.91568 0
M  V30 452 H 52.415 -3.33672 5.55488 0
M  V30 453 N 45.8211 -1.22559 -0.990812 0
M  V30 454 C 47.0461 -1.07862 -1.77145 0
M  V30 455 C 47.4711 0.366447 -1.84496 0
M  V30 456 O 46.8291 1.26478 -1.29896 0
M  V30 457 C 46.8771 -1.69686 -3.18181 0
M  V30 458 O 45.9811 -0.951946 -4.01263 0
M  V30 459 H 45.3221 -0.378712 -0.545411 0
M  V30 460 H 47.8521 -1.62399 -1.2445 0
M  V30 461 H 47.8621 -1.74496 -3.68802 0
M  V30 462 H 46.5371 -2.74841 -3.12146 0
M  V30 463 H 45.1141 -0.980011 -3.59792 0
M  V30 464 N 47.2992 1.18797 -1.03562 0
M  V30 465 C 48.2622 2.20464 -0.626769 0
M  V30 466 C 49.2622 1.57721 0.313173 0
M  V30 467 O 50.4522 1.73917 0.0992615 0
M  V30 468 C 47.5842 3.40802 0.0818498 0
M  V30 469 H 48.7772 2.58149 -1.5264 0
M  V30 470 H 46.3302 1.32593 -0.827578 0
M  V30 471 H 47.0652 3.08642 0.995518 0
M  V30 472 H 46.8502 3.8758 -0.593652 0
M  V30 473 H 48.3402 4.16092 0.354584 0
M  V30 474 N 48.7773 0.814389 1.34928 0
M  V30 475 C 49.7243 0.22822 2.29669 0
M  V30 476 C 50.6943 -0.642164 1.53184 0
M  V30 477 O 51.8793 -0.585605 1.81591 0
M  V30 478 C 49.0193 -0.61089 3.3965 0
M  V30 479 C 48.1323 0.280792 4.31086 0
M  V30 480 C 47.2673 -0.567067 5.28165 0
M  V30 481 C 46.3063 0.324531 6.11239 0
M  V30 482 N 45.4433 -0.483756 7.00431 0
M  V30 483 H 50.2833 1.04153 2.79206 0
M  V30 484 H 47.8203 0.525133 1.37407 0
M  V30 485 H 49.7783 -1.11263 4.0209 0
M  V30 486 H 48.4083 -1.38939 2.91369 0
M  V30 487 H 47.4603 0.900688 3.69583 0
M  V30 488 H 48.7723 0.966723 4.89342 0
M  V30 489 H 47.9263 -1.13363 5.96015 0
M  V30 490 H 46.6653 -1.28654 4.70425 0
M  V30 491 H 45.6703 0.903298 5.42329 0
M  V30 492 H 46.8953 1.04198 6.71059 0
M  V30 493 H 44.8413 -1.18706 6.45171 0
M  V30 494 H 44.7583 0.143965 7.55863 0
M  V30 495 H 46.0263 -1.03334 7.7262 0
M  V30 496 N 50.2554 -1.46986 0.568584 0
M  V30 497 C 51.5034 -2.02041 0.0487022 0
M  V30 498 C 51.8244 -1.44408 -1.31039 0
M  V30 499 O 51.0944 -0.623477 -1.85714 0
M  V30 500 H 49.6744 -0.746849 0.015014 0
M  V30 501 H 52.3364 -1.80257 0.741168 0
M  V30 502 H 51.4324 -3.12085 -0.0308961 0
M  V30 503 N 51.7335 -0.305618 -1.54608 0
M  V30 504 C 52.6435 0.57778 -2.27374 0
M  V30 505 C 53.6595 1.14451 -1.31061 0
M  V30 506 O 54.8355 1.16831 -1.6405 0
M  V30 507 C 51.9005 1.73123 -3.00382 0
M  V30 508 C 50.9615 1.19812 -4.12242 0
M  V30 509 C 50.1945 2.2966 -4.81759 0
M  V30 510 O 50.4175 3.49651 -4.50666 0
M  V30 511 O 49.3515 1.96091 -5.69062 0
M  V30 512 H 53.1775 -0.012624 -3.03697 0
M  V30 513 H 50.7625 -0.0719184 -1.49227 0
M  V30 514 H 52.6445 2.40315 -3.4616 0
M  V30 515 H 51.3195 2.30815 -2.26949 0
M  V30 516 H 50.2265 0.491798 -3.70853 0
M  V30 517 H 51.5595 0.666566 -4.87666 0
M  V30 518 N 53.2116 1.57565 -0.0334293 0
M  V30 519 C 54.1216 2.13943 0.962572 0
M  V30 520 C 55.1376 1.09276 1.35406 0
M  V30 521 O 56.3136 1.41355 1.4346 0
M  V30 522 C 53.3786 2.65887 2.22497 0
M  V30 523 C 52.4396 3.85286 1.8935 0
M  V30 524 C 51.6726 4.34743 3.09571 0
M  V30 525 O 51.8956 3.83352 4.22371 0
M  V30 526 O 50.8296 5.26538 2.91618 0
M  V30 527 H 54.6556 2.99333 0.513169 0
M  V30 528 H 52.2406 1.4822 0.18743 0
M  V30 529 H 54.1226 2.99346 2.96598 0
M  V30 530 H 52.7976 1.83578 2.6661 0
M  V30 531 H 51.7046 3.56746 1.1262 0
M  V30 532 H 53.0376 4.68771 1.5005 0
M  V30 533 N 54.6897 -0.239769 1.55765 0
M  V30 534 C 55.9357 -0.968234 1.78194 0
M  V30 535 C 56.2687 -1.84701 0.599938 0
M  V30 536 O 55.5437 -1.9031 -0.401524 0
M  V30 537 C 55.8267 -1.8227 3.10564 0
M  V30 538 C 55.6797 -0.971633 4.3918 0
M  V30 539 C 56.9987 -2.80388 3.39221 0
M  V30 540 H 54.1177 -0.350572 0.648281 0
M  V30 541 H 56.7597 -0.238259 1.885 0
M  V30 542 H 54.9097 -2.44507 3.01908 0
M  V30 543 H 56.5817 -0.367408 4.59835 0
M  V30 544 H 54.8247 -0.276276 4.32919 0
M  V30 545 H 55.4957 -1.60346 5.28198 0
M  V30 546 H 57.9717 -2.28287 3.47885 0
M  V30 547 H 56.8477 -3.3729 4.33044 0
M  V30 548 H 57.1087 -3.57212 2.60484 0
M  V30 549 N 56.1678 -1.49265 -0.50573 0
M  V30 550 C 57.4448 -1.49012 -1.26707 0
M  V30 551 C 57.8248 -0.215205 -2.1 0
M  V30 552 O 57.1728 0.802547 -2.13943 0
M  V30 553 C 57.3828 -2.7663 -2.12783 0
M  V30 554 C 58.7308 -3.25932 -2.72127 0
M  V30 555 O 59.7548 -2.77715 -2.23054 0
M  V30 556 O 58.6138 -4.09897 -3.61451 0
M  V30 557 H 55.7078 -0.596197 -0.57313 0
M  V30 558 H 58.2538 -1.61524 -0.52039 0
M  V30 559 H 57.0258 -3.60916 -1.5118 0
M  V30 560 H 56.6488 -2.66956 -2.94653 0
M  V30 561 N 57.6459 0.756429 -1.3826 0
M  V30 562 C 58.8919 1.51772 -1.34511 0
M  V30 563 C 59.2249 1.94089 0.0656691 0
M  V30 564 O 58.4999 1.65221 1.02626 0
M  V30 565 C 58.7829 2.77226 -2.29821 0
M  V30 566 C 58.6359 2.41065 -3.79747 0
M  V30 567 C 59.9549 3.79236 -2.23312 0
M  V30 568 H 57.0739 0.550578 -0.489931 0
M  V30 569 H 59.7159 0.866607 -1.69086 0
M  V30 570 H 57.8659 3.32784 -2.00467 0
M  V30 571 H 59.5379 1.91303 -4.19763 0
M  V30 572 H 57.7809 1.7356 -3.97567 0
M  V30 573 H 58.4519 3.3081 -4.41892 0
M  V30 574 H 60.9279 3.3321 -2.49219 0
M  V30 575 H 59.8039 4.64714 -2.92116 0
M  V30 576 H 60.0649 4.24615 -1.23102 0
M  V30 577 N 59.124 1.23083 0.984299 0
M  V30 578 C 60.087 1.00979 2.05757 0
M  V30 579 C 61.087 -0.0269573 1.60777 0
M  V30 580 O 62.277 0.212403 1.729 0
M  V30 581 C 59.409 0.527072 3.36801 0
M  V30 582 H 60.602 1.9622 2.26799 0
M  V30 583 H 58.155 1.05072 1.15714 0
M  V30 584 H 58.89 -0.429294 3.21446 0
M  V30 585 H 58.675 1.27515 3.70786 0
M  V30 586 H 60.165 0.392942 4.15747 0
M  V30 587 N 60.6021 -1.18246 1.0419 0
M  V30 588 C 62.0181 -1.40269 0.761366 0
M  V30 589 C 62.2181 -1.90777 -0.648578 0
M  V30 590 O 61.2741 -2.0929 -1.41258 0
M  V30 591 C 62.5871 -2.40237 1.8085 0
M  V30 592 C 64.1351 -2.53961 1.82955 0
M  V30 593 C 64.6101 -3.57194 2.86664 0
M  V30 594 N 66.1011 -3.64702 2.85563 0
M  V30 595 C 66.8361 -4.44309 3.6246 0
M  V30 596 N 66.3321 -5.27514 4.49111 0
M  V30 597 N 68.1251 -4.39084 3.50944 0
M  V30 598 H 60.2761 -0.837882 1.95175 0
M  V30 599 H 62.5391 -0.430608 0.84456 0
M  V30 600 H 62.2451 -2.10176 2.81991 0
M  V30 601 H 62.1191 -3.39601 1.64168 0
M  V30 602 H 64.5061 -2.83338 0.824855 0
M  V30 603 H 64.5871 -1.54706 2.03715 0
M  V30 604 H 64.2311 -3.28558 3.87314 0
M  V30 605 H 64.1611 -4.5613 2.6316 0
M  V30 606 H 66.6521 -3.05289 2.22727 0
M  V30 607 H 66.9651 -5.85411 5.04493 0
M  V30 608 H 65.3101 -5.2693 4.53178 0
M  V30 609 H 68.5011 -3.7313 2.82651 0
M  V30 610 H 68.6741 -5.00883 4.11121 0
M  V30 611 N 62.0802 -0.821533 -1.34494 0
M  V30 612 C 63.0432 -0.247847 -2.27856 0
M  V30 613 C 64.0432 0.573453 -1.50227 0
M  V30 614 O 65.2332 0.389759 -1.69784 0
M  V30 615 C 62.3652 0.652698 -3.34593 0
M  V30 616 H 63.5582 -1.07146 -2.80107 0
M  V30 617 H 61.1112 -0.593291 -1.44602 0
M  V30 618 H 61.8462 1.49943 -2.87555 0
M  V30 619 H 61.6312 0.065292 -3.92046 0
M  V30 620 H 63.1212 1.04793 -4.04238 0
M  V30 621 N 63.5583 1.46682 -0.576371 0
M  V30 622 C 64.4683 2.34032 0.163141 0
M  V30 623 C 65.4843 1.49367 0.892501 0
M  V30 624 O 66.6603 1.82252 0.857106 0
M  V30 625 C 63.7253 3.26435 1.16795 0
M  V30 626 C 62.7863 4.26998 0.443944 0
M  V30 627 C 62.0193 5.14986 1.40088 0
M  V30 628 O 62.2423 5.05785 2.637 0
M  V30 629 O 61.1763 5.94906 0.914917 0
M  V30 630 H 65.0023 2.98607 -0.55388 0
M  V30 631 H 62.5873 1.45554 -0.336821 0
M  V30 632 H 64.4693 3.83459 1.74748 0
M  V30 633 H 63.1443 2.64465 1.86655 0
M  V30 634 H 62.0513 3.7368 -0.177271 0
M  V30 635 H 63.3843 4.91736 -0.213566 0
M  V30 636 N 65.0364 0.313813 1.54444 0
M  V30 637 C 66.4524 -0.0391619 1.59552 0
M  V30 638 C 66.6524 -1.51322 1.33056 0
M  V30 639 O 65.7084 -2.26782 1.11022 0
M  V30 640 C 67.0214 0.370302 2.98411 0
M  V30 641 C 68.5694 0.320139 3.11358 0
M  V30 642 C 69.0444 0.704617 4.52547 0
M  V30 643 N 70.5354 0.657645 4.58508 0
M  V30 644 C 71.2704 0.927453 5.6585 0
M  V30 645 N 70.7664 1.26389 6.81174 0
M  V30 646 N 72.5594 0.853662 5.5558 0
M  V30 647 H 64.7104 1.27433 1.69925 0
M  V30 648 H 66.9734 0.517511 0.794284 0
M  V30 649 H 66.6794 1.39694 3.22767 0
M  V30 650 H 66.5534 -0.269619 3.76235 0
M  V30 651 H 68.9404 -0.697275 2.86744 0
M  V30 652 H 69.0214 0.99486 2.35661 0
M  V30 653 H 68.6654 1.7199 4.77893 0
M  V30 654 H 68.5954 0.00768843 5.26599 0
M  V30 655 H 71.0864 0.409067 3.75679 0
M  V30 656 H 71.3994 1.4554 7.58972 0
M  V30 657 H 69.7444 1.30206 6.82694 0
M  V30 658 H 72.9354 0.590383 4.64362 0
M  V30 659 H 73.1084 1.0673 6.3915 0
M  V30 660 N 66.5145 -1.57545 0.0417849 0
M  V30 661 C 67.4465 -2.07904 -0.964799 0
M  V30 662 C 68.4595 -1.00497 -1.28079 0
M  V30 663 O 69.6485 -1.28087 -1.24322 0
M  V30 664 C 66.7485 -2.49928 -2.28887 0
M  V30 665 C 65.9215 -3.80562 -2.15619 0
M  V30 666 C 64.9805 -4.08999 -3.31069 0
M  V30 667 O 64.0065 -4.79061 -3.0739 0
M  V30 668 N 65.2085 -3.6017 -4.55256 0
M  V30 669 H 67.9735 -2.94886 -0.535029 0
M  V30 670 H 65.5345 -1.61252 -0.144681 0
M  V30 671 H 67.5265 -2.66034 -3.04972 0
M  V30 672 H 66.0965 -1.68245 -2.63463 0
M  V30 673 H 65.3165 -3.74129 -1.24183 0
M  V30 674 H 66.6045 -4.66126 -2.03971 0
M  V30 675 H 66.0025 -3.03512 -4.77386 0
M  V30 676 H 64.5595 -3.81532 -5.28466 0
M  V30 677 N 67.9926 0.231505 -1.5589 0
M  V30 678 C 68.9426 1.29007 -1.87993 0
M  V30 679 C 69.9266 1.42764 -0.742102 0
M  V30 680 O 71.1186 1.45747 -1.00433 0
M  V30 681 C 68.2476 2.6425 -2.1915 0
M  V30 682 C 67.3336 2.54435 -3.39299 0
M  V30 683 N 67.7246 2.14262 -4.58176 0
M  V30 684 C 66.0226 2.85416 -3.42715 0
M  V30 685 C 66.7236 2.15455 -5.40328 0
M  V30 686 N 65.6996 2.55558 -4.79783 0
M  V30 687 H 69.5016 0.970213 -2.77424 0
M  V30 688 H 67.0156 0.440097 -1.56323 0
M  V30 689 H 69.0126 3.40665 -2.40319 0
M  V30 690 H 67.6726 2.9709 -1.31025 0
M  V30 691 H 68.6836 1.85554 -4.83518 0
M  V30 692 H 65.3606 3.22693 -2.64906 0
M  V30 693 H 66.7506 1.86605 -6.45467 0
M  V30 694 N 69.4707 1.49531 0.497807 0
M  V30 695 C 70.4027 1.62559 1.61578 0
M  V30 696 C 71.4157 0.508134 1.54667 0
M  V30 697 O 72.6047 0.780309 1.60541 0
M  V30 698 C 69.7047 1.56925 3.00379 0
M  V30 699 C 68.8777 2.84257 3.3244 0
M  V30 700 C 67.9367 2.71632 4.50669 0
M  V30 701 O 66.9627 3.4557 4.52294 0
M  V30 702 N 68.1647 1.83391 5.5077 0
M  V30 703 H 70.9297 2.58981 1.50828 0
M  V30 704 H 68.4907 1.4666 0.685743 0
M  V30 705 H 70.4827 1.46129 3.77397 0
M  V30 706 H 69.0527 0.683483 3.05037 0
M  V30 707 H 68.2727 3.09381 2.44289 0
M  V30 708 H 69.5607 3.68666 3.5066 0
M  V30 709 H 68.9587 1.22583 5.52259 0
M  V30 710 H 67.5157 1.78515 6.26878 0
M  V30 711 N 70.9488 -0.749086 1.3866 0
M  V30 712 C 71.8788 -1.8764 1.38973 0
M  V30 713 C 72.8598 -1.68178 0.255004 0
M  V30 714 O 74.0448 -1.88704 0.458754 0
M  V30 715 C 71.1748 -3.25222 1.21851 0
M  V30 716 C 70.1288 -3.59295 2.32575 0
M  V30 717 C 69.4548 -4.95663 2.00555 0
M  V30 718 C 70.7548 -3.63709 3.7485 0
M  V30 719 H 72.4488 -1.87635 2.3331 0
M  V30 720 H 69.9948 -0.901329 1.12303 0
M  V30 721 H 71.9478 -4.03746 1.20695 0
M  V30 722 H 70.6718 -3.25719 0.239775 0
M  V30 723 H 69.3308 -2.83093 2.32925 0
M  V30 724 H 68.9788 -4.92724 1.01154 0
M  V30 725 H 68.6788 -5.19429 2.74714 0
M  V30 726 H 70.2028 -5.7656 2.01024 0
M  V30 727 H 71.6168 -4.32338 3.76506 0
M  V30 728 H 70.0138 -3.98986 4.48252 0
M  V30 729 H 71.0838 -2.63834 4.06841 0
M  V30 730 N 72.4269 -1.23603 -0.977757 0
M  V30 731 C 73.6569 -1.09487 -1.75203 0
M  V30 732 C 74.0649 0.356321 -1.85814 0
M  V30 733 O 73.4079 1.25816 -1.33851 0
M  V30 734 C 73.4699 -1.64905 -3.19447 0
M  V30 735 C 73.1339 -3.13688 -3.32338 0
M  V30 736 C 74.1309 -4.10953 -3.18455 0
M  V30 737 C 71.8159 -3.53449 -3.56902 0
M  V30 738 C 73.8099 -5.45962 -3.28944 0
M  V30 739 C 71.4969 -4.88602 -3.6703 0
M  V30 740 C 72.4949 -5.84668 -3.53062 0
M  V30 741 O 72.1829 -7.17365 -3.62826 0
M  V30 742 H 71.9149 -0.38367 -0.556573 0
M  V30 743 H 74.4689 -1.6398 -1.23693 0
M  V30 744 H 72.6989 -1.04835 -3.72218 0
M  V30 745 H 74.3879 -1.46226 -3.78646 0
M  V30 746 H 75.1539 -3.81577 -2.99372 0
M  V30 747 H 71.0329 -2.79188 -3.66844 0
M  V30 748 H 74.5769 -6.20925 -3.17958 0
M  V30 749 H 70.4739 -5.17653 -3.85623 0
M  V30 750 H 71.2419 -7.2515 -3.79605 0
M  V30 751 N 73.905 1.17692 -1.04816 0
M  V30 752 C 75.151 1.88137 -0.75711 0
M  V30 753 C 75.484 1.80604 0.713841 0
M  V30 754 O 74.759 1.21146 1.52164 0
M  V30 755 C 75.042 3.38318 -1.2334 0
M  V30 756 C 74.895 3.54622 -2.76701 0
M  V30 757 C 76.214 4.32214 -0.829415 0
M  V30 758 H 73.333 0.683163 -0.27651 0
M  V30 759 H 75.975 1.38424 -1.30149 0
M  V30 760 H 74.125 3.80787 -0.770286 0
M  V30 761 H 75.797 3.21194 -3.31107 0
M  V30 762 H 74.04 2.97026 -3.16161 0
M  V30 763 H 74.711 4.60028 -3.05088 0
M  V30 764 H 77.187 3.97565 -1.22805 0
M  V30 765 H 76.063 5.35838 -1.19033 0
M  V30 766 H 76.324 4.41294 0.266891 0
M  V30 767 N 75.3831 0.828654 1.34056 0
M  V30 768 C 76.6311 0.41863 1.97717 0
M  V30 769 C 76.9521 -1.02314 1.66002 0
M  V30 770 O 76.2221 -1.71119 0.953683 0
M  V30 771 H 74.8021 0.151809 0.731412 0
M  V30 772 H 77.4641 1.05936 1.63596 0
M  V30 773 H 76.5601 0.542318 3.07352 0
M  V30 774 N 76.8612 -1.46375 0.584142 0
M  V30 775 C 78.1072 -2.02678 0.0703716 0
M  V30 776 C 78.4402 -1.4545 -1.28678 0
M  V30 777 O 77.7152 -0.62014 -1.84349 0
M  V30 778 C 77.9982 -3.60099 0.00614674 0
M  V30 779 C 77.8512 -4.27709 1.3923 0
M  V30 780 C 79.1702 -4.34598 -0.693742 0
M  V30 781 H 76.2892 -0.736504 0.027047 0
M  V30 782 H 78.9312 -1.74501 0.751615 0
M  V30 783 H 77.0812 -3.84236 -0.574009 0
M  V30 784 H 78.7532 -4.14832 2.01773 0
M  V30 785 H 76.9962 -3.87016 1.95962 0
M  V30 786 H 77.6672 -5.36478 1.29982 0
M  V30 787 H 80.1432 -4.15615 -0.200869 0
M  V30 788 H 79.0192 -5.44318 -0.707714 0
M  V30 789 H 79.2802 -4.05759 -1.75533 0
M  V30 790 N 78.3393 -0.321999 -1.54275 0
M  V30 791 C 79.2693 0.537411 -2.27231 0
M  V30 792 C 80.2503 1.12064 -1.27968 0
M  V30 793 O 81.4353 1.14606 -1.56777 0
M  V30 794 C 78.5653 1.69919 -3.02894 0
M  V30 795 C 77.5193 1.24534 -4.09482 0
M  V30 796 C 76.8453 2.49394 -4.72977 0
M  V30 797 C 78.1453 0.361335 -5.21049 0
M  V30 798 H 79.8393 -0.0711406 -2.99315 0
M  V30 799 H 77.3853 -0.0356555 -1.43956 0
M  V30 800 H 79.3383 2.30668 -3.52662 0
M  V30 801 H 78.0623 2.33431 -2.28424 0
M  V30 802 H 76.7213 0.660782 -3.60596 0
M  V30 803 H 76.3693 3.11265 -3.95124 0
M  V30 804 H 76.0693 2.19718 -5.44975 0
M  V30 805 H 77.5933 3.10908 -5.25517 0
M  V30 806 H 79.0073 0.875072 -5.66582 0
M  V30 807 H 77.4043 0.157428 -5.99893 0
M  V30 808 H 78.4743 -0.60822 -4.8107 0
M  V30 809 N 79.8174 1.5752 -0.0501392 0
M  V30 810 C 81.0654 1.9227 0.622642 0
M  V30 811 C 81.3864 0.929083 1.71444 0
M  V30 812 O 80.6564 -0.0262186 1.95882 0
M  V30 813 H 79.2364 0.709739 0.232981 0
M  V30 814 H 81.8984 1.94628 -0.102898 0
M  V30 815 H 80.9944 2.93479 1.06191 0
M  V30 816 N 81.2955 -0.223234 1.56011 0
M  V30 817 C 82.5205 -0.968978 1.83373 0
M  V30 818 C 82.9455 -1.77227 0.630254 0
M  V30 819 O 82.3035 -1.76345 -0.420959 0
M  V30 820 C 82.3515 -1.86363 3.08709 0
M  V30 821 O 81.4555 -2.95873 2.87285 0
M  V30 822 H 80.7965 -0.274461 0.604622 0
M  V30 823 H 83.3265 -0.237056 2.03222 0
M  V30 824 H 83.3365 -2.27376 3.38768 0
M  V30 825 H 82.0115 -1.27319 3.95933 0
M  V30 826 H 80.5885 -2.58818 2.68454 0
M  V30 827 N 82.7736 -1.49793 -0.48987 0
M  V30 828 C 83.7206 -1.67281 -1.59014 0
M  V30 829 C 84.6906 -0.514177 -1.57941 0
M  V30 830 O 85.8756 -0.742533 -1.75759 0
M  V30 831 C 83.0156 -1.75569 -2.97102 0
M  V30 832 C 82.1286 -3.0281 -3.08107 0
M  V30 833 C 81.2636 -3.02008 -4.36995 0
M  V30 834 C 80.3026 -4.23782 -4.41673 0
M  V30 835 N 79.4396 -4.20826 -5.62005 0
M  V30 836 H 84.2796 -2.61224 -1.43409 0
M  V30 837 H 81.8166 -1.29508 -0.697565 0
M  V30 838 H 83.7746 -1.78354 -3.77155 0
M  V30 839 H 82.4046 -0.850827 -3.11385 0
M  V30 840 H 81.4566 -3.09584 -2.21047 0
M  V30 841 H 82.7686 -3.92801 -3.07423 0
M  V30 842 H 81.9226 -3.03418 -5.25378 0
M  V30 843 H 80.6616 -2.09815 -4.4026 0
M  V30 844 H 79.6666 -4.22604 -3.5169 0
M  V30 845 H 80.8916 -5.17181 -4.40115 0
M  V30 846 H 78.8376 -3.31476 -5.66091 0
M  V30 847 H 78.7546 -5.04564 -5.62984 0
M  V30 848 H 80.0226 -4.26355 -6.52565 0
M  V30 849 N 84.2517 0.741722 -1.39055 0
M  V30 850 C 85.1817 1.869 -1.39966 0
M  V30 851 C 86.1627 1.6804 -0.26392 0
M  V30 852 O 87.3477 1.88458 -0.468755 0
M  V30 853 C 84.4777 3.24572 -1.23574 0
M  V30 854 C 83.4317 3.58056 -2.34477 0
M  V30 855 C 82.7577 4.94593 -2.0318 0
M  V30 856 C 84.0577 3.61716 -3.76774 0
M  V30 857 H 85.7517 1.86395 -2.34302 0
M  V30 858 H 83.2977 0.895361 -1.1278 0
M  V30 859 H 85.2507 4.031 -1.22834 0
M  V30 860 H 83.9747 3.25587 -0.257045 0
M  V30 861 H 82.6337 2.81854 -2.34423 0
M  V30 862 H 82.2817 4.92181 -1.03765 0
M  V30 863 H 81.9817 5.17964 -2.77465 0
M  V30 864 H 83.5057 5.75486 -2.04079 0
M  V30 865 H 84.9197 4.30335 -3.78794 0
M  V30 866 H 83.3167 3.96603 -4.50362 0
M  V30 867 H 84.3867 2.61672 -4.08235 0
M  V30 868 N 85.7298 1.2412 0.971189 0
M  V30 869 C 86.9778 1.07668 1.71032 0
M  V30 870 C 87.2988 -0.385797 1.91146 0
M  V30 871 O 86.5688 -1.27569 1.4867 0
M  V30 872 H 85.1488 0.395429 0.633755 0
M  V30 873 H 87.8108 1.55984 1.16855 0
M  V30 874 H 86.9068 1.57195 2.69622 0
M  V30 875 N 87.2079 -1.17134 1.05439 0
M  V30 876 C 88.1379 -2.2342 0.678649 0
M  V30 877 C 89.1189 -1.66971 -0.32476 0
M  V30 878 O 90.3039 -1.93149 -0.201802 0
M  V30 879 C 87.4339 -3.47256 0.0552099 0
M  V30 880 C 86.3879 -4.16543 0.98365 0
M  V30 881 C 85.7139 -5.34231 0.223961 0
M  V30 882 C 87.0139 -4.68495 2.3089 0
M  V30 883 H 88.7079 -2.55105 1.56722 0
M  V30 884 H 86.2539 -1.2262 0.754998 0
M  V30 885 H 88.2069 -4.20828 -0.21946 0
M  V30 886 H 86.9309 -3.14846 -0.868319 0
M  V30 887 H 85.5899 -3.44887 1.24293 0
M  V30 888 H 85.2379 -4.98071 -0.702412 0
M  V30 889 H 84.9379 -5.81527 0.842627 0
M  V30 890 H 86.4619 -6.10585 -0.0433671 0
M  V30 891 H 87.8759 -5.33691 2.09396 0
M  V30 892 H 86.2729 -5.26379 2.88176 0
M  V30 893 H 87.3429 -3.85169 2.94572 0
M  V30 894 N 88.686 -0.835752 -1.33615 0
M  V30 895 C 89.618 -0.224151 -2.28101 0
M  V30 896 C 90.631 0.593331 -1.51603 0
M  V30 897 O 91.82 0.420911 -1.73466 0
M  V30 898 C 88.92 0.703309 -3.31522 0
M  V30 899 C 88.093 -0.0741528 -4.37337 0
M  V30 900 C 87.152 0.776176 -5.20444 0
M  V30 901 O 86.178 0.216506 -5.68788 0
M  V30 902 N 87.38 2.09401 -5.41416 0
M  V30 903 H 90.145 -1.03598 -2.81225 0
M  V30 904 H 87.706 -0.69392 -1.46275 0
M  V30 905 H 89.698 1.27707 -3.84022 0
M  V30 906 H 88.268 1.41585 -2.78698 0
M  V30 907 H 87.488 -0.82928 -3.85378 0
M  V30 908 H 88.776 -0.608863 -5.05144 0
M  V30 909 H 88.174 2.57229 -5.03835 0
M  V30 910 H 86.731 2.61633 -5.96985 0
M  V30 911 N 90.1641 1.46063 -0.591896 0
M  V30 912 C 91.4101 2.02638 -0.0811191 0
M  V30 913 C 91.7431 1.4613 1.27905 0
M  V30 914 O 91.0181 0.629908 1.84017 0
M  V30 915 C 91.3011 3.60091 -0.0252436 0
M  V30 916 C 91.1541 4.26965 -1.41496 0
M  V30 917 C 92.4731 4.3496 0.670685 0
M  V30 918 H 89.5921 0.73635 -0.0309524 0
M  V30 919 H 92.2341 1.741 -0.760859 0
M  V30 920 H 90.3841 3.84535 0.553624 0
M  V30 921 H 92.0561 4.13756 -2.0397 0
M  V30 922 H 90.2991 3.85971 -1.98011 0
M  V30 923 H 90.9701 5.35781 -1.32825 0
M  V30 924 H 93.4461 4.15716 0.178825 0
M  V30 925 H 92.3221 5.44686 0.678837 0
M  V30 926 H 92.5831 4.06685 1.73379 0
M  V30 927 N 91.6422 0.330177 1.54103 0
M  V30 928 C 92.8882 -0.270806 2.00984 0
M  V30 929 C 93.2212 -1.51265 1.21789 0
M  V30 930 O 92.4962 -1.92142 0.301927 0
M  V30 931 C 92.7792 -0.598339 3.55094 0
M  V30 932 C 92.6322 0.654674 4.4501 0
M  V30 933 C 93.9512 -1.41334 4.16789 0
M  V30 934 H 91.0702 -0.0969531 0.730595 0
M  V30 935 H 93.7122 0.448066 1.84641 0
M  V30 936 H 91.8622 -1.21078 3.69151 0
M  V30 937 H 93.5342 1.29285 4.42813 0
M  V30 938 H 91.7772 1.28224 4.14416 0
M  V30 939 H 92.4482 0.380944 5.50684 0
M  V30 940 H 94.9242 -0.895597 4.06347 0
M  V30 941 H 93.8002 -1.61127 5.24718 0
M  V30 942 H 94.0612 -2.41146 3.70541 0
M  V30 943 N 93.1203 -1.57491 0.0584922 0
M  V30 944 C 94.0303 -2.15448 -0.928414 0
M  V30 945 C 95.0463 -1.11416 -1.3365 0
M  V30 946 O 96.2223 -1.4362 -1.41193 0
M  V30 947 C 93.2873 -2.69393 -2.18239 0
M  V30 948 C 92.3483 -3.88249 -1.83196 0
M  V30 949 C 91.5813 -4.39613 -3.02616 0
M  V30 950 O 91.8043 -3.90023 -4.16219 0
M  V30 951 O 90.7383 -5.31111 -2.83204 0
M  V30 952 H 94.5643 -3.00112 -0.465483 0
M  V30 953 H 92.1493 -1.48499 -0.163826 0
M  V30 954 H 94.0313 -3.04026 -2.91798 0
M  V30 955 H 92.7063 -1.87796 -2.63656 0
M  V30 956 H 91.6133 -3.58492 -1.06931 0
M  V30 957 H 92.9463 -4.71098 -1.42573 0
M  V30 958 N 94.5984 0.214957 -1.56127 0
M  V30 959 C 95.5284 1.2695 -1.95974 0
M  V30 960 C 96.5094 1.48539 -0.828868 0
M  V30 961 O 97.6944 1.60611 -1.09168 0
M  V30 962 C 94.8244 2.61794 -2.28214 0
M  V30 963 C 93.7784 2.54851 -3.43853 0
M  V30 964 C 93.1044 3.93785 -3.61715 0
M  V30 965 C 94.4044 2.09065 -4.78632 0
M  V30 966 H 96.0984 0.93846 -2.84312 0
M  V30 967 H 93.6444 0.449996 -1.36788 0
M  V30 968 H 95.5974 3.35731 -2.54682 0
M  V30 969 H 94.3214 2.96599 -1.36736 0
M  V30 970 H 92.9804 1.8337 -3.17444 0
M  V30 971 H 92.6284 4.25908 -2.67602 0
M  V30 972 H 92.3284 3.90019 -4.39498 0
M  V30 973 H 93.8524 4.69374 -3.90539 0
M  V30 974 H 95.2664 2.7275 -5.04262 0
M  V30 975 H 93.6634 2.16346 -5.59745 0
M  V30 976 H 94.7334 1.04315 -4.73547 0
M  V30 977 N 96.0765 1.50051 0.48192 0
M  V30 978 C 97.4875 1.5348 1.06305 0
M  V30 979 C 97.8385 0.331997 1.93371 0
M  V30 980 O 96.9635 -0.556256 2.09129 0
M  V30 981 C 97.5585 2.7813 1.93466 0
M  V30 982 C 96.1175 2.84275 2.46707 0
M  V30 983 C 95.2645 2.47637 1.24785 0
M  V30 984 H 98.2155 1.56472 0.264995 0
M  V30 985 H 98.2365 2.59372 2.78399 0
M  V30 986 H 97.7485 3.65654 1.30072 0
M  V30 987 H 95.8495 2.01077 3.13686 0
M  V30 988 H 95.9625 3.8691 2.82555 0
M  V30 989 H 94.3265 1.99835 1.57918 0
M  V30 990 H 95.1095 3.37457 0.630694 0
M  V30 991 N 97.5546 -0.734337 1.39446 0
M  V30 992 C 98.5176 -1.83004 1.37994 0
M  V30 993 C 99.5176 -1.58397 0.276938 0
M  V30 994 O 100.708 -1.65785 0.534875 0
M  V30 995 C 97.8396 -3.20802 1.1532 0
M  V30 996 H 99.0326 -1.85694 2.35494 0
M  V30 997 H 96.5856 -0.938059 1.25021 0
M  V30 998 H 97.3206 -3.23772 0.185036 0
M  V30 999 H 97.1056 -3.4006 1.95197 0
M  V30 1000 H 98.5956 -4.00862 1.17046 0
M  V30 1001 N 99.0327 -1.24633 -0.964593 0
M  V30 1002 C 100.31 -0.995809 -1.68354 0
M  V30 1003 C 100.69 0.480964 -2.05548 0
M  V30 1004 O 100.038 1.45599 -1.76105 0
M  V30 1005 C 100.248 -1.92177 -2.91323 0
M  V30 1006 C 101.596 -2.19446 -3.63495 0
M  V30 1007 O 102.62 -1.89855 -3.01386 0
M  V30 1008 O 101.479 -2.69714 -4.75307 0
M  V30 1009 H 98.5727 -0.376854 -0.736146 0
M  V30 1010 H 101.119 -1.35745 -1.0184 0
M  V30 1011 H 99.8907 -2.91938 -2.60553 0
M  V30 1012 H 99.5137 -1.56349 -3.65569 0
M  V30 1013 N 100.511 1.16574 -1.06058 0
M  V30 1014 C 101.421 2.2452 -0.680282 0
M  V30 1015 C 102.437 1.71348 0.302604 0
M  V30 1016 O 103.613 2.00822 0.152513 0
M  V30 1017 C 100.678 3.46629 -0.0700315 0
M  V30 1018 C 99.7388 4.14849 -1.10448 0
M  V30 1019 C 98.9718 5.31129 -0.523256 0
M  V30 1020 O 99.1948 5.66514 0.664709 0
M  V30 1021 O 98.1288 5.88526 -1.26179 0
M  V30 1022 H 101.955 2.59355 -1.58015 0
M  V30 1023 H 99.5398 1.24043 -0.832694 0
M  V30 1024 H 101.422 4.20543 0.268667 0
M  V30 1025 H 100.097 3.13573 0.803353 0
M  V30 1026 H 99.0038 3.42916 -1.49532 0
M  V30 1027 H 100.337 4.51954 -1.94931 0
M  V30 1028 N 101.989 0.842826 1.3317 0
M  V30 1029 C 103.214 0.453129 2.02389 0
M  V30 1030 C 103.639 -0.939105 1.6298 0
M  V30 1031 O 102.997 -1.61472 0.8244 0
M  V30 1032 C 103.045 0.586094 3.55805 0
M  V30 1033 O 102.149 -0.386029 4.10589 0
M  V30 1034 H 101.49 0.183664 0.638094 0
M  V30 1035 H 104.02 1.13875 1.69981 0
M  V30 1036 H 104.03 0.469209 4.05293 0
M  V30 1037 H 102.705 1.6014 3.83833 0
M  V30 1038 H 101.282 -0.226371 3.72212 0
M  V30 1039 N 103.467 -1.45747 0.599634 0
M  V30 1040 C 104.397 -2.33235 -0.111306 0
M  V30 1041 C 105.378 -1.46359 -0.866781 0
M  V30 1042 O 106.563 -1.75146 -0.838904 0
M  V30 1043 C 103.693 -3.28932 -1.11451 0
M  V30 1044 C 102.647 -4.25381 -0.472772 0
M  V30 1045 C 101.973 -5.1071 -1.58365 0
M  V30 1046 C 103.273 -5.18831 0.600948 0
M  V30 1047 H 104.967 -2.92927 0.61919 0
M  V30 1048 H 102.513 -1.40857 0.299215 0
M  V30 1049 H 104.466 -3.89002 -1.62036 0
M  V30 1050 H 103.19 -2.67381 -1.8755 0
M  V30 1051 H 101.849 -3.66598 0.0121472 0
M  V30 1052 H 101.497 -4.45533 -2.33473 0
M  V30 1053 H 101.197 -5.7604 -1.15982 0
M  V30 1054 H 102.721 -5.73647 -2.09194 0
M  V30 1055 H 104.135 -5.73019 0.179491 0
M  V30 1056 H 102.532 -5.92595 0.946076 0
M  V30 1057 H 103.602 -4.6174 1.48068 0
M  V30 1058 N 104.945 -0.338344 -1.53925 0
M  V30 1059 C 106.356 0.146651 -1.86123 0
M  V30 1060 C 106.707 1.5042 -1.2597 0
M  V30 1061 O 105.832 2.08723 -0.571294 0
M  V30 1062 C 106.427 0.272879 -3.37699 0
M  V30 1063 C 104.986 0.702103 -3.69794 0
M  V30 1064 C 104.133 -0.167304 -2.76795 0
M  V30 1065 H 107.084 -0.558123 -1.48562 0
M  V30 1066 H 107.105 1.10128 -3.64214 0
M  V30 1067 H 106.617 -0.715307 -3.81451 0
M  V30 1068 H 104.718 1.6995 -3.31584 0
M  V30 1069 H 104.831 0.495604 -4.7653 0
M  V30 1070 H 103.195 0.359527 -2.5215 0
M  V30 1071 H 103.978 -1.15253 -3.23375 0
M  V30 1072 N 106.423 1.57458 -0.0668435 0
M  V30 1073 C 107.7 1.8469 0.644132 0
M  V30 1074 C 108.08 0.958343 1.88093 0
M  V30 1075 O 107.428 0.0233579 2.28488 0
M  V30 1076 C 107.638 3.34767 0.986509 0
M  V30 1077 C 108.986 4.02159 1.36212 0
M  V30 1078 O 110.01 3.39484 1.07839 0
M  V30 1079 O 108.869 5.12694 1.89227 0
M  V30 1080 H 105.963 0.762816 0.319437 0
M  V30 1081 H 108.509 1.6942 -0.0973986 0
M  V30 1082 H 107.281 3.91151 0.107883 0
M  V30 1083 H 106.904 3.55281 1.78497 0
M  V30 1084 N 107.901 -0.206675 1.56239 0
M  V30 1085 C 109.141 -0.93574 1.81723 0
M  V30 1086 C 109.505 -1.80927 0.642609 0
M  V30 1087 O 110.706 -2.57323 0.777081 0
M  V30 1088 C 108.977 -1.74012 3.12177 0
M  V30 1089 S 110.536 -2.52279 3.59028 0
M  V30 1090 H 107.354 -0.314065 0.637875 0
M  V30 1091 H 109.956 -0.200071 1.94474 0
M  V30 1092 H 108.66 -1.0888 3.95693 0
M  V30 1093 H 108.191 -2.51782 3.02274 0
M  V30 1094 H 110.206 -3.76209 3.23545 0
M  V30 1095 N 109.379 -1.50304 -0.473955 0
M  V30 1096 C 110.625 -1.61389 -1.22806 0
M  V30 1097 C 110.958 -0.311955 -1.91678 0
M  V30 1098 O 110.233 0.686384 -1.81986 0
M  V30 1099 C 110.516 -2.79219 -2.27396 0
M  V30 1100 C 110.369 -4.19286 -1.62848 0
M  V30 1101 C 111.688 -2.92614 -3.28732 0
M  V30 1102 H 108.807 -0.587399 -0.445119 0
M  V30 1103 H 111.449 -1.82681 -0.522265 0
M  V30 1104 H 109.599 -2.61195 -2.87592 0
M  V30 1105 H 111.271 -4.48892 -1.06271 0
M  V30 1106 H 109.514 -4.23677 -0.931693 0
M  V30 1107 H 110.185 -4.97655 -2.38838 0
M  V30 1108 H 112.661 -3.09105 -2.78556 0
M  V30 1109 H 111.537 -3.76688 -3.99246 0
M  V30 1110 H 111.798 -2.03107 -3.92683 0
M  V30 1111 N 110.857 0.726932 -1.39834 0
M  V30 1112 C 112.104 1.48664 -1.37496 0
M  V30 1113 C 112.432 1.94482 0.0264678 0
M  V30 1114 O 111.687 1.67692 1.00886 0
M  V30 1115 C 111.986 2.73495 -2.30077 0
M  V30 1116 C 111.652 2.46502 -3.77555 0
M  V30 1117 C 110.314 2.3885 -4.17737 0
M  V30 1118 C 112.666 2.23604 -4.70798 0
M  V30 1119 C 109.994 2.06352 -5.49214 0
M  V30 1120 C 112.346 1.92622 -6.02561 0
M  V30 1121 C 111.01 1.83444 -6.41798 0
M  V30 1122 H 110.28 0.544001 -0.503135 0
M  V30 1123 H 112.927 0.833657 -1.72402 0
M  V30 1124 H 111.232 3.43575 -1.88317 0
M  V30 1125 H 112.929 3.31549 -2.25558 0
M  V30 1126 H 109.519 2.5334 -3.45712 0
M  V30 1127 H 113.703 2.28479 -4.40581 0
M  V30 1128 H 108.959 1.97776 -5.78528 0
M  V30 1129 H 113.133 1.73914 -6.74334 0
M  V30 1130 H 110.76 1.58029 -7.43593 0
M  V30 1131 N 112.336 1.25143 0.95797 0
M  V30 1132 C 113.582 1.09855 1.70469 0
M  V30 1133 C 113.915 -0.360187 1.90831 0
M  V30 1134 O 113.19 -1.26568 1.47685 0
M  V30 1135 C 113.473 1.8497 3.08963 0
M  V30 1136 C 113.326 3.38652 2.96032 0
M  V30 1137 C 114.645 1.63016 4.08795 0
M  V30 1138 H 111.764 0.400465 0.618706 0
M  V30 1139 H 114.406 1.53933 1.11376 0
M  V30 1140 H 112.556 1.47505 3.59409 0
M  V30 1141 H 114.228 3.85772 2.52938 0
M  V30 1142 H 112.471 3.66534 2.32025 0
M  V30 1143 H 113.142 3.8642 3.94187 0
M  V30 1144 H 115.618 1.95625 3.67247 0
M  V30 1145 H 114.494 2.18015 5.03747 0
M  V30 1146 H 114.755 0.570692 4.38401 0
M  V30 1147 N 113.814 -1.1601 1.06675 0
M  V30 1148 C 114.724 -2.24156 0.692179 0
M  V30 1149 C 115.74 -1.71507 -0.293513 0
M  V30 1150 O 116.916 -2.009 -0.141861 0
M  V30 1151 C 113.981 -3.46587 0.0884131 0
M  V30 1152 C 113.042 -4.14257 1.12646 0
M  V30 1153 C 112.275 -5.30844 0.551416 0
M  V30 1154 O 112.498 -5.66858 -0.634656 0
M  V30 1155 O 111.432 -5.87848 1.29298 0
M  V30 1156 H 115.258 -2.58513 1.59388 0
M  V30 1157 H 112.843 -1.23599 0.83926 0
M  V30 1158 H 114.725 -4.20679 -0.246361 0
M  V30 1159 H 113.4 -3.13994 -0.786712 0
M  V30 1160 H 112.307 -3.42118 1.51348 0
M  V30 1161 H 113.64 -4.50914 1.97325 0
M  V30 1162 N 115.292 -0.849877 -1.32721 0
M  V30 1163 C 116.569 -0.372405 -1.92022 0
M  V30 1164 C 116.949 1.1435 -1.77447 0
M  V30 1165 O 116.297 1.96296 -1.16962 0
M  V30 1166 C 116.507 -0.831482 -3.3895 0
M  V30 1167 C 117.855 -0.845882 -4.16089 0
M  V30 1168 O 118.879 -0.775806 -3.47649 0
M  V30 1169 O 117.738 -0.943753 -5.38289 0
M  V30 1170 H 114.832 -0.107667 -0.819961 0
M  V30 1171 H 117.378 -0.93646 -1.41522 0
M  V30 1172 H 116.15 -1.87448 -3.4348 0
M  V30 1173 H 115.773 -0.24461 -3.96847 0
M  V30 1174 N 116.77 1.45427 -0.607355 0
M  V30 1175 C 118.016 2.0254 -0.102607 0
M  V30 1176 C 118.349 1.47478 1.26348 0
M  V30 1177 O 117.624 0.64939 1.83339 0
M  V30 1178 C 117.907 3.60044 -0.0634347 0
M  V30 1179 C 117.76 4.2544 -1.46017 0
M  V30 1180 C 119.079 4.35646 0.624514 0
M  V30 1181 H 116.198 0.73598 -0.0387607 0
M  V30 1182 H 118.84 1.73284 -0.779282 0
M  V30 1183 H 116.99 3.85101 0.512808 0
M  V30 1184 H 118.662 4.11569 -2.08347 0
M  V30 1185 H 116.905 3.83849 -2.02094 0
M  V30 1186 H 117.576 5.34342 -1.385 0
M  V30 1187 H 120.052 4.15882 0.134723 0
M  V30 1188 H 118.928 5.45376 0.621028 0
M  V30 1189 H 119.189 4.08501 1.69055 0
M  V30 1190 N 118.248 0.346503 1.53744 0
M  V30 1191 C 119.211 -0.496439 2.23759 0
M  V30 1192 C 120.211 -1.0252 1.2388 0
M  V30 1193 O 121.401 -0.913974 1.48297 0
M  V30 1194 C 118.533 -1.69187 2.95954 0
M  V30 1195 H 119.726 0.115952 2.99676 0
M  V30 1196 H 117.279 0.0978939 1.55993 0
M  V30 1197 H 118.014 -2.34288 2.24231 0
M  V30 1198 H 117.799 -1.31989 3.69217 0
M  V30 1199 H 119.289 -2.28969 3.49232 0
M  V30 1200 N 119.726 -1.57421 0.075193 0
M  V30 1201 C 120.972 -1.93905 -0.594025 0
M  V30 1202 C 121.305 -0.955701 -1.69056 0
M  V30 1203 O 120.58 0.0145373 -1.94495 0
M  V30 1204 C 120.863 -3.40638 -1.1678 0
M  V30 1205 C 120.716 -4.49733 -0.0776792 0
M  V30 1206 C 122.035 -3.88259 -2.07228 0
M  V30 1207 H 119.154 -0.705105 -0.214466 0
M  V30 1208 H 121.796 -1.8947 0.141854 0
M  V30 1209 H 119.946 -3.44549 -1.79494 0
M  V30 1210 H 121.618 -4.57942 0.555573 0
M  V30 1211 H 119.861 -4.29751 0.591286 0
M  V30 1212 H 120.532 -5.49549 -0.519603 0
M  V30 1213 H 123.008 -3.86376 -1.54445 0
M  V30 1214 H 121.884 -4.91533 -2.44308 0
M  V30 1215 H 122.145 -3.26396 -2.98191 0
M  V30 1216 N 121.204 0.198386 -1.56346 0
M  V30 1217 C 122.45 0.920648 -1.80698 0
M  V30 1218 C 122.783 1.83045 -0.648697 0
M  V30 1219 O 122.058 1.91308 0.350925 0
M  V30 1220 C 122.341 1.73971 -3.15287 0
M  V30 1221 C 122.194 0.85485 -4.41602 0
M  V30 1222 C 123.513 2.71296 -3.46535 0
M  V30 1223 H 120.632 0.333261 -0.657348 0
M  V30 1224 H 123.274 0.188198 -1.89066 0
M  V30 1225 H 121.424 2.36416 -3.08285 0
M  V30 1226 H 123.096 0.245362 -4.60647 0
M  V30 1227 H 121.339 0.161398 -4.335 0
M  V30 1228 H 122.01 1.46286 -5.32264 0
M  V30 1229 H 124.486 2.18983 -3.53816 0
M  V30 1230 H 123.362 3.2569 -4.41834 0
M  V30 1231 H 123.623 3.5018 -2.69864 0
M  V30 1232 N 122.682 1.50554 0.465978 0
M  V30 1233 C 123.922 1.63439 1.22747 0
M  V30 1234 C 124.286 0.329822 1.89146 0
M  V30 1235 O 125.487 0.334161 2.66715 0
M  V30 1236 C 123.758 2.78542 2.2394 0
M  V30 1237 S 125.317 3.11591 3.0896 0
M  V30 1238 H 122.135 0.576113 0.416672 0
M  V30 1239 H 124.737 1.88357 0.523641 0
M  V30 1240 H 123.441 3.71805 1.7375 0
M  V30 1241 H 122.972 2.55726 2.98944 0
M  V30 1242 H 124.987 2.55811 4.25176 0
M  V30 1243 N 124.16 -0.719506 1.40217 0
M  V30 1244 C 125.07 -1.86378 1.42479 0
M  V30 1245 C 126.086 -1.71073 0.317834 0
M  V30 1246 O 127.262 -1.93406 0.561794 0
M  V30 1247 C 124.327 -3.22136 1.28178 0
M  V30 1248 C 123.388 -3.49723 2.48982 0
M  V30 1249 C 122.621 -4.79004 2.35353 0
M  V30 1250 O 122.844 -5.53821 1.36524 0
M  V30 1251 O 121.778 -5.06839 3.2465 0
M  V30 1252 H 125.604 -1.87425 2.38968 0
M  V30 1253 H 123.189 -0.869405 1.21498 0
M  V30 1254 H 125.071 -4.03234 1.22395 0
M  V30 1255 H 123.746 -3.21825 0.347934 0
M  V30 1256 H 122.653 -2.6865 2.60342 0
M  V30 1257 H 123.986 -3.54828 3.41113 0
M  V30 1258 N 125.638 -1.25649 -0.95132 0
M  V30 1259 C 126.548 -1.08073 -2.08224 0
M  V30 1260 C 127.564 -0.0169666 -1.73992 0
M  V30 1261 O 128.74 -0.218593 -2.0021 0
M  V30 1262 C 125.805 -0.704922 -3.39458 0
M  V30 1263 C 124.866 -1.84699 -3.87537 0
M  V30 1264 C 124.099 -1.48902 -5.12508 0
M  V30 1265 O 124.322 -0.386156 -5.69091 0
M  V30 1266 O 123.256 -2.32033 -5.55378 0
M  V30 1267 H 127.082 -2.02924 -2.25954 0
M  V30 1268 H 124.667 -1.04618 -1.06656 0
M  V30 1269 H 126.549 -0.507609 -4.18332 0
M  V30 1270 H 125.224 0.214291 -3.2299 0
M  V30 1271 H 124.131 -2.09919 -3.09653 0
M  V30 1272 H 125.464 -2.74557 -4.08509 0
M  V30 1273 N 127.117 1.15442 -1.07289 0
M  V30 1274 C 128.345 1.90096 -0.81676 0
M  V30 1275 C 128.76 1.7798 0.629966 0
M  V30 1276 O 128.117 1.1313 1.43206 0
M  V30 1277 C 128.168 3.40466 -1.21512 0
M  V30 1278 O 127.889 3.52232 -2.60508 0
M  V30 1279 C 129.39 4.32145 -0.988198 0
M  V30 1280 H 126.61 0.602495 -0.295366 0
M  V30 1281 H 129.154 1.4627 -1.42918 0
M  V30 1282 H 127.309 3.81958 -0.647039 0
M  V30 1283 H 127.723 4.45549 -2.76742 0
M  V30 1284 H 129.197 5.36072 -1.31645 0
M  V30 1285 H 129.674 4.39135 0.0755063 0
M  V30 1286 H 130.28 3.96395 -1.54115 0
M  V30 1287 N 128.595 0.856903 1.32268 0
M  V30 1288 C 129.558 0.308171 2.27119 0
M  V30 1289 C 130.558 -0.533421 1.51695 0
M  V30 1290 O 131.748 -0.344607 1.70757 0
M  V30 1291 C 128.88 -0.563757 3.36206 0
M  V30 1292 H 130.073 1.14535 2.77167 0
M  V30 1293 H 127.626 0.631421 1.42978 0
M  V30 1294 H 128.361 -1.42266 2.91429 0
M  V30 1295 H 128.146 0.0386749 3.92081 0
M  V30 1296 H 129.636 -0.940386 4.06874 0
M  V30 1297 N 130.073 -1.45103 0.615059 0
M  V30 1298 C 131.003 -2.33339 -0.0865619 0
M  V30 1299 C 131.984 -1.4727 -0.851209 0
M  V30 1300 O 133.169 -1.76026 -0.820281 0
M  V30 1301 C 130.299 -3.30095 -1.07956 0
M  V30 1302 C 129.253 -4.25858 -0.427628 0
M  V30 1303 C 128.579 -5.12361 -1.5294 0
M  V30 1304 C 129.879 -5.18165 0.655944 0
M  V30 1305 H 131.573 -2.92254 0.650224 0
M  V30 1306 H 129.119 -1.40532 0.314138 0
M  V30 1307 H 131.072 -3.90698 -1.57901 0
M  V30 1308 H 129.796 -2.69355 -1.84703 0
M  V30 1309 H 128.455 -3.66564 0.0510292 0
M  V30 1310 H 128.103 -4.47984 -2.28734 0
M  V30 1311 H 127.803 -5.77238 -1.09865 0
M  V30 1312 H 129.327 -5.75833 -2.03098 0
M  V30 1313 H 130.741 -5.72796 0.240257 0
M  V30 1314 H 129.138 -5.91559 1.00888 0
M  V30 1315 H 130.208 -4.60144 1.52957 0
M  V30 1316 N 131.551 -0.354651 -1.53558 0
M  V30 1317 C 132.8 0.239504 -2.00273 0
M  V30 1318 C 133.113 1.50759 -1.24623 0
M  V30 1319 O 134.319 2.17968 -1.61871 0
M  V30 1320 C 132.775 0.477341 -3.5672 0
M  V30 1321 C 132.383 -0.775488 -4.41237 0
M  V30 1322 C 134.127 1.02975 -4.11821 0
M  V30 1323 C 132.034 -0.507838 -5.89216 0
M  V30 1324 H 130.964 0.0932743 -0.748208 0
M  V30 1325 H 133.615 -0.471701 -1.77334 0
M  V30 1326 H 131.997 1.24953 -3.7577 0
M  V30 1327 H 133.171 -1.54963 -4.33962 0
M  V30 1328 H 131.486 -1.25033 -3.97185 0
M  V30 1329 H 134.083 1.24513 -5.2 0
M  V30 1330 H 134.426 1.98862 -3.65731 0
M  V30 1331 H 134.959 0.317994 -3.96527 0
M  V30 1332 H 131.698 -1.43674 -6.39561 0
M  V30 1333 H 131.218 0.228011 -5.99366 0
M  V30 1334 H 132.897 -0.129238 -6.46871 0
M  V30 1335 N 133.029 1.57378 -0.0835403 0
M  V30 1336 C 134.257 1.98263 0.59157 0
M  V30 1337 C 134.672 0.962302 1.62435 0
M  V30 1338 O 134.029 -0.049581 1.82433 0
M  V30 1339 C 134.08 3.39214 1.24965 0
M  V30 1340 O 133.801 4.37339 0.258186 0
M  V30 1341 C 135.302 3.95038 2.01147 0
M  V30 1342 H 132.522 0.651773 0.159477 0
M  V30 1343 H 135.066 2.03878 -0.159415 0
M  V30 1344 H 133.221 3.34649 1.95164 0
M  V30 1345 H 133.635 5.19371 0.731734 0
M  V30 1346 H 135.109 4.95848 2.42567 0
M  V30 1347 H 135.586 3.32222 2.87272 0
M  V30 1348 H 136.192 4.0304 1.35789 0
M  V30 1349 N 134.507 -0.190092 1.56449 0
M  V30 1350 C 135.923 -0.54113 1.50146 0
M  V30 1351 C 136.123 -1.85603 0.784465 0
M  V30 1352 O 135.179 -2.5024 0.337051 0
M  V30 1353 C 136.492 -0.591241 2.9483 0
M  V30 1354 C 138.04 -0.679732 3.0553 0
M  V30 1355 C 138.515 -0.760908 4.51635 0
M  V30 1356 N 140.006 -0.824302 4.55806 0
M  V30 1357 C 140.741 -0.907365 5.66175 0
M  V30 1358 N 140.237 -0.952422 6.86222 0
M  V30 1359 N 142.03 -0.94494 5.541 0
M  V30 1360 H 134.181 0.67235 2.01478 0
M  V30 1361 H 136.444 0.240127 0.917084 0
M  V30 1362 H 136.15 0.305905 3.50367 0
M  V30 1363 H 136.024 -1.44422 3.48457 0
M  V30 1364 H 138.411 -1.56731 2.50039 0
M  V30 1365 H 138.492 0.199549 2.5502 0
M  V30 1366 H 138.136 0.122336 5.07753 0
M  V30 1367 H 138.066 -1.65606 4.99882 0
M  V30 1368 H 140.557 -0.798526 3.69367 0
M  V30 1369 H 140.87 -1.01645 7.66086 0
M  V30 1370 H 139.215 -0.921014 6.8887 0
M  V30 1371 H 142.406 -0.906612 4.59236 0
M  V30 1372 H 142.579 -1.00622 6.4014 0
M  V30 1373 N 135.985 -1.50799 -0.457987 0
M  V30 1374 C 137.396 -1.55152 -1.0385 0
M  V30 1375 C 137.747 -0.362719 -1.92818 0
M  V30 1376 O 136.872 0.522915 -2.09987 0
M  V30 1377 C 137.467 -2.81173 -1.89017 0
M  V30 1378 C 136.026 -2.88164 -2.42154 0
M  V30 1379 C 135.173 -2.49591 -1.20829 0
M  V30 1380 H 138.124 -1.56874 -0.240068 0
M  V30 1381 H 138.145 -2.63769 -2.74238 0
M  V30 1382 H 137.657 -3.67677 -1.24238 0
M  V30 1383 H 135.758 -2.06042 -3.10447 0
M  V30 1384 H 135.871 -3.91356 -2.76364 0
M  V30 1385 H 134.235 -2.02322 -1.54719 0
M  V30 1386 H 135.018 -3.38418 -0.576927 0
M  V30 1387 N 137.463 0.71206 -1.40597 0
M  V30 1388 C 138.711 1.46907 -1.38791 0
M  V30 1389 C 139.032 1.94998 0.00780391 0
M  V30 1390 O 138.302 1.70587 0.963174 0
M  V30 1391 H 136.882 0.545043 -0.51082 0
M  V30 1392 H 139.544 0.843882 -1.75683 0
M  V30 1393 H 138.64 2.34021 -2.06496 0
M  V30 1394 N 138.941 1.26152 0.944643 0
M  V30 1395 C 139.904 1.07474 2.0244 0
M  V30 1396 C 140.904 0.0242064 1.60782 0
M  V30 1397 O 142.094 0.267302 1.72137 0
M  V30 1398 C 139.226 0.633956 3.34953 0
M  V30 1399 H 140.419 2.03336 2.20442 0
M  V30 1400 H 137.972 1.087 1.12312 0
M  V30 1401 H 138.707 -0.326811 3.22649 0
M  V30 1402 H 138.492 1.39247 3.66542 0
M  V30 1403 H 139.982 0.52501 4.14287 0
M  V30 1404 N 140.419 -1.14872 1.07899 0
M  V30 1405 C 141.83 -1.67367 0.827363 0
M  V30 1406 C 142.181 -1.85236 -0.646693 0
M  V30 1407 O 141.306 -1.55974 -1.50004 0
M  V30 1408 C 141.901 -3.04016 1.49532 0
M  V30 1409 C 140.46 -3.53566 1.29106 0
M  V30 1410 C 139.607 -2.29161 1.56143 0
M  V30 1411 H 142.558 -0.990083 1.24028 0
M  V30 1412 H 142.579 -3.69219 0.919643 0
M  V30 1413 H 142.091 -2.90978 2.56814 0
M  V30 1414 H 140.192 -3.71835 0.238713 0
M  V30 1415 H 140.305 -4.34661 2.01511 0
M  V30 1416 H 138.669 -2.34978 0.982717 0
M  V30 1417 H 139.452 -2.18705 2.64619 0
M  V30 1418 N 141.898 -0.863906 -1.31812 0
M  V30 1419 C 143.123 -0.48527 -2.01643 0
M  V30 1420 C 143.548 0.913058 -1.64453 0
M  V30 1421 O 142.906 1.6014 -0.849985 0
M  V30 1422 C 142.954 -0.642625 -3.54828 0
M  V30 1423 O 142.058 0.320659 -4.11151 0
M  V30 1424 H 141.399 -0.193793 -0.635091 0
M  V30 1425 H 143.929 -1.16565 -1.68148 0
M  V30 1426 H 143.939 -0.533628 -4.04495 0
M  V30 1427 H 142.614 -1.66227 -3.81237 0
M  V30 1428 H 141.191 0.167126 -3.72525 0
M  V30 1429 N 143.376 1.44774 -0.622745 0
M  V30 1430 C 144.792 1.56986 -0.287652 0
M  V30 1431 C 144.992 1.61167 1.20944 0
M  V30 1432 O 144.048 1.55015 1.99315 0
M  V30 1433 C 145.361 2.84551 -0.972188 0
M  V30 1434 C 146.909 2.9825 -0.949536 0
M  V30 1435 C 147.384 4.28605 -1.61437 0
M  V30 1436 N 148.875 4.35399 -1.58057 0
M  V30 1437 C 149.61 5.34964 -2.064 0
M  V30 1438 N 149.106 6.40981 -2.62897 0
M  V30 1439 N 150.899 5.26419 -1.97078 0
M  V30 1440 H 143.05 1.40304 -1.59463 0
M  V30 1441 H 145.313 0.671794 -0.668878 0
M  V30 1442 H 145.019 2.87417 -2.02693 0
M  V30 1443 H 144.893 3.73807 -0.504771 0
M  V30 1444 H 147.28 2.94941 0.0967067 0
M  V30 1445 H 147.361 2.10364 -1.45536 0
M  V30 1446 H 147.005 4.32672 -2.66002 0
M  V30 1447 H 146.935 5.15334 -1.08344 0
M  V30 1448 H 149.426 3.59397 -1.16801 0
M  V30 1449 H 149.739 7.13225 -2.97539 0
M  V30 1450 H 148.084 6.4169 -2.66943 0
M  V30 1451 H 151.275 4.42504 -1.52669 0
M  V30 1452 H 151.448 6.03861 -2.35066 0
M  V30 1453 N 144.854 0.36279 1.53368 0
M  V30 1454 C 146.27 0.0116182 1.59596 0
M  V30 1455 C 146.47 -1.47012 1.37803 0
M  V30 1456 O 145.526 -2.23136 1.18181 0
M  V30 1457 C 146.839 0.465052 2.97082 0
M  V30 1458 C 148.387 0.419033 3.10182 0
M  V30 1459 C 148.862 0.848235 4.50077 0
M  V30 1460 N 150.353 0.803183 4.56183 0
M  V30 1461 C 151.088 1.107 5.62613 0
M  V30 1462 N 150.584 1.47996 6.76808 0
M  V30 1463 N 152.377 1.02998 5.52583 0
M  V30 1464 H 144.528 1.32775 1.65785 0
M  V30 1465 H 146.791 0.542518 0.777417 0
M  V30 1466 H 146.497 1.49892 3.18159 0
M  V30 1467 H 146.371 -0.149786 3.76902 0
M  V30 1468 H 148.758 -0.605696 2.88817 0
M  V30 1469 H 148.839 1.06933 2.32377 0
M  V30 1470 H 148.483 1.87107 4.7218 0
M  V30 1471 H 148.413 0.175218 5.26308 0
M  V30 1472 H 150.904 0.52838 3.74188 0
M  V30 1473 H 151.217 1.69613 7.53957 0
M  V30 1474 H 149.562 1.51859 6.78206 0
M  V30 1475 H 152.753 0.737817 4.62249 0
M  V30 1476 H 152.926 1.2701 6.35431 0
M  V30 1477 N 146.332 -1.57332 0.0918853 0
M  V30 1478 C 147.279 -2.13847 -0.868211 0
M  V30 1479 C 148.249 -1.05618 -1.28196 0
M  V30 1480 O 149.434 -1.33387 -1.36427 0
M  V30 1481 C 146.574 -2.72062 -2.12312 0
M  V30 1482 C 145.687 -3.94514 -1.7602 0
M  V30 1483 C 144.822 -4.40903 -2.96273 0
M  V30 1484 C 143.861 -5.55953 -2.56092 0
M  V30 1485 N 142.998 -5.97209 -3.69169 0
M  V30 1486 H 147.838 -2.95575 -0.379406 0
M  V30 1487 H 145.375 -1.46048 -0.175606 0
M  V30 1488 H 147.333 -3.03931 -2.858 0
M  V30 1489 H 145.963 -1.93068 -2.58698 0
M  V30 1490 H 145.015 -3.68979 -0.925135 0
M  V30 1491 H 146.327 -4.7802 -1.42472 0
M  V30 1492 H 145.481 -4.74539 -3.78018 0
M  V30 1493 H 144.22 -3.56291 -3.33029 0
M  V30 1494 H 143.225 -5.21948 -1.72773 0
M  V30 1495 H 144.45 -6.42311 -2.20484 0
M  V30 1496 H 142.396 -5.15543 -4.05649 0
M  V30 1497 H 142.313 -6.75504 -3.39456 0
M  V30 1498 H 143.581 -6.35475 -4.51434 0
M  V30 1499 N 147.81 0.181792 -1.56548 0
M  V30 1500 C 148.72 1.24538 -1.98815 0
M  V30 1501 C 149.736 1.49045 -0.897861 0
M  V30 1502 O 150.912 1.61399 -1.20467 0
M  V30 1503 C 147.977 2.56683 -2.33055 0
M  V30 1504 C 147.038 2.40131 -3.55859 0
M  V30 1505 C 146.271 3.65975 -3.88456 0
M  V30 1506 O 146.494 4.70711 -3.22161 0
M  V30 1507 O 145.428 3.6071 -4.81842 0
M  V30 1508 H 149.254 0.916647 -2.89536 0
M  V30 1509 H 146.839 0.387842 -1.44278 0
M  V30 1510 H 148.721 3.34655 -2.56094 0
M  V30 1511 H 147.396 2.89157 -1.45498 0
M  V30 1512 H 146.303 1.60226 -3.38051 0
M  V30 1513 H 147.636 2.12585 -4.43924 0
M  V30 1514 N 149.288 1.51039 0.449983 0
M  V30 1515 C 150.534 1.63322 1.20223 0
M  V30 1516 C 150.867 0.34241 1.91158 0
M  V30 1517 O 150.142 -0.657344 1.83055 0
M  V30 1518 C 150.425 2.82801 2.22925 0
M  V30 1519 C 150.278 4.21823 1.56157 0
M  V30 1520 C 151.597 2.97807 3.24035 0
M  V30 1521 H 148.716 0.594407 0.435718 0
M  V30 1522 H 151.358 1.83489 0.493136 0
M  V30 1523 H 149.508 2.65738 2.834 0
M  V30 1524 H 151.18 4.50526 0.991162 0
M  V30 1525 H 149.423 4.25105 0.864172 0
M  V30 1526 H 150.094 5.01391 2.30891 0
M  V30 1527 H 152.57 3.13497 2.73603 0
M  V30 1528 H 151.446 3.82992 3.93202 0
M  V30 1529 H 151.707 2.09328 3.89402 0
M  V30 1530 N 150.766 -0.704594 1.40972 0
M  V30 1531 C 152.043 -1.45847 1.30338 0
M  V30 1532 C 152.423 -2.10973 -0.0732344 0
M  V30 1533 O 151.771 -2.00997 -1.08685 0
M  V30 1534 C 151.981 -2.48525 2.45023 0
M  V30 1535 C 153.329 -3.1404 2.8577 0
M  V30 1536 O 154.353 -2.58848 2.44696 0
M  V30 1537 O 153.212 -4.13981 3.56766 0
M  V30 1538 H 150.306 -0.649092 0.512454 0
M  V30 1539 H 152.852 -0.735836 1.52917 0
M  V30 1540 H 151.624 -1.98994 3.36923 0
M  V30 1541 H 151.247 -3.2831 2.24272 0
M  V30 1542 N 152.244 -1.26651 -0.937939 0
M  V30 1543 C 153.177 -1.02811 -2.03728 0
M  V30 1544 C 154.155 0.0481915 -1.62529 0
M  V30 1545 O 155.339 -0.0948839 -1.88261 0
M  V30 1546 C 152.466 -0.557517 -3.3408 0
M  V30 1547 C 151.512 -1.62686 -3.94253 0
M  V30 1548 S 152.345 -3.21667 -4.28125 0
M  V30 1549 C 153.501 -2.76384 -5.61572 0
M  V30 1550 H 153.734 -1.95891 -2.23638 0
M  V30 1551 H 151.267 -1.10367 -1.07974 0
M  V30 1552 H 153.225 -0.292674 -4.09455 0
M  V30 1553 H 151.886 0.353062 -3.12109 0
M  V30 1554 H 151.079 -1.24866 -4.88287 0
M  V30 1555 H 150.681 -1.84324 -3.25424 0
M  V30 1556 H 152.973 -2.2105 -6.40424 0
M  V30 1557 H 153.916 -3.69123 -6.0428 0
M  V30 1558 H 154.324 -2.15847 -5.21604 0
M  V30 1559 N 153.722 1.14298 -1.08507 0
M  V30 1560 C 154.655 2.18447 -0.660004 0
M  V30 1561 C 155.633 1.59242 0.328749 0
M  V30 1562 O 156.817 1.87062 0.232367 0
M  V30 1563 C 153.944 3.38688 0.0290807 0
M  V30 1564 C 152.99 4.1646 -0.919982 0
M  V30 1565 S 153.823 4.77334 -2.42718 0
M  V30 1566 C 154.979 6.00931 -1.75024 0
M  V30 1567 H 155.212 2.54166 -1.54231 0
M  V30 1568 H 152.745 1.25446 -0.900149 0
M  V30 1569 H 154.703 4.08342 0.420378 0
M  V30 1570 H 153.364 3.01289 0.887895 0
M  V30 1571 H 152.557 5.02529 -0.384751 0
M  V30 1572 H 152.159 3.52414 -1.25223 0
M  V30 1573 H 154.451 6.69017 -1.06877 0
M  V30 1574 H 155.394 6.59044 -2.58971 0
M  V30 1575 H 155.802 5.51089 -1.22317 0
M  V30 1576 N 155.201 0.870884 1.31352 0
M  V30 1577 C 156.148 0.325425 2.28494 0
M  V30 1578 C 157.118 -0.576615 1.5577 0
M  V30 1579 O 158.303 -0.508059 1.83911 0
M  V30 1580 C 155.443 -0.466283 3.41935 0
M  V30 1581 C 154.556 0.463378 4.29508 0
M  V30 1582 C 153.691 -0.342544 5.30094 0
M  V30 1583 C 152.73 0.583486 6.09313 0
M  V30 1584 N 151.867 -0.186244 7.01853 0
M  V30 1585 H 156.707 1.15901 2.74538 0
M  V30 1586 H 154.244 0.58294 1.35056 0
M  V30 1587 H 156.202 -0.941085 4.06447 0
M  V30 1588 H 154.832 -1.26456 2.97 0
M  V30 1589 H 153.884 1.05663 3.65431 0
M  V30 1590 H 155.196 1.1734 4.84802 0
M  V30 1591 H 154.35 -0.879816 6.00287 0
M  V30 1592 H 153.089 -1.08585 4.75458 0
M  V30 1593 H 152.094 1.13251 5.3801 0
M  V30 1594 H 153.319 1.32566 6.66035 0
M  V30 1595 H 151.265 -0.912348 6.49625 0
M  V30 1596 H 151.182 0.464422 7.54572 0
M  V30 1597 H 152.45 -0.704716 7.76308 0
M  V30 1598 N 156.679 -1.44442 0.630414 0
M  V30 1599 C 157.589 -2.34476 -0.0761693 0
M  V30 1600 C 158.605 -1.52576 -0.836449 0
M  V30 1601 O 159.781 -1.85307 -0.788874 0
M  V30 1602 C 156.846 -3.30545 -1.04599 0
M  V30 1603 C 155.907 -4.28352 -0.28516 0
M  V30 1604 C 155.14 -5.19831 -1.20878 0
M  V30 1605 O 155.363 -5.15223 -2.44747 0
M  V30 1606 O 154.297 -5.97892 -0.693491 0
M  V30 1607 H 158.123 -2.96345 0.664324 0
M  V30 1608 H 155.708 -1.44203 0.39061 0
M  V30 1609 H 157.59 -3.89681 -1.60396 0
M  V30 1610 H 156.265 -2.7121 -1.76711 0
M  V30 1611 H 155.172 -3.72764 0.315837 0
M  V30 1612 H 156.505 -4.90605 0.395924 0
M  V30 1613 N 158.157 -0.370918 -1.53173 0
M  V30 1614 C 159.12 0.460778 -2.24521 0
M  V30 1615 C 160.12 1.00536 -1.25496 0
M  V30 1616 O 161.31 0.890266 -1.49733 0
M  V30 1617 C 158.442 1.64457 -2.98608 0
M  V30 1618 H 159.635 -0.163613 -2.99453 0
M  V30 1619 H 157.188 -0.122699 -1.55818 0
M  V30 1620 H 157.923 2.30691 -2.2793 0
M  V30 1621 H 157.708 1.26099 -3.7127 0
M  V30 1622 H 159.198 2.23384 -3.5283 0
M  V30 1623 N 159.635 1.57281 -0.100228 0
M  V30 1624 C 160.565 2.17328 0.853857 0
M  V30 1625 C 161.546 1.10804 1.2906 0
M  V30 1626 O 162.731 1.38963 1.35657 0
M  V30 1627 C 159.861 2.75772 2.11109 0
M  V30 1628 C 158.815 3.87713 1.81279 0
M  V30 1629 C 158.141 4.32882 3.13874 0
M  V30 1630 C 159.441 5.10677 1.09574 0
M  V30 1631 H 161.135 2.97305 0.353545 0
M  V30 1632 H 158.681 1.43009 0.168612 0
M  V30 1633 H 160.634 3.16433 2.78296 0
M  V30 1634 H 159.358 1.93057 2.63432 0
M  V30 1635 H 158.017 3.476 1.16489 0
M  V30 1636 H 157.665 3.47051 3.64095 0
M  V30 1637 H 157.365 5.08358 2.94696 0
M  V30 1638 H 158.889 4.7618 3.82211 0
M  V30 1639 H 160.303 5.48474 1.66879 0
M  V30 1640 H 158.7 5.91615 1.00557 0
M  V30 1641 H 159.77 4.84835 0.0793299 0
M  V30 1642 N 161.113 -0.173488 1.56642 0
M  V30 1643 C 162.023 -1.23482 1.99473 0
M  V30 1644 C 163.039 -1.48567 0.905752 0
M  V30 1645 O 164.215 -1.60758 1.21321 0
M  V30 1646 C 161.28 -2.55444 2.34413 0
M  V30 1647 C 160.341 -2.38241 3.57127 0
M  V30 1648 C 159.574 -3.63909 3.90392 0
M  V30 1649 O 159.797 -4.68996 3.24653 0
M  V30 1650 O 158.731 -3.58149 4.83749 0
M  V30 1651 H 162.557 -0.901279 2.90018 0
M  V30 1652 H 160.142 -0.380185 1.44482 0
M  V30 1653 H 162.024 -3.33292 2.57865 0
M  V30 1654 H 160.699 -2.88382 1.4703 0
M  V30 1655 H 159.606 -1.58431 3.38896 0
M  V30 1656 H 160.939 -2.10228 4.45045 0
M  V30 1657 N 162.591 -1.51276 -0.441967 0
M  V30 1658 C 163.538 -1.72256 -1.53612 0
M  V30 1659 C 164.508 -0.564164 -1.56225 0
M  V30 1660 O 165.693 -0.798074 -1.73307 0
M  V30 1661 C 162.833 -1.84932 -2.91366 0
M  V30 1662 C 161.946 -3.12459 -2.98317 0
M  V30 1663 C 161.081 -3.15758 -4.27166 0
M  V30 1664 C 160.12 -4.37619 -4.27967 0
M  V30 1665 N 159.257 -4.38493 -5.48333 0
M  V30 1666 H 164.097 -2.65654 -1.35026 0
M  V30 1667 H 161.634 -1.31662 -0.656009 0
M  V30 1668 H 163.592 -1.90263 -3.7129 0
M  V30 1669 H 162.222 -0.949461 -3.08521 0
M  V30 1670 H 161.274 -3.1646 -2.11086 0
M  V30 1671 H 162.586 -4.02382 -2.94771 0
M  V30 1672 H 161.74 -3.19979 -5.15459 0
M  V30 1673 H 160.479 -2.23715 -4.33362 0
M  V30 1674 H 159.484 -4.33579 -3.38067 0
M  V30 1675 H 160.709 -5.30921 -4.23438 0
M  V30 1676 H 158.655 -3.49318 -5.55259 0
M  V30 1677 H 158.572 -5.22219 -5.46647 0
M  V30 1678 H 159.84 -4.469 -6.38671 0
M  V30 1679 N 164.069 0.697108 -1.41344 0
M  V30 1680 C 164.999 1.82353 -1.45841 0
M  V30 1681 C 165.98 1.67115 -0.317247 0
M  V30 1682 O 167.165 1.86871 -0.528474 0
M  V30 1683 C 164.295 3.20476 -1.33838 0
M  V30 1684 C 163.249 3.50415 -2.4575 0
M  V30 1685 C 162.575 4.87878 -2.18813 0
M  V30 1686 C 163.875 3.49546 -3.88091 0
M  V30 1687 H 165.569 1.78846 -2.40113 0
M  V30 1688 H 163.115 0.859028 -1.15571 0
M  V30 1689 H 165.068 3.98988 -1.35596 0
M  V30 1690 H 163.792 3.24604 -0.360498 0
M  V30 1691 H 162.451 2.74253 -2.43271 0
M  V30 1692 H 162.099 4.8863 -1.19371 0
M  V30 1693 H 161.799 5.08875 -2.93803 0
M  V30 1694 H 163.323 5.68702 -2.22284 0
M  V30 1695 H 164.737 4.18066 -3.92293 0
M  V30 1696 H 163.134 3.82075 -4.62751 0
M  V30 1697 H 164.204 2.48552 -4.16353 0
M  V30 1698 N 165.547 1.27147 0.931209 0
M  V30 1699 C 166.479 1.05364 2.03546 0
M  V30 1700 C 167.492 0.0108438 1.62796 0
M  V30 1701 O 168.681 0.25202 1.76712 0
M  V30 1702 C 165.781 0.575566 3.33977 0
M  V30 1703 C 164.954 1.68985 4.03439 0
M  V30 1704 C 164.013 1.20813 5.12143 0
M  V30 1705 O 163.039 1.90712 5.363 0
M  V30 1706 N 164.241 0.0618851 5.80467 0
M  V30 1707 H 167.006 2.00454 2.22796 0
M  V30 1708 H 164.567 1.18666 1.10136 0
M  V30 1709 H 166.559 0.237264 4.04004 0
M  V30 1710 H 165.129 -0.282016 3.11325 0
M  V30 1711 H 164.349 2.19861 3.27192 0
M  V30 1712 H 165.637 2.4378 4.46597 0
M  V30 1713 H 165.035 -0.521621 5.6329 0
M  V30 1714 H 163.592 -0.217264 6.51438 0
M  V30 1715 N 167.025 -1.13721 1.09112 0
M  V30 1716 C 167.955 -2.21148 0.749385 0
M  V30 1717 C 168.936 -1.6792 -0.271475 0
M  V30 1718 O 170.121 -1.93693 -0.140251 0
M  V30 1719 C 167.251 -3.46905 0.165659 0
M  V30 1720 C 166.205 -4.13203 1.11567 0
M  V30 1721 C 165.531 -5.33248 0.393809 0
M  V30 1722 C 166.831 -4.60912 2.45678 0
M  V30 1723 H 168.525 -2.4999 1.64758 0
M  V30 1724 H 166.071 -1.20156 0.793626 0
M  V30 1725 H 168.024 -4.21313 -0.085466 0
M  V30 1726 H 166.748 -3.17449 -0.767714 0
M  V30 1727 H 165.407 -3.40758 1.35202 0
M  V30 1728 H 165.055 -5.00054 -0.543599 0
M  V30 1729 H 164.755 -5.78552 1.02721 0
M  V30 1730 H 166.279 -6.10413 0.150908 0
M  V30 1731 H 167.693 -5.26759 2.26269 0
M  V30 1732 H 166.09 -5.16944 3.04776 0
M  V30 1733 H 167.16 -3.75603 3.06677 0
M  V30 1734 N 168.503 -0.877838 -1.30888 0
M  V30 1735 C 169.451 -0.328662 -2.30266 0
M  V30 1736 C 170.445 0.560496 -1.59859 0
M  V30 1737 O 171.651 0.445722 -1.74394 0
M  V30 1738 H 168.026 -0.0876142 -0.746879 0
M  V30 1739 H 169.997 -1.18061 -2.74051 0
M  V30 1740 C 168.746 0.448071 -3.44801 0
M  V30 1741 H 168.069 -0.226859 -3.99156 0
M  V30 1742 H 169.509 0.797541 -4.16432 0
M  V30 1743 C 167.968 1.64239 -2.94155 0
M  V30 1744 O 168.498 2.74175 -2.93583 0
M  V30 1745 N 166.704 1.47716 -2.50256 0
M  V30 1746 H 166.251 0.582821 -2.5092 0
M  V30 1747 H 166.209 2.27765 -2.16727 0
M  V30 1748 N 169.982 1.44106 -0.638065 0
M  V30 1749 C 171.231 2.01194 -0.142744 0
M  V30 1750 C 171.544 1.50835 1.24532 0
M  V30 1751 O 172.75 2.00096 1.83504 0
M  V30 1752 C 171.206 3.59319 -0.20442 0
M  V30 1753 C 170.814 4.18674 -1.59423 0
M  V30 1754 C 172.558 4.23854 0.234079 0
M  V30 1755 C 170.465 5.69045 -1.61065 0
M  V30 1756 H 169.395 0.752367 -0.0495998 0
M  V30 1757 H 172.046 1.65246 -0.797881 0
M  V30 1758 H 170.428 3.92598 0.517946 0
M  V30 1759 H 171.602 3.96921 -2.34074 0
M  V30 1760 H 169.917 3.66453 -1.97741 0
M  V30 1761 H 172.514 5.34155 0.241443 0
M  V30 1762 H 172.857 3.96688 1.2627 0
M  V30 1763 H 173.39 3.95403 -0.436025 0
M  V30 1764 H 170.129 6.00956 -2.61787 0
M  V30 1765 H 169.649 5.929 -0.90718 0
M  V30 1766 H 171.328 6.32809 -1.34766 0
M  V30 1767 N 171.46 0.379036 1.52974 0
M  V30 1768 C 172.706 -0.206727 2.01744 0
M  V30 1769 C 173.039 -1.47314 1.26539 0
M  V30 1770 O 172.314 -1.91084 0.362903 0
M  V30 1771 C 172.597 -0.485066 3.56818 0
M  V30 1772 C 172.45 0.795919 4.42702 0
M  V30 1773 C 173.769 -1.28003 4.21074 0
M  V30 1774 H 170.888 -0.0736607 0.73331 0
M  V30 1775 H 173.53 0.506581 1.83122 0
M  V30 1776 H 171.68 -1.09272 3.72816 0
M  V30 1777 H 173.352 1.43307 4.38476 0
M  V30 1778 H 171.595 1.41344 4.10127 0
M  V30 1779 H 172.266 0.555947 5.49193 0
M  V30 1780 H 174.742 -0.765867 4.08991 0
M  V30 1781 H 173.618 -1.44352 5.29579 0
M  V30 1782 H 173.879 -2.29236 3.78026 0
M  V30 1783 N 172.938 -1.57226 0.108567 0
M  V30 1784 C 173.848 -2.18292 -0.859401 0
M  V30 1785 C 174.864 -1.15612 -1.30038 0
M  V30 1786 O 176.04 -1.48039 -1.36552 0
M  V30 1787 C 173.105 -2.762 -2.09558 0
M  V30 1788 C 172.166 -3.93881 -1.70752 0
M  V30 1789 C 171.399 -4.49018 -2.88477 0
M  V30 1790 O 171.622 -4.03068 -4.036 0
M  V30 1791 O 170.556 -5.39852 -2.66164 0
M  V30 1792 H 174.382 -3.01441 -0.369769 0
M  V30 1793 H 171.967 -1.48945 -0.1165 0
M  V30 1794 H 173.849 -3.13156 -2.81978 0
M  V30 1795 H 172.524 -1.96089 -2.57548 0
M  V30 1796 H 171.431 -3.61713 -0.954714 0
M  V30 1797 H 172.764 -4.75396 -1.27513 0
M  V30 1798 N 174.416 0.165178 -1.56732 0
M  V30 1799 C 175.349 1.23336 -1.91998 0
M  V30 1800 C 176.327 1.42476 -0.783531 0
M  V30 1801 O 177.511 1.57384 -1.03743 0
M  V30 1802 C 174.638 2.59533 -2.17625 0
M  V30 1803 C 173.684 2.57093 -3.40302 0
M  V30 1804 S 174.517 2.05571 -4.9447 0
M  V30 1805 C 175.673 3.43532 -5.23198 0
M  V30 1806 H 175.906 0.932387 -2.82301 0
M  V30 1807 H 173.439 0.370013 -1.49901 0
M  V30 1808 H 175.397 3.37918 -2.3307 0
M  V30 1809 H 174.058 2.86827 -1.28019 0
M  V30 1810 H 173.251 3.57308 -3.55453 0
M  V30 1811 H 172.853 1.86806 -3.24005 0
M  V30 1812 H 175.145 4.39559 -5.15552 0
M  V30 1813 H 176.088 3.33251 -6.2478 0
M  V30 1814 H 176.496 3.39828 -4.50752 0
M  V30 1815 N 175.894 1.51508 0.433938 0
M  V30 1816 C 176.841 1.73068 1.52696 0
M  V30 1817 C 177.811 0.572441 1.55924 0
M  V30 1818 O 178.996 0.807253 1.72882 0
M  V30 1819 C 176.136 1.86474 2.90381 0
M  V30 1820 C 175.249 3.14037 2.96656 0
M  V30 1821 C 174.384 3.18019 4.25485 0
M  V30 1822 C 173.423 4.39882 4.2564 0
M  V30 1823 N 172.56 4.41394 5.45999 0
M  V30 1824 H 177.4 2.66366 1.33615 0
M  V30 1825 H 174.937 1.32008 0.649018 0
M  V30 1826 H 176.895 1.92229 3.70275 0
M  V30 1827 H 175.525 0.965809 3.08013 0
M  V30 1828 H 174.577 3.17575 2.09404 0
M  V30 1829 H 175.889 4.0394 2.92633 0
M  V30 1830 H 175.043 3.22708 5.13755 0
M  V30 1831 H 173.782 2.2601 4.3217 0
M  V30 1832 H 172.787 4.35366 3.35763 0
M  V30 1833 H 174.012 5.33159 4.20617 0
M  V30 1834 H 171.958 3.52258 5.53399 0
M  V30 1835 H 171.875 5.25111 5.4387 0
M  V30 1836 H 173.143 4.50281 6.36292 0
M  V30 1837 N 177.372 -0.689602 1.41712 0
M  V30 1838 C 178.649 -1.44457 1.31877 0
M  V30 1839 C 179.029 -2.11039 -0.0508537 0
M  V30 1840 O 178.377 -2.02138 -1.06547 0
M  V30 1841 C 178.587 -2.45913 2.47645 0
M  V30 1842 C 179.935 -3.10991 2.89084 0
M  V30 1843 O 180.959 -2.56238 2.47428 0
M  V30 1844 O 179.818 -4.10174 3.61137 0
M  V30 1845 H 176.912 -0.64362 0.519309 0
M  V30 1846 H 179.458 -0.719576 1.53689 0
M  V30 1847 H 178.23 -1.95409 3.39015 0
M  V30 1848 H 177.853 -3.25913 2.27742 0
M  V30 1849 N 178.85 -1.27639 -0.924453 0
M  V30 1850 C 179.76 -1.12466 -2.05885 0
M  V30 1851 C 180.776 -0.053869 -1.73917 0
M  V30 1852 O 181.952 -0.261012 -1.99702 0
M  V30 1853 C 179.017 -0.776768 -3.37886 0
M  V30 1854 C 178.078 -1.92878 -3.83532 0
M  V30 1855 C 177.311 -1.59739 -5.09234 0
M  V30 1856 O 177.534 -0.506782 -5.68144 0
M  V30 1857 O 176.468 -2.43761 -5.50331 0
M  V30 1858 H 180.294 -2.07671 -2.21599 0
M  V30 1859 H 177.879 -1.06857 -1.04413 0
M  V30 1860 H 179.761 -0.596229 -4.17161 0
M  V30 1861 H 178.436 0.145732 -3.23372 0
M  V30 1862 H 177.343 -2.1644 -3.0513 0
M  V30 1863 H 178.676 -2.8316 -4.02593 0
M  V30 1864 N 180.328 1.1314 -1.09713 0
M  V30 1865 C 181.276 2.20717 -0.733934 0
M  V30 1866 C 182.27 1.6729 0.266506 0
M  V30 1867 O 183.476 1.79547 0.127656 0
M  V30 1868 H 179.851 0.719292 -0.21937 0
M  V30 1869 H 181.822 2.48611 -1.6503 0
M  V30 1870 C 180.571 3.47265 -0.173849 0
M  V30 1871 H 179.894 3.88716 -0.934873 0
M  V30 1872 H 181.334 4.23979 0.0423126 0
M  V30 1873 C 179.793 3.18724 1.09164 0
M  V30 1874 O 180.323 3.37762 2.17439 0
M  V30 1875 N 178.529 2.72583 1.00732 0
M  V30 1876 H 178.076 2.57291 0.126121 0
M  V30 1877 H 178.034 2.53862 1.85476 0
M  V30 1878 N 181.806 0.884767 1.30421 0
M  V30 1879 C 182.769 0.356277 2.26414 0
M  V30 1880 C 183.769 -0.501124 1.52792 0
M  V30 1881 O 184.959 -0.30831 1.7145 0
M  V30 1882 C 182.091 -0.492316 3.37326 0
M  V30 1883 H 183.284 1.20389 2.74675 0
M  V30 1884 H 180.837 0.661607 1.41607 0
M  V30 1885 H 181.572 -1.36052 2.94381 0
M  V30 1886 H 181.357 0.121832 3.91911 0
M  V30 1887 H 182.847 -0.853871 4.08777 0
M  V30 1888 N 183.284 -1.43765 0.645699 0
M  V30 1889 C 184.512 -2.06253 0.163556 0
M  V30 1890 C 184.927 -1.48352 -1.16778 0
M  V30 1891 O 184.284 -0.611932 -1.71935 0
M  V30 1892 C 184.335 -3.61453 0.0583186 0
M  V30 1893 O 184.056 -4.172 1.33702 0
M  V30 1894 C 185.557 -4.41002 -0.450795 0
M  V30 1895 H 182.777 -0.665413 0.0864077 0
M  V30 1896 H 185.321 -1.84396 0.884222 0
M  V30 1897 H 183.476 -3.82522 -0.612865 0
M  V30 1898 H 183.89 -5.10791 1.19131 0
M  V30 1899 H 185.364 -5.49966 -0.473403 0
M  V30 1900 H 185.841 -4.13488 -1.48068 0
M  V30 1901 H 186.447 -4.24886 0.187637 0
M  V30 1902 N 184.763 -0.387143 -1.52771 0
M  V30 1903 C 185.693 0.440551 -2.29306 0
M  V30 1904 C 186.674 1.06535 -1.32606 0
M  V30 1905 O 187.859 1.07853 -1.61497 0
M  V30 1906 C 184.989 1.56919 -3.09829 0
M  V30 1907 C 183.943 1.07054 -4.14395 0
M  V30 1908 C 183.269 2.29109 -4.83129 0
M  V30 1909 C 184.569 0.140015 -5.22112 0
M  V30 1910 H 186.263 -0.198026 -2.98744 0
M  V30 1911 H 183.809 -0.09668 -1.43675 0
M  V30 1912 H 185.762 2.15503 -3.62128 0
M  V30 1913 H 184.486 2.23532 -2.3812 0
M  V30 1914 H 183.145 0.507247 -3.63074 0
M  V30 1915 H 182.793 2.94227 -4.0797 0
M  V30 1916 H 182.493 1.96406 -5.53804 0
M  V30 1917 H 184.017 2.88339 -5.38231 0
M  V30 1918 H 185.431 0.633978 -5.69784 0
M  V30 1919 H 183.828 -0.0971485 -6.00021 0
M  V30 1920 H 184.898 -0.811711 -4.78058 0
M  V30 1921 N 186.241 1.57166 -0.116904 0
M  V30 1922 C 187.518 1.86645 0.585049 0
M  V30 1923 C 187.898 1.0177 1.84949 0
M  V30 1924 O 187.246 0.0960379 2.28298 0
M  V30 1925 C 187.456 3.37736 0.879507 0
M  V30 1926 C 188.804 4.06289 1.23348 0
M  V30 1927 O 189.828 3.42743 0.969836 0
M  V30 1928 O 188.687 5.18455 1.7282 0
M  V30 1929 H 185.781 0.772593 0.295007 0
M  V30 1930 H 188.327 1.69025 -0.151249 0
M  V30 1931 H 187.099 3.91296 -0.0166136 0
M  V30 1932 H 186.722 3.6078 1.67103 0
M  V30 1933 N 187.719 -0.156864 1.56817 0
M  V30 1934 C 188.967 -0.869404 1.82444 0
M  V30 1935 C 189.288 -1.82147 0.69623 0
M  V30 1936 O 188.558 -1.93847 -0.28287 0
M  V30 1937 H 187.138 -0.324043 0.673056 0
M  V30 1938 H 189.8 -0.153224 1.94297 0
M  V30 1939 H 188.896 -1.43761 2.77019 0
M  V30 1940 N 189.197 -1.51736 -0.425897 0
M  V30 1941 C 190.445 -1.64644 -1.17204 0
M  V30 1942 C 190.766 -0.370486 -1.91448 0
M  V30 1943 O 190.036 0.614088 -1.86026 0
M  V30 1944 H 188.616 -0.606819 -0.435638 0
M  V30 1945 H 191.278 -1.88713 -0.487177 0
M  V30 1946 H 190.374 -2.47958 -1.89534 0
M  V30 1947 N 190.675 0.682077 -1.42076 0
M  V30 1948 C 191.952 1.43755 -1.32642 0
M  V30 1949 C 192.332 2.11063 0.0396611 0
M  V30 1950 O 191.68 2.02701 1.05474 0
M  V30 1951 C 191.89 2.44596 -2.48946 0
M  V30 1952 C 193.238 3.09454 -2.9073 0
M  V30 1953 O 194.262 2.54922 -2.48783 0
M  V30 1954 O 193.121 4.08253 -3.63307 0
M  V30 1955 H 190.215 0.640857 -0.522715 0
M  V30 1956 H 192.761 0.711415 -1.54068 0
M  V30 1957 H 191.533 1.93609 -3.40046 0
M  V30 1958 H 191.156 3.24701 -2.29467 0
M  V30 1959 N 192.153 1.28127 0.917671 0
M  V30 1960 C 193.399 1.15223 1.66888 0
M  V30 1961 C 193.732 -0.299293 1.9188 0
M  V30 1962 O 193.007 -1.21805 1.51637 0
M  V30 1963 C 193.29 1.94706 3.02922 0
M  V30 1964 C 193.143 3.47898 2.85109 0
M  V30 1965 C 194.462 1.75939 4.03402 0
M  V30 1966 H 191.581 0.419946 0.605652 0
M  V30 1967 H 194.223 1.57398 1.06423 0
M  V30 1968 H 192.373 1.58864 3.54534 0
M  V30 1969 H 194.045 3.93624 2.40537 0
M  V30 1970 H 192.288 3.7373 2.20246 0
M  V30 1971 H 192.959 3.98765 3.81694 0
M  V30 1972 H 195.435 2.07209 3.60837 0
M  V30 1973 H 194.311 2.33931 4.96556 0
M  V30 1974 H 194.572 0.709877 4.36364 0
M  V30 1975 N 193.631 -1.12557 1.10312 0
M  V30 1976 C 194.561 -2.20341 0.772798 0
M  V30 1977 C 195.542 -1.68198 -0.25365 0
M  V30 1978 O 196.727 -1.93831 -0.119699 0
M  V30 1979 C 193.857 -3.46709 0.202443 0
M  V30 1980 C 192.811 -4.11996 1.15943 0
M  V30 1981 C 192.137 -5.328 0.450345 0
M  V30 1982 C 193.437 -4.5828 2.50552 0
M  V30 1983 H 195.131 -2.48229 1.674 0
M  V30 1984 H 192.677 -1.19308 0.806326 0
M  V30 1985 H 194.63 -4.2138 -0.0407752 0
M  V30 1986 H 193.354 -3.18245 -0.734001 0
M  V30 1987 H 192.013 -3.39305 1.38808 0
M  V30 1988 H 191.661 -5.00602 -0.490531 0
M  V30 1989 H 191.361 -5.7743 1.08851 0
M  V30 1990 H 192.885 -6.10219 0.215642 0
M  V30 1991 H 194.299 -5.2433 2.31843 0
M  V30 1992 H 192.696 -5.13683 3.10242 0
M  V30 1993 H 193.766 -3.72329 3.10643 0
M  V30 1994 N 195.109 -0.891671 -1.2995 0
M  V30 1995 C 196.356 -0.513501 -1.95881 0
M  V30 1996 C 196.684 0.938655 -1.70351 0
M  V30 1997 O 195.939 1.67936 -1.00478 0
M  V30 1998 C 196.238 -0.742868 -3.49594 0
M  V30 1999 C 195.904 -2.17114 -3.95186 0
M  V30 2000 C 194.566 -2.56169 -4.07346 0
M  V30 2001 C 196.918 -3.10162 -4.18866 0
M  V30 2002 C 194.246 -3.87469 -4.4055 0
M  V30 2003 C 196.598 -4.41001 -4.53542 0
M  V30 2004 C 195.262 -4.79941 -4.63911 0
M  V30 2005 H 194.532 -0.187903 -0.71678 0
M  V30 2006 H 197.179 -1.1288 -1.54694 0
M  V30 2007 H 195.484 -0.044586 -3.91775 0
M  V30 2008 H 197.181 -0.429767 -3.9869 0
M  V30 2009 H 193.771 -1.85801 -3.86233 0
M  V30 2010 H 197.955 -2.81206 -4.08946 0
M  V30 2011 H 193.211 -4.17371 -4.46779 0
M  V30 2012 H 197.385 -5.13133 -4.70815 0
M  V30 2013 H 195.012 -5.81719 -4.89395 0
M  V30 2014 N 196.587 1.43421 -0.653314 0
M  V30 2015 C 197.815 2.06163 -0.174491 0
M  V30 2016 C 198.23 1.48969 1.1599 0
M  V30 2017 O 197.587 0.621042 1.71608 0
M  V30 2018 C 197.638 3.61417 -0.0774865 0
M  V30 2019 O 197.359 4.16485 -1.35912 0
M  V30 2020 C 198.86 4.41235 0.427402 0
M  V30 2021 H 196.08 0.664946 -0.0899353 0
M  V30 2022 H 198.624 1.83924 -0.893988 0
M  V30 2023 H 196.779 3.82841 0.59257 0
M  V30 2024 H 197.193 5.10153 -1.21839 0
M  V30 2025 H 198.667 5.5021 0.44423 0
M  V30 2026 H 199.144 4.14268 1.45873 0
M  V30 2027 H 199.75 4.2478 -0.210167 0
M  V30 2028 N 198.065 0.39524 1.52563 0
M  V30 2029 C 199.313 -0.184678 2.01254 0
M  V30 2030 C 199.634 -1.46822 1.28329 0
M  V30 2031 O 198.904 -1.91666 0.405094 0
M  V30 2032 H 197.484 -0.0712355 0.743596 0
M  V30 2033 H 200.146 0.528293 1.87603 0
M  V30 2034 H 199.242 -0.390681 3.09645 0
M  V30 2035 N 199.544 -1.57102 0.125237 0
M  V30 2036 C 200.96 -1.57915 -0.231322 0
M  V30 2037 C 201.16 -1.13833 -1.66266 0
M  V30 2038 O 200.216 -0.828581 -2.38518 0
M  V30 2039 C 201.529 -3.00699 0.00766489 0
M  V30 2040 C 203.077 -3.12947 -0.0577483 0
M  V30 2041 C 203.552 -4.57742 0.153626 0
M  V30 2042 N 205.043 -4.63092 0.0998073 0
M  V30 2043 C 205.778 -5.72905 0.238174 0
M  V30 2044 N 205.274 -6.91445 0.433057 0
M  V30 2045 N 207.067 -5.6182 0.177308 0
M  V30 2046 H 199.218 -1.84055 1.06007 0
M  V30 2047 H 201.481 -0.850905 0.417929 0
M  V30 2048 H 201.187 -3.3726 0.997431 0
M  V30 2049 H 201.061 -3.70236 -0.721452 0
M  V30 2050 H 203.448 -2.7624 -1.03804 0
M  V30 2051 H 203.529 -2.4594 0.70335 0
M  V30 2052 H 203.173 -4.95149 1.13092 0
M  V30 2053 H 203.103 -5.22848 -0.627534 0
M  V30 2054 H 205.594 -3.77871 -0.047051 0
M  V30 2055 H 205.907 -7.70985 0.529332 0
M  V30 2056 H 204.252 -6.93415 0.469109 0
M  V30 2057 H 207.443 -4.68093 0.0259748 0
M  V30 2058 H 207.616 -6.47357 0.288582 0
M  V30 2059 N 201.022 0.148545 -1.56898 0
M  V30 2060 C 201.932 1.20293 -2.01412 0
M  V30 2061 C 202.948 1.47107 -0.929273 0
M  V30 2062 O 204.124 1.58807 -1.23863 0
M  V30 2063 C 201.189 2.51682 -2.38447 0
M  V30 2064 C 200.25 2.32529 -3.60872 0
M  V30 2065 C 199.483 3.57653 -3.96132 0
M  V30 2066 O 199.706 4.63771 -3.32073 0
M  V30 2067 O 198.64 3.50408 -4.89385 0
M  V30 2068 H 202.466 0.855025 -2.91416 0
M  V30 2069 H 200.051 0.357151 -1.45068 0
M  V30 2070 H 201.933 3.29147 -2.63135 0
M  V30 2071 H 200.608 2.86006 -1.51599 0
M  V30 2072 H 199.515 1.53019 -3.41373 0
M  V30 2073 H 200.848 2.03121 -4.48333 0
M  V30 2074 N 202.5 1.5196 0.417844 0
M  V30 2075 C 203.747 1.65591 1.16559 0
M  V30 2076 C 204.075 0.381565 1.90721 0
M  V30 2077 O 203.33 -0.635156 1.85106 0
M  V30 2078 C 203.629 2.82269 2.19223 0
M  V30 2079 C 203.295 4.20819 1.61933 0
M  V30 2080 C 201.957 4.58506 1.46033 0
M  V30 2081 C 204.309 5.07196 1.20008 0
M  V30 2082 C 201.637 5.80257 0.867113 0
M  V30 2083 C 203.989 6.29544 0.621086 0
M  V30 2084 C 202.653 6.65987 0.449144 0
M  V30 2085 H 201.923 0.605939 0.42652 0
M  V30 2086 H 204.57 1.86041 0.45397 0
M  V30 2087 H 202.875 2.56118 2.96498 0
M  V30 2088 H 204.572 2.90012 2.76936 0
M  V30 2089 H 201.162 3.91116 1.7529 0
M  V30 2090 H 205.346 4.7867 1.31105 0
M  V30 2091 H 200.602 6.07124 0.721833 0
M  V30 2092 H 204.776 6.95805 0.287798 0
M  V30 2093 H 202.403 7.60199 -0.012632 0
M  V30 2094 N 203.978 -0.674533 1.42435 0
M  V30 2095 C 205.225 -1.43459 1.42919 0
M  V30 2096 C 205.553 -1.94446 0.0457312 0
M  V30 2097 O 204.808 -1.7132 -0.94593 0
M  V30 2098 C 205.107 -2.64767 2.40069 0
M  V30 2099 C 204.773 -2.3232 3.86443 0
M  V30 2100 C 203.435 -2.23182 4.26314 0
M  V30 2101 C 205.787 -2.05977 4.78773 0
M  V30 2102 C 203.115 -1.85827 5.56494 0
M  V30 2103 C 205.467 -1.70125 6.09295 0
M  V30 2104 C 204.131 -1.59498 6.48164 0
M  V30 2105 H 203.401 -0.524952 0.522978 0
M  V30 2106 H 206.048 -0.769097 1.75377 0
M  V30 2107 H 204.353 -3.36349 2.00939 0
M  V30 2108 H 206.05 -3.22949 2.37707 0
M  V30 2109 H 202.64 -2.40334 3.54877 0
M  V30 2110 H 206.824 -2.11969 4.48757 0
M  V30 2111 H 202.08 -1.76168 5.8547 0
M  V30 2112 H 206.254 -1.48767 6.80324 0
M  V30 2113 H 203.881 -1.30322 7.48946 0
M  V30 2114 N 205.456 -1.28612 -0.910864 0
M  V30 2115 C 206.702 -1.16106 -1.66274 0
M  V30 2116 C 207.035 0.289113 -1.92036 0
M  V30 2117 O 206.31 1.21 -1.52281 0
M  V30 2118 C 206.593 -1.96309 -3.01885 0
M  V30 2119 C 206.446 -3.49405 -2.8326 0
M  V30 2120 C 207.765 -1.78076 -4.02463 0
M  V30 2121 H 204.884 -0.423152 -0.603417 0
M  V30 2122 H 207.526 -1.57961 -1.05586 0
M  V30 2123 H 205.676 -1.60742 -3.53687 0
M  V30 2124 H 207.348 -3.94894 -2.38446 0
M  V30 2125 H 205.591 -3.74893 -2.18261 0
M  V30 2126 H 206.262 -4.00784 -3.79574 0
M  V30 2127 H 208.738 -2.0912 -3.59733 0
M  V30 2128 H 207.614 -2.36561 -4.95308 0
M  V30 2129 H 207.875 -0.733008 -4.35981 0
M  V30 2130 N 206.934 1.1197 -1.10907 0
M  V30 2131 C 208.182 1.83225 -0.852819 0
M  V30 2132 C 208.503 1.84769 0.623341 0
M  V30 2133 O 207.773 1.3143 1.45269 0
M  V30 2134 H 206.353 0.67849 -0.312507 0
M  V30 2135 H 209.015 1.3556 -1.40033 0
M  V30 2136 H 208.111 2.87265 -1.22005 0
M  V30 2137 N 208.412 0.89855 1.29475 0
M  V30 2138 C 209.342 0.39201 2.30186 0
M  V30 2139 C 210.323 -0.532359 1.61555 0
M  V30 2140 O 211.508 -0.443331 1.89072 0
M  V30 2141 C 208.638 -0.382353 3.45189 0
M  V30 2142 C 207.592 0.451483 4.25612 0
M  V30 2143 C 206.918 -0.450307 5.328 0
M  V30 2144 C 208.218 1.70079 4.93832 0
M  V30 2145 H 209.912 1.23362 2.72804 0
M  V30 2146 H 207.458 0.594638 1.31149 0
M  V30 2147 H 209.411 -0.747451 4.14718 0
M  V30 2148 H 208.135 -1.25774 3.01411 0
M  V30 2149 H 206.794 0.798897 3.57789 0
M  V30 2150 H 206.442 -1.32379 4.85268 0
M  V30 2151 H 206.142 0.103902 5.87508 0
M  V30 2152 H 207.666 -0.811623 6.05182 0
M  V30 2153 H 209.08 1.40549 5.55805 0
M  V30 2154 H 207.477 2.19623 5.58467 0
M  V30 2155 H 208.547 2.43744 4.19186 0
M  V30 2156 N 209.89 -1.43072 0.660911 0
M  V30 2157 C 211.115 -2.06584 0.183805 0
M  V30 2158 C 211.54 -1.49257 -1.14472 0
M  V30 2159 O 210.898 -0.605528 -1.70889 0
M  V30 2160 C 210.946 -3.60418 0.114434 0
M  V30 2161 O 210.05 -4.01981 -0.921137 0
M  V30 2162 H 209.391 -0.656669 0.0983994 0
M  V30 2163 H 211.921 -1.83447 0.906006 0
M  V30 2164 H 211.931 -4.07946 -0.0663394 0
M  V30 2165 H 210.606 -4.01519 1.08422 0
M  V30 2166 H 209.183 -3.66029 -0.71253 0
M  V30 2167 N 211.368 -0.403325 -1.52352 0
M  V30 2168 C 212.315 0.425011 -2.26853 0
M  V30 2169 C 213.285 1.04598 -1.29029 0
M  V30 2170 O 214.47 1.07135 -1.57882 0
M  V30 2171 C 211.61 1.53888 -3.08889 0
M  V30 2172 C 210.723 0.939396 -4.21663 0
M  V30 2173 C 209.858 2.02547 -4.91068 0
M  V30 2174 C 208.897 1.40263 -5.95813 0
M  V30 2175 N 208.034 2.4286 -6.58759 0
M  V30 2176 H 212.874 -0.21674 -2.97211 0
M  V30 2177 H 210.411 -0.118722 -1.4662 0
M  V30 2178 H 212.369 2.19558 -3.54753 0
M  V30 2179 H 210.999 2.15074 -2.40714 0
M  V30 2180 H 210.051 0.171898 -3.80011 0
M  V30 2181 H 211.363 0.44436 -4.96817 0
M  V30 2182 H 210.517 2.75958 -5.40308 0
M  V30 2183 H 209.256 2.55415 -4.15469 0
M  V30 2184 H 208.261 0.653833 -5.45898 0
M  V30 2185 H 209.486 0.881719 -6.73352 0
M  V30 2186 H 207.432 2.94871 -5.85992 0
M  V30 2187 H 207.349 1.98152 -7.2957 0
M  V30 2188 H 208.617 3.15858 -7.12639 0
M  V30 2189 N 212.846 1.57033 -0.133567 0
M  V30 2190 C 214.262 1.58035 0.222944 0
M  V30 2191 C 214.462 1.14713 1.6566 0
M  V30 2192 O 213.518 0.841218 2.38075 0
M  V30 2193 C 214.831 3.00691 -0.0236116 0
M  V30 2194 C 216.379 3.12973 0.0411512 0
M  V30 2195 C 216.854 4.57654 -0.177899 0
M  V30 2196 N 218.345 4.63033 -0.124365 0
M  V30 2197 C 219.08 5.72771 -0.268553 0
M  V30 2198 N 218.576 6.91206 -0.46972 0
M  V30 2199 N 220.369 5.61718 -0.2071 0
M  V30 2200 H 212.52 1.8349 -1.06981 0
M  V30 2201 H 214.783 0.848677 -0.422436 0
M  V30 2202 H 214.489 3.36726 -1.0153 0
M  V30 2203 H 214.363 3.70614 0.701808 0
M  V30 2204 H 216.75 2.76787 1.02338 0
M  V30 2205 H 216.831 2.45564 -0.716383 0
M  V30 2206 H 216.475 4.94542 -1.15717 0
M  V30 2207 H 216.405 5.23173 0.599797 0
M  V30 2208 H 218.896 3.7789 0.027011 0
M  V30 2209 H 219.209 7.70693 -0.570212 0
M  V30 2210 H 217.554 6.93156 -0.505876 0
M  V30 2211 H 220.745 4.68072 -0.0507986 0
M  V30 2212 H 220.918 6.47195 -0.322909 0
M  V30 2213 N 214.325 -0.140222 1.56975 0
M  V30 2214 C 215.553 -0.866437 1.87884 0
M  V30 2215 C 215.968 -1.74428 0.722517 0
M  V30 2216 O 215.325 -1.79891 -0.30749 0
M  V30 2217 C 215.376 -1.71753 3.18093 0
M  V30 2218 O 215.097 -0.875056 4.29272 0
M  V30 2219 C 216.598 -2.55074 3.62563 0
M  V30 2220 H 213.818 -0.25019 0.622612 0
M  V30 2221 H 216.362 -0.130977 2.0408 0
M  V30 2222 H 214.517 -2.40598 3.03631 0
M  V30 2223 H 214.931 -1.46002 5.03769 0
M  V30 2224 H 216.405 -3.10356 4.5649 0
M  V30 2225 H 216.882 -3.31434 2.88181 0
M  V30 2226 H 217.488 -1.91509 3.79743 0
M  V30 2227 N 215.803 -1.52179 -0.40978 0
M  V30 2228 C 216.751 -1.76086 -1.51975 0
M  V30 2229 C 217.745 -0.627964 -1.57331 0
M  V30 2230 O 218.951 -0.809993 -1.60745 0
M  V30 2231 H 215.326 -0.556829 -0.505416 0
M  V30 2232 H 217.297 -2.69077 -1.28996 0
M  V30 2233 C 216.046 -1.92799 -2.8935 0
M  V30 2234 H 215.369 -2.79392 -2.85972 0
M  V30 2235 H 216.809 -2.13527 -3.66309 0
M  V30 2236 C 215.268 -0.694923 -3.29655 0
M  V30 2237 O 215.798 0.13751 -4.01465 0
M  V30 2238 N 214.004 -0.53101 -2.85707 0
M  V30 2239 H 213.551 -1.20952 -2.27439 0
M  V30 2240 H 213.509 0.292718 -3.13034 0
M  V30 2241 N 217.281 0.66697 -1.42791 0
M  V30 2242 C 218.213 1.7925 -1.42836 0
M  V30 2243 C 219.226 1.59496 -0.326333 0
M  V30 2244 O 220.415 1.6847 -0.589916 0
M  V30 2245 C 217.515 3.16476 -1.21229 0
M  V30 2246 C 216.688 3.63011 -2.44013 0
M  V30 2247 C 215.747 4.78993 -2.17834 0
M  V30 2248 O 214.773 4.89137 -2.91091 0
M  V30 2249 N 215.975 5.68248 -1.18635 0
M  V30 2250 H 218.74 1.79695 -2.39854 0
M  V30 2251 H 216.301 0.850338 -1.37771 0
M  V30 2252 H 218.293 3.91734 -1.01621 0
M  V30 2253 H 216.863 3.10884 -0.32706 0
M  V30 2254 H 216.083 2.78346 -2.79137 0
M  V30 2255 H 217.371 3.90845 -3.25757 0
M  V30 2256 H 216.769 5.62712 -0.580615 0
M  V30 2257 H 215.326 6.43285 -1.05013 0
M  V30 2258 N 218.759 1.29093 0.90403 0
M  V30 2259 C 220.175 1.07011 1.1841 0
M  V30 2260 C 220.375 -0.181358 2.00682 0
M  V30 2261 O 219.431 -0.880331 2.36657 0
M  V30 2262 C 220.744 2.32311 1.90924 0
M  V30 2263 C 222.292 2.37587 2.03768 0
M  V30 2264 C 222.767 3.62679 2.79693 0
M  V30 2265 N 224.258 3.63376 2.87249 0
M  V30 2266 C 224.993 4.56848 3.46522 0
M  V30 2267 N 224.489 5.60648 4.06996 0
M  V30 2268 N 226.282 4.44426 3.44154 0
M  V30 2269 H 218.433 2.09412 0.354993 0
M  V30 2270 H 220.696 0.922181 0.219742 0
M  V30 2271 H 220.402 3.23536 1.37905 0
M  V30 2272 H 220.276 2.39483 2.91424 0
M  V30 2273 H 222.663 1.46853 2.55965 0
M  V30 2274 H 222.744 2.34403 1.02415 0
M  V30 2275 H 222.388 4.53762 2.28173 0
M  V30 2276 H 222.318 3.63119 3.81381 0
M  V30 2277 H 224.809 2.88321 2.44293 0
M  V30 2278 H 225.122 6.28101 4.50232 0
M  V30 2279 H 223.467 5.64463 4.05471 0
M  V30 2280 H 226.658 3.62529 2.96126 0
M  V30 2281 H 226.831 5.17457 3.90054 0
M  V30 2282 N 220.237 -1.11381 1.11499 0
M  V30 2283 C 221.485 -1.8277 0.862524 0
M  V30 2284 C 221.806 -1.85097 -0.613534 0
M  V30 2285 O 221.076 -1.32198 -1.4457 0
M  V30 2286 H 219.656 -0.676823 0.316101 0
M  V30 2287 H 222.318 -1.34816 1.4075 0
M  V30 2288 H 221.414 -2.86614 1.23527 0
M  V30 2289 N 221.715 -0.905404 -1.28997 0
M  V30 2290 C 222.678 -0.392253 -2.25819 0
M  V30 2291 C 223.678 0.476753 -1.5357 0
M  V30 2292 O 224.868 0.280994 -1.71919 0
M  V30 2293 C 222 0.438588 -3.38067 0
M  V30 2294 H 223.193 -1.24743 -2.72725 0
M  V30 2295 H 220.746 -0.684051 -1.40536 0
M  V30 2296 H 221.481 1.31352 -2.96508 0
M  V30 2297 H 221.266 -0.184167 -3.91667 0
M  V30 2298 H 222.756 0.78873 -4.10084 0
M  V30 2299 N 223.193 1.4272 -0.668489 0
M  V30 2300 C 224.103 2.34596 0.0139753 0
M  V30 2301 C 225.119 1.5474 0.795703 0
M  V30 2302 O 226.295 1.87334 0.739466 0
M  V30 2303 C 223.36 3.33202 0.957982 0
M  V30 2304 C 222.421 4.28957 0.17149 0
M  V30 2305 C 221.654 5.22853 1.07053 0
M  V30 2306 O 221.877 5.21531 2.31001 0
M  V30 2307 O 220.811 5.9952 0.534727 0
M  V30 2308 H 224.637 2.9448 -0.742661 0
M  V30 2309 H 222.222 1.43117 -0.428705 0
M  V30 2310 H 224.104 3.93796 1.50008 0
M  V30 2311 H 222.779 2.758 1.69458 0
M  V30 2312 H 221.686 3.71796 -0.414558 0
M  V30 2313 H 223.019 4.89383 -0.52586 0
M  V30 2314 N 224.671 0.411399 1.52136 0
M  V30 2315 C 225.92 -0.165009 2.01024 0
M  V30 2316 C 226.233 -1.4603 1.30133 0
M  V30 2317 O 227.439 -2.1181 1.69849 0
M  V30 2318 C 225.895 -0.344618 3.58246 0
M  V30 2319 C 225.503 0.938716 4.38055 0
M  V30 2320 C 227.247 -0.876195 4.15359 0
M  V30 2321 C 225.154 0.726172 5.86925 0
M  V30 2322 H 224.084 -0.0654407 0.751155 0
M  V30 2323 H 226.735 0.537192 1.75461 0
M  V30 2324 H 225.117 -1.10921 3.80148 0
M  V30 2325 H 226.291 1.70963 4.27912 0
M  V30 2326 H 224.606 1.39688 3.92271 0
M  V30 2327 H 227.203 -1.05128 5.24263 0
M  V30 2328 H 227.546 -1.85152 3.7286 0
M  V30 2329 H 228.079 -0.170607 3.97434 0
M  V30 2330 H 224.818 1.67312 6.33788 0
M  V30 2331 H 224.338 -0.00540283 5.998 0
M  V30 2332 H 226.017 0.369231 6.45946 0
M  V30 2333 N 226.149 -1.5696 0.141893 0
M  V30 2334 C 227.079 -2.19516 -0.795936 0
M  V30 2335 C 228.06 -1.14187 -1.26077 0
M  V30 2336 O 229.245 -1.42511 -1.31925 0
M  V30 2337 C 226.375 -2.81272 -2.03723 0
M  V30 2338 C 225.329 -3.92384 -1.70936 0
M  V30 2339 C 224.655 -4.41052 -3.02287 0
M  V30 2340 C 225.955 -5.13403 -0.959954 0
M  V30 2341 H 227.649 -2.98138 -0.274596 0
M  V30 2342 H 225.195 -1.43406 -0.130636 0
M  V30 2343 H 227.148 -3.237 -2.69808 0
M  V30 2344 H 225.872 -1.99973 -2.58221 0
M  V30 2345 H 224.531 -3.50566 -1.07232 0
M  V30 2346 H 224.179 -3.56582 -3.54765 0
M  V30 2347 H 223.879 -5.15993 -2.81114 0
M  V30 2348 H 225.403 -4.86146 -3.69451 0
M  V30 2349 H 226.817 -5.52706 -1.52279 0
M  V30 2350 H 225.214 -5.94073 -0.848357 0
M  V30 2351 H 226.284 -4.84875 0.0492434 0
M  V30 2352 N 227.627 0.131896 -1.57047 0
M  V30 2353 C 228.59 1.14638 -1.98471 0
M  V30 2354 C 229.59 1.35029 -0.873148 0
M  V30 2355 O 230.78 1.31764 -1.13946 0
M  V30 2356 C 227.912 2.50358 -2.31373 0
M  V30 2357 H 229.105 0.79064 -2.8929 0
M  V30 2358 H 226.658 0.375761 -1.51716 0
M  V30 2359 H 227.393 2.90876 -1.43393 0
M  V30 2360 H 227.178 2.36915 -3.12432 0
M  V30 2361 H 228.668 3.23395 -2.64207 0
M  V30 2362 N 229.106 1.52395 0.401703 0
M  V30 2363 C 230.383 1.57387 1.16141 0
M  V30 2364 C 230.763 0.359359 2.08019 0
M  V30 2365 O 230.111 -0.65326 2.18963 0
M  V30 2366 C 230.321 2.90631 1.93221 0
M  V30 2367 C 231.669 3.43904 2.49028 0
M  V30 2368 O 232.693 2.92421 2.03393 0
M  V30 2369 O 231.552 4.33823 3.32356 0
M  V30 2370 H 228.646 0.634262 0.530698 0
M  V30 2371 H 231.192 1.64725 0.407883 0
M  V30 2372 H 229.964 3.70473 1.25958 0
M  V30 2373 H 229.587 2.8662 2.75563 0
M  V30 2374 N 230.584 -0.659388 1.43143 0
M  V30 2375 C 231.812 -1.44723 1.47861 0
M  V30 2376 C 232.227 -1.88563 0.0945886 0
M  V30 2377 O 231.584 -1.59108 -0.893915 0
M  V30 2378 C 231.635 -2.68627 2.41913 0
M  V30 2379 O 231.356 -2.26623 3.74932 0
M  V30 2380 C 232.857 -3.62045 2.55809 0
M  V30 2381 H 230.077 -0.444801 0.502387 0
M  V30 2382 H 232.621 -0.808916 1.87821 0
M  V30 2383 H 230.776 -3.28613 2.05164 0
M  V30 2384 H 231.19 -3.06745 4.2545 0
M  V30 2385 H 232.664 -4.45666 3.25708 0
M  V30 2386 H 233.141 -4.08981 1.60099 0
M  V30 2387 H 233.747 -3.07944 2.93344 0
M  V30 2388 N 232.062 -1.29571 -0.897171 0
M  V30 2389 C 233.309 -1.17689 -1.6479 0
M  V30 2390 C 233.637 0.27107 -1.92602 0
M  V30 2391 O 232.892 1.21193 -1.53658 0
M  V30 2392 C 233.191 -1.9382 -3.00281 0
M  V30 2393 C 232.857 -3.43522 -2.92068 0
M  V30 2394 C 231.519 -3.84348 -2.89535 0
M  V30 2395 C 233.871 -4.38906 -2.81089 0
M  V30 2396 C 231.199 -5.18869 -2.73846 0
M  V30 2397 C 233.551 -5.73521 -2.66939 0
M  V30 2398 C 232.215 -6.13601 -2.62774 0
M  V30 2399 H 231.485 -0.430654 -0.603008 0
M  V30 2400 H 234.132 -1.60536 -1.04404 0
M  V30 2401 H 232.437 -1.4357 -3.64547 0
M  V30 2402 H 234.134 -1.82028 -3.57305 0
M  V30 2403 H 230.724 -3.11072 -2.94842 0
M  V30 2404 H 234.908 -4.08315 -2.82121 0
M  V30 2405 H 230.164 -5.4903 -2.69027 0
M  V30 2406 H 234.338 -6.47078 -2.57416 0
M  V30 2407 H 231.965 -7.17786 -2.50375 0
M  V30 2408 N 233.54 1.10788 -1.12088 0
M  V30 2409 C 234.487 2.17025 -0.785407 0
M  V30 2410 C 235.457 1.64265 0.246191 0
M  V30 2411 O 236.642 1.90412 0.121584 0
M  V30 2412 C 233.782 3.44249 -0.242177 0
M  V30 2413 C 232.895 4.1098 -1.33115 0
M  V30 2414 C 232.03 5.25911 -0.747741 0
M  V30 2415 C 231.069 5.84538 -1.81609 0
M  V30 2416 N 230.206 6.90853 -1.25167 0
M  V30 2417 H 235.046 2.45066 -1.69548 0
M  V30 2418 H 232.583 1.20297 -0.846582 0
M  V30 2419 H 234.541 4.17101 0.0908026 0
M  V30 2420 H 233.171 3.16571 0.631072 0
M  V30 2421 H 232.223 3.36133 -1.78097 0
M  V30 2422 H 233.535 4.50601 -2.13917 0
M  V30 2423 H 232.689 6.056 -0.365216 0
M  V30 2424 H 231.428 4.87614 0.0915188 0
M  V30 2425 H 230.433 5.03522 -2.20785 0
M  V30 2426 H 231.658 6.249 -2.6585 0
M  V30 2427 H 229.604 6.54562 -0.434174 0
M  V30 2428 H 229.521 7.29166 -1.99633 0
M  V30 2429 H 230.789 7.7433 -0.896259 0
M  V30 2430 N 235.018 0.912232 1.28515 0
M  V30 2431 C 236.295 0.463597 1.90027 0
M  V30 2432 C 236.675 -1.05753 1.82701 0
M  V30 2433 O 236.023 -1.90492 1.26194 0
M  V30 2434 C 236.233 0.992253 3.34597 0
M  V30 2435 C 237.581 1.04344 4.11579 0
M  V30 2436 O 238.605 0.94079 3.43551 0
M  V30 2437 O 237.464 1.1995 5.33174 0
M  V30 2438 H 234.558 0.146666 0.813891 0
M  V30 2439 H 237.104 1.00292 1.36893 0
M  V30 2440 H 235.876 2.03623 3.34146 0
M  V30 2441 H 235.499 0.433672 3.95228 0
M  V30 2442 N 236.496 -1.42363 0.676048 0
M  V30 2443 C 237.726 -2.05561 0.206967 0
M  V30 2444 C 238.134 -1.50887 -1.14148 0
M  V30 2445 O 237.477 -0.643933 -1.72044 0
M  V30 2446 C 237.539 -3.5944 0.0659508 0
M  V30 2447 C 237.203 -4.36812 1.34331 0
M  V30 2448 C 238.2 -4.67383 2.27704 0
M  V30 2449 C 235.885 -4.76429 1.59125 0
M  V30 2450 C 237.879 -5.36509 3.44147 0
M  V30 2451 C 235.566 -5.45294 2.75857 0
M  V30 2452 C 236.564 -5.75259 3.68193 0
M  V30 2453 O 236.252 -6.42712 4.82883 0
M  V30 2454 H 235.984 -0.668872 0.0979084 0
M  V30 2455 H 238.538 -1.83467 0.923531 0
M  V30 2456 H 236.768 -3.80197 -0.706204 0
M  V30 2457 H 238.457 -4.0427 -0.363418 0
M  V30 2458 H 239.223 -4.37275 2.09799 0
M  V30 2459 H 235.102 -4.52498 0.881258 0
M  V30 2460 H 238.646 -5.59814 4.16238 0
M  V30 2461 H 234.543 -5.7482 2.93688 0
M  V30 2462 H 235.311 -6.61204 4.82444 0
M  V30 2463 N 237.974 -0.419461 -1.51915 0
M  V30 2464 C 238.937 0.389116 -2.25873 0
M  V30 2465 C 239.937 0.964924 -1.28631 0
M  V30 2466 O 241.127 0.842179 -1.52489 0
M  V30 2467 C 238.259 1.54874 -3.03689 0
M  V30 2468 H 239.452 -0.258799 -2.98781 0
M  V30 2469 H 237.005 -0.172209 -1.55348 0
M  V30 2470 H 237.74 2.23323 -2.35154 0
M  V30 2471 H 237.525 1.14223 -3.75094 0
M  V30 2472 H 239.015 2.12046 -3.59759 0
M  V30 2473 N 239.452 1.56882 -0.150215 0
M  V30 2474 C 240.698 1.96518 0.500834 0
M  V30 2475 C 241.031 1.03527 1.64304 0
M  V30 2476 O 240.306 0.0782751 1.94342 0
M  V30 2477 C 240.589 3.45822 1.00395 0
M  V30 2478 C 240.442 4.49591 -0.136983 0
M  V30 2479 C 241.761 3.97704 1.88467 0
M  V30 2480 H 238.88 0.714535 0.18058 0
M  V30 2481 H 241.522 1.88577 -0.232091 0
M  V30 2482 H 239.672 3.5272 1.62851 0
M  V30 2483 H 241.344 4.5477 -0.77343 0
M  V30 2484 H 239.587 4.26441 -0.795652 0
M  V30 2485 H 240.258 5.51402 0.256815 0
M  V30 2486 H 242.734 3.93304 1.35834 0
M  V30 2487 H 241.61 5.0263 2.20578 0
M  V30 2488 H 241.871 3.40252 2.82279 0
M  V30 2489 N 240.93 -0.123565 1.57115 0
M  V30 2490 C 242.155 -0.850398 1.89164 0
M  V30 2491 C 242.58 -1.7286 0.741688 0
M  V30 2492 O 241.938 -1.78665 -0.307958 0
M  V30 2493 C 241.986 -1.66353 3.19936 0
M  V30 2494 O 241.09 -2.77004 3.0552 0
M  V30 2495 H 240.431 -0.235454 0.620852 0
M  V30 2496 H 242.961 -0.107335 2.04318 0
M  V30 2497 H 242.971 -2.05372 3.52543 0
M  V30 2498 H 241.646 -1.01881 4.03228 0
M  V30 2499 H 240.223 -2.41221 2.84371 0
M  V30 2500 N 242.408 -1.52605 -0.393616 0
M  V30 2501 C 243.636 -1.71294 -1.16043 0
M  V30 2502 C 244.051 -0.429259 -1.83855 0
M  V30 2503 O 243.408 0.595921 -1.72496 0
M  V30 2504 C 243.459 -2.8593 -2.21193 0
M  V30 2505 O 243.18 -4.09329 -1.56146 0
M  V30 2506 C 244.681 -3.16259 -3.10636 0
M  V30 2507 H 241.901 -0.573641 -0.348104 0
M  V30 2508 H 244.445 -1.99234 -0.461092 0
M  V30 2509 H 242.6 -2.60465 -2.86769 0
M  V30 2510 H 243.014 -4.73323 -2.25978 0
M  V30 2511 H 244.488 -3.99946 -3.80456 0
M  V30 2512 H 244.965 -2.3045 -3.73884 0
M  V30 2513 H 245.571 -3.43547 -2.50711 0
M  V30 2514 N 243.887 0.651787 -1.4349 0
M  V30 2515 C 245.133 1.41376 -1.45398 0
M  V30 2516 C 245.466 1.94041 -0.0784823 0
M  V30 2517 O 244.741 1.72379 0.900878 0
M  V30 2518 C 245.024 2.59414 -2.49752 0
M  V30 2519 C 244.877 2.12232 -3.96582 0
M  V30 2520 C 246.196 3.61626 -2.50827 0
M  V30 2521 H 243.315 0.512719 -0.529422 0
M  V30 2522 H 245.957 0.738796 -1.75048 0
M  V30 2523 H 244.107 3.16997 -2.246 0
M  V30 2524 H 245.779 1.59639 -4.32797 0
M  V30 2525 H 244.022 1.43592 -4.09346 0
M  V30 2526 H 244.693 2.9712 -4.65214 0
M  V30 2527 H 247.169 3.13805 -2.7325 0
M  V30 2528 H 246.045 4.41766 -3.25783 0
M  V30 2529 H 246.306 4.14314 -1.5426 0
M  V30 2530 N 245.365 1.30045 0.890287 0
M  V30 2531 C 246.776 1.16738 1.45702 0
M  V30 2532 C 247.127 -0.233939 1.948 0
M  V30 2533 O 246.252 -1.13021 1.84541 0
M  V30 2534 C 246.847 2.11313 2.64825 0
M  V30 2535 C 245.406 2.02001 3.17604 0
M  V30 2536 C 244.553 2.01699 1.90296 0
M  V30 2537 H 247.504 1.42392 0.700726 0
M  V30 2538 H 247.525 1.69086 3.40867 0
M  V30 2539 H 247.037 3.13294 2.2906 0
M  V30 2540 H 245.138 1.03142 3.5804 0
M  V30 2541 H 245.251 2.90128 3.81264 0
M  V30 2542 H 243.615 1.46427 2.08402 0
M  V30 2543 H 244.398 3.05402 1.56795 0
M  V30 2544 N 246.843 -1.10192 1.12674 0
M  V30 2545 C 248.089 -1.82475 0.884915 0
M  V30 2546 C 248.422 -1.85093 -0.58773 0
M  V30 2547 O 247.697 -1.3134 -1.43457 0
M  V30 2548 C 247.98 -3.29018 1.46353 0
M  V30 2549 C 247.833 -3.34718 3.00473 0
M  V30 2550 C 249.152 -4.25473 1.12519 0
M  V30 2551 H 246.271 -0.662492 0.322915 0
M  V30 2552 H 248.913 -1.2913 1.39375 0
M  V30 2553 H 247.063 -3.74576 1.03077 0
M  V30 2554 H 248.735 -2.97622 3.52447 0
M  V30 2555 H 246.978 -2.74541 3.35872 0
M  V30 2556 H 247.649 -4.37918 3.36053 0
M  V30 2557 H 250.125 -3.88161 1.499 0
M  V30 2558 H 249.001 -5.26365 1.55663 0
M  V30 2559 H 249.262 -4.42084 0.0377407 0
M  V30 2560 N 248.321 -0.919034 -1.28029 0
M  V30 2561 C 249.284 -0.416182 -2.2539 0
M  V30 2562 C 250.284 0.460438 -1.54067 0
M  V30 2563 O 251.474 0.262744 -1.72207 0
M  V30 2564 C 248.606 0.402707 -3.38513 0
M  V30 2565 H 249.799 -1.27629 -2.71387 0
M  V30 2566 H 247.352 -0.698919 -1.39803 0
M  V30 2567 H 248.087 1.282 -2.97885 0
M  V30 2568 H 247.872 -0.225698 -3.9145 0
M  V30 2569 H 249.362 0.745191 -4.10897 0
M  V30 2570 N 249.799 1.42003 -0.683588 0
M  V30 2571 C 251.076 1.95112 -0.138075 0
M  V30 2572 C 251.456 1.62359 1.34918 0
M  V30 2573 O 250.804 0.924311 2.08971 0
M  V30 2574 C 251.014 3.46505 -0.416581 0
M  V30 2575 C 252.362 4.23254 -0.337834 0
M  V30 2576 O 253.386 3.54468 -0.35082 0
M  V30 2577 O 252.245 5.45743 -0.287596 0
M  V30 2578 H 249.339 0.826961 -0.00797996 0
M  V30 2579 H 251.885 1.51784 -0.758924 0
M  V30 2580 H 250.657 3.63582 -1.4465 0
M  V30 2581 H 250.28 3.969 0.235839 0
M  V30 2582 N 251.277 0.427512 1.51691 0
M  V30 2583 C 252.525 -0.141948 2.01601 0
M  V30 2584 C 252.846 -1.44067 1.31414 0
M  V30 2585 O 252.116 -1.90763 0.445658 0
M  V30 2586 H 250.696 -0.0554468 0.744939 0
M  V30 2587 H 253.358 0.567968 1.86441 0
M  V30 2588 H 252.454 -0.324913 3.10404 0
M  V30 2589 N 252.755 -1.56801 0.158532 0
M  V30 2590 C 253.685 -2.20347 -0.772609 0
M  V30 2591 C 254.666 -1.15518 -1.24859 0
M  V30 2592 O 255.851 -1.43902 -1.30406 0
M  V30 2593 C 252.981 -2.83417 -2.00729 0
M  V30 2594 C 251.935 -3.94174 -1.66765 0
M  V30 2595 C 251.261 -4.44233 -2.97592 0
M  V30 2596 C 252.561 -5.14392 -0.905447 0
M  V30 2597 H 254.255 -2.98413 -0.242959 0
M  V30 2598 H 251.801 -1.43537 -0.115419 0
M  V30 2599 H 253.754 -3.26543 -2.6636 0
M  V30 2600 H 252.478 -2.02701 -2.56086 0
M  V30 2601 H 251.137 -3.51684 -1.03508 0
M  V30 2602 H 250.785 -3.60325 -3.50963 0
M  V30 2603 H 250.485 -5.18945 -2.75626 0
M  V30 2604 H 252.009 -4.90037 -3.64274 0
M  V30 2605 H 253.423 -5.5429 -1.46408 0
M  V30 2606 H 251.82 -5.9494 -0.7853 0
M  V30 2607 H 252.89 -4.84795 0.100668 0
M  V30 2608 N 254.233 0.115231 -1.57178 0
M  V30 2609 C 255.183 1.14707 -1.97044 0
M  V30 2610 C 256.167 1.36866 -0.845957 0
M  V30 2611 O 257.359 1.37895 -1.10968 0
M  V30 2612 C 254.488 2.47266 -2.38148 0
M  V30 2613 C 253.574 2.28566 -3.57237 0
M  V30 2614 N 253.965 1.79685 -4.72807 0
M  V30 2615 C 252.263 2.59208 -3.62943 0
M  V30 2616 C 252.964 1.74781 -5.54821 0
M  V30 2617 N 251.94 2.19264 -4.97417 0
M  V30 2618 H 255.742 0.761754 -2.83857 0
M  V30 2619 H 253.256 0.322928 -1.59157 0
M  V30 2620 H 255.253 3.219 -2.64927 0
M  V30 2621 H 253.913 2.86552 -1.52702 0
M  V30 2622 H 254.924 1.49177 -4.9595 0
M  V30 2623 H 251.601 3.02154 -2.88113 0
M  V30 2624 H 252.991 1.38212 -6.57531 0
M  V30 2625 N 255.711 1.52812 0.385517 0
M  V30 2626 C 256.641 1.80808 1.47752 0
M  V30 2627 C 257.622 0.660318 1.5676 0
M  V30 2628 O 258.807 0.908246 1.71652 0
M  V30 2629 C 255.937 1.98008 2.85324 0
M  V30 2630 C 254.891 3.13709 2.91154 0
M  V30 2631 C 254.217 3.16169 4.31209 0
M  V30 2632 C 255.517 4.52709 2.60483 0
M  V30 2633 H 257.211 2.72253 1.24573 0
M  V30 2634 H 254.757 1.31003 0.597839 0
M  V30 2635 H 256.71 2.16176 3.61726 0
M  V30 2636 H 255.434 1.03255 3.09848 0
M  V30 2637 H 254.093 2.95329 2.17201 0
M  V30 2638 H 253.741 2.19092 4.52778 0
M  V30 2639 H 253.441 3.93894 4.36029 0
M  V30 2640 H 254.965 3.36496 5.09512 0
M  V30 2641 H 256.379 4.71173 3.26602 0
M  V30 2642 H 254.776 5.32528 2.76648 0
M  V30 2643 H 255.846 4.59186 1.55809 0
M  V30 2644 N 257.189 -0.644168 1.43834 0
M  V30 2645 C 258.136 -1.75671 1.49694 0
M  V30 2646 C 259.106 -1.6246 0.345809 0
M  V30 2647 O 260.291 -1.82573 0.554234 0
M  V30 2648 C 257.431 -3.13867 1.43463 0
M  V30 2649 C 256.544 -3.38147 2.6885 0
M  V30 2650 C 255.679 -4.66241 2.54544 0
M  V30 2651 C 254.718 -4.83657 3.75157 0
M  V30 2652 N 253.855 -6.03016 3.59605 0
M  V30 2653 H 258.695 -1.69998 2.44754 0
M  V30 2654 H 256.232 -0.829458 1.21484 0
M  V30 2655 H 258.19 -3.9377 1.37843 0
M  V30 2656 H 256.82 -3.18588 0.519783 0
M  V30 2657 H 255.872 -2.52276 2.84712 0
M  V30 2658 H 257.184 -3.46899 3.58417 0
M  V30 2659 H 256.338 -5.54285 2.46683 0
M  V30 2660 H 255.077 -4.59826 1.62516 0
M  V30 2661 H 254.082 -3.94046 3.83416 0
M  V30 2662 H 255.307 -4.91896 4.68204 0
M  V30 2663 H 253.253 -5.97715 2.7032 0
M  V30 2664 H 253.17 -6.12766 4.42779 0
M  V30 2665 H 254.438 -6.93657 3.55613 0
M  V30 2666 N 258.668 -1.30515 -0.883378 0
M  V30 2667 C 259.893 -1.22487 -1.67367 0
M  V30 2668 C 260.318 0.208767 -1.86938 0
M  V30 2669 O 259.676 1.15015 -1.40148 0
M  V30 2670 C 259.724 -1.96041 -3.02655 0
M  V30 2671 O 258.828 -1.28859 -3.91751 0
M  V30 2672 H 258.169 -0.423573 -0.511353 0
M  V30 2673 H 260.699 -1.72362 -1.10239 0
M  V30 2674 H 260.709 -2.05124 -3.52687 0
M  V30 2675 H 259.384 -3.00307 -2.8773 0
M  V30 2676 H 257.961 -1.28141 -3.50192 0
M  V30 2677 N 260.146 1.09593 -1.13257 0
M  V30 2678 C 261.393 1.81734 -0.893257 0
M  V30 2679 C 261.721 1.8563 0.580656 0
M  V30 2680 O 260.976 1.31906 1.44566 0
M  V30 2681 C 261.275 3.27802 -1.42411 0
M  V30 2682 C 260.941 3.44041 -2.91456 0
M  V30 2683 C 259.603 3.48181 -3.3215 0
M  V30 2684 C 261.955 3.48719 -3.87356 0
M  V30 2685 C 259.283 3.54575 -4.67433 0
M  V30 2686 C 261.635 3.56648 -5.2248 0
M  V30 2687 C 260.299 3.59055 -5.62704 0
M  V30 2688 H 259.569 0.665011 -0.326866 0
M  V30 2689 H 262.216 1.2912 -1.41422 0
M  V30 2690 H 260.521 3.83042 -0.823795 0
M  V30 2691 H 262.218 3.82149 -1.21503 0
M  V30 2692 H 258.808 3.41502 -2.58987 0
M  V30 2693 H 262.992 3.44763 -3.57004 0
M  V30 2694 H 258.248 3.54725 -4.97976 0
M  V30 2695 H 262.422 3.59212 -5.96607 0
M  V30 2696 H 260.049 3.63763 -6.67518 0
M  V30 2697 N 261.624 0.925811 1.2754 0
M  V30 2698 C 262.864 0.572521 1.96218 0
M  V30 2699 C 263.228 -0.869719 1.71172 0
M  V30 2700 O 264.429 -1.33119 2.33523 0
M  V30 2701 C 262.7 0.887325 3.4621 0
M  V30 2702 S 264.259 0.642266 4.34074 0
M  V30 2703 H 261.077 0.211403 0.678845 0
M  V30 2704 H 263.679 1.19384 1.54815 0
M  V30 2705 H 262.383 1.93469 3.61936 0
M  V30 2706 H 261.914 0.255123 3.92572 0
M  V30 2707 H 263.929 -0.500822 4.93666 0
M  V30 2708 N 263.102 -1.41638 0.69111 0
M  V30 2709 C 264.327 -2.06148 0.227583 0
M  V30 2710 C 264.752 -1.51652 -1.11281 0
M  V30 2711 O 264.11 -0.64164 -1.69566 0
M  V30 2712 C 264.158 -3.60095 0.190858 0
M  V30 2713 O 263.262 -4.03845 -0.835664 0
M  V30 2714 H 262.603 -0.654434 0.112306 0
M  V30 2715 H 265.133 -1.81484 0.944714 0
M  V30 2716 H 265.143 -4.07995 0.020207 0
M  V30 2717 H 263.818 -3.99129 1.16915 0
M  V30 2718 H 262.395 -3.67458 -0.63473 0
M  V30 2719 N 264.58 -0.43555 -1.51462 0
M  V30 2720 C 265.513 0.421989 -2.24264 0
M  V30 2721 C 266.491 1.02619 -1.26127 0
M  V30 2722 O 267.675 1.069 -1.55257 0
M  V30 2723 C 264.802 1.588 -2.99166 0
M  V30 2724 C 263.848 1.10465 -4.11946 0
M  V30 2725 S 264.681 0.048146 -5.35478 0
M  V30 2726 C 265.837 1.21887 -6.13917 0
M  V30 2727 H 266.07 -0.196102 -2.96653 0
M  V30 2728 H 263.603 -0.220054 -1.52824 0
M  V30 2729 H 265.561 2.25647 -3.42919 0
M  V30 2730 H 264.222 2.1775 -2.26371 0
M  V30 2731 H 263.415 1.97654 -4.63626 0
M  V30 2732 H 263.017 0.51445 -3.70445 0
M  V30 2733 H 265.309 2.13756 -6.42895 0
M  V30 2734 H 266.252 0.742076 -7.04201 0
M  V30 2735 H 266.66 1.45663 -5.45383 0
M  V30 2736 N 266.058 1.56714 -0.166846 0
M  V30 2737 C 267.021 2.16539 0.751232 0
M  V30 2738 C 268.021 1.11228 1.16125 0
M  V30 2739 O 269.211 1.36765 1.07894 0
M  V30 2740 C 266.343 2.74462 2.02196 0
M  V30 2741 H 267.536 2.99013 0.230499 0
M  V30 2742 H 265.089 1.56081 0.0826982 0
M  V30 2743 H 265.824 1.95709 2.58589 0
M  V30 2744 H 265.609 3.51527 1.73698 0
M  V30 2745 H 267.099 3.20489 2.67725 0
M  V30 2746 N 267.536 -0.106894 1.57237 0
M  V30 2747 C 268.784 -0.810921 1.85117 0
M  V30 2748 C 269.105 -1.7984 0.753827 0
M  V30 2749 O 268.375 -1.94649 -0.221056 0
M  V30 2750 H 266.955 -0.302466 0.683025 0
M  V30 2751 H 269.617 -0.0913324 1.94686 0
M  V30 2752 H 268.713 -1.34875 2.81452 0
M  V30 2753 N 269.014 -1.53014 -0.377408 0
M  V30 2754 C 270.425 -1.60438 -0.954798 0
M  V30 2755 C 270.776 -0.464418 -1.90624 0
M  V30 2756 O 269.901 0.41087 -2.12464 0
M  V30 2757 C 270.496 -2.90797 -1.73847 0
M  V30 2758 C 269.055 -3.00595 -2.26538 0
M  V30 2759 C 268.202 -2.55645 -1.07429 0
M  V30 2760 H 271.153 -1.57926 -0.156575 0
M  V30 2761 H 271.174 -2.77935 -2.5987 0
M  V30 2762 H 270.686 -3.73746 -1.04574 0
M  V30 2763 H 268.787 -2.22208 -2.99089 0
M  V30 2764 H 268.9 -4.05456 -2.5523 0
M  V30 2765 H 267.264 -2.10239 -1.43777 0
M  V30 2766 H 268.047 -3.41 -0.396728 0
M  V30 2767 N 270.492 0.636531 -1.44174 0
M  V30 2768 C 271.44 1.76995 -1.50915 0
M  V30 2769 C 272.434 1.65053 -0.381295 0
M  V30 2770 O 273.64 1.71197 -0.55601 0
M  V30 2771 H 270.015 0.584247 -0.473455 0
M  V30 2772 H 271.986 1.68432 -2.4632 0
M  V30 2773 C 270.735 3.15314 -1.46534 0
M  V30 2774 H 270.058 3.25149 -2.32633 0
M  V30 2775 H 271.498 3.9453 -1.55312 0
M  V30 2776 C 269.957 3.3639 -0.185305 0
M  V30 2777 O 270.487 3.94699 0.746688 0
M  V30 2778 N 268.693 2.9046 -0.0901606 0
M  V30 2779 H 268.24 2.43193 -0.849416 0
M  V30 2780 H 268.198 3.04937 0.765553 0
M  V30 2781 N 271.97 1.30982 0.876444 0
M  V30 2782 C 272.9 1.20668 1.99903 0
M  V30 2783 C 273.881 0.095354 1.69833 0
M  V30 2784 O 275.066 0.27885 1.92188 0
M  V30 2785 C 272.196 0.90655 3.3526 0
M  V30 2786 C 271.15 1.97675 3.79617 0
M  V30 2787 C 270.476 1.52943 5.1236 0
M  V30 2788 C 271.776 3.389 3.97422 0
M  V30 2789 H 273.47 2.14586 2.0879 0
M  V30 2790 H 271.016 1.03308 1.00317 0
M  V30 2791 H 272.969 0.821025 4.13324 0
M  V30 2792 H 271.693 -0.0682969 3.26529 0
M  V30 2793 H 270.352 2.05205 3.03787 0
M  V30 2794 H 270 0.54262 5.00065 0
M  V30 2795 H 269.7 2.24532 5.43009 0
M  V30 2796 H 271.224 1.45786 5.92941 0
M  V30 2797 H 272.638 3.34081 4.659 0
M  V30 2798 H 271.035 4.0865 4.3946 0
M  V30 2799 H 272.105 3.80163 3.01006 0
M  V30 2800 N 273.449 -1.08991 1.13837 0
M  V30 2801 C 274.698 -1.80631 0.897509 0
M  V30 2802 C 275.011 -1.86872 -0.57777 0
M  V30 2803 O 276.217 -2.54866 -0.935701 0
M  V30 2804 C 274.673 -3.24517 1.55618 0
M  V30 2805 C 274.281 -3.26529 3.0673 0
M  V30 2806 C 276.025 -4.00882 1.3962 0
M  V30 2807 C 273.932 -4.64965 3.65461 0
M  V30 2808 H 272.862 -0.67691 0.332129 0
M  V30 2809 H 275.513 -1.2246 1.3666 0
M  V30 2810 H 273.895 -3.82778 1.01476 0
M  V30 2811 H 275.069 -2.78008 3.67489 0
M  V30 2812 H 273.384 -2.63656 3.22296 0
M  V30 2813 H 275.981 -5.03167 1.80906 0
M  V30 2814 H 276.324 -4.14896 0.341578 0
M  V30 2815 H 276.857 -3.49075 1.90766 0
M  V30 2816 H 273.596 -4.56153 4.70749 0
M  V30 2817 H 273.116 -5.13792 3.09481 0
M  V30 2818 H 274.795 -5.3394 3.654 0
M  V30 2819 N 274.927 -0.932562 -1.27047 0
M  V30 2820 C 275.89 -0.440064 -2.24936 0
M  V30 2821 C 276.89 0.444071 -1.54547 0
M  V30 2822 O 278.08 0.244465 -1.72476 0
M  V30 2823 C 275.212 0.36678 -3.38921 0
M  V30 2824 H 276.405 -1.305 -2.70018 0
M  V30 2825 H 273.958 -0.713707 -1.39054 0
M  V30 2826 H 274.693 1.25033 -2.99228 0
M  V30 2827 H 274.478 -0.267204 -3.91188 0
M  V30 2828 H 275.968 0.701567 -4.11665 0
M  V30 2829 N 276.405 1.4127 -0.698611 0
M  V30 2830 C 277.654 2.00408 -0.227949 0
M  V30 2831 C 277.967 1.55981 1.18023 0
M  V30 2832 O 279.173 2.07699 1.74852 0
M  V30 2833 C 277.629 3.58129 -0.356636 0
M  V30 2834 C 277.237 4.11536 -1.77037 0
M  V30 2835 C 278.981 4.24466 0.0540969 0
M  V30 2836 C 276.888 5.61701 -1.85055 0
M  V30 2837 H 275.818 0.749586 -0.0814657 0
M  V30 2838 H 278.469 1.61713 -0.867249 0
M  V30 2839 H 276.851 3.94442 0.350965 0
M  V30 2840 H 278.025 3.86636 -2.50698 0
M  V30 2841 H 276.34 3.57736 -2.13105 0
M  V30 2842 H 278.937 5.34698 0.0146723 0
M  V30 2843 H 279.28 4.01687 1.09332 0
M  V30 2844 H 279.813 3.93198 -0.603337 0
M  V30 2845 H 276.552 5.89312 -2.8704 0
M  V30 2846 H 276.072 5.88519 -1.15783 0
M  V30 2847 H 277.751 6.26524 -1.61484 0
M  V30 2848 N 277.883 0.443576 1.51229 0
M  V30 2849 C 279.131 -0.120557 2.0174 0
M  V30 2850 C 279.452 -1.42665 1.32935 0
M  V30 2851 O 278.722 -1.9028 0.465866 0
M  V30 2852 H 277.302 -0.0475426 0.745486 0
M  V30 2853 H 279.964 0.587711 1.85828 0
M  V30 2854 H 279.06 -0.291972 3.10731 0
M  V30 2855 N 279.361 -1.56624 0.175154 0
M  V30 2856 C 280.586 -2.01813 -0.478137 0
M  V30 2857 C 281.011 -1.05457 -1.55757 0
M  V30 2858 O 280.369 -0.0347439 -1.81267 0
M  V30 2859 C 280.417 -3.45581 -1.02987 0
M  V30 2860 O 279.521 -3.52305 -2.14371 0
M  V30 2861 H 278.862 -0.65413 -0.114059 0
M  V30 2862 H 281.392 -2.02673 0.280173 0
M  V30 2863 H 281.402 -3.84965 -1.35151 0
M  V30 2864 H 280.077 -4.1521 -0.239556 0
M  V30 2865 H 278.654 -3.24783 -1.83222 0
M  V30 2866 N 280.839 0.0985539 -1.57292 0
M  V30 2867 C 282.064 0.820196 -1.90493 0
M  V30 2868 C 282.489 1.71658 -0.769094 0
M  V30 2869 O 281.847 1.79133 0.279495 0
M  V30 2870 C 281.895 1.61242 -3.22542 0
M  V30 2871 O 280.999 2.72108 -3.09888 0
M  V30 2872 H 280.34 0.225547 -0.62452 0
M  V30 2873 H 282.87 0.0748159 -2.04463 0
M  V30 2874 H 282.88 1.99737 -3.55766 0
M  V30 2875 H 281.555 0.954535 -4.04798 0
M  V30 2876 H 280.132 2.36667 -2.88172 0
M  V30 2877 N 282.317 1.53212 0.369288 0
M  V30 2878 C 283.227 1.82342 1.47609 0
M  V30 2879 C 284.243 0.711532 1.58787 0
M  V30 2880 O 285.419 1.0012 1.74751 0
M  V30 2881 C 282.484 2.00393 2.8292 0
M  V30 2882 C 281.545 3.24297 2.81301 0
M  V30 2883 C 280.778 3.41478 4.10157 0
M  V30 2884 O 281.001 2.63033 5.06132 0
M  V30 2885 O 279.935 4.34817 4.16194 0
M  V30 2886 H 283.761 2.76366 1.25918 0
M  V30 2887 H 281.346 1.38547 0.559034 0
M  V30 2888 H 283.228 2.13859 3.63101 0
M  V30 2889 H 281.903 1.09559 3.04596 0
M  V30 2890 H 280.81 3.16257 1.99831 0
M  V30 2891 H 282.143 4.15041 2.64578 0
M  V30 2892 N 283.795 -0.628877 1.44509 0
M  V30 2893 C 285.02 -1.42048 1.5112 0
M  V30 2894 C 285.445 -1.87594 0.137818 0
M  V30 2895 O 284.803 -1.58873 -0.873437 0
M  V30 2896 C 284.851 -2.61541 2.48251 0
M  V30 2897 O 283.955 -3.61453 1.98559 0
M  V30 2898 H 283.296 -0.424942 0.510216 0
M  V30 2899 H 285.826 -0.767374 1.89664 0
M  V30 2900 H 285.836 -3.09057 2.66361 0
M  V30 2901 H 284.511 -2.27736 3.48007 0
M  V30 2902 H 283.088 -3.20731 1.90227 0
M  V30 2903 N 285.273 -1.31445 -0.869486 0
M  V30 2904 C 286.236 -1.19094 -1.9583 0
M  V30 2905 C 287.236 -0.117906 -1.60367 0
M  V30 2906 O 288.426 -0.367208 -1.70286 0
M  V30 2907 C 285.558 -0.828165 -3.30688 0
M  V30 2908 H 286.751 -2.15842 -2.08212 0
M  V30 2909 H 284.304 -1.15063 -1.05784 0
M  V30 2910 H 285.039 0.138142 -3.24006 0
M  V30 2911 H 284.824 -1.6038 -3.578 0
M  V30 2912 H 286.314 -0.765658 -4.10521 0
M  V30 2913 N 286.751 1.08385 -1.14413 0
M  V30 2914 C 287.683 2.1519 -0.789036 0
M  V30 2915 C 288.696 1.61638 0.19417 0
M  V30 2916 O 289.885 1.78479 -0.0275711 0
M  V30 2917 C 286.985 3.38565 -0.15058 0
M  V30 2918 C 286.158 4.21501 -1.16857 0
M  V30 2919 C 285.217 5.23277 -0.553832 0
M  V30 2920 O 284.243 5.56041 -1.21686 0
M  V30 2921 N 285.445 5.76629 0.669296 0
M  V30 2922 H 288.21 2.46257 -1.70814 0
M  V30 2923 H 285.771 1.24198 -1.03858 0
M  V30 2924 H 287.763 4.03777 0.273181 0
M  V30 2925 H 286.333 3.05299 0.671667 0
M  V30 2926 H 285.553 3.52265 -1.76926 0
M  V30 2927 H 286.841 4.73731 -1.85624 0
M  V30 2928 H 286.239 5.52243 1.22654 0
M  V30 2929 H 284.796 6.43521 1.03556 0
M  V30 2930 N 288.23 0.939286 1.26551 0
M  V30 2931 C 289.177 0.446088 2.26448 0
M  V30 2932 C 290.147 -0.493234 1.58608 0
M  V30 2933 O 291.332 -0.409857 1.86346 0
M  V30 2934 C 288.472 -0.284375 3.43926 0
M  V30 2935 C 287.585 0.690399 4.26448 0
M  V30 2936 C 286.72 -0.0610712 5.31165 0
M  V30 2937 C 285.759 0.905649 6.05363 0
M  V30 2938 N 284.896 0.186055 7.01853 0
M  V30 2939 H 289.736 1.30291 2.68008 0
M  V30 2940 H 287.273 0.65371 1.31776 0
M  V30 2941 H 289.231 -0.724313 4.10864 0
M  V30 2942 H 287.861 -1.10535 3.03285 0
M  V30 2943 H 286.913 1.24885 3.59316 0
M  V30 2944 H 288.225 1.42873 4.779 0
M  V30 2945 H 287.379 -0.56038 6.04106 0
M  V30 2946 H 286.118 -0.832297 4.80546 0
M  V30 2947 H 285.123 1.4161 5.3125 0
M  V30 2948 H 286.348 1.67685 6.58072 0
M  V30 2949 H 284.294 -0.566714 6.53548 0
M  V30 2950 H 284.211 0.863752 7.51049 0
M  V30 2951 H 285.479 -0.292221 7.78952 0
M  V30 2952 N 289.708 -1.40897 0.706093 0
M  V30 2953 C 290.671 -2.29131 0.0562841 0
M  V30 2954 C 291.671 -1.44901 -0.697166 0
M  V30 2955 O 292.861 -1.65926 -0.530484 0
M  V30 2956 C 289.993 -3.27957 -0.93043 0
M  V30 2957 H 291.186 -2.88091 0.833284 0
M  V30 2958 H 288.739 -1.4906 0.470192 0
M  V30 2959 H 289.474 -2.73997 -1.73482 0
M  V30 2960 H 289.259 -3.90124 -0.393166 0
M  V30 2961 H 290.749 -3.94049 -1.38256 0
M  V30 2962 N 291.186 -0.45159 -1.50991 0
M  V30 2963 C 292.116 0.342898 -2.30969 0
M  V30 2964 C 293.097 1.00815 -1.37005 0
M  V30 2965 O 294.282 1.00907 -1.65926 0
M  V30 2966 C 291.412 1.43637 -3.16205 0
M  V30 2967 C 290.366 0.893818 -4.18563 0
M  V30 2968 C 289.692 2.08411 -4.92411 0
M  V30 2969 C 290.992 -0.0815568 -5.22236 0
M  V30 2970 H 292.686 -0.324556 -2.97636 0
M  V30 2971 H 290.232 -0.157531 -1.43136 0
M  V30 2972 H 292.185 1.9995 -3.70942 0
M  V30 2973 H 290.909 2.13232 -2.47386 0
M  V30 2974 H 289.568 0.352798 -3.64898 0
M  V30 2975 H 289.216 2.76658 -4.20082 0
M  V30 2976 H 288.916 1.72741 -5.61636 0
M  V30 2977 H 290.44 2.65251 -5.49976 0
M  V30 2978 H 291.854 0.391742 -5.7196 0
M  V30 2979 H 290.251 -0.351551 -5.99069 0
M  V30 2980 H 291.321 -1.01374 -4.74185 0
M  V30 2981 N 292.664 1.56529 -0.183458 0
M  V30 2982 C 293.611 2.18546 0.742055 0
M  V30 2983 C 294.581 1.12912 1.2182 0
M  V30 2984 O 295.766 1.41115 1.28418 0
M  V30 2985 C 292.906 2.83977 1.96089 0
M  V30 2986 C 292.019 4.04105 1.52719 0
M  V30 2987 C 291.154 4.57427 2.70063 0
M  V30 2988 C 290.193 5.69938 2.23243 0
M  V30 2989 N 289.33 6.17717 3.33722 0
M  V30 2990 H 294.17 2.97284 0.206432 0
M  V30 2991 H 291.707 1.46823 0.0901571 0
M  V30 2992 H 293.665 3.20077 2.67594 0
M  V30 2993 H 292.295 2.07822 2.47002 0
M  V30 2994 H 291.347 3.73745 0.708436 0
M  V30 2995 H 292.659 4.85513 1.1436 0
M  V30 2996 H 291.813 4.95772 3.49708 0
M  V30 2997 H 290.552 3.75101 3.11689 0
M  V30 2998 H 289.557 5.31133 1.42048 0
M  V30 2999 H 290.782 6.54073 1.82661 0
M  V30 3000 H 288.728 5.38317 3.74902 0
M  V30 3001 H 288.645 6.94146 2.99495 0
M  V30 3002 H 289.913 6.60713 4.13616 0
M  V30 3003 N 294.142 -0.090211 1.57342 0
M  V30 3004 C 295.391 -0.791531 1.8552 0
M  V30 3005 C 295.704 -1.79659 0.773441 0
M  V30 3006 O 296.91 -2.54616 0.942497 0
M  V30 3007 C 295.366 -1.45856 3.2902 0
M  V30 3008 C 294.974 -0.493017 4.45279 0
M  V30 3009 C 296.718 -2.14332 3.66418 0
M  V30 3010 C 294.625 -1.16491 5.79814 0
M  V30 3011 H 293.555 -0.299356 0.692027 0
M  V30 3012 H 296.206 -0.0445343 1.83446 0
M  V30 3013 H 294.588 -2.25318 3.2565 0
M  V30 3014 H 295.762 0.270464 4.60006 0
M  V30 3015 H 294.077 0.0863061 4.16311 0
M  V30 3016 H 296.674 -2.65344 4.64216 0
M  V30 3017 H 297.017 -2.93447 2.95287 0
M  V30 3018 H 297.55 -1.41724 3.71698 0
M  V30 3019 H 294.289 -0.41447 6.54188 0
M  V30 3020 H 293.809 -1.8997 5.68921 0
M  V30 3021 H 295.488 -1.69001 6.24538 0
M  V30 3022 N 295.62 -1.53406 -0.361157 0
M  V30 3023 C 296.553 -1.74946 -1.46524 0
M  V30 3024 C 297.531 -0.59795 -1.51206 0
M  V30 3025 O 298.715 -0.831062 -1.69191 0
M  V30 3026 C 295.842 -1.83224 -2.84863 0
M  V30 3027 C 294.888 -3.05233 -2.97885 0
M  V30 3028 S 295.721 -4.6466 -2.66179 0
M  V30 3029 C 296.877 -4.75793 -4.06659 0
M  V30 3030 H 297.11 -2.68319 -1.28033 0
M  V30 3031 H 294.643 -1.44051 -0.555764 0
M  V30 3032 H 296.601 -1.88679 -3.64569 0
M  V30 3033 H 295.262 -0.908948 -3.00661 0
M  V30 3034 H 294.455 -3.07648 -3.9921 0
M  V30 3035 H 294.057 -2.97913 -2.26106 0
M  V30 3036 H 296.349 -4.5612 -5.0096 0
M  V30 3037 H 297.292 -5.7786 -4.09247 0
M  V30 3038 H 297.7 -4.04389 -3.93865 0
M  V30 3039 N 297.098 0.621204 -1.44841 0
M  V30 3040 C 298.03 1.74615 -1.48466 0
M  V30 3041 C 299.043 1.58377 -0.37691 0
M  V30 3042 O 300.232 1.66508 -0.643215 0
M  V30 3043 C 297.332 3.12459 -1.31236 0
M  V30 3044 C 296.505 3.55064 -2.55438 0
M  V30 3045 C 295.564 4.71821 -2.32963 0
M  V30 3046 O 294.59 4.79628 -3.06505 0
M  V30 3047 N 295.792 5.64186 -1.36654 0
M  V30 3048 H 298.557 1.71973 -2.45449 0
M  V30 3049 H 296.118 0.806077 -1.40407 0
M  V30 3050 H 298.11 3.88302 -1.14032 0
M  V30 3051 H 296.68 3.09686 -0.4258 0
M  V30 3052 H 295.9 2.69324 -2.87851 0
M  V30 3053 H 297.188 3.80284 -3.38026 0
M  V30 3054 H 296.586 5.6058 -0.759344 0
M  V30 3055 H 295.143 6.39618 -1.25425 0
M  V30 3056 N 298.576 1.31904 0.862503 0
M  V30 3057 C 299.508 1.16005 1.97675 0
M  V30 3058 C 300.521 0.0971234 1.6251 0
M  V30 3059 O 301.71 0.345337 1.75128 0
M  V30 3060 C 298.81 0.751791 3.30456 0
M  V30 3061 C 297.983 1.90133 3.93914 0
M  V30 3062 C 297.042 1.4779 5.05019 0
M  V30 3063 O 296.068 2.18872 5.25437 0
M  V30 3064 N 297.27 0.369491 5.79323 0
M  V30 3065 H 300.035 2.11982 2.11857 0
M  V30 3066 H 297.596 1.24337 1.03691 0
M  V30 3067 H 299.588 0.451084 4.02178 0
M  V30 3068 H 298.158 -0.116593 3.12382 0
M  V30 3069 H 297.378 2.36896 3.15078 0
M  V30 3070 H 298.666 2.67111 4.33047 0
M  V30 3071 H 298.064 -0.222299 5.65263 0
M  V30 3072 H 296.621 0.128354 6.51674 0
M  V30 3073 N 300.054 -1.07777 1.14986 0
M  V30 3074 C 300.987 -2.14228 0.786243 0
M  V30 3075 C 301.965 -1.60888 -0.235347 0
M  V30 3076 O 303.149 -1.88099 -0.122909 0
M  V30 3077 C 300.276 -3.38281 0.168433 0
M  V30 3078 C 299.322 -4.10387 1.16123 0
M  V30 3079 S 300.155 -4.62371 2.70135 0
M  V30 3080 C 301.311 -5.89704 2.09762 0
M  V30 3081 H 301.544 -2.44741 1.68787 0
M  V30 3082 H 299.077 -1.19984 0.971756 0
M  V30 3083 H 301.035 -4.10098 -0.181588 0
M  V30 3084 H 299.696 -3.05953 -0.710725 0
M  V30 3085 H 298.889 -4.99431 0.677086 0
M  V30 3086 H 298.491 -3.44513 1.45556 0
M  V30 3087 H 300.783 -6.61648 1.45701 0
M  V30 3088 H 301.726 -6.42824 2.96955 0
M  V30 3089 H 302.134 -5.4302 1.54239 0
M  V30 3090 N 301.532 -0.945985 -1.26051 0
M  V30 3091 C 302.757 -0.612525 -1.98149 0
M  V30 3092 C 303.182 0.806623 -1.69927 0
M  V30 3093 O 302.54 1.54411 -0.950108 0
M  V30 3094 C 302.588 -0.866981 -3.50023 0
M  V30 3095 O 301.692 0.0585333 -4.12358 0
M  V30 3096 H 301.033 -0.23379 -0.621481 0
M  V30 3097 H 303.563 -1.27023 -1.60395 0
M  V30 3098 H 303.573 -0.789792 -4.00283 0
M  V30 3099 H 302.248 -1.90135 -3.69894 0
M  V30 3100 H 300.825 -0.0701241 -3.72834 0
M  V30 3101 N 303.011 1.40521 -0.713556 0
M  V30 3102 C 304.288 1.94775 -0.17943 0
M  V30 3103 C 304.668 1.65184 1.31444 0
M  V30 3104 O 304.016 0.968429 2.06963 0
M  V30 3105 C 304.226 3.45543 -0.489986 0
M  V30 3106 C 305.574 4.22442 -0.427536 0
M  V30 3107 O 306.598 3.53644 -0.425929 0
M  V30 3108 O 305.457 5.4501 -0.403292 0
M  V30 3109 H 302.551 0.826606 -0.0255192 0
M  V30 3110 H 305.097 1.5014 -0.790949 0
M  V30 3111 H 303.869 3.60432 -1.5233 0
M  V30 3112 H 303.492 3.97311 0.151598 0
M  V30 3113 N 304.489 0.459591 1.5075 0
M  V30 3114 C 305.439 -0.358926 2.25157 0
M  V30 3115 C 306.423 -0.971285 1.28276 0
M  V30 3116 O 307.615 -0.885739 1.53244 0
M  V30 3117 C 304.744 -1.44695 3.11317 0
M  V30 3118 C 303.83 -0.842894 4.15639 0
M  V30 3119 N 304.221 0.0299373 5.05791 0
M  V30 3120 C 302.519 -1.10809 4.32015 0
M  V30 3121 C 303.22 0.371563 5.80512 0
M  V30 3122 N 302.196 -0.250409 5.43023 0
M  V30 3123 H 305.998 0.313636 2.92222 0
M  V30 3124 H 303.512 0.273021 1.60089 0
M  V30 3125 H 305.509 -2.04641 3.63218 0
M  V30 3126 H 304.169 -2.12162 2.45799 0
M  V30 3127 H 305.18 0.39797 5.16369 0
M  V30 3128 H 301.857 -1.7786 3.77719 0
M  V30 3129 H 303.247 1.08319 6.63111 0
M  V30 3130 N 305.967 -1.56429 0.191757 0
M  V30 3131 C 307.383 -1.58754 -0.164137 0
M  V30 3132 C 307.583 -1.20782 -1.61288 0
M  V30 3133 O 306.639 -0.928999 -2.34789 0
M  V30 3134 C 307.952 -3.00396 0.135195 0
M  V30 3135 C 309.5 -3.1291 0.0750351 0
M  V30 3136 C 309.975 -4.56679 0.347632 0
M  V30 3137 N 311.466 -4.62252 0.296131 0
M  V30 3138 C 312.201 -5.71379 0.480948 0
M  V30 3139 N 311.697 -6.88986 0.725933 0
M  V30 3140 N 313.49 -5.60563 0.415435 0
M  V30 3141 H 305.641 -1.79393 1.13718 0
M  V30 3142 H 307.904 -0.832414 0.453643 0
M  V30 3143 H 307.61 -3.32726 1.13958 0
M  V30 3144 H 307.484 -3.72963 -0.563773 0
M  V30 3145 H 309.871 -2.80394 -0.919948 0
M  V30 3146 H 309.952 -2.42736 0.807029 0
M  V30 3147 H 309.596 -4.89907 1.33992 0
M  V30 3148 H 309.526 -5.25039 -0.405212 0
M  V30 3149 H 312.017 -3.7773 0.113259 0
M  V30 3150 H 312.33 -7.68046 0.855857 0
M  V30 3151 H 310.675 -6.90801 0.762788 0
M  V30 3152 H 313.866 -4.67561 0.224486 0
M  V30 3153 H 314.039 -6.45551 0.562889 0
M  V30 3154 N 307.445 0.0818655 -1.57387 0
M  V30 3155 C 308.675 0.794954 -1.90694 0
M  V30 3156 C 309.083 1.72147 -0.784982 0
M  V30 3157 O 308.426 1.81974 0.251196 0
M  V30 3158 C 308.488 1.65042 -3.19376 0
M  V30 3159 C 308.152 0.894337 -4.48164 0
M  V30 3160 C 309.149 0.21813 -5.19442 0
M  V30 3161 C 306.834 0.864495 -4.94805 0
M  V30 3162 C 308.828 -0.477802 -6.35607 0
M  V30 3163 C 306.515 0.164785 -6.10878 0
M  V30 3164 C 307.513 -0.505173 -6.81129 0
M  V30 3165 O 307.201 -1.19363 -7.94989 0
M  V30 3166 H 306.933 0.231779 -0.635023 0
M  V30 3167 H 309.487 0.059493 -2.05314 0
M  V30 3168 H 307.717 2.42844 -3.00938 0
M  V30 3169 H 309.406 2.24127 -3.38411 0
M  V30 3170 H 310.172 0.232558 -4.84442 0
M  V30 3171 H 306.051 1.37542 -4.40004 0
M  V30 3172 H 309.595 -1.00129 -6.90377 0
M  V30 3173 H 305.492 0.148249 -6.4533 0
M  V30 3174 H 306.26 -1.10188 -8.11049 0
M  V30 3175 N 308.923 1.53595 0.353017 0
M  V30 3176 C 310.2 1.61002 1.11075 0
M  V30 3177 C 310.58 0.425356 2.0677 0
M  V30 3178 O 309.928 -0.583267 2.2093 0
M  V30 3179 C 310.138 2.96631 1.83877 0
M  V30 3180 C 311.486 3.51653 2.37961 0
M  V30 3181 O 312.51 2.98743 1.93987 0
M  V30 3182 O 311.369 4.44177 3.18386 0
M  V30 3183 H 308.463 0.650825 0.510251 0
M  V30 3184 H 311.009 1.6594 0.35527 0
M  V30 3185 H 309.781 3.74293 1.14108 0
M  V30 3186 H 309.404 2.95242 2.66304 0
M  V30 3187 N 310.401 -0.613514 1.45168 0
M  V30 3188 C 311.348 -1.72456 1.53387 0
M  V30 3189 C 312.318 -1.6169 0.380191 0
M  V30 3190 O 313.503 -1.81356 0.592836 0
M  V30 3191 C 310.643 -3.10753 1.50088 0
M  V30 3192 C 309.756 -3.32368 2.75963 0
M  V30 3193 C 308.891 -4.60737 2.64376 0
M  V30 3194 C 307.93 -4.7559 3.85332 0
M  V30 3195 N 307.067 -5.95253 3.72315 0
M  V30 3196 H 311.907 -1.64768 2.48305 0
M  V30 3197 H 309.444 -0.803503 1.23216 0
M  V30 3198 H 311.402 -3.90758 1.46164 0
M  V30 3199 H 310.032 -3.17413 0.587243 0
M  V30 3200 H 309.084 -2.4618 2.89999 0
M  V30 3201 H 310.396 -3.39218 3.65695 0
M  V30 3202 H 309.55 -5.48928 2.58385 0
M  V30 3203 H 308.289 -4.56275 1.72233 0
M  V30 3204 H 307.294 -3.85824 3.91688 0
M  V30 3205 H 308.519 -4.81854 4.78533 0
M  V30 3206 H 306.465 -5.91847 2.82937 0
M  V30 3207 H 306.382 -6.03236 4.55677 0
M  V30 3208 H 307.65 -6.85958 3.70246 0
M  V30 3209 N 311.879 -1.3236 -0.855495 0
M  V30 3210 C 312.809 -1.23833 -1.97958 0
M  V30 3211 C 313.79 -0.122361 -1.69659 0
M  V30 3212 O 314.975 -0.30939 -1.9172 0
M  V30 3213 C 312.105 -0.959772 -3.33775 0
M  V30 3214 C 311.059 -2.03689 -3.76424 0
M  V30 3215 C 310.385 -1.61075 -5.09862 0
M  V30 3216 C 311.685 -3.4518 -3.9198 0
M  V30 3217 H 313.379 -2.1788 -2.0535 0
M  V30 3218 H 310.925 -1.04891 -0.986605 0
M  V30 3219 H 312.878 -0.886678 -4.11966 0
M  V30 3220 H 311.602 0.0163404 -3.26596 0
M  V30 3221 H 310.261 -2.10012 -3.00484 0
M  V30 3222 H 309.909 -0.622107 -4.99138 0
M  V30 3223 H 309.609 -2.33143 -5.39368 0
M  V30 3224 H 311.133 -1.55201 -5.90546 0
M  V30 3225 H 312.547 -3.4145 -4.60526 0
M  V30 3226 H 310.944 -4.1559 -4.32903 0
M  V30 3227 H 312.014 -3.84903 -2.94919 0
M  V30 3228 N 313.357 1.07166 -1.15556 0
M  V30 3229 C 314.585 1.83514 -0.955519 0
M  V30 3230 C 315 1.82163 0.49621 0
M  V30 3231 O 314.357 1.23441 1.34419 0
M  V30 3232 C 314.408 3.30515 -1.46432 0
M  V30 3233 O 314.129 3.31937 -2.85918 0
M  V30 3234 C 315.63 4.23625 -1.30603 0
M  V30 3235 H 312.85 0.578926 -0.339244 0
M  V30 3236 H 315.394 1.35265 -1.53374 0
M  V30 3237 H 313.549 3.76106 -0.928584 0
M  V30 3238 H 313.963 4.23794 -3.09029 0
M  V30 3239 H 315.437 5.24831 -1.71047 0
M  V30 3240 H 315.914 4.38485 -0.250441 0
M  V30 3241 H 316.52 3.83871 -1.83094 0
M  V30 3242 N 314.835 0.952656 1.25548 0
M  V30 3243 C 316.081 0.607272 1.93494 0
M  V30 3244 C 316.414 -0.853245 1.74452 0
M  V30 3245 O 315.689 -1.61194 1.08843 0
M  V30 3246 C 315.972 0.96435 3.46947 0
M  V30 3247 C 315.825 2.48045 3.75225 0
M  V30 3248 C 317.144 0.487987 4.37386 0
M  V30 3249 H 314.263 0.222096 0.702739 0
M  V30 3250 H 316.905 1.18895 1.48203 0
M  V30 3251 H 315.055 0.469361 3.85654 0
M  V30 3252 H 316.727 3.04905 3.46166 0
M  V30 3253 H 314.97 2.919 3.209 0
M  V30 3254 H 315.641 2.6808 4.82532 0
M  V30 3255 H 318.117 0.912558 4.0597 0
M  V30 3256 H 316.993 0.766547 5.43521 0
M  V30 3257 H 317.254 -0.612063 4.37843 0
M  V30 3258 N 316.313 -1.40141 0.720998 0
M  V30 3259 C 317.724 -1.83678 0.334553 0
M  V30 3260 C 318.075 -1.6027 -1.13173 0
M  V30 3261 O 317.2 -1.08643 -1.87152 0
M  V30 3262 C 317.795 -3.33437 0.600437 0
M  V30 3263 C 316.354 -3.75447 0.267642 0
M  V30 3264 C 315.501 -2.63296 0.870097 0
M  V30 3265 H 318.452 -1.29331 0.919732 0
M  V30 3266 H 318.473 -3.80269 -0.132517 0
M  V30 3267 H 317.985 -3.50442 1.66768 0
M  V30 3268 H 316.086 -3.64035 -0.794329 0
M  V30 3269 H 316.199 -4.73344 0.74042 0
M  V30 3270 H 314.563 -2.52954 0.297739 0
M  V30 3271 H 315.346 -2.83112 1.94172 0
M  V30 3272 N 317.792 -0.46758 -1.50504 0
M  V30 3273 C 319.069 0.15003 -1.95024 0
M  V30 3274 C 319.449 1.57304 -1.40779 0
M  V30 3275 O 318.797 2.20281 -0.607319 0
M  V30 3276 C 319.007 0.0969324 -3.48865 0
M  V30 3277 C 320.355 0.287565 -4.23625 0
M  V30 3278 O 321.379 0.173678 -3.55776 0
M  V30 3279 O 320.238 0.517186 -5.44047 0
M  V30 3280 H 317.332 0.113582 -0.819163 0
M  V30 3281 H 319.878 -0.52773 -1.61286 0
M  V30 3282 H 318.65 -0.896732 -3.80886 0
M  V30 3283 H 318.273 0.816303 -3.8913 0
M  V30 3284 N 319.27 1.56325 -0.20005 0
M  V30 3285 C 320.547 1.89484 0.48529 0
M  V30 3286 C 320.927 1.1143 1.79294 0
M  V30 3287 O 320.275 0.216919 2.27468 0
M  V30 3288 C 320.485 3.41923 0.699243 0
M  V30 3289 C 321.833 4.12256 1.01638 0
M  V30 3290 O 322.857 3.47402 0.786792 0
M  V30 3291 O 321.716 5.26887 1.45095 0
M  V30 3292 H 318.81 0.787144 0.253639 0
M  V30 3293 H 321.356 1.67985 -0.240633 0
M  V30 3294 H 320.128 3.90658 -0.224008 0
M  V30 3295 H 319.751 3.69131 1.47744 0
M  V30 3296 N 320.748 -0.0735177 1.57428 0
M  V30 3297 C 321.997 -0.771809 1.86349 0
M  V30 3298 C 322.31 -1.78828 0.792452 0
M  V30 3299 O 323.516 -2.53602 0.96945 0
M  V30 3300 C 321.972 -1.42358 3.30548 0
M  V30 3301 C 321.58 -0.445761 4.45777 0
M  V30 3302 C 323.324 -2.10434 3.6867 0
M  V30 3303 C 321.231 -1.10335 5.81016 0
M  V30 3304 H 320.161 -0.291999 0.695164 0
M  V30 3305 H 322.812 -0.0250749 1.83483 0
M  V30 3306 H 321.194 -2.21852 3.28021 0
M  V30 3307 H 322.368 0.319239 4.59693 0
M  V30 3308 H 320.683 0.130457 4.16196 0
M  V30 3309 H 323.28 -2.60405 4.67004 0
M  V30 3310 H 323.623 -2.90298 2.98383 0
M  V30 3311 H 324.156 -1.37773 3.7318 0
M  V30 3312 H 320.895 -0.345061 6.54591 0
M  V30 3313 H 320.415 -1.83925 5.70904 0
M  V30 3314 H 322.094 -1.62367 6.26295 0
M  V30 3315 N 322.226 -1.5378 -0.344866 0
M  V30 3316 C 323.189 -1.80981 -1.40637 0
M  V30 3317 C 324.189 -0.680816 -1.45676 0
M  V30 3318 O 325.379 -0.949095 -1.46075 0
M  V30 3319 C 322.511 -1.95063 -2.79577 0
M  V30 3320 H 323.704 -2.75803 -1.17783 0
M  V30 3321 H 321.257 -1.45173 -0.579181 0
M  V30 3322 H 321.992 -1.02379 -3.07716 0
M  V30 3323 H 321.777 -2.77198 -2.77315 0
M  V30 3324 H 323.267 -2.17629 -3.56409 0
M  V30 3325 N 323.704 0.605807 -1.45491 0
M  V30 3326 C 324.667 1.69836 -1.5391 0
M  V30 3327 C 325.667 1.55261 -0.418424 0
M  V30 3328 O 326.857 1.60296 -0.681965 0
M  V30 3329 C 323.989 3.09117 -1.43734 0
M  V30 3330 H 325.182 1.63738 -2.51257 0
M  V30 3331 H 322.735 0.821689 -1.32959 0
M  V30 3332 H 323.47 3.20791 -0.475788 0
M  V30 3333 H 323.255 3.21104 -2.25021 0
M  V30 3334 H 324.745 3.88696 -1.52661 0
M  V30 3335 N 325.182 1.32811 0.848464 0
M  V30 3336 C 326.13 1.22231 1.97895 0
M  V30 3337 C 327.124 0.125749 1.68933 0
M  V30 3338 O 328.33 0.289083 1.77663 0
M  V30 3339 H 324.705 0.379058 0.649476 0
M  V30 3340 H 326.676 2.17828 2.03945 0
M  V30 3341 C 325.425 0.968572 3.33937 0
M  V30 3342 H 324.748 1.80458 3.56756 0
M  V30 3343 H 326.188 0.934808 4.13567 0
M  V30 3344 C 324.647 -0.328628 3.35293 0
M  V30 3345 O 325.177 -1.33848 3.78745 0
M  V30 3346 N 323.383 -0.352788 2.88451 0
M  V30 3347 H 322.93 0.469541 2.53285 0
M  V30 3348 H 322.888 -1.22057 2.89741 0
M  V30 3349 N 326.66 -1.06551 1.16123 0
M  V30 3350 C 327.9 -1.80889 0.951766 0
M  V30 3351 C 328.264 -1.85062 -0.511465 0
M  V30 3352 O 329.465 -2.55353 -0.83954 0
M  V30 3353 C 327.736 -3.21609 1.55893 0
M  V30 3354 S 329.295 -4.12593 1.49373 0
M  V30 3355 H 326.113 -0.623156 0.342341 0
M  V30 3356 H 328.715 -1.27943 1.47821 0
M  V30 3357 H 327.419 -3.16165 2.61664 0
M  V30 3358 H 326.95 -3.79631 1.0317 0
M  V30 3359 H 328.965 -4.93753 0.492196 0
M  V30 3360 N 328.138 -0.959301 -1.25041 0
M  V30 3361 C 329.387 -0.612254 -1.92183 0
M  V30 3362 C 329.7 0.855347 -1.75907 0
M  V30 3363 O 330.906 1.31256 -2.37664 0
M  V30 3364 C 329.362 -1.04435 -3.44414 0
M  V30 3365 C 328.97 -2.53482 -3.69393 0
M  V30 3366 C 330.714 -0.770055 -4.17457 0
M  V30 3367 C 328.621 -2.90468 -5.15153 0
M  V30 3368 H 327.551 -0.225279 -0.719559 0
M  V30 3369 H 330.202 -1.16438 -1.41825 0
M  V30 3370 H 328.584 -0.4206 -3.9376 0
M  V30 3371 H 329.758 -3.20916 -3.30681 0
M  V30 3372 H 328.073 -2.78432 -3.0962 0
M  V30 3373 H 330.67 -1.02249 -5.24832 0
M  V30 3374 H 331.013 0.293611 -4.15263 0
M  V30 3375 H 331.546 -1.35437 -3.74034 0
M  V30 3376 H 328.285 -3.95871 -5.22462 0
M  V30 3377 H 327.805 -2.27711 -5.54894 0
M  V30 3378 H 329.484 -2.79914 -5.83315 0
M  V30 3379 N 329.616 1.39756 -0.72842 0
M  V30 3380 C 330.846 2.04651 -0.283117 0
M  V30 3381 C 331.254 1.5502 1.08469 0
M  V30 3382 O 330.597 0.707343 1.69536 0
M  V30 3383 C 330.659 3.58947 -0.199309 0
M  V30 3384 C 330.323 4.31525 -1.5045 0
M  V30 3385 C 331.32 4.5861 -2.44894 0
M  V30 3386 C 329.005 4.70195 -1.76698 0
M  V30 3387 C 330.999 5.23366 -3.63822 0
M  V30 3388 C 328.686 5.3468 -2.95906 0
M  V30 3389 C 329.684 5.61198 -3.89289 0
M  V30 3390 O 329.372 6.24347 -5.06404 0
M  V30 3391 H 329.104 0.664777 -0.122666 0
M  V30 3392 H 331.658 1.79913 -0.990987 0
M  V30 3393 H 329.888 3.82556 0.56461 0
M  V30 3394 H 331.577 4.0534 0.213125 0
M  V30 3395 H 332.343 4.29187 -2.25883 0
M  V30 3396 H 328.222 4.48916 -1.04859 0
M  V30 3397 H 331.766 5.4398 -4.36728 0
M  V30 3398 H 327.663 5.63524 -3.14819 0
M  V30 3399 H 328.431 6.42842 -5.06652 0
M  V30 3400 N 331.094 0.475555 1.50254 0
M  V30 3401 C 332.024 -0.30611 2.31485 0
M  V30 3402 C 333.005 -0.986228 1.38591 0
M  V30 3403 O 334.19 -0.982541 1.67511 0
M  V30 3404 C 331.32 -1.38588 3.1845 0
M  V30 3405 C 330.274 -0.827115 4.19932 0
M  V30 3406 C 329.6 -2.00551 4.95665 0
M  V30 3407 C 330.9 0.16463 5.2204 0
M  V30 3408 H 332.594 0.371866 2.97082 0
M  V30 3409 H 330.14 0.180282 1.42867 0
M  V30 3410 H 332.093 -1.94023 3.74076 0
M  V30 3411 H 330.817 -2.09269 2.50747 0
M  V30 3412 H 329.476 -0.294702 3.65414 0
M  V30 3413 H 329.124 -2.6994 4.2443 0
M  V30 3414 H 328.824 -1.63784 5.64313 0
M  V30 3415 H 330.348 -2.56468 5.54127 0
M  V30 3416 H 331.762 -0.300699 5.72511 0
M  V30 3417 H 330.159 0.446813 5.98434 0
M  V30 3418 H 331.229 1.08905 4.72512 0
M  V30 3419 N 332.573 -1.56217 0.208337 0
M  V30 3420 C 333.521 -2.21053 -0.723769 0
M  V30 3421 C 334.515 -1.18578 -1.20978 0
M  V30 3422 O 335.721 -1.36691 -1.17114 0
M  V30 3423 H 332.096 -0.708595 -0.251788 0
M  V30 3424 H 334.067 -2.98006 -0.153365 0
M  V30 3425 C 332.816 -2.89417 -1.927 0
M  V30 3426 H 332.139 -3.68019 -1.56212 0
M  V30 3427 H 333.579 -3.38201 -2.55727 0
M  V30 3428 C 332.038 -1.91166 -2.77411 0
M  V30 3429 O 332.568 -1.42026 -3.75754 0
M  V30 3430 N 330.774 -1.59105 -2.43175 0
M  V30 3431 H 330.321 -1.99259 -1.63259 0
M  V30 3432 H 330.279 -0.936255 -3.00136 0
M  V30 3433 N 334.051 0.0651679 -1.57465 0
M  V30 3434 C 335.3 0.761916 -1.86756 0
M  V30 3435 C 335.613 1.78406 -0.801925 0
M  V30 3436 O 336.819 2.53084 -0.982885 0
M  V30 3437 C 335.275 1.40603 -3.31299 0
M  V30 3438 C 334.883 0.422115 -4.46007 0
M  V30 3439 C 336.627 2.08476 -3.69781 0
M  V30 3440 C 334.534 1.07252 -5.81593 0
M  V30 3441 H 333.464 0.288308 -0.696702 0
M  V30 3442 H 336.115 0.015344 -1.83494 0
M  V30 3443 H 334.497 2.20109 -3.29193 0
M  V30 3444 H 335.671 -0.343613 -4.59517 0
M  V30 3445 H 333.986 -0.152527 -4.16121 0
M  V30 3446 H 336.583 2.57925 -4.68379 0
M  V30 3447 H 336.926 2.88712 -2.99919 0
M  V30 3448 H 337.459 1.35792 -3.73905 0
M  V30 3449 H 334.198 0.310342 -6.54765 0
M  V30 3450 H 333.718 1.80895 -5.71872 0
M  V30 3451 H 335.397 1.59043 -6.27148 0
M  V30 3452 N 335.529 1.53961 0.336706 0
M  V30 3453 C 336.94 1.62914 0.911925 0
M  V30 3454 C 337.291 0.514795 1.89326 0
M  V30 3455 O 336.416 -0.354395 2.13478 0
M  V30 3456 C 337.011 2.95304 1.66076 0
M  V30 3457 C 335.57 3.06496 2.18489 0
M  V30 3458 C 334.717 2.58403 1.00613 0
M  V30 3459 H 337.668 1.58285 0.114649 0
M  V30 3460 H 337.689 2.84727 2.5241 0
M  V30 3461 H 337.201 3.76387 0.946276 0
M  V30 3462 H 335.302 2.3006 2.93092 0
M  V30 3463 H 335.415 4.1208 2.44391 0
M  V30 3464 H 333.779 2.13977 1.38152 0
M  V30 3465 H 334.562 3.41932 0.306179 0
M  V30 3466 N 337.007 -0.598083 1.45811 0
M  V30 3467 C 337.955 -1.72932 1.55555 0
M  V30 3468 C 338.949 -1.63984 0.424921 0
M  V30 3469 O 340.155 -1.69663 0.601205 0
M  V30 3470 H 336.53 -0.571489 0.488779 0
M  V30 3471 H 338.501 -1.61842 2.50699 0
M  V30 3472 C 337.25 -3.11318 1.54843 0
M  V30 3473 H 336.573 -3.18867 2.41172 0
M  V30 3474 H 338.013 -3.90274 1.65717 0
M  V30 3475 C 336.472 -3.3578 0.274427 0
M  V30 3476 O 337.002 -3.9654 -0.641778 0
M  V30 3477 N 335.208 -2.90119 0.167139 0
M  V30 3478 H 334.755 -2.40855 0.913596 0
M  V30 3479 H 334.713 -3.0686 -0.684435 0
M  V30 3480 N 338.485 -1.33259 -0.841409 0
M  V30 3481 C 339.432 -1.23302 -1.95103 0
M  V30 3482 C 340.402 -0.112204 -1.65721 0
M  V30 3483 O 341.587 -0.290038 -1.88583 0
M  V30 3484 C 338.727 -0.975583 -3.31023 0
M  V30 3485 C 337.84 -2.18243 -3.72819 0
M  V30 3486 C 336.975 -1.85936 -4.97595 0
M  V30 3487 C 336.014 -3.02866 -5.3192 0
M  V30 3488 N 335.151 -2.70565 -6.47873 0
M  V30 3489 H 339.991 -2.18207 -2.02952 0
M  V30 3490 H 337.528 -1.0851 -0.993173 0
M  V30 3491 H 339.486 -0.80677 -4.09325 0
M  V30 3492 H 338.116 -0.0632755 -3.22738 0
M  V30 3493 H 337.168 -2.46107 -2.90061 0
M  V30 3494 H 338.48 -3.05666 -3.94169 0
M  V30 3495 H 337.634 -1.65684 -5.83638 0
M  V30 3496 H 336.373 -0.957452 -4.78209 0
M  V30 3497 H 335.378 -3.23736 -4.44382 0
M  V30 3498 H 336.603 -3.93809 -5.53255 0
M  V30 3499 H 334.549 -1.8293 -6.29978 0
M  V30 3500 H 334.466 -3.51519 -6.69306 0
M  V30 3501 H 335.734 -2.53774 -7.37034 0
M  V30 3502 N 339.963 1.05934 -1.16686 0
M  V30 3503 C 341.211 1.78447 -0.948744 0
M  V30 3504 C 341.532 1.87813 0.524523 0
M  V30 3505 O 340.802 1.38945 1.38098 0
M  V30 3506 H 339.382 0.660971 -0.348033 0
M  V30 3507 H 342.044 1.27947 -1.47022 0
M  V30 3508 H 341.14 2.80394 -1.37061 0
M  V30 3509 N 341.441 0.965919 1.2453 0
M  V30 3510 C 342.391 0.465731 2.23193 0
M  V30 3511 C 343.375 -0.451277 1.54442 0
M  V30 3512 O 344.567 -0.282489 1.74731 0
M  V30 3513 C 341.696 -0.244511 3.42428 0
M  V30 3514 C 340.782 0.691222 4.18429 0
M  V30 3515 N 341.173 1.82771 4.71623 0
M  V30 3516 C 339.471 0.501649 4.4317 0
M  V30 3517 C 340.172 2.41285 5.29298 0
M  V30 3518 N 339.148 1.69819 5.16394 0
M  V30 3519 H 342.95 1.33291 2.61937 0
M  V30 3520 H 340.464 0.824789 1.39896 0
M  V30 3521 H 342.461 -0.620056 4.12263 0
M  V30 3522 H 341.121 -1.10815 3.05205 0
M  V30 3523 H 342.132 2.20929 4.68413 0
M  V30 3524 H 338.809 -0.318177 4.16286 0
M  V30 3525 H 340.199 3.37181 5.8117 0
M  V30 3526 N 342.919 -1.39368 0.735821 0
M  V30 3527 C 344.165 -2.00794 0.284544 0
M  V30 3528 C 344.498 -1.58255 -1.12557 0
M  V30 3529 O 343.773 -0.811819 -1.76748 0
M  V30 3530 C 344.056 -3.58011 0.387337 0
M  V30 3531 C 343.909 -4.10566 1.83728 0
M  V30 3532 C 345.228 -4.395 -0.22975 0
M  V30 3533 H 342.347 -0.729501 0.104866 0
M  V30 3534 H 344.989 -1.65564 0.93213 0
M  V30 3535 H 343.139 -3.88154 -0.164006 0
M  V30 3536 H 344.811 -3.91139 2.44556 0
M  V30 3537 H 343.054 -3.64095 2.35833 0
M  V30 3538 H 343.725 -5.19702 1.86047 0
M  V30 3539 H 346.201 -4.15406 0.240257 0
M  V30 3540 H 345.077 -5.48752 -0.127485 0
M  V30 3541 H 345.338 -4.22062 -1.3159 0
M  V30 3542 N 344.397 -0.483516 -1.5 0
M  V30 3543 C 345.327 0.293829 -2.31644 0
M  V30 3544 C 346.308 0.978864 -1.39112 0
M  V30 3545 O 347.493 0.973644 -1.68029 0
M  V30 3546 C 344.623 1.36897 -3.19181 0
M  V30 3547 C 343.577 0.804833 -4.20365 0
M  V30 3548 C 342.903 1.9792 -4.96721 0
M  V30 3549 C 344.203 -0.192313 -5.21946 0
M  V30 3550 H 345.897 -0.387616 -2.9688 0
M  V30 3551 H 343.443 -0.187856 -1.42769 0
M  V30 3552 H 345.396 1.92037 -3.751 0
M  V30 3553 H 344.12 2.07936 -2.51853 0
M  V30 3554 H 342.779 0.275319 -3.65565 0
M  V30 3555 H 342.427 2.67686 -4.25856 0
M  V30 3556 H 342.127 1.60789 -5.65173 0
M  V30 3557 H 343.651 2.53526 -5.55479 0
M  V30 3558 H 345.065 0.270333 -5.72662 0
M  V30 3559 H 343.462 -0.478543 -5.98189 0
M  V30 3560 H 344.532 -1.11409 -4.71928 0
M  V30 3561 N 345.875 1.56104 -0.216619 0
M  V30 3562 C 346.805 2.23063 0.690296 0
M  V30 3563 C 347.786 1.20072 1.20485 0
M  V30 3564 O 348.971 1.48643 1.24976 0
M  V30 3565 C 346.101 2.90672 1.90072 0
M  V30 3566 C 345.055 4.00092 1.5202 0
M  V30 3567 C 344.381 4.54972 2.80899 0
M  V30 3568 C 345.681 5.17398 0.71391 0
M  V30 3569 H 347.375 2.99109 0.132038 0
M  V30 3570 H 344.921 1.43866 0.0620664 0
M  V30 3571 H 346.874 3.36204 2.54057 0
M  V30 3572 H 345.598 2.12066 2.48386 0
M  V30 3573 H 344.257 3.55283 0.903839 0
M  V30 3574 H 343.905 3.73102 3.37348 0
M  V30 3575 H 343.605 5.28817 2.56176 0
M  V30 3576 H 345.129 5.0322 3.45836 0
M  V30 3577 H 346.543 5.59342 1.25735 0
M  V30 3578 H 344.94 5.97444 0.563951 0
M  V30 3579 H 346.01 4.84088 -0.280527 0
M  V30 3580 N 347.353 -0.0568162 1.57498 0
M  V30 3581 C 348.303 -1.07315 2.01166 0
M  V30 3582 C 349.287 -1.33632 0.896171 0
M  V30 3583 O 350.479 -1.33682 1.16009 0
M  V30 3584 C 347.608 -2.38257 2.47161 0
M  V30 3585 C 346.694 -2.1515 3.65474 0
M  V30 3586 N 347.085 -1.62014 4.7915 0
M  V30 3587 C 345.383 -2.45559 3.72313 0
M  V30 3588 C 346.084 -1.54069 5.60926 0
M  V30 3589 N 345.06 -2.00652 5.05213 0
M  V30 3590 H 348.862 -0.655878 2.86488 0
M  V30 3591 H 346.376 -0.263635 1.60246 0
M  V30 3592 H 348.373 -3.11845 2.76691 0
M  V30 3593 H 347.033 -2.80687 1.63232 0
M  V30 3594 H 348.044 -1.30667 5.01145 0
M  V30 3595 H 344.721 -2.91253 2.99129 0
M  V30 3596 H 346.111 -1.13712 6.62208 0
M  V30 3597 N 348.832 -1.54138 -0.328536 0
M  V30 3598 C 350.248 -1.44736 -0.672574 0
M  V30 3599 C 350.448 -0.616217 -1.91846 0
M  V30 3600 O 349.504 -0.113067 -2.52247 0
M  V30 3601 C 350.817 -2.884 -0.851217 0
M  V30 3602 C 352.365 -2.98271 -0.948877 0
M  V30 3603 C 352.84 -4.43074 -1.15973 0
M  V30 3604 N 354.331 -4.46665 -1.22658 0
M  V30 3605 C 355.066 -5.55857 -1.40751 0
M  V30 3606 N 354.562 -6.75026 -1.5592 0
M  V30 3607 N 356.355 -5.43495 -1.4342 0
M  V30 3608 H 348.506 -2.06661 0.490421 0
M  V30 3609 H 350.769 -0.934812 0.157579 0
M  V30 3610 H 350.475 -3.51699 -0.00704236 0
M  V30 3611 H 350.349 -3.34225 -1.74853 0
M  V30 3612 H 352.736 -2.35102 -1.78356 0
M  V30 3613 H 352.817 -2.55785 -0.0281435 0
M  V30 3614 H 352.461 -5.06827 -0.329915 0
M  V30 3615 H 352.391 -4.83165 -2.09426 0
M  V30 3616 H 354.882 -3.60797 -1.124 0
M  V30 3617 H 355.195 -7.54004 -1.69404 0
M  V30 3618 H 353.54 -6.77944 -1.53027 0
M  V30 3619 H 356.731 -4.49349 -1.31162 0
M  V30 3620 H 356.904 -6.28649 -1.57178 0
M  V30 3621 N 350.31 0.590341 -1.46126 0
M  V30 3622 C 351.538 1.37504 -1.54597 0
M  V30 3623 C 351.953 1.87897 -0.184447 0
M  V30 3624 O 351.31 1.63192 0.816984 0
M  V30 3625 C 351.361 2.56779 -2.54454 0
M  V30 3626 O 351.082 2.08476 -3.85317 0
M  V30 3627 C 352.583 3.49427 -2.72792 0
M  V30 3628 H 349.803 0.420325 -0.523037 0
M  V30 3629 H 352.347 0.718383 -1.91467 0
M  V30 3630 H 350.502 3.1845 -2.20609 0
M  V30 3631 H 350.916 2.86097 -4.396 0
M  V30 3632 H 352.39 4.29619 -3.466 0
M  V30 3633 H 352.867 4.00876 -1.79429 0
M  V30 3634 H 353.473 2.93598 -3.07702 0
M  V30 3635 N 351.788 1.33704 0.83433 0
M  V30 3636 C 353.199 1.22813 1.4062 0
M  V30 3637 C 353.55 -0.151107 1.95617 0
M  V30 3638 O 352.675 -1.05092 1.89168 0
M  V30 3639 C 353.27 2.22355 2.55624 0
M  V30 3640 C 351.829 2.1529 3.08751 0
M  V30 3641 C 350.976 2.09589 1.8157 0
M  V30 3642 H 353.927 1.45236 0.639702 0
M  V30 3643 H 353.948 1.83391 3.33389 0
M  V30 3644 H 353.46 3.22728 2.15566 0
M  V30 3645 H 351.561 1.18235 3.53343 0
M  V30 3646 H 351.674 3.06038 3.68616 0
M  V30 3647 H 350.038 1.55134 2.02004 0
M  V30 3648 H 350.821 3.11777 1.43701 0
M  V30 3649 N 353.266 -1.05314 1.17247 0
M  V30 3650 C 354.176 -2.16538 0.90268 0
M  V30 3651 C 355.192 -1.73523 -0.128707 0
M  V30 3652 O 356.368 -2.01337 0.0502701 0
M  V30 3653 C 353.433 -3.44167 0.418356 0
M  V30 3654 C 352.494 -4.01635 1.51618 0
M  V30 3655 C 351.727 -5.23171 1.05487 0
M  V30 3656 O 351.95 -5.70327 -0.0914715 0
M  V30 3657 O 350.884 -5.72848 1.8474 0
M  V30 3658 H 354.71 -2.42145 1.83302 0
M  V30 3659 H 352.295 -1.15037 0.953246 0
M  V30 3660 H 354.177 -4.21112 0.155726 0
M  V30 3661 H 352.852 -3.20063 -0.48385 0
M  V30 3662 H 351.759 -3.26135 1.83268 0
M  V30 3663 H 353.092 -4.30053 2.39405 0
M  V30 3664 N 354.744 -0.972509 -1.24016 0
M  V30 3665 C 355.654 -0.5143 -2.28893 0
M  V30 3666 C 356.67 0.427078 -1.68677 0
M  V30 3667 O 357.846 0.298939 -1.99169 0
M  V30 3668 C 354.911 0.183598 -3.46214 0
M  V30 3669 C 353.972 -0.798202 -4.21814 0
M  V30 3670 C 353.205 -0.133514 -5.33533 0
M  V30 3671 O 353.428 1.07714 -5.60137 0
M  V30 3672 O 352.362 -0.828103 -5.96176 0
M  V30 3673 H 356.188 -1.38629 -2.70214 0
M  V30 3674 H 353.773 -0.739769 -1.29799 0
M  V30 3675 H 355.655 0.575433 -4.17453 0
M  V30 3676 H 354.33 1.03048 -3.0686 0
M  V30 3677 H 353.237 -1.24059 -3.52931 0
M  V30 3678 H 354.57 -1.61364 -4.64997 0
M  V30 3679 N 356.222 1.38976 -0.743202 0
M  V30 3680 C 357.452 2.04339 -0.304807 0
M  V30 3681 C 357.86 1.56162 1.06819 0
M  V30 3682 O 357.203 0.725284 1.68776 0
M  V30 3683 C 357.265 3.58716 -0.237369 0
M  V30 3684 C 356.929 4.29905 -1.55018 0
M  V30 3685 C 357.926 4.55987 -2.49744 0
M  V30 3686 C 355.611 4.68294 -1.81675 0
M  V30 3687 C 357.605 5.19478 -3.69353 0
M  V30 3688 C 355.292 5.31512 -3.0156 0
M  V30 3689 C 356.29 5.57037 -3.9522 0
M  V30 3690 O 355.978 6.18941 -5.12998 0
M  V30 3691 H 355.71 0.663439 -0.12971 0
M  V30 3692 H 358.264 1.78852 -1.01001 0
M  V30 3693 H 356.494 3.83133 0.524003 0
M  V30 3694 H 358.183 4.05543 0.170121 0
M  V30 3695 H 358.949 4.26767 -2.30423 0
M  V30 3696 H 354.828 4.47779 -1.09615 0
M  V30 3697 H 358.372 5.39318 -4.42473 0
M  V30 3698 H 354.269 5.60153 -3.20778 0
M  V30 3699 H 355.037 6.37433 -5.13441 0
M  V30 3700 N 357.7 0.491464 1.49741 0
M  V30 3701 C 359.111 0.0413169 1.86654 0
M  V30 3702 C 359.462 -1.36985 1.40462 0
M  V30 3703 O 358.587 -2.01917 0.778354 0
M  V30 3704 C 359.182 0.0682023 3.38731 0
M  V30 3705 C 357.741 -0.32656 3.74981 0
M  V30 3706 C 356.888 0.444888 2.73708 0
M  V30 3707 H 359.839 0.704733 1.42194 0
M  V30 3708 H 359.86 -0.729322 3.73445 0
M  V30 3709 H 359.372 1.09539 3.72321 0
M  V30 3710 H 357.473 -1.35734 3.46997 0
M  V30 3711 H 357.586 -0.013741 4.79098 0
M  V30 3712 H 355.95 -0.104062 2.54487 0
M  V30 3713 H 356.733 1.47197 3.10142 0
M  V30 3714 N 359.178 -1.55987 0.224894 0
M  V30 3715 C 360.088 -2.24066 -0.69511 0
M  V30 3716 C 361.104 -1.24939 -1.21104 0
M  V30 3717 O 362.28 -1.5776 -1.25195 0
M  V30 3718 C 359.345 -2.90983 -1.88493 0
M  V30 3719 C 358.406 -4.05462 -1.41064 0
M  V30 3720 C 357.639 -4.69179 -2.54375 0
M  V30 3721 O 357.862 -4.31895 -3.72589 0
M  V30 3722 O 356.796 -5.58108 -2.25386 0
M  V30 3723 H 360.622 -3.03353 -0.145149 0
M  V30 3724 H 358.207 -1.49399 -0.00569476 0
M  V30 3725 H 360.089 -3.33209 -2.57972 0
M  V30 3726 H 358.764 -2.14653 -2.42293 0
M  V30 3727 H 357.671 -3.67798 -0.683774 0
M  V30 3728 H 359.004 -4.83545 -0.918985 0
M  V30 3729 N 360.656 0.0484629 -1.57525 0
M  V30 3730 C 361.881 0.759177 -1.93006 0
M  V30 3731 C 362.306 1.69125 -0.823317 0
M  V30 3732 O 361.664 1.79931 0.222364 0
M  V30 3733 C 361.712 1.50899 -3.27509 0
M  V30 3734 O 360.816 2.62112 -3.18388 0
M  V30 3735 H 360.157 0.205564 -0.631379 0
M  V30 3736 H 362.687 0.00972959 -2.04598 0
M  V30 3737 H 362.697 1.88317 -3.6194 0
M  V30 3738 H 361.372 0.825269 -4.0763 0
M  V30 3739 H 359.949 2.27379 -2.95556 0
M  V30 3740 N 362.134 1.5431 0.320358 0
M  V30 3741 C 363.097 1.83195 1.3774 0
M  V30 3742 C 364.097 0.703906 1.44575 0
M  V30 3743 O 365.287 0.972214 1.44546 0
M  V30 3744 C 362.419 1.99487 2.76438 0
M  V30 3745 H 363.612 2.77642 1.1338 0
M  V30 3746 H 361.165 1.46076 0.556012 0
M  V30 3747 H 361.9 1.07262 3.06048 0
M  V30 3748 H 361.685 2.81575 2.7287 0
M  V30 3749 H 363.175 2.23271 3.52902 0
M  V30 3750 N 363.613 -0.582584 1.46437 0
M  V30 3751 C 364.56 -1.69164 1.5701 0
M  V30 3752 C 365.53 -1.60847 0.414403 0
M  V30 3753 O 366.715 -1.80058 0.631171 0
M  V30 3754 C 363.855 -3.075 1.56646 0
M  V30 3755 C 362.968 -3.2644 2.82951 0
M  V30 3756 C 362.103 -4.55026 2.7409 0
M  V30 3757 C 361.142 -4.6731 3.95333 0
M  V30 3758 N 360.279 -5.87221 3.84858 0
M  V30 3759 H 365.119 -1.59464 2.51744 0
M  V30 3760 H 362.656 -0.777186 1.24893 0
M  V30 3761 H 364.614 -3.8757 1.5442 0
M  V30 3762 H 363.244 -3.16096 0.654439 0
M  V30 3763 H 362.296 -2.39974 2.95155 0
M  V30 3764 H 363.608 -3.31385 3.72808 0
M  V30 3765 H 362.762 -5.43324 2.6997 0
M  V30 3766 H 361.501 -4.52519 1.81873 0
M  V30 3767 H 360.506 -3.77429 3.99784 0
M  V30 3768 H 361.731 -4.71595 4.88646 0
M  V30 3769 H 359.677 -5.85712 2.95427 0
M  V30 3770 H 359.594 -5.93435 4.6837 0
M  V30 3771 H 360.862 -6.7795 3.84713 0
M  V30 3772 N 365.091 -1.34144 -0.827227 0
M  V30 3773 C 366.337 -1.26446 -1.58554 0
M  V30 3774 C 366.67 0.1664 -1.93486 0
M  V30 3775 O 365.945 1.1107 -1.59667 0
M  V30 3776 C 366.228 -2.15111 -2.8879 0
M  V30 3777 C 366.081 -3.66712 -2.60465 0
M  V30 3778 C 367.4 -2.03311 -3.90324 0
M  V30 3779 H 364.519 -0.46067 -0.575284 0
M  V30 3780 H 367.161 -1.64356 -0.953269 0
M  V30 3781 H 365.311 -1.8291 -3.42748 0
M  V30 3782 H 366.983 -4.09259 -2.1285 0
M  V30 3783 H 365.226 -3.88014 -1.93978 0
M  V30 3784 H 365.897 -4.24112 -3.53317 0
M  V30 3785 H 368.373 -2.31574 -3.45706 0
M  V30 3786 H 367.249 -2.67582 -4.79261 0
M  V30 3787 H 367.51 -1.00879 -4.30437 0
M  V30 3788 N 366.569 1.04691 -1.17803 0
M  V30 3789 C 367.799 1.81183 -0.992788 0
M  V30 3790 C 368.207 1.8347 0.462098 0
M  V30 3791 O 367.55 1.2643 1.33271 0
M  V30 3792 C 367.612 3.28363 -1.46349 0
M  V30 3793 C 367.276 3.49749 -2.94151 0
M  V30 3794 C 368.273 3.41456 -3.92051 0
M  V30 3795 C 365.958 3.76548 -3.32441 0
M  V30 3796 C 367.952 3.59656 -5.26238 0
M  V30 3797 C 365.639 3.94396 -4.66792 0
M  V30 3798 C 366.637 3.8595 -5.635 0
M  V30 3799 O 366.325 4.03294 -6.9542 0
M  V30 3800 H 366.057 0.577622 -0.351182 0
M  V30 3801 H 368.611 1.32876 -1.5663 0
M  V30 3802 H 366.841 3.77609 -0.833574 0
M  V30 3803 H 368.53 3.86395 -1.24313 0
M  V30 3804 H 369.296 3.20723 -3.63815 0
M  V30 3805 H 365.175 3.82224 -2.57732 0
M  V30 3806 H 368.719 3.52979 -6.01707 0
M  V30 3807 H 364.616 4.14622 -4.94731 0
M  V30 3808 H 365.384 4.2049 -7.02232 0
M  V30 3809 N 368.047 0.979072 1.23499 0
M  V30 3810 C 368.957 0.526431 2.28617 0
M  V30 3811 C 369.973 -0.418126 1.68901 0
M  V30 3812 O 371.149 -0.288372 1.99325 0
M  V30 3813 C 368.214 -0.165235 3.46306 0
M  V30 3814 C 367.275 0.82056 4.21385 0
M  V30 3815 C 366.508 0.161807 5.33455 0
M  V30 3816 O 366.731 -1.04742 5.60701 0
M  V30 3817 O 365.665 0.859708 5.95729 0
M  V30 3818 H 369.491 1.4006 2.69475 0
M  V30 3819 H 367.076 0.746643 1.29405 0
M  V30 3820 H 368.958 -0.553287 4.17752 0
M  V30 3821 H 367.633 -1.01419 3.07402 0
M  V30 3822 H 366.54 1.25929 3.52268 0
M  V30 3823 H 367.873 1.63828 4.64135 0
M  V30 3824 N 369.525 -1.3858 0.750561 0
M  V30 3825 C 370.472 -2.30483 0.120835 0
M  V30 3826 C 371.442 -1.50022 -0.712923 0
M  V30 3827 O 372.627 -1.78662 -0.669676 0
M  V30 3828 C 369.767 -3.36431 -0.768666 0
M  V30 3829 C 368.88 -4.31927 0.0793922 0
M  V30 3830 C 368.015 -5.24944 -0.81283 0
M  V30 3831 C 367.054 -6.12088 0.0390447 0
M  V30 3832 N 366.191 -6.97412 -0.809969 0
M  V30 3833 H 371.031 -2.83761 0.91015 0
M  V30 3834 H 368.568 -1.39707 0.460463 0
M  V30 3835 H 370.526 -3.96462 -1.29898 0
M  V30 3836 H 369.156 -2.8457 -1.5238 0
M  V30 3837 H 368.208 -3.73382 0.727303 0
M  V30 3838 H 369.52 -4.93319 0.737401 0
M  V30 3839 H 368.674 -5.90078 -1.41042 0
M  V30 3840 H 367.413 -4.63911 -1.50458 0
M  V30 3841 H 366.418 -5.45952 0.649328 0
M  V30 3842 H 367.643 -6.75189 0.727809 0
M  V30 3843 H 365.589 -6.38931 -1.48672 0
M  V30 3844 H 365.506 -7.55712 -0.208789 0
M  V30 3845 H 366.774 -7.66959 -1.39263 0
M  V30 3846 N 371.003 -0.499398 -1.49478 0
M  V30 3847 C 371.933 0.269244 -2.31943 0
M  V30 3848 C 372.914 0.964054 -1.40143 0
M  V30 3849 O 374.099 0.955767 -1.69052 0
M  V30 3850 C 371.229 1.33504 -3.20615 0
M  V30 3851 C 370.183 0.760202 -4.21195 0
M  V30 3852 C 369.509 1.9264 -4.98792 0
M  V30 3853 C 370.809 -0.247661 -5.21712 0
M  V30 3854 H 372.503 -0.419082 -2.96452 0
M  V30 3855 H 370.049 -0.202988 -1.42562 0
M  V30 3856 H 372.002 1.88048 -3.77115 0
M  V30 3857 H 370.726 2.05253 -2.54045 0
M  V30 3858 H 369.385 0.23653 -3.65836 0
M  V30 3859 H 369.033 2.63154 -4.28671 0
M  V30 3860 H 368.733 1.54785 -5.66847 0
M  V30 3861 H 370.257 2.4762 -5.58137 0
M  V30 3862 H 371.671 0.209579 -5.72917 0
M  V30 3863 H 370.068 -0.541962 -5.97648 0
M  V30 3864 H 371.138 -1.16409 -4.7072 0
M  V30 3865 N 372.481 1.55866 -0.233164 0
M  V30 3866 C 373.428 2.20796 0.67215 0
M  V30 3867 C 374.398 1.16731 1.18166 0
M  V30 3868 O 375.583 1.45129 1.23864 0
M  V30 3869 C 372.723 2.90072 1.86955 0
M  V30 3870 C 371.836 4.08759 1.39786 0
M  V30 3871 C 370.971 4.65787 2.55374 0
M  V30 3872 C 370.01 5.76752 2.04998 0
M  V30 3873 N 369.147 6.28021 3.13901 0
M  V30 3874 H 373.987 2.9779 0.111749 0
M  V30 3875 H 371.524 1.47036 0.0434007 0
M  V30 3876 H 373.482 3.28428 2.57276 0
M  V30 3877 H 372.112 2.15575 2.40265 0
M  V30 3878 H 371.164 3.7581 0.589173 0
M  V30 3879 H 372.476 4.88906 0.98856 0
M  V30 3880 H 371.63 5.06646 3.33758 0
M  V30 3881 H 370.369 3.84828 2.99598 0
M  V30 3882 H 369.374 5.35383 1.25079 0
M  V30 3883 H 370.599 6.59553 1.61759 0
M  V30 3884 H 368.545 5.49971 3.57586 0
M  V30 3885 H 368.462 7.03323 2.7726 0
M  V30 3886 H 369.73 6.73538 3.92386 0
M  V30 3887 N 373.959 -0.0401083 1.57549 0
M  V30 3888 C 375.236 -0.767917 1.79896 0
M  V30 3889 C 375.616 -1.9416 0.82856 0
M  V30 3890 O 374.964 -2.2812 -0.131671 0
M  V30 3891 C 375.174 -1.2113 3.27305 0
M  V30 3892 C 376.522 -1.63175 3.91994 0
M  V30 3893 O 377.546 -1.30616 3.31388 0
M  V30 3894 O 376.405 -2.23565 4.98679 0
M  V30 3895 H 373.499 -0.370441 0.739393 0
M  V30 3896 H 376.045 -0.017737 1.69691 0
M  V30 3897 H 374.817 -0.372937 3.89519 0
M  V30 3898 H 374.44 -2.02183 3.42356 0
M  V30 3899 N 375.437 -1.54477 -0.31217 0
M  V30 3900 C 376.387 -1.81037 -1.38598 0
M  V30 3901 C 377.371 -0.666941 -1.46426 0
M  V30 3902 O 378.563 -0.927269 -1.50767 0
M  V30 3903 C 375.692 -2.05127 -2.75277 0
M  V30 3904 C 374.778 -3.25624 -2.71716 0
M  V30 3905 N 375.169 -4.46428 -2.37773 0
M  V30 3906 C 373.467 -3.27427 -3.02833 0
M  V30 3907 C 374.168 -5.28406 -2.43232 0
M  V30 3908 N 373.144 -4.6586 -2.80135 0
M  V30 3909 H 376.946 -2.7201 -1.11301 0
M  V30 3910 H 374.46 -1.53826 -0.520705 0
M  V30 3911 H 376.457 -2.22299 -3.52688 0
M  V30 3912 H 375.117 -1.15416 -3.03495 0
M  V30 3913 H 376.128 -4.73227 -2.1042 0
M  V30 3914 H 372.805 -2.47786 -3.36018 0
M  V30 3915 H 374.195 -6.34903 -2.19882 0
M  V30 3916 N 376.915 0.57481 -1.46744 0
M  V30 3917 C 377.848 1.69827 -1.52427 0
M  V30 3918 C 378.826 1.58151 -0.377744 0
M  V30 3919 O 380.01 1.79257 -0.58303 0
M  V30 3920 C 377.137 3.07943 -1.41027 0
M  V30 3921 C 376.183 3.38116 -2.59961 0
M  V30 3922 S 377.016 3.29313 -4.22272 0
M  V30 3923 C 378.172 4.69953 -4.13394 0
M  V30 3924 H 378.405 1.64748 -2.47478 0
M  V30 3925 H 375.938 0.754203 -1.34726 0
M  V30 3926 H 377.896 3.87619 -1.35137 0
M  V30 3927 H 376.557 3.10504 -0.473909 0
M  V30 3928 H 375.75 4.38762 -2.47999 0
M  V30 3929 H 375.352 2.66024 -2.62882 0
M  V30 3930 H 377.644 5.60517 -3.80562 0
M  V30 3931 H 378.587 4.86972 -5.14066 0
M  V30 3932 H 378.995 4.47174 -3.44522 0
M  V30 3933 N 378.394 1.34581 0.820102 0
M  V30 3934 C 379.324 1.29038 1.94606 0
M  V30 3935 C 380.305 0.1673 1.69275 0
M  V30 3936 O 381.49 0.360112 1.90832 0
M  V30 3937 C 378.62 1.04793 3.31113 0
M  V30 3938 C 377.574 2.13597 3.70891 0
M  V30 3939 C 376.9 1.74537 5.05412 0
M  V30 3940 C 378.2 3.55451 3.8269 0
M  V30 3941 H 379.894 2.23248 1.99501 0
M  V30 3942 H 377.44 1.0747 0.958449 0
M  V30 3943 H 379.393 0.995592 4.0947 0
M  V30 3944 H 378.117 0.0702565 3.26524 0
M  V30 3945 H 376.776 2.17905 2.9481 0
M  V30 3946 H 376.424 0.754226 4.97313 0
M  V30 3947 H 376.124 2.47361 5.32997 0
M  V30 3948 H 377.648 1.70803 5.86224 0
M  V30 3949 H 379.062 3.5354 4.51312 0
M  V30 3950 H 377.459 4.26922 4.21732 0
M  V30 3951 H 378.529 3.92587 2.84611 0
M  V30 3952 N 379.872 -1.04064 1.18357 0
M  V30 3953 C 381.121 -1.76662 0.973313 0
M  V30 3954 C 381.434 -1.89154 -0.497991 0
M  V30 3955 O 382.64 -2.58606 -0.826762 0
M  V30 3956 C 381.096 -3.17624 1.69242 0
M  V30 3957 C 380.704 -3.13225 3.20303 0
M  V30 3958 C 382.448 -3.946 1.56497 0
M  V30 3959 C 380.355 -4.49046 3.84853 0
M  V30 3960 H 379.285 -0.662214 0.36054 0
M  V30 3961 H 381.936 -1.16553 1.41731 0
M  V30 3962 H 380.318 -3.78129 1.1762 0
M  V30 3963 H 381.492 -2.62172 3.78949 0
M  V30 3964 H 379.807 -2.49749 3.33189 0
M  V30 3965 H 382.404 -4.95042 2.02084 0
M  V30 3966 H 382.747 -4.13074 0.517243 0
M  V30 3967 H 383.28 -3.4067 2.05399 0
M  V30 3968 H 380.019 -4.35777 4.89672 0
M  V30 3969 H 379.539 -5.00203 3.30994 0
M  V30 3970 H 381.218 -5.17961 3.87718 0
M  V30 3971 N 381.35 -0.985608 -1.22978 0
M  V30 3972 C 382.761 -0.693593 -1.73338 0
M  V30 3973 C 383.112 0.789935 -1.79595 0
M  V30 3974 O 382.237 1.61771 -1.43733 0
M  V30 3975 C 382.832 -1.25235 -3.14804 0
M  V30 3976 C 381.391 -1.00987 -3.626 0
M  V30 3977 C 380.538 -1.37695 -2.40698 0
M  V30 3978 H 383.489 -1.15884 -1.08428 0
M  V30 3979 H 383.51 -0.627329 -3.75293 0
M  V30 3980 H 383.022 -2.33209 -3.10218 0
M  V30 3981 H 381.123 0.0535565 -3.72562 0
M  V30 3982 H 381.236 -1.66812 -4.49122 0
M  V30 3983 H 379.6 -0.795459 -2.4196 0
M  V30 3984 H 380.383 -2.46657 -2.38779 0
M  V30 3985 N 382.828 1.3818 -0.7579 0
M  V30 3986 C 384.074 2.00316 -0.316453 0
M  V30 3987 C 384.407 1.60026 1.10025 0
M  V30 3988 O 383.682 0.839835 1.75434 0
M  V30 3989 C 383.965 3.57349 -0.444245 0
M  V30 3990 C 383.818 4.07591 -1.90236 0
M  V30 3991 C 385.137 4.3981 0.1598 0
M  V30 3992 H 382.256 0.727741 -0.116459 0
M  V30 3993 H 384.898 1.6406 -0.958352 0
M  V30 3994 H 383.048 3.88365 0.102233 0
M  V30 3995 H 384.72 3.87199 -2.50748 0
M  V30 3996 H 382.963 3.60297 -2.41595 0
M  V30 3997 H 383.634 5.16677 -1.94291 0
M  V30 3998 H 386.11 4.14971 -0.306314 0
M  V30 3999 H 384.986 5.48885 0.0401675 0
M  V30 4000 H 385.247 4.24102 1.24859 0
M  V30 4001 N 384.306 0.507319 1.49211 0
M  V30 4002 C 385.531 -0.033725 2.07373 0
M  V30 4003 C 385.956 -1.29485 1.36437 0
M  V30 4004 O 385.314 -1.76294 0.423087 0
M  V30 4005 C 385.362 -0.263945 3.59633 0
M  V30 4006 O 384.466 -1.33737 3.90113 0
M  V30 4007 H 383.807 0.0290331 0.663365 0
M  V30 4008 H 386.337 0.708749 1.91932 0
M  V30 4009 H 386.347 -0.493536 4.05004 0
M  V30 4010 H 385.022 0.657424 4.10671 0
M  V30 4011 H 383.599 -1.09224 3.56545 0
M  V30 4012 N 385.784 -1.5574 0.241426 0
M  V30 4013 C 386.717 -2.17168 -0.700935 0
M  V30 4014 C 387.695 -1.12206 -1.1768 0
M  V30 4015 O 388.879 -1.40565 -1.25593 0
M  V30 4016 C 386.006 -2.76796 -1.95196 0
M  V30 4017 C 385.052 -3.94764 -1.61442 0
M  V30 4018 S 385.885 -5.30613 -0.72182 0
M  V30 4019 C 387.041 -5.93691 -1.98197 0
M  V30 4020 H 387.274 -2.96761 -0.178882 0
M  V30 4021 H 384.807 -1.54378 0.0259299 0
M  V30 4022 H 386.765 -3.11787 -2.67019 0
M  V30 4023 H 385.426 -1.9716 -2.44514 0
M  V30 4024 H 384.619 -4.35057 -2.54443 0
M  V30 4025 H 384.221 -3.61022 -0.976672 0
M  V30 4026 H 386.513 -6.10874 -2.92983 0
M  V30 4027 H 387.456 -6.89258 -1.62262 0
M  V30 4028 H 387.864 -5.22709 -2.13156 0
M  V30 4029 N 387.262 0.0317525 -1.57568 0
M  V30 4030 C 388.487 0.738664 -1.938 0
M  V30 4031 C 388.912 1.68242 -0.841208 0
M  V30 4032 O 388.27 1.80157 0.203267 0
M  V30 4033 C 388.318 1.47417 -3.29091 0
M  V30 4034 O 387.422 2.5872 -3.2115 0
M  V30 4035 H 386.763 0.198856 -0.633524 0
M  V30 4036 H 389.293 -0.0119713 -2.04596 0
M  V30 4037 H 389.303 1.84468 -3.63917 0
M  V30 4038 H 387.978 0.781988 -4.08482 0
M  V30 4039 H 386.555 2.24231 -2.97951 0
M  V30 4040 N 388.74 1.54641 0.303973 0
M  V30 4041 C 389.65 1.88439 1.39743 0
M  V30 4042 C 390.666 0.778239 1.55626 0
M  V30 4043 O 391.842 1.07442 1.70347 0
M  V30 4044 C 388.907 2.12212 2.74166 0
M  V30 4045 C 387.968 3.35936 2.67293 0
M  V30 4046 C 387.201 3.58566 3.95305 0
M  V30 4047 O 387.424 2.84263 4.9452 0
M  V30 4048 O 386.358 4.52078 3.97378 0
M  V30 4049 H 390.184 2.81458 1.14083 0
M  V30 4050 H 387.769 1.40793 0.499768 0
M  V30 4051 H 389.651 2.29067 3.53704 0
M  V30 4052 H 388.326 1.22379 2.99675 0
M  V30 4053 H 387.233 3.24448 1.86237 0
M  V30 4054 H 388.566 4.2589 2.46736 0
M  V30 4055 N 390.218 -0.567019 1.47046 0
M  V30 4056 C 391.148 -1.68482 1.61667 0
M  V30 4057 C 392.129 -1.6358 0.466418 0
M  V30 4058 O 393.314 -1.81354 0.694574 0
M  V30 4059 C 390.444 -3.07124 1.62148 0
M  V30 4060 C 389.398 -3.26867 2.76301 0
M  V30 4061 C 388.724 -4.66196 2.61849 0
M  V30 4062 C 390.024 -3.13186 4.17986 0
M  V30 4063 H 391.718 -1.56502 2.5524 0
M  V30 4064 H 389.264 -0.751486 1.22836 0
M  V30 4065 H 391.217 -3.8516 1.70968 0
M  V30 4066 H 389.941 -3.2004 0.651287 0
M  V30 4067 H 388.6 -2.51237 2.66975 0
M  V30 4068 H 388.248 -4.75898 1.62879 0
M  V30 4069 H 387.948 -4.80356 3.38425 0
M  V30 4070 H 389.472 -5.46379 2.72584 0
M  V30 4071 H 390.886 -3.81049 4.2834 0
M  V30 4072 H 389.283 -3.3886 4.95272 0
M  V30 4073 H 390.353 -2.10057 4.3704 0
M  V30 4074 N 391.696 -1.35014 -0.812953 0
M  V30 4075 C 392.606 -1.2951 -1.95613 0
M  V30 4076 C 393.622 -0.20107 -1.72834 0
M  V30 4077 O 394.798 -0.42932 -1.96771 0
M  V30 4078 C 391.863 -1.06033 -3.30088 0
M  V30 4079 C 390.924 -2.24688 -3.65805 0
M  V30 4080 C 390.157 -2.02322 -4.93864 0
M  V30 4081 O 390.38 -0.986464 -5.61805 0
M  V30 4082 O 389.314 -2.89525 -5.27692 0
M  V30 4083 H 393.14 -2.25705 -2.03202 0
M  V30 4084 H 390.725 -1.15321 -0.949811 0
M  V30 4085 H 392.607 -0.94763 -4.10607 0
M  V30 4086 H 391.282 -0.128852 -3.23443 0
M  V30 4087 H 390.189 -2.41521 -2.85689 0
M  V30 4088 H 391.522 -3.16261 -3.77147 0
M  V30 4089 N 393.175 1.03435 -1.18907 0
M  V30 4090 C 394.122 2.11591 -0.921837 0
M  V30 4091 C 395.092 1.65499 0.141226 0
M  V30 4092 O 396.277 1.908 0.000242829 0
M  V30 4093 C 393.417 3.42012 -0.460616 0
M  V30 4094 C 392.53 4.01682 -1.58982 0
M  V30 4095 C 391.665 5.20091 -1.08069 0
M  V30 4096 C 390.704 5.71805 -2.18416 0
M  V30 4097 N 389.841 6.81494 -1.68849 0
M  V30 4098 H 394.681 2.33787 -1.8479 0
M  V30 4099 H 392.218 1.1467 -0.921373 0
M  V30 4100 H 394.176 4.16834 -0.174642 0
M  V30 4101 H 392.806 3.19944 0.428467 0
M  V30 4102 H 391.858 3.24127 -1.99113 0
M  V30 4103 H 393.17 4.36084 -2.4214 0
M  V30 4104 H 392.324 6.02051 -0.749615 0
M  V30 4105 H 391.063 4.87209 -0.218771 0
M  V30 4106 H 390.068 4.88461 -2.5236 0
M  V30 4107 H 391.293 6.06728 -3.05054 0
M  V30 4108 H 389.239 6.50475 -0.849572 0
M  V30 4109 H 389.156 7.14994 -2.45601 0
M  V30 4110 H 390.424 7.67063 -1.38689 0
M  V30 4111 N 394.653 0.992116 1.22453 0
M  V30 4112 C 395.899 0.668523 1.91464 0
M  V30 4113 C 396.232 -0.797313 1.77078 0
M  V30 4114 O 395.507 -1.5765 1.13916 0
M  V30 4115 C 395.79 1.07424 3.43703 0
M  V30 4116 C 395.643 2.59857 3.67143 0
M  V30 4117 C 396.962 0.626891 4.35612 0
M  V30 4118 H 394.081 0.244341 0.695318 0
M  V30 4119 H 396.723 1.2355 1.44345 0
M  V30 4120 H 394.873 0.591816 3.83966 0
M  V30 4121 H 396.545 3.15764 3.3629 0
M  V30 4122 H 394.788 3.01961 3.11451 0
M  V30 4123 H 395.459 2.83296 4.73759 0
M  V30 4124 H 397.935 1.04125 4.02861 0
M  V30 4125 H 396.811 0.939076 5.40807 0
M  V30 4126 H 397.072 -0.472457 4.39568 0
M  V30 4127 N 396.131 -1.37776 0.765217 0
M  V30 4128 C 397.408 -1.93975 0.251596 0
M  V30 4129 C 397.788 -1.69949 -1.25222 0
M  V30 4130 O 397.136 -1.04457 -2.03226 0
M  V30 4131 C 397.346 -3.43487 0.617895 0
M  V30 4132 C 398.694 -4.20564 0.584029 0
M  V30 4133 O 399.718 -3.5182 0.556888 0
M  V30 4134 O 398.577 -5.43138 0.605291 0
M  V30 4135 H 395.671 -0.82509 0.0561806 0
M  V30 4136 H 398.217 -1.47101 0.846128 0
M  V30 4137 H 396.989 -3.5453 1.65602 0
M  V30 4138 H 396.612 -3.976 -0.00403411 0
M  V30 4139 N 397.609 -0.515225 -1.4894 0
M  V30 4140 C 398.857 0.0241671 -2.02086 0
M  V30 4141 C 399.178 1.3616 -1.3959 0
M  V30 4142 O 398.448 1.87841 -0.556121 0
M  V30 4143 H 397.028 0.0119203 -0.746905 0
M  V30 4144 H 399.69 -0.675702 -1.82812 0
M  V30 4145 H 398.786 0.143385 -3.1177 0
M  V30 4146 N 399.087 1.5561 -0.249682 0
M  V30 4147 C 400.017 2.24477 0.642826 0
M  V30 4148 C 400.998 1.22601 1.17911 0
M  V30 4149 O 402.183 1.5126 1.21795 0
M  V30 4150 C 399.313 2.94638 1.83863 0
M  V30 4151 C 398.267 4.03227 1.435 0
M  V30 4152 C 397.593 4.60828 2.71186 0
M  V30 4153 C 398.893 5.18796 0.604002 0
M  V30 4154 H 400.587 2.99321 0.0685625 0
M  V30 4155 H 398.133 1.43965 0.0315363 0
M  V30 4156 H 400.086 3.41517 2.46868 0
M  V30 4157 H 398.81 2.17287 2.43832 0
M  V30 4158 H 397.469 3.57121 0.828275 0
M  V30 4159 H 397.117 3.80174 3.29358 0
M  V30 4160 H 396.817 5.34132 2.44901 0
M  V30 4161 H 398.341 5.10442 3.35084 0
M  V30 4162 H 399.755 5.61883 1.13842 0
M  V30 4163 H 398.152 5.98506 0.437097 0
M  V30 4164 H 399.222 4.83384 -0.383147 0
M  V30 4165 N 400.565 -0.0233959 1.57583 0
M  V30 4166 C 401.495 -1.02162 2.09965 0
M  V30 4167 C 402.476 -1.3735 1.00344 0
M  V30 4168 O 403.661 -1.46135 1.27899 0
M  V30 4169 C 400.791 -2.32081 2.58371 0
M  V30 4170 C 399.745 -2.1112 3.72307 0
M  V30 4171 C 399.071 -3.46848 4.06941 0
M  V30 4172 C 400.371 -1.49276 5.00514 0
M  V30 4173 H 402.065 -0.585557 2.93618 0
M  V30 4174 H 399.611 -0.280218 1.41247 0
M  V30 4175 H 401.564 -3.02249 2.93639 0
M  V30 4176 H 400.288 -2.77758 1.71808 0
M  V30 4177 H 398.947 -1.43384 3.37397 0
M  V30 4178 H 398.595 -3.90184 3.17436 0
M  V30 4179 H 398.295 -3.33646 4.83688 0
M  V30 4180 H 399.819 -4.18369 4.44747 0
M  V30 4181 H 401.233 -2.09368 5.33702 0
M  V30 4182 H 399.63 -1.46632 5.8191 0
M  V30 4183 H 400.7 -0.459217 4.82721 0
M  V30 4184 N 402.043 -1.548 -0.295768 0
M  V30 4185 C 403.271 -1.78327 -1.04914 0
M  V30 4186 C 403.686 -0.545316 -1.80753 0
M  V30 4187 O 403.043 0.485013 -1.75937 0
M  V30 4188 C 403.094 -2.99418 -2.02561 0
M  V30 4189 O 402.815 -4.18431 -1.29798 0
M  V30 4190 C 404.316 -3.35375 -2.89895 0
M  V30 4191 H 401.536 -0.594618 -0.310918 0
M  V30 4192 H 404.08 -2.01763 -0.333454 0
M  V30 4193 H 402.235 -2.78175 -2.69624 0
M  V30 4194 H 402.649 -4.86736 -1.95419 0
M  V30 4195 H 404.123 -4.23332 -3.54251 0
M  V30 4196 H 404.6 -2.53761 -3.58472 0
M  V30 4197 H 405.206 -3.58796 -2.28355 0
M  V30 4198 N 403.521 0.559213 -1.47345 0
M  V30 4199 C 404.761 1.32728 -1.55444 0
M  V30 4200 C 405.125 1.90838 -0.210895 0
M  V30 4201 O 406.326 2.68282 -0.166719 0
M  V30 4202 C 404.597 2.4092 -2.63993 0
M  V30 4203 S 406.156 3.2784 -2.91661 0
M  V30 4204 H 402.974 0.451883 -0.548929 0
M  V30 4205 H 405.576 0.640404 -1.84714 0
M  V30 4206 H 404.28 1.9666 -3.60212 0
M  V30 4207 H 403.811 3.14351 -2.36531 0
M  V30 4208 H 405.826 4.40341 -2.28722 0
M  V30 4209 N 404.999 1.35443 0.805782 0
M  V30 4210 C 406.239 1.30127 1.57627 0
M  V30 4211 C 406.603 -0.122567 1.91608 0
M  V30 4212 O 407.804 -0.300107 2.67119 0
M  V30 4213 C 406.075 2.18314 2.82973 0
M  V30 4214 S 407.634 2.30521 3.7337 0
M  V30 4215 H 404.452 0.462439 0.540066 0
M  V30 4216 H 407.054 1.70843 0.95042 0
M  V30 4217 H 405.758 3.20741 2.56034 0
M  V30 4218 H 405.289 1.78558 3.50543 0
M  V30 4219 H 407.304 1.49062 4.73281 0
M  V30 4220 N 406.477 -1.02803 1.19454 0
M  V30 4221 C 407.702 -1.80378 1.02364 0
M  V30 4222 C 408.127 -1.83282 -0.423007 0
M  V30 4223 O 407.485 -1.25945 -1.30413 0
M  V30 4224 C 407.533 -3.23248 1.59821 0
M  V30 4225 O 406.637 -4.04 0.828105 0
M  V30 4226 H 405.978 -0.556799 0.361761 0
M  V30 4227 H 408.508 -1.29385 1.58495 0
M  V30 4228 H 408.518 -3.73994 1.63073 0
M  V30 4229 H 407.193 -3.2045 2.65113 0
M  V30 4230 H 405.77 -3.62635 0.86891 0
M  V30 4231 N 407.956 -0.998596 -1.21925 0
M  V30 4232 C 409.202 -0.678667 -1.91107 0
M  V30 4233 C 409.535 0.78791 -1.77498 0
M  V30 4234 O 408.81 1.57043 -1.1475 0
M  V30 4235 C 409.093 -1.09245 -3.43129 0
M  V30 4236 C 408.946 -2.61801 -3.6576 0
M  V30 4237 C 410.265 -0.649984 -4.35274 0
M  V30 4238 H 407.384 -0.248025 -0.694012 0
M  V30 4239 H 410.026 -1.24314 -1.43688 0
M  V30 4240 H 408.176 -0.612171 -3.83647 0
M  V30 4241 H 409.848 -3.17543 -3.34611 0
M  V30 4242 H 408.091 -3.03609 -3.09845 0
M  V30 4243 H 408.762 -2.85804 -4.7225 0
M  V30 4244 H 411.238 -1.0626 -4.02303 0
M  V30 4245 H 410.114 -0.967743 -5.40302 0
M  V30 4246 H 410.375 0.449139 -4.39813 0
M  V30 4247 N 409.434 1.37368 -0.772513 0
M  V30 4248 C 410.364 2.32856 -0.173304 0
M  V30 4249 C 411.345 1.55818 0.682262 0
M  V30 4250 O 412.53 1.84052 0.619566 0
M  V30 4251 C 409.66 3.40048 0.706007 0
M  V30 4252 C 408.614 4.27973 -0.0483144 0
M  V30 4253 C 407.94 5.26184 0.950491 0
M  V30 4254 C 409.24 5.07665 -1.22776 0
M  V30 4255 H 410.934 2.83217 -0.971002 0
M  V30 4256 H 408.48 1.3617 -0.468377 0
M  V30 4257 H 410.433 4.05827 1.13501 0
M  V30 4258 H 409.157 2.88214 1.53623 0
M  V30 4259 H 407.816 3.63726 -0.458107 0
M  V30 4260 H 407.464 4.7063 1.77529 0
M  V30 4261 H 407.164 5.85872 0.450314 0
M  V30 4262 H 408.688 5.94838 1.37842 0
M  V30 4263 H 410.102 5.66578 -0.875366 0
M  V30 4264 H 408.499 5.76681 -1.66007 0
M  V30 4265 H 409.569 4.40294 -2.03149 0
M  V30 4266 N 410.912 0.523116 1.48665 0
M  V30 4267 C 412.161 -0.01544 2.01694 0
M  V30 4268 C 412.474 -1.35975 1.40606 0
M  V30 4269 O 413.68 -1.98627 1.85093 0
M  V30 4270 C 412.136 -0.0779303 3.59816 0
M  V30 4271 C 411.744 1.26107 4.29885 0
M  V30 4272 C 413.488 -0.565678 4.20714 0
M  V30 4273 C 411.395 1.15954 5.79921 0
M  V30 4274 H 410.325 -0.00954163 0.75394 0
M  V30 4275 H 412.976 0.665865 1.70993 0
M  V30 4276 H 411.358 -0.824165 3.87329 0
M  V30 4277 H 412.532 2.02233 4.14051 0
M  V30 4278 H 410.847 1.68401 3.80828 0
M  V30 4279 H 413.444 -0.6595 5.30617 0
M  V30 4280 H 413.787 -1.56984 3.85567 0
M  V30 4281 H 414.32 0.12467 3.97605 0
M  V30 4282 H 411.059 2.13864 6.19631 0
M  V30 4283 H 410.579 0.439529 5.98187 0
M  V30 4284 H 412.258 0.847361 6.41427 0
M  V30 4285 N 412.39 -1.55475 0.257931 0
M  V30 4286 C 413.338 -2.23244 -0.653076 0
M  V30 4287 C 414.332 -1.22366 -1.17144 0
M  V30 4288 O 415.538 -1.40347 -1.12706 0
M  V30 4289 H 411.913 -0.716247 -0.229117 0
M  V30 4290 H 413.884 -2.98343 -0.0584788 0
M  V30 4291 C 412.633 -2.95401 -1.83395 0
M  V30 4292 H 411.956 -3.72802 -1.44424 0
M  V30 4293 H 413.396 -3.46165 -2.44838 0
M  V30 4294 C 411.855 -1.99895 -2.71189 0
M  V30 4295 O 412.385 -1.53909 -3.71046 0
M  V30 4296 N 410.591 -1.6676 -2.3799 0
M  V30 4297 H 410.138 -2.04352 -1.56837 0
M  V30 4298 H 410.096 -1.03127 -2.97005 0
M  V30 4299 N 413.868 0.0150385 -1.57593 0
M  V30 4300 C 414.815 1.01126 -2.07466 0
M  V30 4301 C 415.785 1.35064 -0.966794 0
M  V30 4302 O 416.97 1.4516 -1.23827 0
M  V30 4303 C 414.11 2.30276 -2.57035 0
M  V30 4304 C 413.223 2.02373 -3.81666 0
M  V30 4305 C 412.358 3.25496 -4.19793 0
M  V30 4306 C 411.397 2.93211 -5.37303 0
M  V30 4307 N 410.534 4.08826 -5.70794 0
M  V30 4308 H 415.374 0.57901 -2.92321 0
M  V30 4309 H 412.911 0.27426 -1.44521 0
M  V30 4310 H 414.869 3.05757 -2.83846 0
M  V30 4311 H 413.499 2.71197 -1.75077 0
M  V30 4312 H 412.551 1.17327 -3.61854 0
M  V30 4313 H 413.863 1.74567 -4.67256 0
M  V30 4314 H 413.017 4.09333 -4.47807 0
M  V30 4315 H 411.756 3.56428 -3.32882 0
M  V30 4316 H 410.761 2.07777 -5.09027 0
M  V30 4317 H 411.986 2.63542 -6.25877 0
M  V30 4318 H 409.932 4.39682 -4.86842 0
M  V30 4319 H 409.849 3.84491 -6.50924 0
M  V30 4320 H 411.117 4.93496 -6.03392 0
M  V30 4321 N 415.346 1.54954 0.287554 0
M  V30 4322 C 416.293 1.86834 1.35505 0
M  V30 4323 C 417.263 0.718452 1.49758 0
M  V30 4324 O 418.448 0.968358 1.644 0
M  V30 4325 C 415.588 2.13303 2.71286 0
M  V30 4326 C 414.701 3.40883 2.65373 0
M  V30 4327 C 413.836 3.57125 3.93236 0
M  V30 4328 C 412.875 4.78449 3.81776 0
M  V30 4329 N 412.012 4.91426 5.01443 0
M  V30 4330 H 416.852 2.77889 1.07619 0
M  V30 4331 H 414.389 1.37593 0.520241 0
M  V30 4332 H 416.347 2.26646 3.50267 0
M  V30 4333 H 414.977 1.25499 2.97405 0
M  V30 4334 H 414.029 3.36088 1.78182 0
M  V30 4335 H 415.341 4.29993 2.52799 0
M  V30 4336 H 414.495 3.70207 4.80658 0
M  V30 4337 H 413.234 2.66173 4.0866 0
M  V30 4338 H 412.239 4.65386 2.92738 0
M  V30 4339 H 413.464 5.70822 3.67884 0
M  V30 4340 H 411.41 4.03401 5.17304 0
M  V30 4341 H 411.327 5.74559 4.91343 0
M  V30 4342 H 412.595 5.08879 5.90477 0
M  V30 4343 N 416.824 -0.551391 1.4764 0
M  V30 4344 C 418.07 -1.31024 1.54792 0
M  V30 4345 C 418.403 -1.9304 0.211967 0
M  V30 4346 O 417.678 -1.78175 -0.77999 0
M  V30 4347 C 417.961 -2.41593 2.67029 0
M  V30 4348 C 417.814 -1.84408 4.10261 0
M  V30 4349 C 419.133 -3.43488 2.75143 0
M  V30 4350 H 416.252 -0.475031 0.563485 0
M  V30 4351 H 418.894 -0.616454 1.79722 0
M  V30 4352 H 417.044 -3.00772 2.45904 0
M  V30 4353 H 418.716 -1.29445 4.42766 0
M  V30 4354 H 416.959 -1.15051 4.18265 0
M  V30 4355 H 417.63 -2.64367 4.84576 0
M  V30 4356 H 420.106 -2.94236 2.94218 0
M  V30 4357 H 418.982 -4.18274 3.55441 0
M  V30 4358 H 419.243 -4.02703 1.82435 0
M  V30 4359 N 418.302 -1.35869 -0.798587 0
M  V30 4360 C 419.579 -1.20145 -1.54352 0
M  V30 4361 C 419.959 0.216161 -2.0999 0
M  V30 4362 O 419.307 1.22068 -1.93162 0
M  V30 4363 C 419.517 -2.27602 -2.64572 0
M  V30 4364 C 420.865 -2.63811 -3.32699 0
M  V30 4365 O 421.889 -2.26576 -2.74849 0
M  V30 4366 O 420.748 -3.27866 -4.37226 0
M  V30 4367 H 417.842 -0.467248 -0.682355 0
M  V30 4368 H 420.388 -1.47574 -0.837859 0
M  V30 4369 H 419.16 -3.2265 -2.21388 0
M  V30 4370 H 418.783 -2.01488 -3.42766 0
M  V30 4371 N 419.78 1.02168 -1.19998 0
M  V30 4372 C 421.005 1.79833 -1.03319 0
M  V30 4373 C 421.43 1.83504 0.413281 0
M  V30 4374 O 420.788 1.26635 1.29743 0
M  V30 4375 C 420.836 3.22396 -1.61533 0
M  V30 4376 O 419.94 4.03555 -0.849519 0
M  V30 4377 H 419.281 0.554872 -0.364709 0
M  V30 4378 H 421.811 1.28542 -1.59179 0
M  V30 4379 H 421.821 3.73124 -1.65054 0
M  V30 4380 H 420.496 3.19039 -2.66809 0
M  V30 4381 H 419.073 3.62169 -0.888129 0
M  V30 4382 O 421.297 1.13266 1.15122 0
M  V30 4383 H 421.988 0.848237 1.7414 0
M  V30 END ATOM
M  V30 BEGIN BOND
M  V30 END BOND
M  V30 END CTAB
M  END
$$$$
