drugbank_target|P0AEX9 Maltose-binding periplasmic protein (DB02379; DB03323; DB03995; DB04530; DB08227)
 OpenBabel12092120033D

  0  0  0     0  0            999 V3000
M  V30 BEGIN CTAB
M  V30 COUNTS 6132 6202 0 0 0
M  V30 BEGIN ATOM
M  V30 1 H -0.908 1.98254 -0.117106 0
M  V30 2 N 0 1.576 0 0
M  V30 3 C 0.933 2.03868 1.02534 0
M  V30 4 C 1.911 0.928543 1.3348 0
M  V30 5 O 3.095 1.19667 1.45644 0
M  V30 6 C 0.222 2.43627 2.35294 0
M  V30 7 C -0.732 3.65373 2.2001 0
M  V30 8 S 0.101 5.13292 1.52614 0
M  V30 9 C 1.257 5.56322 2.86805 0
M  V30 10 H 1.49 2.90518 0.631377 0
M  V30 11 H -0.977 1.52953 0.210867 0
M  V30 12 H 0.981 2.67203 3.11629 0
M  V30 13 H -0.358 1.57376 2.7183 0
M  V30 14 H -1.165 3.90944 3.18086 0
M  V30 15 H -1.563 3.418 1.51819 0
M  V30 16 H 0.729 5.58782 3.83104 0
M  V30 17 H 1.672 6.56266 2.65933 0
M  V30 18 H 2.08 4.83886 2.90714 0
M  V30 19 N 1.4781 -0.272755 1.55222 0
M  V30 20 C 2.4251 -1.33716 1.88119 0
M  V30 21 C 3.3951 -1.49066 0.73271 0
M  V30 22 O 4.5801 -1.63469 0.984002 0
M  V30 23 C 1.7201 -2.69238 2.15882 0
M  V30 24 C 0.8331 -2.62108 3.43399 0
M  V30 25 C -0.0319 -3.89811 3.60861 0
M  V30 26 C -0.9929 -3.77193 4.8207 0
M  V30 27 N -1.8559 -4.9673 4.96189 0
M  V30 28 H 2.9841 -1.04962 2.78903 0
M  V30 29 H 0.5211 -0.507088 1.38083 0
M  V30 30 H 2.4791 -3.48089 2.29978 0
M  V30 31 H 1.1091 -2.96194 1.28331 0
M  V30 32 H 0.1611 -1.74967 3.37773 0
M  V30 33 H 1.4731 -2.48685 4.32386 0
M  V30 34 H 0.6271 -4.77103 3.74777 0
M  V30 35 H -0.6339 -4.06102 2.7006 0
M  V30 36 H -1.6289 -2.88284 4.68159 0
M  V30 37 H -0.4039 -3.62421 5.74307 0
M  V30 38 H -2.4579 -5.13431 4.08319 0
M  V30 39 H -2.5409 -4.85839 5.79221 0
M  V30 40 H -1.2729 -5.85594 5.1449 0
M  V30 41 N 2.9562 -1.48159 -0.537278 0
M  V30 42 C 4.2052 -1.5506 -1.28993 0
M  V30 43 C 4.5182 -0.226211 -1.94288 0
M  V30 44 O 5.7242 -0.173395 -2.70946 0
M  V30 45 C 4.1802 -2.73429 -2.34018 0
M  V30 46 C 3.7882 -4.1248 -1.74825 0
M  V30 47 C 5.5322 -2.89638 -3.10339 0
M  V30 48 C 3.4392 -5.22121 -2.77747 0
M  V30 49 H 2.3692 -0.577231 -0.485098 0
M  V30 50 H 5.0202 -1.74478 -0.568317 0
M  V30 51 H 3.4022 -2.47431 -3.09182 0
M  V30 52 H 4.5762 -4.48466 -1.05899 0
M  V30 53 H 2.8912 -4.01327 -1.11022 0
M  V30 54 H 5.4882 -3.68718 -3.87235 0
M  V30 55 H 5.8312 -1.9882 -3.65754 0
M  V30 56 H 6.3642 -3.15502 -2.42288 0
M  V30 57 H 3.1032 -6.1488 -2.27161 0
M  V30 58 H 2.6232 -4.90631 -3.45024 0
M  V30 59 H 4.3022 -5.49924 -3.4087 0
M  V30 60 N 4.4343 0.785586 -1.36625 0
M  V30 61 C 5.3813 1.89838 -1.31264 0
M  V30 62 C 6.3513 1.65115 -0.180633 0
M  V30 63 O 7.5363 1.87222 -0.36777 0
M  V30 64 C 4.6763 3.26706 -1.11163 0
M  V30 65 C 3.7893 3.63476 -2.33472 0
M  V30 66 C 2.9243 4.89481 -2.06353 0
M  V30 67 C 1.9633 5.18941 -3.24602 0
M  V30 68 N 1.1003 6.36131 -2.97123 0
M  V30 69 H 5.9403 1.93756 -2.26413 0
M  V30 70 H 3.4773 0.947454 -1.12524 0
M  V30 71 H 5.4353 4.05639 -0.975337 0
M  V30 72 H 4.0653 3.222 -0.196674 0
M  V30 73 H 3.1173 2.79636 -2.57891 0
M  V30 74 H 4.4293 3.81193 -3.21704 0
M  V30 75 H 3.5833 5.76288 -1.89675 0
M  V30 76 H 2.3223 4.73841 -1.15437 0
M  V30 77 H 1.3273 4.30615 -3.41834 0
M  V30 78 H 2.5523 5.36498 -4.16349 0
M  V30 79 H 0.4983 6.21875 -2.08823 0
M  V30 80 H 0.4153 6.54198 -3.78894 0
M  V30 81 H 1.6833 7.2591 -2.84033 0
M  V30 82 N 5.9124 1.20967 1.01018 0
M  V30 83 C 7.1404 1.04956 1.78303 0
M  V30 84 C 7.5554 -0.400915 1.84494 0
M  V30 85 O 6.9124 -1.27826 1.30257 0
M  V30 86 C 6.9634 1.63403 3.22462 0
M  V30 87 O 6.6844 3.02775 3.16637 0
M  V30 88 C 8.1854 1.52432 4.16268 0
M  V30 89 H 5.4054 0.368858 0.560522 0
M  V30 90 H 7.9494 1.60193 1.27116 0
M  V30 91 H 6.1044 1.1227 3.70775 0
M  V30 92 H 6.5184 3.30626 4.07169 0
M  V30 93 H 7.9924 1.98078 5.15237 0
M  V30 94 H 8.4694 0.477875 4.36592 0
M  V30 95 H 9.0754 2.02787 3.73841 0
M  V30 96 N 7.3905 -1.2043 1.01659 0
M  V30 97 C 8.6385 -1.89423 0.704522 0
M  V30 98 C 8.9595 -1.79231 -0.768197 0
M  V30 99 O 8.2295 -1.1947 -1.55254 0
M  V30 100 H 6.8095 -0.701178 0.257602 0
M  V30 101 H 9.4715 -1.4626 1.28818 0
M  V30 102 H 8.5675 -2.96052 0.987916 0
M  V30 103 N 8.8686 -0.792821 -1.36206 0
M  V30 104 C 9.8316 -0.199459 -2.2833 0
M  V30 105 C 10.8316 0.605189 -1.48977 0
M  V30 106 O 12.0216 0.425685 -1.68919 0
M  V30 107 C 9.1536 0.723523 -3.33134 0
M  V30 108 H 10.3466 -1.01181 -2.82316 0
M  V30 109 H 7.8996 -0.562485 -1.45828 0
M  V30 110 H 8.6346 1.56008 -2.84309 0
M  V30 111 H 8.4196 0.148436 -3.91819 0
M  V30 112 H 9.9096 1.13344 -4.01924 0
M  V30 113 N 10.3467 1.47872 -0.545128 0
M  V30 114 C 11.7627 1.5829 -0.204032 0
M  V30 115 C 11.9627 1.54529 1.29317 0
M  V30 116 O 11.0187 1.44232 2.07252 0
M  V30 117 C 12.3317 2.89304 -0.819987 0
M  V30 118 C 13.8797 3.02864 -0.790105 0
M  V30 119 C 14.3547 4.3656 -1.38491 0
M  V30 120 N 15.8457 4.43165 -1.34755 0
M  V30 121 C 16.5807 5.45153 -1.77753 0
M  V30 122 N 16.0767 6.54016 -2.2855 0
M  V30 123 N 17.8697 5.36125 -1.68897 0
M  V30 124 H 10.0207 1.4856 -1.51802 0
M  V30 125 H 12.2837 0.706305 -0.632327 0
M  V30 126 H 11.9897 2.97757 -1.87173 0
M  V30 127 H 11.8637 3.75957 -0.305915 0
M  V30 128 H 14.2507 2.94014 0.252913 0
M  V30 129 H 14.3317 2.17782 -1.34181 0
M  V30 130 H 13.9757 4.46164 -2.42693 0
M  V30 131 H 13.9057 5.20353 -0.808754 0
M  V30 132 H 16.3967 3.65083 -0.975855 0
M  V30 133 H 16.7097 7.27994 -2.59314 0
M  V30 134 H 15.0547 6.54938 -2.32553 0
M  V30 135 H 18.2457 4.49975 -1.28998 0
M  V30 136 H 18.4187 6.15472 -2.02726 0
M  V30 137 N 11.8248 0.280983 1.55075 0
M  V30 138 C 13.0738 -0.334784 1.98902 0
M  V30 139 C 13.3868 -1.56534 1.17288 0
M  V30 140 O 14.5928 -2.25443 1.51287 0
M  V30 141 C 13.0488 -0.646994 3.54037 0
M  V30 142 C 12.6568 0.564085 4.44435 0
M  V30 143 C 14.4008 -1.22506 4.06439 0
M  V30 144 C 12.3078 0.226137 5.90967 0
M  V30 145 H 11.2378 -0.128866 0.742906 0
M  V30 146 H 13.8888 0.386556 1.79382 0
M  V30 147 H 12.2708 -1.42739 3.6938 0
M  V30 148 H 13.4448 1.34082 4.40861 0
M  V30 149 H 11.7598 1.0594 4.02698 0
M  V30 150 H 14.3568 -1.49182 5.13468 0
M  V30 151 H 14.6998 -2.16085 3.55827 0
M  V30 152 H 15.2328 -0.50682 3.94558 0
M  V30 153 H 11.9718 1.12996 6.45687 0
M  V30 154 H 11.4918 -0.513717 5.97596 0
M  V30 155 H 13.1708 -0.179539 6.46751 0
M  V30 156 N 13.3029 -1.57598 0.00835791 0
M  V30 157 C 14.2329 -2.1198 -0.979113 0
M  V30 158 C 15.2139 -1.03091 -1.35301 0
M  V30 159 O 16.3989 -1.30818 -1.43528 0
M  V30 160 C 13.5289 -2.62995 -2.26828 0
M  V30 161 C 12.4829 -3.76485 -2.03576 0
M  V30 162 C 11.8089 -4.13846 -3.38579 0
M  V30 163 C 13.1089 -5.0342 -1.39161 0
M  V30 164 H 14.8029 -2.94738 -0.526281 0
M  V30 165 H 12.3489 -1.41783 -0.251704 0
M  V30 166 H 14.3019 -2.99669 -2.96271 0
M  V30 167 H 13.0259 -1.7737 -2.7424 0
M  V30 168 H 11.6849 -3.40217 -1.36557 0
M  V30 169 H 11.3329 -3.25232 -3.83709 0
M  V30 170 H 11.0329 -4.90312 -3.23834 0
M  V30 171 H 12.5569 -4.53086 -4.09323 0
M  V30 172 H 13.9709 -5.37812 -1.98573 0
M  V30 173 H 12.3679 -5.84746 -1.34878 0
M  V30 174 H 13.4379 -4.83548 -0.361868 0
M  V30 175 N 14.781 0.264519 -1.55364 0
M  V30 176 C 15.744 1.31046 -1.88042 0
M  V30 177 C 16.744 1.41943 -0.755569 0
M  V30 178 O 17.934 1.40947 -1.02369 0
M  V30 179 C 15.066 2.69067 -2.09323 0
M  V30 180 H 16.259 1.03297 -2.81549 0
M  V30 181 H 13.812 0.502989 -1.47986 0
M  V30 182 H 14.547 3.01982 -1.18226 0
M  V30 183 H 14.332 2.62542 -2.91229 0
M  V30 184 H 15.822 3.44623 -2.35848 0
M  V30 185 N 16.2591 1.48442 0.529413 0
M  V30 186 C 17.1891 1.65902 1.64313 0
M  V30 187 C 18.1701 0.507897 1.6234 0
M  V30 188 O 19.3551 0.740503 1.79528 0
M  V30 189 C 16.4851 1.69911 3.02898 0
M  V30 190 C 15.4391 2.8453 3.19729 0
M  V30 191 C 14.7651 2.73629 4.59381 0
M  V30 192 C 16.0651 4.25821 3.02447 0
M  V30 193 H 17.7591 2.5914 1.49955 0
M  V30 194 H 15.3051 1.24709 0.719982 0
M  V30 195 H 17.2581 1.80715 3.80684 0
M  V30 196 H 15.9821 0.732524 3.18279 0
M  V30 197 H 14.6411 2.73283 2.44361 0
M  V30 198 H 14.2891 1.74938 4.71599 0
M  V30 199 H 13.9891 3.50541 4.71588 0
M  V30 200 H 15.5131 2.86401 5.39265 0
M  V30 201 H 16.9271 4.37898 3.70024 0
M  V30 202 H 15.3241 5.03735 3.26146 0
M  V30 203 H 16.3941 4.42244 1.98867 0
M  V30 204 N 17.7372 -0.778329 1.37039 0
M  V30 205 C 18.9622 -1.57248 1.35233 0
M  V30 206 C 19.3872 -1.87999 -0.0615568 0
M  V30 207 O 18.7452 -1.48734 -1.03672 0
M  V30 208 C 18.7932 -2.86353 2.19167 0
M  V30 209 O 17.8972 -3.80442 1.59178 0
M  V30 210 H 17.2382 -0.476569 0.462362 0
M  V30 211 H 19.7682 -0.963853 1.80474 0
M  V30 212 H 19.7782 -3.35519 2.32145 0
M  V30 213 H 18.4532 -2.63299 3.21942 0
M  V30 214 H 17.0302 -3.39067 1.55203 0
M  V30 215 N 19.2153 -1.21501 -1.00376 0
M  V30 216 C 20.1783 -0.976927 -2.07337 0
M  V30 217 C 21.1783 0.0525322 -1.60714 0
M  V30 218 O 22.3683 -0.184869 -1.73216 0
M  V30 219 C 19.5003 -0.473423 -3.37597 0
M  V30 220 H 20.6933 -1.92587 -2.29892 0
M  V30 221 H 18.2463 -1.03217 -1.17371 0
M  V30 222 H 18.9813 0.480379 -3.20722 0
M  V30 223 H 18.7663 -1.216 -3.72768 0
M  V30 224 H 20.2563 -0.32675 -4.1632 0
M  V30 225 N 20.6934 1.19889 -1.02296 0
M  V30 226 C 21.6234 2.25141 -0.619174 0
M  V30 227 C 22.6044 1.66051 0.368915 0
M  V30 228 O 23.7894 1.92546 0.252941 0
M  V30 229 C 20.9194 3.4728 0.0368783 0
M  V30 230 C 19.8734 4.19005 -0.872865 0
M  V30 231 C 19.1994 5.34637 -0.0822402 0
M  V30 232 C 20.4994 4.74452 -2.18387 0
M  V30 233 H 22.1934 2.59171 -1.49903 0
M  V30 234 H 19.7394 1.24579 -0.722222 0
M  V30 235 H 21.6924 4.20098 0.330958 0
M  V30 236 H 20.4164 3.12433 0.95149 0
M  V30 237 H 19.0754 3.48061 -1.15105 0
M  V30 238 H 18.7234 4.96034 0.83422 0
M  V30 239 H 18.4234 5.83557 -0.688149 0
M  V30 240 H 19.9474 6.10255 0.205238 0
M  V30 241 H 21.3614 5.39055 -1.95172 0
M  V30 242 H 19.7584 5.33834 -2.74119 0
M  V30 243 H 20.8284 3.92844 -2.84257 0
M  V30 244 N 22.1715 0.800033 1.35784 0
M  V30 245 C 23.3995 0.389606 2.03199 0
M  V30 246 C 23.8145 -0.997375 1.60306 0
M  V30 247 O 23.1715 -1.64154 0.797481 0
M  V30 248 C 23.2225 0.455855 3.58614 0
M  V30 249 O 22.9435 1.78815 3.99946 0
M  V30 250 C 24.4445 0.0374032 4.43284 0
M  V30 251 H 21.6645 0.159132 0.651857 0
M  V30 252 H 24.2085 1.08183 1.73541 0
M  V30 253 H 22.3635 -0.188057 3.86943 0
M  V30 254 H 22.7775 1.74636 4.94573 0
M  V30 255 H 24.2515 0.134882 5.51835 0
M  V30 256 H 24.7285 -1.01651 4.27275 0
M  V30 257 H 25.3345 0.654215 4.20238 0
M  V30 258 N 23.6496 -1.47581 0.552962 0
M  V30 259 C 24.8776 -2.06875 0.0320556 0
M  V30 260 C 25.2926 -1.40625 -1.25976 0
M  V30 261 O 24.6496 -0.501349 -1.75479 0
M  V30 262 C 24.7006 -3.61092 -0.17167 0
M  V30 263 O 24.4216 -4.24858 1.06899 0
M  V30 264 C 25.9226 -4.37242 -0.730344 0
M  V30 265 H 23.1426 -0.669561 0.043915 0
M  V30 266 H 25.6866 -1.89646 0.765163 0
M  V30 267 H 23.8416 -3.7785 -0.854894 0
M  V30 268 H 24.2556 -5.17334 0.864059 0
M  V30 269 H 25.7296 -5.45842 -0.822203 0
M  V30 270 H 26.2066 -4.03235 -1.74064 0
M  V30 271 H 26.8126 -4.25219 -0.0829543 0
M  V30 272 N 25.1277 -0.289203 -1.54924 0
M  V30 273 C 26.0607 0.633823 -2.19221 0
M  V30 274 C 27.0387 1.14174 -1.15772 0
M  V30 275 O 28.2227 1.21211 -1.44361 0
M  V30 276 C 25.3497 1.86592 -2.82668 0
M  V30 277 C 24.3957 1.49227 -3.99542 0
M  V30 278 S 25.2287 0.558312 -5.32582 0
M  V30 279 C 26.3847 1.79847 -5.99505 0
M  V30 280 H 26.6177 0.0875416 -2.97171 0
M  V30 281 H 24.1507 -0.0733899 -1.54225 0
M  V30 282 H 26.1087 2.57305 -3.19851 0
M  V30 283 H 24.7697 2.38335 -2.04585 0
M  V30 284 H 23.9627 2.40945 -4.42676 0
M  V30 285 H 23.5647 0.865193 -3.63855 0
M  V30 286 H 25.8567 2.7406 -6.19595 0
M  V30 287 H 26.7997 1.4099 -6.93922 0
M  V30 288 H 27.2077 1.96982 -5.29016 0
M  V30 289 N 26.6058 1.57591 -0.0167156 0
M  V30 290 C 27.5388 2.04944 1.00366 0
M  V30 291 C 28.5168 0.942648 1.32487 0
M  V30 292 O 29.7008 1.21205 1.44367 0
M  V30 293 C 26.8278 2.46109 2.32697 0
M  V30 294 C 25.8738 3.67686 2.16123 0
M  V30 295 S 26.7068 5.14882 1.47161 0
M  V30 296 C 27.8628 5.59332 2.80888 0
M  V30 297 H 28.0958 2.91172 0.600528 0
M  V30 298 H 25.6288 1.53168 0.194632 0
M  V30 299 H 27.5868 2.70493 3.08778 0
M  V30 300 H 26.2478 1.6025 2.70146 0
M  V30 301 H 25.4408 3.94296 3.13922 0
M  V30 302 H 25.0428 3.43391 1.48185 0
M  V30 303 H 27.3348 5.62814 3.77156 0
M  V30 304 H 28.2778 6.5905 2.58958 0
M  V30 305 H 28.6858 4.86942 2.85565 0
M  V30 306 N 28.0839 -0.256276 1.55502 0
M  V30 307 C 29.3309 -0.985619 1.76895 0
M  V30 308 C 29.6589 -1.85671 0.579355 0
M  V30 309 O 28.9139 -1.90744 -0.437651 0
M  V30 310 C 29.2129 -1.88432 3.03691 0
M  V30 311 C 28.8789 -1.16936 4.35473 0
M  V30 312 C 27.5409 -0.97173 4.71286 0
M  V30 313 C 29.8929 -0.661889 5.1698 0
M  V30 314 C 27.2209 -0.254179 5.86149 0
M  V30 315 C 29.5729 0.042149 6.32586 0
M  V30 316 C 28.2369 0.25134 6.67027 0
M  V30 317 H 27.5069 -0.360663 0.647304 0
M  V30 318 H 30.1539 -0.256483 1.89775 0
M  V30 319 H 28.4589 -2.68021 2.85783 0
M  V30 320 H 30.1559 -2.45015 3.1744 0
M  V30 321 H 26.7459 -1.33332 4.07333 0
M  V30 322 H 30.9299 -0.802145 4.89775 0
M  V30 323 H 26.1859 -0.0815408 6.11346 0
M  V30 324 H 30.3599 0.443049 6.94989 0
M  V30 325 H 27.9869 0.809314 7.5588 0
M  V30 326 N 29.562 -1.4872 -0.521534 0
M  V30 327 C 30.787 -1.61101 -1.30618 0
M  V30 328 C 31.212 -0.274611 -1.86085 0
M  V30 329 O 30.57 0.754937 -1.64834 0
M  V30 330 C 30.618 -2.66709 -2.4269 0
M  V30 331 O 29.722 -2.24456 -3.45967 0
M  V30 332 H 29.063 -0.539921 -0.386499 0
M  V30 333 H 31.593 -1.94767 -0.626645 0
M  V30 334 H 31.603 -2.88245 -2.88754 0
M  V30 335 H 30.278 -3.63727 -2.01682 0
M  V30 336 H 28.855 -2.13168 -3.05964 0
M  V30 337 N 31.0401 0.771051 -1.3745 0
M  V30 338 C 32.0031 1.86598 -1.33093 0
M  V30 339 C 33.0031 1.59076 -0.234845 0
M  V30 340 O 34.1931 1.67145 -0.490732 0
M  V30 341 C 31.3251 3.23747 -1.06773 0
M  V30 342 H 32.5181 1.91873 -2.30488 0
M  V30 343 H 30.0711 0.970876 -1.2249 0
M  V30 344 H 30.8061 3.24148 -0.099129 0
M  V30 345 H 30.5911 3.45115 -1.86112 0
M  V30 346 H 32.0811 4.03824 -1.06377 0
M  V30 347 N 32.5182 1.22032 0.997298 0
M  V30 348 C 33.7432 1.06921 1.77715 0
M  V30 349 C 34.1682 -0.376226 1.84299 0
M  V30 350 O 33.5262 -1.27165 1.29223 0
M  V30 351 C 33.5742 1.67996 3.19076 0
M  V30 352 O 32.6782 0.930653 4.01762 0
M  V30 353 H 32.0192 0.375814 0.547412 0
M  V30 354 H 34.5492 1.61737 1.25309 0
M  V30 355 H 34.5592 1.72538 3.69723 0
M  V30 356 H 33.2342 2.73182 3.13599 0
M  V30 357 H 31.8112 0.960917 3.60307 0
M  V30 358 N 33.9963 -1.19345 1.0293 0
M  V30 359 C 34.9593 -2.20793 0.615069 0
M  V30 360 C 35.9593 -1.57553 -0.321533 0
M  V30 361 O 37.1493 -1.73862 -0.108483 0
M  V30 362 C 34.2813 -3.40754 -0.0999222 0
M  V30 363 H 35.4743 -2.58955 1.51269 0
M  V30 364 H 33.0273 -1.3303 0.820534 0
M  V30 365 H 33.7623 -3.0811 -1.01187 0
M  V30 366 H 33.5473 -3.87889 0.57309 0
M  V30 367 H 35.0373 -4.15898 -0.376645 0
M  V30 368 N 35.4744 -0.807222 -1.35358 0
M  V30 369 C 36.4044 -0.232509 -2.3234 0
M  V30 370 C 37.3854 0.642386 -1.57504 0
M  V30 371 O 38.5704 0.572526 -1.85569 0
M  V30 372 C 35.7004 0.619238 -3.41735 0
M  V30 373 C 34.6544 -0.157215 -4.27711 0
M  V30 374 C 33.9804 0.816273 -5.28433 0
M  V30 375 C 35.2804 -1.35656 -5.04376 0
M  V30 376 H 36.9744 -1.04276 -2.80654 0
M  V30 377 H 34.5204 -0.50288 -1.34934 0
M  V30 378 H 36.4734 1.03137 -4.08584 0
M  V30 379 H 35.1974 1.46239 -2.92031 0
M  V30 380 H 33.8564 -0.550525 -3.62443 0
M  V30 381 H 33.5044 1.65494 -4.74996 0
M  V30 382 H 33.2044 0.301067 -5.86828 0
M  V30 383 H 34.7284 1.22659 -5.98153 0
M  V30 384 H 36.1424 -1.01927 -5.64166 0
M  V30 385 H 34.5394 -1.8063 -5.7227 0
M  V30 386 H 35.6094 -2.14288 -4.34981 0
M  V30 387 N 36.9525 1.47285 -0.560781 0
M  V30 388 C 37.9155 2.28535 0.174488 0
M  V30 389 C 38.9155 1.37153 0.839388 0
M  V30 390 O 40.1055 1.59748 0.694702 0
M  V30 391 C 37.2375 3.16934 1.25561 0
M  V30 392 H 38.4305 2.95012 -0.539262 0
M  V30 393 H 35.9835 1.53034 -0.317865 0
M  V30 394 H 36.7185 2.55157 2.00164 0
M  V30 395 H 36.5035 3.8419 0.783604 0
M  V30 396 H 37.9935 3.78143 1.77193 0
M  V30 397 N 38.4306 0.297415 1.54768 0
M  V30 398 C 39.3776 -0.580276 2.23386 0
M  V30 399 C 40.3476 -1.13238 1.21517 0
M  V30 400 O 41.5326 -1.17757 1.50126 0
M  V30 401 C 38.6726 -1.74801 2.97555 0
M  V30 402 C 37.7856 -1.22764 4.1419 0
M  V30 403 C 36.9206 -2.35895 4.75949 0
M  V30 404 C 35.9596 -1.80974 5.84735 0
M  V30 405 N 35.0966 -2.87664 6.40464 0
M  V30 406 H 39.9366 0.0114833 2.97998 0
M  V30 407 H 37.4736 0.0174361 1.4709 0
M  V30 408 H 39.4316 -2.43475 3.38786 0
M  V30 409 H 38.0616 -2.31145 2.25326 0
M  V30 410 H 37.1136 -0.433271 3.77924 0
M  V30 411 H 38.4256 -0.785551 4.92575 0
M  V30 412 H 37.5796 -3.12523 5.20014 0
M  V30 413 H 36.3186 -2.83429 3.96887 0
M  V30 414 H 35.3236 -1.02834 5.40097 0
M  V30 415 H 36.5486 -1.34348 6.65678 0
M  V30 416 H 34.4946 -3.34538 5.64287 0
M  V30 417 H 34.4116 -2.4794 7.14186 0
M  V30 418 H 35.6796 -3.642 6.89187 0
M  V30 419 N 39.9087 -1.5758 0.0250728 0
M  V30 420 C 41.1577 -1.90811 -0.653767 0
M  V30 421 C 41.4707 -0.90273 -1.73523 0
M  V30 422 O 42.6767 -1.12614 -2.47043 0
M  V30 423 C 41.1327 -3.38804 -1.21409 0
M  V30 424 C 40.7407 -4.47692 -0.166126 0
M  V30 425 C 42.4847 -3.81108 -1.86967 0
M  V30 426 C 40.3917 -5.86779 -0.737856 0
M  V30 427 H 39.3217 -0.712063 -0.247956 0
M  V30 428 H 41.9727 -1.83281 0.0897137 0
M  V30 429 H 40.3547 -3.41252 -2.00905 0
M  V30 430 H 41.5287 -4.56797 0.606079 0
M  V30 431 H 39.8437 -4.14565 0.390466 0
M  V30 432 H 42.4407 -4.82375 -2.30692 0
M  V30 433 H 42.7837 -3.15953 -2.71071 0
M  V30 434 H 43.3167 -3.81065 -1.14167 0
M  V30 435 H 40.0557 -6.55468 0.0649577 0
M  V30 436 H 39.5757 -5.81288 -1.47864 0
M  V30 437 H 41.2547 -6.35223 -1.22884 0
M  V30 438 N 41.3868 0.248026 -1.55636 0
M  V30 439 C 42.2968 1.32859 -1.93354 0
M  V30 440 C 43.3128 1.52719 -0.833838 0
M  V30 441 O 44.4888 1.66363 -1.13513 0
M  V30 442 C 41.5538 2.66337 -2.21958 0
M  V30 443 C 40.6148 2.55008 -3.45354 0
M  V30 444 C 39.8478 3.82121 -3.72584 0
M  V30 445 O 40.0708 4.83951 -3.01907 0
M  V30 446 O 39.0048 3.80822 -4.6611 0
M  V30 447 H 42.8308 1.03862 -2.85388 0
M  V30 448 H 40.4158 0.448686 -1.42503 0
M  V30 449 H 42.2978 3.45216 -2.4167 0
M  V30 450 H 40.9728 2.95068 -1.33103 0
M  V30 451 H 39.8798 1.7442 -3.30951 0
M  V30 452 H 41.2128 2.31222 -4.34508 0
M  V30 453 N 42.8649 1.48995 0.513639 0
M  V30 454 C 43.7749 1.67443 1.64317 0
M  V30 455 C 44.7909 0.556947 1.64846 0
M  V30 456 O 45.9669 0.830082 1.83498 0
M  V30 457 C 43.0319 1.72515 3.00732 0
M  V30 458 C 42.0929 2.96009 3.1093 0
M  V30 459 C 41.3259 3.00829 4.40837 0
M  V30 460 O 41.5489 2.13594 5.28898 0
M  V30 461 O 40.4829 3.93168 4.55744 0
M  V30 462 H 44.3089 2.63106 1.51687 0
M  V30 463 H 41.8939 1.32588 0.688543 0
M  V30 464 H 43.7759 1.78277 3.81831 0
M  V30 465 H 42.4509 0.800278 3.13651 0
M  V30 466 H 41.3579 2.9577 2.29065 0
M  V30 467 H 42.6909 3.87934 3.02933 0
M  V30 468 N 44.343 -0.763751 1.37857 0
M  V30 469 C 45.591 -1.51957 1.33243 0
M  V30 470 C 45.912 -1.94835 -0.0801709 0
M  V30 471 O 45.182 -1.66894 -1.02582 0
M  V30 472 H 43.762 -0.563626 0.49024 0
M  V30 473 H 46.424 -0.908504 1.7243 0
M  V30 474 H 45.52 -2.41523 1.97669 0
M  V30 475 N 45.8211 -1.22559 -0.990812 0
M  V30 476 C 46.7681 -0.997519 -2.0813 0
M  V30 477 C 47.7381 0.0814702 -1.659 0
M  V30 478 O 48.9231 -0.0685424 -1.90677 0
M  V30 479 C 46.0631 -0.583615 -3.40129 0
M  V30 480 C 45.1761 -1.7336 -3.9569 0
M  V30 481 C 44.3111 -1.26748 -5.15857 0
M  V30 482 C 43.3501 -2.38888 -5.63559 0
M  V30 483 N 42.4871 -1.93308 -6.74964 0
M  V30 484 H 47.3271 -1.93099 -2.26973 0
M  V30 485 H 44.8641 -0.962114 -1.11273 0
M  V30 486 H 46.8221 -0.324801 -4.15934 0
M  V30 487 H 45.4521 0.312845 -3.2128 0
M  V30 488 H 44.5041 -2.10669 -3.16738 0
M  V30 489 H 45.8161 -2.57704 -4.27071 0
M  V30 490 H 44.9701 -0.966173 -5.98957 0
M  V30 491 H 43.7091 -0.394272 -4.86104 0
M  V30 492 H 42.7141 -2.69805 -4.79046 0
M  V30 493 H 43.9391 -3.26728 -5.95336 0
M  V30 494 H 41.8851 -1.08352 -6.4699 0
M  V30 495 H 41.8021 -2.71217 -7.05675 0
M  V30 496 H 43.0701 -1.66252 -7.61564 0
M  V30 497 N 47.2992 1.18797 -1.03562 0
M  V30 498 C 48.2292 2.24472 -0.643019 0
M  V30 499 C 49.2102 1.66433 0.351283 0
M  V30 500 O 50.3952 1.92803 0.232505 0
M  V30 501 C 47.5252 3.473 4.24935e-05 0
M  V30 502 C 46.4792 4.18055 -0.917257 0
M  V30 503 C 45.8052 5.34519 -0.138941 0
M  V30 504 C 47.1052 4.72109 -2.23407 0
M  V30 505 H 48.7992 2.57566 -1.52643 0
M  V30 506 H 46.3452 1.23806 -0.735394 0
M  V30 507 H 48.2982 4.20426 0.286383 0
M  V30 508 H 47.0222 3.13424 0.918299 0
M  V30 509 H 45.6812 3.46821 -1.1879 0
M  V30 510 H 45.3292 4.96891 0.781562 0
M  V30 511 H 45.0292 5.82794 -0.750005 0
M  V30 512 H 46.5532 6.10438 0.1405 0
M  V30 513 H 47.9672 5.36955 -2.00879 0
M  V30 514 H 46.3642 5.30897 -2.79765 0
M  V30 515 H 47.4342 3.89807 -2.88407 0
M  V30 516 N 48.7773 0.814389 1.34928 0
M  V30 517 C 50.0233 0.399013 1.98836 0
M  V30 518 C 50.3563 -1.03314 1.64438 0
M  V30 519 O 49.6313 -1.71811 0.911659 0
M  V30 520 C 49.9143 0.591629 3.55207 0
M  V30 521 C 49.7673 2.06928 3.99376 0
M  V30 522 C 51.0863 0.022199 4.40094 0
M  V30 523 H 48.2053 0.146451 0.722303 0
M  V30 524 H 50.8473 1.02537 1.59957 0
M  V30 525 H 48.9973 0.0584441 3.88456 0
M  V30 526 H 50.6693 2.66544 3.76499 0
M  V30 527 H 48.9123 2.56287 3.49999 0
M  V30 528 H 49.5833 2.1549 5.08201 0
M  V30 529 H 52.0593 0.477643 4.13349 0
M  V30 530 H 50.9353 0.186832 5.48582 0
M  V30 531 H 51.1963 -1.07215 4.28902 0
M  V30 532 N 50.2554 -1.46986 0.568584 0
M  V30 533 C 51.5044 -2.01646 0.0465894 0
M  V30 534 C 51.8174 -1.44721 -1.31587 0
M  V30 535 O 53.0234 -1.91113 -1.92842 0
M  V30 536 C 51.4794 -3.59885 0.032752 0
M  V30 537 C 51.0874 -4.25804 1.39266 0
M  V30 538 C 52.8314 -4.22255 -0.436038 0
M  V30 539 C 50.7384 -5.76081 1.33732 0
M  V30 540 H 49.6684 -0.753876 0.013647 0
M  V30 541 H 52.3194 -1.68864 0.718131 0
M  V30 542 H 50.7014 -3.8968 -0.704669 0
M  V30 543 H 51.8754 -4.07637 2.1487 0
M  V30 544 H 50.1904 -3.7547 1.80032 0
M  V30 545 H 52.7874 -5.32394 -0.49602 0
M  V30 546 H 53.1304 -3.90212 -1.45053 0
M  V30 547 H 53.6634 -3.97033 0.246877 0
M  V30 548 H 50.4024 -6.12761 2.32817 0
M  V30 549 H 49.9224 -5.96553 0.623267 0
M  V30 550 H 51.6014 -6.38518 1.0442 0
M  V30 551 N 51.7335 -0.305618 -1.54608 0
M  V30 552 C 52.9795 0.295595 -2.01241 0
M  V30 553 C 53.3345 1.51171 -1.19018 0
M  V30 554 O 52.6275 1.89832 -0.259684 0
M  V30 555 C 52.8215 0.698983 -3.50498 0
M  V30 556 C 52.6505 -0.476491 -4.47168 0
M  V30 557 C 51.4205 -0.969963 -4.95903 0
M  V30 558 C 53.6185 -1.32294 -4.96994 0
M  V30 559 N 51.6005 -2.11172 -5.76437 0
M  V30 560 C 52.9715 -2.31212 -5.75275 0
M  V30 561 C 55.0265 -1.35278 -4.7917 0
M  V30 562 C 53.7295 -3.32896 -6.37631 0
M  V30 563 C 55.7555 -2.35823 -5.42348 0
M  V30 564 C 55.1175 -3.33469 -6.20466 0
M  V30 565 H 51.2165 0.0724992 -0.778632 0
M  V30 566 H 53.8005 -0.436583 -1.89742 0
M  V30 567 H 51.9715 1.40032 -3.62278 0
M  V30 568 H 53.7035 1.28013 -3.8392 0
M  V30 569 H 50.4585 -0.544178 -4.70463 0
M  V30 570 H 50.8825 -2.68714 -6.21387 0
M  V30 571 H 55.5245 -0.61157 -4.18354 0
M  V30 572 H 53.2425 -4.07933 -6.97579 0
M  V30 573 H 56.8285 -2.38911 -5.30484 0
M  V30 574 H 55.7085 -4.09996 -6.68485 0
M  V30 575 N 53.2116 1.57565 -0.0334293 0
M  V30 576 C 54.4606 1.91155 0.643639 0
M  V30 577 C 54.7736 0.91192 1.73042 0
M  V30 578 O 55.9796 1.13923 2.46442 0
M  V30 579 C 54.4356 3.39443 1.1961 0
M  V30 580 C 54.0436 4.47774 0.142381 0
M  V30 581 C 55.7876 3.82094 1.84944 0
M  V30 582 C 53.6946 5.87162 0.706727 0
M  V30 583 H 52.6246 0.713368 0.244176 0
M  V30 584 H 55.2756 1.8323 -0.0994323 0
M  V30 585 H 53.6576 3.42313 1.99092 0
M  V30 586 H 54.8316 4.56469 -0.630296 0
M  V30 587 H 53.1466 4.14352 -0.412446 0
M  V30 588 H 55.7436 4.83591 2.2813 0
M  V30 589 H 56.0866 3.17386 2.69392 0
M  V30 590 H 56.6196 3.81665 1.12145 0
M  V30 591 H 53.3586 6.55424 -0.0997178 0
M  V30 592 H 52.8786 5.82064 1.44779 0
M  V30 593 H 54.5576 6.35866 1.19514 0
M  V30 594 N 54.6897 -0.239769 1.55765 0
M  V30 595 C 55.6377 -1.31668 1.91745 0
M  V30 596 C 56.6317 -1.49462 0.797338 0
M  V30 597 O 57.8377 -1.50852 0.982021 0
M  V30 598 H 54.2127 -0.441048 0.609082 0
M  V30 599 H 56.1837 -0.985923 2.81642 0
M  V30 600 C 54.9327 -2.66368 2.2348 0
M  V30 601 H 54.2557 -2.53478 3.09175 0
M  V30 602 H 55.6957 -3.40578 2.52553 0
M  V30 603 C 54.1547 -3.20002 1.05359 0
M  V30 604 O 54.6847 -4.00538 0.305261 0
M  V30 605 N 52.8907 -2.78126 0.842292 0
M  V30 606 H 52.4377 -2.12742 1.45253 0
M  V30 607 H 52.3957 -3.14354 0.053652 0
M  V30 608 N 56.1678 -1.49265 -0.50573 0
M  V30 609 C 57.4158 -1.582 -1.25766 0
M  V30 610 C 57.7368 -0.268482 -1.93143 0
M  V30 611 O 57.0068 0.711833 -1.8251 0
M  V30 612 H 55.5868 -0.582873 -0.467191 0
M  V30 613 H 58.2488 -1.85865 -0.586525 0
M  V30 614 H 57.3448 -2.37563 -2.02412 0
M  V30 615 N 57.6459 0.756429 -1.3826 0
M  V30 616 C 58.9229 1.50584 -1.24835 0
M  V30 617 C 59.3029 2.10556 0.151485 0
M  V30 618 O 58.6509 1.96825 1.1607 0
M  V30 619 C 58.8609 2.57448 -2.3563 0
M  V30 620 C 60.2089 3.24429 -2.73917 0
M  V30 621 O 61.2329 2.67751 -2.34921 0
M  V30 622 O 60.0919 4.26937 -3.41156 0
M  V30 623 H 57.1859 0.667664 -0.48801 0
M  V30 624 H 59.7319 0.792083 -1.5008 0
M  V30 625 H 58.5039 2.11362 -3.29305 0
M  V30 626 H 58.1269 3.36408 -2.11933 0
M  V30 627 N 59.124 1.23083 0.984299 0
M  V30 628 C 60.071 1.00854 2.07598 0
M  V30 629 C 61.041 -0.0726709 1.65941 0
M  V30 630 O 62.226 0.0786535 1.90638 0
M  V30 631 C 59.366 0.601645 3.39815 0
M  V30 632 C 58.479 1.75456 3.94765 0
M  V30 633 C 57.614 1.29482 5.15177 0
M  V30 634 C 56.653 2.41873 5.62284 0
M  V30 635 N 55.79 1.96885 6.73929 0
M  V30 636 H 60.63 1.943 2.25946 0
M  V30 637 H 58.167 0.968001 1.10762 0
M  V30 638 H 60.125 0.346854 4.15756 0
M  V30 639 H 58.755 -0.295803 3.21442 0
M  V30 640 H 57.807 2.12346 3.15616 0
M  V30 641 H 59.119 2.59965 4.25699 0
M  V30 642 H 58.273 0.997923 5.98437 0
M  V30 643 H 57.012 0.420046 4.85888 0
M  V30 644 H 56.017 2.72342 4.77608 0
M  V30 645 H 57.242 3.29881 5.93595 0
M  V30 646 H 55.188 1.11782 6.46406 0
M  V30 647 H 55.105 2.74956 7.04227 0
M  V30 648 H 56.373 1.70289 7.60672 0
M  V30 649 N 60.6021 -1.18246 1.0419 0
M  V30 650 C 61.8501 -1.87886 0.744543 0
M  V30 651 C 62.1711 -1.8082 -0.730006 0
M  V30 652 O 61.4411 -1.22736 -1.52685 0
M  V30 653 H 60.0211 -0.695556 0.272417 0
M  V30 654 H 62.6831 -1.43494 1.31892 0
M  V30 655 H 61.7791 -2.9389 1.05049 0
M  V30 656 N 62.0802 -0.821533 -1.34494 0
M  V30 657 C 63.3102 -0.421272 -2.02259 0
M  V30 658 C 63.7182 0.977047 -1.6202 0
M  V30 659 O 63.0612 1.64348 -0.820703 0
M  V30 660 C 63.1232 -0.44231 -3.56769 0
M  V30 661 C 62.7872 -1.79372 -4.20327 0
M  V30 662 C 63.7842 -2.75435 -4.40944 0
M  V30 663 C 61.4692 -2.08182 -4.57127 0
M  V30 664 C 63.4632 -3.98482 -4.97484 0
M  V30 665 C 61.1502 -3.31489 -5.13379 0
M  V30 666 C 62.1482 -4.26457 -5.33501 0
M  V30 667 O 61.8362 -5.47585 -5.88562 0
M  V30 668 H 61.5682 -0.167473 -0.654927 0
M  V30 669 H 64.1222 -1.11073 -1.72777 0
M  V30 670 H 62.3522 0.303836 -3.85505 0
M  V30 671 H 64.0412 -0.0622925 -4.05852 0
M  V30 672 H 64.8072 -2.54473 -4.12878 0
M  V30 673 H 60.6862 -1.35066 -4.4077 0
M  V30 674 H 64.2302 -4.72618 -5.13106 0
M  V30 675 H 60.1272 -3.52316 -5.40873 0
M  V30 676 H 60.8952 -5.49086 -6.06998 0
M  V30 677 N 63.5583 1.46682 -0.576371 0
M  V30 678 C 64.5063 2.31953 0.17335 0
M  V30 679 C 65.5003 1.44098 0.89062 0
M  V30 680 O 66.7063 1.60759 0.809728 0
M  V30 681 H 63.0813 0.748273 0.0747727 0
M  V30 682 H 65.0523 2.93007 -0.564738 0
M  V30 683 C 63.8013 3.27142 1.17786 0
M  V30 684 H 63.1243 3.94719 0.635361 0
M  V30 685 H 64.5643 3.896 1.67296 0
M  V30 686 C 63.0233 2.52036 2.23561 0
M  V30 687 O 63.5533 2.27877 3.3081 0
M  V30 688 N 61.7593 2.12709 1.97998 0
M  V30 689 H 61.3063 2.32557 1.10792 0
M  V30 690 H 61.2643 1.62776 2.68982 0
M  V30 691 N 65.0364 0.313813 1.54444 0
M  V30 692 C 66.2844 -0.291099 1.99993 0
M  V30 693 C 66.6054 -1.53418 1.20366 0
M  V30 694 O 65.8754 -1.93544 0.302927 0
M  V30 695 H 64.4554 -0.110552 0.738774 0
M  V30 696 H 67.1174 0.428106 1.9014 0
M  V30 697 H 66.2134 -0.554268 3.07139 0
M  V30 698 N 66.5145 -1.57545 0.0417849 0
M  V30 699 C 67.4445 -2.14009 -0.933929 0
M  V30 700 C 68.4255 -1.05938 -1.33083 0
M  V30 701 O 69.6105 -1.33833 -1.40721 0
M  V30 702 C 66.7405 -2.67747 -2.21199 0
M  V30 703 C 65.6945 -3.80718 -1.95544 0
M  V30 704 C 65.0205 -4.20935 -3.29724 0
M  V30 705 C 66.3205 -5.06258 -1.28452 0
M  V30 706 H 68.0145 -2.95788 -0.463645 0
M  V30 707 H 65.5605 -1.42285 -0.221573 0
M  V30 708 H 67.5135 -3.05886 -2.89848 0
M  V30 709 H 66.2375 -1.83147 -2.70416 0
M  V30 710 H 64.8965 -3.43037 -1.2931 0
M  V30 711 H 64.5445 -3.33298 -3.76724 0
M  V30 712 H 64.2445 -4.9707 -3.13361 0
M  V30 713 H 65.7685 -4.61666 -3.9962 0
M  V30 714 H 67.1825 -5.41903 -1.8712 0
M  V30 715 H 65.5795 -5.87475 -1.22445 0
M  V30 716 H 66.6495 -4.84207 -0.259219 0
M  V30 717 N 67.9926 0.231505 -1.5589 0
M  V30 718 C 68.9556 1.27028 -1.90779 0
M  V30 719 C 69.9556 1.40308 -0.785507 0
M  V30 720 O 71.1456 1.38744 -1.05336 0
M  V30 721 C 68.2776 2.64566 -2.14983 0
M  V30 722 H 69.4706 0.973017 -2.83677 0
M  V30 723 H 67.0236 0.471486 -1.49019 0
M  V30 724 H 67.7586 2.99406 -1.24604 0
M  V30 725 H 67.5436 2.56305 -2.96732 0
M  V30 726 H 69.0336 3.39543 -2.43105 0
M  V30 727 N 69.4707 1.49531 0.497807 0
M  V30 728 C 70.3807 1.69176 1.62532 0
M  V30 729 C 71.3967 0.5744 1.64246 0
M  V30 730 O 72.5727 0.849497 1.82608 0
M  V30 731 C 69.6377 1.75695 2.98885 0
M  V30 732 C 68.6987 2.9929 3.07773 0
M  V30 733 C 67.9317 3.05488 4.37622 0
M  V30 734 O 68.1547 2.19192 5.26603 0
M  V30 735 O 67.0887 3.9798 4.51548 0
M  V30 736 H 70.9147 2.647 1.48887 0
M  V30 737 H 68.4997 1.3331 0.674441 0
M  V30 738 H 70.3817 1.82317 3.79919 0
M  V30 739 H 69.0567 0.8335 3.12785 0
M  V30 740 H 67.9637 2.98183 2.25915 0
M  V30 741 H 69.2967 3.91125 2.98801 0
M  V30 742 N 70.9488 -0.749086 1.3866 0
M  V30 743 C 72.1948 -1.51056 1.35314 0
M  V30 744 C 72.5278 -1.94121 -0.0553751 0
M  V30 745 O 71.8028 -1.65763 -1.01749 0
M  V30 746 C 72.0858 -2.76003 2.31288 0
M  V30 747 C 71.9388 -2.39047 3.8102 0
M  V30 748 C 73.2578 -3.78046 2.2532 0
M  V30 749 H 70.3768 -0.547972 0.492844 0
M  V30 750 H 73.0188 -0.857628 1.69543 0
M  V30 751 H 71.1688 -3.31716 2.02229 0
M  V30 752 H 72.8408 -1.89074 4.20771 0
M  V30 753 H 71.0838 -1.71449 3.98482 0
M  V30 754 H 71.7548 -3.28462 4.4364 0
M  V30 755 H 74.2308 -3.31884 2.50983 0
M  V30 756 H 73.1068 -4.63159 2.94576 0
M  V30 757 H 73.3678 -4.23957 1.25352 0
M  V30 758 N 72.4269 -1.23603 -0.977757 0
M  V30 759 C 73.6749 -1.06759 -1.71601 0
M  V30 760 C 73.9959 0.395929 -1.90938 0
M  V30 761 O 73.2659 1.28356 -1.47992 0
M  V30 762 H 71.8459 -0.392062 -0.635843 0
M  V30 763 H 74.5079 -1.55362 -1.1768 0
M  V30 764 H 73.6039 -1.55763 -2.70452 0
M  V30 765 N 73.905 1.17692 -1.04816 0
M  V30 766 C 74.852 2.21581 -0.645797 0
M  V30 767 C 75.822 1.62367 0.350159 0
M  V30 768 O 77.007 1.89254 0.242433 0
M  V30 769 C 74.147 3.45092 -0.0227568 0
M  V30 770 C 73.26 4.18613 -1.06709 0
M  V30 771 C 72.395 5.29602 -0.411767 0
M  V30 772 C 71.434 5.94904 -1.44067 0
M  V30 773 N 70.571 6.97414 -0.809781 0
M  V30 774 H 75.411 2.55353 -1.5362 0
M  V30 775 H 72.948 1.25438 -0.768364 0
M  V30 776 H 74.906 4.15679 0.35588 0
M  V30 777 H 73.536 3.11917 0.831122 0
M  V30 778 H 72.588 3.46779 -1.5636 0
M  V30 779 H 73.9 4.63293 -1.84827 0
M  V30 780 H 73.054 6.06696 0.0206623 0
M  V30 781 H 71.793 4.86045 0.401438 0
M  V30 782 H 70.798 5.16544 -1.88316 0
M  V30 783 H 72.023 6.40542 -2.25571 0
M  V30 784 H 69.969 6.55998 -0.0170186 0
M  V30 785 H 69.886 7.40386 -1.52856 0
M  V30 786 H 71.154 7.78463 -0.401999 0
M  V30 787 N 75.3831 0.828654 1.34056 0
M  V30 788 C 76.3301 0.252567 2.29414 0
M  V30 789 C 77.3001 -0.62588 1.53857 0
M  V30 790 O 78.4851 -0.566312 1.82202 0
M  V30 791 C 75.6251 -0.574831 3.40279 0
M  V30 792 C 74.7381 0.326499 4.30764 0
M  V30 793 C 73.8731 -0.511016 5.28736 0
M  V30 794 C 72.9121 0.389342 6.1086 0
M  V30 795 N 72.0491 -0.409439 7.00905 0
M  V30 796 H 76.8891 1.07108 2.78086 0
M  V30 797 H 74.4261 0.539677 1.36843 0
M  V30 798 H 76.3841 -1.06992 4.03248 0
M  V30 799 H 75.0141 -1.35841 2.92826 0
M  V30 800 H 74.0661 0.939837 3.68607 0
M  V30 801 H 75.3781 1.01857 4.88289 0
M  V30 802 H 74.5321 -1.07035 5.97184 0
M  V30 803 H 73.2711 -1.23657 4.71763 0
M  V30 804 H 72.2761 0.960769 5.4134 0
M  V30 805 H 73.5011 1.1131 6.69916 0
M  V30 806 H 71.4471 -1.11856 6.46393 0
M  V30 807 H 71.3641 0.224126 7.55668 0
M  V30 808 H 72.6321 -0.951336 7.73673 0
M  V30 809 N 76.8612 -1.46375 0.584142 0
M  V30 810 C 78.1082 -2.02378 0.0702675 0
M  V30 811 C 78.4362 -1.45545 -1.29023 0
M  V30 812 O 77.6912 -0.610967 -1.85918 0
M  V30 813 C 77.9902 -3.57373 -0.0439342 0
M  V30 814 C 77.6562 -4.33252 1.24915 0
M  V30 815 C 76.3182 -4.53701 1.60341 0
M  V30 816 C 78.6702 -4.7681 2.1048 0
M  V30 817 C 75.9982 -5.1496 2.81128 0
M  V30 818 C 78.3502 -5.39404 3.30494 0
M  V30 819 C 77.0142 -5.5808 3.66201 0
M  V30 820 H 76.2842 -0.740554 0.0257127 0
M  V30 821 H 78.9312 -1.75727 0.761065 0
M  V30 822 H 77.2362 -3.83169 -0.817869 0
M  V30 823 H 78.9332 -3.98384 -0.457318 0
M  V30 824 H 75.5232 -4.17633 0.963364 0
M  V30 825 H 79.7072 -4.60766 1.84414 0
M  V30 826 H 74.9632 -5.27611 3.08928 0
M  V30 827 H 79.1372 -5.72114 3.97063 0
M  V30 828 H 76.7642 -6.05318 4.59885 0
M  V30 829 N 78.3393 -0.321999 -1.54275 0
M  V30 830 C 79.2493 0.553631 -2.27974 0
M  V30 831 C 80.2653 1.13054 -1.32268 0
M  V30 832 O 81.4413 1.15084 -1.6528 0
M  V30 833 C 78.5063 1.69927 -3.02201 0
M  V30 834 C 77.5673 1.15433 -4.1349 0
M  V30 835 C 76.8003 2.24537 -4.84168 0
M  V30 836 O 77.0233 3.44852 -4.5435 0
M  V30 837 O 75.9573 1.90044 -5.7111 0
M  V30 838 H 79.7833 -0.0448345 -3.03667 0
M  V30 839 H 77.3683 -0.0877418 -1.49142 0
M  V30 840 H 79.2503 2.3663 -3.48689 0
M  V30 841 H 77.9253 2.28395 -2.29385 0
M  V30 842 H 76.8323 0.452436 -3.71354 0
M  V30 843 H 78.1653 0.614805 -4.88345 0
M  V30 844 N 79.8174 1.5752 -0.0501392 0
M  V30 845 C 80.7644 2.1147 0.924603 0
M  V30 846 C 81.7344 1.02182 1.30951 0
M  V30 847 O 82.9194 1.29723 1.39916 0
M  V30 848 C 80.0594 2.66337 2.19451 0
M  V30 849 C 79.1724 3.89708 1.86418 0
M  V30 850 C 78.3074 4.32893 3.07859 0
M  V30 851 C 77.3464 5.48967 2.70742 0
M  V30 852 N 76.4834 5.87211 3.84874 0
M  V30 853 H 81.3234 2.94465 0.457639 0
M  V30 854 H 78.8604 1.45531 0.214266 0
M  V30 855 H 80.8184 2.96247 2.93758 0
M  V30 856 H 79.4484 1.86141 2.63726 0
M  V30 857 H 78.5004 3.66396 1.02264 0
M  V30 858 H 79.8124 4.74074 1.55096 0
M  V30 859 H 78.9664 4.6435 3.90466 0
M  V30 860 H 77.7054 3.47336 3.42358 0
M  V30 861 H 76.7104 5.17183 1.86551 0
M  V30 862 H 77.9354 6.3624 2.37436 0
M  V30 863 H 75.8814 5.04607 4.19175 0
M  V30 864 H 75.7984 6.66266 3.57247 0
M  V30 865 H 77.0664 6.23282 4.68123 0
M  V30 866 N 81.2955 -0.223234 1.56011 0
M  V30 867 C 82.5725 -0.972108 1.69733 0
M  V30 868 C 82.9525 -2.02485 0.59691 0
M  V30 869 O 82.3005 -2.25037 -0.396324 0
M  V30 870 C 82.5105 -1.58407 3.10979 0
M  V30 871 C 83.8585 -2.07696 3.70334 0
M  V30 872 O 84.8825 -1.68304 3.1393 0
M  V30 873 O 83.7415 -2.80096 4.69264 0
M  V30 874 H 80.8355 -0.453993 0.691245 0
M  V30 875 H 83.3815 -0.215149 1.68331 0
M  V30 876 H 82.1535 -0.823831 3.82529 0
M  V30 877 H 81.7765 -2.40661 3.16493 0
M  V30 878 N 82.7736 -1.49793 -0.48987 0
M  V30 879 C 84.0016 -1.63568 -1.26701 0
M  V30 880 C 84.4166 -0.311465 -1.86213 0
M  V30 881 O 83.7736 0.704416 -1.68357 0
M  V30 882 C 83.8246 -2.71284 -2.38929 0
M  V30 883 O 83.5456 -3.9857 -1.81861 0
M  V30 884 C 85.0466 -2.95864 -3.3012 0
M  V30 885 H 82.2666 -0.550342 -0.383881 0
M  V30 886 H 84.8106 -1.95898 -0.586864 0
M  V30 887 H 82.9656 -2.417 -3.02753 0
M  V30 888 H 83.3796 -4.57993 -2.55622 0
M  V30 889 H 84.8536 -3.74941 -4.05121 0
M  V30 890 H 85.3306 -2.06206 -3.87783 0
M  V30 891 H 85.9366 -3.26907 -2.72051 0
M  V30 892 N 84.2517 0.741722 -1.39055 0
M  V30 893 C 85.4997 1.49818 -1.35643 0
M  V30 894 C 85.8207 1.94938 0.0491642 0
M  V30 895 O 85.0907 1.68505 0.999141 0
M  V30 896 H 83.6707 0.555755 -0.499144 0
M  V30 897 H 86.3327 0.880957 -1.73854 0
M  V30 898 H 85.4287 2.38348 -2.01486 0
M  V30 899 N 85.7298 1.2412 0.971189 0
M  V30 900 C 86.9788 1.07284 1.70801 0
M  V30 901 C 87.2918 -0.388902 1.91695 0
M  V30 902 O 88.4978 -0.677379 2.62914 0
M  V30 903 C 86.9538 1.87145 3.07416 0
M  V30 904 C 86.5618 3.37707 2.94377 0
M  V30 905 C 88.3058 1.78828 3.84995 0
M  V30 906 C 86.2128 4.09925 4.26281 0
M  V30 907 H 85.1428 0.397854 0.64049 0
M  V30 908 H 87.7938 1.4817 1.0825 0
M  V30 909 H 86.1758 1.39071 3.70777 0
M  V30 910 H 87.3498 3.93335 2.4005 0
M  V30 911 H 85.6648 3.46938 2.30267 0
M  V30 912 H 88.2618 2.30089 4.82662 0
M  V30 913 H 88.6048 0.75284 4.09436 0
M  V30 914 H 89.1378 2.24563 3.28354 0
M  V30 915 H 85.8768 5.13813 4.07033 0
M  V30 916 H 85.3968 3.59083 4.80437 0
M  V30 917 H 87.0758 4.1673 4.94919 0
M  V30 918 N 87.2079 -1.17134 1.05439 0
M  V30 919 C 88.1549 -2.21235 0.657539 0
M  V30 920 C 89.1249 -1.62551 -0.341543 0
M  V30 921 O 90.3099 -1.89379 -0.232393 0
M  V30 922 C 87.4499 -3.45076 0.0410575 0
M  V30 923 C 86.5629 -4.18042 1.08927 0
M  V30 924 C 85.6979 -5.29376 0.439848 0
M  V30 925 C 84.7369 -5.94132 1.4722 0
M  V30 926 N 83.8739 -6.96975 0.846756 0
M  V30 927 H 88.7139 -2.54534 1.54972 0
M  V30 928 H 86.2509 -1.25028 0.775006 0
M  V30 929 H 88.2089 -4.15862 -0.33383 0
M  V30 930 H 86.8389 -3.12353 -0.814568 0
M  V30 931 H 85.8909 -3.45945 1.58196 0
M  V30 932 H 87.2029 -4.62306 1.87282 0
M  V30 933 H 86.3569 -6.06699 0.0115125 0
M  V30 934 H 85.0959 -4.86251 -0.375656 0
M  V30 935 H 84.1009 -5.15538 1.91052 0
M  V30 936 H 85.3259 -6.39337 2.28965 0
M  V30 937 H 83.2719 -6.5598 0.0518075 0
M  V30 938 H 83.1889 -7.39565 1.5678 0
M  V30 939 H 84.4569 -7.78239 0.443277 0
M  V30 940 N 88.686 -0.835752 -1.33615 0
M  V30 941 C 89.932 -0.430596 -1.98176 0
M  V30 942 C 90.265 1.00684 -1.66061 0
M  V30 943 O 89.54 1.70339 -0.938877 0
M  V30 944 C 89.823 -0.648065 -3.5422 0
M  V30 945 C 89.676 -2.13255 -3.96033 0
M  V30 946 C 90.995 -0.0922113 -4.40003 0
M  V30 947 H 88.114 -0.157924 -0.719881 0
M  V30 948 H 90.756 -1.05069 -1.58305 0
M  V30 949 H 88.906 -0.120237 -3.88314 0
M  V30 950 H 90.578 -2.725 -3.72211 0
M  V30 951 H 88.821 -2.61823 -3.45878 0
M  V30 952 H 89.492 -2.23547 -5.04708 0
M  V30 953 H 91.968 -0.543343 -4.12537 0
M  V30 954 H 90.844 -0.274083 -5.48215 0
M  V30 955 H 91.105 1.00378 -4.30554 0
M  V30 956 N 90.1641 1.46063 -0.591896 0
M  V30 957 C 91.3921 2.06717 -0.0868936 0
M  V30 958 C 91.8071 1.43916 1.22203 0
M  V30 959 O 91.1641 0.547698 1.74088 0
M  V30 960 C 91.2151 3.6142 0.0758725 0
M  V30 961 O 90.9361 4.21874 -1.18126 0
M  V30 962 C 92.4371 4.39025 0.61416 0
M  V30 963 H 89.6571 0.668162 -0.0616518 0
M  V30 964 H 92.2011 1.8755 -0.815175 0
M  V30 965 H 90.3561 3.79983 0.754413 0
M  V30 966 H 90.7701 5.14861 -1.00092 0
M  V30 967 H 92.2441 5.4783 0.677193 0
M  V30 968 H 92.7211 4.07708 1.63312 0
M  V30 969 H 93.3271 4.2529 -0.0298142 0
M  V30 970 N 91.6422 0.330177 1.54103 0
M  V30 971 C 92.8882 -0.270806 2.00984 0
M  V30 972 C 93.2212 -1.51265 1.21789 0
M  V30 973 O 92.4962 -1.92142 0.301927 0
M  V30 974 C 92.7792 -0.598339 3.55094 0
M  V30 975 C 92.6322 0.654674 4.4501 0
M  V30 976 C 93.9512 -1.41334 4.16789 0
M  V30 977 H 91.0702 -0.0969531 0.730595 0
M  V30 978 H 93.7122 0.448066 1.84641 0
M  V30 979 H 91.8622 -1.21078 3.69151 0
M  V30 980 H 93.5342 1.29285 4.42813 0
M  V30 981 H 91.7772 1.28224 4.14416 0
M  V30 982 H 92.4482 0.380944 5.50684 0
M  V30 983 H 94.9242 -0.895597 4.06347 0
M  V30 984 H 93.8002 -1.61127 5.24718 0
M  V30 985 H 94.0612 -2.41146 3.70541 0
M  V30 986 N 93.1203 -1.57491 0.0584922 0
M  V30 987 C 94.0303 -2.15448 -0.928414 0
M  V30 988 C 95.0463 -1.11416 -1.3365 0
M  V30 989 O 96.2223 -1.4362 -1.41193 0
M  V30 990 C 93.2873 -2.69393 -2.18239 0
M  V30 991 C 92.3483 -3.88249 -1.83196 0
M  V30 992 C 91.5813 -4.39613 -3.02616 0
M  V30 993 O 91.8043 -3.90023 -4.16219 0
M  V30 994 O 90.7383 -5.31111 -2.83204 0
M  V30 995 H 94.5643 -3.00112 -0.465483 0
M  V30 996 H 92.1493 -1.48499 -0.163826 0
M  V30 997 H 94.0313 -3.04026 -2.91798 0
M  V30 998 H 92.7063 -1.87796 -2.63656 0
M  V30 999 H 91.6133 -3.58492 -1.06931 0
M  V30 1000 H 92.9463 -4.71098 -1.42573 0
M  V30 1001 N 94.5984 0.214957 -1.56127 0
M  V30 1002 C 95.5484 1.27006 -1.8935 0
M  V30 1003 C 96.5324 1.41969 -0.757202 0
M  V30 1004 O 97.7244 1.44673 -1.01973 0
M  V30 1005 C 94.8534 2.61911 -2.2194 0
M  V30 1006 C 93.9394 2.50822 -3.41978 0
M  V30 1007 N 94.3304 2.09391 -4.60423 0
M  V30 1008 C 92.6284 2.81765 -3.45723 0
M  V30 1009 C 93.3294 2.09712 -5.42582 0
M  V30 1010 N 92.3054 2.50454 -4.82466 0
M  V30 1011 H 96.1074 0.940734 -2.78437 0
M  V30 1012 H 93.6214 0.423492 -1.56781 0
M  V30 1013 H 95.6184 3.38096 -2.43919 0
M  V30 1014 H 94.2784 2.95684 -1.34169 0
M  V30 1015 H 95.2894 1.80416 -4.85459 0
M  V30 1016 H 91.9664 3.19865 -2.68314 0
M  V30 1017 H 93.3564 1.79748 -6.4741 0
M  V30 1018 N 96.0765 1.50051 0.48192 0
M  V30 1019 C 97.4875 1.5348 1.06305 0
M  V30 1020 C 97.8385 0.331997 1.93371 0
M  V30 1021 O 96.9635 -0.556256 2.09129 0
M  V30 1022 C 97.5585 2.7813 1.93466 0
M  V30 1023 C 96.1175 2.84275 2.46707 0
M  V30 1024 C 95.2645 2.47637 1.24785 0
M  V30 1025 H 98.2155 1.56472 0.264995 0
M  V30 1026 H 98.2365 2.59372 2.78399 0
M  V30 1027 H 97.7485 3.65654 1.30072 0
M  V30 1028 H 95.8495 2.01077 3.13686 0
M  V30 1029 H 95.9625 3.8691 2.82555 0
M  V30 1030 H 94.3265 1.99835 1.57918 0
M  V30 1031 H 95.1095 3.37457 0.630694 0
M  V30 1032 N 97.5546 -0.734337 1.39446 0
M  V30 1033 C 98.8316 -1.48579 1.27215 0
M  V30 1034 C 99.2116 -2.1077 -0.117968 0
M  V30 1035 O 98.5596 -1.98646 -1.12924 0
M  V30 1036 C 98.7696 -2.53667 2.39696 0
M  V30 1037 C 100.118 -3.20031 2.79044 0
M  V30 1038 O 101.142 -2.6398 2.39151 0
M  V30 1039 O 100.001 -4.21455 3.47905 0
M  V30 1040 H 97.0946 -0.659816 0.49857 0
M  V30 1041 H 99.6406 -0.768106 1.51322 0
M  V30 1042 H 98.4126 -2.06096 3.32626 0
M  V30 1043 H 98.0356 -3.32994 2.17258 0
M  V30 1044 N 99.0327 -1.24633 -0.964593 0
M  V30 1045 C 99.9797 -1.04144 -2.05968 0
M  V30 1046 C 100.95 0.046262 -1.66036 0
M  V30 1047 O 102.135 -0.108972 -1.90489 0
M  V30 1048 C 99.2747 -0.65563 -3.38815 0
M  V30 1049 C 98.3877 -1.81714 -3.91923 0
M  V30 1050 C 97.5227 -1.37662 -5.13052 0
M  V30 1051 C 96.5617 -2.50788 -5.58365 0
M  V30 1052 N 95.6987 -2.07582 -6.70712 0
M  V30 1053 H 100.539 -1.9787 -2.22827 0
M  V30 1054 H 98.0757 -0.9855 -1.09208 0
M  V30 1055 H 100.034 -0.412954 -4.15151 0
M  V30 1056 H 98.6637 0.244627 -3.21872 0
M  V30 1057 H 97.7157 -2.1734 -3.12198 0
M  V30 1058 H 99.0277 -2.66705 -4.21509 0
M  V30 1059 H 98.1817 -1.093 -5.96773 0
M  V30 1060 H 96.9207 -0.497293 -4.85158 0
M  V30 1061 H 95.9257 -2.79906 -4.73215 0
M  V30 1062 H 97.1507 -3.39283 -5.88272 0
M  V30 1063 H 95.0967 -1.22051 -6.44546 0
M  V30 1064 H 95.0137 -2.86125 -6.99763 0
M  V30 1065 H 96.2817 -1.82369 -7.57867 0
M  V30 1066 N 100.511 1.16574 -1.06058 0
M  V30 1067 C 101.441 2.23057 -0.690488 0
M  V30 1068 C 102.422 1.67141 0.315901 0
M  V30 1069 O 103.607 1.93253 0.191556 0
M  V30 1070 C 100.737 3.47222 -0.073625 0
M  V30 1071 C 99.6908 4.16016 -1.00573 0
M  V30 1072 C 99.0168 5.34104 -0.252289 0
M  V30 1073 C 100.317 4.67264 -2.33371 0
M  V30 1074 H 102.011 2.54271 -1.58072 0
M  V30 1075 H 99.5568 1.22218 -0.76149 0
M  V30 1076 H 101.51 4.20939 0.19714 0
M  V30 1077 H 100.234 3.15302 0.85161 0
M  V30 1078 H 98.8928 3.44223 -1.2612 0
M  V30 1079 H 98.5408 4.98437 0.675988 0
M  V30 1080 H 98.2408 5.81072 -0.873455 0
M  V30 1081 H 99.7648 6.10599 0.0109857 0
M  V30 1082 H 101.179 5.32573 -2.12223 0
M  V30 1083 H 99.5758 5.24843 -2.90963 0
M  V30 1084 H 100.646 3.83602 -2.96611 0
M  V30 1085 N 101.989 0.842826 1.3317 0
M  V30 1086 C 102.899 0.281444 2.32906 0
M  V30 1087 C 103.915 -0.594587 1.63526 0
M  V30 1088 O 105.091 -0.49777 1.95152 0
M  V30 1089 C 102.156 -0.530929 3.42611 0
M  V30 1090 C 101.217 0.369843 4.27704 0
M  V30 1091 C 100.45 -0.403853 5.3217 0
M  V30 1092 O 100.673 -1.63513 5.46461 0
M  V30 1093 O 99.6069 0.224199 6.01482 0
M  V30 1094 H 103.433 1.10744 2.82789 0
M  V30 1095 H 101.018 0.60545 1.36582 0
M  V30 1096 H 102.9 -0.992437 4.09547 0
M  V30 1097 H 101.575 -1.33392 2.94938 0
M  V30 1098 H 100.482 0.879275 3.6362 0
M  V30 1099 H 101.815 1.13771 4.78871 0
M  V30 1100 N 103.467 -1.45747 0.599634 0
M  V30 1101 C 104.377 -2.34262 -0.125888 0
M  V30 1102 C 105.393 -1.50768 -0.868625 0
M  V30 1103 O 106.569 -1.83592 -0.828003 0
M  V30 1104 C 103.634 -3.28252 -1.11587 0
M  V30 1105 C 102.695 -4.27651 -0.375956 0
M  V30 1106 C 101.928 -5.1715 -1.31877 0
M  V30 1107 O 102.151 -5.09916 -2.55621 0
M  V30 1108 O 101.085 -5.96286 -0.820157 0
M  V30 1109 H 104.911 -2.97688 0.601315 0
M  V30 1110 H 102.496 -1.44999 0.359934 0
M  V30 1111 H 104.378 -3.86191 -1.68626 0
M  V30 1112 H 103.053 -2.67401 -1.82424 0
M  V30 1113 H 101.96 -3.7335 0.236698 0
M  V30 1114 H 103.293 -4.91334 0.29177 0
M  V30 1115 N 104.945 -0.338344 -1.53925 0
M  V30 1116 C 105.892 0.520845 -2.24846 0
M  V30 1117 C 106.862 1.09976 -1.24477 0
M  V30 1118 O 108.047 1.13735 -1.53196 0
M  V30 1119 C 105.187 1.6685 -3.02084 0
M  V30 1120 C 104.3 1.11739 -4.17299 0
M  V30 1121 C 103.435 2.23193 -4.82036 0
M  V30 1122 C 102.474 1.65407 -5.89328 0
M  V30 1123 N 101.611 2.70582 -6.47866 0
M  V30 1124 H 106.451 -0.0904881 -2.97863 0
M  V30 1125 H 103.988 -0.0564282 -1.46992 0
M  V30 1126 H 105.946 2.34407 -3.45122 0
M  V30 1127 H 104.576 2.2509 -2.31375 0
M  V30 1128 H 103.628 0.332919 -3.7894 0
M  V30 1129 H 104.94 0.654677 -4.94485 0
M  V30 1130 H 104.094 2.98626 -5.28117 0
M  V30 1131 H 102.833 2.72807 -4.04262 0
M  V30 1132 H 101.838 0.884779 -5.42634 0
M  V30 1133 H 103.063 1.16652 -6.69006 0
M  V30 1134 H 101.009 3.1946 -5.72959 0
M  V30 1135 H 100.926 2.28917 -7.20509 0
M  V30 1136 H 102.194 3.45799 -6.98601 0
M  V30 1137 N 106.423 1.57458 -0.0668435 0
M  V30 1138 C 107.67 1.93301 0.603406 0
M  V30 1139 C 107.998 0.946486 1.69917 0
M  V30 1140 O 107.253 -0.0387021 1.95662 0
M  V30 1141 C 107.552 3.35784 1.22409 0
M  V30 1142 C 107.218 4.50179 0.254955 0
M  V30 1143 C 105.88 4.81199 -0.0116746 0
M  V30 1144 C 108.232 5.19598 -0.408338 0
M  V30 1145 C 105.56 5.78978 -0.94877 0
M  V30 1146 C 107.912 6.18381 -1.33372 0
M  V30 1147 C 106.576 6.47821 -1.60887 0
M  V30 1148 H 105.846 0.707338 0.220802 0
M  V30 1149 H 108.493 1.91012 -0.136665 0
M  V30 1150 H 106.798 3.34515 2.03978 0
M  V30 1151 H 108.495 3.60804 1.74989 0
M  V30 1152 H 105.085 4.25983 0.472954 0
M  V30 1153 H 109.269 4.95832 -0.215456 0
M  V30 1154 H 104.525 6.00115 -1.16925 0
M  V30 1155 H 108.699 6.71277 -1.85367 0
M  V30 1156 H 106.326 7.23399 -2.33661 0
M  V30 1157 N 107.901 -0.206675 1.56239 0
M  V30 1158 C 109.312 -0.772383 1.69974 0
M  V30 1159 C 109.663 -1.84353 0.671436 0
M  V30 1160 O 108.788 -2.15695 -0.174491 0
M  V30 1161 C 109.383 -1.40779 3.08167 0
M  V30 1162 C 107.942 -1.92072 3.23706 0
M  V30 1163 C 107.089 -0.786347 2.65917 0
M  V30 1164 H 110.04 0.0182223 1.5869 0
M  V30 1165 H 110.061 -2.27696 3.04852 0
M  V30 1166 H 109.573 -0.627958 3.82986 0
M  V30 1167 H 107.674 -2.7281 2.53782 0
M  V30 1168 H 107.787 -2.09046 4.31087 0
M  V30 1169 H 106.151 -1.1976 2.24788 0
M  V30 1170 H 106.934 -0.0189416 3.43295 0
M  V30 1171 N 109.379 -1.50304 -0.473955 0
M  V30 1172 C 110.311 -1.65109 -1.58971 0
M  V30 1173 C 111.324 -0.532676 -1.53839 0
M  V30 1174 O 112.513 -0.805751 -1.59279 0
M  V30 1175 C 109.613 -1.61684 -2.97845 0
M  V30 1176 C 108.786 -2.8951 -3.27876 0
M  V30 1177 C 107.845 -2.78768 -4.4629 0
M  V30 1178 O 106.871 -3.52722 -4.46739 0
M  V30 1179 N 108.073 -1.9213 -5.47783 0
M  V30 1180 H 110.838 -2.61347 -1.46689 0
M  V30 1181 H 108.399 -1.47732 -0.662324 0
M  V30 1182 H 110.391 -1.52114 -3.75024 0
M  V30 1183 H 108.961 -0.731925 -3.03911 0
M  V30 1184 H 108.181 -3.13228 -2.39336 0
M  V30 1185 H 109.469 -3.74199 -3.4475 0
M  V30 1186 H 108.867 -1.31353 -5.50239 0
M  V30 1187 H 107.424 -1.88466 -6.23958 0
M  V30 1188 N 110.857 0.726932 -1.39834 0
M  V30 1189 C 112.103 1.48884 -1.377 0
M  V30 1190 C 112.436 1.94185 0.0244852 0
M  V30 1191 O 111.711 1.67361 0.990986 0
M  V30 1192 C 111.994 2.72288 -2.3565 0
M  V30 1193 C 111.847 2.32956 -3.84775 0
M  V30 1194 C 113.166 3.74414 -2.31306 0
M  V30 1195 H 110.285 0.540062 -0.5015 0
M  V30 1196 H 112.927 0.830547 -1.70886 0
M  V30 1197 H 111.077 3.28457 -2.07481 0
M  V30 1198 H 112.749 1.82356 -4.23726 0
M  V30 1199 H 110.992 1.65088 -4.01159 0
M  V30 1200 H 111.663 3.21362 -4.4881 0
M  V30 1201 H 114.139 3.27849 -2.56231 0
M  V30 1202 H 113.015 4.58414 -3.01907 0
M  V30 1203 H 113.276 4.21909 -1.32081 0
M  V30 1204 N 112.336 1.25143 0.95797 0
M  V30 1205 C 113.299 1.05321 2.03569 0
M  V30 1206 C 114.299 0.007152 1.60798 0
M  V30 1207 O 115.489 0.24903 1.72411 0
M  V30 1208 C 112.621 0.598394 3.35607 0
M  V30 1209 H 113.814 2.00986 2.22586 0
M  V30 1210 H 111.367 1.07502 1.13459 0
M  V30 1211 H 112.102 -0.361014 3.22284 0
M  V30 1212 H 111.887 1.35351 3.67998 0
M  V30 1213 H 113.377 0.48104 4.1482 0
M  V30 1214 N 113.814 -1.1601 1.06675 0
M  V30 1215 C 114.777 -2.18724 0.685001 0
M  V30 1216 C 115.777 -1.58496 -0.271246 0
M  V30 1217 O 116.967 -1.74119 -0.0531156 0
M  V30 1218 C 114.099 -3.40899 0.00853648 0
M  V30 1219 H 115.292 -2.54011 1.59431 0
M  V30 1220 H 112.845 -1.30352 0.862441 0
M  V30 1221 H 113.58 -3.11173 -0.913337 0
M  V30 1222 H 113.365 -3.8587 0.696204 0
M  V30 1223 H 114.855 -4.16886 -0.24414 0
M  V30 1224 N 115.292 -0.849877 -1.32721 0
M  V30 1225 C 116.52 -0.464754 -2.01613 0
M  V30 1226 C 116.935 0.937191 -1.63897 0
M  V30 1227 O 116.292 1.61081 -0.857856 0
M  V30 1228 C 116.343 -0.588638 -3.56675 0
M  V30 1229 O 116.064 -1.93535 -3.93034 0
M  V30 1230 C 117.565 -0.2019 -4.4284 0
M  V30 1231 H 114.785 -0.183215 -0.645502 0
M  V30 1232 H 117.329 -1.1455 -1.69407 0
M  V30 1233 H 115.484 0.0443159 -3.87375 0
M  V30 1234 H 115.898 -1.92871 -4.87751 0
M  V30 1235 H 117.372 -0.339599 -5.50954 0
M  V30 1236 H 117.849 0.857224 -4.30753 0
M  V30 1237 H 118.455 -0.809733 -4.17521 0
M  V30 1238 N 116.77 1.45427 -0.607355 0
M  V30 1239 C 118.018 2.01841 -0.102253 0
M  V30 1240 C 118.339 1.47832 1.27164 0
M  V30 1241 O 117.609 0.672497 1.83995 0
M  V30 1242 H 116.189 0.746188 -0.0348101 0
M  V30 1243 H 118.851 1.78229 -0.7887 0
M  V30 1244 H 117.947 3.12057 -0.0518585 0
M  V30 1245 N 118.248 0.346503 1.53744 0
M  V30 1246 C 119.525 -0.304532 1.93215 0
M  V30 1247 C 119.905 -1.67993 1.27834 0
M  V30 1248 O 119.253 -2.24411 0.430352 0
M  V30 1249 C 119.463 -0.373852 3.46992 0
M  V30 1250 C 120.811 -0.62329 4.2 0
M  V30 1251 O 121.835 -0.455847 3.53271 0
M  V30 1252 O 120.694 -0.947879 5.38217 0
M  V30 1253 H 117.788 -0.178318 0.807547 0
M  V30 1254 H 120.334 0.397895 1.64969 0
M  V30 1255 H 119.106 0.591224 3.86808 0
M  V30 1256 H 118.729 -1.12294 3.81413 0
M  V30 1257 N 119.726 -1.57421 0.075193 0
M  V30 1258 C 120.974 -1.93236 -0.591974 0
M  V30 1259 C 121.295 -0.956241 -1.69944 0
M  V30 1260 O 120.565 -0.00494792 -1.95899 0
M  V30 1261 H 119.145 -0.713355 -0.22166 0
M  V30 1262 H 121.807 -1.9444 0.133848 0
M  V30 1263 H 120.903 -2.95131 -1.01509 0
M  V30 1264 N 121.204 0.198386 -1.56346 0
M  V30 1265 C 122.615 0.763358 -1.70381 0
M  V30 1266 C 122.966 1.83995 -0.681203 0
M  V30 1267 O 122.091 2.15785 0.16305 0
M  V30 1268 C 122.686 1.39143 -3.08909 0
M  V30 1269 C 121.245 1.90352 -3.2472 0
M  V30 1270 C 120.392 0.772233 -2.6633 0
M  V30 1271 H 123.343 -0.0266377 -1.58678 0
M  V30 1272 H 123.364 2.26076 -3.06055 0
M  V30 1273 H 122.876 0.607638 -3.83314 0
M  V30 1274 H 120.977 2.71461 -2.55225 0
M  V30 1275 H 121.09 2.06757 -4.3219 0
M  V30 1276 H 119.454 1.18566 -2.2542 0
M  V30 1277 H 120.237 0.00073556 -3.433 0
M  V30 1278 N 122.682 1.50554 0.465978 0
M  V30 1279 C 123.959 1.5232 1.22712 0
M  V30 1280 C 124.339 0.270807 2.09356 0
M  V30 1281 O 123.687 -0.745541 2.15995 0
M  V30 1282 C 123.897 2.82175 2.05374 0
M  V30 1283 C 125.245 3.33033 2.6339 0
M  V30 1284 O 126.269 2.83531 2.15612 0
M  V30 1285 O 125.128 4.19336 3.50456 0
M  V30 1286 H 122.222 0.611183 0.557122 0
M  V30 1287 H 124.768 1.62847 0.477381 0
M  V30 1288 H 123.54 3.64797 1.41558 0
M  V30 1289 H 123.163 2.74675 2.87471 0
M  V30 1290 N 124.16 -0.719506 1.40217 0
M  V30 1291 C 125.409 -1.47486 1.37589 0
M  V30 1292 C 125.722 -1.9559 -0.0201568 0
M  V30 1293 O 126.928 -2.70973 -0.169049 0
M  V30 1294 C 125.384 -2.66575 2.41796 0
M  V30 1295 C 124.992 -2.25358 3.87192 0
M  V30 1296 C 126.736 -3.4433 2.48269 0
M  V30 1297 C 124.643 -3.41262 4.83005 0
M  V30 1298 H 123.573 -0.553901 0.511576 0
M  V30 1299 H 126.224 -0.783427 1.65936 0
M  V30 1300 H 124.606 -3.3787 2.06543 0
M  V30 1301 H 125.78 -1.61509 4.31569 0
M  V30 1302 H 124.095 -1.60657 3.84159 0
M  V30 1303 H 126.692 -4.30569 3.17041 0
M  V30 1304 H 127.035 -3.87872 1.51198 0
M  V30 1305 H 127.568 -2.80076 2.82493 0
M  V30 1306 H 124.307 -3.02755 5.81394 0
M  V30 1307 H 123.827 -4.0404 4.43297 0
M  V30 1308 H 125.506 -4.07383 5.02641 0
M  V30 1309 N 125.638 -1.25649 -0.95132 0
M  V30 1310 C 126.887 -1.09988 -1.69073 0
M  V30 1311 C 127.2 0.358355 -1.92289 0
M  V30 1312 O 128.406 0.635466 -2.63958 0
M  V30 1313 C 126.862 -1.92012 -3.044 0
M  V30 1314 C 126.47 -3.42347 -2.88968 0
M  V30 1315 C 128.214 -1.8493 -3.82101 0
M  V30 1316 C 126.121 -4.16655 -4.19705 0
M  V30 1317 H 125.051 -0.407993 -0.63408 0
M  V30 1318 H 127.702 -1.49873 -1.05879 0
M  V30 1319 H 126.084 -1.44952 -3.68517 0
M  V30 1320 H 127.258 -3.97104 -2.33762 0
M  V30 1321 H 125.573 -3.50557 -2.24719 0
M  V30 1322 H 128.17 -2.37739 -4.78941 0
M  V30 1323 H 128.513 -0.817883 -4.08187 0
M  V30 1324 H 129.046 -2.29758 -3.2474 0
M  V30 1325 H 125.785 -5.20224 -3.98807 0
M  V30 1326 H 125.305 -3.66681 -4.74663 0
M  V30 1327 H 126.984 -4.24551 -4.88227 0
M  V30 1328 N 127.117 1.15442 -1.07289 0
M  V30 1329 C 128.364 1.86213 -0.795668 0
M  V30 1330 C 128.692 1.82291 0.678238 0
M  V30 1331 O 127.947 1.24057 1.51355 0
M  V30 1332 C 128.246 3.3489 -1.24834 0
M  V30 1333 C 127.912 3.59007 -2.72809 0
M  V30 1334 C 126.574 3.65298 -3.13227 0
M  V30 1335 C 128.926 3.68762 -3.68326 0
M  V30 1336 C 126.254 3.78854 -4.4798 0
M  V30 1337 C 128.606 3.83842 -5.0284 0
M  V30 1338 C 127.27 3.88378 -5.4288 0
M  V30 1339 H 126.54 0.681403 -0.291155 0
M  V30 1340 H 129.187 1.36435 -1.34379 0
M  V30 1341 H 127.492 3.8687 -0.619595 0
M  V30 1342 H 129.189 3.88052 -1.01076 0
M  V30 1343 H 125.779 3.5475 -2.40521 0
M  V30 1344 H 129.963 3.63202 -3.38227 0
M  V30 1345 H 125.219 3.80623 -4.78472 0
M  V30 1346 H 129.393 3.90332 -5.76727 0
M  V30 1347 H 127.02 3.98635 -6.47298 0
M  V30 1348 N 128.595 0.856903 1.32268 0
M  V30 1349 C 129.841 0.471355 1.97863 0
M  V30 1350 C 130.196 -0.962896 1.66572 0
M  V30 1351 O 129.489 -1.66686 0.944797 0
M  V30 1352 C 129.683 0.649919 3.51441 0
M  V30 1353 C 129.512 2.09997 3.97657 0
M  V30 1354 C 128.282 2.73893 4.2463 0
M  V30 1355 C 130.48 3.07081 4.1256 0
M  V30 1356 N 128.462 4.09786 4.57109 0
M  V30 1357 C 129.833 4.27968 4.48602 0
M  V30 1358 C 131.888 3.03247 3.949 0
M  V30 1359 C 130.591 5.45521 4.68827 0
M  V30 1360 C 132.617 4.20046 4.16311 0
M  V30 1361 C 131.979 5.39692 4.52672 0
M  V30 1362 H 128.078 0.221263 0.750044 0
M  V30 1363 H 130.662 1.10876 1.60045 0
M  V30 1364 H 128.833 0.0421938 3.88377 0
M  V30 1365 H 130.565 0.234044 4.04023 0
M  V30 1366 H 127.32 2.24918 4.16784 0
M  V30 1367 H 127.744 4.7989 4.7753 0
M  V30 1368 H 132.386 2.11863 3.65888 0
M  V30 1369 H 130.104 6.37434 4.96693 0
M  V30 1370 H 133.69 4.18517 4.04147 0
M  V30 1371 H 132.57 6.28566 4.68907 0
M  V30 1372 N 130.073 -1.45103 0.615059 0
M  V30 1373 C 131.036 -2.29025 -0.0895485 0
M  V30 1374 C 132.036 -1.40174 -0.787906 0
M  V30 1375 O 133.226 -1.62217 -0.634933 0
M  V30 1376 C 130.358 -3.21376 -1.13711 0
M  V30 1377 H 131.551 -2.92807 0.648382 0
M  V30 1378 H 129.104 -1.51749 0.374444 0
M  V30 1379 H 129.839 -2.6241 -1.90556 0
M  V30 1380 H 129.624 -3.86834 -0.640475 0
M  V30 1381 H 131.114 -3.84459 -1.63036 0
M  V30 1382 N 131.551 -0.354651 -1.53558 0
M  V30 1383 C 132.501 0.513179 -2.2215 0
M  V30 1384 C 133.485 1.05734 -1.21281 0
M  V30 1385 O 134.677 0.989202 -1.46778 0
M  V30 1386 C 131.806 1.65798 -3.00609 0
M  V30 1387 C 130.892 1.12722 -4.08845 0
M  V30 1388 N 131.283 0.318563 -5.04796 0
M  V30 1389 C 129.581 1.40307 -4.23356 0
M  V30 1390 C 130.282 0.0292224 -5.81693 0
M  V30 1391 N 129.258 0.623891 -5.40008 0
M  V30 1392 H 133.06 -0.111586 -2.93688 0
M  V30 1393 H 130.574 -0.162091 -1.61589 0
M  V30 1394 H 132.571 2.29176 -3.48258 0
M  V30 1395 H 131.231 2.28591 -2.306 0
M  V30 1396 H 132.242 -0.0413091 -5.17884 0
M  V30 1397 H 128.919 2.03458 -3.6457 0
M  V30 1398 H 130.309 -0.623808 -6.68998 0
M  V30 1399 N 133.029 1.57378 -0.0835403 0
M  V30 1400 C 134.306 1.85363 0.624507 0
M  V30 1401 C 134.686 0.978239 1.87066 0
M  V30 1402 O 134.034 0.0475908 2.2845 0
M  V30 1403 C 134.244 3.35795 0.950947 0
M  V30 1404 C 135.592 4.03581 1.31939 0
M  V30 1405 O 136.616 3.40609 1.04232 0
M  V30 1406 O 135.475 5.14672 1.83779 0
M  V30 1407 H 132.569 0.766162 0.311329 0
M  V30 1408 H 135.115 1.69307 -0.115362 0
M  V30 1409 H 133.887 3.91244 0.0663899 0
M  V30 1410 H 133.51 3.57154 1.74719 0
M  V30 1411 N 134.507 -0.190092 1.56449 0
M  V30 1412 C 135.923 -0.54113 1.50146 0
M  V30 1413 C 136.123 -1.85603 0.784465 0
M  V30 1414 O 135.179 -2.5024 0.337051 0
M  V30 1415 C 136.492 -0.591241 2.9483 0
M  V30 1416 C 138.04 -0.679732 3.0553 0
M  V30 1417 C 138.515 -0.760908 4.51635 0
M  V30 1418 N 140.006 -0.824302 4.55806 0
M  V30 1419 C 140.741 -0.907365 5.66175 0
M  V30 1420 N 140.237 -0.952422 6.86222 0
M  V30 1421 N 142.03 -0.94494 5.541 0
M  V30 1422 H 134.181 0.67235 2.01478 0
M  V30 1423 H 136.444 0.240127 0.917084 0
M  V30 1424 H 136.15 0.305905 3.50367 0
M  V30 1425 H 136.024 -1.44422 3.48457 0
M  V30 1426 H 138.411 -1.56731 2.50039 0
M  V30 1427 H 138.492 0.199549 2.5502 0
M  V30 1428 H 138.136 0.122336 5.07753 0
M  V30 1429 H 138.066 -1.65606 4.99882 0
M  V30 1430 H 140.557 -0.798526 3.69367 0
M  V30 1431 H 140.87 -1.01645 7.66086 0
M  V30 1432 H 139.215 -0.921014 6.8887 0
M  V30 1433 H 142.406 -0.906612 4.59236 0
M  V30 1434 H 142.579 -1.00622 6.4014 0
M  V30 1435 N 135.985 -1.50799 -0.457987 0
M  V30 1436 C 137.232 -1.62442 -1.20908 0
M  V30 1437 C 137.56 -0.330865 -1.91665 0
M  V30 1438 O 136.815 0.68401 -1.83357 0
M  V30 1439 C 137.114 -2.76358 -2.2663 0
M  V30 1440 C 136.78 -4.16378 -1.73033 0
M  V30 1441 C 135.442 -4.54473 -1.58138 0
M  V30 1442 C 137.794 -5.03836 -1.33413 0
M  V30 1443 C 135.122 -5.77754 -1.02065 0
M  V30 1444 C 137.474 -6.27676 -0.78778 0
M  V30 1445 C 136.138 -6.64562 -0.625561 0
M  V30 1446 H 135.408 -0.594417 -0.442435 0
M  V30 1447 H 138.055 -1.84772 -0.503136 0
M  V30 1448 H 136.36 -2.48167 -3.03184 0
M  V30 1449 H 138.057 -2.82568 -2.84528 0
M  V30 1450 H 134.647 -3.86331 -1.85598 0
M  V30 1451 H 138.831 -4.75026 -1.4375 0
M  V30 1452 H 134.087 -6.04997 -0.882547 0
M  V30 1453 H 138.261 -6.94797 -0.472177 0
M  V30 1454 H 135.888 -7.59965 -0.188926 0
M  V30 1455 N 137.463 0.71206 -1.40597 0
M  V30 1456 C 138.711 1.46907 -1.38791 0
M  V30 1457 C 139.032 1.94998 0.00780391 0
M  V30 1458 O 138.302 1.70587 0.963174 0
M  V30 1459 H 136.882 0.545043 -0.51082 0
M  V30 1460 H 139.544 0.843882 -1.75683 0
M  V30 1461 H 138.64 2.34021 -2.06496 0
M  V30 1462 N 138.941 1.26152 0.944643 0
M  V30 1463 C 140.189 1.11271 1.6871 0
M  V30 1464 C 140.51 -0.345166 1.91921 0
M  V30 1465 O 139.78 -1.24387 1.51343 0
M  V30 1466 H 138.36 0.408783 0.625224 0
M  V30 1467 H 141.022 1.58427 1.1352 0
M  V30 1468 H 140.118 1.62879 2.66227 0
M  V30 1469 N 140.419 -1.14872 1.07899 0
M  V30 1470 C 141.649 -1.89386 0.825631 0
M  V30 1471 C 142.057 -1.78565 -0.625406 0
M  V30 1472 O 141.4 -1.13918 -1.44113 0
M  V30 1473 C 141.462 -3.40206 1.16191 0
M  V30 1474 C 141.126 -3.74812 2.61467 0
M  V30 1475 C 142.123 -3.75367 3.59716 0
M  V30 1476 C 139.808 -4.0495 2.97189 0
M  V30 1477 C 141.802 -4.05574 4.9172 0
M  V30 1478 C 139.489 -4.34821 4.29388 0
M  V30 1479 C 140.487 -4.35116 5.26463 0
M  V30 1480 O 140.175 -4.64267 6.56286 0
M  V30 1481 H 139.907 -0.606894 0.297751 0
M  V30 1482 H 142.461 -1.46438 1.44031 0
M  V30 1483 H 140.691 -3.8358 0.490214 0
M  V30 1484 H 142.38 -3.96018 0.890193 0
M  V30 1485 H 143.146 -3.52176 3.33462 0
M  V30 1486 H 139.025 -4.03876 2.22273 0
M  V30 1487 H 142.569 -4.05719 5.67484 0
M  V30 1488 H 138.466 -4.5748 4.55392 0
M  V30 1489 H 139.234 -4.82007 6.61522 0
M  V30 1490 N 141.898 -0.863906 -1.31812 0
M  V30 1491 C 142.861 -0.320212 -2.26952 0
M  V30 1492 C 143.861 0.525369 -1.51975 0
M  V30 1493 O 145.051 0.335547 -1.70938 0
M  V30 1494 C 142.183 0.545919 -3.365 0
M  V30 1495 H 143.376 -1.16004 -2.76556 0
M  V30 1496 H 140.929 -0.638995 -1.42641 0
M  V30 1497 H 141.664 1.40718 -2.92179 0
M  V30 1498 H 141.449 -0.0594674 -3.92055 0
M  V30 1499 H 142.939 0.918796 -4.07367 0
M  V30 1500 N 143.376 1.44774 -0.622745 0
M  V30 1501 C 144.308 2.28856 0.125485 0
M  V30 1502 C 145.321 1.40811 0.817069 0
M  V30 1503 O 146.51 1.65044 0.679918 0
M  V30 1504 C 143.61 3.16963 1.19949 0
M  V30 1505 C 142.783 4.33374 0.592064 0
M  V30 1506 C 141.842 5.02577 1.55893 0
M  V30 1507 O 140.868 5.58873 1.07933 0
M  V30 1508 N 142.07 5.03256 2.89334 0
M  V30 1509 H 144.835 2.93713 -0.596068 0
M  V30 1510 H 142.396 1.55129 -0.463303 0
M  V30 1511 H 144.388 3.60123 1.84644 0
M  V30 1512 H 142.958 2.53913 1.82337 0
M  V30 1513 H 142.178 3.93509 -0.233322 0
M  V30 1514 H 143.466 5.08527 0.166738 0
M  V30 1515 H 142.864 4.58836 3.30887 0
M  V30 1516 H 141.421 5.50232 3.49412 0
M  V30 1517 N 144.854 0.36279 1.53368 0
M  V30 1518 C 146.079 -0.231226 2.06107 0
M  V30 1519 C 146.504 -1.419 1.23474 0
M  V30 1520 O 145.862 -1.79524 0.253128 0
M  V30 1521 C 145.91 -0.605523 3.5548 0
M  V30 1522 O 145.014 -1.70312 3.7559 0
M  V30 1523 H 144.355 -0.034327 0.663112 0
M  V30 1524 H 146.885 0.522584 1.97814 0
M  V30 1525 H 146.895 -0.877314 3.98456 0
M  V30 1526 H 145.57 0.263004 4.15068 0
M  V30 1527 H 144.147 -1.4271 3.44512 0
M  V30 1528 N 146.332 -1.57332 0.0918853 0
M  V30 1529 C 147.58 -1.93853 -0.571446 0
M  V30 1530 C 147.901 -0.974212 -1.6892 0
M  V30 1531 O 147.171 -0.0257254 -1.95883 0
M  V30 1532 H 145.751 -0.715666 -0.214082 0
M  V30 1533 H 148.413 -1.94287 0.154464 0
M  V30 1534 H 147.509 -2.96191 -0.983729 0
M  V30 1535 N 147.81 0.181792 -1.56548 0
M  V30 1536 C 148.74 1.22765 -1.98623 0
M  V30 1537 C 149.721 1.46747 -0.860189 0
M  V30 1538 O 150.906 1.58259 -1.12551 0
M  V30 1539 C 148.036 2.56894 -2.33715 0
M  V30 1540 C 146.99 2.475 -3.49182 0
M  V30 1541 C 146.316 3.86023 -3.69986 0
M  V30 1542 C 147.616 1.98866 -4.82959 0
M  V30 1543 H 149.31 0.877942 -2.86239 0
M  V30 1544 H 146.856 0.42088 -1.37712 0
M  V30 1545 H 148.809 3.30253 -2.61746 0
M  V30 1546 H 147.533 2.93632 -1.42997 0
M  V30 1547 H 146.192 1.76596 -3.21262 0
M  V30 1548 H 145.84 4.20136 -2.76576 0
M  V30 1549 H 145.54 3.80609 -4.47672 0
M  V30 1550 H 147.064 4.60984 -4.00407 0
M  V30 1551 H 148.478 2.61992 -5.09934 0
M  V30 1552 H 146.875 2.04424 -5.64208 0
M  V30 1553 H 147.945 0.942465 -4.75653 0
M  V30 1554 N 149.288 1.51039 0.449983 0
M  V30 1555 C 150.218 1.74379 1.55288 0
M  V30 1556 C 151.199 0.593236 1.5942 0
M  V30 1557 O 152.384 0.834625 1.7535 0
M  V30 1558 C 149.514 1.85728 2.93466 0
M  V30 1559 C 148.468 3.01078 3.04197 0
M  V30 1560 C 147.794 2.97595 4.44231 0
M  V30 1561 C 149.094 4.41254 2.7945 0
M  V30 1562 H 150.788 2.66725 1.36008 0
M  V30 1563 H 148.334 1.2835 0.652864 0
M  V30 1564 H 150.287 2.0064 3.70569 0
M  V30 1565 H 149.011 0.900207 3.13949 0
M  V30 1566 H 147.67 2.85851 2.29531 0
M  V30 1567 H 147.318 1.99691 4.61663 0
M  V30 1568 H 147.018 3.75046 4.52343 0
M  V30 1569 H 148.542 3.14583 5.23326 0
M  V30 1570 H 149.956 4.56897 3.46292 0
M  V30 1571 H 148.353 5.20315 2.98985 0
M  V30 1572 H 149.423 4.52164 1.75144 0
M  V30 1573 N 150.766 -0.704594 1.40972 0
M  V30 1574 C 151.729 -1.80035 1.41845 0
M  V30 1575 C 152.729 -1.57774 0.310474 0
M  V30 1576 O 153.919 -1.64613 0.56992 0
M  V30 1577 C 151.051 -3.18284 1.22098 0
M  V30 1578 H 152.244 -1.80658 2.3938 0
M  V30 1579 H 149.797 -0.911329 1.26982 0
M  V30 1580 H 150.532 -3.23306 0.253672 0
M  V30 1581 H 150.317 -3.35843 2.02366 0
M  V30 1582 H 151.807 -3.98289 1.25522 0
M  V30 1583 N 152.244 -1.26651 -0.937939 0
M  V30 1584 C 153.154 -1.10276 -2.07066 0
M  V30 1585 C 154.17 -0.0354197 -1.73964 0
M  V30 1586 O 155.346 -0.239816 -1.99967 0
M  V30 1587 C 152.411 -0.740887 -3.38691 0
M  V30 1588 C 151.472 -1.88799 -3.85556 0
M  V30 1589 C 150.705 -1.54329 -5.10899 0
M  V30 1590 O 150.928 -0.446494 -5.6865 0
M  V30 1591 O 149.862 -2.37911 -5.52885 0
M  V30 1592 H 153.688 -2.05309 -2.23789 0
M  V30 1593 H 151.273 -1.05743 -1.0554 0
M  V30 1594 H 153.155 -0.55195 -4.1777 0
M  V30 1595 H 151.83 0.180022 -3.23199 0
M  V30 1596 H 150.737 -2.13191 -3.07409 0
M  V30 1597 H 152.07 -2.78874 -4.05574 0
M  V30 1598 N 153.722 1.14298 -1.08507 0
M  V30 1599 C 154.971 1.84708 -0.810305 0
M  V30 1600 C 155.284 1.83903 0.666271 0
M  V30 1601 O 156.49 2.50112 1.05624 0
M  V30 1602 C 154.946 3.31572 -1.39957 0
M  V30 1603 C 154.554 3.40791 -2.90801 0
M  V30 1604 C 156.298 4.07087 -1.20334 0
M  V30 1605 C 154.205 4.81872 -3.4286 0
M  V30 1606 H 153.135 0.691985 -0.299454 0
M  V30 1607 H 155.786 1.28841 -1.30661 0
M  V30 1608 H 154.168 3.87183 -0.830976 0
M  V30 1609 H 155.342 2.95225 -3.53806 0
M  V30 1610 H 153.657 2.78732 -3.0935 0
M  V30 1611 H 156.254 5.11225 -1.56693 0
M  V30 1612 H 156.597 4.16054 -0.143237 0
M  V30 1613 H 157.13 3.57779 -1.73893 0
M  V30 1614 H 153.869 4.78094 -4.48449 0
M  V30 1615 H 153.389 5.27972 -2.84615 0
M  V30 1616 H 155.068 5.50765 -3.39509 0
M  V30 1617 N 155.201 0.870884 1.31352 0
M  V30 1618 C 156.429 0.49677 2.00848 0
M  V30 1619 C 156.844 -0.910998 1.65367 0
M  V30 1620 O 156.201 -1.59696 0.883374 0
M  V30 1621 C 156.252 0.645308 3.55694 0
M  V30 1622 O 155.973 1.99764 3.89905 0
M  V30 1623 C 157.474 0.272326 4.42463 0
M  V30 1624 H 154.694 0.193462 0.642506 0
M  V30 1625 H 157.238 1.1723 1.67563 0
M  V30 1626 H 155.393 0.0173176 3.87396 0
M  V30 1627 H 155.807 2.00607 4.84621 0
M  V30 1628 H 157.281 0.427208 5.50344 0
M  V30 1629 H 157.758 -0.788587 4.32062 0
M  V30 1630 H 158.364 0.876054 4.1618 0
M  V30 1631 N 156.679 -1.44442 0.630414 0
M  V30 1632 C 158.09 -1.85434 0.217063 0
M  V30 1633 C 158.441 -1.52748 -1.23136 0
M  V30 1634 O 157.566 -0.965205 -1.93682 0
M  V30 1635 C 158.161 -3.36581 0.387168 0
M  V30 1636 C 156.72 -3.76389 0.0283297 0
M  V30 1637 C 155.867 -2.68296 0.700889 0
M  V30 1638 H 158.818 -1.34919 0.83562 0
M  V30 1639 H 158.839 -3.78657 -0.374086 0
M  V30 1640 H 158.351 -3.60339 1.44144 0
M  V30 1641 H 156.452 -3.58246 -1.02423 0
M  V30 1642 H 156.565 -4.77095 0.437892 0
M  V30 1643 H 154.929 -2.54335 0.136267 0
M  V30 1644 H 155.712 -2.94887 1.75774 0
M  V30 1645 N 158.157 -0.370918 -1.53173 0
M  V30 1646 C 159.434 0.273754 -1.93675 0
M  V30 1647 C 159.814 1.65938 -1.3049 0
M  V30 1648 O 159.162 2.23698 -0.465999 0
M  V30 1649 C 159.372 0.318602 -3.47543 0
M  V30 1650 C 160.72 0.556392 -4.20939 0
M  V30 1651 O 161.744 0.399587 -3.53952 0
M  V30 1652 O 160.603 0.862133 -5.39657 0
M  V30 1653 H 157.697 0.165448 -0.810281 0
M  V30 1654 H 160.243 -0.42409 -1.64315 0
M  V30 1655 H 159.015 -0.652687 -3.85818 0
M  V30 1656 H 158.638 1.06212 -3.83151 0
M  V30 1657 N 159.635 1.57281 -0.100228 0
M  V30 1658 C 160.582 2.14305 0.856858 0
M  V30 1659 C 161.552 1.06296 1.27634 0
M  V30 1660 O 162.737 1.34109 1.35718 0
M  V30 1661 C 159.877 2.73184 2.10866 0
M  V30 1662 C 158.99 3.95442 1.73925 0
M  V30 1663 C 158.125 4.42468 2.93931 0
M  V30 1664 C 157.164 5.57303 2.5314 0
M  V30 1665 N 156.301 5.99158 3.65997 0
M  V30 1666 H 161.141 2.95772 0.363726 0
M  V30 1667 H 158.678 1.46139 0.167858 0
M  V30 1668 H 160.636 3.05442 2.84185 0
M  V30 1669 H 159.266 1.94437 2.57671 0
M  V30 1670 H 158.318 3.69464 0.905554 0
M  V30 1671 H 159.63 4.78769 1.39935 0
M  V30 1672 H 158.784 4.76537 3.75496 0
M  V30 1673 H 157.523 3.58052 3.31134 0
M  V30 1674 H 156.528 5.22857 1.70003 0
M  V30 1675 H 157.753 6.43471 2.17075 0
M  V30 1676 H 155.699 5.17687 4.02909 0
M  V30 1677 H 155.616 6.77295 3.35869 0
M  V30 1678 H 156.884 6.3786 4.48057 0
M  V30 1679 N 161.113 -0.173488 1.56642 0
M  V30 1680 C 162.076 -1.19859 1.95362 0
M  V30 1681 C 163.076 -1.37296 0.83704 0
M  V30 1682 O 164.266 -1.34739 1.10413 0
M  V30 1683 C 161.398 -2.56405 2.24654 0
M  V30 1684 H 162.591 -0.867062 2.87092 0
M  V30 1685 H 160.144 -0.415853 1.50666 0
M  V30 1686 H 160.879 -2.94576 1.35631 0
M  V30 1687 H 160.664 -2.45115 3.06041 0
M  V30 1688 H 162.154 -3.30287 2.5554 0
M  V30 1689 N 162.591 -1.51276 -0.441967 0
M  V30 1690 C 163.838 -1.63715 -1.19179 0
M  V30 1691 C 164.166 -0.351175 -1.91303 0
M  V30 1692 O 163.421 0.664524 -1.84072 0
M  V30 1693 C 163.72 -2.78746 -2.23686 0
M  V30 1694 C 163.386 -4.18189 -1.68607 0
M  V30 1695 C 162.048 -4.56125 -1.53308 0
M  V30 1696 C 164.4 -5.05222 -1.28062 0
M  V30 1697 C 161.728 -5.78804 -0.959317 0
M  V30 1698 C 164.08 -6.28476 -0.721162 0
M  V30 1699 C 162.744 -6.65188 -0.55504 0
M  V30 1700 H 162.014 -0.599076 -0.436106 0
M  V30 1701 H 164.661 -1.85296 -0.48351 0
M  V30 1702 H 162.966 -2.51369 -3.00535 0
M  V30 1703 H 164.663 -2.8557 -2.81515 0
M  V30 1704 H 161.253 -3.88277 -1.8149 0
M  V30 1705 H 165.437 -4.76524 -1.38704 0
M  V30 1706 H 160.693 -6.05899 -0.81833 0
M  V30 1707 H 164.867 -6.95259 -0.398458 0
M  V30 1708 H 162.494 -7.60123 -0.108311 0
M  V30 1709 N 164.069 0.697108 -1.41344 0
M  V30 1710 C 165.001 1.8224 -1.39001 0
M  V30 1711 C 166.014 1.60152 -0.292428 0
M  V30 1712 O 167.203 1.69684 -0.554048 0
M  V30 1713 C 164.303 3.18976 -1.14489 0
M  V30 1714 C 163.476 3.68105 -2.36258 0
M  V30 1715 C 162.535 4.83506 -2.07625 0
M  V30 1716 O 161.561 4.95201 -2.8065 0
M  V30 1717 N 162.763 5.70637 -1.06555 0
M  V30 1718 H 165.528 1.84742 -2.35988 0
M  V30 1719 H 163.089 0.87937 -1.35936 0
M  V30 1720 H 165.081 3.93801 -0.932885 0
M  V30 1721 H 163.651 3.11508 -0.261043 0
M  V30 1722 H 162.871 2.84204 -2.7317 0
M  V30 1723 H 164.159 3.97667 -3.17393 0
M  V30 1724 H 163.557 5.63817 -0.461125 0
M  V30 1725 H 162.114 6.45368 -0.913444 0
M  V30 1726 N 165.547 1.27147 0.931209 0
M  V30 1727 C 166.824 1.0401 1.65654 0
M  V30 1728 C 167.204 -0.426297 2.06751 0
M  V30 1729 O 166.552 -1.40879 1.79904 0
M  V30 1730 C 166.762 1.99834 2.86125 0
M  V30 1731 C 168.11 2.29007 3.57549 0
M  V30 1732 O 169.134 1.97779 2.96246 0
M  V30 1733 O 167.993 2.82222 4.67989 0
M  V30 1734 H 165.087 0.396239 0.725895 0
M  V30 1735 H 167.633 1.38397 0.982056 0
M  V30 1736 H 166.405 2.98744 2.52721 0
M  V30 1737 H 166.028 1.65987 3.61295 0
M  V30 1738 N 167.025 -1.13721 1.09112 0
M  V30 1739 C 167.972 -2.19031 0.727591 0
M  V30 1740 C 168.942 -1.63555 -0.289656 0
M  V30 1741 O 170.127 -1.90023 -0.172026 0
M  V30 1742 C 167.267 -3.4477 0.15082 0
M  V30 1743 C 166.38 -4.14365 1.22172 0
M  V30 1744 C 165.515 -5.27709 0.608042 0
M  V30 1745 C 164.554 -5.89147 1.66047 0
M  V30 1746 N 163.691 -6.93929 1.06806 0
M  V30 1747 H 168.531 -2.49475 1.62991 0
M  V30 1748 H 166.068 -1.22499 0.81439 0
M  V30 1749 H 168.026 -4.16714 -0.201358 0
M  V30 1750 H 166.656 -3.14787 -0.714783 0
M  V30 1751 H 165.708 -3.40737 1.69122 0
M  V30 1752 H 167.02 -4.56114 2.01895 0
M  V30 1753 H 166.174 -6.06355 0.204523 0
M  V30 1754 H 164.913 -4.872 -0.220769 0
M  V30 1755 H 163.918 -5.09198 2.07357 0
M  V30 1756 H 165.143 -6.31729 2.49189 0
M  V30 1757 H 163.089 -6.55483 0.260476 0
M  V30 1758 H 163.006 -7.34202 1.8023 0
M  V30 1759 H 164.274 -7.76434 0.690644 0
M  V30 1760 N 168.503 -0.877838 -1.30888 0
M  V30 1761 C 169.433 -0.35534 -2.3078 0
M  V30 1762 C 170.414 0.557994 -1.60687 0
M  V30 1763 O 171.599 0.473355 -1.88343 0
M  V30 1764 C 168.729 0.437221 -3.44537 0
M  V30 1765 C 167.683 -0.383715 -4.26276 0
M  V30 1766 C 167.009 0.535014 -5.32017 0
M  V30 1767 C 168.309 -1.62201 -4.96476 0
M  V30 1768 H 170.003 -1.19007 -2.74732 0
M  V30 1769 H 167.549 -0.573698 -1.32078 0
M  V30 1770 H 169.502 0.813334 -4.13477 0
M  V30 1771 H 168.226 1.30553 -2.99372 0
M  V30 1772 H 166.885 -0.741874 -3.59015 0
M  V30 1773 H 166.533 1.40083 -4.831 0
M  V30 1774 H 166.233 -0.0104211 -5.87599 0
M  V30 1775 H 167.757 0.907799 -6.03814 0
M  V30 1776 H 169.171 -1.31689 -5.5797 0
M  V30 1777 H 167.568 -2.10711 -5.61891 0
M  V30 1778 H 168.638 -2.37044 -4.23011 0
M  V30 1779 N 169.982 1.44106 -0.638065 0
M  V30 1780 C 171.212 2.06037 -0.152394 0
M  V30 1781 C 171.62 1.47808 1.18108 0
M  V30 1782 O 170.963 0.598092 1.73691 0
M  V30 1783 C 171.025 3.59488 0.0293714 0
M  V30 1784 C 170.689 4.4022 -1.22702 0
M  V30 1785 C 171.686 4.73256 -2.15232 0
M  V30 1786 C 169.371 4.8048 -1.46437 0
M  V30 1787 C 171.365 5.45444 -3.29802 0
M  V30 1788 C 169.052 5.52417 -2.61303 0
M  V30 1789 C 170.05 5.84819 -3.52811 0
M  V30 1790 O 169.738 6.55289 -4.65673 0
M  V30 1791 H 169.47 0.671233 -0.0801401 0
M  V30 1792 H 172.024 1.85851 -0.874563 0
M  V30 1793 H 170.254 3.78191 0.806758 0
M  V30 1794 H 171.943 4.03164 0.470475 0
M  V30 1795 H 172.709 4.42684 -1.98131 0
M  V30 1796 H 168.588 4.54676 -0.760977 0
M  V30 1797 H 172.132 5.70653 -4.01249 0
M  V30 1798 H 168.029 5.82404 -2.78344 0
M  V30 1799 H 168.797 6.73762 -4.64744 0
M  V30 1800 N 171.46 0.379036 1.52974 0
M  V30 1801 C 172.871 -0.0972525 1.86447 0
M  V30 1802 C 173.222 -1.47027 1.29914 0
M  V30 1803 O 172.347 -2.07135 0.626433 0
M  V30 1804 C 172.942 -0.183248 3.38304 0
M  V30 1805 C 171.501 -0.603812 3.71525 0
M  V30 1806 C 170.648 0.240632 2.76254 0
M  V30 1807 H 173.599 0.597316 1.4703 0
M  V30 1808 H 173.62 -1.00432 3.67006 0
M  V30 1809 H 173.132 0.816191 3.79421 0
M  V30 1810 H 171.233 -1.61099 3.35973 0
M  V30 1811 H 171.346 -0.369086 4.77676 0
M  V30 1812 H 169.71 -0.292548 2.53014 0
M  V30 1813 H 170.493 1.23786 3.20206 0
M  V30 1814 N 172.938 -1.57226 0.108567 0
M  V30 1815 C 174.185 -1.94833 -0.551943 0
M  V30 1816 C 174.513 -0.991204 -1.67348 0
M  V30 1817 O 173.768 -0.0131878 -1.95696 0
M  V30 1818 C 174.067 -3.38911 -1.13463 0
M  V30 1819 C 173.733 -4.50696 -0.135509 0
M  V30 1820 C 172.395 -4.80998 0.139252 0
M  V30 1821 C 174.747 -5.18333 0.545957 0
M  V30 1822 C 172.075 -5.76259 1.10194 0
M  V30 1823 C 174.427 -6.14627 1.49721 0
M  V30 1824 C 173.091 -6.43327 1.78006 0
M  V30 1825 H 172.361 -0.712944 -0.20197 0
M  V30 1826 H 175.008 -1.90582 0.18726 0
M  V30 1827 H 173.313 -3.39805 -1.95037 0
M  V30 1828 H 175.01 -3.65317 -1.65362 0
M  V30 1829 H 171.6 -4.27087 -0.359846 0
M  V30 1830 H 175.784 -4.95087 0.346842 0
M  V30 1831 H 171.04 -5.96804 1.32795 0
M  V30 1832 H 175.214 -6.66126 2.03099 0
M  V30 1833 H 172.841 -7.1695 2.52759 0
M  V30 1834 N 174.416 0.165178 -1.56732 0
M  V30 1835 C 175.644 0.896218 -1.86482 0
M  V30 1836 C 176.059 1.75555 -0.694675 0
M  V30 1837 O 175.416 1.79379 0.33607 0
M  V30 1838 C 175.467 1.76792 -3.1532 0
M  V30 1839 O 175.188 0.943239 -4.27825 0
M  V30 1840 C 176.689 2.6081 -3.58459 0
M  V30 1841 H 173.909 0.260064 -0.618553 0
M  V30 1842 H 176.453 0.163428 -2.03846 0
M  V30 1843 H 174.608 2.45398 -2.99764 0
M  V30 1844 H 175.022 1.53998 -5.01383 0
M  V30 1845 H 176.496 3.17579 -4.51495 0
M  V30 1846 H 176.973 3.35977 -2.82872 0
M  V30 1847 H 177.579 1.97526 -3.76648 0
M  V30 1848 N 175.894 1.51508 0.433938 0
M  V30 1849 C 177.14 1.65549 1.18173 0
M  V30 1850 C 177.495 0.368751 1.88833 0
M  V30 1851 O 176.788 -0.635616 1.8075 0
M  V30 1852 C 176.982 2.79928 2.22205 0
M  V30 1853 C 176.811 4.19601 1.61756 0
M  V30 1854 C 175.581 4.85489 1.40101 0
M  V30 1855 C 177.779 5.02574 1.09194 0
M  V30 1856 N 175.761 6.09266 0.752859 0
M  V30 1857 C 177.132 6.17381 0.569255 0
M  V30 1858 C 179.187 4.88079 0.984025 0
M  V30 1859 C 177.89 7.19282 -0.0507472 0
M  V30 1860 C 179.916 5.90191 0.377912 0
M  V30 1861 C 179.278 7.04272 -0.134216 0
M  V30 1862 H 175.377 0.659653 0.419979 0
M  V30 1863 H 177.961 1.88746 0.477818 0
M  V30 1864 H 176.132 2.5839 2.89982 0
M  V30 1865 H 177.864 2.83132 2.89168 0
M  V30 1866 H 174.619 4.43417 1.66369 0
M  V30 1867 H 175.043 6.75528 0.446123 0
M  V30 1868 H 179.685 4.00131 1.36583 0
M  V30 1869 H 177.403 8.06876 -0.444676 0
M  V30 1870 H 180.989 5.81045 0.296269 0
M  V30 1871 H 179.869 7.81933 -0.59585 0
M  V30 1872 N 177.372 -0.689602 1.41712 0
M  V30 1873 C 178.649 -1.44457 1.31877 0
M  V30 1874 C 179.029 -2.11039 -0.0508537 0
M  V30 1875 O 178.377 -2.02138 -1.06547 0
M  V30 1876 C 178.587 -2.45913 2.47645 0
M  V30 1877 C 179.935 -3.10991 2.89084 0
M  V30 1878 O 180.959 -2.56238 2.47428 0
M  V30 1879 O 179.818 -4.10174 3.61137 0
M  V30 1880 H 176.912 -0.64362 0.519309 0
M  V30 1881 H 179.458 -0.719576 1.53689 0
M  V30 1882 H 178.23 -1.95409 3.39015 0
M  V30 1883 H 177.853 -3.25913 2.27742 0
M  V30 1884 N 178.85 -1.27639 -0.924453 0
M  V30 1885 C 179.813 -1.10681 -2.00705 0
M  V30 1886 C 180.813 -0.0497823 -1.60723 0
M  V30 1887 O 182.003 -0.294654 -1.7169 0
M  V30 1888 C 179.135 -0.687164 -3.33902 0
M  V30 1889 H 180.328 -2.06817 -2.17179 0
M  V30 1890 H 177.881 -1.10473 -1.10569 0
M  V30 1891 H 178.616 0.275439 -3.23128 0
M  V30 1892 H 178.401 -1.45061 -3.6428 0
M  V30 1893 H 179.891 -0.590853 -4.13399 0
M  V30 1894 N 180.328 1.1314 -1.09713 0
M  V30 1895 C 181.574 1.84757 -0.836224 0
M  V30 1896 C 181.907 1.8347 0.636598 0
M  V30 1897 O 181.182 1.27491 1.46889 0
M  V30 1898 C 181.465 3.32782 -1.37578 0
M  V30 1899 C 181.318 3.42567 -2.91493 0
M  V30 1900 C 182.637 4.28307 -1.01198 0
M  V30 1901 H 179.756 0.67082 -0.305236 0
M  V30 1902 H 182.398 1.3278 -1.35903 0
M  V30 1903 H 180.548 3.77177 -0.931097 0
M  V30 1904 H 182.22 3.06862 -3.44432 0
M  V30 1905 H 180.463 2.83349 -3.28475 0
M  V30 1906 H 181.134 4.46674 -3.24324 0
M  V30 1907 H 183.61 3.91999 -1.39556 0
M  V30 1908 H 182.486 5.30307 -1.41653 0
M  V30 1909 H 182.747 4.42029 0.0794833 0
M  V30 1910 N 181.806 0.884767 1.30421 0
M  V30 1911 C 183.222 0.57874 1.48737 0
M  V30 1912 C 183.422 -0.883567 1.81095 0
M  V30 1913 O 182.478 -1.6648 1.89844 0
M  V30 1914 C 183.791 1.49171 2.61091 0
M  V30 1915 C 185.339 1.49532 2.74971 0
M  V30 1916 C 185.814 2.39421 3.90438 0
M  V30 1917 N 187.305 2.37383 3.97748 0
M  V30 1918 C 188.04 3.03647 4.86401 0
M  V30 1919 N 187.536 3.79136 5.79852 0
M  V30 1920 N 189.329 2.9288 4.79768 0
M  V30 1921 H 181.48 1.83075 1.0769 0
M  V30 1922 H 183.743 0.783637 0.533495 0
M  V30 1923 H 183.449 2.53291 2.44001 0
M  V30 1924 H 183.323 1.20113 3.57565 0
M  V30 1925 H 185.71 0.46163 2.91467 0
M  V30 1926 H 185.791 1.8262 1.79119 0
M  V30 1927 H 185.435 3.42874 3.74699 0
M  V30 1928 H 185.365 2.03649 4.85628 0
M  V30 1929 H 187.856 1.82525 3.30897 0
M  V30 1930 H 188.169 4.26789 6.4426 0
M  V30 1931 H 186.514 3.83243 5.79784 0
M  V30 1932 H 189.705 2.33433 4.05742 0
M  V30 1933 H 189.878 3.448 5.4865 0
M  V30 1934 N 183.284 -1.43765 0.645699 0
M  V30 1935 C 184.514 -2.05953 0.163318 0
M  V30 1936 C 184.922 -1.48432 -1.17322 0
M  V30 1937 O 184.265 -0.607295 -1.73371 0
M  V30 1938 C 184.327 -3.59499 -0.0103065 0
M  V30 1939 C 183.991 -4.39563 1.25035 0
M  V30 1940 C 184.988 -4.72108 2.17739 0
M  V30 1941 C 182.673 -4.79697 1.48983 0
M  V30 1942 C 184.667 -5.43688 3.3269 0
M  V30 1943 C 182.354 -5.51023 2.64229 0
M  V30 1944 C 183.352 -5.8294 3.55908 0
M  V30 1945 O 183.04 -6.5281 4.69142 0
M  V30 1946 H 182.772 -0.670798 0.0836986 0
M  V30 1947 H 185.326 -1.85384 0.884407 0
M  V30 1948 H 183.556 -3.78613 -0.78669 0
M  V30 1949 H 185.245 -4.03408 -0.449087 0
M  V30 1950 H 186.011 -4.41627 2.00476 0
M  V30 1951 H 181.89 -4.54266 0.785078 0
M  V30 1952 H 185.434 -5.68517 4.04269 0
M  V30 1953 H 181.331 -5.8092 2.81429 0
M  V30 1954 H 182.099 -6.71288 4.6831 0
M  V30 1955 N 184.763 -0.387143 -1.52771 0
M  V30 1956 C 185.711 0.463953 -2.27926 0
M  V30 1957 C 186.705 1.06493 -1.31741 0
M  V30 1958 O 187.911 1.00565 -1.49287 0
M  V30 1959 H 184.286 0.16837 -0.732909 0
M  V30 1960 H 186.257 -0.19141 -2.97785 0
M  V30 1961 C 185.006 1.5803 -3.09713 0
M  V30 1962 H 184.329 1.12718 -3.83581 0
M  V30 1963 H 185.769 2.15008 -3.65442 0
M  V30 1964 C 184.228 2.53509 -2.2189 0
M  V30 1965 O 184.758 3.56863 -1.84422 0
M  V30 1966 N 182.964 2.23199 -1.86093 0
M  V30 1967 H 182.511 1.39185 -2.16761 0
M  V30 1968 H 182.469 2.87333 -1.27621 0
M  V30 1969 N 186.241 1.57166 -0.116904 0
M  V30 1970 C 187.489 1.94737 0.540533 0
M  V30 1971 C 187.81 1.00096 1.67349 0
M  V30 1972 O 187.08 0.0568854 1.95817 0
M  V30 1973 H 185.66 0.718981 0.202669 0
M  V30 1974 H 188.322 1.94017 -0.185353 0
M  V30 1975 H 187.418 2.97719 0.936483 0
M  V30 1976 N 187.719 -0.156864 1.56817 0
M  V30 1977 C 188.666 -1.19394 1.97519 0
M  V30 1978 C 189.636 -1.4322 0.841265 0
M  V30 1979 O 190.821 -1.55719 1.10255 0
M  V30 1980 C 187.961 -2.52483 2.35258 0
M  V30 1981 C 187.074 -2.35914 3.61896 0
M  V30 1982 C 186.209 -3.61969 3.88782 0
M  V30 1983 C 185.248 -3.40395 5.08722 0
M  V30 1984 N 184.385 -4.58556 5.31668 0
M  V30 1985 H 189.225 -0.839845 2.85921 0
M  V30 1986 H 186.762 -0.403264 1.41464 0
M  V30 1987 H 188.72 -3.30071 2.55165 0
M  V30 1988 H 187.35 -2.85859 1.49949 0
M  V30 1989 H 186.402 -1.49429 3.49821 0
M  V30 1990 H 187.714 -2.15926 4.49641 0
M  V30 1991 H 186.868 -4.47989 4.09135 0
M  V30 1992 H 185.607 -3.84951 2.9944 0
M  V30 1993 H 184.612 -2.52763 4.88253 0
M  V30 1994 H 185.837 -3.18822 5.99608 0
M  V30 1995 H 183.783 -4.81729 4.45279 0
M  V30 1996 H 183.7 -4.41535 6.13664 0
M  V30 1997 H 184.968 -5.45817 5.5651 0
M  V30 1998 N 189.197 -1.51736 -0.425897 0
M  V30 1999 C 190.127 -1.76827 -1.52494 0
M  V30 2000 C 191.108 -0.618524 -1.58456 0
M  V30 2001 O 192.293 -0.862416 -1.74 0
M  V30 2002 C 189.423 -1.90374 -2.90474 0
M  V30 2003 C 188.377 -3.0588 -2.99369 0
M  V30 2004 C 187.703 -3.04625 -4.3944 0
M  V30 2005 C 189.003 -4.45644 -2.72394 0
M  V30 2006 H 190.697 -2.68855 -1.31748 0
M  V30 2007 H 188.243 -1.29372 -0.632362 0
M  V30 2008 H 190.196 -2.0651 -3.6733 0
M  V30 2009 H 188.92 -0.95004 -3.12477 0
M  V30 2010 H 187.579 -2.89467 -2.24954 0
M  V30 2011 H 187.227 -2.0701 -4.58428 0
M  V30 2012 H 186.927 -3.82195 -4.46319 0
M  V30 2013 H 188.451 -3.22869 -5.18255 0
M  V30 2014 H 189.865 -4.62348 -3.38979 0
M  V30 2015 H 188.262 -5.25006 -2.9067 0
M  V30 2016 H 189.332 -4.54893 -1.67929 0
M  V30 2017 N 190.675 0.682077 -1.42076 0
M  V30 2018 C 191.924 1.43786 -1.41451 0
M  V30 2019 C 192.237 1.95574 -0.0317074 0
M  V30 2020 O 193.443 2.71326 0.0971462 0
M  V30 2021 C 191.899 2.60071 -2.48779 0
M  V30 2022 C 191.507 2.15013 -3.93031 0
M  V30 2023 C 193.251 3.37626 -2.57311 0
M  V30 2024 C 191.158 3.28336 -4.91883 0
M  V30 2025 H 190.088 0.540143 -0.526082 0
M  V30 2026 H 192.739 0.739157 -1.67955 0
M  V30 2027 H 191.121 3.32275 -2.15429 0
M  V30 2028 H 192.295 1.5001 -4.35699 0
M  V30 2029 H 190.61 1.50416 -3.88284 0
M  V30 2030 H 193.207 4.22012 -3.28345 0
M  V30 2031 H 193.55 3.83727 -1.61429 0
M  V30 2032 H 194.083 2.72488 -2.89819 0
M  V30 2033 H 190.822 2.87234 -5.89217 0
M  V30 2034 H 190.342 3.92145 -4.53853 0
M  V30 2035 H 192.021 3.93913 -5.13265 0
M  V30 2036 N 192.153 1.28127 0.917671 0
M  V30 2037 C 193.116 1.11744 2.00115 0
M  V30 2038 C 194.116 0.0583052 1.60694 0
M  V30 2039 O 195.306 0.303755 1.71531 0
M  V30 2040 C 192.438 0.704862 3.33533 0
M  V30 2041 H 193.631 2.07966 2.16079 0
M  V30 2042 H 191.184 1.11058 1.09981 0
M  V30 2043 H 191.919 -0.258299 3.2327 0
M  V30 2044 H 191.704 1.4699 3.63505 0
M  V30 2045 H 193.194 0.612768 4.1308 0
M  V30 2046 N 193.631 -1.12557 1.10312 0
M  V30 2047 C 194.861 -1.87592 0.865617 0
M  V30 2048 C 195.269 -1.79851 -0.587389 0
M  V30 2049 O 194.612 -1.16949 -1.41664 0
M  V30 2050 C 194.674 -3.37665 1.23381 0
M  V30 2051 C 194.338 -3.69181 2.69359 0
M  V30 2052 C 195.335 -3.67652 3.67597 0
M  V30 2053 C 193.02 -3.98555 3.05711 0
M  V30 2054 C 195.014 -3.95053 5.00212 0
M  V30 2055 C 192.701 -4.25616 4.38514 0
M  V30 2056 C 193.699 -4.23851 5.35574 0
M  V30 2057 O 193.387 -4.50242 6.65986 0
M  V30 2058 H 193.119 -0.600442 0.310557 0
M  V30 2059 H 195.673 -1.4335 1.47105 0
M  V30 2060 H 193.903 -3.82454 0.571467 0
M  V30 2061 H 195.592 -3.94041 0.973994 0
M  V30 2062 H 196.358 -3.45024 3.40857 0
M  V30 2063 H 192.237 -3.99071 2.30789 0
M  V30 2064 H 195.781 -3.93591 5.75962 0
M  V30 2065 H 191.678 -4.47718 4.64994 0
M  V30 2066 H 192.446 -4.67867 6.71597 0
M  V30 2067 N 195.109 -0.891671 -1.2995 0
M  V30 2068 C 196.52 -0.563104 -1.78006 0
M  V30 2069 C 196.871 0.920978 -1.73241 0
M  V30 2070 O 195.996 1.71987 -1.31337 0
M  V30 2071 C 196.591 -1.01539 -3.23226 0
M  V30 2072 C 195.15 -0.738124 -3.69092 0
M  V30 2073 C 194.297 -1.19461 -2.50249 0
M  V30 2074 H 197.248 -1.07522 -1.16725 0
M  V30 2075 H 197.269 -0.347217 -3.78912 0
M  V30 2076 H 196.781 -2.09555 -3.26662 0
M  V30 2077 H 194.882 0.329766 -3.71138 0
M  V30 2078 H 194.995 -1.33037 -4.60259 0
M  V30 2079 H 193.359 -0.613787 -2.47194 0
M  V30 2080 H 194.142 -2.28265 -2.56417 0
M  V30 2081 N 196.587 1.43421 -0.653314 0
M  V30 2082 C 197.836 2.01032 -0.164076 0
M  V30 2083 C 198.149 1.52147 1.22926 0
M  V30 2084 O 199.355 2.02031 1.81371 0
M  V30 2085 C 197.811 3.59082 -0.24252 0
M  V30 2086 C 197.419 4.1696 -1.63855 0
M  V30 2087 C 199.163 4.24079 0.18911 0
M  V30 2088 C 197.07 5.67304 -1.67092 0
M  V30 2089 H 196 0.751798 -0.0575769 0
M  V30 2090 H 198.651 1.6439 -0.815362 0
M  V30 2091 H 197.033 3.93125 0.476276 0
M  V30 2092 H 198.207 3.94416 -2.38271 0
M  V30 2093 H 196.522 3.64335 -2.01616 0
M  V30 2094 H 199.119 5.34381 0.184775 0
M  V30 2095 H 199.462 3.98005 1.22056 0
M  V30 2096 H 199.995 3.94918 -0.477938 0
M  V30 2097 H 196.734 5.98145 -2.68146 0
M  V30 2098 H 196.254 5.91904 -0.970014 0
M  V30 2099 H 197.933 6.31344 -1.4147 0
M  V30 2100 N 198.065 0.39524 1.52563 0
M  V30 2101 C 199.028 -0.425001 2.25225 0
M  V30 2102 C 200.028 -0.985266 1.27079 0
M  V30 2103 O 201.218 -0.866332 1.5113 0
M  V30 2104 C 198.35 -1.59686 3.01186 0
M  V30 2105 H 199.543 0.211233 2.99155 0
M  V30 2106 H 197.096 0.147472 1.55603 0
M  V30 2107 H 197.831 -2.27035 2.31572 0
M  V30 2108 H 197.616 -1.20176 3.73229 0
M  V30 2109 H 199.106 -2.17743 3.5634 0
M  V30 2110 N 199.544 -1.57102 0.125237 0
M  V30 2111 C 200.79 -1.95697 -0.532035 0
M  V30 2112 C 201.123 -1.009 -1.6593 0
M  V30 2113 O 200.398 -0.047347 -1.94442 0
M  V30 2114 C 200.681 -3.44181 -1.05884 0
M  V30 2115 C 200.534 -4.49752 0.0654392 0
M  V30 2116 C 201.853 -3.94655 -1.9477 0
M  V30 2117 H 198.972 -0.711571 -0.191925 0
M  V30 2118 H 201.614 -1.88923 0.20206 0
M  V30 2119 H 199.764 -3.50085 -1.68442 0
M  V30 2120 H 201.436 -4.55943 0.700982 0
M  V30 2121 H 199.679 -4.27653 0.727709 0
M  V30 2122 H 200.35 -5.50924 -0.344505 0
M  V30 2123 H 202.826 -3.91094 -1.42074 0
M  V30 2124 H 201.702 -4.99057 -2.28546 0
M  V30 2125 H 201.963 -3.35718 -2.87656 0
M  V30 2126 N 201.022 0.148545 -1.56898 0
M  V30 2127 C 201.932 1.20293 -2.01412 0
M  V30 2128 C 202.948 1.47107 -0.929273 0
M  V30 2129 O 204.124 1.58807 -1.23863 0
M  V30 2130 C 201.189 2.51682 -2.38447 0
M  V30 2131 C 200.25 2.32529 -3.60872 0
M  V30 2132 C 199.483 3.57653 -3.96132 0
M  V30 2133 O 199.706 4.63771 -3.32073 0
M  V30 2134 O 198.64 3.50408 -4.89385 0
M  V30 2135 H 202.466 0.855025 -2.91416 0
M  V30 2136 H 200.051 0.357151 -1.45068 0
M  V30 2137 H 201.933 3.29147 -2.63135 0
M  V30 2138 H 200.608 2.86006 -1.51599 0
M  V30 2139 H 199.515 1.53019 -3.41373 0
M  V30 2140 H 200.848 2.03121 -4.48333 0
M  V30 2141 N 202.5 1.5196 0.417844 0
M  V30 2142 C 203.463 1.74065 1.49111 0
M  V30 2143 C 204.463 0.610537 1.48758 0
M  V30 2144 O 205.653 0.87832 1.50437 0
M  V30 2145 C 202.785 1.81502 2.88565 0
M  V30 2146 H 203.978 2.69869 1.30807 0
M  V30 2147 H 201.531 1.42244 0.647785 0
M  V30 2148 H 202.266 0.875813 3.1225 0
M  V30 2149 H 202.051 2.63651 2.90225 0
M  V30 2150 H 203.541 2.00376 3.66387 0
M  V30 2151 N 203.978 -0.674533 1.42435 0
M  V30 2152 C 204.908 -1.80009 1.48724 0
M  V30 2153 C 205.889 -1.6659 0.343793 0
M  V30 2154 O 207.074 -1.86007 0.558137 0
M  V30 2155 C 204.204 -3.18306 1.38919 0
M  V30 2156 C 203.158 -3.46461 2.51294 0
M  V30 2157 C 202.484 -4.84335 2.26547 0
M  V30 2158 C 203.784 -3.43328 3.93603 0
M  V30 2159 H 205.478 -1.75004 2.42928 0
M  V30 2160 H 203.024 -0.840533 1.16923 0
M  V30 2161 H 204.977 -3.9678 1.41927 0
M  V30 2162 H 203.701 -3.2399 0.412094 0
M  V30 2163 H 202.36 -2.70348 2.47604 0
M  V30 2164 H 202.008 -4.86669 1.2713 0
M  V30 2165 H 201.708 -5.04136 3.01861 0
M  V30 2166 H 203.232 -5.65094 2.31304 0
M  V30 2167 H 204.646 -4.11772 3.98894 0
M  V30 2168 H 203.043 -3.74664 4.68771 0
M  V30 2169 H 204.113 -2.41897 4.20255 0
M  V30 2170 N 205.456 -1.28612 -0.910864 0
M  V30 2171 C 206.681 -1.1891 -1.69927 0
M  V30 2172 C 207.106 0.248372 -1.86453 0
M  V30 2173 O 206.464 1.17961 -1.37676 0
M  V30 2174 C 206.512 -1.89578 -3.06745 0
M  V30 2175 O 205.616 -1.20521 -3.94396 0
M  V30 2176 H 204.957 -0.412632 -0.520222 0
M  V30 2177 H 207.487 -1.69985 -1.1387 0
M  V30 2178 H 207.497 -1.97597 -3.56958 0
M  V30 2179 H 206.172 -2.94136 -2.94035 0
M  V30 2180 H 204.749 -1.20684 -3.52831 0
M  V30 2181 N 206.934 1.1197 -1.10907 0
M  V30 2182 C 207.864 2.19928 -0.784473 0
M  V30 2183 C 208.845 1.6833 0.244726 0
M  V30 2184 O 210.03 1.93892 0.109418 0
M  V30 2185 C 207.16 3.46597 -0.220827 0
M  V30 2186 C 206.114 4.11376 -1.18127 0
M  V30 2187 C 205.44 5.32554 -0.478594 0
M  V30 2188 C 206.74 4.56945 -2.52979 0
M  V30 2189 H 208.434 2.47337 -1.68715 0
M  V30 2190 H 205.98 1.18879 -0.812642 0
M  V30 2191 H 207.933 4.21396 0.0184278 0
M  V30 2192 H 206.657 3.1863 0.717113 0
M  V30 2193 H 205.316 3.38564 -1.40606 0
M  V30 2194 H 204.964 5.00856 0.463976 0
M  V30 2195 H 204.664 5.76844 -1.11912 0
M  V30 2196 H 206.188 6.10096 -0.248 0
M  V30 2197 H 207.602 5.23093 -2.3462 0
M  V30 2198 H 205.999 5.1203 -3.12962 0
M  V30 2199 H 207.069 3.70676 -3.12614 0
M  V30 2200 N 208.412 0.89855 1.29475 0
M  V30 2201 C 209.661 0.519863 1.94885 0
M  V30 2202 C 209.974 -0.9383 1.71625 0
M  V30 2203 O 211.18 -1.42445 2.31131 0
M  V30 2204 C 209.636 0.878836 3.49005 0
M  V30 2205 C 209.244 2.35569 3.81066 0
M  V30 2206 C 210.988 0.570004 4.20656 0
M  V30 2207 C 208.895 2.65558 5.28425 0
M  V30 2208 H 207.825 0.190692 0.729488 0
M  V30 2209 H 210.476 1.09539 1.47219 0
M  V30 2210 H 208.858 0.232253 3.95318 0
M  V30 2211 H 210.032 3.04773 3.45616 0
M  V30 2212 H 208.347 2.63343 3.22552 0
M  V30 2213 H 210.944 0.770925 5.29113 0
M  V30 2214 H 211.287 -0.491404 4.1339 0
M  V30 2215 H 211.82 1.17438 3.8007 0
M  V30 2216 H 208.559 3.70493 5.40754 0
M  V30 2217 H 208.079 2.00977 5.65127 0
M  V30 2218 H 209.758 2.51765 5.96006 0
M  V30 2219 N 209.89 -1.43072 0.660911 0
M  V30 2220 C 211.12 -2.05769 0.185153 0
M  V30 2221 C 211.528 -1.49668 -1.15742 0
M  V30 2222 O 210.871 -0.625649 -1.72717 0
M  V30 2223 C 210.933 -3.59489 0.0278237 0
M  V30 2224 C 210.597 -4.38212 1.2969 0
M  V30 2225 C 211.594 -4.69772 2.22734 0
M  V30 2226 C 209.279 -4.7809 1.54063 0
M  V30 2227 C 211.273 -5.40129 3.38437 0
M  V30 2228 C 208.96 -5.4819 2.70058 0
M  V30 2229 C 209.958 -5.79132 3.62071 0
M  V30 2230 O 209.646 -6.47798 4.76039 0
M  V30 2231 H 209.378 -0.669873 0.0908086 0
M  V30 2232 H 211.932 -1.84436 0.90402 0
M  V30 2233 H 210.162 -3.79426 -0.746489 0
M  V30 2234 H 211.851 -4.03862 -0.406275 0
M  V30 2235 H 212.617 -4.39476 2.05149 0
M  V30 2236 H 208.496 -4.53408 0.833215 0
M  V30 2237 H 212.04 -5.64198 4.10277 0
M  V30 2238 H 207.937 -5.77902 2.87574 0
M  V30 2239 H 208.705 -6.66283 4.75404 0
M  V30 2240 N 211.368 -0.403325 -1.52352 0
M  V30 2241 C 212.316 0.439752 -2.28405 0
M  V30 2242 C 213.31 1.05089 -1.32863 0
M  V30 2243 O 214.516 0.989759 -1.50345 0
M  V30 2244 H 210.891 0.160587 -0.734653 0
M  V30 2245 H 212.862 -0.222983 -2.97566 0
M  V30 2246 C 211.611 1.54736 -3.11371 0
M  V30 2247 H 210.934 1.08643 -3.84755 0
M  V30 2248 H 212.374 2.1112 -3.67701 0
M  V30 2249 C 210.833 2.51141 -2.24566 0
M  V30 2250 O 211.363 3.54887 -1.88196 0
M  V30 2251 N 209.569 2.21213 -1.8845 0
M  V30 2252 H 209.116 1.36878 -2.18225 0
M  V30 2253 H 209.074 2.85963 -1.30662 0
M  V30 2254 N 212.846 1.57033 -0.133567 0
M  V30 2255 C 213.793 2.16074 0.811208 0
M  V30 2256 C 214.763 1.08979 1.2535 0
M  V30 2257 O 215.948 1.36958 1.32843 0
M  V30 2258 C 213.088 2.77595 2.05024 0
M  V30 2259 C 212.201 3.99042 1.65498 0
M  V30 2260 C 211.336 4.48603 2.84479 0
M  V30 2261 C 210.375 5.62547 2.41262 0
M  V30 2262 N 209.512 6.06787 3.53206 0
M  V30 2263 H 214.352 2.96477 0.300906 0
M  V30 2264 H 211.889 1.46462 0.136822 0
M  V30 2265 H 213.847 3.11402 2.77642 0
M  V30 2266 H 212.477 1.99859 2.53488 0
M  V30 2267 H 211.529 3.71302 0.826981 0
M  V30 2268 H 212.841 4.81629 1.29748 0
M  V30 2269 H 211.995 4.84395 3.65303 0
M  V30 2270 H 210.734 3.64995 3.23465 0
M  V30 2271 H 209.739 5.26345 1.58874 0
M  V30 2272 H 210.964 6.47931 2.03377 0
M  V30 2273 H 208.91 5.26117 3.91838 0
M  V30 2274 H 208.827 6.84266 3.21427 0
M  V30 2275 H 210.095 6.4722 4.34427 0
M  V30 2276 N 214.325 -0.140222 1.56975 0
M  V30 2277 C 215.602 -0.880769 1.74648 0
M  V30 2278 C 215.982 -1.99036 0.703404 0
M  V30 2279 O 215.33 -2.26821 -0.27648 0
M  V30 2280 C 215.54 -1.417 3.18939 0
M  V30 2281 C 216.888 -1.87774 3.80823 0
M  V30 2282 O 217.912 -1.51427 3.2241 0
M  V30 2283 O 216.771 -2.54827 4.83452 0
M  V30 2284 H 213.865 -0.416713 0.714338 0
M  V30 2285 H 216.411 -0.125618 1.69234 0
M  V30 2286 H 215.183 -0.619902 3.86359 0
M  V30 2287 H 214.806 -2.23546 3.28805 0
M  V30 2288 N 215.803 -1.52179 -0.40978 0
M  V30 2289 C 216.733 -1.78435 -1.5061 0
M  V30 2290 C 217.714 -0.635295 -1.57791 0
M  V30 2291 O 218.899 -0.880823 -1.73076 0
M  V30 2292 C 216.029 -1.93444 -2.88439 0
M  V30 2293 C 214.983 -3.09038 -2.96108 0
M  V30 2294 C 214.309 -3.09268 -4.36185 0
M  V30 2295 C 215.609 -4.48508 -2.67652 0
M  V30 2296 H 217.303 -2.70237 -1.28889 0
M  V30 2297 H 214.849 -1.30036 -0.618605 0
M  V30 2298 H 216.802 -2.10394 -3.65119 0
M  V30 2299 H 215.526 -0.983129 -3.11452 0
M  V30 2300 H 214.185 -2.91837 -2.21872 0
M  V30 2301 H 213.833 -2.11861 -4.56206 0
M  V30 2302 H 213.533 -3.86907 -4.42241 0
M  V30 2303 H 215.057 -3.28348 -5.14801 0
M  V30 2304 H 216.471 -4.65918 -3.34056 0
M  V30 2305 H 214.868 -5.28059 -2.85085 0
M  V30 2306 H 215.938 -4.56649 -1.63095 0
M  V30 2307 N 217.281 0.66697 -1.42791 0
M  V30 2308 C 218.211 1.79218 -1.49677 0
M  V30 2309 C 219.192 1.66405 -0.352623 0
M  V30 2310 O 220.377 1.85708 -0.567993 0
M  V30 2311 C 217.507 3.17565 -1.40605 0
M  V30 2312 C 216.461 3.45124 -2.53127 0
M  V30 2313 C 215.787 4.83127 -2.29112 0
M  V30 2314 C 217.087 3.41236 -3.95418 0
M  V30 2315 H 218.781 1.73713 -2.43853 0
M  V30 2316 H 216.327 0.83432 -1.17367 0
M  V30 2317 H 218.28 3.96022 -1.44029 0
M  V30 2318 H 217.004 3.23767 -0.429271 0
M  V30 2319 H 215.663 2.69031 -2.49034 0
M  V30 2320 H 215.311 4.85988 -1.29709 0
M  V30 2321 H 215.011 5.02528 -3.04531 0
M  V30 2322 H 216.535 5.63859 -2.34297 0
M  V30 2323 H 217.949 4.09651 -4.01073 0
M  V30 2324 H 216.346 3.72173 -4.70752 0
M  V30 2325 H 217.416 2.39665 -4.21532 0
M  V30 2326 N 218.759 1.29093 0.90403 0
M  V30 2327 C 220.17 1.15186 1.46932 0
M  V30 2328 C 220.521 -0.254587 1.94541 0
M  V30 2329 O 219.646 -1.14972 1.83332 0
M  V30 2330 C 220.241 2.08492 2.67051 0
M  V30 2331 C 218.8 1.98621 3.19729 0
M  V30 2332 C 217.947 1.9967 1.92425 0
M  V30 2333 H 220.898 1.41641 0.715789 0
M  V30 2334 H 220.919 1.65461 3.42641 0
M  V30 2335 H 220.431 3.10847 2.3237 0
M  V30 2336 H 218.532 0.993389 3.59114 0
M  V30 2337 H 218.645 2.86068 3.8432 0
M  V30 2338 H 217.009 1.44208 2.09943 0
M  V30 2339 H 217.792 3.03721 1.60026 0
M  V30 2340 N 220.237 -1.11381 1.11499 0
M  V30 2341 C 221.185 -2.19522 0.768956 0
M  V30 2342 C 222.179 -1.67693 -0.239857 0
M  V30 2343 O 223.385 -1.79727 -0.0990755 0
M  V30 2344 H 219.76 -0.715711 0.230786 0
M  V30 2345 H 221.731 -2.45954 1.68964 0
M  V30 2346 C 220.48 -3.46945 0.229073 0
M  V30 2347 H 219.803 -3.8718 0.996596 0
M  V30 2348 H 221.243 -4.23993 0.0251441 0
M  V30 2349 C 219.702 -3.2042 -1.04079 0
M  V30 2350 O 220.232 -3.41178 -2.12038 0
M  V30 2351 N 218.438 -2.74151 -0.963823 0
M  V30 2352 H 217.985 -2.57459 -0.0851722 0
M  V30 2353 H 217.943 -2.56781 -1.81414 0
M  V30 2354 N 221.715 -0.905404 -1.28997 0
M  V30 2355 C 223.126 -0.581953 -1.77398 0
M  V30 2356 C 223.477 0.902552 -1.74208 0
M  V30 2357 O 222.602 1.70584 -1.33154 0
M  V30 2358 C 223.197 -1.04961 -3.22131 0
M  V30 2359 C 221.756 -0.777229 -3.68288 0
M  V30 2360 C 220.903 -1.22109 -2.48967 0
M  V30 2361 H 223.854 -1.08754 -1.15578 0
M  V30 2362 H 223.875 -0.387387 -3.78523 0
M  V30 2363 H 223.387 -2.13008 -3.24421 0
M  V30 2364 H 221.488 0.290383 -3.71467 0
M  V30 2365 H 221.601 -1.37911 -4.58822 0
M  V30 2366 H 219.965 -0.639971 -2.46529 0
M  V30 2367 H 220.748 -2.30972 -2.53982 0
M  V30 2368 N 223.193 1.4272 -0.668489 0
M  V30 2369 C 224.604 1.84793 -0.266151 0
M  V30 2370 C 224.955 1.55959 1.19043 0
M  V30 2371 O 224.08 1.01622 1.91055 0
M  V30 2372 C 224.675 3.35436 -0.476271 0
M  V30 2373 C 223.234 3.76182 -0.128113 0
M  V30 2374 C 222.381 2.66344 -0.771777 0
M  V30 2375 H 225.332 1.32656 -0.871098 0
M  V30 2376 H 225.353 3.79515 0.273561 0
M  V30 2377 H 224.865 3.5639 -1.53647 0
M  V30 2378 H 222.966 3.60836 0.928891 0
M  V30 2379 H 223.079 4.75766 -0.564231 0
M  V30 2380 H 221.443 2.53885 -0.203652 0
M  V30 2381 H 222.226 2.90123 -1.83531 0
M  V30 2382 N 224.671 0.411399 1.52136 0
M  V30 2383 C 225.618 -0.412975 2.27075 0
M  V30 2384 C 226.588 -1.03912 1.29582 0
M  V30 2385 O 227.773 -1.06296 1.58448 0
M  V30 2386 C 224.913 -1.52247 3.09701 0
M  V30 2387 C 224.026 -0.917021 4.22155 0
M  V30 2388 C 223.161 -1.9994 4.92135 0
M  V30 2389 C 222.2 -1.37101 5.96548 0
M  V30 2390 N 221.337 -2.39364 6.60038 0
M  V30 2391 H 226.177 0.232499 2.97092 0
M  V30 2392 H 223.714 0.126496 1.46555 0
M  V30 2393 H 225.672 -2.17674 3.55913 0
M  V30 2394 H 224.302 -2.13794 2.41851 0
M  V30 2395 H 223.354 -0.151742 3.80097 0
M  V30 2396 H 224.666 -0.418006 4.97045 0
M  V30 2397 H 223.82 -2.73088 5.41763 0
M  V30 2398 H 222.559 -2.53208 4.16818 0
M  V30 2399 H 221.564 -0.624873 5.46237 0
M  V30 2400 H 222.789 -0.845998 6.7381 0
M  V30 2401 H 220.735 -2.91759 5.87548 0
M  V30 2402 H 220.652 -1.9428 7.3061 0
M  V30 2403 H 221.92 -3.12074 7.14304 0
M  V30 2404 N 226.149 -1.5696 0.141893 0
M  V30 2405 C 227.377 -2.00322 -0.517579 0
M  V30 2406 C 227.792 -1.02193 -1.58752 0
M  V30 2407 O 227.149 -0.0181619 -1.82491 0
M  V30 2408 C 227.2 -3.43618 -1.12289 0
M  V30 2409 O 226.921 -4.37995 -0.0956929 0
M  V30 2410 C 228.422 -4.02231 -1.86347 0
M  V30 2411 H 225.642 -0.657243 -0.135177 0
M  V30 2412 H 228.186 -2.03146 0.234973 0
M  V30 2413 H 226.341 -3.41662 -1.82609 0
M  V30 2414 H 226.755 -5.21729 -0.538469 0
M  V30 2415 H 228.229 -5.04509 -2.23997 0
M  V30 2416 H 228.706 -3.42655 -2.74744 0
M  V30 2417 H 229.312 -4.07802 -1.20737 0
M  V30 2418 N 227.627 0.131896 -1.57047 0
M  V30 2419 C 228.873 0.838268 -1.85323 0
M  V30 2420 C 229.228 1.78098 -0.727937 0
M  V30 2421 O 228.521 1.89645 0.27304 0
M  V30 2422 C 228.715 1.63703 -3.17704 0
M  V30 2423 C 228.544 0.773167 -4.43004 0
M  V30 2424 C 227.314 0.432956 -5.03442 0
M  V30 2425 C 229.512 0.0966216 -5.14209 0
M  V30 2426 N 227.494 -0.442924 -6.123 0
M  V30 2427 C 228.865 -0.638778 -6.16701 0
M  V30 2428 C 230.92 0.018861 -4.97896 0
M  V30 2429 C 229.623 -1.44462 -7.04644 0
M  V30 2430 C 231.649 -0.773762 -5.86316 0
M  V30 2431 C 231.011 -1.4974 -6.883 0
M  V30 2432 H 227.11 0.284086 -0.728573 0
M  V30 2433 H 229.694 0.102731 -1.94429 0
M  V30 2434 H 227.865 2.3437 -3.09718 0
M  V30 2435 H 229.597 2.28774 -3.33833 0
M  V30 2436 H 226.352 0.772237 -4.67262 0
M  V30 2437 H 226.776 -0.872332 -6.71356 0
M  V30 2438 H 231.418 0.56397 -4.19022 0
M  V30 2439 H 229.136 -2.00093 -7.82936 0
M  V30 2440 H 232.722 -0.83612 -5.75761 0
M  V30 2441 H 231.602 -2.10087 -7.55535 0
M  V30 2442 N 229.106 1.52395 0.401703 0
M  V30 2443 C 230.016 1.7917 1.51444 0
M  V30 2444 C 231.032 0.677691 1.6026 0
M  V30 2445 O 232.208 0.963909 1.76835 0
M  V30 2446 C 229.273 1.94347 2.87107 0
M  V30 2447 C 228.334 3.18257 2.88116 0
M  V30 2448 C 227.567 3.32701 4.17308 0
M  V30 2449 O 227.79 2.52238 5.11598 0
M  V30 2450 O 226.724 4.25891 4.25324 0
M  V30 2451 H 230.55 2.73633 1.31752 0
M  V30 2452 H 228.135 1.3733 0.588296 0
M  V30 2453 H 230.017 2.06109 3.67555 0
M  V30 2454 H 228.692 1.03073 3.06851 0
M  V30 2455 H 227.599 3.11947 2.06494 0
M  V30 2456 H 228.932 4.09336 2.73322 0
M  V30 2457 N 230.584 -0.659388 1.43143 0
M  V30 2458 C 231.494 -1.80167 1.50256 0
M  V30 2459 C 232.51 -1.69571 0.390106 0
M  V30 2460 O 233.686 -1.90849 0.643319 0
M  V30 2461 C 230.751 -3.16409 1.41725 0
M  V30 2462 C 229.812 -3.38848 2.63591 0
M  V30 2463 C 229.045 -4.68591 2.55458 0
M  V30 2464 O 229.268 -5.47532 1.59891 0
M  V30 2465 O 228.202 -4.92614 3.45854 0
M  V30 2466 H 232.028 -1.77121 2.46702 0
M  V30 2467 H 229.613 -0.817092 1.25076 0
M  V30 2468 H 231.495 -3.9768 1.39387 0
M  V30 2469 H 230.17 -3.20059 0.484118 0
M  V30 2470 H 229.077 -2.57366 2.71502 0
M  V30 2471 H 230.41 -3.4004 3.55856 0
M  V30 2472 N 232.062 -1.29571 -0.897171 0
M  V30 2473 C 233.311 -1.1706 -1.64256 0
M  V30 2474 C 233.624 0.276476 -1.93636 0
M  V30 2475 O 234.83 0.52294 -2.66416 0
M  V30 2476 C 233.286 -2.0475 -2.95982 0
M  V30 2477 C 232.894 -3.54295 -2.74187 0
M  V30 2478 C 234.638 -2.0097 -3.73914 0
M  V30 2479 C 232.545 -4.34081 -4.01656 0
M  V30 2480 H 231.475 -0.43452 -0.616205 0
M  V30 2481 H 234.126 -1.54229 -0.994268 0
M  V30 2482 H 232.508 -1.60452 -3.62038 0
M  V30 2483 H 233.682 -4.06662 -2.1671 0
M  V30 2484 H 231.997 -3.59773 -2.09648 0
M  V30 2485 H 234.594 -2.57838 -4.68427 0
M  V30 2486 H 234.937 -0.990273 -4.0435 0
M  V30 2487 H 235.47 -2.43325 -3.14703 0
M  V30 2488 H 232.209 -5.36671 -3.76384 0
M  V30 2489 H 231.729 -3.86483 -4.58684 0
M  V30 2490 H 233.408 -4.44877 -4.69781 0
M  V30 2491 N 233.54 1.10788 -1.12088 0
M  V30 2492 C 234.951 1.64181 -0.88891 0
M  V30 2493 C 235.302 1.87508 0.577498 0
M  V30 2494 O 234.427 1.61434 1.44112 0
M  V30 2495 C 235.022 2.98257 -1.60712 0
M  V30 2496 C 233.581 3.4853 -1.42139 0
M  V30 2497 C 232.728 2.23208 -1.6454 0
M  V30 2498 H 235.679 0.943368 -1.27618 0
M  V30 2499 H 235.7 3.65552 -1.05604 0
M  V30 2500 H 235.212 2.81246 -2.67436 0
M  V30 2501 H 233.313 3.70692 -0.376552 0
M  V30 2502 H 233.426 4.26882 -2.17505 0
M  V30 2503 H 231.79 2.31169 -1.06925 0
M  V30 2504 H 232.573 2.08733 -2.72554 0
M  V30 2505 N 235.018 0.912232 1.28515 0
M  V30 2506 C 235.981 0.404223 2.25607 0
M  V30 2507 C 236.981 -0.468602 1.53821 0
M  V30 2508 O 238.171 -0.271873 1.72065 0
M  V30 2509 C 235.303 -0.420653 3.38295 0
M  V30 2510 H 236.496 1.26188 2.7206 0
M  V30 2511 H 234.049 0.691495 1.40171 0
M  V30 2512 H 234.784 -1.29777 2.97201 0
M  V30 2513 H 234.569 0.204935 3.91564 0
M  V30 2514 H 236.059 -0.766971 4.10496 0
M  V30 2515 N 236.496 -1.42363 0.676048 0
M  V30 2516 C 237.426 -2.33497 0.0124832 0
M  V30 2517 C 238.407 -1.50748 -0.787981 0
M  V30 2518 O 239.592 -1.79346 -0.744884 0
M  V30 2519 C 236.722 -3.34377 -0.938582 0
M  V30 2520 C 235.676 -4.27289 -0.246622 0
M  V30 2521 C 235.002 -5.18386 -1.31071 0
M  V30 2522 C 236.302 -5.14916 0.875125 0
M  V30 2523 H 237.996 -2.89233 0.773593 0
M  V30 2524 H 235.542 -1.39073 0.37346 0
M  V30 2525 H 237.495 -3.97044 -1.41188 0
M  V30 2526 H 236.219 -2.76947 -1.73113 0
M  V30 2527 H 234.878 -3.66018 0.206456 0
M  V30 2528 H 234.526 -4.57282 -2.09528 0
M  V30 2529 H 234.226 -5.81378 -0.852839 0
M  V30 2530 H 235.75 -5.83929 -1.78492 0
M  V30 2531 H 237.164 -5.71262 0.482983 0
M  V30 2532 H 235.561 -5.86747 1.25887 0
M  V30 2533 H 236.631 -4.53242 1.72335 0
M  V30 2534 N 237.974 -0.419461 -1.51915 0
M  V30 2535 C 239.251 0.211999 -1.94448 0
M  V30 2536 C 239.631 1.61703 -1.35703 0
M  V30 2537 O 238.979 2.22102 -0.536931 0
M  V30 2538 C 239.189 0.207872 -3.4838 0
M  V30 2539 C 240.537 0.422192 -4.22496 0
M  V30 2540 O 241.561 0.286778 -3.55044 0
M  V30 2541 O 240.42 0.690009 -5.42126 0
M  V30 2542 H 237.514 0.139586 -0.815135 0
M  V30 2543 H 240.06 -0.476151 -1.62883 0
M  V30 2544 H 238.832 -0.775102 -3.83546 0
M  V30 2545 H 238.455 0.939688 -3.86336 0
M  V30 2546 N 239.452 1.56882 -0.150215 0
M  V30 2547 C 240.399 2.16922 0.788244 0
M  V30 2548 C 241.369 1.10303 1.24187 0
M  V30 2549 O 242.554 1.38359 1.31383 0
M  V30 2550 C 239.694 2.79754 2.02068 0
M  V30 2551 C 238.807 4.00775 1.61257 0
M  V30 2552 C 237.942 4.51595 2.79705 0
M  V30 2553 C 236.981 5.65074 2.35282 0
M  V30 2554 N 236.118 6.10499 3.4675 0
M  V30 2555 H 240.958 2.96779 0.269444 0
M  V30 2556 H 238.495 1.46599 0.12128 0
M  V30 2557 H 240.453 3.14329 2.74323 0
M  V30 2558 H 239.083 2.02536 2.51354 0
M  V30 2559 H 238.135 3.72158 0.787553 0
M  V30 2560 H 239.447 4.82978 1.24633 0
M  V30 2561 H 238.601 4.88242 3.60145 0
M  V30 2562 H 237.34 3.68406 3.19576 0
M  V30 2563 H 236.345 5.28 1.53283 0
M  V30 2564 H 237.57 6.50052 1.96493 0
M  V30 2565 H 235.516 5.30243 3.86236 0
M  V30 2566 H 235.433 6.87637 3.14152 0
M  V30 2567 H 236.701 6.51791 4.27537 0
M  V30 2568 N 240.93 -0.123565 1.57115 0
M  V30 2569 C 241.84 -1.17074 2.033 0
M  V30 2570 C 242.856 -1.4561 0.952559 0
M  V30 2571 O 244.032 -1.56817 1.26374 0
M  V30 2572 C 241.097 -2.47857 2.42421 0
M  V30 2573 C 240.158 -2.26758 3.64526 0
M  V30 2574 C 239.391 -3.51305 4.01771 0
M  V30 2575 O 239.614 -4.5843 3.39409 0
M  V30 2576 O 238.548 -3.42578 4.94898 0
M  V30 2577 H 242.374 -0.808555 2.92739 0
M  V30 2578 H 239.959 -0.334027 1.45618 0
M  V30 2579 H 241.841 -3.2492 2.68338 0
M  V30 2580 H 240.516 -2.83558 1.5613 0
M  V30 2581 H 239.423 -1.47569 3.43765 0
M  V30 2582 H 240.756 -1.95963 4.51508 0
M  V30 2583 N 242.408 -1.52605 -0.393616 0
M  V30 2584 C 243.338 -1.80022 -1.48709 0
M  V30 2585 C 244.319 -0.651995 -1.57108 0
M  V30 2586 O 245.504 -0.89913 -1.72132 0
M  V30 2587 C 242.634 -1.96492 -2.86371 0
M  V30 2588 C 241.588 -3.12161 -2.92813 0
M  V30 2589 C 240.914 -3.13877 -4.3288 0
M  V30 2590 C 242.214 -4.51322 -2.6288 0
M  V30 2591 H 243.908 -2.71589 -1.26015 0
M  V30 2592 H 241.454 -1.30684 -0.604778 0
M  V30 2593 H 243.407 -2.14255 -3.62867 0
M  V30 2594 H 242.131 -1.01611 -3.10391 0
M  V30 2595 H 240.79 -2.94173 -2.18764 0
M  V30 2596 H 240.438 -2.16687 -4.53933 0
M  V30 2597 H 240.138 -3.91576 -4.38112 0
M  V30 2598 H 241.662 -3.33789 -5.1129 0
M  V30 2599 H 243.076 -4.69435 -3.29096 0
M  V30 2600 H 241.473 -5.31053 -2.79468 0
M  V30 2601 H 242.543 -4.58353 -1.58242 0
M  V30 2602 N 243.887 0.651787 -1.4349 0
M  V30 2603 C 244.834 1.76462 -1.4876 0
M  V30 2604 C 245.804 1.62641 -0.337189 0
M  V30 2605 O 246.989 1.82864 -0.544544 0
M  V30 2606 C 244.129 3.14623 -1.41796 0
M  V30 2607 C 243.242 3.39568 -2.67053 0
M  V30 2608 C 242.377 4.67585 -2.52068 0
M  V30 2609 C 241.416 4.85639 -3.72587 0
M  V30 2610 N 240.553 6.04915 -3.56402 0
M  V30 2611 H 245.393 1.71293 -2.43849 0
M  V30 2612 H 242.93 0.835889 -1.21043 0
M  V30 2613 H 244.888 3.94496 -1.35753 0
M  V30 2614 H 243.518 3.18859 -0.50288 0
M  V30 2615 H 242.57 2.53783 -2.8337 0
M  V30 2616 H 243.882 3.48795 -3.56572 0
M  V30 2617 H 243.036 5.55586 -2.4374 0
M  V30 2618 H 241.775 4.60681 -1.60075 0
M  V30 2619 H 240.78 3.96073 -3.81321 0
M  V30 2620 H 242.005 4.94372 -4.65589 0
M  V30 2621 H 239.951 5.9914 -2.67146 0
M  V30 2622 H 239.868 6.15106 -4.39524 0
M  V30 2623 H 241.136 6.95533 -3.51929 0
M  V30 2624 N 245.365 1.30045 0.890287 0
M  V30 2625 C 246.328 1.15963 1.977 0
M  V30 2626 C 247.328 0.0923777 1.60534 0
M  V30 2627 O 248.518 0.340071 1.70848 0
M  V30 2628 C 245.65 0.775451 3.31963 0
M  V30 2629 H 246.843 2.12502 2.11619 0
M  V30 2630 H 244.396 1.13366 1.07601 0
M  V30 2631 H 245.131 -0.189671 3.23745 0
M  V30 2632 H 244.916 1.54668 3.60306 0
M  V30 2633 H 246.406 0.700251 4.11687 0
M  V30 2634 N 246.843 -1.10192 1.12674 0
M  V30 2635 C 247.79 -2.16606 0.796906 0
M  V30 2636 C 248.76 -1.64394 -0.237476 0
M  V30 2637 O 249.945 -1.90474 -0.111484 0
M  V30 2638 C 247.085 -3.44116 0.26043 0
M  V30 2639 C 246.198 -4.10268 1.35293 0
M  V30 2640 C 245.333 -5.25507 0.775621 0
M  V30 2641 C 244.372 -5.83567 1.84706 0
M  V30 2642 N 243.509 -6.90179 1.28829 0
M  V30 2643 H 248.349 -2.44163 1.70846 0
M  V30 2644 H 245.886 -1.19846 0.85295 0
M  V30 2645 H 247.844 -4.17143 -0.0686814 0
M  V30 2646 H 246.474 -3.16901 -0.614274 0
M  V30 2647 H 245.526 -3.35184 1.79877 0
M  V30 2648 H 246.838 -4.4946 2.16303 0
M  V30 2649 H 245.992 -6.05398 0.397327 0
M  V30 2650 H 244.731 -4.87656 -0.0656581 0
M  V30 2651 H 243.736 -5.02344 2.23452 0
M  V30 2652 H 244.961 -6.23482 2.69161 0
M  V30 2653 H 242.907 -6.54322 0.468881 0
M  V30 2654 H 242.824 -7.28097 2.03497 0
M  V30 2655 H 244.092 -7.73844 0.937311 0
M  V30 2656 N 248.321 -0.919034 -1.28029 0
M  V30 2657 C 249.569 -0.553838 -1.94363 0
M  V30 2658 C 249.89 0.906357 -1.72656 0
M  V30 2659 O 249.16 1.64143 -1.0693 0
M  V30 2660 H 247.74 -0.201834 -0.719216 0
M  V30 2661 H 250.402 -1.16954 -1.55909 0
M  V30 2662 H 249.498 -0.752758 -3.02886 0
M  V30 2663 N 249.799 1.42003 -0.683588 0
M  V30 2664 C 250.746 2.30798 -0.0107309 0
M  V30 2665 C 251.716 1.4645 0.783688 0
M  V30 2666 O 252.901 1.75263 0.754156 0
M  V30 2667 C 250.041 3.3238 0.928306 0
M  V30 2668 C 249.154 4.31814 0.126776 0
M  V30 2669 C 248.289 5.20468 1.06236 0
M  V30 2670 C 247.328 6.11577 0.253035 0
M  V30 2671 N 246.465 6.92754 1.14179 0
M  V30 2672 H 251.305 2.8778 -0.773727 0
M  V30 2673 H 248.842 1.41745 -0.393283 0
M  V30 2674 H 250.8 3.89813 1.48666 0
M  V30 2675 H 249.43 2.76976 1.65783 0
M  V30 2676 H 248.482 3.76427 -0.54833 0
M  V30 2677 H 249.794 4.96276 -0.501192 0
M  V30 2678 H 248.948 5.82677 1.69035 0
M  V30 2679 H 247.687 4.56204 1.7242 0
M  V30 2680 H 246.692 5.48428 -0.388108 0
M  V30 2681 H 247.917 6.77892 -0.404839 0
M  V30 2682 H 245.863 6.3111 1.78987 0
M  V30 2683 H 245.78 7.53855 0.569111 0
M  V30 2684 H 247.048 7.59441 1.75697 0
M  V30 2685 N 251.277 0.427512 1.51691 0
M  V30 2686 C 252.502 -0.143601 2.06902 0
M  V30 2687 C 252.927 -1.36536 1.29382 0
M  V30 2688 O 252.285 -1.78289 0.329043 0
M  V30 2689 C 252.333 -0.454207 3.57728 0
M  V30 2690 O 251.437 -1.54228 3.82475 0
M  V30 2691 H 250.778 -0.00617128 0.663971 0
M  V30 2692 H 253.308 0.606014 1.95419 0
M  V30 2693 H 253.318 -0.707525 4.01818 0
M  V30 2694 H 251.993 0.438812 4.13579 0
M  V30 2695 H 250.57 -1.2797 3.50254 0
M  V30 2696 N 252.755 -1.56801 0.158532 0
M  V30 2697 C 253.718 -2.16138 -0.762705 0
M  V30 2698 C 254.718 -1.1061 -1.16713 0
M  V30 2699 O 255.908 -1.36191 -1.08617 0
M  V30 2700 C 253.04 -2.73386 -2.03649 0
M  V30 2701 H 254.233 -2.98886 -0.246354 0
M  V30 2702 H 251.786 -1.56035 -0.0909744 0
M  V30 2703 H 252.521 -1.94335 -2.59623 0
M  V30 2704 H 252.306 -3.50601 -1.75559 0
M  V30 2705 H 253.796 -3.19065 -2.6942 0
M  V30 2706 N 254.233 0.115231 -1.57178 0
M  V30 2707 C 255.163 1.1423 -2.03651 0
M  V30 2708 C 256.144 1.42967 -0.921655 0
M  V30 2709 O 257.329 1.53343 -1.19162 0
M  V30 2710 C 254.459 2.4675 -2.44401 0
M  V30 2711 C 253.413 2.32467 -3.59365 0
M  V30 2712 C 252.739 3.69984 -3.86026 0
M  V30 2713 C 254.039 1.78203 -4.90959 0
M  V30 2714 H 255.733 0.755749 -2.89705 0
M  V30 2715 H 253.279 0.362093 -1.39373 0
M  V30 2716 H 255.232 3.18854 -2.75517 0
M  V30 2717 H 253.956 2.87302 -1.55322 0
M  V30 2718 H 252.615 1.62811 -3.28463 0
M  V30 2719 H 252.263 4.08028 -2.94147 0
M  V30 2720 H 251.963 3.61279 -4.63412 0
M  V30 2721 H 253.487 4.43587 -4.19599 0
M  V30 2722 H 254.901 2.40128 -5.20587 0
M  V30 2723 H 253.298 1.8031 -5.72371 0
M  V30 2724 H 254.368 0.739876 -4.79222 0
M  V30 2725 N 255.711 1.52812 0.385517 0
M  V30 2726 C 256.644 1.72592 1.49289 0
M  V30 2727 C 257.622 0.573819 1.52138 0
M  V30 2728 O 258.806 0.80404 1.70492 0
M  V30 2729 C 255.933 1.78669 2.87741 0
M  V30 2730 C 254.979 3.00455 3.02703 0
M  V30 2731 S 255.812 4.60366 2.73538 0
M  V30 2732 C 256.968 4.69263 4.14177 0
M  V30 2733 H 257.201 2.66248 1.32285 0
M  V30 2734 H 254.734 1.43148 0.578611 0
M  V30 2735 H 256.692 1.82855 3.67524 0
M  V30 2736 H 255.353 0.861 3.02069 0
M  V30 2737 H 254.546 3.01258 4.04054 0
M  V30 2738 H 254.148 2.94278 2.30817 0
M  V30 2739 H 256.44 4.48092 5.08153 0
M  V30 2740 H 257.383 5.71276 4.18388 0
M  V30 2741 H 257.791 3.98072 4.00249 0
M  V30 2742 N 257.189 -0.644168 1.43834 0
M  V30 2743 C 258.436 -1.40395 1.4593 0
M  V30 2744 C 258.764 -1.94305 0.0869658 0
M  V30 2745 O 258.019 -1.73288 -0.909378 0
M  V30 2746 C 258.318 -2.59615 2.45631 0
M  V30 2747 C 257.984 -2.2407 3.91284 0
M  V30 2748 C 256.646 -2.14089 4.30952 0
M  V30 2749 C 258.998 -1.95775 4.83034 0
M  V30 2750 C 256.326 -1.73981 5.6031 0
M  V30 2751 C 258.678 -1.57163 6.12766 0
M  V30 2752 C 257.342 -1.45713 6.51402 0
M  V30 2753 H 256.612 -0.513741 0.533995 0
M  V30 2754 H 259.259 -0.731724 1.76969 0
M  V30 2755 H 257.564 -3.32011 2.08028 0
M  V30 2756 H 259.261 -3.17834 2.44504 0
M  V30 2757 H 255.851 -2.32753 3.59895 0
M  V30 2758 H 260.035 -2.02403 4.53152 0
M  V30 2759 H 255.291 -1.63709 5.89075 0
M  V30 2760 H 259.465 -1.34303 6.83327 0
M  V30 2761 H 257.092 -1.14406 7.51542 0
M  V30 2762 N 258.668 -1.30515 -0.883378 0
M  V30 2763 C 259.616 -1.16941 -2.01066 0
M  V30 2764 C 260.61 -0.0809148 -1.69207 0
M  V30 2765 O 261.816 -0.241877 -1.78367 0
M  V30 2766 H 258.191 -0.361705 -0.659298 0
M  V30 2767 H 260.162 -2.12344 -2.09649 0
M  V30 2768 C 258.911 -0.879694 -3.36388 0
M  V30 2769 H 258.234 -1.70936 -3.61415 0
M  V30 2770 H 259.674 -0.82483 -4.159 0
M  V30 2771 C 258.133 0.417409 -3.34304 0
M  V30 2772 O 258.663 1.43843 -3.75063 0
M  V30 2773 N 256.869 0.429141 -2.87414 0
M  V30 2774 H 256.416 -0.402222 -2.5444 0
M  V30 2775 H 256.374 1.29696 -2.86403 0
M  V30 2776 N 260.146 1.09593 -1.13257 0
M  V30 2777 C 261.076 2.18214 -0.830946 0
M  V30 2778 C 262.057 1.68812 0.208966 0
M  V30 2779 O 263.242 1.9408 0.0682666 0
M  V30 2780 C 260.372 3.46051 -0.294296 0
M  V30 2781 C 259.326 4.08778 -1.26826 0
M  V30 2782 C 258.652 5.31419 -0.591449 0
M  V30 2783 C 259.952 4.51476 -2.62615 0
M  V30 2784 H 261.646 2.43703 -1.73923 0
M  V30 2785 H 259.192 1.17128 -0.837675 0
M  V30 2786 H 261.145 4.2134 -0.0709606 0
M  V30 2787 H 259.869 3.20079 0.649366 0
M  V30 2788 H 258.528 3.35505 -1.47756 0
M  V30 2789 H 258.176 5.01727 0.357633 0
M  V30 2790 H 257.876 5.74341 -1.24123 0
M  V30 2791 H 259.4 6.09433 -0.377355 0
M  V30 2792 H 260.814 5.17999 -2.45663 0
M  V30 2793 H 259.211 5.05277 -3.23752 0
M  V30 2794 H 260.281 3.63962 -3.20406 0
M  V30 2795 N 261.624 0.925811 1.2754 0
M  V30 2796 C 262.556 0.380753 2.26015 0
M  V30 2797 C 263.569 -0.487485 1.5533 0
M  V30 2798 O 264.758 -0.300413 1.75954 0
M  V30 2799 C 261.858 -0.473259 3.35579 0
M  V30 2800 C 261.031 0.375249 4.35787 0
M  V30 2801 C 260.09 -0.415809 5.24555 0
M  V30 2802 O 259.116 0.175834 5.68928 0
M  V30 2803 N 260.318 -1.71607 5.54555 0
M  V30 2804 H 263.083 1.22725 2.73421 0
M  V30 2805 H 260.644 0.793037 1.41147 0
M  V30 2806 H 262.636 -1.00949 3.91907 0
M  V30 2807 H 261.206 -1.2205 2.87789 0
M  V30 2808 H 260.426 1.09279 3.7875 0
M  V30 2809 H 261.714 0.955399 4.99749 0
M  V30 2810 H 261.112 -2.2191 5.20358 0
M  V30 2811 H 259.669 -2.19887 6.1359 0
M  V30 2812 N 263.102 -1.41638 0.69111 0
M  V30 2813 C 264.012 -2.34588 0.0233487 0
M  V30 2814 C 265.028 -1.55987 -0.770984 0
M  V30 2815 O 266.204 -1.88486 -0.709569 0
M  V30 2816 C 263.269 -3.34684 -0.904851 0
M  V30 2817 C 262.33 -4.29176 -0.103225 0
M  V30 2818 C 261.563 -5.2449 -0.987216 0
M  V30 2819 O 261.786 -5.2514 -2.22674 0
M  V30 2820 O 260.72 -6.00295 -0.439281 0
M  V30 2821 H 264.546 -2.93261 0.789416 0
M  V30 2822 H 262.131 -1.42417 0.45142 0
M  V30 2823 H 264.013 -3.96133 -1.43724 0
M  V30 2824 H 262.688 -2.78461 -1.65049 0
M  V30 2825 H 261.595 -3.71089 0.473655 0
M  V30 2826 H 262.928 -4.88484 0.60365 0
M  V30 2827 N 264.58 -0.43555 -1.51462 0
M  V30 2828 C 265.991 0.0279871 -1.86679 0
M  V30 2829 C 266.342 1.42104 -1.35281 0
M  V30 2830 O 265.467 2.04667 -0.702878 0
M  V30 2831 C 266.062 0.0575626 -3.38751 0
M  V30 2832 C 264.621 0.465507 -3.7351 0
M  V30 2833 C 263.768 -0.342996 -2.75171 0
M  V30 2834 H 266.719 -0.651473 -1.44712 0
M  V30 2835 H 266.74 0.867421 -3.70481 0
M  V30 2836 H 266.252 -0.956448 -3.7613 0
M  V30 2837 H 264.353 1.48519 -3.41721 0
M  V30 2838 H 264.466 0.191546 -4.78717 0
M  V30 2839 H 262.83 0.198442 -2.53926 0
M  V30 2840 H 263.613 -1.35585 -3.15391 0
M  V30 2841 N 266.058 1.56714 -0.166846 0
M  V30 2842 C 267.288 2.00828 0.48494 0
M  V30 2843 C 267.696 1.04612 1.57648 0
M  V30 2844 O 267.039 0.0383201 1.8366 0
M  V30 2845 C 267.101 3.4137 1.12723 0
M  V30 2846 C 266.765 4.56654 0.177886 0
M  V30 2847 C 267.762 5.16402 -0.60207 0
M  V30 2848 C 265.447 5.02244 0.0750139 0
M  V30 2849 C 267.441 6.20167 -1.47215 0
M  V30 2850 C 265.128 6.05859 -0.798649 0
M  V30 2851 C 266.126 6.64691 -1.57082 0
M  V30 2852 O 265.814 7.66297 -2.42989 0
M  V30 2853 H 265.546 0.663587 0.128953 0
M  V30 2854 H 268.1 2.03692 -0.264365 0
M  V30 2855 H 266.33 3.35406 1.92457 0
M  V30 2856 H 268.019 3.69466 1.68076 0
M  V30 2857 H 268.785 4.82065 -0.53274 0
M  V30 2858 H 264.664 4.56167 0.665812 0
M  V30 2859 H 268.208 6.66016 -2.07531 0
M  V30 2860 H 264.105 6.39621 -0.869199 0
M  V30 2861 H 264.873 7.83601 -2.36455 0
M  V30 2862 N 267.536 -0.106894 1.57237 0
M  V30 2863 C 268.783 -0.812526 1.85484 0
M  V30 2864 C 269.111 -1.79304 0.753687 0
M  V30 2865 O 268.366 -1.94047 -0.253853 0
M  V30 2866 C 268.665 -1.58628 3.20268 0
M  V30 2867 C 268.331 -0.748967 4.44636 0
M  V30 2868 C 266.993 -0.518104 4.78403 0
M  V30 2869 C 269.345 -0.166122 5.20935 0
M  V30 2870 C 266.673 0.305659 5.85903 0
M  V30 2871 C 269.025 0.644899 6.29304 0
M  V30 2872 C 267.689 0.885965 6.61594 0
M  V30 2873 H 266.959 -0.297324 0.678734 0
M  V30 2874 H 269.606 -0.0744332 1.91355 0
M  V30 2875 H 267.911 -2.39562 3.10028 0
M  V30 2876 H 269.608 -2.13643 3.39349 0
M  V30 2877 H 266.198 -0.939006 4.18187 0
M  V30 2878 H 270.382 -0.33167 4.95191 0
M  V30 2879 H 265.638 0.501528 6.0934 0
M  V30 2880 H 269.812 1.10345 6.87602 0
M  V30 2881 H 267.439 1.52609 7.44725 0
M  V30 2882 N 269.014 -1.53014 -0.377408 0
M  V30 2883 C 270.242 -1.72515 -1.14219 0
M  V30 2884 C 270.657 -0.448735 -1.8339 0
M  V30 2885 O 270.014 0.577592 -1.73119 0
M  V30 2886 C 270.065 -2.8826 -2.18148 0
M  V30 2887 O 269.786 -4.10962 -1.51795 0
M  V30 2888 C 271.287 -3.19536 -3.07264 0
M  V30 2889 H 268.507 -0.577301 -0.342001 0
M  V30 2890 H 271.051 -1.99712 -0.439935 0
M  V30 2891 H 269.206 -2.63492 -2.83991 0
M  V30 2892 H 269.62 -4.75693 -2.20945 0
M  V30 2893 H 271.094 -4.03959 -3.76193 0
M  V30 2894 H 271.571 -2.34403 -3.71419 0
M  V30 2895 H 272.177 -3.46186 -2.47053 0
M  V30 2896 N 270.492 0.636531 -1.44174 0
M  V30 2897 C 271.738 1.39649 -1.47884 0
M  V30 2898 C 272.093 1.92098 -0.107747 0
M  V30 2899 O 271.386 1.70391 0.876208 0
M  V30 2900 C 271.58 2.58309 -2.47005 0
M  V30 2901 C 271.409 2.17476 -3.93617 0
M  V30 2902 C 270.179 2.0501 -4.61843 0
M  V30 2903 C 272.377 1.76722 -4.82984 0
M  V30 2904 N 270.359 1.57683 -5.93304 0
M  V30 2905 C 271.73 1.40601 -6.03847 0
M  V30 2906 C 273.785 1.64054 -4.70096 0
M  V30 2907 C 272.488 0.930787 -7.13252 0
M  V30 2908 C 274.514 1.17937 -5.79521 0
M  V30 2909 C 273.876 0.827625 -6.99521 0
M  V30 2910 H 269.975 0.506027 -0.596205 0
M  V30 2911 H 272.559 0.730791 -1.80465 0
M  V30 2912 H 270.73 3.22514 -2.16423 0
M  V30 2913 H 272.462 3.25083 -2.41045 0
M  V30 2914 H 269.217 2.25294 -4.16581 0
M  V30 2915 H 269.641 1.36334 -6.63131 0
M  V30 2916 H 274.283 1.89882 -3.77762 0
M  V30 2917 H 272.001 0.660012 -8.054 0
M  V30 2918 H 275.587 1.08601 -5.71574 0
M  V30 2919 H 274.467 0.476231 -7.82753 0
M  V30 2920 N 271.97 1.30982 0.876444 0
M  V30 2921 C 273.381 1.18277 1.44456 0
M  V30 2922 C 273.732 -0.213265 1.95037 0
M  V30 2923 O 272.857 -1.11057 1.85729 0
M  V30 2924 C 273.452 2.1411 2.62569 0
M  V30 2925 C 272.011 2.05358 3.15444 0
M  V30 2926 C 271.158 2.03706 1.88146 0
M  V30 2927 H 274.109 1.43127 0.685584 0
M  V30 2928 H 274.13 1.72692 3.39054 0
M  V30 2929 H 273.642 3.15706 2.25724 0
M  V30 2930 H 271.743 1.06934 3.56926 0
M  V30 2931 H 271.856 2.94156 3.78166 0
M  V30 2932 H 270.22 1.48629 2.06837 0
M  V30 2933 H 271.003 3.07047 1.53547 0
M  V30 2934 N 273.449 -1.08991 1.13837 0
M  V30 2935 C 274.379 -2.17771 0.842507 0
M  V30 2936 C 275.36 -1.6892 -0.20001 0
M  V30 2937 O 276.545 -1.94113 -0.0579731 0
M  V30 2938 C 273.675 -3.4589 0.312644 0
M  V30 2939 C 272.629 -4.08099 1.28992 0
M  V30 2940 C 271.955 -5.31098 0.619623 0
M  V30 2941 C 273.255 -4.50077 2.65005 0
M  V30 2942 H 274.949 -2.42777 1.75213 0
M  V30 2943 H 272.495 -1.16682 0.843875 0
M  V30 2944 H 274.448 -4.21297 0.0933043 0
M  V30 2945 H 273.172 -3.20419 -0.632382 0
M  V30 2946 H 271.831 -3.34717 1.49533 0
M  V30 2947 H 271.479 -5.0191 -0.33102 0
M  V30 2948 H 271.179 -5.73674 1.27167 0
M  V30 2949 H 272.703 -6.09224 0.409669 0
M  V30 2950 H 274.117 -5.16688 2.48407 0
M  V30 2951 H 272.514 -5.03553 3.26427 0
M  V30 2952 H 273.584 -3.62257 3.22332 0
M  V30 2953 N 274.927 -0.932562 -1.27047 0
M  V30 2954 C 276.176 -0.571351 -1.93439 0
M  V30 2955 C 276.489 0.892467 -1.74053 0
M  V30 2956 O 277.695 1.36267 -2.34826 0
M  V30 2957 C 276.151 -0.97106 -3.46552 0
M  V30 2958 C 275.759 -2.4559 -3.74686 0
M  V30 2959 C 277.503 -0.681333 -4.18997 0
M  V30 2960 C 275.41 -2.79475 -5.21198 0
M  V30 2961 H 274.34 -0.209966 -0.724176 0
M  V30 2962 H 276.991 -1.13403 -1.44263 0
M  V30 2963 H 275.373 -0.336983 -3.94564 0
M  V30 2964 H 276.547 -3.13829 -3.37414 0
M  V30 2965 H 274.862 -2.71802 -3.15456 0
M  V30 2966 H 277.459 -0.910939 -5.26883 0
M  V30 2967 H 277.802 0.381628 -4.14547 0
M  V30 2968 H 278.335 -1.27473 -3.76823 0
M  V30 2969 H 275.074 -3.847 -5.30741 0
M  V30 2970 H 274.594 -2.1589 -5.596 0
M  V30 2971 H 276.273 -2.67478 -5.89122 0
M  V30 2972 N 276.405 1.4127 -0.698611 0
M  V30 2973 C 277.368 2.29158 -0.044132 0
M  V30 2974 C 278.368 1.44529 0.704841 0
M  V30 2975 O 279.558 1.65643 0.539276 0
M  V30 2976 C 276.69 3.27459 0.947809 0
M  V30 2977 H 277.883 2.88529 -0.817994 0
M  V30 2978 H 275.436 1.49307 -0.46228 0
M  V30 2979 H 276.171 2.73073 1.74933 0
M  V30 2980 H 275.956 3.8991 0.41385 0
M  V30 2981 H 277.446 3.93311 1.40344 0
M  V30 2982 N 277.883 0.443576 1.51229 0
M  V30 2983 C 278.846 -0.353132 2.26463 0
M  V30 2984 C 279.846 -0.944338 1.3015 0
M  V30 2985 O 281.036 -0.817813 1.5381 0
M  V30 2986 C 278.168 -1.50023 3.06114 0
M  V30 2987 H 279.361 0.3063 2.98332 0
M  V30 2988 H 276.914 0.196902 1.55055 0
M  V30 2989 H 277.649 -2.19553 2.38677 0
M  V30 2990 H 277.434 -1.08241 3.76864 0
M  V30 2991 H 278.924 -2.06296 3.63087 0
M  V30 2992 N 279.361 -1.56624 0.175154 0
M  V30 2993 C 280.638 -1.88688 -0.515373 0
M  V30 2994 C 281.018 -1.08564 -1.81044 0
M  V30 2995 O 280.366 -0.180703 -2.27784 0
M  V30 2996 C 280.576 -3.40768 -0.753552 0
M  V30 2997 C 281.924 -4.10587 -1.08184 0
M  V30 2998 O 282.948 -3.46106 -0.841961 0
M  V30 2999 O 281.807 -5.24512 -1.53459 0
M  V30 3000 H 278.901 -0.78301 -0.26613 0
M  V30 3001 H 281.447 -1.68347 0.213877 0
M  V30 3002 H 280.219 -3.90965 0.161829 0
M  V30 3003 H 279.842 -3.66733 -1.53598 0
M  V30 3004 N 280.839 0.0985539 -1.57292 0
M  V30 3005 C 282.087 0.801092 -1.85545 0
M  V30 3006 C 282.408 1.79438 -0.763353 0
M  V30 3007 O 281.678 1.94763 0.21073 0
M  V30 3008 H 280.258 0.29884 -0.684619 0
M  V30 3009 H 282.92 0.0810064 -1.94732 0
M  V30 3010 H 282.016 1.3338 -2.82163 0
M  V30 3011 N 282.317 1.53212 0.369288 0
M  V30 3012 C 283.565 1.68881 1.11012 0
M  V30 3013 C 283.886 0.441285 1.89941 0
M  V30 3014 O 283.156 -0.544623 1.88177 0
M  V30 3015 H 281.736 0.622569 0.412816 0
M  V30 3016 H 284.398 1.90391 0.416802 0
M  V30 3017 H 283.494 2.54822 1.80201 0
M  V30 3018 N 283.795 -0.628877 1.44509 0
M  V30 3019 C 285.025 -1.41349 1.50678 0
M  V30 3020 C 285.433 -1.88745 0.131075 0
M  V30 3021 O 284.776 -1.61592 -0.87371 0
M  V30 3022 C 284.838 -2.66608 2.41165 0
M  V30 3023 C 284.502 -2.40993 3.88293 0
M  V30 3024 C 285.499 -2.0268 4.78766 0
M  V30 3025 C 283.184 -2.54563 4.33016 0
M  V30 3026 C 285.178 -1.78269 6.11963 0
M  V30 3027 C 282.865 -2.29766 5.6626 0
M  V30 3028 C 283.863 -1.91678 6.55552 0
M  V30 3029 O 283.551 -1.67158 7.86329 0
M  V30 3030 H 283.283 -0.439851 0.51333 0
M  V30 3031 H 285.837 -0.776084 1.90174 0
M  V30 3032 H 284.067 -3.32994 1.96601 0
M  V30 3033 H 285.756 -3.28615 2.38259 0
M  V30 3034 H 286.522 -1.91751 4.45485 0
M  V30 3035 H 282.401 -2.83179 3.63773 0
M  V30 3036 H 285.945 -1.48465 6.81619 0
M  V30 3037 H 281.842 -2.40306 5.99102 0
M  V30 3038 H 282.61 -1.81386 7.98149 0
M  V30 3039 N 285.273 -1.31445 -0.869486 0
M  V30 3040 C 286.236 -1.19094 -1.9583 0
M  V30 3041 C 287.236 -0.117906 -1.60367 0
M  V30 3042 O 288.426 -0.367208 -1.70286 0
M  V30 3043 C 285.558 -0.828165 -3.30688 0
M  V30 3044 H 286.751 -2.15842 -2.08212 0
M  V30 3045 H 284.304 -1.15063 -1.05784 0
M  V30 3046 H 285.039 0.138142 -3.24006 0
M  V30 3047 H 284.824 -1.6038 -3.578 0
M  V30 3048 H 286.314 -0.765658 -4.10521 0
M  V30 3049 N 286.751 1.08385 -1.14413 0
M  V30 3050 C 287.998 1.80776 -0.912482 0
M  V30 3051 C 288.326 1.86236 0.560934 0
M  V30 3052 O 287.581 1.33431 1.43159 0
M  V30 3053 C 287.88 3.26273 -1.45879 0
M  V30 3054 C 287.546 3.4093 -2.95089 0
M  V30 3055 C 286.208 3.44638 -3.35824 0
M  V30 3056 C 288.56 3.44591 -3.91033 0
M  V30 3057 C 285.888 3.49597 -4.71167 0
M  V30 3058 C 288.24 3.51086 -5.26233 0
M  V30 3059 C 286.904 3.53067 -5.6648 0
M  V30 3060 H 286.174 0.661507 -0.333901 0
M  V30 3061 H 288.821 1.27613 -1.42784 0
M  V30 3062 H 287.126 3.82146 -0.864376 0
M  V30 3063 H 288.823 3.80839 -1.2555 0
M  V30 3064 H 285.413 3.38736 -2.62594 0
M  V30 3065 H 289.597 3.40957 -3.60641 0
M  V30 3066 H 284.853 3.49424 -5.0171 0
M  V30 3067 H 289.027 3.52864 -6.00383 0
M  V30 3068 H 286.654 3.56662 -6.71339 0
M  V30 3069 N 288.23 0.939286 1.26551 0
M  V30 3070 C 289.177 0.446088 2.26448 0
M  V30 3071 C 290.147 -0.493234 1.58608 0
M  V30 3072 O 291.332 -0.409857 1.86346 0
M  V30 3073 C 288.472 -0.284375 3.43926 0
M  V30 3074 C 287.585 0.690399 4.26448 0
M  V30 3075 C 286.72 -0.0610712 5.31165 0
M  V30 3076 C 285.759 0.905649 6.05363 0
M  V30 3077 N 284.896 0.186055 7.01853 0
M  V30 3078 H 289.736 1.30291 2.68008 0
M  V30 3079 H 287.273 0.65371 1.31776 0
M  V30 3080 H 289.231 -0.724313 4.10864 0
M  V30 3081 H 287.861 -1.10535 3.03285 0
M  V30 3082 H 286.913 1.24885 3.59316 0
M  V30 3083 H 288.225 1.42873 4.779 0
M  V30 3084 H 287.379 -0.56038 6.04106 0
M  V30 3085 H 286.118 -0.832297 4.80546 0
M  V30 3086 H 285.123 1.4161 5.3125 0
M  V30 3087 H 286.348 1.67685 6.58072 0
M  V30 3088 H 284.294 -0.566714 6.53548 0
M  V30 3089 H 284.211 0.863752 7.51049 0
M  V30 3090 H 285.479 -0.292221 7.78952 0
M  V30 3091 N 289.708 -1.40897 0.706093 0
M  V30 3092 C 290.938 -2.05075 0.250523 0
M  V30 3093 C 291.346 -1.53275 -1.10921 0
M  V30 3094 O 290.689 -0.680281 -1.7064 0
M  V30 3095 C 290.751 -3.59219 0.142178 0
M  V30 3096 C 290.415 -4.33864 1.43566 0
M  V30 3097 C 291.412 -4.62448 2.37566 0
M  V30 3098 C 289.097 -4.72946 1.69195 0
M  V30 3099 C 291.091 -5.29088 3.5545 0
M  V30 3100 C 288.778 -5.3932 2.87362 0
M  V30 3101 C 289.776 -5.6732 3.80312 0
M  V30 3102 O 289.464 -6.32325 4.96408 0
M  V30 3103 H 289.196 -0.666645 0.112074 0
M  V30 3104 H 291.75 -1.81467 0.962239 0
M  V30 3105 H 289.98 -3.81609 -0.6254 0
M  V30 3106 H 291.669 -4.0495 -0.277584 0
M  V30 3107 H 292.435 -4.32727 2.19027 0
M  V30 3108 H 288.314 -4.50527 0.977042 0
M  V30 3109 H 291.858 -5.50859 4.28018 0
M  V30 3110 H 287.755 -5.68461 3.05814 0
M  V30 3111 H 288.523 -6.50821 4.9636 0
M  V30 3112 N 291.186 -0.45159 -1.50991 0
M  V30 3113 C 292.096 0.358431 -2.31846 0
M  V30 3114 C 293.112 1.01438 -1.41373 0
M  V30 3115 O 294.288 1.00663 -1.74439 0
M  V30 3116 C 291.353 1.43704 -3.15515 0
M  V30 3117 C 290.414 0.799742 -4.21785 0
M  V30 3118 C 289.647 1.82696 -5.01456 0
M  V30 3119 O 289.87 3.05105 -4.81941 0
M  V30 3120 O 288.804 1.40958 -5.85162 0
M  V30 3121 H 292.63 -0.302032 -3.02194 0
M  V30 3122 H 290.215 -0.213825 -1.47862 0
M  V30 3123 H 292.097 2.06227 -3.67489 0
M  V30 3124 H 290.772 2.08133 -2.47916 0
M  V30 3125 H 289.679 0.136084 -3.73852 0
M  V30 3126 H 291.012 0.198718 -4.91799 0
M  V30 3127 N 292.664 1.56529 -0.183458 0
M  V30 3128 C 293.612 2.19873 0.758845 0
M  V30 3129 C 294.606 1.16638 1.22849 0
M  V30 3130 O 295.812 1.3481 1.19274 0
M  V30 3131 H 292.187 0.7045 0.263029 0
M  V30 3132 H 294.158 2.97724 0.200755 0
M  V30 3133 C 292.907 2.86314 1.9728 0
M  V30 3134 H 292.23 3.65487 1.62047 0
M  V30 3135 H 293.67 3.3409 2.61075 0
M  V30 3136 C 292.129 1.86729 2.80418 0
M  V30 3137 O 292.659 1.36031 3.77966 0
M  V30 3138 N 290.865 1.55216 2.45675 0
M  V30 3139 H 290.412 1.96636 1.66409 0
M  V30 3140 H 290.37 0.888388 3.01588 0
M  V30 3141 N 294.142 -0.090211 1.57342 0
M  V30 3142 C 295.39 -0.791241 1.85967 0
M  V30 3143 C 295.711 -1.7903 0.772859 0
M  V30 3144 O 294.981 -1.94872 -0.200398 0
M  V30 3145 H 293.561 -0.295205 0.686195 0
M  V30 3146 H 296.223 -0.0706782 1.94772 0
M  V30 3147 H 295.319 -1.31882 2.82867 0
M  V30 3148 N 295.62 -1.53406 -0.361157 0
M  V30 3149 C 296.567 -1.80156 -1.44265 0
M  V30 3150 C 297.537 -0.646183 -1.53015 0
M  V30 3151 O 298.722 -0.888818 -1.68833 0
M  V30 3152 C 295.862 -2.00116 -2.81154 0
M  V30 3153 C 294.975 -3.27833 -2.81335 0
M  V30 3154 C 294.11 -3.37957 -4.09828 0
M  V30 3155 C 293.149 -4.59689 -4.04168 0
M  V30 3156 N 292.286 -4.66942 -5.24318 0
M  V30 3157 H 297.126 -2.72438 -1.20754 0
M  V30 3158 H 294.663 -1.34954 -0.585296 0
M  V30 3159 H 296.621 -2.09677 -3.60682 0
M  V30 3160 H 295.251 -1.11167 -3.03054 0
M  V30 3161 H 294.303 -3.27204 -1.94014 0
M  V30 3162 H 295.615 -4.17442 -2.73027 0
M  V30 3163 H 294.769 -3.46853 -4.97773 0
M  V30 3164 H 293.508 -2.46372 -4.20894 0
M  V30 3165 H 292.513 -4.50889 -3.14609 0
M  V30 3166 H 293.738 -5.5262 -3.947 0
M  V30 3167 H 291.684 -3.7826 -5.35962 0
M  V30 3168 H 291.601 -5.50462 -5.18197 0
M  V30 3169 H 292.869 -4.80127 -6.14084 0
M  V30 3170 N 297.098 0.621204 -1.44841 0
M  V30 3171 C 298.328 1.40548 -1.51426 0
M  V30 3172 C 298.736 1.88673 -0.141083 0
M  V30 3173 O 298.079 1.62053 0.865128 0
M  V30 3174 C 298.141 2.65325 -2.42576 0
M  V30 3175 C 297.805 2.3893 -3.89566 0
M  V30 3176 C 298.802 2.00138 -4.79834 0
M  V30 3177 C 296.487 2.52263 -4.3436 0
M  V30 3178 C 298.481 1.75021 -6.129 0
M  V30 3179 C 296.168 2.2676 -5.67471 0
M  V30 3180 C 297.166 1.88199 -6.56559 0
M  V30 3181 O 296.854 1.62986 -7.87204 0
M  V30 3182 H 296.586 0.437122 -0.515655 0
M  V30 3183 H 299.14 0.765987 -1.90583 0
M  V30 3184 H 297.37 3.31947 -1.98364 0
M  V30 3185 H 299.059 3.27347 -2.39998 0
M  V30 3186 H 299.825 1.89386 -4.46495 0
M  V30 3187 H 295.704 2.81246 -3.65269 0
M  V30 3188 H 299.248 1.44848 -6.82396 0
M  V30 3189 H 295.145 2.37125 -6.00368 0
M  V30 3190 H 295.913 1.7715 -7.991 0
M  V30 3191 N 298.576 1.31904 0.862503 0
M  V30 3192 C 299.853 1.12644 1.59908 0
M  V30 3193 C 300.233 -0.316104 2.0872 0
M  V30 3194 O 299.581 -1.31145 1.87118 0
M  V30 3195 C 299.791 2.1472 2.7513 0
M  V30 3196 C 301.139 2.47637 3.44907 0
M  V30 3197 O 302.163 2.13205 2.85346 0
M  V30 3198 O 301.022 3.06632 4.52371 0
M  V30 3199 H 298.116 0.43416 0.703871 0
M  V30 3200 H 300.662 1.43408 0.907314 0
M  V30 3201 H 299.434 3.1172 2.3653 0
M  V30 3202 H 299.057 1.84905 3.51989 0
M  V30 3203 N 300.054 -1.07777 1.14986 0
M  V30 3204 C 301.303 -1.79669 0.916617 0
M  V30 3205 C 301.616 -1.87474 -0.557917 0
M  V30 3206 O 302.822 -2.55845 -0.908617 0
M  V30 3207 C 301.278 -3.22848 1.59051 0
M  V30 3208 C 300.886 -3.23257 3.10176 0
M  V30 3209 C 302.63 -3.99379 1.43864 0
M  V30 3210 C 300.537 -4.61063 3.70372 0
M  V30 3211 H 299.467 -0.673349 0.33929 0
M  V30 3212 H 302.118 -1.21003 1.37951 0
M  V30 3213 H 300.5 -3.8168 1.0553 0
M  V30 3214 H 301.674 -2.74095 3.70417 0
M  V30 3215 H 299.989 -2.60222 3.25074 0
M  V30 3216 H 302.586 -5.0122 1.86232 0
M  V30 3217 H 302.929 -4.14511 0.385564 0
M  V30 3218 H 303.462 -3.47032 1.94457 0
M  V30 3219 H 300.201 -4.51135 4.7556 0
M  V30 3220 H 299.721 -5.1048 3.14913 0
M  V30 3221 H 301.4 -5.30034 3.71043 0
M  V30 3222 N 301.532 -0.945985 -1.26051 0
M  V30 3223 C 302.479 -0.45809 -2.26208 0
M  V30 3224 C 303.449 0.484816 -1.58867 0
M  V30 3225 O 304.634 0.399969 -1.86561 0
M  V30 3226 C 301.774 0.266131 -3.44072 0
M  V30 3227 C 300.887 -0.713005 -4.26075 0
M  V30 3228 C 300.022 0.0329013 -5.3119 0
M  V30 3229 C 299.061 -0.93774 -6.04874 0
M  V30 3230 N 298.198 -0.223274 -7.01745 0
M  V30 3231 H 303.038 -1.3171 -2.67313 0
M  V30 3232 H 300.575 -0.66069 -1.31428 0
M  V30 3233 H 302.533 0.702514 -4.11243 0
M  V30 3234 H 301.163 1.08925 -3.03867 0
M  V30 3235 H 300.215 -1.26789 -3.58648 0
M  V30 3236 H 301.527 -1.45406 -4.77136 0
M  V30 3237 H 300.681 0.528335 -6.04395 0
M  V30 3238 H 299.42 0.806801 -4.8098 0
M  V30 3239 H 298.425 -1.44425 -5.30492 0
M  V30 3240 H 299.65 -1.71172 -6.57173 0
M  V30 3241 H 297.596 0.532046 -6.53839 0
M  V30 3242 H 297.513 -0.90357 -7.50581 0
M  V30 3243 H 298.781 0.250907 -7.79096 0
M  V30 3244 N 303.011 1.40521 -0.713556 0
M  V30 3245 C 304.288 1.94775 -0.17943 0
M  V30 3246 C 304.668 1.65184 1.31444 0
M  V30 3247 O 304.016 0.968429 2.06963 0
M  V30 3248 C 304.226 3.45543 -0.489986 0
M  V30 3249 C 305.574 4.22442 -0.427536 0
M  V30 3250 O 306.598 3.53644 -0.425929 0
M  V30 3251 O 305.457 5.4501 -0.403292 0
M  V30 3252 H 302.551 0.826606 -0.0255192 0
M  V30 3253 H 305.097 1.5014 -0.790949 0
M  V30 3254 H 303.869 3.60432 -1.5233 0
M  V30 3255 H 303.492 3.97311 0.151598 0
M  V30 3256 N 304.489 0.459591 1.5075 0
M  V30 3257 C 305.735 -0.0994966 2.02556 0
M  V30 3258 C 306.068 -1.40399 1.3417 0
M  V30 3259 O 305.343 -1.88892 0.463683 0
M  V30 3260 C 305.626 -0.295242 3.58888 0
M  V30 3261 C 305.479 1.02947 4.37861 0
M  V30 3262 C 306.798 -1.05502 4.27267 0
M  V30 3263 H 303.917 -0.034686 0.736183 0
M  V30 3264 H 306.559 0.602938 1.8018 0
M  V30 3265 H 304.709 -0.893563 3.78084 0
M  V30 3266 H 306.381 1.66348 4.30263 0
M  V30 3267 H 304.624 1.62885 4.02058 0
M  V30 3268 H 305.295 0.846281 5.45474 0
M  V30 3269 H 307.771 -0.547993 4.12476 0
M  V30 3270 H 306.647 -1.16077 5.36486 0
M  V30 3271 H 306.908 -2.08875 3.89645 0
M  V30 3272 N 305.967 -1.56429 0.191757 0
M  V30 3273 C 307.215 -1.97095 -0.447006 0
M  V30 3274 C 307.536 -1.07967 -1.62383 0
M  V30 3275 O 306.806 -0.150248 -1.95323 0
M  V30 3276 H 305.386 -0.727832 -0.168135 0
M  V30 3277 H 308.048 -1.92911 0.27771 0
M  V30 3278 H 307.144 -3.01848 -0.793371 0
M  V30 3279 N 307.445 0.0818655 -1.57387 0
M  V30 3280 C 308.691 0.784074 -1.8703 0
M  V30 3281 C 309.024 1.77729 -0.782689 0
M  V30 3282 O 308.299 1.93384 0.208051 0
M  V30 3283 C 308.582 1.50105 -3.27323 0
M  V30 3284 C 308.435 0.524925 -4.46727 0
M  V30 3285 C 309.754 2.44843 -3.65705 0
M  V30 3286 H 306.873 0.283582 -0.680257 0
M  V30 3287 H 309.515 0.0474352 -1.89941 0
M  V30 3288 H 307.665 2.12897 -3.24972 0
M  V30 3289 H 309.337 -0.0970111 -4.61198 0
M  V30 3290 H 307.58 -0.160606 -4.33503 0
M  V30 3291 H 308.251 1.064 -5.41648 0
M  V30 3292 H 310.727 1.92135 -3.69085 0
M  V30 3293 H 309.603 2.92018 -4.64776 0
M  V30 3294 H 309.864 3.29197 -2.95096 0
M  V30 3295 N 308.923 1.53595 0.353017 0
M  V30 3296 C 310.2 1.61002 1.11075 0
M  V30 3297 C 310.58 0.425356 2.0677 0
M  V30 3298 O 309.928 -0.583267 2.2093 0
M  V30 3299 C 310.138 2.96631 1.83877 0
M  V30 3300 C 311.486 3.51653 2.37961 0
M  V30 3301 O 312.51 2.98743 1.93987 0
M  V30 3302 O 311.369 4.44177 3.18386 0
M  V30 3303 H 308.463 0.650825 0.510251 0
M  V30 3304 H 311.009 1.6594 0.35527 0
M  V30 3305 H 309.781 3.74293 1.14108 0
M  V30 3306 H 309.404 2.95242 2.66304 0
M  V30 3307 N 310.401 -0.613514 1.45168 0
M  V30 3308 C 311.349 -1.74572 1.53712 0
M  V30 3309 C 312.343 -1.64426 0.407505 0
M  V30 3310 O 313.549 -1.70291 0.583176 0
M  V30 3311 H 309.924 -0.576641 0.48269 0
M  V30 3312 H 311.895 -1.64492 2.48968 0
M  V30 3313 C 310.644 -3.12943 1.51532 0
M  V30 3314 H 309.967 -3.21407 2.37776 0
M  V30 3315 H 311.407 -3.9201 1.61569 0
M  V30 3316 C 309.866 -3.36053 0.238798 0
M  V30 3317 O 310.396 -3.95837 -0.6838 0
M  V30 3318 N 308.602 -2.9028 0.136359 0
M  V30 3319 H 308.149 -2.41811 0.887999 0
M  V30 3320 H 308.107 -3.06116 -0.716944 0
M  V30 3321 N 311.879 -1.3236 -0.855495 0
M  V30 3322 C 312.842 -1.21164 -1.94556 0
M  V30 3323 C 313.842 -0.134908 -1.60233 0
M  V30 3324 O 315.032 -0.385249 -1.69887 0
M  V30 3325 C 312.164 -0.863192 -3.29791 0
M  V30 3326 H 313.357 -2.18038 -2.05911 0
M  V30 3327 H 310.91 -1.16179 -1.04557 0
M  V30 3328 H 311.645 0.103769 -3.24134 0
M  V30 3329 H 311.43 -1.64166 -3.56078 0
M  V30 3330 H 312.92 -0.809156 -4.09686 0
M  V30 3331 N 313.357 1.07166 -1.15556 0
M  V30 3332 C 314.605 1.79443 -0.929764 0
M  V30 3333 C 314.926 1.87246 0.544414 0
M  V30 3334 O 314.196 1.37473 1.39564 0
M  V30 3335 H 312.776 0.664625 -0.341003 0
M  V30 3336 H 315.438 1.29499 -1.45657 0
M  V30 3337 H 314.534 2.81832 -1.34079 0
M  V30 3338 N 314.835 0.952656 1.25548 0
M  V30 3339 C 315.798 0.475794 2.24207 0
M  V30 3340 C 316.798 -0.419428 1.55234 0
M  V30 3341 O 317.988 -0.216994 1.72843 0
M  V30 3342 C 315.12 -0.312814 3.39462 0
M  V30 3343 H 316.313 1.34779 2.67908 0
M  V30 3344 H 313.866 0.735739 1.37901 0
M  V30 3345 H 314.601 -1.20257 3.01179 0
M  V30 3346 H 314.386 0.329404 3.90714 0
M  V30 3347 H 315.876 -0.635986 4.12729 0
M  V30 3348 N 316.313 -1.40141 0.720998 0
M  V30 3349 C 317.26 -2.30688 0.071919 0
M  V30 3350 C 318.23 -1.48476 -0.744584 0
M  V30 3351 O 319.415 -1.77201 -0.707423 0
M  V30 3352 C 316.555 -3.34724 -0.839855 0
M  V30 3353 C 315.668 -4.31998 -0.0122438 0
M  V30 3354 C 314.803 -5.23102 -0.923995 0
M  V30 3355 C 313.842 -6.12033 -0.0907969 0
M  V30 3356 N 312.979 -6.95537 -0.957718 0
M  V30 3357 H 317.819 -2.85628 0.849755 0
M  V30 3358 H 315.356 -1.40653 0.430726 0
M  V30 3359 H 317.314 -3.93618 -1.38279 0
M  V30 3360 H 315.944 -2.81274 -1.58381 0
M  V30 3361 H 314.996 -3.74841 0.64794 0
M  V30 3362 H 316.308 -4.94772 0.632595 0
M  V30 3363 H 315.462 -5.86953 -1.53527 0
M  V30 3364 H 314.201 -4.60615 -1.60264 0
M  V30 3365 H 313.206 -5.47207 0.533377 0
M  V30 3366 H 314.431 -6.76581 0.584428 0
M  V30 3367 H 312.377 -6.35633 -1.62192 0
M  V30 3368 H 312.294 -7.55099 -0.36904 0
M  V30 3369 H 313.562 -7.63832 -1.555 0
M  V30 3370 N 317.792 -0.46758 -1.50504 0
M  V30 3371 C 318.755 0.317059 -2.26996 0
M  V30 3372 C 319.755 0.923513 -1.31635 0
M  V30 3373 O 320.945 0.793239 -1.55091 0
M  V30 3374 C 318.077 1.45134 -3.08462 0
M  V30 3375 H 319.27 -0.353723 -2.97807 0
M  V30 3376 H 316.823 -0.221545 -1.54722 0
M  V30 3377 H 317.558 2.15728 -2.4214 0
M  V30 3378 H 317.343 1.02232 -3.78538 0
M  V30 3379 H 318.833 2.00493 -3.66323 0
M  V30 3380 N 319.27 1.56325 -0.20005 0
M  V30 3381 C 320.518 1.97329 0.436547 0
M  V30 3382 C 320.839 1.08826 1.61808 0
M  V30 3383 O 320.109 0.160604 1.95241 0
M  V30 3384 H 318.689 0.728714 0.164272 0
M  V30 3385 H 321.351 1.92761 -0.287937 0
M  V30 3386 H 320.447 3.02264 0.777353 0
M  V30 3387 N 320.748 -0.0735177 1.57428 0
M  V30 3388 C 321.678 -1.0879 2.06608 0
M  V30 3389 C 322.659 -1.40473 0.959237 0
M  V30 3390 O 323.844 -1.5013 1.23185 0
M  V30 3391 C 320.974 -2.40183 2.50857 0
M  V30 3392 C 319.928 -2.22858 3.65402 0
M  V30 3393 C 319.254 -3.59619 3.957 0
M  V30 3394 C 320.554 -1.65123 4.95511 0
M  V30 3395 H 322.248 -0.678673 2.91607 0
M  V30 3396 H 319.794 -0.325013 1.40284 0
M  V30 3397 H 321.747 -3.11437 2.83874 0
M  V30 3398 H 320.471 -2.83083 1.62885 0
M  V30 3399 H 319.13 -1.54045 3.32664 0
M  V30 3400 H 318.778 -4.00086 3.04861 0
M  V30 3401 H 318.478 -3.48866 4.72828 0
M  V30 3402 H 320.002 -4.32306 4.31212 0
M  V30 3403 H 321.416 -2.26241 5.26771 0
M  V30 3404 H 319.813 -1.65071 5.7695 0
M  V30 3405 H 320.883 -0.612559 4.81015 0
M  V30 3406 N 322.226 -1.5378 -0.344866 0
M  V30 3407 C 323.454 -1.74899 -1.10534 0
M  V30 3408 C 323.869 -0.487534 -1.82397 0
M  V30 3409 O 323.226 0.540741 -1.74305 0
M  V30 3410 C 323.277 -2.92822 -2.11984 0
M  V30 3411 O 322.998 -4.14089 -1.43044 0
M  V30 3412 C 324.499 -3.25982 -3.00417 0
M  V30 3413 H 321.719 -0.584426 -0.329678 0
M  V30 3414 H 324.263 -2.006 -0.397474 0
M  V30 3415 H 322.418 -2.69457 -2.78338 0
M  V30 3416 H 322.832 -4.80272 -2.10805 0
M  V30 3417 H 324.306 -4.11848 -3.67539 0
M  V30 3418 H 324.783 -2.42228 -3.66363 0
M  V30 3419 H 325.389 -3.51349 -2.39654 0
M  V30 3420 N 323.704 0.605807 -1.45491 0
M  V30 3421 C 324.951 1.36476 -1.49601 0
M  V30 3422 C 325.279 1.94007 -0.138452 0
M  V30 3423 O 324.534 1.75638 0.863114 0
M  V30 3424 C 324.833 2.53012 -2.52428 0
M  V30 3425 C 324.499 2.13617 -3.97087 0
M  V30 3426 C 323.161 2.02587 -4.36477 0
M  V30 3427 C 325.513 1.82899 -4.88055 0
M  V30 3428 C 322.841 1.59064 -5.64726 0
M  V30 3429 C 325.193 1.40861 -6.16718 0
M  V30 3430 C 323.857 1.28391 -6.55036 0
M  V30 3431 H 323.127 0.499402 -0.547429 0
M  V30 3432 H 325.774 0.684546 -1.78847 0
M  V30 3433 H 324.079 3.26379 -2.16758 0
M  V30 3434 H 325.776 3.1124 -2.52845 0
M  V30 3435 H 322.366 2.23129 -3.65939 0
M  V30 3436 H 326.55 1.90317 -4.58359 0
M  V30 3437 H 321.806 1.48034 -5.93208 0
M  V30 3438 H 325.98 1.16138 -6.86648 0
M  V30 3439 H 323.607 0.944403 -7.54311 0
M  V30 3440 N 325.182 1.32811 0.848464 0
M  V30 3441 C 326.112 1.24882 1.97299 0
M  V30 3442 C 327.093 0.131357 1.69592 0
M  V30 3443 O 328.278 0.319553 1.91553 0
M  V30 3444 C 325.408 0.97746 3.33261 0
M  V30 3445 C 324.362 2.05682 3.75338 0
M  V30 3446 C 323.688 1.63777 5.09 0
M  V30 3447 C 324.988 3.47254 3.90144 0
M  V30 3448 H 326.682 2.18966 2.04191 0
M  V30 3449 H 324.228 1.05413 0.981029 0
M  V30 3450 H 326.181 0.908513 4.1149 0
M  V30 3451 H 324.905 0.000980011 3.266 0
M  V30 3452 H 323.564 2.11603 2.99366 0
M  V30 3453 H 323.212 0.648569 4.98801 0
M  V30 3454 H 322.912 2.36 5.38124 0
M  V30 3455 H 324.436 1.5833 5.89715 0
M  V30 3456 H 325.85 3.43888 4.58709 0
M  V30 3457 H 324.247 4.1788 4.30693 0
M  V30 3458 H 325.317 3.86462 2.92874 0
M  V30 3459 N 326.66 -1.06551 1.16123 0
M  V30 3460 C 327.906 -1.79567 0.94252 0
M  V30 3461 C 328.239 -1.86869 -0.528547 0
M  V30 3462 O 327.514 -1.35838 -1.39206 0
M  V30 3463 C 327.797 -3.24195 1.56747 0
M  V30 3464 C 327.65 -3.24989 3.10969 0
M  V30 3465 C 328.969 -4.21678 1.25998 0
M  V30 3466 H 326.088 -0.651883 0.343828 0
M  V30 3467 H 328.73 -1.2463 1.43413 0
M  V30 3468 H 326.88 -3.71107 1.14942 0
M  V30 3469 H 328.552 -2.86258 3.61737 0
M  V30 3470 H 326.795 -2.63716 3.44436 0
M  V30 3471 H 327.466 -4.27005 3.49815 0
M  V30 3472 H 329.942 -3.83196 1.62174 0
M  V30 3473 H 328.818 -5.21146 1.7233 0
M  V30 3474 H 329.079 -4.4174 0.178367 0
M  V30 3475 N 328.138 -0.959301 -1.25041 0
M  V30 3476 C 329.415 -0.533805 -1.88175 0
M  V30 3477 C 329.795 0.988994 -1.865 0
M  V30 3478 O 329.143 1.85677 -1.33177 0
M  V30 3479 C 329.353 -1.11575 -3.30684 0
M  V30 3480 C 330.701 -1.19548 -4.07423 0
M  V30 3481 O 331.725 -1.06765 -3.39823 0
M  V30 3482 O 330.584 -1.39656 -5.28354 0
M  V30 3483 H 327.678 -0.176772 -0.807887 0
M  V30 3484 H 330.224 -1.05303 -1.33076 0
M  V30 3485 H 328.996 -2.15884 -3.26358 0
M  V30 3486 H 328.619 -0.580059 -3.93346 0
M  V30 3487 N 329.616 1.39756 -0.72842 0
M  V30 3488 C 330.546 2.33289 -0.0991354 0
M  V30 3489 C 331.527 1.53568 0.731489 0
M  V30 3490 O 332.712 1.81987 0.677807 0
M  V30 3491 C 329.842 3.3763 0.813834 0
M  V30 3492 C 328.796 4.2791 0.0878663 0
M  V30 3493 C 328.122 5.22894 1.11741 0
M  V30 3494 C 329.422 5.11314 -1.06563 0
M  V30 3495 H 331.116 2.86163 -0.880408 0
M  V30 3496 H 328.662 1.37591 -0.424819 0
M  V30 3497 H 330.615 4.0201 1.26355 0
M  V30 3498 H 329.339 2.83181 1.62715 0
M  V30 3499 H 327.998 3.65 -0.342159 0
M  V30 3500 H 327.646 4.64744 1.92412 0
M  V30 3501 H 327.346 5.84143 0.636477 0
M  V30 3502 H 328.87 5.90151 1.56697 0
M  V30 3503 H 330.284 5.69076 -0.694671 0
M  V30 3504 H 328.681 5.81671 -1.47577 0
M  V30 3505 H 329.751 4.46534 -1.89038 0
M  V30 3506 N 331.094 0.475555 1.50254 0
M  V30 3507 C 332.343 -0.0795996 2.01543 0
M  V30 3508 C 332.656 -1.4038 1.36209 0
M  V30 3509 O 333.862 -2.04415 1.7868 0
M  V30 3510 C 332.318 -0.192363 3.59386 0
M  V30 3511 C 331.926 1.12367 4.33679 0
M  V30 3512 C 333.67 -0.699238 4.18701 0
M  V30 3513 C 331.577 0.974453 5.83317 0
M  V30 3514 H 330.507 -0.0335228 0.753254 0
M  V30 3515 H 333.158 0.611128 1.73025 0
M  V30 3516 H 331.54 -0.946974 3.84511 0
M  V30 3517 H 332.714 1.88958 4.20276 0
M  V30 3518 H 331.029 1.562 3.85993 0
M  V30 3519 H 333.626 -0.827978 5.28251 0
M  V30 3520 H 333.969 -1.69171 3.80377 0
M  V30 3521 H 334.502 -0.00188807 3.978 0
M  V30 3522 H 331.241 1.94042 6.26121 0
M  V30 3523 H 330.761 0.248998 5.99283 0
M  V30 3524 H 332.44 0.642867 6.43798 0
M  V30 3525 N 332.573 -1.56217 0.208337 0
M  V30 3526 C 333.52 -2.19699 -0.707192 0
M  V30 3527 C 334.49 -1.14836 -1.20008 0
M  V30 3528 O 335.675 -1.4314 -1.26157 0
M  V30 3529 C 332.815 -2.87061 -1.91546 0
M  V30 3530 C 331.928 -4.06483 -1.46271 0
M  V30 3531 C 331.063 -4.61665 -2.62752 0
M  V30 3532 C 330.102 -5.73417 -2.14147 0
M  V30 3533 N 329.239 -6.22948 -3.23853 0
M  V30 3534 H 334.079 -2.97575 -0.159111 0
M  V30 3535 H 331.616 -1.46948 -0.0667874 0
M  V30 3536 H 333.574 -3.24294 -2.62468 0
M  V30 3537 H 332.204 -2.11725 -2.43664 0
M  V30 3538 H 331.256 -3.74825 -0.648886 0
M  V30 3539 H 332.568 -4.87271 -1.06622 0
M  V30 3540 H 331.722 -5.01272 -3.41776 0
M  V30 3541 H 330.461 -3.80013 -3.05682 0
M  V30 3542 H 329.466 -5.33326 -1.33581 0
M  V30 3543 H 330.691 -6.56897 -1.72232 0
M  V30 3544 H 328.637 -5.44213 -3.6629 0
M  V30 3545 H 328.554 -6.98823 -2.88414 0
M  V30 3546 H 329.822 -6.6721 -4.03052 0
M  V30 3547 N 334.051 0.0651679 -1.57465 0
M  V30 3548 C 334.999 1.09542 -2.05191 0
M  V30 3549 C 335.993 1.39675 -0.958509 0
M  V30 3550 O 337.199 1.39003 -1.14359 0
M  V30 3551 H 333.574 0.370623 -0.654326 0
M  V30 3552 H 335.545 0.666802 -2.90854 0
M  V30 3553 C 334.294 2.39881 -2.51699 0
M  V30 3554 H 333.617 2.17547 -3.3543 0
M  V30 3555 H 335.057 3.104 -2.88839 0
M  V30 3556 C 333.516 3.0631 -1.40271 0
M  V30 3557 O 334.046 3.94664 -0.748523 0
M  V30 3558 N 332.252 2.67041 -1.14618 0
M  V30 3559 H 331.799 1.95281 -1.67997 0
M  V30 3560 H 331.757 3.1181 -0.402688 0
M  V30 3561 N 335.529 1.53961 0.336706 0
M  V30 3562 C 336.476 1.82428 1.41381 0
M  V30 3563 C 337.446 0.670444 1.51968 0
M  V30 3564 O 338.631 0.915565 1.67398 0
M  V30 3565 C 335.771 2.04564 2.77934 0
M  V30 3566 C 334.884 3.32267 2.76084 0
M  V30 3567 C 334.019 3.44434 4.04399 0
M  V30 3568 C 333.058 4.66061 3.96804 0
M  V30 3569 N 332.195 4.75224 5.16823 0
M  V30 3570 H 337.035 2.74324 1.16405 0
M  V30 3571 H 334.572 1.35869 0.563752 0
M  V30 3572 H 336.53 2.15388 3.57301 0
M  V30 3573 H 335.16 1.15974 3.01247 0
M  V30 3574 H 334.212 3.3025 1.88784 0
M  V30 3575 H 335.524 4.21733 2.66351 0
M  V30 3576 H 334.678 3.54728 4.92192 0
M  V30 3577 H 333.417 2.53037 4.16921 0
M  V30 3578 H 332.422 4.55838 3.07396 0
M  V30 3579 H 333.647 5.58829 3.85858 0
M  V30 3580 H 331.593 3.86739 5.29876 0
M  V30 3581 H 331.51 5.58636 5.09374 0
M  V30 3582 H 332.778 4.89835 6.06367 0
M  V30 3583 N 337.007 -0.598083 1.45811 0
M  V30 3584 C 337.957 -1.70272 1.51629 0
M  V30 3585 C 338.941 -1.56382 0.378629 0
M  V30 3586 O 340.133 -1.65557 0.626087 0
M  V30 3587 C 337.262 -3.09042 1.49493 0
M  V30 3588 C 336.348 -3.28284 2.68496 0
M  V30 3589 N 336.739 -3.17748 3.93535 0
M  V30 3590 C 335.037 -3.59182 2.64394 0
M  V30 3591 C 335.738 -3.38579 4.7301 0
M  V30 3592 N 334.714 -3.63016 4.04624 0
M  V30 3593 H 338.516 -1.60634 2.46118 0
M  V30 3594 H 336.03 -0.801642 1.41235 0
M  V30 3595 H 338.027 -3.88302 1.51747 0
M  V30 3596 H 336.687 -3.19823 0.560683 0
M  V30 3597 H 337.698 -2.95944 4.25014 0
M  V30 3598 H 334.375 -3.76742 1.79922 0
M  V30 3599 H 335.765 -3.35747 5.82 0
M  V30 3600 N 338.485 -1.33259 -0.841409 0
M  V30 3601 C 339.418 -1.1764 -1.95541 0
M  V30 3602 C 340.396 -0.072501 -1.62438 0
M  V30 3603 O 341.58 -0.23427 -1.87039 0
M  V30 3604 C 338.707 -0.803794 -3.29024 0
M  V30 3605 C 337.753 -1.91482 -3.81099 0
M  V30 3606 S 338.586 -3.52538 -4.03085 0
M  V30 3607 C 339.742 -3.17279 -5.39523 0
M  V30 3608 H 339.975 -2.11941 -2.08491 0
M  V30 3609 H 337.508 -1.18072 -0.9949 0
M  V30 3610 H 339.466 -0.595592 -4.06156 0
M  V30 3611 H 338.127 0.120574 -3.13868 0
M  V30 3612 H 337.32 -1.60742 -4.7768 0
M  V30 3613 H 336.922 -2.07956 -3.10854 0
M  V30 3614 H 339.214 -2.67946 -6.22263 0
M  V30 3615 H 340.157 -4.1293 -5.75234 0
M  V30 3616 H 340.565 -2.53943 -5.04156 0
M  V30 3617 N 339.963 1.05934 -1.16686 0
M  V30 3618 C 340.911 2.15603 -0.872817 0
M  V30 3619 C 341.905 1.68647 0.159576 0
M  V30 3620 O 343.111 1.79995 0.0132125 0
M  V30 3621 H 339.486 0.703885 -0.264671 0
M  V30 3622 H 341.457 2.37613 -1.80507 0
M  V30 3623 C 340.206 3.45457 -0.394344 0
M  V30 3624 H 339.529 3.81984 -1.18019 0
M  V30 3625 H 340.969 4.2339 -0.227408 0
M  V30 3626 C 339.428 3.25021 0.88673 0
M  V30 3627 O 339.958 3.50906 1.95519 0
M  V30 3628 N 338.164 2.78437 0.831925 0
M  V30 3629 H 337.711 2.57572 -0.0377619 0
M  V30 3630 H 337.669 2.65144 1.68956 0
M  V30 3631 N 341.441 0.965919 1.2453 0
M  V30 3632 C 342.404 0.499547 2.2369 0
M  V30 3633 C 343.404 -0.40294 1.5567 0
M  V30 3634 O 344.594 -0.19865 1.73064 0
M  V30 3635 C 341.726 -0.276792 3.39774 0
M  V30 3636 H 342.919 1.37613 2.66463 0
M  V30 3637 H 340.472 0.750324 1.37112 0
M  V30 3638 H 341.207 -1.17055 3.02438 0
M  V30 3639 H 340.992 0.370826 3.90343 0
M  V30 3640 H 342.482 -0.592175 4.1338 0
M  V30 3641 N 342.919 -1.39368 0.735821 0
M  V30 3642 C 344.196 -1.94465 0.210395 0
M  V30 3643 C 344.576 -1.67254 -1.28799 0
M  V30 3644 O 343.924 -1.00123 -2.05396 0
M  V30 3645 C 344.134 -3.4472 0.544897 0
M  V30 3646 C 345.482 -4.21708 0.494689 0
M  V30 3647 O 346.506 -3.52922 0.482136 0
M  V30 3648 O 345.365 -5.44299 0.489947 0
M  V30 3649 H 342.459 -0.826096 0.0386666 0
M  V30 3650 H 345.005 -1.48863 0.814735 0
M  V30 3651 H 343.777 -3.57963 1.58045 0
M  V30 3652 H 343.4 -3.97502 -0.08837 0
M  V30 3653 N 344.397 -0.483516 -1.5 0
M  V30 3654 C 345.625 0.0644831 -2.06799 0
M  V30 3655 C 346.04 1.32399 -1.34596 0
M  V30 3656 O 345.397 1.77626 -0.418946 0
M  V30 3657 C 345.448 0.339927 -3.59898 0
M  V30 3658 O 345.169 -0.869635 -4.29382 0
M  V30 3659 C 346.67 0.933515 -4.33359 0
M  V30 3660 H 343.89 -0.0126333 -0.670881 0
M  V30 3661 H 346.434 -0.675864 -1.93009 0
M  V30 3662 H 344.589 1.03022 -3.7345 0
M  V30 3663 H 345.003 -0.62179 -5.20801 0
M  V30 3664 H 346.477 1.07593 -5.41413 0
M  V30 3665 H 346.954 1.92685 -3.94676 0
M  V30 3666 H 347.56 0.281221 -4.24369 0
M  V30 3667 N 345.875 1.56104 -0.216619 0
M  V30 3668 C 347.152 1.89988 0.465165 0
M  V30 3669 C 347.532 1.13326 1.78102 0
M  V30 3670 O 346.88 0.241033 2.27225 0
M  V30 3671 C 347.09 3.42646 0.662939 0
M  V30 3672 C 348.438 4.13311 0.972602 0
M  V30 3673 O 349.462 3.48217 0.749901 0
M  V30 3674 O 348.321 5.28396 1.39499 0
M  V30 3675 H 345.415 0.78979 0.245276 0
M  V30 3676 H 347.961 1.67721 -0.258436 0
M  V30 3677 H 346.733 3.90399 -0.26543 0
M  V30 3678 H 346.356 3.70677 1.43821 0
M  V30 3679 N 347.353 -0.0568162 1.57498 0
M  V30 3680 C 348.583 -0.764515 1.91934 0
M  V30 3681 C 348.991 -1.70877 0.81227 0
M  V30 3682 O 348.334 -1.82351 -0.222213 0
M  V30 3683 C 348.396 -1.5994 3.21962 0
M  V30 3684 C 348.06 -0.822925 4.4953 0
M  V30 3685 C 349.057 -0.135464 5.19723 0
M  V30 3686 C 346.742 -0.785666 4.96117 0
M  V30 3687 C 348.736 0.578861 6.34766 0
M  V30 3688 C 346.423 -0.0675784 6.11063 0
M  V30 3689 C 347.421 0.613471 6.80239 0
M  V30 3690 O 347.109 1.31996 7.92989 0
M  V30 3691 H 346.841 -0.221647 0.63863 0
M  V30 3692 H 349.395 -0.0268218 2.05382 0
M  V30 3693 H 347.625 -2.38026 3.04763 0
M  V30 3694 H 349.314 -2.18715 3.41934 0
M  V30 3695 H 350.08 -0.155458 4.84751 0
M  V30 3696 H 345.959 -1.30524 4.42136 0
M  V30 3697 H 349.503 1.111 6.88696 0
M  V30 3698 H 345.4 -0.0455636 6.45484 0
M  V30 3699 H 346.168 1.23077 8.09194 0
M  V30 3700 N 348.832 -1.54138 -0.328536 0
M  V30 3701 C 350.057 -1.76378 -1.09112 0
M  V30 3702 C 350.482 -0.508596 -1.81094 0
M  V30 3703 O 349.84 0.539598 -1.73084 0
M  V30 3704 C 349.888 -2.95358 -2.06872 0
M  V30 3705 O 348.992 -2.66556 -3.14677 0
M  V30 3706 H 348.333 -0.584614 -0.314838 0
M  V30 3707 H 350.863 -2.01146 -0.374348 0
M  V30 3708 H 350.873 -3.22566 -2.4983 0
M  V30 3709 H 349.548 -3.86385 -1.5388 0
M  V30 3710 H 348.125 -2.50282 -2.7643 0
M  V30 3711 N 350.31 0.590341 -1.46126 0
M  V30 3712 C 351.559 1.34499 -1.50309 0
M  V30 3713 C 351.872 1.94977 -0.156021 0
M  V30 3714 O 353.078 2.71395 -0.0756037 0
M  V30 3715 C 351.534 2.43723 -2.64815 0
M  V30 3716 C 351.142 1.89582 -4.0591 0
M  V30 3717 C 352.886 3.20579 -2.78262 0
M  V30 3718 C 350.793 2.9639 -5.11769 0
M  V30 3719 H 349.723 0.505593 -0.559368 0
M  V30 3720 H 352.374 0.630848 -1.72315 0
M  V30 3721 H 350.756 3.17902 -2.36124 0
M  V30 3722 H 351.93 1.21997 -4.44357 0
M  V30 3723 H 350.245 1.25418 -3.97063 0
M  V30 3724 H 352.842 4.00276 -3.54519 0
M  V30 3725 H 353.185 3.72684 -1.85505 0
M  V30 3726 H 353.718 2.53505 -3.06562 0
M  V30 3727 H 350.457 2.49181 -6.06291 0
M  V30 3728 H 349.977 3.62487 -4.77873 0
M  V30 3729 H 351.656 3.60474 -5.37278 0
M  V30 3730 N 351.788 1.33704 0.83433 0
M  V30 3731 C 352.751 1.24244 1.92603 0
M  V30 3732 C 353.751 0.160383 1.59998 0
M  V30 3733 O 354.941 0.412228 1.69252 0
M  V30 3734 C 352.073 0.91555 3.28376 0
M  V30 3735 H 353.266 2.21287 2.02416 0
M  V30 3736 H 350.819 1.17827 1.02696 0
M  V30 3737 H 351.554 -0.0521886 3.24258 0
M  V30 3738 H 351.339 1.69811 3.53422 0
M  V30 3739 H 352.829 0.874231 4.08347 0
M  V30 3740 N 353.266 -1.05314 1.17247 0
M  V30 3741 C 354.176 -2.16538 0.90268 0
M  V30 3742 C 355.192 -1.73523 -0.128707 0
M  V30 3743 O 356.368 -2.01337 0.0502701 0
M  V30 3744 C 353.433 -3.44167 0.418356 0
M  V30 3745 C 352.494 -4.01635 1.51618 0
M  V30 3746 C 351.727 -5.23171 1.05487 0
M  V30 3747 O 351.95 -5.70327 -0.0914715 0
M  V30 3748 O 350.884 -5.72848 1.8474 0
M  V30 3749 H 354.71 -2.42145 1.83302 0
M  V30 3750 H 352.295 -1.15037 0.953246 0
M  V30 3751 H 354.177 -4.21112 0.155726 0
M  V30 3752 H 352.852 -3.20063 -0.48385 0
M  V30 3753 H 351.759 -3.26135 1.83268 0
M  V30 3754 H 353.092 -4.30053 2.39405 0
M  V30 3755 N 354.744 -0.972509 -1.24016 0
M  V30 3756 C 355.707 -0.511403 -2.23422 0
M  V30 3757 C 356.707 0.394679 -1.55881 0
M  V30 3758 O 357.897 0.189469 -1.73167 0
M  V30 3759 C 355.029 0.258769 -3.39916 0
M  V30 3760 H 356.222 -1.39024 -2.6573 0
M  V30 3761 H 353.775 -0.757585 -1.36713 0
M  V30 3762 H 354.51 1.1545 -3.03054 0
M  V30 3763 H 354.295 -0.391522 -3.9014 0
M  V30 3764 H 355.785 0.570244 -4.13688 0
M  V30 3765 N 356.222 1.38976 -0.743202 0
M  V30 3766 C 357.185 2.28901 -0.117014 0
M  V30 3767 C 358.185 1.46698 0.658503 0
M  V30 3768 O 359.375 1.67274 0.486305 0
M  V30 3769 C 356.507 3.30309 0.84315 0
M  V30 3770 H 357.7 2.8578 -0.909373 0
M  V30 3771 H 355.253 1.47761 -0.509547 0
M  V30 3772 H 355.988 2.785 1.66157 0
M  V30 3773 H 355.773 3.91029 0.289594 0
M  V30 3774 H 357.263 3.97577 1.2776 0
M  V30 3775 N 357.7 0.491464 1.49741 0
M  V30 3776 C 358.947 -0.0564256 2.02421 0
M  V30 3777 C 359.275 -1.37872 1.37192 0
M  V30 3778 O 358.53 -1.89375 0.493508 0
M  V30 3779 C 358.829 -0.267329 3.56399 0
M  V30 3780 C 358.495 0.975775 4.40215 0
M  V30 3781 C 357.157 1.31655 4.62839 0
M  V30 3782 C 359.509 1.80251 4.89039 0
M  V30 3783 C 356.837 2.48375 5.31532 0
M  V30 3784 C 359.189 2.96116 5.59015 0
M  V30 3785 C 357.853 3.30585 5.79888 0
M  V30 3786 H 357.123 -0.0206476 0.740712 0
M  V30 3787 H 359.77 0.649686 1.80143 0
M  V30 3788 H 358.075 -1.05588 3.77304 0
M  V30 3789 H 359.772 -0.705549 3.94744 0
M  V30 3790 H 356.362 0.700315 4.2284 0
M  V30 3791 H 360.546 1.55239 4.71396 0
M  V30 3792 H 355.802 2.7533 5.45897 0
M  V30 3793 H 359.976 3.60509 5.95824 0
M  V30 3794 H 357.603 4.21132 6.32892 0
M  V30 3795 N 359.178 -1.55987 0.224894 0
M  V30 3796 C 360.126 -2.21808 -0.700283 0
M  V30 3797 C 361.12 -1.19854 -1.19714 0
M  V30 3798 O 362.326 -1.37925 -1.15658 0
M  V30 3799 H 358.701 -0.711226 -0.244258 0
M  V30 3800 H 360.672 -2.98152 -0.121749 0
M  V30 3801 C 359.421 -2.91444 -1.8962 0
M  V30 3802 H 358.744 -3.69655 -1.52299 0
M  V30 3803 H 360.184 -3.40894 -2.52125 0
M  V30 3804 C 358.643 -1.94098 -2.75368 0
M  V30 3805 O 359.173 -1.46004 -3.74227 0
M  V30 3806 N 357.379 -1.61675 -2.41474 0
M  V30 3807 H 356.926 -2.00979 -1.61137 0
M  V30 3808 H 356.884 -0.968036 -2.99126 0
M  V30 3809 N 360.656 0.0484629 -1.57525 0
M  V30 3810 C 361.603 1.05504 -2.05275 0
M  V30 3811 C 362.573 1.37084 -0.937927 0
M  V30 3812 O 363.758 1.47754 -1.2072 0
M  V30 3813 C 360.898 2.35676 -2.52093 0
M  V30 3814 C 360.011 2.10423 -3.77288 0
M  V30 3815 C 359.146 3.34327 -4.12794 0
M  V30 3816 C 358.185 3.04542 -5.30962 0
M  V30 3817 N 357.322 4.20841 -5.61994 0
M  V30 3818 H 362.162 0.640885 -2.91027 0
M  V30 3819 H 359.699 0.304854 -1.43906 0
M  V30 3820 H 361.657 3.11709 -2.77297 0
M  V30 3821 H 360.287 2.7485 -1.69285 0
M  V30 3822 H 359.339 1.24976 -3.59284 0
M  V30 3823 H 360.651 1.84438 -4.63448 0
M  V30 3824 H 359.805 4.1874 -4.39024 0
M  V30 3825 H 358.544 3.63408 -3.25247 0
M  V30 3826 H 357.549 2.18528 -5.04505 0
M  V30 3827 H 358.774 2.76758 -6.20146 0
M  V30 3828 H 356.72 4.4991 -4.77406 0
M  V30 3829 H 356.637 3.98212 -6.42622 0
M  V30 3830 H 357.905 5.06184 -5.92789 0
M  V30 3831 N 362.134 1.5431 0.320358 0
M  V30 3832 C 363.382 1.72327 1.05583 0
M  V30 3833 C 363.703 0.50149 1.88441 0
M  V30 3834 O 362.973 -0.48448 1.89815 0
M  V30 3835 H 361.553 0.635387 0.3928 0
M  V30 3836 H 364.215 1.91621 0.356019 0
M  V30 3837 H 363.311 2.60426 1.72003 0
M  V30 3838 N 363.613 -0.582584 1.46437 0
M  V30 3839 C 364.523 -1.71949 1.59595 0
M  V30 3840 C 365.539 -1.67264 0.479443 0
M  V30 3841 O 366.715 -1.87171 0.743579 0
M  V30 3842 C 363.78 -3.08452 1.58298 0
M  V30 3843 C 362.841 -3.244 2.81182 0
M  V30 3844 C 362.074 -4.54391 2.79937 0
M  V30 3845 O 362.297 -5.38287 1.8869 0
M  V30 3846 O 361.231 -4.73588 3.71481 0
M  V30 3847 H 365.057 -1.63795 2.55744 0
M  V30 3848 H 362.642 -0.749643 1.29231 0
M  V30 3849 H 364.524 -3.89732 1.60271 0
M  V30 3850 H 363.199 -3.17043 0.653094 0
M  V30 3851 H 362.106 -2.42613 2.84763 0
M  V30 3852 H 363.439 -3.20699 3.7338 0
M  V30 3853 N 365.091 -1.34144 -0.827227 0
M  V30 3854 C 366.319 -1.29325 -1.61501 0
M  V30 3855 C 366.734 0.13354 -1.88327 0
M  V30 3856 O 366.091 1.0793 -1.47164 0
M  V30 3857 C 366.142 -2.07746 -2.95844 0
M  V30 3858 O 365.863 -3.4486 -2.70191 0
M  V30 3859 C 367.364 -2.10273 -3.90256 0
M  V30 3860 H 364.584 -0.445069 -0.50215 0
M  V30 3861 H 367.128 -1.76693 -1.02955 0
M  V30 3862 H 365.283 -1.6403 -3.5096 0
M  V30 3863 H 365.697 -3.85345 -3.55822 0
M  V30 3864 H 367.171 -2.69575 -4.81698 0
M  V30 3865 H 367.648 -1.096 -4.25305 0
M  V30 3866 H 368.254 -2.54059 -3.41078 0
M  V30 3867 N 366.569 1.04691 -1.17803 0
M  V30 3868 C 367.532 2.10724 -0.901545 0
M  V30 3869 C 368.532 1.6042 0.110437 0
M  V30 3870 O 369.722 1.7377 -0.122303 0
M  V30 3871 C 366.854 3.39084 -0.351409 0
M  V30 3872 H 368.047 2.36686 -1.84174 0
M  V30 3873 H 365.6 1.21015 -0.98919 0
M  V30 3874 H 366.335 3.18782 0.59569 0
M  V30 3875 H 366.12 3.76909 -1.08083 0
M  V30 3876 H 367.61 4.17227 -0.176451 0
M  V30 3877 N 368.047 0.979072 1.23499 0
M  V30 3878 C 368.98 0.463027 2.23453 0
M  V30 3879 C 369.958 -0.469128 1.55685 0
M  V30 3880 O 371.142 -0.397882 1.84253 0
M  V30 3881 C 368.269 -0.330308 3.37086 0
M  V30 3882 C 367.315 0.545795 4.22993 0
M  V30 3883 S 368.148 1.99285 4.97037 0
M  V30 3884 C 369.304 1.20862 6.1412 0
M  V30 3885 H 369.537 1.31005 2.6688 0
M  V30 3886 H 367.07 0.784965 1.32957 0
M  V30 3887 H 369.028 -0.782027 4.02982 0
M  V30 3888 H 367.689 -1.15244 2.92194 0
M  V30 3889 H 366.882 -0.0638928 5.03959 0
M  V30 3890 H 366.484 0.933705 3.62157 0
M  V30 3891 H 368.776 0.469284 6.75873 0
M  V30 3892 H 369.719 1.99307 6.79472 0
M  V30 3893 H 370.127 0.727992 5.59786 0
M  V30 3894 N 369.525 -1.3858 0.750561 0
M  V30 3895 C 370.753 -2.04471 0.316098 0
M  V30 3896 C 371.168 -1.56606 -1.05452 0
M  V30 3897 O 370.525 -0.737784 -1.66922 0
M  V30 3898 C 370.576 -3.60025 0.326275 0
M  V30 3899 O 370.297 -4.06133 1.6428 0
M  V30 3900 C 371.798 -4.43131 -0.122429 0
M  V30 3901 H 369.018 -0.65717 0.135528 0
M  V30 3902 H 371.562 -1.77329 1.01857 0
M  V30 3903 H 369.717 -3.86014 -0.327431 0
M  V30 3904 H 370.131 -5.00547 1.56693 0
M  V30 3905 H 371.605 -5.51963 -0.0641473 0
M  V30 3906 H 372.082 -4.23333 -1.16988 0
M  V30 3907 H 372.688 -4.22323 0.50229 0
M  V30 3908 N 371.003 -0.499398 -1.49478 0
M  V30 3909 C 372.252 0.0475259 -2.01644 0
M  V30 3910 C 372.565 1.38195 -1.38425 0
M  V30 3911 O 373.771 2.01547 -1.8191 0
M  V30 3912 C 372.227 0.135164 -3.59646 0
M  V30 3913 C 371.835 -1.19252 -4.31837 0
M  V30 3914 C 373.579 0.632538 -4.19761 0
M  V30 3915 C 371.486 -1.06713 -5.81693 0
M  V30 3916 H 370.416 0.0215349 -0.753692 0
M  V30 3917 H 373.067 -0.638577 -1.7203 0
M  V30 3918 H 371.449 0.885681 -3.85969 0
M  V30 3919 H 372.623 -1.9562 -4.17216 0
M  V30 3920 H 370.938 -1.62321 -3.83459 0
M  V30 3921 H 373.535 0.743833 -5.29501 0
M  V30 3922 H 373.878 1.63098 -3.83021 0
M  V30 3923 H 374.411 -0.0613987 -3.97753 0
M  V30 3924 H 371.15 -2.03979 -6.22955 0
M  V30 3925 H 370.67 -0.344307 -5.98811 0
M  V30 3926 H 372.349 -0.745208 -6.42694 0
M  V30 3927 N 372.481 1.55866 -0.233164 0
M  V30 3928 C 373.429 2.22176 0.68851 0
M  V30 3929 C 374.423 1.20487 1.19076 0
M  V30 3930 O 375.629 1.38536 1.14925 0
M  V30 3931 H 372.004 0.712511 0.240483 0
M  V30 3932 H 373.975 2.98212 0.105935 0
M  V30 3933 C 372.724 2.92446 1.88071 0
M  V30 3934 H 372.047 3.70458 1.50337 0
M  V30 3935 H 373.487 3.42226 2.50314 0
M  V30 3936 C 371.946 1.95555 2.74335 0
M  V30 3937 O 372.476 1.47986 3.73447 0
M  V30 3938 N 370.682 1.62953 2.40613 0
M  V30 3939 H 370.229 2.01831 1.60069 0
M  V30 3940 H 370.187 0.983886 2.98609 0
M  V30 3941 N 373.959 -0.0401083 1.57549 0
M  V30 3942 C 375.207 -0.731677 1.8839 0
M  V30 3943 C 375.528 -1.76481 0.829425 0
M  V30 3944 O 374.798 -1.95411 -0.1383 0
M  V30 3945 H 373.378 -0.273225 0.695239 0
M  V30 3946 H 376.04 -0.00867725 1.94898 0
M  V30 3947 H 375.136 -1.22816 2.86919 0
M  V30 3948 N 375.437 -1.54477 -0.31217 0
M  V30 3949 C 376.848 -1.64344 -0.885891 0
M  V30 3950 C 377.199 -0.54485 -1.88483 0
M  V30 3951 O 376.324 0.320387 -2.14015 0
M  V30 3952 C 376.919 -2.97908 -1.61357 0
M  V30 3953 C 375.478 -3.09933 -2.13585 0
M  V30 3954 C 374.625 -2.59971 -0.964897 0
M  V30 3955 H 377.576 -1.58448 -0.0894528 0
M  V30 3956 H 377.597 -2.88706 -2.47848 0
M  V30 3957 H 377.109 -3.77845 -0.886277 0
M  V30 3958 H 375.21 -2.34694 -2.89395 0
M  V30 3959 H 375.323 -4.15916 -2.37804 0
M  V30 3960 H 373.687 -2.16147 -1.34731 0
M  V30 3961 H 374.47 -3.42376 -0.251742 0
M  V30 3962 N 376.915 0.57481 -1.46744 0
M  V30 3963 C 378.161 1.33251 -1.53674 0
M  V30 3964 C 378.516 1.91468 -0.189125 0
M  V30 3965 O 377.809 1.73954 0.803151 0
M  V30 3966 C 378.003 2.476 -2.57738 0
M  V30 3967 C 377.832 2.00586 -4.02487 0
M  V30 3968 C 376.602 1.85237 -4.70123 0
M  V30 3969 C 378.8 1.56078 -4.90045 0
M  V30 3970 N 376.782 1.32377 -5.99458 0
M  V30 3971 C 378.153 1.14863 -6.09267 0
M  V30 3972 C 380.208 1.43968 -4.76632 0
M  V30 3973 C 378.911 0.627435 -7.16558 0
M  V30 3974 C 380.937 0.932512 -5.84002 0
M  V30 3975 C 380.299 0.53019 -7.02402 0
M  V30 3976 H 376.398 0.480284 -0.617131 0
M  V30 3977 H 378.982 0.653592 -1.83402 0
M  V30 3978 H 377.153 3.13045 -2.29907 0
M  V30 3979 H 378.885 3.14567 -2.54616 0
M  V30 3980 H 375.64 2.07423 -4.25761 0
M  V30 3981 H 376.064 1.08085 -6.68316 0
M  V30 3982 H 380.706 1.73689 -3.85476 0
M  V30 3983 H 378.424 0.317821 -8.07475 0
M  V30 3984 H 382.01 0.842611 -5.75666 0
M  V30 3985 H 380.89 0.14381 -7.84068 0
M  V30 3986 N 378.394 1.34581 0.820102 0
M  V30 3987 C 379.357 1.2628 1.91275 0
M  V30 3988 C 380.357 0.177344 1.59819 0
M  V30 3989 O 381.547 0.430156 1.68806 0
M  V30 3990 C 378.679 0.950327 3.27386 0
M  V30 3991 H 379.872 2.23421 2.00057 0
M  V30 3992 H 377.425 1.1891 1.0144 0
M  V30 3993 H 378.16 -0.0177938 3.24295 0
M  V30 3994 H 377.945 1.73549 3.51601 0
M  V30 3995 H 379.435 0.917492 4.07396 0
M  V30 3996 N 379.872 -1.04064 1.18357 0
M  V30 3997 C 381.118 -1.77658 0.990412 0
M  V30 3998 C 381.473 -1.86446 -0.474944 0
M  V30 3999 O 380.766 -1.36153 -1.34807 0
M  V30 4000 C 380.96 -3.20634 1.57888 0
M  V30 4001 C 380.789 -3.25782 3.09994 0
M  V30 4002 C 379.559 -3.34411 3.7881 0
M  V30 4003 C 381.757 -3.13791 4.0748 0
M  V30 4004 N 379.739 -3.28809 5.18418 0
M  V30 4005 C 381.11 -3.15689 5.33611 0
M  V30 4006 C 383.165 -2.97833 3.98998 0
M  V30 4007 C 381.868 -3.03268 6.52243 0
M  V30 4008 C 383.894 -2.86759 5.17227 0
M  V30 4009 C 383.256 -2.893 6.4225 0
M  V30 4010 H 379.355 -0.661901 0.416427 0
M  V30 4011 H 381.939 -1.23968 1.50133 0
M  V30 4012 H 380.11 -3.7267 1.09414 0
M  V30 4013 H 381.842 -3.82525 1.32124 0
M  V30 4014 H 378.597 -3.40144 3.29543 0
M  V30 4015 H 379.021 -3.29448 5.91433 0
M  V30 4016 H 383.663 -2.94698 3.03171 0
M  V30 4017 H 381.381 -3.05156 7.48268 0
M  V30 4018 H 384.967 -2.75465 5.12455 0
M  V30 4019 H 383.847 -2.80818 7.32196 0
M  V30 4020 N 381.35 -0.985608 -1.22978 0
M  V30 4021 C 382.575 -0.675254 -1.961 0
M  V30 4022 C 383 0.752154 -1.72407 0
M  V30 4023 O 382.358 1.5131 -0.998751 0
M  V30 4024 C 382.406 -0.977899 -3.47087 0
M  V30 4025 O 381.51 -0.072685 -4.12336 0
M  V30 4026 H 380.851 -0.253443 -0.613728 0
M  V30 4027 H 383.381 -1.32061 -1.56272 0
M  V30 4028 H 383.391 -0.916739 -3.97567 0
M  V30 4029 H 382.066 -2.01807 -3.63657 0
M  V30 4030 H 380.643 -0.188703 -3.72422 0
M  V30 4031 N 382.828 1.3818 -0.7579 0
M  V30 4032 C 383.776 2.32277 -0.122482 0
M  V30 4033 C 384.77 1.54238 0.700505 0
M  V30 4034 O 385.976 1.69737 0.599119 0
M  V30 4035 H 382.351 0.751712 -0.0208143 0
M  V30 4036 H 384.322 2.83469 -0.932099 0
M  V30 4037 C 383.071 3.39447 0.753076 0
M  V30 4038 H 382.394 3.99591 0.129184 0
M  V30 4039 H 383.834 4.07684 1.16489 0
M  V30 4040 C 382.293 2.78375 1.8976 0
M  V30 4041 O 382.823 2.68025 2.99208 0
M  V30 4042 N 381.029 2.36121 1.69397 0
M  V30 4043 H 380.576 2.4474 0.803762 0
M  V30 4044 H 380.534 1.95602 2.46145 0
M  V30 4045 N 384.306 0.507319 1.49211 0
M  V30 4046 C 385.555 -0.0368315 2.01666 0
M  V30 4047 C 385.868 -1.37459 1.39156 0
M  V30 4048 O 387.074 -2.00579 1.82976 0
M  V30 4049 C 385.53 -0.116089 3.59713 0
M  V30 4050 C 385.138 1.2154 4.31198 0
M  V30 4051 C 386.882 -0.610268 4.2009 0
M  V30 4052 C 384.789 1.09796 5.81119 0
M  V30 4053 H 383.719 -0.0175376 0.753796 0
M  V30 4054 H 386.37 0.647691 1.71689 0
M  V30 4055 H 384.752 -0.8652 3.86433 0
M  V30 4056 H 385.926 1.9783 4.16173 0
M  V30 4057 H 384.241 1.64352 3.82593 0
M  V30 4058 H 386.838 -0.715742 5.29888 0
M  V30 4059 H 387.181 -1.61064 3.8388 0
M  V30 4060 H 387.714 0.0824916 3.97714 0
M  V30 4061 H 384.453 2.0728 6.21864 0
M  V30 4062 H 383.973 0.376058 5.9862 0
M  V30 4063 H 385.652 0.779281 6.4229 0
M  V30 4064 N 385.784 -1.5574 0.241426 0
M  V30 4065 C 387.061 -1.90704 -0.434881 0
M  V30 4066 C 387.441 -1.16145 -1.76277 0
M  V30 4067 O 386.789 -0.277152 -2.26813 0
M  V30 4068 C 386.999 -3.43657 -0.608343 0
M  V30 4069 C 388.347 -4.14806 -0.906725 0
M  V30 4070 O 389.371 -3.49366 -0.694408 0
M  V30 4071 O 388.23 -5.30548 -1.31075 0
M  V30 4072 H 385.324 -0.793592 -0.23268 0
M  V30 4073 H 387.87 -1.67288 0.285086 0
M  V30 4074 H 386.642 -3.89927 0.327505 0
M  V30 4075 H 386.265 -3.72918 -1.37906 0
M  V30 4076 N 387.262 0.0317525 -1.57568 0
M  V30 4077 C 388.49 0.734949 -1.93407 0
M  V30 4078 C 388.905 1.69036 -0.84096 0
M  V30 4079 O 388.262 1.81582 0.182836 0
M  V30 4080 C 388.313 1.49432 -3.29169 0
M  V30 4081 O 388.034 0.577261 -4.3428 0
M  V30 4082 C 389.535 2.29492 -3.79273 0
M  V30 4083 H 386.755 0.206706 -0.638368 0
M  V30 4084 H 389.299 -0.00992046 -2.04498 0
M  V30 4085 H 387.454 2.1911 -3.19483 0
M  V30 4086 H 387.868 1.10952 -5.1263 0
M  V30 4087 H 389.342 2.78172 -4.76785 0
M  V30 4088 H 389.819 3.10794 -3.10328 0
M  V30 4089 H 390.425 1.64894 -3.92033 0
M  V30 4090 N 388.74 1.54641 0.303973 0
M  V30 4091 C 389.965 1.78092 1.06292 0
M  V30 4092 C 390.39 0.537342 1.80262 0
M  V30 4093 O 389.748 -0.511993 1.7392 0
M  V30 4094 C 389.796 2.98612 2.02147 0
M  V30 4095 O 388.9 2.71528 3.10397 0
M  V30 4096 H 388.241 0.589548 0.305497 0
M  V30 4097 H 390.771 2.01716 0.3423 0
M  V30 4098 H 390.781 3.265 2.44667 0
M  V30 4099 H 389.456 3.88785 1.47714 0
M  V30 4100 H 388.033 2.54648 2.72413 0
M  V30 4101 N 390.218 -0.567019 1.47046 0
M  V30 4102 C 391.165 -1.67489 1.58796 0
M  V30 4103 C 392.135 -1.60399 0.43144 0
M  V30 4104 O 393.32 -1.79378 0.650233 0
M  V30 4105 C 390.46 -3.05821 1.59899 0
M  V30 4106 C 389.573 -3.2342 2.86397 0
M  V30 4107 C 388.708 -4.52093 2.789 0
M  V30 4108 C 387.747 -4.6309 4.00267 0
M  V30 4109 N 386.884 -5.83106 3.91064 0
M  V30 4110 H 391.724 -1.56785 2.53422 0
M  V30 4111 H 389.261 -0.763896 1.2571 0
M  V30 4112 H 391.219 -3.8591 1.58522 0
M  V30 4113 H 389.849 -3.15384 0.687929 0
M  V30 4114 H 388.901 -2.3683 2.97684 0
M  V30 4115 H 390.213 -3.27412 3.76301 0
M  V30 4116 H 389.367 -5.4043 2.75718 0
M  V30 4117 H 388.106 -4.50565 1.86662 0
M  V30 4118 H 387.111 -3.73168 4.03765 0
M  V30 4119 H 388.336 -4.66386 4.93621 0
M  V30 4120 H 386.282 -5.82546 3.01623 0
M  V30 4121 H 386.199 -5.88434 4.74638 0
M  V30 4122 H 387.467 -6.73831 3.91882 0
M  V30 4123 N 391.696 -1.35014 -0.812953 0
M  V30 4124 C 392.942 -1.2812 -1.57204 0
M  V30 4125 C 393.275 0.145869 -1.93651 0
M  V30 4126 O 392.55 1.0937 -1.60836 0
M  V30 4127 C 392.833 -2.18162 -2.86492 0
M  V30 4128 C 392.686 -3.69454 -2.56561 0
M  V30 4129 C 394.005 -2.07439 -3.88145 0
M  V30 4130 H 391.124 -0.466746 -0.570366 0
M  V30 4131 H 393.766 -1.65357 -0.935783 0
M  V30 4132 H 391.916 -1.86535 -3.40789 0
M  V30 4133 H 393.588 -4.11493 -2.08497 0
M  V30 4134 H 391.831 -3.9005 -1.89851 0
M  V30 4135 H 392.502 -4.27835 -3.48799 0
M  V30 4136 H 394.978 -2.35228 -3.4323 0
M  V30 4137 H 393.854 -2.7265 -4.76396 0
M  V30 4138 H 394.115 -1.05439 -4.29343 0
M  V30 4139 N 393.175 1.03435 -1.18907 0
M  V30 4140 C 394.123 2.13703 -0.918353 0
M  V30 4141 C 395.117 1.68947 0.123767 0
M  V30 4142 O 396.323 1.79983 -0.0249701 0
M  V30 4143 H 392.698 0.698112 -0.279542 0
M  V30 4144 H 394.669 2.33731 -1.85506 0
M  V30 4145 C 393.418 3.44542 -0.467532 0
M  V30 4146 H 392.741 3.79394 -1.26095 0
M  V30 4147 H 394.181 4.22812 -0.317164 0
M  V30 4148 C 392.64 3.26829 0.817588 0
M  V30 4149 O 393.17 3.54975 1.88031 0
M  V30 4150 N 391.376 2.80139 0.772677 0
M  V30 4151 H 390.923 2.57434 -0.0923883 0
M  V30 4152 H 390.881 2.68668 1.63294 0
M  V30 4153 N 394.653 0.992116 1.22453 0
M  V30 4154 C 395.883 0.684949 1.94915 0
M  V30 4155 C 396.291 -0.754292 1.73514 0
M  V30 4156 O 395.634 -1.52056 1.03076 0
M  V30 4157 C 395.696 0.910054 3.47791 0
M  V30 4158 C 395.36 2.33363 3.92926 0
M  V30 4159 C 396.357 3.31308 4.00663 0
M  V30 4160 C 394.042 2.66785 4.25595 0
M  V30 4161 C 396.036 4.6075 4.40441 0
M  V30 4162 C 393.723 3.96446 4.65053 0
M  V30 4163 C 394.721 4.9324 4.72444 0
M  V30 4164 O 394.409 6.20584 5.1101 0
M  V30 4165 H 394.141 0.25258 0.62704 0
M  V30 4166 H 396.695 1.32939 1.56577 0
M  V30 4167 H 394.925 0.208443 3.86138 0
M  V30 4168 H 396.614 0.598257 4.01467 0
M  V30 4169 H 397.38 3.0682 3.75615 0
M  V30 4170 H 393.259 1.92148 4.19047 0
M  V30 4171 H 396.803 5.363 4.46126 0
M  V30 4172 H 392.7 4.20724 4.89552 0
M  V30 4173 H 393.468 6.24509 5.29085 0
M  V30 4174 N 396.131 -1.37776 0.765217 0
M  V30 4175 C 397.379 -1.99454 0.325943 0
M  V30 4176 C 397.7 -1.61049 -1.09947 0
M  V30 4177 O 396.97 -0.872821 -1.75381 0
M  V30 4178 H 395.55 -0.737697 0.117525 0
M  V30 4179 H 398.212 -1.68359 0.981895 0
M  V30 4180 H 397.308 -3.09547 0.398353 0
M  V30 4181 N 397.609 -0.515225 -1.4894 0
M  V30 4182 C 398.855 0.0242508 -2.02785 0
M  V30 4183 C 399.188 1.35323 -1.39289 0
M  V30 4184 O 398.463 1.87041 -0.533469 0
M  V30 4185 C 398.746 0.16184 -3.59736 0
M  V30 4186 C 398.599 -1.19127 -4.33738 0
M  V30 4187 C 399.918 0.895719 -4.30888 0
M  V30 4188 H 397.037 0.00733914 -0.736963 0
M  V30 4189 H 399.679 -0.669395 -1.77818 0
M  V30 4190 H 397.829 0.752624 -3.8114 0
M  V30 4191 H 399.501 -1.82202 -4.23792 0
M  V30 4192 H 397.744 -1.77695 -3.95736 0
M  V30 4193 H 398.415 -1.04815 -5.41957 0
M  V30 4194 H 400.891 0.394528 -4.14225 0
M  V30 4195 H 399.767 0.960859 -5.40425 0
M  V30 4196 H 400.028 1.9427 -3.97129 0
M  V30 4197 N 399.087 1.5561 -0.249682 0
M  V30 4198 C 400.315 2.03411 0.378352 0
M  V30 4199 C 400.73 1.12886 1.51335 0
M  V30 4200 O 400.087 0.143833 1.81932 0
M  V30 4201 C 400.138 3.50537 0.88351 0
M  V30 4202 O 399.859 4.37614 -0.20626 0
M  V30 4203 C 401.36 4.14113 1.58195 0
M  V30 4204 H 398.58 0.664994 0.08958 0
M  V30 4205 H 401.124 2.01044 -0.374357 0
M  V30 4206 H 399.279 3.5343 1.58639 0
M  V30 4207 H 399.693 5.24199 0.177782 0
M  V30 4208 H 401.167 5.18741 1.8871 0
M  V30 4209 H 401.644 3.60767 2.50487 0
M  V30 4210 H 402.25 4.15151 0.923573 0
M  V30 4211 N 400.565 -0.0233959 1.57583 0
M  V30 4212 C 401.811 -0.714119 1.89811 0
M  V30 4213 C 402.144 -1.74702 0.848113 0
M  V30 4214 O 401.419 -1.94023 -0.136135 0
M  V30 4215 C 401.702 -1.37853 3.32669 0
M  V30 4216 C 401.555 -0.358764 4.48367 0
M  V30 4217 C 402.874 -2.31101 3.7454 0
M  V30 4218 H 399.993 -0.25814 0.690314 0
M  V30 4219 H 402.635 0.0230927 1.89986 0
M  V30 4220 H 400.785 -2.00689 3.3265 0
M  V30 4221 H 402.457 0.268115 4.6052 0
M  V30 4222 H 400.7 0.321387 4.32608 0
M  V30 4223 H 401.371 -0.862242 5.45224 0
M  V30 4224 H 403.847 -1.78304 3.75961 0
M  V30 4225 H 402.723 -2.74567 4.75294 0
M  V30 4226 H 402.984 -3.18018 3.0711 0
M  V30 4227 N 402.043 -1.548 -0.295768 0
M  V30 4228 C 402.973 -1.89115 -1.36959 0
M  V30 4229 C 403.954 -0.75059 -1.52644 0
M  V30 4230 O 405.139 -1.00678 -1.66065 0
M  V30 4231 C 402.269 -2.14307 -2.73295 0
M  V30 4232 C 401.223 -3.30151 -2.72368 0
M  V30 4233 C 400.549 -3.40772 -4.12042 0
M  V30 4234 C 401.849 -4.67126 -2.33646 0
M  V30 4235 H 403.543 -2.79053 -1.08488 0
M  V30 4236 H 401.089 -1.34266 -0.520443 0
M  V30 4237 H 403.042 -2.36898 -3.48507 0
M  V30 4238 H 401.766 -1.21145 -3.03301 0
M  V30 4239 H 400.425 -3.0749 -1.99613 0
M  V30 4240 H 400.073 -2.45117 -4.39234 0
M  V30 4241 H 399.773 -4.18645 -4.12322 0
M  V30 4242 H 401.297 -3.6563 -4.89027 0
M  V30 4243 H 402.711 -4.89414 -2.98575 0
M  V30 4244 H 401.108 -5.47751 -2.45129 0
M  V30 4245 H 402.178 -4.67489 -1.28772 0
M  V30 4246 N 403.521 0.559213 -1.47345 0
M  V30 4247 C 404.932 1.14134 -1.47751 0
M  V30 4248 C 405.283 1.94834 -0.231103 0
M  V30 4249 O 404.408 2.05957 0.664137 0
M  V30 4250 C 405.003 2.07653 -2.67705 0
M  V30 4251 C 403.562 2.61141 -2.71076 0
M  V30 4252 C 402.709 1.3748 -2.40821 0
M  V30 4253 H 405.66 0.345917 -1.54884 0
M  V30 4254 H 405.681 2.91497 -2.44561 0
M  V30 4255 H 405.193 1.4889 -3.58404 0
M  V30 4256 H 403.294 3.23707 -1.84511 0
M  V30 4257 H 403.407 3.02272 -3.7171 0
M  V30 4258 H 401.771 1.68086 -1.91362 0
M  V30 4259 H 402.554 0.805135 -3.33725 0
M  V30 4260 N 404.999 1.35443 0.805782 0
M  V30 4261 C 406.227 1.31878 1.59423 0
M  V30 4262 C 406.642 -0.103562 1.88516 0
M  V30 4263 O 405.999 -1.05575 1.48863 0
M  V30 4264 C 406.05 2.12426 2.92502 0
M  V30 4265 O 405.771 3.49115 2.6467 0
M  V30 4266 C 407.272 2.16455 3.86862 0
M  V30 4267 H 404.492 0.453002 0.495005 0
M  V30 4268 H 407.036 1.78309 1.00131 0
M  V30 4269 H 405.191 1.69593 3.48306 0
M  V30 4270 H 405.605 3.90957 3.49647 0
M  V30 4271 H 407.079 2.77204 4.77349 0
M  V30 4272 H 407.556 1.16352 4.23508 0
M  V30 4273 H 408.162 2.59453 3.36993 0
M  V30 4274 N 406.477 -1.02803 1.19454 0
M  V30 4275 C 407.724 -1.76217 0.997693 0
M  V30 4276 C 408.052 -1.887 -0.47144 0
M  V30 4277 O 407.307 -1.4011 -1.3663 0
M  V30 4278 C 407.606 -3.18941 1.6128 0
M  V30 4279 C 407.272 -3.26463 3.11019 0
M  V30 4280 C 405.934 -3.28223 3.51885 0
M  V30 4281 C 408.286 -3.25542 4.07028 0
M  V30 4282 C 405.614 -3.26719 4.8731 0
M  V30 4283 C 407.966 -3.25579 5.42385 0
M  V30 4284 C 406.63 -3.25637 5.82681 0
M  V30 4285 H 405.9 -0.644823 0.365082 0
M  V30 4286 H 408.547 -1.20655 1.4871 0
M  V30 4287 H 406.852 -3.77587 1.04572 0
M  V30 4288 H 408.549 -3.74415 1.43577 0
M  V30 4289 H 405.139 -3.25822 2.78457 0
M  V30 4290 H 409.323 -3.23362 3.76498 0
M  V30 4291 H 404.579 -3.25089 5.1781 0
M  V30 4292 H 408.753 -3.23817 6.16535 0
M  V30 4293 H 406.38 -3.24226 6.87591 0
M  V30 4294 N 407.956 -0.998596 -1.21925 0
M  V30 4295 C 408.903 -0.553621 -2.24062 0
M  V30 4296 C 409.873 0.416999 -1.6078 0
M  V30 4297 O 411.058 0.320482 -1.88089 0
M  V30 4298 C 408.198 0.119959 -3.44891 0
M  V30 4299 C 407.311 -0.893077 -4.22668 0
M  V30 4300 C 406.446 -0.192424 -5.30851 0
M  V30 4301 C 405.485 -1.19344 -6.00353 0
M  V30 4302 N 404.622 -0.520707 -7.00166 0
M  V30 4303 H 409.462 -1.4293 -2.61486 0
M  V30 4304 H 406.999 -0.715838 -1.28507 0
M  V30 4305 H 408.957 0.527459 -4.13852 0
M  V30 4306 H 407.587 0.959389 -3.08214 0
M  V30 4307 H 406.639 -1.41886 -3.52948 0
M  V30 4308 H 407.951 -1.65512 -4.70539 0
M  V30 4309 H 407.105 0.271515 -6.06092 0
M  V30 4310 H 405.844 0.602075 -4.83969 0
M  V30 4311 H 404.849 -1.66795 -5.23889 0
M  V30 4312 H 406.074 -1.98891 -6.49322 0
M  V30 4313 H 404.02 0.254252 -6.55507 0
M  V30 4314 H 403.937 -1.2211 -7.46073 0
M  V30 4315 H 405.205 -0.0797596 -7.79459 0
M  V30 4316 N 409.434 1.37368 -0.772513 0
M  V30 4317 C 410.682 1.99279 -0.336516 0
M  V30 4318 C 411.003 1.6163 1.09091 0
M  V30 4319 O 410.273 0.882109 1.74916 0
M  V30 4320 H 408.853 0.737063 -0.121435 0
M  V30 4321 H 411.515 1.67836 -0.990809 0
M  V30 4322 H 410.611 3.09332 -0.414763 0
M  V30 4323 N 410.912 0.523116 1.48665 0
M  V30 4324 C 411.844 -0.280421 2.27478 0
M  V30 4325 C 412.857 -0.910694 1.34945 0
M  V30 4326 O 414.046 -0.790295 1.60052 0
M  V30 4327 C 411.146 -1.41171 3.08097 0
M  V30 4328 C 410.319 -0.884642 4.28361 0
M  V30 4329 C 409.378 -1.89622 4.90846 0
M  V30 4330 O 408.404 -1.4559 5.50265 0
M  V30 4331 N 409.606 -3.22801 4.82472 0
M  V30 4332 H 412.371 0.395481 2.97079 0
M  V30 4333 H 409.932 0.357018 1.57915 0
M  V30 4334 H 411.924 -2.08645 3.4677 0
M  V30 4335 H 410.494 -1.99139 2.40961 0
M  V30 4336 H 409.714 -0.0341177 3.94185 0
M  V30 4337 H 411.002 -0.511268 5.06225 0
M  V30 4338 H 410.4 -3.61246 4.35336 0
M  V30 4339 H 408.957 -3.85927 5.25265 0
M  V30 4340 N 412.39 -1.55475 0.257931 0
M  V30 4341 C 413.801 -1.8511 -0.243135 0
M  V30 4342 C 414.152 -1.17986 -1.5676 0
M  V30 4343 O 413.277 -0.462102 -2.11409 0
M  V30 4344 C 413.872 -3.35826 -0.447929 0
M  V30 4345 C 412.431 -3.65647 -0.893245 0
M  V30 4346 C 411.578 -2.7729 0.0232965 0
M  V30 4347 H 414.529 -1.51261 0.480199 0
M  V30 4348 H 414.55 -3.58002 -1.28898 0
M  V30 4349 H 414.062 -3.84652 0.516196 0
M  V30 4350 H 412.163 -3.22308 -1.86945 0
M  V30 4351 H 412.276 -4.73312 -0.742469 0
M  V30 4352 H 410.64 -2.49942 -0.490021 0
M  V30 4353 H 411.423 -3.28926 0.982994 0
M  V30 4354 N 413.868 0.0150385 -1.57593 0
M  V30 4355 C 415.093 0.718067 -1.94573 0
M  V30 4356 C 415.518 1.6734 -0.859005 0
M  V30 4357 O 414.876 1.80362 0.184147 0
M  V30 4358 C 414.924 1.43918 -3.30636 0
M  V30 4359 O 414.028 2.55299 -3.23876 0
M  V30 4360 H 413.369 0.192125 -0.635597 0
M  V30 4361 H 415.899 -0.0336708 -2.04572 0
M  V30 4362 H 415.909 1.80598 -3.65853 0
M  V30 4363 H 414.584 0.738619 -4.09289 0
M  V30 4364 H 413.161 2.21058 -3.00312 0
M  V30 4365 N 415.346 1.54954 0.287554 0
M  V30 4366 C 416.293 1.86834 1.35505 0
M  V30 4367 C 417.263 0.718452 1.49758 0
M  V30 4368 O 418.448 0.968358 1.644 0
M  V30 4369 C 415.588 2.13303 2.71286 0
M  V30 4370 C 414.701 3.40883 2.65373 0
M  V30 4371 C 413.836 3.57125 3.93236 0
M  V30 4372 C 412.875 4.78449 3.81776 0
M  V30 4373 N 412.012 4.91426 5.01443 0
M  V30 4374 H 416.852 2.77889 1.07619 0
M  V30 4375 H 414.389 1.37593 0.520241 0
M  V30 4376 H 416.347 2.26646 3.50267 0
M  V30 4377 H 414.977 1.25499 2.97405 0
M  V30 4378 H 414.029 3.36088 1.78182 0
M  V30 4379 H 415.341 4.29993 2.52799 0
M  V30 4380 H 414.495 3.70207 4.80658 0
M  V30 4381 H 413.234 2.66173 4.0866 0
M  V30 4382 H 412.239 4.65386 2.92738 0
M  V30 4383 H 413.464 5.70822 3.67884 0
M  V30 4384 H 411.41 4.03401 5.17304 0
M  V30 4385 H 411.327 5.74559 4.91343 0
M  V30 4386 H 412.595 5.08879 5.90477 0
M  V30 4387 N 416.824 -0.551391 1.4764 0
M  V30 4388 C 418.235 -1.13349 1.48354 0
M  V30 4389 C 418.586 -1.94709 0.241432 0
M  V30 4390 O 417.711 -2.06306 -0.653205 0
M  V30 4391 C 418.306 -2.0623 2.68802 0
M  V30 4392 C 416.865 -2.597 2.72457 0
M  V30 4393 C 416.012 -1.36201 2.41546 0
M  V30 4394 H 418.963 -0.337698 1.55065 0
M  V30 4395 H 418.984 -2.90196 2.46103 0
M  V30 4396 H 418.496 -1.46987 3.59188 0
M  V30 4397 H 416.597 -3.22724 1.86225 0
M  V30 4398 H 416.71 -3.00296 3.73308 0
M  V30 4399 H 415.074 -1.67068 1.9225 0
M  V30 4400 H 415.857 -0.787425 3.34147 0
M  V30 4401 N 418.302 -1.35869 -0.798587 0
M  V30 4402 C 419.549 -1.29588 -1.55606 0
M  V30 4403 C 419.877 0.127456 -1.94082 0
M  V30 4404 O 419.132 1.09461 -1.62225 0
M  V30 4405 C 419.431 -2.1556 -2.85077 0
M  V30 4406 C 419.097 -3.6424 -2.65781 0
M  V30 4407 C 417.759 -4.04766 -2.60227 0
M  V30 4408 C 420.111 -4.58547 -2.47758 0
M  V30 4409 C 417.439 -5.37753 -2.34603 0
M  V30 4410 C 419.791 -5.91742 -2.23662 0
M  V30 4411 C 418.455 -6.31402 -2.16534 0
M  V30 4412 H 417.725 -0.474197 -0.569402 0
M  V30 4413 H 420.372 -1.67839 -0.922086 0
M  V30 4414 H 418.677 -1.70216 -3.52893 0
M  V30 4415 H 420.374 -2.08031 -3.42818 0
M  V30 4416 H 416.964 -3.32086 -2.70956 0
M  V30 4417 H 421.148 -4.28117 -2.51056 0
M  V30 4418 H 416.404 -5.67474 -2.2756 0
M  V30 4419 H 420.578 -6.6439 -2.08708 0
M  V30 4420 H 418.205 -7.34381 -1.96441 0
M  V30 4421 N 419.78 1.02168 -1.19998 0
M  V30 4422 C 421.026 1.75945 -1.00852 0
M  V30 4423 C 421.359 1.88702 0.458828 0
M  V30 4424 O 420.634 1.40911 1.34069 0
M  V30 4425 C 420.917 3.18154 -1.68671 0
M  V30 4426 C 420.77 3.13224 -3.22817 0
M  V30 4427 C 422.089 4.16711 -1.41561 0
M  V30 4428 H 419.208 0.638673 -0.367785 0
M  V30 4429 H 421.85 1.19222 -1.4794 0
M  V30 4430 H 420 3.66586 -1.28636 0
M  V30 4431 H 421.672 2.72635 -3.72112 0
M  V30 4432 H 419.915 2.50751 -3.53986 0
M  V30 4433 H 420.586 4.13728 -3.65422 0
M  V30 4434 H 423.062 3.76913 -1.76284 0
M  V30 4435 H 421.938 5.14391 -1.91553 0
M  V30 4436 H 422.199 4.40774 -0.342193 0
M  V30 4437 N 421.258 1.00505 1.21394 0
M  V30 4438 C 422.506 0.686415 1.90086 0
M  V30 4439 C 422.827 -0.785264 1.7849 0
M  V30 4440 O 422.097 -1.56387 1.17983 0
M  V30 4441 H 420.677 0.2509 0.703604 0
M  V30 4442 H 423.339 1.27417 1.47482 0
M  V30 4443 H 422.435 0.959621 2.96981 0
M  V30 4444 N 422.737 -1.36956 0.779787 0
M  V30 4445 C 423.983 -1.99787 0.348281 0
M  V30 4446 C 424.316 -1.61756 -1.07465 0
M  V30 4447 O 423.591 -0.867639 -1.74075 0
M  V30 4448 C 423.874 -3.56597 0.50104 0
M  V30 4449 C 423.727 -4.04513 1.96697 0
M  V30 4450 C 425.046 -4.40008 -0.0898097 0
M  V30 4451 H 422.165 -0.725796 0.128022 0
M  V30 4452 H 424.807 -1.62514 0.984331 0
M  V30 4453 H 422.957 -3.88479 -0.0404347 0
M  V30 4454 H 424.629 -3.83161 2.56876 0
M  V30 4455 H 422.872 -3.56408 2.47297 0
M  V30 4456 H 423.543 -5.1352 2.02486 0
M  V30 4457 H 426.019 -4.14431 0.372293 0
M  V30 4458 H 424.895 -5.4888 0.0471605 0
M  V30 4459 H 425.156 -4.26035 -1.18096 0
M  V30 4460 N 424.215 -0.530993 -1.48385 0
M  V30 4461 C 425.145 0.219985 -2.32461 0
M  V30 4462 C 426.126 0.934111 -1.42156 0
M  V30 4463 O 427.311 0.919694 -1.71042 0
M  V30 4464 C 424.441 1.26674 -3.23375 0
M  V30 4465 C 423.395 0.67069 -4.22712 0
M  V30 4466 C 422.721 1.82017 -5.02766 0
M  V30 4467 C 424.021 -0.358268 -5.2107 0
M  V30 4468 H 425.715 -0.48187 -2.95497 0
M  V30 4469 H 423.261 -0.233182 -1.42099 0
M  V30 4470 H 425.214 1.80006 -3.81019 0
M  V30 4471 H 423.938 1.99818 -2.58341 0
M  V30 4472 H 422.597 0.158878 -3.66256 0
M  V30 4473 H 422.245 2.54002 -4.34157 0
M  V30 4474 H 421.945 1.42727 -5.70003 0
M  V30 4475 H 423.469 2.35725 -5.63264 0
M  V30 4476 H 424.883 0.0880081 -5.73232 0
M  V30 4477 H 423.28 -0.66861 -5.96364 0
M  V30 4478 H 424.35 -1.26367 -4.68145 0
M  V30 4479 N 425.693 1.55336 -0.266172 0
M  V30 4480 C 426.918 2.04258 0.359661 0
M  V30 4481 C 427.343 1.14359 1.49344 0
M  V30 4482 O 426.701 0.140369 1.80756 0
M  V30 4483 C 426.749 3.50997 0.826635 0
M  V30 4484 O 425.853 3.64204 1.93466 0
M  V30 4485 H 425.194 0.659668 0.075727 0
M  V30 4486 H 427.724 2.00694 -0.39786 0
M  V30 4487 H 427.734 3.9219 1.12477 0
M  V30 4488 H 426.409 4.159 -0.00293032 0
M  V30 4489 H 424.986 3.34913 1.63974 0
M  V30 4490 N 427.171 -0.0066808 1.57599 0
M  V30 4491 C 428.134 -0.985035 2.06953 0
M  V30 4492 C 429.134 -1.27663 0.977687 0
M  V30 4493 O 430.324 -1.22293 1.24057 0
M  V30 4494 C 427.456 -2.3118 2.50536 0
M  V30 4495 H 428.649 -0.558255 2.94658 0
M  V30 4496 H 426.202 -0.254011 1.54222 0
M  V30 4497 H 426.937 -2.78561 1.66054 0
M  V30 4498 H 426.722 -2.11338 3.3027 0
M  V30 4499 H 428.212 -3.01377 2.8907 0
M  V30 4500 N 428.649 -1.55105 -0.279332 0
M  V30 4501 C 429.897 -1.75066 -1.00977 0
M  V30 4502 C 430.218 -0.551276 -1.87045 0
M  V30 4503 O 429.488 0.433984 -1.91032 0
M  V30 4504 H 428.068 -0.645578 -0.375816 0
M  V30 4505 H 430.73 -1.92497 -0.305089 0
M  V30 4506 H 429.826 -2.64894 -1.65038 0
M  V30 4507 N 430.127 0.543554 -1.4793 0
M  V30 4508 C 431.376 1.29649 -1.54512 0
M  V30 4509 C 431.689 1.94382 -0.217973 0
M  V30 4510 O 432.895 2.71017 -0.161908 0
M  V30 4511 C 431.351 2.35175 -2.72435 0
M  V30 4512 C 430.959 1.76572 -4.11736 0
M  V30 4513 C 432.703 3.11564 -2.8832 0
M  V30 4514 C 430.61 2.79958 -5.20939 0
M  V30 4515 H 429.54 0.487541 -0.57517 0
M  V30 4516 H 432.191 0.575708 -1.74235 0
M  V30 4517 H 430.573 3.10229 -2.46118 0
M  V30 4518 H 431.747 1.07799 -4.48013 0
M  V30 4519 H 430.062 1.12722 -4.00852 0
M  V30 4520 H 432.659 3.88794 -3.67074 0
M  V30 4521 H 433.002 3.66594 -1.97268 0
M  V30 4522 H 433.535 2.43623 -3.14472 0
M  V30 4523 H 430.274 2.29766 -6.13912 0
M  V30 4524 H 429.794 3.47101 -4.89164 0
M  V30 4525 H 431.473 3.43198 -5.48474 0
M  V30 4526 N 431.605 1.3629 0.791371 0
M  V30 4527 C 432.553 1.30514 1.92533 0
M  V30 4528 C 433.547 0.197285 1.68247 0
M  V30 4529 O 434.753 0.364176 1.76278 0
M  V30 4530 H 431.128 0.406263 0.632815 0
M  V30 4531 H 433.099 2.26282 1.94523 0
M  V30 4532 C 431.848 1.10933 3.29529 0
M  V30 4533 H 431.171 1.95427 3.48781 0
M  V30 4534 H 432.611 1.10937 4.0923 0
M  V30 4535 C 431.07 -0.186123 3.36385 0
M  V30 4536 O 431.6 -1.17664 3.84081 0
M  V30 4537 N 429.806 -0.230128 2.89687 0
M  V30 4538 H 429.353 0.576545 2.51065 0
M  V30 4539 H 429.311 -1.09658 2.94657 0
M  V30 4540 N 433.083 -1.0153 1.20538 0
M  V30 4541 C 434.046 -2.0826 0.957098 0
M  V30 4542 C 435.046 -1.60657 -0.0678655 0
M  V30 4543 O 436.236 -1.73385 0.168332 0
M  V30 4544 C 433.368 -3.38033 0.441188 0
M  V30 4545 H 434.561 -2.31719 1.90384 0
M  V30 4546 H 432.114 -1.1835 1.02093 0
M  V30 4547 H 432.849 -3.20249 -0.510961 0
M  V30 4548 H 432.634 -3.73911 1.18038 0
M  V30 4549 H 434.124 -4.16613 0.287009 0
M  V30 4550 N 434.561 -1.01147 -1.20859 0
M  V30 4551 C 435.524 -0.582224 -2.21682 0
M  V30 4552 C 436.524 0.344887 -1.57058 0
M  V30 4553 O 437.714 0.134281 -1.73682 0
M  V30 4554 C 434.846 0.150496 -3.40568 0
M  V30 4555 H 436.039 -1.47408 -2.61172 0
M  V30 4556 H 433.592 -0.800695 -1.34233 0
M  V30 4557 H 434.327 1.0575 -3.06574 0
M  V30 4558 H 434.112 -0.515444 -3.88697 0
M  V30 4559 H 435.602 0.438344 -4.15293 0
M  V30 4560 N 436.039 1.36541 -0.78704 0
M  V30 4561 C 437.264 2.0409 -0.369053 0
M  V30 4562 C 437.689 1.58957 1.00569 0
M  V30 4563 O 437.047 0.756926 1.64743 0
M  V30 4564 C 437.095 3.57924 -0.438466 0
M  V30 4565 O 436.199 4.08642 0.555479 0
M  V30 4566 H 435.54 0.645142 -0.157122 0
M  V30 4567 H 438.07 1.74545 -1.06749 0
M  V30 4568 H 438.08 4.06887 -0.301218 0
M  V30 4569 H 436.755 3.90127 -1.44132 0
M  V30 4570 H 435.332 3.70958 0.380088 0
M  V30 4571 N 437.518 0.538854 1.48102 0
M  V30 4572 C 438.929 0.100679 1.86428 0
M  V30 4573 C 439.28 -1.32447 1.44749 0
M  V30 4574 O 438.405 -1.99339 0.842199 0
M  V30 4575 C 439 0.175933 3.38343 0
M  V30 4576 C 437.559 -0.207098 3.7583 0
M  V30 4577 C 436.706 0.531741 2.72154 0
M  V30 4578 H 439.657 0.749614 1.3988 0
M  V30 4579 H 439.678 -0.610144 3.75576 0
M  V30 4580 H 439.19 1.21328 3.68648 0
M  V30 4581 H 437.291 -1.24626 3.5114 0
M  V30 4582 H 437.404 0.138687 4.78899 0
M  V30 4583 H 435.768 -0.0230462 2.5469 0
M  V30 4584 H 436.551 1.56989 3.05302 0
M  V30 4585 N 438.996 -1.55193 0.274407 0
M  V30 4586 C 439.944 -2.23924 -0.629362 0
M  V30 4587 C 440.938 -1.23602 -1.1584 0
M  V30 4588 O 442.144 -1.41535 -1.11211 0
M  V30 4589 H 438.519 -0.718637 -0.221507 0
M  V30 4590 H 440.49 -2.98388 -0.0268322 0
M  V30 4591 C 439.239 -2.97329 -1.80252 0
M  V30 4592 H 438.562 -3.74313 -1.40462 0
M  V30 4593 H 440.002 -3.48743 -2.41152 0
M  V30 4594 C 438.461 -2.0276 -2.69054 0
M  V30 4595 O 438.991 -1.57836 -3.69392 0
M  V30 4596 N 437.197 -1.69275 -2.36208 0
M  V30 4597 H 436.744 -2.06004 -1.54661 0
M  V30 4598 H 436.702 -1.06271 -2.95895 0
M  V30 4599 N 440.474 -0.00167713 -1.576 0
M  V30 4600 C 441.421 0.989195 -2.08527 0
M  V30 4601 C 442.391 1.34031 -0.981065 0
M  V30 4602 O 443.576 1.43839 -1.2536 0
M  V30 4603 C 440.716 2.27537 -2.59463 0
M  V30 4604 C 439.829 1.98314 -3.83791 0
M  V30 4605 C 438.964 3.21025 -4.23222 0
M  V30 4606 C 438.003 2.87495 -5.40382 0
M  V30 4607 N 437.14 4.02749 -5.75098 0
M  V30 4608 H 441.98 0.547973 -2.92919 0
M  V30 4609 H 439.517 0.258917 -1.44803 0
M  V30 4610 H 441.475 3.02729 -2.87073 0
M  V30 4611 H 440.105 2.69325 -1.77943 0
M  V30 4612 H 439.157 1.13482 -3.63078 0
M  V30 4613 H 440.469 1.69601 -4.69081 0
M  V30 4614 H 439.623 4.04561 -4.52123 0
M  V30 4615 H 438.362 3.52877 -3.36644 0
M  V30 4616 H 437.367 2.02367 -5.11202 0
M  V30 4617 H 438.592 2.56889 -6.28637 0
M  V30 4618 H 436.538 4.34494 -4.91478 0
M  V30 4619 H 436.455 3.77566 -6.54966 0
M  V30 4620 H 437.723 4.87068 -6.08592 0
M  V30 4621 N 441.952 1.55251 0.271103 0
M  V30 4622 C 442.862 1.9136 1.35714 0
M  V30 4623 C 443.878 0.811075 1.5394 0
M  V30 4624 O 445.054 1.11031 1.6803 0
M  V30 4625 C 442.119 2.1798 2.69603 0
M  V30 4626 C 441.18 3.4153 2.60107 0
M  V30 4627 C 440.413 3.66871 3.8761 0
M  V30 4628 O 440.636 2.94689 4.8838 0
M  V30 4629 O 439.57 4.60405 3.87699 0
M  V30 4630 H 443.396 2.83815 1.08088 0
M  V30 4631 H 440.981 1.41821 0.469792 0
M  V30 4632 H 442.863 2.36518 3.48765 0
M  V30 4633 H 441.538 1.28708 2.97012 0
M  V30 4634 H 440.445 3.28325 1.79314 0
M  V30 4635 H 441.778 4.31027 2.37647 0
M  V30 4636 N 443.43 -0.535701 1.48216 0
M  V30 4637 C 444.36 -1.65014 1.65204 0
M  V30 4638 C 445.341 -1.62554 0.501011 0
M  V30 4639 O 446.526 -1.7984 0.732886 0
M  V30 4640 C 443.656 -3.03616 1.68626 0
M  V30 4641 C 442.61 -3.20932 2.83172 0
M  V30 4642 C 441.936 -4.60537 2.71679 0
M  V30 4643 C 443.236 -3.04249 4.24535 0
M  V30 4644 H 444.93 -1.51053 2.58502 0
M  V30 4645 H 442.476 -0.725262 1.24402 0
M  V30 4646 H 444.429 -3.81446 1.79099 0
M  V30 4647 H 443.153 -3.18587 0.719026 0
M  V30 4648 H 441.812 -2.45517 2.72244 0
M  V30 4649 H 441.46 -4.72336 1.72937 0
M  V30 4650 H 441.16 -4.73069 3.48538 0
M  V30 4651 H 442.684 -5.40475 2.84112 0
M  V30 4652 H 444.098 -3.71877 4.36326 0
M  V30 4653 H 442.495 -3.28278 5.02348 0
M  V30 4654 H 443.565 -2.00739 4.41397 0
M  V30 4655 N 444.908 -1.36708 -0.784132 0
M  V30 4656 C 445.871 -1.31307 -1.87859 0
M  V30 4657 C 446.871 -0.219654 -1.59293 0
M  V30 4658 O 448.061 -0.47476 -1.67606 0
M  V30 4659 C 445.193 -1.03679 -3.24751 0
M  V30 4660 H 446.386 -2.28647 -1.94064 0
M  V30 4661 H 443.939 -1.21558 -0.98252 0
M  V30 4662 H 444.674 -0.0681936 -3.24228 0
M  V30 4663 H 444.459 -1.82811 -3.46876 0
M  V30 4664 H 445.949 -1.02518 -4.04821 0
M  V30 4665 N 446.386 1.0089 -1.21074 0
M  V30 4666 C 447.333 2.09588 -0.966512 0
M  V30 4667 C 448.303 1.65761 0.106089 0
M  V30 4668 O 449.488 1.90758 -0.0402287 0
M  V30 4669 C 446.628 3.40958 -0.533058 0
M  V30 4670 C 445.741 3.9822 -1.67467 0
M  V30 4671 C 444.876 5.17682 -1.19076 0
M  V30 4672 C 443.915 5.67043 -2.30496 0
M  V30 4673 N 443.052 6.77759 -1.83267 0
M  V30 4674 H 447.892 2.29815 -1.89708 0
M  V30 4675 H 445.429 1.12689 -0.945489 0
M  V30 4676 H 447.387 4.1637 -0.263019 0
M  V30 4677 H 446.017 3.20781 0.360505 0
M  V30 4678 H 445.069 3.1983 -2.05944 0
M  V30 4679 H 446.381 4.3085 -2.51336 0
M  V30 4680 H 445.535 6.00326 -0.877151 0
M  V30 4681 H 444.274 4.86635 -0.322066 0
M  V30 4682 H 443.279 4.82999 -2.62664 0
M  V30 4683 H 444.504 6.00121 -3.17855 0
M  V30 4684 H 442.45 6.48527 -0.987356 0
M  V30 4685 H 442.367 7.09624 -2.60711 0
M  V30 4686 H 443.635 7.63949 -1.54928 0
M  V30 4687 N 447.864 1.01787 1.20321 0
M  V30 4688 C 448.774 0.598898 2.26827 0
M  V30 4689 C 449.79 -0.36418 1.70146 0
M  V30 4690 O 450.966 -0.224812 2.00141 0
M  V30 4691 C 448.031 -0.0549769 3.46656 0
M  V30 4692 C 447.092 0.954205 4.18561 0
M  V30 4693 C 446.325 0.331439 5.3267 0
M  V30 4694 O 446.548 -0.86851 5.63749 0
M  V30 4695 O 445.482 1.0488 5.92692 0
M  V30 4696 H 449.308 1.48562 2.64883 0
M  V30 4697 H 446.893 0.787434 1.26964 0
M  V30 4698 H 448.775 -0.420102 4.19301 0
M  V30 4699 H 447.45 -0.915876 3.10473 0
M  V30 4700 H 446.357 1.37072 3.48083 0
M  V30 4701 H 447.69 1.78511 4.58688 0
M  V30 4702 N 449.342 -1.36122 0.79427 0
M  V30 4703 C 450.589 -1.99111 0.368905 0
M  V30 4704 C 450.917 -1.63032 -1.0607 0
M  V30 4705 O 450.172 -0.879303 -1.74833 0
M  V30 4706 C 450.471 -3.5409 0.48527 0
M  V30 4707 C 450.137 -4.10003 1.87638 0
M  V30 4708 C 448.799 -4.24986 2.257 0
M  V30 4709 C 451.151 -4.40423 2.78706 0
M  V30 4710 C 448.479 -4.67701 3.54221 0
M  V30 4711 C 450.831 -4.84573 4.0666 0
M  V30 4712 C 449.495 -4.97761 4.44737 0
M  V30 4713 H 448.765 -0.7286 0.134992 0
M  V30 4714 H 451.412 -1.62534 1.01267 0
M  V30 4715 H 449.717 -3.91052 -0.241984 0
M  V30 4716 H 451.414 -4.00766 0.137109 0
M  V30 4717 H 448.004 -3.98784 1.57064 0
M  V30 4718 H 452.188 -4.28412 2.50553 0
M  V30 4719 H 447.444 -4.761 3.83587 0
M  V30 4720 H 451.618 -5.07074 4.77336 0
M  V30 4721 H 449.245 -5.30618 5.44379 0
M  V30 4722 N 450.82 -0.546701 -1.47814 0
M  V30 4723 C 451.75 0.195317 -2.32682 0
M  V30 4724 C 452.731 0.918981 -1.43139 0
M  V30 4725 O 453.916 0.901501 -1.72008 0
M  V30 4726 C 451.046 1.23237 -3.247 0
M  V30 4727 C 450 0.625818 -4.234 0
M  V30 4728 C 449.326 1.76674 -5.04669 0
M  V30 4729 C 450.626 -0.413515 -5.2066 0
M  V30 4730 H 452.32 -0.513184 -2.94969 0
M  V30 4731 H 449.866 -0.248241 -1.41844 0
M  V30 4732 H 451.819 1.75955 -3.82907 0
M  V30 4733 H 450.543 1.97067 -2.60446 0
M  V30 4734 H 449.202 0.120023 -3.66403 0
M  V30 4735 H 448.85 2.49383 -4.36826 0
M  V30 4736 H 448.55 1.36673 -5.71484 0
M  V30 4737 H 450.074 2.29738 -5.65732 0
M  V30 4738 H 451.488 0.0272042 -5.73294 0
M  V30 4739 H 449.885 -0.731825 -5.95621 0
M  V30 4740 H 450.955 -1.31325 -4.66778 0
M  V30 4741 N 452.299 1.55045 -0.282633 0
M  V30 4742 C 453.209 2.26491 0.61147 0
M  V30 4743 C 454.225 1.29348 1.16384 0
M  V30 4744 O 455.401 1.62298 1.19253 0
M  V30 4745 C 452.466 2.97779 1.77563 0
M  V30 4746 C 451.527 4.10418 1.25919 0
M  V30 4747 C 450.76 4.78297 2.36786 0
M  V30 4748 O 450.983 4.45426 3.56303 0
M  V30 4749 O 449.917 5.66089 2.04517 0
M  V30 4750 H 453.743 3.03683 0.0324615 0
M  V30 4751 H 451.328 1.49317 -0.0497576 0
M  V30 4752 H 453.21 3.42554 2.45427 0
M  V30 4753 H 451.885 2.23498 2.34159 0
M  V30 4754 H 450.792 3.70082 0.546797 0
M  V30 4755 H 452.125 4.86622 0.738887 0
M  V30 4756 N 453.777 0.010035 1.57597 0
M  V30 4757 C 454.725 -0.996272 2.10184 0
M  V30 4758 C 455.719 -1.34942 1.02406 0
M  V30 4759 O 456.925 -1.33389 1.20861 0
M  V30 4760 H 453.3 -0.338982 0.671264 0
M  V30 4761 H 455.271 -0.527272 2.93705 0
M  V30 4762 C 454.02 -2.27599 2.62857 0
M  V30 4763 H 453.343 -2.01295 3.45428 0
M  V30 4764 H 454.783 -2.96265 3.0332 0
M  V30 4765 C 453.242 -2.99269 1.54725 0
M  V30 4766 O 453.772 -3.90644 0.93597 0
M  V30 4767 N 451.978 -2.61269 1.27228 0
M  V30 4768 H 451.525 -1.87043 1.77123 0
M  V30 4769 H 451.483 -3.09534 0.550999 0
M  V30 4770 N 455.255 -1.55392 -0.262866 0
M  V30 4771 C 456.485 -1.80251 -1.00961 0
M  V30 4772 C 456.893 -0.58117 -1.80053 0
M  V30 4773 O 456.236 0.459427 -1.77862 0
M  V30 4774 C 456.298 -2.98207 -2.00781 0
M  V30 4775 C 455.962 -4.34856 -1.40533 0
M  V30 4776 C 456.959 -5.13459 -0.815853 0
M  V30 4777 C 454.644 -4.8153 -1.42948 0
M  V30 4778 C 456.638 -6.36875 -0.258562 0
M  V30 4779 C 454.325 -6.04899 -0.868334 0
M  V30 4780 C 455.323 -6.8241 -0.283884 0
M  V30 4781 O 455.011 -8.03451 0.268644 0
M  V30 4782 H 454.743 -0.604049 -0.303482 0
M  V30 4783 H 457.297 -2.03257 -0.295926 0
M  V30 4784 H 455.527 -2.70917 -2.75936 0
M  V30 4785 H 457.216 -3.10299 -2.61667 0
M  V30 4786 H 457.982 -4.78526 -0.789812 0
M  V30 4787 H 453.861 -4.21201 -1.87378 0
M  V30 4788 H 457.405 -6.97318 0.198257 0
M  V30 4789 H 453.302 -6.39312 -0.891649 0
M  V30 4790 H 454.07 -8.18346 0.158974 0
M  V30 4791 N 456.733 0.527833 -1.48498 0
M  V30 4792 C 457.663 1.64136 -1.66077 0
M  V30 4793 C 458.644 1.62286 -0.509625 0
M  V30 4794 O 459.829 1.79449 -0.742413 0
M  V30 4795 C 456.959 3.02717 -1.70234 0
M  V30 4796 C 455.913 3.19426 -2.8487 0
M  V30 4797 C 455.239 4.5909 -2.74118 0
M  V30 4798 C 456.539 3.01993 -4.26142 0
M  V30 4799 H 458.233 1.4968 -2.593 0
M  V30 4800 H 455.779 0.718654 -1.24785 0
M  V30 4801 H 457.732 3.80491 -1.8112 0
M  V30 4802 H 456.456 3.18201 -0.735911 0
M  V30 4803 H 455.115 2.4407 -2.73542 0
M  V30 4804 H 454.763 4.71413 -1.7544 0
M  V30 4805 H 454.463 4.71214 -3.51042 0
M  V30 4806 H 455.987 5.3896 -2.86974 0
M  V30 4807 H 457.401 3.69558 -4.38292 0
M  V30 4808 H 455.798 3.2561 -5.04082 0
M  V30 4809 H 456.868 1.98396 -4.42456 0
M  V30 4810 N 458.211 1.37122 0.776871 0
M  V30 4811 C 459.141 1.35164 1.90402 0
M  V30 4812 C 460.122 0.221069 1.68657 0
M  V30 4813 O 461.307 0.420642 1.8959 0
M  V30 4814 C 458.437 1.15274 3.27611 0
M  V30 4815 C 457.391 2.25289 3.63908 0
M  V30 4816 C 456.717 1.90527 4.99603 0
M  V30 4817 C 458.017 3.67446 3.71188 0
M  V30 4818 H 459.711 2.29482 1.92297 0
M  V30 4819 H 457.257 1.10465 0.923773 0
M  V30 4820 H 459.21 1.12536 4.06096 0
M  V30 4821 H 457.934 0.174102 3.26136 0
M  V30 4822 H 456.593 2.27174 2.87728 0
M  V30 4823 H 456.241 0.91206 4.94662 0
M  V30 4824 H 455.941 2.64193 5.24858 0
M  V30 4825 H 457.465 1.89367 5.80493 0
M  V30 4826 H 458.879 3.67719 4.39836 0
M  V30 4827 H 457.276 4.40123 4.07936 0
M  V30 4828 H 458.346 4.01443 2.71977 0
M  V30 4829 N 459.689 -1.00246 1.21608 0
M  V30 4830 C 460.917 -1.77631 1.06089 0
M  V30 4831 C 461.332 -1.84746 -0.38916 0
M  V30 4832 O 460.689 -1.31068 -1.26994 0
M  V30 4833 C 460.74 -3.21415 1.65453 0
M  V30 4834 O 460.461 -3.14703 3.04785 0
M  V30 4835 C 461.962 -4.15289 1.55079 0
M  V30 4836 H 459.182 -0.558162 0.37242 0
M  V30 4837 H 461.726 -1.26093 1.60999 0
M  V30 4838 H 459.881 -3.70053 1.14629 0
M  V30 4839 H 460.295 -4.05056 3.33212 0
M  V30 4840 H 461.769 -5.13965 2.01355 0
M  V30 4841 H 462.246 -4.36279 0.505665 0
M  V30 4842 H 462.852 -3.72543 2.05163 0
M  V30 4843 N 461.167 -1.02423 -1.1978 0
M  V30 4844 C 462.444 -0.632802 -1.85081 0
M  V30 4845 C 462.824 0.888745 -1.9148 0
M  V30 4846 O 462.172 1.78357 -1.42832 0
M  V30 4847 C 462.382 -1.28947 -3.24305 0
M  V30 4848 C 463.73 -1.40976 -4.00513 0
M  V30 4849 O 464.754 -1.24628 -3.33686 0
M  V30 4850 O 463.613 -1.67467 -5.20209 0
M  V30 4851 H 460.707 -0.219348 -0.79738 0
M  V30 4852 H 463.253 -1.12209 -1.27307 0
M  V30 4853 H 462.025 -2.3288 -3.14456 0
M  V30 4854 H 461.648 -0.787748 -3.89718 0
M  V30 4855 N 462.645 1.35699 -0.801477 0
M  V30 4856 C 463.555 2.33661 -0.209691 0
M  V30 4857 C 464.571 1.6162 0.644591 0
M  V30 4858 O 465.747 1.93529 0.557545 0
M  V30 4859 C 462.812 3.40816 0.636033 0
M  V30 4860 C 461.873 4.28639 -0.238147 0
M  V30 4861 C 461.106 5.30676 0.567307 0
M  V30 4862 O 461.329 5.41174 1.8024 0
M  V30 4863 O 460.263 6.01887 -0.0391336 0
M  V30 4864 H 464.089 2.8606 -1.01996 0
M  V30 4865 H 461.674 1.38379 -0.563164 0
M  V30 4866 H 463.556 4.06301 1.11791 0
M  V30 4867 H 462.231 2.90696 1.42399 0
M  V30 4868 H 461.138 3.66152 -0.767044 0
M  V30 4869 H 462.471 4.82143 -0.989915 0
M  V30 4870 N 464.123 0.554532 1.47522 0
M  V30 4871 C 465.371 0.0294208 2.02079 0
M  V30 4872 C 465.692 -1.32411 1.43151 0
M  V30 4873 O 464.962 -1.863 0.605728 0
M  V30 4874 H 463.542 0.00788672 0.746958 0
M  V30 4875 H 466.204 0.723934 1.80956 0
M  V30 4876 H 465.3 -0.0606745 3.12041 0
M  V30 4877 N 465.601 -1.54893 0.290851 0
M  V30 4878 C 466.531 -2.26103 -0.583084 0
M  V30 4879 C 467.512 -1.25684 -1.14619 0
M  V30 4880 O 468.697 -1.54436 -1.17741 0
M  V30 4881 C 465.827 -2.99409 -1.75987 0
M  V30 4882 C 464.781 -4.0689 -1.32758 0
M  V30 4883 C 464.107 -4.67856 -2.58872 0
M  V30 4884 C 465.407 -5.20215 -0.46624 0
M  V30 4885 H 467.101 -2.99398 0.0108214 0
M  V30 4886 H 464.647 -1.43998 0.00664468 0
M  V30 4887 H 466.6 -3.47943 -2.37727 0
M  V30 4888 H 465.324 -2.23675 -2.37985 0
M  V30 4889 H 463.983 -3.59191 -0.733299 0
M  V30 4890 H 463.631 -3.88772 -3.19163 0
M  V30 4891 H 463.331 -5.40438 -2.30653 0
M  V30 4892 H 464.855 -5.19147 -3.21433 0
M  V30 4893 H 466.269 -5.64704 -0.989047 0
M  V30 4894 H 464.666 -5.99455 -0.27826 0
M  V30 4895 H 465.736 -4.82198 0.511173 0
M  V30 4896 N 467.08 -0.0183926 -1.57589 0
M  V30 4897 C 467.99 0.982943 -2.13015 0
M  V30 4898 C 469.006 1.36443 -1.07979 0
M  V30 4899 O 470.182 1.44802 -1.3998 0
M  V30 4900 C 467.247 2.25024 -2.63752 0
M  V30 4901 C 466.308 1.93018 -3.83461 0
M  V30 4902 C 465.541 3.13706 -4.31769 0
M  V30 4903 O 465.764 4.2601 -3.79305 0
M  V30 4904 O 464.698 2.96629 -5.23732 0
M  V30 4905 H 468.524 0.541709 -2.9883 0
M  V30 4906 H 466.109 0.201565 -1.48034 0
M  V30 4907 H 467.991 2.99441 -2.96502 0
M  V30 4908 H 466.666 2.68349 -1.81026 0
M  V30 4909 H 465.573 1.16019 -3.55655 0
M  V30 4910 H 466.906 1.54516 -4.67317 0
M  V30 4911 N 468.558 1.5553 0.254621 0
M  V30 4912 C 469.521 1.88872 1.29846 0
M  V30 4913 C 470.521 0.764591 1.41459 0
M  V30 4914 O 471.711 1.03265 1.40293 0
M  V30 4915 C 468.843 2.11032 2.67728 0
M  V30 4916 H 470.036 2.82201 1.01502 0
M  V30 4917 H 467.589 1.48303 0.493556 0
M  V30 4918 H 468.324 1.20146 3.01223 0
M  V30 4919 H 468.109 2.92895 2.60682 0
M  V30 4920 H 469.599 2.38038 3.43115 0
M  V30 4921 N 470.036 -0.519951 1.48776 0
M  V30 4922 C 471.282 -1.27711 1.57536 0
M  V30 4923 C 471.615 -1.92547 0.252866 0
M  V30 4924 O 470.89 -1.7979 -0.742021 0
M  V30 4925 C 471.173 -2.35875 2.72094 0
M  V30 4926 C 471.026 -1.75664 4.1408 0
M  V30 4927 C 472.345 -3.37575 2.82367 0
M  V30 4928 H 469.464 -0.462971 0.573434 0
M  V30 4929 H 472.106 -0.578194 1.80989 0
M  V30 4930 H 470.256 -2.95488 2.52228 0
M  V30 4931 H 471.928 -1.20025 4.45412 0
M  V30 4932 H 470.171 -1.06154 4.20611 0
M  V30 4933 H 470.842 -2.54029 4.90075 0
M  V30 4934 H 473.318 -2.87929 3.00393 0
M  V30 4935 H 472.194 -4.1064 3.64233 0
M  V30 4936 H 472.455 -3.98743 1.90936 0
M  V30 4937 N 471.514 -1.37532 -0.769588 0
M  V30 4938 C 472.462 -1.33561 -1.90432 0
M  V30 4939 C 473.456 -0.224027 -1.67912 0
M  V30 4940 O 474.662 -0.392174 -1.75676 0
M  V30 4941 H 471.037 -0.416279 -0.626271 0
M  V30 4942 H 473.008 -2.29348 -1.90899 0
M  V30 4943 C 471.757 -1.16162 -3.27722 0
M  V30 4944 H 471.08 -2.00951 -3.45628 0
M  V30 4945 H 472.52 -1.17434 -4.07413 0
M  V30 4946 C 470.979 0.132583 -3.36639 0
M  V30 4947 O 471.509 1.11539 -3.85904 0
M  V30 4948 N 469.715 0.184013 -2.90017 0
M  V30 4949 H 469.262 -0.616415 -2.50116 0
M  V30 4950 H 469.22 1.04956 -2.96364 0
M  V30 4951 N 472.992 0.995999 -1.22138 0
M  V30 4952 C 473.939 2.08551 -0.988687 0
M  V30 4953 C 474.909 1.65864 0.0885021 0
M  V30 4954 O 476.094 1.90704 -0.0604589 0
M  V30 4955 C 473.234 3.40374 -0.569191 0
M  V30 4956 C 472.347 3.96421 -1.71681 0
M  V30 4957 C 471.482 5.1639 -1.2456 0
M  V30 4958 C 470.521 5.64567 -2.36497 0
M  V30 4959 N 469.658 6.75777 -1.90445 0
M  V30 4960 H 474.498 2.2779 -1.92135 0
M  V30 4961 H 472.035 1.1168 -0.957388 0
M  V30 4962 H 473.993 4.16068 -0.307166 0
M  V30 4963 H 472.623 3.21145 0.326462 0
M  V30 4964 H 471.675 3.17628 -2.09324 0
M  V30 4965 H 472.987 4.2816 -2.55891 0
M  V30 4966 H 472.141 5.99362 -0.940774 0
M  V30 4967 H 470.88 4.86266 -0.373662 0
M  V30 4968 H 469.885 4.80185 -2.67772 0
M  V30 4969 H 471.11 5.96716 -3.24202 0
M  V30 4970 H 469.056 6.47443 -1.05609 0
M  V30 4971 H 468.973 7.06818 -2.68223 0
M  V30 4972 H 470.241 7.62262 -1.63022 0
M  V30 4973 N 474.47 1.03057 1.19235 0
M  V30 4974 C 475.747 0.642608 1.84743 0
M  V30 4975 C 476.127 -0.878577 1.91948 0
M  V30 4976 O 475.475 -1.77597 1.43776 0
M  V30 4977 C 475.685 1.30665 3.23616 0
M  V30 4978 C 477.033 1.43098 3.9976 0
M  V30 4979 O 478.057 1.26396 3.3302 0
M  V30 4980 O 476.916 1.70223 5.19313 0
M  V30 4981 H 474.01 0.223573 0.796206 0
M  V30 4982 H 476.556 1.12883 1.26711 0
M  V30 4983 H 475.328 2.34544 3.13217 0
M  V30 4984 H 474.951 0.808405 3.89295 0
M  V30 4985 N 475.948 -1.35272 0.808662 0
M  V30 4986 C 476.895 -2.29764 0.218482 0
M  V30 4987 C 477.865 -1.52911 -0.648652 0
M  V30 4988 O 479.05 -1.81341 -0.593297 0
M  V30 4989 C 476.19 -3.39388 -0.625282 0
M  V30 4990 C 475.303 -4.31202 0.262516 0
M  V30 4991 C 474.438 -5.27919 -0.589451 0
M  V30 4992 C 473.477 -6.11371 0.298617 0
M  V30 4993 N 472.614 -7.0022 -0.513443 0
M  V30 4994 H 477.454 -2.79645 1.02968 0
M  V30 4995 H 474.991 -1.37629 0.519303 0
M  V30 4996 H 476.949 -4.01615 -1.12966 0
M  V30 4997 H 475.579 -2.90777 -1.40173 0
M  V30 4998 H 474.631 -3.69962 0.885013 0
M  V30 4999 H 475.943 -4.89748 0.945971 0
M  V30 5000 H 475.097 -5.95529 -1.15888 0
M  V30 5001 H 473.836 -4.69875 -1.30647 0
M  V30 5002 H 472.841 -5.42707 0.880301 0
M  V30 5003 H 474.066 -6.71494 1.01352 0
M  V30 5004 H 472.012 -6.44662 -1.21439 0
M  V30 5005 H 471.929 -7.55917 0.111922 0
M  V30 5006 H 473.197 -7.72175 -1.06608 0
M  V30 5007 N 477.426 -0.562348 -1.47226 0
M  V30 5008 C 478.837 -0.130325 -1.86245 0
M  V30 5009 C 479.188 1.30128 -1.46838 0
M  V30 5010 O 478.313 1.97974 -0.873805 0
M  V30 5011 C 478.908 -0.229738 -3.3802 0
M  V30 5012 C 477.467 0.14728 -3.76112 0
M  V30 5013 C 476.614 -0.574971 -2.71274 0
M  V30 5014 H 479.565 -0.771773 -1.3867 0
M  V30 5015 H 479.586 0.550316 -3.76499 0
M  V30 5016 H 479.098 -1.27178 -3.66671 0
M  V30 5017 H 477.199 1.19023 -3.53078 0
M  V30 5018 H 477.312 -0.214858 -4.78618 0
M  V30 5019 H 475.676 -0.0174756 -2.54694 0
M  V30 5020 H 476.459 -1.61827 -3.02766 0
M  V30 5021 N 478.904 1.54736 -0.299062 0
M  V30 5022 C 479.834 2.26409 0.571085 0
M  V30 5023 C 480.815 1.2629 1.13951 0
M  V30 5024 O 482 1.55059 1.16921 0
M  V30 5025 C 479.13 3.00338 1.74396 0
M  V30 5026 C 478.084 4.07588 1.30599 0
M  V30 5027 C 477.41 4.69222 2.56387 0
M  V30 5028 C 478.71 5.20455 0.438645 0
M  V30 5029 H 480.404 2.99388 -0.0266991 0
M  V30 5030 H 477.95 1.43993 -0.0142812 0
M  V30 5031 H 479.903 3.49198 2.35878 0
M  V30 5032 H 478.627 2.24934 2.36796 0
M  V30 5033 H 477.286 3.59575 0.71424 0
M  V30 5034 H 476.934 3.9046 3.17097 0
M  V30 5035 H 476.634 5.41653 2.27784 0
M  V30 5036 H 478.158 5.20844 3.18675 0
M  V30 5037 H 479.572 5.65221 0.959085 0
M  V30 5038 H 477.969 5.99594 0.246466 0
M  V30 5039 H 479.039 4.8192 -0.536738 0
M  V30 5040 N 480.382 0.0267497 1.57577 0
M  V30 5041 C 481.63 -0.651116 1.91324 0
M  V30 5042 C 481.951 -1.72804 0.90353 0
M  V30 5043 O 481.221 -1.95822 -0.0552946 0
M  V30 5044 H 479.801 -0.243491 0.706202 0
M  V30 5045 H 482.463 0.0739935 1.94759 0
M  V30 5046 H 481.559 -1.10536 2.9187 0
M  V30 5047 N 481.861 -1.55662 -0.24637 0
M  V30 5048 C 482.824 -1.89558 -1.28842 0
M  V30 5049 C 483.824 -0.772082 -1.41052 0
M  V30 5050 O 485.014 -1.04007 -1.39743 0
M  V30 5051 C 482.146 -2.12449 -2.66605 0
M  V30 5052 H 483.339 -2.82735 -1.00004 0
M  V30 5053 H 480.892 -1.48562 -0.485684 0
M  V30 5054 H 481.627 -1.21742 -3.00582 0
M  V30 5055 H 481.412 -2.94273 -2.59125 0
M  V30 5056 H 482.902 -2.39854 -3.41847 0
M  V30 5057 N 483.339 0.512053 -1.4905 0
M  V30 5058 C 484.585 1.26874 -1.58212 0
M  V30 5059 C 484.918 1.9241 -0.263073 0
M  V30 5060 O 484.193 1.80181 0.732476 0
M  V30 5061 C 484.476 2.34428 -2.73341 0
M  V30 5062 C 484.329 1.73466 -4.15006 0
M  V30 5063 C 485.648 3.36073 -2.84154 0
M  V30 5064 H 482.767 0.459924 -0.575881 0
M  V30 5065 H 485.409 0.568587 -1.81293 0
M  V30 5066 H 483.559 2.94146 -2.53792 0
M  V30 5067 H 485.231 1.17661 -4.46042 0
M  V30 5068 H 483.474 1.03921 -4.21168 0
M  V30 5069 H 484.145 2.51426 -4.91415 0
M  V30 5070 H 486.621 2.86332 -3.01916 0
M  V30 5071 H 485.497 4.08703 -3.66406 0
M  V30 5072 H 485.758 3.97725 -1.93048 0
M  V30 5073 N 484.817 1.37938 0.762283 0
M  V30 5074 C 485.78 1.34279 1.85747 0
M  V30 5075 C 486.78 0.244969 1.58923 0
M  V30 5076 O 487.97 0.501365 1.66829 0
M  V30 5077 C 485.102 1.08833 3.23061 0
M  V30 5078 H 486.295 2.31705 1.90401 0
M  V30 5079 H 483.848 1.23105 0.963057 0
M  V30 5080 H 484.583 0.119767 3.24079 0
M  V30 5081 H 484.368 1.88306 3.43923 0
M  V30 5082 H 485.858 1.08946 4.03138 0
M  V30 5083 N 486.295 -0.989507 1.22664 0
M  V30 5084 C 487.225 -2.09847 1.02404 0
M  V30 5085 C 488.206 -1.70007 -0.0561303 0
M  V30 5086 O 489.391 -1.93906 0.106748 0
M  V30 5087 C 486.521 -3.41996 0.604663 0
M  V30 5088 C 485.475 -3.95699 1.63115 0
M  V30 5089 C 484.801 -5.23936 1.0675 0
M  V30 5090 C 486.101 -4.25999 3.02196 0
M  V30 5091 H 487.795 -2.27054 1.95158 0
M  V30 5092 H 485.341 -1.09111 0.939727 0
M  V30 5093 H 487.294 -4.1899 0.45002 0
M  V30 5094 H 486.018 -3.24626 -0.35855 0
M  V30 5095 H 484.677 -3.2084 1.77362 0
M  V30 5096 H 484.325 -5.02909 0.0955422 0
M  V30 5097 H 484.025 -5.60833 1.75328 0
M  V30 5098 H 485.549 -6.0356 0.924516 0
M  V30 5099 H 486.963 -4.93777 2.91303 0
M  V30 5100 H 485.36 -4.74076 3.67929 0
M  V30 5101 H 486.43 -3.33636 3.51873 0
M  V30 5102 N 487.773 -1.03688 -1.18687 0
M  V30 5103 C 488.72 -0.624624 -2.22187 0
M  V30 5104 C 489.69 0.365636 -1.62026 0
M  V30 5105 O 490.875 0.260481 -1.89014 0
M  V30 5106 C 488.015 0.0101738 -3.45099 0
M  V30 5107 C 487.128 -1.02709 -4.19613 0
M  V30 5108 C 486.263 -0.361213 -5.2997 0
M  V30 5109 C 485.302 -1.38384 -5.96252 0
M  V30 5110 N 484.439 -0.743196 -6.98155 0
M  V30 5111 H 489.279 -1.51176 -2.56807 0
M  V30 5112 H 486.816 -0.75636 -1.26165 0
M  V30 5113 H 488.774 0.395528 -4.15321 0
M  V30 5114 H 487.404 0.860848 -3.1111 0
M  V30 5115 H 486.456 -1.53043 -3.48256 0
M  V30 5116 H 487.768 -1.80398 -4.65036 0
M  V30 5117 H 486.922 0.0785537 -6.06649 0
M  V30 5118 H 485.661 0.447799 -4.8564 0
M  V30 5119 H 484.666 -1.83378 -5.18317 0
M  V30 5120 H 485.891 -2.19448 -6.42666 0
M  V30 5121 H 483.837 0.0455789 -6.55984 0
M  V30 5122 H 483.754 -1.45784 -7.41811 0
M  V30 5123 H 485.022 -0.327698 -7.78811 0
M  V30 5124 N 489.251 1.34841 -0.815825 0
M  V30 5125 C 490.476 2.03261 -0.41226 0
M  V30 5126 C 490.901 1.61055 0.971751 0
M  V30 5127 O 490.259 0.7917 1.63101 0
M  V30 5128 C 490.307 3.56914 -0.514289 0
M  V30 5129 O 489.411 4.09728 0.468675 0
M  V30 5130 H 488.752 0.641664 -0.170771 0
M  V30 5131 H 491.282 1.72241 -1.10427 0
M  V30 5132 H 491.292 4.06156 -0.387457 0
M  V30 5133 H 489.967 3.86982 -1.52375 0
M  V30 5134 H 488.544 3.71681 0.301316 0
M  V30 5135 N 490.729 0.570148 1.46925 0
M  V30 5136 C 491.959 0.0561151 2.06524 0
M  V30 5137 C 492.367 -1.24874 1.42137 0
M  V30 5138 O 491.71 -1.76292 0.516417 0
M  V30 5139 C 491.772 -0.197035 3.5896 0
M  V30 5140 C 491.436 1.02033 4.45464 0
M  V30 5141 C 492.433 1.92921 4.82781 0
M  V30 5142 C 490.118 1.23864 4.86788 0
M  V30 5143 C 492.112 3.03999 5.60235 0
M  V30 5144 C 489.799 2.35249 5.64004 0
M  V30 5145 C 490.797 3.25146 6.0064 0
M  V30 5146 O 490.485 4.34598 6.76299 0
M  V30 5147 H 490.217 0.0487409 0.674241 0
M  V30 5148 H 492.771 0.786915 1.89728 0
M  V30 5149 H 491.001 -0.982299 3.74016 0
M  V30 5150 H 492.69 -0.658032 4.00531 0
M  V30 5151 H 493.456 1.77265 4.51444 0
M  V30 5152 H 489.335 0.54805 4.57731 0
M  V30 5153 H 492.879 3.74192 5.8875 0
M  V30 5154 H 488.776 2.50873 5.94755 0
M  V30 5155 H 489.544 4.32808 6.94708 0
M  V30 5156 N 492.207 -1.54576 0.307264 0
M  V30 5157 C 493.117 -2.27435 -0.57536 0
M  V30 5158 C 494.133 -1.31183 -1.14311 0
M  V30 5159 O 495.309 -1.64175 -1.16656 0
M  V30 5160 C 492.374 -3.00566 -1.72803 0
M  V30 5161 C 491.435 -4.12369 -1.19373 0
M  V30 5162 C 490.668 -4.82003 -2.29147 0
M  V30 5163 O 490.891 -4.51038 -3.49171 0
M  V30 5164 O 489.825 -5.69271 -1.95485 0
M  V30 5165 H 493.651 -3.03696 0.0158558 0
M  V30 5166 H 491.236 -1.49219 0.0735064 0
M  V30 5167 H 493.118 -3.46416 -2.39946 0
M  V30 5168 H 491.793 -2.27195 -2.30574 0
M  V30 5169 H 490.7 -3.70905 -0.487851 0
M  V30 5170 H 492.033 -4.87736 -0.661376 0
M  V30 5171 N 493.685 -0.035106 -1.57561 0
M  V30 5172 C 494.595 0.960295 -2.14046 0
M  V30 5173 C 495.611 1.3529 -1.0942 0
M  V30 5174 O 496.787 1.43309 -1.41508 0
M  V30 5175 C 493.852 2.22214 -2.66124 0
M  V30 5176 C 492.913 1.8894 -3.85487 0
M  V30 5177 C 492.146 3.09109 -4.35072 0
M  V30 5178 O 492.369 4.21963 -3.83802 0
M  V30 5179 O 491.303 2.91058 -5.26848 0
M  V30 5180 H 495.129 0.509983 -2.99387 0
M  V30 5181 H 492.714 0.185853 -1.48239 0
M  V30 5182 H 494.596 2.96279 -2.99661 0
M  V30 5183 H 493.271 2.66414 -1.83862 0
M  V30 5184 H 492.178 1.12241 -3.56865 0
M  V30 5185 H 493.511 1.49551 -4.6893 0
M  V30 5186 N 495.163 1.55791 0.238111 0
M  V30 5187 C 496.073 1.94196 1.31625 0
M  V30 5188 C 497.089 0.843545 1.52185 0
M  V30 5189 O 498.265 1.1457 1.65637 0
M  V30 5190 C 495.33 2.2365 2.64918 0
M  V30 5191 C 494.391 3.46971 2.52804 0
M  V30 5192 C 493.624 3.7501 3.79741 0
M  V30 5193 O 493.847 3.04982 4.82019 0
M  V30 5194 O 492.781 4.68525 3.77846 0
M  V30 5195 H 496.607 2.86044 1.02043 0
M  V30 5196 H 494.192 1.42786 0.439603 0
M  V30 5197 H 496.074 2.43863 3.4367 0
M  V30 5198 H 494.749 1.34979 2.94215 0
M  V30 5199 H 493.656 3.32055 1.72309 0
M  V30 5200 H 494.989 4.35971 2.28451 0
M  V30 5201 N 496.642 -0.504142 1.49319 0
M  V30 5202 C 497.572 -1.61473 1.68667 0
M  V30 5203 C 498.553 -1.61455 0.535378 0
M  V30 5204 O 499.738 -1.78245 0.770868 0
M  V30 5205 C 496.868 -2.99971 1.75028 0
M  V30 5206 C 495.822 -3.14854 2.89916 0
M  V30 5207 C 495.148 -4.54671 2.81387 0
M  V30 5208 C 496.448 -2.95176 4.30893 0
M  V30 5209 H 498.142 -1.45535 2.61648 0
M  V30 5210 H 495.688 -0.698711 1.25913 0
M  V30 5211 H 497.641 -3.77562 1.8715 0
M  V30 5212 H 496.365 -3.1699 0.786441 0
M  V30 5213 H 495.024 -2.39687 2.77391 0
M  V30 5214 H 494.672 -4.68562 1.82917 0
M  V30 5215 H 494.372 -4.6557 3.58494 0
M  V30 5216 H 495.896 -5.34327 2.95512 0
M  V30 5217 H 497.31 -3.62538 4.44116 0
M  V30 5218 H 495.707 -3.17549 5.09198 0
M  V30 5219 H 496.777 -1.91332 4.45556 0
M  V30 5220 N 498.12 -1.38341 -0.754957 0
M  V30 5221 C 499.083 -1.35262 -1.85032 0
M  V30 5222 C 500.083 -0.253393 -1.58791 0
M  V30 5223 O 501.273 -0.510205 -1.66561 0
M  V30 5224 C 498.405 -1.10544 -3.22479 0
M  V30 5225 H 499.598 -2.32712 -1.8917 0
M  V30 5226 H 497.151 -1.23614 -0.956515 0
M  V30 5227 H 497.886 -0.136952 -3.24011 0
M  V30 5228 H 497.671 -1.90127 -3.4292 0
M  V30 5229 H 499.161 -1.11082 -4.02555 0
M  V30 5230 N 499.598 0.982988 -1.23187 0
M  V30 5231 C 500.545 2.07491 -1.01075 0
M  V30 5232 C 501.515 1.65949 0.070905 0
M  V30 5233 O 502.7 1.90629 -0.0806822 0
M  V30 5234 C 499.84 3.39751 -0.605261 0
M  V30 5235 C 498.953 3.94578 -1.75876 0
M  V30 5236 C 498.088 5.15039 -1.3003 0
M  V30 5237 C 497.127 5.62027 -2.42472 0
M  V30 5238 N 496.264 6.73719 -1.97602 0
M  V30 5239 H 501.104 2.25739 -1.9454 0
M  V30 5240 H 498.641 1.10659 -0.969179 0
M  V30 5241 H 500.599 4.15719 -0.351279 0
M  V30 5242 H 499.229 3.21473 0.292382 0
M  V30 5243 H 498.281 3.1539 -2.12681 0
M  V30 5244 H 499.593 4.25422 -2.60418 0
M  V30 5245 H 498.747 5.9833 -1.00429 0
M  V30 5246 H 497.486 4.85843 -0.425216 0
M  V30 5247 H 496.491 4.77318 -2.7285 0
M  V30 5248 H 497.716 5.93244 -3.30512 0
M  V30 5249 H 495.662 6.46287 -1.1247 0
M  V30 5250 H 495.579 7.03934 -2.75705 0
M  V30 5251 H 496.847 7.6049 -1.71098 0
M  V30 5252 N 501.076 1.04316 1.18135 0
M  V30 5253 C 502.353 0.662166 1.84051 0
M  V30 5254 C 502.733 -0.858169 1.9287 0
M  V30 5255 O 502.081 -1.76062 1.45652 0
M  V30 5256 C 502.291 1.3409 3.22212 0
M  V30 5257 C 503.639 1.4733 3.9822 0
M  V30 5258 O 504.663 1.29921 3.31661 0
M  V30 5259 O 503.522 1.75722 5.17479 0
M  V30 5260 H 500.616 0.232005 0.79379 0
M  V30 5261 H 503.162 1.1422 1.25506 0
M  V30 5262 H 501.934 2.37853 3.10711 0
M  V30 5263 H 501.557 0.849649 3.88416 0
M  V30 5264 N 502.554 -1.34406 0.822964 0
M  V30 5265 C 503.965 -1.8069 0.469879 0
M  V30 5266 C 504.316 -1.68223 -1.00972 0
M  V30 5267 O 503.441 -1.22226 -1.78577 0
M  V30 5268 C 504.036 -3.28064 0.846118 0
M  V30 5269 C 502.595 -3.72428 0.545402 0
M  V30 5270 C 501.742 -2.56116 1.06301 0
M  V30 5271 H 504.693 -1.22153 1.01313 0
M  V30 5272 H 504.714 -3.80205 0.149922 0
M  V30 5273 H 504.226 -3.37107 1.92304 0
M  V30 5274 H 502.327 -3.68924 -0.522109 0
M  V30 5275 H 502.44 -4.66548 1.0895 0
M  V30 5276 H 500.804 -2.50048 0.484554 0
M  V30 5277 H 501.587 -2.67928 2.14638 0
M  V30 5278 N 504.032 -0.577932 -1.46621 0
M  V30 5279 C 505.448 -0.239242 -1.57797 0
M  V30 5280 C 505.648 1.25843 -1.57371 0
M  V30 5281 O 504.704 2.03988 -1.48813 0
M  V30 5282 C 506.017 -0.884227 -2.87405 0
M  V30 5283 C 507.565 -0.857373 -3.01028 0
M  V30 5284 C 508.04 -1.48181 -4.33366 0
M  V30 5285 N 509.531 -1.44593 -4.40053 0
M  V30 5286 C 510.266 -1.89852 -5.41058 0
M  V30 5287 N 509.762 -2.43062 -6.48762 0
M  V30 5288 N 511.555 -1.80797 -5.3223 0
M  V30 5289 H 503.706 -1.55073 -1.45142 0
M  V30 5290 H 505.969 -0.647903 -0.692044 0
M  V30 5291 H 505.675 -1.93759 -2.93514 0
M  V30 5292 H 505.549 -0.389585 -3.75183 0
M  V30 5293 H 507.936 0.187357 -2.94505 0
M  V30 5294 H 508.017 -1.38999 -2.14739 0
M  V30 5295 H 507.661 -2.52572 -4.40647 0
M  V30 5296 H 507.591 -0.924464 -5.18422 0
M  V30 5297 H 510.082 -1.05694 -3.62819 0
M  V30 5298 H 510.395 -2.75466 -7.22038 0
M  V30 5299 H 508.74 -2.47085 -6.49595 0
M  V30 5300 H 511.931 -1.38989 -4.46989 0
M  V30 5301 H 512.104 -2.16385 -6.10804 0
M  V30 5302 N 505.51 1.54411 -0.315457 0
M  V30 5303 C 506.759 1.99599 0.290395 0
M  V30 5304 C 507.072 1.20746 1.53882 0
M  V30 5305 O 508.278 1.56272 2.22017 0
M  V30 5306 C 506.734 3.5539 0.56797 0
M  V30 5307 C 506.342 4.43068 -0.662945 0
M  V30 5308 C 508.086 4.09067 1.13422 0
M  V30 5309 C 505.993 5.90317 -0.357722 0
M  V30 5310 H 504.923 0.745592 0.112286 0
M  V30 5311 H 507.574 1.78477 -0.426418 0
M  V30 5312 H 505.956 3.72468 1.34476 0
M  V30 5313 H 507.13 4.37765 -1.43869 0
M  V30 5314 H 505.445 4.00238 -1.14884 0
M  V30 5315 H 508.042 5.16663 1.37707 0
M  V30 5316 H 508.385 3.60552 2.08106 0
M  V30 5317 H 508.918 3.95589 0.418805 0
M  V30 5318 H 505.657 6.4301 -1.27351 0
M  V30 5319 H 505.177 5.98592 0.380472 0
M  V30 5320 H 506.856 6.4699 0.0354284 0
M  V30 5321 N 506.988 0.0434614 1.5754 0
M  V30 5322 C 507.951 -0.918696 2.09982 0
M  V30 5323 C 508.951 -1.24488 1.01781 0
M  V30 5324 O 510.141 -1.18284 1.27885 0
M  V30 5325 C 507.273 -2.23093 2.57764 0
M  V30 5326 H 508.466 -0.464229 2.96285 0
M  V30 5327 H 506.019 -0.204818 1.54952 0
M  V30 5328 H 506.754 -2.73137 1.74832 0
M  V30 5329 H 506.539 -2.00724 3.36827 0
M  V30 5330 H 508.029 -2.92028 2.98512 0
M  V30 5331 N 508.466 -1.55915 -0.229846 0
M  V30 5332 C 509.429 -1.90914 -1.26824 0
M  V30 5333 C 510.429 -0.786999 -1.40225 0
M  V30 5334 O 511.619 -1.05484 -1.38632 0
M  V30 5335 C 508.751 -2.15264 -2.64337 0
M  V30 5336 H 509.944 -2.8378 -0.969998 0
M  V30 5337 H 507.497 -1.49069 -0.4699 0
M  V30 5338 H 508.232 -1.24923 -2.99274 0
M  V30 5339 H 508.017 -2.97005 -2.55989 0
M  V30 5340 H 509.507 -2.43467 -3.39284 0
M  V30 5341 N 509.944 0.496216 -1.49584 0
M  V30 5342 C 511.172 1.27394 -1.63029 0
M  V30 5343 C 511.587 1.86344 -0.303569 0
M  V30 5344 O 510.944 1.68057 0.711547 0
M  V30 5345 C 510.995 2.40077 -2.70269 0
M  V30 5346 O 510.716 1.83549 -3.97796 0
M  V30 5347 C 512.217 3.31372 -2.94462 0
M  V30 5348 H 509.437 0.386211 -0.54871 0
M  V30 5349 H 511.981 0.595163 -1.95648 0
M  V30 5350 H 510.136 3.03775 -2.40415 0
M  V30 5351 H 510.55 2.57561 -4.56905 0
M  V30 5352 H 512.024 4.06707 -3.73221 0
M  V30 5353 H 512.501 3.88654 -2.0456 0
M  V30 5354 H 513.107 2.73435 -3.25751 0
M  V30 5355 N 511.423 1.38739 0.74761 0
M  V30 5356 C 512.356 1.3083 1.86972 0
M  V30 5357 C 513.334 0.184229 1.61553 0
M  V30 5358 O 514.518 0.36256 1.8498 0
M  V30 5359 C 511.645 1.02854 3.22705 0
M  V30 5360 C 510.691 2.17281 3.67003 0
M  V30 5361 S 511.524 3.79468 3.77842 0
M  V30 5362 C 512.68 3.53692 5.16385 0
M  V30 5363 H 512.913 2.258 1.93395 0
M  V30 5364 H 510.446 1.24646 0.911199 0
M  V30 5365 H 512.404 0.87397 4.01089 0
M  V30 5366 H 511.065 0.0959295 3.13953 0
M  V30 5367 H 510.258 1.93267 4.65472 0
M  V30 5368 H 509.86 2.28876 2.9579 0
M  V30 5369 H 512.152 3.10176 6.02327 0
M  V30 5370 H 513.095 4.51576 5.45422 0
M  V30 5371 H 513.503 2.8807 4.85464 0
M  V30 5372 N 512.901 -0.976442 1.23707 0
M  V30 5373 C 513.811 -2.10359 1.03856 0
M  V30 5374 C 514.827 -1.73991 -0.0180919 0
M  V30 5375 O 516.003 -2.0061 0.178211 0
M  V30 5376 C 513.068 -3.40809 0.636387 0
M  V30 5377 C 512.129 -3.91179 1.76854 0
M  V30 5378 C 511.362 -5.15404 1.38546 0
M  V30 5379 O 511.585 -5.69754 0.27142 0
M  V30 5380 O 510.519 -5.5994 2.20797 0
M  V30 5381 H 514.345 -2.29997 1.98331 0
M  V30 5382 H 511.93 -1.08742 1.02448 0
M  V30 5383 H 513.812 -4.19269 0.423223 0
M  V30 5384 H 512.487 -3.22493 -0.279322 0
M  V30 5385 H 511.394 -3.13819 2.03638 0
M  V30 5386 H 512.727 -4.13958 2.6627 0
M  V30 5387 N 514.379 -1.04941 -1.1758 0
M  V30 5388 C 515.327 -0.64204 -2.23563 0
M  V30 5389 C 516.321 0.335453 -1.66045 0
M  V30 5390 O 517.527 0.20179 -1.78865 0
M  V30 5391 H 513.902 -0.18944 -0.727748 0
M  V30 5392 H 515.873 -1.54609 -2.55223 0
M  V30 5393 C 514.622 -0.0301051 -3.47687 0
M  V30 5394 H 513.945 -0.773339 -3.92249 0
M  V30 5395 H 515.385 0.217592 -4.23441 0
M  V30 5396 C 513.844 1.2225 -3.13937 0
M  V30 5397 O 514.374 2.3122 -3.28482 0
M  V30 5398 N 512.58 1.11917 -2.68185 0
M  V30 5399 H 512.127 0.232403 -2.5655 0
M  V30 5400 H 512.085 1.95814 -2.45976 0
M  V30 5401 N 515.857 1.33968 -0.830081 0
M  V30 5402 C 516.82 2.27694 -0.26235 0
M  V30 5403 C 517.82 1.50589 0.563876 0
M  V30 5404 O 519.01 1.70028 0.378941 0
M  V30 5405 C 516.142 3.35002 0.63138 0
M  V30 5406 H 517.335 2.79419 -1.08928 0
M  V30 5407 H 514.888 1.44221 -0.602486 0
M  V30 5408 H 515.623 2.88504 1.48109 0
M  V30 5409 H 515.408 3.92079 0.0403276 0
M  V30 5410 H 516.898 4.04897 1.02217 0
M  V30 5411 N 517.335 0.585699 1.46312 0
M  V30 5412 C 518.267 -0.183687 2.28463 0
M  V30 5413 C 519.28 -0.85264 1.38686 0
M  V30 5414 O 520.469 -0.721701 1.6326 0
M  V30 5415 C 517.569 -1.27977 3.13808 0
M  V30 5416 C 516.742 -0.702164 4.31727 0
M  V30 5417 C 515.801 -1.68633 4.98447 0
M  V30 5418 O 514.827 -1.22121 5.55945 0
M  V30 5419 N 516.029 -3.02047 4.95729 0
M  V30 5420 H 518.794 0.521127 2.95134 0
M  V30 5421 H 516.355 0.423673 1.56258 0
M  V30 5422 H 518.347 -1.9375 3.55307 0
M  V30 5423 H 516.917 -1.8874 2.4919 0
M  V30 5424 H 516.137 0.1331 3.93975 0
M  V30 5425 H 517.425 -0.296101 5.07938 0
M  V30 5426 H 516.823 -3.42457 4.50266 0
M  V30 5427 H 515.38 -3.63301 5.41161 0
M  V30 5428 N 518.813 -1.54241 0.323641 0
M  V30 5429 C 519.76 -2.24339 -0.542277 0
M  V30 5430 C 520.73 -1.23421 -1.11159 0
M  V30 5431 O 521.915 -1.52104 -1.15192 0
M  V30 5432 C 519.055 -3.00479 -1.69725 0
M  V30 5433 C 518.168 -4.16214 -1.15716 0
M  V30 5434 C 517.303 -4.79884 -2.27783 0
M  V30 5435 C 516.342 -5.87722 -1.71023 0
M  V30 5436 N 515.479 -6.45254 -2.76752 0
M  V30 5437 H 520.319 -2.97935 0.0620613 0
M  V30 5438 H 517.856 -1.47039 0.0423993 0
M  V30 5439 H 519.814 -3.42869 -2.3769 0
M  V30 5440 H 518.444 -2.29217 -2.27288 0
M  V30 5441 H 517.496 -3.78605 -0.369063 0
M  V30 5442 H 518.808 -4.93838 -0.701832 0
M  V30 5443 H 517.962 -5.25243 -3.03651 0
M  V30 5444 H 516.701 -4.01641 -2.76652 0
M  V30 5445 H 515.706 -5.41765 -0.936518 0
M  V30 5446 H 516.931 -6.67863 -1.2303 0
M  V30 5447 H 514.877 -5.69884 -3.24912 0
M  V30 5448 H 514.794 -7.18292 -2.35782 0
M  V30 5449 H 516.062 -6.95269 -3.5245 0
M  V30 5450 N 520.291 -0.0518155 -1.57515 0
M  V30 5451 C 521.539 0.620595 -1.92336 0
M  V30 5452 C 521.86 1.71345 -0.930907 0
M  V30 5453 O 521.13 1.95885 0.0241341 0
M  V30 5454 H 519.71 0.232226 -0.709986 0
M  V30 5455 H 522.372 -0.104969 -1.94617 0
M  V30 5456 H 521.468 1.05879 -2.93592 0
M  V30 5457 N 521.769 1.56035 0.221574 0
M  V30 5458 C 522.679 1.95581 1.29558 0
M  V30 5459 C 523.695 0.859639 1.51282 0
M  V30 5460 O 524.871 1.16321 1.64413 0
M  V30 5461 C 521.936 2.26447 2.62531 0
M  V30 5462 C 520.997 3.49632 2.4911 0
M  V30 5463 C 520.23 3.79017 3.75742 0
M  V30 5464 O 520.453 3.10077 4.78757 0
M  V30 5465 O 519.387 4.72507 3.72855 0
M  V30 5466 H 523.213 2.8711 0.990035 0
M  V30 5467 H 520.798 1.43244 0.424434 0
M  V30 5468 H 522.68 2.47494 3.41064 0
M  V30 5469 H 521.355 1.38092 2.92766 0
M  V30 5470 H 520.262 3.33864 1.68777 0
M  V30 5471 H 521.595 4.3837 2.23814 0
M  V30 5472 N 523.247 -0.488276 1.49845 0
M  V30 5473 C 524.496 -1.23826 1.59217 0
M  V30 5474 C 524.809 -1.93439 0.289966 0
M  V30 5475 O 526.015 -2.70229 0.262382 0
M  V30 5476 C 524.471 -2.24902 2.80976 0
M  V30 5477 C 524.079 -1.6117 4.18005 0
M  V30 5478 C 525.823 -3.00648 2.99685 0
M  V30 5479 C 523.73 -2.60431 5.3097 0
M  V30 5480 H 522.66 -0.465858 0.592868 0
M  V30 5481 H 525.311 -0.510645 1.76252 0
M  V30 5482 H 523.693 -3.0088 2.57463 0
M  V30 5483 H 524.867 -0.910968 4.51706 0
M  V30 5484 H 523.182 -0.97767 4.0476 0
M  V30 5485 H 525.779 -3.74903 3.81251 0
M  V30 5486 H 526.122 -3.5902 2.10738 0
M  V30 5487 H 526.655 -2.31784 3.23297 0
M  V30 5488 H 523.394 -2.06823 6.22017 0
M  V30 5489 H 522.914 -3.28707 5.01709 0
M  V30 5490 H 524.593 -3.22606 5.60834 0
M  V30 5491 N 524.725 -1.39134 -0.740242 0
M  V30 5492 C 525.658 -1.3182 -1.86276 0
M  V30 5493 C 526.636 -0.192794 -1.61453 0
M  V30 5494 O 527.82 -0.372365 -1.84786 0
M  V30 5495 C 524.947 -1.04564 -3.22155 0
M  V30 5496 C 523.993 -2.19224 -3.65846 0
M  V30 5497 S 524.826 -3.81466 -3.75824 0
M  V30 5498 C 525.982 -3.56425 -5.14502 0
M  V30 5499 H 526.215 -2.26822 -1.92195 0
M  V30 5500 H 523.748 -1.25127 -0.904576 0
M  V30 5501 H 525.706 -0.895228 -4.00619 0
M  V30 5502 H 524.367 -0.112578 -3.13898 0
M  V30 5503 H 523.56 -1.95732 -4.6444 0
M  V30 5504 H 523.162 -2.30441 -2.94572 0
M  V30 5505 H 525.454 -3.13366 -6.00673 0
M  V30 5506 H 526.397 -4.54462 -5.43019 0
M  V30 5507 H 526.805 -2.90641 -4.8393 0
M  V30 5508 N 526.204 0.969867 -1.24223 0
M  V30 5509 C 527.615 1.52717 -1.07399 0
M  V30 5510 C 527.966 1.92956 0.355298 0
M  V30 5511 O 527.091 1.77112 1.2434 0
M  V30 5512 C 527.686 2.77521 -1.94339 0
M  V30 5513 C 526.245 3.29615 -1.81744 0
M  V30 5514 C 525.392 2.02537 -1.89405 0
M  V30 5515 H 528.343 0.788399 -1.37732 0
M  V30 5516 H 528.364 3.50773 -1.47439 0
M  V30 5517 H 527.876 2.48203 -2.98357 0
M  V30 5518 H 525.977 3.63789 -0.805505 0
M  V30 5519 H 526.09 3.98661 -2.65718 0
M  V30 5520 H 524.454 2.17151 -1.33108 0
M  V30 5521 H 525.237 1.75587 -2.94999 0
M  V30 5522 N 527.682 1.05563 1.17022 0
M  V30 5523 C 528.63 0.653887 2.2322 0
M  V30 5524 C 529.624 -0.326642 1.66221 0
M  V30 5525 O 530.83 -0.192301 1.7897 0
M  V30 5526 H 527.205 0.193297 0.726733 0
M  V30 5527 H 529.176 1.5596 2.54399 0
M  V30 5528 C 527.925 0.0485434 3.47666 0
M  V30 5529 H 527.248 0.79413 3.91834 0
M  V30 5530 H 528.688 -0.195133 4.23551 0
M  V30 5531 C 527.147 -1.20583 3.14581 0
M  V30 5532 O 527.677 -2.29475 3.29703 0
M  V30 5533 N 525.883 -1.10493 2.68774 0
M  V30 5534 H 525.43 -0.218795 2.56669 0
M  V30 5535 H 525.388 -1.94507 2.47011 0
M  V30 5536 N 529.16 -1.33526 0.837174 0
M  V30 5537 C 530.409 -1.97098 0.428387 0
M  V30 5538 C 530.722 -1.67062 -1.01734 0
M  V30 5539 O 531.928 -2.24235 -1.53072 0
M  V30 5540 C 530.384 -3.52725 0.715075 0
M  V30 5541 C 529.992 -3.9164 2.17537 0
M  V30 5542 C 531.736 -4.22857 0.373154 0
M  V30 5543 C 529.643 -5.40237 2.40619 0
M  V30 5544 H 528.573 -0.737589 0.156455 0
M  V30 5545 H 531.224 -1.52169 1.02552 0
M  V30 5546 H 529.606 -3.95971 0.0475904 0
M  V30 5547 H 530.78 -3.59456 2.88319 0
M  V30 5548 H 529.095 -3.34485 2.4801 0
M  V30 5549 H 531.692 -5.32133 0.523264 0
M  V30 5550 H 532.035 -4.10647 -0.683708 0
M  V30 5551 H 532.568 -3.85135 0.995801 0
M  V30 5552 H 529.307 -5.57449 3.44864 0
M  V30 5553 H 528.827 -5.73887 1.74396 0
M  V30 5554 H 530.506 -6.07102 2.23688 0
M  V30 5555 N 530.638 -0.59345 -1.46 0
M  V30 5556 C 532.049 -0.169801 -1.85926 0
M  V30 5557 C 532.4 1.26984 -1.49565 0
M  V30 5558 O 531.525 1.96076 -0.915602 0
M  V30 5559 C 532.12 -0.301385 -3.37457 0
M  V30 5560 C 530.679 0.0674684 -3.7634 0
M  V30 5561 C 529.826 -0.632383 -2.69993 0
M  V30 5562 H 532.777 -0.801014 -1.37002 0
M  V30 5563 H 532.798 0.470331 -3.77582 0
M  V30 5564 H 532.31 -1.34927 -3.63891 0
M  V30 5565 H 530.411 1.11507 -3.55523 0
M  V30 5566 H 530.524 -0.316332 -4.78055 0
M  V30 5567 H 528.888 -0.0714961 -2.546 0
M  V30 5568 H 529.671 -1.68212 -2.99265 0
M  V30 5569 N 532.116 1.54067 -0.331816 0
M  V30 5570 C 533.048 2.22139 0.564538 0
M  V30 5571 C 534.061 1.22408 1.07332 0
M  V30 5572 O 535.25 1.4883 0.985481 0
M  V30 5573 C 532.35 2.87876 1.78831 0
M  V30 5574 C 531.523 4.13817 1.41682 0
M  V30 5575 C 530.582 4.63072 2.49901 0
M  V30 5576 O 529.608 5.27562 2.13699 0
M  V30 5577 N 530.81 4.38001 3.80967 0
M  V30 5578 H 533.575 2.99694 -0.0183736 0
M  V30 5579 H 531.136 1.61153 -0.155396 0
M  V30 5580 H 533.128 3.17747 2.50637 0
M  V30 5581 H 531.698 2.13977 2.27887 0
M  V30 5582 H 530.918 3.9062 0.530044 0
M  V30 5583 H 532.206 4.95762 1.14443 0
M  V30 5584 H 531.604 3.864 4.13173 0
M  V30 5585 H 530.161 4.72507 4.48977 0
M  V30 5586 N 533.594 0.0601682 1.57485 0
M  V30 5587 C 534.527 -0.94676 2.07634 0
M  V30 5588 C 535.505 -1.29837 0.978826 0
M  V30 5589 O 536.689 -1.40969 1.2514 0
M  V30 5590 C 533.816 -2.25822 2.52433 0
M  V30 5591 C 532.862 -2.05901 3.73507 0
M  V30 5592 S 533.695 -1.32907 5.18745 0
M  V30 5593 C 534.851 -2.65356 5.66866 0
M  V30 5594 H 535.084 -0.520003 2.92717 0
M  V30 5595 H 532.617 -0.152319 1.53647 0
M  V30 5596 H 534.575 -3.01201 2.78905 0
M  V30 5597 H 533.236 -2.65624 1.67639 0
M  V30 5598 H 532.429 -3.02929 4.02803 0
M  V30 5599 H 532.031 -1.38659 3.47347 0
M  V30 5600 H 534.323 -3.61492 5.73001 0
M  V30 5601 H 535.266 -2.40685 6.6594 0
M  V30 5602 H 535.674 -2.72028 4.94632 0
M  V30 5603 N 535.072 -1.5615 -0.213296 0
M  V30 5604 C 536.297 -1.83986 -0.957282 0
M  V30 5605 C 536.722 -0.641526 -1.76822 0
M  V30 5606 O 536.08 0.409722 -1.7661 0
M  V30 5607 C 536.128 -3.09889 -1.84393 0
M  V30 5608 O 535.232 -2.89163 -2.94038 0
M  V30 5609 H 534.573 -0.606357 -0.270605 0
M  V30 5610 H 537.103 -2.03369 -0.224111 0
M  V30 5611 H 537.113 -3.40209 -2.25215 0
M  V30 5612 H 535.788 -3.96735 -1.24795 0
M  V30 5613 H 534.365 -2.70097 -2.57103 0
M  V30 5614 N 536.55 0.480323 -1.50102 0
M  V30 5615 C 537.513 1.56181 -1.6775 0
M  V30 5616 C 538.513 1.51156 -0.548503 0
M  V30 5617 O 539.703 1.5394 -0.815363 0
M  V30 5618 C 536.835 2.95823 -1.69415 0
M  V30 5619 H 538.028 1.41855 -2.6423 0
M  V30 5620 H 535.581 0.70605 -1.39444 0
M  V30 5621 H 536.316 3.15604 -0.745948 0
M  V30 5622 H 536.101 3.00878 -2.51425 0
M  V30 5623 H 537.591 3.74359 -1.85054 0
M  V30 5624 N 538.028 1.39524 0.732853 0
M  V30 5625 C 539.275 1.36865 1.49246 0
M  V30 5626 C 539.603 -0.0347118 1.94469 0
M  V30 5627 O 538.858 -1.01596 1.67262 0
M  V30 5628 C 539.157 2.28916 2.74468 0
M  V30 5629 C 538.823 3.76506 2.481 0
M  V30 5630 C 537.485 4.16721 2.40619 0
M  V30 5631 C 539.837 4.69846 2.25598 0
M  V30 5632 C 537.165 5.48334 2.08679 0
M  V30 5633 C 539.517 6.01739 1.95174 0
M  V30 5634 C 538.181 6.41015 1.86163 0
M  V30 5635 H 537.451 0.500824 0.546129 0
M  V30 5636 H 540.098 1.72047 0.840958 0
M  V30 5637 H 538.403 1.86859 3.4437 0
M  V30 5638 H 540.1 2.2415 3.32502 0
M  V30 5639 H 536.69 3.44635 2.54803 0
M  V30 5640 H 540.874 4.39608 2.30344 0
M  V30 5641 H 536.13 5.77685 2.00226 0
M  V30 5642 H 540.304 6.73591 1.76771 0
M  V30 5643 H 537.931 7.42917 1.61179 0
M  V30 5644 N 539.506 -0.963266 1.24736 0
M  V30 5645 C 540.752 -1.71 1.10139 0
M  V30 5646 C 541.107 -1.89089 -0.35541 0
M  V30 5647 O 540.4 -1.44451 -1.25875 0
M  V30 5648 C 540.594 -3.09944 1.7796 0
M  V30 5649 C 540.423 -3.05408 3.30085 0
M  V30 5650 C 539.193 -3.09643 3.99311 0
M  V30 5651 C 541.391 -2.87241 4.26611 0
M  V30 5652 N 539.373 -2.95174 5.3828 0
M  V30 5653 C 540.744 -2.81114 5.52607 0
M  V30 5654 C 542.799 -2.71856 4.17132 0
M  V30 5655 C 541.502 -2.61174 6.70209 0
M  V30 5656 C 543.528 -2.53284 5.34417 0
M  V30 5657 C 542.89 -2.4787 6.59348 0
M  V30 5658 H 538.989 -0.634078 0.457678 0
M  V30 5659 H 541.573 -1.14169 1.57713 0
M  V30 5660 H 539.744 -3.64958 1.32893 0
M  V30 5661 H 541.476 -3.73348 1.56183 0
M  V30 5662 H 538.231 -3.18498 3.50508 0
M  V30 5663 H 538.655 -2.91168 6.11188 0
M  V30 5664 H 543.297 -2.74821 3.21299 0
M  V30 5665 H 541.015 -2.56952 7.6616 0
M  V30 5666 H 544.601 -2.42317 5.28936 0
M  V30 5667 H 543.481 -2.33685 7.48573 0
M  V30 5668 N 540.985 -1.06182 -1.16461 0
M  V30 5669 C 542.215 -0.797425 -1.9059 0
M  V30 5670 C 542.623 0.651845 -1.77616 0
M  V30 5671 O 541.966 1.45788 -1.11766 0
M  V30 5672 C 542.028 -1.11128 -3.41893 0
M  V30 5673 C 541.692 -2.55874 -3.78652 0
M  V30 5674 C 542.689 -3.54104 -3.80665 0
M  V30 5675 C 540.374 -2.91144 -4.09317 0
M  V30 5676 C 542.368 -4.85645 -4.12829 0
M  V30 5677 C 540.055 -4.22885 -4.41148 0
M  V30 5678 C 541.053 -5.19945 -4.42883 0
M  V30 5679 O 540.741 -6.49322 -4.73959 0
M  V30 5680 H 540.473 -0.288709 -0.611247 0
M  V30 5681 H 543.027 -1.41841 -1.4856 0
M  V30 5682 H 541.257 -0.433217 -3.84266 0
M  V30 5683 H 542.946 -0.831306 -3.97296 0
M  V30 5684 H 543.712 -3.28197 -3.57088 0
M  V30 5685 H 539.591 -2.16252 -4.07131 0
M  V30 5686 H 543.135 -5.61398 -4.14099 0
M  V30 5687 H 539.032 -4.48551 -4.6419 0
M  V30 5688 H 539.8 -6.54294 -4.91774 0
M  V30 5689 N 542.463 1.3308 -0.844243 0
M  V30 5690 C 543.426 2.27403 -0.286485 0
M  V30 5691 C 544.426 1.51179 0.547872 0
M  V30 5692 O 545.616 1.70421 0.360886 0
M  V30 5693 C 542.748 3.35653 0.595813 0
M  V30 5694 H 543.941 2.78248 -1.11885 0
M  V30 5695 H 541.494 1.43574 -0.617749 0
M  V30 5696 H 542.229 2.90058 1.4504 0
M  V30 5697 H 542.014 3.921 -0.00125994 0
M  V30 5698 H 543.504 4.05958 0.979168 0
M  V30 5699 N 543.941 0.601185 1.45683 0
M  V30 5700 C 545.187 0.0940202 2.02582 0
M  V30 5701 C 545.52 -1.26972 1.46941 0
M  V30 5702 O 544.795 -1.83613 0.641612 0
M  V30 5703 C 545.078 0.0481715 3.60068 0
M  V30 5704 C 544.931 1.44212 4.26055 0
M  V30 5705 C 546.25 -0.642975 4.35378 0
M  V30 5706 H 543.369 0.0356404 0.736138 0
M  V30 5707 H 546.011 0.771929 1.73612 0
M  V30 5708 H 544.161 -0.529128 3.8488 0
M  V30 5709 H 545.833 2.06601 4.12449 0
M  V30 5710 H 544.076 2.00465 3.84703 0
M  V30 5711 H 544.747 1.36234 5.34925 0
M  V30 5712 H 547.223 -0.152351 4.15821 0
M  V30 5713 H 546.099 -0.644141 5.45107 0
M  V30 5714 H 546.36 -1.70785 4.0778 0
M  V30 5715 N 545.419 -1.53889 0.339982 0
M  V30 5716 C 546.835 -1.59595 -0.0120752 0
M  V30 5717 C 547.035 -1.35605 -1.49042 0
M  V30 5718 O 546.091 -1.14856 -2.24865 0
M  V30 5719 C 547.404 -2.9774 0.420898 0
M  V30 5720 C 548.952 -3.1077 0.37294 0
M  V30 5721 C 549.427 -4.51286 0.781327 0
M  V30 5722 N 550.918 -4.57325 0.735374 0
M  V30 5723 C 551.653 -5.64194 1.02336 0
M  V30 5724 N 551.149 -6.7893 1.37933 0
M  V30 5725 N 552.942 -5.54051 0.947838 0
M  V30 5726 H 545.093 -1.67738 1.30299 0
M  V30 5727 H 547.356 -0.785385 0.530918 0
M  V30 5728 H 547.062 -3.20349 1.45152 0
M  V30 5729 H 546.936 -3.76639 -0.205721 0
M  V30 5730 H 549.323 -2.87886 -0.648505 0
M  V30 5731 H 549.404 -2.33939 1.03472 0
M  V30 5732 H 549.048 -4.74905 1.80077 0
M  V30 5733 H 548.978 -5.26511 0.0970679 0
M  V30 5734 H 551.469 -3.74931 0.472773 0
M  V30 5735 H 551.782 -7.56392 1.58402 0
M  V30 5736 H 550.127 -6.80386 1.41774 0
M  V30 5737 H 553.318 -4.63293 0.669115 0
M  V30 5738 H 553.491 -6.37246 1.17563 0
M  V30 5739 N 546.897 -0.0685191 -1.57451 0
M  V30 5740 C 548.125 0.610462 -1.97689 0
M  V30 5741 C 548.54 1.63346 -0.946758 0
M  V30 5742 O 547.897 1.82377 0.0669868 0
M  V30 5743 C 547.948 1.28196 -3.38006 0
M  V30 5744 O 547.669 0.299906 -4.37072 0
M  V30 5745 C 549.17 2.04907 -3.931 0
M  V30 5746 H 546.39 0.165689 -0.650222 0
M  V30 5747 H 548.934 -0.139953 -2.04021 0
M  V30 5748 H 547.089 1.98348 -3.32771 0
M  V30 5749 H 547.503 0.78126 -5.18649 0
M  V30 5750 H 548.977 2.47287 -4.93511 0
M  V30 5751 H 549.454 2.9043 -3.29465 0
M  V30 5752 H 550.06 1.39629 -4.01726 0
M  V30 5753 N 548.375 1.56261 0.205012 0
M  V30 5754 C 549.338 1.92908 1.23771 0
M  V30 5755 C 550.338 0.809208 1.38955 0
M  V30 5756 O 551.528 1.07676 1.36936 0
M  V30 5757 C 548.66 2.19442 2.60879 0
M  V30 5758 H 549.853 2.85287 0.924728 0
M  V30 5759 H 547.406 1.49798 0.446125 0
M  V30 5760 H 548.141 1.29668 2.97248 0
M  V30 5761 H 547.926 3.0104 2.51232 0
M  V30 5762 H 549.416 2.48833 3.35368 0
M  V30 5763 N 549.853 -0.472356 1.50355 0
M  V30 5764 C 551.099 -1.22634 1.6152 0
M  V30 5765 C 551.432 -1.91645 0.313995 0
M  V30 5766 O 550.707 -1.82059 -0.684446 0
M  V30 5767 C 550.99 -2.27099 2.7946 0
M  V30 5768 C 550.843 -1.62402 4.19459 0
M  V30 5769 C 552.162 -3.28421 2.92964 0
M  V30 5770 H 549.281 -0.444494 0.587873 0
M  V30 5771 H 551.923 -0.520321 1.82737 0
M  V30 5772 H 550.073 -2.87314 2.61501 0
M  V30 5773 H 551.745 -1.05793 4.49005 0
M  V30 5774 H 549.988 -0.927184 4.23776 0
M  V30 5775 H 550.659 -2.38309 4.97909 0
M  V30 5776 H 553.135 -2.78227 3.09401 0
M  V30 5777 H 552.011 -3.98845 3.77113 0
M  V30 5778 H 552.272 -3.92467 2.03525 0
M  V30 5779 N 551.331 -1.39911 -0.725443 0
M  V30 5780 C 552.58 -1.36963 -1.48068 0
M  V30 5781 C 552.893 0.0284478 -1.95579 0
M  V30 5782 O 554.099 0.180535 -2.70899 0
M  V30 5783 C 552.555 -2.40664 -2.67598 0
M  V30 5784 C 552.163 -3.86234 -2.26997 0
M  V30 5785 C 553.907 -2.46807 -3.45379 0
M  V30 5786 C 551.814 -4.81554 -3.43307 0
M  V30 5787 H 550.744 -0.509223 -0.556065 0
M  V30 5788 H 553.395 -1.65602 -0.790454 0
M  V30 5789 H 551.777 -2.05109 -3.38742 0
M  V30 5790 H 552.951 -4.3088 -1.63337 0
M  V30 5791 H 551.266 -3.83475 -1.62284 0
M  V30 5792 H 553.863 -3.15213 -4.31909 0
M  V30 5793 H 554.206 -1.49552 -3.8851 0
M  V30 5794 H 554.739 -2.81303 -2.81271 0
M  V30 5795 H 551.478 -5.80106 -3.05217 0
M  V30 5796 H 550.998 -4.4158 -4.05915 0
M  V30 5797 H 552.677 -5.0091 -4.0951 0
M  V30 5798 N 552.809 0.956637 -1.25245 0
M  V30 5799 C 553.757 2.0743 -1.0524 0
M  V30 5800 C 554.751 1.69392 0.0160725 0
M  V30 5801 O 555.957 1.7946 -0.139382 0
M  V30 5802 H 552.332 0.678921 -0.323373 0
M  V30 5803 H 554.303 2.2146 -1.99995 0
M  V30 5804 C 553.052 3.40872 -0.685702 0
M  V30 5805 H 552.375 3.70607 -1.49968 0
M  V30 5806 H 553.815 4.19939 -0.585415 0
M  V30 5807 C 552.274 3.31367 0.608082 0
M  V30 5808 O 552.804 3.66214 1.65076 0
M  V30 5809 N 551.01 2.84486 0.592955 0
M  V30 5810 H 550.557 2.56326 -0.25592 0
M  V30 5811 H 550.515 2.78509 1.45877 0
M  V30 5812 N 554.287 1.06798 1.15896 0
M  V30 5813 C 555.25 0.687328 2.18651 0
M  V30 5814 C 556.25 -0.269559 1.58524 0
M  V30 5815 O 557.44 -0.0512627 1.74125 0
M  V30 5816 C 554.572 0.0121642 3.40898 0
M  V30 5817 H 555.765 1.59701 2.53842 0
M  V30 5818 H 553.318 0.863828 1.3026 0
M  V30 5819 H 554.053 -0.910025 3.1127 0
M  V30 5820 H 553.838 0.700309 3.85795 0
M  V30 5821 H 555.328 -0.239703 4.16911 0
M  V30 5822 N 555.766 -1.3263 0.851289 0
M  V30 5823 C 556.729 -2.27247 0.298541 0
M  V30 5824 C 557.729 -1.51467 -0.539847 0
M  V30 5825 O 558.919 -1.7061 -0.351843 0
M  V30 5826 C 556.051 -3.35964 -0.578004 0
M  V30 5827 H 557.244 -2.7765 1.13359 0
M  V30 5828 H 554.797 -1.43245 0.625354 0
M  V30 5829 H 555.532 -2.90823 -1.435 0
M  V30 5830 H 555.317 -3.92094 0.0220539 0
M  V30 5831 H 556.807 -4.06472 -0.957626 0
M  V30 5832 N 557.244 -0.608902 -1.45362 0
M  V30 5833 C 558.469 -0.10921 -2.07112 0
M  V30 5834 C 558.894 1.19779 -1.45033 0
M  V30 5835 O 558.252 1.72961 -0.543527 0
M  V30 5836 C 558.3 0.0155745 -3.60597 0
M  V30 5837 O 557.404 1.06546 -3.98399 0
M  V30 5838 H 556.745 -0.0746619 -0.659789 0
M  V30 5839 H 559.275 -0.839283 -1.86594 0
M  V30 5840 H 559.285 0.213364 -4.07442 0
M  V30 5841 H 557.96 -0.938765 -4.05167 0
M  V30 5842 H 556.537 0.844024 -3.63223 0
M  V30 5843 N 558.722 1.53707 -0.348139 0
M  V30 5844 C 559.97 2.00591 0.246478 0
M  V30 5845 C 560.291 1.23753 1.50699 0
M  V30 5846 O 559.561 0.345964 1.92821 0
M  V30 5847 H 558.141 0.741053 0.0940679 0
M  V30 5848 H 560.803 1.89139 -0.470354 0
M  V30 5849 H 559.899 3.08297 0.485714 0
M  V30 5850 N 560.2 0.0768682 1.57412 0
M  V30 5851 C 561.616 -0.279772 1.57129 0
M  V30 5852 C 561.816 -1.69688 1.08666 0
M  V30 5853 O 560.872 -2.40953 0.754843 0
M  V30 5854 C 562.185 -0.0848055 3.0058 0
M  V30 5855 C 563.733 -0.153954 3.12621 0
M  V30 5856 C 564.208 0.0127946 4.57998 0
M  V30 5857 N 565.699 -0.0426435 4.6318 0
M  V30 5858 C 566.434 0.0618892 5.73367 0
M  V30 5859 N 565.93 0.220229 6.9245 0
M  V30 5860 N 567.723 0.00446072 5.621 0
M  V30 5861 H 559.874 1.00297 1.87228 0
M  V30 5862 H 562.137 0.391565 0.863354 0
M  V30 5863 H 561.843 0.89325 3.40168 0
M  V30 5864 H 561.717 -0.834961 3.67843 0
M  V30 5865 H 564.104 -1.1225 2.72917 0
M  V30 5866 H 564.185 0.627389 2.47987 0
M  V30 5867 H 563.829 0.978128 4.98392 0
M  V30 5868 H 563.759 -0.788016 5.20671 0
M  V30 5869 H 566.25 -0.163226 3.77547 0
M  V30 5870 H 566.563 0.291999 7.72248 0
M  V30 5871 H 564.908 0.255658 6.9453 0
M  V30 5872 H 568.099 -0.117979 4.67951 0
M  V30 5873 H 568.272 0.0893796 6.47938 0
M  V30 5874 N 561.678 -1.56367 -0.196722 0
M  V30 5875 C 562.61 -1.90941 -1.26784 0
M  V30 5876 C 563.623 -0.799928 -1.41792 0
M  V30 5877 O 564.812 -1.07833 -1.42247 0
M  V30 5878 C 561.912 -2.12477 -2.6402 0
M  V30 5879 C 561.085 -3.43616 -2.70641 0
M  V30 5880 C 560.144 -3.54284 -3.89062 0
M  V30 5881 O 559.17 -4.2712 -3.76241 0
M  V30 5882 N 560.372 -2.87252 -5.04447 0
M  V30 5883 H 563.137 -2.83417 -0.974417 0
M  V30 5884 H 560.698 -1.57215 -0.386649 0
M  V30 5885 H 562.69 -2.16904 -3.41665 0
M  V30 5886 H 561.26 -1.26508 -2.85857 0
M  V30 5887 H 560.48 -3.51072 -1.79283 0
M  V30 5888 H 561.768 -4.29958 -2.72054 0
M  V30 5889 H 561.166 -2.27901 -5.17762 0
M  V30 5890 H 559.723 -2.97308 -5.80044 0
M  V30 5891 N 563.156 0.464375 -1.50603 0
M  V30 5892 C 564.384 1.23907 -1.65695 0
M  V30 5893 C 564.799 1.85658 -0.343027 0
M  V30 5894 O 564.156 1.69529 0.675739 0
M  V30 5895 C 564.207 2.3429 -2.75301 0
M  V30 5896 O 563.928 1.7507 -4.01599 0
M  V30 5897 C 565.429 3.25051 -3.01424 0
M  V30 5898 H 562.649 0.374485 -0.556778 0
M  V30 5899 H 565.193 0.55353 -1.96866 0
M  V30 5900 H 563.348 2.98607 -2.46804 0
M  V30 5901 H 563.762 2.47812 -4.62266 0
M  V30 5902 H 565.236 3.98699 -3.81763 0
M  V30 5903 H 565.713 3.84227 -2.12758 0
M  V30 5904 H 566.319 2.66463 -3.31477 0
M  V30 5905 N 564.634 1.40294 0.718013 0
M  V30 5906 C 565.88 1.38645 1.48005 0
M  V30 5907 C 566.213 -0.0121202 1.94196 0
M  V30 5908 O 565.488 -0.980309 1.67989 0
M  V30 5909 C 565.771 2.37379 2.70782 0
M  V30 5910 C 565.624 3.8625 2.30501 0
M  V30 5911 C 566.943 2.33685 3.72933 0
M  V30 5912 H 564.062 0.504928 0.536858 0
M  V30 5913 H 566.704 1.71411 0.819649 0
M  V30 5914 H 564.854 2.09568 3.27129 0
M  V30 5915 H 566.526 4.24879 1.79655 0
M  V30 5916 H 564.769 4.02202 1.6253 0
M  V30 5917 H 565.44 4.50847 3.18498 0
M  V30 5918 H 567.916 2.58314 3.2621 0
M  V30 5919 H 566.792 3.0482 4.56482 0
M  V30 5920 H 567.053 1.34765 4.21059 0
M  V30 5921 N 566.112 -0.949982 1.2575 0
M  V30 5922 C 567.389 -1.6718 1.01539 0
M  V30 5923 C 567.769 -2.06095 -0.456942 0
M  V30 5924 O 567.117 -1.77792 -1.43534 0
M  V30 5925 C 567.327 -2.8906 1.95564 0
M  V30 5926 C 568.675 -3.60909 2.23673 0
M  V30 5927 O 569.699 -2.9915 1.9336 0
M  V30 5928 O 568.558 -4.72127 2.75243 0
M  V30 5929 H 565.652 -0.731697 0.385419 0
M  V30 5930 H 568.198 -1.00249 1.36924 0
M  V30 5931 H 566.97 -2.57128 2.94959 0
M  V30 5932 H 566.593 -3.63719 1.60605 0
M  V30 5933 N 567.59 -1.07411 -1.15328 0
M  V30 5934 C 568.5 -0.706438 -2.23711 0
M  V30 5935 C 569.516 0.282586 -1.7169 0
M  V30 5936 O 570.692 0.129066 -2.00986 0
M  V30 5937 C 567.757 -0.11048 -3.46524 0
M  V30 5938 C 566.818 -1.15282 -4.13532 0
M  V30 5939 C 566.051 -0.585205 -5.30482 0
M  V30 5940 O 566.274 0.598549 -5.67251 0
M  V30 5941 O 565.208 -1.33039 -5.87013 0
M  V30 5942 H 569.034 -1.61031 -2.57493 0
M  V30 5943 H 566.619 -0.847113 -1.23062 0
M  V30 5944 H 568.501 0.21957 -4.20828 0
M  V30 5945 H 567.176 0.766703 -3.14489 0
M  V30 5946 H 566.083 -1.53523 -3.41147 0
M  V30 5947 H 567.416 -2.00192 -4.49649 0
M  V30 5948 N 569.068 1.32177 -0.85831 0
M  V30 5949 C 570.031 2.27086 -0.310588 0
M  V30 5950 C 571.031 1.51751 0.531806 0
M  V30 5951 O 572.221 1.70794 0.34279 0
M  V30 5952 C 569.353 3.36266 0.560179 0
M  V30 5953 H 570.546 2.77045 -1.1483 0
M  V30 5954 H 568.099 1.42911 -0.632942 0
M  V30 5955 H 568.834 2.9158 1.41956 0
M  V30 5956 H 568.619 3.92077 -0.0428473 0
M  V30 5957 H 570.109 4.06974 0.936056 0
M  V30 5958 N 570.547 0.616602 1.45037 0
M  V30 5959 C 571.477 -0.0840787 2.33349 0
M  V30 5960 C 572.458 -0.849641 1.4736 0
M  V30 5961 O 573.643 -0.818407 1.76113 0
M  V30 5962 C 570.773 -1.07604 3.3021 0
M  V30 5963 C 569.727 -0.423096 4.25904 0
M  V30 5964 C 569.053 -1.52394 5.12523 0
M  V30 5965 C 570.353 0.661457 5.18095 0
M  V30 5966 H 572.047 0.653333 2.92185 0
M  V30 5967 H 569.593 0.315634 1.40498 0
M  V30 5968 H 571.546 -1.57485 3.90866 0
M  V30 5969 H 570.27 -1.84416 2.69552 0
M  V30 5970 H 568.929 0.05493 3.66559 0
M  V30 5971 H 568.577 -2.28257 4.48227 0
M  V30 5972 H 568.277 -1.09251 5.77354 0
M  V30 5973 H 569.801 -2.02485 5.76049 0
M  V30 5974 H 571.215 0.246353 5.7277 0
M  V30 5975 H 569.612 1.01517 5.91451 0
M  V30 5976 H 570.682 1.53446 4.59981 0
M  V30 5977 N 572.025 -1.5352 0.356285 0
M  V30 5978 C 572.972 -2.25439 -0.494569 0
M  V30 5979 C 573.942 -1.25752 -1.08516 0
M  V30 5980 O 575.127 -1.54513 -1.1194 0
M  V30 5981 C 572.267 -3.04011 -1.63313 0
M  V30 5982 C 571.38 -4.18574 -1.06862 0
M  V30 5983 C 570.515 -4.84607 -2.17552 0
M  V30 5984 C 569.554 -5.91218 -1.58518 0
M  V30 5985 N 568.691 -6.50979 -2.63003 0
M  V30 5986 H 573.531 -2.97737 0.125244 0
M  V30 5987 H 571.068 -1.46916 0.0735789 0
M  V30 5988 H 573.026 -3.47834 -2.30363 0
M  V30 5989 H 571.656 -2.33986 -2.22374 0
M  V30 5990 H 570.708 -3.79303 -0.288672 0
M  V30 5991 H 572.02 -4.95215 -0.596924 0
M  V30 5992 H 571.174 -5.31566 -2.92442 0
M  V30 5993 H 569.913 -4.07418 -2.6807 0
M  V30 5994 H 568.918 -5.4363 -0.821391 0
M  V30 5995 H 570.143 -6.70322 -1.08836 0
M  V30 5996 H 568.089 -5.76648 -3.12751 0
M  V30 5997 H 568.006 -7.23131 -2.20493 0
M  V30 5998 H 569.274 -7.02589 -3.37623 0
M  V30 5999 N 573.503 -0.0852151 -1.57369 0
M  V30 6000 C 574.78 0.622534 -1.85429 0
M  V30 6001 C 575.16 1.86962 -0.980229 0
M  V30 6002 O 574.508 2.28445 -0.0500219 0
M  V30 6003 C 574.718 0.947374 -3.35896 0
M  V30 6004 C 576.066 1.31509 -4.03721 0
M  V30 6005 O 577.09 1.03869 -3.40719 0
M  V30 6006 O 575.949 1.83231 -5.14868 0
M  V30 6007 H 573.043 0.310513 -0.766492 0
M  V30 6008 H 575.589 -0.117164 -1.69295 0
M  V30 6009 H 574.361 0.0622264 -3.91251 0
M  V30 6010 H 573.984 1.74338 -3.5734 0
M  V30 6011 N 574.981 1.5647 0.188427 0
M  V30 6012 C 575.944 1.9421 1.21718 0
M  V30 6013 C 576.944 0.823901 1.38089 0
M  V30 6014 O 578.134 1.09122 1.35787 0
M  V30 6015 C 575.266 2.22197 2.58537 0
M  V30 6016 H 576.459 2.86252 0.894418 0
M  V30 6017 H 574.012 1.50263 0.430211 0
M  V30 6018 H 574.747 1.32814 2.95856 0
M  V30 6019 H 574.532 3.03688 2.48025 0
M  V30 6020 H 576.022 2.52376 3.3271 0
M  V30 6021 N 576.459 -0.456382 1.50847 0
M  V30 6022 C 577.391 -1.57033 1.66953 0
M  V30 6023 C 578.404 -1.53207 0.550593 0
M  V30 6024 O 579.593 -1.58328 0.824285 0
M  V30 6025 C 576.693 -2.95937 1.65149 0
M  V30 6026 C 575.866 -3.24475 2.93317 0
M  V30 6027 C 574.925 -4.43007 2.83957 0
M  V30 6028 O 573.951 -4.42592 3.57912 0
M  V30 6029 N 575.153 -5.45503 1.9851 0
M  V30 6030 H 577.918 -1.43629 2.63042 0
M  V30 6031 H 575.479 -0.645037 1.48495 0
M  V30 6032 H 577.471 -3.73224 1.56481 0
M  V30 6033 H 576.041 -3.03036 0.767343 0
M  V30 6034 H 575.261 -2.35664 3.16 0
M  V30 6035 H 576.549 -3.4036 3.78196 0
M  V30 6036 H 575.947 -5.48668 1.37766 0
M  V30 6037 H 574.504 -6.21716 1.95735 0
M  V30 6038 N 577.937 -1.40673 -0.710563 0
M  V30 6039 C 579.165 -1.42547 -1.4996 0
M  V30 6040 C 579.58 -0.0265485 -1.88781 0
M  V30 6041 O 578.937 0.950694 -1.55782 0
M  V30 6042 C 578.988 -2.32071 -2.77173 0
M  V30 6043 O 578.709 -3.66518 -2.39992 0
M  V30 6044 C 580.21 -2.42591 -3.71032 0
M  V30 6045 H 577.43 -0.486025 -0.462623 0
M  V30 6046 H 579.974 -1.84783 -0.876102 0
M  V30 6047 H 578.129 -1.93184 -3.35795 0
M  V30 6048 H 578.543 -4.14115 -3.21884 0
M  V30 6049 H 580.017 -3.09429 -4.57119 0
M  V30 6050 H 580.494 -1.4525 -4.14486 0
M  V30 6051 H 581.1 -2.82051 -3.18319 0
M  V30 6052 N 579.415 0.9433 -1.26252 0
M  V30 6053 C 580.831 1.21644 -1.03319 0
M  V30 6054 C 581.031 2.0003 0.242983 0
M  V30 6055 O 580.087 2.33838 0.952688 0
M  V30 6056 C 581.4 1.97978 -2.2633 0
M  V30 6057 C 582.948 2.10978 -2.31209 0
M  V30 6058 C 583.423 2.90713 -3.53907 0
M  V30 6059 N 584.914 2.98287 -3.54371 0
M  V30 6060 C 585.649 3.60406 -4.45976 0
M  V30 6061 N 585.145 4.24043 -5.47868 0
M  V30 6062 N 586.938 3.57658 -4.33633 0
M  V30 6063 H 579.089 0.419221 -2.08222 0
M  V30 6064 H 581.352 0.247995 -0.914988 0
M  V30 6065 H 581.058 1.47788 -3.19142 0
M  V30 6066 H 580.932 2.9865 -2.30408 0
M  V30 6067 H 583.319 2.6036 -1.38913 0
M  V30 6068 H 583.4 1.09575 -2.31143 0
M  V30 6069 H 583.044 2.42018 -4.46531 0
M  V30 6070 H 582.974 3.92367 -3.5122 0
M  V30 6071 H 585.465 2.53044 -2.80673 0
M  V30 6072 H 585.778 4.69334 -6.13959 0
M  V30 6073 H 584.123 4.22637 -5.51728 0
M  V30 6074 H 587.314 3.07134 -3.53251 0
M  V30 6075 H 587.487 4.05782 -5.05218 0
M  V30 6076 N 580.893 1.08022 1.14757 0
M  V30 6077 C 582.142 0.802468 1.8505 0
M  V30 6078 C 582.455 -0.674061 1.83619 0
M  V30 6079 O 583.661 -1.06683 2.49662 0
M  V30 6080 C 582.117 1.38551 3.32162 0
M  V30 6081 C 581.725 2.89354 3.42021 0
M  V30 6082 C 583.469 1.18608 4.07594 0
M  V30 6083 C 581.376 3.40815 4.83321 0
M  V30 6084 H 580.306 0.296518 0.693248 0
M  V30 6085 H 582.957 1.30114 1.29393 0
M  V30 6086 H 581.339 0.814556 3.87532 0
M  V30 6087 H 582.513 3.52552 2.96722 0
M  V30 6088 H 580.828 3.08165 2.80041 0
M  V30 6089 H 583.425 1.54525 5.11885 0
M  V30 6090 H 583.768 0.125599 4.1611 0
M  V30 6091 H 584.301 1.72375 3.58513 0
M  V30 6092 H 581.04 4.46418 4.79991 0
M  V30 6093 H 580.56 2.82374 5.29174 0
M  V30 6094 H 582.239 3.37171 5.522 0
M  V30 6095 N 582.371 -1.3172 0.865308 0
M  V30 6096 C 583.599 -2.01057 0.488251 0
M  V30 6097 C 584.014 -1.64979 -0.918 0
M  V30 6098 O 583.371 -0.876597 -1.60069 0
M  V30 6099 C 583.422 -3.55964 0.630224 0
M  V30 6100 O 583.143 -3.90749 1.98109 0
M  V30 6101 C 584.644 -4.42574 0.253567 0
M  V30 6102 H 581.864 -0.64332 0.190736 0
M  V30 6103 H 584.408 -1.68058 1.16519 0
M  V30 6104 H 582.563 -3.874 0.000895422 0
M  V30 6105 H 582.977 -4.85467 1.9855 0
M  V30 6106 H 584.451 -5.50521 0.403875 0
M  V30 6107 H 584.928 -4.31724 -0.806895 0
M  V30 6108 H 585.534 -4.16547 0.858404 0
M  V30 6109 N 583.85 -0.624285 -1.44708 0
M  V30 6110 C 584.797 0.0847135 -2.30644 0
M  V30 6111 C 585.767 0.843575 -1.43084 0
M  V30 6112 O 586.952 0.825982 -1.71995 0
M  V30 6113 C 584.091 1.06495 -3.28257 0
M  V30 6114 C 583.205 0.305224 -4.3092 0
M  V30 6115 C 582.34 1.27667 -5.1563 0
M  V30 6116 C 581.379 0.505706 -6.10007 0
M  V30 6117 N 580.516 1.42727 -6.8744 0
M  V30 6118 H 585.356 -0.654068 -2.90733 0
M  V30 6119 H 582.893 -0.334334 -1.4325 0
M  V30 6120 H 584.851 1.64658 -3.83332 0
M  V30 6121 H 583.481 1.77094 -2.69884 0
M  V30 6122 H 582.533 -0.392207 -3.78373 0
M  V30 6123 H 583.845 -0.295553 -4.97924 0
M  V30 6124 H 582.999 1.92984 -5.75189 0
M  V30 6125 H 581.738 1.91137 -4.48685 0
M  V30 6126 H 580.743 -0.160999 -5.49564 0
M  V30 6127 H 581.968 -0.124183 -6.78986 0
M  V30 6128 H 579.913 2.04931 -6.23169 0
M  V30 6129 H 579.831 0.880345 -7.50857 0
M  V30 6130 H 581.099 2.0695 -7.51526 0
M  V30 6131 O 585.367 1.53348 -0.50662 0
M  V30 6132 H 586.058 1.93698 0.00952266 0
M  V30 END ATOM
M  V30 BEGIN BOND
M  V30 END BOND
M  V30 END CTAB
M  END
$$$$
