drugbank_target|Q9NS85 Carbonic anhydrase-related protein 10 (DB00909)
 OpenBabel12092120363D

  0  0  0     0  0            999 V3000
M  V30 BEGIN CTAB
M  V30 COUNTS 5255 5321 0 0 0
M  V30 BEGIN ATOM
M  V30 1 H -0.908 1.98254 -0.117106 0
M  V30 2 N 0 1.576 0 0
M  V30 3 C 0.933 2.03868 1.02534 0
M  V30 4 C 1.911 0.928543 1.3348 0
M  V30 5 O 3.095 1.19667 1.45644 0
M  V30 6 C 0.222 2.43627 2.35294 0
M  V30 7 C -0.732 3.65373 2.2001 0
M  V30 8 S 0.101 5.13292 1.52614 0
M  V30 9 C 1.257 5.56322 2.86805 0
M  V30 10 H 1.49 2.90518 0.631377 0
M  V30 11 H -0.977 1.52953 0.210867 0
M  V30 12 H 0.981 2.67203 3.11629 0
M  V30 13 H -0.358 1.57376 2.7183 0
M  V30 14 H -1.165 3.90944 3.18086 0
M  V30 15 H -1.563 3.418 1.51819 0
M  V30 16 H 0.729 5.58782 3.83104 0
M  V30 17 H 1.672 6.56266 2.65933 0
M  V30 18 H 2.08 4.83886 2.90714 0
M  V30 19 N 1.4781 -0.272755 1.55222 0
M  V30 20 C 2.3881 -1.35918 1.91216 0
M  V30 21 C 3.4041 -1.54026 0.809436 0
M  V30 22 O 4.5801 -1.68148 1.10852 0
M  V30 23 C 1.6451 -2.69834 2.17693 0
M  V30 24 C 0.7061 -2.6047 3.41253 0
M  V30 25 C -0.0609 -3.88 3.66458 0
M  V30 26 O 0.1621 -4.88693 2.94169 0
M  V30 27 O -0.9039 -3.88189 4.59992 0
M  V30 28 H 2.9221 -1.0839 2.83699 0
M  V30 29 H 0.5071 -0.471301 1.41771 0
M  V30 30 H 2.3891 -3.49017 2.36147 0
M  V30 31 H 1.0641 -2.97148 1.28392 0
M  V30 32 H -0.0289 -1.79663 3.28134 0
M  V30 33 H 1.3041 -2.38106 4.30774 0
M  V30 34 N 2.9562 -1.48159 -0.537278 0
M  V30 35 C 4.2052 -1.5506 -1.28993 0
M  V30 36 C 4.5182 -0.226211 -1.94288 0
M  V30 37 O 5.7242 -0.173395 -2.70946 0
M  V30 38 C 4.1802 -2.73429 -2.34018 0
M  V30 39 C 3.7882 -4.1248 -1.74825 0
M  V30 40 C 5.5322 -2.89638 -3.10339 0
M  V30 41 C 3.4392 -5.22121 -2.77747 0
M  V30 42 H 2.3692 -0.577231 -0.485098 0
M  V30 43 H 5.0202 -1.74478 -0.568317 0
M  V30 44 H 3.4022 -2.47431 -3.09182 0
M  V30 45 H 4.5762 -4.48466 -1.05899 0
M  V30 46 H 2.8912 -4.01327 -1.11022 0
M  V30 47 H 5.4882 -3.68718 -3.87235 0
M  V30 48 H 5.8312 -1.9882 -3.65754 0
M  V30 49 H 6.3642 -3.15502 -2.42288 0
M  V30 50 H 3.1032 -6.1488 -2.27161 0
M  V30 51 H 2.6232 -4.90631 -3.45024 0
M  V30 52 H 4.3022 -5.49924 -3.4087 0
M  V30 53 N 4.4343 0.785586 -1.36625 0
M  V30 54 C 5.6803 1.54591 -1.31261 0
M  V30 55 C 6.0133 1.93906 0.106823 0
M  V30 56 O 5.2883 1.63007 1.06108 0
M  V30 57 C 5.5713 2.82038 -2.23889 0
M  V30 58 C 5.4243 2.49066 -3.74548 0
M  V30 59 C 6.7433 3.83887 -2.15217 0
M  V30 60 H 3.8623 0.560846 -0.478143 0
M  V30 61 H 6.5043 0.902278 -1.67209 0
M  V30 62 H 4.6543 3.36961 -1.93363 0
M  V30 63 H 6.3263 2.00164 -4.15611 0
M  V30 64 H 4.5693 1.81954 -3.93796 0
M  V30 65 H 5.2403 3.40109 -4.34776 0
M  V30 66 H 7.7163 3.38421 -2.42096 0
M  V30 67 H 6.5923 4.70806 -2.82193 0
M  V30 68 H 6.8533 4.27131 -1.14068 0
M  V30 69 N 5.9124 1.20967 1.01018 0
M  V30 70 C 7.1584 1.0353 1.7508 0
M  V30 71 C 7.5134 -0.42734 1.87594 0
M  V30 72 O 6.8064 -1.31298 1.3954 0
M  V30 73 C 7.0004 1.65997 3.16512 0
M  V30 74 C 6.8294 3.18184 3.17788 0
M  V30 75 C 5.5994 3.87198 3.24662 0
M  V30 76 C 7.7974 4.15334 3.03319 0
M  V30 77 N 5.7794 5.26618 3.15509 0
M  V30 78 C 7.1504 5.41472 3.02007 0
M  V30 79 C 9.2054 4.06449 2.87583 0
M  V30 80 C 7.9084 6.5975 2.86571 0
M  V30 81 C 9.9344 5.24357 2.73503 0
M  V30 82 C 9.2964 6.49404 2.72862 0
M  V30 83 H 5.3954 0.433137 0.651089 0
M  V30 84 H 7.9794 1.5324 1.20107 0
M  V30 85 H 6.1504 1.18863 3.69765 0
M  V30 86 H 7.8824 1.41816 3.79039 0
M  V30 87 H 4.6374 3.38093 3.31648 0
M  V30 88 H 5.0614 5.99626 3.14289 0
M  V30 89 H 9.7034 3.10573 2.86887 0
M  V30 90 H 7.4214 7.55792 2.86015 0
M  V30 91 H 11.0074 5.19299 2.62334 0
M  V30 92 H 9.8874 7.39105 2.62093 0
M  V30 93 N 7.3905 -1.2043 1.01659 0
M  V30 94 C 8.3005 -2.2689 0.596484 0
M  V30 95 C 9.3165 -1.70107 -0.36599 0
M  V30 96 O 10.4925 -2.00117 -0.226942 0
M  V30 97 C 7.5575 -3.4665 -0.0586659 0
M  V30 98 C 6.6185 -4.18662 0.949751 0
M  V30 99 C 5.8515 -5.32705 0.32577 0
M  V30 100 O 6.0745 -5.63656 -0.874509 0
M  V30 101 O 5.0085 -5.92803 1.04249 0
M  V30 102 H 8.8345 -2.65041 1.4828 0
M  V30 103 H 6.4195 -1.27048 0.786082 0
M  V30 104 H 8.3015 -4.19256 -0.424564 0
M  V30 105 H 6.9765 -3.10375 -0.91918 0
M  V30 106 H 5.8835 -3.48229 1.36702 0
M  V30 107 H 7.2165 -4.58878 1.78023 0
M  V30 108 N 8.8686 -0.792821 -1.36206 0
M  V30 109 C 10.1146 -0.36733 -1.99446 0
M  V30 110 C 10.4476 1.05917 -1.62774 0
M  V30 111 O 9.7226 1.7324 -0.88421 0
M  V30 112 C 10.0056 -0.535044 -3.56103 0
M  V30 113 C 9.8586 -2.00548 -4.02617 0
M  V30 114 C 11.1776 0.0478191 -4.40074 0
M  V30 115 H 8.2966 -0.134941 -0.724541 0
M  V30 116 H 10.9386 -0.999794 -1.61568 0
M  V30 117 H 9.0886 0.00336329 -3.885 0
M  V30 118 H 10.7606 -2.60521 -3.80692 0
M  V30 119 H 9.0036 -2.50686 -3.54032 0
M  V30 120 H 9.6746 -2.07377 -5.11565 0
M  V30 121 H 12.1506 -0.411822 -4.14057 0
M  V30 122 H 11.0266 -0.0995336 -5.4881 0
M  V30 123 H 11.2876 1.14025 -4.27142 0
M  V30 124 N 10.3467 1.47872 -0.545128 0
M  V30 125 C 11.2767 2.32661 0.197793 0
M  V30 126 C 12.2577 1.43041 0.920504 0
M  V30 127 O 13.4427 1.71912 0.90333 0
M  V30 128 C 10.5727 3.24569 1.23582 0
M  V30 129 C 9.5267 4.23333 0.630323 0
M  V30 130 C 8.8527 5.0448 1.77211 0
M  V30 131 C 10.1527 5.20704 -0.407974 0
M  V30 132 H 11.8467 2.95024 -0.510045 0
M  V30 133 H 9.3927 1.4187 -0.246731 0
M  V30 134 H 11.3457 3.8272 1.76362 0
M  V30 135 H 10.0697 2.60236 1.97344 0
M  V30 136 H 8.7287 3.6639 0.123922 0
M  V30 137 H 8.3767 4.36561 2.49847 0
M  V30 138 H 8.0767 5.71339 1.37281 0
M  V30 139 H 9.6007 5.65487 2.3034 0
M  V30 140 H 11.0147 5.7329 0.033305 0
M  V30 141 H 9.4117 5.95699 -0.725486 0
M  V30 142 H 10.4817 4.66917 -1.30828 0
M  V30 143 N 11.8248 0.280983 1.55075 0
M  V30 144 C 13.0718 -0.334115 1.99725 0
M  V30 145 C 13.3998 -1.5542 1.1694 0
M  V30 146 O 12.6548 -1.94361 0.228531 0
M  V30 147 C 12.9538 -0.754656 3.49342 0
M  V30 148 C 12.6198 0.361445 4.49449 0
M  V30 149 C 11.2818 0.667893 4.76542 0
M  V30 150 C 13.6338 1.11322 5.09173 0
M  V30 151 C 10.9618 1.7296 5.60626 0
M  V30 152 C 13.3138 2.1647 5.9441 0
M  V30 153 C 11.9778 2.47742 6.19822 0
M  V30 154 H 11.2478 -0.122261 0.730844 0
M  V30 155 H 13.8948 0.395917 1.87363 0
M  V30 156 H 12.1998 -1.56446 3.5921 0
M  V30 157 H 13.8968 -1.24142 3.813 0
M  V30 158 H 10.4868 0.112481 4.28452 0
M  V30 159 H 14.6708 0.88973 4.8826 0
M  V30 160 H 9.9268 1.97684 5.78559 0
M  V30 161 H 14.1008 2.75193 6.3972 0
M  V30 162 H 11.7278 3.30145 6.84769 0
M  V30 163 N 13.3029 -1.57598 0.00835791 0
M  V30 164 C 14.2329 -2.1198 -0.979113 0
M  V30 165 C 15.2139 -1.03091 -1.35301 0
M  V30 166 O 16.3989 -1.30818 -1.43528 0
M  V30 167 C 13.5289 -2.62995 -2.26828 0
M  V30 168 C 12.4829 -3.76485 -2.03576 0
M  V30 169 C 11.8089 -4.13846 -3.38579 0
M  V30 170 C 13.1089 -5.0342 -1.39161 0
M  V30 171 H 14.8029 -2.94738 -0.526281 0
M  V30 172 H 12.3489 -1.41783 -0.251704 0
M  V30 173 H 14.3019 -2.99669 -2.96271 0
M  V30 174 H 13.0259 -1.7737 -2.7424 0
M  V30 175 H 11.6849 -3.40217 -1.36557 0
M  V30 176 H 11.3329 -3.25232 -3.83709 0
M  V30 177 H 11.0329 -4.90312 -3.23834 0
M  V30 178 H 12.5569 -4.53086 -4.09323 0
M  V30 179 H 13.9709 -5.37812 -1.98573 0
M  V30 180 H 12.3679 -5.84746 -1.34878 0
M  V30 181 H 13.4379 -4.83548 -0.361868 0
M  V30 182 N 14.781 0.264519 -1.55364 0
M  V30 183 C 15.711 1.33121 -1.91836 0
M  V30 184 C 16.692 1.51101 -0.781192 0
M  V30 185 O 17.877 1.64003 -1.04003 0
M  V30 186 C 15.007 2.68921 -2.19769 0
M  V30 187 C 13.961 2.65661 -3.35571 0
M  V30 188 C 13.287 4.05093 -3.49004 0
M  V30 189 C 14.587 2.24187 -4.71739 0
M  V30 190 H 16.281 1.02844 -2.81182 0
M  V30 191 H 13.827 0.493286 -1.35287 0
M  V30 192 H 15.78 3.43663 -2.43872 0
M  V30 193 H 14.504 3.00799 -1.27231 0
M  V30 194 H 13.163 1.93377 -3.1145 0
M  V30 195 H 12.811 4.34206 -2.53917 0
M  V30 196 H 12.511 4.03804 -4.26868 0
M  V30 197 H 14.035 4.81561 -3.75408 0
M  V30 198 H 15.449 2.88654 -4.9533 0
M  V30 199 H 13.846 2.34044 -5.52579 0
M  V30 200 H 14.916 1.19327 -4.69988 0
M  V30 201 N 16.2591 1.48442 0.529413 0
M  V30 202 C 17.1911 1.59095 1.64989 0
M  V30 203 C 18.2041 0.475212 1.5571 0
M  V30 204 O 19.3931 0.746081 1.6216 0
M  V30 205 C 16.4931 1.50518 3.0364 0
M  V30 206 C 15.6661 2.77142 3.38395 0
M  V30 207 C 14.7251 2.62012 4.56329 0
M  V30 208 O 13.7511 3.35898 4.59522 0
M  V30 209 N 14.9531 1.71667 5.54536 0
M  V30 210 H 17.7181 2.55723 1.56287 0
M  V30 211 H 15.2791 1.45173 0.716697 0
M  V30 212 H 17.2711 1.38091 3.80412 0
M  V30 213 H 15.8411 0.618627 3.06418 0
M  V30 214 H 15.0611 3.0413 2.50796 0
M  V30 215 H 16.3491 3.61146 3.58401 0
M  V30 216 H 15.7471 1.10841 5.54735 0
M  V30 217 H 14.3041 1.65178 6.30523 0
M  V30 218 N 17.7372 -0.778329 1.37039 0
M  V30 219 C 18.7002 -1.87301 1.32102 0
M  V30 220 C 19.7002 -1.59198 0.226405 0
M  V30 221 O 20.8902 -1.67403 0.481861 0
M  V30 222 C 18.0222 -3.24309 1.05055 0
M  V30 223 H 19.2152 -1.93093 2.29467 0
M  V30 224 H 16.7682 -0.977358 1.21973 0
M  V30 225 H 17.5032 -3.24196 0.0819373 0
M  V30 226 H 17.2882 -3.46098 1.84279 0
M  V30 227 H 18.7782 -4.04382 1.04234 0
M  V30 228 N 19.2153 -1.21501 -1.00376 0
M  V30 229 C 20.1633 -0.972442 -2.11297 0
M  V30 230 C 21.1573 0.080731 -1.69208 0
M  V30 231 O 22.3633 -0.0707666 -1.79861 0
M  V30 232 H 18.7383 -0.297218 -0.690772 0
M  V30 233 H 20.7093 -1.91394 -2.28934 0
M  V30 234 C 19.4583 -0.555065 -3.43241 0
M  V30 235 H 18.7813 -1.35709 -3.76062 0
M  V30 236 H 20.2213 -0.424664 -4.21868 0
M  V30 237 C 18.6803 0.734147 -3.28804 0
M  V30 238 O 19.2103 1.78937 -3.59645 0
M  V30 239 N 17.4163 0.701133 -2.82015 0
M  V30 240 H 16.9633 -0.157874 -2.57116 0
M  V30 241 H 16.9213 1.56403 -2.72737 0
M  V30 242 N 20.6934 1.19889 -1.02296 0
M  V30 243 C 21.9404 1.8942 -0.715972 0
M  V30 244 C 22.2684 1.79251 0.754944 0
M  V30 245 O 21.5234 1.17526 1.56481 0
M  V30 246 C 21.8224 3.39883 -1.10518 0
M  V30 247 C 21.4884 3.70254 -2.57337 0
M  V30 248 C 20.1504 3.78254 -2.97452 0
M  V30 249 C 22.5024 3.84052 -3.52354 0
M  V30 250 C 19.8304 3.97514 -4.31509 0
M  V30 251 C 22.1824 4.04824 -4.86108 0
M  V30 252 C 20.8464 4.11054 -5.25919 0
M  V30 253 H 20.1164 0.693138 -0.261993 0
M  V30 254 H 22.7634 1.42012 -1.28472 0
M  V30 255 H 21.0684 3.8915 -0.454953 0
M  V30 256 H 22.7654 3.9199 -0.845261 0
M  V30 257 H 19.3554 3.64632 -2.25258 0
M  V30 258 H 23.5394 3.77221 -3.22518 0
M  V30 259 H 18.7954 4.00574 -4.61898 0
M  V30 260 H 22.9694 4.14442 -5.59653 0
M  V30 261 H 20.5964 4.2573 -6.29808 0
M  V30 262 N 22.1715 0.800033 1.35784 0
M  V30 263 C 23.4205 0.37387 1.98205 0
M  V30 264 C 23.7335 -1.06302 1.64193 0
M  V30 265 O 24.9395 -1.59198 2.19928 0
M  V30 266 C 23.3955 0.617532 3.54562 0
M  V30 267 C 23.0035 2.06654 3.9749 0
M  V30 268 C 24.7475 0.256401 4.23725 0
M  V30 269 C 22.6545 2.2563 5.46667 0
M  V30 270 H 21.5845 0.136055 0.741623 0
M  V30 271 H 24.2355 0.983166 1.54939 0
M  V30 272 H 22.6175 -0.0616248 3.95952 0
M  V30 273 H 23.7915 2.78296 3.67271 0
M  V30 274 H 22.1065 2.38691 3.41197 0
M  V30 275 H 24.7035 0.376318 5.33374 0
M  V30 276 H 25.0465 -0.796692 4.08606 0
M  V30 277 H 25.5795 0.889214 3.87734 0
M  V30 278 H 22.3185 3.2936 5.66747 0
M  V30 279 H 21.8385 1.58504 5.78478 0
M  V30 280 H 23.5175 2.06861 6.1304 0
M  V30 281 N 23.6496 -1.47581 0.552962 0
M  V30 282 C 24.8956 -2.02782 0.0273648 0
M  V30 283 C 25.2286 -1.42687 -1.31734 0
M  V30 284 O 24.5036 -0.580897 -1.85623 0
M  V30 285 C 24.7866 -3.60031 -0.0702371 0
M  V30 286 C 24.6396 -4.30566 1.30126 0
M  V30 287 C 25.9586 -4.33028 -0.785771 0
M  V30 288 H 23.0776 -0.736912 0.0114185 0
M  V30 289 H 25.7196 -1.76056 0.714432 0
M  V30 290 H 23.8696 -3.82932 -0.655382 0
M  V30 291 H 25.5416 -4.19018 1.92929 0
M  V30 292 H 23.7846 -3.91086 1.87709 0
M  V30 293 H 24.4556 -5.39114 1.18573 0
M  V30 294 H 26.9316 -4.15095 -0.288982 0
M  V30 295 H 25.8076 -5.42695 -0.823013 0
M  V30 296 H 26.0686 -4.01945 -1.841 0
M  V30 297 N 25.1277 -0.289203 -1.54924 0
M  V30 298 C 26.3677 0.324536 -2.01807 0
M  V30 299 C 26.7317 1.5199 -1.17316 0
M  V30 300 O 27.9327 2.20422 -1.53843 0
M  V30 301 C 26.2037 0.683578 -3.50802 0
M  V30 302 S 27.7627 1.28185 -4.19659 0
M  V30 303 H 24.5807 0.100236 -0.703899 0
M  V30 304 H 27.1827 -0.414325 -1.91059 0
M  V30 305 H 25.8867 -0.195073 -4.09936 0
M  V30 306 H 25.4177 1.45354 -3.65562 0
M  V30 307 H 27.4327 2.57006 -4.24456 0
M  V30 308 N 26.6058 1.57591 -0.0167156 0
M  V30 309 C 27.8548 1.90461 0.663877 0
M  V30 310 C 28.1678 0.893515 1.73999 0
M  V30 311 O 29.3738 1.11302 2.47637 0
M  V30 312 C 27.8298 3.38155 1.23204 0
M  V30 313 C 27.4378 4.47597 0.189866 0
M  V30 314 C 29.1818 3.80111 1.88986 0
M  V30 315 C 27.0888 5.86379 0.768964 0
M  V30 316 H 26.0188 0.710738 0.251729 0
M  V30 317 H 28.6698 1.83326 -0.0799926 0
M  V30 318 H 27.0518 3.40182 2.02712 0
M  V30 319 H 28.2258 4.57112 -0.581846 0
M  V30 320 H 26.5408 4.14766 -0.368475 0
M  V30 321 H 29.1378 4.81145 2.33247 0
M  V30 322 H 29.4808 3.14511 2.72743 0
M  V30 323 H 30.0138 3.80454 1.16187 0
M  V30 324 H 26.7528 6.55493 -0.0301957 0
M  V30 325 H 26.2728 5.80496 1.50945 0
M  V30 326 H 27.9518 6.34563 1.26251 0
M  V30 327 N 28.0839 -0.256276 1.55502 0
M  V30 328 C 29.3089 -1.00766 1.81276 0
M  V30 329 C 29.7339 -1.78524 0.59252 0
M  V30 330 O 29.0919 -1.75413 -0.45827 0
M  V30 331 C 29.1399 -1.92869 3.04687 0
M  V30 332 O 28.2439 -3.019 2.80945 0
M  V30 333 H 27.5849 -0.287224 0.598664 0
M  V30 334 H 30.1149 -0.280109 2.02674 0
M  V30 335 H 30.1249 -2.34511 3.33869 0
M  V30 336 H 28.7999 -1.35689 3.93143 0
M  V30 337 H 27.3769 -2.64454 2.62904 0
M  V30 338 N 29.562 -1.4872 -0.521534 0
M  V30 339 C 30.525 -1.63379 -1.60748 0
M  V30 340 C 31.525 -0.50661 -1.52611 0
M  V30 341 O 32.715 -0.772601 -1.5613 0
M  V30 342 C 29.847 -1.61192 -3.00383 0
M  V30 343 H 31.04 -2.60217 -1.49087 0
M  V30 344 H 28.593 -1.37444 -0.744235 0
M  V30 345 H 29.328 -0.65863 -3.17541 0
M  V30 346 H 29.113 -2.43032 -3.07698 0
M  V30 347 H 30.603 -1.7466 -3.7932 0
M  V30 348 N 31.0401 0.771051 -1.3745 0
M  V30 349 C 31.9721 1.89352 -1.29146 0
M  V30 350 C 32.9851 1.61477 -0.207124 0
M  V30 351 O 34.1741 1.72382 -0.463324 0
M  V30 352 C 31.2741 3.24596 -0.974195 0
M  V30 353 C 30.4471 3.80111 -2.16413 0
M  V30 354 C 29.5061 4.93832 -1.81703 0
M  V30 355 O 28.5321 5.09382 -2.54006 0
M  V30 356 N 29.7341 5.75483 -0.761573 0
M  V30 357 H 32.4991 1.96991 -2.25864 0
M  V30 358 H 30.0601 0.950191 -1.31084 0
M  V30 359 H 32.0521 3.98193 -0.722828 0
M  V30 360 H 30.6221 3.12454 -0.0955527 0
M  V30 361 H 29.8421 2.98284 -2.57721 0
M  V30 362 H 31.1301 4.13932 -2.95867 0
M  V30 363 H 30.5281 5.65469 -0.161609 0
M  V30 364 H 29.0851 6.49302 -0.570064 0
M  V30 365 N 32.5182 1.22032 0.997298 0
M  V30 366 C 33.4502 0.944263 2.08845 0
M  V30 367 C 34.4632 -0.0754663 1.62625 0
M  V30 368 O 35.6522 0.157994 1.77799 0
M  V30 369 C 32.7522 0.397723 3.36558 0
M  V30 370 C 31.9252 1.47362 4.11829 0
M  V30 371 C 30.9842 0.934951 5.17827 0
M  V30 372 O 30.0102 1.62016 5.45655 0
M  V30 373 N 31.2122 -0.245895 5.79979 0
M  V30 374 H 33.9772 1.88363 2.33109 0
M  V30 375 H 31.5382 1.12661 1.16272 0
M  V30 376 H 33.5302 0.0227771 4.04694 0
M  V30 377 H 32.1002 -0.446646 3.09393 0
M  V30 378 H 31.3202 2.02208 3.38386 0
M  V30 379 H 32.6082 2.19764 4.58891 0
M  V30 380 H 32.0062 -0.819475 5.59733 0
M  V30 381 H 30.5632 -0.562272 6.4937 0
M  V30 382 N 33.9963 -1.19345 1.0293 0
M  V30 383 C 34.9443 -2.24621 0.604001 0
M  V30 384 C 35.9383 -1.65452 -0.363587 0
M  V30 385 O 37.1443 -1.78497 -0.23212 0
M  V30 386 H 33.5193 -0.730858 0.177061 0
M  V30 387 H 35.4903 -2.5781 1.50255 0
M  V30 388 C 34.2393 -3.47688 -0.0289127 0
M  V30 389 H 33.5623 -3.93505 0.706651 0
M  V30 390 H 35.0023 -4.23011 -0.289432 0
M  V30 391 C 33.4613 -3.11817 -1.2756 0
M  V30 392 O 33.9913 -3.2451 -2.36762 0
M  V30 393 N 32.1973 -2.66246 -1.16453 0
M  V30 394 H 31.7443 -2.56118 -0.275914 0
M  V30 395 H 31.7023 -2.42617 -1.99961 0
M  V30 396 N 35.4744 -0.807222 -1.35358 0
M  V30 397 C 36.6994 -0.399309 -2.0352 0
M  V30 398 C 37.1244 0.981986 -1.60433 0
M  V30 399 O 36.4824 1.63601 -0.781299 0
M  V30 400 C 36.5304 -0.491552 -3.57234 0
M  V30 401 O 35.6344 0.494754 -4.09421 0
M  V30 402 H 34.9754 -0.166682 -0.642739 0
M  V30 403 H 37.5054 -1.09328 -1.72941 0
M  V30 404 H 37.5154 -0.361588 -4.06395 0
M  V30 405 H 36.1904 -1.49907 -3.87944 0
M  V30 406 H 34.7674 0.324977 -3.71481 0
M  V30 407 N 36.9525 1.47285 -0.560781 0
M  V30 408 C 38.3635 1.86258 -0.128343 0
M  V30 409 C 38.7145 1.46699 1.30284 0
M  V30 410 O 37.8395 0.871698 1.98067 0
M  V30 411 C 38.4345 3.38044 -0.22614 0
M  V30 412 C 36.9935 3.76096 0.151283 0
M  V30 413 C 36.1405 2.71335 -0.572084 0
M  V30 414 H 39.0915 1.38752 -0.770297 0
M  V30 415 H 39.1125 3.76441 0.554322 0
M  V30 416 H 38.6245 3.66806 -1.26788 0
M  V30 417 H 36.7255 3.52951 1.19399 0
M  V30 418 H 36.8385 4.78641 -0.209765 0
M  V30 419 H 35.2025 2.54696 -0.0147653 0
M  V30 420 H 35.9855 3.02938 -1.61504 0
M  V30 421 N 38.4306 0.297415 1.54768 0
M  V30 422 C 39.3776 -0.580276 2.23386 0
M  V30 423 C 40.3476 -1.13238 1.21517 0
M  V30 424 O 41.5326 -1.17757 1.50126 0
M  V30 425 C 38.6726 -1.74801 2.97555 0
M  V30 426 C 37.7856 -1.22764 4.1419 0
M  V30 427 C 36.9206 -2.35895 4.75949 0
M  V30 428 C 35.9596 -1.80974 5.84735 0
M  V30 429 N 35.0966 -2.87664 6.40464 0
M  V30 430 H 39.9366 0.0114833 2.97998 0
M  V30 431 H 37.4736 0.0174361 1.4709 0
M  V30 432 H 39.4316 -2.43475 3.38786 0
M  V30 433 H 38.0616 -2.31145 2.25326 0
M  V30 434 H 37.1136 -0.433271 3.77924 0
M  V30 435 H 38.4256 -0.785551 4.92575 0
M  V30 436 H 37.5796 -3.12523 5.20014 0
M  V30 437 H 36.3186 -2.83429 3.96887 0
M  V30 438 H 35.3236 -1.02834 5.40097 0
M  V30 439 H 36.5486 -1.34348 6.65678 0
M  V30 440 H 34.4946 -3.34538 5.64287 0
M  V30 441 H 34.4116 -2.4794 7.14186 0
M  V30 442 H 35.6796 -3.642 6.89187 0
M  V30 443 N 39.9087 -1.5758 0.0250728 0
M  V30 444 C 41.1577 -1.90811 -0.653767 0
M  V30 445 C 41.4707 -0.90273 -1.73523 0
M  V30 446 O 42.6767 -1.12614 -2.47043 0
M  V30 447 C 41.1327 -3.38804 -1.21409 0
M  V30 448 C 40.7407 -4.47692 -0.166126 0
M  V30 449 C 42.4847 -3.81108 -1.86967 0
M  V30 450 C 40.3917 -5.86779 -0.737856 0
M  V30 451 H 39.3217 -0.712063 -0.247956 0
M  V30 452 H 41.9727 -1.83281 0.0897137 0
M  V30 453 H 40.3547 -3.41252 -2.00905 0
M  V30 454 H 41.5287 -4.56797 0.606079 0
M  V30 455 H 39.8437 -4.14565 0.390466 0
M  V30 456 H 42.4407 -4.82375 -2.30692 0
M  V30 457 H 42.7837 -3.15953 -2.71071 0
M  V30 458 H 43.3167 -3.81065 -1.14167 0
M  V30 459 H 40.0557 -6.55468 0.0649577 0
M  V30 460 H 39.5757 -5.81288 -1.47864 0
M  V30 461 H 41.2547 -6.35223 -1.22884 0
M  V30 462 N 41.3868 0.248026 -1.55636 0
M  V30 463 C 42.3368 1.30994 -1.86614 0
M  V30 464 C 43.3208 1.43543 -0.726918 0
M  V30 465 O 44.5128 1.46804 -0.988818 0
M  V30 466 C 41.6418 2.6656 -2.16335 0
M  V30 467 C 40.7278 2.58019 -3.36581 0
M  V30 468 N 41.1188 2.1911 -4.55878 0
M  V30 469 C 39.4168 2.89035 -3.39669 0
M  V30 470 C 40.1178 2.21174 -5.38012 0
M  V30 471 N 39.0938 2.60632 -4.77045 0
M  V30 472 H 42.8958 0.999583 -2.76379 0
M  V30 473 H 40.4098 0.456652 -1.55848 0
M  V30 474 H 42.4068 3.43194 -2.36692 0
M  V30 475 H 41.0668 2.98463 -1.27867 0
M  V30 476 H 42.0778 1.90672 -4.81523 0
M  V30 477 H 38.7548 3.25485 -2.61469 0
M  V30 478 H 40.1448 1.9344 -6.43452 0
M  V30 479 N 42.8649 1.48995 0.513639 0
M  V30 480 C 43.7749 1.67443 1.64317 0
M  V30 481 C 44.7909 0.556947 1.64846 0
M  V30 482 O 45.9669 0.830082 1.83498 0
M  V30 483 C 43.0319 1.72515 3.00732 0
M  V30 484 C 42.0929 2.96009 3.1093 0
M  V30 485 C 41.3259 3.00829 4.40837 0
M  V30 486 O 41.5489 2.13594 5.28898 0
M  V30 487 O 40.4829 3.93168 4.55744 0
M  V30 488 H 44.3089 2.63106 1.51687 0
M  V30 489 H 41.8939 1.32588 0.688543 0
M  V30 490 H 43.7759 1.78277 3.81831 0
M  V30 491 H 42.4509 0.800278 3.13651 0
M  V30 492 H 41.3579 2.9577 2.29065 0
M  V30 493 H 42.6909 3.87934 3.02933 0
M  V30 494 N 44.343 -0.763751 1.37857 0
M  V30 495 C 45.591 -1.51957 1.33243 0
M  V30 496 C 45.912 -1.94835 -0.0801709 0
M  V30 497 O 45.182 -1.66894 -1.02582 0
M  V30 498 H 43.762 -0.563626 0.49024 0
M  V30 499 H 46.424 -0.908504 1.7243 0
M  V30 500 H 45.52 -2.41523 1.97669 0
M  V30 501 N 45.8211 -1.22559 -0.990812 0
M  V30 502 C 47.0671 -1.06303 -1.73411 0
M  V30 503 C 47.4221 0.397442 -1.8825 0
M  V30 504 O 46.7151 1.29062 -1.41611 0
M  V30 505 C 46.9091 -1.71011 -3.13831 0
M  V30 506 C 46.7381 -3.232 -3.12685 0
M  V30 507 C 45.5081 -3.92314 -3.18461 0
M  V30 508 C 47.7061 -4.20107 -2.96673 0
M  V30 509 N 45.6881 -5.31571 -3.07091 0
M  V30 510 C 47.0591 -5.46208 -2.93354 0
M  V30 511 C 49.1141 -4.10973 -2.8108 0
M  V30 512 C 47.8171 -6.64225 -2.76039 0
M  V30 513 C 49.8431 -5.28642 -2.65126 0
M  V30 514 C 49.2051 -6.53663 -2.62496 0
M  V30 515 H 45.3041 -0.443441 -0.644115 0
M  V30 516 H 47.8881 -1.55131 -1.17654 0
M  V30 517 H 46.0591 -1.2473 -3.67827 0
M  V30 518 H 47.7911 -1.47828 -3.76735 0
M  V30 519 H 44.5461 -3.43326 -3.26227 0
M  V30 520 H 44.9701 -6.0455 -3.0471 0
M  V30 521 H 49.6121 -3.15098 -2.8191 0
M  V30 522 H 47.3301 -7.60246 -2.73954 0
M  V30 523 H 50.9161 -5.23407 -2.54039 0
M  V30 524 H 49.7961 -7.43182 -2.50302 0
M  V30 525 N 47.2992 1.18797 -1.03562 0
M  V30 526 C 48.5452 1.89192 -0.746867 0
M  V30 527 C 48.9002 1.78531 0.717245 0
M  V30 528 O 48.1932 1.17137 1.51622 0
M  V30 529 C 48.3872 3.38692 -1.14117 0
M  V30 530 C 48.2162 3.63902 -2.64207 0
M  V30 531 C 46.9862 3.81553 -3.31279 0
M  V30 532 C 49.1842 3.64903 -3.62423 0
M  V30 533 N 47.1662 3.94455 -4.70402 0
M  V30 534 C 48.5372 3.83458 -4.87196 0
M  V30 535 C 50.5922 3.47965 -3.56125 0
M  V30 536 C 49.2952 3.86829 -6.06429 0
M  V30 537 C 51.3212 3.52616 -4.7478 0
M  V30 538 C 50.6832 3.71663 -5.9837 0
M  V30 539 H 46.7822 0.711141 -0.325273 0
M  V30 540 H 49.3662 1.42727 -1.32428 0
M  V30 541 H 47.5372 3.83864 -0.591889 0
M  V30 542 H 49.2692 3.96634 -0.803966 0
M  V30 543 H 46.0242 3.80723 -2.81686 0
M  V30 544 H 46.4482 4.0474 -5.42692 0
M  V30 545 H 51.0902 3.32189 -2.61553 0
M  V30 546 H 48.8082 4.01395 -7.01362 0
M  V30 547 H 52.3942 3.40791 -4.71543 0
M  V30 548 H 51.2742 3.75145 -6.88648 0
M  V30 549 N 48.7773 0.814389 1.34928 0
M  V30 550 C 49.7403 0.235759 2.27984 0
M  V30 551 C 50.7403 -0.581412 1.49921 0
M  V30 552 O 51.9303 -0.398758 1.69575 0
M  V30 553 C 49.0623 -0.670433 3.34242 0
M  V30 554 H 50.2553 1.05659 2.80671 0
M  V30 555 H 47.8083 0.585614 1.44915 0
M  V30 556 H 48.5433 -1.51466 2.86755 0
M  V30 557 H 48.3283 -0.0860822 3.92005 0
M  V30 558 H 49.8183 -1.06935 4.03676 0
M  V30 559 N 50.2554 -1.46986 0.568584 0
M  V30 560 C 51.4854 -2.0653 0.0539173 0
M  V30 561 C 51.8934 -1.42004 -1.25026 0
M  V30 562 O 51.2364 -0.514541 -1.76347 0
M  V30 563 C 51.2984 -3.58938 -0.200854 0
M  V30 564 C 50.9624 -4.45572 1.01559 0
M  V30 565 C 51.9594 -4.82986 1.92407 0
M  V30 566 C 49.6444 -4.8692 1.23346 0
M  V30 567 C 51.6384 -5.60559 3.03402 0
M  V30 568 C 49.3254 -5.64255 2.34649 0
M  V30 569 C 50.3234 -6.00986 3.24507 0
M  V30 570 O 50.0114 -6.76761 4.33878 0
M  V30 571 H 49.7434 -0.674292 0.0480234 0
M  V30 572 H 52.2974 -1.89812 0.784896 0
M  V30 573 H 50.5274 -3.73911 -0.986279 0
M  V30 574 H 52.2164 -4.0046 -0.662294 0
M  V30 575 H 52.9824 -4.51633 1.76785 0
M  V30 576 H 48.8614 -4.57789 0.543178 0
M  V30 577 H 52.4054 -5.89147 3.73565 0
M  V30 578 H 48.3024 -5.95021 2.5024 0
M  V30 579 H 49.0704 -6.95168 4.32068 0
M  V30 580 N 51.7335 -0.305618 -1.54608 0
M  V30 581 C 52.6805 0.568421 -2.23691 0
M  V30 582 C 53.6505 1.12592 -1.22116 0
M  V30 583 O 54.8355 1.16959 -1.50749 0
M  V30 584 C 51.9755 1.7322 -2.98477 0
M  V30 585 C 51.0885 1.20566 -4.14835 0
M  V30 586 C 50.2235 2.33368 -4.77193 0
M  V30 587 C 49.2625 1.7787 -5.85686 0
M  V30 588 N 48.3995 2.84263 -6.4198 0
M  V30 589 H 53.2395 -0.0272867 -2.97988 0
M  V30 590 H 50.7765 -0.0252363 -1.47078 0
M  V30 591 H 52.7345 2.41675 -3.40072 0
M  V30 592 H 51.3645 2.29947 -2.26548 0
M  V30 593 H 50.4165 0.413223 -3.78149 0
M  V30 594 H 51.7285 0.759417 -4.92985 0
M  V30 595 H 50.8825 3.09761 -5.21664 0
M  V30 596 H 49.6215 2.8132 -3.98385 0
M  V30 597 H 48.6265 0.99968 -5.40635 0
M  V30 598 H 49.8515 1.30816 -6.66381 0
M  V30 599 H 47.7975 3.31541 -5.66053 0
M  V30 600 H 47.7145 2.44149 -7.15491 0
M  V30 601 H 48.9825 3.6054 -6.91109 0
M  V30 602 N 53.2116 1.57565 -0.0334293 0
M  V30 603 C 54.1216 2.13943 0.962572 0
M  V30 604 C 55.1376 1.09276 1.35406 0
M  V30 605 O 56.3136 1.41355 1.4346 0
M  V30 606 C 53.3786 2.65887 2.22497 0
M  V30 607 C 52.4396 3.85286 1.8935 0
M  V30 608 C 51.6726 4.34743 3.09571 0
M  V30 609 O 51.8956 3.83352 4.22371 0
M  V30 610 O 50.8296 5.26538 2.91618 0
M  V30 611 H 54.6556 2.99333 0.513169 0
M  V30 612 H 52.2406 1.4822 0.18743 0
M  V30 613 H 54.1226 2.99346 2.96598 0
M  V30 614 H 52.7976 1.83578 2.6661 0
M  V30 615 H 51.7046 3.56746 1.1262 0
M  V30 616 H 53.0376 4.68771 1.5005 0
M  V30 617 N 54.6897 -0.239769 1.55765 0
M  V30 618 C 55.9357 -0.968234 1.78194 0
M  V30 619 C 56.2687 -1.84701 0.599938 0
M  V30 620 O 55.5437 -1.9031 -0.401524 0
M  V30 621 C 55.8267 -1.8227 3.10564 0
M  V30 622 C 55.6797 -0.971633 4.3918 0
M  V30 623 C 56.9987 -2.80388 3.39221 0
M  V30 624 H 54.1177 -0.350572 0.648281 0
M  V30 625 H 56.7597 -0.238259 1.885 0
M  V30 626 H 54.9097 -2.44507 3.01908 0
M  V30 627 H 56.5817 -0.367408 4.59835 0
M  V30 628 H 54.8247 -0.276276 4.32919 0
M  V30 629 H 55.4957 -1.60346 5.28198 0
M  V30 630 H 57.9717 -2.28287 3.47885 0
M  V30 631 H 56.8477 -3.3729 4.33044 0
M  V30 632 H 57.1087 -3.57212 2.60484 0
M  V30 633 N 56.1678 -1.49265 -0.50573 0
M  V30 634 C 57.4138 -1.58748 -1.26202 0
M  V30 635 C 57.7468 -0.271227 -1.92297 0
M  V30 636 O 57.0218 0.724831 -1.80489 0
M  V30 637 C 57.3048 -2.74332 -2.33268 0
M  V30 638 C 57.1578 -4.15737 -1.71705 0
M  V30 639 C 58.4768 -2.85576 -3.34865 0
M  V30 640 H 55.5958 -0.577826 -0.457478 0
M  V30 641 H 58.2378 -1.81532 -0.560897 0
M  V30 642 H 56.3878 -2.55036 -2.93068 0
M  V30 643 H 58.0598 -4.46537 -1.15769 0
M  V30 644 H 56.3028 -4.21605 -1.02135 0
M  V30 645 H 56.9738 -4.92477 -2.49341 0
M  V30 646 H 59.4498 -3.03127 -2.8505 0
M  V30 647 H 58.3258 -3.68135 -4.07146 0
M  V30 648 H 58.5868 -1.94732 -3.96903 0
M  V30 649 N 57.6459 0.756429 -1.3826 0
M  V30 650 C 58.5779 1.87971 -1.31147 0
M  V30 651 C 59.5909 1.61248 -0.224239 0
M  V30 652 O 60.7799 1.71881 -0.481581 0
M  V30 653 C 57.8799 3.23545 -1.00857 0
M  V30 654 C 57.0529 3.77794 -2.20432 0
M  V30 655 C 56.1119 4.91877 -1.86931 0
M  V30 656 O 55.1379 5.06659 -2.59395 0
M  V30 657 N 56.3399 5.74643 -0.822568 0
M  V30 658 H 59.1049 1.94585 -2.2794 0
M  V30 659 H 56.6659 0.936234 -1.32084 0
M  V30 660 H 58.6579 3.97403 -0.765021 0
M  V30 661 H 57.2279 3.12335 -0.128687 0
M  V30 662 H 56.4479 2.95534 -2.6087 0
M  V30 663 H 57.7359 4.10771 -3.00241 0
M  V30 664 H 57.1339 5.65266 -0.221575 0
M  V30 665 H 55.6909 6.48661 -0.638899 0
M  V30 666 N 59.124 1.23083 0.984299 0
M  V30 667 C 60.372 1.05848 1.72165 0
M  V30 668 C 60.693 -0.406049 1.90726 0
M  V30 669 O 59.963 -1.29139 1.47309 0
M  V30 670 H 58.543 0.388685 0.637913 0
M  V30 671 H 61.205 1.54736 1.18503 0
M  V30 672 H 60.301 1.54327 2.71274 0
M  V30 673 N 60.6021 -1.18246 1.0419 0
M  V30 674 C 61.8271 -1.92736 0.765996 0
M  V30 675 C 62.2521 -1.75728 -0.67091 0
M  V30 676 O 61.6101 -1.06825 -1.46486 0
M  V30 677 C 61.6581 -3.42148 1.13875 0
M  V30 678 O 60.7621 -4.11548 0.264954 0
M  V30 679 H 60.1031 -0.601238 0.281797 0
M  V30 680 H 62.6331 -1.49942 1.39207 0
M  V30 681 H 62.6431 -3.92858 1.1012 0
M  V30 682 H 61.3181 -3.53848 2.18551 0
M  V30 683 H 59.8951 -3.71137 0.362226 0
M  V30 684 N 62.0802 -0.821533 -1.34494 0
M  V30 685 C 63.3272 -0.408946 -1.98328 0
M  V30 686 C 63.6552 1.02764 -1.65136 0
M  V30 687 O 62.9102 1.73026 -0.914349 0
M  V30 688 C 63.2092 -0.556512 -3.53041 0
M  V30 689 C 62.8752 -1.95861 -4.0614 0
M  V30 690 C 61.5372 -2.34217 -4.20352 0
M  V30 691 C 63.8892 -2.87523 -4.34718 0
M  V30 692 C 61.2172 -3.63572 -4.6047 0
M  V30 693 C 63.5692 -4.1634 -4.76281 0
M  V30 694 C 62.2332 -4.54675 -4.88699 0
M  V30 695 H 61.5032 -0.149644 -0.725732 0
M  V30 696 H 64.1502 -1.04521 -1.6046 0
M  V30 697 H 62.4552 0.163148 -3.9146 0
M  V30 698 H 64.1522 -0.217826 -4.00408 0
M  V30 699 H 60.7422 -1.65066 -3.95539 0
M  V30 700 H 64.9262 -2.59133 -4.23277 0
M  V30 701 H 60.1822 -3.93101 -4.68275 0
M  V30 702 H 64.3562 -4.87455 -4.97354 0
M  V30 703 H 61.9832 -5.54959 -5.19542 0
M  V30 704 N 63.5583 1.46682 -0.576371 0
M  V30 705 C 64.8043 2.02712 -0.0596221 0
M  V30 706 C 65.1373 1.44765 1.29448 0
M  V30 707 O 64.4123 0.610355 1.84675 0
M  V30 708 C 64.6953 3.60098 0.0129503 0
M  V30 709 C 64.5483 4.28441 -1.3696 0
M  V30 710 C 65.8673 4.34224 0.71678 0
M  V30 711 H 62.9863 0.736637 -0.0231407 0
M  V30 712 H 65.6283 1.74898 -0.742351 0
M  V30 713 H 63.7783 3.83926 0.594378 0
M  V30 714 H 65.4503 4.15896 -1.9957 0
M  V30 715 H 63.6933 3.8805 -1.93907 0
M  V30 716 H 64.3643 5.3716 -1.27135 0
M  V30 717 H 66.8403 4.15503 0.222908 0
M  V30 718 H 65.7163 5.43936 0.73657 0
M  V30 719 H 65.9773 4.04823 1.77682 0
M  V30 720 N 65.0364 0.313813 1.54444 0
M  V30 721 C 66.4474 -0.176243 1.85866 0
M  V30 722 C 66.7984 -1.52405 1.23561 0
M  V30 723 O 65.9234 -2.09605 0.538016 0
M  V30 724 C 66.5184 -0.32657 3.37222 0
M  V30 725 C 65.0774 -0.760846 3.6863 0
M  V30 726 C 64.2244 0.123247 2.77026 0
M  V30 727 H 67.1754 0.534418 1.49431 0
M  V30 728 H 67.1964 -1.15908 3.62416 0
M  V30 729 H 66.7084 0.654531 3.82541 0
M  V30 730 H 64.8094 -1.75204 3.28838 0
M  V30 731 H 64.9224 -0.571353 4.75681 0
M  V30 732 H 63.2864 -0.399597 2.51546 0
M  V30 733 H 64.0694 1.10094 3.25168 0
M  V30 734 N 66.5145 -1.57545 0.0417849 0
M  V30 735 C 67.7605 -1.92601 -0.635021 0
M  V30 736 C 68.0935 -0.919627 -1.71045 0
M  V30 737 O 67.3685 0.0557892 -1.9442 0
M  V30 738 C 67.6515 -3.38085 -1.23979 0
M  V30 739 C 67.5045 -4.49467 -0.173057 0
M  V30 740 C 68.8235 -3.83776 -2.15416 0
M  V30 741 H 65.9425 -0.700397 -0.229374 0
M  V30 742 H 68.5845 -1.89728 0.101633 0
M  V30 743 H 66.7345 -3.40664 -1.86762 0
M  V30 744 H 68.4065 -4.59018 0.458312 0
M  V30 745 H 66.6495 -4.30909 0.499996 0
M  V30 746 H 67.3205 -5.48323 -0.636054 0
M  V30 747 H 69.7965 -3.83013 -1.62605 0
M  V30 748 H 68.6725 -4.8624 -2.54679 0
M  V30 749 H 68.9335 -3.19998 -3.05047 0
M  V30 750 N 67.9926 0.231505 -1.5589 0
M  V30 751 C 69.4036 0.799327 -1.68724 0
M  V30 752 C 69.7546 1.85398 -0.642022 0
M  V30 753 O 68.8796 2.1539 0.208784 0
M  V30 754 C 69.4746 1.45664 -3.05888 0
M  V30 755 C 68.0336 1.97197 -3.20609 0
M  V30 756 C 67.1806 0.828552 -2.64632 0
M  V30 757 H 70.1316 0.00702616 -1.58698 0
M  V30 758 H 70.1526 2.32517 -3.01191 0
M  V30 759 H 69.6646 0.688808 -3.81939 0
M  V30 760 H 67.7656 2.76813 -2.4941 0
M  V30 761 H 67.8786 2.15878 -4.27707 0
M  V30 762 H 66.2426 1.23321 -2.22854 0
M  V30 763 H 67.0256 0.0735544 -3.43221 0
M  V30 764 N 69.4707 1.49531 0.497807 0
M  V30 765 C 70.6957 1.63159 1.28039 0
M  V30 766 C 71.1207 0.30418 1.85624 0
M  V30 767 O 70.4787 -0.728618 1.66015 0
M  V30 768 C 70.5267 2.70537 2.38416 0
M  V30 769 O 69.6307 2.29931 3.42353 0
M  V30 770 H 68.9717 0.546001 0.377861 0
M  V30 771 H 71.5017 1.9574 0.59558 0
M  V30 772 H 71.5117 2.92802 2.84132 0
M  V30 773 H 70.1867 3.6689 1.95869 0
M  V30 774 H 68.7637 2.18009 3.02533 0
M  V30 775 N 70.9488 -0.749086 1.3866 0
M  V30 776 C 72.1958 -1.50833 1.35114 0
M  V30 777 C 72.5238 -1.94415 -0.0574049 0
M  V30 778 O 71.7788 -1.66065 -1.03541 0
M  V30 779 C 72.0778 -2.7712 2.25697 0
M  V30 780 C 71.7438 -2.52477 3.73585 0
M  V30 781 C 70.4058 -2.45466 4.13884 0
M  V30 782 C 72.7578 -2.31066 4.67181 0
M  V30 783 C 70.0858 -2.15064 5.45861 0
M  V30 784 C 72.4378 -2.02183 5.9942 0
M  V30 785 C 71.1018 -1.93631 6.38798 0
M  V30 786 H 70.3718 -0.551936 0.494416 0
M  V30 787 H 73.0188 -0.860979 1.71054 0
M  V30 788 H 71.3238 -3.46528 1.82827 0
M  V30 789 H 73.0208 -3.35096 2.20254 0
M  V30 790 H 69.6108 -2.58807 3.41638 0
M  V30 791 H 73.7948 -2.35459 4.3689 0
M  V30 792 H 69.0508 -2.06954 5.75308 0
M  V30 793 H 73.2248 -1.8462 6.71482 0
M  V30 794 H 70.8518 -1.69839 7.40985 0
M  V30 795 N 72.4269 -1.23603 -0.977757 0
M  V30 796 C 73.6729 -1.08136 -1.72274 0
M  V30 797 C 74.0279 0.377453 -1.88661 0
M  V30 798 O 73.3209 1.27552 -1.42972 0
M  V30 799 C 73.5149 -1.7433 -3.11999 0
M  V30 800 C 73.3439 -3.26498 -3.0924 0
M  V30 801 C 72.1139 -3.9567 -3.14282 0
M  V30 802 C 74.3119 -4.2323 -2.92201 0
M  V30 803 N 72.2939 -5.34799 -3.01436 0
M  V30 804 C 73.6649 -5.49289 -2.87544 0
M  V30 805 C 75.7199 -4.13931 -2.76705 0
M  V30 806 C 74.4229 -6.67116 -2.68978 0
M  V30 807 C 76.4489 -5.31424 -2.59504 0
M  V30 808 C 75.8109 -6.5641 -2.55548 0
M  V30 809 H 71.9099 -0.450247 -0.639376 0
M  V30 810 H 74.4939 -1.5637 -1.16002 0
M  V30 811 H 72.6649 -1.28624 -3.66484 0
M  V30 812 H 74.3969 -1.51815 -3.75146 0
M  V30 813 H 71.1519 -3.46767 -3.22567 0
M  V30 814 H 71.5759 -6.07748 -2.98281 0
M  V30 815 H 76.2179 -3.1807 -2.78552 0
M  V30 816 H 73.9359 -7.63109 -2.65876 0
M  V30 817 H 77.5219 -5.26072 -2.48474 0
M  V30 818 H 76.4019 -7.45795 -2.42405 0
M  V30 819 N 73.905 1.17692 -1.04816 0
M  V30 820 C 75.153 1.87488 -0.754497 0
M  V30 821 C 75.474 1.81205 0.720407 0
M  V30 822 O 74.744 1.23544 1.52032 0
M  V30 823 H 73.324 0.694101 -0.276102 0
M  V30 824 H 75.986 1.42793 -1.32651 0
M  V30 825 H 75.082 2.93328 -1.06606 0
M  V30 826 N 75.3831 0.828654 1.34056 0
M  V30 827 C 76.3131 0.269443 2.3194 0
M  V30 828 C 77.2941 -0.617247 1.58506 0
M  V30 829 O 78.4791 -0.542931 1.86456 0
M  V30 830 C 75.6091 -0.564793 3.42677 0
M  V30 831 C 74.5631 0.225241 4.27407 0
M  V30 832 C 73.8891 -0.7321 5.29664 0
M  V30 833 C 75.1891 1.43663 5.02154 0
M  V30 834 H 76.8831 1.08728 2.7896 0
M  V30 835 H 74.4291 0.524283 1.34117 0
M  V30 836 H 76.3821 -0.966233 4.10173 0
M  V30 837 H 75.1061 -1.41574 2.9432 0
M  V30 838 H 73.7651 0.608117 3.61521 0
M  V30 839 H 73.4131 -1.57916 4.77568 0
M  V30 840 H 73.1131 -0.20767 5.87233 0
M  V30 841 H 74.6371 -1.13128 6.00029 0
M  V30 842 H 76.0511 1.1089 5.62473 0
M  V30 843 H 74.4481 1.89711 5.69324 0
M  V30 844 H 75.5181 2.21181 4.31517 0
M  V30 845 N 76.8612 -1.46375 0.584142 0
M  V30 846 C 78.1072 -2.02678 0.0703716 0
M  V30 847 C 78.4402 -1.4545 -1.28678 0
M  V30 848 O 77.7152 -0.62014 -1.84349 0
M  V30 849 C 77.9982 -3.60099 0.00614674 0
M  V30 850 C 77.8512 -4.27709 1.3923 0
M  V30 851 C 79.1702 -4.34598 -0.693742 0
M  V30 852 H 76.2892 -0.736504 0.027047 0
M  V30 853 H 78.9312 -1.74501 0.751615 0
M  V30 854 H 77.0812 -3.84236 -0.574009 0
M  V30 855 H 78.7532 -4.14832 2.01773 0
M  V30 856 H 76.9962 -3.87016 1.95962 0
M  V30 857 H 77.6672 -5.36478 1.29982 0
M  V30 858 H 80.1432 -4.15615 -0.200869 0
M  V30 859 H 79.0192 -5.44318 -0.707714 0
M  V30 860 H 79.2802 -4.05759 -1.75533 0
M  V30 861 N 78.3393 -0.321999 -1.54275 0
M  V30 862 C 79.2873 0.560206 -2.25753 0
M  V30 863 C 80.2813 1.11984 -1.27106 0
M  V30 864 O 81.4873 1.06806 -1.44888 0
M  V30 865 H 77.8623 0.199304 -0.725108 0
M  V30 866 H 79.8333 -0.0649365 -2.98329 0
M  V30 867 C 78.5823 1.71023 -3.02731 0
M  V30 868 H 77.9053 1.28885 -3.78456 0
M  V30 869 H 79.3453 2.30314 -3.55993 0
M  V30 870 C 77.8043 2.62692 -2.10938 0
M  V30 871 O 78.3343 3.64364 -1.6912 0
M  V30 872 N 76.5403 2.30891 -1.76459 0
M  V30 873 H 76.0873 1.48253 -2.10663 0
M  V30 874 H 76.0453 2.92487 -1.1532 0
M  V30 875 N 79.8174 1.5752 -0.0501392 0
M  V30 876 C 81.0424 1.97376 0.636997 0
M  V30 877 C 81.4674 0.927466 1.63645 0
M  V30 878 O 80.8254 -0.10941 1.8097 0
M  V30 879 C 80.8734 3.36304 1.30123 0
M  V30 880 O 79.9774 3.34156 2.41689 0
M  V30 881 H 79.3184 0.642998 0.165679 0
M  V30 882 H 81.8484 2.04258 -0.118233 0
M  V30 883 H 81.8584 3.73008 1.65315 0
M  V30 884 H 80.5334 4.11993 0.568746 0
M  V30 885 H 79.1104 3.09196 2.08451 0
M  V30 886 N 81.2955 -0.223234 1.56011 0
M  V30 887 C 82.2585 -1.26014 1.9145 0
M  V30 888 C 83.2585 -1.3989 0.792937 0
M  V30 889 O 84.4485 -1.38184 1.0607 0
M  V30 890 C 81.5805 -2.63422 2.16383 0
M  V30 891 H 82.7735 -0.95796 2.84189 0
M  V30 892 H 80.3265 -0.463576 1.49267 0
M  V30 893 H 81.0615 -2.98741 1.2619 0
M  V30 894 H 80.8465 -2.54728 2.98088 0
M  V30 895 H 82.3365 -3.38249 2.44903 0
M  V30 896 N 82.7736 -1.49793 -0.48987 0
M  V30 897 C 84.0196 -1.61049 -1.24236 0
M  V30 898 C 84.3746 -0.298412 -1.90072 0
M  V30 899 O 83.6676 0.702262 -1.78266 0
M  V30 900 C 83.8616 -2.71488 -2.32441 0
M  V30 901 C 83.6906 -4.13308 -1.77218 0
M  V30 902 C 82.4606 -4.79955 -1.58023 0
M  V30 903 C 84.6586 -4.98176 -1.27772 0
M  V30 904 N 82.6406 -6.06052 -0.978465 0
M  V30 905 C 84.0116 -6.14843 -0.798 0
M  V30 906 C 86.0666 -4.84091 -1.16449 0
M  V30 907 C 84.7696 -7.18975 -0.216245 0
M  V30 908 C 86.7956 -5.88382 -0.596698 0
M  V30 909 C 86.1576 -7.04285 -0.127262 0
M  V30 910 H 82.2566 -0.643611 -0.444172 0
M  V30 911 H 84.8406 -1.86842 -0.54754 0
M  V30 912 H 83.0116 -2.47449 -2.99372 0
M  V30 913 H 84.7436 -2.72205 -2.99477 0
M  V30 914 H 81.4986 -4.36936 -1.82712 0
M  V30 915 H 81.9226 -6.73407 -0.696534 0
M  V30 916 H 86.5646 -3.94786 -1.5134 0
M  V30 917 H 84.2826 -8.0797 0.144903 0
M  V30 918 H 87.8686 -5.79545 -0.511716 0
M  V30 919 H 86.7486 -7.83606 0.30523 0
M  V30 920 N 84.2517 0.741722 -1.39055 0
M  V30 921 C 85.1997 1.87702 -1.3737 0
M  V30 922 C 86.1937 1.67427 -0.257812 0
M  V30 923 O 87.3997 1.7485 -0.427489 0
M  V30 924 H 83.7747 0.617757 -0.428812 0
M  V30 925 H 85.7457 1.86239 -2.33147 0
M  V30 926 C 84.4947 3.25315 -1.22741 0
M  V30 927 H 83.8177 3.41509 -2.07873 0
M  V30 928 H 85.2577 4.04964 -1.25618 0
M  V30 929 C 83.7167 3.36838 0.0647316 0
M  V30 930 O 84.2467 3.88073 1.03741 0
M  V30 931 N 82.4527 2.90329 0.125544 0
M  V30 932 H 81.9997 2.48823 -0.666682 0
M  V30 933 H 81.9577 2.98418 0.989639 0
M  V30 934 N 85.7298 1.2412 0.971189 0
M  V30 935 C 86.6598 1.05508 2.08304 0
M  V30 936 C 87.6408 -0.0308864 1.70072 0
M  V30 937 O 88.8258 0.135521 1.93727 0
M  V30 938 C 85.9558 0.655365 3.4106 0
M  V30 939 C 84.9098 1.68971 3.93234 0
M  V30 940 C 84.2358 1.14516 5.22293 0
M  V30 941 C 85.5358 3.08487 4.21465 0
M  V30 942 H 87.2298 1.98507 2.24132 0
M  V30 943 H 84.7758 0.955821 1.07704 0
M  V30 944 H 86.7288 0.51217 4.18276 0
M  V30 945 H 85.4528 -0.31032 3.25122 0
M  V30 946 H 84.1118 1.82106 3.18171 0
M  V30 947 H 83.7598 0.170189 5.02712 0
M  V30 948 H 83.4598 1.83635 5.58168 0
M  V30 949 H 84.9838 1.01401 6.02121 0
M  V30 950 H 86.3978 2.98601 4.89398 0
M  V30 951 H 84.7948 3.74926 4.68562 0
M  V30 952 H 85.8648 3.56787 3.28376 0
M  V30 953 N 87.2079 -1.17134 1.05439 0
M  V30 954 C 88.4479 -1.89137 0.77502 0
M  V30 955 C 88.8119 -1.79345 -0.685526 0
M  V30 956 O 90.0129 -2.46188 -1.0791 0
M  V30 957 C 88.2839 -3.35003 1.2453 0
M  V30 958 S 89.8429 -4.24952 1.09367 0
M  V30 959 H 86.6609 -0.652949 0.281387 0
M  V30 960 H 89.2629 -1.4145 1.34953 0
M  V30 961 H 87.9669 -3.39666 2.30338 0
M  V30 962 H 87.4979 -3.87736 0.665166 0
M  V30 963 H 89.5129 -4.96196 0.0193397 0
M  V30 964 N 88.686 -0.835752 -1.33615 0
M  V30 965 C 89.911 -0.442389 -2.02627 0
M  V30 966 C 90.336 0.947735 -1.62479 0
M  V30 967 O 89.694 1.61907 -0.815826 0
M  V30 968 C 89.742 -0.567216 -3.56111 0
M  V30 969 O 88.846 0.407799 -4.10379 0
M  V30 970 H 88.187 -0.180278 -0.639059 0
M  V30 971 H 90.717 -1.12972 -1.70583 0
M  V30 972 H 90.727 -0.447708 -4.05536 0
M  V30 973 H 89.402 -1.58103 -3.84677 0
M  V30 974 H 87.979 0.246107 -3.72087 0
M  V30 975 N 90.1641 1.46063 -0.591896 0
M  V30 976 C 91.4101 2.02638 -0.0811191 0
M  V30 977 C 91.7431 1.4613 1.27905 0
M  V30 978 O 91.0181 0.629908 1.84017 0
M  V30 979 C 91.3011 3.60091 -0.0252436 0
M  V30 980 C 91.1541 4.26965 -1.41496 0
M  V30 981 C 92.4731 4.3496 0.670685 0
M  V30 982 H 89.5921 0.73635 -0.0309524 0
M  V30 983 H 92.2341 1.741 -0.760859 0
M  V30 984 H 90.3841 3.84535 0.553624 0
M  V30 985 H 92.0561 4.13756 -2.0397 0
M  V30 986 H 90.2991 3.85971 -1.98011 0
M  V30 987 H 90.9701 5.35781 -1.32825 0
M  V30 988 H 93.4461 4.15716 0.178825 0
M  V30 989 H 92.3221 5.44686 0.678837 0
M  V30 990 H 92.5831 4.06685 1.73379 0
M  V30 991 N 91.6422 0.330177 1.54103 0
M  V30 992 C 92.8902 -0.269871 2.0029 0
M  V30 993 C 93.2112 -1.52133 1.21986 0
M  V30 994 O 92.4812 -1.93212 0.323438 0
M  V30 995 H 91.0612 -0.10271 0.739905 0
M  V30 996 H 93.7232 0.448249 1.89675 0
M  V30 997 H 92.8192 -0.52166 3.07709 0
M  V30 998 N 93.1203 -1.57491 0.0584922 0
M  V30 999 C 94.0673 -2.11958 -0.913376 0
M  V30 1000 C 95.0373 -1.02875 -1.30407 0
M  V30 1001 O 96.2223 -1.30464 -1.39226 0
M  V30 1002 C 93.3623 -2.67497 -2.18035 0
M  V30 1003 C 92.4753 -3.90691 -1.84349 0
M  V30 1004 C 91.6103 -4.3452 -3.05559 0
M  V30 1005 C 90.6493 -5.50395 -2.67827 0
M  V30 1006 N 89.7863 -5.89244 -3.81754 0
M  V30 1007 H 94.6263 -2.94704 -0.442017 0
M  V30 1008 H 92.1633 -1.45643 -0.206545 0
M  V30 1009 H 94.1213 -2.978 -2.92183 0
M  V30 1010 H 92.7513 -1.87537 -2.62735 0
M  V30 1011 H 91.8033 -3.66934 -1.00319 0
M  V30 1012 H 93.1153 -4.7489 -1.5258 0
M  V30 1013 H 92.2693 -4.66414 -3.87998 0
M  V30 1014 H 91.0083 -3.49147 -3.40511 0
M  V30 1015 H 90.0133 -5.18165 -1.83806 0
M  V30 1016 H 91.2383 -6.3749 -2.34059 0
M  V30 1017 H 89.1843 -5.06823 -4.16493 0
M  V30 1018 H 89.1013 -6.68151 -3.53708 0
M  V30 1019 H 90.3693 -6.25756 -4.64811 0
M  V30 1020 N 94.5984 0.214957 -1.56127 0
M  V30 1021 C 96.0144 0.564948 -1.49267 0
M  V30 1022 C 96.2144 1.86827 -0.754838 0
M  V30 1023 O 95.2704 2.50745 -0.297198 0
M  V30 1024 C 96.5834 0.638071 -2.93852 0
M  V30 1025 C 98.1314 0.728253 -3.0441 0
M  V30 1026 C 98.6064 0.832663 -4.50367 0
M  V30 1027 N 100.097 0.896712 -4.54437 0
M  V30 1028 C 100.832 0.997324 -5.6466 0
M  V30 1029 N 100.328 1.06147 -6.8462 0
M  V30 1030 N 102.121 1.03297 -5.52527 0
M  V30 1031 H 94.2724 -0.640211 -2.02522 0
M  V30 1032 H 96.5354 -0.225507 -0.920788 0
M  V30 1033 H 96.2414 -0.250126 -3.50809 0
M  V30 1034 H 96.1154 1.49947 -3.46115 0
M  V30 1035 H 98.5024 1.60689 -2.47514 0
M  V30 1036 H 98.5834 -0.158952 -2.55306 0
M  V30 1037 H 98.2274 -0.0415417 -5.07883 0
M  V30 1038 H 98.1574 1.73538 -4.97184 0
M  V30 1039 H 100.648 0.857188 -3.6805 0
M  V30 1040 H 100.961 1.1382 -7.64372 0
M  V30 1041 H 99.3064 1.03049 -6.87318 0
M  V30 1042 H 102.497 0.979558 -4.57736 0
M  V30 1043 H 102.67 1.10793 -6.38458 0
M  V30 1044 N 96.0765 1.50051 0.48192 0
M  V30 1045 C 97.0085 1.64263 1.59844 0
M  V30 1046 C 98.0215 0.52451 1.54119 0
M  V30 1047 O 99.2105 0.797293 1.59704 0
M  V30 1048 C 96.3105 1.60102 2.98698 0
M  V30 1049 C 95.4835 2.87767 3.29407 0
M  V30 1050 C 94.5425 2.76397 4.47762 0
M  V30 1051 O 93.5685 3.50348 4.48603 0
M  V30 1052 N 94.7705 1.89222 5.48794 0
M  V30 1053 H 97.5355 2.60566 1.48073 0
M  V30 1054 H 95.0965 1.47379 0.670149 0
M  V30 1055 H 97.0885 1.50123 3.75826 0
M  V30 1056 H 95.6585 0.715798 3.04294 0
M  V30 1057 H 94.8785 3.11954 2.40994 0
M  V30 1058 H 96.1665 3.72365 3.4673 0
M  V30 1059 H 95.5645 1.28434 5.50928 0
M  V30 1060 H 94.1215 1.85154 6.24949 0
M  V30 1061 N 97.5546 -0.734337 1.39446 0
M  V30 1062 C 98.7796 -1.52866 1.40167 0
M  V30 1063 C 99.2046 -1.881 -0.00171513 0
M  V30 1064 O 98.5626 -1.51957 -0.988879 0
M  V30 1065 C 98.6106 -2.79235 2.28167 0
M  V30 1066 O 97.7146 -3.75185 1.71201 0
M  V30 1067 H 97.0556 -0.461618 0.477289 0
M  V30 1068 H 99.5856 -0.905949 1.8345 0
M  V30 1069 H 99.5956 -3.27963 2.42702 0
M  V30 1070 H 98.2706 -2.52923 3.30156 0
M  V30 1071 H 96.8476 -3.33958 1.65912 0
M  V30 1072 N 99.0327 -1.24633 -0.964593 0
M  V30 1073 C 100.444 -1.08045 -1.5226 0
M  V30 1074 C 100.795 0.347116 -1.93105 0
M  V30 1075 O 99.9197 1.23588 -1.77637 0
M  V30 1076 C 100.515 -1.95514 -2.76695 0
M  V30 1077 C 99.0737 -1.8314 -3.28841 0
M  V30 1078 C 98.2207 -1.90262 -2.01732 0
M  V30 1079 H 101.172 -1.38064 -0.782553 0
M  V30 1080 H 101.193 -1.48925 -3.50145 0
M  V30 1081 H 100.705 -2.99407 -2.46936 0
M  V30 1082 H 98.8057 -0.82092 -3.63444 0
M  V30 1083 H 98.9187 -2.67406 -3.97531 0
M  V30 1084 H 97.2827 -1.34027 -2.16584 0
M  V30 1085 H 98.0657 -2.9574 -1.74334 0
M  V30 1086 N 100.511 1.16574 -1.06058 0
M  V30 1087 C 101.757 1.87324 -0.777022 0
M  V30 1088 C 102.09 1.81351 0.694645 0
M  V30 1089 O 101.365 1.22753 1.50871 0
M  V30 1090 C 101.648 3.36991 -1.26922 0
M  V30 1091 C 101.501 3.51667 -2.80447 0
M  V30 1092 C 102.82 4.3131 -0.87521 0
M  V30 1093 H 99.9388 0.680191 -0.28374 0
M  V30 1094 H 102.581 1.37036 -1.3161 0
M  V30 1095 H 100.731 3.79949 -0.81063 0
M  V30 1096 H 102.403 3.17664 -3.34495 0
M  V30 1097 H 100.646 2.93656 -3.19294 0
M  V30 1098 H 101.317 4.56766 -3.0995 0
M  V30 1099 H 103.793 3.9624 -1.27014 0
M  V30 1100 H 102.669 5.34545 -1.2471 0
M  V30 1101 H 102.93 4.41552 0.220071 0
M  V30 1102 N 101.989 0.842826 1.3317 0
M  V30 1103 C 102.937 0.267495 2.31057 0
M  V30 1104 C 103.931 -0.602682 1.58316 0
M  V30 1105 O 105.137 -0.491803 1.73151 0
M  V30 1106 H 101.512 0.0677813 0.748939 0
M  V30 1107 H 103.483 1.10754 2.77085 0
M  V30 1108 C 102.232 -0.539331 3.43492 0
M  V30 1109 H 101.555 0.12095 3.99617 0
M  V30 1110 H 102.995 -0.90767 4.14171 0
M  V30 1111 C 101.454 -1.71981 2.89697 0
M  V30 1112 O 101.984 -2.81862 2.86211 0
M  V30 1113 N 100.19 -1.54299 2.46252 0
M  V30 1114 H 99.7369 -0.649143 2.49287 0
M  V30 1115 H 99.6949 -2.33431 2.10612 0
M  V30 1116 N 103.467 -1.45747 0.599634 0
M  V30 1117 C 104.716 -2.01502 0.0893511 0
M  V30 1118 C 105.029 -1.4748 -1.28488 0
M  V30 1119 O 106.235 -1.95161 -1.88745 0
M  V30 1120 C 104.691 -3.59735 0.109082 0
M  V30 1121 C 104.299 -4.22754 1.48267 0
M  V30 1122 C 106.043 -4.23085 -0.346374 0
M  V30 1123 C 103.95 -5.73115 1.45921 0
M  V30 1124 H 102.88 -0.753417 0.0296347 0
M  V30 1125 H 105.531 -1.67303 0.753788 0
M  V30 1126 H 103.913 -3.91087 -0.621854 0
M  V30 1127 H 105.087 -4.02987 2.23468 0
M  V30 1128 H 103.402 -3.71567 1.87955 0
M  V30 1129 H 105.999 -5.33327 -0.38298 0
M  V30 1130 H 106.342 -3.93201 -1.36743 0
M  V30 1131 H 106.875 -3.9642 0.331038 0
M  V30 1132 H 103.614 -6.07685 2.45762 0
M  V30 1133 H 103.134 -5.95097 0.749665 0
M  V30 1134 H 104.813 -6.3616 1.17941 0
M  V30 1135 N 104.945 -0.338344 -1.53925 0
M  V30 1136 C 105.855 0.529421 -2.28548 0
M  V30 1137 C 106.871 1.11645 -1.3346 0
M  V30 1138 O 108.047 1.13325 -1.66492 0
M  V30 1139 C 105.112 1.66713 -3.03987 0
M  V30 1140 C 104.173 1.11041 -4.14691 0
M  V30 1141 C 103.406 2.19389 -4.86522 0
M  V30 1142 O 103.629 3.40013 -4.57982 0
M  V30 1143 O 102.563 1.83976 -5.73094 0
M  V30 1144 H 106.389 -0.0770399 -3.03602 0
M  V30 1145 H 103.974 -0.103555 -1.49041 0
M  V30 1146 H 105.856 2.32918 -3.5118 0
M  V30 1147 H 104.531 2.25949 -2.31794 0
M  V30 1148 H 103.438 0.413024 -3.71813 0
M  V30 1149 H 104.771 0.562975 -4.8897 0
M  V30 1150 N 106.423 1.57458 -0.0668435 0
M  V30 1151 C 107.651 1.97624 0.612565 0
M  V30 1152 C 108.066 0.94502 1.63447 0
M  V30 1153 O 107.423 -0.0689276 1.8237 0
M  V30 1154 C 107.474 3.37869 1.28555 0
M  V30 1155 O 107.195 4.3704 0.304557 0
M  V30 1156 C 108.696 3.92882 2.05325 0
M  V30 1157 H 105.916 0.650045 0.166381 0
M  V30 1158 H 108.46 2.04035 -0.137782 0
M  V30 1159 H 106.615 3.3256 1.98702 0
M  V30 1160 H 107.029 5.18565 0.786779 0
M  V30 1161 H 108.503 4.93247 2.47812 0
M  V30 1162 H 108.98 3.29156 2.9078 0
M  V30 1163 H 109.586 4.01577 1.40056 0
M  V30 1164 N 107.901 -0.206675 1.56239 0
M  V30 1165 C 109.126 -0.949474 1.8439 0
M  V30 1166 C 109.551 -1.76549 0.649016 0
M  V30 1167 O 108.909 -1.76782 -0.402231 0
M  V30 1168 C 108.957 -1.83078 3.10668 0
M  V30 1169 O 108.061 -2.9281 2.90407 0
M  V30 1170 H 107.402 -0.268033 0.607499 0
M  V30 1171 H 109.932 -0.215488 2.03462 0
M  V30 1172 H 109.942 -2.2377 3.41161 0
M  V30 1173 H 108.617 -1.23112 3.97261 0
M  V30 1174 H 107.194 -2.55956 2.71184 0
M  V30 1175 N 109.379 -1.50304 -0.473955 0
M  V30 1176 C 110.329 -1.65347 -1.56985 0
M  V30 1177 C 111.313 -0.508176 -1.52664 0
M  V30 1178 O 112.505 -0.762446 -1.59737 0
M  V30 1179 C 109.634 -1.74832 -2.95447 0
M  V30 1180 C 108.72 -2.95028 -3.04662 0
M  V30 1181 N 109.111 -4.18747 -2.83698 0
M  V30 1182 C 107.409 -2.93527 -3.35795 0
M  V30 1183 C 108.11 -4.99687 -2.97805 0
M  V30 1184 N 107.086 -4.33585 -3.2788 0
M  V30 1185 H 110.888 -2.58698 -1.39472 0
M  V30 1186 H 108.402 -1.47449 -0.680629 0
M  V30 1187 H 110.399 -1.83712 -3.7424 0
M  V30 1188 H 109.059 -0.826376 -3.14008 0
M  V30 1189 H 110.07 -4.48291 -2.59337 0
M  V30 1190 H 106.747 -2.10821 -3.60362 0
M  V30 1191 H 108.137 -6.08057 -2.85861 0
M  V30 1192 N 110.857 0.726932 -1.39834 0
M  V30 1193 C 111.79 1.8501 -1.33592 0
M  V30 1194 C 112.768 1.61262 -0.208191 0
M  V30 1195 O 113.952 1.84422 -0.389981 0
M  V30 1196 C 111.079 3.21143 -1.07633 0
M  V30 1197 C 110.125 3.63737 -2.22705 0
M  V30 1198 S 110.958 3.72167 -3.85035 0
M  V30 1199 C 112.114 5.11077 -3.61318 0
M  V30 1200 H 112.347 1.90022 -2.28646 0
M  V30 1201 H 109.88 0.892595 -1.25985 0
M  V30 1202 H 111.838 3.99747 -0.933415 0
M  V30 1203 H 110.499 3.13776 -0.142526 0
M  V30 1204 H 109.692 4.62551 -2.00155 0
M  V30 1205 H 109.294 2.9236 -2.33242 0
M  V30 1206 H 111.586 5.97656 -3.19083 0
M  V30 1207 H 112.529 5.38658 -4.59623 0
M  V30 1208 H 112.937 4.81135 -2.95245 0
M  V30 1209 N 112.336 1.25143 0.95797 0
M  V30 1210 C 113.585 1.0909 1.69654 0
M  V30 1211 C 113.898 -0.368548 1.92097 0
M  V30 1212 O 115.104 -0.649455 2.63618 0
M  V30 1213 C 113.56 1.90395 3.05414 0
M  V30 1214 C 113.168 3.4081 2.90779 0
M  V30 1215 C 114.912 1.82901 3.83076 0
M  V30 1216 C 112.819 4.14423 4.21909 0
M  V30 1217 H 111.749 0.404625 0.636235 0
M  V30 1218 H 114.4 1.4931 1.06672 0
M  V30 1219 H 112.782 1.42996 3.69281 0
M  V30 1220 H 113.956 3.95859 2.35865 0
M  V30 1221 H 112.271 3.49361 2.26575 0
M  V30 1222 H 114.868 2.35196 4.80195 0
M  V30 1223 H 115.211 0.796224 4.08615 0
M  V30 1224 H 115.744 2.28033 3.25954 0
M  V30 1225 H 112.483 5.18102 4.01561 0
M  V30 1226 H 112.003 3.64159 4.76601 0
M  V30 1227 H 113.682 4.21956 4.90471 0
M  V30 1228 N 113.814 -1.1601 1.06675 0
M  V30 1229 C 115.061 -1.86633 0.785781 0
M  V30 1230 C 115.389 -1.81929 -0.687896 0
M  V30 1231 O 114.644 -1.23253 -1.52011 0
M  V30 1232 C 114.943 -3.35547 1.23057 0
M  V30 1233 C 114.609 -3.60448 2.70902 0
M  V30 1234 C 113.271 -3.66954 3.11285 0
M  V30 1235 C 115.623 -3.7071 3.66365 0
M  V30 1236 C 112.951 -3.81225 4.45965 0
M  V30 1237 C 115.303 -3.86503 5.00797 0
M  V30 1238 C 113.967 -3.91252 5.40813 0
M  V30 1239 H 113.237 -0.682937 0.287538 0
M  V30 1240 H 115.884 -1.37146 1.33654 0
M  V30 1241 H 114.189 -3.87193 0.59907 0
M  V30 1242 H 115.886 -3.88583 0.990163 0
M  V30 1243 H 112.476 -3.56021 2.38636 0
M  V30 1244 H 116.66 -3.64991 3.36296 0
M  V30 1245 H 111.916 -3.83155 4.76447 0
M  V30 1246 H 116.09 -3.93385 5.74649 0
M  V30 1247 H 113.717 -4.02062 6.45174 0
M  V30 1248 N 115.292 -0.849877 -1.32721 0
M  V30 1249 C 116.569 -0.372405 -1.92022 0
M  V30 1250 C 116.949 1.1435 -1.77447 0
M  V30 1251 O 116.297 1.96296 -1.16962 0
M  V30 1252 C 116.507 -0.831482 -3.3895 0
M  V30 1253 C 117.855 -0.845882 -4.16089 0
M  V30 1254 O 118.879 -0.775806 -3.47649 0
M  V30 1255 O 117.738 -0.943753 -5.38289 0
M  V30 1256 H 114.832 -0.107667 -0.819961 0
M  V30 1257 H 117.378 -0.93646 -1.41522 0
M  V30 1258 H 116.15 -1.87448 -3.4348 0
M  V30 1259 H 115.773 -0.24461 -3.96847 0
M  V30 1260 N 116.77 1.45427 -0.607355 0
M  V30 1261 C 118.181 1.85756 -0.187535 0
M  V30 1262 C 118.532 1.5077 1.25551 0
M  V30 1263 O 117.657 0.93427 1.95193 0
M  V30 1264 C 118.252 3.37154 -0.333572 0
M  V30 1265 C 116.811 3.76387 0.0315542 0
M  V30 1266 C 115.958 2.69377 -0.658117 0
M  V30 1267 H 118.909 1.36231 -0.81405 0
M  V30 1268 H 118.93 3.78014 0.43428 0
M  V30 1269 H 118.442 3.62586 -1.38393 0
M  V30 1270 H 116.543 3.56571 1.0811 0
M  V30 1271 H 116.656 4.77731 -0.361935 0
M  V30 1272 H 115.02 2.5452 -0.0957873 0
M  V30 1273 H 115.803 2.97646 -1.7106 0
M  V30 1274 N 118.248 0.346503 1.53744 0
M  V30 1275 C 119.495 -0.249104 2.00962 0
M  V30 1276 C 119.823 -1.5032 1.23426 0
M  V30 1277 O 119.078 -1.93217 0.310761 0
M  V30 1278 C 119.377 -0.605809 3.52228 0
M  V30 1279 C 119.043 0.551747 4.47512 0
M  V30 1280 C 117.705 0.86941 4.73281 0
M  V30 1281 C 120.057 1.32818 5.03993 0
M  V30 1282 C 117.385 1.96582 5.52786 0
M  V30 1283 C 119.737 2.41486 5.84694 0
M  V30 1284 C 118.401 2.73808 6.08757 0
M  V30 1285 H 117.671 -0.0911538 0.735372 0
M  V30 1286 H 120.318 0.475027 1.85515 0
M  V30 1287 H 118.623 -1.4107 3.65522 0
M  V30 1288 H 120.32 -1.07858 3.86222 0
M  V30 1289 H 116.91 0.294102 4.2759 0
M  V30 1290 H 121.094 1.09602 4.84047 0
M  V30 1291 H 116.35 2.22045 5.69654 0
M  V30 1292 H 120.524 3.02078 6.27473 0
M  V30 1293 H 118.151 3.58892 6.7015 0
M  V30 1294 N 119.726 -1.57421 0.075193 0
M  V30 1295 C 120.656 -2.15942 -0.888324 0
M  V30 1296 C 121.637 -1.08737 -1.30806 0
M  V30 1297 O 122.822 -1.36787 -1.37851 0
M  V30 1298 C 119.952 -2.72379 -2.1547 0
M  V30 1299 C 118.906 -3.8478 -1.87425 0
M  V30 1300 C 118.232 -4.27834 -3.20721 0
M  V30 1301 C 119.532 -5.08869 -1.17684 0
M  V30 1302 H 121.226 -2.96705 -0.400799 0
M  V30 1303 H 118.772 -1.42723 -0.191342 0
M  V30 1304 H 120.725 -3.11965 -2.83295 0
M  V30 1305 H 119.449 -1.88841 -2.6647 0
M  V30 1306 H 118.108 -3.45703 -1.22004 0
M  V30 1307 H 117.756 -3.41214 -3.6957 0
M  V30 1308 H 117.456 -5.03605 -3.02746 0
M  V30 1309 H 118.98 -4.70039 -3.89738 0
M  V30 1310 H 120.394 -5.4575 -1.75584 0
M  V30 1311 H 118.791 -5.8994 -1.09956 0
M  V30 1312 H 119.861 -4.84648 -0.156453 0
M  V30 1313 N 121.204 0.198386 -1.56346 0
M  V30 1314 C 122.432 0.935572 -1.84539 0
M  V30 1315 C 122.847 1.76989 -0.657281 0
M  V30 1316 O 122.204 1.78626 0.374043 0
M  V30 1317 C 122.255 1.8344 -3.11499 0
M  V30 1318 O 121.976 1.03377 -4.25728 0
M  V30 1319 C 123.477 2.68355 -3.52846 0
M  V30 1320 H 120.697 0.273126 -0.612897 0
M  V30 1321 H 123.241 0.20663 -2.03453 0
M  V30 1322 H 121.396 2.51701 -2.94492 0
M  V30 1323 H 121.81 1.64599 -4.98003 0
M  V30 1324 H 123.284 3.27085 -4.44657 0
M  V30 1325 H 123.761 3.41901 -2.75681 0
M  V30 1326 H 124.367 2.05471 -3.72373 0
M  V30 1327 N 122.682 1.50554 0.465978 0
M  V30 1328 C 124.093 1.54599 1.04671 0
M  V30 1329 C 124.444 0.352488 1.93008 0
M  V30 1330 O 123.569 -0.534044 2.09707 0
M  V30 1331 C 124.164 2.80166 1.90505 0
M  V30 1332 C 122.723 2.86876 2.43678 0
M  V30 1333 C 121.87 2.48947 1.22151 0
M  V30 1334 H 124.821 1.56744 0.248384 0
M  V30 1335 H 124.842 2.62311 2.75633 0
M  V30 1336 H 124.354 3.67013 1.26186 0
M  V30 1337 H 122.455 2.04393 3.11536 0
M  V30 1338 H 122.568 3.89885 2.78436 0
M  V30 1339 H 120.932 2.01498 1.5579 0
M  V30 1340 H 121.715 3.38107 0.594866 0
M  V30 1341 N 124.16 -0.719506 1.40217 0
M  V30 1342 C 125.09 -1.8465 1.42922 0
M  V30 1343 C 126.071 -1.67599 0.29062 0
M  V30 1344 O 127.256 -1.87688 0.498677 0
M  V30 1345 C 124.386 -3.22565 1.28722 0
M  V30 1346 C 123.34 -3.54281 2.40144 0
M  V30 1347 C 122.666 -4.91298 2.11023 0
M  V30 1348 C 123.966 -3.55676 3.82481 0
M  V30 1349 H 125.66 -1.82644 2.37237 0
M  V30 1350 H 123.206 -0.877305 1.1419 0
M  V30 1351 H 125.159 -4.01095 1.29232 0
M  V30 1352 H 123.883 -3.25137 0.308811 0
M  V30 1353 H 122.542 -2.78088 2.38877 0
M  V30 1354 H 122.19 -4.90468 1.11582 0
M  V30 1355 H 121.89 -5.13485 2.8567 0
M  V30 1356 H 123.414 -5.72166 2.13209 0
M  V30 1357 H 124.828 -4.24254 3.85592 0
M  V30 1358 H 123.225 -3.89388 4.56614 0
M  V30 1359 H 124.295 -2.55144 4.12346 0
M  V30 1360 N 125.638 -1.25649 -0.95132 0
M  V30 1361 C 127.054 -1.02542 -1.223 0
M  V30 1362 C 127.254 0.255715 -1.99871 0
M  V30 1363 O 126.31 0.967558 -2.33226 0
M  V30 1364 C 127.623 -2.25065 -1.99415 0
M  V30 1365 C 129.171 -2.29861 -2.12446 0
M  V30 1366 C 129.646 -3.52048 -2.92961 0
M  V30 1367 N 131.137 -3.52465 -3.00538 0
M  V30 1368 C 131.872 -4.43672 -3.63239 0
M  V30 1369 N 131.368 -5.45157 -4.27523 0
M  V30 1370 N 133.161 -4.31346 -3.60412 0
M  V30 1371 H 125.312 -2.07951 -0.432471 0
M  V30 1372 H 127.575 -0.91339 -0.253816 0
M  V30 1373 H 127.281 -3.18194 -1.49817 0
M  V30 1374 H 127.155 -2.28502 -3.00111 0
M  V30 1375 H 129.542 -1.37252 -2.61239 0
M  V30 1376 H 129.623 -2.3044 -1.11044 0
M  V30 1377 H 129.267 -4.44981 -2.44856 0
M  V30 1378 H 129.197 -3.48715 -3.94596 0
M  V30 1379 H 131.688 -2.79056 -2.54826 0
M  V30 1380 H 132.001 -6.10958 -4.73234 0
M  V30 1381 H 130.346 -5.49025 -4.26141 0
M  V30 1382 H 133.537 -3.51288 -3.09377 0
M  V30 1383 H 133.71 -5.02624 -4.0899 0
M  V30 1384 N 127.117 1.15442 -1.07289 0
M  V30 1385 C 128.366 1.85557 -0.790669 0
M  V30 1386 C 128.679 1.83186 0.685739 0
M  V30 1387 O 129.885 2.48977 1.0827 0
M  V30 1388 C 128.341 3.33038 -1.36433 0
M  V30 1389 C 127.949 3.43856 -2.8717 0
M  V30 1390 C 129.693 4.0834 -1.1601 0
M  V30 1391 C 127.6 4.85482 -3.3773 0
M  V30 1392 H 126.53 0.695122 -0.292098 0
M  V30 1393 H 129.181 1.30219 -1.29287 0
M  V30 1394 H 127.563 3.88043 -0.789864 0
M  V30 1395 H 128.737 2.98961 -3.50655 0
M  V30 1396 H 127.052 2.81998 -3.06376 0
M  V30 1397 H 129.649 5.12859 -1.51262 0
M  V30 1398 H 129.992 4.16182 -0.0991007 0
M  V30 1399 H 130.525 3.59603 -1.70089 0
M  V30 1400 H 127.264 4.82823 -4.43353 0
M  V30 1401 H 126.784 5.30961 -2.78999 0
M  V30 1402 H 128.463 5.54335 -3.33648 0
M  V30 1403 N 128.595 0.856903 1.32268 0
M  V30 1404 C 129.543 0.291987 2.3076 0
M  V30 1405 C 130.537 -0.585857 1.58947 0
M  V30 1406 O 131.743 -0.47341 1.73663 0
M  V30 1407 H 128.118 0.075721 0.748178 0
M  V30 1408 H 130.089 1.13687 2.75895 0
M  V30 1409 C 128.838 -0.502869 3.44044 0
M  V30 1410 H 128.161 0.163328 3.99466 0
M  V30 1411 H 129.601 -0.863691 4.1511 0
M  V30 1412 C 128.06 -1.68898 2.91505 0
M  V30 1413 O 128.59 -2.78811 2.89184 0
M  V30 1414 N 126.796 -1.51679 2.47875 0
M  V30 1415 H 126.343 -0.622666 2.49961 0
M  V30 1416 H 126.301 -2.31184 2.13076 0
M  V30 1417 N 130.073 -1.45103 0.615059 0
M  V30 1418 C 131.301 -2.06553 0.11977 0
M  V30 1419 C 131.716 -1.45842 -1.19898 0
M  V30 1420 O 131.073 -0.575325 -1.73194 0
M  V30 1421 C 131.124 -3.61495 -0.018364 0
M  V30 1422 O 130.845 -4.19942 1.24822 0
M  V30 1423 C 132.346 -4.39947 -0.544237 0
M  V30 1424 H 129.566 -0.667096 0.0722739 0
M  V30 1425 H 132.11 -1.8623 0.84491 0
M  V30 1426 H 130.265 -3.81135 -0.693865 0
M  V30 1427 H 130.679 -5.13204 1.0827 0
M  V30 1428 H 132.153 -5.48838 -0.589953 0
M  V30 1429 H 132.63 -4.10255 -1.56805 0
M  V30 1430 H 133.236 -4.25188 0.0974703 0
M  V30 1431 N 131.551 -0.354651 -1.53558 0
M  V30 1432 C 132.799 0.237972 -2.00694 0
M  V30 1433 C 133.12 1.50173 -1.24391 0
M  V30 1434 O 132.39 1.92673 -0.354135 0
M  V30 1435 H 130.97 0.0909256 -0.741446 0
M  V30 1436 H 133.632 -0.478368 -1.88938 0
M  V30 1437 H 132.728 0.47264 -3.085 0
M  V30 1438 N 133.029 1.57378 -0.0835403 0
M  V30 1439 C 134.277 1.93547 0.581718 0
M  V30 1440 C 134.598 0.96524 1.69435 0
M  V30 1441 O 133.868 0.0153369 1.95894 0
M  V30 1442 H 132.448 0.714521 0.217874 0
M  V30 1443 H 135.11 1.94366 -0.144158 0
M  V30 1444 H 134.206 2.95665 0.999423 0
M  V30 1445 N 134.507 -0.190092 1.56449 0
M  V30 1446 C 135.923 -0.54113 1.50146 0
M  V30 1447 C 136.123 -1.85603 0.784465 0
M  V30 1448 O 135.179 -2.5024 0.337051 0
M  V30 1449 C 136.492 -0.591241 2.9483 0
M  V30 1450 C 138.04 -0.679732 3.0553 0
M  V30 1451 C 138.515 -0.760908 4.51635 0
M  V30 1452 N 140.006 -0.824302 4.55806 0
M  V30 1453 C 140.741 -0.907365 5.66175 0
M  V30 1454 N 140.237 -0.952422 6.86222 0
M  V30 1455 N 142.03 -0.94494 5.541 0
M  V30 1456 H 134.181 0.67235 2.01478 0
M  V30 1457 H 136.444 0.240127 0.917084 0
M  V30 1458 H 136.15 0.305905 3.50367 0
M  V30 1459 H 136.024 -1.44422 3.48457 0
M  V30 1460 H 138.411 -1.56731 2.50039 0
M  V30 1461 H 138.492 0.199549 2.5502 0
M  V30 1462 H 138.136 0.122336 5.07753 0
M  V30 1463 H 138.066 -1.65606 4.99882 0
M  V30 1464 H 140.557 -0.798526 3.69367 0
M  V30 1465 H 140.87 -1.01645 7.66086 0
M  V30 1466 H 139.215 -0.921014 6.8887 0
M  V30 1467 H 142.406 -0.906612 4.59236 0
M  V30 1468 H 142.579 -1.00622 6.4014 0
M  V30 1469 N 135.985 -1.50799 -0.457987 0
M  V30 1470 C 136.932 -1.70617 -1.5543 0
M  V30 1471 C 137.902 -0.547562 -1.56815 0
M  V30 1472 O 139.087 -0.779647 -1.74144 0
M  V30 1473 C 136.227 -1.81831 -2.93311 0
M  V30 1474 C 135.34 -3.09278 -3.01615 0
M  V30 1475 C 134.475 -3.11209 -4.30491 0
M  V30 1476 C 133.514 -4.33055 -4.32585 0
M  V30 1477 N 132.651 -4.32652 -5.52952 0
M  V30 1478 H 137.491 -2.64207 -1.37836 0
M  V30 1479 H 135.028 -1.30959 -0.669937 0
M  V30 1480 H 136.986 -1.86314 -3.73287 0
M  V30 1481 H 135.616 -0.916685 -3.0951 0
M  V30 1482 H 134.668 -3.14203 -2.1443 0
M  V30 1483 H 135.98 -3.99233 -2.99022 0
M  V30 1484 H 135.134 -3.14494 -5.18824 0
M  V30 1485 H 133.873 -2.19106 -4.35711 0
M  V30 1486 H 132.878 -4.29969 -3.42647 0
M  V30 1487 H 134.103 -5.264 -4.29046 0
M  V30 1488 H 132.049 -3.43409 -5.58933 0
M  V30 1489 H 131.966 -5.16392 -5.52155 0
M  V30 1490 H 133.234 -4.40101 -6.43375 0
M  V30 1491 N 137.463 0.71206 -1.40597 0
M  V30 1492 C 138.709 1.47416 -1.39271 0
M  V30 1493 C 139.042 1.942 0.00388791 0
M  V30 1494 O 138.317 1.68403 0.973179 0
M  V30 1495 C 138.6 2.69774 -2.38525 0
M  V30 1496 C 138.453 2.28861 -3.87224 0
M  V30 1497 C 139.772 3.71939 -2.35264 0
M  V30 1498 H 136.891 0.534713 -0.5072 0
M  V30 1499 H 139.533 0.812375 -1.71757 0
M  V30 1500 H 137.683 3.26238 -2.10953 0
M  V30 1501 H 139.355 1.77852 -4.25636 0
M  V30 1502 H 137.598 1.60824 -4.02887 0
M  V30 1503 H 138.269 3.16584 -4.52193 0
M  V30 1504 H 140.745 3.25113 -2.59694 0
M  V30 1505 H 139.621 4.55186 -3.06753 0
M  V30 1506 H 139.882 4.20484 -1.36549 0
M  V30 1507 N 138.941 1.26152 0.944643 0
M  V30 1508 C 140.166 1.14363 1.7302 0
M  V30 1509 C 140.591 -0.29772 1.85729 0
M  V30 1510 O 139.949 -1.2157 1.34501 0
M  V30 1511 C 139.997 1.81378 3.11664 0
M  V30 1512 O 139.101 1.10022 3.97453 0
M  V30 1513 H 138.442 0.398694 0.53098 0
M  V30 1514 H 140.972 1.66906 1.18337 0
M  V30 1515 H 140.982 1.88064 3.62072 0
M  V30 1516 H 139.657 2.86237 3.0173 0
M  V30 1517 H 138.234 1.11287 3.55907 0
M  V30 1518 N 140.419 -1.14872 1.07899 0
M  V30 1519 C 141.667 -1.85422 0.803941 0
M  V30 1520 C 141.988 -1.83051 -0.67211 0
M  V30 1521 O 141.258 -1.27532 -1.48703 0
M  V30 1522 H 139.838 -0.686537 0.294408 0
M  V30 1523 H 142.5 -1.39226 1.3639 0
M  V30 1524 H 141.596 -2.90399 1.14346 0
M  V30 1525 N 141.898 -0.863906 -1.31812 0
M  V30 1526 C 143.126 -0.486111 -2.01108 0
M  V30 1527 C 143.541 0.919755 -1.64882 0
M  V30 1528 O 142.898 1.60162 -0.874893 0
M  V30 1529 C 142.949 -0.626435 -3.56031 0
M  V30 1530 O 142.67 -1.97693 -3.90959 0
M  V30 1531 C 144.171 -0.248857 -4.42601 0
M  V30 1532 H 141.391 -0.190052 -0.643523 0
M  V30 1533 H 143.935 -1.1634 -1.68182 0
M  V30 1534 H 142.09 0.00322717 -3.874 0
M  V30 1535 H 142.504 -1.98034 -4.85678 0
M  V30 1536 H 143.978 -0.398016 -5.50563 0
M  V30 1537 H 144.455 0.811489 -4.31638 0
M  V30 1538 H 145.061 -0.853971 -4.16638 0
M  V30 1539 N 143.376 1.44774 -0.622745 0
M  V30 1540 C 144.309 2.27792 0.136329 0
M  V30 1541 C 145.287 1.38041 0.859264 0
M  V30 1542 O 146.471 1.67478 0.86506 0
M  V30 1543 C 143.598 3.16776 1.19878 0
M  V30 1544 C 142.644 4.22575 0.57731 0
M  V30 1545 S 143.477 5.31825 -0.626294 0
M  V30 1546 C 144.633 6.24377 0.436378 0
M  V30 1547 H 144.866 2.91824 -0.567967 0
M  V30 1548 H 142.399 1.48838 -0.410677 0
M  V30 1549 H 144.357 3.68596 1.80686 0
M  V30 1550 H 143.018 2.5198 1.87523 0
M  V30 1551 H 142.211 4.84818 1.37721 0
M  V30 1552 H 141.813 3.73974 0.0440439 0
M  V30 1553 H 144.105 6.64689 1.31128 0
M  V30 1554 H 145.048 7.07941 -0.150271 0
M  V30 1555 H 145.456 5.59381 0.758513 0
M  V30 1556 N 144.854 0.36279 1.53368 0
M  V30 1557 C 146.084 -0.228281 2.05335 0
M  V30 1558 C 146.492 -1.43226 1.23625 0
M  V30 1559 O 145.835 -1.81717 0.269206 0
M  V30 1560 C 145.897 -0.688549 3.52845 0
M  V30 1561 C 145.561 0.398362 4.5526 0
M  V30 1562 C 146.558 1.24732 5.04716 0
M  V30 1563 C 144.243 0.557805 4.99193 0
M  V30 1564 C 146.237 2.2411 5.96702 0
M  V30 1565 C 143.924 1.55495 5.90986 0
M  V30 1566 C 144.922 2.39503 6.39631 0
M  V30 1567 O 144.61 3.37517 7.29615 0
M  V30 1568 H 144.342 -0.044395 0.674541 0
M  V30 1569 H 146.896 0.518668 1.98744 0
M  V30 1570 H 145.126 -1.48706 3.56964 0
M  V30 1571 H 146.815 -1.20231 3.87685 0
M  V30 1572 H 147.581 1.13532 4.71525 0
M  V30 1573 H 143.46 -0.0862959 4.60919 0
M  V30 1574 H 147.004 2.89718 6.34594 0
M  V30 1575 H 142.901 1.66744 6.23592 0
M  V30 1576 H 143.669 3.33213 7.47604 0
M  V30 1577 N 146.332 -1.57332 0.0918853 0
M  V30 1578 C 147.28 -2.15075 -0.885747 0
M  V30 1579 C 148.274 -1.09277 -1.29441 0
M  V30 1580 O 149.48 -1.27627 -1.26931 0
M  V30 1581 H 145.855 -0.687966 -0.303656 0
M  V30 1582 H 147.826 -2.96047 -0.373995 0
M  V30 1583 C 146.575 -2.74325 -2.13638 0
M  V30 1584 H 145.898 -3.55418 -1.8308 0
M  V30 1585 H 147.338 -3.183 -2.80109 0
M  V30 1586 C 145.797 -1.70062 -2.90827 0
M  V30 1587 O 146.327 -1.13763 -3.85254 0
M  V30 1588 N 144.533 -1.40628 -2.54307 0
M  V30 1589 H 144.08 -1.866 -1.7759 0
M  V30 1590 H 144.038 -0.711043 -3.06254 0
M  V30 1591 N 147.81 0.181792 -1.56548 0
M  V30 1592 C 149.038 0.915947 -1.85521 0
M  V30 1593 C 149.453 1.76282 -0.676016 0
M  V30 1594 O 148.81 1.79012 0.355077 0
M  V30 1595 C 148.861 1.80126 -3.13427 0
M  V30 1596 O 148.582 0.988562 -4.26801 0
M  V30 1597 C 150.083 2.64597 -3.55673 0
M  V30 1598 H 147.303 0.26661 -0.61576 0
M  V30 1599 H 149.847 0.185039 -2.03661 0
M  V30 1600 H 148.002 2.48563 -2.97145 0
M  V30 1601 H 148.416 1.59308 -4.99721 0
M  V30 1602 H 149.89 3.2235 -4.48101 0
M  V30 1603 H 150.367 3.38958 -2.79292 0
M  V30 1604 H 150.973 2.0151 -3.74532 0
M  V30 1605 N 149.288 1.51039 0.449983 0
M  V30 1606 C 150.536 1.62759 1.19808 0
M  V30 1607 C 150.857 0.339981 1.92013 0
M  V30 1608 O 150.127 -0.643606 1.85026 0
M  V30 1609 H 148.707 0.599811 0.445237 0
M  V30 1610 H 151.369 1.87914 0.517138 0
M  V30 1611 H 150.465 2.44911 1.93455 0
M  V30 1612 N 150.766 -0.704594 1.40972 0
M  V30 1613 C 152.182 -1.01406 1.23244 0
M  V30 1614 C 152.382 -2.01169 0.115399 0
M  V30 1615 O 151.438 -2.47021 -0.523147 0
M  V30 1616 C 152.751 -1.54728 2.57836 0
M  V30 1617 C 154.299 -1.66658 2.64942 0
M  V30 1618 C 154.774 -2.23383 3.9983 0
M  V30 1619 N 156.265 -2.30756 4.01629 0
M  V30 1620 C 157 -2.75655 5.02794 0
M  V30 1621 N 156.496 -3.20225 6.14352 0
M  V30 1622 N 158.289 -2.75138 4.90159 0
M  V30 1623 H 150.44 -0.0435285 2.12355 0
M  V30 1624 H 152.703 -0.0818951 0.944456 0
M  V30 1625 H 152.409 -0.888832 3.40283 0
M  V30 1626 H 152.283 -2.53084 2.79693 0
M  V30 1627 H 154.67 -2.31617 1.8286 0
M  V30 1628 H 154.751 -0.668717 2.46904 0
M  V30 1629 H 154.395 -1.59043 4.82357 0
M  V30 1630 H 154.325 -3.23904 4.15203 0
M  V30 1631 H 156.816 -1.99291 3.21079 0
M  V30 1632 H 157.129 -3.53084 6.87424 0
M  V30 1633 H 155.474 -3.18156 6.17901 0
M  V30 1634 H 158.665 -2.39661 4.02095 0
M  V30 1635 H 158.838 -3.09812 5.6914 0
M  V30 1636 N 152.244 -1.26651 -0.937939 0
M  V30 1637 C 153.194 -1.05156 -2.02302 0
M  V30 1638 C 154.178 0.0171233 -1.60891 0
M  V30 1639 O 155.37 -0.200213 -1.75864 0
M  V30 1640 C 152.499 -0.689962 -3.36295 0
M  V30 1641 C 151.585 -1.79626 -3.84181 0
M  V30 1642 N 151.976 -3.03422 -4.04684 0
M  V30 1643 C 150.274 -1.6806 -4.13124 0
M  V30 1644 C 150.975 -3.75345 -4.444 0
M  V30 1645 N 149.951 -3.03051 -4.51288 0
M  V30 1646 H 153.753 -1.99117 -2.1617 0
M  V30 1647 H 151.267 -1.17216 -1.12402 0
M  V30 1648 H 153.264 -0.517112 -4.13681 0
M  V30 1649 H 151.924 0.242139 -3.23796 0
M  V30 1650 H 152.935 -3.39293 -3.91281 0
M  V30 1651 H 149.612 -0.818629 -4.09396 0
M  V30 1652 H 151.002 -4.81691 -4.68427 0
M  V30 1653 N 153.722 1.14298 -1.08507 0
M  V30 1654 C 154.968 1.85633 -0.816581 0
M  V30 1655 C 155.301 1.82784 0.656021 0
M  V30 1656 O 154.576 1.25926 1.48233 0
M  V30 1657 C 154.859 3.34223 -1.34041 0
M  V30 1658 C 154.712 3.45639 -2.87843 0
M  V30 1659 C 156.031 4.29356 -0.9665 0
M  V30 1660 H 153.15 0.67402 -0.298104 0
M  V30 1661 H 155.792 1.34214 -1.34487 0
M  V30 1662 H 153.942 3.78144 -0.89104 0
M  V30 1663 H 155.614 3.10498 -3.41158 0
M  V30 1664 H 153.857 2.86817 -3.25451 0
M  V30 1665 H 154.528 4.50089 -3.19569 0
M  V30 1666 H 157.004 3.93457 -1.35391 0
M  V30 1667 H 155.88 5.3178 -1.3602 0
M  V30 1668 H 156.141 4.41919 0.126362 0
M  V30 1669 N 155.201 0.870884 1.31352 0
M  V30 1670 C 156.426 0.495957 2.01383 0
M  V30 1671 C 156.851 -0.904324 1.64935 0
M  V30 1672 O 156.209 -1.59687 0.858466 0
M  V30 1673 C 156.257 0.661433 3.54482 0
M  V30 1674 O 155.361 -0.298851 4.11316 0
M  V30 1675 H 154.702 0.197158 0.634054 0
M  V30 1676 H 157.232 1.17455 1.67527 0
M  V30 1677 H 157.242 0.555072 4.04207 0
M  V30 1678 H 155.917 1.68246 3.8035 0
M  V30 1679 H 154.494 -0.147368 3.72609 0
M  V30 1680 N 156.679 -1.44442 0.630414 0
M  V30 1681 C 157.609 -2.33418 -0.0618083 0
M  V30 1682 C 158.59 -1.48165 -0.835541 0
M  V30 1683 O 159.775 -1.76886 -0.801564 0
M  V30 1684 C 156.905 -3.31222 -1.04449 0
M  V30 1685 C 155.859 -4.26288 -0.382436 0
M  V30 1686 C 155.185 -5.13954 -1.47497 0
M  V30 1687 C 156.485 -5.1744 0.710865 0
M  V30 1688 H 158.179 -2.91548 0.681184 0
M  V30 1689 H 155.725 -1.40191 0.329026 0
M  V30 1690 H 157.678 -3.92351 -1.53748 0
M  V30 1691 H 156.402 -2.71299 -1.81836 0
M  V30 1692 H 155.061 -3.6649 0.0899054 0
M  V30 1693 H 154.709 -4.50385 -2.2397 0
M  V30 1694 H 154.409 -5.7837 -1.03737 0
M  V30 1695 H 155.933 -5.77955 -1.96979 0
M  V30 1696 H 157.347 -5.72509 0.300996 0
M  V30 1697 H 155.744 -5.90455 1.07156 0
M  V30 1698 H 156.814 -4.58496 1.57829 0
M  V30 1699 N 158.157 -0.370918 -1.53173 0
M  V30 1700 C 159.573 -0.0200818 -1.59587 0
M  V30 1701 C 159.773 1.46279 -1.38581 0
M  V30 1702 O 158.829 2.22506 -1.19363 0
M  V30 1703 C 160.142 -0.4808 -2.96831 0
M  V30 1704 C 161.69 -0.435477 -3.09956 0
M  V30 1705 C 162.165 -0.872092 -4.4962 0
M  V30 1706 N 163.656 -0.827364 -4.55751 0
M  V30 1707 C 164.391 -1.13683 -5.62018 0
M  V30 1708 N 163.887 -1.51584 -6.76014 0
M  V30 1709 N 165.68 -1.05927 -5.52029 0
M  V30 1710 H 157.831 -1.33652 -1.65079 0
M  V30 1711 H 160.094 -0.546634 -0.774529 0
M  V30 1712 H 159.8 -1.51577 -3.1736 0
M  V30 1713 H 159.674 0.129796 -3.76977 0
M  V30 1714 H 162.061 0.590371 -2.89134 0
M  V30 1715 H 162.142 -1.08164 -2.31806 0
M  V30 1716 H 161.786 -1.89608 -4.71181 0
M  V30 1717 H 161.716 -0.203127 -5.26208 0
M  V30 1718 H 164.207 -0.548216 -3.73902 0
M  V30 1719 H 164.52 -1.73609 -7.53047 0
M  V30 1720 H 162.865 -1.55454 -6.77391 0
M  V30 1721 H 166.056 -0.762321 -4.61851 0
M  V30 1722 H 166.229 -1.30378 -6.34749 0
M  V30 1723 N 159.635 1.57281 -0.100228 0
M  V30 1724 C 160.565 2.17328 0.853857 0
M  V30 1725 C 161.546 1.10804 1.2906 0
M  V30 1726 O 162.731 1.38963 1.35657 0
M  V30 1727 C 159.861 2.75772 2.11109 0
M  V30 1728 C 158.815 3.87713 1.81279 0
M  V30 1729 C 158.141 4.32882 3.13874 0
M  V30 1730 C 159.441 5.10677 1.09574 0
M  V30 1731 H 161.135 2.97305 0.353545 0
M  V30 1732 H 158.681 1.43009 0.168612 0
M  V30 1733 H 160.634 3.16433 2.78296 0
M  V30 1734 H 159.358 1.93057 2.63432 0
M  V30 1735 H 158.017 3.476 1.16489 0
M  V30 1736 H 157.665 3.47051 3.64095 0
M  V30 1737 H 157.365 5.08358 2.94696 0
M  V30 1738 H 158.889 4.7618 3.82211 0
M  V30 1739 H 160.303 5.48474 1.66879 0
M  V30 1740 H 158.7 5.91615 1.00557 0
M  V30 1741 H 159.77 4.84835 0.0793299 0
M  V30 1742 N 161.113 -0.173488 1.56642 0
M  V30 1743 C 162.39 -0.917617 1.7274 0
M  V30 1744 C 162.77 -2.00484 0.661027 0
M  V30 1745 O 162.118 -2.26184 -0.32453 0
M  V30 1746 C 162.328 -1.48433 3.15862 0
M  V30 1747 C 163.676 -1.95809 3.76754 0
M  V30 1748 O 164.7 -1.58231 3.19126 0
M  V30 1749 O 163.559 -2.65024 4.77938 0
M  V30 1750 H 160.653 -0.431772 0.705338 0
M  V30 1751 H 163.199 -0.161487 1.6893 0
M  V30 1752 H 161.971 -0.701715 3.84957 0
M  V30 1753 H 161.594 -2.30471 3.23989 0
M  V30 1754 N 162.591 -1.51276 -0.441967 0
M  V30 1755 C 163.538 -1.72256 -1.53612 0
M  V30 1756 C 164.508 -0.564164 -1.56225 0
M  V30 1757 O 165.693 -0.798074 -1.73307 0
M  V30 1758 C 162.833 -1.84932 -2.91366 0
M  V30 1759 C 161.946 -3.12459 -2.98317 0
M  V30 1760 C 161.081 -3.15758 -4.27166 0
M  V30 1761 C 160.12 -4.37619 -4.27967 0
M  V30 1762 N 159.257 -4.38493 -5.48333 0
M  V30 1763 H 164.097 -2.65654 -1.35026 0
M  V30 1764 H 161.634 -1.31662 -0.656009 0
M  V30 1765 H 163.592 -1.90263 -3.7129 0
M  V30 1766 H 162.222 -0.949461 -3.08521 0
M  V30 1767 H 161.274 -3.1646 -2.11086 0
M  V30 1768 H 162.586 -4.02382 -2.94771 0
M  V30 1769 H 161.74 -3.19979 -5.15459 0
M  V30 1770 H 160.479 -2.23715 -4.33362 0
M  V30 1771 H 159.484 -4.33579 -3.38067 0
M  V30 1772 H 160.709 -5.30921 -4.23438 0
M  V30 1773 H 158.655 -3.49318 -5.55259 0
M  V30 1774 H 158.572 -5.22219 -5.46647 0
M  V30 1775 H 159.84 -4.469 -6.38671 0
M  V30 1776 N 164.069 0.697108 -1.41344 0
M  V30 1777 C 164.979 1.84088 -1.45427 0
M  V30 1778 C 165.995 1.70545 -0.34501 0
M  V30 1779 O 167.171 1.92488 -0.592492 0
M  V30 1780 C 164.236 3.20056 -1.33286 0
M  V30 1781 C 163.297 3.45718 -2.54514 0
M  V30 1782 C 162.53 4.75199 -2.42944 0
M  V30 1783 O 162.753 5.51579 -1.45318 0
M  V30 1784 O 161.687 5.0161 -3.32672 0
M  V30 1785 H 165.513 1.836 -2.41919 0
M  V30 1786 H 163.098 0.849966 -1.22866 0
M  V30 1787 H 164.98 4.01236 -1.28794 0
M  V30 1788 H 163.655 3.2123 -0.39909 0
M  V30 1789 H 162.562 2.64474 -2.64583 0
M  V30 1790 H 163.895 3.49356 -3.46715 0
M  V30 1791 N 165.547 1.27147 0.931209 0
M  V30 1792 C 166.497 1.06227 2.01742 0
M  V30 1793 C 167.481 -0.00859065 1.60898 0
M  V30 1794 O 168.673 0.209537 1.75755 0
M  V30 1795 C 165.802 0.707787 3.35924 0
M  V30 1796 C 164.888 1.81661 3.83223 0
M  V30 1797 N 165.279 3.05564 4.03069 0
M  V30 1798 C 163.577 1.70249 4.12227 0
M  V30 1799 C 164.278 3.77697 4.42403 0
M  V30 1800 N 163.254 3.0544 4.49675 0
M  V30 1801 H 167.056 2.00261 2.15111 0
M  V30 1802 H 164.57 1.1781 1.11779 0
M  V30 1803 H 166.567 0.539043 4.134 0
M  V30 1804 H 165.227 -0.224964 3.2392 0
M  V30 1805 H 166.238 3.41363 3.89476 0
M  V30 1806 H 162.915 0.840329 4.08956 0
M  V30 1807 H 164.305 4.84168 4.65866 0
M  V30 1808 N 167.025 -1.13721 1.09112 0
M  V30 1809 C 167.955 -2.21148 0.749385 0
M  V30 1810 C 168.936 -1.6792 -0.271475 0
M  V30 1811 O 170.121 -1.93693 -0.140251 0
M  V30 1812 C 167.251 -3.46905 0.165659 0
M  V30 1813 C 166.205 -4.13203 1.11567 0
M  V30 1814 C 165.531 -5.33248 0.393809 0
M  V30 1815 C 166.831 -4.60912 2.45678 0
M  V30 1816 H 168.525 -2.4999 1.64758 0
M  V30 1817 H 166.071 -1.20156 0.793626 0
M  V30 1818 H 168.024 -4.21313 -0.085466 0
M  V30 1819 H 166.748 -3.17449 -0.767714 0
M  V30 1820 H 165.407 -3.40758 1.35202 0
M  V30 1821 H 165.055 -5.00054 -0.543599 0
M  V30 1822 H 164.755 -5.78552 1.02721 0
M  V30 1823 H 166.279 -6.10413 0.150908 0
M  V30 1824 H 167.693 -5.26759 2.26269 0
M  V30 1825 H 166.09 -5.16944 3.04776 0
M  V30 1826 H 167.16 -3.75603 3.06677 0
M  V30 1827 N 168.503 -0.877838 -1.30888 0
M  V30 1828 C 169.749 -0.493426 -1.96706 0
M  V30 1829 C 170.082 0.953504 -1.6918 0
M  V30 1830 O 169.357 1.67266 -0.992594 0
M  V30 1831 C 169.64 -0.760429 -3.51979 0
M  V30 1832 C 169.493 -2.25747 -3.89048 0
M  V30 1833 C 170.812 -0.232148 -4.39487 0
M  V30 1834 H 167.931 -0.180746 -0.714493 0
M  V30 1835 H 170.573 -1.10052 -1.54882 0
M  V30 1836 H 168.723 -0.243715 -3.87735 0
M  V30 1837 H 170.395 -2.84204 -3.63354 0
M  V30 1838 H 168.638 -2.72694 -3.37373 0
M  V30 1839 H 169.309 -2.39491 -4.97341 0
M  V30 1840 H 171.785 -0.674314 -4.106 0
M  V30 1841 H 170.661 -0.448355 -5.47066 0
M  V30 1842 H 170.922 0.866297 -4.33529 0
M  V30 1843 N 169.982 1.44106 -0.638065 0
M  V30 1844 C 170.93 2.3248 0.0748149 0
M  V30 1845 C 171.924 1.47746 0.828702 0
M  V30 1846 O 173.13 1.64049 0.740816 0
M  V30 1847 H 169.505 0.750771 0.0429686 0
M  V30 1848 H 171.476 2.90348 -0.688504 0
M  V30 1849 C 170.225 3.31843 1.03805 0
M  V30 1850 H 169.548 3.97059 0.467375 0
M  V30 1851 H 170.988 3.96345 1.50622 0
M  V30 1852 C 169.447 2.61291 2.1267 0
M  V30 1853 O 169.977 2.41702 3.20847 0
M  V30 1854 N 168.183 2.20915 1.88798 0
M  V30 1855 H 167.73 2.37047 1.00829 0
M  V30 1856 H 167.688 1.74038 2.61836 0
M  V30 1857 N 171.46 0.379036 1.52974 0
M  V30 1858 C 172.709 -0.207612 2.00629 0
M  V30 1859 C 173.022 -1.48758 1.27006 0
M  V30 1860 O 174.228 -2.15365 1.65318 0
M  V30 1861 C 172.684 -0.42053 3.57435 0
M  V30 1862 C 172.292 0.845587 4.39948 0
M  V30 1863 C 174.036 -0.964102 4.13407 0
M  V30 1864 C 171.943 0.601513 5.88333 0
M  V30 1865 H 170.873 -0.0813591 0.749598 0
M  V30 1866 H 173.524 0.499853 1.76561 0
M  V30 1867 H 171.906 -1.18959 3.7771 0
M  V30 1868 H 173.08 1.61848 4.31442 0
M  V30 1869 H 171.395 1.31336 3.95145 0
M  V30 1870 H 173.992 -1.16225 5.21916 0
M  V30 1871 H 174.335 -1.93019 3.68849 0
M  V30 1872 H 174.868 -0.25487 3.96983 0
M  V30 1873 H 171.607 1.53831 6.37194 0
M  V30 1874 H 171.127 -0.132628 5.99653 0
M  V30 1875 H 172.806 0.232134 6.46583 0
M  V30 1876 N 172.938 -1.57226 0.108567 0
M  V30 1877 C 174.163 -1.99604 -0.563303 0
M  V30 1878 C 174.588 -0.987563 -1.6009 0
M  V30 1879 O 173.946 0.0421687 -1.81251 0
M  V30 1880 C 173.994 -3.40902 -1.17552 0
M  V30 1881 O 173.098 -3.42896 -2.2912 0
M  V30 1882 H 172.439 -0.648704 -0.1417 0
M  V30 1883 H 174.969 -2.03679 0.193961 0
M  V30 1884 H 174.979 -3.78886 -1.51357 0
M  V30 1885 H 173.654 -4.1382 -0.415445 0
M  V30 1886 H 172.231 -3.1672 -1.96832 0
M  V30 1887 N 174.416 0.165178 -1.56732 0
M  V30 1888 C 175.664 0.879068 -1.8198 0
M  V30 1889 C 175.985 1.82514 -0.686561 0
M  V30 1890 O 175.255 1.93694 0.293146 0
M  V30 1891 H 173.835 0.327608 -0.671329 0
M  V30 1892 H 176.497 0.163526 -1.94213 0
M  V30 1893 H 175.593 1.45228 -2.76252 0
M  V30 1894 N 175.894 1.51508 0.433938 0
M  V30 1895 C 177.142 1.6402 1.18075 0
M  V30 1896 C 177.463 0.360328 1.91642 0
M  V30 1897 O 176.733 -0.623945 1.85698 0
M  V30 1898 H 175.313 0.6045 0.43885 0
M  V30 1899 H 177.975 1.88452 0.497178 0
M  V30 1900 H 177.071 2.46949 1.90847 0
M  V30 1901 N 177.372 -0.689602 1.41712 0
M  V30 1902 C 178.783 -1.26973 1.36875 0
M  V30 1903 C 179.134 -1.96124 0.054748 0
M  V30 1904 O 178.259 -1.99141 -0.84687 0
M  V30 1905 C 178.854 -2.30912 2.47922 0
M  V30 1906 C 177.413 -2.84486 2.46464 0
M  V30 1907 C 176.56 -1.58603 2.27465 0
M  V30 1908 H 179.511 -0.48396 1.51141 0
M  V30 1909 H 179.532 -3.12331 2.17323 0
M  V30 1910 H 179.044 -1.80554 3.43543 0
M  V30 1911 H 177.145 -3.39005 1.54617 0
M  V30 1912 H 177.258 -3.34511 3.42986 0
M  V30 1913 H 175.622 -1.84632 1.75451 0
M  V30 1914 H 176.405 -1.10233 3.25121 0
M  V30 1915 N 178.85 -1.27639 -0.924453 0
M  V30 1916 C 179.783 -1.04966 -2.02626 0
M  V30 1917 C 180.761 0.0309505 -1.62571 0
M  V30 1918 O 181.945 -0.114846 -1.8815 0
M  V30 1919 C 179.072 -0.59292 -3.3347 0
M  V30 1920 C 178.118 -1.66858 -3.92506 0
M  V30 1921 S 178.951 -3.2619 -4.24689 0
M  V30 1922 C 180.107 -2.82325 -5.58609 0
M  V30 1923 H 180.34 -1.98252 -2.21547 0
M  V30 1924 H 177.873 -1.11506 -1.06798 0
M  V30 1925 H 179.831 -0.336086 -4.09122 0
M  V30 1926 H 178.492 0.319939 -3.12466 0
M  V30 1927 H 177.685 -1.30038 -4.86935 0
M  V30 1928 H 177.287 -1.87766 -3.2345 0
M  V30 1929 H 179.579 -2.2783 -6.38044 0
M  V30 1930 H 180.522 -3.75511 -6.00331 0
M  V30 1931 H 180.93 -2.21367 -5.19285 0
M  V30 1932 N 180.328 1.1314 -1.09713 0
M  V30 1933 C 181.556 1.88321 -0.856898 0
M  V30 1934 C 181.971 1.79276 0.592073 0
M  V30 1935 O 181.328 1.16142 1.40774 0
M  V30 1936 C 181.379 3.37812 -1.28706 0
M  V30 1937 O 181.1 3.46627 -2.67921 0
M  V30 1938 C 182.601 4.29952 -1.07964 0
M  V30 1939 H 179.821 0.596094 -0.308079 0
M  V30 1940 H 182.365 1.43205 -1.45988 0
M  V30 1941 H 180.52 3.805 -0.727912 0
M  V30 1942 H 180.934 4.39579 -2.8613 0
M  V30 1943 H 182.408 5.33159 -1.42986 0
M  V30 1944 H 182.885 4.39196 -0.0176577 0
M  V30 1945 H 183.491 3.93036 -1.62489 0
M  V30 1946 N 181.806 0.884767 1.30421 0
M  V30 1947 C 183.036 0.517293 2.00019 0
M  V30 1948 C 183.444 -0.898632 1.66497 0
M  V30 1949 O 182.787 -1.60245 0.898181 0
M  V30 1950 C 182.849 0.612025 3.54252 0
M  V30 1951 C 182.513 1.99222 4.1129 0
M  V30 1952 C 183.51 2.9616 4.273 0
M  V30 1953 C 181.195 2.29755 4.46674 0
M  V30 1954 C 183.189 4.21764 4.77906 0
M  V30 1955 C 180.876 3.55606 4.96979 0
M  V30 1956 C 181.874 4.51425 5.12547 0
M  V30 1957 O 181.562 5.75043 5.61766 0
M  V30 1958 H 181.294 0.198529 0.64619 0
M  V30 1959 H 183.848 1.1919 1.67281 0
M  V30 1960 H 182.078 -0.119561 3.86515 0
M  V30 1961 H 183.767 0.255859 4.05093 0
M  V30 1962 H 184.533 2.73882 4.00267 0
M  V30 1963 H 180.412 1.55942 4.33824 0
M  V30 1964 H 183.956 4.96561 4.89972 0
M  V30 1965 H 179.853 3.7772 5.23448 0
M  V30 1966 H 180.621 5.77422 5.80109 0
M  V30 1967 N 183.284 -1.43765 0.645699 0
M  V30 1968 C 184.509 -2.06767 0.161883 0
M  V30 1969 C 184.934 -1.48034 -1.16049 0
M  V30 1970 O 184.292 -0.587369 -1.71522 0
M  V30 1971 C 184.34 -3.60519 0.0762003 0
M  V30 1972 O 183.444 -4.00982 -0.963721 0
M  V30 1973 H 182.785 -0.657675 0.091429 0
M  V30 1974 H 185.315 -1.84397 0.886499 0
M  V30 1975 H 185.325 -4.07853 -0.109604 0
M  V30 1976 H 184 -4.02646 1.04157 0
M  V30 1977 H 182.577 -3.65253 -0.751312 0
M  V30 1978 N 184.763 -0.387143 -1.52771 0
M  V30 1979 C 185.713 0.465942 -2.23188 0
M  V30 1980 C 186.697 1.03138 -1.23496 0
M  V30 1981 O 187.889 0.957845 -1.48843 0
M  V30 1982 C 185.018 1.59384 -3.04059 0
M  V30 1983 C 184.104 1.04024 -4.11144 0
M  V30 1984 N 184.495 0.211416 -5.05358 0
M  V30 1985 C 182.793 1.31295 -4.26237 0
M  V30 1986 C 183.494 -0.0941698 -5.81624 0
M  V30 1987 N 182.47 0.509207 -5.4121 0
M  V30 1988 H 186.272 -0.173856 -2.93385 0
M  V30 1989 H 183.786 -0.19633 -1.61209 0
M  V30 1990 H 185.783 2.21738 -3.53041 0
M  V30 1991 H 184.443 2.23648 -2.35397 0
M  V30 1992 H 185.454 -0.151151 -5.17679 0
M  V30 1993 H 182.131 1.95679 -3.68803 0
M  V30 1994 H 183.521 -0.765572 -6.67524 0
M  V30 1995 N 186.241 1.57166 -0.116904 0
M  V30 1996 C 187.657 1.5779 0.239693 0
M  V30 1997 C 187.857 1.1295 1.66867 0
M  V30 1998 O 186.913 0.81592 2.38954 0
M  V30 1999 C 188.226 3.00699 0.00828202 0
M  V30 2000 C 189.774 3.12912 0.0743438 0
M  V30 2001 C 190.249 4.57817 -0.129348 0
M  V30 2002 N 191.74 4.63139 -0.075247 0
M  V30 2003 C 192.475 5.73023 -0.207788 0
M  V30 2004 N 191.971 6.91665 -0.396382 0
M  V30 2005 N 193.764 5.61906 -0.14751 0
M  V30 2006 H 185.915 1.84615 -1.05029 0
M  V30 2007 H 188.178 0.85311 -0.41341 0
M  V30 2008 H 187.884 3.37784 -0.979531 0
M  V30 2009 H 187.758 3.69848 0.741077 0
M  V30 2010 H 190.145 2.75686 1.05268 0
M  V30 2011 H 190.226 2.4631 -0.690297 0
M  V30 2012 H 189.87 4.95742 -1.10465 0
M  V30 2013 H 189.8 5.22507 0.655253 0
M  V30 2014 H 192.291 3.7784 0.0670898 0
M  V30 2015 H 192.604 7.71255 -0.488437 0
M  V30 2016 H 190.949 6.93654 -0.432329 0
M  V30 2017 H 194.14 4.681 -0.00115036 0
M  V30 2018 H 194.313 6.47501 -0.254247 0
M  V30 2019 N 187.719 -0.156864 1.56817 0
M  V30 2020 C 188.649 -1.19589 2.00551 0
M  V30 2021 C 189.63 -1.4536 0.883426 0
M  V30 2022 O 190.815 -1.56449 1.15054 0
M  V30 2023 C 187.945 -2.53143 2.37773 0
M  V30 2024 C 186.899 -2.41913 3.53075 0
M  V30 2025 C 186.225 -3.80088 3.76081 0
M  V30 2026 C 187.525 -1.91157 4.86062 0
M  V30 2027 H 189.219 -0.832293 2.87599 0
M  V30 2028 H 186.765 -0.398918 1.38364 0
M  V30 2029 H 188.718 -3.26047 2.66967 0
M  V30 2030 H 187.442 -2.91319 1.4765 0
M  V30 2031 H 186.101 -1.71462 3.24031 0
M  V30 2032 H 185.749 -4.15683 2.83225 0
M  V30 2033 H 185.449 -3.73439 4.53671 0
M  V30 2034 H 186.973 -4.54556 4.0769 0
M  V30 2035 H 188.387 -2.53846 5.14038 0
M  V30 2036 H 186.784 -1.95422 5.67389 0
M  V30 2037 H 187.854 -0.866673 4.77092 0
M  V30 2038 N 189.197 -1.51736 -0.425897 0
M  V30 2039 C 190.107 -1.76738 -1.54275 0
M  V30 2040 C 191.123 -0.65211 -1.61318 0
M  V30 2041 O 192.299 -0.935654 -1.78346 0
M  V30 2042 C 189.364 -1.89755 -2.90162 0
M  V30 2043 C 188.425 -3.13633 -2.93143 0
M  V30 2044 C 187.658 -3.2602 -4.22548 0
M  V30 2045 O 187.881 -2.44067 -5.15546 0
M  V30 2046 O 186.815 -4.19071 -4.32046 0
M  V30 2047 H 190.641 -2.71502 -1.36089 0
M  V30 2048 H 188.226 -1.36376 -0.610069 0
M  V30 2049 H 190.108 -2.00236 -3.70788 0
M  V30 2050 H 188.783 -0.981785 -3.08452 0
M  V30 2051 H 187.69 -3.08622 -2.11431 0
M  V30 2052 H 189.023 -4.04936 -2.798 0
M  V30 2053 N 190.675 0.682077 -1.42076 0
M  V30 2054 C 191.585 1.82535 -1.47371 0
M  V30 2055 C 192.601 1.7017 -0.363079 0
M  V30 2056 O 193.777 1.91848 -0.612875 0
M  V30 2057 C 190.842 3.18624 -1.36674 0
M  V30 2058 C 189.903 3.42999 -2.58167 0
M  V30 2059 C 189.136 4.72595 -2.4797 0
M  V30 2060 O 189.359 5.50006 -1.5116 0
M  V30 2061 O 188.293 4.98054 -3.37974 0
M  V30 2062 H 192.119 1.81023 -2.43853 0
M  V30 2063 H 189.704 0.836887 -1.2376 0
M  V30 2064 H 191.586 3.99847 -1.33043 0
M  V30 2065 H 190.261 3.20789 -0.433138 0
M  V30 2066 H 189.168 2.61653 -2.67373 0
M  V30 2067 H 190.501 3.45659 -3.50401 0
M  V30 2068 N 192.153 1.28127 0.917671 0
M  V30 2069 C 193.402 1.14432 1.66097 0
M  V30 2070 C 193.715 -0.307247 1.93172 0
M  V30 2071 O 194.921 -0.565259 2.65551 0
M  V30 2072 C 193.377 2.00015 2.99202 0
M  V30 2073 C 192.985 3.49889 2.79789 0
M  V30 2074 C 194.729 1.94996 3.77064 0
M  V30 2075 C 192.636 4.27636 4.08511 0
M  V30 2076 H 191.566 0.424662 0.62304 0
M  V30 2077 H 194.217 1.52628 1.01868 0
M  V30 2078 H 192.599 1.54672 3.64544 0
M  V30 2079 H 193.773 4.03162 2.23152 0
M  V30 2080 H 192.088 3.56392 2.15345 0
M  V30 2081 H 194.685 2.50354 4.72469 0
M  V30 2082 H 195.028 0.925819 4.05875 0
M  V30 2083 H 195.561 2.38287 3.18534 0
M  V30 2084 H 192.3 5.30615 3.84874 0
M  V30 2085 H 191.82 3.79137 4.64774 0
M  V30 2086 H 193.499 4.37346 4.76799 0
M  V30 2087 N 193.631 -1.12557 1.10312 0
M  V30 2088 C 195.047 -1.36036 0.834649 0
M  V30 2089 C 195.247 -1.93946 -0.546539 0
M  V30 2090 O 194.303 -2.16484 -1.29966 0
M  V30 2091 C 195.616 -2.30312 1.9333 0
M  V30 2092 C 197.164 -2.43906 1.9616 0
M  V30 2093 C 197.639 -3.41496 3.05195 0
M  V30 2094 N 199.13 -3.49053 3.04494 0
M  V30 2095 C 199.865 -4.24471 3.85502 0
M  V30 2096 N 199.361 -5.02966 4.76442 0
M  V30 2097 N 201.154 -4.19864 3.73725 0
M  V30 2098 H 193.305 -0.733246 1.99342 0
M  V30 2099 H 195.568 -0.385234 0.866198 0
M  V30 2100 H 195.274 -1.94933 2.92735 0
M  V30 2101 H 195.148 -3.30421 1.81939 0
M  V30 2102 H 197.535 -2.78567 0.973886 0
M  V30 2103 H 197.616 -1.4369 2.11629 0
M  V30 2104 H 197.26 -3.07565 4.04186 0
M  V30 2105 H 197.19 -4.41539 2.86968 0
M  V30 2106 H 199.681 -2.93053 2.38596 0
M  V30 2107 H 199.994 -5.57846 5.34815 0
M  V30 2108 H 198.339 -5.02167 4.80472 0
M  V30 2109 H 201.53 -3.57623 3.02032 0
M  V30 2110 H 201.703 -4.78386 4.37093 0
M  V30 2111 N 195.109 -0.891671 -1.2995 0
M  V30 2112 C 196.039 -0.379797 -2.30391 0
M  V30 2113 C 197.02 0.540919 -1.6127 0
M  V30 2114 O 198.205 0.453352 -1.88834 0
M  V30 2115 C 195.335 0.400654 -3.44981 0
M  V30 2116 C 194.289 -0.428905 -4.25846 0
M  V30 2117 C 193.615 0.478557 -5.32554 0
M  V30 2118 C 194.915 -1.67458 -4.94727 0
M  V30 2119 H 196.609 -1.21914 -2.73454 0
M  V30 2120 H 194.155 -0.587675 -1.31462 0
M  V30 2121 H 196.108 0.769434 -4.14316 0
M  V30 2122 H 194.832 1.27371 -3.0074 0
M  V30 2123 H 193.491 -0.779911 -3.58208 0
M  V30 2124 H 193.139 1.34951 -4.84559 0
M  V30 2125 H 192.839 -0.0727433 -5.87555 0
M  V30 2126 H 194.363 0.843705 -6.04743 0
M  V30 2127 H 195.777 -1.376 -5.56542 0
M  V30 2128 H 194.174 -2.16659 -5.59624 0
M  V30 2129 H 195.244 -2.41518 -4.20473 0
M  V30 2130 N 196.587 1.43421 -0.653314 0
M  V30 2131 C 197.537 2.2792 0.060558 0
M  V30 2132 C 198.521 1.39906 0.794677 0
M  V30 2133 O 199.713 1.63536 0.677128 0
M  V30 2134 C 196.842 3.27603 1.0262 0
M  V30 2135 C 195.928 4.23104 0.290551 0
M  V30 2136 N 196.319 5.01031 -0.692967 0
M  V30 2137 C 194.617 4.42816 0.531984 0
M  V30 2138 C 195.318 5.70626 -1.12963 0
M  V30 2139 N 194.294 5.41617 -0.463867 0
M  V30 2140 H 198.096 2.85585 -0.694143 0
M  V30 2141 H 195.61 1.55126 -0.480602 0
M  V30 2142 H 197.607 3.86918 1.55242 0
M  V30 2143 H 196.267 2.71499 1.78096 0
M  V30 2144 H 197.278 5.0669 -1.07169 0
M  V30 2145 H 193.955 3.97782 1.26791 0
M  V30 2146 H 195.345 6.4318 -1.94343 0
M  V30 2147 N 198.065 0.39524 1.52563 0
M  V30 2148 C 199.312 -0.185044 2.01653 0
M  V30 2149 C 199.64 -1.46317 1.28146 0
M  V30 2150 O 198.895 -1.9213 0.372074 0
M  V30 2151 C 199.194 -0.493444 3.53977 0
M  V30 2152 C 198.86 0.69384 4.4553 0
M  V30 2153 C 197.522 1.01954 4.70275 0
M  V30 2154 C 199.874 1.48785 4.99512 0
M  V30 2155 C 197.202 2.14069 5.46252 0
M  V30 2156 C 199.554 2.59965 5.76716 0
M  V30 2157 C 198.218 2.93037 5.99738 0
M  V30 2158 H 197.488 -0.0677123 0.7379 0
M  V30 2159 H 200.135 0.533807 1.8391 0
M  V30 2160 H 198.44 -1.29369 3.69825 0
M  V30 2161 H 200.137 -0.955163 3.89458 0
M  V30 2162 H 196.727 0.429987 4.26438 0
M  V30 2163 H 200.911 1.24946 4.80315 0
M  V30 2164 H 196.167 2.40056 5.62302 0
M  V30 2165 H 200.341 3.21887 6.17545 0
M  V30 2166 H 197.968 3.8003 6.58393 0
M  V30 2167 N 199.544 -1.57102 0.125237 0
M  V30 2168 C 200.792 -1.95021 -0.530198 0
M  V30 2169 C 201.113 -1.00982 -1.66816 0
M  V30 2170 O 200.383 -0.0672693 -1.95784 0
M  V30 2171 H 198.963 -0.720046 -0.198853 0
M  V30 2172 H 201.625 -1.93916 0.19564 0
M  V30 2173 H 200.721 -2.98211 -0.920681 0
M  V30 2174 N 201.022 0.148545 -1.56898 0
M  V30 2175 C 202.247 0.880385 -1.87787 0
M  V30 2176 C 202.672 1.74018 -0.714093 0
M  V30 2177 O 202.03 1.78153 0.336343 0
M  V30 2178 C 202.078 1.71422 -3.17249 0
M  V30 2179 O 201.182 2.8183 -3.01074 0
M  V30 2180 H 200.523 0.245301 -0.617028 0
M  V30 2181 H 203.053 0.139826 -2.04122 0
M  V30 2182 H 203.063 2.10954 -3.49231 0
M  V30 2183 H 201.738 1.08284 -4.01556 0
M  V30 2184 H 200.315 2.45715 -2.80497 0
M  V30 2185 N 202.5 1.5196 0.417844 0
M  V30 2186 C 203.41 1.77554 1.53336 0
M  V30 2187 C 204.426 0.660655 1.6097 0
M  V30 2188 O 205.602 0.945099 1.77848 0
M  V30 2189 C 202.667 1.91291 2.89152 0
M  V30 2190 C 201.728 3.15183 2.91475 0
M  V30 2191 C 200.961 3.28256 4.20813 0
M  V30 2192 O 201.184 2.46798 5.14244 0
M  V30 2193 O 200.118 4.21356 4.29817 0
M  V30 2194 H 203.944 2.7222 1.34647 0
M  V30 2195 H 201.529 1.36698 0.602828 0
M  V30 2196 H 203.411 2.02199 3.69721 0
M  V30 2197 H 202.086 0.998129 3.07927 0
M  V30 2198 H 200.993 3.09739 2.09791 0
M  V30 2199 H 202.326 4.06414 2.77648 0
M  V30 2200 N 203.978 -0.674533 1.42435 0
M  V30 2201 C 205.255 -1.4305 1.33402 0
M  V30 2202 C 205.635 -2.11081 -0.0284674 0
M  V30 2203 O 204.983 -2.03257 -1.04397 0
M  V30 2204 C 205.193 -2.43272 2.50239 0
M  V30 2205 C 206.541 -3.07907 2.92367 0
M  V30 2206 O 207.565 -2.53599 2.50132 0
M  V30 2207 O 206.424 -4.0632 3.65467 0
M  V30 2208 H 203.518 -0.638076 0.526106 0
M  V30 2209 H 206.064 -0.703235 1.54443 0
M  V30 2210 H 204.836 -1.91803 3.41068 0
M  V30 2211 H 204.459 -3.23479 2.31186 0
M  V30 2212 N 205.456 -1.28612 -0.910864 0
M  V30 2213 C 206.681 -1.1891 -1.69927 0
M  V30 2214 C 207.106 0.248372 -1.86453 0
M  V30 2215 O 206.464 1.17961 -1.37676 0
M  V30 2216 C 206.512 -1.89578 -3.06745 0
M  V30 2217 O 205.616 -1.20521 -3.94396 0
M  V30 2218 H 204.957 -0.412632 -0.520222 0
M  V30 2219 H 207.487 -1.69985 -1.1387 0
M  V30 2220 H 207.497 -1.97597 -3.56958 0
M  V30 2221 H 206.172 -2.94136 -2.94035 0
M  V30 2222 H 204.749 -1.20684 -3.52831 0
M  V30 2223 N 206.934 1.1197 -1.10907 0
M  V30 2224 C 207.866 2.17592 -0.720175 0
M  V30 2225 C 208.879 1.60938 0.245495 0
M  V30 2226 O 210.068 1.78476 0.0292245 0
M  V30 2227 C 207.168 3.38873 -0.0427917 0
M  V30 2228 C 206.341 4.25006 -1.03388 0
M  V30 2229 C 205.4 5.24774 -0.387075 0
M  V30 2230 O 204.426 5.59631 -1.03934 0
M  V30 2231 N 205.628 5.74208 0.852407 0
M  V30 2232 H 208.393 2.51567 -1.62893 0
M  V30 2233 H 205.954 1.27439 -0.998543 0
M  V30 2234 H 207.946 4.02703 0.401501 0
M  V30 2235 H 206.516 3.03007 0.768456 0
M  V30 2236 H 205.736 3.57716 -1.65629 0
M  V30 2237 H 207.024 4.79397 -1.70458 0
M  V30 2238 H 206.422 5.48062 1.40161 0
M  V30 2239 H 204.979 6.39901 1.23977 0
M  V30 2240 N 208.412 0.89855 1.29475 0
M  V30 2241 C 209.66 0.522847 1.9522 0
M  V30 2242 C 209.981 -0.93371 1.71192 0
M  V30 2243 O 209.251 -1.65823 1.04305 0
M  V30 2244 H 207.831 0.190366 0.722336 0
M  V30 2245 H 210.493 1.14459 1.5775 0
M  V30 2246 H 209.589 0.704476 3.04045 0
M  V30 2247 N 209.89 -1.43072 0.660911 0
M  V30 2248 C 211.115 -2.06584 0.183805 0
M  V30 2249 C 211.54 -1.49257 -1.14472 0
M  V30 2250 O 210.898 -0.605528 -1.70889 0
M  V30 2251 C 210.946 -3.60418 0.114434 0
M  V30 2252 O 210.05 -4.01981 -0.921137 0
M  V30 2253 H 209.391 -0.656669 0.0983994 0
M  V30 2254 H 211.921 -1.83447 0.906006 0
M  V30 2255 H 211.931 -4.07946 -0.0663394 0
M  V30 2256 H 210.606 -4.01519 1.08422 0
M  V30 2257 H 209.183 -3.66029 -0.71253 0
M  V30 2258 N 211.368 -0.403325 -1.52352 0
M  V30 2259 C 212.278 0.432009 -2.30588 0
M  V30 2260 C 213.294 1.05884 -1.38075 0
M  V30 2261 O 214.47 1.06161 -1.71148 0
M  V30 2262 C 211.535 1.53669 -3.10784 0
M  V30 2263 C 210.596 0.933525 -4.19027 0
M  V30 2264 C 209.829 1.98557 -4.9539 0
M  V30 2265 O 210.052 3.20283 -4.71991 0
M  V30 2266 O 208.986 1.59504 -5.80381 0
M  V30 2267 H 212.812 -0.205739 -3.03002 0
M  V30 2268 H 210.397 -0.166675 -1.48467 0
M  V30 2269 H 212.279 2.17814 -3.60742 0
M  V30 2270 H 210.954 2.15915 -2.41169 0
M  V30 2271 H 209.861 0.254954 -3.7323 0
M  V30 2272 H 211.194 0.35508 -4.90918 0
M  V30 2273 N 212.846 1.57033 -0.133567 0
M  V30 2274 C 213.796 2.12641 0.822671 0
M  V30 2275 C 214.78 1.05081 1.21847 0
M  V30 2276 O 215.972 1.31287 1.18713 0
M  V30 2277 C 213.101 2.74094 2.06706 0
M  V30 2278 C 212.187 3.88757 1.69497 0
M  V30 2279 N 212.578 4.95194 1.03037 0
M  V30 2280 C 210.876 3.99213 1.98859 0
M  V30 2281 C 211.577 5.75414 0.852873 0
M  V30 2282 N 210.553 5.25726 1.3825 0
M  V30 2283 H 214.355 2.92308 0.305537 0
M  V30 2284 H 211.869 1.62256 0.0684276 0
M  V30 2285 H 213.866 3.12285 2.76195 0
M  V30 2286 H 212.526 1.95896 2.5895 0
M  V30 2287 H 213.537 5.13247 0.692669 0
M  V30 2288 H 210.214 3.32075 2.53047 0
M  V30 2289 H 211.604 6.71089 0.330091 0
M  V30 2290 N 214.325 -0.140222 1.56975 0
M  V30 2291 C 215.255 -1.17456 2.01808 0
M  V30 2292 C 216.236 -1.44415 0.898794 0
M  V30 2293 O 217.421 -1.5522 1.16707 0
M  V30 2294 C 214.551 -2.50607 2.40444 0
M  V30 2295 C 213.505 -2.38155 3.55621 0
M  V30 2296 C 212.831 -3.76078 3.80091 0
M  V30 2297 C 214.131 -1.85991 4.88062 0
M  V30 2298 H 215.825 -0.801743 2.88466 0
M  V30 2299 H 213.371 -0.38422 1.38779 0
M  V30 2300 H 215.324 -3.23197 2.7041 0
M  V30 2301 H 214.048 -2.89737 1.50732 0
M  V30 2302 H 212.707 -1.68016 3.25832 0
M  V30 2303 H 212.355 -4.12656 2.87618 0
M  V30 2304 H 212.055 -3.68606 4.57606 0
M  V30 2305 H 213.579 -4.50206 4.12488 0
M  V30 2306 H 214.993 -2.4838 5.16701 0
M  V30 2307 H 213.39 -1.89393 5.6943 0
M  V30 2308 H 214.46 -0.816023 4.77984 0
M  V30 2309 N 215.803 -1.52179 -0.40978 0
M  V30 2310 C 216.733 -1.78435 -1.5061 0
M  V30 2311 C 217.714 -0.635295 -1.57791 0
M  V30 2312 O 218.899 -0.880823 -1.73076 0
M  V30 2313 C 216.029 -1.93444 -2.88439 0
M  V30 2314 C 214.983 -3.09038 -2.96108 0
M  V30 2315 C 214.309 -3.09268 -4.36185 0
M  V30 2316 C 215.609 -4.48508 -2.67652 0
M  V30 2317 H 217.303 -2.70237 -1.28889 0
M  V30 2318 H 214.849 -1.30036 -0.618605 0
M  V30 2319 H 216.802 -2.10394 -3.65119 0
M  V30 2320 H 215.526 -0.983129 -3.11452 0
M  V30 2321 H 214.185 -2.91837 -2.21872 0
M  V30 2322 H 213.833 -2.11861 -4.56206 0
M  V30 2323 H 213.533 -3.86907 -4.42241 0
M  V30 2324 H 215.057 -3.28348 -5.14801 0
M  V30 2325 H 216.471 -4.65918 -3.34056 0
M  V30 2326 H 214.868 -5.28059 -2.85085 0
M  V30 2327 H 215.938 -4.56649 -1.63095 0
M  V30 2328 N 217.281 0.66697 -1.42791 0
M  V30 2329 C 218.229 1.80157 -1.47127 0
M  V30 2330 C 219.223 1.65825 -0.346199 0
M  V30 2331 O 220.429 1.72338 -0.519572 0
M  V30 2332 H 216.804 0.594158 -0.460956 0
M  V30 2333 H 218.775 1.73619 -2.42692 0
M  V30 2334 C 217.524 3.18351 -1.39813 0
M  V30 2335 H 216.847 3.3001 -2.25684 0
M  V30 2336 H 218.287 3.97736 -1.46908 0
M  V30 2337 C 216.746 3.36707 -0.11391 0
M  V30 2338 O 217.276 3.93027 0.830241 0
M  V30 2339 N 215.482 2.90586 -0.0285295 0
M  V30 2340 H 215.029 2.4494 -0.79764 0
M  V30 2341 H 214.987 3.03245 0.830063 0
M  V30 2342 N 218.759 1.29093 0.90403 0
M  V30 2343 C 220.007 1.16583 1.65085 0
M  V30 2344 C 220.328 -0.283933 1.92922 0
M  V30 2345 O 219.598 -1.19509 1.55224 0
M  V30 2346 H 218.178 0.428467 0.611903 0
M  V30 2347 H 220.84 1.61959 1.08422 0
M  V30 2348 H 219.936 1.71266 2.6091 0
M  V30 2349 N 220.237 -1.11381 1.11499 0
M  V30 2350 C 221.169 -2.17207 0.731704 0
M  V30 2351 C 222.182 -1.61066 -0.236957 0
M  V30 2352 O 223.371 -1.78489 -0.0197591 0
M  V30 2353 C 220.471 -3.38846 0.0607624 0
M  V30 2354 C 219.644 -4.24451 1.0564 0
M  V30 2355 C 218.703 -5.24562 0.4149 0
M  V30 2356 O 217.729 -5.59071 1.069 0
M  V30 2357 N 218.931 -5.74651 -0.821943 0
M  V30 2358 H 221.696 -2.50699 1.64225 0
M  V30 2359 H 219.257 -1.26908 1.00529 0
M  V30 2360 H 221.249 -4.02911 -0.380139 0
M  V30 2361 H 219.819 -3.03411 -0.752376 0
M  V30 2362 H 219.039 -3.56833 1.67524 0
M  V30 2363 H 220.327 -4.78486 1.72998 0
M  V30 2364 H 219.725 -5.48797 -1.37252 0
M  V30 2365 H 218.282 -6.40549 -1.20582 0
M  V30 2366 N 221.715 -0.905404 -1.28997 0
M  V30 2367 C 222.678 -0.392253 -2.25819 0
M  V30 2368 C 223.678 0.476753 -1.5357 0
M  V30 2369 O 224.868 0.280994 -1.71919 0
M  V30 2370 C 222 0.438588 -3.38067 0
M  V30 2371 H 223.193 -1.24743 -2.72725 0
M  V30 2372 H 220.746 -0.684051 -1.40536 0
M  V30 2373 H 221.481 1.31352 -2.96508 0
M  V30 2374 H 221.266 -0.184167 -3.91667 0
M  V30 2375 H 222.756 0.78873 -4.10084 0
M  V30 2376 N 223.193 1.4272 -0.668489 0
M  V30 2377 C 224.44 2.01624 -0.18814 0
M  V30 2378 C 224.768 1.5282 1.20317 0
M  V30 2379 O 224.023 0.718323 1.8204 0
M  V30 2380 C 224.322 3.57021 -0.164499 0
M  V30 2381 C 223.988 4.25232 -1.49962 0
M  V30 2382 C 222.65 4.4358 -1.8652 0
M  V30 2383 C 225.002 4.63727 -2.37921 0
M  V30 2384 C 222.33 4.97694 -3.10674 0
M  V30 2385 C 224.682 5.19218 -3.6138 0
M  V30 2386 C 223.346 5.3578 -3.98115 0
M  V30 2387 H 222.616 0.737795 -0.0688454 0
M  V30 2388 H 225.263 1.70991 -0.862225 0
M  V30 2389 H 223.568 3.87285 0.593079 0
M  V30 2390 H 225.265 4.00372 0.224271 0
M  V30 2391 H 221.855 4.11306 -1.20522 0
M  V30 2392 H 226.039 4.4923 -2.10964 0
M  V30 2393 H 221.295 5.08702 -3.39164 0
M  V30 2394 H 225.469 5.4799 -4.29743 0
M  V30 2395 H 223.096 5.77475 -4.94395 0
M  V30 2396 N 224.671 0.411399 1.52136 0
M  V30 2397 C 225.896 -0.165538 2.06738 0
M  V30 2398 C 226.321 -1.379 1.27926 0
M  V30 2399 O 225.679 -1.78628 0.310114 0
M  V30 2400 C 225.727 -0.492124 3.57226 0
M  V30 2401 O 224.831 -1.58276 3.80818 0
M  V30 2402 H 224.172 -0.0132132 0.663869 0
M  V30 2403 H 226.702 0.585253 1.96051 0
M  V30 2404 H 226.712 -0.750104 4.01045 0
M  V30 2405 H 225.387 0.394922 4.14021 0
M  V30 2406 H 223.964 -1.31677 3.48877 0
M  V30 2407 N 226.149 -1.5696 0.141893 0
M  V30 2408 C 227.397 -1.95573 -0.509484 0
M  V30 2409 C 227.718 -1.02746 -1.65736 0
M  V30 2410 O 226.988 -0.0880311 -1.95702 0
M  V30 2411 H 225.568 -0.722115 -0.191205 0
M  V30 2412 H 228.23 -1.93697 0.216196 0
M  V30 2413 H 227.326 -2.99171 -0.889 0
M  V30 2414 N 227.627 0.131896 -1.57047 0
M  V30 2415 C 228.537 1.1815 -2.02676 0
M  V30 2416 C 229.553 1.46113 -0.944824 0
M  V30 2417 O 230.729 1.57485 -1.25541 0
M  V30 2418 C 227.794 2.49139 -2.41103 0
M  V30 2419 C 226.855 2.28688 -3.63318 0
M  V30 2420 C 226.088 3.53431 -3.99903 0
M  V30 2421 O 226.311 4.60223 -3.36973 0
M  V30 2422 O 225.245 3.45198 -4.93074 0
M  V30 2423 H 229.071 0.824069 -2.92306 0
M  V30 2424 H 226.656 0.341745 -1.45439 0
M  V30 2425 H 228.538 3.26338 -2.66611 0
M  V30 2426 H 227.213 2.84382 -1.54624 0
M  V30 2427 H 226.12 1.4939 -3.42977 0
M  V30 2428 H 227.453 1.98355 -4.50462 0
M  V30 2429 N 229.106 1.52395 0.401703 0
M  V30 2430 C 230.352 1.67065 1.14966 0
M  V30 2431 C 230.685 0.403052 1.89971 0
M  V30 2432 O 229.96 -0.598774 1.85054 0
M  V30 2433 C 230.243 2.8975 2.13815 0
M  V30 2434 C 230.096 4.26578 1.42658 0
M  V30 2435 C 231.415 3.07965 3.14397 0
M  V30 2436 H 228.534 0.607968 0.416587 0
M  V30 2437 H 231.176 1.84965 0.434511 0
M  V30 2438 H 229.326 2.74619 2.74803 0
M  V30 2439 H 230.998 4.53451 0.847329 0
M  V30 2440 H 229.241 4.27639 0.72849 0
M  V30 2441 H 229.912 5.08483 2.14823 0
M  V30 2442 H 232.388 3.22043 2.63491 0
M  V30 2443 H 231.264 3.95308 3.80819 0
M  V30 2444 H 231.525 2.21611 3.82545 0
M  V30 2445 N 230.584 -0.659388 1.43143 0
M  V30 2446 C 231.516 -1.7849 1.43784 0
M  V30 2447 C 232.529 -1.5932 0.334787 0
M  V30 2448 O 233.718 -1.68155 0.598842 0
M  V30 2449 C 230.818 -3.15828 1.22906 0
M  V30 2450 C 229.991 -3.61711 2.45934 0
M  V30 2451 C 229.05 -4.77831 2.20371 0
M  V30 2452 O 228.076 -4.87586 2.93681 0
M  V30 2453 N 229.278 -5.67611 1.21647 0
M  V30 2454 H 232.043 -1.7842 2.40803 0
M  V30 2455 H 229.604 -0.84302 1.3822 0
M  V30 2456 H 231.596 -3.91189 1.03697 0
M  V30 2457 H 230.166 -3.10707 0.343542 0
M  V30 2458 H 229.386 -2.76861 2.80609 0
M  V30 2459 H 230.674 -3.89112 3.27825 0
M  V30 2460 H 230.072 -5.62397 0.610449 0
M  V30 2461 H 228.629 -6.42719 1.08423 0
M  V30 2462 N 232.062 -1.29571 -0.897171 0
M  V30 2463 C 232.992 -1.17473 -2.01798 0
M  V30 2464 C 233.973 -0.068323 -1.69963 0
M  V30 2465 O 235.158 -0.248239 -1.92607 0
M  V30 2466 C 232.288 -0.853099 -3.36659 0
M  V30 2467 C 231.242 -1.9161 -3.82713 0
M  V30 2468 C 230.568 -1.44773 -5.14728 0
M  V30 2469 C 231.868 -3.32535 -4.02763 0
M  V30 2470 H 233.562 -2.11237 -2.12177 0
M  V30 2471 H 231.108 -1.01699 -1.01948 0
M  V30 2472 H 233.061 -0.755165 -4.14578 0
M  V30 2473 H 231.785 0.120236 -3.26379 0
M  V30 2474 H 230.444 -2.00346 -3.07013 0
M  V30 2475 H 230.092 -0.462995 -5.00865 0
M  V30 2476 H 229.792 -2.15865 -5.46513 0
M  V30 2477 H 231.316 -1.36334 -5.95185 0
M  V30 2478 H 232.73 -3.26626 -4.71156 0
M  V30 2479 H 231.127 -4.01607 -4.45905 0
M  V30 2480 H 232.197 -3.75326 -3.07016 0
M  V30 2481 N 233.54 1.10788 -1.12088 0
M  V30 2482 C 234.789 1.82036 -0.868659 0
M  V30 2483 C 235.102 1.85929 0.607426 0
M  V30 2484 O 236.308 2.53346 0.97613 0
M  V30 2485 C 234.764 3.26951 -1.50435 0
M  V30 2486 C 234.372 3.31367 -3.01496 0
M  V30 2487 C 236.116 4.03053 -1.33225 0
M  V30 2488 C 234.023 4.7072 -3.58017 0
M  V30 2489 H 232.953 0.682108 -0.321318 0
M  V30 2490 H 235.604 1.24618 -1.34694 0
M  V30 2491 H 233.986 3.84343 -0.953735 0
M  V30 2492 H 235.16 2.83819 -3.6302 0
M  V30 2493 H 233.475 2.6875 -3.18061 0
M  V30 2494 H 236.072 5.05981 -1.72878 0
M  V30 2495 H 236.415 4.15387 -0.275529 0
M  V30 2496 H 236.948 3.52066 -1.85188 0
M  V30 2497 H 233.687 4.63585 -4.63432 0
M  V30 2498 H 233.207 5.1865 -3.01268 0
M  V30 2499 H 234.886 5.39685 -3.56859 0
M  V30 2500 N 235.018 0.912232 1.28515 0
M  V30 2501 C 235.968 0.370649 2.24967 0
M  V30 2502 C 236.952 -0.516375 1.52389 0
M  V30 2503 O 238.144 -0.356345 1.73376 0
M  V30 2504 C 235.273 -0.389526 3.41083 0
M  V30 2505 C 234.359 0.51313 4.20984 0
M  V30 2506 N 234.75 1.62604 4.78951 0
M  V30 2507 C 233.048 0.313235 4.44899 0
M  V30 2508 C 233.749 2.18619 5.39055 0
M  V30 2509 N 232.725 1.47765 5.23132 0
M  V30 2510 H 236.527 1.22061 2.67354 0
M  V30 2511 H 234.041 0.764712 1.43269 0
M  V30 2512 H 236.038 -0.794353 4.09262 0
M  V30 2513 H 234.698 -1.2366 3.0023 0
M  V30 2514 H 235.709 2.00864 4.77362 0
M  V30 2515 H 232.386 -0.494452 4.14562 0
M  V30 2516 H 233.776 3.12228 5.94948 0
M  V30 2517 N 236.496 -1.42363 0.676048 0
M  V30 2518 C 237.726 -2.05561 0.206967 0
M  V30 2519 C 238.134 -1.50887 -1.14148 0
M  V30 2520 O 237.477 -0.643933 -1.72044 0
M  V30 2521 C 237.539 -3.5944 0.0659508 0
M  V30 2522 C 237.203 -4.36812 1.34331 0
M  V30 2523 C 238.2 -4.67383 2.27704 0
M  V30 2524 C 235.885 -4.76429 1.59125 0
M  V30 2525 C 237.879 -5.36509 3.44147 0
M  V30 2526 C 235.566 -5.45294 2.75857 0
M  V30 2527 C 236.564 -5.75259 3.68193 0
M  V30 2528 O 236.252 -6.42712 4.82883 0
M  V30 2529 H 235.984 -0.668872 0.0979084 0
M  V30 2530 H 238.538 -1.83467 0.923531 0
M  V30 2531 H 236.768 -3.80197 -0.706204 0
M  V30 2532 H 238.457 -4.0427 -0.363418 0
M  V30 2533 H 239.223 -4.37275 2.09799 0
M  V30 2534 H 235.102 -4.52498 0.881258 0
M  V30 2535 H 238.646 -5.59814 4.16238 0
M  V30 2536 H 234.543 -5.7482 2.93688 0
M  V30 2537 H 235.311 -6.61204 4.82444 0
M  V30 2538 N 237.974 -0.419461 -1.51915 0
M  V30 2539 C 238.922 0.415502 -2.28859 0
M  V30 2540 C 239.916 1.03674 -1.3397 0
M  V30 2541 O 241.122 0.973757 -1.51387 0
M  V30 2542 H 237.497 0.152786 -0.736315 0
M  V30 2543 H 239.468 -0.254531 -2.97312 0
M  V30 2544 C 238.217 1.51425 -3.12995 0
M  V30 2545 H 237.54 1.04556 -3.85886 0
M  V30 2546 H 238.98 2.07208 -3.6992 0
M  V30 2547 C 237.439 2.48745 -2.27217 0
M  V30 2548 O 237.969 3.52871 -1.9195 0
M  V30 2549 N 236.175 2.19202 -1.90785 0
M  V30 2550 H 235.722 1.34556 -2.19664 0
M  V30 2551 H 235.68 2.84561 -1.33687 0
M  V30 2552 N 239.452 1.56882 -0.150215 0
M  V30 2553 C 240.402 2.13501 0.800071 0
M  V30 2554 C 241.386 1.06368 1.20726 0
M  V30 2555 O 242.578 1.32538 1.17314 0
M  V30 2556 C 239.707 2.76271 2.03787 0
M  V30 2557 C 238.793 3.90533 1.65364 0
M  V30 2558 N 239.184 4.96259 0.977794 0
M  V30 2559 C 237.482 4.013 1.94613 0
M  V30 2560 C 238.183 5.76286 0.791794 0
M  V30 2561 N 237.159 5.27163 1.32666 0
M  V30 2562 H 240.961 2.92615 0.274517 0
M  V30 2563 H 238.475 1.62319 0.0512144 0
M  V30 2564 H 240.472 3.15197 2.72867 0
M  V30 2565 H 239.132 1.98631 2.56857 0
M  V30 2566 H 240.143 5.13953 0.638193 0
M  V30 2567 H 236.82 3.3474 2.4951 0
M  V30 2568 H 238.21 6.71401 0.258894 0
M  V30 2569 N 240.93 -0.123565 1.57115 0
M  V30 2570 C 241.84 -1.17074 2.033 0
M  V30 2571 C 242.856 -1.4561 0.952559 0
M  V30 2572 O 244.032 -1.56817 1.26374 0
M  V30 2573 C 241.097 -2.47857 2.42421 0
M  V30 2574 C 240.158 -2.26758 3.64526 0
M  V30 2575 C 239.391 -3.51305 4.01771 0
M  V30 2576 O 239.614 -4.5843 3.39409 0
M  V30 2577 O 238.548 -3.42578 4.94898 0
M  V30 2578 H 242.374 -0.808555 2.92739 0
M  V30 2579 H 239.959 -0.334027 1.45618 0
M  V30 2580 H 241.841 -3.2492 2.68338 0
M  V30 2581 H 240.516 -2.83558 1.5613 0
M  V30 2582 H 239.423 -1.47569 3.43765 0
M  V30 2583 H 240.756 -1.95963 4.51508 0
M  V30 2584 N 242.408 -1.52605 -0.393616 0
M  V30 2585 C 243.338 -1.80022 -1.48709 0
M  V30 2586 C 244.319 -0.651995 -1.57108 0
M  V30 2587 O 245.504 -0.89913 -1.72132 0
M  V30 2588 C 242.634 -1.96492 -2.86371 0
M  V30 2589 C 241.588 -3.12161 -2.92813 0
M  V30 2590 C 240.914 -3.13877 -4.3288 0
M  V30 2591 C 242.214 -4.51322 -2.6288 0
M  V30 2592 H 243.908 -2.71589 -1.26015 0
M  V30 2593 H 241.454 -1.30684 -0.604778 0
M  V30 2594 H 243.407 -2.14255 -3.62867 0
M  V30 2595 H 242.131 -1.01611 -3.10391 0
M  V30 2596 H 240.79 -2.94173 -2.18764 0
M  V30 2597 H 240.438 -2.16687 -4.53933 0
M  V30 2598 H 240.138 -3.91576 -4.38112 0
M  V30 2599 H 241.662 -3.33789 -5.1129 0
M  V30 2600 H 243.076 -4.69435 -3.29096 0
M  V30 2601 H 241.473 -5.31053 -2.79468 0
M  V30 2602 H 242.543 -4.58353 -1.58242 0
M  V30 2603 N 243.887 0.651787 -1.4349 0
M  V30 2604 C 245.117 1.43728 -1.48411 0
M  V30 2605 C 245.525 1.8893 -0.10103 0
M  V30 2606 O 244.868 1.60182 0.899307 0
M  V30 2607 C 244.93 2.70411 -2.36893 0
M  V30 2608 C 244.594 2.4714 -3.8441 0
M  V30 2609 C 245.591 2.10271 -4.75481 0
M  V30 2610 C 243.276 2.6142 -4.28912 0
M  V30 2611 C 245.27 1.87982 -6.0905 0
M  V30 2612 C 242.957 2.38746 -5.62533 0
M  V30 2613 C 243.955 2.02083 -6.5242 0
M  V30 2614 O 243.643 1.79647 -7.8357 0
M  V30 2615 H 243.375 0.447962 -0.506267 0
M  V30 2616 H 245.929 0.80624 -1.88915 0
M  V30 2617 H 244.159 3.36079 -1.91278 0
M  V30 2618 H 245.848 3.32364 -2.33 0
M  V30 2619 H 246.614 1.98814 -4.42378 0
M  V30 2620 H 242.493 2.88931 -3.59222 0
M  V30 2621 H 246.037 1.5929 -6.7917 0
M  V30 2622 H 241.934 2.49806 -5.95203 0
M  V30 2623 H 242.702 1.9406 -7.95162 0
M  V30 2624 N 245.365 1.30045 0.890287 0
M  V30 2625 C 246.593 1.21472 1.67487 0
M  V30 2626 C 247.008 -0.223241 1.87476 0
M  V30 2627 O 246.365 -1.14828 1.41847 0
M  V30 2628 C 246.416 1.93394 3.05419 0
M  V30 2629 O 246.137 3.31576 2.86337 0
M  V30 2630 C 247.638 1.91414 3.99844 0
M  V30 2631 H 244.858 0.420604 0.522813 0
M  V30 2632 H 247.402 1.7158 1.11268 0
M  V30 2633 H 245.557 1.47099 3.58386 0
M  V30 2634 H 245.971 3.67929 3.73802 0
M  V30 2635 H 247.445 2.46285 4.94012 0
M  V30 2636 H 247.922 0.891833 4.3005 0
M  V30 2637 H 248.528 2.37496 3.52811 0
M  V30 2638 N 246.843 -1.10192 1.12674 0
M  V30 2639 C 247.791 -2.18694 0.792196 0
M  V30 2640 C 248.785 -1.67938 -0.222058 0
M  V30 2641 O 249.991 -1.79822 -0.0800074 0
M  V30 2642 H 246.366 -0.713223 0.238364 0
M  V30 2643 H 248.337 -2.44149 1.71564 0
M  V30 2644 C 247.086 -3.46682 0.265859 0
M  V30 2645 H 246.409 -3.86101 1.03761 0
M  V30 2646 H 247.849 -4.23942 0.0701128 0
M  V30 2647 C 246.308 -3.21506 -1.00675 0
M  V30 2648 O 246.838 -3.43408 -2.08408 0
M  V30 2649 N 245.044 -2.75158 -0.934692 0
M  V30 2650 H 244.591 -2.57535 -0.0578604 0
M  V30 2651 H 244.549 -2.58691 -1.7868 0
M  V30 2652 N 248.321 -0.919034 -1.28029 0
M  V30 2653 C 249.567 -0.555757 -1.95036 0
M  V30 2654 C 249.9 0.899198 -1.72128 0
M  V30 2655 O 249.175 1.64023 -1.04531 0
M  V30 2656 C 249.458 -0.872024 -3.49382 0
M  V30 2657 C 249.311 -2.3801 -3.81669 0
M  V30 2658 C 250.63 -0.37185 -4.38526 0
M  V30 2659 H 247.749 -0.203386 -0.708381 0
M  V30 2660 H 250.391 -1.14924 -1.51303 0
M  V30 2661 H 248.541 -0.366946 -3.86763 0
M  V30 2662 H 250.213 -2.9562 -3.54128 0
M  V30 2663 H 248.456 -2.83289 -3.28526 0
M  V30 2664 H 249.127 -2.55192 -4.8947 0
M  V30 2665 H 251.603 -0.804602 -4.08247 0
M  V30 2666 H 250.479 -0.622173 -5.45362 0
M  V30 2667 H 250.74 0.727934 -4.36066 0
M  V30 2668 N 249.799 1.42003 -0.683588 0
M  V30 2669 C 251.027 2.05746 -0.218182 0
M  V30 2670 C 251.442 1.51396 1.12804 0
M  V30 2671 O 250.799 0.657303 1.70252 0
M  V30 2672 C 250.85 3.61171 -0.154131 0
M  V30 2673 O 250.571 4.13508 -1.44716 0
M  V30 2674 C 252.072 4.42042 0.333713 0
M  V30 2675 H 249.292 0.662888 -0.10402 0
M  V30 2676 H 251.836 1.81987 -0.9328 0
M  V30 2677 H 249.991 3.84012 0.511231 0
M  V30 2678 H 250.405 5.07453 -1.32632 0
M  V30 2679 H 251.879 5.51028 0.327423 0
M  V30 2680 H 252.356 4.17269 1.37053 0
M  V30 2681 H 252.962 4.24239 -0.300222 0
M  V30 2682 N 251.277 0.427512 1.51691 0
M  V30 2683 C 252.187 -0.39527 2.31246 0
M  V30 2684 C 253.203 -1.03674 1.39742 0
M  V30 2685 O 254.379 -1.03425 1.72816 0
M  V30 2686 C 251.444 -1.48706 3.13189 0
M  V30 2687 C 250.505 -0.866743 4.20459 0
M  V30 2688 C 249.738 -1.90651 4.98486 0
M  V30 2689 O 249.961 -3.12733 4.77026 0
M  V30 2690 O 248.895 -1.5025 5.82845 0
M  V30 2691 H 252.721 0.253918 3.02637 0
M  V30 2692 H 250.306 0.190274 1.48183 0
M  V30 2693 H 252.188 -2.12047 3.64162 0
M  V30 2694 H 250.863 -2.12051 2.44573 0
M  V30 2695 H 249.77 -0.195544 3.73589 0
M  V30 2696 H 251.103 -0.276934 4.9142 0
M  V30 2697 N 252.755 -1.56801 0.158532 0
M  V30 2698 C 253.718 -2.16138 -0.762705 0
M  V30 2699 C 254.718 -1.1061 -1.16713 0
M  V30 2700 O 255.908 -1.36191 -1.08617 0
M  V30 2701 C 253.04 -2.73386 -2.03649 0
M  V30 2702 H 254.233 -2.98886 -0.246354 0
M  V30 2703 H 251.786 -1.56035 -0.0909744 0
M  V30 2704 H 252.521 -1.94335 -2.59623 0
M  V30 2705 H 252.306 -3.50601 -1.75559 0
M  V30 2706 H 253.796 -3.19065 -2.6942 0
M  V30 2707 N 254.233 0.115231 -1.57178 0
M  V30 2708 C 255.196 1.12526 -1.99676 0
M  V30 2709 C 256.196 1.34095 -0.88742 0
M  V30 2710 O 257.386 1.30548 -1.15337 0
M  V30 2711 C 254.518 2.4789 -2.34015 0
M  V30 2712 H 255.711 0.759912 -2.90113 0
M  V30 2713 H 253.264 0.359648 -1.52106 0
M  V30 2714 H 253.999 2.89339 -1.4647 0
M  V30 2715 H 253.784 2.33588 -3.14927 0
M  V30 2716 H 255.274 3.20575 -2.67622 0
M  V30 2717 N 255.711 1.52812 0.385517 0
M  V30 2718 C 256.658 1.77838 1.47113 0
M  V30 2719 C 257.628 0.621757 1.54024 0
M  V30 2720 O 258.813 0.861846 1.70226 0
M  V30 2721 C 255.953 1.95618 2.84302 0
M  V30 2722 C 255.066 3.23316 2.86515 0
M  V30 2723 C 254.201 3.31394 4.15152 0
M  V30 2724 C 253.24 4.53201 4.1143 0
M  V30 2725 N 252.377 4.58542 5.3168 0
M  V30 2726 H 257.217 2.70482 1.25073 0
M  V30 2727 H 254.754 1.34006 0.606692 0
M  V30 2728 H 256.712 2.03912 3.63972 0
M  V30 2729 H 255.342 1.06331 3.04784 0
M  V30 2730 H 254.394 3.24076 1.99195 0
M  V30 2731 H 255.706 4.13045 2.79634 0
M  V30 2732 H 254.86 3.3889 5.03228 0
M  V30 2733 H 253.599 2.39645 4.24761 0
M  V30 2734 H 252.604 4.45827 3.21742 0
M  V30 2735 H 253.829 5.46271 4.03442 0
M  V30 2736 H 251.775 3.69686 5.41912 0
M  V30 2737 H 251.692 5.42148 5.26889 0
M  V30 2738 H 252.96 4.70296 6.21644 0
M  V30 2739 N 257.189 -0.644168 1.43834 0
M  V30 2740 C 258.414 -1.43642 1.49605 0
M  V30 2741 C 258.839 -1.8773 0.117913 0
M  V30 2742 O 258.197 -1.57938 -0.890239 0
M  V30 2743 C 258.245 -2.6416 2.45463 0
M  V30 2744 O 257.349 -3.63538 1.94714 0
M  V30 2745 H 256.69 -0.430329 0.50568 0
M  V30 2746 H 259.22 -0.787448 1.8884 0
M  V30 2747 H 259.23 -3.11864 2.63068 0
M  V30 2748 H 257.905 -2.31414 3.45572 0
M  V30 2749 H 256.482 -3.2273 1.86814 0
M  V30 2750 N 258.668 -1.30515 -0.883378 0
M  V30 2751 C 260.079 -1.17509 -1.45081 0
M  V30 2752 C 260.43 0.223605 -1.94922 0
M  V30 2753 O 259.555 1.12041 -1.85137 0
M  V30 2754 C 260.15 -2.12715 -2.63701 0
M  V30 2755 C 258.709 -2.03682 -3.16529 0
M  V30 2756 C 257.856 -2.02706 -1.89224 0
M  V30 2757 H 260.807 -1.42762 -0.693165 0
M  V30 2758 H 260.828 -1.70891 -3.39965 0
M  V30 2759 H 260.34 -3.14505 -2.27395 0
M  V30 2760 H 258.441 -1.05039 -3.57488 0
M  V30 2761 H 258.554 -2.92146 -3.7972 0
M  V30 2762 H 256.918 -1.4753 -2.07622 0
M  V30 2763 H 257.701 -3.06229 -1.55174 0
M  V30 2764 N 260.146 1.09593 -1.13257 0
M  V30 2765 C 261.094 2.18271 -0.803783 0
M  V30 2766 C 262.088 1.68054 0.213148 0
M  V30 2767 O 263.294 1.79862 0.0704699 0
M  V30 2768 H 259.669 0.711949 -0.242143 0
M  V30 2769 H 261.64 2.43235 -1.72856 0
M  V30 2770 C 260.389 3.46536 -0.28424 0
M  V30 2771 H 259.712 3.85545 -1.05807 0
M  V30 2772 H 261.152 4.23899 -0.0925945 0
M  V30 2773 C 259.611 3.22036 0.989684 0
M  V30 2774 O 260.141 3.44509 2.06584 0
M  V30 2775 N 258.347 2.7565 0.920086 0
M  V30 2776 H 257.894 2.57562 0.0442019 0
M  V30 2777 H 257.852 2.59635 1.77306 0
M  V30 2778 N 261.624 0.925811 1.2754 0
M  V30 2779 C 262.872 0.564138 1.94067 0
M  V30 2780 C 263.193 -0.897188 1.73134 0
M  V30 2781 O 262.463 -1.63573 1.07799 0
M  V30 2782 H 261.043 0.205645 0.718136 0
M  V30 2783 H 263.705 1.1778 1.55287 0
M  V30 2784 H 262.801 0.76881 3.02483 0
M  V30 2785 N 263.102 -1.41638 0.69111 0
M  V30 2786 C 264.032 -2.3347 0.037248 0
M  V30 2787 C 265.013 -1.51575 -0.771947 0
M  V30 2788 O 266.198 -1.80126 -0.72582 0
M  V30 2789 C 263.328 -3.35354 -0.903064 0
M  V30 2790 C 262.282 -4.27526 -0.201288 0
M  V30 2791 C 261.608 -5.19747 -1.25565 0
M  V30 2792 C 262.908 -5.13959 0.929689 0
M  V30 2793 H 264.602 -2.88397 0.804227 0
M  V30 2794 H 262.148 -1.38669 0.388189 0
M  V30 2795 H 264.101 -3.98519 -1.36969 0
M  V30 2796 H 262.825 -2.78767 -1.70166 0
M  V30 2797 H 261.484 -3.65779 0.245265 0
M  V30 2798 H 261.132 -4.59479 -2.04666 0
M  V30 2799 H 260.832 -5.8225 -0.791128 0
M  V30 2800 H 262.356 -5.85789 -1.72288 0
M  V30 2801 H 263.77 -5.70718 0.543546 0
M  V30 2802 H 262.167 -5.85379 1.32103 0
M  V30 2803 H 263.237 -4.51389 1.77133 0
M  V30 2804 N 264.58 -0.43555 -1.51462 0
M  V30 2805 C 265.826 0.131709 -2.02372 0
M  V30 2806 C 266.159 1.42516 -1.3192 0
M  V30 2807 O 265.434 1.89606 -0.433573 0
M  V30 2808 C 265.717 0.352301 -3.58373 0
M  V30 2809 C 265.57 -0.959676 -4.39443 0
M  V30 2810 C 266.889 1.12286 -4.25535 0
M  V30 2811 H 264.008 0.0463936 -0.735538 0
M  V30 2812 H 266.65 -0.574197 -1.81116 0
M  V30 2813 H 264.8 0.9536 -3.76615 0
M  V30 2814 H 266.472 -1.59482 -4.32855 0
M  V30 2815 H 264.715 -1.56468 -4.04599 0
M  V30 2816 H 265.386 -0.759394 -5.46752 0
M  V30 2817 H 267.862 0.613545 -4.11552 0
M  V30 2818 H 266.738 1.24598 -5.34571 0
M  V30 2819 H 266.999 2.15048 -3.86273 0
M  V30 2820 N 266.058 1.56714 -0.166846 0
M  V30 2821 C 267.304 1.97039 0.479962 0
M  V30 2822 C 267.637 1.05264 1.63197 0
M  V30 2823 O 266.912 0.0988833 1.94248 0
M  V30 2824 C 267.195 3.46867 0.967212 0
M  V30 2825 C 267.048 4.49421 -0.18466 0
M  V30 2826 C 268.367 3.9968 1.84238 0
M  V30 2827 H 265.486 0.71641 0.172992 0
M  V30 2828 H 268.128 1.8832 -0.252079 0
M  V30 2829 H 266.278 3.54428 1.59101 0
M  V30 2830 H 267.95 4.53924 -0.821621 0
M  V30 2831 H 266.193 4.25573 -0.840837 0
M  V30 2832 H 266.864 5.51644 0.198317 0
M  V30 2833 H 269.34 3.94723 1.31655 0
M  V30 2834 H 268.216 5.04941 2.15234 0
M  V30 2835 H 268.477 3.43226 2.78654 0
M  V30 2836 N 267.536 -0.106894 1.57237 0
M  V30 2837 C 268.782 -0.81373 1.85759 0
M  V30 2838 C 269.115 -1.78952 0.754315 0
M  V30 2839 O 268.39 -1.93029 -0.23879 0
M  V30 2840 C 268.673 -1.55293 3.24894 0
M  V30 2841 C 268.526 -0.595929 4.45835 0
M  V30 2842 C 269.845 -2.5063 3.61763 0
M  V30 2843 H 266.964 -0.294369 0.67566 0
M  V30 2844 H 269.606 -0.0776472 1.89841 0
M  V30 2845 H 267.756 -2.1804 3.21544 0
M  V30 2846 H 269.428 0.0236262 4.61294 0
M  V30 2847 H 267.671 0.0916191 4.33703 0
M  V30 2848 H 268.342 -1.15004 5.39887 0
M  V30 2849 H 270.818 -1.97982 3.65981 0
M  V30 2850 H 269.694 -2.99376 4.60071 0
M  V30 2851 H 269.955 -3.3385 2.89821 0
M  V30 2852 N 269.014 -1.53014 -0.377408 0
M  V30 2853 C 270.239 -1.72818 -1.14668 0
M  V30 2854 C 270.664 -0.450725 -1.8262 0
M  V30 2855 O 270.022 0.59439 -1.7128 0
M  V30 2856 C 270.07 -2.88627 -2.16164 0
M  V30 2857 O 269.174 -2.56409 -3.22998 0
M  V30 2858 H 268.515 -0.574301 -0.333278 0
M  V30 2859 H 271.045 -1.99853 -0.438152 0
M  V30 2860 H 271.055 -3.14455 -2.59966 0
M  V30 2861 H 269.73 -3.81294 -1.66095 0
M  V30 2862 H 268.307 -2.4136 -2.84253 0
M  V30 2863 N 270.492 0.636531 -1.44174 0
M  V30 2864 C 271.741 1.39213 -1.45954 0
M  V30 2865 C 272.054 1.95374 -0.0939119 0
M  V30 2866 O 273.26 2.71498 0.0107767 0
M  V30 2867 C 271.716 2.52025 -2.56927 0
M  V30 2868 C 271.324 2.024 -3.99673 0
M  V30 2869 C 273.068 3.29269 -2.67922 0
M  V30 2870 C 270.975 3.12521 -5.0208 0
M  V30 2871 H 269.905 0.523132 -0.542999 0
M  V30 2872 H 272.556 0.685349 -1.70221 0
M  V30 2873 H 270.938 3.25253 -2.25891 0
M  V30 2874 H 272.112 1.36073 -4.40251 0
M  V30 2875 H 270.427 1.37987 -3.92872 0
M  V30 2876 H 273.024 4.11352 -3.41605 0
M  V30 2877 H 273.367 3.78397 -1.73555 0
M  V30 2878 H 273.9 2.63129 -2.98342 0
M  V30 2879 H 270.639 2.68343 -5.98057 0
M  V30 2880 H 270.159 3.77507 -4.66099 0
M  V30 2881 H 271.838 3.77385 -5.25538 0
M  V30 2882 N 271.97 1.30982 0.876444 0
M  V30 2883 C 273.217 1.20296 1.62896 0
M  V30 2884 C 273.545 -0.240395 1.93009 0
M  V30 2885 O 272.8 -1.18733 1.55567 0
M  V30 2886 C 273.099 1.98572 2.9716 0
M  V30 2887 C 272.765 3.48125 2.86566 0
M  V30 2888 C 271.427 3.88905 2.83383 0
M  V30 2889 C 273.779 4.43322 2.74071 0
M  V30 2890 C 271.107 5.2316 2.65556 0
M  V30 2891 C 273.459 5.77695 2.57781 0
M  V30 2892 C 272.123 6.17704 2.52979 0
M  V30 2893 H 271.393 0.440193 0.59608 0
M  V30 2894 H 274.04 1.62177 1.01837 0
M  V30 2895 H 272.345 1.49352 3.62217 0
M  V30 2896 H 274.042 1.8769 3.54364 0
M  V30 2897 H 270.632 3.15723 2.89856 0
M  V30 2898 H 274.816 4.12752 2.75589 0
M  V30 2899 H 270.072 5.53241 2.60259 0
M  V30 2900 H 274.246 6.51091 2.47089 0
M  V30 2901 H 271.873 7.21678 2.38924 0
M  V30 2902 N 273.449 -1.08991 1.13837 0
M  V30 2903 C 274.698 -1.80631 0.897509 0
M  V30 2904 C 275.011 -1.86872 -0.57777 0
M  V30 2905 O 276.217 -2.54866 -0.935701 0
M  V30 2906 C 274.673 -3.24517 1.55618 0
M  V30 2907 C 274.281 -3.26529 3.0673 0
M  V30 2908 C 276.025 -4.00882 1.3962 0
M  V30 2909 C 273.932 -4.64965 3.65461 0
M  V30 2910 H 272.862 -0.67691 0.332129 0
M  V30 2911 H 275.513 -1.2246 1.3666 0
M  V30 2912 H 273.895 -3.82778 1.01476 0
M  V30 2913 H 275.069 -2.78008 3.67489 0
M  V30 2914 H 273.384 -2.63656 3.22296 0
M  V30 2915 H 275.981 -5.03167 1.80906 0
M  V30 2916 H 276.324 -4.14896 0.341578 0
M  V30 2917 H 276.857 -3.49075 1.90766 0
M  V30 2918 H 273.596 -4.56153 4.70749 0
M  V30 2919 H 273.116 -5.13792 3.09481 0
M  V30 2920 H 274.795 -5.3394 3.654 0
M  V30 2921 N 274.927 -0.932562 -1.27047 0
M  V30 2922 C 275.874 -0.434072 -2.26681 0
M  V30 2923 C 276.844 0.501639 -1.58344 0
M  V30 2924 O 278.029 0.419734 -1.86126 0
M  V30 2925 C 275.169 0.30261 -3.43771 0
M  V30 2926 C 274.282 -0.667774 -4.26808 0
M  V30 2927 C 273.417 0.0892393 -5.31125 0
M  V30 2928 C 272.456 -0.873532 -6.05835 0
M  V30 2929 N 271.593 -0.148832 -7.01942 0
M  V30 2930 H 276.433 -1.28868 -2.68695 0
M  V30 2931 H 273.97 -0.646713 -1.32121 0
M  V30 2932 H 275.928 0.746092 -4.10474 0
M  V30 2933 H 274.558 1.12142 -3.02695 0
M  V30 2934 H 273.61 -1.22978 -3.59973 0
M  V30 2935 H 274.922 -1.40337 -4.78651 0
M  V30 2936 H 274.076 0.592409 -6.03801 0
M  V30 2937 H 272.815 0.85777 -4.80097 0
M  V30 2938 H 271.82 -1.38791 -5.31994 0
M  V30 2939 H 273.045 -1.64193 -6.58952 0
M  V30 2940 H 270.991 0.601365 -6.53238 0
M  V30 2941 H 270.908 -0.82391 -7.51497 0
M  V30 2942 H 272.176 0.333527 -7.78786 0
M  V30 2943 N 276.405 1.4127 -0.698611 0
M  V30 2944 C 277.651 2.01478 -0.231207 0
M  V30 2945 C 277.984 1.55215 1.16713 0
M  V30 2946 O 277.259 0.764672 1.78838 0
M  V30 2947 C 277.542 3.58912 -0.292281 0
M  V30 2948 C 277.395 4.15293 -1.72778 0
M  V30 2949 C 278.714 4.38736 0.346194 0
M  V30 2950 H 275.833 0.732025 -0.0854878 0
M  V30 2951 H 278.475 1.67977 -0.887906 0
M  V30 2952 H 276.625 3.87582 0.26686 0
M  V30 2953 H 278.297 3.97486 -2.341 0
M  V30 2954 H 276.54 3.7022 -2.26096 0
M  V30 2955 H 277.211 5.24452 -1.72202 0
M  V30 2956 H 279.687 4.15897 -0.130035 0
M  V30 2957 H 278.563 5.48221 0.272932 0
M  V30 2958 H 278.824 4.18425 1.42734 0
M  V30 2959 N 277.883 0.443576 1.51229 0
M  V30 2960 C 279.108 -0.121648 2.07043 0
M  V30 2961 C 279.533 -1.35156 1.30823 0
M  V30 2962 O 278.891 -1.7793 0.347934 0
M  V30 2963 C 278.939 -0.41624 3.5819 0
M  V30 2964 O 278.043 -1.50163 3.8409 0
M  V30 2965 H 277.384 0.000871367 0.663999 0
M  V30 2966 H 279.914 0.626706 1.94765 0
M  V30 2967 H 279.924 -0.664867 4.02546 0
M  V30 2968 H 278.599 0.482653 4.1309 0
M  V30 2969 H 277.176 -1.24248 3.51592 0
M  V30 2970 N 279.361 -1.56624 0.175154 0
M  V30 2971 C 280.638 -1.88688 -0.515373 0
M  V30 2972 C 281.018 -1.08564 -1.81044 0
M  V30 2973 O 280.366 -0.180703 -2.27784 0
M  V30 2974 C 280.576 -3.40768 -0.753552 0
M  V30 2975 C 281.924 -4.10587 -1.08184 0
M  V30 2976 O 282.948 -3.46106 -0.841961 0
M  V30 2977 O 281.807 -5.24512 -1.53459 0
M  V30 2978 H 278.901 -0.78301 -0.26613 0
M  V30 2979 H 281.447 -1.68347 0.213877 0
M  V30 2980 H 280.219 -3.90965 0.161829 0
M  V30 2981 H 279.842 -3.66733 -1.53598 0
M  V30 2982 N 280.839 0.0985539 -1.57292 0
M  V30 2983 C 282.064 0.820196 -1.90493 0
M  V30 2984 C 282.489 1.71658 -0.769094 0
M  V30 2985 O 281.847 1.79133 0.279495 0
M  V30 2986 C 281.895 1.61242 -3.22542 0
M  V30 2987 O 280.999 2.72108 -3.09888 0
M  V30 2988 H 280.34 0.225547 -0.62452 0
M  V30 2989 H 282.87 0.0748159 -2.04463 0
M  V30 2990 H 282.88 1.99737 -3.55766 0
M  V30 2991 H 281.555 0.954535 -4.04798 0
M  V30 2992 H 280.132 2.36667 -2.88172 0
M  V30 2993 N 282.317 1.53212 0.369288 0
M  V30 2994 C 283.542 1.73423 1.1375 0
M  V30 2995 C 283.967 0.460404 1.82378 0
M  V30 2996 O 283.325 -0.585298 1.71592 0
M  V30 2997 C 283.373 2.89769 2.1463 0
M  V30 2998 O 282.477 2.58119 3.21634 0
M  V30 2999 H 281.818 0.576061 0.330227 0
M  V30 3000 H 284.348 2.00083 0.427547 0
M  V30 3001 H 284.358 3.15829 2.58294 0
M  V30 3002 H 283.033 3.8217 1.64071 0
M  V30 3003 H 281.61 2.42864 2.82969 0
M  V30 3004 N 283.795 -0.628877 1.44509 0
M  V30 3005 C 284.743 -1.76193 1.51852 0
M  V30 3006 C 285.737 -1.64849 0.390042 0
M  V30 3007 O 286.943 -1.709 0.565082 0
M  V30 3008 H 283.318 -0.581728 0.476547 0
M  V30 3009 H 285.289 -1.67123 2.47209 0
M  V30 3010 C 284.038 -3.14533 1.48204 0
M  V30 3011 H 283.361 -3.23911 2.34354 0
M  V30 3012 H 284.801 -3.93701 1.57402 0
M  V30 3013 C 283.26 -3.36287 0.203142 0
M  V30 3014 O 283.79 -3.9509 -0.725745 0
M  V30 3015 N 281.996 -2.90408 0.105563 0
M  V30 3016 H 281.543 -2.42739 0.862301 0
M  V30 3017 H 281.501 -3.05339 -0.749371 0
M  V30 3018 N 285.273 -1.31445 -0.869486 0
M  V30 3019 C 286.684 -1.19042 -1.43826 0
M  V30 3020 C 287.035 0.202919 -1.95148 0
M  V30 3021 O 286.16 1.10071 -1.86315 0
M  V30 3022 C 286.755 -2.15499 -2.6143 0
M  V30 3023 C 285.314 -2.07028 -3.14351 0
M  V30 3024 C 284.461 -2.04701 -1.87063 0
M  V30 3025 H 287.412 -1.43489 -0.677984 0
M  V30 3026 H 287.433 -1.74488 -3.38134 0
M  V30 3027 H 286.945 -3.16899 -2.24046 0
M  V30 3028 H 285.046 -1.08825 -3.56354 0
M  V30 3029 H 285.159 -2.96157 -3.766 0
M  V30 3030 H 283.523 -1.49724 -2.06046 0
M  V30 3031 H 284.306 -3.07857 -1.51917 0
M  V30 3032 N 286.751 1.08385 -1.14413 0
M  V30 3033 C 287.998 1.80776 -0.912482 0
M  V30 3034 C 288.326 1.86236 0.560934 0
M  V30 3035 O 287.581 1.33431 1.43159 0
M  V30 3036 C 287.88 3.26273 -1.45879 0
M  V30 3037 C 287.546 3.4093 -2.95089 0
M  V30 3038 C 286.208 3.44638 -3.35824 0
M  V30 3039 C 288.56 3.44591 -3.91033 0
M  V30 3040 C 285.888 3.49597 -4.71167 0
M  V30 3041 C 288.24 3.51086 -5.26233 0
M  V30 3042 C 286.904 3.53067 -5.6648 0
M  V30 3043 H 286.174 0.661507 -0.333901 0
M  V30 3044 H 288.821 1.27613 -1.42784 0
M  V30 3045 H 287.126 3.82146 -0.864376 0
M  V30 3046 H 288.823 3.80839 -1.2555 0
M  V30 3047 H 285.413 3.38736 -2.62594 0
M  V30 3048 H 289.597 3.40957 -3.60641 0
M  V30 3049 H 284.853 3.49424 -5.0171 0
M  V30 3050 H 289.027 3.52864 -6.00383 0
M  V30 3051 H 286.654 3.56662 -6.71339 0
M  V30 3052 N 288.23 0.939286 1.26551 0
M  V30 3053 C 289.16 0.465044 2.28822 0
M  V30 3054 C 290.141 -0.480692 1.63167 0
M  V30 3055 O 291.326 -0.382955 1.90387 0
M  V30 3056 C 288.456 -0.27234 3.46231 0
M  V30 3057 C 287.41 0.58666 4.2396 0
M  V30 3058 C 286.736 -0.280573 5.33963 0
M  V30 3059 C 288.036 1.85704 4.88171 0
M  V30 3060 H 289.73 1.31979 2.68741 0
M  V30 3061 H 287.276 0.636061 1.29191 0
M  V30 3062 H 289.229 -0.615133 4.16886 0
M  V30 3063 H 287.953 -1.16121 3.0526 0
M  V30 3064 H 286.612 0.91232 3.55067 0
M  V30 3065 H 286.26 -1.16874 4.89234 0
M  V30 3066 H 285.96 0.29076 5.8688 0
M  V30 3067 H 287.484 -0.618678 6.07458 0
M  V30 3068 H 288.898 1.58161 5.51052 0
M  V30 3069 H 287.295 2.37279 5.51197 0
M  V30 3070 H 288.365 2.56957 4.11219 0
M  V30 3071 N 289.708 -1.40897 0.706093 0
M  V30 3072 C 290.656 -2.32572 0.0361893 0
M  V30 3073 C 291.65 -1.51532 -0.757266 0
M  V30 3074 O 292.856 -1.67396 -0.661703 0
M  V30 3075 H 289.231 -0.751966 -0.00709935 0
M  V30 3076 H 291.202 -2.86733 0.826249 0
M  V30 3077 C 289.951 -3.36418 -0.87854 0
M  V30 3078 H 289.274 -3.98836 -0.277401 0
M  V30 3079 H 290.714 -4.0308 -1.3154 0
M  V30 3080 C 289.173 -2.71141 -1.99961 0
M  V30 3081 O 289.703 -2.56735 -3.0895 0
M  V30 3082 N 287.909 -2.29671 -1.78043 0
M  V30 3083 H 287.456 -2.41588 -0.894042 0
M  V30 3084 H 287.414 -1.86332 -2.53235 0
M  V30 3085 N 291.186 -0.45159 -1.50991 0
M  V30 3086 C 292.602 -0.104647 -1.59257 0
M  V30 3087 C 292.802 1.38728 -1.4614 0
M  V30 3088 O 291.858 2.15866 -1.30989 0
M  V30 3089 C 293.171 -0.637468 -2.93865 0
M  V30 3090 C 294.719 -0.599166 -3.07212 0
M  V30 3091 C 295.194 -1.1092 -4.44366 0
M  V30 3092 N 296.685 -1.06778 -4.50725 0
M  V30 3093 C 297.42 -1.43314 -5.55201 0
M  V30 3094 N 296.916 -1.87204 -6.67028 0
M  V30 3095 N 298.709 -1.3504 -5.45638 0
M  V30 3096 H 290.86 -1.42214 -1.57762 0
M  V30 3097 H 293.123 -0.586921 -0.744465 0
M  V30 3098 H 292.829 -1.68187 -3.08879 0
M  V30 3099 H 292.703 -0.0702139 -3.77135 0
M  V30 3100 H 295.09 0.436277 -2.91857 0
M  V30 3101 H 295.171 -1.20299 -2.25747 0
M  V30 3102 H 294.815 -2.14318 -4.60467 0
M  V30 3103 H 294.745 -0.481773 -5.24392 0
M  V30 3104 H 297.236 -0.745643 -3.70471 0
M  V30 3105 H 297.549 -2.13282 -7.42786 0
M  V30 3106 H 295.894 -1.91142 -6.68199 0
M  V30 3107 H 299.085 -1.00607 -4.57161 0
M  V30 3108 H 299.258 -1.63841 -6.26945 0
M  V30 3109 N 292.664 1.56529 -0.183458 0
M  V30 3110 C 293.597 2.14417 0.781052 0
M  V30 3111 C 294.575 1.07761 1.21763 0
M  V30 3112 O 295.759 1.35807 1.30724 0
M  V30 3113 C 292.886 2.69361 2.05335 0
M  V30 3114 C 291.932 3.885 1.75982 0
M  V30 3115 S 292.765 5.27568 0.918256 0
M  V30 3116 C 293.921 5.85926 2.20095 0
M  V30 3117 H 294.154 2.95893 0.2889 0
M  V30 3118 H 291.687 1.54368 0.0313844 0
M  V30 3119 H 293.645 3.01662 2.78406 0
M  V30 3120 H 292.306 1.87949 2.51663 0
M  V30 3121 H 291.499 4.25314 2.70415 0
M  V30 3122 H 291.101 3.57149 1.10999 0
M  V30 3123 H 293.393 5.99579 3.15453 0
M  V30 3124 H 294.336 6.82761 1.87731 0
M  V30 3125 H 294.744 5.14438 2.32409 0
M  V30 3126 N 294.142 -0.090211 1.57342 0
M  V30 3127 C 295.072 -1.10976 2.05443 0
M  V30 3128 C 296.053 -1.41482 0.944284 0
M  V30 3129 O 297.238 -1.51428 1.21586 0
M  V30 3130 C 294.368 -2.42831 2.48295 0
M  V30 3131 C 293.322 -2.26721 3.63018 0
M  V30 3132 C 292.648 -3.63796 3.91863 0
M  V30 3133 C 293.948 -1.7037 4.93732 0
M  V30 3134 H 295.642 -0.709564 2.9087 0
M  V30 3135 H 293.188 -0.339874 1.39932 0
M  V30 3136 H 295.141 -3.14431 2.80555 0
M  V30 3137 H 293.865 -2.84795 1.59873 0
M  V30 3138 H 292.524 -1.57565 3.31012 0
M  V30 3139 H 292.172 -4.03297 3.00601 0
M  V30 3140 H 291.872 -3.53861 4.69101 0
M  V30 3141 H 293.396 -4.36855 4.26603 0
M  V30 3142 H 294.81 -2.31816 5.24342 0
M  V30 3143 H 293.207 -1.71181 5.75167 0
M  V30 3144 H 294.277 -0.663542 4.80339 0
M  V30 3145 N 295.62 -1.53406 -0.361157 0
M  V30 3146 C 296.568 -1.80832 -1.46296 0
M  V30 3147 C 297.562 -0.677699 -1.55253 0
M  V30 3148 O 298.768 -0.860723 -1.58087 0
M  V30 3149 H 295.143 -0.572627 -0.487445 0
M  V30 3150 H 297.114 -2.73045 -1.20371 0
M  V30 3151 C 295.863 -2.01907 -2.8307 0
M  V30 3152 H 295.186 -2.88349 -2.76938 0
M  V30 3153 H 296.626 -2.25072 -3.59331 0
M  V30 3154 C 295.085 -0.799449 -3.27277 0
M  V30 3155 O 295.615 0.00971761 -4.01699 0
M  V30 3156 N 293.821 -0.621637 -2.83873 0
M  V30 3157 H 293.368 -1.28126 -2.23476 0
M  V30 3158 H 293.326 0.19298 -3.13807 0
M  V30 3159 N 297.098 0.621204 -1.44841 0
M  V30 3160 C 298.514 0.94048 -1.28946 0
M  V30 3161 C 298.714 2.00154 -0.23249 0
M  V30 3162 O 297.77 2.49651 0.378237 0
M  V30 3163 C 299.083 1.39433 -2.66419 0
M  V30 3164 C 300.631 1.50927 -2.74208 0
M  V30 3165 C 301.106 1.99692 -4.12174 0
M  V30 3166 N 302.597 2.06947 -4.144 0
M  V30 3167 C 303.332 2.45871 -5.1801 0
M  V30 3168 N 302.828 2.83862 -6.31977 0
M  V30 3169 N 304.621 2.46092 -5.05366 0
M  V30 3170 H 296.772 -0.0803548 -2.12248 0
M  V30 3171 H 299.035 0.0266913 -0.947624 0
M  V30 3172 H 298.741 0.688925 -3.44887 0
M  V30 3173 H 298.615 2.36347 -2.93973 0
M  V30 3174 H 301.002 2.20561 -1.96053 0
M  V30 3175 H 301.083 0.523627 -2.50383 0
M  V30 3176 H 300.727 1.30649 -4.90809 0
M  V30 3177 H 300.657 2.99146 -4.33381 0
M  V30 3178 H 303.148 1.80232 -3.32152 0
M  V30 3179 H 303.461 3.12405 -7.0684 0
M  V30 3180 H 301.806 2.8159 -6.35399 0
M  V30 3181 H 304.997 2.1581 -4.15384 0
M  V30 3182 H 305.17 2.76102 -5.86235 0
M  V30 3183 N 298.576 1.31904 0.862503 0
M  V30 3184 C 299.853 1.12644 1.59908 0
M  V30 3185 C 300.233 -0.316104 2.0872 0
M  V30 3186 O 299.581 -1.31145 1.87118 0
M  V30 3187 C 299.791 2.1472 2.7513 0
M  V30 3188 C 301.139 2.47637 3.44907 0
M  V30 3189 O 302.163 2.13205 2.85346 0
M  V30 3190 O 301.022 3.06632 4.52371 0
M  V30 3191 H 298.116 0.43416 0.703871 0
M  V30 3192 H 300.662 1.43408 0.907314 0
M  V30 3193 H 299.434 3.1172 2.3653 0
M  V30 3194 H 299.057 1.84905 3.51989 0
M  V30 3195 N 300.054 -1.07777 1.14986 0
M  V30 3196 C 301.282 -1.84018 0.945773 0
M  V30 3197 C 301.697 -1.81897 -0.505863 0
M  V30 3198 O 301.054 -1.22726 -1.35072 0
M  V30 3199 C 301.105 -3.31287 1.44677 0
M  V30 3200 O 300.826 -3.33449 2.84154 0
M  V30 3201 C 302.327 -4.24311 1.28355 0
M  V30 3202 H 299.547 -0.580716 0.336169 0
M  V30 3203 H 302.091 -1.36077 1.52654 0
M  V30 3204 H 300.246 -3.76594 0.908625 0
M  V30 3205 H 300.66 -4.25427 3.06777 0
M  V30 3206 H 302.134 -5.2573 1.68261 0
M  V30 3207 H 302.611 -4.38612 0.227184 0
M  V30 3208 H 303.217 -3.84836 1.81056 0
M  V30 3209 N 301.532 -0.945985 -1.26051 0
M  V30 3210 C 302.781 -0.591836 -1.92822 0
M  V30 3211 C 303.094 0.873956 -1.7499 0
M  V30 3212 O 304.3 1.33769 -2.36259 0
M  V30 3213 C 302.756 -1.00776 -3.45503 0
M  V30 3214 C 302.364 -2.4955 -3.7206 0
M  V30 3215 C 304.108 -0.725735 -4.1825 0
M  V30 3216 C 302.015 -2.84988 -5.18205 0
M  V30 3217 H 300.945 -0.217635 -0.721908 0
M  V30 3218 H 303.596 -1.14927 -1.43052 0
M  V30 3219 H 301.978 -0.378812 -3.94184 0
M  V30 3220 H 303.152 -3.1739 -3.34066 0
M  V30 3221 H 301.467 -2.75133 -3.12555 0
M  V30 3222 H 304.064 -0.966771 -5.25887 0
M  V30 3223 H 304.407 0.337639 -4.14929 0
M  V30 3224 H 304.94 -1.31463 -3.7545 0
M  V30 3225 H 301.679 -3.90307 -5.26631 0
M  V30 3226 H 301.199 -2.21813 -5.57278 0
M  V30 3227 H 302.878 -2.73712 -5.86252 0
M  V30 3228 N 303.011 1.40521 -0.713556 0
M  V30 3229 C 304.239 2.05237 -0.261775 0
M  V30 3230 C 304.654 1.53755 1.09567 0
M  V30 3231 O 304.011 0.693268 1.6882 0
M  V30 3232 C 304.062 3.60763 -0.230706 0
M  V30 3233 O 303.783 4.10345 -1.53455 0
M  V30 3234 C 305.284 4.42651 0.239874 0
M  V30 3235 H 302.504 0.660533 -0.118057 0
M  V30 3236 H 305.048 1.79967 -0.971192 0
M  V30 3237 H 303.203 3.8501 0.429661 0
M  V30 3238 H 303.617 5.04526 -1.43366 0
M  V30 3239 H 305.091 5.51599 0.210468 0
M  V30 3240 H 305.568 4.20082 1.28171 0
M  V30 3241 H 306.174 4.23507 -0.390142 0
M  V30 3242 N 304.489 0.459591 1.5075 0
M  V30 3243 C 305.905 0.113092 1.59199 0
M  V30 3244 C 306.105 -1.37951 1.46874 0
M  V30 3245 O 305.161 -2.15168 1.32132 0
M  V30 3246 C 306.474 0.653043 2.93523 0
M  V30 3247 C 308.022 0.615449 3.0689 0
M  V30 3248 C 308.497 1.13275 4.43771 0
M  V30 3249 N 309.988 1.09167 4.50152 0
M  V30 3250 C 310.723 1.46256 5.54434 0
M  V30 3251 N 310.219 1.90739 6.66026 0
M  V30 3252 N 312.012 1.37932 5.44914 0
M  V30 3253 H 304.163 1.43049 1.57005 0
M  V30 3254 H 306.426 0.590861 0.741341 0
M  V30 3255 H 306.132 1.69822 3.07983 0
M  V30 3256 H 306.006 0.0902132 3.77092 0
M  V30 3257 H 308.393 -0.420793 2.92084 0
M  V30 3258 H 308.474 1.21495 2.25106 0
M  V30 3259 H 308.118 2.16757 4.59324 0
M  V30 3260 H 308.048 0.509576 5.24129 0
M  V30 3261 H 310.539 0.76528 3.7007 0
M  V30 3262 H 310.852 2.17218 7.41644 0
M  V30 3263 H 309.197 1.94683 6.67176 0
M  V30 3264 H 312.388 1.0303 4.56621 0
M  V30 3265 H 312.561 1.67164 6.26067 0
M  V30 3266 N 305.967 -1.56429 0.191757 0
M  V30 3267 C 307.216 -1.9666 -0.448088 0
M  V30 3268 C 307.529 -1.08136 -1.62991 0
M  V30 3269 O 308.735 -1.38135 -2.33733 0
M  V30 3270 C 307.191 -3.49753 -0.848585 0
M  V30 3271 C 306.799 -4.46935 0.308764 0
M  V30 3272 C 308.543 -3.9876 -1.4557 0
M  V30 3273 C 306.45 -5.91293 -0.112506 0
M  V30 3274 H 305.38 -0.734312 -0.171179 0
M  V30 3275 H 308.031 -1.81301 0.283242 0
M  V30 3276 H 306.413 -3.60604 -1.63649 0
M  V30 3277 H 307.587 -4.47813 1.08627 0
M  V30 3278 H 305.902 -4.08102 0.827158 0
M  V30 3279 H 308.499 -5.04086 -1.78328 0
M  V30 3280 H 308.842 -3.42875 -2.36099 0
M  V30 3281 H 309.375 -3.9101 -0.731836 0
M  V30 3282 H 306.114 -6.51097 0.758514 0
M  V30 3283 H 305.634 -5.93676 -0.854941 0
M  V30 3284 H 307.313 -6.44663 -0.549448 0
M  V30 3285 N 307.445 0.0818655 -1.57387 0
M  V30 3286 C 308.673 0.796108 -1.9097 0
M  V30 3287 C 309.088 1.71626 -0.786757 0
M  V30 3288 O 308.445 1.80908 0.240513 0
M  V30 3289 C 308.496 1.59829 -3.24248 0
M  V30 3290 O 308.217 0.715131 -4.32224 0
M  V30 3291 C 309.718 2.41442 -3.7178 0
M  V30 3292 H 306.938 0.22691 -0.631469 0
M  V30 3293 H 309.482 0.0551439 -2.04426 0
M  V30 3294 H 307.637 2.29163 -3.12351 0
M  V30 3295 H 308.051 1.27205 -5.08841 0
M  V30 3296 H 309.525 2.932 -4.67694 0
M  V30 3297 H 310.002 3.2051 -3.00283 0
M  V30 3298 H 310.608 1.77283 -3.86589 0
M  V30 3299 N 308.923 1.53595 0.353017 0
M  V30 3300 C 310.153 1.74058 1.11299 0
M  V30 3301 C 310.561 0.475205 1.83135 0
M  V30 3302 O 309.904 -0.562344 1.74881 0
M  V30 3303 C 309.966 2.85994 2.17825 0
M  V30 3304 C 309.63 4.25923 1.65647 0
M  V30 3305 C 310.627 5.07829 1.11383 0
M  V30 3306 C 308.312 4.72377 1.7078 0
M  V30 3307 C 310.306 6.34285 0.629439 0
M  V30 3308 C 307.993 5.98808 1.21953 0
M  V30 3309 C 308.991 6.79594 0.681265 0
M  V30 3310 O 308.679 8.03651 0.200248 0
M  V30 3311 H 308.411 0.585327 0.338183 0
M  V30 3312 H 310.965 2.01186 0.413927 0
M  V30 3313 H 309.195 2.54368 2.91262 0
M  V30 3314 H 310.884 2.94515 2.79313 0
M  V30 3315 H 311.65 4.73107 1.06746 0
M  V30 3316 H 307.529 4.0956 2.11617 0
M  V30 3317 H 311.073 6.97288 0.208636 0
M  V30 3318 H 306.97 6.33026 1.26287 0
M  V30 3319 H 307.738 8.1788 0.318416 0
M  V30 3320 N 310.401 -0.613514 1.45168 0
M  V30 3321 C 311.348 -1.72456 1.53387 0
M  V30 3322 C 312.318 -1.6169 0.380191 0
M  V30 3323 O 313.503 -1.81356 0.592836 0
M  V30 3324 C 310.643 -3.10753 1.50088 0
M  V30 3325 C 309.756 -3.32368 2.75963 0
M  V30 3326 C 308.891 -4.60737 2.64376 0
M  V30 3327 C 307.93 -4.7559 3.85332 0
M  V30 3328 N 307.067 -5.95253 3.72315 0
M  V30 3329 H 311.907 -1.64768 2.48305 0
M  V30 3330 H 309.444 -0.803503 1.23216 0
M  V30 3331 H 311.402 -3.90758 1.46164 0
M  V30 3332 H 310.032 -3.17413 0.587243 0
M  V30 3333 H 309.084 -2.4618 2.89999 0
M  V30 3334 H 310.396 -3.39218 3.65695 0
M  V30 3335 H 309.55 -5.48928 2.58385 0
M  V30 3336 H 308.289 -4.56275 1.72233 0
M  V30 3337 H 307.294 -3.85824 3.91688 0
M  V30 3338 H 308.519 -4.81854 4.78533 0
M  V30 3339 H 306.465 -5.91847 2.82937 0
M  V30 3340 H 306.382 -6.03236 4.55677 0
M  V30 3341 H 307.65 -6.85958 3.70246 0
M  V30 3342 N 311.879 -1.3236 -0.855495 0
M  V30 3343 C 312.827 -1.2118 -1.9854 0
M  V30 3344 C 313.821 -0.116788 -1.68997 0
M  V30 3345 O 315.027 -0.279657 -1.77814 0
M  V30 3346 H 311.402 -0.375608 -0.651477 0
M  V30 3347 H 313.373 -2.16743 -2.05098 0
M  V30 3348 C 312.122 -0.950849 -3.34446 0
M  V30 3349 H 311.445 -1.78563 -3.57708 0
M  V30 3350 H 312.885 -0.912863 -4.14057 0
M  V30 3351 C 311.344 0.346404 -3.35114 0
M  V30 3352 O 311.874 1.35855 -3.7803 0
M  V30 3353 N 310.08 0.36808 -2.88259 0
M  V30 3354 H 309.627 -0.456102 -2.5353 0
M  V30 3355 H 309.585 1.23591 -2.89089 0
M  V30 3356 N 313.357 1.07166 -1.15556 0
M  V30 3357 C 314.634 1.76546 -0.842069 0
M  V30 3358 C 315.014 2.00453 0.661939 0
M  V30 3359 O 314.362 1.62452 1.60691 0
M  V30 3360 C 314.572 3.07266 -1.65495 0
M  V30 3361 C 315.92 3.81578 -1.86234 0
M  V30 3362 O 316.944 3.17083 -1.62287 0
M  V30 3363 O 315.803 4.97419 -2.26355 0
M  V30 3364 H 312.897 0.766756 -0.309862 0
M  V30 3365 H 315.443 1.13514 -1.26145 0
M  V30 3366 H 314.215 2.85494 -2.67598 0
M  V30 3367 H 313.838 3.7803 -1.23203 0
M  V30 3368 N 314.835 0.952656 1.25548 0
M  V30 3369 C 315.798 0.475794 2.24207 0
M  V30 3370 C 316.798 -0.419428 1.55234 0
M  V30 3371 O 317.988 -0.216994 1.72843 0
M  V30 3372 C 315.12 -0.312814 3.39462 0
M  V30 3373 H 316.313 1.34779 2.67908 0
M  V30 3374 H 313.866 0.735739 1.37901 0
M  V30 3375 H 314.601 -1.20257 3.01179 0
M  V30 3376 H 314.386 0.329404 3.90714 0
M  V30 3377 H 315.876 -0.635986 4.12729 0
M  V30 3378 N 316.313 -1.40141 0.720998 0
M  V30 3379 C 317.543 -2.04798 0.27226 0
M  V30 3380 C 317.951 -1.54442 -1.09289 0
M  V30 3381 O 317.294 -0.698342 -1.69908 0
M  V30 3382 C 317.356 -3.59048 0.18027 0
M  V30 3383 C 317.02 -4.32317 1.48159 0
M  V30 3384 C 318.017 -4.59902 2.42458 0
M  V30 3385 C 315.702 -4.71125 1.74202 0
M  V30 3386 C 317.696 -5.25288 3.61042 0
M  V30 3387 C 315.383 -5.36242 2.93066 0
M  V30 3388 C 316.381 -5.63254 3.86308 0
M  V30 3389 O 316.069 -6.27024 5.03086 0
M  V30 3390 H 315.801 -0.665419 0.119139 0
M  V30 3391 H 318.355 -1.80436 0.981432 0
M  V30 3392 H 316.585 -3.82251 -0.58489 0
M  V30 3393 H 318.274 -4.05221 -0.234618 0
M  V30 3394 H 319.04 -4.30379 2.23604 0
M  V30 3395 H 314.919 -4.49466 1.02477 0
M  V30 3396 H 318.463 -5.46289 4.33837 0
M  V30 3397 H 314.36 -5.65185 3.11826 0
M  V30 3398 H 315.128 -6.4552 5.03235 0
M  V30 3399 N 317.792 -0.46758 -1.50504 0
M  V30 3400 C 318.722 0.318381 -2.31319 0
M  V30 3401 C 319.703 0.993564 -1.38066 0
M  V30 3402 O 320.888 0.991411 -1.66987 0
M  V30 3403 C 318.018 1.40275 -3.17711 0
M  V30 3404 C 316.972 0.849373 -4.19487 0
M  V30 3405 C 316.298 2.03177 -4.94594 0
M  V30 3406 C 317.598 -0.136942 -5.2212 0
M  V30 3407 H 319.292 -0.356106 -2.97275 0
M  V30 3408 H 316.838 -0.172703 -1.42961 0
M  V30 3409 H 318.791 1.96004 -3.73042 0
M  V30 3410 H 317.515 2.10596 -2.49634 0
M  V30 3411 H 316.174 0.314076 -3.65252 0
M  V30 3412 H 315.822 2.72187 -4.22993 0
M  V30 3413 H 315.522 1.66774 -5.63436 0
M  V30 3414 H 317.046 2.59403 -5.52759 0
M  V30 3415 H 318.46 0.331056 -5.72343 0
M  V30 3416 H 316.857 -0.41507 -5.98663 0
M  V30 3417 H 317.927 -1.06398 -4.73083 0
M  V30 3418 N 319.27 1.56325 -0.20005 0
M  V30 3419 C 320.2 2.22318 0.713916 0
M  V30 3420 C 321.181 1.18788 1.21752 0
M  V30 3421 O 322.366 1.47309 1.26545 0
M  V30 3422 C 319.496 2.88639 1.93144 0
M  V30 3423 C 318.45 3.98457 1.56255 0
M  V30 3424 C 317.776 4.51967 2.85709 0
M  V30 3425 C 319.076 5.16612 0.768747 0
M  V30 3426 H 320.77 2.98952 0.163755 0
M  V30 3427 H 318.316 1.43792 0.0773219 0
M  V30 3428 H 320.269 3.33491 2.57608 0
M  V30 3429 H 318.993 2.09419 2.50621 0
M  V30 3430 H 317.652 3.54305 0.941471 0
M  V30 3431 H 317.3 3.69503 3.41287 0
M  V30 3432 H 317 5.26071 2.6177 0
M  V30 3433 H 318.524 4.99523 3.51154 0
M  V30 3434 H 319.938 5.57977 1.3166 0
M  V30 3435 H 318.335 5.96812 0.627286 0
M  V30 3436 H 319.405 4.84358 -0.229168 0
M  V30 3437 N 320.748 -0.0735177 1.57428 0
M  V30 3438 C 321.68 -1.11423 2.00294 0
M  V30 3439 C 322.693 -1.35084 0.908637 0
M  V30 3440 O 323.882 -1.33355 1.18654 0
M  V30 3441 C 320.982 -2.46548 2.32523 0
M  V30 3442 C 320.155 -2.42867 3.63778 0
M  V30 3443 C 319.214 -3.60087 3.83697 0
M  V30 3444 O 318.24 -3.41595 4.55304 0
M  V30 3445 N 319.442 -4.80372 3.25919 0
M  V30 3446 H 322.207 -0.749206 2.90184 0
M  V30 3447 H 319.768 -0.262195 1.59763 0
M  V30 3448 H 321.76 -3.23607 2.43024 0
M  V30 3449 H 320.33 -2.75059 1.48531 0
M  V30 3450 H 319.55 -1.51206 3.64047 0
M  V30 3451 H 320.838 -2.37506 4.49965 0
M  V30 3452 H 320.236 -4.983 2.67795 0
M  V30 3453 H 318.793 -5.54948 3.41871 0
M  V30 3454 N 322.226 -1.5378 -0.344866 0
M  V30 3455 C 323.474 -1.70625 -1.08311 0
M  V30 3456 C 323.795 -0.471447 -1.89215 0
M  V30 3457 O 323.065 0.514616 -1.8902 0
M  V30 3458 H 321.645 -0.629058 -0.402859 0
M  V30 3459 H 324.307 -1.9103 -0.386459 0
M  V30 3460 H 323.403 -2.57656 -1.76124 0
M  V30 3461 N 323.704 0.605807 -1.45491 0
M  V30 3462 C 324.634 1.72709 -1.57143 0
M  V30 3463 C 325.615 1.6476 -0.422884 0
M  V30 3464 O 326.8 1.83132 -0.646247 0
M  V30 3465 C 323.93 3.11316 -1.53948 0
M  V30 3466 C 322.884 3.34077 -2.67537 0
M  V30 3467 C 322.21 4.72975 -2.49397 0
M  V30 3468 C 323.51 3.24158 -4.09535 0
M  V30 3469 H 325.204 1.63214 -2.51001 0
M  V30 3470 H 322.75 0.78379 -1.208 0
M  V30 3471 H 324.703 3.89557 -1.60696 0
M  V30 3472 H 323.427 3.21655 -0.566205 0
M  V30 3473 H 322.086 2.58227 -2.6022 0
M  V30 3474 H 321.734 4.8005 -1.50205 0
M  V30 3475 H 321.434 4.8916 -3.25571 0
M  V30 3476 H 322.958 5.53414 -2.58002 0
M  V30 3477 H 324.372 3.92271 -4.18086 0
M  V30 3478 H 322.769 3.51872 -4.86113 0
M  V30 3479 H 323.839 2.2157 -4.31317 0
M  V30 3480 N 325.182 1.32811 0.848464 0
M  V30 3481 C 326.13 1.22231 1.97895 0
M  V30 3482 C 327.124 0.125749 1.68933 0
M  V30 3483 O 328.33 0.289083 1.77663 0
M  V30 3484 H 324.705 0.379058 0.649476 0
M  V30 3485 H 326.676 2.17828 2.03945 0
M  V30 3486 C 325.425 0.968572 3.33937 0
M  V30 3487 H 324.748 1.80458 3.56756 0
M  V30 3488 H 326.188 0.934808 4.13567 0
M  V30 3489 C 324.647 -0.328628 3.35293 0
M  V30 3490 O 325.177 -1.33848 3.78745 0
M  V30 3491 N 323.383 -0.352788 2.88451 0
M  V30 3492 H 322.93 0.469541 2.53285 0
M  V30 3493 H 322.888 -1.22057 2.89741 0
M  V30 3494 N 326.66 -1.06551 1.16123 0
M  V30 3495 C 327.909 -1.78687 0.935622 0
M  V30 3496 C 328.222 -1.88056 -0.538001 0
M  V30 3497 O 329.428 -2.56794 -0.88143 0
M  V30 3498 C 327.884 -3.21143 1.62466 0
M  V30 3499 C 327.492 -3.19949 3.13587 0
M  V30 3500 C 329.236 -3.9783 1.48092 0
M  V30 3501 C 327.143 -4.57108 3.75241 0
M  V30 3502 H 326.073 -0.669712 0.346412 0
M  V30 3503 H 328.724 -1.19534 1.39226 0
M  V30 3504 H 327.106 -3.80539 1.09572 0
M  V30 3505 H 328.28 -2.70151 3.73303 0
M  V30 3506 H 326.595 -2.5676 3.27816 0
M  V30 3507 H 329.192 -4.99217 1.91538 0
M  V30 3508 H 329.535 -4.14078 0.429507 0
M  V30 3509 H 330.068 -3.4495 1.98127 0
M  V30 3510 H 326.807 -4.46065 4.80319 0
M  V30 3511 H 326.327 -5.07111 3.20309 0
M  V30 3512 H 328.006 -5.26069 3.76644 0
M  V30 3513 N 328.138 -0.959301 -1.25041 0
M  V30 3514 C 329.048 -0.489994 -2.29426 0
M  V30 3515 C 330.064 0.444944 -1.68215 0
M  V30 3516 O 331.24 0.320046 -1.98841 0
M  V30 3517 C 328.305 0.220309 -3.45999 0
M  V30 3518 C 327.366 -0.753418 -4.22637 0
M  V30 3519 C 326.599 -0.076918 -5.33645 0
M  V30 3520 O 326.822 1.13649 -5.58963 0
M  V30 3521 O 325.756 -0.764824 -5.97021 0
M  V30 3522 H 329.582 -1.35755 -2.71669 0
M  V30 3523 H 327.167 -0.725961 -1.30576 0
M  V30 3524 H 329.049 0.619677 -4.16819 0
M  V30 3525 H 327.724 1.06296 -3.0575 0
M  V30 3526 H 326.631 -1.20308 -3.54227 0
M  V30 3527 H 327.964 -1.56423 -4.66683 0
M  V30 3528 N 329.616 1.39756 -0.72842 0
M  V30 3529 C 330.526 2.34444 -0.0855374 0
M  V30 3530 C 331.542 1.57976 0.729356 0
M  V30 3531 O 332.718 1.90301 0.659346 0
M  V30 3532 C 329.783 3.36965 0.815798 0
M  V30 3533 C 328.844 4.29299 -0.0105996 0
M  V30 3534 C 328.077 5.26923 0.84781 0
M  V30 3535 O 328.3 5.30859 2.08673 0
M  V30 3536 O 327.234 6.01249 0.279969 0
M  V30 3537 H 331.06 2.91065 -0.866892 0
M  V30 3538 H 328.645 1.4117 -0.48902 0
M  V30 3539 H 330.527 3.99804 1.33171 0
M  V30 3540 H 329.202 2.82739 1.57608 0
M  V30 3541 H 328.109 3.69703 -0.571877 0
M  V30 3542 H 329.442 4.86712 -0.73295 0
M  V30 3543 N 331.094 0.475555 1.50254 0
M  V30 3544 C 332.024 -0.30611 2.31485 0
M  V30 3545 C 333.005 -0.986228 1.38591 0
M  V30 3546 O 334.19 -0.982541 1.67511 0
M  V30 3547 C 331.32 -1.38588 3.1845 0
M  V30 3548 C 330.274 -0.827115 4.19932 0
M  V30 3549 C 329.6 -2.00551 4.95665 0
M  V30 3550 C 330.9 0.16463 5.2204 0
M  V30 3551 H 332.594 0.371866 2.97082 0
M  V30 3552 H 330.14 0.180282 1.42867 0
M  V30 3553 H 332.093 -1.94023 3.74076 0
M  V30 3554 H 330.817 -2.09269 2.50747 0
M  V30 3555 H 329.476 -0.294702 3.65414 0
M  V30 3556 H 329.124 -2.6994 4.2443 0
M  V30 3557 H 328.824 -1.63784 5.64313 0
M  V30 3558 H 330.348 -2.56468 5.54127 0
M  V30 3559 H 331.762 -0.300699 5.72511 0
M  V30 3560 H 330.159 0.446813 5.98434 0
M  V30 3561 H 331.229 1.08905 4.72512 0
M  V30 3562 N 332.573 -1.56217 0.208337 0
M  V30 3563 C 333.803 -2.02043 -0.431523 0
M  V30 3564 C 334.211 -1.08755 -1.54819 0
M  V30 3565 O 333.554 -0.0870009 -1.83494 0
M  V30 3566 C 333.616 -3.44239 -1.03633 0
M  V30 3567 C 333.28 -4.56965 -0.0567502 0
M  V30 3568 C 334.277 -5.14624 0.738773 0
M  V30 3569 C 331.962 -5.02266 0.0581736 0
M  V30 3570 C 333.956 -6.16045 1.63605 0
M  V30 3571 C 331.643 -6.03528 0.959001 0
M  V30 3572 C 332.641 -6.60293 1.7465 0
M  V30 3573 O 332.329 -7.59586 2.6322 0
M  V30 3574 H 332.061 -0.666772 -0.111313 0
M  V30 3575 H 334.615 -2.02919 0.318277 0
M  V30 3576 H 332.845 -3.40391 -1.83497 0
M  V30 3577 H 334.534 -3.73793 -1.58221 0
M  V30 3578 H 335.3 -4.80483 0.660364 0
M  V30 3579 H 331.179 -4.57771 -0.544633 0
M  V30 3580 H 334.723 -6.60279 2.25116 0
M  V30 3581 H 330.62 -6.37092 1.03848 0
M  V30 3582 H 331.388 -7.77057 2.57148 0
M  V30 3583 N 334.051 0.0651679 -1.57465 0
M  V30 3584 C 335.462 0.616213 -1.76238 0
M  V30 3585 C 335.813 1.7756 -0.834689 0
M  V30 3586 O 334.938 2.1639 -0.0204156 0
M  V30 3587 C 335.533 1.12462 -3.1959 0
M  V30 3588 C 334.092 1.62147 -3.39684 0
M  V30 3589 C 333.239 0.543739 -2.71917 0
M  V30 3590 H 336.19 -0.161022 -1.57881 0
M  V30 3591 H 336.211 1.99324 -3.24114 0
M  V30 3592 H 335.723 0.280592 -3.87084 0
M  V30 3593 H 333.824 2.48854 -2.77313 0
M  V30 3594 H 333.937 1.69385 -4.48158 0
M  V30 3595 H 332.301 0.990352 -2.34657 0
M  V30 3596 H 333.084 -0.290216 -3.42071 0
M  V30 3597 N 335.529 1.53961 0.336706 0
M  V30 3598 C 336.439 1.85432 1.43708 0
M  V30 3599 C 337.455 0.745053 1.57242 0
M  V30 3600 O 338.631 1.03804 1.72588 0
M  V30 3601 C 335.696 2.06349 2.78605 0
M  V30 3602 C 334.757 3.30191 2.74358 0
M  V30 3603 C 333.99 3.50101 4.02822 0
M  V30 3604 O 334.213 2.7371 5.00439 0
M  V30 3605 O 333.147 4.43547 4.06878 0
M  V30 3606 H 336.973 2.78975 1.20028 0
M  V30 3607 H 334.558 1.39701 0.52952 0
M  V30 3608 H 336.44 2.21513 3.58483 0
M  V30 3609 H 335.115 1.15995 3.02203 0
M  V30 3610 H 334.022 3.20425 1.93078 0
M  V30 3611 H 335.355 4.2056 2.55715 0
M  V30 3612 N 337.007 -0.598083 1.45811 0
M  V30 3613 C 338.235 -1.38322 1.53866 0
M  V30 3614 C 338.65 -1.87992 0.174479 0
M  V30 3615 O 338.007 -1.62756 -0.825627 0
M  V30 3616 C 338.058 -2.58125 2.53089 0
M  V30 3617 O 337.779 -2.10516 3.84206 0
M  V30 3618 C 339.28 -3.50869 2.70935 0
M  V30 3619 H 336.5 -0.423093 0.520801 0
M  V30 3620 H 339.044 -0.728527 1.91083 0
M  V30 3621 H 337.199 -3.19615 2.18917 0
M  V30 3622 H 337.613 -2.88425 4.38077 0
M  V30 3623 H 339.087 -4.31451 3.44317 0
M  V30 3624 H 339.564 -4.01822 1.77301 0
M  V30 3625 H 340.17 -2.95225 3.06141 0
M  V30 3626 N 338.485 -1.33259 -0.841409 0
M  V30 3627 C 339.71 -1.2775 -1.63385 0
M  V30 3628 C 340.135 0.149188 -1.87507 0
M  V30 3629 O 339.493 1.10498 -1.43736 0
M  V30 3630 C 339.541 -2.05571 -2.96265 0
M  V30 3631 O 338.645 -1.41257 -3.87453 0
M  V30 3632 H 337.986 -0.439627 -0.497618 0
M  V30 3633 H 340.516 -1.75782 -1.04699 0
M  V30 3634 H 340.526 -2.16241 -3.45982 0
M  V30 3635 H 339.201 -3.09309 -2.7803 0
M  V30 3636 H 337.778 -1.39217 -3.45938 0
M  V30 3637 N 339.963 1.05934 -1.16686 0
M  V30 3638 C 341.188 1.83029 -0.975455 0
M  V30 3639 C 341.613 1.82096 0.471452 0
M  V30 3640 O 340.971 1.22443 1.33706 0
M  V30 3641 C 341.019 3.27372 -1.51195 0
M  V30 3642 O 340.123 4.06054 -0.720701 0
M  V30 3643 H 339.464 0.566194 -0.346872 0
M  V30 3644 H 341.994 1.33541 -1.55009 0
M  V30 3645 H 342.004 3.78186 -1.53099 0
M  V30 3646 H 340.679 3.27366 -2.56523 0
M  V30 3647 H 339.256 3.64812 -0.772458 0
M  V30 3648 N 341.441 0.965919 1.2453 0
M  V30 3649 C 342.688 0.626831 1.92554 0
M  V30 3650 C 343.016 -0.837739 1.75534 0
M  V30 3651 O 342.271 -1.61793 1.10098 0
M  V30 3652 C 342.57 0.945428 3.44669 0
M  V30 3653 C 342.236 2.39785 3.81856 0
M  V30 3654 C 340.898 2.79483 3.91718 0
M  V30 3655 C 343.25 3.34055 4.00071 0
M  V30 3656 C 340.578 4.12496 4.1721 0
M  V30 3657 C 342.93 4.66694 4.27059 0
M  V30 3658 C 341.594 5.06172 4.3514 0
M  V30 3659 H 340.864 0.229374 0.704605 0
M  V30 3660 H 343.511 1.21707 1.4785 0
M  V30 3661 H 341.816 0.272926 3.90848 0
M  V30 3662 H 343.513 0.661484 3.95507 0
M  V30 3663 H 340.103 2.08003 3.74743 0
M  V30 3664 H 344.287 3.04571 3.91855 0
M  V30 3665 H 339.543 4.42709 4.21685 0
M  V30 3666 H 343.717 5.3971 4.40097 0
M  V30 3667 H 341.344 6.09262 4.54646 0
M  V30 3668 N 342.919 -1.39368 0.735821 0
M  V30 3669 C 344.168 -1.99733 0.281004 0
M  V30 3670 C 344.481 -1.59055 -1.13846 0
M  V30 3671 O 345.687 -2.12262 -1.69284 0
M  V30 3672 C 344.143 -3.57057 0.451462 0
M  V30 3673 C 343.751 -4.06697 1.87886 0
M  V30 3674 C 345.495 -4.2446 0.0584616 0
M  V30 3675 C 343.402 -5.56598 1.99883 0
M  V30 3676 H 342.332 -0.747163 0.101311 0
M  V30 3677 H 344.983 -1.59357 0.909819 0
M  V30 3678 H 343.365 -3.95234 -0.246263 0
M  V30 3679 H 344.539 -3.79853 2.60861 0
M  V30 3680 H 342.854 -3.5196 2.22515 0
M  V30 3681 H 345.451 -5.34549 0.127099 0
M  V30 3682 H 345.794 -4.04444 -0.986433 0
M  V30 3683 H 346.327 -3.9146 0.707374 0
M  V30 3684 H 343.066 -5.81494 3.02564 0
M  V30 3685 H 342.586 -5.85242 1.31346 0
M  V30 3686 H 344.265 -6.22022 1.78039 0
M  V30 3687 N 344.397 -0.483516 -1.5 0
M  V30 3688 C 345.625 0.0644831 -2.06799 0
M  V30 3689 C 346.04 1.32399 -1.34596 0
M  V30 3690 O 345.397 1.77626 -0.418946 0
M  V30 3691 C 345.448 0.339927 -3.59898 0
M  V30 3692 O 345.169 -0.869635 -4.29382 0
M  V30 3693 C 346.67 0.933515 -4.33359 0
M  V30 3694 H 343.89 -0.0126333 -0.670881 0
M  V30 3695 H 346.434 -0.675864 -1.93009 0
M  V30 3696 H 344.589 1.03022 -3.7345 0
M  V30 3697 H 345.003 -0.62179 -5.20801 0
M  V30 3698 H 346.477 1.07593 -5.41413 0
M  V30 3699 H 346.954 1.92685 -3.94676 0
M  V30 3700 H 347.56 0.281221 -4.24369 0
M  V30 3701 N 345.875 1.56104 -0.216619 0
M  V30 3702 C 347.105 2.02269 0.420802 0
M  V30 3703 C 347.513 1.09575 1.5424 0
M  V30 3704 O 346.856 0.0967308 1.83445 0
M  V30 3705 C 346.918 3.44784 1.01806 0
M  V30 3706 C 346.582 4.56988 0.0325154 0
M  V30 3707 C 347.579 5.14225 -0.766055 0
M  V30 3708 C 345.264 5.02228 -0.0848092 0
M  V30 3709 C 347.258 6.15169 -1.6687 0
M  V30 3710 C 344.945 6.03011 -0.990994 0
M  V30 3711 C 345.943 6.59357 -1.78149 0
M  V30 3712 O 345.631 7.58179 -2.67245 0
M  V30 3713 H 345.363 0.667353 0.107776 0
M  V30 3714 H 347.917 2.02747 -0.329034 0
M  V30 3715 H 346.147 3.41359 1.81689 0
M  V30 3716 H 347.836 3.74626 1.56237 0
M  V30 3717 H 348.602 4.80126 -0.685836 0
M  V30 3718 H 344.481 4.58054 0.520349 0
M  V30 3719 H 348.025 6.59076 -2.28615 0
M  V30 3720 H 343.922 6.36532 -1.07225 0
M  V30 3721 H 344.69 7.75682 -2.61265 0
M  V30 3722 N 347.353 -0.0568162 1.57498 0
M  V30 3723 C 348.63 -0.786954 1.79071 0
M  V30 3724 C 349.01 -1.95028 0.80792 0
M  V30 3725 O 348.358 -2.27968 -0.155858 0
M  V30 3726 C 348.568 -1.24594 3.26002 0
M  V30 3727 C 349.916 -1.67323 3.90241 0
M  V30 3728 O 350.94 -1.34124 3.29984 0
M  V30 3729 O 349.799 -2.28842 4.9628 0
M  V30 3730 H 346.893 -0.378262 0.735423 0
M  V30 3731 H 349.439 -0.035734 1.69662 0
M  V30 3732 H 348.211 -0.41423 3.89101 0
M  V30 3733 H 347.834 -2.05803 3.40192 0
M  V30 3734 N 348.832 -1.54138 -0.328536 0
M  V30 3735 C 350.08 -1.71765 -1.06496 0
M  V30 3736 C 350.401 -0.49149 -1.88704 0
M  V30 3737 O 349.671 0.494539 -1.89555 0
M  V30 3738 H 348.251 -0.633295 -0.396164 0
M  V30 3739 H 350.913 -1.91429 -0.366176 0
M  V30 3740 H 350.009 -2.5951 -1.73381 0
M  V30 3741 N 350.31 0.590341 -1.46126 0
M  V30 3742 C 351.535 1.37991 -1.54833 0
M  V30 3743 C 351.96 1.87163 -0.187506 0
M  V30 3744 O 351.318 1.61133 0.831008 0
M  V30 3745 C 351.366 2.54867 -2.55098 0
M  V30 3746 O 350.47 3.56061 -2.08073 0
M  V30 3747 H 349.811 0.411265 -0.521303 0
M  V30 3748 H 352.341 0.716819 -1.91632 0
M  V30 3749 H 352.351 3.01886 -2.74461 0
M  V30 3750 H 351.026 2.18429 -3.53923 0
M  V30 3751 H 349.603 3.15574 -1.98664 0
M  V30 3752 N 351.788 1.33704 0.83433 0
M  V30 3753 C 352.721 1.18675 1.94914 0
M  V30 3754 C 353.699 0.0811145 1.62398 0
M  V30 3755 O 354.883 0.244186 1.86912 0
M  V30 3756 C 352.01 0.821231 3.28593 0
M  V30 3757 C 351.056 1.93501 3.80079 0
M  V30 3758 S 351.889 3.54671 4.01209 0
M  V30 3759 C 353.045 3.20136 5.37833 0
M  V30 3760 H 353.278 2.13043 2.07364 0
M  V30 3761 H 350.811 1.18598 0.988624 0
M  V30 3762 H 352.769 0.617123 4.05835 0
M  V30 3763 H 351.43 -0.103927 3.13928 0
M  V30 3764 H 350.623 1.63273 4.76821 0
M  V30 3765 H 350.225 2.09601 3.09747 0
M  V30 3766 H 352.517 2.71242 6.20833 0
M  V30 3767 H 353.46 4.15975 5.73036 0
M  V30 3768 H 353.868 2.56613 5.02802 0
M  V30 3769 N 353.266 -1.05314 1.17247 0
M  V30 3770 C 354.494 -1.81971 0.984593 0
M  V30 3771 C 354.909 -1.82929 -0.467166 0
M  V30 3772 O 354.266 -1.25564 -1.32438 0
M  V30 3773 C 354.317 -3.28143 1.51672 0
M  V30 3774 O 354.038 -3.27347 2.91163 0
M  V30 3775 C 355.539 -4.21493 1.37326 0
M  V30 3776 H 352.759 -0.573455 0.348411 0
M  V30 3777 H 355.303 -1.32808 1.55506 0
M  V30 3778 H 353.458 -3.74582 0.988302 0
M  V30 3779 H 353.872 -4.18824 3.15732 0
M  V30 3780 H 355.346 -5.22043 1.79375 0
M  V30 3781 H 355.823 -4.38031 0.320169 0
M  V30 3782 H 356.429 -3.80909 1.89178 0
M  V30 3783 N 354.744 -0.972509 -1.24016 0
M  V30 3784 C 355.993 -0.632603 -1.91523 0
M  V30 3785 C 356.306 0.836641 -1.76804 0
M  V30 3786 O 357.512 1.28728 -2.39043 0
M  V30 3787 C 355.968 -1.08082 -3.43287 0
M  V30 3788 C 355.576 -2.57386 -3.66683 0
M  V30 3789 C 357.32 -0.814288 -4.16617 0
M  V30 3790 C 355.227 -2.95915 -5.12043 0
M  V30 3791 H 354.157 -0.232898 -0.717129 0
M  V30 3792 H 356.808 -1.17936 -1.40582 0
M  V30 3793 H 355.19 -0.462339 -3.93292 0
M  V30 3794 H 356.364 -3.24405 -3.27258 0
M  V30 3795 H 354.679 -2.81701 -3.06649 0
M  V30 3796 H 357.276 -1.0781 -5.23718 0
M  V30 3797 H 357.619 0.24955 -4.15551 0
M  V30 3798 H 358.152 -1.39397 -3.72577 0
M  V30 3799 H 354.891 -4.0139 -5.18234 0
M  V30 3800 H 354.411 -2.33584 -5.52448 0
M  V30 3801 H 356.09 -2.86086 -5.80314 0
M  V30 3802 N 356.222 1.38976 -0.743202 0
M  V30 3803 C 357.633 1.83123 -0.363732 0
M  V30 3804 C 357.984 1.6205 1.10609 0
M  V30 3805 O 357.109 1.11606 1.854 0
M  V30 3806 C 357.704 3.32439 -0.653408 0
M  V30 3807 C 356.263 3.74974 -0.327338 0
M  V30 3808 C 355.41 2.61878 -0.911875 0
M  V30 3809 H 358.361 1.27852 -0.940191 0
M  V30 3810 H 358.382 3.80432 0.0720031 0
M  V30 3811 H 357.894 3.47745 -1.72323 0
M  V30 3812 H 355.995 3.65252 0.736314 0
M  V30 3813 H 356.108 4.72106 -0.815631 0
M  V30 3814 H 354.472 2.52448 -0.337944 0
M  V30 3815 H 355.255 2.79987 -1.98651 0
M  V30 3816 N 357.7 0.491464 1.49741 0
M  V30 3817 C 359.111 0.0413169 1.86654 0
M  V30 3818 C 359.462 -1.36985 1.40462 0
M  V30 3819 O 358.587 -2.01917 0.778354 0
M  V30 3820 C 359.182 0.0682023 3.38731 0
M  V30 3821 C 357.741 -0.32656 3.74981 0
M  V30 3822 C 356.888 0.444888 2.73708 0
M  V30 3823 H 359.839 0.704733 1.42194 0
M  V30 3824 H 359.86 -0.729322 3.73445 0
M  V30 3825 H 359.372 1.09539 3.72321 0
M  V30 3826 H 357.473 -1.35734 3.46997 0
M  V30 3827 H 357.586 -0.013741 4.79098 0
M  V30 3828 H 355.95 -0.104062 2.54487 0
M  V30 3829 H 356.733 1.47197 3.10142 0
M  V30 3830 N 359.178 -1.55987 0.224894 0
M  V30 3831 C 360.418 -2.00293 -0.407706 0
M  V30 3832 C 360.782 -1.1093 -1.56711 0
M  V30 3833 O 361.983 -1.44597 -2.26595 0
M  V30 3834 C 360.254 -3.47675 -0.82805 0
M  V30 3835 S 361.813 -4.14 -1.45429 0
M  V30 3836 H 358.631 -0.699152 -0.129256 0
M  V30 3837 H 361.233 -1.92609 0.334967 0
M  V30 3838 H 359.937 -4.10392 0.0253964 0
M  V30 3839 H 359.468 -3.59239 -1.60345 0
M  V30 3840 H 361.483 -4.13465 -2.74337 0
M  V30 3841 N 360.656 0.0484629 -1.57525 0
M  V30 3842 C 361.886 0.754326 -1.92337 0
M  V30 3843 C 362.294 1.70443 -0.82132 0
M  V30 3844 O 361.637 1.82466 0.21254 0
M  V30 3845 C 361.699 1.58231 -3.22805 0
M  V30 3846 C 361.363 0.799074 -4.4996 0
M  V30 3847 C 362.36 0.1079 -5.19788 0
M  V30 3848 C 360.045 0.759345 -4.96527 0
M  V30 3849 C 362.039 -0.612516 -6.3445 0
M  V30 3850 C 359.726 0.0351713 -6.1109 0
M  V30 3851 C 360.724 -0.649537 -6.79904 0
M  V30 3852 O 360.412 -1.36199 -7.92278 0
M  V30 3853 H 360.144 0.218257 -0.639797 0
M  V30 3854 H 362.698 0.0159295 -2.05394 0
M  V30 3855 H 360.928 2.36406 -3.06021 0
M  V30 3856 H 362.617 2.16898 -3.43089 0
M  V30 3857 H 363.383 0.129748 -4.84826 0
M  V30 3858 H 359.262 1.28177 -4.42822 0
M  V30 3859 H 362.806 -1.14751 -6.88097 0
M  V30 3860 H 358.703 0.0113314 -6.45499 0
M  V30 3861 H 359.471 -1.27366 -8.0853 0
M  V30 3862 N 362.134 1.5431 0.320358 0
M  V30 3863 C 363.044 1.86946 1.41734 0
M  V30 3864 C 364.06 0.761689 1.56443 0
M  V30 3865 O 365.236 1.05629 1.71477 0
M  V30 3866 C 362.301 2.09293 2.76401 0
M  V30 3867 C 361.362 3.33082 2.70841 0
M  V30 3868 C 360.595 3.54353 3.99086 0
M  V30 3869 O 360.818 2.79002 4.97508 0
M  V30 3870 O 359.752 4.47838 4.0215 0
M  V30 3871 H 363.578 2.80232 1.17062 0
M  V30 3872 H 361.163 1.40255 0.514673 0
M  V30 3873 H 363.045 2.25303 3.56113 0
M  V30 3874 H 361.72 1.19194 3.00956 0
M  V30 3875 H 360.627 3.22454 1.89668 0
M  V30 3876 H 361.96 4.23249 2.5124 0
M  V30 3877 N 363.613 -0.582584 1.46437 0
M  V30 3878 C 364.841 -1.36682 1.55324 0
M  V30 3879 C 365.256 -1.87796 0.194409 0
M  V30 3880 O 364.613 -1.63623 -0.808318 0
M  V30 3881 C 364.664 -2.55426 2.55812 0
M  V30 3882 O 364.385 -2.0643 3.86417 0
M  V30 3883 C 365.886 -3.47976 2.74641 0
M  V30 3884 H 363.106 -0.417545 0.525259 0
M  V30 3885 H 365.65 -0.708219 1.91845 0
M  V30 3886 H 363.805 -3.17275 2.22295 0
M  V30 3887 H 364.219 -2.83762 4.41111 0
M  V30 3888 H 365.693 -4.27775 3.48874 0
M  V30 3889 H 366.17 -3.99919 1.81553 0
M  V30 3890 H 366.776 -2.91962 3.09255 0
M  V30 3891 N 365.091 -1.34144 -0.827227 0
M  V30 3892 C 366.054 -1.25264 -1.91942 0
M  V30 3893 C 367.054 -0.168866 -1.59911 0
M  V30 3894 O 368.244 -0.421198 -1.69031 0
M  V30 3895 C 365.376 -0.932952 -3.27885 0
M  V30 3896 H 366.569 -2.22357 -2.0124 0
M  V30 3897 H 364.122 -1.1837 -1.0207 0
M  V30 3898 H 364.857 0.0349917 -3.24281 0
M  V30 3899 H 364.642 -1.71682 -3.52516 0
M  V30 3900 H 366.132 -0.895874 -4.07877 0
M  V30 3901 N 366.569 1.04691 -1.17803 0
M  V30 3902 C 367.794 1.81984 -0.994813 0
M  V30 3903 C 368.219 1.82586 0.452112 0
M  V30 3904 O 367.577 1.23854 1.324 0
M  V30 3905 C 367.625 3.2575 -1.54659 0
M  V30 3906 O 366.729 4.05267 -0.763728 0
M  V30 3907 H 366.07 0.562483 -0.352857 0
M  V30 3908 H 368.6 1.3189 -1.56417 0
M  V30 3909 H 368.61 3.76541 -1.57102 0
M  V30 3910 H 367.285 3.24627 -2.59981 0
M  V30 3911 H 365.862 3.63972 -0.811108 0
M  V30 3912 N 368.047 0.979072 1.23499 0
M  V30 3913 C 369.293 0.6578 1.9247 0
M  V30 3914 C 369.648 -0.799746 1.74991 0
M  V30 3915 O 368.941 -1.56922 1.09937 0
M  V30 3916 C 369.135 0.981932 3.43646 0
M  V30 3917 C 368.964 2.46944 3.75831 0
M  V30 3918 C 367.734 3.13119 3.96591 0
M  V30 3919 C 369.932 3.45006 3.81412 0
M  V30 3920 N 367.914 4.51489 4.15969 0
M  V30 3921 C 369.285 4.68778 4.05768 0
M  V30 3922 C 371.34 3.39505 3.64198 0
M  V30 3923 C 370.043 5.87723 4.14697 0
M  V30 3924 C 372.069 4.57814 3.7438 0
M  V30 3925 C 371.431 5.80381 3.99171 0
M  V30 3926 H 367.53 0.291746 0.72554 0
M  V30 3927 H 370.114 1.25626 1.48749 0
M  V30 3928 H 368.285 0.412179 3.86207 0
M  V30 3929 H 370.017 0.618068 3.99953 0
M  V30 3930 H 366.772 2.63619 3.93449 0
M  V30 3931 H 367.196 5.23221 4.29615 0
M  V30 3932 H 371.838 2.45773 3.44029 0
M  V30 3933 H 369.556 6.81874 4.33675 0
M  V30 3934 H 373.142 4.55132 3.62417 0
M  V30 3935 H 372.022 6.70398 4.06861 0
M  V30 3936 N 369.525 -1.3858 0.750561 0
M  V30 3937 C 370.774 -1.99424 0.302172 0
M  V30 3938 C 371.087 -1.60254 -1.12152 0
M  V30 3939 O 372.293 -2.14046 -1.67023 0
M  V30 3940 C 370.749 -3.56558 0.489307 0
M  V30 3941 C 370.357 -4.04682 1.92189 0
M  V30 3942 C 372.101 -4.24374 0.103478 0
M  V30 3943 C 370.008 -5.54446 2.05775 0
M  V30 3944 H 368.938 -0.746046 0.10923 0
M  V30 3945 H 371.589 -1.58383 0.92667 0
M  V30 3946 H 369.971 -3.95472 -0.204329 0
M  V30 3947 H 371.145 -3.77065 2.64875 0
M  V30 3948 H 369.46 -3.4958 2.26236 0
M  V30 3949 H 372.057 -5.34384 0.183787 0
M  V30 3950 H 372.4 -4.05468 -0.943481 0
M  V30 3951 H 372.933 -3.90688 0.748854 0
M  V30 3952 H 369.672 -5.78252 3.08714 0
M  V30 3953 H 369.192 -5.83816 1.37546 0
M  V30 3954 H 370.871 -6.20099 1.84626 0
M  V30 3955 N 371.003 -0.499398 -1.49478 0
M  V30 3956 C 372.252 0.0475259 -2.01644 0
M  V30 3957 C 372.565 1.38195 -1.38425 0
M  V30 3958 O 373.771 2.01547 -1.8191 0
M  V30 3959 C 372.227 0.135164 -3.59646 0
M  V30 3960 C 371.835 -1.19252 -4.31837 0
M  V30 3961 C 373.579 0.632538 -4.19761 0
M  V30 3962 C 371.486 -1.06713 -5.81693 0
M  V30 3963 H 370.416 0.0215349 -0.753692 0
M  V30 3964 H 373.067 -0.638577 -1.7203 0
M  V30 3965 H 371.449 0.885681 -3.85969 0
M  V30 3966 H 372.623 -1.9562 -4.17216 0
M  V30 3967 H 370.938 -1.62321 -3.83459 0
M  V30 3968 H 373.535 0.743833 -5.29501 0
M  V30 3969 H 373.878 1.63098 -3.83021 0
M  V30 3970 H 374.411 -0.0613987 -3.97753 0
M  V30 3971 H 371.15 -2.03979 -6.22955 0
M  V30 3972 H 370.67 -0.344307 -5.98811 0
M  V30 3973 H 372.349 -0.745208 -6.42694 0
M  V30 3974 N 372.481 1.55866 -0.233164 0
M  V30 3975 C 373.414 2.16794 0.712442 0
M  V30 3976 C 374.392 1.1158 1.18273 0
M  V30 3977 O 375.576 1.39897 1.26337 0
M  V30 3978 C 372.703 2.75757 1.96661 0
M  V30 3979 C 371.749 3.93902 1.63533 0
M  V30 3980 S 372.582 5.30223 0.74995 0
M  V30 3981 C 373.738 5.92631 2.01343 0
M  V30 3982 H 373.971 2.96662 0.194617 0
M  V30 3983 H 371.504 1.5439 -0.0177425 0
M  V30 3984 H 373.462 3.10367 2.68668 0
M  V30 3985 H 372.123 1.9586 2.45556 0
M  V30 3986 H 371.316 4.33702 2.56747 0
M  V30 3987 H 370.918 3.60499 0.995804 0
M  V30 3988 H 373.21 6.09312 2.96219 0
M  V30 3989 H 374.153 6.88388 1.65915 0
M  V30 3990 H 374.561 5.21571 2.15925 0
M  V30 3991 N 373.959 -0.0401083 1.57549 0
M  V30 3992 C 374.907 -1.06264 2.06908 0
M  V30 3993 C 375.901 -1.38132 0.980608 0
M  V30 3994 O 377.107 -1.37167 1.16556 0
M  V30 3995 H 373.482 -0.360166 0.660139 0
M  V30 3996 H 375.453 -0.620445 2.91878 0
M  V30 3997 C 374.202 -2.35846 2.55483 0
M  V30 3998 H 373.525 -2.12183 3.38849 0
M  V30 3999 H 374.965 -3.05765 2.93741 0
M  V30 4000 C 373.424 -3.0404 1.45126 0
M  V30 4001 O 373.954 -3.93424 0.811216 0
M  V30 4002 N 372.16 -2.65184 1.18852 0
M  V30 4003 H 371.707 -1.92584 1.71083 0
M  V30 4004 H 371.665 -3.1113 0.452244 0
M  V30 4005 N 375.437 -1.54477 -0.31217 0
M  V30 4006 C 376.384 -1.84655 -1.38461 0
M  V30 4007 C 377.354 -0.694536 -1.50882 0
M  V30 4008 O 378.539 -0.942081 -1.6592 0
M  V30 4009 C 375.679 -2.0896 -2.74645 0
M  V30 4010 C 374.792 -3.36618 -2.70763 0
M  V30 4011 C 373.927 -3.50824 -3.98868 0
M  V30 4012 C 372.966 -4.72315 -3.89339 0
M  V30 4013 N 372.103 -4.83387 -5.09197 0
M  V30 4014 H 376.943 -2.76142 -1.12026 0
M  V30 4015 H 374.48 -1.36748 -0.542065 0
M  V30 4016 H 376.438 -2.21045 -3.53829 0
M  V30 4017 H 375.068 -1.20752 -2.99364 0
M  V30 4018 H 374.12 -3.33211 -1.83506 0
M  V30 4019 H 375.432 -4.25917 -2.59608 0
M  V30 4020 H 374.586 -3.62513 -4.86486 0
M  V30 4021 H 373.325 -2.59638 -4.12843 0
M  V30 4022 H 372.33 -4.6067 -3.00105 0
M  V30 4023 H 373.555 -5.64897 -3.76919 0
M  V30 4024 H 371.501 -3.9512 -5.23657 0
M  V30 4025 H 371.418 -5.66669 -5.00422 0
M  V30 4026 H 372.686 -4.9942 -5.98498 0
M  V30 4027 N 376.915 0.57481 -1.46744 0
M  V30 4028 C 378.326 1.15695 -1.46532 0
M  V30 4029 C 378.677 1.95068 -0.210425 0
M  V30 4030 O 377.802 2.05241 0.685944 0
M  V30 4031 C 378.397 2.1048 -2.65487 0
M  V30 4032 C 376.956 2.64002 -2.68291 0
M  V30 4033 C 376.103 1.40026 -2.39349 0
M  V30 4034 H 379.054 0.362325 -1.54509 0
M  V30 4035 H 379.075 2.94074 -2.41455 0
M  V30 4036 H 378.587 1.52683 -3.56805 0
M  V30 4037 H 376.688 3.25646 -1.81067 0
M  V30 4038 H 376.801 3.06197 -3.68483 0
M  V30 4039 H 375.165 1.70106 -1.89568 0
M  V30 4040 H 375.948 0.840485 -3.32852 0
M  V30 4041 N 378.394 1.34581 0.820102 0
M  V30 4042 C 379.64 1.27285 1.57881 0
M  V30 4043 C 379.973 -0.156137 1.93571 0
M  V30 4044 O 379.248 -1.10222 1.60254 0
M  V30 4045 C 379.531 2.16639 2.87645 0
M  V30 4046 C 379.384 3.68088 2.58517 0
M  V30 4047 C 380.703 2.05378 3.8924 0
M  V30 4048 H 377.822 0.463714 0.572833 0
M  V30 4049 H 380.464 1.64859 0.944539 0
M  V30 4050 H 378.614 1.84725 3.41773 0
M  V30 4051 H 380.286 4.10382 2.10676 0
M  V30 4052 H 378.529 3.89038 1.91917 0
M  V30 4053 H 379.2 4.2598 3.51063 0
M  V30 4054 H 381.676 2.33404 3.44473 0
M  V30 4055 H 380.552 2.7012 4.77835 0
M  V30 4056 H 380.813 1.0316 4.29896 0
M  V30 4057 N 379.872 -1.04064 1.18357 0
M  V30 4058 C 381.102 -1.80654 1.00238 0
M  V30 4059 C 381.51 -1.83713 -0.452362 0
M  V30 4060 O 380.853 -1.27135 -1.32599 0
M  V30 4061 C 380.915 -3.27582 1.48088 0
M  V30 4062 C 380.579 -3.48184 2.96002 0
M  V30 4063 C 381.576 -3.39372 3.93856 0
M  V30 4064 C 379.261 -3.7478 3.34433 0
M  V30 4065 C 381.255 -3.5686 5.28138 0
M  V30 4066 C 378.942 -3.91915 4.68877 0
M  V30 4067 C 379.94 -3.82956 5.65539 0
M  V30 4068 O 379.628 -3.996 6.97549 0
M  V30 4069 H 379.36 -0.575751 0.354241 0
M  V30 4070 H 381.914 -1.32044 1.57333 0
M  V30 4071 H 380.144 -3.77161 0.853588 0
M  V30 4072 H 381.833 -3.8573 1.2636 0
M  V30 4073 H 382.599 -3.18789 3.65511 0
M  V30 4074 H 378.478 -3.80852 2.59756 0
M  V30 4075 H 382.022 -3.49783 6.03571 0
M  V30 4076 H 377.919 -4.11992 4.96923 0
M  V30 4077 H 378.687 -4.1676 7.04452 0
M  V30 4078 N 381.35 -0.985608 -1.22978 0
M  V30 4079 C 382.599 -0.652881 -1.90841 0
M  V30 4080 C 382.912 0.817842 -1.77681 0
M  V30 4081 O 384.118 1.26185 -2.40395 0
M  V30 4082 C 382.574 -1.11717 -3.42122 0
M  V30 4083 C 382.182 -2.6126 -3.63933 0
M  V30 4084 C 383.926 -0.85843 -4.1573 0
M  V30 4085 C 381.833 -3.0133 -5.08876 0
M  V30 4086 H 380.763 -0.240491 -0.714619 0
M  V30 4087 H 383.414 -1.1942 -1.39324 0
M  V30 4088 H 381.796 -0.504027 -3.92779 0
M  V30 4089 H 382.97 -3.27858 -3.23799 0
M  V30 4090 H 381.285 -2.84937 -3.03644 0
M  V30 4091 H 383.882 -1.13359 -5.22546 0
M  V30 4092 H 384.225 0.205461 -4.15793 0
M  V30 4093 H 384.758 -1.43341 -3.71077 0
M  V30 4094 H 381.497 -4.06864 -5.13947 0
M  V30 4095 H 381.017 -2.3943 -5.49939 0
M  V30 4096 H 382.696 -2.92224 -5.77247 0
M  V30 4097 N 382.828 1.3818 -0.7579 0
M  V30 4098 C 384.056 2.04301 -0.326937 0
M  V30 4099 C 384.471 1.57163 1.0462 0
M  V30 4100 O 383.828 0.746626 1.66529 0
M  V30 4101 C 383.879 3.59846 -0.345363 0
M  V30 4102 O 383.6 4.05256 -1.66432 0
M  V30 4103 C 385.101 4.4319 0.098927 0
M  V30 4104 H 382.321 0.656443 -0.139012 0
M  V30 4105 H 384.865 1.76786 -1.02796 0
M  V30 4106 H 383.02 3.86182 0.306955 0
M  V30 4107 H 383.434 4.99709 -1.59345 0
M  V30 4108 H 384.908 5.51989 0.0348745 0
M  V30 4109 H 385.385 4.23947 1.14741 0
M  V30 4110 H 385.991 4.22051 -0.52468 0
M  V30 4111 N 384.306 0.507319 1.49211 0
M  V30 4112 C 385.722 0.163682 1.58758 0
M  V30 4113 C 385.922 -1.33208 1.51188 0
M  V30 4114 O 384.978 -2.10855 1.38911 0
M  V30 4115 C 386.291 0.746095 2.91297 0
M  V30 4116 C 387.839 0.712773 3.04776 0
M  V30 4117 C 388.314 1.27336 4.39943 0
M  V30 4118 N 389.805 1.23433 4.46451 0
M  V30 4119 C 390.54 1.63821 5.495 0
M  V30 4120 N 390.036 2.11832 6.5962 0
M  V30 4121 N 391.829 1.55198 5.4025 0
M  V30 4122 H 383.98 1.47972 1.52375 0
M  V30 4123 H 386.243 0.614147 0.722168 0
M  V30 4124 H 385.949 1.79534 3.02424 0
M  V30 4125 H 385.823 0.210137 3.76614 0
M  V30 4126 H 388.21 -0.327656 2.93275 0
M  V30 4127 H 388.291 1.28595 2.21127 0
M  V30 4128 H 387.935 2.3126 4.52196 0
M  V30 4129 H 387.865 0.676066 5.22242 0
M  V30 4130 H 390.356 0.882627 3.67448 0
M  V30 4131 H 390.669 2.40703 7.34358 0
M  V30 4132 H 389.014 2.1581 6.60644 0
M  V30 4133 H 392.205 1.17505 4.53112 0
M  V30 4134 H 392.378 1.86997 6.20432 0
M  V30 4135 N 385.784 -1.5574 0.241426 0
M  V30 4136 C 386.717 -2.17168 -0.700935 0
M  V30 4137 C 387.695 -1.12206 -1.1768 0
M  V30 4138 O 388.879 -1.40565 -1.25593 0
M  V30 4139 C 386.006 -2.76796 -1.95196 0
M  V30 4140 C 385.052 -3.94764 -1.61442 0
M  V30 4141 S 385.885 -5.30613 -0.72182 0
M  V30 4142 C 387.041 -5.93691 -1.98197 0
M  V30 4143 H 387.274 -2.96761 -0.178882 0
M  V30 4144 H 384.807 -1.54378 0.0259299 0
M  V30 4145 H 386.765 -3.11787 -2.67019 0
M  V30 4146 H 385.426 -1.9716 -2.44514 0
M  V30 4147 H 384.619 -4.35057 -2.54443 0
M  V30 4148 H 384.221 -3.61022 -0.976672 0
M  V30 4149 H 386.513 -6.10874 -2.92983 0
M  V30 4150 H 387.456 -6.89258 -1.62262 0
M  V30 4151 H 387.864 -5.22709 -2.13156 0
M  V30 4152 N 387.262 0.0317525 -1.57568 0
M  V30 4153 C 388.194 1.06073 -2.03178 0
M  V30 4154 C 389.207 1.32627 -0.944132 0
M  V30 4155 O 390.396 1.30162 -1.22148 0
M  V30 4156 C 387.496 2.40297 -2.38978 0
M  V30 4157 C 386.669 2.33137 -3.70089 0
M  V30 4158 C 385.728 3.49787 -3.9311 0
M  V30 4159 O 384.754 3.29403 -4.64201 0
M  V30 4160 N 385.956 4.71562 -3.38541 0
M  V30 4161 H 388.721 0.672006 -2.92069 0
M  V30 4162 H 386.282 0.219745 -1.60402 0
M  V30 4163 H 388.274 3.1705 -2.51518 0
M  V30 4164 H 386.844 2.71024 -1.55771 0
M  V30 4165 H 386.064 1.415 -3.67928 0
M  V30 4166 H 387.352 2.25493 -4.56104 0
M  V30 4167 H 386.75 4.91024 -2.80912 0
M  V30 4168 H 385.307 5.45689 -3.56464 0
M  V30 4169 N 388.74 1.54641 0.303973 0
M  V30 4170 C 389.673 1.80263 1.3993 0
M  V30 4171 C 390.651 0.653657 1.48883 0
M  V30 4172 O 391.835 0.893284 1.6599 0
M  V30 4173 C 388.962 1.9367 2.77866 0
M  V30 4174 C 388.008 3.16078 2.86351 0
M  V30 4175 S 388.841 4.74219 2.4875 0
M  V30 4176 C 389.997 4.90558 3.88721 0
M  V30 4177 H 390.23 2.72886 1.17986 0
M  V30 4178 H 387.763 1.46014 0.501918 0
M  V30 4179 H 389.721 2.0208 3.57315 0
M  V30 4180 H 388.382 1.01991 2.9708 0
M  V30 4181 H 387.575 3.22252 3.87517 0
M  V30 4182 H 387.177 3.06099 2.14893 0
M  V30 4183 H 389.469 4.74398 4.83687 0
M  V30 4184 H 390.412 5.92651 3.87518 0
M  V30 4185 H 390.82 4.18728 3.78585 0
M  V30 4186 N 390.218 -0.567019 1.47046 0
M  V30 4187 C 391.168 -1.67018 1.55207 0
M  V30 4188 C 392.152 -1.55543 0.411714 0
M  V30 4189 O 393.344 -1.64192 0.661064 0
M  V30 4190 C 390.473 -3.05801 1.56014 0
M  V30 4191 C 389.559 -3.22515 2.75399 0
M  V30 4192 N 389.95 -3.09329 4.00186 0
M  V30 4193 C 388.248 -3.53493 2.71954 0
M  V30 4194 C 388.949 -3.2847 4.80086 0
M  V30 4195 N 387.925 -3.54352 4.12233 0
M  V30 4196 H 391.727 -1.55377 2.4947 0
M  V30 4197 H 389.241 -0.771503 1.42904 0
M  V30 4198 H 391.238 -3.84996 1.59949 0
M  V30 4199 H 389.898 -3.18561 0.628396 0
M  V30 4200 H 390.909 -2.86863 4.31196 0
M  V30 4201 H 387.586 -3.7284 1.87873 0
M  V30 4202 H 388.976 -3.23326 5.88991 0
M  V30 4203 N 391.696 -1.35014 -0.812953 0
M  V30 4204 C 392.921 -1.31187 -1.60639 0
M  V30 4205 C 393.346 0.109382 -1.87782 0
M  V30 4206 O 392.704 1.07424 -1.46047 0
M  V30 4207 C 392.752 -2.11809 -2.91838 0
M  V30 4208 O 391.856 -1.49444 -3.8437 0
M  V30 4209 H 391.197 -0.450084 -0.488181 0
M  V30 4210 H 393.727 -1.77963 -1.00947 0
M  V30 4211 H 393.737 -2.23531 -3.41318 0
M  V30 4212 H 392.412 -3.15137 -2.71407 0
M  V30 4213 H 390.989 -1.46524 -3.42907 0
M  V30 4214 N 393.175 1.03435 -1.18907 0
M  V30 4215 C 394.105 2.13503 -0.945448 0
M  V30 4216 C 395.086 1.69682 0.119189 0
M  V30 4217 O 396.271 1.94169 -0.034707 0
M  V30 4218 C 393.401 3.44004 -0.477316 0
M  V30 4219 C 392.355 4.0148 -1.48316 0
M  V30 4220 C 391.681 5.27537 -0.872311 0
M  V30 4221 C 392.981 4.36921 -2.86177 0
M  V30 4222 H 394.675 2.34141 -1.86597 0
M  V30 4223 H 392.221 1.12523 -0.898584 0
M  V30 4224 H 394.174 4.20372 -0.294204 0
M  V30 4225 H 392.898 3.23072 0.478786 0
M  V30 4226 H 391.557 3.27201 -1.65332 0
M  V30 4227 H 391.205 5.02917 0.0911752 0
M  V30 4228 H 390.905 5.66954 -1.54393 0
M  V30 4229 H 392.429 6.06576 -0.699871 0
M  V30 4230 H 393.843 5.04248 -2.72776 0
M  V30 4231 H 392.24 4.87405 -3.50081 0
M  V30 4232 H 393.31 3.46466 -3.39248 0
M  V30 4233 N 394.653 0.992116 1.22453 0
M  V30 4234 C 396.069 0.702713 1.43297 0
M  V30 4235 C 396.269 -0.726909 1.87932 0
M  V30 4236 O 395.325 -1.49792 2.0327 0
M  V30 4237 C 396.638 1.70762 2.47509 0
M  V30 4238 C 398.186 1.72298 2.61309 0
M  V30 4239 C 398.661 2.71649 3.68742 0
M  V30 4240 N 400.152 2.70239 3.76199 0
M  V30 4241 C 400.887 3.43778 4.58917 0
M  V30 4242 N 400.383 4.26914 5.45633 0
M  V30 4243 N 402.176 3.32487 4.5322 0
M  V30 4244 H 394.327 1.91543 0.917871 0
M  V30 4245 H 396.59 0.826031 0.465162 0
M  V30 4246 H 396.296 2.73059 2.21657 0
M  V30 4247 H 396.17 1.49985 3.46099 0
M  V30 4248 H 398.557 0.706989 2.86506 0
M  V30 4249 H 398.638 1.97143 1.62997 0
M  V30 4250 H 398.282 3.73397 3.44292 0
M  V30 4251 H 398.212 2.44074 4.66622 0
M  V30 4252 H 400.703 2.09912 3.14237 0
M  V30 4253 H 401.016 4.79855 6.05771 0
M  V30 4254 H 399.361 4.31002 5.45218 0
M  V30 4255 H 402.552 2.6698 3.84499 0
M  V30 4256 H 402.725 3.90058 5.17454 0
M  V30 4257 N 396.131 -1.37776 0.765217 0
M  V30 4258 C 397.061 -2.32945 0.160953 0
M  V30 4259 C 398.042 -1.55454 -0.690516 0
M  V30 4260 O 399.227 -1.83721 -0.629318 0
M  V30 4261 C 396.357 -3.39669 -0.724031 0
M  V30 4262 C 395.311 -4.27992 0.0256173 0
M  V30 4263 C 394.637 -5.25673 -0.978383 0
M  V30 4264 C 395.937 -5.08309 1.20082 0
M  V30 4265 H 397.631 -2.83728 0.955969 0
M  V30 4266 H 395.177 -1.36416 0.461149 0
M  V30 4267 H 397.13 -4.05219 -1.15652 0
M  V30 4268 H 395.854 -2.87396 -1.5515 0
M  V30 4269 H 394.513 -3.63964 0.438812 0
M  V30 4270 H 394.161 -4.69682 -1.80022 0
M  V30 4271 H 393.861 -5.85625 -0.481378 0
M  V30 4272 H 395.385 -5.94098 -1.40995 0
M  V30 4273 H 396.799 -5.67034 0.845307 0
M  V30 4274 H 395.196 -5.77554 1.62947 0
M  V30 4275 H 396.266 -4.41365 2.00811 0
M  V30 4276 N 397.609 -0.515225 -1.4894 0
M  V30 4277 C 398.539 0.244628 -2.32215 0
M  V30 4278 C 399.52 0.949136 -1.41157 0
M  V30 4279 O 400.705 0.937783 -1.70057 0
M  V30 4280 C 397.835 1.30096 -3.22013 0
M  V30 4281 C 396.789 0.715486 -4.21977 0
M  V30 4282 C 396.115 1.87339 -5.00808 0
M  V30 4283 C 397.415 -0.302982 -5.2142 0
M  V30 4284 H 399.109 -0.450501 -2.95991 0
M  V30 4285 H 396.655 -0.218098 -1.42339 0
M  V30 4286 H 398.608 1.84037 -3.79089 0
M  V30 4287 H 397.332 2.02547 -2.56207 0
M  V30 4288 H 395.991 0.197715 -3.66066 0
M  V30 4289 H 395.639 2.58592 -4.31438 0
M  V30 4290 H 395.339 1.48764 -5.68457 0
M  V30 4291 H 396.863 2.41686 -5.60732 0
M  V30 4292 H 398.277 0.148802 -5.73107 0
M  V30 4293 H 396.674 -0.60532 -5.97039 0
M  V30 4294 H 397.744 -1.21395 -4.69459 0
M  V30 4295 N 399.087 1.5561 -0.249682 0
M  V30 4296 C 400.312 2.03865 0.381305 0
M  V30 4297 C 400.737 1.12769 1.50548 0
M  V30 4298 O 400.095 0.121189 1.80895 0
M  V30 4299 C 400.143 3.50101 0.863816 0
M  V30 4300 O 399.247 3.62132 1.97318 0
M  V30 4301 H 398.588 0.658827 0.0827194 0
M  V30 4302 H 401.118 2.01105 -0.376552 0
M  V30 4303 H 401.128 3.90975 1.1663 0
M  V30 4304 H 399.803 4.1588 0.0411816 0
M  V30 4305 H 398.38 3.33155 1.67517 0
M  V30 4306 N 400.565 -0.0233959 1.57583 0
M  V30 4307 C 401.497 -1.04994 2.03737 0
M  V30 4308 C 402.51 -1.32125 0.951152 0
M  V30 4309 O 403.699 -1.29512 1.22837 0
M  V30 4310 C 400.799 -2.39026 2.40249 0
M  V30 4311 C 399.972 -2.31171 3.7132 0
M  V30 4312 C 399.031 -3.47698 3.94959 0
M  V30 4313 O 398.057 -3.26937 4.65941 0
M  V30 4314 N 399.259 -4.6976 3.41037 0
M  V30 4315 H 402.024 -0.656507 2.92421 0
M  V30 4316 H 399.585 -0.211235 1.60516 0
M  V30 4317 H 401.577 -3.15712 2.53196 0
M  V30 4318 H 400.147 -2.70194 1.57207 0
M  V30 4319 H 399.367 -1.39547 3.68674 0
M  V30 4320 H 400.655 -2.23071 4.57293 0
M  V30 4321 H 400.053 -4.89528 2.83512 0
M  V30 4322 H 398.61 -5.43791 3.59353 0
M  V30 4323 N 402.043 -1.548 -0.295768 0
M  V30 4324 C 402.991 -1.86874 -1.38495 0
M  V30 4325 C 403.985 -0.742938 -1.52239 0
M  V30 4326 O 405.191 -0.926999 -1.54294 0
M  V30 4327 H 401.566 -0.592786 -0.462719 0
M  V30 4328 H 403.537 -2.77904 -1.08682 0
M  V30 4329 C 402.286 -2.13732 -2.74252 0
M  V30 4330 H 401.609 -2.99835 -2.64459 0
M  V30 4331 H 403.049 -2.4011 -3.49461 0
M  V30 4332 C 401.508 -0.937539 -3.23592 0
M  V30 4333 O 402.038 -0.160665 -4.01379 0
M  V30 4334 N 400.244 -0.741478 -2.80981 0
M  V30 4335 H 399.791 -1.37489 -2.1784 0
M  V30 4336 H 399.749 0.0597103 -3.14343 0
M  V30 4337 N 403.521 0.559213 -1.47345 0
M  V30 4338 C 404.453 1.68161 -1.55738 0
M  V30 4339 C 405.466 1.56636 -0.443744 0
M  V30 4340 O 406.655 1.6363 -0.713258 0
M  V30 4341 C 403.755 3.06611 -1.4437 0
M  V30 4342 C 402.928 3.4391 -2.70268 0
M  V30 4343 C 401.987 4.61515 -2.52765 0
M  V30 4344 O 401.013 4.66197 -3.26572 0
M  V30 4345 N 402.215 5.57883 -1.6046 0
M  V30 4346 H 404.98 1.61408 -2.52522 0
M  V30 4347 H 402.541 0.7458 -1.43699 0
M  V30 4348 H 404.533 3.83117 -1.30398 0
M  V30 4349 H 403.103 3.07602 -0.556766 0
M  V30 4350 H 402.323 2.56873 -2.99015 0
M  V30 4351 H 403.611 3.65605 -3.53851 0
M  V30 4352 H 403.009 5.56855 -0.996422 0
M  V30 4353 H 401.566 6.33723 -1.52441 0
M  V30 4354 N 404.999 1.35443 0.805782 0
M  V30 4355 C 406.41 1.25768 1.37983 0
M  V30 4356 C 406.761 -0.10958 1.95894 0
M  V30 4357 O 405.886 -1.01056 1.91355 0
M  V30 4358 C 406.481 2.27727 2.5085 0
M  V30 4359 C 405.04 2.2179 3.04115 0
M  V30 4360 C 404.187 2.13393 1.77084 0
M  V30 4361 H 407.138 1.4656 0.608752 0
M  V30 4362 H 407.159 1.90422 3.29424 0
M  V30 4363 H 406.671 3.27227 2.08671 0
M  V30 4364 H 404.772 1.25703 3.50756 0
M  V30 4365 H 404.885 3.13788 3.62042 0
M  V30 4366 H 403.249 1.59384 1.98668 0
M  V30 4367 H 404.032 3.14755 1.37056 0
M  V30 4368 N 406.477 -1.02803 1.19454 0
M  V30 4369 C 407.702 -1.80378 1.02364 0
M  V30 4370 C 408.127 -1.83282 -0.423007 0
M  V30 4371 O 407.485 -1.25945 -1.30413 0
M  V30 4372 C 407.533 -3.23248 1.59821 0
M  V30 4373 O 406.637 -4.04 0.828105 0
M  V30 4374 H 405.978 -0.556799 0.361761 0
M  V30 4375 H 408.508 -1.29385 1.58495 0
M  V30 4376 H 408.518 -3.73994 1.63073 0
M  V30 4377 H 407.193 -3.2045 2.65113 0
M  V30 4378 H 405.77 -3.62635 0.86891 0
M  V30 4379 N 407.956 -0.998596 -1.21925 0
M  V30 4380 C 408.888 -0.511879 -2.23411 0
M  V30 4381 C 409.901 0.396094 -1.57908 0
M  V30 4382 O 411.09 0.197316 -1.77406 0
M  V30 4383 C 408.19 0.276802 -3.37768 0
M  V30 4384 C 407.363 -0.628687 -4.32858 0
M  V30 4385 C 406.422 0.109272 -5.26087 0
M  V30 4386 O 405.448 -0.507237 -5.66935 0
M  V30 4387 N 406.65 1.38983 -5.63617 0
M  V30 4388 H 409.415 -1.38457 -2.658 0
M  V30 4389 H 406.976 -0.873981 -1.36283 0
M  V30 4390 H 408.968 0.77928 -3.97126 0
M  V30 4391 H 407.538 1.05063 -2.94415 0
M  V30 4392 H 406.758 -1.31175 -3.71735 0
M  V30 4393 H 408.046 -1.24514 -4.93329 0
M  V30 4394 H 407.444 1.91194 -5.32411 0
M  V30 4395 H 406.001 1.83739 -6.25367 0
M  V30 4396 N 409.434 1.37368 -0.772513 0
M  V30 4397 C 410.683 1.98918 -0.333861 0
M  V30 4398 C 410.996 1.62017 1.09589 0
M  V30 4399 O 412.202 2.16676 1.63596 0
M  V30 4400 C 410.658 3.55735 -0.545971 0
M  V30 4401 C 410.266 4.01573 -1.98603 0
M  V30 4402 C 412.01 4.24156 -0.170979 0
M  V30 4403 C 409.917 5.51102 -2.1457 0
M  V30 4404 H 408.847 0.744214 -0.121085 0
M  V30 4405 H 411.498 1.56888 -0.95175 0
M  V30 4406 H 409.88 3.95748 0.141387 0
M  V30 4407 H 411.054 3.72803 -2.7084 0
M  V30 4408 H 409.369 3.45937 -2.31769 0
M  V30 4409 H 411.966 5.34024 -0.26878 0
M  V30 4410 H 412.309 4.06917 0.878855 0
M  V30 4411 H 412.842 3.89447 -0.810914 0
M  V30 4412 H 409.581 5.73268 -3.17875 0
M  V30 4413 H 409.101 5.81554 -1.46817 0
M  V30 4414 H 410.78 6.17083 -1.94468 0
M  V30 4415 N 410.912 0.523116 1.48665 0
M  V30 4416 C 412.159 -0.0134763 2.02496 0
M  V30 4417 C 412.487 -1.3493 1.40086 0
M  V30 4418 O 411.742 -1.88286 0.533567 0
M  V30 4419 C 412.041 -0.191671 3.56886 0
M  V30 4420 C 411.707 1.06893 4.38046 0
M  V30 4421 C 410.369 1.41443 4.59943 0
M  V30 4422 C 412.721 1.90584 4.85106 0
M  V30 4423 C 410.049 2.59594 5.26144 0
M  V30 4424 C 412.401 3.07907 5.52609 0
M  V30 4425 C 411.065 3.42811 5.72745 0
M  V30 4426 H 410.335 -0.00493133 0.740984 0
M  V30 4427 H 412.982 0.687751 1.78724 0
M  V30 4428 H 411.287 -0.97561 3.79459 0
M  V30 4429 H 412.984 -0.621659 3.96152 0
M  V30 4430 H 409.574 0.789848 4.21259 0
M  V30 4431 H 413.758 1.65203 4.67997 0
M  V30 4432 H 409.014 2.86847 5.39934 0
M  V30 4433 H 413.188 3.73066 5.88043 0
M  V30 4434 H 410.815 4.34462 6.23816 0
M  V30 4435 N 412.39 -1.55475 0.257931 0
M  V30 4436 C 413.32 -2.24815 -0.630912 0
M  V30 4437 C 414.301 -1.23224 -1.17259 0
M  V30 4438 O 415.486 -1.51904 -1.20991 0
M  V30 4439 C 412.616 -2.95609 -1.82298 0
M  V30 4440 C 411.57 -4.03982 -1.41359 0
M  V30 4441 C 410.896 -4.6226 -2.68738 0
M  V30 4442 C 412.196 -5.19109 -0.57648 0
M  V30 4443 H 413.89 -2.99354 -0.0526878 0
M  V30 4444 H 411.436 -1.4398 -0.023901 0
M  V30 4445 H 413.389 -3.42822 -2.45054 0
M  V30 4446 H 412.113 -2.18577 -2.42676 0
M  V30 4447 H 410.772 -3.57555 -0.809324 0
M  V30 4448 H 410.42 -3.81915 -3.27338 0
M  V30 4449 H 410.12 -5.35424 -2.42065 0
M  V30 4450 H 411.644 -5.12212 -3.32372 0
M  V30 4451 H 413.058 -5.62479 -1.10861 0
M  V30 4452 H 411.455 -5.98729 -0.405351 0
M  V30 4453 H 412.525 -4.83174 0.408776 0
M  V30 4454 N 413.868 0.0150385 -1.57593 0
M  V30 4455 C 415.093 0.718067 -1.94573 0
M  V30 4456 C 415.518 1.6734 -0.859005 0
M  V30 4457 O 414.876 1.80362 0.184147 0
M  V30 4458 C 414.924 1.43918 -3.30636 0
M  V30 4459 O 414.028 2.55299 -3.23876 0
M  V30 4460 H 413.369 0.192125 -0.635597 0
M  V30 4461 H 415.899 -0.0336708 -2.04572 0
M  V30 4462 H 415.909 1.80598 -3.65853 0
M  V30 4463 H 414.584 0.738619 -4.09289 0
M  V30 4464 H 413.161 2.21058 -3.00312 0
M  V30 4465 N 415.346 1.54954 0.287554 0
M  V30 4466 C 416.279 1.81737 1.3801 0
M  V30 4467 C 417.257 0.669412 1.48181 0
M  V30 4468 O 418.441 0.910839 1.65033 0
M  V30 4469 C 415.568 1.96606 2.75796 0
M  V30 4470 C 414.614 3.19098 2.82982 0
M  V30 4471 S 415.447 4.7683 2.43707 0
M  V30 4472 C 416.603 4.94653 3.83496 0
M  V30 4473 H 416.836 2.74122 1.15085 0
M  V30 4474 H 414.369 1.46538 0.486403 0
M  V30 4475 H 416.327 2.05858 3.55152 0
M  V30 4476 H 414.988 1.05136 2.95982 0
M  V30 4477 H 414.181 3.26344 3.84077 0
M  V30 4478 H 413.783 3.08361 2.11635 0
M  V30 4479 H 416.075 4.79502 4.78628 0
M  V30 4480 H 417.018 5.96728 3.8121 0
M  V30 4481 H 417.426 4.2272 3.74123 0
M  V30 4482 N 416.824 -0.551391 1.4764 0
M  V30 4483 C 418.049 -1.33837 1.58437 0
M  V30 4484 C 418.474 -1.866 0.237063 0
M  V30 4485 O 417.832 -1.6328 -0.787994 0
M  V30 4486 C 417.88 -2.48014 2.61766 0
M  V30 4487 O 416.984 -3.50419 2.1744 0
M  V30 4488 H 416.325 -0.397299 0.532024 0
M  V30 4489 H 418.855 -0.665759 1.93465 0
M  V30 4490 H 418.865 -2.94503 2.82369 0
M  V30 4491 H 417.54 -2.08969 3.5959 0
M  V30 4492 H 416.117 -3.10196 2.06961 0
M  V30 4493 N 418.302 -1.35869 -0.798587 0
M  V30 4494 C 419.579 -1.20145 -1.54352 0
M  V30 4495 C 419.959 0.216161 -2.0999 0
M  V30 4496 O 419.307 1.22068 -1.93162 0
M  V30 4497 C 419.517 -2.27602 -2.64572 0
M  V30 4498 C 420.865 -2.63811 -3.32699 0
M  V30 4499 O 421.889 -2.26576 -2.74849 0
M  V30 4500 O 420.748 -3.27866 -4.37226 0
M  V30 4501 H 417.842 -0.467248 -0.682355 0
M  V30 4502 H 420.388 -1.47574 -0.837859 0
M  V30 4503 H 419.16 -3.2265 -2.21388 0
M  V30 4504 H 418.783 -2.01488 -3.42766 0
M  V30 4505 N 419.78 1.02168 -1.19998 0
M  V30 4506 C 420.728 2.12717 -0.940967 0
M  V30 4507 C 421.722 1.69069 0.105841 0
M  V30 4508 O 422.928 1.79946 -0.0440583 0
M  V30 4509 H 419.303 0.695108 -0.28693 0
M  V30 4510 H 421.274 2.3175 -1.87975 0
M  V30 4511 C 420.023 3.44027 -0.504049 0
M  V30 4512 H 419.346 3.78036 -1.30112 0
M  V30 4513 H 420.786 4.22452 -0.361991 0
M  V30 4514 C 419.245 3.27678 0.782878 0
M  V30 4515 O 419.775 3.56949 1.84256 0
M  V30 4516 N 417.981 2.80943 0.742921 0
M  V30 4517 H 417.528 2.57322 -0.119687 0
M  V30 4518 H 417.486 2.70385 1.60435 0
M  V30 4519 N 421.258 1.00505 1.21394 0
M  V30 4520 C 422.505 0.687774 1.90462 0
M  V30 4521 C 422.833 -0.78147 1.7811 0
M  V30 4522 O 422.088 -1.58208 1.1519 0
M  V30 4523 C 422.387 1.0546 3.41486 0
M  V30 4524 C 422.053 2.51812 3.74034 0
M  V30 4525 C 420.715 2.91804 3.82628 0
M  V30 4526 C 423.067 3.46614 3.8924 0
M  V30 4527 C 420.395 4.2556 4.03876 0
M  V30 4528 C 422.747 4.80044 4.11995 0
M  V30 4529 C 421.411 5.19759 4.18816 0
M  V30 4530 H 420.681 0.251674 0.696951 0
M  V30 4531 H 423.328 1.26349 1.43903 0
M  V30 4532 H 421.633 0.397133 3.89782 0
M  V30 4533 H 423.33 0.786976 3.93202 0
M  V30 4534 H 419.92 2.1982 3.67936 0
M  V30 4535 H 424.104 3.16883 3.81967 0
M  V30 4536 H 419.36 4.55901 4.07387 0
M  V30 4537 H 423.534 5.53439 4.22704 0
M  V30 4538 H 421.161 6.23418 4.35033 0
M  V30 4539 N 422.737 -1.36956 0.779787 0
M  V30 4540 C 424.153 -1.52817 0.460342 0
M  V30 4541 C 424.353 -1.7361 -1.02283 0
M  V30 4542 O 423.409 -1.76207 -1.80852 0
M  V30 4543 C 424.722 -2.71983 1.28241 0
M  V30 4544 C 426.27 -2.85849 1.27512 0
M  V30 4545 C 426.745 -4.08008 2.08072 0
M  V30 4546 N 428.236 -4.15135 2.05467 0
M  V30 4547 C 428.971 -5.08711 2.64577 0
M  V30 4548 N 428.467 -6.07792 3.32506 0
M  V30 4549 N 430.26 -5.01254 2.54363 0
M  V30 4550 H 422.411 -1.21713 1.74068 0
M  V30 4551 H 424.674 -0.593294 0.739396 0
M  V30 4552 H 424.38 -2.63109 2.33381 0
M  V30 4553 H 424.254 -3.65882 0.917088 0
M  V30 4554 H 426.641 -2.94189 0.231686 0
M  V30 4555 H 426.722 -1.92886 1.68014 0
M  V30 4556 H 426.366 -4.00429 3.12441 0
M  V30 4557 H 426.296 -5.001 1.64947 0
M  V30 4558 H 428.787 -3.44189 1.5602 0
M  V30 4559 H 429.1 -6.75739 3.74963 0
M  V30 4560 H 427.445 -6.08047 3.36606 0
M  V30 4561 H 430.636 -4.22795 2.00902 0
M  V30 4562 H 430.809 -5.73995 3.00722 0
M  V30 4563 N 424.215 -0.530993 -1.48385 0
M  V30 4564 C 425.626 -0.0907905 -1.86479 0
M  V30 4565 C 425.977 1.33213 -1.44044 0
M  V30 4566 O 425.102 1.99783 -0.831615 0
M  V30 4567 C 425.697 -0.157987 -3.38431 0
M  V30 4568 C 424.256 0.227026 -3.75715 0
M  V30 4569 C 423.403 -0.5173 -2.72432 0
M  V30 4570 H 426.354 -0.742186 -1.40276 0
M  V30 4571 H 426.375 0.630053 -3.75247 0
M  V30 4572 H 425.887 -1.19372 -3.69286 0
M  V30 4573 H 423.988 1.26486 -3.50474 0
M  V30 4574 H 424.101 -0.113288 -4.78966 0
M  V30 4575 H 422.465 0.0365527 -2.54674 0
M  V30 4576 H 423.248 -1.55368 -3.0613 0
M  V30 4577 N 425.693 1.55336 -0.266172 0
M  V30 4578 C 426.939 1.99692 0.353681 0
M  V30 4579 C 427.272 1.1543 1.56172 0
M  V30 4580 O 426.547 0.222218 1.93226 0
M  V30 4581 C 426.83 3.52316 0.74466 0
M  V30 4582 C 426.683 4.47337 -0.470101 0
M  V30 4583 C 428.002 4.10588 1.58447 0
M  V30 4584 H 425.121 0.725961 0.12708 0
M  V30 4585 H 427.763 1.86336 -0.371333 0
M  V30 4586 H 425.913 3.63829 1.36239 0
M  V30 4587 H 427.585 4.4778 -1.10864 0
M  V30 4588 H 425.828 4.19364 -1.10978 0
M  V30 4589 H 426.499 5.51788 -0.15291 0
M  V30 4590 H 428.975 4.02297 1.06286 0
M  V30 4591 H 427.851 5.17607 1.82686 0
M  V30 4592 H 428.112 3.60253 2.56262 0
M  V30 4593 N 427.171 -0.0066808 1.57599 0
M  V30 4594 C 428.103 -1.02827 2.04839 0
M  V30 4595 C 429.116 -1.31108 0.965113 0
M  V30 4596 O 430.305 -1.28202 1.24203 0
M  V30 4597 C 427.405 -2.36464 2.42771 0
M  V30 4598 C 426.578 -2.27219 3.73751 0
M  V30 4599 C 425.637 -3.43489 3.98625 0
M  V30 4600 O 424.663 -3.21976 4.69382 0
M  V30 4601 N 425.865 -4.66116 3.46 0
M  V30 4602 H 428.63 -0.625455 2.93101 0
M  V30 4603 H 426.191 -0.194198 1.60731 0
M  V30 4604 H 428.183 -3.13008 2.56531 0
M  V30 4605 H 426.753 -2.68512 1.60063 0
M  V30 4606 H 425.973 -1.35629 3.70133 0
M  V30 4607 H 427.261 -2.18208 4.59633 0
M  V30 4608 H 426.659 -4.86493 2.88688 0
M  V30 4609 H 425.216 -5.39949 3.65101 0
M  V30 4610 N 428.649 -1.55105 -0.279332 0
M  V30 4611 C 430.06 -1.66186 -0.850832 0
M  V30 4612 C 430.411 -0.584707 -1.87285 0
M  V30 4613 O 429.536 0.274919 -2.14647 0
M  V30 4614 C 430.131 -3.01264 -1.55001 0
M  V30 4615 C 428.69 -3.14394 -2.06963 0
M  V30 4616 C 427.837 -2.61959 -0.909536 0
M  V30 4617 H 430.788 -1.58602 -0.0558235 0
M  V30 4618 H 430.809 -2.93899 -2.41669 0
M  V30 4619 H 430.321 -3.7964 -0.805931 0
M  V30 4620 H 428.422 -2.4078 -2.84352 0
M  V30 4621 H 428.535 -4.20867 -2.28928 0
M  V30 4622 H 426.899 -2.18957 -1.30116 0
M  V30 4623 H 427.682 -3.42833 -0.179062 0
M  V30 4624 N 430.127 0.543554 -1.4793 0
M  V30 4625 C 431.057 1.65888 -1.64327 0
M  V30 4626 C 432.038 1.62818 -0.492383 0
M  V30 4627 O 433.223 1.80226 -0.723338 0
M  V30 4628 C 430.353 3.04506 -1.67013 0
M  V30 4629 C 429.307 3.2243 -2.81466 0
M  V30 4630 C 428.633 4.61972 -2.69233 0
M  V30 4631 C 429.933 3.06496 -4.22915 0
M  V30 4632 H 431.627 1.52421 -2.57698 0
M  V30 4633 H 429.173 0.731849 -1.24016 0
M  V30 4634 H 431.126 3.82391 -1.77074 0
M  V30 4635 H 429.85 3.18964 -0.70212 0
M  V30 4636 H 428.509 2.46957 -2.70938 0
M  V30 4637 H 428.157 4.73247 -1.7043 0
M  V30 4638 H 427.857 4.74911 -3.46025 0
M  V30 4639 H 429.381 5.41974 -2.81242 0
M  V30 4640 H 430.795 3.74186 -4.34348 0
M  V30 4641 H 429.192 3.30938 -5.006 0
M  V30 4642 H 430.262 2.03077 -4.40327 0
M  V30 4643 N 431.605 1.3629 0.791371 0
M  V30 4644 C 432.553 1.30514 1.92533 0
M  V30 4645 C 433.547 0.197285 1.68247 0
M  V30 4646 O 434.753 0.364176 1.76278 0
M  V30 4647 H 431.128 0.406263 0.632815 0
M  V30 4648 H 433.099 2.26282 1.94523 0
M  V30 4649 C 431.848 1.10933 3.29529 0
M  V30 4650 H 431.171 1.95427 3.48781 0
M  V30 4651 H 432.611 1.10937 4.0923 0
M  V30 4652 C 431.07 -0.186123 3.36385 0
M  V30 4653 O 431.6 -1.17664 3.84081 0
M  V30 4654 N 429.806 -0.230128 2.89687 0
M  V30 4655 H 429.353 0.576545 2.51065 0
M  V30 4656 H 429.311 -1.09658 2.94657 0
M  V30 4657 N 433.083 -1.0153 1.20538 0
M  V30 4658 C 434.031 -2.12215 0.952235 0
M  V30 4659 C 435.025 -1.69123 -0.0968735 0
M  V30 4660 O 436.231 -1.7992 0.0536006 0
M  V30 4661 H 432.606 -0.693576 0.290613 0
M  V30 4662 H 434.577 -2.3075 1.89201 0
M  V30 4663 C 433.326 -3.43755 0.522287 0
M  V30 4664 H 432.649 -3.7734 1.32115 0
M  V30 4665 H 434.089 -4.22254 0.384389 0
M  V30 4666 C 432.548 -3.28088 -0.765489 0
M  V30 4667 O 433.078 -3.57921 -1.8236 0
M  V30 4668 N 431.284 -2.81333 -0.728011 0
M  V30 4669 H 430.831 -2.57255 0.133332 0
M  V30 4670 H 430.789 -2.71232 -1.58999 0
M  V30 4671 N 434.561 -1.01147 -1.20859 0
M  V30 4672 C 435.977 -0.725422 -1.42161 0
M  V30 4673 C 436.177 0.696919 -1.89064 0
M  V30 4674 O 435.233 1.46539 -2.05627 0
M  V30 4675 C 436.546 -1.74678 -2.44761 0
M  V30 4676 C 438.094 -1.76433 -2.58535 0
M  V30 4677 C 438.569 -2.77481 -3.64374 0
M  V30 4678 N 440.06 -2.76189 -3.71852 0
M  V30 4679 C 440.795 -3.51035 -4.53389 0
M  V30 4680 N 440.291 -4.35541 -5.38773 0
M  V30 4681 N 442.084 -3.39655 -4.47873 0
M  V30 4682 H 434.235 -1.92979 -0.887282 0
M  V30 4683 H 436.498 -0.833327 -0.451962 0
M  V30 4684 H 436.204 -2.76551 -2.17285 0
M  V30 4685 H 436.078 -1.55472 -3.43669 0
M  V30 4686 H 438.465 -0.75248 -2.85345 0
M  V30 4687 H 438.546 -1.99712 -1.5984 0
M  V30 4688 H 438.19 -3.78827 -3.38308 0
M  V30 4689 H 438.12 -2.51466 -4.6268 0
M  V30 4690 H 440.611 -2.14885 -3.10858 0
M  V30 4691 H 440.924 -4.89432 -5.98061 0
M  V30 4692 H 439.269 -4.39621 -5.38292 0
M  V30 4693 H 442.46 -2.73063 -3.80203 0
M  V30 4694 H 442.633 -3.9824 -5.11184 0
M  V30 4695 N 436.039 1.36541 -0.78704 0
M  V30 4696 C 437.279 2.01138 -0.363714 0
M  V30 4697 C 437.643 1.61114 1.04433 0
M  V30 4698 O 438.844 2.18285 1.56861 0
M  V30 4699 C 437.115 3.53603 -0.519582 0
M  V30 4700 S 438.674 4.38415 -0.183782 0
M  V30 4701 H 435.492 0.697263 -0.13909 0
M  V30 4702 H 438.094 1.66475 -1.02501 0
M  V30 4703 H 436.798 3.8022 -1.5447 0
M  V30 4704 H 436.329 3.93084 0.15773 0
M  V30 4705 H 438.344 4.85698 1.01547 0
M  V30 4706 N 437.518 0.538854 1.48102 0
M  V30 4707 C 438.767 0.0059532 2.01699 0
M  V30 4708 C 439.08 -1.34476 1.42041 0
M  V30 4709 O 440.286 -1.96653 1.87189 0
M  V30 4710 C 438.742 -0.0397627 3.59878 0
M  V30 4711 C 438.35 1.30659 4.28523 0
M  V30 4712 C 440.094 -0.521024 4.2129 0
M  V30 4713 C 438.001 1.22098 5.78659 0
M  V30 4714 H 436.931 -0.00154456 0.753998 0
M  V30 4715 H 439.582 0.683963 1.70277 0
M  V30 4716 H 437.964 -0.783037 3.88181 0
M  V30 4717 H 439.138 2.06613 4.11883 0
M  V30 4718 H 437.453 1.7243 3.79021 0
M  V30 4719 H 440.05 -0.603184 5.31287 0
M  V30 4720 H 440.393 -1.52885 3.8721 0
M  V30 4721 H 440.926 0.166834 3.9745 0
M  V30 4722 H 437.665 2.20424 6.17328 0
M  V30 4723 H 437.185 0.50295 5.97688 0
M  V30 4724 H 438.864 0.915345 6.40492 0
M  V30 4725 N 438.996 -1.55193 0.274407 0
M  V30 4726 C 440.412 -1.59401 -0.0797543 0
M  V30 4727 C 440.612 -1.29162 -1.54659 0
M  V30 4728 O 439.668 -1.05215 -2.29534 0
M  V30 4729 C 440.981 -2.99257 0.294238 0
M  V30 4730 C 442.529 -3.12072 0.240796 0
M  V30 4731 C 443.004 -4.54194 0.589218 0
M  V30 4732 N 444.495 -4.60033 0.540744 0
M  V30 4733 C 445.23 -5.68027 0.783147 0
M  V30 4734 N 444.726 -6.8417 1.09013 0
M  V30 4735 N 446.519 -5.57572 0.711993 0
M  V30 4736 H 438.67 -1.73113 1.23067 0
M  V30 4737 H 440.933 -0.807197 0.497129 0
M  V30 4738 H 440.639 -3.26217 1.31435 0
M  V30 4739 H 440.513 -3.75427 -0.365281 0
M  V30 4740 H 442.9 -2.84877 -0.770024 0
M  V30 4741 H 442.981 -2.38117 0.934563 0
M  V30 4742 H 442.625 -4.82115 1.59772 0
M  V30 4743 H 442.555 -5.26448 -0.126331 0
M  V30 4744 H 445.046 -3.76599 0.313327 0
M  V30 4745 H 445.359 -7.6243 1.26178 0
M  V30 4746 H 443.704 -6.85787 1.12789 0
M  V30 4747 H 446.895 -4.65714 0.472014 0
M  V30 4748 H 447.068 -6.41659 0.90429 0
M  V30 4749 N 440.474 -0.00167713 -1.576 0
M  V30 4750 C 441.702 0.693759 -1.94922 0
M  V30 4751 C 442.117 1.67215 -0.876626 0
M  V30 4752 O 441.474 1.81929 0.144279 0
M  V30 4753 C 441.525 1.42416 -3.32265 0
M  V30 4754 O 441.246 0.485014 -4.35407 0
M  V30 4755 C 442.747 2.21395 -3.84056 0
M  V30 4756 H 439.967 0.193118 -0.642609 0
M  V30 4757 H 442.511 -0.0532952 -2.04431 0
M  V30 4758 H 440.666 2.12284 -3.24059 0
M  V30 4759 H 441.08 1.00053 -5.14868 0
M  V30 4760 H 442.554 2.67996 -4.82578 0
M  V30 4761 H 443.031 3.04142 -3.16851 0
M  V30 4762 H 443.637 1.56542 -3.95443 0
M  V30 4763 N 441.952 1.55251 0.271103 0
M  V30 4764 C 442.9 1.89054 1.35504 0
M  V30 4765 C 443.894 0.767064 1.51038 0
M  V30 4766 O 445.1 0.951429 1.528 0
M  V30 4767 H 441.475 0.600072 0.45323 0
M  V30 4768 H 443.446 2.79598 1.04247 0
M  V30 4769 C 442.195 2.18068 2.70817 0
M  V30 4770 H 441.518 3.04005 2.59656 0
M  V30 4771 H 442.958 2.4564 3.45597 0
M  V30 4772 C 441.417 0.988901 3.2206 0
M  V30 4773 O 441.947 0.224501 4.01072 0
M  V30 4774 N 440.153 0.786085 2.79766 0
M  V30 4775 H 439.7 1.40937 2.15626 0
M  V30 4776 H 439.658 -0.00969349 3.14399 0
M  V30 4777 N 443.43 -0.535701 1.48216 0
M  V30 4778 C 444.679 -1.28828 1.55197 0
M  V30 4779 C 444.992 -1.94263 0.228278 0
M  V30 4780 O 446.198 -2.70927 0.176278 0
M  V30 4781 C 444.654 -2.33727 2.73678 0
M  V30 4782 C 444.262 -1.74386 4.12666 0
M  V30 4783 C 446.006 -3.1003 2.89968 0
M  V30 4784 C 443.913 -2.77192 5.22416 0
M  V30 4785 H 442.843 -0.484484 0.577747 0
M  V30 4786 H 445.494 -0.56646 1.74538 0
M  V30 4787 H 443.876 -3.08919 2.4776 0
M  V30 4788 H 445.05 -1.05421 4.48579 0
M  V30 4789 H 443.365 -1.10595 4.01445 0
M  V30 4790 H 445.962 -3.86842 3.6913 0
M  V30 4791 H 446.305 -3.65542 1.9921 0
M  V30 4792 H 446.838 -2.41952 3.15759 0
M  V30 4793 H 443.577 -2.26507 6.15122 0
M  V30 4794 H 443.097 -3.44502 4.90998 0
M  V30 4795 H 444.776 -3.40285 5.50286 0
M  V30 4796 N 444.908 -1.36708 -0.784132 0
M  V30 4797 C 445.856 -1.31533 -1.91838 0
M  V30 4798 C 446.85 -0.206205 -1.6814 0
M  V30 4799 O 448.056 -0.373519 -1.76082 0
M  V30 4800 H 444.431 -0.409613 -0.630651 0
M  V30 4801 H 446.402 -2.2731 -1.9332 0
M  V30 4802 C 445.151 -1.12679 -3.28936 0
M  V30 4803 H 444.474 -1.97274 -3.4774 0
M  V30 4804 H 445.914 -1.13106 -4.08636 0
M  V30 4805 C 444.373 0.168281 -3.36479 0
M  V30 4806 O 444.903 1.15625 -3.84699 0
M  V30 4807 N 443.109 0.214762 -2.89805 0
M  V30 4808 H 442.656 -0.589852 -2.50756 0
M  V30 4809 H 442.614 1.08094 -2.95234 0
M  V30 4810 N 446.386 1.0089 -1.21074 0
M  V30 4811 C 447.633 1.74607 -1.0256 0
M  V30 4812 C 447.961 1.89426 0.44136 0
M  V30 4813 O 447.216 1.42266 1.34384 0
M  V30 4814 C 447.515 3.16335 -1.66334 0
M  V30 4815 C 447.181 3.21474 -3.16173 0
M  V30 4816 C 445.843 3.22583 -3.57062 0
M  V30 4817 C 448.195 3.19025 -4.12156 0
M  V30 4818 C 445.523 3.18925 -4.92446 0
M  V30 4819 C 447.875 3.16909 -5.47496 0
M  V30 4820 C 446.539 3.16326 -5.87787 0
M  V30 4821 H 445.809 0.638933 -0.375294 0
M  V30 4822 H 448.456 1.18274 -1.50611 0
M  V30 4823 H 446.761 3.75876 -1.10566 0
M  V30 4824 H 448.458 3.72083 -1.49516 0
M  V30 4825 H 445.048 3.2135 -2.83605 0
M  V30 4826 H 449.232 3.17332 -3.81595 0
M  V30 4827 H 444.488 3.16809 -5.22917 0
M  V30 4828 H 448.662 3.13968 -6.21609 0
M  V30 4829 H 446.289 3.13246 -6.92662 0
M  V30 4830 N 447.864 1.01787 1.20321 0
M  V30 4831 C 449.089 0.727009 1.9424 0
M  V30 4832 C 449.514 -0.706179 1.74341 0
M  V30 4833 O 448.872 -1.48609 1.03852 0
M  V30 4834 C 448.92 1.06958 3.44372 0
M  V30 4835 O 448.024 0.181983 4.11998 0
M  V30 4836 H 447.365 0.269626 0.606793 0
M  V30 4837 H 449.895 1.36158 1.52716 0
M  V30 4838 H 449.905 1.02182 3.94997 0
M  V30 4839 H 448.58 2.11378 3.58179 0
M  V30 4840 H 447.157 0.287378 3.71791 0
M  V30 4841 N 449.342 -1.36122 0.79427 0
M  V30 4842 C 450.272 -2.32551 0.210328 0
M  V30 4843 C 451.253 -1.56884 -0.657386 0
M  V30 4844 O 452.438 -1.85014 -0.590207 0
M  V30 4845 C 449.568 -3.41128 -0.651819 0
M  V30 4846 C 448.522 -4.27842 0.116395 0
M  V30 4847 C 447.848 -5.2763 -0.86666 0
M  V30 4848 C 449.148 -5.05647 1.30837 0
M  V30 4849 H 450.842 -2.81636 1.01594 0
M  V30 4850 H 448.388 -1.35407 0.489981 0
M  V30 4851 H 450.341 -4.07581 -1.07031 0
M  V30 4852 H 449.065 -2.90622 -1.49019 0
M  V30 4853 H 447.724 -3.62952 0.515915 0
M  V30 4854 H 447.372 -4.73395 -1.70019 0
M  V30 4855 H 447.072 -5.86514 -0.35705 0
M  V30 4856 H 448.596 -5.96955 -1.28361 0
M  V30 4857 H 450.01 -5.65113 0.965393 0
M  V30 4858 H 448.407 -5.73967 1.75161 0
M  V30 4859 H 449.477 -4.37006 2.10128 0
M  V30 4860 N 450.82 -0.546701 -1.47814 0
M  V30 4861 C 451.752 0.244196 -2.27895 0
M  V30 4862 C 452.765 0.88911 -1.36377 0
M  V30 4863 O 453.954 0.764733 -1.61289 0
M  V30 4864 C 451.054 1.36252 -3.10304 0
M  V30 4865 C 450.227 0.816382 -4.29714 0
M  V30 4866 C 449.286 1.81789 -4.93801 0
M  V30 4867 O 448.312 1.36818 -5.52512 0
M  V30 4868 N 449.514 3.15085 -4.87547 0
M  V30 4869 H 452.279 -0.442694 -2.96412 0
M  V30 4870 H 449.84 -0.382095 -1.57327 0
M  V30 4871 H 451.832 2.03102 -3.50045 0
M  V30 4872 H 450.402 1.95281 -2.44099 0
M  V30 4873 H 449.622 -0.0285981 -3.9419 0
M  V30 4874 H 450.91 0.430668 -5.06974 0
M  V30 4875 H 450.308 3.54275 -4.41028 0
M  V30 4876 H 448.865 3.77522 -5.31339 0
M  V30 4877 N 452.299 1.55045 -0.282633 0
M  V30 4878 C 453.547 1.99365 0.331334 0
M  V30 4879 C 453.868 1.1725 1.55812 0
M  V30 4880 O 453.138 0.263871 1.94115 0
M  V30 4881 H 451.718 0.736397 0.125414 0
M  V30 4882 H 454.38 1.90964 -0.389711 0
M  V30 4883 H 453.476 3.0596 0.616036 0
M  V30 4884 N 453.777 0.010035 1.57597 0
M  V30 4885 C 454.724 -0.978122 2.09049 0
M  V30 4886 C 455.694 -1.33509 0.988159 0
M  V30 4887 O 456.879 -1.43172 1.26121 0
M  V30 4888 C 454.019 -2.26158 2.60666 0
M  V30 4889 C 453.132 -1.96275 3.84838 0
M  V30 4890 C 452.267 -3.18776 4.24918 0
M  V30 4891 C 451.306 -2.84625 5.41899 0
M  V30 4892 N 450.443 -3.99693 5.77226 0
M  V30 4893 H 455.283 -0.532431 2.93205 0
M  V30 4894 H 452.82 -0.251234 1.44939 0
M  V30 4895 H 454.778 -3.01202 2.88675 0
M  V30 4896 H 453.408 -2.68378 1.79369 0
M  V30 4897 H 452.46 -1.11555 3.63675 0
M  V30 4898 H 453.772 -1.67111 4.69974 0
M  V30 4899 H 452.926 -4.02157 4.54262 0
M  V30 4900 H 451.665 -3.51087 3.38511 0
M  V30 4901 H 450.67 -1.99653 5.12268 0
M  V30 4902 H 451.895 -2.53551 6.29991 0
M  V30 4903 H 449.841 -4.31882 4.93776 0
M  V30 4904 H 449.758 -3.74087 6.56959 0
M  V30 4905 H 451.026 -4.83834 6.11167 0
M  V30 4906 N 455.255 -1.55392 -0.262866 0
M  V30 4907 C 456.532 -1.67204 -1.01499 0
M  V30 4908 C 456.912 -0.545186 -2.03939 0
M  V30 4909 O 456.26 0.453467 -2.23955 0
M  V30 4910 C 456.47 -3.06847 -1.6627 0
M  V30 4911 C 457.818 -3.64928 -2.17054 0
M  V30 4912 O 458.842 -3.09545 -1.76239 0
M  V30 4913 O 457.701 -4.61984 -2.91947 0
M  V30 4914 H 454.795 -0.679467 -0.471438 0
M  V30 4915 H 457.341 -1.67729 -0.257918 0
M  V30 4916 H 456.113 -3.80309 -0.920915 0
M  V30 4917 H 455.736 -3.10266 -2.48638 0
M  V30 4918 N 456.733 0.527833 -1.48498 0
M  V30 4919 C 457.973 1.29401 -1.58224 0
M  V30 4920 C 458.337 1.90348 -0.251327 0
M  V30 4921 O 459.538 2.67868 -0.223588 0
M  V30 4922 C 457.809 2.35266 -2.69044 0
M  V30 4923 S 459.368 3.2158 -2.98549 0
M  V30 4924 H 456.186 0.440138 -0.558391 0
M  V30 4925 H 458.788 0.601079 -1.8603 0
M  V30 4926 H 457.492 1.88975 -3.64303 0
M  V30 4927 H 457.023 3.09263 -2.43146 0
M  V30 4928 H 459.038 4.35391 -2.38011 0
M  V30 4929 N 458.211 1.37122 0.776871 0
M  V30 4930 C 459.622 1.28667 1.35284 0
M  V30 4931 C 459.973 -0.0680035 1.96082 0
M  V30 4932 O 459.098 -0.969743 1.93455 0
M  V30 4933 C 459.693 2.32997 2.45963 0
M  V30 4934 C 458.252 2.28191 2.99342 0
M  V30 4935 C 457.399 2.17101 1.72517 0
M  V30 4936 H 460.35 1.47819 0.577527 0
M  V30 4937 H 460.371 1.97366 3.2531 0
M  V30 4938 H 459.883 3.3158 2.01684 0
M  V30 4939 H 457.984 1.33115 3.4801 0
M  V30 4940 H 458.097 3.21397 3.55304 0
M  V30 4941 H 456.461 1.63562 1.95242 0
M  V30 4942 H 457.244 3.17591 1.30348 0
M  V30 4943 N 459.689 -1.00246 1.21608 0
M  V30 4944 C 460.637 -2.11193 0.97469 0
M  V30 4945 C 461.631 -1.69216 -0.0789303 0
M  V30 4946 O 462.837 -1.79853 0.0726806 0
M  V30 4947 H 459.212 -0.690455 0.297953 0
M  V30 4948 H 461.183 -2.2873 1.91638 0
M  V30 4949 C 459.932 -3.43182 0.558717 0
M  V30 4950 H 459.255 -3.75918 1.3611 0
M  V30 4951 H 460.695 -4.21823 0.429154 0
M  V30 4952 C 459.154 -3.28882 -0.730648 0
M  V30 4953 O 459.684 -3.59835 -1.78554 0
M  V30 4954 N 457.89 -2.8209 -0.698131 0
M  V30 4955 H 457.437 -2.57099 0.16061 0
M  V30 4956 H 457.395 -2.72903 -1.56113 0
M  V30 4957 N 461.167 -1.02423 -1.1978 0
M  V30 4958 C 462.115 -0.594474 -2.24875 0
M  V30 4959 C 463.109 0.370598 -1.65296 0
M  V30 4960 O 464.315 0.239684 -1.78397 0
M  V30 4961 H 460.69 -0.173961 -0.731602 0
M  V30 4962 H 462.661 -1.4916 -2.58445 0
M  V30 4963 C 461.41 0.0436512 -3.47673 0
M  V30 4964 H 460.733 -0.689963 -3.93801 0
M  V30 4965 H 462.173 0.307362 -4.22884 0
M  V30 4966 C 460.632 1.28881 -3.11274 0
M  V30 4967 O 461.162 2.38135 -3.23503 0
M  V30 4968 N 459.368 1.1758 -2.6575 0
M  V30 4969 H 458.915 0.286769 -2.55999 0
M  V30 4970 H 458.873 2.00988 -2.41767 0
M  V30 4971 N 462.645 1.35699 -0.801477 0
M  V30 4972 C 464.061 1.52065 -0.484596 0
M  V30 4973 C 464.261 1.75215 0.995084 0
M  V30 4974 O 463.317 1.79061 1.78026 0
M  V30 4975 C 464.63 2.69908 -1.32552 0
M  V30 4976 C 466.178 2.83784 -1.32044 0
M  V30 4977 C 466.653 4.04646 -2.14536 0
M  V30 4978 N 468.144 4.11814 -2.12046 0
M  V30 4979 C 468.879 5.04437 -2.72636 0
M  V30 4980 N 468.375 6.02426 -3.42133 0
M  V30 4981 N 470.168 4.97144 -2.62305 0
M  V30 4982 H 462.319 1.18928 -1.75983 0
M  V30 4983 H 464.582 0.581455 -0.748741 0
M  V30 4984 H 464.288 2.59363 -2.37537 0
M  V30 4985 H 464.162 3.64376 -0.975181 0
M  V30 4986 H 466.549 2.93783 -0.27846 0
M  V30 4987 H 466.63 1.90188 -1.71062 0
M  V30 4988 H 466.274 3.95407 -3.18772 0
M  V30 4989 H 466.204 4.97413 -1.72882 0
M  V30 4990 H 468.695 3.41664 -1.61476 0
M  V30 4991 H 469.008 6.69688 -3.85666 0
M  V30 4992 H 467.353 6.02615 -3.46237 0
M  V30 4993 H 470.544 4.19546 -2.07603 0
M  V30 4994 H 470.717 5.69138 -3.09815 0
M  V30 4995 N 464.123 0.554532 1.47522 0
M  V30 4996 C 465.086 -0.184174 2.28459 0
M  V30 4997 C 466.086 -0.845195 1.36796 0
M  V30 4998 O 467.276 -0.701467 1.59452 0
M  V30 4999 C 464.408 -1.26903 3.16399 0
M  V30 5000 H 465.601 0.526751 2.95238 0
M  V30 5001 H 463.154 0.311375 1.53167 0
M  V30 5002 H 463.889 -2.01244 2.54306 0
M  V30 5003 H 463.674 -0.799883 3.83854 0
M  V30 5004 H 465.164 -1.78794 3.77389 0
M  V30 5005 N 465.601 -1.54893 0.290851 0
M  V30 5006 C 466.533 -2.20564 -0.623236 0
M  V30 5007 C 467.546 -1.19519 -1.1054 0
M  V30 5008 O 468.735 -1.46165 -1.02459 0
M  V30 5009 C 465.835 -2.83033 -1.86401 0
M  V30 5010 C 465.008 -4.09916 -1.52604 0
M  V30 5011 C 464.067 -4.56284 -2.62091 0
M  V30 5012 O 463.093 -5.2171 -2.27612 0
M  V30 5013 N 464.295 -4.27746 -3.92446 0
M  V30 5014 H 467.06 -2.99638 -0.0610915 0
M  V30 5015 H 464.621 -1.61508 0.112615 0
M  V30 5016 H 466.613 -3.1099 -2.58973 0
M  V30 5017 H 465.183 -2.0786 -2.33481 0
M  V30 5018 H 464.403 -3.89078 -0.633424 0
M  V30 5019 H 465.691 -4.92554 -1.27547 0
M  V30 5020 H 465.089 -3.7531 -4.23272 0
M  V30 5021 H 463.646 -4.60437 -4.61347 0
M  V30 5022 N 467.08 -0.0183926 -1.57589 0
M  V30 5023 C 468.027 0.967022 -2.09565 0
M  V30 5024 C 468.997 1.32983 -0.995225 0
M  V30 5025 O 470.182 1.42501 -1.26878 0
M  V30 5026 C 467.322 2.24772 -2.61861 0
M  V30 5027 C 466.435 1.94232 -3.85873 0
M  V30 5028 C 465.57 3.16518 -4.26603 0
M  V30 5029 C 464.609 2.81748 -5.43401 0
M  V30 5030 N 463.746 3.96626 -5.79338 0
M  V30 5031 H 468.586 0.516874 -2.93483 0
M  V30 5032 H 466.123 0.243544 -1.4507 0
M  V30 5033 H 468.081 2.99667 -2.90268 0
M  V30 5034 H 466.711 2.67423 -1.8079 0
M  V30 5035 H 465.763 1.09625 -3.64262 0
M  V30 5036 H 467.075 1.64616 -4.70853 0
M  V30 5037 H 466.229 3.99743 -4.56389 0
M  V30 5038 H 464.968 3.49286 -3.40368 0
M  V30 5039 H 463.973 1.96933 -5.1332 0
M  V30 5040 H 465.198 2.50207 -6.31327 0
M  V30 5041 H 463.144 4.29257 -4.96059 0
M  V30 5042 H 463.061 3.70598 -6.58933 0
M  V30 5043 H 464.329 4.80586 -6.13724 0
M  V30 5044 N 468.558 1.5553 0.254621 0
M  V30 5045 C 469.488 1.9268 1.31897 0
M  V30 5046 C 470.469 0.790797 1.506 0
M  V30 5047 O 471.654 1.05045 1.63337 0
M  V30 5048 C 468.784 2.21477 2.67517 0
M  V30 5049 C 467.738 3.37256 2.63519 0
M  V30 5050 C 467.064 3.51576 4.02862 0
M  V30 5051 C 468.364 4.73157 2.21179 0
M  V30 5052 H 470.058 2.81832 1.01051 0
M  V30 5053 H 467.604 1.35599 0.484662 0
M  V30 5054 H 469.557 2.46055 3.42104 0
M  V30 5055 H 468.281 1.29144 2.99982 0
M  V30 5056 H 466.94 3.12675 1.9139 0
M  V30 5057 H 466.588 2.56676 4.32581 0
M  V30 5058 H 466.288 4.2943 4.01078 0
M  V30 5059 H 467.812 3.78467 4.79161 0
M  V30 5060 H 469.226 4.97158 2.85494 0
M  V30 5061 H 467.623 5.54058 2.30521 0
M  V30 5062 H 468.693 4.70739 1.16332 0
M  V30 5063 N 470.036 -0.519951 1.48776 0
M  V30 5064 C 470.968 -1.63973 1.60142 0
M  V30 5065 C 471.981 -1.55404 0.485117 0
M  V30 5066 O 473.17 -1.61682 0.756391 0
M  V30 5067 C 470.27 -3.02676 1.52449 0
M  V30 5068 C 469.443 -3.36624 2.79291 0
M  V30 5069 C 468.502 -4.54652 2.64912 0
M  V30 5070 O 467.528 -4.57374 3.38818 0
M  V30 5071 N 468.73 -5.53432 1.75195 0
M  V30 5072 H 471.495 -1.54656 2.56713 0
M  V30 5073 H 469.056 -0.707439 1.45626 0
M  V30 5074 H 471.048 -3.79525 1.4051 0
M  V30 5075 H 469.618 -3.06018 0.638125 0
M  V30 5076 H 468.838 -2.48855 3.0572 0
M  V30 5077 H 470.126 -3.56094 3.6342 0
M  V30 5078 H 469.524 -5.54018 1.14371 0
M  V30 5079 H 468.081 -6.29459 1.69189 0
M  V30 5080 N 471.514 -1.37532 -0.769588 0
M  V30 5081 C 472.744 -1.35861 -1.55645 0
M  V30 5082 C 473.152 0.0574398 -1.89113 0
M  V30 5083 O 472.495 1.03021 -1.52093 0
M  V30 5084 C 472.557 -2.13431 -2.89288 0
M  V30 5085 C 472.221 -3.62378 -2.78444 0
M  V30 5086 C 473.218 -4.56215 -2.49326 0
M  V30 5087 C 470.903 -4.05529 -2.96398 0
M  V30 5088 C 472.897 -5.91181 -2.38294 0
M  V30 5089 C 470.584 -5.40579 -2.84987 0
M  V30 5090 C 471.582 -6.33218 -2.55975 0
M  V30 5091 O 471.27 -7.65787 -2.44594 0
M  V30 5092 H 471.002 -0.467001 -0.48876 0
M  V30 5093 H 473.556 -1.81505 -0.961515 0
M  V30 5094 H 471.786 -1.62481 -3.50909 0
M  V30 5095 H 473.475 -2.04368 -3.50697 0
M  V30 5096 H 474.241 -4.24187 -2.35139 0
M  V30 5097 H 470.12 -3.33781 -3.1798 0
M  V30 5098 H 473.664 -6.63457 -2.15571 0
M  V30 5099 H 469.561 -5.72209 -2.98743 0
M  V30 5100 H 470.329 -7.76132 -2.59927 0
M  V30 5101 N 472.992 0.995999 -1.22138 0
M  V30 5102 C 474.408 1.25917 -0.980667 0
M  V30 5103 C 474.608 1.98819 0.327604 0
M  V30 5104 O 473.664 2.29587 1.05101 0
M  V30 5105 C 474.977 2.07399 -2.17729 0
M  V30 5106 C 476.525 2.20594 -2.22052 0
M  V30 5107 C 477 3.05462 -3.41258 0
M  V30 5108 N 478.491 3.13049 -3.41401 0
M  V30 5109 C 479.226 3.78997 -4.30289 0
M  V30 5110 N 478.722 4.46899 -5.2939 0
M  V30 5111 N 480.515 3.75728 -4.18073 0
M  V30 5112 H 472.666 0.507158 -2.06256 0
M  V30 5113 H 474.929 0.28658 -0.903646 0
M  V30 5114 H 474.635 1.61191 -3.12586 0
M  V30 5115 H 474.509 3.08154 -2.17534 0
M  V30 5116 H 476.896 2.66017 -1.27745 0
M  V30 5117 H 476.977 1.1928 -2.26287 0
M  V30 5118 H 476.621 2.60739 -4.35864 0
M  V30 5119 H 476.551 4.06911 -3.34262 0
M  V30 5120 H 479.042 2.64721 -2.69688 0
M  V30 5121 H 479.355 4.94952 -5.935 0
M  V30 5122 H 477.7 4.45657 -5.33306 0
M  V30 5123 H 480.891 3.2184 -3.39907 0
M  V30 5124 H 481.064 4.26845 -4.87553 0
M  V30 5125 N 474.47 1.03057 1.19235 0
M  V30 5126 C 475.716 0.729098 1.89241 0
M  V30 5127 C 476.049 -0.740573 1.79525 0
M  V30 5128 O 475.324 -1.53946 1.18874 0
M  V30 5129 C 475.607 1.18304 3.40112 0
M  V30 5130 C 475.46 2.71406 3.5869 0
M  V30 5131 C 476.779 0.765161 4.33397 0
M  V30 5132 H 473.898 0.266338 0.687192 0
M  V30 5133 H 476.54 1.28079 1.40341 0
M  V30 5134 H 474.69 0.713672 3.81889 0
M  V30 5135 H 476.362 3.26303 3.26074 0
M  V30 5136 H 474.605 3.11717 3.01687 0
M  V30 5137 H 475.276 2.98225 4.64506 0
M  V30 5138 H 477.752 1.16889 3.99345 0
M  V30 5139 H 476.628 1.11065 5.37546 0
M  V30 5140 H 476.889 -0.332372 4.40849 0
M  V30 5141 N 475.948 -1.35272 0.808662 0
M  V30 5142 C 476.896 -2.31663 0.208606 0
M  V30 5143 C 477.89 -1.56731 -0.642778 0
M  V30 5144 O 479.096 -1.71843 -0.53571 0
M  V30 5145 H 475.471 -0.750421 0.0486993 0
M  V30 5146 H 477.442 -2.79814 1.03666 0
M  V30 5147 C 476.191 -3.42008 -0.626573 0
M  V30 5148 H 475.514 -3.99795 0.0192103 0
M  V30 5149 H 476.954 -4.11727 -1.01278 0
M  V30 5150 C 475.413 -2.85226 -1.79298 0
M  V30 5151 O 475.943 -2.78945 -2.89055 0
M  V30 5152 N 474.149 -2.42245 -1.60516 0
M  V30 5153 H 473.696 -2.47554 -0.712375 0
M  V30 5154 H 473.654 -2.04603 -2.38715 0
M  V30 5155 N 477.426 -0.562348 -1.47226 0
M  V30 5156 C 478.336 0.185466 -2.33866 0
M  V30 5157 C 479.352 0.906713 -1.48508 0
M  V30 5158 O 480.528 0.874458 -1.81425 0
M  V30 5159 C 477.593 1.19904 -3.25306 0
M  V30 5160 C 476.654 0.484669 -4.26555 0
M  V30 5161 C 475.887 1.44996 -5.13626 0
M  V30 5162 O 476.11 2.68515 -5.03245 0
M  V30 5163 O 475.044 0.971642 -5.94006 0
M  V30 5164 H 478.87 -0.525361 -2.99121 0
M  V30 5165 H 476.455 -0.322916 -1.45868 0
M  V30 5166 H 478.337 1.78399 -3.81774 0
M  V30 5167 H 477.012 1.8917 -2.62672 0
M  V30 5168 H 475.919 -0.141605 -3.73832 0
M  V30 5169 H 477.252 -0.166634 -4.91918 0
M  V30 5170 N 478.904 1.54736 -0.299062 0
M  V30 5171 C 480.15 2.01114 0.304123 0
M  V30 5172 C 480.505 1.18376 1.51674 0
M  V30 5173 O 479.798 0.251635 1.8994 0
M  V30 5174 C 479.992 3.50199 0.713835 0
M  V30 5175 C 479.821 4.47366 -0.457531 0
M  V30 5176 C 478.591 4.9631 -0.948933 0
M  V30 5177 C 480.789 4.9755 -1.30186 0
M  V30 5178 N 478.771 5.77327 -2.08726 0
M  V30 5179 C 480.142 5.7625 -2.28771 0
M  V30 5180 C 482.197 4.79739 -1.33246 0
M  V30 5181 C 480.9 6.39036 -3.3019 0
M  V30 5182 C 482.926 5.43343 -2.33521 0
M  V30 5183 C 482.288 6.21874 -3.30836 0
M  V30 5184 H 478.387 0.778318 0.0757992 0
M  V30 5185 H 480.971 1.89925 -0.428536 0
M  V30 5186 H 479.142 3.61681 1.41567 0
M  V30 5187 H 480.874 3.83374 1.29639 0
M  V30 5188 H 477.629 4.7069 -0.52423 0
M  V30 5189 H 478.053 6.22521 -2.66077 0
M  V30 5190 H 482.695 4.18609 -0.59383 0
M  V30 5191 H 480.413 6.99302 -4.04973 0
M  V30 5192 H 483.999 5.31492 -2.3666 0
M  V30 5193 H 482.879 6.70217 -4.07159 0
M  V30 5194 N 480.382 0.0267497 1.57577 0
M  V30 5195 C 481.312 -0.954308 2.13108 0
M  V30 5196 C 482.293 -1.34088 1.04663 0
M  V30 5197 O 483.478 -1.41992 1.32484 0
M  V30 5198 C 480.608 -2.23744 2.65624 0
M  V30 5199 C 479.562 -1.99168 3.78835 0
M  V30 5200 C 478.888 -3.33726 4.17769 0
M  V30 5201 C 480.188 -1.33277 5.0501 0
M  V30 5202 H 481.882 -0.491848 2.95332 0
M  V30 5203 H 479.428 -0.23514 1.42067 0
M  V30 5204 H 481.381 -2.92754 3.03106 0
M  V30 5205 H 480.105 -2.72151 1.80558 0
M  V30 5206 H 478.764 -1.32577 3.41788 0
M  V30 5207 H 478.412 -3.79888 3.29688 0
M  V30 5208 H 478.112 -3.18089 4.94058 0
M  V30 5209 H 479.636 -4.04008 4.57832 0
M  V30 5210 H 481.05 -1.92283 5.40093 0
M  V30 5211 H 479.447 -1.28045 5.8628 0
M  V30 5212 H 480.517 -0.305411 4.83937 0
M  V30 5213 N 481.861 -1.55662 -0.24637 0
M  V30 5214 C 482.791 -1.93377 -1.30873 0
M  V30 5215 C 483.772 -0.798773 -1.50179 0
M  V30 5216 O 484.957 -1.0591 -1.62778 0
M  V30 5217 C 482.087 -2.22893 -2.66338 0
M  V30 5218 C 481.041 -3.38649 -2.61727 0
M  V30 5219 C 480.367 -3.53708 -4.00992 0
M  V30 5220 C 481.667 -4.74323 -2.18666 0
M  V30 5221 H 483.361 -2.82363 -0.995552 0
M  V30 5222 H 480.907 -1.35854 -0.477464 0
M  V30 5223 H 482.86 -2.47866 -3.40794 0
M  V30 5224 H 481.584 -1.30733 -2.99293 0
M  V30 5225 H 480.243 -3.13685 -1.89729 0
M  V30 5226 H 479.891 -2.58967 -4.31214 0
M  V30 5227 H 479.591 -4.31551 -3.98795 0
M  V30 5228 H 481.115 -3.81003 -4.77147 0
M  V30 5229 H 482.529 -4.98665 -2.82854 0
M  V30 5230 H 480.926 -5.55273 -2.27579 0
M  V30 5231 H 481.996 -4.71349 -1.13834 0
M  V30 5232 N 483.339 0.512053 -1.4905 0
M  V30 5233 C 484.286 1.6148 -1.64902 0
M  V30 5234 C 485.256 1.58687 -0.490673 0
M  V30 5235 O 486.441 1.76842 -0.71636 0
M  V30 5236 C 483.581 2.99676 -1.71139 0
M  V30 5237 C 482.694 3.12568 -2.98203 0
M  V30 5238 C 481.829 4.4143 -2.95487 0
M  V30 5239 C 480.868 4.47916 -4.17179 0
M  V30 5240 N 480.005 5.68191 -4.12437 0
M  V30 5241 H 484.845 1.47271 -2.59066 0
M  V30 5242 H 482.382 0.716713 -1.28459 0
M  V30 5243 H 484.34 3.79761 -1.72736 0
M  V30 5244 H 482.97 3.12614 -0.804508 0
M  V30 5245 H 482.022 2.25618 -3.06269 0
M  V30 5246 H 483.334 3.1322 -3.88194 0
M  V30 5247 H 482.488 5.29825 -2.95585 0
M  V30 5248 H 481.227 4.43326 -2.03256 0
M  V30 5249 H 480.232 3.57925 -4.17337 0
M  V30 5250 H 481.457 4.47744 -5.1059 0
M  V30 5251 H 479.403 5.7095 -3.23036 0
M  V30 5252 H 479.32 5.70413 -4.96151 0
M  V30 5253 H 480.588 6.58823 -4.16621 0
M  V30 5254 O 484.856 1.47522 0.657231 0
M  V30 5255 H 485.547 1.42634 1.31055 0
M  V30 END ATOM
M  V30 BEGIN BOND
M  V30 END BOND
M  V30 END CTAB
M  END
$$$$
