drugbank_target|Q07982 Glucose--fructose oxidoreductase (DB02338; DB02379; DB03345)
 OpenBabel12092119563D

  0  0  0     0  0            999 V3000
M  V30 BEGIN CTAB
M  V30 COUNTS 6587 6652 0 0 0
M  V30 BEGIN ATOM
M  V30 1 H -0.908 1.98254 -0.117106 0
M  V30 2 N 0 1.576 0 0
M  V30 3 C 0.933 2.03868 1.02534 0
M  V30 4 C 1.911 0.928543 1.3348 0
M  V30 5 O 3.095 1.19667 1.45644 0
M  V30 6 C 0.222 2.43627 2.35294 0
M  V30 7 C -0.732 3.65373 2.2001 0
M  V30 8 S 0.101 5.13292 1.52614 0
M  V30 9 C 1.257 5.56322 2.86805 0
M  V30 10 H 1.49 2.90518 0.631377 0
M  V30 11 H -0.977 1.52953 0.210867 0
M  V30 12 H 0.981 2.67203 3.11629 0
M  V30 13 H -0.358 1.57376 2.7183 0
M  V30 14 H -1.165 3.90944 3.18086 0
M  V30 15 H -1.563 3.418 1.51819 0
M  V30 16 H 0.729 5.58782 3.83104 0
M  V30 17 H 1.672 6.56266 2.65933 0
M  V30 18 H 2.08 4.83886 2.90714 0
M  V30 19 N 1.4781 -0.272755 1.55222 0
M  V30 20 C 2.7061 -1.02255 1.79865 0
M  V30 21 C 3.1211 -1.79924 0.572088 0
M  V30 22 O 2.4781 -1.76638 -0.458842 0
M  V30 23 C 2.5291 -1.98094 3.02392 0
M  V30 24 O 2.2501 -1.23572 4.20311 0
M  V30 25 C 3.7511 -2.84884 3.39641 0
M  V30 26 H 0.9711 -0.302057 0.599168 0
M  V30 27 H 3.5151 -0.303465 2.02236 0
M  V30 28 H 1.6701 -2.65465 2.82147 0
M  V30 29 H 2.0841 -1.88172 4.89583 0
M  V30 30 H 3.5581 -3.47927 4.28545 0
M  V30 31 H 4.0351 -3.54665 2.59055 0
M  V30 32 H 4.6411 -2.23003 3.62146 0
M  V30 33 N 2.9562 -1.48159 -0.537278 0
M  V30 34 C 3.9042 -1.62573 -1.66352 0
M  V30 35 C 4.8982 -0.492366 -1.62087 0
M  V30 36 O 6.1042 -0.670847 -1.67032 0
M  V30 37 H 2.4792 -0.511992 -0.550789 0
M  V30 38 H 4.4502 -2.57176 -1.51337 0
M  V30 39 C 3.1992 -1.67583 -3.04649 0
M  V30 40 H 2.5222 -2.54151 -3.08622 0
M  V30 41 H 3.9622 -1.81713 -3.83088 0
M  V30 42 C 2.4212 -0.413039 -3.34358 0
M  V30 43 O 2.9512 0.477259 -3.98855 0
M  V30 44 N 1.1572 -0.286961 -2.8918 0
M  V30 45 H 0.7042 -1.01241 -2.36871 0
M  V30 46 H 0.6622 0.556963 -3.09427 0
M  V30 47 N 4.4343 0.785586 -1.36625 0
M  V30 48 C 5.3813 1.89838 -1.31264 0
M  V30 49 C 6.3513 1.65115 -0.180633 0
M  V30 50 O 7.5363 1.87222 -0.36777 0
M  V30 51 C 4.6763 3.26706 -1.11163 0
M  V30 52 C 3.7893 3.63476 -2.33472 0
M  V30 53 C 2.9243 4.89481 -2.06353 0
M  V30 54 C 1.9633 5.18941 -3.24602 0
M  V30 55 N 1.1003 6.36131 -2.97123 0
M  V30 56 H 5.9403 1.93756 -2.26413 0
M  V30 57 H 3.4773 0.947454 -1.12524 0
M  V30 58 H 5.4353 4.05639 -0.975337 0
M  V30 59 H 4.0653 3.222 -0.196674 0
M  V30 60 H 3.1173 2.79636 -2.57891 0
M  V30 61 H 4.4293 3.81193 -3.21704 0
M  V30 62 H 3.5833 5.76288 -1.89675 0
M  V30 63 H 2.3223 4.73841 -1.15437 0
M  V30 64 H 1.3273 4.30615 -3.41834 0
M  V30 65 H 2.5523 5.36498 -4.16349 0
M  V30 66 H 0.4983 6.21875 -2.08823 0
M  V30 67 H 0.4153 6.54198 -3.78894 0
M  V30 68 H 1.6833 7.2591 -2.84033 0
M  V30 69 N 5.9124 1.20967 1.01018 0
M  V30 70 C 7.1614 1.01796 1.74128 0
M  V30 71 C 7.4744 -0.449691 1.90361 0
M  V30 72 O 8.6804 -0.76068 2.60626 0
M  V30 73 C 7.1364 1.7727 3.13215 0
M  V30 74 C 6.7444 3.28171 3.04972 0
M  V30 75 C 8.4884 1.66489 3.90489 0
M  V30 76 C 6.3954 3.96156 4.39107 0
M  V30 77 H 5.3254 0.377276 0.652824 0
M  V30 78 H 7.9764 1.44651 1.12909 0
M  V30 79 H 6.3584 1.27205 3.75013 0
M  V30 80 H 7.5324 3.85499 2.52443 0
M  V30 81 H 5.8474 3.39437 2.41188 0
M  V30 82 H 8.4444 2.14617 4.89738 0
M  V30 83 H 8.7874 0.6222 4.11624 0
M  V30 84 H 9.3204 2.14003 3.35332 0
M  V30 85 H 6.0594 5.00604 4.23174 0
M  V30 86 H 5.5794 3.43617 4.91617 0
M  V30 87 H 7.2584 4.00774 5.07926 0
M  V30 88 N 7.3905 -1.2043 1.01659 0
M  V30 89 C 8.6155 -1.94318 0.724942 0
M  V30 90 C 9.0405 -1.74266 -0.708034 0
M  V30 91 O 8.3985 -1.03694 -1.48719 0
M  V30 92 C 8.4465 -3.44486 1.06591 0
M  V30 93 O 7.5505 -4.12017 0.177599 0
M  V30 94 H 6.8915 -0.60708 0.26898 0
M  V30 95 H 9.4215 -1.52861 1.35995 0
M  V30 96 H 9.4315 -3.95106 1.01762 0
M  V30 97 H 8.1065 -3.58404 2.10997 0
M  V30 98 H 6.6835 -3.71821 0.283421 0
M  V30 99 N 8.8686 -0.792821 -1.36206 0
M  V30 100 C 10.0936 -0.377701 -2.03932 0
M  V30 101 C 10.5186 0.998947 -1.59382 0
M  V30 102 O 9.8766 1.64421 -0.763903 0
M  V30 103 C 9.9246 -0.453635 -3.57735 0
M  V30 104 O 9.0286 0.538151 -4.08874 0
M  V30 105 H 8.3696 -0.159855 -0.644471 0
M  V30 106 H 10.8996 -1.07488 -1.7409 0
M  V30 107 H 10.9096 -0.318464 -4.06755 0
M  V30 108 H 9.5846 -1.45784 -3.89512 0
M  V30 109 H 8.1616 0.364359 -3.71116 0
M  V30 110 N 10.3467 1.47872 -0.545128 0
M  V30 111 C 11.5717 2.07391 -0.0190611 0
M  V30 112 C 11.9967 1.39688 1.25971 0
M  V30 113 O 11.3547 0.467816 1.7516 0
M  V30 114 C 11.4027 3.60188 0.172335 0
M  V30 115 O 10.5067 3.9339 1.23766 0
M  V30 116 H 9.8477 0.662411 -0.0459059 0
M  V30 117 H 12.3777 1.90066 -0.757365 0
M  V30 118 H 12.3877 4.06129 0.390305 0
M  V30 119 H 11.0627 4.08865 -0.761725 0
M  V30 120 H 9.6397 3.5921 1.00114 0
M  V30 121 N 11.8248 0.280983 1.55075 0
M  V30 122 C 13.1018 -0.386207 1.91749 0
M  V30 123 C 13.4818 -1.73264 1.20594 0
M  V30 124 O 12.8298 -2.26034 0.334784 0
M  V30 125 C 13.0398 -0.520687 3.45094 0
M  V30 126 C 14.3878 -0.800865 4.16979 0
M  V30 127 O 15.4118 -0.605271 3.5102 0
M  V30 128 O 14.2708 -1.1753 5.33712 0
M  V30 129 H 11.3648 -0.212408 0.799257 0
M  V30 130 H 13.9108 0.327568 1.66509 0
M  V30 131 H 12.6828 0.426633 3.88967 0
M  V30 132 H 12.3058 -1.2837 3.76307 0
M  V30 133 N 13.3029 -1.57598 0.00835791 0
M  V30 134 C 14.2509 -2.10078 -0.998508 0
M  V30 135 C 15.2449 -1.02262 -1.35051 0
M  V30 136 O 16.4509 -1.20719 -1.33518 0
M  V30 137 H 12.8259 -0.670903 -0.339696 0
M  V30 138 H 14.7969 -2.93648 -0.530398 0
M  V30 139 C 13.5459 -2.62615 -2.27879 0
M  V30 140 H 12.8689 -3.45213 -2.01662 0
M  V30 141 H 14.3089 -3.03004 -2.96588 0
M  V30 142 C 12.7679 -1.54407 -2.99433 0
M  V30 143 O 13.2979 -0.931812 -3.90743 0
M  V30 144 N 11.5039 -1.2695 -2.61404 0
M  V30 145 H 11.0509 -1.76924 -1.87232 0
M  V30 146 H 11.0089 -0.547704 -3.09593 0
M  V30 147 N 14.781 0.264519 -1.55364 0
M  V30 148 C 15.711 1.33121 -1.91836 0
M  V30 149 C 16.692 1.51101 -0.781192 0
M  V30 150 O 17.877 1.64003 -1.04003 0
M  V30 151 C 15.007 2.68921 -2.19769 0
M  V30 152 C 13.961 2.65661 -3.35571 0
M  V30 153 C 13.287 4.05093 -3.49004 0
M  V30 154 C 14.587 2.24187 -4.71739 0
M  V30 155 H 16.281 1.02844 -2.81182 0
M  V30 156 H 13.827 0.493286 -1.35287 0
M  V30 157 H 15.78 3.43663 -2.43872 0
M  V30 158 H 14.504 3.00799 -1.27231 0
M  V30 159 H 13.163 1.93377 -3.1145 0
M  V30 160 H 12.811 4.34206 -2.53917 0
M  V30 161 H 12.511 4.03804 -4.26868 0
M  V30 162 H 14.035 4.81561 -3.75408 0
M  V30 163 H 15.449 2.88654 -4.9533 0
M  V30 164 H 13.846 2.34044 -5.52579 0
M  V30 165 H 14.916 1.19327 -4.69988 0
M  V30 166 N 16.2591 1.48442 0.529413 0
M  V30 167 C 17.4841 1.60406 1.31471 0
M  V30 168 C 17.9091 0.264738 1.86228 0
M  V30 169 O 17.2671 -0.763668 1.64432 0
M  V30 170 C 17.3151 2.65419 2.44101 0
M  V30 171 O 16.4191 2.22618 3.47153 0
M  V30 172 H 15.7601 0.537863 0.389357 0
M  V30 173 H 18.2901 1.94432 0.636965 0
M  V30 174 H 18.3001 2.86709 2.90279 0
M  V30 175 H 16.9751 3.62652 2.03608 0
M  V30 176 H 15.5521 2.11543 3.0709 0
M  V30 177 N 17.7372 -0.778329 1.37039 0
M  V30 178 C 18.6852 -1.91278 1.32345 0
M  V30 179 C 19.6792 -1.68051 0.213331 0
M  V30 180 O 20.8852 -1.75922 0.38098 0
M  V30 181 H 17.2602 -0.628909 0.412283 0
M  V30 182 H 19.2312 -1.92355 2.28127 0
M  V30 183 C 17.9802 -3.28455 1.14073 0
M  V30 184 H 17.3032 -3.46901 1.98746 0
M  V30 185 H 18.7432 -4.08152 1.14837 0
M  V30 186 C 17.2022 -3.36548 -0.154015 0
M  V30 187 O 17.7322 -3.85186 -1.13993 0
M  V30 188 N 15.9382 -2.89894 -0.202475 0
M  V30 189 H 15.4852 -2.50504 0.600476 0
M  V30 190 H 15.4432 -2.9569 -1.06841 0
M  V30 191 N 19.2153 -1.21501 -1.00376 0
M  V30 192 C 20.1783 -0.976927 -2.07337 0
M  V30 193 C 21.1783 0.0525322 -1.60714 0
M  V30 194 O 22.3683 -0.184869 -1.73216 0
M  V30 195 C 19.5003 -0.473423 -3.37597 0
M  V30 196 H 20.6933 -1.92587 -2.29892 0
M  V30 197 H 18.2463 -1.03217 -1.17371 0
M  V30 198 H 18.9813 0.480379 -3.20722 0
M  V30 199 H 18.7663 -1.216 -3.72768 0
M  V30 200 H 20.2563 -0.32675 -4.1632 0
M  V30 201 N 20.6934 1.19889 -1.02296 0
M  V30 202 C 21.9394 1.89701 -0.717033 0
M  V30 203 C 22.2724 1.7905 0.751989 0
M  V30 204 O 21.5474 1.17891 1.547 0
M  V30 205 C 21.8304 3.40858 -1.16136 0
M  V30 206 C 21.6834 3.60411 -2.69117 0
M  V30 207 C 23.0024 4.33876 -0.737549 0
M  V30 208 H 20.1214 0.688874 -0.261957 0
M  V30 209 H 22.7634 1.41154 -1.27183 0
M  V30 210 H 20.9134 3.82335 -0.689342 0
M  V30 211 H 22.5854 3.28145 -3.2422 0
M  V30 212 H 20.8284 3.03665 -3.0979 0
M  V30 213 H 21.4994 4.66396 -2.95261 0
M  V30 214 H 23.9754 4.00081 -1.14344 0
M  V30 215 H 22.8514 5.38242 -1.0764 0
M  V30 216 H 23.1124 4.40628 0.360436 0
M  V30 217 N 22.1715 0.800033 1.35784 0
M  V30 218 C 23.3965 0.388511 2.03729 0
M  V30 219 C 23.8215 -0.990481 1.5991 0
M  V30 220 O 23.1795 -1.64013 0.772612 0
M  V30 221 C 23.2275 0.4726 3.5749 0
M  V30 222 O 22.3315 -0.51646 4.09153 0
M  V30 223 H 21.6725 0.163271 0.643614 0
M  V30 224 H 24.2025 1.0841 1.73518 0
M  V30 225 H 24.2125 0.34003 4.06581 0
M  V30 226 H 22.8875 1.47848 3.88734 0
M  V30 227 H 21.4645 -0.344673 3.71304 0
M  V30 228 N 23.6496 -1.47581 0.552962 0
M  V30 229 C 24.6126 -2.28439 -0.186605 0
M  V30 230 C 25.6126 -1.36706 -0.84665 0
M  V30 231 O 26.8026 -1.59378 -0.703164 0
M  V30 232 C 23.9346 -3.16264 -1.2724 0
M  V30 233 H 25.1276 -2.95294 0.523609 0
M  V30 234 H 22.6806 -1.532 0.309745 0
M  V30 235 H 23.4156 -2.54091 -2.01514 0
M  V30 236 H 23.2006 -3.83769 -0.803968 0
M  V30 237 H 24.6906 -3.77198 -1.79196 0
M  V30 238 N 25.1277 -0.289203 -1.54924 0
M  V30 239 C 26.3557 0.326463 -2.04308 0
M  V30 240 C 26.7707 1.48413 -1.16701 0
M  V30 241 O 26.1277 1.81507 -0.190087 0
M  V30 242 C 26.1787 0.794014 -3.52672 0
M  V30 243 O 25.8997 -0.317564 -4.36948 0
M  V30 244 C 27.4007 1.47605 -4.18004 0
M  V30 245 H 24.6207 0.0726272 -0.667058 0
M  V30 246 H 27.1647 -0.425401 -2.00026 0
M  V30 247 H 25.3197 1.49593 -3.57352 0
M  V30 248 H 25.7337 0.0443186 -5.24481 0
M  V30 249 H 27.2077 1.75447 -5.23376 0
M  V30 250 H 27.6847 2.41224 -3.67025 0
M  V30 251 H 28.2907 0.81762 -4.17367 0
M  V30 252 N 26.6058 1.57591 -0.0167156 0
M  V30 253 C 27.8828 1.82547 0.702564 0
M  V30 254 C 28.2628 0.898018 1.91047 0
M  V30 255 O 27.6108 -0.0493456 2.28447 0
M  V30 256 C 27.8208 3.31459 1.09251 0
M  V30 257 C 29.1688 3.97622 1.48937 0
M  V30 258 O 30.1928 3.35881 1.18584 0
M  V30 259 O 29.0518 5.06415 2.05442 0
M  V30 260 H 26.1458 0.752268 0.343544 0
M  V30 261 H 28.6918 1.69644 -0.0434495 0
M  V30 262 H 27.4638 3.9061 0.23227 0
M  V30 263 H 27.0868 3.49422 1.89709 0
M  V30 264 N 28.0839 -0.256276 1.55502 0
M  V30 265 C 29.3609 -1.00789 1.67633 0
M  V30 266 C 29.7409 -2.03706 0.553826 0
M  V30 267 O 29.0889 -2.24145 -0.443969 0
M  V30 268 C 29.2989 -1.64968 3.07549 0
M  V30 269 C 30.6469 -2.15505 3.65845 0
M  V30 270 O 31.6709 -1.74925 3.1029 0
M  V30 271 O 30.5299 -2.89986 4.63217 0
M  V30 272 H 27.6239 -0.468553 0.681459 0
M  V30 273 H 30.1699 -0.250806 1.67836 0
M  V30 274 H 28.9419 -0.904785 3.80696 0
M  V30 275 H 28.5649 -2.47321 3.11317 0
M  V30 276 N 29.562 -1.4872 -0.521534 0
M  V30 277 C 30.51 -1.64328 -1.64618 0
M  V30 278 C 31.504 -0.50953 -1.61555 0
M  V30 279 O 32.71 -0.688525 -1.66311 0
M  V30 280 H 29.085 -0.517805 -0.545328 0
M  V30 281 H 31.056 -2.58767 -1.48601 0
M  V30 282 C 29.805 -1.70805 -3.02855 0
M  V30 283 H 29.128 -2.5741 -3.05909 0
M  V30 284 H 30.568 -1.85766 -3.81139 0
M  V30 285 C 29.027 -0.448479 -3.33902 0
M  V30 286 O 29.557 0.434928 -3.99339 0
M  V30 287 N 27.763 -0.317616 -2.88859 0
M  V30 288 H 27.31 -1.03748 -2.35784 0
M  V30 289 H 27.268 0.524113 -3.10001 0
M  V30 290 N 31.0401 0.771051 -1.3745 0
M  V30 291 C 32.0031 1.86598 -1.33093 0
M  V30 292 C 33.0031 1.59076 -0.234845 0
M  V30 293 O 34.1931 1.67145 -0.490732 0
M  V30 294 C 31.3251 3.23747 -1.06773 0
M  V30 295 H 32.5181 1.91873 -2.30488 0
M  V30 296 H 30.0711 0.970876 -1.2249 0
M  V30 297 H 30.8061 3.24148 -0.099129 0
M  V30 298 H 30.5911 3.45115 -1.86112 0
M  V30 299 H 32.0811 4.03824 -1.06377 0
M  V30 300 N 32.5182 1.22032 0.997298 0
M  V30 301 C 33.7432 1.06921 1.77715 0
M  V30 302 C 34.1682 -0.376226 1.84299 0
M  V30 303 O 33.5262 -1.27165 1.29223 0
M  V30 304 C 33.5742 1.67996 3.19076 0
M  V30 305 O 32.6782 0.930653 4.01762 0
M  V30 306 H 32.0192 0.375814 0.547412 0
M  V30 307 H 34.5492 1.61737 1.25309 0
M  V30 308 H 34.5592 1.72538 3.69723 0
M  V30 309 H 33.2342 2.73182 3.13599 0
M  V30 310 H 31.8112 0.960917 3.60307 0
M  V30 311 N 33.9963 -1.19345 1.0293 0
M  V30 312 C 35.4123 -1.41069 0.746446 0
M  V30 313 C 35.6123 -1.90078 -0.668776 0
M  V30 314 O 34.6683 -2.0778 -1.4347 0
M  V30 315 C 35.9813 -2.42141 1.78292 0
M  V30 316 C 37.5293 -2.55887 1.80252 0
M  V30 317 C 38.0043 -3.60214 2.8286 0
M  V30 318 N 39.4953 -3.67711 2.81679 0
M  V30 319 C 40.2303 -4.48128 3.57727 0
M  V30 320 N 39.7263 -5.32248 4.43491 0
M  V30 321 N 41.5193 -4.42782 3.46267 0
M  V30 322 H 33.6703 -0.858536 1.94275 0
M  V30 323 H 35.9333 -0.439541 0.839945 0
M  V30 324 H 35.6393 -2.13155 2.79746 0
M  V30 325 H 35.5133 -3.41323 1.60557 0
M  V30 326 H 37.9003 -2.84196 0.794757 0
M  V30 327 H 37.9813 -1.56858 2.02062 0
M  V30 328 H 37.6253 -3.32647 3.83807 0
M  V30 329 H 37.5553 -4.58895 2.58307 0
M  V30 330 H 40.0463 -3.07634 2.19476 0
M  V30 331 H 40.3593 -5.90729 4.98256 0
M  V30 332 H 38.7043 -5.31707 4.47564 0
M  V30 333 H 41.8953 -3.76107 2.78677 0
M  V30 334 H 42.0683 -5.05215 4.05785 0
M  V30 335 N 35.4744 -0.807222 -1.35358 0
M  V30 336 C 36.7024 -0.400377 -2.02989 0
M  V30 337 C 37.1174 0.988859 -1.60832 0
M  V30 338 O 36.4744 1.63729 -0.806175 0
M  V30 339 C 36.5254 -0.474867 -3.58368 0
M  V30 340 O 36.2464 -1.80933 -3.98992 0
M  V30 341 C 37.7474 -0.0609112 -4.43258 0
M  V30 342 H 34.9674 -0.162587 -0.651004 0
M  V30 343 H 37.5114 -1.09102 -1.72965 0
M  V30 344 H 35.6664 0.167534 -3.87038 0
M  V30 345 H 36.0804 -1.77256 -4.9364 0
M  V30 346 H 37.5544 -0.164145 -5.51756 0
M  V30 347 H 38.0314 0.993831 -4.27808 0
M  V30 348 H 38.6374 -0.676492 -4.19885 0
M  V30 349 N 36.9525 1.47285 -0.560781 0
M  V30 350 C 38.3635 1.86258 -0.128343 0
M  V30 351 C 38.7145 1.46699 1.30284 0
M  V30 352 O 37.8395 0.871698 1.98067 0
M  V30 353 C 38.4345 3.38044 -0.22614 0
M  V30 354 C 36.9935 3.76096 0.151283 0
M  V30 355 C 36.1405 2.71335 -0.572084 0
M  V30 356 H 39.0915 1.38752 -0.770297 0
M  V30 357 H 39.1125 3.76441 0.554322 0
M  V30 358 H 38.6245 3.66806 -1.26788 0
M  V30 359 H 36.7255 3.52951 1.19399 0
M  V30 360 H 36.8385 4.78641 -0.209765 0
M  V30 361 H 35.2025 2.54696 -0.0147653 0
M  V30 362 H 35.9855 3.02938 -1.61504 0
M  V30 363 N 38.4306 0.297415 1.54768 0
M  V30 364 C 39.3786 -0.596051 2.24833 0
M  V30 365 C 40.3726 -1.13992 1.25308 0
M  V30 366 O 41.5786 -1.09098 1.4317 0
M  V30 367 H 37.9536 -0.210814 0.721846 0
M  V30 368 H 39.9246 0.0174667 2.98395 0
M  V30 369 C 38.6736 -1.75818 2.99972 0
M  V30 370 H 37.9966 -1.3489 3.76357 0
M  V30 371 H 39.4366 -2.35949 3.52284 0
M  V30 372 C 37.8956 -2.66014 2.06732 0
M  V30 373 O 38.4256 -3.67009 1.63302 0
M  V30 374 N 36.6316 -2.33669 1.72763 0
M  V30 375 H 36.1786 -1.51586 2.08277 0
M  V30 376 H 36.1366 -2.94285 1.10652 0
M  V30 377 N 39.9087 -1.5758 0.0250728 0
M  V30 378 C 40.8387 -2.13007 -0.956575 0
M  V30 379 C 41.8197 -1.0452 -1.342 0
M  V30 380 O 43.0047 -1.32332 -1.42133 0
M  V30 381 C 40.1347 -2.65386 -2.24026 0
M  V30 382 C 39.0887 -3.78623 -1.99571 0
M  V30 383 C 38.4147 -4.17414 -3.3417 0
M  V30 384 C 39.7147 -5.04867 -1.33814 0
M  V30 385 H 41.4087 -2.9528 -0.494991 0
M  V30 386 H 38.9547 -1.42042 -0.236651 0
M  V30 387 H 40.9077 -3.02794 -2.93076 0
M  V30 388 H 39.6317 -1.80268 -2.72343 0
M  V30 389 H 38.2907 -3.41646 -1.32941 0
M  V30 390 H 37.9387 -3.29284 -3.80238 0
M  V30 391 H 37.6387 -4.93719 -3.18615 0
M  V30 392 H 39.1627 -4.57402 -4.04495 0
M  V30 393 H 40.5767 -5.39888 -1.92857 0
M  V30 394 H 38.9737 -5.86144 -1.28669 0
M  V30 395 H 40.0437 -4.83904 -0.310561 0
M  V30 396 N 41.3868 0.248026 -1.55636 0
M  V30 397 C 42.6148 0.993808 -1.81469 0
M  V30 398 C 43.0298 1.78991 -0.60064 0
M  V30 399 O 42.3868 1.77345 0.430682 0
M  V30 400 C 42.4378 1.93258 -3.05506 0
M  V30 401 O 42.1588 1.16869 -4.22224 0
M  V30 402 C 43.6598 2.79444 -3.4413 0
M  V30 403 H 40.8798 0.292486 -0.603898 0
M  V30 404 H 43.4238 0.271253 -2.02693 0
M  V30 405 H 41.5788 2.60943 -2.86335 0
M  V30 406 H 41.9928 1.80359 -4.92515 0
M  V30 407 H 43.4668 3.41066 -4.34026 0
M  V30 408 H 43.9438 3.50499 -2.64665 0
M  V30 409 H 44.5498 2.17214 -3.65648 0
M  V30 410 N 42.8649 1.48995 0.513639 0
M  V30 411 C 44.2809 1.35478 0.843682 0
M  V30 412 C 44.4809 0.378213 1.97919 0
M  V30 413 O 43.5369 -0.194689 2.51748 0
M  V30 414 C 44.8499 2.75901 1.1958 0
M  V30 415 C 46.3979 2.84509 1.30474 0
M  V30 416 C 46.8729 4.25671 1.69021 0
M  V30 417 N 48.3639 4.28422 1.76094 0
M  V30 418 C 49.0989 5.34601 2.07338 0
M  V30 419 N 48.5949 6.5104 2.36894 0
M  V30 420 N 50.3879 5.22007 2.08483 0
M  V30 421 H 42.5389 2.11092 -0.235328 0
M  V30 422 H 44.8019 0.947039 -0.0426669 0
M  V30 423 H 44.5079 3.49001 0.434913 0
M  V30 424 H 44.3819 3.10467 2.1422 0
M  V30 425 H 46.7689 2.11655 2.05637 0
M  V30 426 H 46.8499 2.53542 0.339155 0
M  V30 427 H 46.4939 4.99048 0.944135 0
M  V30 428 H 46.4239 4.54094 2.66658 0
M  V30 429 H 48.9149 3.44441 1.55464 0
M  V30 430 H 49.2279 7.2779 2.59887 0
M  V30 431 H 47.5729 6.54287 2.34378 0
M  V30 432 H 50.7639 4.30051 1.84861 0
M  V30 433 H 50.9369 6.04854 2.325 0
M  V30 434 N 44.343 -0.763751 1.37857 0
M  V30 435 C 45.759 -1.06542 1.18832 0
M  V30 436 C 45.959 -2.01478 0.0299722 0
M  V30 437 O 45.015 -2.4458 -0.627447 0
M  V30 438 C 46.328 -1.65525 2.51042 0
M  V30 439 C 47.876 -1.77745 2.57635 0
M  V30 440 C 48.351 -2.4014 3.89996 0
M  V30 441 N 49.842 -2.47582 3.91481 0
M  V30 442 C 50.577 -2.96732 4.9065 0
M  V30 443 N 50.073 -3.45993 6.00217 0
M  V30 444 N 51.866 -2.95679 4.78048 0
M  V30 445 H 44.017 -0.133556 2.1198 0
M  V30 446 H 46.28 -0.121879 0.940133 0
M  V30 447 H 45.986 -1.03236 3.36207 0
M  V30 448 H 45.86 -2.64719 2.68707 0
M  V30 449 H 48.247 -2.39164 1.72872 0
M  V30 450 H 48.328 -0.772836 2.43846 0
M  V30 451 H 47.972 -1.79358 4.75177 0
M  V30 452 H 47.902 -3.41223 4.01092 0
M  V30 453 H 50.393 -2.1273 3.12337 0
M  V30 454 H 50.706 -3.81922 6.7183 0
M  V30 455 H 49.051 -3.44077 6.03851 0
M  V30 456 H 52.242 -2.56499 3.91568 0
M  V30 457 H 52.415 -3.33672 5.55488 0
M  V30 458 N 45.8211 -1.22559 -0.990812 0
M  V30 459 C 46.7841 -0.998863 -2.0629 0
M  V30 460 C 47.7841 0.0354834 -1.60761 0
M  V30 461 O 48.9741 -0.203231 -1.7301 0
M  V30 462 C 46.1061 -0.509203 -3.37076 0
M  V30 463 H 47.2991 -1.95014 -2.27837 0
M  V30 464 H 44.8521 -1.04456 -1.16269 0
M  V30 465 H 45.5871 0.446335 -3.21214 0
M  V30 466 H 45.3721 -1.25547 -3.71457 0
M  V30 467 H 46.8621 -0.370888 -4.1595 0
M  V30 468 N 47.2992 1.18797 -1.03562 0
M  V30 469 C 48.2292 2.24472 -0.643019 0
M  V30 470 C 49.2102 1.66433 0.351283 0
M  V30 471 O 50.3952 1.92803 0.232505 0
M  V30 472 C 47.5252 3.473 4.24935e-05 0
M  V30 473 C 46.4792 4.18055 -0.917257 0
M  V30 474 C 45.8052 5.34519 -0.138941 0
M  V30 475 C 47.1052 4.72109 -2.23407 0
M  V30 476 H 48.7992 2.57566 -1.52643 0
M  V30 477 H 46.3452 1.23806 -0.735394 0
M  V30 478 H 48.2982 4.20426 0.286383 0
M  V30 479 H 47.0222 3.13424 0.918299 0
M  V30 480 H 45.6812 3.46821 -1.1879 0
M  V30 481 H 45.3292 4.96891 0.781562 0
M  V30 482 H 45.0292 5.82794 -0.750005 0
M  V30 483 H 46.5532 6.10438 0.1405 0
M  V30 484 H 47.9672 5.36955 -2.00879 0
M  V30 485 H 46.3642 5.30897 -2.79765 0
M  V30 486 H 47.4342 3.89807 -2.88407 0
M  V30 487 N 48.7773 0.814389 1.34928 0
M  V30 488 C 50.0233 0.399013 1.98836 0
M  V30 489 C 50.3563 -1.03314 1.64438 0
M  V30 490 O 49.6313 -1.71811 0.911659 0
M  V30 491 C 49.9143 0.591629 3.55207 0
M  V30 492 C 49.7673 2.06928 3.99376 0
M  V30 493 C 51.0863 0.022199 4.40094 0
M  V30 494 H 48.2053 0.146451 0.722303 0
M  V30 495 H 50.8473 1.02537 1.59957 0
M  V30 496 H 48.9973 0.0584441 3.88456 0
M  V30 497 H 50.6693 2.66544 3.76499 0
M  V30 498 H 48.9123 2.56287 3.49999 0
M  V30 499 H 49.5833 2.1549 5.08201 0
M  V30 500 H 52.0593 0.477643 4.13349 0
M  V30 501 H 50.9353 0.186832 5.48582 0
M  V30 502 H 51.1963 -1.07215 4.28902 0
M  V30 503 N 50.2554 -1.46986 0.568584 0
M  V30 504 C 51.5034 -2.02041 0.0487022 0
M  V30 505 C 51.8244 -1.44408 -1.31039 0
M  V30 506 O 51.0944 -0.623477 -1.85714 0
M  V30 507 H 49.6744 -0.746849 0.015014 0
M  V30 508 H 52.3364 -1.80257 0.741168 0
M  V30 509 H 51.4324 -3.12085 -0.0308961 0
M  V30 510 N 51.7335 -0.305618 -1.54608 0
M  V30 511 C 52.9815 0.301701 -1.99835 0
M  V30 512 C 53.3025 1.54054 -1.19551 0
M  V30 513 O 52.5725 1.93702 -0.292658 0
M  V30 514 H 51.1525 0.114468 -0.738178 0
M  V30 515 H 53.8145 -0.418016 -1.90364 0
M  V30 516 H 52.9105 0.570548 -3.06841 0
M  V30 517 N 53.2116 1.57565 -0.0334293 0
M  V30 518 C 54.4596 1.91598 0.642999 0
M  V30 519 C 54.7806 0.910847 1.7242 0
M  V30 520 O 54.0506 -0.0469931 1.95844 0
M  V30 521 H 52.6306 0.707228 0.240496 0
M  V30 522 H 55.2926 1.94726 -0.0822488 0
M  V30 523 H 54.3886 2.92336 1.09298 0
M  V30 524 N 54.6897 -0.239769 1.55765 0
M  V30 525 C 55.9357 -0.968234 1.78194 0
M  V30 526 C 56.2687 -1.84701 0.599938 0
M  V30 527 O 55.5437 -1.9031 -0.401524 0
M  V30 528 C 55.8267 -1.8227 3.10564 0
M  V30 529 C 55.6797 -0.971633 4.3918 0
M  V30 530 C 56.9987 -2.80388 3.39221 0
M  V30 531 H 54.1177 -0.350572 0.648281 0
M  V30 532 H 56.7597 -0.238259 1.885 0
M  V30 533 H 54.9097 -2.44507 3.01908 0
M  V30 534 H 56.5817 -0.367408 4.59835 0
M  V30 535 H 54.8247 -0.276276 4.32919 0
M  V30 536 H 55.4957 -1.60346 5.28198 0
M  V30 537 H 57.9717 -2.28287 3.47885 0
M  V30 538 H 56.8477 -3.3729 4.33044 0
M  V30 539 H 57.1087 -3.57212 2.60484 0
M  V30 540 N 56.1678 -1.49265 -0.50573 0
M  V30 541 C 57.4158 -1.582 -1.25766 0
M  V30 542 C 57.7368 -0.268482 -1.93143 0
M  V30 543 O 57.0068 0.711833 -1.8251 0
M  V30 544 H 55.5868 -0.582873 -0.467191 0
M  V30 545 H 58.2488 -1.85865 -0.586525 0
M  V30 546 H 57.3448 -2.37563 -2.02412 0
M  V30 547 N 57.6459 0.756429 -1.3826 0
M  V30 548 C 58.5759 1.88374 -1.37976 0
M  V30 549 C 59.5569 1.68311 -0.246082 0
M  V30 550 O 60.7419 1.88944 -0.44874 0
M  V30 551 C 57.8719 3.25864 -1.20125 0
M  V30 552 C 56.8259 3.60523 -2.30666 0
M  V30 553 C 56.1519 4.9672 -1.97923 0
M  V30 554 C 57.4519 3.65692 -3.72916 0
M  V30 555 H 59.1459 1.88869 -2.32312 0
M  V30 556 H 56.6919 0.907272 -1.11824 0
M  V30 557 H 58.6449 4.0438 -1.18552 0
M  V30 558 H 57.3689 3.25841 -0.222498 0
M  V30 559 H 56.0279 2.84324 -2.3142 0
M  V30 560 H 55.6759 4.93253 -0.985393 0
M  V30 561 H 55.3759 5.20878 -2.71955 0
M  V30 562 H 56.8999 5.77618 -1.97964 0
M  V30 563 H 58.3139 4.34328 -3.74208 0
M  V30 564 H 56.7109 4.01358 -4.4613 0
M  V30 565 H 57.7809 2.65987 -4.05436 0
M  V30 566 N 59.124 1.23083 0.984299 0
M  V30 567 C 60.087 1.00979 2.05757 0
M  V30 568 C 61.087 -0.0269573 1.60777 0
M  V30 569 O 62.277 0.212403 1.729 0
M  V30 570 C 59.409 0.527072 3.36801 0
M  V30 571 H 60.602 1.9622 2.26799 0
M  V30 572 H 58.155 1.05072 1.15714 0
M  V30 573 H 58.89 -0.429294 3.21446 0
M  V30 574 H 58.675 1.27515 3.70786 0
M  V30 575 H 60.165 0.392942 4.15747 0
M  V30 576 N 60.6021 -1.18246 1.0419 0
M  V30 577 C 61.5651 -2.20128 0.638452 0
M  V30 578 C 62.5651 -1.57885 -0.304805 0
M  V30 579 O 63.7551 -1.73967 -0.0900369 0
M  V30 580 C 60.8871 -3.4084 -0.0637751 0
M  V30 581 H 62.0801 -2.57336 1.54007 0
M  V30 582 H 59.6331 -1.32152 0.834598 0
M  V30 583 H 60.3681 -3.09166 -0.979136 0
M  V30 584 H 60.1531 -3.8726 0.614198 0
M  V30 585 H 61.6431 -4.16274 -0.332512 0
M  V30 586 N 62.0802 -0.821533 -1.34494 0
M  V30 587 C 63.0432 -0.247847 -2.27856 0
M  V30 588 C 64.0432 0.573453 -1.50227 0
M  V30 589 O 65.2332 0.389759 -1.69784 0
M  V30 590 C 62.3652 0.652698 -3.34593 0
M  V30 591 H 63.5582 -1.07146 -2.80107 0
M  V30 592 H 61.1112 -0.593291 -1.44602 0
M  V30 593 H 61.8462 1.49943 -2.87555 0
M  V30 594 H 61.6312 0.065292 -3.92046 0
M  V30 595 H 63.1212 1.04793 -4.04238 0
M  V30 596 N 63.5583 1.46682 -0.576371 0
M  V30 597 C 64.8063 2.02013 -0.0594163 0
M  V30 598 C 65.1273 1.45101 1.30271 0
M  V30 599 O 64.3973 0.633317 1.8538 0
M  V30 600 H 62.9773 0.746759 -0.0189745 0
M  V30 601 H 65.6393 1.79862 -0.750717 0
M  V30 602 H 64.7353 3.12097 0.014345 0
M  V30 603 N 65.0364 0.313813 1.54444 0
M  V30 604 C 65.9994 -0.54379 2.22656 0
M  V30 605 C 66.9994 -1.05124 1.21678 0
M  V30 606 O 68.1894 -0.945225 1.46325 0
M  V30 607 C 65.3214 -1.75427 2.92298 0
M  V30 608 H 66.5144 0.0523599 2.99854 0
M  V30 609 H 64.0674 0.0647834 1.56166 0
M  V30 610 H 64.8024 -2.38991 2.19211 0
M  V30 611 H 64.5874 -1.39791 3.66334 0
M  V30 612 H 66.0774 -2.36325 3.44297 0
M  V30 613 N 66.5145 -1.57545 0.0417849 0
M  V30 614 C 67.4445 -2.14009 -0.933929 0
M  V30 615 C 68.4255 -1.05938 -1.33083 0
M  V30 616 O 69.6105 -1.33833 -1.40721 0
M  V30 617 C 66.7405 -2.67747 -2.21199 0
M  V30 618 C 65.6945 -3.80718 -1.95544 0
M  V30 619 C 65.0205 -4.20935 -3.29724 0
M  V30 620 C 66.3205 -5.06258 -1.28452 0
M  V30 621 H 68.0145 -2.95788 -0.463645 0
M  V30 622 H 65.5605 -1.42285 -0.221573 0
M  V30 623 H 67.5135 -3.05886 -2.89848 0
M  V30 624 H 66.2375 -1.83147 -2.70416 0
M  V30 625 H 64.8965 -3.43037 -1.2931 0
M  V30 626 H 64.5445 -3.33298 -3.76724 0
M  V30 627 H 64.2445 -4.9707 -3.13361 0
M  V30 628 H 65.7685 -4.61666 -3.9962 0
M  V30 629 H 67.1825 -5.41903 -1.8712 0
M  V30 630 H 65.5795 -5.87475 -1.22445 0
M  V30 631 H 66.6495 -4.84207 -0.259219 0
M  V30 632 N 67.9926 0.231505 -1.5589 0
M  V30 633 C 68.9556 1.27028 -1.90779 0
M  V30 634 C 69.9556 1.40308 -0.785507 0
M  V30 635 O 71.1456 1.38744 -1.05336 0
M  V30 636 C 68.2776 2.64566 -2.14983 0
M  V30 637 H 69.4706 0.973017 -2.83677 0
M  V30 638 H 67.0236 0.471486 -1.49019 0
M  V30 639 H 67.7586 2.99406 -1.24604 0
M  V30 640 H 67.5436 2.56305 -2.96732 0
M  V30 641 H 69.0336 3.39543 -2.43105 0
M  V30 642 N 69.4707 1.49531 0.497807 0
M  V30 643 C 70.6957 1.63159 1.28039 0
M  V30 644 C 71.1207 0.30418 1.85624 0
M  V30 645 O 70.4787 -0.728618 1.66015 0
M  V30 646 C 70.5267 2.70537 2.38416 0
M  V30 647 O 69.6307 2.29931 3.42353 0
M  V30 648 H 68.9717 0.546001 0.377861 0
M  V30 649 H 71.5017 1.9574 0.59558 0
M  V30 650 H 71.5117 2.92802 2.84132 0
M  V30 651 H 70.1867 3.6689 1.95869 0
M  V30 652 H 68.7637 2.18009 3.02533 0
M  V30 653 N 70.9488 -0.749086 1.3866 0
M  V30 654 C 72.1968 -1.50535 1.34847 0
M  V30 655 C 72.5178 -1.94909 -0.0595016 0
M  V30 656 O 71.7878 -1.67973 -1.00806 0
M  V30 657 H 70.3678 -0.558395 0.49619 0
M  V30 658 H 73.0298 -0.890165 1.73384 0
M  V30 659 H 72.1258 -2.39413 2.00219 0
M  V30 660 N 72.4269 -1.23603 -0.977757 0
M  V30 661 C 73.3569 -1.04401 -2.0886 0
M  V30 662 C 74.3379 0.0399052 -1.70053 0
M  V30 663 O 75.5229 -0.125246 -1.93796 0
M  V30 664 C 72.6529 -0.637269 -3.41403 0
M  V30 665 C 71.6069 -1.66883 -3.94124 0
M  V30 666 C 70.9329 -1.11745 -5.22893 0
M  V30 667 C 72.2329 -3.06247 -4.23096 0
M  V30 668 H 73.9269 -1.97316 -2.25182 0
M  V30 669 H 71.4729 -0.950096 -1.08209 0
M  V30 670 H 73.4259 -0.48998 -4.18542 0
M  V30 671 H 72.1499 0.327557 -3.24953 0
M  V30 672 H 70.8089 -1.80416 -3.19133 0
M  V30 673 H 70.4569 -0.143527 -5.02795 0
M  V30 674 H 70.1569 -1.80672 -5.59134 0
M  V30 675 H 71.6809 -0.982067 -6.02651 0
M  V30 676 H 73.0949 -2.96001 -4.90975 0
M  V30 677 H 71.4919 -3.72436 -4.70544 0
M  V30 678 H 72.5619 -3.55041 -3.30263 0
M  V30 679 N 73.905 1.17692 -1.04816 0
M  V30 680 C 74.837 2.21103 -0.603822 0
M  V30 681 C 75.85 1.59411 0.33046 0
M  V30 682 O 77.039 1.7807 0.12379 0
M  V30 683 C 74.139 3.38623 0.136898 0
M  V30 684 C 73.312 4.29888 -0.807137 0
M  V30 685 C 72.371 5.26088 -0.10836 0
M  V30 686 O 71.397 5.64353 -0.741232 0
M  V30 687 N 72.599 5.68882 1.15558 0
M  V30 688 H 75.364 2.59848 -1.49329 0
M  V30 689 H 72.925 1.32553 -0.929587 0
M  V30 690 H 74.917 4.00009 0.614401 0
M  V30 691 H 73.487 2.98508 0.927993 0
M  V30 692 H 72.707 3.65993 -1.46434 0
M  V30 693 H 73.995 4.87759 -1.44807 0
M  V30 694 H 73.393 5.39861 1.69015 0
M  V30 695 H 71.95 6.32429 1.57722 0
M  V30 696 N 75.3831 0.828654 1.34056 0
M  V30 697 C 76.3461 0.259927 2.27721 0
M  V30 698 C 77.3461 -0.565478 1.50529 0
M  V30 699 O 78.5361 -0.38075 1.69988 0
M  V30 700 C 75.6681 -0.634944 3.34935 0
M  V30 701 H 76.8611 1.0863 2.79534 0
M  V30 702 H 74.4141 0.600951 1.44285 0
M  V30 703 H 75.1491 -1.48416 2.88346 0
M  V30 704 H 74.9341 -0.0444999 3.92075 0
M  V30 705 H 76.4241 -1.02648 4.04788 0
M  V30 706 N 76.8612 -1.46375 0.584142 0
M  V30 707 C 77.8242 -2.28784 -0.138108 0
M  V30 708 C 78.8242 -1.38471 -0.817462 0
M  V30 709 O 80.0142 -1.60833 -0.669199 0
M  V30 710 C 77.1462 -3.18892 -1.20503 0
M  V30 711 H 78.3392 -2.94117 0.586127 0
M  V30 712 H 75.8922 -1.52509 0.342171 0
M  V30 713 H 76.6272 -2.58309 -1.96079 0
M  V30 714 H 76.4122 -3.85388 -0.722384 0
M  V30 715 H 77.9022 -3.80914 -1.71155 0
M  V30 716 N 78.3393 -0.321999 -1.54275 0
M  V30 717 C 79.5673 0.283052 -2.04955 0
M  V30 718 C 79.9823 1.45904 -1.19823 0
M  V30 719 O 79.3393 1.81063 -0.228545 0
M  V30 720 C 79.3903 0.719028 -3.54277 0
M  V30 721 O 79.1113 -0.410175 -4.36176 0
M  V30 722 C 80.6123 1.38705 -4.21041 0
M  V30 723 H 77.8323 0.0584616 -0.668448 0
M  V30 724 H 80.3763 -0.467734 -1.99079 0
M  V30 725 H 78.5313 1.41979 -3.60445 0
M  V30 726 H 78.9453 -0.0669416 -5.24457 0
M  V30 727 H 80.4193 1.64306 -5.2698 0
M  V30 728 H 80.8963 2.33385 -3.72059 0
M  V30 729 H 81.5023 0.728906 -4.19007 0
M  V30 730 N 79.8174 1.5752 -0.0501392 0
M  V30 731 C 80.7474 2.14502 0.922566 0
M  V30 732 C 81.7284 1.06642 1.3252 0
M  V30 733 O 82.9134 1.34577 1.4001 0
M  V30 734 C 80.0434 2.68916 2.19776 0
M  V30 735 C 78.9974 3.8175 1.93523 0
M  V30 736 C 78.3234 4.22677 3.27487 0
M  V30 737 C 79.6234 5.06932 1.25765 0
M  V30 738 H 81.3174 2.9603 0.447952 0
M  V30 739 H 78.8634 1.42401 0.214024 0
M  V30 740 H 80.8164 3.07419 2.88222 0
M  V30 741 H 79.5404 1.84578 2.69441 0
M  V30 742 H 78.1994 3.43718 1.27489 0
M  V30 743 H 77.8474 3.35291 3.74952 0
M  V30 744 H 77.5474 4.98725 3.1072 0
M  V30 745 H 79.0714 4.63779 3.97166 0
M  V30 746 H 80.4854 5.42888 1.84244 0
M  V30 747 H 78.8824 5.88116 1.19328 0
M  V30 748 H 79.9524 4.84337 0.233536 0
M  V30 749 N 81.2955 -0.223234 1.56011 0
M  V30 750 C 82.7065 -0.790368 1.69145 0
M  V30 751 C 83.0575 -1.85055 0.651845 0
M  V30 752 O 82.1825 -2.15498 -0.197359 0
M  V30 753 C 82.7775 -1.4404 3.06656 0
M  V30 754 C 81.3365 -1.95494 3.2165 0
M  V30 755 C 80.4835 -0.814506 2.65068 0
M  V30 756 H 83.4345 0.00139011 1.587 0
M  V30 757 H 83.4555 -2.30916 3.0242 0
M  V30 758 H 82.9675 -0.668543 3.82298 0
M  V30 759 H 81.0685 -2.75487 2.50874 0
M  V30 760 H 81.1815 -2.13607 4.28846 0
M  V30 761 H 79.5455 -1.22137 2.23505 0
M  V30 762 H 80.3285 -0.0553515 3.43255 0
M  V30 763 N 82.7736 -1.49793 -0.48987 0
M  V30 764 C 83.7366 -1.66752 -1.57246 0
M  V30 765 C 84.7366 -0.538867 -1.51502 0
M  V30 766 O 85.9266 -0.805545 -1.54456 0
M  V30 767 C 83.0586 -1.67528 -2.96896 0
M  V30 768 H 84.2516 -2.63321 -1.43534 0
M  V30 769 H 81.8046 -1.38992 -0.714914 0
M  V30 770 H 82.5396 -0.725837 -3.16073 0
M  V30 771 H 82.3246 -2.49504 -3.02473 0
M  V30 772 H 83.8146 -1.82667 -3.7553 0
M  V30 773 N 84.2517 0.741722 -1.39055 0
M  V30 774 C 85.4997 1.49818 -1.35643 0
M  V30 775 C 85.8207 1.94938 0.0491642 0
M  V30 776 O 85.0907 1.68505 0.999141 0
M  V30 777 H 83.6707 0.555755 -0.499144 0
M  V30 778 H 86.3327 0.880957 -1.73854 0
M  V30 779 H 85.4287 2.38348 -2.01486 0
M  V30 780 N 85.7298 1.2412 0.971189 0
M  V30 781 C 86.6928 1.03156 2.04674 0
M  V30 782 C 87.6928 -0.00990322 1.60797 0
M  V30 783 O 88.8828 0.230729 1.72665 0
M  V30 784 C 86.0148 0.562765 3.36223 0
M  V30 785 H 87.2078 1.98614 2.24705 0
M  V30 786 H 84.7608 1.06293 1.14593 0
M  V30 787 H 85.4958 -0.395176 3.21883 0
M  V30 788 H 85.2808 1.31441 3.69413 0
M  V30 789 H 86.7708 0.437015 4.15307 0
M  V30 790 N 87.2079 -1.17134 1.05439 0
M  V30 791 C 88.4329 -1.91913 0.786396 0
M  V30 792 C 88.8579 -1.7643 -0.652234 0
M  V30 793 O 88.2159 -1.08372 -1.45345 0
M  V30 794 C 88.2639 -3.40921 1.17497 0
M  V30 795 O 87.3679 -4.11244 0.308589 0
M  V30 796 H 86.7089 -0.598215 0.288158 0
M  V30 797 H 89.2389 -1.48457 1.4079 0
M  V30 798 H 89.2489 -3.91668 1.14281 0
M  V30 799 H 87.9239 -3.5151 2.22292 0
M  V30 800 H 86.5009 -3.70731 0.40157 0
M  V30 801 N 88.686 -0.835752 -1.33615 0
M  V30 802 C 89.618 -0.224151 -2.28101 0
M  V30 803 C 90.631 0.593331 -1.51603 0
M  V30 804 O 91.82 0.420911 -1.73466 0
M  V30 805 C 88.92 0.703309 -3.31522 0
M  V30 806 C 88.093 -0.0741528 -4.37337 0
M  V30 807 C 87.152 0.776176 -5.20444 0
M  V30 808 O 86.178 0.216506 -5.68788 0
M  V30 809 N 87.38 2.09401 -5.41416 0
M  V30 810 H 90.145 -1.03598 -2.81225 0
M  V30 811 H 87.706 -0.69392 -1.46275 0
M  V30 812 H 89.698 1.27707 -3.84022 0
M  V30 813 H 88.268 1.41585 -2.78698 0
M  V30 814 H 87.488 -0.82928 -3.85378 0
M  V30 815 H 88.776 -0.608863 -5.05144 0
M  V30 816 H 88.174 2.57229 -5.03835 0
M  V30 817 H 86.731 2.61633 -5.96985 0
M  V30 818 N 90.1641 1.46063 -0.591896 0
M  V30 819 C 91.4101 2.02638 -0.0811191 0
M  V30 820 C 91.7431 1.4613 1.27905 0
M  V30 821 O 91.0181 0.629908 1.84017 0
M  V30 822 C 91.3011 3.60091 -0.0252436 0
M  V30 823 C 91.1541 4.26965 -1.41496 0
M  V30 824 C 92.4731 4.3496 0.670685 0
M  V30 825 H 89.5921 0.73635 -0.0309524 0
M  V30 826 H 92.2341 1.741 -0.760859 0
M  V30 827 H 90.3841 3.84535 0.553624 0
M  V30 828 H 92.0561 4.13756 -2.0397 0
M  V30 829 H 90.2991 3.85971 -1.98011 0
M  V30 830 H 90.9701 5.35781 -1.32825 0
M  V30 831 H 93.4461 4.15716 0.178825 0
M  V30 832 H 92.3221 5.44686 0.678837 0
M  V30 833 H 92.5831 4.06685 1.73379 0
M  V30 834 N 91.6422 0.330177 1.54103 0
M  V30 835 C 93.0532 -0.15652 1.86043 0
M  V30 836 C 93.4042 -1.51086 1.2517 0
M  V30 837 O 92.5292 -2.09023 0.560217 0
M  V30 838 C 93.1242 -0.290784 3.3755 0
M  V30 839 C 91.6832 -0.721705 3.69416 0
M  V30 840 C 90.8302 0.152622 2.7688 0
M  V30 841 H 93.7812 0.550237 1.48856 0
M  V30 842 H 93.8022 -1.12058 3.63625 0
M  V30 843 H 93.3142 0.695068 3.81825 0
M  V30 844 H 91.4152 -1.71706 3.30678 0
M  V30 845 H 91.5282 -0.520869 4.7626 0
M  V30 846 H 89.8922 -0.372894 2.51956 0
M  V30 847 H 90.6752 1.13536 3.23982 0
M  V30 848 N 93.1203 -1.57491 0.0584922 0
M  V30 849 C 94.3483 -1.97296 -0.623037 0
M  V30 850 C 94.7633 -0.936338 -1.63946 0
M  V30 851 O 94.1203 0.0785981 -1.82331 0
M  V30 852 C 94.1713 -3.37183 -1.30345 0
M  V30 853 O 93.8923 -4.36872 -0.32773 0
M  V30 854 C 95.3933 -3.91788 -2.07406 0
M  V30 855 H 92.6133 -0.649153 -0.169826 0
M  V30 856 H 95.1573 -2.04106 0.12696 0
M  V30 857 H 93.3123 -3.31502 -2.00463 0
M  V30 858 H 93.7263 -5.18141 -0.814269 0
M  V30 859 H 95.2003 -4.91926 -2.50425 0
M  V30 860 H 95.6773 -3.27609 -2.92521 0
M  V30 861 H 96.2833 -4.00829 -1.42184 0
M  V30 862 N 94.5984 0.214957 -1.56127 0
M  V30 863 C 95.8264 0.955092 -1.83536 0
M  V30 864 C 96.2414 1.77677 -0.638472 0
M  V30 865 O 95.5984 1.78219 0.392968 0
M  V30 866 C 95.6494 1.86734 -3.09536 0
M  V30 867 O 95.3704 1.07887 -4.24608 0
M  V30 868 C 96.8714 2.72082 -3.4998 0
M  V30 869 H 94.0914 0.279611 -0.609966 0
M  V30 870 H 96.6354 0.228197 -2.03223 0
M  V30 871 H 94.7904 2.5481 -2.91806 0
M  V30 872 H 95.2044 1.69872 -4.9623 0
M  V30 873 H 96.6784 3.31782 -4.41163 0
M  V30 874 H 97.1554 3.44806 -2.7204 0
M  V30 875 H 97.7614 2.09409 -3.70173 0
M  V30 876 N 96.0765 1.50051 0.48192 0
M  V30 877 C 97.4875 1.5348 1.06305 0
M  V30 878 C 97.8385 0.331997 1.93371 0
M  V30 879 O 96.9635 -0.556256 2.09129 0
M  V30 880 C 97.5585 2.7813 1.93466 0
M  V30 881 C 96.1175 2.84275 2.46707 0
M  V30 882 C 95.2645 2.47637 1.24785 0
M  V30 883 H 98.2155 1.56472 0.264995 0
M  V30 884 H 98.2365 2.59372 2.78399 0
M  V30 885 H 97.7485 3.65654 1.30072 0
M  V30 886 H 95.8495 2.01077 3.13686 0
M  V30 887 H 95.9625 3.8691 2.82555 0
M  V30 888 H 94.3265 1.99835 1.57918 0
M  V30 889 H 95.1095 3.37457 0.630694 0
M  V30 890 N 97.5546 -0.734337 1.39446 0
M  V30 891 C 98.5176 -1.83004 1.37994 0
M  V30 892 C 99.5176 -1.58397 0.276938 0
M  V30 893 O 100.708 -1.65785 0.534875 0
M  V30 894 C 97.8396 -3.20802 1.1532 0
M  V30 895 H 99.0326 -1.85694 2.35494 0
M  V30 896 H 96.5856 -0.938059 1.25021 0
M  V30 897 H 97.3206 -3.23772 0.185036 0
M  V30 898 H 97.1056 -3.4006 1.95197 0
M  V30 899 H 98.5956 -4.00862 1.17046 0
M  V30 900 N 99.0327 -1.24633 -0.964593 0
M  V30 901 C 100.281 -1.08573 -1.70459 0
M  V30 902 C 100.602 0.375655 -1.91347 0
M  V30 903 O 99.8717 1.26779 -1.49345 0
M  V30 904 H 98.4517 -0.398784 -0.631649 0
M  V30 905 H 101.114 -1.56601 -1.16026 0
M  V30 906 H 100.21 -1.58623 -2.68785 0
M  V30 907 N 100.511 1.16574 -1.06058 0
M  V30 908 C 101.927 1.3904 -0.783585 0
M  V30 909 C 102.127 1.91784 0.618145 0
M  V30 910 O 101.183 2.11511 1.37911 0
M  V30 911 C 102.496 2.37329 -1.84649 0
M  V30 912 C 104.044 2.51018 -1.86973 0
M  V30 913 C 104.519 3.52588 -2.92311 0
M  V30 914 N 106.01 3.60113 -2.91329 0
M  V30 915 C 106.745 4.38486 -3.69482 0
M  V30 916 N 106.241 5.20302 -4.57447 0
M  V30 917 N 108.034 4.33446 -3.57885 0
M  V30 918 H 100.185 0.806725 -1.96483 0
M  V30 919 H 102.448 0.417117 -0.851303 0
M  V30 920 H 102.154 2.05663 -2.85299 0
M  V30 921 H 102.028 3.36946 -1.6955 0
M  V30 922 H 104.415 2.81989 -0.869827 0
M  V30 923 H 104.496 1.51445 -2.0615 0
M  V30 924 H 104.14 3.22354 -3.92492 0
M  V30 925 H 104.07 4.51886 -2.70383 0
M  V30 926 H 106.561 3.01707 -2.27555 0
M  V30 927 H 106.874 5.77311 -5.13743 0
M  V30 928 H 105.219 5.19653 -4.61503 0
M  V30 929 H 108.41 3.68586 -2.88551 0
M  V30 930 H 108.583 4.94279 -4.19037 0
M  V30 931 N 101.989 0.842826 1.3317 0
M  V30 932 C 103.4 0.496651 1.79973 0
M  V30 933 C 103.751 -0.984641 1.69703 0
M  V30 934 O 102.876 -1.76743 1.24863 0
M  V30 935 C 103.471 0.894727 3.26772 0
M  V30 936 C 102.03 0.600629 3.71577 0
M  V30 937 C 101.177 1.10091 2.5451 0
M  V30 938 H 104.128 1.03116 1.20635 0
M  V30 939 H 104.149 0.206347 3.7994 0
M  V30 940 H 103.661 1.97287 3.34215 0
M  V30 941 H 101.762 -0.467284 3.69658 0
M  V30 942 H 101.875 1.15863 4.64879 0
M  V30 943 H 100.239 0.52162 2.49301 0
M  V30 944 H 101.022 2.18591 2.64713 0
M  V30 945 N 103.467 -1.45747 0.599634 0
M  V30 946 C 104.4 -2.27547 -0.172552 0
M  V30 947 C 105.378 -1.36657 -0.881116 0
M  V30 948 O 106.562 -1.66081 -0.891595 0
M  V30 949 C 103.689 -3.14829 -1.24903 0
M  V30 950 C 102.735 -4.21603 -0.644465 0
M  V30 951 S 103.568 -5.32754 0.541606 0
M  V30 952 C 104.724 -6.23604 -0.535656 0
M  V30 953 H 104.957 -2.92691 0.521468 0
M  V30 954 H 102.49 -1.49473 0.386947 0
M  V30 955 H 104.448 -3.65675 -1.86527 0
M  V30 956 H 103.109 -2.48965 -1.91508 0
M  V30 957 H 102.302 -4.82566 -1.45417 0
M  V30 958 H 101.904 -3.73857 -0.103534 0
M  V30 959 H 104.196 -6.62519 -1.41686 0
M  V30 960 H 105.139 -7.0809 0.0376246 0
M  V30 961 H 105.547 -5.58103 -0.84741 0
M  V30 962 N 104.945 -0.338344 -1.53925 0
M  V30 963 C 106.356 0.146651 -1.86123 0
M  V30 964 C 106.707 1.5042 -1.2597 0
M  V30 965 O 105.832 2.08723 -0.571294 0
M  V30 966 C 106.427 0.272879 -3.37699 0
M  V30 967 C 104.986 0.702103 -3.69794 0
M  V30 968 C 104.133 -0.167304 -2.76795 0
M  V30 969 H 107.084 -0.558123 -1.48562 0
M  V30 970 H 107.105 1.10128 -3.64214 0
M  V30 971 H 106.617 -0.715307 -3.81451 0
M  V30 972 H 104.718 1.6995 -3.31584 0
M  V30 973 H 104.831 0.495604 -4.7653 0
M  V30 974 H 103.195 0.359527 -2.5215 0
M  V30 975 H 103.978 -1.15253 -3.23375 0
M  V30 976 N 106.423 1.57458 -0.0668435 0
M  V30 977 C 107.653 1.97337 0.611677 0
M  V30 978 C 108.061 0.943744 1.63982 0
M  V30 979 O 107.404 -0.0785584 1.83532 0
M  V30 980 C 107.466 3.33511 1.34205 0
M  V30 981 C 107.13 4.54598 0.467941 0
M  V30 982 C 108.127 5.19186 -0.272439 0
M  V30 983 C 105.812 5.0075 0.39427 0
M  V30 984 C 107.806 6.28274 -1.07476 0
M  V30 985 C 105.493 6.09711 -0.411729 0
M  V30 986 C 106.491 6.73335 -1.14492 0
M  V30 987 O 106.179 7.80199 -1.93763 0
M  V30 988 H 105.911 0.654042 0.170893 0
M  V30 989 H 108.465 2.04961 -0.134289 0
M  V30 990 H 106.695 3.22487 2.13398 0
M  V30 991 H 108.384 3.58029 1.91233 0
M  V30 992 H 109.15 4.84477 -0.225086 0
M  V30 993 H 105.029 4.51009 0.954569 0
M  V30 994 H 108.573 6.77866 -1.64755 0
M  V30 995 H 104.47 6.43854 -0.460664 0
M  V30 996 H 105.238 7.97053 -1.86142 0
M  V30 997 N 107.901 -0.206675 1.56239 0
M  V30 998 C 108.864 -1.23976 1.92776 0
M  V30 999 C 109.864 -1.39041 0.807729 0
M  V30 1000 O 111.054 -1.37051 1.0753 0
M  V30 1001 C 108.186 -2.61112 2.19165 0
M  V30 1002 H 109.379 -0.927764 2.85189 0
M  V30 1003 H 106.932 -0.447718 1.4975 0
M  V30 1004 H 107.667 -2.97386 1.29352 0
M  V30 1005 H 107.452 -2.51552 3.00772 0
M  V30 1006 H 108.942 -3.35633 2.48476 0
M  V30 1007 N 109.379 -1.50304 -0.473955 0
M  V30 1008 C 110.628 -1.60392 -1.22301 0
M  V30 1009 C 110.941 -0.308411 -1.93153 0
M  V30 1010 O 112.147 -0.288156 -2.69966 0
M  V30 1011 C 110.603 -2.83109 -2.2221 0
M  V30 1012 C 110.211 -4.19524 -1.57173 0
M  V30 1013 C 111.955 -3.0254 -2.97775 0
M  V30 1014 C 109.862 -5.33431 -2.55353 0
M  V30 1015 H 108.792 -0.597286 -0.460179 0
M  V30 1016 H 111.443 -1.76731 -0.493803 0
M  V30 1017 H 109.825 -2.60322 -2.9841 0
M  V30 1018 H 110.999 -4.52554 -0.867824 0
M  V30 1019 H 109.314 -4.05674 -0.939002 0
M  V30 1020 H 111.911 -3.84811 -3.71248 0
M  V30 1021 H 112.254 -2.14154 -3.56992 0
M  V30 1022 H 112.787 -3.25494 -2.28688 0
M  V30 1023 H 109.526 -6.23962 -2.00878 0
M  V30 1024 H 109.046 -5.04823 -3.23904 0
M  V30 1025 H 110.725 -5.63887 -3.17239 0
M  V30 1026 N 110.857 0.726932 -1.39834 0
M  V30 1027 C 112.273 1.03354 -1.21615 0
M  V30 1028 C 112.473 2.01327 -0.08338 0
M  V30 1029 O 111.529 2.46158 0.56238 0
M  V30 1030 C 112.842 1.58811 -2.55342 0
M  V30 1031 C 114.39 1.70851 -2.62257 0
M  V30 1032 C 114.865 2.29716 -3.96225 0
M  V30 1033 N 116.356 2.37116 -3.97907 0
M  V30 1034 C 117.091 2.83619 -4.98345 0
M  V30 1035 N 116.587 3.29958 -6.09179 0
M  V30 1036 N 118.38 2.82901 -4.8572 0
M  V30 1037 H 110.531 0.0773069 -2.12259 0
M  V30 1038 H 112.794 0.0969102 -0.943034 0
M  V30 1039 H 112.5 0.942855 -3.38826 0
M  V30 1040 H 112.374 2.57502 -2.75632 0
M  V30 1041 H 114.761 2.34497 -1.79152 0
M  V30 1042 H 114.842 0.707913 -2.45809 0
M  V30 1043 H 114.486 1.66696 -4.79765 0
M  V30 1044 H 114.416 3.30469 -4.09997 0
M  V30 1045 H 116.907 2.04374 -3.17868 0
M  V30 1046 H 117.22 3.63976 -6.8172 0
M  V30 1047 H 115.565 3.27946 -6.12761 0
M  V30 1048 H 118.756 2.46027 -3.98231 0
M  V30 1049 H 118.929 3.18827 -5.6414 0
M  V30 1050 N 112.336 1.25143 0.95797 0
M  V30 1051 C 113.747 1.08851 1.51685 0
M  V30 1052 C 114.098 -0.33687 1.93286 0
M  V30 1053 O 113.223 -1.22644 1.7829 0
M  V30 1054 C 113.818 1.96978 2.75654 0
M  V30 1055 C 112.377 1.84881 3.27866 0
M  V30 1056 C 111.524 1.91329 2.0072 0
M  V30 1057 H 114.475 1.38478 0.77522 0
M  V30 1058 H 114.496 1.5078 3.4935 0
M  V30 1059 H 114.008 3.00712 2.45345 0
M  V30 1060 H 112.109 0.840182 3.63004 0
M  V30 1061 H 112.222 2.6951 3.96107 0
M  V30 1062 H 110.586 1.35174 2.15871 0
M  V30 1063 H 111.369 2.96661 1.72764 0
M  V30 1064 N 113.814 -1.1601 1.06675 0
M  V30 1065 C 114.747 -2.1947 0.625168 0
M  V30 1066 C 115.725 -1.58699 -0.354041 0
M  V30 1067 O 116.909 -1.86669 -0.262098 0
M  V30 1068 C 114.036 -3.38598 -0.0829593 0
M  V30 1069 C 113.082 -4.1787 0.853611 0
M  V30 1070 S 113.915 -4.81135 2.35094 0
M  V30 1071 C 115.071 -6.03639 1.65441 0
M  V30 1072 H 115.304 -2.56587 1.50168 0
M  V30 1073 H 112.837 -1.26862 0.880078 0
M  V30 1074 H 114.795 -4.07621 -0.485288 0
M  V30 1075 H 113.456 -2.99839 -0.935716 0
M  V30 1076 H 112.649 -5.03078 0.304755 0
M  V30 1077 H 112.251 -3.54361 1.196 0
M  V30 1078 H 114.543 -6.70632 0.962201 0
M  V30 1079 H 115.486 -6.63081 2.48454 0
M  V30 1080 H 115.894 -5.52965 1.13534 0
M  V30 1081 N 115.292 -0.849877 -1.32721 0
M  V30 1082 C 116.703 -0.506188 -1.79707 0
M  V30 1083 C 117.054 0.975627 -1.70223 0
M  V30 1084 O 116.179 1.76078 -1.25799 0
M  V30 1085 C 116.774 -0.912044 -3.26293 0
M  V30 1086 C 115.333 -0.620326 -3.71253 0
M  V30 1087 C 114.48 -1.11439 -2.53922 0
M  V30 1088 H 117.431 -1.03754 -1.20087 0
M  V30 1089 H 117.452 -0.226493 -3.79825 0
M  V30 1090 H 116.964 -1.99057 -3.33164 0
M  V30 1091 H 115.065 0.447674 -3.69901 0
M  V30 1092 H 115.178 -1.18327 -4.64258 0
M  V30 1093 H 113.542 -0.534834 -2.49021 0
M  V30 1094 H 114.325 -2.19992 -2.6355 0
M  V30 1095 N 116.77 1.45427 -0.607355 0
M  V30 1096 C 117.68 2.34325 0.113463 0
M  V30 1097 C 118.696 1.51226 0.860617 0
M  V30 1098 O 119.872 1.84029 0.818255 0
M  V30 1099 C 116.937 3.28839 1.09844 0
M  V30 1100 C 115.998 4.27844 0.353271 0
M  V30 1101 C 115.231 5.17842 1.29133 0
M  V30 1102 O 115.454 5.11264 2.52913 0
M  V30 1103 O 114.388 5.96713 0.788523 0
M  V30 1104 H 118.214 2.97364 -0.617094 0
M  V30 1105 H 115.799 1.44807 -0.367619 0
M  V30 1106 H 117.681 3.8708 1.66575 0
M  V30 1107 H 116.356 2.68365 1.81003 0
M  V30 1108 H 115.263 3.7322 -0.256494 0
M  V30 1109 H 116.596 4.91173 -0.317822 0
M  V30 1110 N 118.248 0.346503 1.53744 0
M  V30 1111 C 119.525 -0.304532 1.93215 0
M  V30 1112 C 119.905 -1.67993 1.27834 0
M  V30 1113 O 119.253 -2.24411 0.430352 0
M  V30 1114 C 119.463 -0.373852 3.46992 0
M  V30 1115 C 120.811 -0.62329 4.2 0
M  V30 1116 O 121.835 -0.455847 3.53271 0
M  V30 1117 O 120.694 -0.947879 5.38217 0
M  V30 1118 H 117.788 -0.178318 0.807547 0
M  V30 1119 H 120.334 0.397895 1.64969 0
M  V30 1120 H 119.106 0.591224 3.86808 0
M  V30 1121 H 118.729 -1.12294 3.81413 0
M  V30 1122 N 119.726 -1.57421 0.075193 0
M  V30 1123 C 121.142 -1.57099 -0.281444 0
M  V30 1124 C 121.342 -1.08486 -1.69803 0
M  V30 1125 O 120.398 -0.752279 -2.41033 0
M  V30 1126 C 121.711 -3.00571 -0.0880041 0
M  V30 1127 C 123.259 -3.12605 -0.157281 0
M  V30 1128 C 123.734 -4.57999 0.0079207 0
M  V30 1129 N 125.225 -4.63176 -0.0475725 0
M  V30 1130 C 125.96 -5.73373 0.0557876 0
M  V30 1131 N 125.456 -6.92473 0.21286 0
M  V30 1132 N 127.249 -5.621 -0.00152098 0
M  V30 1133 H 119.4 -1.87335 1.00098 0
M  V30 1134 H 121.663 -0.86377 0.390646 0
M  V30 1135 H 121.369 -3.40262 0.889629 0
M  V30 1136 H 121.243 -3.67754 -0.838875 0
M  V30 1137 H 123.63 -2.72798 -1.1254 0
M  V30 1138 H 123.711 -2.48053 0.62475 0
M  V30 1139 H 123.355 -4.98496 0.972824 0
M  V30 1140 H 123.285 -5.20586 -0.793556 0
M  V30 1141 H 125.776 -3.7753 -0.167244 0
M  V30 1142 H 126.089 -7.72279 0.283781 0
M  V30 1143 H 124.434 -6.94556 0.248267 0
M  V30 1144 H 127.625 -4.67938 -0.122958 0
M  V30 1145 H 127.798 -6.47948 0.0824844 0
M  V30 1146 N 121.204 0.198386 -1.56346 0
M  V30 1147 C 122.62 0.549085 -1.49857 0
M  V30 1148 C 122.82 1.86016 -0.774611 0
M  V30 1149 O 121.876 2.50416 -0.323776 0
M  V30 1150 C 123.189 0.606868 -2.94512 0
M  V30 1151 C 124.737 0.695925 -3.05165 0
M  V30 1152 C 125.212 0.784848 -4.51225 0
M  V30 1153 N 126.703 0.848463 -4.55363 0
M  V30 1154 C 127.438 0.937378 -5.65686 0
M  V30 1155 N 126.934 0.9888 -6.85707 0
M  V30 1156 N 128.727 0.974312 -5.53592 0
M  V30 1157 H 120.878 -0.661655 -2.01831 0
M  V30 1158 H 123.141 -0.235261 -0.918344 0
M  V30 1159 H 122.847 -0.28732 -3.50524 0
M  V30 1160 H 122.721 1.46268 -3.47686 0
M  V30 1161 H 125.108 1.58055 -2.49204 0
M  V30 1162 H 125.189 -0.186022 -2.55123 0
M  V30 1163 H 124.833 -0.0954072 -5.0781 0
M  V30 1164 H 124.763 1.68255 -4.98997 0
M  V30 1165 H 127.254 0.818103 -3.68938 0
M  V30 1166 H 127.567 1.05707 -7.65536 0
M  V30 1167 H 125.912 0.957534 -6.88372 0
M  V30 1168 H 129.103 0.930954 -4.58749 0
M  V30 1169 H 129.276 1.04015 -6.39597 0
M  V30 1170 N 122.682 1.50554 0.465978 0
M  V30 1171 C 123.929 1.61798 1.21768 0
M  V30 1172 C 124.257 0.320696 1.91838 0
M  V30 1173 O 123.512 -0.693724 1.82992 0
M  V30 1174 C 123.811 2.75152 2.28093 0
M  V30 1175 C 123.477 4.15454 1.75239 0
M  V30 1176 C 122.139 4.53628 1.60546 0
M  V30 1177 C 124.491 5.03121 1.36083 0
M  V30 1178 C 121.819 5.77204 1.05128 0
M  V30 1179 C 124.171 6.27249 0.821056 0
M  V30 1180 C 122.835 6.64221 0.660795 0
M  V30 1181 H 122.105 0.592063 0.445582 0
M  V30 1182 H 124.752 1.84503 0.512927 0
M  V30 1183 H 123.057 2.46556 3.04496 0
M  V30 1184 H 124.754 2.81055 2.86023 0
M  V30 1185 H 121.344 3.85341 1.87644 0
M  V30 1186 H 125.528 4.74257 1.46267 0
M  V30 1187 H 120.784 6.0452 0.91462 0
M  V30 1188 H 124.958 6.94537 0.509018 0
M  V30 1189 H 122.585 7.59854 0.229226 0
M  V30 1190 N 124.16 -0.719506 1.40217 0
M  V30 1191 C 125.408 -1.47641 1.3801 0
M  V30 1192 C 125.729 -1.94992 -0.018145 0
M  V30 1193 O 124.999 -1.70073 -0.972207 0
M  V30 1194 H 123.579 -0.547744 0.507923 0
M  V30 1195 H 126.241 -0.853187 1.75233 0
M  V30 1196 H 125.337 -2.35112 2.05253 0
M  V30 1197 N 125.638 -1.25649 -0.95132 0
M  V30 1198 C 126.868 -1.13179 -1.72841 0
M  V30 1199 C 127.276 0.316827 -1.86528 0
M  V30 1200 O 126.619 1.22948 -1.3649 0
M  V30 1201 C 126.681 -1.71644 -3.15878 0
M  V30 1202 C 126.345 -3.20667 -3.25609 0
M  V30 1203 C 127.342 -4.17616 -3.09666 0
M  V30 1204 C 125.027 -3.6094 -3.49324 0
M  V30 1205 C 127.021 -5.52817 -3.17289 0
M  V30 1206 C 124.708 -4.96278 -3.56584 0
M  V30 1207 C 125.706 -5.92025 -3.40581 0
M  V30 1208 O 125.394 -7.24899 -3.47528 0
M  V30 1209 H 125.126 -0.395389 -0.54831 0
M  V30 1210 H 127.68 -1.66566 -1.20187 0
M  V30 1211 H 125.91 -1.12707 -3.69911 0
M  V30 1212 H 127.599 -1.54225 -3.75459 0
M  V30 1213 H 128.365 -3.87842 -2.91211 0
M  V30 1214 H 124.244 -2.86907 -3.6084 0
M  V30 1215 H 127.788 -6.2753 -3.04716 0
M  V30 1216 H 123.685 -5.25716 -3.74556 0
M  V30 1217 H 124.453 -7.33039 -3.64138 0
M  V30 1218 N 127.117 1.15442 -1.07289 0
M  V30 1219 C 128.08 2.18358 -0.696591 0
M  V30 1220 C 129.08 1.58637 0.262837 0
M  V30 1221 O 130.27 1.74145 0.0438809 0
M  V30 1222 C 127.402 3.4089 -0.0266151 0
M  V30 1223 H 128.595 2.53162 -1.60776 0
M  V30 1224 H 126.148 1.29893 -0.869342 0
M  V30 1225 H 126.883 3.11653 0.896822 0
M  V30 1226 H 126.668 3.85495 -0.716657 0
M  V30 1227 H 128.158 4.17009 0.222028 0
M  V30 1228 N 128.595 0.856903 1.32268 0
M  V30 1229 C 129.844 0.457599 1.96441 0
M  V30 1230 C 130.157 -0.992426 1.68553 0
M  V30 1231 O 131.363 -1.49727 2.26482 0
M  V30 1232 C 129.819 0.767358 3.51624 0
M  V30 1233 C 129.427 2.23326 3.88367 0
M  V30 1234 C 131.171 0.435887 4.22256 0
M  V30 1235 C 129.078 2.48613 5.36606 0
M  V30 1236 H 128.008 0.167387 0.735185 0
M  V30 1237 H 130.659 1.048 1.5063 0
M  V30 1238 H 129.041 0.106367 3.95857 0
M  V30 1239 H 130.215 2.93623 3.55137 0
M  V30 1240 H 128.53 2.52948 3.30766 0
M  V30 1241 H 131.127 0.602202 5.31298 0
M  V30 1242 H 131.47 -0.622672 4.11617 0
M  V30 1243 H 132.003 1.05286 3.83614 0
M  V30 1244 H 128.742 3.53101 5.52268 0
M  V30 1245 H 128.262 1.82896 5.71235 0
M  V30 1246 H 129.941 2.32676 6.03714 0
M  V30 1247 N 130.073 -1.45103 0.615059 0
M  V30 1248 C 131.319 -2.02483 0.113347 0
M  V30 1249 C 131.652 -1.48146 -1.25564 0
M  V30 1250 O 130.927 -0.659104 -1.82992 0
M  V30 1251 C 131.21 -3.60005 0.0825278 0
M  V30 1252 C 131.063 -4.2466 1.48271 0
M  V30 1253 C 132.382 -4.35972 -0.601401 0
M  V30 1254 H 129.501 -0.735764 0.0426632 0
M  V30 1255 H 132.143 -1.72868 0.788461 0
M  V30 1256 H 130.293 -3.85367 -0.492378 0
M  V30 1257 H 131.965 -4.10458 2.10527 0
M  V30 1258 H 130.208 -3.82772 2.04127 0
M  V30 1259 H 130.879 -5.336 1.41332 0
M  V30 1260 H 133.355 -4.15947 -0.112666 0
M  V30 1261 H 132.231 -5.45697 -0.592097 0
M  V30 1262 H 132.492 -4.09391 -1.66887 0
M  V30 1263 N 131.551 -0.354651 -1.53558 0
M  V30 1264 C 132.799 0.237972 -2.00694 0
M  V30 1265 C 133.12 1.50173 -1.24391 0
M  V30 1266 O 132.39 1.92673 -0.354135 0
M  V30 1267 H 130.97 0.0909256 -0.741446 0
M  V30 1268 H 133.632 -0.478368 -1.88938 0
M  V30 1269 H 132.728 0.47264 -3.085 0
M  V30 1270 N 133.029 1.57378 -0.0835403 0
M  V30 1271 C 133.959 2.1641 0.87686 0
M  V30 1272 C 134.94 1.09429 1.30228 0
M  V30 1273 O 136.125 1.37516 1.37124 0
M  V30 1274 C 133.255 2.73517 2.14022 0
M  V30 1275 C 132.209 3.85769 1.85381 0
M  V30 1276 C 131.535 4.29529 3.18448 0
M  V30 1277 C 132.835 5.09486 1.14984 0
M  V30 1278 H 134.529 2.96914 0.385059 0
M  V30 1279 H 132.075 1.42823 0.18377 0
M  V30 1280 H 134.028 3.13463 2.81636 0
M  V30 1281 H 132.752 1.90252 2.65465 0
M  V30 1282 H 131.411 3.46345 1.20169 0
M  V30 1283 H 131.059 3.43169 3.67755 0
M  V30 1284 H 130.759 5.05204 3.00071 0
M  V30 1285 H 132.283 4.72099 3.8724 0
M  V30 1286 H 133.697 5.46674 1.72687 0
M  V30 1287 H 132.094 5.90515 1.06826 0
M  V30 1288 H 133.164 4.84724 0.130749 0
M  V30 1289 N 134.507 -0.190092 1.56449 0
M  V30 1290 C 135.755 -0.907908 1.80559 0
M  V30 1291 C 136.076 -1.83583 0.657438 0
M  V30 1292 O 135.346 -1.93203 -0.323924 0
M  V30 1293 H 133.926 -0.338247 0.666032 0
M  V30 1294 H 136.588 -0.194403 1.93928 0
M  V30 1295 H 135.684 -1.49604 2.73907 0
M  V30 1296 N 135.985 -1.50799 -0.457987 0
M  V30 1297 C 136.932 -1.70617 -1.5543 0
M  V30 1298 C 137.902 -0.547562 -1.56815 0
M  V30 1299 O 139.087 -0.779647 -1.74144 0
M  V30 1300 C 136.227 -1.81831 -2.93311 0
M  V30 1301 C 135.34 -3.09278 -3.01615 0
M  V30 1302 C 134.475 -3.11209 -4.30491 0
M  V30 1303 C 133.514 -4.33055 -4.32585 0
M  V30 1304 N 132.651 -4.32652 -5.52952 0
M  V30 1305 H 137.491 -2.64207 -1.37836 0
M  V30 1306 H 135.028 -1.30959 -0.669937 0
M  V30 1307 H 136.986 -1.86314 -3.73287 0
M  V30 1308 H 135.616 -0.916685 -3.0951 0
M  V30 1309 H 134.668 -3.14203 -2.1443 0
M  V30 1310 H 135.98 -3.99233 -2.99022 0
M  V30 1311 H 135.134 -3.14494 -5.18824 0
M  V30 1312 H 133.873 -2.19106 -4.35711 0
M  V30 1313 H 132.878 -4.29969 -3.42647 0
M  V30 1314 H 134.103 -5.264 -4.29046 0
M  V30 1315 H 132.049 -3.43409 -5.58933 0
M  V30 1316 H 131.966 -5.16392 -5.52155 0
M  V30 1317 H 133.234 -4.40101 -6.43375 0
M  V30 1318 N 137.463 0.71206 -1.40597 0
M  V30 1319 C 138.693 1.49894 -1.42181 0
M  V30 1320 C 139.101 1.89189 -0.0208078 0
M  V30 1321 O 138.444 1.56223 0.966436 0
M  V30 1322 C 138.506 2.80215 -2.25211 0
M  V30 1323 C 138.17 2.63221 -3.73582 0
M  V30 1324 C 139.167 2.30249 -4.66135 0
M  V30 1325 C 136.852 2.79376 -4.17438 0
M  V30 1326 C 138.846 2.13645 -6.00529 0
M  V30 1327 C 136.533 2.6239 -5.51901 0
M  V30 1328 C 137.531 2.29573 -6.43262 0
M  V30 1329 O 137.219 2.12719 -7.75246 0
M  V30 1330 H 136.951 0.469031 -0.486812 0
M  V30 1331 H 139.505 0.88564 -1.85326 0
M  V30 1332 H 137.735 3.4389 -1.76852 0
M  V30 1333 H 139.424 3.41947 -2.18694 0
M  V30 1334 H 140.19 2.17398 -4.33547 0
M  V30 1335 H 136.069 3.03906 -3.46644 0
M  V30 1336 H 139.613 1.87953 -6.71803 0
M  V30 1337 H 135.51 2.74826 -5.84073 0
M  V30 1338 H 136.278 2.27611 -7.86216 0
M  V30 1339 N 138.941 1.26152 0.944643 0
M  V30 1340 C 139.904 1.07474 2.0244 0
M  V30 1341 C 140.904 0.0242064 1.60782 0
M  V30 1342 O 142.094 0.267302 1.72137 0
M  V30 1343 C 139.226 0.633956 3.34953 0
M  V30 1344 H 140.419 2.03336 2.20442 0
M  V30 1345 H 137.972 1.087 1.12312 0
M  V30 1346 H 138.707 -0.326811 3.22649 0
M  V30 1347 H 138.492 1.39247 3.66542 0
M  V30 1348 H 139.982 0.52501 4.14287 0
M  V30 1349 N 140.419 -1.14872 1.07899 0
M  V30 1350 C 141.349 -2.2193 0.725887 0
M  V30 1351 C 142.33 -1.67622 -0.28927 0
M  V30 1352 O 143.515 -1.93533 -0.160787 0
M  V30 1353 C 140.645 -3.47061 0.128856 0
M  V30 1354 C 139.599 -4.14363 1.07178 0
M  V30 1355 C 138.925 -5.33636 0.337229 0
M  V30 1356 C 140.225 -4.63492 2.40775 0
M  V30 1357 H 141.919 -2.51724 1.62097 0
M  V30 1358 H 139.465 -1.20991 0.780838 0
M  V30 1359 H 141.418 -4.21199 -0.130147 0
M  V30 1360 H 140.142 -3.16617 -0.80134 0
M  V30 1361 H 138.801 -3.42173 1.3158 0
M  V30 1362 H 138.449 -4.99449 -0.596606 0
M  V30 1363 H 138.149 -5.79609 0.965788 0
M  V30 1364 H 139.673 -6.10539 0.0861567 0
M  V30 1365 H 141.087 -5.2913 2.20669 0
M  V30 1366 H 139.484 -5.20148 2.99276 0
M  V30 1367 H 140.554 -3.78834 3.02676 0
M  V30 1368 N 141.898 -0.863906 -1.31812 0
M  V30 1369 C 142.846 -0.30422 -2.30602 0
M  V30 1370 C 143.84 0.577419 -1.59255 0
M  V30 1371 O 145.046 0.464194 -1.73912 0
M  V30 1372 H 141.421 -0.0796877 -0.747766 0
M  V30 1373 H 143.392 -1.15148 -2.75288 0
M  V30 1374 C 142.141 0.484617 -3.44306 0
M  V30 1375 H 141.464 -0.18451 -3.99374 0
M  V30 1376 H 142.904 0.841664 -4.15562 0
M  V30 1377 C 141.363 1.6735 -2.92396 0
M  V30 1378 O 141.893 2.77273 -2.90659 0
M  V30 1379 N 140.099 1.50362 -2.48676 0
M  V30 1380 H 139.646 0.609402 -2.50288 0
M  V30 1381 H 139.604 2.30051 -2.14299 0
M  V30 1382 N 143.376 1.44774 -0.622745 0
M  V30 1383 C 144.308 2.28856 0.125485 0
M  V30 1384 C 145.321 1.40811 0.817069 0
M  V30 1385 O 146.51 1.65044 0.679918 0
M  V30 1386 C 143.61 3.16963 1.19949 0
M  V30 1387 C 142.783 4.33374 0.592064 0
M  V30 1388 C 141.842 5.02577 1.55893 0
M  V30 1389 O 140.868 5.58873 1.07933 0
M  V30 1390 N 142.07 5.03256 2.89334 0
M  V30 1391 H 144.835 2.93713 -0.596068 0
M  V30 1392 H 142.396 1.55129 -0.463303 0
M  V30 1393 H 144.388 3.60123 1.84644 0
M  V30 1394 H 142.958 2.53913 1.82337 0
M  V30 1395 H 142.178 3.93509 -0.233322 0
M  V30 1396 H 143.466 5.08527 0.166738 0
M  V30 1397 H 142.864 4.58836 3.30887 0
M  V30 1398 H 141.421 5.50232 3.49412 0
M  V30 1399 N 144.854 0.36279 1.53368 0
M  V30 1400 C 146.103 -0.22888 2.00397 0
M  V30 1401 C 146.416 -1.50096 1.25421 0
M  V30 1402 O 147.622 -2.17106 1.63025 0
M  V30 1403 C 146.078 -0.458417 3.56969 0
M  V30 1404 C 145.686 0.798877 4.4082 0
M  V30 1405 C 147.43 -1.00789 4.12361 0
M  V30 1406 C 145.337 0.539078 5.88938 0
M  V30 1407 H 144.267 -0.089305 0.748693 0
M  V30 1408 H 146.918 0.481099 1.77081 0
M  V30 1409 H 145.3 -1.22959 3.76427 0
M  V30 1410 H 146.474 1.57262 4.33134 0
M  V30 1411 H 144.789 1.27137 3.96516 0
M  V30 1412 H 147.386 -1.21754 5.20653 0
M  V30 1413 H 147.729 -1.9692 3.66781 0
M  V30 1414 H 148.262 -0.296961 3.9669 0
M  V30 1415 H 145.001 1.47064 6.3879 0
M  V30 1416 H 144.521 -0.196222 5.99479 0
M  V30 1417 H 146.2 0.163542 6.46793 0
M  V30 1418 N 146.332 -1.57332 0.0918853 0
M  V30 1419 C 147.262 -2.16872 -0.865371 0
M  V30 1420 C 148.243 -1.10118 -1.29646 0
M  V30 1421 O 149.428 -1.38242 -1.36392 0
M  V30 1422 C 146.558 -2.74649 -2.12569 0
M  V30 1423 C 145.512 -3.86747 -1.83333 0
M  V30 1424 C 144.838 -4.31212 -3.16166 0
M  V30 1425 C 146.138 -5.10089 -1.1228 0
M  V30 1426 H 147.832 -2.97114 -0.369307 0
M  V30 1427 H 145.378 -1.42918 -0.176194 0
M  V30 1428 H 147.331 -3.14952 -2.7997 0
M  V30 1429 H 146.055 -1.91657 -2.64452 0
M  V30 1430 H 144.714 -3.46978 -1.18331 0
M  V30 1431 H 144.362 -3.45115 -3.6593 0
M  V30 1432 H 144.062 -5.06788 -2.97388 0
M  V30 1433 H 145.586 -4.74146 -3.84731 0
M  V30 1434 H 147 -5.47582 -1.69785 0
M  V30 1435 H 145.397 -5.91073 -1.03693 0
M  V30 1436 H 146.467 -4.84786 -0.105041 0
M  V30 1437 N 147.81 0.181792 -1.56548 0
M  V30 1438 C 149.221 0.745244 -1.71181 0
M  V30 1439 C 149.572 1.83262 -0.70068 0
M  V30 1440 O 148.697 2.15946 0.140154 0
M  V30 1441 C 149.292 1.35859 -3.10367 0
M  V30 1442 C 147.851 1.86898 -3.2672 0
M  V30 1443 C 146.998 0.743942 -2.67134 0
M  V30 1444 H 149.949 -0.0434661 -1.5864 0
M  V30 1445 H 149.97 2.22817 -3.08436 0
M  V30 1446 H 149.482 0.566948 -3.83937 0
M  V30 1447 H 147.583 2.68738 -2.5809 0
M  V30 1448 H 147.696 2.02162 -4.34359 0
M  V30 1449 H 146.06 1.16169 -2.26665 0
M  V30 1450 H 146.843 -0.035676 -3.43281 0
M  V30 1451 N 149.288 1.51039 0.449983 0
M  V30 1452 C 150.536 1.62759 1.19808 0
M  V30 1453 C 150.857 0.339981 1.92013 0
M  V30 1454 O 150.127 -0.643606 1.85026 0
M  V30 1455 H 148.707 0.599811 0.445237 0
M  V30 1456 H 151.369 1.87914 0.517138 0
M  V30 1457 H 150.465 2.44911 1.93455 0
M  V30 1458 N 150.766 -0.704594 1.40972 0
M  V30 1459 C 152.013 -1.46458 1.39844 0
M  V30 1460 C 152.341 -1.94499 0.00447594 0
M  V30 1461 O 151.596 -1.69275 -0.982057 0
M  V30 1462 C 151.895 -2.698 2.34399 0
M  V30 1463 C 151.561 -2.40464 3.81429 0
M  V30 1464 C 150.223 -2.32174 4.21484 0
M  V30 1465 C 152.575 -2.16086 4.74296 0
M  V30 1466 C 149.903 -1.97589 5.52427 0
M  V30 1467 C 152.255 -1.83011 6.05549 0
M  V30 1468 C 150.919 -1.7321 6.44635 0
M  V30 1469 H 150.189 -0.535927 0.511725 0
M  V30 1470 H 152.836 -0.806124 1.73706 0
M  V30 1471 H 151.141 -3.40536 1.93759 0
M  V30 1472 H 152.838 -3.27919 2.30804 0
M  V30 1473 H 149.428 -2.47808 3.49699 0
M  V30 1474 H 153.612 -2.2144 4.4416 0
M  V30 1475 H 148.868 -1.88547 5.81601 0
M  V30 1476 H 153.042 -1.63164 6.77016 0
M  V30 1477 H 150.669 -1.46179 7.46013 0
M  V30 1478 N 152.244 -1.26651 -0.937939 0
M  V30 1479 C 153.207 -1.08546 -2.01867 0
M  V30 1480 C 154.207 -0.0327327 -1.60767 0
M  V30 1481 O 155.397 -0.276427 -1.71993 0
M  V30 1482 C 152.529 -0.651711 -3.34613 0
M  V30 1483 H 153.722 -2.04502 -2.1936 0
M  V30 1484 H 151.275 -1.09294 -1.11734 0
M  V30 1485 H 152.01 0.309696 -3.22818 0
M  V30 1486 H 151.795 -1.41189 -3.65798 0
M  V30 1487 H 153.285 -0.546973 -4.14002 0
M  V30 1488 N 153.722 1.14298 -1.08507 0
M  V30 1489 C 154.97 1.84993 -0.813763 0
M  V30 1490 C 155.291 1.83405 0.662393 0
M  V30 1491 O 154.561 1.28319 1.48024 0
M  V30 1492 H 153.141 0.684966 -0.298045 0
M  V30 1493 H 155.803 1.385 -1.37126 0
M  V30 1494 H 154.899 2.89788 -1.15884 0
M  V30 1495 N 155.201 0.870884 1.31352 0
M  V30 1496 C 156.441 0.488783 1.9847 0
M  V30 1497 C 156.805 -0.941536 1.67329 0
M  V30 1498 O 158.006 -1.42903 2.27667 0
M  V30 1499 C 156.277 0.739688 3.49662 0
M  V30 1500 S 157.836 0.457582 4.36408 0
M  V30 1501 H 154.654 0.18242 0.6872 0
M  V30 1502 H 157.256 1.12711 1.59739 0
M  V30 1503 H 155.96 1.77944 3.69816 0
M  V30 1504 H 155.491 0.0883905 3.93301 0
M  V30 1505 H 157.506 -0.709752 4.91098 0
M  V30 1506 N 156.679 -1.44442 0.630414 0
M  V30 1507 C 157.611 -2.2892 -0.113347 0
M  V30 1508 C 158.624 -1.41243 -0.80959 0
M  V30 1509 O 159.813 -1.65402 -0.671156 0
M  V30 1510 C 156.913 -3.17594 -1.18266 0
M  V30 1511 C 156.086 -4.33682 -0.569073 0
M  V30 1512 C 155.145 -5.03397 -1.53226 0
M  V30 1513 O 154.171 -5.59438 -1.04967 0
M  V30 1514 N 155.373 -5.04783 -2.86661 0
M  V30 1515 H 158.138 -2.93392 0.611636 0
M  V30 1516 H 155.699 -1.54881 0.471523 0
M  V30 1517 H 157.691 -3.61097 -1.82732 0
M  V30 1518 H 156.261 -2.54876 -1.80988 0
M  V30 1519 H 155.481 -3.9338 0.254187 0
M  V30 1520 H 156.769 -5.08608 -0.139767 0
M  V30 1521 H 156.167 -4.60584 -3.28449 0
M  V30 1522 H 154.724 -5.52077 -3.46489 0
M  V30 1523 N 158.157 -0.370918 -1.53173 0
M  V30 1524 C 159.107 0.489588 -2.22681 0
M  V30 1525 C 160.091 1.04442 -1.22395 0
M  V30 1526 O 161.283 0.973578 -1.47819 0
M  V30 1527 C 158.412 1.626 -3.02351 0
M  V30 1528 C 157.498 1.08379 -4.10018 0
M  V30 1529 N 157.889 0.265004 -5.05105 0
M  V30 1530 C 156.187 1.35809 -4.2482 0
M  V30 1531 C 156.888 -0.0324755 -5.81691 0
M  V30 1532 N 155.864 0.566581 -5.40639 0
M  V30 1533 H 159.666 -0.142729 -2.93553 0
M  V30 1534 H 157.18 -0.179221 -1.61408 0
M  V30 1535 H 159.177 2.2547 -3.50669 0
M  V30 1536 H 157.837 2.26132 -2.33011 0
M  V30 1537 H 158.848 -0.0962352 -5.17811 0
M  V30 1538 H 155.525 1.9958 -3.66707 0
M  V30 1539 H 156.915 -0.69473 -6.68299 0
M  V30 1540 N 159.635 1.57281 -0.100228 0
M  V30 1541 C 160.86 1.99302 0.573881 0
M  V30 1542 C 161.285 0.979059 1.60611 0
M  V30 1543 O 160.643 -0.0517803 1.81226 0
M  V30 1544 C 160.691 3.40274 1.19358 0
M  V30 1545 O 159.795 3.41676 2.30935 0
M  V30 1546 H 159.136 0.647944 0.145138 0
M  V30 1547 H 161.666 2.03779 -0.183156 0
M  V30 1548 H 161.676 3.78078 1.53365 0
M  V30 1549 H 160.351 4.13594 0.437385 0
M  V30 1550 H 158.928 3.15672 1.98509 0
M  V30 1551 N 161.113 -0.173488 1.56642 0
M  V30 1552 C 162.529 -0.525174 1.50712 0
M  V30 1553 C 162.729 -1.8476 0.804107 0
M  V30 1554 O 161.785 -2.49869 0.363574 0
M  V30 1555 C 163.098 -0.559937 2.95441 0
M  V30 1556 C 164.646 -0.647288 3.06234 0
M  V30 1557 C 165.121 -0.712963 4.52417 0
M  V30 1558 N 166.612 -0.775911 4.56655 0
M  V30 1559 C 167.347 -0.847264 5.67106 0
M  V30 1560 N 166.843 -0.879585 6.87194 0
M  V30 1561 N 168.636 -0.886117 5.55071 0
M  V30 1562 H 160.787 0.693681 2.00753 0
M  V30 1563 H 163.05 0.249841 0.914485 0
M  V30 1564 H 162.756 0.343049 3.50023 0
M  V30 1565 H 162.63 -1.40718 3.49969 0
M  V30 1566 H 165.017 -1.5407 2.51687 0
M  V30 1567 H 165.098 0.226586 2.54794 0
M  V30 1568 H 164.742 0.176183 5.07594 0
M  V30 1569 H 164.672 -1.60295 5.0161 0
M  V30 1570 H 167.163 -0.759304 3.70193 0
M  V30 1571 H 167.476 -0.935144 7.67121 0
M  V30 1572 H 165.821 -0.847898 6.89808 0
M  V30 1573 H 169.012 -0.857853 4.60172 0
M  V30 1574 H 169.185 -0.938263 6.41171 0
M  V30 1575 N 162.591 -1.51276 -0.441967 0
M  V30 1576 C 163.84 -1.6295 -1.18871 0
M  V30 1577 C 164.153 -0.349312 -1.92456 0
M  V30 1578 O 165.359 -0.345355 -2.69295 0
M  V30 1579 C 163.815 -2.87759 -2.16155 0
M  V30 1580 C 163.423 -4.22764 -1.48239 0
M  V30 1581 C 165.167 -3.08788 -2.91291 0
M  V30 1582 C 163.074 -5.38728 -2.4398 0
M  V30 1583 H 162.004 -0.606913 -0.447406 0
M  V30 1584 H 164.655 -1.77739 -0.456205 0
M  V30 1585 H 163.037 -2.66593 -2.92821 0
M  V30 1586 H 164.211 -4.54293 -0.771635 0
M  V30 1587 H 162.526 -4.07575 -0.852741 0
M  V30 1588 H 165.123 -3.92599 -3.63002 0
M  V30 1589 H 165.466 -2.21679 -3.5237 0
M  V30 1590 H 165.999 -3.30272 -2.21733 0
M  V30 1591 H 162.738 -6.28082 -1.87598 0
M  V30 1592 H 162.258 -5.1158 -3.13123 0
M  V30 1593 H 163.937 -5.70489 -3.05207 0
M  V30 1594 N 164.069 0.697108 -1.41344 0
M  V30 1595 C 164.979 1.84088 -1.45427 0
M  V30 1596 C 165.995 1.70545 -0.34501 0
M  V30 1597 O 167.171 1.92488 -0.592492 0
M  V30 1598 C 164.236 3.20056 -1.33286 0
M  V30 1599 C 163.297 3.45718 -2.54514 0
M  V30 1600 C 162.53 4.75199 -2.42944 0
M  V30 1601 O 162.753 5.51579 -1.45318 0
M  V30 1602 O 161.687 5.0161 -3.32672 0
M  V30 1603 H 165.513 1.836 -2.41919 0
M  V30 1604 H 163.098 0.849966 -1.22866 0
M  V30 1605 H 164.98 4.01236 -1.28794 0
M  V30 1606 H 163.655 3.2123 -0.39909 0
M  V30 1607 H 162.562 2.64474 -2.64583 0
M  V30 1608 H 163.895 3.49356 -3.46715 0
M  V30 1609 N 165.547 1.27147 0.931209 0
M  V30 1610 C 166.51 1.09615 2.01289 0
M  V30 1611 C 167.51 0.0412581 1.60747 0
M  V30 1612 O 168.7 0.285545 1.71844 0
M  V30 1613 C 165.832 0.669447 3.34262 0
M  V30 1614 H 167.025 2.05662 2.18273 0
M  V30 1615 H 164.578 1.09885 1.11153 0
M  V30 1616 H 165.313 -0.292572 3.22978 0
M  V30 1617 H 165.098 1.43127 3.65044 0
M  V30 1618 H 166.588 0.568921 4.13706 0
M  V30 1619 N 167.025 -1.13721 1.09112 0
M  V30 1620 C 167.955 -2.21148 0.749385 0
M  V30 1621 C 168.936 -1.6792 -0.271475 0
M  V30 1622 O 170.121 -1.93693 -0.140251 0
M  V30 1623 C 167.251 -3.46905 0.165659 0
M  V30 1624 C 166.205 -4.13203 1.11567 0
M  V30 1625 C 165.531 -5.33248 0.393809 0
M  V30 1626 C 166.831 -4.60912 2.45678 0
M  V30 1627 H 168.525 -2.4999 1.64758 0
M  V30 1628 H 166.071 -1.20156 0.793626 0
M  V30 1629 H 168.024 -4.21313 -0.085466 0
M  V30 1630 H 166.748 -3.17449 -0.767714 0
M  V30 1631 H 165.407 -3.40758 1.35202 0
M  V30 1632 H 165.055 -5.00054 -0.543599 0
M  V30 1633 H 164.755 -5.78552 1.02721 0
M  V30 1634 H 166.279 -6.10413 0.150908 0
M  V30 1635 H 167.693 -5.26759 2.26269 0
M  V30 1636 H 166.09 -5.16944 3.04776 0
M  V30 1637 H 167.16 -3.75603 3.06677 0
M  V30 1638 N 168.503 -0.877838 -1.30888 0
M  V30 1639 C 169.749 -0.493426 -1.96706 0
M  V30 1640 C 170.082 0.953504 -1.6918 0
M  V30 1641 O 169.357 1.67266 -0.992594 0
M  V30 1642 C 169.64 -0.760429 -3.51979 0
M  V30 1643 C 169.493 -2.25747 -3.89048 0
M  V30 1644 C 170.812 -0.232148 -4.39487 0
M  V30 1645 H 167.931 -0.180746 -0.714493 0
M  V30 1646 H 170.573 -1.10052 -1.54882 0
M  V30 1647 H 168.723 -0.243715 -3.87735 0
M  V30 1648 H 170.395 -2.84204 -3.63354 0
M  V30 1649 H 168.638 -2.72694 -3.37373 0
M  V30 1650 H 169.309 -2.39491 -4.97341 0
M  V30 1651 H 171.785 -0.674314 -4.106 0
M  V30 1652 H 170.661 -0.448355 -5.47066 0
M  V30 1653 H 170.922 0.866297 -4.33529 0
M  V30 1654 N 169.982 1.44106 -0.638065 0
M  V30 1655 C 171.207 2.0685 -0.150916 0
M  V30 1656 C 171.632 1.47417 1.16833 0
M  V30 1657 O 170.99 0.578264 1.71831 0
M  V30 1658 C 171.038 3.60555 -0.05708 0
M  V30 1659 O 170.142 4.00465 0.984972 0
M  V30 1660 H 169.483 0.658151 -0.0879399 0
M  V30 1661 H 172.013 1.84865 -0.876707 0
M  V30 1662 H 172.023 4.07789 0.131232 0
M  V30 1663 H 170.698 4.03193 -1.02021 0
M  V30 1664 H 169.275 3.64849 0.770672 0
M  V30 1665 N 171.46 0.379036 1.52974 0
M  V30 1666 C 172.708 -0.206014 2.01047 0
M  V30 1667 C 173.029 -1.48175 1.26765 0
M  V30 1668 O 172.299 -1.92085 0.384743 0
M  V30 1669 H 170.879 -0.0791184 0.742798 0
M  V30 1670 H 173.541 0.508366 1.88153 0
M  V30 1671 H 172.637 -0.423501 3.09213 0
M  V30 1672 N 172.938 -1.57226 0.108567 0
M  V30 1673 C 173.886 -2.16002 -0.862885 0
M  V30 1674 C 174.88 -1.10644 -1.28274 0
M  V30 1675 O 176.086 -1.28966 -1.2557 0
M  V30 1676 H 172.461 -0.691148 -0.296342 0
M  V30 1677 H 174.432 -2.96427 -0.342575 0
M  V30 1678 C 173.181 -2.76576 -2.10716 0
M  V30 1679 H 172.504 -3.5734 -1.793 0
M  V30 1680 H 173.944 -3.21253 -2.76717 0
M  V30 1681 C 172.403 -1.73137 -2.89007 0
M  V30 1682 O 172.933 -1.17842 -3.84026 0
M  V30 1683 N 171.139 -1.43317 -2.52801 0
M  V30 1684 H 170.686 -1.88473 -1.75601 0
M  V30 1685 H 170.644 -0.743485 -3.05483 0
M  V30 1686 N 174.416 0.165178 -1.56732 0
M  V30 1687 C 175.379 1.18822 -1.95995 0
M  V30 1688 C 176.379 1.3685 -0.84431 0
M  V30 1689 O 177.569 1.34152 -1.11126 0
M  V30 1690 C 174.701 2.5521 -2.26011 0
M  V30 1691 H 175.894 0.851825 -2.87548 0
M  V30 1692 H 173.447 0.407857 -1.50885 0
M  V30 1693 H 174.182 2.93852 -1.37191 0
M  V30 1694 H 173.967 2.43489 -3.07336 0
M  V30 1695 H 175.457 3.28927 -2.57288 0
M  V30 1696 N 175.894 1.51508 0.433938 0
M  V30 1697 C 176.804 1.75917 1.5521 0
M  V30 1698 C 177.82 0.643545 1.61662 0
M  V30 1699 O 178.996 0.926183 1.7884 0
M  V30 1700 C 176.061 1.88213 2.91164 0
M  V30 1701 C 175.122 3.12074 2.94802 0
M  V30 1702 C 174.355 3.23774 4.24271 0
M  V30 1703 O 174.578 2.4133 5.16833 0
M  V30 1704 O 173.512 4.16774 4.34262 0
M  V30 1705 H 177.338 2.70777 1.37527 0
M  V30 1706 H 174.923 1.36051 0.617293 0
M  V30 1707 H 176.805 1.98267 3.71845 0
M  V30 1708 H 175.48 0.965413 3.08968 0
M  V30 1709 H 174.387 3.07497 2.13065 0
M  V30 1710 H 175.72 4.03446 2.81943 0
M  V30 1711 N 177.372 -0.689602 1.41712 0
M  V30 1712 C 178.319 -1.80345 1.44029 0
M  V30 1713 C 179.289 -1.63478 0.293948 0
M  V30 1714 O 180.474 -1.84244 0.495869 0
M  V30 1715 C 177.614 -3.18272 1.33405 0
M  V30 1716 C 176.727 -3.46529 2.57956 0
M  V30 1717 C 175.862 -4.74103 2.39582 0
M  V30 1718 C 174.901 -4.95347 3.5958 0
M  V30 1719 N 174.038 -6.14151 3.40239 0
M  V30 1720 H 178.878 -1.77698 2.39222 0
M  V30 1721 H 176.415 -0.867688 1.18784 0
M  V30 1722 H 178.373 -3.97956 1.25246 0
M  V30 1723 H 177.003 -3.2008 0.418164 0
M  V30 1724 H 176.055 -2.61207 2.76542 0
M  V30 1725 H 177.367 -3.58126 3.47199 0
M  V30 1726 H 176.521 -5.61853 2.28924 0
M  V30 1727 H 175.26 -4.64763 1.47805 0
M  V30 1728 H 174.265 -4.06044 3.70686 0
M  V30 1729 H 175.49 -5.06542 4.52318 0
M  V30 1730 H 173.436 -6.06013 2.51167 0
M  V30 1731 H 173.353 -6.26543 4.23061 0
M  V30 1732 H 174.621 -7.04619 3.33365 0
M  V30 1733 N 178.85 -1.27639 -0.924453 0
M  V30 1734 C 179.813 -1.10681 -2.00705 0
M  V30 1735 C 180.813 -0.0497823 -1.60723 0
M  V30 1736 O 182.003 -0.294654 -1.7169 0
M  V30 1737 C 179.135 -0.687164 -3.33902 0
M  V30 1738 H 180.328 -2.06817 -2.17179 0
M  V30 1739 H 177.881 -1.10473 -1.10569 0
M  V30 1740 H 178.616 0.275439 -3.23128 0
M  V30 1741 H 178.401 -1.45061 -3.6428 0
M  V30 1742 H 179.891 -0.590853 -4.13399 0
M  V30 1743 N 180.328 1.1314 -1.09713 0
M  V30 1744 C 181.275 2.18642 -0.739196 0
M  V30 1745 C 182.245 1.63706 0.280978 0
M  V30 1746 O 183.43 1.90111 0.161946 0
M  V30 1747 C 180.57 3.44685 -0.169102 0
M  V30 1748 C 179.683 4.13711 -1.24367 0
M  V30 1749 C 178.818 5.27379 -0.636019 0
M  V30 1750 C 177.857 5.88259 -1.69169 0
M  V30 1751 N 176.994 6.93352 -1.10485 0
M  V30 1752 H 181.834 2.48607 -1.64312 0
M  V30 1753 H 179.371 1.22066 -0.820875 0
M  V30 1754 H 181.329 4.16815 0.179256 0
M  V30 1755 H 179.959 3.15161 0.698079 0
M  V30 1756 H 179.011 3.39835 -1.70927 0
M  V30 1757 H 180.323 4.55037 -2.04311 0
M  V30 1758 H 179.477 6.06238 -0.236677 0
M  V30 1759 H 178.216 4.8731 0.194928 0
M  V30 1760 H 177.221 5.08092 -2.10055 0
M  V30 1761 H 178.446 6.30399 -2.52536 0
M  V30 1762 H 176.392 6.55335 -0.295234 0
M  V30 1763 H 176.309 7.33236 -1.84121 0
M  V30 1764 H 177.577 7.76057 -0.73181 0
M  V30 1765 N 181.806 0.884767 1.30421 0
M  V30 1766 C 183.055 0.499164 1.95426 0
M  V30 1767 C 183.368 -0.95645 1.70621 0
M  V30 1768 O 184.574 -1.44889 2.29607 0
M  V30 1769 C 183.03 0.84177 3.49917 0
M  V30 1770 C 182.638 2.31514 3.83543 0
M  V30 1771 C 184.382 0.525355 4.21237 0
M  V30 1772 C 182.289 2.59939 5.31212 0
M  V30 1773 H 181.219 0.182944 0.73147 0
M  V30 1774 H 183.87 1.07971 1.48373 0
M  V30 1775 H 182.252 0.190311 3.95542 0
M  V30 1776 H 183.426 3.0109 3.48829 0
M  V30 1777 H 181.741 2.59907 3.25326 0
M  V30 1778 H 184.338 0.714762 5.29901 0
M  V30 1779 H 184.681 -0.535222 4.12845 0
M  V30 1780 H 185.214 1.134 3.81294 0
M  V30 1781 H 181.953 3.64736 5.44654 0
M  V30 1782 H 181.473 1.94972 5.67227 0
M  V30 1783 H 183.152 2.45429 5.98643 0
M  V30 1784 N 183.284 -1.43765 0.645699 0
M  V30 1785 C 184.53 -2.02197 0.156271 0
M  V30 1786 C 184.863 -1.50776 -1.22393 0
M  V30 1787 O 184.138 -0.697771 -1.81553 0
M  V30 1788 C 184.421 -3.59749 0.158872 0
M  V30 1789 C 184.274 -4.21419 1.57245 0
M  V30 1790 C 185.593 -4.37149 -0.50879 0
M  V30 1791 H 182.712 -0.734694 0.0582602 0
M  V30 1792 H 185.354 -1.71157 0.824951 0
M  V30 1793 H 183.504 -3.86325 -0.410525 0
M  V30 1794 H 185.176 -4.059 2.19186 0
M  V30 1795 H 183.419 -3.78356 2.122 0
M  V30 1796 H 184.09 -5.30482 1.52619 0
M  V30 1797 H 186.566 -4.16093 -0.024412 0
M  V30 1798 H 185.442 -5.4683 -0.476213 0
M  V30 1799 H 185.703 -4.12839 -1.58165 0
M  V30 1800 N 184.763 -0.387143 -1.52771 0
M  V30 1801 C 185.726 0.436939 -2.24997 0
M  V30 1802 C 186.726 0.991991 -1.26555 0
M  V30 1803 O 187.916 0.874335 -1.50669 0
M  V30 1804 C 185.048 1.61281 -3.00335 0
M  V30 1805 H 186.241 -0.195365 -2.99263 0
M  V30 1806 H 183.794 -0.139218 -1.55679 0
M  V30 1807 H 184.529 2.2826 -2.30364 0
M  V30 1808 H 184.314 1.22154 -3.72587 0
M  V30 1809 H 185.804 2.19629 -3.5518 0
M  V30 1810 N 186.241 1.57166 -0.116904 0
M  V30 1811 C 187.204 2.14039 0.819742 0
M  V30 1812 C 188.204 1.07477 1.19605 0
M  V30 1813 O 189.394 1.33263 1.1219 0
M  V30 1814 C 186.526 2.67891 2.10826 0
M  V30 1815 H 187.719 2.98128 0.325511 0
M  V30 1816 H 185.272 1.55739 0.132312 0
M  V30 1817 H 186.007 1.87384 2.64685 0
M  V30 1818 H 185.792 3.45823 1.84793 0
M  V30 1819 H 187.282 3.11809 2.77785 0
M  V30 1820 N 187.719 -0.156864 1.56817 0
M  V30 1821 C 188.629 -1.2136 2.00771 0
M  V30 1822 C 189.645 -1.47598 0.921459 0
M  V30 1823 O 190.821 -1.59462 1.2302 0
M  V30 1824 C 187.886 -2.52943 2.37109 0
M  V30 1825 C 186.947 -2.34439 3.59634 0
M  V30 1826 C 186.18 -3.59748 3.94229 0
M  V30 1827 O 186.403 -4.65526 3.29609 0
M  V30 1828 O 185.337 -3.52998 4.8752 0
M  V30 1829 H 189.163 -0.870468 2.90958 0
M  V30 1830 H 186.748 -0.36484 1.44877 0
M  V30 1831 H 188.63 -3.30538 2.61386 0
M  V30 1832 H 187.305 -2.86806 1.5008 0
M  V30 1833 H 186.212 -1.54828 3.40557 0
M  V30 1834 H 187.545 -2.05496 4.4725 0
M  V30 1835 N 189.197 -1.51736 -0.425897 0
M  V30 1836 C 190.427 -1.68549 -1.19476 0
M  V30 1837 C 190.835 -0.387288 -1.85194 0
M  V30 1838 O 190.178 0.645142 -1.71999 0
M  V30 1839 C 190.24 -2.75275 -2.31223 0
M  V30 1840 C 189.904 -4.17534 -1.8578 0
M  V30 1841 C 190.901 -5.01936 -1.35485 0
M  V30 1842 C 188.586 -4.6369 -1.93123 0
M  V30 1843 C 190.58 -6.30559 -0.931347 0
M  V30 1844 C 188.267 -5.92307 -1.50384 0
M  V30 1845 C 189.265 -6.75569 -1.00473 0
M  V30 1846 O 188.953 -8.0178 -0.583452 0
M  V30 1847 H 188.685 -0.568525 -0.365725 0
M  V30 1848 H 191.239 -1.98982 -0.509444 0
M  V30 1849 H 189.469 -2.40182 -3.03067 0
M  V30 1850 H 191.158 -2.80853 -2.93047 0
M  V30 1851 H 191.924 -4.67475 -1.29197 0
M  V30 1852 H 187.803 -3.98997 -2.30916 0
M  V30 1853 H 191.347 -6.95498 -0.541084 0
M  V30 1854 H 187.244 -6.2628 -1.56346 0
M  V30 1855 H 188.012 -8.1543 -0.708275 0
M  V30 1856 N 190.675 0.682077 -1.42076 0
M  V30 1857 C 191.923 1.4393 -1.41876 0
M  V30 1858 C 192.244 1.94971 -0.0335599 0
M  V30 1859 O 191.514 1.72591 0.926773 0
M  V30 1860 H 190.094 0.534085 -0.522267 0
M  V30 1861 H 192.756 0.806427 -1.77434 0
M  V30 1862 H 191.852 2.29588 -2.11414 0
M  V30 1863 N 192.153 1.28127 0.917671 0
M  V30 1864 C 193.399 1.15223 1.66888 0
M  V30 1865 C 193.732 -0.299293 1.9188 0
M  V30 1866 O 193.007 -1.21805 1.51637 0
M  V30 1867 C 193.29 1.94706 3.02922 0
M  V30 1868 C 193.143 3.47898 2.85109 0
M  V30 1869 C 194.462 1.75939 4.03402 0
M  V30 1870 H 191.581 0.419946 0.605652 0
M  V30 1871 H 194.223 1.57398 1.06423 0
M  V30 1872 H 192.373 1.58864 3.54534 0
M  V30 1873 H 194.045 3.93624 2.40537 0
M  V30 1874 H 192.288 3.7373 2.20246 0
M  V30 1875 H 192.959 3.98765 3.81694 0
M  V30 1876 H 195.435 2.07209 3.60837 0
M  V30 1877 H 194.311 2.33931 4.96556 0
M  V30 1878 H 194.572 0.709877 4.36364 0
M  V30 1879 N 193.631 -1.12557 1.10312 0
M  V30 1880 C 194.908 -1.80363 0.756878 0
M  V30 1881 C 195.288 -1.97067 -0.756824 0
M  V30 1882 O 194.636 -1.54601 -1.68259 0
M  V30 1883 C 194.846 -3.14812 1.50647 0
M  V30 1884 C 196.194 -3.90029 1.67817 0
M  V30 1885 O 197.218 -3.24464 1.46974 0
M  V30 1886 O 196.077 -5.07652 2.02365 0
M  V30 1887 H 193.171 -0.780667 0.272926 0
M  V30 1888 H 195.717 -1.19404 1.20586 0
M  V30 1889 H 194.489 -2.97936 2.53672 0
M  V30 1890 H 194.112 -3.83478 1.05026 0
M  V30 1891 N 195.109 -0.891671 -1.2995 0
M  V30 1892 C 196.52 -0.563104 -1.78006 0
M  V30 1893 C 196.871 0.920978 -1.73241 0
M  V30 1894 O 195.996 1.71987 -1.31337 0
M  V30 1895 C 196.591 -1.01539 -3.23226 0
M  V30 1896 C 195.15 -0.738124 -3.69092 0
M  V30 1897 C 194.297 -1.19461 -2.50249 0
M  V30 1898 H 197.248 -1.07522 -1.16725 0
M  V30 1899 H 197.269 -0.347217 -3.78912 0
M  V30 1900 H 196.781 -2.09555 -3.26662 0
M  V30 1901 H 194.882 0.329766 -3.71138 0
M  V30 1902 H 194.995 -1.33037 -4.60259 0
M  V30 1903 H 193.359 -0.613787 -2.47194 0
M  V30 1904 H 194.142 -2.28265 -2.56417 0
M  V30 1905 N 196.587 1.43421 -0.653314 0
M  V30 1906 C 198.003 1.56341 -0.320886 0
M  V30 1907 C 198.203 1.63696 1.17499 0
M  V30 1908 O 197.259 1.59208 1.95982 0
M  V30 1909 C 198.572 2.82424 -1.03233 0
M  V30 1910 C 200.12 2.96168 -1.01259 0
M  V30 1911 C 200.595 4.25084 -1.70492 0
M  V30 1912 N 202.086 4.31948 -1.67257 0
M  V30 1913 C 202.821 5.30466 -2.17701 0
M  V30 1914 N 202.317 6.35261 -2.76434 0
M  V30 1915 N 204.11 5.2212 -2.082 0
M  V30 1916 H 196.261 1.3689 -1.62403 0
M  V30 1917 H 198.524 0.657455 -0.682977 0
M  V30 1918 H 198.23 2.83053 -2.08744 0
M  V30 1919 H 198.104 3.72653 -0.583948 0
M  V30 1920 H 200.491 2.9508 0.0341235 0
M  V30 1921 H 200.572 2.07229 -1.49966 0
M  V30 1922 H 200.216 4.26932 -2.7512 0
M  V30 1923 H 200.146 5.1292 -1.19251 0
M  V30 1924 H 202.637 3.56838 -1.24398 0
M  V30 1925 H 202.95 7.06754 -3.12601 0
M  V30 1926 H 201.295 6.35884 -2.80495 0
M  V30 1927 H 204.486 4.39166 -1.62021 0
M  V30 1928 H 204.659 5.98739 -2.47822 0
M  V30 1929 N 198.065 0.39524 1.52563 0
M  V30 1930 C 199.012 -0.437036 2.26624 0
M  V30 1931 C 199.982 -1.05281 1.28472 0
M  V30 1932 O 201.167 -1.07971 1.57311 0
M  V30 1933 C 198.307 -1.55524 3.08069 0
M  V30 1934 C 197.42 -0.961745 4.21158 0
M  V30 1935 C 196.555 -2.05149 4.89987 0
M  V30 1936 C 195.594 -1.4342 5.95061 0
M  V30 1937 N 194.731 -2.46351 6.57462 0
M  V30 1938 H 199.571 0.200976 2.97322 0
M  V30 1939 H 197.108 0.110944 1.46681 0
M  V30 1940 H 199.066 -2.21437 3.53584 0
M  V30 1941 H 197.696 -2.16348 2.3957 0
M  V30 1942 H 196.748 -0.192048 3.79915 0
M  V30 1943 H 198.06 -0.470701 4.96574 0
M  V30 1944 H 197.214 -2.78819 5.38837 0
M  V30 1945 H 195.953 -2.57615 4.14109 0
M  V30 1946 H 194.958 -0.682774 5.45544 0
M  V30 1947 H 196.183 -0.917416 6.72875 0
M  V30 1948 H 194.129 -2.97975 5.8442 0
M  V30 1949 H 194.046 -2.02019 7.28508 0
M  V30 1950 H 195.314 -3.19633 7.10954 0
M  V30 1951 N 199.544 -1.57102 0.125237 0
M  V30 1952 C 200.793 -1.94582 -0.531095 0
M  V30 1953 C 201.106 -1.01126 -1.6743 0
M  V30 1954 O 202.312 -1.28097 -2.39381 0
M  V30 1955 C 200.768 -3.45839 -0.996164 0
M  V30 1956 C 200.376 -4.47842 0.118926 0
M  V30 1957 C 202.12 -3.92227 -1.62352 0
M  V30 1958 C 200.027 -5.90284 -0.363192 0
M  V30 1959 H 198.957 -0.726391 -0.20217 0
M  V30 1960 H 201.608 -1.82339 0.206092 0
M  V30 1961 H 199.99 -3.53338 -1.78796 0
M  V30 1962 H 201.164 -4.52018 0.895358 0
M  V30 1963 H 199.479 -4.11243 0.653324 0
M  V30 1964 H 202.076 -4.96069 -1.99548 0
M  V30 1965 H 202.419 -3.32552 -2.50429 0
M  V30 1966 H 202.952 -3.87554 -0.897019 0
M  V30 1967 H 199.691 -6.53728 0.481679 0
M  V30 1968 H 199.211 -5.89515 -1.10597 0
M  V30 1969 H 200.89 -6.41752 -0.822377 0
M  V30 1970 N 201.022 0.148545 -1.56898 0
M  V30 1971 C 202.252 0.875118 -1.8715 0
M  V30 1972 C 202.66 1.75322 -0.711262 0
M  V30 1973 O 202.003 1.80745 0.328151 0
M  V30 1974 C 202.065 1.7844 -3.12089 0
M  V30 1975 C 201.729 1.08361 -4.43967 0
M  V30 1976 C 202.726 0.438247 -5.1805 0
M  V30 1977 C 200.411 1.07358 -4.90693 0
M  V30 1978 C 202.405 -0.20779 -6.37061 0
M  V30 1979 C 200.092 0.42373 -6.09629 0
M  V30 1980 C 201.09 -0.215829 -6.82659 0
M  V30 1981 O 200.778 -0.855378 -7.99336 0
M  V30 1982 H 200.51 0.258504 -0.624621 0
M  V30 1983 H 203.064 0.14652 -2.04877 0
M  V30 1984 H 201.294 2.55389 -2.90367 0
M  V30 1985 H 202.983 2.38279 -3.286 0
M  V30 1986 H 203.749 0.437817 -4.8302 0
M  V30 1987 H 199.628 1.5608 -4.33774 0
M  V30 1988 H 203.172 -0.70758 -6.94002 0
M  V30 1989 H 199.069 0.421822 -6.4412 0
M  V30 1990 H 199.837 -0.756892 -8.14993 0
M  V30 1991 N 202.5 1.5196 0.417844 0
M  V30 1992 C 203.777 1.56146 1.17803 0
M  V30 1993 C 204.157 0.337275 2.08388 0
M  V30 1994 O 203.505 -0.676447 2.18258 0
M  V30 1995 C 203.715 2.88566 1.96293 0
M  V30 1996 C 205.063 3.41244 2.52662 0
M  V30 1997 O 206.087 2.90247 2.06483 0
M  V30 1998 O 204.946 4.30273 3.36938 0
M  V30 1999 H 202.04 0.628598 0.537395 0
M  V30 2000 H 204.586 1.64283 0.425331 0
M  V30 2001 H 203.358 3.69116 1.2988 0
M  V30 2002 H 202.981 2.83681 2.78587 0
M  V30 2003 N 203.978 -0.674533 1.42435 0
M  V30 2004 C 205.208 -1.46071 1.46105 0
M  V30 2005 C 205.616 -1.89067 0.0709605 0
M  V30 2006 O 204.959 -1.58731 -0.924677 0
M  V30 2007 C 205.021 -2.74145 2.32561 0
M  V30 2008 C 204.685 -2.53224 3.8043 0
M  V30 2009 C 205.682 -2.17809 4.72075 0
M  V30 2010 C 203.367 -2.6821 4.24698 0
M  V30 2011 C 205.361 -1.97648 6.05982 0
M  V30 2012 C 203.048 -2.47665 5.58664 0
M  V30 2013 C 204.046 -2.12437 6.49122 0
M  V30 2014 O 203.734 -1.9209 7.80613 0
M  V30 2015 H 203.466 -0.455959 0.499076 0
M  V30 2016 H 206.02 -0.836193 1.87609 0
M  V30 2017 H 204.25 -3.3908 1.85908 0
M  V30 2018 H 205.939 -3.36028 2.27683 0
M  V30 2019 H 206.705 -2.05826 4.39159 0
M  V30 2020 H 202.584 -2.94609 3.54579 0
M  V30 2021 H 206.128 -1.70075 6.7655 0
M  V30 2022 H 202.025 -2.59244 5.91154 0
M  V30 2023 H 202.793 -2.06686 7.91974 0
M  V30 2024 N 205.456 -1.28612 -0.910864 0
M  V30 2025 C 206.681 -1.1891 -1.69927 0
M  V30 2026 C 207.106 0.248372 -1.86453 0
M  V30 2027 O 206.464 1.17961 -1.37676 0
M  V30 2028 C 206.512 -1.89578 -3.06745 0
M  V30 2029 O 205.616 -1.20521 -3.94396 0
M  V30 2030 H 204.957 -0.412632 -0.520222 0
M  V30 2031 H 207.487 -1.69985 -1.1387 0
M  V30 2032 H 207.497 -1.97597 -3.56958 0
M  V30 2033 H 206.172 -2.94136 -2.94035 0
M  V30 2034 H 204.749 -1.20684 -3.52831 0
M  V30 2035 N 206.934 1.1197 -1.10907 0
M  V30 2036 C 207.882 2.19927 -0.757303 0
M  V30 2037 C 208.876 1.67564 0.248747 0
M  V30 2038 O 210.082 1.79672 0.108605 0
M  V30 2039 H 206.457 0.716925 -0.226987 0
M  V30 2040 H 208.428 2.46847 -1.67658 0
M  V30 2041 C 207.177 3.47061 -0.210671 0
M  V30 2042 H 206.5 3.87703 -0.976049 0
M  V30 2043 H 207.94 4.24 -0.0026584 0
M  V30 2044 C 206.399 3.19864 1.05777 0
M  V30 2045 O 206.929 3.40049 2.13845 0
M  V30 2046 N 205.135 2.73636 0.978349 0
M  V30 2047 H 204.682 2.5741 0.0988246 0
M  V30 2048 H 204.64 2.55815 1.82773 0
M  V30 2049 N 208.412 0.89855 1.29475 0
M  V30 2050 C 209.659 0.523882 1.95606 0
M  V30 2051 C 209.987 -0.929608 1.70847 0
M  V30 2052 O 209.242 -1.67401 1.01367 0
M  V30 2053 C 209.541 0.761398 3.49195 0
M  V30 2054 C 209.207 2.19207 3.94029 0
M  V30 2055 C 207.869 2.58326 4.05982 0
M  V30 2056 C 210.221 3.12379 4.17216 0
M  V30 2057 C 207.549 3.898 4.38489 0
M  V30 2058 C 209.901 4.43401 4.51197 0
M  V30 2059 C 208.565 4.82394 4.61359 0
M  V30 2060 H 207.835 0.191702 0.715773 0
M  V30 2061 H 210.482 1.13699 1.54094 0
M  V30 2062 H 208.787 0.0653622 3.91745 0
M  V30 2063 H 210.484 0.450904 3.98457 0
M  V30 2064 H 207.074 1.87846 3.85242 0
M  V30 2065 H 211.258 2.83371 4.07449 0
M  V30 2066 H 206.514 4.19734 4.44559 0
M  V30 2067 H 210.688 5.15623 4.68087 0
M  V30 2068 H 208.315 5.84306 4.86303 0
M  V30 2069 N 209.89 -1.43072 0.660911 0
M  V30 2070 C 211.167 -1.95307 0.107017 0
M  V30 2071 C 211.547 -1.60192 -1.37484 0
M  V30 2072 O 210.895 -0.890949 -2.10415 0
M  V30 2073 C 211.105 -3.47124 0.361402 0
M  V30 2074 C 212.453 -4.23738 0.270455 0
M  V30 2075 O 213.477 -3.54981 0.294382 0
M  V30 2076 O 212.336 -5.46131 0.200737 0
M  V30 2077 H 209.43 -0.826984 -0.00517729 0
M  V30 2078 H 211.976 -1.52972 0.734681 0
M  V30 2079 H 210.748 -3.65837 1.38848 0
M  V30 2080 H 210.371 -3.96475 -0.298953 0
M  V30 2081 N 211.368 -0.403325 -1.52352 0
M  V30 2082 C 212.315 0.425011 -2.26853 0
M  V30 2083 C 213.285 1.04598 -1.29029 0
M  V30 2084 O 214.47 1.07135 -1.57882 0
M  V30 2085 C 211.61 1.53888 -3.08889 0
M  V30 2086 C 210.723 0.939396 -4.21663 0
M  V30 2087 C 209.858 2.02547 -4.91068 0
M  V30 2088 C 208.897 1.40263 -5.95813 0
M  V30 2089 N 208.034 2.4286 -6.58759 0
M  V30 2090 H 212.874 -0.21674 -2.97211 0
M  V30 2091 H 210.411 -0.118722 -1.4662 0
M  V30 2092 H 212.369 2.19558 -3.54753 0
M  V30 2093 H 210.999 2.15074 -2.40714 0
M  V30 2094 H 210.051 0.171898 -3.80011 0
M  V30 2095 H 211.363 0.44436 -4.96817 0
M  V30 2096 H 210.517 2.75958 -5.40308 0
M  V30 2097 H 209.256 2.55415 -4.15469 0
M  V30 2098 H 208.261 0.653833 -5.45898 0
M  V30 2099 H 209.486 0.881719 -6.73352 0
M  V30 2100 H 207.432 2.94871 -5.85992 0
M  V30 2101 H 207.349 1.98152 -7.2957 0
M  V30 2102 H 208.617 3.15858 -7.12639 0
M  V30 2103 N 212.846 1.57033 -0.133567 0
M  V30 2104 C 214.095 1.94861 0.520768 0
M  V30 2105 C 214.408 1.02012 1.66892 0
M  V30 2106 O 215.614 1.29365 2.38699 0
M  V30 2107 C 214.07 3.46362 0.977809 0
M  V30 2108 C 213.678 4.47773 -0.142674 0
M  V30 2109 C 215.422 3.93083 1.60269 0
M  V30 2110 C 213.329 5.90468 0.331883 0
M  V30 2111 H 212.259 0.727453 0.198315 0
M  V30 2112 H 214.91 1.82227 -0.215759 0
M  V30 2113 H 213.292 3.54282 1.7692 0
M  V30 2114 H 214.466 4.51536 -0.919317 0
M  V30 2115 H 212.781 4.10891 -0.675124 0
M  V30 2116 H 215.378 4.97121 1.96914 0
M  V30 2117 H 215.721 3.33876 2.48662 0
M  V30 2118 H 216.254 3.88025 0.876453 0
M  V30 2119 H 212.993 6.53463 -0.516341 0
M  V30 2120 H 212.513 5.90094 1.07469 0
M  V30 2121 H 214.192 6.42179 0.788332 0
M  V30 2122 N 214.325 -0.140222 1.56975 0
M  V30 2123 C 215.288 -1.15689 1.97861 0
M  V30 2124 C 216.288 -1.3549 0.865974 0
M  V30 2125 O 217.478 -1.32367 1.13246 0
M  V30 2126 C 214.61 -2.51582 2.30042 0
M  V30 2127 H 215.803 -0.805971 2.88867 0
M  V30 2128 H 213.356 -0.383801 1.51515 0
M  V30 2129 H 214.091 -2.91632 1.41849 0
M  V30 2130 H 213.876 -2.38569 3.11171 0
M  V30 2131 H 215.366 -3.24792 2.62488 0
M  V30 2132 N 215.803 -1.52179 -0.40978 0
M  V30 2133 C 216.75 -1.75475 -1.49924 0
M  V30 2134 C 217.72 -0.597175 -1.54994 0
M  V30 2135 O 218.905 -0.834655 -1.71575 0
M  V30 2136 C 216.045 -1.9107 -2.87378 0
M  V30 2137 C 215.158 -3.18717 -2.91622 0
M  V30 2138 C 214.293 -3.24747 -4.20372 0
M  V30 2139 C 213.332 -4.46598 -4.18588 0
M  V30 2140 N 212.469 -4.50025 -5.38908 0
M  V30 2141 H 217.309 -2.68458 -1.29361 0
M  V30 2142 H 214.846 -1.33024 -0.627934 0
M  V30 2143 H 216.804 -1.98096 -3.6717 0
M  V30 2144 H 215.434 -1.01469 -3.06437 0
M  V30 2145 H 214.486 -3.20866 -2.04326 0
M  V30 2146 H 215.798 -4.08544 -2.86169 0
M  V30 2147 H 214.952 -3.30841 -5.08556 0
M  V30 2148 H 213.691 -2.32857 -4.28519 0
M  V30 2149 H 212.696 -4.40652 -3.28794 0
M  V30 2150 H 213.921 -5.39783 -4.12081 0
M  V30 2151 H 211.867 -3.61017 -5.47725 0
M  V30 2152 H 211.784 -5.33697 -5.35447 0
M  V30 2153 H 213.052 -4.60347 -6.29048 0
M  V30 2154 N 217.281 0.66697 -1.42791 0
M  V30 2155 C 218.558 1.4234 -1.34159 0
M  V30 2156 C 218.938 2.11093 0.0172729 0
M  V30 2157 O 218.286 2.03808 1.03318 0
M  V30 2158 C 218.496 2.41942 -2.51526 0
M  V30 2159 C 219.844 3.06353 -2.93995 0
M  V30 2160 O 220.868 2.52269 -2.51473 0
M  V30 2161 O 219.727 4.04376 -3.67617 0
M  V30 2162 H 216.821 0.635277 -0.529483 0
M  V30 2163 H 219.367 0.695034 -1.54814 0
M  V30 2164 H 218.139 1.89991 -3.42081 0
M  V30 2165 H 217.762 3.22249 -2.32898 0
M  V30 2166 N 218.759 1.29093 0.90403 0
M  V30 2167 C 220.17 1.15186 1.46932 0
M  V30 2168 C 220.521 -0.254587 1.94541 0
M  V30 2169 O 219.646 -1.14972 1.83332 0
M  V30 2170 C 220.241 2.08492 2.67051 0
M  V30 2171 C 218.8 1.98621 3.19729 0
M  V30 2172 C 217.947 1.9967 1.92425 0
M  V30 2173 H 220.898 1.41641 0.715789 0
M  V30 2174 H 220.919 1.65461 3.42641 0
M  V30 2175 H 220.431 3.10847 2.3237 0
M  V30 2176 H 218.532 0.993389 3.59114 0
M  V30 2177 H 218.645 2.86068 3.8432 0
M  V30 2178 H 217.009 1.44208 2.09943 0
M  V30 2179 H 217.792 3.03721 1.60026 0
M  V30 2180 N 220.237 -1.11381 1.11499 0
M  V30 2181 C 221.184 -2.17439 0.773887 0
M  V30 2182 C 222.154 -1.64132 -0.254899 0
M  V30 2183 O 223.339 -1.90345 -0.13168 0
M  V30 2184 C 220.479 -3.44373 0.223917 0
M  V30 2185 C 219.592 -4.1168 1.30934 0
M  V30 2186 C 218.727 -5.263 0.71984 0
M  V30 2187 C 217.766 -5.85493 1.78507 0
M  V30 2188 N 216.903 -6.91507 1.21502 0
M  V30 2189 H 221.743 -2.45962 1.68246 0
M  V30 2190 H 219.28 -1.20744 0.840191 0
M  V30 2191 H 221.238 -4.17047 -0.112921 0
M  V30 2192 H 219.868 -3.16232 -0.647851 0
M  V30 2193 H 218.92 -3.37073 1.76312 0
M  V30 2194 H 220.232 -4.51729 2.11524 0
M  V30 2195 H 219.386 -6.05785 0.333094 0
M  V30 2196 H 218.125 -4.87559 -0.117377 0
M  V30 2197 H 217.13 -5.04686 2.18111 0
M  V30 2198 H 218.355 -6.26301 2.62533 0
M  V30 2199 H 216.301 -6.54783 0.399455 0
M  V30 2200 H 216.218 -7.30214 1.95763 0
M  V30 2201 H 217.486 -7.74795 0.855181 0
M  V30 2202 N 221.715 -0.905404 -1.28997 0
M  V30 2203 C 222.964 -0.530191 -1.94607 0
M  V30 2204 C 223.277 0.929185 -1.72121 0
M  V30 2205 O 224.483 1.41218 -2.31883 0
M  V30 2206 C 222.939 -0.897333 -3.48534 0
M  V30 2207 C 222.547 -2.37587 -3.79811 0
M  V30 2208 C 224.291 -0.592304 -4.20347 0
M  V30 2209 C 222.198 -2.68357 -5.27009 0
M  V30 2210 H 221.128 -0.194558 -0.728466 0
M  V30 2211 H 223.779 -1.10318 -1.46636 0
M  V30 2212 H 222.161 -0.253214 -3.9519 0
M  V30 2213 H 223.335 -3.06602 -3.43994 0
M  V30 2214 H 221.65 -2.6505 -3.2115 0
M  V30 2215 H 224.247 -0.798975 -5.28697 0
M  V30 2216 H 224.59 0.469474 -4.13644 0
M  V30 2217 H 225.123 -1.19452 -3.79442 0
M  V30 2218 H 221.862 -3.73355 -5.38782 0
M  V30 2219 H 221.382 -2.03971 -5.64053 0
M  V30 2220 H 223.061 -2.54922 -5.94663 0
M  V30 2221 N 223.193 1.4272 -0.668489 0
M  V30 2222 C 224.47 1.95248 -0.117373 0
M  V30 2223 C 224.85 1.60919 1.36632 0
M  V30 2224 O 224.198 0.902095 2.09939 0
M  V30 2225 C 224.408 3.46927 -0.379806 0
M  V30 2226 C 225.756 4.23588 -0.292923 0
M  V30 2227 O 226.78 3.5482 -0.313204 0
M  V30 2228 O 225.639 5.46017 -0.229697 0
M  V30 2229 H 222.733 0.827 0.00079152 0
M  V30 2230 H 225.279 1.52581 -0.742783 0
M  V30 2231 H 224.051 3.65096 -1.40786 0
M  V30 2232 H 223.674 3.96627 0.277923 0
M  V30 2233 N 224.671 0.411399 1.52136 0
M  V30 2234 C 225.634 -0.401089 2.25663 0
M  V30 2235 C 226.634 -0.971732 1.28117 0
M  V30 2236 O 227.824 -0.850254 1.52041 0
M  V30 2237 C 224.956 -1.56483 3.02863 0
M  V30 2238 H 226.149 0.24295 2.98914 0
M  V30 2239 H 223.702 0.163968 1.55438 0
M  V30 2240 H 224.437 -2.24567 2.33967 0
M  V30 2241 H 224.222 -1.16211 3.74483 0
M  V30 2242 H 225.712 -2.13951 3.58629 0
M  V30 2243 N 226.149 -1.5696 0.141893 0
M  V30 2244 C 227.395 -1.9625 -0.511248 0
M  V30 2245 C 227.728 -1.02654 -1.64851 0
M  V30 2246 O 227.003 -0.0679676 -1.94381 0
M  V30 2247 C 227.286 -3.45285 -1.02227 0
M  V30 2248 C 227.139 -4.49658 0.113138 0
M  V30 2249 C 228.458 -3.96698 -1.90574 0
M  V30 2250 H 225.577 -0.713567 -0.184367 0
M  V30 2251 H 228.219 -1.88698 0.222087 0
M  V30 2252 H 226.369 -3.51852 -1.64719 0
M  V30 2253 H 228.041 -4.55174 0.749302 0
M  V30 2254 H 226.284 -4.26857 0.773026 0
M  V30 2255 H 226.955 -5.51258 -0.286053 0
M  V30 2256 H 229.431 -3.92578 -1.37918 0
M  V30 2257 H 228.307 -5.01453 -2.2324 0
M  V30 2258 H 228.568 -3.3875 -2.84079 0
M  V30 2259 N 227.627 0.131896 -1.57047 0
M  V30 2260 C 228.857 0.855219 -1.88068 0
M  V30 2261 C 229.265 1.74557 -0.729817 0
M  V30 2262 O 228.608 1.81083 0.308962 0
M  V30 2263 C 228.67 1.75119 -3.13964 0
M  V30 2264 C 228.334 1.03646 -4.45091 0
M  V30 2265 C 229.331 0.383276 -5.18485 0
M  V30 2266 C 227.016 1.02148 -4.91804 0
M  V30 2267 C 229.01 -0.275347 -6.36805 0
M  V30 2268 C 226.697 0.359047 -6.10044 0
M  V30 2269 C 227.695 -0.288222 -6.82392 0
M  V30 2270 O 227.383 -0.94011 -7.98384 0
M  V30 2271 H 227.115 0.251864 -0.627328 0
M  V30 2272 H 229.669 0.124782 -2.05021 0
M  V30 2273 H 227.899 2.52295 -2.9306 0
M  V30 2274 H 229.588 2.3478 -3.31109 0
M  V30 2275 H 230.354 0.386562 -4.83457 0
M  V30 2276 H 226.233 1.5147 -4.35405 0
M  V30 2277 H 229.777 -0.781148 -6.93213 0
M  V30 2278 H 225.674 0.35348 -6.44531 0
M  V30 2279 H 226.442 -0.84329 -8.14144 0
M  V30 2280 N 229.106 1.52395 0.401703 0
M  V30 2281 C 230.355 1.66044 1.14509 0
M  V30 2282 C 230.668 0.400216 1.91462 0
M  V30 2283 O 231.874 0.416632 2.68284 0
M  V30 2284 C 230.33 2.93388 2.0845 0
M  V30 2285 C 229.938 4.26545 1.36978 0
M  V30 2286 C 231.682 3.16402 2.83001 0
M  V30 2287 C 229.589 5.45007 2.29611 0
M  V30 2288 H 228.519 0.618562 0.431158 0
M  V30 2289 H 231.17 1.78886 0.40892 0
M  V30 2290 H 229.552 2.74263 2.8565 0
M  V30 2291 H 230.726 4.56179 0.650916 0
M  V30 2292 H 229.041 4.09692 0.74438 0
M  V30 2293 H 231.638 4.02085 3.52465 0
M  V30 2294 H 231.981 2.30943 3.46368 0
M  V30 2295 H 232.514 3.36034 2.12898 0
M  V30 2296 H 229.253 6.32835 1.70879 0
M  V30 2297 H 228.773 5.19702 2.9945 0
M  V30 2298 H 230.452 5.7838 2.89974 0
M  V30 2299 N 230.584 -0.659388 1.43143 0
M  V30 2300 C 231.833 -1.41518 1.43721 0
M  V30 2301 C 232.146 -1.95499 0.0628176 0
M  V30 2302 O 233.352 -2.71446 -0.0539683 0
M  V30 2303 C 231.808 -2.5608 2.52885 0
M  V30 2304 C 231.416 -2.08733 3.96402 0
M  V30 2305 C 233.16 -3.3349 2.62649 0
M  V30 2306 C 231.067 -3.20469 4.97045 0
M  V30 2307 H 229.997 -0.531705 0.534608 0
M  V30 2308 H 232.648 -0.712343 1.69109 0
M  V30 2309 H 231.03 -3.28805 2.20688 0
M  V30 2310 H 232.204 -1.43059 4.3803 0
M  V30 2311 H 230.519 -1.44219 3.90627 0
M  V30 2312 H 233.116 -4.16734 3.35017 0
M  V30 2313 H 233.459 -3.8111 1.67513 0
M  V30 2314 H 233.992 -2.67842 2.94118 0
M  V30 2315 H 230.731 -2.77824 5.93712 0
M  V30 2316 H 230.251 -3.84874 4.60034 0
M  V30 2317 H 231.93 -3.85698 5.19467 0
M  V30 2318 N 232.062 -1.29571 -0.897171 0
M  V30 2319 C 232.992 -1.17473 -2.01798 0
M  V30 2320 C 233.973 -0.068323 -1.69963 0
M  V30 2321 O 235.158 -0.248239 -1.92607 0
M  V30 2322 C 232.288 -0.853099 -3.36659 0
M  V30 2323 C 231.242 -1.9161 -3.82713 0
M  V30 2324 C 230.568 -1.44773 -5.14728 0
M  V30 2325 C 231.868 -3.32535 -4.02763 0
M  V30 2326 H 233.562 -2.11237 -2.12177 0
M  V30 2327 H 231.108 -1.01699 -1.01948 0
M  V30 2328 H 233.061 -0.755165 -4.14578 0
M  V30 2329 H 231.785 0.120236 -3.26379 0
M  V30 2330 H 230.444 -2.00346 -3.07013 0
M  V30 2331 H 230.092 -0.462995 -5.00865 0
M  V30 2332 H 229.792 -2.15865 -5.46513 0
M  V30 2333 H 231.316 -1.36334 -5.95185 0
M  V30 2334 H 232.73 -3.26626 -4.71156 0
M  V30 2335 H 231.127 -4.01607 -4.45905 0
M  V30 2336 H 232.197 -3.75326 -3.07016 0
M  V30 2337 N 233.54 1.10788 -1.12088 0
M  V30 2338 C 234.951 1.64181 -0.88891 0
M  V30 2339 C 235.302 1.87508 0.577498 0
M  V30 2340 O 234.427 1.61434 1.44112 0
M  V30 2341 C 235.022 2.98257 -1.60712 0
M  V30 2342 C 233.581 3.4853 -1.42139 0
M  V30 2343 C 232.728 2.23208 -1.6454 0
M  V30 2344 H 235.679 0.943368 -1.27618 0
M  V30 2345 H 235.7 3.65552 -1.05604 0
M  V30 2346 H 235.212 2.81246 -2.67436 0
M  V30 2347 H 233.313 3.70692 -0.376552 0
M  V30 2348 H 233.426 4.26882 -2.17505 0
M  V30 2349 H 231.79 2.31169 -1.06925 0
M  V30 2350 H 232.573 2.08733 -2.72554 0
M  V30 2351 N 235.018 0.912232 1.28515 0
M  V30 2352 C 235.966 0.389597 2.29314 0
M  V30 2353 C 236.96 -0.517915 1.61289 0
M  V30 2354 O 238.166 -0.399328 1.75515 0
M  V30 2355 H 234.541 0.107386 0.744293 0
M  V30 2356 H 236.512 1.25286 2.70825 0
M  V30 2357 C 235.261 -0.356496 3.45868 0
M  V30 2358 H 234.584 0.332608 3.98414 0
M  V30 2359 H 236.024 -0.686851 4.184 0
M  V30 2360 C 234.483 -1.56383 2.98406 0
M  V30 2361 O 235.013 -2.66294 3.00749 0
M  V30 2362 N 233.219 -1.41029 2.54085 0
M  V30 2363 H 232.766 -0.516089 2.52377 0
M  V30 2364 H 232.724 -2.21939 2.22689 0
M  V30 2365 N 236.496 -1.42363 0.676048 0
M  V30 2366 C 237.721 -2.06377 0.205705 0
M  V30 2367 C 238.146 -1.50463 -1.12883 0
M  V30 2368 O 237.504 -0.623619 -1.70237 0
M  V30 2369 C 237.552 -3.60277 0.152655 0
M  V30 2370 O 236.656 -4.02935 -0.87845 0
M  V30 2371 H 235.997 -0.655588 0.105359 0
M  V30 2372 H 238.527 -1.82475 0.925412 0
M  V30 2373 H 238.537 -4.07993 -0.0230675 0
M  V30 2374 H 237.212 -4.00346 1.12675 0
M  V30 2375 H 235.789 -3.66764 -0.673668 0
M  V30 2376 N 237.974 -0.419461 -1.51915 0
M  V30 2377 C 238.904 0.391813 -2.30189 0
M  V30 2378 C 239.885 1.03699 -1.34836 0
M  V30 2379 O 241.07 1.04403 -1.63748 0
M  V30 2380 C 238.2 1.50312 -3.13087 0
M  V30 2381 C 237.154 0.9824 -4.16573 0
M  V30 2382 C 236.48 2.18809 -4.8788 0
M  V30 2383 C 237.78 0.0292356 -5.22292 0
M  V30 2384 H 239.474 -0.26135 -2.98257 0
M  V30 2385 H 237.02 -0.127134 -1.43438 0
M  V30 2386 H 238.973 2.07773 -3.66617 0
M  V30 2387 H 237.697 2.18431 -2.42807 0
M  V30 2388 H 236.356 0.430119 -3.64068 0
M  V30 2389 H 236.004 2.85507 -4.14119 0
M  V30 2390 H 235.704 1.84615 -5.57845 0
M  V30 2391 H 237.228 2.76858 -5.44226 0
M  V30 2392 H 238.642 0.512976 -5.71 0
M  V30 2393 H 237.039 -0.2244 -5.9968 0
M  V30 2394 H 238.109 -0.912931 -4.76228 0
M  V30 2395 N 239.452 1.56882 -0.150215 0
M  V30 2396 C 240.402 2.13501 0.800071 0
M  V30 2397 C 241.386 1.06368 1.20726 0
M  V30 2398 O 242.578 1.32538 1.17314 0
M  V30 2399 C 239.707 2.76271 2.03787 0
M  V30 2400 C 238.793 3.90533 1.65364 0
M  V30 2401 N 239.184 4.96259 0.977794 0
M  V30 2402 C 237.482 4.013 1.94613 0
M  V30 2403 C 238.183 5.76286 0.791794 0
M  V30 2404 N 237.159 5.27163 1.32666 0
M  V30 2405 H 240.961 2.92615 0.274517 0
M  V30 2406 H 238.475 1.62319 0.0512144 0
M  V30 2407 H 240.472 3.15197 2.72867 0
M  V30 2408 H 239.132 1.98631 2.56857 0
M  V30 2409 H 240.143 5.13953 0.638193 0
M  V30 2410 H 236.82 3.3474 2.4951 0
M  V30 2411 H 238.21 6.71401 0.258894 0
M  V30 2412 N 240.93 -0.123565 1.57115 0
M  V30 2413 C 241.893 -1.13583 1.99076 0
M  V30 2414 C 242.893 -1.34564 0.880296 0
M  V30 2415 O 244.083 -1.31158 1.14644 0
M  V30 2416 C 241.215 -2.49128 2.32698 0
M  V30 2417 H 242.408 -0.775287 2.89706 0
M  V30 2418 H 239.961 -0.36771 1.51913 0
M  V30 2419 H 240.696 -2.90111 1.44934 0
M  V30 2420 H 240.481 -2.35255 3.13684 0
M  V30 2421 H 241.971 -3.2199 2.65918 0
M  V30 2422 N 242.408 -1.52605 -0.393616 0
M  V30 2423 C 243.318 -1.79971 -1.50492 0
M  V30 2424 C 244.334 -0.686181 -1.59899 0
M  V30 2425 O 245.51 -0.973274 -1.76322 0
M  V30 2426 C 242.575 -1.95867 -2.86072 0
M  V30 2427 C 241.636 -3.19781 -2.86424 0
M  V30 2428 C 240.869 -3.34909 -4.15538 0
M  V30 2429 O 241.092 -2.54948 -5.10253 0
M  V30 2430 O 240.026 -4.28141 -4.23059 0
M  V30 2431 H 243.852 -2.74328 -1.30299 0
M  V30 2432 H 241.437 -1.3764 -0.581005 0
M  V30 2433 H 243.319 -2.08056 -3.66457 0
M  V30 2434 H 241.994 -1.04699 -3.063 0
M  V30 2435 H 240.901 -3.13038 -2.04837 0
M  V30 2436 H 242.234 -4.1078 -2.71147 0
M  V30 2437 N 243.887 0.651787 -1.4349 0
M  V30 2438 C 245.134 1.41167 -1.45183 0
M  V30 2439 C 245.462 1.94349 -0.0766601 0
M  V30 2440 O 244.717 1.72804 0.918555 0
M  V30 2441 C 245.016 2.60914 -2.44251 0
M  V30 2442 C 244.682 2.26142 -3.9009 0
M  V30 2443 C 243.344 2.16371 -4.2981 0
M  V30 2444 C 245.696 1.98334 -4.81989 0
M  V30 2445 C 243.024 1.7695 -5.5938 0
M  V30 2446 C 245.376 1.6041 -6.11924 0
M  V30 2447 C 244.04 1.49166 -6.5062 0
M  V30 2448 H 243.31 0.516566 -0.531263 0
M  V30 2449 H 245.957 0.741099 -1.76579 0
M  V30 2450 H 244.262 3.3311 -2.06265 0
M  V30 2451 H 245.959 3.19127 -2.42815 0
M  V30 2452 H 242.549 2.34658 -3.58655 0
M  V30 2453 H 246.733 2.04803 -4.52072 0
M  V30 2454 H 241.989 1.66831 -5.88198 0
M  V30 2455 H 246.163 1.37925 -6.82605 0
M  V30 2456 H 243.79 1.1839 -7.50925 0
M  V30 2457 N 245.365 1.30045 0.890287 0
M  V30 2458 C 246.328 1.15963 1.977 0
M  V30 2459 C 247.328 0.0923777 1.60534 0
M  V30 2460 O 248.518 0.340071 1.70848 0
M  V30 2461 C 245.65 0.775451 3.31963 0
M  V30 2462 H 246.843 2.12502 2.11619 0
M  V30 2463 H 244.396 1.13366 1.07601 0
M  V30 2464 H 245.131 -0.189671 3.23745 0
M  V30 2465 H 244.916 1.54668 3.60306 0
M  V30 2466 H 246.406 0.700251 4.11687 0
M  V30 2467 N 246.843 -1.10192 1.12674 0
M  V30 2468 C 248.092 -1.81573 0.8783 0
M  V30 2469 C 248.405 -1.86249 -0.597557 0
M  V30 2470 O 249.611 -2.5386 -0.962681 0
M  V30 2471 C 248.067 -3.26149 1.52167 0
M  V30 2472 C 247.675 -3.29763 3.03249 0
M  V30 2473 C 249.419 -4.0234 1.3536 0
M  V30 2474 C 247.326 -4.68815 3.60508 0
M  V30 2475 H 246.256 -0.680394 0.324931 0
M  V30 2476 H 248.907 -1.23902 1.35353 0
M  V30 2477 H 247.289 -3.83832 0.974104 0
M  V30 2478 H 248.463 -2.8189 3.6452 0
M  V30 2479 H 246.778 -2.67059 3.19481 0
M  V30 2480 H 249.375 -5.05058 1.75559 0
M  V30 2481 H 249.718 -4.15235 0.297554 0
M  V30 2482 H 250.251 -3.51079 1.87052 0
M  V30 2483 H 246.99 -4.61121 4.65884 0
M  V30 2484 H 246.51 -5.17045 3.04014 0
M  V30 2485 H 248.189 -5.37785 3.59717 0
M  V30 2486 N 248.321 -0.919034 -1.28029 0
M  V30 2487 C 249.737 -0.617972 -1.4715 0
M  V30 2488 C 249.937 0.835242 -1.83374 0
M  V30 2489 O 248.993 1.61388 -1.94191 0
M  V30 2490 C 250.306 -1.56041 -2.57044 0
M  V30 2491 C 251.854 -1.56769 -2.7091 0
M  V30 2492 C 252.329 -2.49688 -3.83953 0
M  V30 2493 N 253.82 -2.47845 -3.91314 0
M  V30 2494 C 254.555 -3.16437 -4.78179 0
M  V30 2495 N 254.051 -3.94376 -5.69596 0
M  V30 2496 N 255.844 -3.05498 -4.71834 0
M  V30 2497 H 247.995 -1.85866 -1.02798 0
M  V30 2498 H 250.258 -0.797506 -0.512531 0
M  V30 2499 H 249.964 -2.59671 -2.372 0
M  V30 2500 H 249.838 -1.29551 -3.54255 0
M  V30 2501 H 252.225 -0.538745 -2.90141 0
M  V30 2502 H 252.306 -1.87305 -1.74214 0
M  V30 2503 H 251.95 -3.52688 -3.65477 0
M  V30 2504 H 251.88 -2.16453 -4.80058 0
M  V30 2505 H 254.371 -1.91234 -3.25941 0
M  V30 2506 H 254.684 -4.43721 -6.32718 0
M  V30 2507 H 253.029 -3.98481 -5.69419 0
M  V30 2508 H 256.22 -2.44108 -3.99411 0
M  V30 2509 H 256.393 -3.59225 -5.39316 0
M  V30 2510 N 249.799 1.42003 -0.683588 0
M  V30 2511 C 250.762 2.29191 -0.0198243 0
M  V30 2512 C 251.762 1.43773 0.72013 0
M  V30 2513 O 252.952 1.65061 0.556815 0
M  V30 2514 C 250.084 3.26435 0.982487 0
M  V30 2515 H 251.277 2.8938 -0.787345 0
M  V30 2516 H 248.83 1.49789 -0.446418 0
M  V30 2517 H 249.565 2.71203 1.77819 0
M  V30 2518 H 249.35 3.89449 0.455182 0
M  V30 2519 H 250.84 3.918 1.44508 0
M  V30 2520 N 251.277 0.427512 1.51691 0
M  V30 2521 C 252.524 -0.142229 2.02 0
M  V30 2522 C 252.852 -1.43566 1.31221 0
M  V30 2523 O 252.107 -1.91298 0.412744 0
M  V30 2524 C 252.406 -0.418249 3.54944 0
M  V30 2525 C 252.072 0.788187 4.43958 0
M  V30 2526 C 250.734 1.11906 4.68007 0
M  V30 2527 C 253.086 1.59347 4.96244 0
M  V30 2528 C 250.414 2.25608 5.41588 0
M  V30 2529 C 252.766 2.7214 5.71072 0
M  V30 2530 C 251.43 3.05692 5.93387 0
M  V30 2531 H 250.7 -0.0520451 0.73917 0
M  V30 2532 H 253.347 0.572697 1.82736 0
M  V30 2533 H 251.652 -1.21496 3.72486 0
M  V30 2534 H 253.349 -0.872339 3.91397 0
M  V30 2535 H 249.939 0.520344 4.2543 0
M  V30 2536 H 254.123 1.35106 4.77556 0
M  V30 2537 H 249.379 2.51929 5.57083 0
M  V30 2538 H 253.553 3.34914 6.10578 0
M  V30 2539 H 251.18 3.9391 6.50184 0
M  V30 2540 N 252.755 -1.56801 0.158532 0
M  V30 2541 C 253.702 -2.17337 -0.776729 0
M  V30 2542 C 254.672 -1.1096 -1.23601 0
M  V30 2543 O 255.857 -1.39054 -1.30647 0
M  V30 2544 C 252.997 -2.80822 -2.00582 0
M  V30 2545 C 252.11 -4.01624 -1.59129 0
M  V30 2546 C 251.245 -4.53072 -2.77306 0
M  V30 2547 C 250.284 -5.66314 -2.32282 0
M  V30 2548 N 249.421 -6.12329 -3.43508 0
M  V30 2549 H 254.261 -2.96918 -0.253701 0
M  V30 2550 H 251.798 -1.46661 -0.113504 0
M  V30 2551 H 253.756 -3.15779 -2.72652 0
M  V30 2552 H 252.386 -2.03866 -2.50277 0
M  V30 2553 H 251.438 -3.72571 -0.767806 0
M  V30 2554 H 252.75 -4.83633 -1.2207 0
M  V30 2555 H 251.904 -4.90145 -3.57551 0
M  V30 2556 H 250.643 -3.70095 -3.17617 0
M  V30 2557 H 249.648 -5.28806 -1.5048 0
M  V30 2558 H 250.873 -6.51085 -1.93043 0
M  V30 2559 H 248.819 -5.32284 -3.83418 0
M  V30 2560 H 248.736 -6.89293 -3.105 0
M  V30 2561 H 250.004 -6.5405 -4.24075 0
M  V30 2562 N 254.233 0.115231 -1.57178 0
M  V30 2563 C 255.196 1.12526 -1.99676 0
M  V30 2564 C 256.196 1.34095 -0.88742 0
M  V30 2565 O 257.386 1.30548 -1.15337 0
M  V30 2566 C 254.518 2.4789 -2.34015 0
M  V30 2567 H 255.711 0.759912 -2.90113 0
M  V30 2568 H 253.264 0.359648 -1.52106 0
M  V30 2569 H 253.999 2.89339 -1.4647 0
M  V30 2570 H 253.784 2.33588 -3.14927 0
M  V30 2571 H 255.274 3.20575 -2.67622 0
M  V30 2572 N 255.711 1.52812 0.385517 0
M  V30 2573 C 256.959 1.67694 1.12797 0
M  V30 2574 C 257.28 0.421115 1.90399 0
M  V30 2575 O 256.55 -0.564551 1.87589 0
M  V30 2576 H 255.13 0.618155 0.419396 0
M  V30 2577 H 257.792 1.89938 0.436972 0
M  V30 2578 H 256.888 2.52896 1.82894 0
M  V30 2579 N 257.189 -0.644168 1.43834 0
M  V30 2580 C 258.136 -1.75671 1.49694 0
M  V30 2581 C 259.106 -1.6246 0.345809 0
M  V30 2582 O 260.291 -1.82573 0.554234 0
M  V30 2583 C 257.431 -3.13867 1.43463 0
M  V30 2584 C 256.544 -3.38147 2.6885 0
M  V30 2585 C 255.679 -4.66241 2.54544 0
M  V30 2586 C 254.718 -4.83657 3.75157 0
M  V30 2587 N 253.855 -6.03016 3.59605 0
M  V30 2588 H 258.695 -1.69998 2.44754 0
M  V30 2589 H 256.232 -0.829458 1.21484 0
M  V30 2590 H 258.19 -3.9377 1.37843 0
M  V30 2591 H 256.82 -3.18588 0.519783 0
M  V30 2592 H 255.872 -2.52276 2.84712 0
M  V30 2593 H 257.184 -3.46899 3.58417 0
M  V30 2594 H 256.338 -5.54285 2.46683 0
M  V30 2595 H 255.077 -4.59826 1.62516 0
M  V30 2596 H 254.082 -3.94046 3.83416 0
M  V30 2597 H 255.307 -4.91896 4.68204 0
M  V30 2598 H 253.253 -5.97715 2.7032 0
M  V30 2599 H 253.17 -6.12766 4.42779 0
M  V30 2600 H 254.438 -6.93657 3.55613 0
M  V30 2601 N 258.668 -1.30515 -0.883378 0
M  V30 2602 C 259.618 -1.13641 -1.9766 0
M  V30 2603 C 260.602 -0.0511314 -1.60819 0
M  V30 2604 O 261.794 -0.274623 -1.74857 0
M  V30 2605 C 258.923 -0.831976 -3.33066 0
M  V30 2606 C 258.009 -1.95759 -3.76217 0
M  V30 2607 N 258.4 -3.20313 -3.9145 0
M  V30 2608 C 256.698 -1.85431 -4.05625 0
M  V30 2609 C 257.399 -3.93856 -4.2808 0
M  V30 2610 N 256.375 -3.21919 -4.38029 0
M  V30 2611 H 260.177 -2.08106 -2.07531 0
M  V30 2612 H 257.691 -1.21877 -1.0733 0
M  V30 2613 H 259.688 -0.692102 -4.11115 0
M  V30 2614 H 258.348 0.104588 -3.24532 0
M  V30 2615 H 259.359 -3.55583 -3.76538 0
M  V30 2616 H 256.036 -0.991531 -4.05555 0
M  V30 2617 H 257.426 -5.01125 -4.47575 0
M  V30 2618 N 260.146 1.09593 -1.13257 0
M  V30 2619 C 261.392 1.82003 -0.89458 0
M  V30 2620 C 261.725 1.85402 0.577906 0
M  V30 2621 O 261 1.32099 1.42759 0
M  V30 2622 C 261.283 3.28237 -1.48096 0
M  V30 2623 C 261.136 3.3312 -3.02244 0
M  V30 2624 C 262.455 4.24871 -1.14774 0
M  V30 2625 H 259.574 0.66077 -0.326424 0
M  V30 2626 H 262.216 1.28389 -1.40058 0
M  V30 2627 H 260.366 3.74024 -1.05062 0
M  V30 2628 H 262.038 2.95748 -3.54021 0
M  V30 2629 H 260.281 2.72756 -3.37323 0
M  V30 2630 H 260.952 4.3613 -3.38371 0
M  V30 2631 H 263.428 3.87361 -1.51957 0
M  V30 2632 H 262.304 5.25532 -1.58452 0
M  V30 2633 H 262.565 4.42058 -0.0611849 0
M  V30 2634 N 261.624 0.925811 1.2754 0
M  V30 2635 C 262.557 0.367836 2.25216 0
M  V30 2636 C 263.535 -0.534738 1.53556 0
M  V30 2637 O 264.719 -0.475672 1.824 0
M  V30 2638 C 261.846 -0.47298 3.35381 0
M  V30 2639 C 260.892 0.365898 4.24928 0
M  V30 2640 S 261.725 1.78025 5.05042 0
M  V30 2641 C 262.881 0.947068 6.18693 0
M  V30 2642 H 263.114 1.19568 2.72196 0
M  V30 2643 H 260.647 0.727867 1.36167 0
M  V30 2644 H 262.605 -0.952242 3.99303 0
M  V30 2645 H 261.266 -1.27533 2.87044 0
M  V30 2646 H 260.459 -0.277582 5.03235 0
M  V30 2647 H 260.061 0.779261 3.65792 0
M  V30 2648 H 262.353 0.182201 6.77255 0
M  V30 2649 H 263.296 1.70309 6.87314 0
M  V30 2650 H 263.704 0.489913 5.6237 0
M  V30 2651 N 263.102 -1.41638 0.69111 0
M  V30 2652 C 264.342 -2.03166 0.224291 0
M  V30 2653 C 264.706 -1.53537 -1.15284 0
M  V30 2654 O 265.907 -2.0696 -1.71525 0
M  V30 2655 C 264.178 -3.56342 0.274758 0
M  V30 2656 S 265.737 -4.3864 -0.118669 0
M  V30 2657 H 262.555 -0.705188 0.0907263 0
M  V30 2658 H 265.157 -1.7314 0.907895 0
M  V30 2659 H 263.861 -3.89958 1.2791 0
M  V30 2660 H 263.392 -3.91063 -0.428142 0
M  V30 2661 H 265.407 -4.77549 -1.34764 0
M  V30 2662 N 264.58 -0.43555 -1.51462 0
M  V30 2663 C 265.49 0.383001 -2.31453 0
M  V30 2664 C 266.506 1.02931 -1.4029 0
M  V30 2665 O 267.682 1.02507 -1.73362 0
M  V30 2666 C 264.747 1.47043 -3.13973 0
M  V30 2667 C 263.808 0.844433 -4.20913 0
M  V30 2668 C 263.041 1.88004 -4.9949 0
M  V30 2669 O 263.264 3.10199 -4.78678 0
M  V30 2670 O 262.198 1.47157 -5.83634 0
M  V30 2671 H 266.024 -0.269964 -3.02498 0
M  V30 2672 H 263.609 -0.19813 -1.4808 0
M  V30 2673 H 265.491 2.10113 -3.65281 0
M  V30 2674 H 264.166 2.10751 -2.45695 0
M  V30 2675 H 263.073 0.175729 -3.73687 0
M  V30 2676 H 264.406 0.250869 -4.9156 0
M  V30 2677 N 266.058 1.56714 -0.166846 0
M  V30 2678 C 267.005 2.17746 0.765193 0
M  V30 2679 C 267.975 1.11614 1.23011 0
M  V30 2680 O 269.16 1.39745 1.29908 0
M  V30 2681 C 266.3 2.81882 1.9909 0
M  V30 2682 C 265.413 4.02462 1.56997 0
M  V30 2683 C 264.548 4.54537 2.749 0
M  V30 2684 C 263.587 5.67538 2.29275 0
M  V30 2685 N 262.724 6.14142 3.40255 0
M  V30 2686 H 267.564 2.97048 0.237952 0
M  V30 2687 H 265.101 1.4672 0.105725 0
M  V30 2688 H 267.059 3.17221 2.70974 0
M  V30 2689 H 265.689 2.05191 2.49192 0
M  V30 2690 H 264.741 3.72973 0.748037 0
M  V30 2691 H 266.053 4.84273 1.19503 0
M  V30 2692 H 265.207 4.92035 3.54946 0
M  V30 2693 H 263.946 3.71774 3.1565 0
M  V30 2694 H 262.951 5.29597 1.47674 0
M  V30 2695 H 264.176 6.52099 1.89588 0
M  V30 2696 H 262.122 5.3431 3.8059 0
M  V30 2697 H 262.039 6.9093 3.06841 0
M  V30 2698 H 263.307 6.56289 4.206 0
M  V30 2699 N 267.536 -0.106894 1.57237 0
M  V30 2700 C 268.947 -0.662723 1.74542 0
M  V30 2701 C 269.298 -1.7971 0.787319 0
M  V30 2702 O 268.423 -2.16368 -0.0369636 0
M  V30 2703 C 269.018 -1.20896 3.16496 0
M  V30 2704 C 267.577 -1.71096 3.35266 0
M  V30 2705 C 266.724 -0.615642 2.7038 0
M  V30 2706 H 269.675 0.119106 1.58252 0
M  V30 2707 H 269.696 -2.07847 3.18716 0
M  V30 2708 H 269.208 -0.383122 3.86204 0
M  V30 2709 H 267.309 -2.56119 2.70618 0
M  V30 2710 H 267.422 -1.81208 4.43509 0
M  V30 2711 H 265.786 -1.05222 2.31949 0
M  V30 2712 H 266.569 0.199419 3.4272 0
M  V30 2713 N 269.014 -1.53014 -0.377408 0
M  V30 2714 C 269.947 -1.73382 -1.48371 0
M  V30 2715 C 270.925 -0.581879 -1.51832 0
M  V30 2716 O 272.109 -0.81307 -1.70063 0
M  V30 2717 C 269.236 -1.80192 -2.8679 0
M  V30 2718 C 268.282 -3.02056 -3.01105 0
M  V30 2719 S 269.115 -4.61811 -2.71093 0
M  V30 2720 C 270.271 -4.71453 -4.11683 0
M  V30 2721 H 270.504 -2.66946 -1.30872 0
M  V30 2722 H 268.037 -1.43453 -0.571012 0
M  V30 2723 H 269.995 -1.84802 -3.6655 0
M  V30 2724 H 268.656 -0.877008 -3.01608 0
M  V30 2725 H 267.849 -3.03396 -4.02451 0
M  V30 2726 H 267.451 -2.95498 -2.29253 0
M  V30 2727 H 269.743 -4.50781 -5.0577 0
M  V30 2728 H 270.686 -5.73487 -4.15353 0
M  V30 2729 H 271.094 -4.00189 -3.98132 0
M  V30 2730 N 270.492 0.636531 -1.44174 0
M  V30 2731 C 271.455 1.73063 -1.50273 0
M  V30 2732 C 272.455 1.56113 -0.385397 0
M  V30 2733 O 273.645 1.61707 -0.64781 0
M  V30 2734 C 270.777 3.12096 -1.37145 0
M  V30 2735 H 271.97 1.69031 -2.47727 0
M  V30 2736 H 269.523 0.849706 -1.31186 0
M  V30 2737 H 270.258 3.21728 -0.407636 0
M  V30 2738 H 270.043 3.25805 -2.18159 0
M  V30 2739 H 271.533 3.91846 -1.44382 0
M  V30 2740 N 271.97 1.30982 0.876444 0
M  V30 2741 C 273.198 1.23242 1.6619 0
M  V30 2742 C 273.613 -0.203345 1.87702 0
M  V30 2743 O 272.97 -1.13317 1.43057 0
M  V30 2744 C 273.021 1.96623 3.03351 0
M  V30 2745 O 272.742 3.34594 2.82804 0
M  V30 2746 C 274.243 1.95644 3.97792 0
M  V30 2747 H 271.463 0.426126 0.518322 0
M  V30 2748 H 274.007 1.7275 1.09442 0
M  V30 2749 H 272.162 1.50892 3.56806 0
M  V30 2750 H 272.576 3.71873 3.69879 0
M  V30 2751 H 274.05 2.51511 4.91372 0
M  V30 2752 H 274.527 0.937395 4.2908 0
M  V30 2753 H 275.133 2.41225 3.50272 0
M  V30 2754 N 273.449 -1.08991 1.13837 0
M  V30 2755 C 274.674 -1.85551 0.926585 0
M  V30 2756 C 275.099 -1.80782 -0.519566 0
M  V30 2757 O 274.457 -1.18855 -1.36906 0
M  V30 2758 C 274.505 -3.31266 1.42462 0
M  V30 2759 O 273.609 -4.07822 0.612789 0
M  V30 2760 H 272.95 -0.575192 0.331738 0
M  V30 2761 H 275.48 -1.37604 1.51414 0
M  V30 2762 H 275.49 -3.82112 1.43019 0
M  V30 2763 H 274.165 -3.34052 2.47754 0
M  V30 2764 H 272.742 -3.66731 0.675463 0
M  V30 2765 N 274.927 -0.932562 -1.27047 0
M  V30 2766 C 276.173 -0.576412 -1.94436 0
M  V30 2767 C 276.506 0.880891 -1.73072 0
M  V30 2768 O 275.781 1.62905 -1.06264 0
M  V30 2769 C 276.064 -0.909031 -3.48437 0
M  V30 2770 C 275.917 -2.42044 -3.79123 0
M  V30 2771 C 277.236 -0.418341 -4.38107 0
M  V30 2772 H 274.355 -0.210888 -0.706184 0
M  V30 2773 H 276.997 -1.16522 -1.50075 0
M  V30 2774 H 275.147 -0.407947 -3.86352 0
M  V30 2775 H 276.819 -2.99359 -3.50973 0
M  V30 2776 H 275.062 -2.86758 -3.25503 0
M  V30 2777 H 275.733 -2.6037 -4.86736 0
M  V30 2778 H 278.209 -0.847856 -4.0737 0
M  V30 2779 H 277.085 -0.679981 -5.44672 0
M  V30 2780 H 277.346 0.681642 -4.36814 0
M  V30 2781 N 276.405 1.4127 -0.698611 0
M  V30 2782 C 277.368 2.29158 -0.044132 0
M  V30 2783 C 278.368 1.44529 0.704841 0
M  V30 2784 O 279.558 1.65643 0.539276 0
M  V30 2785 C 276.69 3.27459 0.947809 0
M  V30 2786 H 277.883 2.88529 -0.817994 0
M  V30 2787 H 275.436 1.49307 -0.46228 0
M  V30 2788 H 276.171 2.73073 1.74933 0
M  V30 2789 H 275.956 3.8991 0.41385 0
M  V30 2790 H 277.446 3.93311 1.40344 0
M  V30 2791 N 277.883 0.443576 1.51229 0
M  V30 2792 C 279.16 -0.181038 1.9476 0
M  V30 2793 C 279.54 -1.59523 1.38259 0
M  V30 2794 O 278.888 -2.2122 0.572198 0
M  V30 2795 C 279.098 -0.152422 3.48667 0
M  V30 2796 C 280.446 -0.354923 4.23114 0
M  V30 2797 O 281.47 -0.230257 3.55455 0
M  V30 2798 O 280.329 -0.603674 5.43156 0
M  V30 2799 H 277.423 -0.1266 0.817252 0
M  V30 2800 H 279.969 0.502004 1.62105 0
M  V30 2801 H 278.741 0.836022 3.82265 0
M  V30 2802 H 278.364 -0.878107 3.87782 0
M  V30 2803 N 279.361 -1.56624 0.175154 0
M  V30 2804 C 280.601 -1.98894 -0.471221 0
M  V30 2805 C 280.965 -1.05889 -1.60161 0
M  V30 2806 O 282.166 -1.37315 -2.3108 0
M  V30 2807 C 280.437 -3.44865 -0.938241 0
M  V30 2808 S 281.996 -4.09164 -1.58526 0
M  V30 2809 H 278.814 -0.694686 -0.151434 0
M  V30 2810 H 281.416 -1.93577 0.27352 0
M  V30 2811 H 280.12 -4.10265 -0.10518 0
M  V30 2812 H 279.651 -3.53956 -1.71693 0
M  V30 2813 H 281.666 -4.04528 -2.87352 0
M  V30 2814 N 280.839 0.0985539 -1.57292 0
M  V30 2815 C 281.771 1.14595 -1.98496 0
M  V30 2816 C 282.784 1.36512 -0.887031 0
M  V30 2817 O 283.973 1.35225 -1.16518 0
M  V30 2818 C 281.073 2.50216 -2.28572 0
M  V30 2819 C 280.246 2.48624 -3.59868 0
M  V30 2820 C 279.305 3.66146 -3.7792 0
M  V30 2821 O 278.331 3.48795 -4.49812 0
M  V30 2822 N 279.533 4.85496 -3.18235 0
M  V30 2823 H 282.298 0.795277 -2.88956 0
M  V30 2824 H 279.859 0.287579 -1.59325 0
M  V30 2825 H 281.851 3.27432 -2.37845 0
M  V30 2826 H 280.421 2.77387 -1.44136 0
M  V30 2827 H 279.641 1.56978 -3.61596 0
M  V30 2828 H 280.929 2.44635 -4.46129 0
M  V30 2829 H 280.327 5.02497 -2.59833 0
M  V30 2830 H 278.884 5.60317 -3.32999 0
M  V30 2831 N 282.317 1.53212 0.369288 0
M  V30 2832 C 283.733 1.42902 0.710712 0
M  V30 2833 C 283.933 0.565135 1.93413 0
M  V30 2834 O 282.989 0.0461484 2.52458 0
M  V30 2835 C 284.302 2.86042 0.927382 0
M  V30 2836 C 285.85 2.9565 1.02762 0
M  V30 2837 C 286.325 4.39843 1.27679 0
M  V30 2838 N 287.816 4.43256 1.34457 0
M  V30 2839 C 288.551 5.51929 1.55439 0
M  V30 2840 N 288.047 6.70655 1.73762 0
M  V30 2841 N 289.84 5.39502 1.57779 0
M  V30 2842 H 281.991 2.07888 -0.435457 0
M  V30 2843 H 284.254 0.938661 -0.132739 0
M  V30 2844 H 283.96 3.51557 0.100287 0
M  V30 2845 H 283.834 3.29472 1.83653 0
M  V30 2846 H 286.221 2.30291 1.84527 0
M  V30 2847 H 286.302 2.5562 0.0959504 0
M  V30 2848 H 285.946 5.05774 0.464175 0
M  V30 2849 H 285.876 4.77443 2.22162 0
M  V30 2850 H 288.367 3.5769 1.21926 0
M  V30 2851 H 288.68 7.49248 1.89335 0
M  V30 2852 H 287.025 6.73648 1.70948 0
M  V30 2853 H 290.216 4.45713 1.43029 0
M  V30 2854 H 290.389 6.2426 1.7379 0
M  V30 2855 N 283.795 -0.628877 1.44509 0
M  V30 2856 C 284.728 -1.75367 1.46019 0
M  V30 2857 C 285.706 -1.59444 0.318787 0
M  V30 2858 O 286.89 -1.81297 0.516099 0
M  V30 2859 C 284.017 -3.12965 1.29501 0
M  V30 2860 C 283.063 -3.47532 2.47233 0
M  V30 2861 S 283.896 -3.44758 4.09758 0
M  V30 2862 C 285.052 -4.84973 3.95667 0
M  V30 2863 H 285.285 -1.7382 2.41193 0
M  V30 2864 H 282.818 -0.803686 1.31834 0
M  V30 2865 H 284.776 -3.92367 1.20658 0
M  V30 2866 H 283.437 -3.12049 0.358341 0
M  V30 2867 H 282.63 -4.47664 2.31544 0
M  V30 2868 H 282.232 -2.75598 2.52828 0
M  V30 2869 H 284.524 -5.74255 3.59496 0
M  V30 2870 H 285.467 -5.05716 4.95638 0
M  V30 2871 H 285.875 -4.59653 3.27688 0
M  V30 2872 N 285.273 -1.31445 -0.869486 0
M  V30 2873 C 286.522 -1.20517 -1.61736 0
M  V30 2874 C 286.835 0.235341 -1.94179 0
M  V30 2875 O 288.041 0.466312 -2.67465 0
M  V30 2876 C 286.497 -2.10982 -2.91573 0
M  V30 2877 C 286.105 -3.60032 -2.66611 0
M  V30 2878 C 287.849 -2.08856 -3.69567 0
M  V30 2879 C 285.756 -4.42503 -3.92358 0
M  V30 2880 H 284.686 -0.447493 -0.606849 0
M  V30 2881 H 287.337 -1.56303 -0.96133 0
M  V30 2882 H 285.719 -1.68095 -3.58553 0
M  V30 2883 H 286.893 -4.11167 -2.08035 0
M  V30 2884 H 285.208 -3.64139 -2.0197 0
M  V30 2885 H 287.805 -2.67716 -4.62852 0
M  V30 2886 H 288.148 -1.07582 -4.02159 0
M  V30 2887 H 288.681 -2.49945 -3.09471 0
M  V30 2888 H 285.42 -5.44533 -3.64916 0
M  V30 2889 H 284.94 -3.96125 -4.50383 0
M  V30 2890 H 286.619 -4.54741 -4.60238 0
M  V30 2891 N 286.751 1.08385 -1.14413 0
M  V30 2892 C 288.028 1.77429 -0.823297 0
M  V30 2893 C 288.408 1.9974 0.683163 0
M  V30 2894 O 287.756 1.60739 1.62405 0
M  V30 2895 C 287.966 3.09004 -1.62227 0
M  V30 2896 C 289.314 3.83532 -1.82177 0
M  V30 2897 O 290.338 3.18786 -1.58915 0
M  V30 2898 O 289.197 4.99792 -2.21067 0
M  V30 2899 H 286.291 0.769999 -0.301712 0
M  V30 2900 H 288.837 1.14846 -1.24934 0
M  V30 2901 H 287.609 2.88316 -2.64555 0
M  V30 2902 H 287.232 3.79316 -1.19187 0
M  V30 2903 N 288.23 0.939286 1.26551 0
M  V30 2904 C 289.193 0.451987 2.24699 0
M  V30 2905 C 290.193 -0.435869 1.5478 0
M  V30 2906 O 291.383 -0.235314 1.72603 0
M  V30 2907 C 288.515 -0.348801 3.39111 0
M  V30 2908 H 289.708 1.3193 2.69322 0
M  V30 2909 H 287.261 0.721072 1.38673 0
M  V30 2910 H 287.996 -1.23444 2.99887 0
M  V30 2911 H 287.781 0.287945 3.91041 0
M  V30 2912 H 289.271 -0.679726 4.12031 0
M  V30 2913 N 289.708 -1.40897 0.706093 0
M  V30 2914 C 290.671 -2.29131 0.0562841 0
M  V30 2915 C 291.671 -1.44901 -0.697166 0
M  V30 2916 O 292.861 -1.65926 -0.530484 0
M  V30 2917 C 289.993 -3.27957 -0.93043 0
M  V30 2918 H 291.186 -2.88091 0.833284 0
M  V30 2919 H 288.739 -1.4906 0.470192 0
M  V30 2920 H 289.474 -2.73997 -1.73482 0
M  V30 2921 H 289.259 -3.90124 -0.393166 0
M  V30 2922 H 290.749 -3.94049 -1.38256 0
M  V30 2923 N 291.186 -0.45159 -1.50991 0
M  V30 2924 C 292.133 0.352625 -2.2809 0
M  V30 2925 C 293.103 1.0044 -1.32291 0
M  V30 2926 O 294.288 1.02058 -1.6121 0
M  V30 2927 C 291.428 1.43983 -3.13629 0
M  V30 2928 C 290.541 0.804772 -4.24438 0
M  V30 2929 C 289.676 1.86822 -4.97263 0
M  V30 2930 C 288.715 1.21236 -5.99973 0
M  V30 2931 N 287.852 2.2178 -6.66152 0
M  V30 2932 H 292.692 -0.311186 -2.96371 0
M  V30 2933 H 290.229 -0.165308 -1.46168 0
M  V30 2934 H 292.187 2.08161 -3.61559 0
M  V30 2935 H 290.817 2.07307 -2.47434 0
M  V30 2936 H 289.869 0.0509129 -3.80366 0
M  V30 2937 H 291.181 0.286076 -4.97979 0
M  V30 2938 H 290.335 2.58628 -5.48813 0
M  V30 2939 H 289.074 2.42068 -4.23385 0
M  V30 2940 H 288.079 0.479828 -5.47702 0
M  V30 2941 H 289.304 0.667051 -6.75816 0
M  V30 2942 H 287.25 2.76079 -5.95077 0
M  V30 2943 H 287.167 1.74841 -7.35504 0
M  V30 2944 H 288.435 2.93026 -7.22327 0
M  V30 2945 N 292.664 1.56529 -0.183458 0
M  V30 2946 C 293.627 2.17324 0.728223 0
M  V30 2947 C 294.627 1.12453 1.14939 0
M  V30 2948 O 295.817 1.37902 1.06437 0
M  V30 2949 C 292.949 2.76591 1.99274 0
M  V30 2950 H 294.142 2.99241 0.198772 0
M  V30 2951 H 291.695 1.5616 0.0661391 0
M  V30 2952 H 292.43 1.98441 2.56499 0
M  V30 2953 H 292.215 3.5335 1.69959 0
M  V30 2954 H 293.705 3.23311 2.6431 0
M  V30 2955 N 294.142 -0.090211 1.57342 0
M  V30 2956 C 295.105 -1.09335 2.01441 0
M  V30 2957 C 296.105 -1.32666 0.908641 0
M  V30 2958 O 297.295 -1.28697 1.174 0
M  V30 2959 C 294.427 -2.44136 2.3793 0
M  V30 2960 H 295.62 -0.713662 2.91285 0
M  V30 2961 H 293.173 -0.335404 1.52659 0
M  V30 2962 H 293.908 -2.86972 1.51055 0
M  V30 2963 H 293.693 -2.28548 3.18603 0
M  V30 2964 H 295.183 -3.16277 2.72688 0
M  V30 2965 N 295.62 -1.53406 -0.361157 0
M  V30 2966 C 296.568 -1.80832 -1.46296 0
M  V30 2967 C 297.562 -0.677699 -1.55253 0
M  V30 2968 O 298.768 -0.860723 -1.58087 0
M  V30 2969 H 295.143 -0.572627 -0.487445 0
M  V30 2970 H 297.114 -2.73045 -1.20371 0
M  V30 2971 C 295.863 -2.01907 -2.8307 0
M  V30 2972 H 295.186 -2.88349 -2.76938 0
M  V30 2973 H 296.626 -2.25072 -3.59331 0
M  V30 2974 C 295.085 -0.799449 -3.27277 0
M  V30 2975 O 295.615 0.00971761 -4.01699 0
M  V30 2976 N 293.821 -0.621637 -2.83873 0
M  V30 2977 H 293.368 -1.28126 -2.23476 0
M  V30 2978 H 293.326 0.19298 -3.13807 0
M  V30 2979 N 297.098 0.621204 -1.44841 0
M  V30 2980 C 298.045 1.73267 -1.5247 0
M  V30 2981 C 299.015 1.6189 -0.371611 0
M  V30 2982 O 300.2 1.81668 -0.58321 0
M  V30 2983 C 297.34 3.11545 -1.48438 0
M  V30 2984 C 296.453 3.33827 -2.74196 0
M  V30 2985 C 295.588 4.62133 -2.61929 0
M  V30 2986 C 294.627 4.77627 -3.82804 0
M  V30 2987 N 293.764 5.97219 -3.69153 0
M  V30 2988 H 298.604 1.66082 -2.47428 0
M  V30 2989 H 296.141 0.810026 -1.22788 0
M  V30 2990 H 298.099 3.91528 -1.4409 0
M  V30 2991 H 296.729 3.1772 -0.570402 0
M  V30 2992 H 295.781 2.47715 -2.88689 0
M  V30 2993 H 297.093 3.41153 -3.6389 0
M  V30 2994 H 296.247 5.50291 -2.5547 0
M  V30 2995 H 294.986 4.57182 -1.69811 0
M  V30 2996 H 293.991 3.87896 -3.89637 0
M  V30 2997 H 295.216 4.84385 -4.75971 0
M  V30 2998 H 293.162 5.93339 -2.79794 0
M  V30 2999 H 293.079 6.05644 -4.52472 0
M  V30 3000 H 294.347 6.87912 -3.66603 0
M  V30 3001 N 298.576 1.31904 0.862503 0
M  V30 3002 C 299.523 1.20182 1.9704 0
M  V30 3003 C 300.493 0.0858247 1.65878 0
M  V30 3004 O 301.678 0.26 1.8902 0
M  V30 3005 C 298.818 0.922797 3.32533 0
M  V30 3006 C 297.931 2.12284 3.76244 0
M  V30 3007 C 297.066 1.77996 5.00491 0
M  V30 3008 C 296.105 2.94366 5.36671 0
M  V30 3009 N 295.242 2.60223 6.52095 0
M  V30 3010 H 300.082 2.14951 2.06398 0
M  V30 3011 H 297.619 1.06917 1.01031 0
M  V30 3012 H 299.577 0.741548 4.10557 0
M  V30 3013 H 298.207 0.0119227 3.22798 0
M  V30 3014 H 297.259 2.41461 2.9394 0
M  V30 3015 H 298.571 2.99357 3.98982 0
M  V30 3016 H 297.725 1.56377 5.862 0
M  V30 3017 H 296.464 0.881252 4.79672 0
M  V30 3018 H 295.469 3.16625 4.49476 0
M  V30 3019 H 296.694 3.84957 5.59451 0
M  V30 3020 H 294.64 1.72884 6.32809 0
M  V30 3021 H 294.557 3.40827 6.74814 0
M  V30 3022 H 295.825 2.42016 7.40978 0
M  V30 3023 N 300.054 -1.07777 1.14986 0
M  V30 3024 C 300.984 -2.16865 0.865557 0
M  V30 3025 C 301.965 -1.69123 -0.182083 0
M  V30 3026 O 303.15 -1.94164 -0.0373815 0
M  V30 3027 C 300.28 -3.45539 0.349313 0
M  V30 3028 C 299.234 -4.06708 1.33313 0
M  V30 3029 C 298.56 -5.30411 0.675918 0
M  V30 3030 C 299.86 -4.47241 2.69764 0
M  V30 3031 H 301.554 -2.40905 1.77778 0
M  V30 3032 H 299.1 -1.15781 0.856203 0
M  V30 3033 H 301.053 -4.21174 0.137983 0
M  V30 3034 H 299.777 -3.21072 -0.598362 0
M  V30 3035 H 298.436 -3.33112 1.53075 0
M  V30 3036 H 298.084 -5.02232 -0.277767 0
M  V30 3037 H 297.784 -5.72293 1.33244 0
M  V30 3038 H 299.308 -6.08755 0.474262 0
M  V30 3039 H 300.722 -5.14025 2.53873 0
M  V30 3040 H 299.119 -5.00062 3.3175 0
M  V30 3041 H 300.189 -3.58818 3.26156 0
M  V30 3042 N 301.532 -0.945985 -1.26051 0
M  V30 3043 C 302.465 -0.403619 -2.24602 0
M  V30 3044 C 303.443 0.510241 -1.54387 0
M  V30 3045 O 304.627 0.446593 -1.83133 0
M  V30 3046 C 301.754 0.419564 -3.36091 0
M  V30 3047 C 300.8 -0.433454 -4.24292 0
M  V30 3048 S 301.633 -1.86037 -5.02146 0
M  V30 3049 C 302.789 -1.04538 -6.17108 0
M  V30 3050 H 303.022 -1.23883 -2.7026 0
M  V30 3051 H 300.555 -0.749438 -1.34992 0
M  V30 3052 H 302.513 0.888595 -4.00767 0
M  V30 3053 H 301.174 1.22951 -2.89036 0
M  V30 3054 H 300.367 0.197486 -5.03613 0
M  V30 3055 H 299.969 -0.837357 -3.64506 0
M  V30 3056 H 302.261 -0.289923 -6.76879 0
M  V30 3057 H 303.204 -1.81222 -6.84518 0
M  V30 3058 H 303.612 -0.579319 -5.61519 0
M  V30 3059 N 303.011 1.40521 -0.713556 0
M  V30 3060 C 304.26 2.00155 -0.249192 0
M  V30 3061 C 304.573 1.57224 1.16362 0
M  V30 3062 O 305.779 2.09542 1.72639 0
M  V30 3063 C 304.235 3.5773 -0.3946 0
M  V30 3064 C 303.843 4.09635 -1.81392 0
M  V30 3065 C 305.587 4.24499 0.00907364 0
M  V30 3066 C 303.494 5.59707 -1.91003 0
M  V30 3067 H 302.424 0.74868 -0.0894114 0
M  V30 3068 H 305.075 1.60784 -0.884352 0
M  V30 3069 H 303.457 3.94792 0.30911 0
M  V30 3070 H 304.631 3.83955 -2.54785 0
M  V30 3071 H 302.946 3.55456 -2.16888 0
M  V30 3072 H 305.543 5.34683 -0.0420404 0
M  V30 3073 H 305.886 4.02824 1.05065 0
M  V30 3074 H 306.419 3.92536 -0.645007 0
M  V30 3075 H 303.158 5.86234 -2.93275 0
M  V30 3076 H 302.678 5.87258 -1.22019 0
M  V30 3077 H 304.357 6.24776 -1.6812 0
M  V30 3078 N 304.489 0.459591 1.5075 0
M  V30 3079 C 305.737 -0.0991532 2.01857 0
M  V30 3080 C 306.058 -1.41247 1.34441 0
M  V30 3081 O 305.328 -1.89775 0.486022 0
M  V30 3082 H 303.908 -0.039633 0.745948 0
M  V30 3083 H 306.57 0.607387 1.85194 0
M  V30 3084 H 305.666 -0.258998 3.11023 0
M  V30 3085 N 305.967 -1.56429 0.191757 0
M  V30 3086 C 307.197 -2.01574 -0.452928 0
M  V30 3087 C 307.605 -1.07107 -1.55964 0
M  V30 3088 O 306.948 -0.067534 -1.83576 0
M  V30 3089 C 307.01 -3.43121 -1.07278 0
M  V30 3090 C 306.674 -4.56879 -0.105214 0
M  V30 3091 C 307.671 -5.15379 0.684149 0
M  V30 3092 C 305.356 -5.023 0.00489824 0
M  V30 3093 C 307.35 -6.17746 1.57062 0
M  V30 3094 C 305.037 -6.04511 0.894935 0
M  V30 3095 C 306.035 -6.62108 1.67637 0
M  V30 3096 O 305.723 -7.62335 2.55149 0
M  V30 3097 H 305.455 -0.665554 -0.118379 0
M  V30 3098 H 308.009 -2.03245 0.296737 0
M  V30 3099 H 306.239 -3.38425 -1.87097 0
M  V30 3100 H 307.928 -3.72093 -1.62177 0
M  V30 3101 H 308.694 -4.81157 0.609365 0
M  V30 3102 H 304.573 -4.57168 -0.593156 0
M  V30 3103 H 308.117 -6.6263 2.181 0
M  V30 3104 H 304.014 -6.38157 0.970847 0
M  V30 3105 H 304.782 -7.79741 2.48892 0
M  V30 3106 N 307.445 0.0818655 -1.57387 0
M  V30 3107 C 308.861 0.436412 -1.53517 0
M  V30 3108 C 309.061 1.79758 -0.910459 0
M  V30 3109 O 308.117 2.47324 -0.508636 0
M  V30 3110 C 309.43 0.386734 -2.98203 0
M  V30 3111 C 310.978 0.467644 -3.09487 0
M  V30 3112 C 311.453 0.447978 -4.55804 0
M  V30 3113 N 312.944 0.508348 -4.60402 0
M  V30 3114 C 313.679 0.515184 -5.71081 0
M  V30 3115 N 313.175 0.477435 -6.91153 0
M  V30 3116 N 314.968 0.560988 -5.59294 0
M  V30 3117 H 307.119 -0.809546 -1.96367 0
M  V30 3118 H 309.382 -0.302733 -0.898363 0
M  V30 3119 H 309.088 -0.546539 -3.47427 0
M  V30 3120 H 308.962 1.20075 -3.57578 0
M  V30 3121 H 311.349 1.39134 -2.60242 0
M  V30 3122 H 311.43 -0.374753 -2.5304 0
M  V30 3123 H 311.074 -0.471826 -5.05704 0
M  V30 3124 H 311.004 1.30777 -5.10103 0
M  V30 3125 H 313.495 0.54218 -3.7399 0
M  V30 3126 H 313.808 0.486299 -7.71268 0
M  V30 3127 H 312.153 0.444278 -6.93579 0
M  V30 3128 H 315.344 0.5881 -4.64391 0
M  V30 3129 H 315.517 0.562846 -6.45551 0
M  V30 3130 N 308.923 1.53595 0.353017 0
M  V30 3131 C 310.163 1.72094 1.10286 0
M  V30 3132 C 310.527 0.469217 1.86178 0
M  V30 3133 O 311.728 0.531083 2.63501 0
M  V30 3134 C 309.999 2.94386 2.02661 0
M  V30 3135 S 311.558 3.33651 2.84996 0
M  V30 3136 H 308.376 0.605433 0.372789 0
M  V30 3137 H 310.978 1.91722 0.38248 0
M  V30 3138 H 309.682 3.83669 1.45691 0
M  V30 3139 H 309.213 2.77197 2.79152 0
M  V30 3140 H 311.228 2.86645 4.0503 0
M  V30 3141 N 310.401 -0.613514 1.45168 0
M  V30 3142 C 311.351 -1.71871 1.49815 0
M  V30 3143 C 312.335 -1.56774 0.362021 0
M  V30 3144 O 313.527 -1.66212 0.608493 0
M  V30 3145 C 310.656 -3.1061 1.46207 0
M  V30 3146 C 309.742 -3.31114 2.64999 0
M  V30 3147 N 310.133 -3.21904 3.90143 0
M  V30 3148 C 308.431 -3.61966 2.6057 0
M  V30 3149 C 309.132 -3.43577 4.69393 0
M  V30 3150 N 308.108 -3.67287 4.00751 0
M  V30 3151 H 311.91 -1.63235 2.444 0
M  V30 3152 H 309.424 -0.816577 1.40377 0
M  V30 3153 H 311.421 -3.8989 1.4762 0
M  V30 3154 H 310.081 -3.20399 0.52673 0
M  V30 3155 H 311.092 -3.00436 4.21852 0
M  V30 3156 H 307.769 -3.78629 1.75916 0
M  V30 3157 H 309.159 -3.41901 5.78406 0
M  V30 3158 N 311.879 -1.3236 -0.855495 0
M  V30 3159 C 313.109 -1.25688 -1.6397 0
M  V30 3160 C 313.517 0.177592 -1.88365 0
M  V30 3161 O 312.86 1.12485 -1.45234 0
M  V30 3162 C 312.922 -1.94602 -3.02275 0
M  V30 3163 C 312.586 -3.43937 -3.00926 0
M  V30 3164 C 313.583 -4.39435 -2.77835 0
M  V30 3165 C 311.268 -3.85858 -3.21588 0
M  V30 3166 C 313.262 -5.74829 -2.75409 0
M  V30 3167 C 310.949 -5.21361 -3.18789 0
M  V30 3168 C 311.947 -6.15658 -2.95727 0
M  V30 3169 O 311.635 -7.48681 -2.928 0
M  V30 3170 H 311.367 -0.434972 -0.51747 0
M  V30 3171 H 313.921 -1.75023 -1.075 0
M  V30 3172 H 312.151 -1.39836 -3.60531 0
M  V30 3173 H 313.84 -1.81651 -3.62985 0
M  V30 3174 H 314.606 -4.08374 -2.6164 0
M  V30 3175 H 310.485 -3.12883 -3.38564 0
M  V30 3176 H 314.029 -6.48404 -2.57328 0
M  V30 3177 H 309.926 -5.52052 -3.34528 0
M  V30 3178 H 310.694 -7.5803 -3.0876 0
M  V30 3179 N 313.357 1.07166 -1.15556 0
M  V30 3180 C 314.634 1.76546 -0.842069 0
M  V30 3181 C 315.014 2.00453 0.661939 0
M  V30 3182 O 314.362 1.62452 1.60691 0
M  V30 3183 C 314.572 3.07266 -1.65495 0
M  V30 3184 C 315.92 3.81578 -1.86234 0
M  V30 3185 O 316.944 3.17083 -1.62287 0
M  V30 3186 O 315.803 4.97419 -2.26355 0
M  V30 3187 H 312.897 0.766756 -0.309862 0
M  V30 3188 H 315.443 1.13514 -1.26145 0
M  V30 3189 H 314.215 2.85494 -2.67598 0
M  V30 3190 H 313.838 3.7803 -1.23203 0
M  V30 3191 N 314.835 0.952656 1.25548 0
M  V30 3192 C 316.246 0.647392 1.75116 0
M  V30 3193 C 316.597 -0.837274 1.77438 0
M  V30 3194 O 315.722 -1.65525 1.39393 0
M  V30 3195 C 316.317 1.16845 3.18014 0
M  V30 3196 C 314.876 0.913382 3.6515 0
M  V30 3197 C 314.023 1.31265 2.44264 0
M  V30 3198 H 316.974 1.12968 1.11462 0
M  V30 3199 H 316.995 0.527606 3.76824 0
M  V30 3200 H 316.507 2.24902 3.16292 0
M  V30 3201 H 314.608 -0.152316 3.72289 0
M  V30 3202 H 314.721 1.54845 4.53387 0
M  V30 3203 H 313.085 0.731028 2.43984 0
M  V30 3204 H 313.868 2.40239 2.45234 0
M  V30 3205 N 316.313 -1.40141 0.720998 0
M  V30 3206 C 317.246 -2.2819 0.020916 0
M  V30 3207 C 318.224 -1.43633 -0.762129 0
M  V30 3208 O 319.408 -1.7304 -0.747633 0
M  V30 3209 C 316.535 -3.24281 -0.977715 0
M  V30 3210 C 315.581 -4.25548 -0.284836 0
M  V30 3211 S 316.414 -5.26247 0.991169 0
M  V30 3212 C 317.57 -6.259 -0.0052214 0
M  V30 3213 H 317.803 -2.87218 0.767649 0
M  V30 3214 H 315.336 -1.45656 0.512233 0
M  V30 3215 H 317.294 -3.80167 -1.54865 0
M  V30 3216 H 315.955 -2.643 -1.69719 0
M  V30 3217 H 315.148 -4.93154 -1.03996 0
M  V30 3218 H 314.75 -3.73389 0.213684 0
M  V30 3219 H 317.042 -6.72143 -0.850279 0
M  V30 3220 H 317.985 -7.05224 0.637599 0
M  V30 3221 H 318.393 -5.63277 -0.371366 0
M  V30 3222 N 317.792 -0.46758 -1.50504 0
M  V30 3223 C 318.74 0.342482 -2.30065 0
M  V30 3224 C 319.734 0.993596 -1.37201 0
M  V30 3225 O 320.94 0.925102 -1.54408 0
M  V30 3226 H 317.315 0.129283 -0.740803 0
M  V30 3227 H 319.286 -0.34899 -2.96352 0
M  V30 3228 C 318.035 1.4139 -3.17654 0
M  V30 3229 H 317.358 0.922264 -3.89017 0
M  V30 3230 H 318.798 1.95335 -3.76325 0
M  V30 3231 C 317.257 2.4139 -2.35016 0
M  V30 3232 O 317.787 3.46586 -2.03079 0
M  V30 3233 N 315.993 2.13021 -1.97662 0
M  V30 3234 H 315.54 1.27499 -2.23834 0
M  V30 3235 H 315.498 2.80164 -1.42673 0
M  V30 3236 N 319.27 1.56325 -0.20005 0
M  V30 3237 C 320.686 1.58839 0.155716 0
M  V30 3238 C 320.886 1.21636 1.60645 0
M  V30 3239 O 319.942 0.941437 2.34293 0
M  V30 3240 C 321.255 3.0032 -0.151124 0
M  V30 3241 C 322.803 3.12866 -0.0916284 0
M  V30 3242 C 323.278 4.56488 -0.371845 0
M  V30 3243 N 324.769 4.62089 -0.320641 0
M  V30 3244 C 325.504 5.71116 -0.511243 0
M  V30 3245 N 325 6.88592 -0.762461 0
M  V30 3246 N 326.793 5.60335 -0.445157 0
M  V30 3247 H 318.944 1.78788 -1.14668 0
M  V30 3248 H 321.207 0.829996 -0.458051 0
M  V30 3249 H 320.913 3.32117 -1.15721 0
M  V30 3250 H 320.787 3.73257 0.543986 0
M  V30 3251 H 323.174 2.80878 0.905065 0
M  V30 3252 H 323.255 2.42304 -0.81989 0
M  V30 3253 H 322.899 4.89189 -1.36588 0
M  V30 3254 H 322.829 5.25246 0.377362 0
M  V30 3255 H 325.32 3.77665 -0.13329 0
M  V30 3256 H 325.633 7.67581 -0.896576 0
M  V30 3257 H 323.978 6.90387 -0.799412 0
M  V30 3258 H 327.169 4.67436 -0.249278 0
M  V30 3259 H 327.342 6.45243 -0.597116 0
M  V30 3260 N 320.748 -0.0735177 1.57428 0
M  V30 3261 C 321.711 -1.07192 2.02589 0
M  V30 3262 C 322.711 -1.31695 0.922661 0
M  V30 3263 O 323.901 -1.27445 1.18758 0
M  V30 3264 C 321.033 -2.41599 2.40506 0
M  V30 3265 H 322.226 -0.682727 2.92025 0
M  V30 3266 H 319.779 -0.319193 1.53006 0
M  V30 3267 H 320.514 -2.85354 1.5409 0
M  V30 3268 H 320.299 -2.25156 3.21009 0
M  V30 3269 H 321.789 -3.13367 2.76027 0
M  V30 3270 N 322.226 -1.5378 -0.344866 0
M  V30 3271 C 323.189 -1.80981 -1.40637 0
M  V30 3272 C 324.189 -0.680816 -1.45676 0
M  V30 3273 O 325.379 -0.949095 -1.46075 0
M  V30 3274 C 322.511 -1.95063 -2.79577 0
M  V30 3275 H 323.704 -2.75803 -1.17783 0
M  V30 3276 H 321.257 -1.45173 -0.579181 0
M  V30 3277 H 321.992 -1.02379 -3.07716 0
M  V30 3278 H 321.777 -2.77198 -2.77315 0
M  V30 3279 H 323.267 -2.17629 -3.56409 0
M  V30 3280 N 323.704 0.605807 -1.45491 0
M  V30 3281 C 324.95 1.36679 -1.49823 0
M  V30 3282 C 325.283 1.93693 -0.140175 0
M  V30 3283 O 324.558 1.75158 0.845581 0
M  V30 3284 C 324.841 2.51337 -2.57879 0
M  V30 3285 C 324.694 1.99508 -4.03134 0
M  V30 3286 C 326.013 3.53463 -2.62205 0
M  V30 3287 H 323.132 0.495617 -0.545466 0
M  V30 3288 H 325.774 0.682732 -1.7731 0
M  V30 3289 H 323.924 3.09691 -2.34571 0
M  V30 3290 H 325.596 1.45789 -4.37656 0
M  V30 3291 H 323.839 1.30496 -4.13707 0
M  V30 3292 H 324.51 2.82169 -4.74431 0
M  V30 3293 H 326.986 3.04953 -2.83095 0
M  V30 3294 H 325.862 4.31178 -3.39672 0
M  V30 3295 H 326.123 4.09197 -1.67363 0
M  V30 3296 N 325.182 1.32811 0.848464 0
M  V30 3297 C 326.129 1.22265 1.95755 0
M  V30 3298 C 327.099 0.103413 1.65778 0
M  V30 3299 O 328.284 0.280033 1.88734 0
M  V30 3300 C 325.424 0.958014 3.31536 0
M  V30 3301 C 324.537 2.16262 3.73971 0
M  V30 3302 C 323.672 1.83295 4.98575 0
M  V30 3303 C 322.711 3.00041 5.33518 0
M  V30 3304 N 321.848 2.67125 6.49299 0
M  V30 3305 H 326.688 2.17128 2.04107 0
M  V30 3306 H 324.225 1.07982 0.998913 0
M  V30 3307 H 326.183 0.785052 4.09747 0
M  V30 3308 H 324.813 0.046159 3.22767 0
M  V30 3309 H 323.865 2.44565 2.91362 0
M  V30 3310 H 325.177 3.03572 3.95785 0
M  V30 3311 H 324.331 1.62586 5.84509 0
M  V30 3312 H 323.07 0.932078 4.7871 0
M  V30 3313 H 322.075 3.21374 4.46093 0
M  V30 3314 H 323.3 3.90869 5.55336 0
M  V30 3315 H 321.246 1.79586 6.3094 0
M  V30 3316 H 321.163 3.47965 6.71161 0
M  V30 3317 H 322.431 2.49861 7.3837 0
M  V30 3318 N 326.66 -1.06551 1.16123 0
M  V30 3319 C 327.59 -2.15935 0.88851 0
M  V30 3320 C 328.571 -1.69306 -0.164135 0
M  V30 3321 O 329.756 -1.94193 -0.0167857 0
M  V30 3322 C 326.886 -3.45149 0.385942 0
M  V30 3323 C 325.84 -4.05271 1.3762 0
M  V30 3324 C 325.166 -5.29664 0.732137 0
M  V30 3325 C 326.466 -4.44355 2.74493 0
M  V30 3326 H 328.16 -2.39006 1.80323 0
M  V30 3327 H 325.706 -1.14866 0.868435 0
M  V30 3328 H 327.659 -4.21004 0.182647 0
M  V30 3329 H 326.383 -3.21689 -0.564274 0
M  V30 3330 H 325.042 -3.3147 1.56599 0
M  V30 3331 H 324.69 -5.02499 -0.224483 0
M  V30 3332 H 324.39 -5.70848 1.39307 0
M  V30 3333 H 325.914 -6.08218 0.538802 0
M  V30 3334 H 327.328 -5.11303 2.59311 0
M  V30 3335 H 325.725 -4.96515 3.37035 0
M  V30 3336 H 326.795 -3.55339 3.29943 0
M  V30 3337 N 328.138 -0.959301 -1.25041 0
M  V30 3338 C 329.387 -0.612254 -1.92183 0
M  V30 3339 C 329.7 0.855347 -1.75907 0
M  V30 3340 O 330.906 1.31256 -2.37664 0
M  V30 3341 C 329.362 -1.04435 -3.44414 0
M  V30 3342 C 328.97 -2.53482 -3.69393 0
M  V30 3343 C 330.714 -0.770055 -4.17457 0
M  V30 3344 C 328.621 -2.90468 -5.15153 0
M  V30 3345 H 327.551 -0.225279 -0.719559 0
M  V30 3346 H 330.202 -1.16438 -1.41825 0
M  V30 3347 H 328.584 -0.4206 -3.9376 0
M  V30 3348 H 329.758 -3.20916 -3.30681 0
M  V30 3349 H 328.073 -2.78432 -3.0962 0
M  V30 3350 H 330.67 -1.02249 -5.24832 0
M  V30 3351 H 331.013 0.293611 -4.15263 0
M  V30 3352 H 331.546 -1.35437 -3.74034 0
M  V30 3353 H 328.285 -3.95871 -5.22462 0
M  V30 3354 H 327.805 -2.27711 -5.54894 0
M  V30 3355 H 329.484 -2.79914 -5.83315 0
M  V30 3356 N 329.616 1.39756 -0.72842 0
M  V30 3357 C 331.032 1.5442 -0.403308 0
M  V30 3358 C 331.232 1.69694 1.08656 0
M  V30 3359 O 330.288 1.69373 1.87267 0
M  V30 3360 C 331.601 2.76555 -1.18058 0
M  V30 3361 C 333.149 2.90384 -1.16815 0
M  V30 3362 C 333.624 4.15449 -1.92785 0
M  V30 3363 N 335.115 4.22475 -1.89918 0
M  V30 3364 C 335.85 5.1818 -2.45514 0
M  V30 3365 N 335.346 6.19714 -3.09719 0
M  V30 3366 N 337.139 5.1035 -2.35584 0
M  V30 3367 H 329.29 1.28089 -1.69431 0
M  V30 3368 H 331.553 0.620327 -0.716867 0
M  V30 3369 H 331.259 2.7159 -2.23455 0
M  V30 3370 H 331.133 3.69033 -0.780662 0
M  V30 3371 H 333.52 2.94846 -0.12234 0
M  V30 3372 H 333.601 1.98988 -1.6074 0
M  V30 3373 H 333.245 4.11749 -2.97364 0
M  V30 3374 H 333.175 5.05877 -1.46272 0
M  V30 3375 H 335.666 3.49743 -1.43138 0
M  V30 3376 H 335.979 6.8919 -3.49625 0
M  V30 3377 H 334.324 6.20121 -3.13807 0
M  V30 3378 H 337.515 4.2996 -1.85072 0
M  V30 3379 H 337.688 5.84761 -2.79211 0
M  V30 3380 N 331.094 0.475555 1.50254 0
M  V30 3381 C 332.004 -0.321501 2.32387 0
M  V30 3382 C 333.02 -0.991755 1.42969 0
M  V30 3383 O 334.196 -0.978747 1.76018 0
M  V30 3384 C 331.261 -1.38667 3.17762 0
M  V30 3385 C 330.322 -0.732538 4.23004 0
M  V30 3386 C 329.555 -1.74695 5.04299 0
M  V30 3387 O 329.778 -2.97399 4.86734 0
M  V30 3388 O 328.712 -1.31631 5.8733 0
M  V30 3389 H 332.538 0.350071 3.01676 0
M  V30 3390 H 330.123 0.237321 1.47503 0
M  V30 3391 H 332.005 -2.00354 3.70724 0
M  V30 3392 H 330.68 -2.04163 2.51196 0
M  V30 3393 H 329.587 -0.0765902 3.74022 0
M  V30 3394 H 330.92 -0.120452 4.92053 0
M  V30 3395 N 332.573 -1.56217 0.208337 0
M  V30 3396 C 333.521 -2.21053 -0.723769 0
M  V30 3397 C 334.515 -1.18578 -1.20978 0
M  V30 3398 O 335.721 -1.36691 -1.17114 0
M  V30 3399 H 332.096 -0.708595 -0.251788 0
M  V30 3400 H 334.067 -2.98006 -0.153365 0
M  V30 3401 C 332.816 -2.89417 -1.927 0
M  V30 3402 H 332.139 -3.68019 -1.56212 0
M  V30 3403 H 333.579 -3.38201 -2.55727 0
M  V30 3404 C 332.038 -1.91166 -2.77411 0
M  V30 3405 O 332.568 -1.42026 -3.75754 0
M  V30 3406 N 330.774 -1.59105 -2.43175 0
M  V30 3407 H 330.321 -1.99259 -1.63259 0
M  V30 3408 H 330.279 -0.936255 -3.00136 0
M  V30 3409 N 334.051 0.0651679 -1.57465 0
M  V30 3410 C 334.983 1.10359 -2.00882 0
M  V30 3411 C 335.996 1.346 -0.915788 0
M  V30 3412 O 337.185 1.32723 -1.1936 0
M  V30 3413 C 334.285 2.45312 -2.33828 0
M  V30 3414 C 333.458 2.40934 -3.65061 0
M  V30 3415 C 332.517 3.58047 -3.85602 0
M  V30 3416 O 331.543 3.39175 -4.57109 0
M  V30 3417 N 332.745 4.78637 -3.28462 0
M  V30 3418 H 335.51 0.733807 -2.90578 0
M  V30 3419 H 333.071 0.253719 -1.599 0
M  V30 3420 H 335.063 3.22314 -2.44737 0
M  V30 3421 H 333.633 2.74267 -1.49988 0
M  V30 3422 H 332.853 1.49273 -3.64844 0
M  V30 3423 H 334.141 2.35117 -4.51218 0
M  V30 3424 H 333.539 4.96872 -2.70433 0
M  V30 3425 H 332.096 5.53127 -3.44809 0
M  V30 3426 N 335.529 1.53961 0.336706 0
M  V30 3427 C 336.459 1.85417 1.41925 0
M  V30 3428 C 337.44 0.709856 1.5458 0
M  V30 3429 O 338.625 0.962396 1.68676 0
M  V30 3430 C 335.755 2.06985 2.78881 0
M  V30 3431 C 334.709 3.22813 2.81026 0
M  V30 3432 C 334.035 3.29727 4.20932 0
M  V30 3433 C 335.335 4.60767 2.45949 0
M  V30 3434 H 337.029 2.76079 1.15848 0
M  V30 3435 H 334.575 1.32839 0.555859 0
M  V30 3436 H 336.528 2.27575 3.54665 0
M  V30 3437 H 335.252 1.13061 3.06406 0
M  V30 3438 H 333.911 3.0209 2.07695 0
M  V30 3439 H 333.559 2.33385 4.45579 0
M  V30 3440 H 333.259 4.07566 4.23277 0
M  V30 3441 H 334.783 3.52536 4.98549 0
M  V30 3442 H 336.197 4.81325 3.11446 0
M  V30 3443 H 334.594 5.4106 2.59566 0
M  V30 3444 H 335.664 4.6391 1.41122 0
M  V30 3445 N 337.007 -0.598083 1.45811 0
M  V30 3446 C 338.255 -1.35413 1.50026 0
M  V30 3447 C 338.576 -1.94444 0.147177 0
M  V30 3448 O 337.846 -1.77701 -0.824571 0
M  V30 3449 H 336.426 -0.502727 0.552517 0
M  V30 3450 H 339.088 -0.701606 1.81834 0
M  V30 3451 H 338.184 -2.16871 2.2444 0
M  V30 3452 N 338.485 -1.33259 -0.841409 0
M  V30 3453 C 339.432 -1.23302 -1.95103 0
M  V30 3454 C 340.402 -0.112204 -1.65721 0
M  V30 3455 O 341.587 -0.290038 -1.88583 0
M  V30 3456 C 338.727 -0.975583 -3.31023 0
M  V30 3457 C 337.84 -2.18243 -3.72819 0
M  V30 3458 C 336.975 -1.85936 -4.97595 0
M  V30 3459 C 336.014 -3.02866 -5.3192 0
M  V30 3460 N 335.151 -2.70565 -6.47873 0
M  V30 3461 H 339.991 -2.18207 -2.02952 0
M  V30 3462 H 337.528 -1.0851 -0.993173 0
M  V30 3463 H 339.486 -0.80677 -4.09325 0
M  V30 3464 H 338.116 -0.0632755 -3.22738 0
M  V30 3465 H 337.168 -2.46107 -2.90061 0
M  V30 3466 H 338.48 -3.05666 -3.94169 0
M  V30 3467 H 337.634 -1.65684 -5.83638 0
M  V30 3468 H 336.373 -0.957452 -4.78209 0
M  V30 3469 H 335.378 -3.23736 -4.44382 0
M  V30 3470 H 336.603 -3.93809 -5.53255 0
M  V30 3471 H 334.549 -1.8293 -6.29978 0
M  V30 3472 H 334.466 -3.51519 -6.69306 0
M  V30 3473 H 335.734 -2.53774 -7.37034 0
M  V30 3474 N 339.963 1.05934 -1.16686 0
M  V30 3475 C 340.893 2.1546 -0.899949 0
M  V30 3476 C 341.874 1.69391 0.155154 0
M  V30 3477 O 343.059 1.94199 0.00648693 0
M  V30 3478 C 340.189 3.44939 -0.404241 0
M  V30 3479 C 339.143 4.04536 -1.39767 0
M  V30 3480 C 338.469 5.29268 -0.760216 0
M  V30 3481 C 339.769 4.42893 -2.76845 0
M  V30 3482 H 341.463 2.38046 -1.81588 0
M  V30 3483 H 339.009 1.14404 -0.874514 0
M  V30 3484 H 340.962 4.20901 -0.204971 0
M  V30 3485 H 339.686 3.21983 0.547206 0
M  V30 3486 H 338.345 3.30635 -1.58355 0
M  V30 3487 H 337.993 5.02611 0.197831 0
M  V30 3488 H 337.693 5.70101 -1.42332 0
M  V30 3489 H 339.217 6.07924 -0.57105 0
M  V30 3490 H 340.631 5.09921 -2.62019 0
M  V30 3491 H 339.028 4.94721 -3.39663 0
M  V30 3492 H 340.098 3.53584 -3.31823 0
M  V30 3493 N 341.441 0.965919 1.2453 0
M  V30 3494 C 342.689 0.625593 1.92174 0
M  V30 3495 C 343.01 -0.841652 1.75901 0
M  V30 3496 O 342.28 -1.60061 1.12948 0
M  V30 3497 H 340.86 0.228388 0.71123 0
M  V30 3498 H 343.522 1.2266 1.51461 0
M  V30 3499 H 342.618 0.864653 2.99884 0
M  V30 3500 N 342.919 -1.39368 0.735821 0
M  V30 3501 C 343.852 -2.28155 0.0451175 0
M  V30 3502 C 344.83 -1.44433 -0.746852 0
M  V30 3503 O 346.014 -1.73823 -0.729237 0
M  V30 3504 C 343.141 -3.253 -0.943266 0
M  V30 3505 C 342.187 -4.25826 -0.239685 0
M  V30 3506 S 343.02 -5.25166 1.04693 0
M  V30 3507 C 344.176 -6.2587 0.0611639 0
M  V30 3508 H 344.409 -2.86388 0.79807 0
M  V30 3509 H 341.942 -1.45104 0.527653 0
M  V30 3510 H 343.9 -3.81789 -1.50824 0
M  V30 3511 H 342.561 -2.66085 -1.66906 0
M  V30 3512 H 341.754 -4.94229 -0.987596 0
M  V30 3513 H 341.356 -3.73141 0.253274 0
M  V30 3514 H 343.648 -6.73007 -0.778941 0
M  V30 3515 H 344.591 -7.04508 0.712362 0
M  V30 3516 H 344.999 -5.63639 -0.311602 0
M  V30 3517 N 344.397 -0.483516 -1.5 0
M  V30 3518 C 345.643 0.0672592 -2.02688 0
M  V30 3519 C 345.976 1.38247 -1.36387 0
M  V30 3520 O 345.251 1.88131 -0.493675 0
M  V30 3521 C 345.534 0.238109 -3.59312 0
M  V30 3522 C 345.387 -1.099 -4.36168 0
M  V30 3523 C 346.706 0.986916 -4.28892 0
M  V30 3524 H 343.825 0.0229696 -0.736642 0
M  V30 3525 H 346.467 -0.631527 -1.79197 0
M  V30 3526 H 344.617 0.8333 -3.79458 0
M  V30 3527 H 346.289 -1.73172 -4.27562 0
M  V30 3528 H 344.532 -1.69261 -3.99416 0
M  V30 3529 H 345.203 -0.932954 -5.44059 0
M  V30 3530 H 347.679 0.482302 -4.13295 0
M  V30 3531 H 346.555 1.07527 -5.38265 0
M  V30 3532 H 346.816 2.0265 -3.92919 0
M  V30 3533 N 345.875 1.56104 -0.216619 0
M  V30 3534 C 347.103 2.02563 0.421413 0
M  V30 3535 C 347.518 1.0965 1.53695 0
M  V30 3536 O 346.875 0.10521 1.82196 0
M  V30 3537 C 346.926 3.48584 0.957665 0
M  V30 3538 O 346.647 4.37953 -0.113389 0
M  V30 3539 C 348.148 4.10664 1.66943 0
M  V30 3540 H 345.368 0.662944 0.103665 0
M  V30 3541 H 347.912 2.01793 -0.331629 0
M  V30 3542 H 346.067 3.49985 1.661 0
M  V30 3543 H 346.481 5.23704 0.288932 0
M  V30 3544 H 347.955 5.14622 1.99671 0
M  V30 3545 H 348.432 3.55373 2.58083 0
M  V30 3546 H 349.038 4.13098 1.01142 0
M  V30 3547 N 347.353 -0.0568162 1.57498 0
M  V30 3548 C 348.581 -0.765626 1.92213 0
M  V30 3549 C 348.996 -1.70353 0.813961 0
M  V30 3550 O 348.353 -1.81268 -0.211701 0
M  V30 3551 C 348.404 -1.5465 3.2675 0
M  V30 3552 O 348.125 -0.646278 4.33307 0
M  V30 3553 C 349.626 -2.35497 3.75574 0
M  V30 3554 H 346.846 -0.216835 0.634999 0
M  V30 3555 H 349.39 -0.0226146 2.04487 0
M  V30 3556 H 347.545 -2.24165 3.15957 0
M  V30 3557 H 347.959 -1.19093 5.108 0
M  V30 3558 H 349.433 -2.85722 4.72299 0
M  V30 3559 H 349.91 -3.15692 3.05344 0
M  V30 3560 H 350.516 -1.7111 3.8936 0
M  V30 3561 N 348.832 -1.54138 -0.328536 0
M  V30 3562 C 350.109 -1.62749 -1.08499 0
M  V30 3563 C 350.489 -0.458198 -2.06067 0
M  V30 3564 O 349.837 0.548046 -2.2183 0
M  V30 3565 C 350.047 -2.99519 -1.79135 0
M  V30 3566 C 351.395 -3.55394 -2.32337 0
M  V30 3567 O 352.419 -3.01792 -1.89209 0
M  V30 3568 O 351.278 -4.49186 -3.11279 0
M  V30 3569 H 348.372 -0.65886 -0.499832 0
M  V30 3570 H 350.918 -1.66484 -0.328826 0
M  V30 3571 H 349.69 -3.76061 -1.08139 0
M  V30 3572 H 349.313 -2.99441 -2.61574 0
M  V30 3573 N 350.31 0.590341 -1.46126 0
M  V30 3574 C 351.258 1.72105 -1.5647 0
M  V30 3575 C 352.252 1.63756 -0.433612 0
M  V30 3576 O 353.458 1.69342 -0.610194 0
M  V30 3577 H 349.833 0.568889 -0.491802 0
M  V30 3578 H 351.804 1.6051 -2.51553 0
M  V30 3579 C 350.553 3.10493 -1.56491 0
M  V30 3580 H 349.876 3.17583 -2.4286 0
M  V30 3581 H 351.316 3.8939 -1.67785 0
M  V30 3582 C 349.775 3.3563 -0.292231 0
M  V30 3583 O 350.305 3.96875 0.620739 0
M  V30 3584 N 348.511 2.90026 -0.182523 0
M  V30 3585 H 348.058 2.40367 -0.926356 0
M  V30 3586 H 348.016 3.07218 0.668152 0
M  V30 3587 N 351.788 1.33704 0.83433 0
M  V30 3588 C 353.013 1.28615 1.62705 0
M  V30 3589 C 353.438 -0.139242 1.87584 0
M  V30 3590 O 352.796 -1.09734 1.4432 0
M  V30 3591 C 352.844 2.07139 2.95171 0
M  V30 3592 O 351.948 1.4331 3.86699 0
M  V30 3593 H 351.289 0.44226 0.49528 0
M  V30 3594 H 353.819 1.76335 1.03766 0
M  V30 3595 H 353.829 2.18073 3.44831 0
M  V30 3596 H 352.504 3.10779 2.76386 0
M  V30 3597 H 351.081 1.4105 3.45195 0
M  V30 3598 N 353.266 -1.05314 1.17247 0
M  V30 3599 C 354.543 -1.75184 0.87005 0
M  V30 3600 C 354.923 -2.01481 -0.629965 0
M  V30 3601 O 354.271 -1.64988 -1.58086 0
M  V30 3602 C 354.481 -3.04594 1.70363 0
M  V30 3603 C 355.829 -3.78567 1.92281 0
M  V30 3604 O 356.853 -3.14461 1.67311 0
M  V30 3605 O 355.712 -4.93755 2.3424 0
M  V30 3606 H 352.806 -0.761729 0.322021 0
M  V30 3607 H 355.352 -1.11493 1.27935 0
M  V30 3608 H 354.124 -2.81201 2.72106 0
M  V30 3609 H 353.747 -3.76022 1.29202 0
M  V30 3610 N 354.744 -0.972509 -1.24016 0
M  V30 3611 C 355.99 -0.637978 -1.92504 0
M  V30 3612 C 356.323 0.825383 -1.75787 0
M  V30 3613 O 355.598 1.59442 -1.11393 0
M  V30 3614 C 355.881 -1.01942 -3.45369 0
M  V30 3615 C 355.734 -2.53983 -3.71231 0
M  V30 3616 C 357.053 -0.55751 -4.36555 0
M  V30 3617 H 354.172 -0.233248 -0.699117 0
M  V30 3618 H 356.814 -1.21238 -1.46292 0
M  V30 3619 H 354.964 -0.530656 -3.84859 0
M  V30 3620 H 356.636 -3.10374 -3.41271 0
M  V30 3621 H 354.879 -2.96968 -3.16216 0
M  V30 3622 H 355.55 -2.75723 -4.78206 0
M  V30 3623 H 358.026 -0.977029 -4.04467 0
M  V30 3624 H 356.902 -0.85292 -5.42233 0
M  V30 3625 H 357.163 0.542328 -4.38761 0
M  V30 3626 N 356.222 1.38976 -0.743202 0
M  V30 3627 C 357.155 2.28128 -0.0572165 0
M  V30 3628 C 358.133 1.44827 0.739182 0
M  V30 3629 O 359.317 1.74207 0.720009 0
M  V30 3630 C 356.444 3.25796 0.926001 0
M  V30 3631 C 355.49 4.25947 0.217099 0
M  V30 3632 S 356.323 5.24604 -1.07477 0
M  V30 3633 C 357.479 6.25829 -0.0943545 0
M  V30 3634 H 357.712 2.85961 -0.813246 0
M  V30 3635 H 355.245 1.44822 -0.535341 0
M  V30 3636 H 357.203 3.82583 1.48797 0
M  V30 3637 H 355.864 2.66966 1.65493 0
M  V30 3638 H 355.057 4.94746 0.961372 0
M  V30 3639 H 354.659 3.73002 -0.273059 0
M  V30 3640 H 356.951 6.73411 0.743239 0
M  V30 3641 H 357.894 7.0412 -0.749713 0
M  V30 3642 H 358.302 5.63797 0.281706 0
M  V30 3643 N 357.7 0.491464 1.49741 0
M  V30 3644 C 358.977 -0.118984 1.95238 0
M  V30 3645 C 359.357 -1.55044 1.43264 0
M  V30 3646 O 358.705 -2.19287 0.642287 0
M  V30 3647 C 358.915 -0.0414187 3.48975 0
M  V30 3648 C 360.263 -0.220133 4.24029 0
M  V30 3649 O 361.287 -0.117055 3.56008 0
M  V30 3650 O 360.146 -0.430567 5.44801 0
M  V30 3651 H 357.24 -0.100536 0.820866 0
M  V30 3652 H 359.786 0.553322 1.60426 0
M  V30 3653 H 358.558 0.957214 3.79412 0
M  V30 3654 H 358.181 -0.754292 3.9038 0
M  V30 3655 N 359.178 -1.55987 0.224894 0
M  V30 3656 C 360.11 -2.17722 -0.716224 0
M  V30 3657 C 361.123 -1.14723 -1.15509 0
M  V30 3658 O 362.312 -1.41688 -1.08567 0
M  V30 3659 C 359.412 -2.74873 -1.98238 0
M  V30 3660 C 358.585 -4.03074 -1.69853 0
M  V30 3661 C 357.644 -4.44757 -2.81208 0
M  V30 3662 O 356.67 -5.11587 -2.49534 0
M  V30 3663 N 357.872 -4.10716 -4.10235 0
M  V30 3664 H 360.637 -2.99109 -0.188123 0
M  V30 3665 H 358.198 -1.6184 0.0440123 0
M  V30 3666 H 360.19 -2.99727 -2.7193 0
M  V30 3667 H 358.76 -1.9777 -2.42086 0
M  V30 3668 H 357.98 -3.86041 -0.797875 0
M  V30 3669 H 359.268 -4.86701 -1.48324 0
M  V30 3670 H 358.666 -3.57019 -4.38809 0
M  V30 3671 H 357.223 -4.40455 -4.80461 0
M  V30 3672 N 360.656 0.0484629 -1.57525 0
M  V30 3673 C 361.604 1.07359 -2.06341 0
M  V30 3674 C 362.598 1.3865 -0.973269 0
M  V30 3675 O 363.804 1.37783 -1.15827 0
M  V30 3676 H 360.179 0.363662 -0.65822 0
M  V30 3677 H 362.15 0.635916 -2.91545 0
M  V30 3678 C 360.899 2.37198 -2.54229 0
M  V30 3679 H 360.222 2.13977 -3.37719 0
M  V30 3680 H 361.662 3.07319 -2.92115 0
M  V30 3681 C 360.121 3.04805 -1.43511 0
M  V30 3682 O 360.651 3.93848 -0.79034 0
M  V30 3683 N 358.857 2.65811 -1.17444 0
M  V30 3684 H 358.404 1.93488 -1.70059 0
M  V30 3685 H 358.362 3.11366 -0.435737 0
M  V30 3686 N 362.134 1.5431 0.320358 0
M  V30 3687 C 363.411 1.63322 1.07635 0
M  V30 3688 C 363.791 0.46912 2.05821 0
M  V30 3689 O 363.139 -0.536274 2.22118 0
M  V30 3690 C 363.349 3.00465 1.77544 0
M  V30 3691 C 364.697 3.56621 2.30449 0
M  V30 3692 O 365.721 3.02791 1.87606 0
M  V30 3693 O 364.58 4.5083 3.08892 0
M  V30 3694 H 361.674 0.661502 0.496331 0
M  V30 3695 H 364.22 1.66656 0.319992 0
M  V30 3696 H 362.992 3.76629 1.06143 0
M  V30 3697 H 362.615 3.00824 2.59982 0
M  V30 3698 N 363.613 -0.582584 1.46437 0
M  V30 3699 C 365.024 -1.1647 1.45916 0
M  V30 3700 C 365.375 -1.95177 0.200077 0
M  V30 3701 O 364.5 -2.04874 -0.696819 0
M  V30 3702 C 365.095 -2.11885 2.64367 0
M  V30 3703 C 363.654 -2.65421 2.66887 0
M  V30 3704 C 362.801 -1.41294 2.38603 0
M  V30 3705 H 365.752 -0.370514 1.54314 0
M  V30 3706 H 365.773 -2.9535 2.39892 0
M  V30 3707 H 365.285 -1.54573 3.5599 0
M  V30 3708 H 363.386 -3.26602 1.79338 0
M  V30 3709 H 363.499 -3.08147 3.66854 0
M  V30 3710 H 361.863 -1.71109 1.88663 0
M  V30 3711 H 362.646 -0.858125 3.32402 0
M  V30 3712 N 365.091 -1.34144 -0.827227 0
M  V30 3713 C 366.054 -1.25264 -1.91942 0
M  V30 3714 C 367.054 -0.168866 -1.59911 0
M  V30 3715 O 368.244 -0.421198 -1.69031 0
M  V30 3716 C 365.376 -0.932952 -3.27885 0
M  V30 3717 H 366.569 -2.22357 -2.0124 0
M  V30 3718 H 364.122 -1.1837 -1.0207 0
M  V30 3719 H 364.857 0.0349917 -3.24281 0
M  V30 3720 H 364.642 -1.71682 -3.52516 0
M  V30 3721 H 366.132 -0.895874 -4.07877 0
M  V30 3722 N 366.569 1.04691 -1.17803 0
M  V30 3723 C 367.501 2.12571 -0.857097 0
M  V30 3724 C 368.514 1.62174 0.142647 0
M  V30 3725 O 369.703 1.78301 -0.0843387 0
M  V30 3726 C 366.803 3.37915 -0.258216 0
M  V30 3727 C 365.976 4.1757 -1.30207 0
M  V30 3728 C 365.035 5.2125 -0.720029 0
M  V30 3729 O 364.061 5.51888 -1.39314 0
M  V30 3730 N 365.263 5.78466 0.485507 0
M  V30 3731 H 368.028 2.40698 -1.78562 0
M  V30 3732 H 365.589 1.20831 -1.07757 0
M  V30 3733 H 367.581 4.04442 0.144584 0
M  V30 3734 H 366.151 3.07281 0.574199 0
M  V30 3735 H 365.371 3.46458 -1.88043 0
M  V30 3736 H 366.659 4.67586 -2.00601 0
M  V30 3737 H 366.057 5.55866 1.05022 0
M  V30 3738 H 364.614 6.4649 0.830307 0
M  V30 3739 N 368.047 0.979072 1.23499 0
M  V30 3740 C 368.979 0.476271 2.24197 0
M  V30 3741 C 369.992 -0.421166 1.57258 0
M  V30 3742 O 371.181 -0.225515 1.7707 0
M  V30 3743 C 368.281 -0.330503 3.37285 0
M  V30 3744 C 367.454 0.559744 4.33804 0
M  V30 3745 C 366.513 -0.192954 5.25846 0
M  V30 3746 O 365.539 0.416978 5.67671 0
M  V30 3747 N 366.741 -1.47932 5.61334 0
M  V30 3748 H 369.506 1.34211 2.67969 0
M  V30 3749 H 367.067 0.852189 1.37657 0
M  V30 3750 H 369.059 -0.842361 3.95836 0
M  V30 3751 H 367.629 -1.09734 2.92707 0
M  V30 3752 H 366.849 1.25245 3.73775 0
M  V30 3753 H 368.137 1.1665 4.95248 0
M  V30 3754 H 367.535 -1.9964 5.29302 0
M  V30 3755 H 366.092 -1.93664 6.22364 0
M  V30 3756 N 369.525 -1.3858 0.750561 0
M  V30 3757 C 370.771 -2.0095 0.31477 0
M  V30 3758 C 371.126 -1.58509 -1.09053 0
M  V30 3759 O 370.419 -0.8112 -1.7358 0
M  V30 3760 C 370.613 -3.55455 0.372373 0
M  V30 3761 C 370.442 -4.12898 1.78173 0
M  V30 3762 C 369.212 -4.44797 2.39757 0
M  V30 3763 C 371.41 -4.35366 2.7379 0
M  V30 3764 N 369.392 -4.87831 3.72685 0
M  V30 3765 C 370.763 -4.80775 3.91478 0
M  V30 3766 C 372.818 -4.1746 2.71351 0
M  V30 3767 C 371.521 -5.10155 5.07084 0
M  V30 3768 C 373.547 -4.47963 3.86113 0
M  V30 3769 C 372.909 -4.93593 5.02539 0
M  V30 3770 H 369.008 -0.765083 0.161776 0
M  V30 3771 H 371.592 -1.68246 0.979867 0
M  V30 3772 H 369.763 -3.87512 -0.26244 0
M  V30 3773 H 371.495 -4.04614 -0.0834479 0
M  V30 3774 H 368.25 -4.33135 1.91548 0
M  V30 3775 H 368.674 -5.13685 4.40972 0
M  V30 3776 H 373.316 -3.81372 1.82524 0
M  V30 3777 H 371.034 -5.45141 5.96529 0
M  V30 3778 H 374.62 -4.35717 3.85542 0
M  V30 3779 H 373.5 -5.16746 5.89867 0
M  V30 3780 N 371.003 -0.499398 -1.49478 0
M  V30 3781 C 372.419 -0.155261 -1.58843 0
M  V30 3782 C 372.619 1.34008 -1.50479 0
M  V30 3783 O 371.675 2.11589 -1.37791 0
M  V30 3784 C 372.988 -0.730636 -2.91689 0
M  V30 3785 C 374.536 -0.696599 -3.0515 0
M  V30 3786 C 375.011 -1.25001 -4.40612 0
M  V30 3787 N 376.502 -1.21064 -4.47099 0
M  V30 3788 C 377.237 -1.60905 -5.50361 0
M  V30 3789 N 376.733 -2.08331 -6.60735 0
M  V30 3790 N 378.526 -1.52331 -5.41065 0
M  V30 3791 H 370.677 -1.47162 -1.53158 0
M  V30 3792 H 372.94 -0.610309 -0.725415 0
M  V30 3793 H 372.646 -1.77928 -3.03372 0
M  V30 3794 H 372.52 -0.190161 -3.7672 0
M  V30 3795 H 374.907 0.343204 -2.93097 0
M  V30 3796 H 374.988 -1.2742 -2.21806 0
M  V30 3797 H 374.632 -2.28859 -4.53416 0
M  V30 3798 H 374.562 -0.64836 -5.22593 0
M  V30 3799 H 377.053 -0.863128 -3.67911 0
M  V30 3800 H 377.366 -2.36805 -7.35624 0
M  V30 3801 H 375.711 -2.12304 -6.6178 0
M  V30 3802 H 378.902 -1.151 -4.53729 0
M  V30 3803 H 379.075 -1.83704 -6.21415 0
M  V30 3804 N 372.481 1.55866 -0.233164 0
M  V30 3805 C 373.411 2.23783 0.666599 0
M  V30 3806 C 374.392 1.21343 1.19205 0
M  V30 3807 O 375.577 1.4996 1.23392 0
M  V30 3808 C 372.707 2.92671 1.86978 0
M  V30 3809 C 371.661 4.01682 1.47768 0
M  V30 3810 C 370.987 4.57926 2.76058 0
M  V30 3811 C 372.287 5.18126 0.658993 0
M  V30 3812 H 373.981 2.99232 0.100306 0
M  V30 3813 H 371.527 1.43924 0.046804 0
M  V30 3814 H 373.48 3.3888 2.50476 0
M  V30 3815 H 372.204 2.14688 2.46123 0
M  V30 3816 H 370.863 3.56222 0.866106 0
M  V30 3817 H 370.511 3.76659 3.33372 0
M  V30 3818 H 370.211 5.31505 2.50552 0
M  V30 3819 H 371.735 5.06859 3.40479 0
M  V30 3820 H 373.149 5.60644 1.19795 0
M  V30 3821 H 371.546 5.98009 0.500552 0
M  V30 3822 H 372.616 4.83763 -0.331856 0
M  V30 3823 N 373.959 -0.0401083 1.57549 0
M  V30 3824 C 375.375 -0.395556 1.54621 0
M  V30 3825 C 375.575 -1.77281 0.957799 0
M  V30 3826 O 374.631 -2.45888 0.574031 0
M  V30 3827 C 375.944 -0.307535 2.99123 0
M  V30 3828 C 377.492 -0.385425 3.10618 0
M  V30 3829 C 377.967 -0.326973 4.56831 0
M  V30 3830 N 379.458 -0.386102 4.61588 0
M  V30 3831 C 380.193 -0.363591 5.72246 0
M  V30 3832 N 379.689 -0.29402 6.92176 0
M  V30 3833 N 381.482 -0.412503 5.60584 0
M  V30 3834 H 373.633 0.861325 1.94152 0
M  V30 3835 H 375.896 0.326445 0.890021 0
M  V30 3836 H 375.602 0.638461 3.45856 0
M  V30 3837 H 375.476 -1.10552 3.60636 0
M  V30 3838 H 377.863 -1.32185 2.63839 0
M  V30 3839 H 377.944 0.44171 2.51957 0
M  V30 3840 H 377.588 0.605738 5.04275 0
M  V30 3841 H 377.518 -1.17207 5.13391 0
M  V30 3842 H 380.009 -0.442832 3.75296 0
M  V30 3843 H 380.322 -0.28164 7.72287 0
M  V30 3844 H 378.667 -0.260232 6.94513 0
M  V30 3845 H 381.858 -0.464769 4.65787 0
M  V30 3846 H 382.031 -0.391492 6.46816 0
M  V30 3847 N 375.437 -1.54477 -0.31217 0
M  V30 3848 C 376.853 -1.45442 -0.657185 0
M  V30 3849 C 377.053 -0.63653 -1.91182 0
M  V30 3850 O 376.109 -0.139815 -2.52113 0
M  V30 3851 C 377.422 -2.89287 -0.82058 0
M  V30 3852 C 378.97 -2.9926 -0.917188 0
M  V30 3853 C 379.445 -4.44279 -1.11267 0
M  V30 3854 N 380.936 -4.4794 -1.17914 0
M  V30 3855 C 381.671 -5.57318 -1.34848 0
M  V30 3856 N 381.167 -6.76642 -1.48752 0
M  V30 3857 N 382.96 -5.44986 -1.37647 0
M  V30 3858 H 375.111 -2.06129 0.512313 0
M  V30 3859 H 377.374 -0.933088 0.167485 0
M  V30 3860 H 377.08 -3.51687 0.0302604 0
M  V30 3861 H 376.954 -3.36061 -1.71298 0
M  V30 3862 H 379.341 -2.36981 -1.75852 0
M  V30 3863 H 379.422 -2.558 -0.00101257 0
M  V30 3864 H 379.066 -5.07149 -0.27614 0
M  V30 3865 H 378.996 -4.85359 -2.04289 0
M  V30 3866 H 381.487 -3.61969 -1.08567 0
M  V30 3867 H 381.8 -7.55758 -1.61397 0
M  V30 3868 H 380.145 -6.79529 -1.45828 0
M  V30 3869 H 383.336 -4.50715 -1.26388 0
M  V30 3870 H 383.509 -6.3028 -1.50501 0
M  V30 3871 N 376.915 0.57481 -1.46744 0
M  V30 3872 C 377.825 1.711 -1.60505 0
M  V30 3873 C 378.841 1.67008 -0.488307 0
M  V30 3874 O 380.017 1.86774 -0.753495 0
M  V30 3875 C 377.082 3.07608 -1.59932 0
M  V30 3876 C 376.143 3.22904 -2.82898 0
M  V30 3877 C 375.376 4.529 -2.82343 0
M  V30 3878 O 375.599 5.37278 -1.91542 0
M  V30 3879 O 374.533 4.71611 -3.73987 0
M  V30 3880 H 378.359 1.62436 -2.56609 0
M  V30 3881 H 375.944 0.742779 -1.29627 0
M  V30 3882 H 377.826 3.88877 -1.62336 0
M  V30 3883 H 376.501 3.16692 -0.669898 0
M  V30 3884 H 375.408 2.41099 -2.86046 0
M  V30 3885 H 376.741 3.18715 -3.75076 0
M  V30 3886 N 378.394 1.34581 0.820102 0
M  V30 3887 C 379.324 1.29038 1.94606 0
M  V30 3888 C 380.305 0.1673 1.69275 0
M  V30 3889 O 381.49 0.360112 1.90832 0
M  V30 3890 C 378.62 1.04793 3.31113 0
M  V30 3891 C 377.574 2.13597 3.70891 0
M  V30 3892 C 376.9 1.74537 5.05412 0
M  V30 3893 C 378.2 3.55451 3.8269 0
M  V30 3894 H 379.894 2.23248 1.99501 0
M  V30 3895 H 377.44 1.0747 0.958449 0
M  V30 3896 H 379.393 0.995592 4.0947 0
M  V30 3897 H 378.117 0.0702565 3.26524 0
M  V30 3898 H 376.776 2.17905 2.9481 0
M  V30 3899 H 376.424 0.754226 4.97313 0
M  V30 3900 H 376.124 2.47361 5.32997 0
M  V30 3901 H 377.648 1.70803 5.86224 0
M  V30 3902 H 379.062 3.5354 4.51312 0
M  V30 3903 H 377.459 4.26922 4.21732 0
M  V30 3904 H 378.529 3.92587 2.84611 0
M  V30 3905 N 379.872 -1.04064 1.18357 0
M  V30 3906 C 380.835 -2.10243 0.912707 0
M  V30 3907 C 381.835 -1.60477 -0.101928 0
M  V30 3908 O 383.025 -1.73703 0.131517 0
M  V30 3909 C 380.157 -3.38893 0.369387 0
M  V30 3910 H 381.35 -2.35706 1.85426 0
M  V30 3911 H 378.903 -1.20489 0.995594 0
M  V30 3912 H 379.638 -3.19094 -0.578776 0
M  V30 3913 H 379.423 -3.76331 1.1008 0
M  V30 3914 H 380.913 -4.17128 0.198575 0
M  V30 3915 N 381.35 -0.985608 -1.22978 0
M  V30 3916 C 382.598 -0.656087 -1.91154 0
M  V30 3917 C 382.919 0.813561 -1.77218 0
M  V30 3918 O 382.189 1.58244 -1.1548 0
M  V30 3919 H 380.769 -0.239674 -0.707506 0
M  V30 3920 H 383.431 -1.25054 -1.49491 0
M  V30 3921 H 382.527 -0.912253 -2.9847 0
M  V30 3922 N 382.828 1.3818 -0.7579 0
M  V30 3923 C 384.076 1.99624 -0.315361 0
M  V30 3924 C 384.397 1.60464 1.10799 0
M  V30 3925 O 383.667 0.863507 1.75842 0
M  V30 3926 H 382.247 0.73831 -0.113611 0
M  V30 3927 H 384.909 1.68878 -0.972952 0
M  V30 3928 H 384.005 3.09754 -0.381931 0
M  V30 3929 N 384.306 0.507319 1.49211 0
M  V30 3930 C 385.554 -0.0348839 2.0207 0
M  V30 3931 C 385.875 -1.36898 1.38866 0
M  V30 3932 O 385.145 -1.88133 0.546151 0
M  V30 3933 H 383.725 -0.0158812 0.746831 0
M  V30 3934 H 386.387 0.665998 1.83168 0
M  V30 3935 H 385.483 -0.159917 3.1169 0
M  V30 3936 N 385.784 -1.5574 0.241426 0
M  V30 3937 C 387.009 -2.0366 -0.392111 0
M  V30 3938 C 387.434 -1.11969 -1.51144 0
M  V30 3939 O 386.792 -0.111594 -1.80956 0
M  V30 3940 C 386.84 -3.49638 -0.882371 0
M  V30 3941 O 385.944 -3.6108 -1.99235 0
M  V30 3942 H 385.285 -0.658379 -0.0862122 0
M  V30 3943 H 387.815 -2.01302 0.365881 0
M  V30 3944 H 387.825 -3.90351 -1.18702 0
M  V30 3945 H 386.5 -4.15852 -0.0632361 0
M  V30 3946 H 385.077 -3.32262 -1.69282 0
M  V30 3947 N 387.262 0.0317525 -1.57568 0
M  V30 3948 C 388.192 1.03274 -2.0942 0
M  V30 3949 C 389.173 1.3788 -0.996143 0
M  V30 3950 O 390.358 1.46811 -1.27122 0
M  V30 3951 C 387.488 2.33448 -2.57137 0
M  V30 3952 C 386.442 2.13091 -3.71182 0
M  V30 3953 C 385.768 3.49001 -4.05095 0
M  V30 3954 C 387.068 1.51928 -4.99715 0
M  V30 3955 H 388.762 0.60112 -2.93303 0
M  V30 3956 H 386.308 0.287705 -1.41097 0
M  V30 3957 H 388.261 3.03802 -2.92032 0
M  V30 3958 H 386.985 2.78665 -1.70333 0
M  V30 3959 H 385.644 1.45171 -3.36632 0
M  V30 3960 H 385.292 3.91862 -3.15362 0
M  V30 3961 H 384.992 3.36207 -4.81911 0
M  V30 3962 H 386.516 4.20721 -4.42522 0
M  V30 3963 H 387.93 2.12196 -5.32584 0
M  V30 3964 H 386.327 1.49716 -5.81124 0
M  V30 3965 H 387.397 0.484811 -4.8247 0
M  V30 3966 N 388.74 1.54641 0.303973 0
M  V30 3967 C 389.673 1.80263 1.3993 0
M  V30 3968 C 390.651 0.653657 1.48883 0
M  V30 3969 O 391.835 0.893284 1.6599 0
M  V30 3970 C 388.962 1.9367 2.77866 0
M  V30 3971 C 388.008 3.16078 2.86351 0
M  V30 3972 S 388.841 4.74219 2.4875 0
M  V30 3973 C 389.997 4.90558 3.88721 0
M  V30 3974 H 390.23 2.72886 1.17986 0
M  V30 3975 H 387.763 1.46014 0.501918 0
M  V30 3976 H 389.721 2.0208 3.57315 0
M  V30 3977 H 388.382 1.01991 2.9708 0
M  V30 3978 H 387.575 3.22252 3.87517 0
M  V30 3979 H 387.177 3.06099 2.14893 0
M  V30 3980 H 389.469 4.74398 4.83687 0
M  V30 3981 H 390.412 5.92651 3.87518 0
M  V30 3982 H 390.82 4.18728 3.78585 0
M  V30 3983 N 390.218 -0.567019 1.47046 0
M  V30 3984 C 391.495 -1.3276 1.43646 0
M  V30 3985 C 391.875 -2.1071 0.128186 0
M  V30 3986 O 391.223 -2.10441 -0.890326 0
M  V30 3987 C 391.433 -2.2404 2.67595 0
M  V30 3988 C 392.781 -2.85372 3.14401 0
M  V30 3989 O 393.805 -2.34346 2.68254 0
M  V30 3990 O 392.664 -3.78091 3.946 0
M  V30 3991 H 389.758 -0.597293 0.571988 0
M  V30 3992 H 392.304 -0.586735 1.59234 0
M  V30 3993 H 391.076 -1.65975 3.54356 0
M  V30 3994 H 390.699 -3.05439 2.54544 0
M  V30 3995 N 391.696 -1.35014 -0.812953 0
M  V30 3996 C 392.945 -1.27269 -1.56479 0
M  V30 3997 C 393.258 0.152771 -1.95002 0
M  V30 3998 O 394.464 0.352451 -2.69203 0
M  V30 3999 C 392.92 -2.23159 -2.82362 0
M  V30 4000 C 392.528 -3.71016 -2.511 0
M  V30 4001 C 394.272 -2.24342 -3.60376 0
M  V30 4002 C 392.179 -4.58746 -3.73237 0
M  V30 4003 H 391.109 -0.472829 -0.587324 0
M  V30 4004 H 393.76 -1.6024 -0.894171 0
M  V30 4005 H 392.142 -1.83151 -3.51101 0
M  V30 4006 H 393.316 -4.1962 -1.90409 0
M  V30 4007 H 391.631 -3.72378 -1.86343 0
M  V30 4008 H 394.228 -2.87107 -4.51081 0
M  V30 4009 H 394.571 -1.24542 -3.97234 0
M  V30 4010 H 395.104 -2.62846 -2.98591 0
M  V30 4011 H 391.843 -5.59521 -3.41492 0
M  V30 4012 H 391.363 -4.14871 -4.33176 0
M  V30 4013 H 393.042 -4.73852 -4.40537 0
M  V30 4014 N 393.175 1.03435 -1.18907 0
M  V30 4015 C 394.423 1.76394 -0.986382 0
M  V30 4016 C 394.744 1.88883 0.484567 0
M  V30 4017 O 394.014 1.41843 1.3512 0
M  V30 4018 H 392.594 0.65344 -0.361975 0
M  V30 4019 H 395.256 1.248 -1.49703 0
M  V30 4020 H 394.352 2.77424 -1.42978 0
M  V30 4021 N 394.653 0.992116 1.22453 0
M  V30 4022 C 395.902 0.662992 1.90492 0
M  V30 4023 C 396.215 -0.808407 1.78113 0
M  V30 4024 O 397.421 -1.24908 2.41061 0
M  V30 4025 C 395.877 1.1353 3.41524 0
M  V30 4026 C 395.485 2.63187 3.62542 0
M  V30 4027 C 397.229 0.880465 4.15269 0
M  V30 4028 C 395.136 3.04024 5.0727 0
M  V30 4029 H 394.066 0.244278 0.713333 0
M  V30 4030 H 396.717 1.20157 1.38688 0
M  V30 4031 H 395.099 0.52485 3.92506 0
M  V30 4032 H 396.273 3.2957 3.22056 0
M  V30 4033 H 394.588 2.86543 3.02129 0
M  V30 4034 H 397.185 1.16128 5.21937 0
M  V30 4035 H 397.528 -0.183408 4.15896 0
M  V30 4036 H 398.061 1.45307 3.70312 0
M  V30 4037 H 394.8 4.09584 5.11782 0
M  V30 4038 H 394.32 2.42343 5.48662 0
M  V30 4039 H 395.999 2.95282 5.75689 0
M  V30 4040 N 396.131 -1.37776 0.765217 0
M  V30 4041 C 397.361 -2.03828 0.337277 0
M  V30 4042 C 397.769 -1.57841 -1.04321 0
M  V30 4043 O 397.112 -0.752043 -1.67601 0
M  V30 4044 C 397.174 -3.58292 0.294407 0
M  V30 4045 C 396.838 -4.27384 1.61838 0
M  V30 4046 C 397.835 -4.51956 2.56967 0
M  V30 4047 C 395.52 -4.65345 1.89102 0
M  V30 4048 C 397.514 -5.13536 3.77571 0
M  V30 4049 C 395.201 -5.26647 3.09978 0
M  V30 4050 C 396.199 -5.50679 4.04032 0
M  V30 4051 O 395.887 -6.10702 5.2278 0
M  V30 4052 H 395.619 -0.661292 0.140248 0
M  V30 4053 H 398.173 -1.77222 1.03834 0
M  V30 4054 H 396.403 -3.83918 -0.462983 0
M  V30 4055 H 398.092 -4.05763 -0.105581 0
M  V30 4056 H 398.858 -4.23048 2.37183 0
M  V30 4057 H 394.737 -4.45978 1.16725 0
M  V30 4058 H 398.281 -5.3221 4.50997 0
M  V30 4059 H 394.178 -5.54979 3.29649 0
M  V30 4060 H 394.946 -6.29183 5.23517 0
M  V30 4061 N 397.609 -0.515225 -1.4894 0
M  V30 4062 C 398.857 0.0241671 -2.02086 0
M  V30 4063 C 399.178 1.3616 -1.3959 0
M  V30 4064 O 398.448 1.87841 -0.556121 0
M  V30 4065 H 397.028 0.0119203 -0.746905 0
M  V30 4066 H 399.69 -0.675702 -1.82812 0
M  V30 4067 H 398.786 0.143385 -3.1177 0
M  V30 4068 N 399.087 1.5561 -0.249682 0
M  V30 4069 C 400.017 2.24477 0.642826 0
M  V30 4070 C 400.998 1.22601 1.17911 0
M  V30 4071 O 402.183 1.5126 1.21795 0
M  V30 4072 C 399.313 2.94638 1.83863 0
M  V30 4073 C 398.267 4.03227 1.435 0
M  V30 4074 C 397.593 4.60828 2.71186 0
M  V30 4075 C 398.893 5.18796 0.604002 0
M  V30 4076 H 400.587 2.99321 0.0685625 0
M  V30 4077 H 398.133 1.43965 0.0315363 0
M  V30 4078 H 400.086 3.41517 2.46868 0
M  V30 4079 H 398.81 2.17287 2.43832 0
M  V30 4080 H 397.469 3.57121 0.828275 0
M  V30 4081 H 397.117 3.80174 3.29358 0
M  V30 4082 H 396.817 5.34132 2.44901 0
M  V30 4083 H 398.341 5.10442 3.35084 0
M  V30 4084 H 399.755 5.61883 1.13842 0
M  V30 4085 H 398.152 5.98506 0.437097 0
M  V30 4086 H 399.222 4.83384 -0.383147 0
M  V30 4087 N 400.565 -0.0233959 1.57583 0
M  V30 4088 C 401.513 -1.04063 2.08023 0
M  V30 4089 C 402.507 -1.37084 0.995204 0
M  V30 4090 O 403.713 -1.35923 1.18004 0
M  V30 4091 H 400.088 -0.353144 0.663922 0
M  V30 4092 H 402.059 -0.589453 2.9252 0
M  V30 4093 C 400.808 -2.33123 2.57971 0
M  V30 4094 H 400.131 -2.08577 3.4108 0
M  V30 4095 H 401.571 -3.02632 2.96967 0
M  V30 4096 C 400.03 -3.02483 1.48342 0
M  V30 4097 O 400.56 -3.92541 0.852898 0
M  V30 4098 N 398.766 -2.63909 1.21658 0
M  V30 4099 H 398.313 -1.90758 1.73116 0
M  V30 4100 H 398.271 -3.10633 0.485218 0
M  V30 4101 N 402.043 -1.548 -0.295768 0
M  V30 4102 C 403.291 -1.73985 -1.02828 0
M  V30 4103 C 403.612 -0.531406 -1.87619 0
M  V30 4104 O 402.882 0.454221 -1.90561 0
M  V30 4105 H 401.462 -0.641556 -0.382642 0
M  V30 4106 H 404.124 -1.92163 -0.325489 0
M  V30 4107 H 403.22 -2.63129 -1.67838 0
M  V30 4108 N 403.521 0.559213 -1.47345 0
M  V30 4109 C 404.749 1.34194 -1.57479 0
M  V30 4110 C 405.164 1.87463 -0.224261 0
M  V30 4111 O 404.521 1.64888 0.782185 0
M  V30 4112 C 404.572 2.51324 -2.59843 0
M  V30 4113 O 404.293 2.00256 -3.89653 0
M  V30 4114 C 405.794 3.43563 -2.80142 0
M  V30 4115 H 403.014 0.409136 -0.531835 0
M  V30 4116 H 405.558 0.677609 -1.92947 0
M  V30 4117 H 403.713 3.13699 -2.27314 0
M  V30 4118 H 404.127 2.76708 -4.4557 0
M  V30 4119 H 405.601 4.2217 -3.55635 0
M  V30 4120 H 406.078 3.9698 -1.87892 0
M  V30 4121 H 406.684 2.87005 -3.1386 0
M  V30 4122 N 404.999 1.35443 0.805782 0
M  V30 4123 C 406.415 1.15499 1.10146 0
M  V30 4124 C 406.615 -0.0319975 2.01475 0
M  V30 4125 O 405.671 -0.70236 2.42535 0
M  V30 4126 C 406.984 2.45833 1.73166 0
M  V30 4127 C 408.532 2.52047 1.85583 0
M  V30 4128 C 409.007 3.82427 2.52019 0
M  V30 4129 N 410.498 3.83682 2.59504 0
M  V30 4130 C 411.233 4.81294 3.11679 0
M  V30 4131 N 410.729 5.89294 3.64287 0
M  V30 4132 N 412.522 4.6873 3.1024 0
M  V30 4133 H 404.673 2.11469 0.198678 0
M  V30 4134 H 406.936 0.93594 0.150731 0
M  V30 4135 H 406.642 3.32874 1.13526 0
M  V30 4136 H 406.516 2.6044 2.72857 0
M  V30 4137 H 408.903 1.65435 2.44367 0
M  V30 4138 H 408.984 2.41354 0.847455 0
M  V30 4139 H 408.628 4.69437 1.93885 0
M  V30 4140 H 408.558 3.90409 3.53395 0
M  V30 4141 H 411.049 3.05648 2.22234 0
M  V30 4142 H 411.362 6.59768 4.02401 0
M  V30 4143 H 409.707 5.92985 3.62483 0
M  V30 4144 H 412.898 3.83496 2.68419 0
M  V30 4145 H 413.071 5.44965 3.50596 0
M  V30 4146 N 406.477 -1.02803 1.19454 0
M  V30 4147 C 407.707 -1.79581 1.02149 0
M  V30 4148 C 408.115 -1.84182 -0.432851 0
M  V30 4149 O 407.458 -1.28534 -1.31243 0
M  V30 4150 C 407.52 -3.25993 1.51554 0
M  V30 4151 C 407.184 -3.45025 2.99678 0
M  V30 4152 C 408.181 -3.35175 3.97434 0
M  V30 4153 C 405.866 -3.71212 3.38389 0
M  V30 4154 C 407.86 -3.51238 5.31893 0
M  V30 4155 C 405.547 -3.8692 4.73008 0
M  V30 4156 C 406.545 -3.76936 5.69569 0
M  V30 4157 O 406.233 -3.92179 7.01748 0
M  V30 4158 H 405.965 -0.571962 0.360327 0
M  V30 4159 H 408.519 -1.30367 1.58725 0
M  V30 4160 H 406.749 -3.76235 0.893543 0
M  V30 4161 H 408.438 -3.84368 1.30444 0
M  V30 4162 H 409.204 -3.14895 3.68872 0
M  V30 4163 H 405.083 -3.78075 2.6378 0
M  V30 4164 H 408.627 -3.43362 6.07247 0
M  V30 4165 H 404.524 -4.06699 5.01265 0
M  V30 4166 H 405.292 -4.09265 7.08833 0
M  V30 4167 N 407.956 -0.998596 -1.21925 0
M  V30 4168 C 408.886 -0.573688 -2.26343 0
M  V30 4169 C 409.867 0.402296 -1.65274 0
M  V30 4170 O 411.052 0.291683 -1.91997 0
M  V30 4171 C 408.182 0.106839 -3.47136 0
M  V30 4172 C 407.136 -0.788269 -4.20678 0
M  V30 4173 C 406.462 0.0254927 -5.34694 0
M  V30 4174 C 407.762 -2.08784 -4.78755 0
M  V30 4175 H 409.456 -1.44651 -2.62138 0
M  V30 4176 H 407.002 -0.696975 -1.26009 0
M  V30 4177 H 408.955 0.415531 -4.19346 0
M  V30 4178 H 407.679 1.01424 -3.10452 0
M  V30 4179 H 406.338 -1.08069 -3.50309 0
M  V30 4180 H 405.986 0.933989 -4.94253 0
M  V30 4181 H 405.686 -0.570437 -5.84825 0
M  V30 4182 H 407.21 0.328147 -6.09718 0
M  V30 4183 H 408.624 -1.84272 -5.42878 0
M  V30 4184 H 407.021 -2.63307 -5.39249 0
M  V30 4185 H 408.091 -2.76284 -3.98491 0
M  V30 4186 N 409.434 1.37368 -0.772513 0
M  V30 4187 C 410.364 2.32856 -0.173304 0
M  V30 4188 C 411.345 1.55818 0.682262 0
M  V30 4189 O 412.53 1.84052 0.619566 0
M  V30 4190 C 409.66 3.40048 0.706007 0
M  V30 4191 C 408.614 4.27973 -0.0483144 0
M  V30 4192 C 407.94 5.26184 0.950491 0
M  V30 4193 C 409.24 5.07665 -1.22776 0
M  V30 4194 H 410.934 2.83217 -0.971002 0
M  V30 4195 H 408.48 1.3617 -0.468377 0
M  V30 4196 H 410.433 4.05827 1.13501 0
M  V30 4197 H 409.157 2.88214 1.53623 0
M  V30 4198 H 407.816 3.63726 -0.458107 0
M  V30 4199 H 407.464 4.7063 1.77529 0
M  V30 4200 H 407.164 5.85872 0.450314 0
M  V30 4201 H 408.688 5.94838 1.37842 0
M  V30 4202 H 410.102 5.66578 -0.875366 0
M  V30 4203 H 408.499 5.76681 -1.66007 0
M  V30 4204 H 409.569 4.40294 -2.03149 0
M  V30 4205 N 410.912 0.523116 1.48665 0
M  V30 4206 C 412.16 -0.0134497 2.02096 0
M  V30 4207 C 412.481 -1.35418 1.40311 0
M  V30 4208 O 411.751 -1.87543 0.566074 0
M  V30 4209 H 410.331 -0.00795915 0.746958 0
M  V30 4210 H 412.993 0.685388 1.82451 0
M  V30 4211 H 412.089 -0.126849 3.11842 0
M  V30 4212 N 412.39 -1.55475 0.257931 0
M  V30 4213 C 413.3 -2.2549 -0.647425 0
M  V30 4214 C 414.316 -1.2748 -1.18427 0
M  V30 4215 O 415.492 -1.6038 -1.2182 0
M  V30 4216 C 412.557 -2.94916 -1.82278 0
M  V30 4217 C 411.618 -4.08363 -1.32432 0
M  V30 4218 C 410.851 -4.74469 -2.44366 0
M  V30 4219 O 411.074 -4.39701 -3.63344 0
M  V30 4220 O 410.008 -5.62763 -2.13497 0
M  V30 4221 H 413.834 -3.03593 -0.0807707 0
M  V30 4222 H 411.419 -1.49377 0.0259962 0
M  V30 4223 H 413.301 -3.38606 -2.50846 0
M  V30 4224 H 411.976 -2.19744 -2.37685 0
M  V30 4225 H 410.883 -3.69166 -0.605605 0
M  V30 4226 H 412.216 -4.85385 -0.816211 0
M  V30 4227 N 413.868 0.0150385 -1.57593 0
M  V30 4228 C 414.778 1.02791 -2.10882 0
M  V30 4229 C 415.794 1.38702 -1.0506 0
M  V30 4230 O 416.97 1.47739 -1.36877 0
M  V30 4231 C 414.035 2.30568 -2.58919 0
M  V30 4232 C 413.096 2.01108 -3.79281 0
M  V30 4233 C 412.329 3.22794 -4.25018 0
M  V30 4234 O 412.552 4.33959 -3.70183 0
M  V30 4235 O 411.486 3.07672 -5.17322 0
M  V30 4236 H 415.312 0.604973 -2.97613 0
M  V30 4237 H 412.897 0.23292 -1.47573 0
M  V30 4238 H 414.779 3.05662 -2.90084 0
M  V30 4239 H 413.454 2.72129 -1.75293 0
M  V30 4240 H 412.361 1.23537 -3.53114 0
M  V30 4241 H 413.694 1.64394 -4.63935 0
M  V30 4242 N 415.346 1.54954 0.287554 0
M  V30 4243 C 416.757 1.65732 0.859634 0
M  V30 4244 C 417.108 0.574767 1.87592 0
M  V30 4245 O 416.233 -0.286299 2.14498 0
M  V30 4246 C 416.828 3.00438 1.56597 0
M  V30 4247 C 415.387 3.13292 2.08627 0
M  V30 4248 C 414.534 2.61473 0.923416 0
M  V30 4249 H 417.485 1.5857 0.0642338 0
M  V30 4250 H 417.506 2.92613 2.43224 0
M  V30 4251 H 417.018 3.79207 0.826053 0
M  V30 4252 H 415.119 2.39268 2.85625 0
M  V30 4253 H 415.232 4.19647 2.31157 0
M  V30 4254 H 413.596 2.18264 1.31275 0
M  V30 4255 H 414.379 3.42733 0.197241 0
M  V30 4256 N 416.824 -0.551391 1.4764 0
M  V30 4257 C 418.073 -1.30467 1.53822 0
M  V30 4258 C 418.386 -1.94495 0.207661 0
M  V30 4259 O 419.592 -2.71099 0.147533 0
M  V30 4260 C 418.048 -2.36616 2.71184 0
M  V30 4261 C 417.656 -1.78754 4.10793 0
M  V30 4262 C 419.4 -3.13088 2.86663 0
M  V30 4263 C 417.307 -2.82717 5.19447 0
M  V30 4264 H 416.237 -0.490584 0.572576 0
M  V30 4265 H 418.888 -0.58494 1.73927 0
M  V30 4266 H 417.27 -3.11529 2.4447 0
M  V30 4267 H 418.444 -1.10173 4.47435 0
M  V30 4268 H 416.759 -1.14846 4.00249 0
M  V30 4269 H 419.356 -3.90736 3.65007 0
M  V30 4270 H 419.699 -3.67635 1.95321 0
M  V30 4271 H 420.232 -2.45288 3.13175 0
M  V30 4272 H 416.971 -2.33018 6.12685 0
M  V30 4273 H 416.491 -3.4969 4.87316 0
M  V30 4274 H 418.17 -3.46102 5.46646 0
M  V30 4275 N 418.302 -1.35869 -0.798587 0
M  V30 4276 C 419.212 -1.31578 -1.94228 0
M  V30 4277 C 420.228 -0.21939 -1.72611 0
M  V30 4278 O 421.404 -0.450167 -1.96305 0
M  V30 4279 C 418.469 -1.09528 -3.28944 0
M  V30 4280 C 417.53 -2.28556 -3.63402 0
M  V30 4281 C 416.763 -2.07549 -4.9169 0
M  V30 4282 O 416.986 -1.046 -5.60727 0
M  V30 4283 O 415.92 -2.95106 -5.24591 0
M  V30 4284 H 419.746 -2.27847 -2.00796 0
M  V30 4285 H 417.331 -1.16322 -0.937526 0
M  V30 4286 H 419.213 -0.991127 -4.09579 0
M  V30 4287 H 417.888 -0.16315 -3.23289 0
M  V30 4288 H 416.795 -2.44538 -2.83112 0
M  V30 4289 H 418.128 -3.20244 -3.73771 0
M  V30 4290 N 419.78 1.02168 -1.19998 0
M  V30 4291 C 421.026 1.75945 -1.00852 0
M  V30 4292 C 421.359 1.88702 0.458828 0
M  V30 4293 O 420.634 1.40911 1.34069 0
M  V30 4294 C 420.917 3.18154 -1.68671 0
M  V30 4295 C 420.77 3.13224 -3.22817 0
M  V30 4296 C 422.089 4.16711 -1.41561 0
M  V30 4297 H 419.208 0.638673 -0.367785 0
M  V30 4298 H 421.85 1.19222 -1.4794 0
M  V30 4299 H 420 3.66586 -1.28636 0
M  V30 4300 H 421.672 2.72635 -3.72112 0
M  V30 4301 H 419.915 2.50751 -3.53986 0
M  V30 4302 H 420.586 4.13728 -3.65422 0
M  V30 4303 H 423.062 3.76913 -1.76284 0
M  V30 4304 H 421.938 5.14391 -1.91553 0
M  V30 4305 H 422.199 4.40774 -0.342193 0
M  V30 4306 N 421.258 1.00505 1.21394 0
M  V30 4307 C 422.674 0.717873 1.42544 0
M  V30 4308 C 422.874 -0.706936 1.88692 0
M  V30 4309 O 421.93 -1.47627 2.04847 0
M  V30 4310 C 423.243 1.73377 2.45684 0
M  V30 4311 C 424.791 1.75059 2.59467 0
M  V30 4312 C 425.266 2.75545 3.6584 0
M  V30 4313 N 426.757 2.74213 3.73311 0
M  V30 4314 C 427.492 3.48626 4.55245 0
M  V30 4315 N 426.988 4.32678 5.41075 0
M  V30 4316 N 428.781 3.37276 4.49668 0
M  V30 4317 H 420.932 1.92506 0.897503 0
M  V30 4318 H 423.195 0.830919 0.456375 0
M  V30 4319 H 422.901 2.75395 2.18748 0
M  V30 4320 H 422.775 1.53647 3.44489 0
M  V30 4321 H 425.162 0.737337 2.8574 0
M  V30 4322 H 425.243 1.98861 1.60897 0
M  V30 4323 H 424.887 3.77028 3.40313 0
M  V30 4324 H 424.817 2.49009 4.64007 0
M  V30 4325 H 427.308 2.13234 3.11993 0
M  V30 4326 H 427.621 4.86253 6.00648 0
M  V30 4327 H 425.966 4.3676 5.40616 0
M  V30 4328 H 429.157 2.71043 3.81646 0
M  V30 4329 H 429.33 3.95524 5.13288 0
M  V30 4330 N 422.737 -1.36956 0.779787 0
M  V30 4331 C 423.7 -2.2851 0.177662 0
M  V30 4332 C 424.7 -1.48393 -0.619377 0
M  V30 4333 O 425.89 -1.68505 -0.441785 0
M  V30 4334 C 423.022 -3.32428 -0.755279 0
M  V30 4335 H 424.215 -2.83269 0.984823 0
M  V30 4336 H 421.768 -1.46358 0.548544 0
M  V30 4337 H 422.503 -2.82808 -1.58714 0
M  V30 4338 H 422.288 -3.91659 -0.185817 0
M  V30 4339 H 423.778 -4.00824 -1.17174 0
M  V30 4340 N 424.215 -0.530993 -1.48385 0
M  V30 4341 C 425.445 -0.00133928 -2.066 0
M  V30 4342 C 425.853 1.28599 -1.38777 0
M  V30 4343 O 425.196 1.77599 -0.469495 0
M  V30 4344 C 425.258 0.292137 -3.58311 0
M  V30 4345 C 424.922 -0.901864 -4.48013 0
M  V30 4346 C 425.919 -1.80053 -4.87726 0
M  V30 4347 C 423.604 -1.10915 -4.89901 0
M  V30 4348 C 425.598 -2.89038 -5.68098 0
M  V30 4349 C 423.285 -2.20213 -5.70043 0
M  V30 4350 C 424.283 -3.09107 -6.0905 0
M  V30 4351 O 423.971 -4.16514 -6.87583 0
M  V30 4352 H 423.703 -0.0308475 -0.675296 0
M  V30 4353 H 426.257 -0.736335 -1.91748 0
M  V30 4354 H 424.487 1.08112 -3.7128 0
M  V30 4355 H 426.176 0.763994 -3.98645 0
M  V30 4356 H 426.942 -1.65234 -4.55986 0
M  V30 4357 H 422.821 -0.426498 -4.59023 0
M  V30 4358 H 426.365 -3.58451 -5.98464 0
M  V30 4359 H 422.262 -2.35016 -6.01197 0
M  V30 4360 H 423.03 -4.14237 -7.05939 0
M  V30 4361 N 425.693 1.55336 -0.266172 0
M  V30 4362 C 426.921 2.03801 0.356756 0
M  V30 4363 C 427.336 1.14485 1.50129 0
M  V30 4364 O 426.693 0.163121 1.8177 0
M  V30 4365 C 426.744 3.51455 0.846281 0
M  V30 4366 O 426.465 4.37371 -0.252663 0
M  V30 4367 C 427.966 4.15767 1.53794 0
M  V30 4368 H 425.186 0.665906 0.0825218 0
M  V30 4369 H 427.73 2.00636 -0.39566 0
M  V30 4370 H 425.885 3.55092 1.54881 0
M  V30 4371 H 426.299 5.24358 0.122173 0
M  V30 4372 H 427.773 5.20714 1.83198 0
M  V30 4373 H 428.25 3.63404 2.46646 0
M  V30 4374 H 428.856 4.16107 0.879488 0
M  V30 4375 N 427.171 -0.0066808 1.57599 0
M  V30 4376 C 428.401 -0.703066 1.94269 0
M  V30 4377 C 428.809 -1.68206 0.866222 0
M  V30 4378 O 428.152 -1.82966 -0.164087 0
M  V30 4379 C 428.214 -1.49616 3.26887 0
M  V30 4380 C 427.878 -0.679494 4.5192 0
M  V30 4381 C 428.875 0.0299508 5.19891 0
M  V30 4382 C 426.56 -0.627433 4.98366 0
M  V30 4383 C 428.554 0.780514 6.32603 0
M  V30 4384 C 426.241 0.126861 6.10968 0
M  V30 4385 C 427.239 0.829574 6.77943 0
M  V30 4386 O 426.927 1.57157 7.88389 0
M  V30 4387 H 426.659 -0.201217 0.645359 0
M  V30 4388 H 429.213 0.0385326 2.05364 0
M  V30 4389 H 427.443 -2.28209 3.12182 0
M  V30 4390 H 429.132 -2.07726 3.48719 0
M  V30 4391 H 429.898 -0.00115963 4.85 0
M  V30 4392 H 425.777 -1.16392 4.46065 0
M  V30 4393 H 429.321 1.32954 6.84813 0
M  V30 4394 H 425.218 0.159815 6.45302 0
M  V30 4395 H 425.986 1.48758 8.04868 0
M  V30 4396 N 428.649 -1.55105 -0.279332 0
M  V30 4397 C 429.874 -1.7976 -1.03446 0
M  V30 4398 C 430.299 -0.565952 -1.79384 0
M  V30 4399 O 429.657 0.484259 -1.74713 0
M  V30 4400 C 429.705 -3.0179 -1.97371 0
M  V30 4401 O 428.809 -2.76432 -3.06038 0
M  V30 4402 H 428.15 -0.594334 -0.29608 0
M  V30 4403 H 430.68 -2.02235 -0.310165 0
M  V30 4404 H 430.69 -3.30351 -2.39441 0
M  V30 4405 H 429.365 -3.91085 -1.4151 0
M  V30 4406 H 427.942 -2.58949 -2.68328 0
M  V30 4407 N 430.127 0.543554 -1.4793 0
M  V30 4408 C 431.404 1.30458 -1.4574 0
M  V30 4409 C 431.784 2.1048 -0.161692 0
M  V30 4410 O 431.132 2.11831 0.856734 0
M  V30 4411 C 431.342 2.19754 -2.71126 0
M  V30 4412 C 432.69 2.80334 -3.18901 0
M  V30 4413 O 433.714 2.30049 -2.71948 0
M  V30 4414 O 432.573 3.71766 -4.00565 0
M  V30 4415 H 429.667 0.588117 -0.581418 0
M  V30 4416 H 432.213 0.561328 -1.60147 0
M  V30 4417 H 430.985 1.60316 -3.56952 0
M  V30 4418 H 430.608 3.01351 -2.59371 0
M  V30 4419 N 431.605 1.3629 0.791371 0
M  V30 4420 C 433.016 1.27225 1.36641 0
M  V30 4421 C 433.367 -0.0887968 1.95999 0
M  V30 4422 O 432.492 -0.990207 1.92416 0
M  V30 4423 C 433.087 2.30375 2.48421 0
M  V30 4424 C 431.646 2.25004 3.01746 0
M  V30 4425 C 430.793 2.15259 1.7481 0
M  V30 4426 H 433.744 1.47198 0.593173 0
M  V30 4427 H 433.765 1.93905 3.27385 0
M  V30 4428 H 433.277 3.29422 2.05189 0
M  V30 4429 H 431.378 1.29417 3.49403 0
M  V30 4430 H 431.491 3.1761 3.58693 0
M  V30 4431 H 429.855 1.61482 1.96966 0
M  V30 4432 H 430.638 3.16191 1.33709 0
M  V30 4433 N 433.083 -1.0153 1.20538 0
M  V30 4434 C 434.031 -2.12215 0.952235 0
M  V30 4435 C 435.025 -1.69123 -0.0968735 0
M  V30 4436 O 436.231 -1.7992 0.0536006 0
M  V30 4437 H 432.606 -0.693576 0.290613 0
M  V30 4438 H 434.577 -2.3075 1.89201 0
M  V30 4439 C 433.326 -3.43755 0.522287 0
M  V30 4440 H 432.649 -3.7734 1.32115 0
M  V30 4441 H 434.089 -4.22254 0.384389 0
M  V30 4442 C 432.548 -3.28088 -0.765489 0
M  V30 4443 O 433.078 -3.57921 -1.8236 0
M  V30 4444 N 431.284 -2.81333 -0.728011 0
M  V30 4445 H 430.831 -2.57255 0.133332 0
M  V30 4446 H 430.789 -2.71232 -1.58999 0
M  V30 4447 N 434.561 -1.01147 -1.20859 0
M  V30 4448 C 435.838 -0.613136 -1.85742 0
M  V30 4449 C 436.218 0.909004 -1.90526 0
M  V30 4450 O 435.566 1.79862 -1.40932 0
M  V30 4451 C 435.776 -1.255 -3.25654 0
M  V30 4452 C 437.124 -1.3672 -4.01986 0
M  V30 4453 O 438.148 -1.21082 -3.34989 0
M  V30 4454 O 437.007 -1.6194 -5.21956 0
M  V30 4455 H 434.101 -0.210878 -0.799662 0
M  V30 4456 H 436.647 -1.10853 -1.2849 0
M  V30 4457 H 435.419 -2.29532 -3.16908 0
M  V30 4458 H 435.042 -0.746369 -3.90532 0
M  V30 4459 N 436.039 1.36541 -0.78704 0
M  V30 4460 C 436.949 2.3387 -0.184896 0
M  V30 4461 C 437.965 1.60927 0.661697 0
M  V30 4462 O 439.141 1.92927 0.57804 0
M  V30 4463 C 436.206 3.40122 0.672145 0
M  V30 4464 C 435.267 4.28867 -0.19267 0
M  V30 4465 C 434.5 5.30045 0.623561 0
M  V30 4466 O 434.723 5.39232 1.8597 0
M  V30 4467 O 433.657 6.01895 0.0247068 0
M  V30 4468 H 437.483 2.87126 -0.989562 0
M  V30 4469 H 435.068 1.38969 -0.548455 0
M  V30 4470 H 436.95 4.05093 1.16094 0
M  V30 4471 H 435.625 2.89169 1.45474 0
M  V30 4472 H 434.532 3.66945 -0.728166 0
M  V30 4473 H 435.865 4.83165 -0.938722 0
M  V30 4474 N 437.518 0.538854 1.48102 0
M  V30 4475 C 438.934 0.19732 1.58376 0
M  V30 4476 C 439.134 -1.29971 1.5398 0
M  V30 4477 O 438.19 -2.07861 1.43352 0
M  V30 4478 C 439.503 0.807716 2.89649 0
M  V30 4479 C 441.051 0.77726 3.03196 0
M  V30 4480 C 441.526 1.36639 4.37143 0
M  V30 4481 N 443.017 1.32875 4.43732 0
M  V30 4482 C 443.752 1.7544 5.45901 0
M  V30 4483 N 443.248 2.25776 6.54979 0
M  V30 4484 N 445.041 1.66623 5.36836 0
M  V30 4485 H 437.192 1.5117 1.49202 0
M  V30 4486 H 439.455 0.629327 0.708979 0
M  V30 4487 H 439.161 1.85909 2.98548 0
M  V30 4488 H 439.035 0.289975 3.76084 0
M  V30 4489 H 441.422 -0.265374 2.93904 0
M  V30 4490 H 441.503 1.33256 2.18349 0
M  V30 4491 H 441.147 2.408 4.47189 0
M  V30 4492 H 441.077 0.786689 5.20691 0
M  V30 4493 H 443.568 0.96037 3.65493 0
M  V30 4494 H 443.881 2.56226 7.29087 0
M  V30 4495 H 442.226 2.29775 6.55918 0
M  V30 4496 H 445.417 1.27089 4.50517 0
M  V30 4497 H 445.59 2.00115 6.16326 0
M  V30 4498 N 438.996 -1.55193 0.274407 0
M  V30 4499 C 440.243 -1.99581 -0.342579 0
M  V30 4500 C 440.571 -1.1628 -1.55914 0
M  V30 4501 O 439.826 -0.22029 -1.94456 0
M  V30 4502 C 440.125 -3.49019 -0.769458 0
M  V30 4503 C 439.791 -4.49598 0.342389 0
M  V30 4504 C 438.453 -4.76821 0.647686 0
M  V30 4505 C 440.805 -5.0964 1.09163 0
M  V30 4506 C 438.133 -5.61354 1.70581 0
M  V30 4507 C 440.485 -5.95323 2.13948 0
M  V30 4508 C 439.149 -6.20867 2.45113 0
M  V30 4509 H 438.419 -0.730319 -0.125358 0
M  V30 4510 H 441.066 -1.87529 0.387971 0
M  V30 4511 H 439.371 -3.58544 -1.57967 0
M  V30 4512 H 441.068 -3.8077 -1.25757 0
M  V30 4513 H 437.658 -4.28496 0.094318 0
M  V30 4514 H 441.842 -4.88632 0.869024 0
M  V30 4515 H 437.098 -5.79392 1.9523 0
M  V30 4516 H 441.272 -6.40881 2.72478 0
M  V30 4517 H 438.899 -6.86162 3.27239 0
M  V30 4518 N 440.474 -0.00167713 -1.576 0
M  V30 4519 C 441.72 0.683832 -1.90923 0
M  V30 4520 C 442.053 1.7333 -0.875799 0
M  V30 4521 O 441.328 1.94215 0.10525 0
M  V30 4522 C 441.611 1.32543 -3.3482 0
M  V30 4523 C 441.464 0.287387 -4.48881 0
M  V30 4524 C 442.783 2.25114 -3.78169 0
M  V30 4525 H 439.902 0.247125 -0.694333 0
M  V30 4526 H 442.544 -0.0533149 -1.89925 0
M  V30 4527 H 440.694 1.95372 -3.35801 0
M  V30 4528 H 442.366 -0.341346 -4.60035 0
M  V30 4529 H 440.609 -0.39017 -4.32042 0
M  V30 4530 H 441.28 0.775393 -5.46527 0
M  V30 4531 H 443.756 1.723 -3.7875 0
M  V30 4532 H 442.632 2.66971 -4.79602 0
M  V30 4533 H 442.893 3.13092 -3.12131 0
M  V30 4534 N 441.952 1.55251 0.271103 0
M  V30 4535 C 442.862 1.9136 1.35714 0
M  V30 4536 C 443.878 0.811075 1.5394 0
M  V30 4537 O 445.054 1.11031 1.6803 0
M  V30 4538 C 442.119 2.1798 2.69603 0
M  V30 4539 C 441.18 3.4153 2.60107 0
M  V30 4540 C 440.413 3.66871 3.8761 0
M  V30 4541 O 440.636 2.94689 4.8838 0
M  V30 4542 O 439.57 4.60405 3.87699 0
M  V30 4543 H 443.396 2.83815 1.08088 0
M  V30 4544 H 440.981 1.41821 0.469792 0
M  V30 4545 H 442.863 2.36518 3.48765 0
M  V30 4546 H 441.538 1.28708 2.97012 0
M  V30 4547 H 440.445 3.28325 1.79314 0
M  V30 4548 H 441.778 4.31027 2.37647 0
M  V30 4549 N 443.43 -0.535701 1.48216 0
M  V30 4550 C 444.676 -1.29375 1.56173 0
M  V30 4551 C 445.009 -1.92804 0.232429 0
M  V30 4552 O 444.284 -1.78992 -0.761048 0
M  V30 4553 C 444.567 -2.38747 2.69577 0
M  V30 4554 C 444.42 -1.80046 4.12193 0
M  V30 4555 C 445.739 -3.40551 2.78771 0
M  V30 4556 H 442.858 -0.469027 0.568491 0
M  V30 4557 H 445.5 -0.597358 1.80365 0
M  V30 4558 H 443.65 -2.98147 2.4908 0
M  V30 4559 H 445.322 -1.24742 4.44114 0
M  V30 4560 H 443.565 -1.10609 4.19462 0
M  V30 4561 H 444.236 -2.59212 4.87353 0
M  V30 4562 H 446.712 -2.91099 2.97322 0
M  V30 4563 H 445.588 -4.1448 3.59857 0
M  V30 4564 H 445.849 -4.00746 1.86696 0
M  V30 4565 N 444.908 -1.36708 -0.784132 0
M  V30 4566 C 445.818 -1.3363 -1.92822 0
M  V30 4567 C 446.834 -0.237686 -1.72369 0
M  V30 4568 O 448.01 -0.470962 -1.95816 0
M  V30 4569 C 445.075 -1.13011 -3.27764 0
M  V30 4570 C 444.136 -2.32397 -3.60957 0
M  V30 4571 C 443.369 -2.12752 -4.89461 0
M  V30 4572 O 443.592 -1.10541 -5.59586 0
M  V30 4573 O 442.526 -3.00653 -5.21432 0
M  V30 4574 H 446.352 -2.29964 -1.98369 0
M  V30 4575 H 443.937 -1.1731 -0.925136 0
M  V30 4576 H 445.819 -1.03451 -4.08504 0
M  V30 4577 H 444.494 -0.19743 -3.23097 0
M  V30 4578 H 443.401 -2.47527 -2.80502 0
M  V30 4579 H 444.734 -3.2419 -3.70354 0
M  V30 4580 N 446.386 1.0089 -1.21074 0
M  V30 4581 C 447.663 1.71834 -0.934469 0
M  V30 4582 C 448.043 2.0368 0.554753 0
M  V30 4583 O 447.391 1.70742 1.51854 0
M  V30 4584 C 447.601 2.98061 -1.8155 0
M  V30 4585 C 448.949 3.7117 -2.06199 0
M  V30 4586 O 449.973 3.08034 -1.78867 0
M  V30 4587 O 448.832 4.84721 -2.52404 0
M  V30 4588 H 445.926 0.749253 -0.35007 0
M  V30 4589 H 448.472 1.06668 -1.31985 0
M  V30 4590 H 447.244 2.70908 -2.82355 0
M  V30 4591 H 446.867 3.70968 -1.43068 0
M  V30 4592 N 447.864 1.01787 1.20321 0
M  V30 4593 C 449.28 0.732951 1.41774 0
M  V30 4594 C 449.48 -0.686883 1.89431 0
M  V30 4595 O 448.536 -1.45446 2.06402 0
M  V30 4596 C 449.849 1.75973 2.43832 0
M  V30 4597 C 451.397 1.77802 2.57596 0
M  V30 4598 C 451.872 2.7941 3.62897 0
M  V30 4599 N 453.363 2.78157 3.70382 0
M  V30 4600 C 454.098 3.53434 4.51521 0
M  V30 4601 N 453.594 4.38392 5.36455 0
M  V30 4602 N 455.387 3.42026 4.46066 0
M  V30 4603 H 447.538 1.93447 0.877035 0
M  V30 4604 H 449.801 0.835712 0.447536 0
M  V30 4605 H 449.507 2.77699 2.15815 0
M  V30 4606 H 449.381 1.57292 3.4284 0
M  V30 4607 H 451.768 0.767602 2.84942 0
M  V30 4608 H 451.849 2.00557 1.58779 0
M  V30 4609 H 451.493 3.80616 3.36295 0
M  V30 4610 H 451.423 2.53916 4.61339 0
M  V30 4611 H 453.914 2.16531 3.09714 0
M  V30 4612 H 454.227 4.92596 5.95457 0
M  V30 4613 H 452.572 4.4247 5.35953 0
M  V30 4614 H 455.763 2.75075 3.78749 0
M  V30 4615 H 455.936 4.00946 5.09064 0
M  V30 4616 N 449.342 -1.36122 0.79427 0
M  V30 4617 C 450.591 -1.98361 0.365464 0
M  V30 4618 C 450.904 -1.6374 -1.06997 0
M  V30 4619 O 452.11 -2.19251 -1.60129 0
M  V30 4620 C 450.566 -3.54821 0.602496 0
M  V30 4621 C 450.174 -3.98362 2.04967 0
M  V30 4622 C 451.918 -4.2383 0.238437 0
M  V30 4623 C 449.825 -5.47619 2.2331 0
M  V30 4624 H 448.755 -0.742193 0.13291 0
M  V30 4625 H 451.406 -1.55354 0.976589 0
M  V30 4626 H 449.788 -3.95922 -0.078409 0
M  V30 4627 H 450.962 -3.68447 2.76737 0
M  V30 4628 H 449.277 -3.42206 2.37243 0
M  V30 4629 H 451.874 -5.33529 0.353705 0
M  V30 4630 H 452.217 -4.08264 -0.814006 0
M  V30 4631 H 452.75 -3.88108 0.872769 0
M  V30 4632 H 449.489 -5.68138 3.26955 0
M  V30 4633 H 449.009 -5.79145 1.5605 0
M  V30 4634 H 450.688 -6.13911 2.0426 0
M  V30 4635 N 450.82 -0.546701 -1.47814 0
M  V30 4636 C 452.069 -0.0166497 -2.01693 0
M  V30 4637 C 452.382 1.33721 -1.42752 0
M  V30 4638 O 453.588 1.95658 -1.8823 0
M  V30 4639 C 452.044 0.0206769 -3.59894 0
M  V30 4640 C 451.652 -1.3293 -4.27824 0
M  V30 4641 C 453.396 0.498674 -4.21561 0
M  V30 4642 C 451.303 -1.25165 -5.78003 0
M  V30 4643 H 450.233 -0.0024541 -0.753996 0
M  V30 4644 H 452.884 -0.692984 -1.69912 0
M  V30 4645 H 451.266 0.76244 -3.88591 0
M  V30 4646 H 452.44 -2.08795 -4.10781 0
M  V30 4647 H 450.755 -1.74438 -3.78101 0
M  V30 4648 H 453.352 0.575 -5.31599 0
M  V30 4649 H 453.695 1.5083 -3.88016 0
M  V30 4650 H 454.228 -0.18791 -3.97356 0
M  V30 4651 H 450.967 -2.23695 -6.1615 0
M  V30 4652 H 450.487 -0.53464 -5.97412 0
M  V30 4653 H 452.166 -0.949299 -6.39998 0
M  V30 4654 N 452.299 1.55045 -0.282633 0
M  V30 4655 C 453.545 2.0078 0.325436 0
M  V30 4656 C 453.9 1.1676 1.52921 0
M  V30 4657 O 453.193 0.231475 1.90197 0
M  V30 4658 C 453.387 3.49422 0.750938 0
M  V30 4659 C 453.216 4.47827 -0.410056 0
M  V30 4660 C 451.986 4.97288 -0.896239 0
M  V30 4661 C 454.184 4.98903 -1.24902 0
M  V30 4662 N 452.166 5.79508 -2.02591 0
M  V30 4663 C 453.537 5.78644 -2.22646 0
M  V30 4664 C 455.592 4.81126 -1.2815 0
M  V30 4665 C 454.295 6.42502 -3.23393 0
M  V30 4666 C 456.321 5.45789 -2.27745 0
M  V30 4667 C 455.683 6.25348 -3.24222 0
M  V30 4668 H 451.782 0.77747 0.08405 0
M  V30 4669 H 454.366 1.90369 -0.408368 0
M  V30 4670 H 452.537 3.60159 1.45395 0
M  V30 4671 H 454.269 3.81978 1.33698 0
M  V30 4672 H 451.024 4.71219 -0.474277 0
M  V30 4673 H 451.448 6.25308 -2.59459 0
M  V30 4674 H 456.09 4.19215 -0.549397 0
M  V30 4675 H 453.808 7.03558 -3.97533 0
M  V30 4676 H 457.394 5.33972 -2.31009 0
M  V30 4677 H 456.274 6.74498 -4.00027 0
M  V30 4678 N 453.777 0.010035 1.57597 0
M  V30 4679 C 454.709 -1.00649 2.05918 0
M  V30 4680 C 455.722 -1.30077 0.978964 0
M  V30 4681 O 456.911 -1.26878 1.25556 0
M  V30 4682 C 454.011 -2.33876 2.45265 0
M  V30 4683 C 453.184 -2.23242 3.7614 0
M  V30 4684 C 452.243 -3.39242 4.02245 0
M  V30 4685 O 451.269 -3.1698 4.72771 0
M  V30 4686 N 452.471 -4.6242 3.50924 0
M  V30 4687 H 455.236 -0.594333 2.93748 0
M  V30 4688 H 452.797 -0.17714 1.60928 0
M  V30 4689 H 454.789 -3.1027 2.59836 0
M  V30 4690 H 453.359 -2.66799 1.62902 0
M  V30 4691 H 452.579 -1.31696 3.71551 0
M  V30 4692 H 453.867 -2.13321 4.61922 0
M  V30 4693 H 453.265 -4.83404 2.93832 0
M  V30 4694 H 451.822 -5.36046 3.70807 0
M  V30 4695 N 455.255 -1.55392 -0.262866 0
M  V30 4696 C 456.188 -1.8391 -1.35101 0
M  V30 4697 C 457.166 -0.692901 -1.47097 0
M  V30 4698 O 458.35 -0.936979 -1.63563 0
M  V30 4699 C 455.477 -2.00969 -2.72634 0
M  V30 4700 C 454.523 -3.23559 -2.7787 0
M  V30 4701 S 455.356 -4.80647 -2.3609 0
M  V30 4702 C 456.512 -5.00692 -3.75578 0
M  V30 4703 H 456.745 -2.75918 -1.1071 0
M  V30 4704 H 454.278 -1.47294 -0.463029 0
M  V30 4705 H 456.236 -2.11482 -3.51832 0
M  V30 4706 H 454.897 -1.09832 -2.94272 0
M  V30 4707 H 454.09 -3.32413 -3.78837 0
M  V30 4708 H 453.692 -3.11689 -2.06702 0
M  V30 4709 H 455.984 -4.87055 -4.70939 0
M  V30 4710 H 456.927 -6.02717 -3.71669 0
M  V30 4711 H 457.335 -4.28619 -3.6735 0
M  V30 4712 N 456.733 0.527833 -1.48498 0
M  V30 4713 C 458.149 0.856571 -1.34666 0
M  V30 4714 C 458.349 1.98271 -0.35931 0
M  V30 4715 O 457.405 2.51551 0.218703 0
M  V30 4716 C 458.718 1.22207 -2.74747 0
M  V30 4717 C 460.266 1.33183 -2.83251 0
M  V30 4718 C 460.741 1.73075 -4.24039 0
M  V30 4719 N 462.232 1.80174 -4.26722 0
M  V30 4720 C 462.967 2.1243 -5.32598 0
M  V30 4721 N 462.463 2.43096 -6.4875 0
M  V30 4722 N 464.256 2.13454 -5.19994 0
M  V30 4723 H 456.407 -0.215174 -2.11307 0
M  V30 4724 H 458.67 -0.0336281 -0.947403 0
M  V30 4725 H 458.376 0.468195 -3.4857 0
M  V30 4726 H 458.25 2.17173 -3.08409 0
M  V30 4727 H 460.637 2.07647 -2.09683 0
M  V30 4728 H 460.718 0.363333 -2.53206 0
M  V30 4729 H 460.362 0.991712 -4.98124 0
M  V30 4730 H 460.292 2.70979 -4.51529 0
M  V30 4731 H 462.783 1.58744 -3.42942 0
M  V30 4732 H 463.096 2.6682 -7.25277 0
M  V30 4733 H 461.441 2.40611 -6.52021 0
M  V30 4734 H 464.632 1.88956 -4.28268 0
M  V30 4735 H 464.805 2.38261 -6.02608 0
M  V30 4736 N 458.211 1.37122 0.776871 0
M  V30 4737 C 459.458 1.32047 1.53524 0
M  V30 4738 C 459.786 -0.0965631 1.9426 0
M  V30 4739 O 459.041 -1.06866 1.63945 0
M  V30 4740 C 459.34 2.20068 2.81611 0
M  V30 4741 C 459.006 3.68423 2.59953 0
M  V30 4742 C 457.668 4.08854 2.53755 0
M  V30 4743 C 460.02 4.62431 2.40431 0
M  V30 4744 C 457.348 5.41417 2.26018 0
M  V30 4745 C 459.7 5.95225 2.14219 0
M  V30 4746 C 458.364 6.34767 2.06462 0
M  V30 4747 H 457.634 0.483196 0.561785 0
M  V30 4748 H 460.281 1.69284 0.895268 0
M  V30 4749 H 458.586 1.75809 3.50141 0
M  V30 4750 H 460.283 2.13458 3.39465 0
M  V30 4751 H 456.873 3.36354 2.65638 0
M  V30 4752 H 461.057 4.32057 2.44213 0
M  V30 4753 H 456.313 5.71022 2.18504 0
M  V30 4754 H 460.487 6.67626 1.98112 0
M  V30 4755 H 458.114 7.37413 1.84733 0
M  V30 4756 N 459.689 -1.00246 1.21608 0
M  V30 4757 C 461.105 -1.26435 0.973975 0
M  V30 4758 C 461.305 -1.98642 -0.338143 0
M  V30 4759 O 460.361 -2.29026 -1.06317 0
M  V30 4760 C 461.674 -2.08551 2.16626 0
M  V30 4761 C 463.222 -2.21769 2.20879 0
M  V30 4762 C 463.697 -3.07267 3.39633 0
M  V30 4763 N 465.188 -3.14855 3.39736 0
M  V30 4764 C 465.923 -3.81274 4.28273 0
M  V30 4765 N 465.419 -4.497 5.27012 0
M  V30 4766 N 467.212 -3.7794 4.16074 0
M  V30 4767 H 459.363 -0.518089 2.05984 0
M  V30 4768 H 461.626 -0.291368 0.902113 0
M  V30 4769 H 461.332 -1.62847 3.11727 0
M  V30 4770 H 461.206 -3.09303 2.15897 0
M  V30 4771 H 463.593 -2.66691 1.26332 0
M  V30 4772 H 463.674 -1.20478 2.25652 0
M  V30 4773 H 463.318 -2.63047 4.34475 0
M  V30 4774 H 463.248 -4.08678 3.321 0
M  V30 4775 H 465.739 -2.66147 2.6828 0
M  V30 4776 H 466.052 -4.98092 5.90867 0
M  V30 4777 H 464.397 -4.48479 5.30935 0
M  V30 4778 H 467.588 -3.23638 3.38195 0
M  V30 4779 H 467.761 -4.29424 4.85282 0
M  V30 4780 N 461.167 -1.02423 -1.1978 0
M  V30 4781 C 462.392 -0.7373 -1.93852 0
M  V30 4782 C 462.817 0.696923 -1.74713 0
M  V30 4783 O 462.175 1.48056 -1.04638 0
M  V30 4784 C 462.223 -1.08783 -3.438 0
M  V30 4785 O 461.327 -0.20383 -4.11896 0
M  V30 4786 H 460.668 -0.27284 -0.605355 0
M  V30 4787 H 463.198 -1.36966 -1.51992 0
M  V30 4788 H 463.208 -1.04276 -3.9445 0
M  V30 4789 H 461.883 -2.13274 -3.57053 0
M  V30 4790 H 460.46 -0.307091 -3.71633 0
M  V30 4791 N 462.645 1.35699 -0.801477 0
M  V30 4792 C 463.893 1.9852 -0.37871 0
M  V30 4793 C 464.214 1.63907 1.05638 0
M  V30 4794 O 463.484 0.919013 1.73006 0
M  V30 4795 H 462.064 0.734322 -0.137042 0
M  V30 4796 H 464.726 1.65697 -1.02619 0
M  V30 4797 H 463.822 3.08382 -0.480284 0
M  V30 4798 N 464.123 0.554532 1.47522 0
M  V30 4799 C 465.086 -0.184174 2.28459 0
M  V30 4800 C 466.086 -0.845195 1.36796 0
M  V30 4801 O 467.276 -0.701467 1.59452 0
M  V30 4802 C 464.408 -1.26903 3.16399 0
M  V30 4803 H 465.601 0.526751 2.95238 0
M  V30 4804 H 463.154 0.311375 1.53167 0
M  V30 4805 H 463.889 -2.01244 2.54306 0
M  V30 4806 H 463.674 -0.799883 3.83854 0
M  V30 4807 H 465.164 -1.78794 3.77389 0
M  V30 4808 N 465.601 -1.54893 0.290851 0
M  V30 4809 C 466.531 -2.26103 -0.583084 0
M  V30 4810 C 467.512 -1.25684 -1.14619 0
M  V30 4811 O 468.697 -1.54436 -1.17741 0
M  V30 4812 C 465.827 -2.99409 -1.75987 0
M  V30 4813 C 464.781 -4.0689 -1.32758 0
M  V30 4814 C 464.107 -4.67856 -2.58872 0
M  V30 4815 C 465.407 -5.20215 -0.46624 0
M  V30 4816 H 467.101 -2.99398 0.0108214 0
M  V30 4817 H 464.647 -1.43998 0.00664468 0
M  V30 4818 H 466.6 -3.47943 -2.37727 0
M  V30 4819 H 465.324 -2.23675 -2.37985 0
M  V30 4820 H 463.983 -3.59191 -0.733299 0
M  V30 4821 H 463.631 -3.88772 -3.19163 0
M  V30 4822 H 463.331 -5.40438 -2.30653 0
M  V30 4823 H 464.855 -5.19147 -3.21433 0
M  V30 4824 H 466.269 -5.64704 -0.989047 0
M  V30 4825 H 464.666 -5.99455 -0.27826 0
M  V30 4826 H 465.736 -4.82198 0.511173 0
M  V30 4827 N 467.08 -0.0183926 -1.57589 0
M  V30 4828 C 468.305 0.676634 -1.96052 0
M  V30 4829 C 468.73 1.6548 -0.894307 0
M  V30 4830 O 468.088 1.80712 0.145849 0
M  V30 4831 C 468.136 1.36872 -3.33614 0
M  V30 4832 O 467.24 2.48372 -3.29219 0
M  V30 4833 H 466.581 0.1786 -0.63953 0
M  V30 4834 H 469.111 -0.077056 -2.04455 0
M  V30 4835 H 469.121 1.72797 -3.69601 0
M  V30 4836 H 467.796 0.651636 -4.10763 0
M  V30 4837 H 466.373 2.14639 -3.04934 0
M  V30 4838 N 468.558 1.5553 0.254621 0
M  V30 4839 C 469.508 1.86057 1.31783 0
M  V30 4840 C 470.492 0.720827 1.4385 0
M  V30 4841 O 471.684 0.982586 1.47222 0
M  V30 4842 C 468.813 2.15203 2.67475 0
M  V30 4843 C 467.899 3.35484 2.59444 0
M  V30 4844 N 468.29 4.54945 2.2104 0
M  V30 4845 C 466.588 3.38441 2.90472 0
M  V30 4846 C 467.289 5.3707 2.23453 0
M  V30 4847 N 466.265 4.75936 2.62652 0
M  V30 4848 H 470.067 2.75953 1.01129 0
M  V30 4849 H 467.581 1.55653 0.463255 0
M  V30 4850 H 469.578 2.35235 3.44195 0
M  V30 4851 H 468.238 1.26601 2.99002 0
M  V30 4852 H 469.249 4.8071 1.92712 0
M  V30 4853 H 465.926 2.60087 3.2659 0
M  V30 4854 H 467.316 6.42626 1.96166 0
M  V30 4855 N 470.036 -0.519951 1.48776 0
M  V30 4856 C 471.284 -1.2727 1.56993 0
M  V30 4857 C 471.605 -1.9339 0.25004 0
M  V30 4858 O 470.875 -1.81822 -0.729216 0
M  V30 4859 H 469.455 -0.472732 0.578389 0
M  V30 4860 H 472.117 -0.604234 1.85297 0
M  V30 4861 H 471.213 -2.04669 2.3562 0
M  V30 4862 N 471.514 -1.37532 -0.769588 0
M  V30 4863 C 472.477 -1.33292 -1.86456 0
M  V30 4864 C 473.477 -0.236537 -1.59051 0
M  V30 4865 O 474.667 -0.492511 -1.67093 0
M  V30 4866 C 471.799 -1.07118 -3.23633 0
M  V30 4867 H 472.992 -2.30692 -1.91628 0
M  V30 4868 H 470.545 -1.22593 -0.969572 0
M  V30 4869 H 471.28 -0.102578 -3.24138 0
M  V30 4870 H 471.065 -1.86479 -3.44917 0
M  V30 4871 H 472.555 -1.06806 -4.03711 0
M  V30 4872 N 472.992 0.995999 -1.22138 0
M  V30 4873 C 474.217 1.77601 -1.0711 0
M  V30 4874 C 474.642 1.84339 0.374264 0
M  V30 4875 O 474 1.29359 1.27028 0
M  V30 4876 C 474.048 3.18897 -1.68336 0
M  V30 4877 O 473.152 4.01663 -0.934928 0
M  V30 4878 H 472.493 0.547011 -0.376397 0
M  V30 4879 H 475.023 1.25137 -1.6187 0
M  V30 4880 H 475.033 3.69539 -1.72931 0
M  V30 4881 H 473.708 3.13308 -2.73516 0
M  V30 4882 H 472.285 3.60204 -0.964751 0
M  V30 4883 N 474.47 1.03057 1.19235 0
M  V30 4884 C 475.695 0.74757 1.93458 0
M  V30 4885 C 476.12 -0.687648 1.7508 0
M  V30 4886 O 475.478 -1.47499 1.05422 0
M  V30 4887 C 475.526 1.10604 3.43219 0
M  V30 4888 O 474.63 0.225671 4.11782 0
M  V30 4889 H 473.971 0.276047 0.603899 0
M  V30 4890 H 476.501 1.3777 1.51263 0
M  V30 4891 H 476.511 1.06366 3.93891 0
M  V30 4892 H 475.186 2.15165 3.55917 0
M  V30 4893 H 473.763 0.326795 3.71465 0
M  V30 4894 N 475.948 -1.35272 0.808662 0
M  V30 4895 C 477.178 -2.02652 0.401953 0
M  V30 4896 C 477.586 -1.6108 -0.992462 0
M  V30 4897 O 476.929 -0.804984 -1.65123 0
M  V30 4898 C 476.991 -3.57174 0.408246 0
M  V30 4899 C 476.655 -4.22019 1.75353 0
M  V30 4900 C 477.652 -4.43552 2.71215 0
M  V30 4901 C 475.337 -4.59093 2.03811 0
M  V30 4902 C 477.331 -5.01264 3.93717 0
M  V30 4903 C 475.018 -5.16519 3.26576 0
M  V30 4904 C 476.016 -5.37546 4.21347 0
M  V30 4905 O 475.704 -5.93761 5.41944 0
M  V30 4906 H 475.436 -0.656495 0.161216 0
M  V30 4907 H 477.99 -1.73829 1.0942 0
M  V30 4908 H 476.22 -3.85197 -0.340608 0
M  V30 4909 H 477.909 -4.05893 0.0235623 0
M  V30 4910 H 478.675 -4.15288 2.50522 0
M  V30 4911 H 474.554 -4.42039 1.30854 0
M  V30 4912 H 478.098 -5.17592 4.67701 0
M  V30 4913 H 473.995 -5.4421 3.47139 0
M  V30 4914 H 474.763 -6.1221 5.43269 0
M  V30 4915 N 477.426 -0.562348 -1.47226 0
M  V30 4916 C 478.651 -0.0432632 -2.07355 0
M  V30 4917 C 479.076 1.24332 -1.41149 0
M  V30 4918 O 478.434 1.74603 -0.488226 0
M  V30 4919 C 478.482 0.130288 -3.60365 0
M  V30 4920 O 477.586 1.19166 -3.94808 0
M  V30 4921 H 476.927 -0.0536334 -0.66183 0
M  V30 4922 H 479.457 -0.779495 -1.89169 0
M  V30 4923 H 479.467 0.342881 -4.06557 0
M  V30 4924 H 478.142 -0.809389 -4.07948 0
M  V30 4925 H 476.719 0.959153 -3.60354 0
M  V30 4926 N 478.904 1.54736 -0.299062 0
M  V30 4927 C 480.132 2.04512 0.313447 0
M  V30 4928 C 480.547 1.17643 1.47667 0
M  V30 4929 O 479.904 0.20164 1.81383 0
M  V30 4930 C 479.955 3.53171 0.771542 0
M  V30 4931 O 479.676 4.36736 -0.345379 0
M  V30 4932 C 481.177 4.18936 1.4494 0
M  V30 4933 H 478.397 0.667507 0.0683784 0
M  V30 4934 H 480.941 1.99752 -0.438129 0
M  V30 4935 H 479.096 3.58298 1.47314 0
M  V30 4936 H 479.51 5.24499 0.0109219 0
M  V30 4937 H 480.984 5.24482 1.72111 0
M  V30 4938 H 481.461 3.68554 2.38883 0
M  V30 4939 H 482.067 4.17879 0.791028 0
M  V30 4940 N 480.382 0.0267497 1.57577 0
M  V30 4941 C 481.61 -0.662661 1.96001 0
M  V30 4942 C 482.025 -1.65799 0.903117 0
M  V30 4943 O 481.382 -1.82135 -0.115317 0
M  V30 4944 C 481.433 -1.37112 3.34488 0
M  V30 4945 O 481.154 -0.415683 4.36123 0
M  V30 4946 C 482.655 -2.15257 3.8753 0
M  V30 4947 H 479.875 -0.18287 0.6456 0
M  V30 4948 H 482.419 0.0858116 2.0432 0
M  V30 4949 H 480.574 -2.07101 3.27395 0
M  V30 4950 H 480.988 -0.918496 5.16395 0
M  V30 4951 H 482.462 -2.60285 4.86781 0
M  V30 4952 H 482.939 -2.99063 3.21649 0
M  V30 4953 H 483.545 -1.50231 3.97883 0
M  V30 4954 N 481.861 -1.55662 -0.24637 0
M  V30 4955 C 483.089 -1.81575 -0.991876 0
M  V30 4956 C 483.504 -0.602545 -1.78927 0
M  V30 4957 O 482.861 0.428795 -1.77391 0
M  V30 4958 C 482.912 -3.05711 -1.92933 0
M  V30 4959 O 482.633 -4.22348 -1.1642 0
M  V30 4960 C 484.134 -3.44428 -2.79078 0
M  V30 4961 H 481.354 -0.604209 -0.291844 0
M  V30 4962 H 483.898 -2.02722 -0.269095 0
M  V30 4963 H 482.053 -2.86612 -2.60638 0
M  V30 4964 H 482.467 -4.92706 -1.79835 0
M  V30 4965 H 483.941 -4.34388 -3.40603 0
M  V30 4966 H 484.418 -2.65037 -3.50217 0
M  V30 4967 H 485.024 -3.65879 -2.16824 0
M  V30 4968 N 483.339 0.512053 -1.4905 0
M  V30 4969 C 484.567 1.29116 -1.61669 0
M  V30 4970 C 484.982 1.86655 -0.283787 0
M  V30 4971 O 484.339 1.67293 0.729331 0
M  V30 4972 C 484.39 2.4293 -2.67707 0
M  V30 4973 O 484.111 1.87758 -3.95826 0
M  V30 4974 C 485.612 3.34476 -2.90931 0
M  V30 4975 H 482.832 0.392009 -0.544583 0
M  V30 4976 H 485.376 0.615881 -1.95006 0
M  V30 4977 H 483.531 3.06308 -2.37179 0
M  V30 4978 H 483.945 2.62393 -4.54148 0
M  V30 4979 H 485.419 4.10642 -3.68886 0
M  V30 4980 H 485.896 3.90801 -2.00427 0
M  V30 4981 H 486.502 2.76874 -3.22832 0
M  V30 4982 N 484.817 1.37938 0.762283 0
M  V30 4983 C 486.042 1.37059 1.55659 0
M  V30 4984 C 486.467 -0.0396123 1.88058 0
M  V30 4985 O 485.825 -1.01929 1.49934 0
M  V30 4986 C 485.873 2.22494 2.83776 0
M  V30 4987 O 484.977 1.63607 3.78559 0
M  V30 4988 H 484.318 0.467892 0.47114 0
M  V30 4989 H 486.848 1.81587 0.942725 0
M  V30 4990 H 486.858 2.36045 3.32786 0
M  V30 4991 H 485.533 3.24993 2.59524 0
M  V30 4992 H 484.11 1.5915 3.37233 0
M  V30 4993 N 486.295 -0.989507 1.22664 0
M  V30 4994 C 487.711 -1.25395 0.987331 0
M  V30 4995 C 487.911 -1.9899 -0.317056 0
M  V30 4996 O 486.967 -2.30141 -1.03882 0
M  V30 4997 C 488.28 -2.06242 2.18826 0
M  V30 4998 C 489.828 -2.19413 2.23219 0
M  V30 4999 C 490.303 -3.03648 3.42873 0
M  V30 5000 N 491.794 -3.11234 3.43056 0
M  V30 5001 C 492.529 -3.7671 4.32293 0
M  V30 5002 N 492.025 -4.44085 5.31752 0
M  V30 5003 N 493.818 -3.73505 4.2006 0
M  V30 5004 H 485.969 -0.496212 2.06522 0
M  V30 5005 H 488.232 -0.281784 0.905153 0
M  V30 5006 H 487.938 -1.59531 3.13437 0
M  V30 5007 H 487.812 -3.06996 2.19165 0
M  V30 5008 H 490.199 -2.65336 1.29154 0
M  V30 5009 H 490.28 -1.18078 2.26917 0
M  V30 5010 H 489.924 -2.58424 4.37241 0
M  V30 5011 H 489.854 -4.05132 3.36416 0
M  V30 5012 H 492.345 -2.63287 2.71088 0
M  V30 5013 H 492.658 -4.91797 5.96117 0
M  V30 5014 H 491.003 -4.42822 5.35662 0
M  V30 5015 H 494.194 -3.20033 3.41609 0
M  V30 5016 H 494.367 -4.24253 4.8981 0
M  V30 5017 N 487.773 -1.03688 -1.18687 0
M  V30 5018 C 489.02 -0.73803 -1.88572 0
M  V30 5019 C 489.348 0.733973 -1.8012 0
M  V30 5020 O 488.603 1.55098 -1.19344 0
M  V30 5021 C 488.902 -1.14477 -3.3857 0
M  V30 5022 C 488.568 -2.61641 -3.67226 0
M  V30 5023 C 487.23 -3.01846 -3.74757 0
M  V30 5024 C 489.582 -3.56812 -3.79914 0
M  V30 5025 C 486.91 -4.36118 -3.92451 0
M  V30 5026 C 489.262 -4.90799 -3.99123 0
M  V30 5027 C 487.926 -5.3068 -4.04888 0
M  V30 5028 H 487.196 -0.270064 -0.690034 0
M  V30 5029 H 489.843 -1.3012 -1.40503 0
M  V30 5030 H 488.148 -0.500337 -3.88592 0
M  V30 5031 H 489.845 -0.89095 -3.90977 0
M  V30 5032 H 486.435 -2.29498 -3.61979 0
M  V30 5033 H 490.619 -3.26899 -3.73431 0
M  V30 5034 H 485.875 -4.66542 -3.95157 0
M  V30 5035 H 490.049 -5.64451 -4.07882 0
M  V30 5036 H 487.676 -6.34733 -4.18351 0
M  V30 5037 N 489.251 1.34841 -0.815825 0
M  V30 5038 C 490.476 2.03261 -0.41226 0
M  V30 5039 C 490.901 1.61055 0.971751 0
M  V30 5040 O 490.259 0.7917 1.63101 0
M  V30 5041 C 490.307 3.56914 -0.514289 0
M  V30 5042 O 489.411 4.09728 0.468675 0
M  V30 5043 H 488.752 0.641664 -0.170771 0
M  V30 5044 H 491.282 1.72241 -1.10427 0
M  V30 5045 H 491.292 4.06156 -0.387457 0
M  V30 5046 H 489.967 3.86982 -1.52375 0
M  V30 5047 H 488.544 3.71681 0.301316 0
M  V30 5048 N 490.729 0.570148 1.46925 0
M  V30 5049 C 491.975 0.0510284 2.02736 0
M  V30 5050 C 492.308 -1.3006 1.44215 0
M  V30 5051 O 491.583 -1.84932 0.602521 0
M  V30 5052 C 491.866 -0.028215 3.60089 0
M  V30 5053 C 491.719 1.35142 4.29018 0
M  V30 5054 C 493.038 -0.735181 4.33916 0
M  V30 5055 H 490.157 0.0200178 0.736728 0
M  V30 5056 H 492.799 0.73493 1.75211 0
M  V30 5057 H 490.949 -0.610648 3.83671 0
M  V30 5058 H 492.621 1.97806 4.16738 0
M  V30 5059 H 490.864 1.9226 3.88868 0
M  V30 5060 H 491.535 1.24857 5.37694 0
M  V30 5061 H 494.011 -0.240519 4.15404 0
M  V30 5062 H 492.887 -0.759622 5.43618 0
M  V30 5063 H 493.148 -1.79397 4.04066 0
M  V30 5064 N 492.207 -1.54576 0.307264 0
M  V30 5065 C 493.139 -2.21212 -0.599807 0
M  V30 5066 C 494.152 -1.20685 -1.09266 0
M  V30 5067 O 495.341 -1.47244 -1.00903 0
M  V30 5068 C 492.441 -2.84994 -1.83389 0
M  V30 5069 C 491.614 -4.11511 -1.48248 0
M  V30 5070 C 490.673 -4.59038 -2.57237 0
M  V30 5071 O 489.699 -5.24095 -2.22065 0
M  V30 5072 N 490.901 -4.31884 -3.87887 0
M  V30 5073 H 493.666 -2.99686 -0.0293075 0
M  V30 5074 H 491.227 -1.61379 0.129738 0
M  V30 5075 H 493.219 -3.1372 -2.5566 0
M  V30 5076 H 491.789 -2.10324 -2.31263 0
M  V30 5077 H 491.009 -3.89728 -0.592122 0
M  V30 5078 H 492.297 -4.93879 -1.22316 0
M  V30 5079 H 491.695 -3.79778 -4.19268 0
M  V30 5080 H 490.252 -4.65304 -4.56438 0
M  V30 5081 N 493.685 -0.035106 -1.57561 0
M  V30 5082 C 494.933 0.64096 -1.91667 0
M  V30 5083 C 495.254 1.72323 -0.912681 0
M  V30 5084 O 494.524 1.95849 0.0449089 0
M  V30 5085 H 493.104 0.239743 -0.707483 0
M  V30 5086 H 495.766 -0.084321 -1.94718 0
M  V30 5087 H 494.862 1.08987 -2.92452 0
M  V30 5088 N 495.163 1.55791 0.238111 0
M  V30 5089 C 496.44 1.68798 0.98826 0
M  V30 5090 C 496.82 0.577562 2.03045 0
M  V30 5091 O 496.168 -0.41778 2.24648 0
M  V30 5092 C 496.378 3.09454 1.61367 0
M  V30 5093 C 497.726 3.68335 2.11221 0
M  V30 5094 O 498.75 3.1231 1.71292 0
M  V30 5095 O 497.609 4.6657 2.84561 0
M  V30 5096 H 494.703 0.686881 0.460568 0
M  V30 5097 H 497.249 1.68118 0.231202 0
M  V30 5098 H 496.021 3.81726 0.860295 0
M  V30 5099 H 495.644 3.14182 2.4367 0
M  V30 5100 N 496.642 -0.504142 1.49319 0
M  V30 5101 C 497.589 -1.60603 1.65756 0
M  V30 5102 C 498.559 -1.58425 0.499082 0
M  V30 5103 O 499.744 -1.76459 0.725728 0
M  V30 5104 C 496.884 -2.98764 1.72726 0
M  V30 5105 C 495.997 -3.10982 2.99857 0
M  V30 5106 C 495.132 -4.39857 2.97824 0
M  V30 5107 C 494.171 -4.45697 4.19548 0
M  V30 5108 N 493.308 -5.65995 4.15444 0
M  V30 5109 H 498.148 -1.45895 2.59843 0
M  V30 5110 H 495.685 -0.709891 1.28837 0
M  V30 5111 H 497.643 -3.78839 1.74747 0
M  V30 5112 H 496.273 -3.12183 0.821075 0
M  V30 5113 H 495.325 -2.23991 3.07461 0
M  V30 5114 H 496.637 -3.11157 3.89849 0
M  V30 5115 H 495.791 -5.2825 2.98391 0
M  V30 5116 H 494.53 -4.42242 2.05604 0
M  V30 5117 H 493.535 -3.55707 4.19229 0
M  V30 5118 H 494.76 -4.4503 5.12957 0
M  V30 5119 H 492.706 -5.69229 3.26059 0
M  V30 5120 H 492.623 -5.67773 4.99169 0
M  V30 5121 H 493.891 -6.56604 4.20109 0
M  V30 5122 N 498.12 -1.38341 -0.754957 0
M  V30 5123 C 499.083 -1.35262 -1.85032 0
M  V30 5124 C 500.083 -0.253393 -1.58791 0
M  V30 5125 O 501.273 -0.510205 -1.66561 0
M  V30 5126 C 498.405 -1.10544 -3.22479 0
M  V30 5127 H 499.598 -2.32712 -1.8917 0
M  V30 5128 H 497.151 -1.23614 -0.956515 0
M  V30 5129 H 497.886 -0.136952 -3.24011 0
M  V30 5130 H 497.671 -1.90127 -3.4292 0
M  V30 5131 H 499.161 -1.11082 -4.02555 0
M  V30 5132 N 499.598 0.982988 -1.23187 0
M  V30 5133 C 500.844 1.72648 -1.06398 0
M  V30 5134 C 501.177 1.90066 0.398561 0
M  V30 5135 O 500.452 1.45105 1.29518 0
M  V30 5136 C 500.735 3.12627 -1.78707 0
M  V30 5137 C 500.588 3.02795 -3.32618 0
M  V30 5138 C 501.907 4.11997 -1.54747 0
M  V30 5139 H 499.026 0.626649 -0.387918 0
M  V30 5140 H 501.668 1.14455 -1.51658 0
M  V30 5141 H 499.818 3.62308 -1.40234 0
M  V30 5142 H 501.49 2.60659 -3.80598 0
M  V30 5143 H 499.733 2.39362 -3.61785 0
M  V30 5144 H 500.404 4.01893 -3.78399 0
M  V30 5145 H 502.88 3.71114 -1.88186 0
M  V30 5146 H 501.756 5.08037 -2.07821 0
M  V30 5147 H 502.017 4.39462 -0.482249 0
M  V30 5148 N 501.076 1.04316 1.18135 0
M  V30 5149 C 502.006 0.657299 2.24058 0
M  V30 5150 C 502.987 -0.340678 1.66654 0
M  V30 5151 O 504.172 -0.220223 1.92947 0
M  V30 5152 C 501.302 0.0220715 3.47293 0
M  V30 5153 C 500.256 0.943857 4.17463 0
M  V30 5154 C 499.582 0.172973 5.3442 0
M  V30 5155 C 500.882 2.26409 4.70677 0
M  V30 5156 H 502.576 1.5428 2.56589 0
M  V30 5157 H 500.122 0.743263 1.23335 0
M  V30 5158 H 502.075 -0.259607 4.206 0
M  V30 5159 H 500.799 -0.898323 3.14003 0
M  V30 5160 H 499.458 1.20996 3.46057 0
M  V30 5161 H 499.106 -0.749907 4.97379 0
M  V30 5162 H 498.806 0.787098 5.82304 0
M  V30 5163 H 500.33 -0.101628 6.10515 0
M  V30 5164 H 501.744 2.04294 5.35665 0
M  V30 5165 H 500.141 2.8314 5.29105 0
M  V30 5166 H 501.211 2.90883 3.87962 0
M  V30 5167 N 502.554 -1.34406 0.822964 0
M  V30 5168 C 503.484 -2.32052 0.259608 0
M  V30 5169 C 504.465 -1.58243 -0.623961 0
M  V30 5170 O 505.65 -1.86224 -0.55083 0
M  V30 5171 C 502.78 -3.42434 -0.579314 0
M  V30 5172 C 501.734 -4.27499 0.20712 0
M  V30 5173 C 501.06 -5.29349 -0.754547 0
M  V30 5174 C 502.36 -5.02758 1.41533 0
M  V30 5175 H 504.054 -2.79418 1.07545 0
M  V30 5176 H 501.6 -1.34338 0.518593 0
M  V30 5177 H 503.553 -4.0976 -0.983612 0
M  V30 5178 H 502.277 -2.93717 -1.4282 0
M  V30 5179 H 500.936 -3.61776 0.592787 0
M  V30 5180 H 500.584 -4.76895 -1.59939 0
M  V30 5181 H 500.284 -5.8714 -0.232561 0
M  V30 5182 H 501.808 -5.99544 -1.1567 0
M  V30 5183 H 503.222 -5.62938 1.08504 0
M  V30 5184 H 501.619 -5.70123 1.87296 0
M  V30 5185 H 502.689 -4.32451 2.1935 0
M  V30 5186 N 504.032 -0.577932 -1.46621 0
M  V30 5187 C 504.965 0.206312 -2.27265 0
M  V30 5188 C 505.943 0.901306 -1.35334 0
M  V30 5189 O 507.127 0.916151 -1.64739 0
M  V30 5190 C 504.254 1.29563 -3.1294 0
M  V30 5191 C 503.3 0.706981 -4.206 0
M  V30 5192 S 504.133 -0.462459 -5.33499 0
M  V30 5193 C 505.289 0.628171 -6.2274 0
M  V30 5194 H 505.522 -0.477961 -2.93433 0
M  V30 5195 H 503.055 -0.364715 -1.50031 0
M  V30 5196 H 505.013 1.91935 -3.62865 0
M  V30 5197 H 503.674 1.95183 -2.46095 0
M  V30 5198 H 502.867 1.52565 -4.80354 0
M  V30 5199 H 502.469 0.159022 -3.73662 0
M  V30 5200 H 504.761 1.51506 -6.60342 0
M  V30 5201 H 505.704 0.0674961 -7.08068 0
M  V30 5202 H 506.112 0.930167 -5.56784 0
M  V30 5203 N 505.51 1.54411 -0.315457 0
M  V30 5204 C 506.787 1.92562 0.343398 0
M  V30 5205 C 507.167 1.24423 1.70535 0
M  V30 5206 O 506.515 0.385051 2.25232 0
M  V30 5207 C 506.725 3.46168 0.443687 0
M  V30 5208 C 508.073 4.18659 0.707783 0
M  V30 5209 O 509.097 3.52281 0.52693 0
M  V30 5210 O 507.956 5.36198 1.05612 0
M  V30 5211 H 505.05 0.80379 0.194552 0
M  V30 5212 H 507.596 1.65738 -0.364577 0
M  V30 5213 H 506.368 3.8792 -0.513172 0
M  V30 5214 H 505.991 3.79073 1.19956 0
M  V30 5215 N 506.988 0.0434614 1.5754 0
M  V30 5216 C 508.399 -0.493343 1.80064 0
M  V30 5217 C 508.75 -1.71388 0.955023 0
M  V30 5218 O 507.875 -2.15736 0.169434 0
M  V30 5219 C 508.47 -0.90179 3.26578 0
M  V30 5220 C 507.029 -1.38362 3.50047 0
M  V30 5221 C 506.176 -0.355129 2.75017 0
M  V30 5222 H 509.127 0.2694 1.56397 0
M  V30 5223 H 509.148 -1.76523 3.37075 0
M  V30 5224 H 508.66 -0.013271 3.88098 0
M  V30 5225 H 506.761 -2.29159 2.93798 0
M  V30 5226 H 506.874 -1.3811 4.58762 0
M  V30 5227 H 505.238 -0.826348 2.40922 0
M  V30 5228 H 506.021 0.525172 3.39259 0
M  V30 5229 N 508.466 -1.55915 -0.229846 0
M  V30 5230 C 509.429 -1.90914 -1.26824 0
M  V30 5231 C 510.429 -0.786999 -1.40225 0
M  V30 5232 O 511.619 -1.05484 -1.38632 0
M  V30 5233 C 508.751 -2.15264 -2.64337 0
M  V30 5234 H 509.944 -2.8378 -0.969998 0
M  V30 5235 H 507.497 -1.49069 -0.4699 0
M  V30 5236 H 508.232 -1.24923 -2.99274 0
M  V30 5237 H 508.017 -2.97005 -2.55989 0
M  V30 5238 H 509.507 -2.43467 -3.39284 0
M  V30 5239 N 509.944 0.496216 -1.49584 0
M  V30 5240 C 511.172 1.27394 -1.63029 0
M  V30 5241 C 511.587 1.86344 -0.303569 0
M  V30 5242 O 510.944 1.68057 0.711547 0
M  V30 5243 C 510.995 2.40077 -2.70269 0
M  V30 5244 O 510.716 1.83549 -3.97796 0
M  V30 5245 C 512.217 3.31372 -2.94462 0
M  V30 5246 H 509.437 0.386211 -0.54871 0
M  V30 5247 H 511.981 0.595163 -1.95648 0
M  V30 5248 H 510.136 3.03775 -2.40415 0
M  V30 5249 H 510.55 2.57561 -4.56905 0
M  V30 5250 H 512.024 4.06707 -3.73221 0
M  V30 5251 H 512.501 3.88654 -2.0456 0
M  V30 5252 H 513.107 2.73435 -3.25751 0
M  V30 5253 N 511.423 1.38739 0.74761 0
M  V30 5254 C 512.671 1.35007 1.50391 0
M  V30 5255 C 512.992 -0.0574274 1.94915 0
M  V30 5256 O 512.262 -1.00628 1.6808 0
M  V30 5257 H 510.842 0.496784 0.557866 0
M  V30 5258 H 513.504 1.73479 0.888319 0
M  V30 5259 H 512.6 2.00474 2.392 0
M  V30 5260 N 512.901 -0.976442 1.23707 0
M  V30 5261 C 514.131 -1.75087 1.09673 0
M  V30 5262 C 514.539 -1.85852 -0.354344 0
M  V30 5263 O 513.882 -1.33985 -1.25673 0
M  V30 5264 C 513.944 -3.19272 1.65245 0
M  V30 5265 C 513.608 -3.32004 3.14042 0
M  V30 5266 C 514.605 -3.18017 4.11292 0
M  V30 5267 C 512.29 -3.56525 3.53829 0
M  V30 5268 C 514.284 -3.28363 5.46312 0
M  V30 5269 C 511.971 -3.6651 4.88993 0
M  V30 5270 C 512.969 -3.52439 5.85043 0
M  V30 5271 O 512.657 -3.62063 7.1775 0
M  V30 5272 H 512.389 -0.556164 0.384262 0
M  V30 5273 H 514.943 -1.23518 1.64111 0
M  V30 5274 H 513.173 -3.72107 1.05231 0
M  V30 5275 H 514.862 -3.7849 1.46629 0
M  V30 5276 H 515.628 -2.98966 3.81896 0
M  V30 5277 H 511.507 -3.66547 2.79579 0
M  V30 5278 H 515.051 -3.17297 6.21263 0
M  V30 5279 H 510.948 -3.85072 5.18063 0
M  V30 5280 H 511.716 -3.78833 7.25553 0
M  V30 5281 N 514.379 -1.04941 -1.1758 0
M  V30 5282 C 515.609 -0.777166 -1.91425 0
M  V30 5283 C 516.017 0.670647 -1.76915 0
M  V30 5284 O 515.36 1.46965 -1.10213 0
M  V30 5285 C 515.422 -1.07495 -3.43052 0
M  V30 5286 C 515.086 -2.51844 -3.81345 0
M  V30 5287 C 516.083 -3.50047 -3.844 0
M  V30 5288 C 513.768 -2.86787 -4.12382 0
M  V30 5289 C 515.762 -4.81239 -4.17957 0
M  V30 5290 C 513.449 -4.18182 -4.45608 0
M  V30 5291 C 514.447 -5.15219 -4.48373 0
M  V30 5292 O 514.135 -6.44258 -4.80819 0
M  V30 5293 H 513.867 -0.282209 -0.614275 0
M  V30 5294 H 516.421 -1.40258 -1.50056 0
M  V30 5295 H 514.651 -0.392437 -3.84704 0
M  V30 5296 H 516.34 -0.78912 -3.98155 0
M  V30 5297 H 517.106 -3.24391 -3.60548 0
M  V30 5298 H 512.985 -2.11922 -4.09402 0
M  V30 5299 H 516.529 -5.56974 -4.2003 0
M  V30 5300 H 512.426 -4.43602 -4.68922 0
M  V30 5301 H 513.194 -6.49041 -4.98686 0
M  V30 5302 N 515.857 1.33968 -0.830081 0
M  V30 5303 C 516.789 2.28194 -0.21448 0
M  V30 5304 C 517.802 1.5135 0.599752 0
M  V30 5305 O 518.991 1.73286 0.42826 0
M  V30 5306 C 516.091 3.31221 0.717356 0
M  V30 5307 C 515.264 4.37365 -0.055613 0
M  V30 5308 C 514.323 5.2011 0.798231 0
M  V30 5309 O 513.349 5.68691 0.240616 0
M  V30 5310 N 514.551 5.40523 2.11695 0
M  V30 5311 H 517.316 2.81662 -1.02405 0
M  V30 5312 H 514.877 1.46568 -0.687713 0
M  V30 5313 H 516.869 3.83477 1.29334 0
M  V30 5314 H 515.439 2.78095 1.42765 0
M  V30 5315 H 514.659 3.85727 -0.812936 0
M  V30 5316 H 515.947 5.05397 -0.587444 0
M  V30 5317 H 515.345 5.0274 2.59363 0
M  V30 5318 H 513.902 5.95871 2.64162 0
M  V30 5319 N 517.335 0.585699 1.46312 0
M  V30 5320 C 518.283 -0.158577 2.32059 0
M  V30 5321 C 519.277 -0.881427 1.44662 0
M  V30 5322 O 520.483 -0.799476 1.61271 0
M  V30 5323 H 516.858 -0.0700066 0.748734 0
M  V30 5324 H 518.829 0.583383 2.92642 0
M  V30 5325 C 517.578 -1.15701 3.27885 0
M  V30 5326 H 516.901 -0.610215 3.95116 0
M  V30 5327 H 518.341 -1.64812 3.90657 0
M  V30 5328 C 516.8 -2.21951 2.53455 0
M  V30 5329 O 517.33 -3.29352 2.29978 0
M  V30 5330 N 515.536 -1.9664 2.13965 0
M  V30 5331 H 515.083 -1.09309 2.33258 0
M  V30 5332 H 515.041 -2.6794 1.64485 0
M  V30 5333 N 518.813 -1.54241 0.323641 0
M  V30 5334 C 519.743 -2.27289 -0.534993 0
M  V30 5335 C 520.724 -1.28087 -1.11927 0
M  V30 5336 O 521.909 -1.56899 -1.14439 0
M  V30 5337 C 519.039 -3.03075 -1.69596 0
M  V30 5338 C 517.993 -4.09614 -1.24098 0
M  V30 5339 C 517.319 -4.73242 -2.4889 0
M  V30 5340 C 518.619 -5.21087 -0.355789 0
M  V30 5341 H 520.313 -2.99308 0.0743257 0
M  V30 5342 H 517.859 -1.43952 0.0371874 0
M  V30 5343 H 519.812 -3.52907 -2.30293 0
M  V30 5344 H 518.536 -2.28673 -2.33187 0
M  V30 5345 H 517.195 -3.60666 -0.656945 0
M  V30 5346 H 516.843 -3.95455 -3.10845 0
M  V30 5347 H 516.543 -5.45209 -2.19138 0
M  V30 5348 H 518.067 -5.25848 -3.10348 0
M  V30 5349 H 519.481 -5.66675 -0.869042 0
M  V30 5350 H 517.878 -5.9991 -0.151045 0
M  V30 5351 H 518.948 -4.81005 0.613339 0
M  V30 5352 N 520.291 -0.0518155 -1.57515 0
M  V30 5353 C 521.54 0.621286 -1.91893 0
M  V30 5354 C 521.853 1.71966 -0.932052 0
M  V30 5355 O 523.059 2.45096 -1.16791 0
M  V30 5356 C 521.515 1.15641 -3.40816 0
M  V30 5357 C 521.123 0.0901146 -4.47909 0
M  V30 5358 C 522.867 1.80472 -3.84227 0
M  V30 5359 C 520.774 0.638154 -5.87947 0
M  V30 5360 H 519.704 0.235835 -0.716169 0
M  V30 5361 H 522.355 -0.120809 -1.83102 0
M  V30 5362 H 520.737 1.95084 -3.44613 0
M  V30 5363 H 521.911 -0.683525 -4.55702 0
M  V30 5364 H 520.226 -0.460774 -4.13843 0
M  V30 5365 H 522.823 2.22471 -4.86221 0
M  V30 5366 H 523.166 2.65669 -3.20508 0
M  V30 5367 H 523.699 1.07683 -3.82948 0
M  V30 5368 H 520.438 -0.176202 -6.55263 0
M  V30 5369 H 519.958 1.37976 -5.83714 0
M  V30 5370 H 521.637 1.12085 -6.37217 0
M  V30 5371 N 521.769 1.56035 0.221574 0
M  V30 5372 C 522.994 1.83476 0.967026 0
M  V30 5373 C 523.419 0.632139 1.7716 0
M  V30 5374 O 522.777 -0.419082 1.7639 0
M  V30 5375 C 522.825 3.08907 1.86034 0
M  V30 5376 O 521.929 2.876 2.95567 0
M  V30 5377 H 521.27 0.604913 0.273817 0
M  V30 5378 H 523.8 2.03247 0.234893 0
M  V30 5379 H 523.81 3.3901 2.27016 0
M  V30 5380 H 522.485 3.96068 1.26898 0
M  V30 5381 H 521.062 2.6873 2.58532 0
M  V30 5382 N 523.247 -0.488276 1.49845 0
M  V30 5383 C 524.493 -1.24341 1.6021 0
M  V30 5384 C 524.826 -1.91967 0.293651 0
M  V30 5385 O 524.101 -1.81323 -0.703718 0
M  V30 5386 C 524.384 -2.3005 2.77036 0
M  V30 5387 C 524.237 -1.66842 4.17713 0
M  V30 5388 C 525.556 -3.31509 2.89464 0
M  V30 5389 H 522.675 -0.450704 0.583125 0
M  V30 5390 H 525.317 -0.539673 1.82174 0
M  V30 5391 H 523.467 -2.90071 2.58439 0
M  V30 5392 H 525.139 -1.1055 4.47858 0
M  V30 5393 H 523.382 -0.972079 4.22768 0
M  V30 5394 H 524.053 -2.43576 4.95353 0
M  V30 5395 H 526.529 -2.81493 3.06433 0
M  V30 5396 H 525.405 -4.02822 3.72861 0
M  V30 5397 H 525.666 -3.94603 1.99351 0
M  V30 5398 N 524.725 -1.39134 -0.740242 0
M  V30 5399 C 525.657 -1.33332 -1.86428 0
M  V30 5400 C 526.67 -0.243042 -1.60976 0
M  V30 5401 O 527.859 -0.501608 -1.71307 0
M  V30 5402 C 524.959 -1.04626 -3.22346 0
M  V30 5403 C 524.132 -2.24826 -3.75196 0
M  V30 5404 C 523.191 -1.92659 -4.89662 0
M  V30 5405 O 522.217 -2.6529 -5.03597 0
M  V30 5406 N 523.419 -0.889575 -5.73643 0
M  V30 5407 H 526.184 -2.30196 -1.91911 0
M  V30 5408 H 523.745 -1.33168 -0.920756 0
M  V30 5409 H 525.737 -0.811347 -3.96484 0
M  V30 5410 H 524.307 -0.165129 -3.12164 0
M  V30 5411 H 523.527 -2.64301 -2.9247 0
M  V30 5412 H 524.815 -3.05015 -4.07239 0
M  V30 5413 H 524.213 -0.287529 -5.64969 0
M  V30 5414 H 522.77 -0.714557 -6.47871 0
M  V30 5415 N 526.204 0.969867 -1.24223 0
M  V30 5416 C 527.432 1.74756 -1.10761 0
M  V30 5417 C 527.847 1.85713 0.340041 0
M  V30 5418 O 527.204 1.34389 1.23474 0
M  V30 5419 C 527.255 3.16915 -1.73917 0
M  V30 5420 O 526.976 3.06511 -3.13021 0
M  V30 5421 C 528.477 4.11032 -1.66036 0
M  V30 5422 H 525.697 0.548092 -0.387087 0
M  V30 5423 H 528.241 1.2178 -1.64286 0
M  V30 5424 H 526.396 3.66884 -1.244 0
M  V30 5425 H 526.81 3.96079 -3.43834 0
M  V30 5426 H 528.284 5.08446 -2.14911 0
M  V30 5427 H 528.761 4.34785 -0.621159 0
M  V30 5428 H 529.367 3.66972 -2.14969 0
M  V30 5429 N 527.682 1.05563 1.17022 0
M  V30 5430 C 529.093 0.793475 1.69 0
M  V30 5431 C 529.444 -0.683882 1.83895 0
M  V30 5432 O 528.569 -1.53116 1.5292 0
M  V30 5433 C 529.164 1.43376 3.06967 0
M  V30 5434 C 527.723 1.21956 3.56095 0
M  V30 5435 C 526.87 1.51494 2.3226 0
M  V30 5436 H 529.821 1.22008 1.01487 0
M  V30 5437 H 529.842 0.845068 3.70997 0
M  V30 5438 H 529.354 2.50899 2.96093 0
M  V30 5439 H 527.455 0.163749 3.7224 0
M  V30 5440 H 527.568 1.92713 4.38633 0
M  V30 5441 H 525.932 0.935175 2.3691 0
M  V30 5442 H 526.715 2.60159 2.23992 0
M  V30 5443 N 529.16 -1.33526 0.837174 0
M  V30 5444 C 530.408 -1.97446 0.431211 0
M  V30 5445 C 530.729 -1.6665 -1.01255 0
M  V30 5446 O 529.999 -0.964559 -1.70508 0
M  V30 5447 H 528.579 -0.73043 0.156463 0
M  V30 5448 H 531.241 -1.62918 1.06976 0
M  V30 5449 H 530.337 -3.07001 0.561877 0
M  V30 5450 N 530.638 -0.59345 -1.46 0
M  V30 5451 C 531.588 0.154751 -2.27474 0
M  V30 5452 C 532.572 0.851849 -1.365 0
M  V30 5453 O 533.764 0.744171 -1.60596 0
M  V30 5454 C 530.893 1.16079 -3.2308 0
M  V30 5455 C 529.979 0.465256 -4.2154 0
M  V30 5456 N 530.37 -0.485197 -5.03467 0
M  V30 5457 C 528.668 0.714634 -4.40237 0
M  V30 5458 C 529.369 -0.892709 -5.74809 0
M  V30 5459 N 528.345 -0.239511 -5.43072 0
M  V30 5460 H 532.147 -0.57546 -2.88211 0
M  V30 5461 H 529.661 -0.416046 -1.5698 0
M  V30 5462 H 531.658 1.71108 -3.80168 0
M  V30 5463 H 530.318 1.89171 -2.63903 0
M  V30 5464 H 531.329 -0.861258 -5.10689 0
M  V30 5465 H 528.006 1.43131 -3.92199 0
M  V30 5466 H 529.396 -1.67581 -6.50666 0
M  V30 5467 N 532.116 1.54067 -0.331816 0
M  V30 5468 C 533.079 2.23275 0.517768 0
M  V30 5469 C 534.079 1.22897 1.03697 0
M  V30 5470 O 535.269 1.47419 0.928084 0
M  V30 5471 C 532.401 2.94326 1.72004 0
M  V30 5472 H 533.594 2.99773 -0.0873507 0
M  V30 5473 H 531.147 1.56079 -0.0830042 0
M  V30 5474 H 531.882 2.21986 2.36417 0
M  V30 5475 H 531.667 3.67941 1.35507 0
M  V30 5476 H 533.157 3.47031 2.32291 0
M  V30 5477 N 533.594 0.0601682 1.57485 0
M  V30 5478 C 534.542 -0.928899 2.13247 0
M  V30 5479 C 535.536 -1.31616 1.06647 0
M  V30 5480 O 536.742 -1.29476 1.25043 0
M  V30 5481 H 533.117 -0.317455 0.681708 0
M  V30 5482 H 535.088 -0.433566 2.95233 0
M  V30 5483 C 533.837 -2.19121 2.69965 0
M  V30 5484 H 533.16 -1.90204 3.51657 0
M  V30 5485 H 534.6 -2.86465 3.12592 0
M  V30 5486 C 533.059 -2.94195 1.64168 0
M  V30 5487 O 533.589 -3.87468 1.05978 0
M  V30 5488 N 531.795 -2.57089 1.35476 0
M  V30 5489 H 531.342 -1.81314 1.82984 0
M  V30 5490 H 531.3 -3.07624 0.649196 0
M  V30 5491 N 535.072 -1.5615 -0.213296 0
M  V30 5492 C 536.004 -1.89586 -1.28802 0
M  V30 5493 C 537.017 -0.784844 -1.42633 0
M  V30 5494 O 538.206 -1.06319 -1.43383 0
M  V30 5495 C 535.306 -2.09665 -2.66259 0
M  V30 5496 C 534.479 -3.40726 -2.7427 0
M  V30 5497 C 533.538 -3.50137 -3.92798 0
M  V30 5498 O 532.564 -4.23105 -3.8075 0
M  V30 5499 N 533.766 -2.81886 -5.07465 0
M  V30 5500 H 536.531 -2.82368 -1.00442 0
M  V30 5501 H 534.092 -1.56796 -0.403302 0
M  V30 5502 H 536.084 -2.13268 -3.43946 0
M  V30 5503 H 534.654 -1.23469 -2.87183 0
M  V30 5504 H 533.874 -3.4915 -1.82997 0
M  V30 5505 H 535.162 -4.27048 -2.76599 0
M  V30 5506 H 534.56 -2.22397 -5.2015 0
M  V30 5507 H 533.117 -2.91139 -5.83165 0
M  V30 5508 N 536.55 0.480323 -1.50102 0
M  V30 5509 C 537.775 1.26126 -1.64642 0
M  V30 5510 C 538.2 1.85257 -0.325823 0
M  V30 5511 O 537.558 1.66854 0.709194 0
M  V30 5512 C 537.606 2.35243 -2.73301 0
M  V30 5513 O 536.71 3.39646 -2.33911 0
M  V30 5514 H 536.051 0.371463 -0.550374 0
M  V30 5515 H 538.581 0.572696 -1.96421 0
M  V30 5516 H 538.591 2.80695 -2.96098 0
M  V30 5517 H 537.266 1.91574 -3.6915 0
M  V30 5518 H 535.843 2.99969 -2.21525 0
M  V30 5519 N 538.028 1.39524 0.732853 0
M  V30 5520 C 538.961 1.32806 1.85574 0
M  V30 5521 C 539.939 0.201354 1.61348 0
M  V30 5522 O 541.123 0.38216 1.84585 0
M  V30 5523 C 538.25 1.06271 3.21596 0
M  V30 5524 C 537.296 2.21161 3.64678 0
M  V30 5525 S 538.129 3.83454 3.73796 0
M  V30 5526 C 539.285 3.59149 5.12604 0
M  V30 5527 H 539.518 2.27838 1.9099 0
M  V30 5528 H 537.051 1.25605 0.897927 0
M  V30 5529 H 539.009 0.916461 4.00139 0
M  V30 5530 H 537.67 0.129223 3.13834 0
M  V30 5531 H 536.863 1.98193 4.63396 0
M  V30 5532 H 536.465 2.32 2.93346 0
M  V30 5533 H 538.757 3.16547 5.99003 0
M  V30 5534 H 539.7 4.57335 5.40602 0
M  V30 5535 H 540.108 2.93203 4.82382 0
M  V30 5536 N 539.506 -0.963266 1.24736 0
M  V30 5537 C 540.439 -2.05758 0.986852 0
M  V30 5538 C 541.417 -1.62398 -0.0809272 0
M  V30 5539 O 542.601 -1.88414 0.0569347 0
M  V30 5540 C 539.728 -3.35135 0.490095 0
M  V30 5541 C 538.774 -3.97451 1.54709 0
M  V30 5542 S 539.607 -4.34519 3.12976 0
M  V30 5543 C 540.763 -5.67026 2.65014 0
M  V30 5544 H 540.996 -2.27539 1.91346 0
M  V30 5545 H 538.529 -1.10176 1.08169 0
M  V30 5546 H 540.487 -4.09962 0.21012 0
M  V30 5547 H 539.148 -3.11335 -0.415873 0
M  V30 5548 H 538.341 -4.90704 1.15003 0
M  V30 5549 H 537.943 -3.29071 1.77731 0
M  V30 5550 H 540.235 -6.44748 2.08102 0
M  V30 5551 H 541.178 -6.11594 3.56873 0
M  V30 5552 H 541.586 -5.25847 2.05294 0
M  V30 5553 N 540.985 -1.06182 -1.16461 0
M  V30 5554 C 542.396 -0.802426 -1.68576 0
M  V30 5555 C 542.747 0.67412 -1.84255 0
M  V30 5556 O 541.872 1.52303 -1.5373 0
M  V30 5557 C 542.467 -1.45002 -3.06202 0
M  V30 5558 C 541.026 -1.23843 -3.55443 0
M  V30 5559 C 540.173 -1.52724 -2.31454 0
M  V30 5560 H 543.124 -1.22545 -1.00839 0
M  V30 5561 H 543.145 -0.864731 -3.70544 0
M  V30 5562 H 542.657 -2.52466 -2.94759 0
M  V30 5563 H 540.758 -0.183487 -3.72148 0
M  V30 5564 H 540.871 -1.95036 -4.37604 0
M  V30 5565 H 539.235 -0.947726 -2.36411 0
M  V30 5566 H 540.018 -2.61343 -2.22609 0
M  V30 5567 N 542.463 1.3308 -0.844243 0
M  V30 5568 C 543.395 2.27954 -0.238671 0
M  V30 5569 C 544.408 1.51978 0.583665 0
M  V30 5570 O 545.597 1.73731 0.409857 0
M  V30 5571 C 542.697 3.31963 0.682185 0
M  V30 5572 C 541.87 4.37281 -0.101998 0
M  V30 5573 C 540.929 5.20928 0.743022 0
M  V30 5574 O 539.955 5.68914 0.180285 0
M  V30 5575 N 541.157 5.42738 2.0595 0
M  V30 5576 H 543.922 2.8056 -1.05386 0
M  V30 5577 H 541.483 1.4583 -0.70322 0
M  V30 5578 H 543.475 3.84828 1.25259 0
M  V30 5579 H 542.045 2.79594 1.39808 0
M  V30 5580 H 541.265 3.84843 -0.853802 0
M  V30 5581 H 542.553 5.04746 -0.641015 0
M  V30 5582 H 541.951 5.05463 2.54016 0
M  V30 5583 H 540.508 5.98639 2.57827 0
M  V30 5584 N 543.941 0.601185 1.45683 0
M  V30 5585 C 545.188 0.0938811 2.02282 0
M  V30 5586 C 545.516 -1.27315 1.47041 0
M  V30 5587 O 544.771 -1.85193 0.632623 0
M  V30 5588 C 545.07 -0.00222425 3.574 0
M  V30 5589 C 544.736 1.29963 4.31764 0
M  V30 5590 C 543.398 1.65625 4.51798 0
M  V30 5591 C 545.75 2.1603 4.74321 0
M  V30 5592 C 543.078 2.87119 5.11644 0
M  V30 5593 C 545.43 3.36766 5.3551 0
M  V30 5594 C 544.094 3.72689 5.53768 0
M  V30 5595 H 543.364 0.0343535 0.740203 0
M  V30 5596 H 546.011 0.781522 1.74827 0
M  V30 5597 H 544.316 -0.773096 3.84097 0
M  V30 5598 H 546.013 -0.410794 3.9889 0
M  V30 5599 H 542.603 1.01204 4.1648 0
M  V30 5600 H 546.787 1.89778 4.58582 0
M  V30 5601 H 542.043 3.15065 5.2397 0
M  V30 5602 H 546.217 4.03713 5.67441 0
M  V30 5603 H 543.844 4.66918 5.99909 0
M  V30 5604 N 545.419 -1.53889 0.339982 0
M  V30 5605 C 546.668 -2.00035 -0.258604 0
M  V30 5606 C 546.981 -1.23179 -1.51942 0
M  V30 5607 O 548.187 -1.59784 -2.19503 0
M  V30 5608 C 546.643 -3.56249 -0.511359 0
M  V30 5609 C 546.251 -4.41957 0.733349 0
M  V30 5610 C 547.995 -4.1082 -1.069 0
M  V30 5611 C 545.902 -5.89673 0.451591 0
M  V30 5612 H 544.832 -0.747284 -0.10041 0
M  V30 5613 H 547.483 -1.77776 0.454758 0
M  V30 5614 H 545.865 -3.7456 -1.28533 0
M  V30 5615 H 547.039 -4.35421 1.50815 0
M  V30 5616 H 545.354 -3.9836 1.21237 0
M  V30 5617 H 547.951 -5.18789 -1.2947 0
M  V30 5618 H 548.294 -3.63817 -2.02343 0
M  V30 5619 H 548.827 -3.96205 -0.355817 0
M  V30 5620 H 545.566 -6.40903 1.37565 0
M  V30 5621 H 545.086 -5.99122 -0.285193 0
M  V30 5622 H 546.765 -6.46965 0.0675067 0
M  V30 5623 N 546.897 -0.0685191 -1.57451 0
M  V30 5624 C 547.83 0.935736 -2.08133 0
M  V30 5625 C 548.808 1.29317 -0.985698 0
M  V30 5626 O 549.992 1.40304 -1.25886 0
M  V30 5627 C 547.119 2.2448 -2.53627 0
M  V30 5628 C 546.165 2.03917 -3.74593 0
M  V30 5629 S 546.998 1.30154 -5.19442 0
M  V30 5630 C 548.154 2.62346 -5.68265 0
M  V30 5631 H 548.387 0.504473 -2.92989 0
M  V30 5632 H 545.92 0.144169 -1.53725 0
M  V30 5633 H 547.878 2.99718 -2.80499 0
M  V30 5634 H 546.539 2.64731 -1.69045 0
M  V30 5635 H 545.732 3.00788 -4.04404 0
M  V30 5636 H 545.334 1.36815 -3.48077 0
M  V30 5637 H 547.626 3.58448 -5.7491 0
M  V30 5638 H 548.569 2.3715 -6.67207 0
M  V30 5639 H 548.977 2.69401 -4.96068 0
M  V30 5640 N 548.375 1.56261 0.205012 0
M  V30 5641 C 549.786 1.70056 0.770574 0
M  V30 5642 C 550.137 0.673398 1.84282 0
M  V30 5643 O 549.262 -0.172196 2.15714 0
M  V30 5644 C 549.857 3.08316 1.40451 0
M  V30 5645 C 548.416 3.2391 1.91727 0
M  V30 5646 C 547.563 2.66001 0.783516 0
M  V30 5647 H 550.514 1.58688 -0.019911 0
M  V30 5648 H 550.535 3.05094 2.27371 0
M  V30 5649 H 550.047 3.83053 0.623882 0
M  V30 5650 H 548.148 2.54072 2.7254 0
M  V30 5651 H 548.261 4.3131 2.08588 0
M  V30 5652 H 546.625 2.24915 1.19521 0
M  V30 5653 H 547.408 3.43297 0.0152883 0
M  V30 5654 N 549.853 -0.472356 1.50355 0
M  V30 5655 C 550.816 -1.5529 1.68576 0
M  V30 5656 C 551.816 -1.50863 0.556511 0
M  V30 5657 O 553.006 -1.53505 0.823516 0
M  V30 5658 C 550.138 -2.94921 1.70981 0
M  V30 5659 H 551.331 -1.40451 2.64978 0
M  V30 5660 H 548.884 -0.698645 1.39816 0
M  V30 5661 H 549.619 -3.15204 0.762675 0
M  V30 5662 H 549.404 -2.99541 2.53017 0
M  V30 5663 H 550.894 -3.73372 1.87037 0
M  V30 5664 N 551.331 -1.39911 -0.725443 0
M  V30 5665 C 552.279 -1.39552 -1.86086 0
M  V30 5666 C 553.273 -0.277334 -1.67114 0
M  V30 5667 O 554.479 -0.447865 -1.74339 0
M  V30 5668 H 550.854 -0.435993 -0.612711 0
M  V30 5669 H 552.825 -2.35305 -1.83505 0
M  V30 5670 C 551.574 -1.26529 -3.2386 0
M  V30 5671 H 550.897 -2.11845 -3.3906 0
M  V30 5672 H 552.337 -1.30336 -4.03471 0
M  V30 5673 C 550.796 0.0254168 -3.3689 0
M  V30 5674 O 551.326 0.992048 -3.89257 0
M  V30 5675 N 549.532 0.0916528 -2.90455 0
M  V30 5676 H 549.079 -0.695675 -2.48028 0
M  V30 5677 H 549.037 0.954745 -2.99553 0
M  V30 5678 N 552.809 0.956637 -1.25245 0
M  V30 5679 C 553.757 2.0743 -1.0524 0
M  V30 5680 C 554.751 1.69392 0.0160725 0
M  V30 5681 O 555.957 1.7946 -0.139382 0
M  V30 5682 H 552.332 0.678921 -0.323373 0
M  V30 5683 H 554.303 2.2146 -1.99995 0
M  V30 5684 C 553.052 3.40872 -0.685702 0
M  V30 5685 H 552.375 3.70607 -1.49968 0
M  V30 5686 H 553.815 4.19939 -0.585415 0
M  V30 5687 C 552.274 3.31367 0.608082 0
M  V30 5688 O 552.804 3.66214 1.65076 0
M  V30 5689 N 551.01 2.84486 0.592955 0
M  V30 5690 H 550.557 2.56326 -0.25592 0
M  V30 5691 H 550.515 2.78509 1.45877 0
M  V30 5692 N 554.287 1.06798 1.15896 0
M  V30 5693 C 555.219 0.641263 2.20046 0
M  V30 5694 C 556.232 -0.303355 1.59949 0
M  V30 5695 O 557.421 -0.0935478 1.78255 0
M  V30 5696 C 554.521 -0.0794029 3.38807 0
M  V30 5697 C 553.694 0.879986 4.28457 0
M  V30 5698 C 552.753 0.197638 5.25829 0
M  V30 5699 O 551.779 0.836913 5.63014 0
M  V30 5700 N 552.981 -1.05886 5.70761 0
M  V30 5701 H 555.746 1.53718 2.57276 0
M  V30 5702 H 553.307 0.951951 1.30956 0
M  V30 5703 H 555.299 -0.546418 4.00994 0
M  V30 5704 H 553.869 -0.877193 3.0004 0
M  V30 5705 H 553.089 1.52625 3.63454 0
M  V30 5706 H 554.377 1.53065 4.8523 0
M  V30 5707 H 553.775 -1.59828 5.42652 0
M  V30 5708 H 552.332 -1.46965 6.35015 0
M  V30 5709 N 555.766 -1.3263 0.851289 0
M  V30 5710 C 557.013 -1.97368 0.453023 0
M  V30 5711 C 557.341 -1.67384 -0.990596 0
M  V30 5712 O 556.596 -0.952665 -1.70947 0
M  V30 5713 C 556.895 -3.51713 0.635015 0
M  V30 5714 C 556.561 -4.01676 2.04859 0
M  V30 5715 C 555.223 -4.15031 2.43522 0
M  V30 5716 C 557.575 -4.28206 2.97135 0
M  V30 5717 C 554.903 -4.52257 3.73739 0
M  V30 5718 C 557.255 -4.66889 4.26846 0
M  V30 5719 C 555.919 -4.7845 4.65448 0
M  V30 5720 H 555.189 -0.722219 0.165773 0
M  V30 5721 H 557.836 -1.58092 1.0807 0
M  V30 5722 H 556.141 -3.91726 -0.0759081 0
M  V30 5723 H 557.838 -3.99823 0.306964 0
M  V30 5724 H 554.428 -3.91764 1.73836 0
M  V30 5725 H 558.612 -4.174 2.68498 0
M  V30 5726 H 553.868 -4.59402 4.03435 0
M  V30 5727 H 558.042 -4.86372 4.98413 0
M  V30 5728 H 555.669 -5.07052 5.66395 0
M  V30 5729 N 557.244 -0.608902 -1.45362 0
M  V30 5730 C 558.469 -0.10921 -2.07112 0
M  V30 5731 C 558.894 1.19779 -1.45033 0
M  V30 5732 O 558.252 1.72961 -0.543527 0
M  V30 5733 C 558.3 0.0155745 -3.60597 0
M  V30 5734 O 557.404 1.06546 -3.98399 0
M  V30 5735 H 556.745 -0.0746619 -0.659789 0
M  V30 5736 H 559.275 -0.839283 -1.86594 0
M  V30 5737 H 559.285 0.213364 -4.07442 0
M  V30 5738 H 557.96 -0.938765 -4.05167 0
M  V30 5739 H 556.537 0.844024 -3.63223 0
M  V30 5740 N 558.722 1.53707 -0.348139 0
M  V30 5741 C 559.685 2.23812 0.494058 0
M  V30 5742 C 560.685 1.23989 1.02388 0
M  V30 5743 O 561.875 1.48395 0.912396 0
M  V30 5744 C 559.007 2.96133 1.68872 0
M  V30 5745 H 560.2 2.99663 -0.119141 0
M  V30 5746 H 557.753 1.55983 -0.0995539 0
M  V30 5747 H 558.488 2.24481 2.34049 0
M  V30 5748 H 558.273 3.69357 1.31596 0
M  V30 5749 H 559.763 3.49475 2.28597 0
M  V30 5750 N 560.2 0.0768682 1.57412 0
M  V30 5751 C 561.132 -0.918248 2.10002 0
M  V30 5752 C 562.145 -1.25808 1.03325 0
M  V30 5753 O 563.334 -1.21438 1.30824 0
M  V30 5754 C 560.434 -2.23263 2.54964 0
M  V30 5755 C 559.607 -2.07088 3.8527 0
M  V30 5756 C 558.666 -3.21876 4.16272 0
M  V30 5757 O 557.692 -2.96643 4.8579 0
M  V30 5758 N 558.894 -4.4712 3.70221 0
M  V30 5759 H 561.659 -0.469209 2.96004 0
M  V30 5760 H 559.22 -0.108725 1.61535 0
M  V30 5761 H 561.212 -2.9897 2.72762 0
M  V30 5762 H 559.782 -2.59649 1.74072 0
M  V30 5763 H 559.002 -1.15818 3.76802 0
M  V30 5764 H 560.29 -1.93537 4.70554 0
M  V30 5765 H 559.688 -4.70506 3.1407 0
M  V30 5766 H 558.245 -5.19837 3.93209 0
M  V30 5767 N 561.678 -1.56367 -0.196722 0
M  V30 5768 C 562.608 -1.97442 -1.24655 0
M  V30 5769 C 563.589 -0.846147 -1.47561 0
M  V30 5770 O 564.774 -1.11035 -1.59326 0
M  V30 5771 C 561.904 -2.31253 -2.59112 0
M  V30 5772 C 560.858 -3.46804 -2.50821 0
M  V30 5773 C 560.184 -3.66286 -3.89536 0
M  V30 5774 C 561.484 -4.8104 -2.03465 0
M  V30 5775 H 563.178 -2.85388 -0.905216 0
M  V30 5776 H 560.724 -1.37304 -0.434002 0
M  V30 5777 H 562.677 -2.58583 -3.32736 0
M  V30 5778 H 561.401 -1.40188 -2.94983 0
M  V30 5779 H 560.06 -3.19563 -1.79653 0
M  V30 5780 H 559.708 -2.72555 -4.22756 0
M  V30 5781 H 559.408 -4.4402 -3.84864 0
M  V30 5782 H 560.932 -3.9599 -4.64784 0
M  V30 5783 H 562.346 -5.07411 -2.66846 0
M  V30 5784 H 560.743 -5.62232 -2.09798 0
M  V30 5785 H 561.813 -4.74732 -0.98781 0
M  V30 5786 N 563.156 0.464375 -1.50603 0
M  V30 5787 C 564.433 1.22549 -1.5245 0
M  V30 5788 C 564.813 2.09327 -0.273035 0
M  V30 5789 O 564.161 2.16074 0.743242 0
M  V30 5790 C 564.371 2.05074 -2.82393 0
M  V30 5791 C 565.719 2.63036 -3.33313 0
M  V30 5792 O 566.743 2.1531 -2.8376 0
M  V30 5793 O 565.602 3.5001 -4.19709 0
M  V30 5794 H 562.696 0.556471 -0.611775 0
M  V30 5795 H 565.242 0.475648 -1.62898 0
M  V30 5796 H 564.014 1.41169 -3.64948 0
M  V30 5797 H 563.637 2.87179 -2.7498 0
M  V30 5798 N 564.634 1.40294 0.718013 0
M  V30 5799 C 565.584 1.36847 1.82365 0
M  V30 5800 C 566.568 0.246424 1.59002 0
M  V30 5801 O 567.76 0.485336 1.70216 0
M  V30 5802 C 564.889 1.23105 3.20469 0
M  V30 5803 C 563.975 2.4008 3.49603 0
M  V30 5804 N 564.366 3.65562 3.49568 0
M  V30 5805 C 562.664 2.33407 3.80049 0
M  V30 5806 C 563.365 4.43015 3.76978 0
M  V30 5807 N 562.341 3.72823 3.95606 0
M  V30 5808 H 566.143 2.31811 1.80668 0
M  V30 5809 H 563.657 1.34031 0.91703 0
M  V30 5810 H 565.654 1.18718 3.9964 0
M  V30 5811 H 564.314 0.291056 3.23393 0
M  V30 5812 H 565.325 3.98756 3.30476 0
M  V30 5813 H 562.002 1.47762 3.90478 0
M  V30 5814 H 563.392 5.51859 3.83276 0
M  V30 5815 N 566.112 -0.949982 1.2575 0
M  V30 5816 C 567.042 -2.06483 1.09028 0
M  V30 5817 C 568.023 -1.701 -0.00201532 0
M  V30 5818 O 569.208 -1.93469 0.168383 0
M  V30 5819 C 566.338 -3.39899 0.71316 0
M  V30 5820 C 565.292 -3.90309 1.75621 0
M  V30 5821 C 564.618 -5.20274 1.23365 0
M  V30 5822 C 565.918 -4.16169 3.15596 0
M  V30 5823 H 567.612 -2.20731 2.02283 0
M  V30 5824 H 565.158 -1.06066 0.973964 0
M  V30 5825 H 567.111 -4.17346 0.58309 0
M  V30 5826 H 565.835 -3.25602 -0.255091 0
M  V30 5827 H 564.494 -3.15035 1.8748 0
M  V30 5828 H 564.142 -5.02351 0.255491 0
M  V30 5829 H 563.842 -5.54971 1.93082 0
M  V30 5830 H 565.366 -6.00314 1.11607 0
M  V30 5831 H 566.78 -4.84259 3.06864 0
M  V30 5832 H 565.177 -4.62131 3.82825 0
M  V30 5833 H 566.247 -3.22273 3.6231 0
M  V30 5834 N 567.59 -1.07411 -1.15328 0
M  V30 5835 C 568.553 -0.698914 -2.18284 0
M  V30 5836 C 569.553 0.261149 -1.58665 0
M  V30 5837 O 570.743 0.0420277 -1.74149 0
M  V30 5838 C 567.875 -0.0302427 -3.40887 0
M  V30 5839 H 569.068 -1.61045 -2.52991 0
M  V30 5840 H 566.621 -0.870724 -1.298 0
M  V30 5841 H 567.356 0.893505 -3.11748 0
M  V30 5842 H 567.141 -0.720759 -3.85419 0
M  V30 5843 H 568.631 0.21759 -4.17033 0
M  V30 5844 N 569.068 1.32177 -0.85831 0
M  V30 5845 C 569.978 2.32561 -0.308606 0
M  V30 5846 C 570.994 1.64209 0.575462 0
M  V30 5847 O 572.17 1.95719 0.474961 0
M  V30 5848 C 569.235 3.43207 0.490909 0
M  V30 5849 C 568.296 4.27243 -0.419733 0
M  V30 5850 C 567.529 5.32605 0.341719 0
M  V30 5851 O 567.752 5.48332 1.57125 0
M  V30 5852 O 566.686 6.0118 -0.294379 0
M  V30 5853 H 570.512 2.81477 -1.14037 0
M  V30 5854 H 568.097 1.35866 -0.621349 0
M  V30 5855 H 569.979 4.10677 0.944574 0
M  V30 5856 H 568.654 2.96474 1.29941 0
M  V30 5857 H 567.561 3.62569 -0.921652 0
M  V30 5858 H 568.894 4.7751 -1.19352 0
M  V30 5859 N 570.547 0.616602 1.45037 0
M  V30 5860 C 571.51 -0.0871112 2.29034 0
M  V30 5861 C 572.51 -0.786414 1.40258 0
M  V30 5862 O 573.7 -0.633207 1.62284 0
M  V30 5863 C 570.832 -1.13369 3.21497 0
M  V30 5864 H 572.025 0.651497 2.92738 0
M  V30 5865 H 569.578 0.376058 1.51709 0
M  V30 5866 H 570.313 -1.90277 2.62612 0
M  V30 5867 H 570.098 -0.636358 3.86902 0
M  V30 5868 H 571.588 -1.62627 3.84633 0
M  V30 5869 N 572.025 -1.5352 0.356285 0
M  V30 5870 C 573.271 -2.01414 -0.236653 0
M  V30 5871 C 573.604 -1.24339 -1.49176 0
M  V30 5872 O 572.879 -0.334496 -1.91602 0
M  V30 5873 C 573.162 -3.56059 -0.537982 0
M  V30 5874 C 573.015 -4.43835 0.730112 0
M  V30 5875 C 574.334 -4.19127 -1.34239 0
M  V30 5876 H 571.453 -0.732135 -0.0845386 0
M  V30 5877 H 574.095 -1.83854 0.479341 0
M  V30 5878 H 572.245 -3.71153 -1.14795 0
M  V30 5879 H 573.917 -4.40555 1.36782 0
M  V30 5880 H 572.16 -4.1218 1.3524 0
M  V30 5881 H 572.831 -5.49958 0.474358 0
M  V30 5882 H 575.307 -4.07809 -0.826498 0
M  V30 5883 H 574.183 -5.27378 -1.52198 0
M  V30 5884 H 574.444 -3.74581 -2.34822 0
M  V30 5885 N 573.503 -0.0852151 -1.57369 0
M  V30 5886 C 574.752 0.580443 -1.93168 0
M  V30 5887 C 575.065 1.6995 -0.968319 0
M  V30 5888 O 576.271 2.42564 -1.21963 0
M  V30 5889 C 574.727 1.08386 -3.43192 0
M  V30 5890 C 574.335 -0.00491388 -4.48 0
M  V30 5891 C 576.079 1.72281 -3.87968 0
M  V30 5892 C 573.986 0.513299 -5.89168 0
M  V30 5893 H 572.916 0.22059 -0.72101 0
M  V30 5894 H 575.567 -0.159621 -1.82804 0
M  V30 5895 H 573.949 1.8773 -3.48674 0
M  V30 5896 H 575.123 -0.780032 -4.5415 0
M  V30 5897 H 573.438 -0.548453 -4.12772 0
M  V30 5898 H 576.035 2.12108 -4.9083 0
M  V30 5899 H 576.378 2.58811 -3.26071 0
M  V30 5900 H 576.911 0.995359 -3.85146 0
M  V30 5901 H 573.65 -0.315153 -6.54742 0
M  V30 5902 H 573.17 1.25564 -5.8651 0
M  V30 5903 H 574.849 0.985433 -6.39451 0
M  V30 5904 N 574.981 1.5647 0.188427 0
M  V30 5905 C 575.929 1.95971 1.25293 0
M  V30 5906 C 576.923 0.846047 1.4676 0
M  V30 5907 O 578.129 1.03109 1.47542 0
M  V30 5908 H 574.504 0.623253 0.420784 0
M  V30 5909 H 576.475 2.84731 0.892792 0
M  V30 5910 C 575.224 2.32116 2.58877 0
M  V30 5911 H 574.547 3.17341 2.43176 0
M  V30 5912 H 575.987 2.63613 3.3209 0
M  V30 5913 C 574.446 1.15823 3.16365 0
M  V30 5914 O 574.976 0.436785 3.99318 0
M  V30 5915 N 573.182 0.933278 2.75206 0
M  V30 5916 H 572.729 1.52169 2.07852 0
M  V30 5917 H 572.687 0.156976 3.14008 0
M  V30 5918 N 576.459 -0.456382 1.50847 0
M  V30 5919 C 577.407 -1.57318 1.71329 0
M  V30 5920 C 578.401 -1.59187 0.579287 0
M  V30 5921 O 579.607 -1.6316 0.76018 0
M  V30 5922 H 575.982 -0.5223 0.541024 0
M  V30 5923 H 577.953 -1.3721 2.64983 0
M  V30 5924 C 576.702 -2.95142 1.83811 0
M  V30 5925 H 576.025 -2.94428 2.70467 0
M  V30 5926 H 577.465 -3.72702 2.02161 0
M  V30 5927 C 575.924 -3.31636 0.593224 0
M  V30 5928 O 576.454 -4.00852 -0.260898 0
M  V30 5929 N 574.66 -2.87205 0.442902 0
M  V30 5930 H 574.207 -2.31051 1.13901 0
M  V30 5931 H 574.165 -3.11986 -0.38884 0
M  V30 5932 N 577.937 -1.40673 -0.710563 0
M  V30 5933 C 578.884 -1.41336 -1.82463 0
M  V30 5934 C 579.854 -0.269648 -1.63897 0
M  V30 5935 O 581.039 -0.468463 -1.8496 0
M  V30 5936 C 578.179 -1.28665 -3.20218 0
M  V30 5937 C 577.292 -2.52784 -3.5032 0
M  V30 5938 C 576.427 -2.32517 -4.77608 0
M  V30 5939 C 575.466 -3.52187 -5.0063 0
M  V30 5940 N 574.603 -3.31084 -6.19135 0
M  V30 5941 H 579.443 -2.36558 -1.8123 0
M  V30 5942 H 576.98 -1.17483 -0.885226 0
M  V30 5943 H 578.938 -1.19324 -3.99772 0
M  V30 5944 H 577.568 -0.370602 -3.20666 0
M  V30 5945 H 576.62 -2.72634 -2.65283 0
M  V30 5946 H 577.932 -3.41845 -3.63241 0
M  V30 5947 H 577.086 -2.20558 -5.65189 0
M  V30 5948 H 575.825 -1.40889 -4.66906 0
M  V30 5949 H 574.83 -3.64617 -4.11502 0
M  V30 5950 H 576.055 -4.44749 -5.13201 0
M  V30 5951 H 574.001 -2.42143 -6.09674 0
M  V30 5952 H 573.918 -4.13713 -6.32754 0
M  V30 5953 H 575.186 -3.22868 -7.0949 0
M  V30 5954 N 579.415 0.9433 -1.26252 0
M  V30 5955 C 580.826 1.50404 -1.10614 0
M  V30 5956 C 581.177 1.93666 0.31429 0
M  V30 5957 O 580.302 1.79709 1.20555 0
M  V30 5958 C 580.897 2.73336 -2.00182 0
M  V30 5959 C 579.456 3.25686 -1.88695 0
M  V30 5960 C 578.603 1.98474 -1.93658 0
M  V30 5961 H 581.554 0.759006 -1.39373 0
M  V30 5962 H 581.575 3.47567 -1.54847 0
M  V30 5963 H 581.087 2.41818 -3.03555 0
M  V30 5964 H 579.188 3.61998 -0.882489 0
M  V30 5965 H 579.301 3.92935 -2.74115 0
M  V30 5966 H 577.665 2.14278 -1.37684 0
M  V30 5967 H 578.448 1.6929 -2.98657 0
M  V30 5968 N 580.893 1.08022 1.14757 0
M  V30 5969 C 582.139 0.808705 1.85978 0
M  V30 5970 C 582.472 -0.663764 1.82504 0
M  V30 5971 O 581.747 -1.48765 1.25296 0
M  V30 5972 C 582.03 1.32623 3.34788 0
M  V30 5973 C 581.883 2.86375 3.46856 0
M  V30 5974 C 583.202 0.948291 4.29762 0
M  V30 5975 H 580.321 0.295244 0.675278 0
M  V30 5976 H 582.963 1.33917 1.34783 0
M  V30 5977 H 581.113 0.875002 3.78518 0
M  V30 5978 H 582.785 3.39839 3.11941 0
M  V30 5979 H 581.028 3.24232 2.88194 0
M  V30 5980 H 581.699 3.17658 4.51439 0
M  V30 5981 H 584.175 1.33722 3.94028 0
M  V30 5982 H 583.051 1.33765 5.32352 0
M  V30 5983 H 583.312 -0.145094 4.41862 0
M  V30 5984 N 582.371 -1.3172 0.865308 0
M  V30 5985 C 583.787 -1.4958 0.556596 0
M  V30 5986 C 583.987 -1.79763 -0.910353 0
M  V30 5987 O 583.043 -1.87351 -1.6928 0
M  V30 5988 C 584.356 -2.63277 1.45279 0
M  V30 5989 C 585.904 -2.77161 1.45433 0
M  V30 5990 C 586.379 -3.93949 2.33598 0
M  V30 5991 N 587.87 -4.01228 2.31453 0
M  V30 5992 C 588.605 -4.90855 2.96393 0
M  V30 5993 N 588.101 -5.85416 3.70486 0
M  V30 5994 N 589.894 -4.84063 2.85726 0
M  V30 5995 H 582.045 -1.10396 1.81456 0
M  V30 5996 H 584.308 -0.54507 0.775631 0
M  V30 5997 H 584.014 -2.47734 2.49641 0
M  V30 5998 H 583.888 -3.59309 1.14792 0
M  V30 5999 H 586.275 -2.9212 0.41831 0
M  V30 6000 H 586.356 -1.8181 1.79941 0
M  V30 6001 H 586 -3.79748 3.37274 0
M  V30 6002 H 585.93 -4.88598 1.96417 0
M  V30 6003 H 588.421 -3.3357 1.77593 0
M  V30 6004 H 588.734 -6.50525 4.17178 0
M  V30 6005 H 587.079 -5.85409 3.74594 0
M  V30 6006 H 590.27 -4.09163 2.27384 0
M  V30 6007 H 590.443 -5.53708 3.36617 0
M  V30 6008 N 583.85 -0.624285 -1.44708 0
M  V30 6009 C 585.075 -0.131171 -2.06985 0
M  V30 6010 C 585.5 1.18234 -1.46295 0
M  V30 6011 O 584.858 1.72375 -0.561842 0
M  V30 6012 C 584.906 -0.0226724 -3.60593 0
M  V30 6013 O 584.01 1.02314 -3.99507 0
M  V30 6014 H 583.351 -0.0816556 -0.65896 0
M  V30 6015 H 585.88 -0.859027 -1.85693 0
M  V30 6016 H 585.891 0.170138 -4.07645 0
M  V30 6017 H 584.566 -0.981685 -4.04148 0
M  V30 6018 H 583.143 0.805452 -3.64097 0
M  V30 6019 N 585.328 1.53329 -0.364422 0
M  V30 6020 C 586.739 1.86345 0.115039 0
M  V30 6021 C 587.09 1.28505 1.4826 0
M  V30 6022 O 586.215 0.606639 2.07723 0
M  V30 6023 C 586.81 3.38114 0.215522 0
M  V30 6024 C 585.369 3.70932 0.639237 0
M  V30 6025 C 584.516 2.76471 -0.214261 0
M  V30 6026 H 587.467 1.47593 -0.583258 0
M  V30 6027 H 587.488 3.66031 1.0393 0
M  V30 6028 H 587 3.80182 -0.779948 0
M  V30 6029 H 585.101 3.3442 1.64298 0
M  V30 6030 H 585.214 4.77302 0.41465 0
M  V30 6031 H 583.578 2.52724 0.316678 0
M  V30 6032 H 584.361 3.21373 -1.20725 0
M  V30 6033 N 586.806 0.0935595 1.57322 0
M  V30 6034 C 588.054 -0.569383 1.93913 0
M  V30 6035 C 588.375 -1.68817 0.976009 0
M  V30 6036 O 587.645 -1.9588 0.0278099 0
M  V30 6037 H 586.225 -0.21332 0.715894 0
M  V30 6038 H 588.887 0.156531 1.9427 0
M  V30 6039 H 587.983 -0.980577 2.96296 0
M  V30 6040 N 588.284 -1.56567 -0.180126 0
M  V30 6041 C 589.194 -1.98947 -1.24327 0
M  V30 6042 C 590.21 -0.899446 -1.4895 0
M  V30 6043 O 591.386 -1.20639 -1.61271 0
M  V30 6044 C 588.451 -2.33328 -2.56435 0
M  V30 6045 C 587.512 -3.56114 -2.39752 0
M  V30 6046 C 586.745 -3.88845 -3.65561 0
M  V30 6047 O 586.968 -3.22662 -4.70368 0
M  V30 6048 O 585.902 -4.82226 -3.60197 0
M  V30 6049 H 589.728 -2.89634 -0.913565 0
M  V30 6050 H 587.313 -1.44319 -0.386306 0
M  V30 6051 H 589.195 -2.5645 -3.34382 0
M  V30 6052 H 587.87 -1.45806 -2.89002 0
M  V30 6053 H 586.777 -3.38221 -1.59866 0
M  V30 6054 H 588.11 -4.4415 -2.12113 0
M  V30 6055 N 589.762 0.448376 -1.51087 0
M  V30 6056 C 590.672 1.56882 -1.74428 0
M  V30 6057 C 591.688 1.62268 -0.62809 0
M  V30 6058 O 592.864 1.79716 -0.909075 0
M  V30 6059 C 589.929 2.92947 -1.85426 0
M  V30 6060 C 588.99 2.97766 -3.09247 0
M  V30 6061 C 588.223 4.27341 -3.19711 0
M  V30 6062 O 588.446 5.19112 -2.36387 0
M  V30 6063 O 587.38 4.38219 -4.12611 0
M  V30 6064 H 591.206 1.40104 -2.69452 0
M  V30 6065 H 588.791 0.630247 -1.35456 0
M  V30 6066 H 590.673 3.73719 -1.94709 0
M  V30 6067 H 589.348 3.09876 -0.935887 0
M  V30 6068 H 588.255 2.15989 -3.0545 0
M  V30 6069 H 589.588 2.8578 -4.00738 0
M  V30 6070 N 591.24 1.41047 0.703093 0
M  V30 6071 C 592.488 1.39723 1.4602 0
M  V30 6072 C 592.809 0.00461257 1.94999 0
M  V30 6073 O 592.079 -0.952292 1.71196 0
M  V30 6074 H 590.659 0.514281 0.541779 0
M  V30 6075 H 593.321 1.76217 0.832678 0
M  V30 6076 H 592.417 2.07982 2.32701 0
M  V30 6077 N 592.718 -0.936591 1.26751 0
M  V30 6078 C 593.651 -2.03619 1.03027 0
M  V30 6079 C 594.629 -1.62534 -0.0464619 0
M  V30 6080 O 595.813 -1.88251 0.0968873 0
M  V30 6081 C 592.94 -3.3402 0.561072 0
M  V30 6082 C 591.986 -3.9408 1.63105 0
M  V30 6083 S 592.819 -4.27782 3.22122 0
M  V30 6084 C 593.975 -5.61277 2.76982 0
M  V30 6085 H 594.208 -2.23429 1.96129 0
M  V30 6086 H 591.741 -1.07857 1.10482 0
M  V30 6087 H 593.699 -4.09424 0.297031 0
M  V30 6088 H 592.36 -3.12147 -0.349741 0
M  V30 6089 H 591.553 -4.88154 1.25386 0
M  V30 6090 H 591.155 -3.25227 1.84671 0
M  V30 6091 H 593.447 -6.40189 2.21731 0
M  V30 6092 H 594.39 -6.03887 3.69766 0
M  V30 6093 H 594.798 -5.21374 2.16402 0
M  V30 6094 N 594.196 -1.08629 -1.14182 0
M  V30 6095 C 595.128 -0.676189 -2.18998 0
M  V30 6096 C 596.141 0.277871 -1.60411 0
M  V30 6097 O 597.33 0.0651771 -1.78381 0
M  V30 6098 C 594.43 0.0254916 -3.3889 0
M  V30 6099 C 593.603 -0.948039 -4.27002 0
M  V30 6100 C 592.662 -0.281268 -5.25448 0
M  V30 6101 O 591.688 -0.926378 -5.61611 0
M  V30 6102 N 592.89 0.967923 -5.72374 0
M  V30 6103 H 595.655 -1.57792 -2.54798 0
M  V30 6104 H 593.216 -0.972665 -1.29425 0
M  V30 6105 H 595.208 0.482554 -4.01813 0
M  V30 6106 H 593.778 0.829348 -3.01398 0
M  V30 6107 H 592.998 -1.58388 -3.6098 0
M  V30 6108 H 594.286 -1.60765 -4.82734 0
M  V30 6109 H 593.684 1.51175 -5.45126 0
M  V30 6110 H 592.241 1.36844 -6.37273 0
M  V30 6111 N 595.674 1.31259 -0.872281 0
M  V30 6112 C 596.951 1.91362 -0.404943 0
M  V30 6113 C 597.331 1.79362 1.11321 0
M  V30 6114 O 596.679 1.20277 1.94283 0
M  V30 6115 C 596.889 3.3749 -0.888893 0
M  V30 6116 C 598.237 4.14593 -0.916384 0
M  V30 6117 O 599.261 3.46282 -0.834701 0
M  V30 6118 O 598.12 5.3661 -1.03498 0
M  V30 6119 H 595.214 0.818016 -0.121569 0
M  V30 6120 H 597.76 1.39912 -0.960346 0
M  V30 6121 H 596.532 3.40249 -1.93251 0
M  V30 6122 H 596.155 3.96375 -0.311932 0
M  V30 6123 N 597.152 0.631951 1.44375 0
M  V30 6124 C 598.398 0.13697 2.02337 0
M  V30 6125 C 598.731 -1.23826 1.49602 0
M  V30 6126 O 598.006 -1.8221 0.680415 0
M  V30 6127 C 598.289 0.124536 3.59885 0
M  V30 6128 C 598.142 1.53217 4.229 0
M  V30 6129 C 599.461 -0.550481 4.36644 0
M  V30 6130 H 596.58 0.051247 0.735216 0
M  V30 6131 H 599.222 0.808581 1.71936 0
M  V30 6132 H 597.372 -0.44737 3.85916 0
M  V30 6133 H 599.044 2.15303 4.07973 0
M  V30 6134 H 597.287 2.0858 3.80364 0
M  V30 6135 H 597.958 1.4755 5.31914 0
M  V30 6136 H 600.434 -0.0641154 4.16051 0
M  V30 6137 H 599.31 -0.528371 5.46351 0
M  V30 6138 H 599.571 -1.62097 4.11311 0
M  V30 6139 N 598.631 -1.53133 0.372548 0
M  V30 6140 C 600.047 -1.59585 0.02178 0
M  V30 6141 C 600.247 -1.38736 -1.46132 0
M  V30 6142 O 599.303 -1.19599 -2.22379 0
M  V30 6143 C 600.616 -2.9678 0.483959 0
M  V30 6144 C 602.164 -3.09909 0.438775 0
M  V30 6145 C 602.639 -4.49527 0.876876 0
M  V30 6146 N 604.13 -4.55663 0.832214 0
M  V30 6147 C 604.865 -5.61896 1.14281 0
M  V30 6148 N 604.361 -6.75852 1.52303 0
M  V30 6149 N 606.154 -5.51916 1.06515 0
M  V30 6150 H 598.305 -1.64936 1.33827 0
M  V30 6151 H 600.568 -0.773947 0.547458 0
M  V30 6152 H 600.274 -3.17198 1.51915 0
M  V30 6153 H 600.148 -3.7699 -0.125784 0
M  V30 6154 H 602.535 -2.89197 -0.587294 0
M  V30 6155 H 602.616 -2.31691 1.0841 0
M  V30 6156 H 602.26 -4.70979 1.90109 0
M  V30 6157 H 602.19 -5.26186 0.208727 0
M  V30 6158 H 604.681 -3.73844 0.552195 0
M  V30 6159 H 604.994 -7.52862 1.7441 0
M  V30 6160 H 603.339 -6.77226 1.56175 0
M  V30 6161 H 606.53 -4.6177 0.767235 0
M  V30 6162 H 606.703 -6.34609 1.31053 0
M  V30 6163 N 600.109 -0.101901 -1.5727 0
M  V30 6164 C 601.039 0.851544 -2.17419 0
M  V30 6165 C 602.02 1.28942 -1.10941 0
M  V30 6166 O 603.205 1.35509 -1.39107 0
M  V30 6167 C 600.335 2.10816 -2.75996 0
M  V30 6168 C 599.289 1.80867 -3.87906 0
M  V30 6169 C 598.615 3.13413 -4.33216 0
M  V30 6170 C 599.915 1.0903 -5.10793 0
M  V30 6171 H 601.609 0.350381 -2.97343 0
M  V30 6172 H 599.155 0.16709 -1.43027 0
M  V30 6173 H 601.108 2.77959 -3.16729 0
M  V30 6174 H 599.832 2.63227 -1.93337 0
M  V30 6175 H 598.491 1.16119 -3.47724 0
M  V30 6176 H 598.139 3.63725 -3.47438 0
M  V30 6177 H 597.839 2.94155 -5.08671 0
M  V30 6178 H 599.363 3.81704 -4.76586 0
M  V30 6179 H 600.777 1.66295 -5.48652 0
M  V30 6180 H 599.174 0.99927 -5.91722 0
M  V30 6181 H 600.244 0.0741704 -4.84843 0
M  V30 6182 N 601.587 1.56661 0.17182 0
M  V30 6183 C 602.836 1.81158 0.886831 0
M  V30 6184 C 603.149 0.679072 1.83434 0
M  V30 6185 O 604.355 0.808964 2.59168 0
M  V30 6186 C 602.811 3.20999 1.6275 0
M  V30 6187 C 602.419 4.42117 0.723652 0
M  V30 6188 C 604.163 3.5479 2.33076 0
M  V30 6189 C 602.07 5.7298 1.46452 0
M  V30 6190 H 601 0.675543 0.334899 0
M  V30 6191 H 603.651 1.82967 0.139765 0
M  V30 6192 H 602.033 3.13506 2.4193 0
M  V30 6193 H 603.207 4.60789 -0.0311485 0
M  V30 6194 H 601.522 4.16197 0.130063 0
M  V30 6195 H 604.119 4.49806 2.89099 0
M  V30 6196 H 604.462 2.79646 3.08389 0
M  V30 6197 H 604.995 3.63834 1.6084 0
M  V30 6198 H 601.734 6.51152 0.753729 0
M  V30 6199 H 601.254 5.58285 2.19266 0
M  V30 6200 H 602.933 6.14916 2.01214 0
M  V30 6201 N 603.065 -0.440357 1.51323 0
M  V30 6202 C 603.997 -1.55254 1.68609 0
M  V30 6203 C 605.01 -1.52614 0.566812 0
M  V30 6204 O 606.199 -1.57445 0.841032 0
M  V30 6205 C 603.299 -2.94169 1.68279 0
M  V30 6206 C 602.472 -3.21346 2.96742 0
M  V30 6207 C 601.531 -4.3997 2.8864 0
M  V30 6208 O 600.557 -4.38771 3.62586 0
M  V30 6209 N 601.759 -5.43367 2.04285 0
M  V30 6210 H 604.524 -1.40831 2.6455 0
M  V30 6211 H 602.085 -0.629251 1.49171 0
M  V30 6212 H 604.077 -3.71543 1.60431 0
M  V30 6213 H 602.647 -3.02205 0.799441 0
M  V30 6214 H 601.867 -2.32299 3.18482 0
M  V30 6215 H 603.155 -3.3633 3.81785 0
M  V30 6216 H 602.553 -5.47176 1.43578 0
M  V30 6217 H 601.11 -6.19605 2.02318 0
M  V30 6218 N 604.543 -1.41418 -0.695603 0
M  V30 6219 C 605.506 -1.42988 -1.79129 0
M  V30 6220 C 606.506 -0.320514 -1.57573 0
M  V30 6221 O 607.696 -0.58039 -1.64247 0
M  V30 6222 C 604.828 -1.24122 -3.175 0
M  V30 6223 H 606.021 -2.40526 -1.7913 0
M  V30 6224 H 603.574 -1.2756 -0.903225 0
M  V30 6225 H 604.309 -0.274253 -3.23138 0
M  V30 6226 H 604.094 -2.045 -3.34547 0
M  V30 6227 H 605.584 -1.28056 -3.97481 0
M  V30 6228 N 606.021 0.929856 -1.27246 0
M  V30 6229 C 607.27 1.67182 -1.12842 0
M  V30 6230 C 607.583 1.9287 0.325666 0
M  V30 6231 O 608.789 2.64999 0.590572 0
M  V30 6232 C 607.245 3.01097 -1.97151 0
M  V30 6233 C 606.853 2.83115 -3.47203 0
M  V30 6234 C 608.597 3.78907 -1.91389 0
M  V30 6235 C 606.504 4.12573 -4.23719 0
M  V30 6236 H 605.434 0.627064 -0.418697 0
M  V30 6237 H 608.085 1.0332 -1.51649 0
M  V30 6238 H 606.467 3.66004 -1.51186 0
M  V30 6239 H 607.641 2.26989 -4.01015 0
M  V30 6240 H 605.956 2.18736 -3.54321 0
M  V30 6241 H 608.553 4.74837 -2.45834 0
M  V30 6242 H 608.896 4.0674 -0.887047 0
M  V30 6243 H 609.429 3.20794 -2.35237 0
M  V30 6244 H 606.168 3.8992 -5.26918 0
M  V30 6245 H 605.688 4.68371 -3.74685 0
M  V30 6246 H 607.367 4.8095 -4.32777 0
M  V30 6247 N 607.499 1.09233 1.13605 0
M  V30 6248 C 608.729 0.847677 1.88409 0
M  V30 6249 C 609.137 -0.604524 1.79282 0
M  V30 6250 O 608.48 -1.42773 1.15592 0
M  V30 6251 C 608.542 1.20153 3.38827 0
M  V30 6252 C 608.206 2.65824 3.71735 0
M  V30 6253 C 609.203 3.64072 3.71143 0
M  V30 6254 C 606.888 3.01894 4.01454 0
M  V30 6255 C 608.882 4.96419 3.99808 0
M  V30 6256 C 606.569 4.34433 4.29781 0
M  V30 6257 C 607.567 5.31505 4.28942 0
M  V30 6258 O 607.255 6.61659 4.56576 0
M  V30 6259 H 606.987 0.304813 0.603378 0
M  V30 6260 H 609.541 1.4573 1.44748 0
M  V30 6261 H 607.771 0.534946 3.82982 0
M  V30 6262 H 609.46 0.936349 3.94952 0
M  V30 6263 H 610.226 3.37549 3.4826 0
M  V30 6264 H 606.105 2.26971 4.01255 0
M  V30 6265 H 609.649 5.7218 3.99069 0
M  V30 6266 H 605.546 4.607 4.52135 0
M  V30 6267 H 606.314 6.67102 4.74254 0
M  V30 6268 N 608.977 -1.30795 0.87923 0
M  V30 6269 C 609.887 -2.32041 0.345565 0
M  V30 6270 C 610.903 -1.65103 -0.549265 0
M  V30 6271 O 612.079 -1.9645 -0.443763 0
M  V30 6272 C 609.144 -3.43944 -0.436245 0
M  V30 6273 C 608.205 -4.26521 0.48765 0
M  V30 6274 C 607.438 -5.33081 -0.256943 0
M  V30 6275 O 607.661 -5.50762 -1.48381 0
M  V30 6276 O 606.595 -6.00635 0.389985 0
M  V30 6277 H 610.421 -2.79627 1.18501 0
M  V30 6278 H 608.006 -1.3486 0.642885 0
M  V30 6279 H 609.888 -4.12128 -0.879119 0
M  V30 6280 H 608.563 -2.98504 -1.25208 0
M  V30 6281 H 607.47 -3.61057 0.979216 0
M  V30 6282 H 608.803 -4.75551 1.26933 0
M  V30 6283 N 610.455 -0.639598 -1.44038 0
M  V30 6284 C 611.418 0.0506628 -2.29144 0
M  V30 6285 C 612.418 0.764001 -1.41491 0
M  V30 6286 O 613.608 0.607309 -1.63271 0
M  V30 6287 C 610.74 1.0824 -3.2326 0
M  V30 6288 H 611.933 -0.697987 -2.91664 0
M  V30 6289 H 609.486 -0.400146 -1.51091 0
M  V30 6290 H 610.221 1.86075 -2.65606 0
M  V30 6291 H 610.006 0.574725 -3.87865 0
M  V30 6292 H 611.496 1.56487 -3.87171 0
M  V30 6293 N 611.933 1.52934 -0.380664 0
M  V30 6294 C 612.896 2.24809 0.446473 0
M  V30 6295 C 613.896 1.26133 0.997347 0
M  V30 6296 O 615.086 1.50297 0.880714 0
M  V30 6297 C 612.218 2.99649 1.62553 0
M  V30 6298 H 613.411 2.99343 -0.182677 0
M  V30 6299 H 610.964 1.55736 -0.132618 0
M  V30 6300 H 611.699 2.29395 2.29235 0
M  V30 6301 H 611.484 3.72066 1.23732 0
M  V30 6302 H 612.974 3.54246 2.21133 0
M  V30 6303 N 613.412 0.11024 1.57214 0
M  V30 6304 C 614.828 -0.24638 1.57687 0
M  V30 6305 C 615.028 -1.67344 1.12241 0
M  V30 6306 O 614.084 -2.39298 0.805783 0
M  V30 6307 C 615.397 -0.0210288 3.00693 0
M  V30 6308 C 616.945 -0.0876077 3.12877 0
M  V30 6309 C 617.42 0.10994 4.57868 0
M  V30 6310 N 618.911 0.0556135 4.63167 0
M  V30 6311 C 619.646 0.183495 5.73106 0
M  V30 6312 N 619.142 0.367058 6.91827 0
M  V30 6313 N 620.935 0.123689 5.61964 0
M  V30 6314 H 613.086 1.04246 1.85058 0
M  V30 6315 H 615.349 0.40979 0.854854 0
M  V30 6316 H 615.055 0.965203 3.38196 0
M  V30 6317 H 614.929 -0.756748 3.69531 0
M  V30 6318 H 617.316 -1.06436 2.75237 0
M  V30 6319 H 617.397 0.67985 2.466 0
M  V30 6320 H 617.041 1.08362 4.96206 0
M  V30 6321 H 616.971 -0.677397 5.22225 0
M  V30 6322 H 619.462 -0.0831062 3.77809 0
M  V30 6323 H 619.775 0.455739 7.71455 0
M  V30 6324 H 618.12 0.40292 6.93831 0
M  V30 6325 H 621.311 -0.0186928 4.68096 0
M  V30 6326 H 621.484 0.226797 6.47603 0
M  V30 6327 N 614.89 -1.56749 -0.16351 0
M  V30 6328 C 616.118 -1.86577 -0.894233 0
M  V30 6329 C 616.533 -0.696543 -1.75481 0
M  V30 6330 O 615.89 0.334161 -1.79415 0
M  V30 6331 C 615.941 -3.15508 -1.76456 0
M  V30 6332 O 615.662 -4.27926 -0.938685 0
M  V30 6333 C 617.163 -3.58737 -2.60428 0
M  V30 6334 H 614.383 -0.618829 -0.259405 0
M  V30 6335 H 616.927 -2.03863 -0.161259 0
M  V30 6336 H 615.082 -3.00025 -2.45079 0
M  V30 6337 H 615.496 -5.01546 -1.53465 0
M  V30 6338 H 616.97 -4.51832 -3.17099 0
M  V30 6339 H 617.447 -2.83229 -3.35675 0
M  V30 6340 H 618.053 -3.76858 -1.97125 0
M  V30 6341 N 616.368 0.432326 -1.51554 0
M  V30 6342 C 617.616 1.17901 -1.64146 0
M  V30 6343 C 617.937 1.91604 -0.362367 0
M  V30 6344 O 617.207 1.85764 0.621968 0
M  V30 6345 H 615.787 0.438206 -0.604966 0
M  V30 6346 H 618.449 0.495172 -1.88505 0
M  V30 6347 H 617.545 1.90584 -2.47152 0
M  V30 6348 N 617.846 1.41785 0.688094 0
M  V30 6349 C 619.262 1.24419 0.999608 0
M  V30 6350 C 619.462 0.138868 2.01021 0
M  V30 6351 O 618.518 -0.494283 2.47615 0
M  V30 6352 C 619.831 2.59625 1.51709 0
M  V30 6353 C 621.379 2.66869 1.63554 0
M  V30 6354 C 621.854 4.0241 2.18702 0
M  V30 6355 N 623.345 4.04295 2.26053 0
M  V30 6356 C 624.08 5.05977 2.69768 0
M  V30 6357 N 623.576 6.18047 3.13033 0
M  V30 6358 N 625.369 4.93336 2.69398 0
M  V30 6359 H 617.52 2.12392 0.0187427 0
M  V30 6360 H 619.783 0.945347 0.0708673 0
M  V30 6361 H 619.489 3.41297 0.849059 0
M  V30 6362 H 619.363 2.82628 2.49803 0
M  V30 6363 H 621.75 1.8555 2.29467 0
M  V30 6364 H 621.831 2.47668 0.639857 0
M  V30 6365 H 621.475 4.8418 1.53402 0
M  V30 6366 H 621.405 4.18955 3.19037 0
M  V30 6367 H 623.896 3.23383 1.9553 0
M  V30 6368 H 624.209 6.91498 3.45038 0
M  V30 6369 H 622.554 6.21572 3.10923 0
M  V30 6370 H 625.745 4.04865 2.34952 0
M  V30 6371 H 625.918 5.72717 3.03148 0
M  V30 6372 N 619.324 -0.923095 1.27737 0
M  V30 6373 C 620.735 -1.48626 1.12993 0
M  V30 6374 C 621.086 -1.94142 -0.283439 0
M  V30 6375 O 620.211 -1.81605 -1.17681 0
M  V30 6376 C 620.806 -2.70117 2.04505 0
M  V30 6377 C 619.365 -3.22642 1.93853 0
M  V30 6378 C 618.512 -1.95368 1.96791 0
M  V30 6379 H 621.463 -0.736737 1.40563 0
M  V30 6380 H 621.484 -3.4506 1.60356 0
M  V30 6381 H 620.996 -2.36959 3.07363 0
M  V30 6382 H 619.097 -3.60549 0.939968 0
M  V30 6383 H 619.21 -3.88525 2.80331 0
M  V30 6384 H 617.574 -2.12061 1.41076 0
M  V30 6385 H 618.357 -1.64517 3.01312 0
M  V30 6386 N 620.802 -1.09834 -1.13024 0
M  V30 6387 C 622.048 -0.83819 -1.84668 0
M  V30 6388 C 622.381 0.634645 -1.83537 0
M  V30 6389 O 621.656 1.46753 -1.27647 0
M  V30 6390 C 621.939 -1.37933 -3.32636 0
M  V30 6391 C 621.792 -2.91857 -3.42257 0
M  V30 6392 C 623.111 -1.01654 -4.28199 0
M  V30 6393 H 620.23 -0.30595 -0.670495 0
M  V30 6394 H 622.872 -1.36044 -1.32635 0
M  V30 6395 H 621.022 -0.935111 -3.77078 0
M  V30 6396 H 622.694 -3.44759 -3.06495 0
M  V30 6397 H 620.937 -3.28776 -2.83 0
M  V30 6398 H 621.608 -3.24799 -4.46329 0
M  V30 6399 H 624.084 -1.39973 -3.9185 0
M  V30 6400 H 622.96 -1.42217 -5.30156 0
M  V30 6401 H 623.221 0.0747794 -4.42037 0
M  V30 6402 N 622.28 1.30327 -0.886154 0
M  V30 6403 C 623.228 2.30052 -0.343317 0
M  V30 6404 C 624.222 1.60212 0.550305 0
M  V30 6405 O 625.428 1.74674 0.434609 0
M  V30 6406 H 621.803 0.746306 -0.0923681 0
M  V30 6407 H 623.774 2.73294 -1.19804 0
M  V30 6408 C 622.523 3.45079 0.426107 0
M  V30 6409 H 621.846 3.99003 -0.25227 0
M  V30 6410 H 623.286 4.16931 0.771009 0
M  V30 6411 C 621.745 2.95195 1.62363 0
M  V30 6412 O 622.275 2.95323 2.723 0
M  V30 6413 N 620.481 2.51192 1.4612 0
M  V30 6414 H 620.028 2.51286 0.566832 0
M  V30 6415 H 619.986 2.18173 2.2638 0
M  V30 6416 N 623.758 0.647228 1.43697 0
M  V30 6417 C 624.986 0.16575 2.06235 0
M  V30 6418 C 625.401 -1.1662 1.48476 0
M  V30 6419 O 624.758 -1.7187 0.613762 0
M  V30 6420 C 624.809 0.0621651 3.61447 0
M  V30 6421 O 624.53 1.34146 4.17057 0
M  V30 6422 C 626.031 -0.446102 4.4105 0
M  V30 6423 H 623.251 0.0871158 0.665321 0
M  V30 6424 H 625.795 0.886183 1.84301 0
M  V30 6425 H 623.95 -0.608794 3.82587 0
M  V30 6426 H 624.364 1.19675 5.10664 0
M  V30 6427 H 625.838 -0.46755 5.50016 0
M  V30 6428 H 626.315 -1.47627 4.13646 0
M  V30 6429 H 626.921 0.192159 4.24866 0
M  V30 6430 N 625.236 -1.5273 0.388769 0
M  V30 6431 C 626.513 -1.93981 -0.251133 0
M  V30 6432 C 626.893 -1.32418 -1.64404 0
M  V30 6433 O 626.241 -0.492074 -2.23139 0
M  V30 6434 C 626.451 -3.47891 -0.27802 0
M  V30 6435 C 627.799 -4.21559 -0.507229 0
M  V30 6436 O 628.823 -3.54394 -0.358252 0
M  V30 6437 O 627.682 -5.40626 -0.799094 0
M  V30 6438 H 624.776 -0.812157 -0.15598 0
M  V30 6439 H 627.322 -1.63809 0.443237 0
M  V30 6440 H 626.094 -3.8503 0.697669 0
M  V30 6441 H 625.717 -3.84364 -1.01733 0
M  V30 6442 N 626.714 -0.118576 -1.57153 0
M  V30 6443 C 627.96 0.534078 -1.96263 0
M  V30 6444 C 628.315 1.64316 -1.0009 0
M  V30 6445 O 627.608 1.91575 -0.0308582 0
M  V30 6446 C 627.802 1.11303 -3.39627 0
M  V30 6447 C 627.631 0.0615624 -4.49658 0
M  V30 6448 C 626.401 -0.370103 -5.03943 0
M  V30 6449 C 628.599 -0.719249 -5.09246 0
M  V30 6450 N 626.581 -1.40738 -5.9755 0
M  V30 6451 C 627.952 -1.60774 -5.98792 0
M  V30 6452 C 630.007 -0.770183 -4.91907 0
M  V30 6453 C 628.71 -2.54272 -6.72858 0
M  V30 6454 C 630.736 -1.69288 -5.66653 0
M  V30 6455 C 630.098 -2.56894 -6.55885 0
M  V30 6456 H 626.197 0.165072 -0.764379 0
M  V30 6457 H 628.781 -0.206596 -1.93601 0
M  V30 6458 H 626.952 1.82342 -3.42937 0
M  V30 6459 H 628.684 1.72996 -3.65861 0
M  V30 6460 H 625.439 0.0222121 -4.73595 0
M  V30 6461 H 625.863 -1.92493 -6.49057 0
M  V30 6462 H 630.505 -0.106999 -4.22665 0
M  V30 6463 H 628.223 -3.21605 -7.41347 0
M  V30 6464 H 631.809 -1.73772 -5.55243 0
M  V30 6465 H 630.689 -3.27131 -7.1271 0
M  V30 6466 N 628.193 1.56834 0.155195 0
M  V30 6467 C 629.441 1.82536 0.867462 0
M  V30 6468 C 629.762 0.698168 1.82073 0
M  V30 6469 O 629.032 -0.280807 1.93877 0
M  V30 6470 H 627.612 0.673401 0.323327 0
M  V30 6471 H 630.274 1.94313 0.151156 0
M  V30 6472 H 629.37 2.77171 1.43466 0
M  V30 6473 N 629.671 -0.424282 1.51781 0
M  V30 6474 C 630.901 -1.19297 1.68677 0
M  V30 6475 C 631.309 -1.85152 0.389258 0
M  V30 6476 O 630.652 -1.72067 -0.643311 0
M  V30 6477 C 630.714 -2.30929 2.75521 0
M  V30 6478 C 630.378 -1.85335 4.17732 0
M  V30 6479 C 631.375 -1.34951 5.0208 0
M  V30 6480 C 629.06 -1.92629 4.63896 0
M  V30 6481 C 631.054 -0.924636 6.30658 0
M  V30 6482 C 628.741 -1.49754 5.92467 0
M  V30 6483 C 629.739 -0.997543 6.75676 0
M  V30 6484 O 629.427 -0.57492 8.01842 0
M  V30 6485 H 629.159 -0.36512 0.568914 0
M  V30 6486 H 631.713 -0.507327 1.99036 0
M  V30 6487 H 629.943 -3.02811 2.40505 0
M  V30 6488 H 631.632 -2.92748 2.81165 0
M  V30 6489 H 632.398 -1.287 4.67612 0
M  V30 6490 H 628.277 -2.30491 3.99243 0
M  V30 6491 H 631.821 -0.533682 6.95556 0
M  V30 6492 H 627.718 -1.55679 6.26446 0
M  V30 6493 H 628.486 -0.699597 8.15505 0
M  V30 6494 N 631.149 -1.42148 -0.680565 0
M  V30 6495 C 632.395 -1.42521 -1.44277 0
M  V30 6496 C 632.728 -0.0393718 -1.9416 0
M  V30 6497 O 632.003 0.935425 -1.70529 0
M  V30 6498 C 632.286 -2.44475 -2.64394 0
M  V30 6499 C 632.139 -3.92226 -2.20179 0
M  V30 6500 C 633.458 -2.43491 -3.66606 0
M  V30 6501 H 630.577 -0.518985 -0.523282 0
M  V30 6502 H 633.219 -1.73524 -0.773914 0
M  V30 6503 H 631.369 -2.18168 -3.21458 0
M  V30 6504 H 633.041 -4.29493 -1.68327 0
M  V30 6505 H 631.284 -4.0637 -1.5181 0
M  V30 6506 H 631.955 -4.59133 -3.06433 0
M  V30 6507 H 634.431 -2.66872 -3.19247 0
M  V30 6508 H 633.307 -3.16816 -4.4824 0
M  V30 6509 H 633.568 -1.45881 -4.17338 0
M  V30 6510 N 632.627 0.916307 -1.28225 0
M  V30 6511 C 634.043 1.19425 -1.05876 0
M  V30 6512 C 634.243 2.005 0.2005 0
M  V30 6513 O 633.299 2.35806 0.902873 0
M  V30 6514 C 634.612 1.93133 -2.30478 0
M  V30 6515 C 636.16 2.06026 -2.35632 0
M  V30 6516 C 636.635 2.83141 -3.59994 0
M  V30 6517 N 638.126 2.90704 -3.60618 0
M  V30 6518 C 638.861 3.50865 -4.53521 0
M  V30 6519 N 638.357 4.12327 -5.56739 0
M  V30 6520 N 640.15 3.48379 -4.41122 0
M  V30 6521 H 632.301 0.37496 -2.09064 0
M  V30 6522 H 634.564 0.228531 -0.920042 0
M  V30 6523 H 634.27 1.40985 -3.22205 0
M  V30 6524 H 634.144 2.93696 -2.36691 0
M  V30 6525 H 636.531 2.57355 -1.44404 0
M  V30 6526 H 636.612 1.04647 -2.33415 0
M  V30 6527 H 636.256 2.32492 -4.51564 0
M  V30 6528 H 636.186 3.84829 -3.59464 0
M  V30 6529 H 638.677 2.47034 -2.85977 0
M  V30 6530 H 638.99 4.56205 -6.23776 0
M  V30 6531 H 637.335 4.10839 -5.60568 0
M  V30 6532 H 640.526 2.99572 -3.59686 0
M  V30 6533 H 640.699 3.94974 -5.13712 0
M  V30 6534 N 634.105 1.10431 1.1244 0
M  V30 6535 C 635.037 0.710945 2.17895 0
M  V30 6536 C 636.05 -0.252315 1.60833 0
M  V30 6537 O 637.239 -0.03679 1.78462 0
M  V30 6538 C 634.339 0.0284262 3.38888 0
M  V30 6539 C 633.512 1.01585 4.2544 0
M  V30 6540 C 632.571 0.364826 5.24934 0
M  V30 6541 O 631.597 1.01561 5.60066 0
M  V30 6542 N 632.799 -0.87674 5.73841 0
M  V30 6543 H 635.564 1.61826 2.52255 0
M  V30 6544 H 633.125 0.993132 1.27861 0
M  V30 6545 H 635.117 -0.418568 4.0253 0
M  V30 6546 H 633.687 -0.781294 3.02679 0
M  V30 6547 H 632.907 1.64111 3.58415 0
M  V30 6548 H 634.195 1.68425 4.80115 0
M  V30 6549 H 633.593 -1.42483 5.47462 0
M  V30 6550 H 632.15 -1.26688 6.39369 0
M  V30 6551 N 635.583 -1.29855 0.893053 0
M  V30 6552 C 636.831 -1.9544 0.514566 0
M  V30 6553 C 637.152 -1.70795 -0.940959 0
M  V30 6554 O 636.422 -1.03601 -1.66264 0
M  V30 6555 H 635.002 -0.723137 0.187302 0
M  V30 6556 H 637.664 -1.58234 1.13789 0
M  V30 6557 H 636.76 -3.04341 0.691581 0
M  V30 6558 N 637.061 -0.65484 -1.43351 0
M  V30 6559 C 638.309 -0.168559 -2.01396 0
M  V30 6560 C 638.63 1.22235 -1.51933 0
M  V30 6561 O 637.9 1.81685 -0.732627 0
M  V30 6562 H 636.48 -0.0593244 -0.744641 0
M  V30 6563 H 639.142 -0.846871 -1.75539 0
M  V30 6564 H 638.238 -0.154428 -3.11718 0
M  V30 6565 N 638.539 1.52521 -0.396863 0
M  V30 6566 C 639.769 2.05792 0.182485 0
M  V30 6567 C 640.177 1.26784 1.40436 0
M  V30 6568 O 639.52 0.309617 1.81072 0
M  V30 6569 C 639.582 3.54291 0.609781 0
M  V30 6570 C 639.246 4.5426 -0.499674 0
M  V30 6571 C 640.243 5.01812 -1.35944 0
M  V30 6572 C 637.928 4.97827 -0.668864 0
M  V30 6573 C 639.922 5.91562 -2.37346 0
M  V30 6574 C 637.609 5.87376 -1.68621 0
M  V30 6575 C 638.607 6.34137 -2.53692 0
M  V30 6576 O 638.295 7.21915 -3.53686 0
M  V30 6577 H 638.027 0.675362 0.0293583 0
M  V30 6578 H 640.581 1.97539 -0.56281 0
M  V30 6579 H 638.811 3.60188 1.40717 0
M  V30 6580 H 640.5 3.90267 1.11565 0
M  V30 6581 H 641.266 4.68879 -1.24008 0
M  V30 6582 H 637.145 4.60997 -0.0163971 0
M  V30 6583 H 640.689 6.27983 -3.03782 0
M  V30 6584 H 636.586 6.19723 -1.80593 0
M  V30 6585 H 637.354 7.39996 -3.49784 0
M  V30 6586 O 640.056 0.267423 1.59271 0
M  V30 6587 H 640.747 -0.304099 1.91298 0
M  V30 END ATOM
M  V30 BEGIN BOND
M  V30 END BOND
M  V30 END CTAB
M  END
$$$$
