drugbank_target|P35498 Sodium channel protein type 1 subunit alpha (DB00273; DB00555; DB00564; DB01069; DB09085; DB09088; DB09342; DB09345; DB11186; DB13746)
 OpenBabel12092119253D

  0  0  0     0  0            999 V3000
M  V30 BEGIN CTAB
M  V30 COUNTS 32225 32579 0 0 0
M  V30 BEGIN ATOM
M  V30 1 H -0.908 1.98254 -0.117106 0
M  V30 2 N 0 1.576 0 0
M  V30 3 C 0.933 2.03868 1.02534 0
M  V30 4 C 1.911 0.928543 1.3348 0
M  V30 5 O 3.095 1.19667 1.45644 0
M  V30 6 C 0.222 2.43627 2.35294 0
M  V30 7 C -0.732 3.65373 2.2001 0
M  V30 8 S 0.101 5.13292 1.52614 0
M  V30 9 C 1.257 5.56322 2.86805 0
M  V30 10 H 1.49 2.90518 0.631377 0
M  V30 11 H -0.977 1.52953 0.210867 0
M  V30 12 H 0.981 2.67203 3.11629 0
M  V30 13 H -0.358 1.57376 2.7183 0
M  V30 14 H -1.165 3.90944 3.18086 0
M  V30 15 H -1.563 3.418 1.51819 0
M  V30 16 H 0.729 5.58782 3.83104 0
M  V30 17 H 1.672 6.56266 2.65933 0
M  V30 18 H 2.08 4.83886 2.90714 0
M  V30 19 N 1.4781 -0.272755 1.55222 0
M  V30 20 C 2.3881 -1.35918 1.91216 0
M  V30 21 C 3.4041 -1.54026 0.809436 0
M  V30 22 O 4.5801 -1.68148 1.10852 0
M  V30 23 C 1.6451 -2.69834 2.17693 0
M  V30 24 C 0.7061 -2.6047 3.41253 0
M  V30 25 C -0.0609 -3.88 3.66458 0
M  V30 26 O 0.1621 -4.88693 2.94169 0
M  V30 27 O -0.9039 -3.88189 4.59992 0
M  V30 28 H 2.9221 -1.0839 2.83699 0
M  V30 29 H 0.5071 -0.471301 1.41771 0
M  V30 30 H 2.3891 -3.49017 2.36147 0
M  V30 31 H 1.0641 -2.97148 1.28392 0
M  V30 32 H -0.0289 -1.79663 3.28134 0
M  V30 33 H 1.3041 -2.38106 4.30774 0
M  V30 34 N 2.9562 -1.48159 -0.537278 0
M  V30 35 C 3.8882 -1.58218 -1.65831 0
M  V30 36 C 4.9012 -0.466948 -1.5596 0
M  V30 37 O 6.0902 -0.73747 -1.62553 0
M  V30 38 C 3.1902 -1.48906 -3.04434 0
M  V30 39 C 2.3632 -2.75343 -3.3986 0
M  V30 40 C 1.4222 -2.59588 -4.57712 0
M  V30 41 O 0.4482 -3.33457 -4.61297 0
M  V30 42 N 1.6502 -1.68724 -5.55439 0
M  V30 43 H 4.4152 -2.54891 -1.57641 0
M  V30 44 H 1.9762 -1.4479 -0.724386 0
M  V30 45 H 3.9682 -1.36072 -3.81139 0
M  V30 46 H 2.5382 -0.602368 -3.06741 0
M  V30 47 H 1.7582 -3.02795 -2.52406 0
M  V30 48 H 3.0462 -3.5924 -3.60311 0
M  V30 49 H 2.4442 -1.07898 -5.55315 0
M  V30 50 H 1.0012 -1.61832 -6.3139 0
M  V30 51 N 4.4343 0.785586 -1.36625 0
M  V30 52 C 5.6623 1.57448 -1.3423 0
M  V30 53 C 6.0773 1.88649 0.0755653 0
M  V30 54 O 5.4343 1.50414 1.03354 0
M  V30 55 C 5.4853 2.89316 -2.16745 0
M  V30 56 O 5.2063 2.59459 -3.53005 0
M  V30 57 C 6.7073 3.83606 -2.22174 0
M  V30 58 H 3.9273 0.488226 -0.4603 0
M  V30 59 H 6.4713 0.974733 -1.79775 0
M  V30 60 H 4.6263 3.4575 -1.74745 0
M  V30 61 H 5.0403 3.43804 -3.96105 0
M  V30 62 H 6.5143 4.73181 -2.8426 0
M  V30 63 H 6.9913 4.21734 -1.22627 0
M  V30 64 H 7.5973 3.33104 -2.64427 0
M  V30 65 N 5.9124 1.20967 1.01018 0
M  V30 66 C 7.1584 1.02526 1.74975 0
M  V30 67 C 7.4914 -0.4408 1.89131 0
M  V30 68 O 6.7664 -1.32718 1.42184 0
M  V30 69 C 7.0494 1.71699 3.1653 0
M  V30 70 C 6.9024 3.25791 3.10129 0
M  V30 71 C 8.2214 1.45531 4.15342 0
M  V30 72 H 5.3404 0.373863 0.635134 0
M  V30 73 H 7.9824 1.49071 1.17805 0
M  V30 74 H 6.1324 1.32128 3.65341 0
M  V30 75 H 7.8044 3.74697 2.69072 0
M  V30 76 H 6.0474 3.56363 2.47362 0
M  V30 77 H 6.7184 3.69353 4.10222 0
M  V30 78 H 9.1944 1.79872 3.75213 0
M  V30 79 H 8.0704 1.96453 5.1254 0
M  V30 80 H 8.3314 0.384237 4.40427 0
M  V30 81 N 7.3905 -1.2043 1.01659 0
M  V30 82 C 8.3205 -2.25466 0.607226 0
M  V30 83 C 9.3015 -1.65853 -0.377716 0
M  V30 84 O 10.4865 -1.92409 -0.263149 0
M  V30 85 C 7.6165 -3.47256 -0.0552949 0
M  V30 86 C 6.5705 -4.19462 0.850632 0
M  V30 87 C 5.8965 -5.34673 0.0538859 0
M  V30 88 C 7.1965 -4.75603 2.15868 0
M  V30 89 H 8.8905 -2.59962 1.48526 0
M  V30 90 H 6.4365 -1.2496 0.715605 0
M  V30 91 H 8.3895 -4.19917 -0.353233 0
M  V30 92 H 7.1135 -3.11924 -0.968045 0
M  V30 93 H 5.7725 -3.48667 1.13257 0
M  V30 94 H 5.4205 -4.95585 -0.860514 0
M  V30 95 H 5.1205 -5.83913 0.657192 0
M  V30 96 H 6.6445 -6.10138 -0.237598 0
M  V30 97 H 8.0585 -5.40083 1.92311 0
M  V30 98 H 6.4555 -5.3528 2.71284 0
M  V30 99 H 7.5255 -3.94346 2.82169 0
M  V30 100 N 8.8686 -0.792821 -1.36206 0
M  V30 101 C 10.1146 -0.36733 -1.99446 0
M  V30 102 C 10.4476 1.05917 -1.62774 0
M  V30 103 O 9.7226 1.7324 -0.88421 0
M  V30 104 C 10.0056 -0.535044 -3.56103 0
M  V30 105 C 9.8586 -2.00548 -4.02617 0
M  V30 106 C 11.1776 0.0478191 -4.40074 0
M  V30 107 H 8.2966 -0.134941 -0.724541 0
M  V30 108 H 10.9386 -0.999794 -1.61568 0
M  V30 109 H 9.0886 0.00336329 -3.885 0
M  V30 110 H 10.7606 -2.60521 -3.80692 0
M  V30 111 H 9.0036 -2.50686 -3.54032 0
M  V30 112 H 9.6746 -2.07377 -5.11565 0
M  V30 113 H 12.1506 -0.411822 -4.14057 0
M  V30 114 H 11.0266 -0.0995336 -5.4881 0
M  V30 115 H 11.2876 1.14025 -4.27142 0
M  V30 116 N 10.3467 1.47872 -0.545128 0
M  V30 117 C 11.7577 1.86384 -0.108581 0
M  V30 118 C 12.1087 1.45309 1.31832 0
M  V30 119 O 11.2337 0.850641 1.9898 0
M  V30 120 C 11.8287 3.38265 -0.190274 0
M  V30 121 C 10.3877 3.75914 0.191164 0
M  V30 122 C 9.5347 2.71926 -0.543273 0
M  V30 123 H 12.4857 1.39561 -0.755537 0
M  V30 124 H 12.5067 3.75831 0.594217 0
M  V30 125 H 12.0187 3.6813 -1.2289 0
M  V30 126 H 10.1197 3.51665 1.23136 0
M  V30 127 H 10.2327 4.78836 -0.158987 0
M  V30 128 H 8.5967 2.54697 0.0122495 0
M  V30 129 H 9.3797 3.04634 -1.58282 0
M  V30 130 N 11.8248 0.280983 1.55075 0
M  V30 131 C 13.2358 -0.215629 1.85451 0
M  V30 132 C 13.5868 -1.54991 1.203 0
M  V30 133 O 12.7118 -2.10699 0.493435 0
M  V30 134 C 13.3068 -0.398026 3.36454 0
M  V30 135 C 11.8658 -0.838866 3.66933 0
M  V30 136 C 11.0128 0.064458 2.77225 0
M  V30 137 H 13.9638 0.502601 1.50531 0
M  V30 138 H 13.9848 -1.23569 3.59876 0
M  V30 139 H 13.4968 0.573241 3.83843 0
M  V30 140 H 11.5978 -1.8214 3.25048 0
M  V30 141 H 11.7108 -0.672123 4.74362 0
M  V30 142 H 10.0748 -0.452863 2.50642 0
M  V30 143 H 10.8578 1.03172 3.2743 0
M  V30 144 N 13.3029 -1.57598 0.00835791 0
M  V30 145 C 14.5509 -1.90551 -0.6734 0
M  V30 146 C 14.8719 -0.883301 -1.73847 0
M  V30 147 O 14.1419 0.0781442 -1.95744 0
M  V30 148 H 12.7219 -0.703312 -0.251717 0
M  V30 149 H 15.3839 -1.94833 0.0512592 0
M  V30 150 H 14.4799 -2.9056 -1.13935 0
M  V30 151 N 14.781 0.264519 -1.55364 0
M  V30 152 C 16.192 0.834936 -1.6699 0
M  V30 153 C 16.543 1.86718 -0.602552 0
M  V30 154 O 15.668 2.14899 0.254425 0
M  V30 155 C 16.263 1.5212 -3.02729 0
M  V30 156 C 14.822 2.03954 -3.16354 0
M  V30 157 C 13.969 0.884498 -2.62815 0
M  V30 158 H 16.92 0.0406869 -1.58648 0
M  V30 159 H 16.941 2.38853 -2.96191 0
M  V30 160 H 16.453 0.769668 -3.80392 0
M  V30 161 H 14.554 2.82041 -2.43482 0
M  V30 162 H 14.667 2.24902 -4.23032 0
M  V30 163 H 13.031 1.2802 -2.20188 0
M  V30 164 H 13.814 0.14634 -3.42988 0
M  V30 165 N 16.2591 1.48442 0.529413 0
M  V30 166 C 17.5361 1.46978 1.29062 0
M  V30 167 C 17.9161 0.181769 2.10316 0
M  V30 168 O 17.2641 -0.836481 2.12639 0
M  V30 169 C 17.4741 2.7321 2.17157 0
M  V30 170 C 18.8221 3.21562 2.77278 0
M  V30 171 O 19.8461 2.74131 2.27444 0
M  V30 172 O 18.7051 4.04094 3.67927 0
M  V30 173 H 15.7991 0.587003 0.582543 0
M  V30 174 H 18.3451 1.60676 0.546021 0
M  V30 175 H 17.1171 3.58465 1.56903 0
M  V30 176 H 16.7401 2.62235 2.98862 0
M  V30 177 N 17.7372 -0.778329 1.37039 0
M  V30 178 C 18.9622 -1.57248 1.35233 0
M  V30 179 C 19.3872 -1.87999 -0.0615568 0
M  V30 180 O 18.7452 -1.48734 -1.03672 0
M  V30 181 C 18.7932 -2.86353 2.19167 0
M  V30 182 O 17.8972 -3.80442 1.59178 0
M  V30 183 H 17.2382 -0.476569 0.462362 0
M  V30 184 H 19.7682 -0.963853 1.80474 0
M  V30 185 H 19.7782 -3.35519 2.32145 0
M  V30 186 H 18.4532 -2.63299 3.21942 0
M  V30 187 H 17.0302 -3.39067 1.55203 0
M  V30 188 N 19.2153 -1.21501 -1.00376 0
M  V30 189 C 20.4623 -1.03299 -1.74171 0
M  V30 190 C 20.7903 0.433326 -1.89612 0
M  V30 191 O 20.0453 1.33779 -1.42834 0
M  V30 192 C 20.3443 -1.67673 -3.15627 0
M  V30 193 C 20.0103 -3.17533 -3.2013 0
M  V30 194 C 18.6723 -3.58427 -3.21067 0
M  V30 195 C 21.0243 -4.13504 -3.17275 0
M  V30 196 C 18.3523 -4.93794 -3.16835 0
M  V30 197 C 20.7043 -5.48834 -3.14585 0
M  V30 198 C 19.3683 -5.89123 -3.13831 0
M  V30 199 H 18.6383 -0.377999 -0.637336 0
M  V30 200 H 21.2853 -1.51111 -1.17634 0
M  V30 201 H 19.5903 -1.12158 -3.75404 0
M  V30 202 H 21.2873 -1.51091 -3.71446 0
M  V30 203 H 17.8773 -2.84965 -3.20145 0
M  V30 204 H 22.0613 -3.82936 -3.15711 0
M  V30 205 H 17.3173 -5.24255 -3.1459 0
M  V30 206 H 21.4913 -6.22934 -3.1133 0
M  V30 207 H 19.1183 -6.93984 -3.10307 0
M  V30 208 N 20.6934 1.19889 -1.02296 0
M  V30 209 C 21.6414 2.24938 -0.592081 0
M  V30 210 C 22.6354 1.65257 0.372357 0
M  V30 211 O 23.8414 1.78371 0.241583 0
M  V30 212 H 20.2164 0.731787 -0.173182 0
M  V30 213 H 22.1874 2.58603 -1.48885 0
M  V30 214 C 20.9364 3.47668 0.047351 0
M  V30 215 H 20.2594 3.93875 -0.685772 0
M  V30 216 H 21.6994 4.22852 0.311862 0
M  V30 217 C 20.1584 3.11136 1.29212 0
M  V30 218 O 20.6884 3.2325 2.38479 0
M  V30 219 N 18.8944 2.65625 1.17863 0
M  V30 220 H 18.4414 2.55968 0.289493 0
M  V30 221 H 18.3994 2.41553 2.01245 0
M  V30 222 N 22.1715 0.800033 1.35784 0
M  V30 223 C 23.4185 0.377342 1.98953 0
M  V30 224 C 23.7465 -1.05378 1.6348 0
M  V30 225 O 23.0015 -1.74459 0.886707 0
M  V30 226 C 23.3005 0.500276 3.53881 0
M  V30 227 C 22.9665 1.89375 4.09204 0
M  V30 228 C 21.6285 2.27499 4.24025 0
M  V30 229 C 23.9805 2.8057 4.39238 0
M  V30 230 C 21.3085 3.562 4.66195 0
M  V30 231 C 23.6605 4.0871 4.82844 0
M  V30 232 C 22.3245 4.46843 4.95871 0
M  V30 233 H 21.5945 0.138079 0.728021 0
M  V30 234 H 24.2415 1.01955 1.62103 0
M  V30 235 H 22.5465 -0.225405 3.91151 0
M  V30 236 H 24.2435 0.154097 4.00704 0
M  V30 237 H 20.8335 1.58753 3.98115 0
M  V30 238 H 25.0175 2.52367 4.27346 0
M  V30 239 H 20.2735 3.85602 4.74469 0
M  V30 240 H 24.4475 4.79481 5.05046 0
M  V30 241 H 22.0745 5.46623 5.28306 0
M  V30 242 N 23.6496 -1.47581 0.552962 0
M  V30 243 C 24.8966 -2.02482 0.0273243 0
M  V30 244 C 25.2246 -1.42776 -1.32081 0
M  V30 245 O 24.4796 -0.571393 -1.87173 0
M  V30 246 C 24.7786 -3.57199 -0.119728 0
M  V30 247 C 24.4446 -4.35804 1.15697 0
M  V30 248 C 23.1066 -4.57 1.50681 0
M  V30 249 C 25.4586 -4.81167 2.00319 0
M  V30 250 C 22.7866 -5.20807 2.70142 0
M  V30 251 C 25.1386 -5.46293 3.18978 0
M  V30 252 C 23.8026 -5.65722 3.54281 0
M  V30 253 H 23.0726 -0.740933 0.00999866 0
M  V30 254 H 25.7196 -1.77302 0.72362 0
M  V30 255 H 24.0246 -3.81348 -0.89896 0
M  V30 256 H 25.7216 -3.97324 -0.541718 0
M  V30 257 H 22.3116 -4.19582 0.874561 0
M  V30 258 H 26.4956 -4.64574 1.74599 0
M  V30 259 H 21.7516 -5.34045 2.97668 0
M  V30 260 H 25.9256 -5.80407 3.84838 0
M  V30 261 H 23.5526 -6.14936 4.46942 0
M  V30 262 N 25.1277 -0.289203 -1.54924 0
M  V30 263 C 26.3557 0.326463 -2.04308 0
M  V30 264 C 26.7707 1.48413 -1.16701 0
M  V30 265 O 26.1277 1.81507 -0.190087 0
M  V30 266 C 26.1787 0.794014 -3.52672 0
M  V30 267 O 25.8997 -0.317564 -4.36948 0
M  V30 268 C 27.4007 1.47605 -4.18004 0
M  V30 269 H 24.6207 0.0726272 -0.667058 0
M  V30 270 H 27.1647 -0.425401 -2.00026 0
M  V30 271 H 25.3197 1.49593 -3.57352 0
M  V30 272 H 25.7337 0.0443186 -5.24481 0
M  V30 273 H 27.2077 1.75447 -5.23376 0
M  V30 274 H 27.6847 2.41224 -3.67025 0
M  V30 275 H 28.2907 0.81762 -4.17367 0
M  V30 276 N 26.6058 1.57591 -0.0167156 0
M  V30 277 C 28.0218 1.55946 0.339557 0
M  V30 278 C 28.2218 1.02109 1.73713 0
M  V30 279 O 27.2778 0.662303 2.43659 0
M  V30 280 C 28.5908 3.00037 0.199499 0
M  V30 281 C 30.1388 3.11805 0.273193 0
M  V30 282 C 30.6138 4.57713 0.162068 0
M  V30 283 N 32.1048 4.6268 0.219444 0
M  V30 284 C 32.8398 5.73185 0.157054 0
M  V30 285 N 32.3358 6.92786 0.0442936 0
M  V30 286 N 34.1288 5.61707 0.21014 0
M  V30 287 H 26.2798 1.90921 -0.930758 0
M  V30 288 H 28.5428 0.877674 -0.358319 0
M  V30 289 H 28.2488 3.4333 -0.76273 0
M  V30 290 H 28.1228 3.64387 0.974786 0
M  V30 291 H 30.5098 2.68433 1.22587 0
M  V30 292 H 30.5908 2.50201 -0.532256 0
M  V30 293 H 30.2348 5.01763 -0.78714 0
M  V30 294 H 30.1648 5.17283 0.986222 0
M  V30 295 H 32.6558 3.76649 0.307246 0
M  V30 296 H 32.9688 7.728 0.00304069 0
M  V30 297 H 31.3138 6.94999 0.00968457 0
M  V30 298 H 34.5048 4.6716 0.296546 0
M  V30 299 H 34.6778 6.47807 0.158054 0
M  V30 300 N 28.0839 -0.256276 1.55502 0
M  V30 301 C 28.9939 -1.33882 1.92647 0
M  V30 302 C 30.0099 -1.53159 0.825727 0
M  V30 303 O 31.1859 -1.66963 1.12629 0
M  V30 304 C 28.2509 -2.6751 2.20543 0
M  V30 305 C 27.3119 -2.56836 3.43997 0
M  V30 306 C 26.5449 -3.84092 3.70553 0
M  V30 307 O 26.7679 -4.85545 2.99336 0
M  V30 308 O 25.7019 -3.83288 4.64084 0
M  V30 309 H 29.5279 -1.05374 2.84833 0
M  V30 310 H 27.1129 -0.456237 1.42263 0
M  V30 311 H 28.9949 -3.46492 2.39835 0
M  V30 312 H 27.6699 -2.9577 1.31536 0
M  V30 313 H 26.5769 -1.76172 3.30021 0
M  V30 314 H 27.9099 -2.33523 4.33275 0
M  V30 315 N 29.562 -1.4872 -0.521534 0
M  V30 316 C 30.787 -1.61101 -1.30618 0
M  V30 317 C 31.212 -0.274611 -1.86085 0
M  V30 318 O 30.57 0.754937 -1.64834 0
M  V30 319 C 30.618 -2.66709 -2.4269 0
M  V30 320 O 29.722 -2.24456 -3.45967 0
M  V30 321 H 29.063 -0.539921 -0.386499 0
M  V30 322 H 31.593 -1.94767 -0.626645 0
M  V30 323 H 31.603 -2.88245 -2.88754 0
M  V30 324 H 30.278 -3.63727 -2.01682 0
M  V30 325 H 28.855 -2.13168 -3.05964 0
M  V30 326 N 31.0401 0.771051 -1.3745 0
M  V30 327 C 31.9701 1.89827 -1.3597 0
M  V30 328 C 32.9511 1.68562 -0.228216 0
M  V30 329 O 34.1361 1.8941 -0.428675 0
M  V30 330 C 31.2661 3.2712 -1.16662 0
M  V30 331 C 30.2201 3.6295 -2.2683 0
M  V30 332 C 29.5461 4.98791 -1.92644 0
M  V30 333 C 30.8461 3.69627 -3.69017 0
M  V30 334 H 32.5401 1.91323 -2.30295 0
M  V30 335 H 30.0861 0.919082 -1.10855 0
M  V30 336 H 32.0391 4.05615 -1.14256 0
M  V30 337 H 30.7631 3.26059 -0.187926 0
M  V30 338 H 29.4221 2.86763 -2.28392 0
M  V30 339 H 29.0701 4.94271 -0.933021 0
M  V30 340 H 28.7701 5.23733 -2.66416 0
M  V30 341 H 30.2941 5.79685 -1.91826 0
M  V30 342 H 31.7081 4.38273 -3.69581 0
M  V30 343 H 30.1051 4.06067 -4.41848 0
M  V30 344 H 31.1751 2.70273 -4.02592 0
M  V30 345 N 32.5182 1.22032 0.997298 0
M  V30 346 C 33.4812 0.987909 2.06816 0
M  V30 347 C 34.4812 -0.0440084 1.6074 0
M  V30 348 O 35.6712 0.194053 1.73116 0
M  V30 349 C 32.8032 0.49132 3.37341 0
M  V30 350 H 33.9962 1.93803 2.28868 0
M  V30 351 H 31.5492 1.03838 1.16822 0
M  V30 352 H 32.2842 -0.463364 3.20973 0
M  V30 353 H 32.0692 1.23575 3.72118 0
M  V30 354 H 33.5592 0.348824 4.16141 0
M  V30 355 N 33.9963 -1.19345 1.0293 0
M  V30 356 C 34.9593 -2.20793 0.615069 0
M  V30 357 C 35.9593 -1.57553 -0.321533 0
M  V30 358 O 37.1493 -1.73862 -0.108483 0
M  V30 359 C 34.2813 -3.40754 -0.0999222 0
M  V30 360 H 35.4743 -2.58955 1.51269 0
M  V30 361 H 33.0273 -1.3303 0.820534 0
M  V30 362 H 33.7623 -3.0811 -1.01187 0
M  V30 363 H 33.5473 -3.87889 0.57309 0
M  V30 364 H 35.0373 -4.15898 -0.376645 0
M  V30 365 N 35.4744 -0.807222 -1.35358 0
M  V30 366 C 36.7234 -0.384376 -1.98004 0
M  V30 367 C 37.0364 1.0543 -1.64754 0
M  V30 368 O 38.2424 1.58029 -2.20769 0
M  V30 369 C 36.6984 -0.636326 -3.5423 0
M  V30 370 C 36.3064 -2.08759 -3.96388 0
M  V30 371 C 38.0504 -0.278869 -4.23583 0
M  V30 372 C 35.9574 -2.28525 -5.45463 0
M  V30 373 H 34.8874 -0.139986 -0.740891 0
M  V30 374 H 37.5384 -0.991369 -1.54415 0
M  V30 375 H 35.9204 0.0406256 -3.95979 0
M  V30 376 H 37.0944 -2.8024 -3.6579 0
M  V30 377 H 35.4094 -2.40497 -3.39926 0
M  V30 378 H 38.0064 -0.404599 -5.33167 0
M  V30 379 H 38.3494 0.775012 -4.09022 0
M  V30 380 H 38.8824 -0.909764 -3.87257 0
M  V30 381 H 35.6214 -3.32361 -5.64992 0
M  V30 382 H 35.1414 -1.61569 -5.77629 0
M  V30 383 H 36.8204 -2.10109 -6.11934 0
M  V30 384 N 36.9525 1.47285 -0.560781 0
M  V30 385 C 37.8625 2.33846 0.187954 0
M  V30 386 C 38.8785 1.48412 0.908293 0
M  V30 387 O 40.0545 1.81332 0.876388 0
M  V30 388 C 37.1195 3.25178 1.2025 0
M  V30 389 C 36.1805 4.26504 0.489208 0
M  V30 390 C 35.4135 5.13472 1.45542 0
M  V30 391 O 35.6365 5.02959 2.6905 0
M  V30 392 O 34.5705 5.93902 0.977963 0
M  V30 393 H 38.3965 2.99177 -0.522177 0
M  V30 394 H 35.9815 1.45903 -0.321364 0
M  V30 395 H 37.8635 3.81584 1.78805 0
M  V30 396 H 36.5385 2.6247 1.89449 0
M  V30 397 H 35.4455 3.73847 -0.137627 0
M  V30 398 H 36.7785 4.91935 -0.161399 0
M  V30 399 N 38.4306 0.297415 1.54768 0
M  V30 400 C 39.8466 -0.0560823 1.59501 0
M  V30 401 C 40.0466 -1.52725 1.31444 0
M  V30 402 O 39.1026 -2.27947 1.08611 0
M  V30 403 C 40.4156 0.338631 2.98787 0
M  V30 404 C 41.9636 0.287097 3.11681 0
M  V30 405 C 42.4386 0.656579 4.53269 0
M  V30 406 N 43.9296 0.608977 4.59179 0
M  V30 407 C 44.6646 0.867385 5.66802 0
M  V30 408 N 44.1606 1.19157 6.82476 0
M  V30 409 N 45.9536 0.794687 5.56454 0
M  V30 410 H 38.1046 1.25624 1.71267 0
M  V30 411 H 40.3676 0.509057 0.799728 0
M  V30 412 H 40.0736 1.36263 3.2423 0
M  V30 413 H 39.9476 -0.309508 3.75928 0
M  V30 414 H 42.3346 -0.727649 2.85988 0
M  V30 415 H 42.4156 0.969809 2.36703 0
M  V30 416 H 42.0596 1.66912 4.7969 0
M  V30 417 H 41.9896 -0.0481649 5.26578 0
M  V30 418 H 44.4806 0.369198 3.76092 0
M  V30 419 H 44.7936 1.37482 7.60473 0
M  V30 420 H 43.1386 1.22958 6.84037 0
M  V30 421 H 46.3296 0.541098 4.64962 0
M  V30 422 H 46.5026 0.999445 6.40246 0
M  V30 423 N 39.9087 -1.5758 0.0250728 0
M  V30 424 C 41.3247 -1.56124 -0.331282 0
M  V30 425 C 41.5247 -1.03029 -1.73169 0
M  V30 426 O 40.5807 -0.675215 -2.43305 0
M  V30 427 C 41.8937 -3.00139 -0.183584 0
M  V30 428 C 43.4417 -3.11946 -0.256654 0
M  V30 429 C 43.9167 -4.57793 -0.137792 0
M  V30 430 N 45.4077 -4.6279 -0.194904 0
M  V30 431 C 46.1427 -5.7326 -0.126655 0
M  V30 432 N 45.6387 -6.928 -0.00755288 0
M  V30 433 N 47.4317 -5.61811 -0.180348 0
M  V30 434 H 39.5827 -1.90424 0.94087 0
M  V30 435 H 41.8457 -0.875761 0.362968 0
M  V30 436 H 41.5517 -3.4292 0.780927 0
M  V30 437 H 41.4257 -3.64899 -0.955448 0
M  V30 438 H 43.8127 -2.69079 -1.21162 0
M  V30 439 H 43.8937 -2.49915 0.545517 0
M  V30 440 H 43.5377 -5.01339 0.813739 0
M  V30 441 H 43.4677 -5.17798 -0.958775 0
M  V30 442 H 45.9587 -3.76807 -0.287267 0
M  V30 443 H 46.2717 -7.72791 0.0379428 0
M  V30 444 H 44.6167 -6.94995 0.0271731 0
M  V30 445 H 47.8077 -4.6731 -0.271767 0
M  V30 446 H 47.9807 -6.47882 -0.123697 0
M  V30 447 N 41.3868 0.248026 -1.55636 0
M  V30 448 C 42.6358 0.974134 -1.76617 0
M  V30 449 C 42.9488 1.86528 -0.588796 0
M  V30 450 O 44.1548 2.62805 -0.681594 0
M  V30 451 C 42.6108 1.78213 -3.12679 0
M  V30 452 C 42.2188 0.93843 -4.38061 0
M  V30 453 C 43.9628 2.50104 -3.42999 0
M  V30 454 C 41.8698 1.74225 -5.65155 0
M  V30 455 H 40.7998 0.36745 -0.658405 0
M  V30 456 H 43.4508 0.22884 -1.82067 0
M  V30 457 H 41.8328 2.56933 -3.01333 0
M  V30 458 H 43.0068 0.193635 -4.60393 0
M  V30 459 H 41.3218 0.332905 -4.15067 0
M  V30 460 H 43.9188 3.10694 -4.3517 0
M  V30 461 H 44.2618 3.21662 -2.64271 0
M  V30 462 H 44.7948 1.78395 -3.55556 0
M  V30 463 H 41.5338 1.07043 -6.46701 0
M  V30 464 H 41.0538 2.46235 -5.46926 0
M  V30 465 H 42.7328 2.30967 -6.0437 0
M  V30 466 N 42.8649 1.48995 0.513639 0
M  V30 467 C 43.8279 1.64229 1.59879 0
M  V30 468 C 44.8279 0.514696 1.5234 0
M  V30 469 O 46.0179 0.78087 1.55718 0
M  V30 470 C 43.1499 1.62783 2.99524 0
M  V30 471 H 44.3429 2.61004 1.47705 0
M  V30 472 H 41.8959 1.37837 0.736936 0
M  V30 473 H 42.6309 0.675461 3.17188 0
M  V30 474 H 42.4159 2.4466 3.06404 0
M  V30 475 H 43.9059 1.76669 3.78388 0
M  V30 476 N 44.343 -0.763751 1.37857 0
M  V30 477 C 45.253 -1.90817 1.36478 0
M  V30 478 C 46.269 -1.71997 0.263248 0
M  V30 479 O 47.445 -1.95095 0.499979 0
M  V30 480 C 44.51 -3.2605 1.17864 0
M  V30 481 C 43.571 -3.57467 2.3773 0
M  V30 482 C 42.804 -4.86249 2.19995 0
M  V30 483 O 43.027 -5.57884 1.18836 0
M  V30 484 O 41.961 -5.16911 3.08361 0
M  V30 485 H 45.787 -1.94933 2.32884 0
M  V30 486 H 43.372 -0.907619 1.1867 0
M  V30 487 H 45.254 -4.06924 1.09504 0
M  V30 488 H 43.929 -3.22769 0.245372 0
M  V30 489 H 42.836 -2.76796 2.51664 0
M  V30 490 H 44.169 -3.655 3.29652 0
M  V30 491 N 45.8211 -1.22559 -0.990812 0
M  V30 492 C 46.7311 -1.01394 -2.11557 0
M  V30 493 C 47.7471 0.0383962 -1.73958 0
M  V30 494 O 48.9231 -0.154787 -2.00804 0
M  V30 495 C 45.9881 -0.596569 -3.41529 0
M  V30 496 C 45.0491 -1.72276 -3.93217 0
M  V30 497 C 44.2821 -1.32521 -5.16985 0
M  V30 498 O 44.5051 -0.204909 -5.70032 0
M  V30 499 O 43.4391 -2.14247 -5.62478 0
M  V30 500 H 47.2651 -1.95633 -2.32296 0
M  V30 501 H 44.8501 -1.01172 -1.0993 0
M  V30 502 H 46.7321 -0.374263 -4.19735 0
M  V30 503 H 45.4071 0.316939 -3.22145 0
M  V30 504 H 44.3141 -1.99961 -3.16174 0
M  V30 505 H 45.6471 -2.61421 -4.17037 0
M  V30 506 N 47.2992 1.18797 -1.03562 0
M  V30 507 C 48.2462 2.22253 -0.622259 0
M  V30 508 C 49.2162 1.61987 0.36736 0
M  V30 509 O 50.4012 1.88986 0.262492 0
M  V30 510 C 47.5412 3.45097 0.0138462 0
M  V30 511 C 46.6542 4.19722 -1.02263 0
M  V30 512 C 45.7892 5.30009 -0.355573 0
M  V30 513 C 44.8282 5.96399 -1.37749 0
M  V30 514 N 43.9652 6.98234 -0.735766 0
M  V30 515 H 48.8052 2.56968 -1.50903 0
M  V30 516 H 46.3422 1.26245 -0.755017 0
M  V30 517 H 48.3002 4.15279 0.399948 0
M  V30 518 H 46.9302 3.11018 0.864158 0
M  V30 519 H 45.9822 3.48418 -1.52673 0
M  V30 520 H 47.2942 4.65227 -1.79903 0
M  V30 521 H 46.4482 6.0664 0.0850095 0
M  V30 522 H 45.1872 4.85592 0.452967 0
M  V30 523 H 44.1922 5.18512 -1.82826 0
M  V30 524 H 45.4172 6.42899 -2.18764 0
M  V30 525 H 43.3632 6.55979 0.0525597 0
M  V30 526 H 43.2802 7.41965 -1.44995 0
M  V30 527 H 44.5482 7.78845 -0.31941 0
M  V30 528 N 48.7773 0.814389 1.34928 0
M  V30 529 C 49.7403 0.235759 2.27984 0
M  V30 530 C 50.7403 -0.581412 1.49921 0
M  V30 531 O 51.9303 -0.398758 1.69575 0
M  V30 532 C 49.0623 -0.670433 3.34242 0
M  V30 533 H 50.2553 1.05659 2.80671 0
M  V30 534 H 47.8083 0.585614 1.44915 0
M  V30 535 H 48.5433 -1.51466 2.86755 0
M  V30 536 H 48.3283 -0.0860822 3.92005 0
M  V30 537 H 49.8183 -1.06935 4.03676 0
M  V30 538 N 50.2554 -1.46986 0.568584 0
M  V30 539 C 51.2024 -2.30153 -0.172707 0
M  V30 540 C 52.1724 -1.39759 -0.897586 0
M  V30 541 O 53.3574 -1.68716 -0.891044 0
M  V30 542 C 50.4974 -3.23952 -1.1895 0
M  V30 543 C 49.6104 -4.29441 -0.469517 0
M  V30 544 C 48.7454 -5.1038 -1.47259 0
M  V30 545 C 47.7844 -6.07632 -0.738225 0
M  V30 546 N 46.9214 -6.8149 -1.68868 0
M  V30 547 H 51.7614 -2.93019 0.542596 0
M  V30 548 H 49.2984 -1.44422 0.279401 0
M  V30 549 H 51.2564 -3.76767 -1.79173 0
M  V30 550 H 49.8864 -2.62926 -1.87269 0
M  V30 551 H 48.9384 -3.79594 0.247467 0
M  V30 552 H 50.2504 -4.98689 0.105241 0
M  V30 553 H 49.4044 -5.67402 -2.14803 0
M  V30 554 H 48.1434 -4.4106 -2.08128 0
M  V30 555 H 47.1484 -5.49778 -0.0489293 0
M  V30 556 H 48.3734 -6.78966 -0.135129 0
M  V30 557 H 46.3194 -6.14891 -2.28573 0
M  V30 558 H 46.2364 -7.46948 -1.16636 0
M  V30 559 H 47.5044 -7.43078 -2.3549 0
M  V30 560 N 51.7335 -0.305618 -1.54608 0
M  V30 561 C 52.6815 0.584119 -2.25146 0
M  V30 562 C 53.6755 1.13326 -1.25911 0
M  V30 563 O 54.8815 1.08337 -1.43747 0
M  V30 564 H 51.2565 0.206983 -0.722954 0
M  V30 565 H 53.2275 -0.033291 -2.98381 0
M  V30 566 C 51.9765 1.74225 -3.009 0
M  V30 567 H 51.2995 1.32892 -3.77067 0
M  V30 568 H 52.7395 2.34077 -3.53531 0
M  V30 569 C 51.1985 2.64914 -2.0814 0
M  V30 570 O 51.7285 3.66137 -1.65246 0
M  V30 571 N 49.9345 2.3275 -1.74 0
M  V30 572 H 49.4815 1.50479 -2.09078 0
M  V30 573 H 49.4395 2.93694 -1.12211 0
M  V30 574 N 53.2116 1.57565 -0.0334293 0
M  V30 575 C 54.6226 1.79746 0.504798 0
M  V30 576 C 54.9736 0.944091 1.71992 0
M  V30 577 O 54.0986 0.155694 2.15839 0
M  V30 578 C 54.6936 3.25997 0.922567 0
M  V30 579 C 53.2526 3.49159 1.40588 0
M  V30 580 C 52.3996 2.74785 0.372633 0
M  V30 581 H 55.3506 1.56565 -0.259436 0
M  V30 582 H 55.3716 3.35945 1.78666 0
M  V30 583 H 54.8836 3.88081 0.0379825 0
M  V30 584 H 52.9846 2.92332 2.31025 0
M  V30 585 H 53.0976 4.57873 1.41028 0
M  V30 586 H 51.4616 2.40391 0.841672 0
M  V30 587 H 52.2446 3.39587 -0.503559 0
M  V30 588 N 54.6897 -0.239769 1.55765 0
M  V30 589 C 55.6367 -1.29696 1.90913 0
M  V30 590 C 56.6067 -1.47478 0.764164 0
M  V30 591 O 57.7917 -1.61345 1.01845 0
M  V30 592 C 54.9317 -2.64598 2.21544 0
M  V30 593 C 54.0447 -2.54765 3.48882 0
M  V30 594 C 53.1797 -3.82069 3.69049 0
M  V30 595 C 52.2187 -3.66883 4.89963 0
M  V30 596 N 51.3557 -4.86094 5.06614 0
M  V30 597 H 56.1957 -0.990224 2.81067 0
M  V30 598 H 53.7327 -0.477684 1.39128 0
M  V30 599 H 55.6907 -3.43132 2.3731 0
M  V30 600 H 54.3207 -2.93405 1.34585 0
M  V30 601 H 53.3727 -1.67763 3.41409 0
M  V30 602 H 54.6847 -2.39457 4.37563 0
M  V30 603 H 53.8387 -4.69046 3.84812 0
M  V30 604 H 52.5777 -4.00282 2.78614 0
M  V30 605 H 51.5827 -2.78289 4.74168 0
M  V30 606 H 52.8077 -3.50157 5.81865 0
M  V30 607 H 50.7537 -5.04655 4.19117 0
M  V30 608 H 50.6707 -4.73443 5.89396 0
M  V30 609 H 51.9387 -5.74549 5.26795 0
M  V30 610 N 56.1678 -1.49265 -0.50573 0
M  V30 611 C 57.5788 -1.51769 -1.08734 0
M  V30 612 C 57.9298 -0.301192 -1.93874 0
M  V30 613 O 57.0548 0.589456 -2.08217 0
M  V30 614 C 57.6498 -2.75017 -1.97867 0
M  V30 615 C 56.2088 -2.80314 -2.51199 0
M  V30 616 C 55.3558 -2.4562 -1.28709 0
M  V30 617 H 58.3068 -1.56031 -0.289855 0
M  V30 618 H 58.3278 -2.5491 -2.82491 0
M  V30 619 H 57.8398 -3.63539 -1.35873 0
M  V30 620 H 55.9408 -1.96061 -3.16845 0
M  V30 621 H 56.0538 -3.82366 -2.88675 0
M  V30 622 H 54.4178 -1.97297 -1.61078 0
M  V30 623 H 55.2008 -3.36411 -0.6843 0
M  V30 624 N 57.6459 0.756429 -1.3826 0
M  V30 625 C 58.9229 1.50584 -1.24835 0
M  V30 626 C 59.3029 2.10556 0.151485 0
M  V30 627 O 58.6509 1.96825 1.1607 0
M  V30 628 C 58.8609 2.57448 -2.3563 0
M  V30 629 C 60.2089 3.24429 -2.73917 0
M  V30 630 O 61.2329 2.67751 -2.34921 0
M  V30 631 O 60.0919 4.26937 -3.41156 0
M  V30 632 H 57.1859 0.667664 -0.48801 0
M  V30 633 H 59.7319 0.792083 -1.5008 0
M  V30 634 H 58.5039 2.11362 -3.29305 0
M  V30 635 H 58.1269 3.36408 -2.11933 0
M  V30 636 N 59.124 1.23083 0.984299 0
M  V30 637 C 60.071 1.00854 2.07598 0
M  V30 638 C 61.041 -0.0726709 1.65941 0
M  V30 639 O 62.226 0.0786535 1.90638 0
M  V30 640 C 59.366 0.601645 3.39815 0
M  V30 641 C 58.479 1.75456 3.94765 0
M  V30 642 C 57.614 1.29482 5.15177 0
M  V30 643 C 56.653 2.41873 5.62284 0
M  V30 644 N 55.79 1.96885 6.73929 0
M  V30 645 H 60.63 1.943 2.25946 0
M  V30 646 H 58.167 0.968001 1.10762 0
M  V30 647 H 60.125 0.346854 4.15756 0
M  V30 648 H 58.755 -0.295803 3.21442 0
M  V30 649 H 57.807 2.12346 3.15616 0
M  V30 650 H 59.119 2.59965 4.25699 0
M  V30 651 H 58.273 0.997923 5.98437 0
M  V30 652 H 57.012 0.420046 4.85888 0
M  V30 653 H 56.017 2.72342 4.77608 0
M  V30 654 H 57.242 3.29881 5.93595 0
M  V30 655 H 55.188 1.11782 6.46406 0
M  V30 656 H 55.105 2.74956 7.04227 0
M  V30 657 H 56.373 1.70289 7.60672 0
M  V30 658 N 60.6021 -1.18246 1.0419 0
M  V30 659 C 61.5491 -2.2192 0.634037 0
M  V30 660 C 62.5191 -1.62179 -0.358765 0
M  V30 661 O 63.7041 -1.89122 -0.252466 0
M  V30 662 C 60.8441 -3.451 0.00445535 0
M  V30 663 C 59.9571 -4.19174 1.04487 0
M  V30 664 C 59.0921 -5.29813 0.383676 0
M  V30 665 C 58.1311 -5.9566 1.4091 0
M  V30 666 N 57.2681 -6.97834 0.772784 0
M  V30 667 H 62.1081 -2.56164 1.52263 0
M  V30 668 H 59.6451 -1.25843 0.761701 0
M  V30 669 H 61.6031 -4.15485 -0.377919 0
M  V30 670 H 60.2331 -3.11472 -0.847652 0
M  V30 671 H 59.2851 -3.47604 1.54518 0
M  V30 672 H 60.5971 -4.64267 1.82368 0
M  V30 673 H 59.7511 -6.06677 -0.0528366 0
M  V30 674 H 58.4901 -4.85825 -0.427208 0
M  V30 675 H 57.4951 -5.17535 1.85574 0
M  V30 676 H 58.7201 -6.4173 2.22171 0
M  V30 677 H 56.6661 -6.55998 -0.0177708 0
M  V30 678 H 56.5831 -7.41186 1.48928 0
M  V30 679 H 57.8511 -7.78665 0.36071 0
M  V30 680 N 62.0802 -0.821533 -1.34494 0
M  V30 681 C 63.3572 -0.33159 -1.92769 0
M  V30 682 C 63.7372 1.18088 -1.74981 0
M  V30 683 O 63.0852 1.98733 -1.12772 0
M  V30 684 C 63.2952 -0.759398 -3.40638 0
M  V30 685 C 64.6432 -0.757433 -4.1779 0
M  V30 686 O 65.6672 -0.70189 -3.49216 0
M  V30 687 O 64.5262 -0.829361 -5.4017 0
M  V30 688 H 61.6202 -0.0902502 -0.822061 0
M  V30 689 H 64.1662 -0.906231 -1.43477 0
M  V30 690 H 62.9382 -1.8012 -3.47379 0
M  V30 691 H 62.5612 -0.160378 -3.97276 0
M  V30 692 N 63.5583 1.46682 -0.576371 0
M  V30 693 C 64.8353 1.95599 0.00703437 0
M  V30 694 C 65.2153 1.51904 1.46589 0
M  V30 695 O 64.5633 0.766755 2.15251 0
M  V30 696 C 64.7733 3.4864 -0.158404 0
M  V30 697 C 66.1213 4.24594 -0.0229439 0
M  V30 698 O 67.1453 3.56094 -0.0869173 0
M  V30 699 O 66.0043 5.46373 0.118015 0
M  V30 700 H 63.0983 0.825275 0.053384 0
M  V30 701 H 65.6443 1.56996 -0.644244 0
M  V30 702 H 64.4163 3.7331 -1.17282 0
M  V30 703 H 64.0393 3.94057 0.5296 0
M  V30 704 N 65.0364 0.313813 1.54444 0
M  V30 705 C 66.3134 -0.345447 1.92525 0
M  V30 706 C 66.6934 -1.70667 1.24242 0
M  V30 707 O 66.0414 -2.25273 0.382654 0
M  V30 708 C 66.2514 -0.44737 3.46121 0
M  V30 709 C 67.5994 -0.712238 4.18584 0
M  V30 710 O 68.6234 -0.530678 3.52225 0
M  V30 711 O 67.4824 -1.06183 5.36085 0
M  V30 712 H 64.5764 -0.195407 0.803583 0
M  V30 713 H 67.1224 0.362813 1.65776 0
M  V30 714 H 65.8944 0.509043 3.87975 0
M  V30 715 H 65.5174 -1.20359 3.78945 0
M  V30 716 N 66.5145 -1.57545 0.0417849 0
M  V30 717 C 67.4245 -2.14451 -0.951213 0
M  V30 718 C 68.4405 -1.09992 -1.34825 0
M  V30 719 O 69.6165 -1.42114 -1.42708 0
M  V30 720 C 66.6815 -2.67063 -2.21084 0
M  V30 721 C 65.7425 -3.86284 -1.87304 0
M  V30 722 C 64.9755 -4.36378 -3.07261 0
M  V30 723 O 65.1985 -3.85587 -4.20332 0
M  V30 724 O 64.1325 -5.28077 -2.88822 0
M  V30 725 H 67.9585 -2.99601 -0.497287 0
M  V30 726 H 65.5435 -1.48317 -0.179567 0
M  V30 727 H 67.4255 -3.00914 -2.95006 0
M  V30 728 H 66.1005 -1.84989 -2.65633 0
M  V30 729 H 65.0075 -3.57338 -1.10727 0
M  V30 730 H 66.3405 -4.6956 -1.47562 0
M  V30 731 N 67.9926 0.231505 -1.5589 0
M  V30 732 C 68.9406 1.30649 -1.92441 0
M  V30 733 C 69.9346 1.49037 -0.805254 0
M  V30 734 O 71.1406 1.50329 -0.990007 0
M  V30 735 H 67.5156 0.437812 -0.611412 0
M  V30 736 H 69.4866 0.970973 -2.82161 0
M  V30 737 C 68.2356 2.65179 -2.24889 0
M  V30 738 H 67.5586 2.51835 -3.10514 0
M  V30 739 H 68.9986 3.39234 -2.54355 0
M  V30 740 C 67.4576 3.19439 -1.07054 0
M  V30 741 O 67.9876 4.00371 -0.326499 0
M  V30 742 N 66.1936 2.77675 -0.85703 0
M  V30 743 H 65.7406 2.11969 -1.46379 0
M  V30 744 H 65.6986 3.14321 -0.0703223 0
M  V30 745 N 69.4707 1.49531 0.497807 0
M  V30 746 C 70.7187 1.58865 1.24926 0
M  V30 747 C 71.0397 0.278721 1.92998 0
M  V30 748 O 70.3097 -0.702144 1.82885 0
M  V30 749 H 68.8897 0.585343 0.464094 0
M  V30 750 H 71.5517 1.86174 0.57666 0
M  V30 751 H 70.6477 2.38633 2.01149 0
M  V30 752 N 70.9488 -0.749086 1.3866 0
M  V30 753 C 72.3598 -1.32664 1.31366 0
M  V30 754 C 72.7108 -1.96179 -0.028484 0
M  V30 755 O 71.8358 -1.9537 -0.93057 0
M  V30 756 C 72.4308 -2.41219 2.37905 0
M  V30 757 C 70.9898 -2.94684 2.34176 0
M  V30 758 C 70.1368 -1.68108 2.20533 0
M  V30 759 H 73.0878 -0.547628 1.48952 0
M  V30 760 H 73.1088 -3.21268 2.0388 0
M  V30 761 H 72.6208 -1.94962 3.35576 0
M  V30 762 H 70.7218 -3.45258 1.401 0
M  V30 763 H 70.8348 -3.48757 3.2849 0
M  V30 764 H 69.1988 -1.91907 1.67463 0
M  V30 765 H 69.9818 -1.23923 3.20153 0
M  V30 766 N 72.4269 -1.23603 -0.977757 0
M  V30 767 C 73.3739 -1.01954 -2.07061 0
M  V30 768 C 74.3439 0.0638697 -1.65977 0
M  V30 769 O 75.5289 -0.0887624 -1.90593 0
M  V30 770 C 72.6689 -0.619658 -3.39491 0
M  V30 771 C 71.7819 -1.77547 -3.93829 0
M  V30 772 C 70.9169 -1.32212 -5.14484 0
M  V30 773 C 69.9559 -2.44852 -5.60994 0
M  V30 774 N 69.0929 -2.00456 -6.72876 0
M  V30 775 H 73.9329 -1.95495 -2.24913 0
M  V30 776 H 71.4699 -0.973861 -1.10247 0
M  V30 777 H 73.4279 -0.368898 -4.15566 0
M  V30 778 H 72.0579 0.278752 -3.21594 0
M  V30 779 H 71.1099 -2.14016 -3.14486 0
M  V30 780 H 72.4219 -2.62219 -4.24314 0
M  V30 781 H 71.5759 -1.02965 -5.97899 0
M  V30 782 H 70.3149 -0.445808 -4.85658 0
M  V30 783 H 69.3199 -2.74871 -4.76157 0
M  V30 784 H 70.5449 -3.33024 -5.91837 0
M  V30 785 H 68.4909 -1.15208 -6.45804 0
M  V30 786 H 68.4079 -2.78687 -7.02759 0
M  V30 787 H 69.6759 -1.7432 -7.59758 0
M  V30 788 N 73.905 1.17692 -1.04816 0
M  V30 789 C 75.316 1.69501 -0.782698 0
M  V30 790 C 75.667 1.83456 0.695577 0
M  V30 791 O 74.792 1.51942 1.54086 0
M  V30 792 C 75.387 3.07874 -1.41419 0
M  V30 793 C 73.946 3.56864 -1.19686 0
M  V30 794 C 73.093 2.3322 -1.50012 0
M  V30 795 H 76.044 1.02262 -1.2136 0
M  V30 796 H 76.065 3.71528 -0.821428 0
M  V30 797 H 75.577 2.97685 -2.49009 0
M  V30 798 H 73.678 3.72337 -0.140043 0
M  V30 799 H 73.791 4.39851 -1.89916 0
M  V30 800 H 72.155 2.37501 -0.920071 0
M  V30 801 H 72.938 2.25644 -2.58727 0
M  V30 802 N 75.3831 0.828654 1.34056 0
M  V30 803 C 76.3311 0.242973 2.31327 0
M  V30 804 C 77.3251 -0.61944 1.57668 0
M  V30 805 O 78.5311 -0.51014 1.7262 0
M  V30 806 H 74.9061 0.059834 0.749616 0
M  V30 807 H 76.8771 1.07809 2.78244 0
M  V30 808 C 75.6261 -0.575733 3.429 0
M  V30 809 H 74.9491 0.0785582 3.99723 0
M  V30 810 H 76.3891 -0.951547 4.13185 0
M  V30 811 C 74.8481 -1.75044 2.87856 0
M  V30 812 O 75.3781 -2.84882 2.83205 0
M  V30 813 N 73.5841 -1.56903 2.44602 0
M  V30 814 H 73.1311 -0.675547 2.48584 0
M  V30 815 H 73.0891 -2.35652 2.08124 0
M  V30 816 N 76.8612 -1.46375 0.584142 0
M  V30 817 C 78.0862 -2.07268 0.0740405 0
M  V30 818 C 78.5112 -1.42979 -1.22223 0
M  V30 819 O 77.8692 -0.514092 -1.73859 0
M  V30 820 C 77.9172 -3.60518 -0.0767769 0
M  V30 821 O 77.0212 -3.96533 -1.13292 0
M  V30 822 H 76.3622 -0.660961 0.0634524 0
M  V30 823 H 78.8922 -1.87991 0.807492 0
M  V30 824 H 78.9022 -4.07021 -0.282489 0
M  V30 825 H 77.5772 -4.06702 0.86986 0
M  V30 826 H 76.1542 -3.61738 -0.905553 0
M  V30 827 N 78.3393 -0.321999 -1.54275 0
M  V30 828 C 79.6163 0.335232 -1.92706 0
M  V30 829 C 79.9963 1.70006 -1.25145 0
M  V30 830 O 79.3443 2.25067 -0.394596 0
M  V30 831 C 79.5543 0.429008 -3.46353 0
M  V30 832 C 80.9023 0.690029 -4.18956 0
M  V30 833 O 81.9263 0.511992 -3.52501 0
M  V30 834 O 80.7853 1.03338 -5.36641 0
M  V30 835 H 77.8793 0.191143 -0.804608 0
M  V30 836 H 80.4253 -0.3716 -1.65581 0
M  V30 837 H 79.1973 -0.529611 -3.87699 0
M  V30 838 H 78.8203 1.18348 -3.79578 0
M  V30 839 N 79.8174 1.5752 -0.0501392 0
M  V30 840 C 80.7474 2.14502 0.922566 0
M  V30 841 C 81.7284 1.06642 1.3252 0
M  V30 842 O 82.9134 1.34577 1.4001 0
M  V30 843 C 80.0434 2.68916 2.19776 0
M  V30 844 C 78.9974 3.8175 1.93523 0
M  V30 845 C 78.3234 4.22677 3.27487 0
M  V30 846 C 79.6234 5.06932 1.25765 0
M  V30 847 H 81.3174 2.9603 0.447952 0
M  V30 848 H 78.8634 1.42401 0.214024 0
M  V30 849 H 80.8164 3.07419 2.88222 0
M  V30 850 H 79.5404 1.84578 2.69441 0
M  V30 851 H 78.1994 3.43718 1.27489 0
M  V30 852 H 77.8474 3.35291 3.74952 0
M  V30 853 H 77.5474 4.98725 3.1072 0
M  V30 854 H 79.0714 4.63779 3.97166 0
M  V30 855 H 80.4854 5.42888 1.84244 0
M  V30 856 H 78.8824 5.88116 1.19328 0
M  V30 857 H 79.9524 4.84337 0.233536 0
M  V30 858 N 81.2955 -0.223234 1.56011 0
M  V30 859 C 82.2055 -1.29766 1.95443 0
M  V30 860 C 83.2215 -1.51373 0.858028 0
M  V30 861 O 84.3975 -1.64536 1.16146 0
M  V30 862 C 81.4625 -2.62772 2.26167 0
M  V30 863 C 80.5235 -2.49482 3.49367 0
M  V30 864 C 79.7565 -3.76145 3.78616 0
M  V30 865 O 79.9795 -4.79087 3.09568 0
M  V30 866 O 78.9135 -3.73358 4.72109 0
M  V30 867 H 82.7395 -0.99309 2.87004 0
M  V30 868 H 80.3245 -0.425958 1.43199 0
M  V30 869 H 82.2065 -3.41327 2.47131 0
M  V30 870 H 80.8815 -2.92913 1.37781 0
M  V30 871 H 79.7885 -1.69133 3.33684 0
M  V30 872 H 81.1215 -2.2428 4.38131 0
M  V30 873 N 82.7736 -1.49793 -0.48987 0
M  V30 874 C 83.7366 -1.66752 -1.57246 0
M  V30 875 C 84.7366 -0.538867 -1.51502 0
M  V30 876 O 85.9266 -0.805545 -1.54456 0
M  V30 877 C 83.0586 -1.67528 -2.96896 0
M  V30 878 H 84.2516 -2.63321 -1.43534 0
M  V30 879 H 81.8046 -1.38992 -0.714914 0
M  V30 880 H 82.5396 -0.725837 -3.16073 0
M  V30 881 H 82.3246 -2.49504 -3.02473 0
M  V30 882 H 83.8146 -1.82667 -3.7553 0
M  V30 883 N 84.2517 0.741722 -1.39055 0
M  V30 884 C 85.4997 1.49818 -1.35643 0
M  V30 885 C 85.8207 1.94938 0.0491642 0
M  V30 886 O 85.0907 1.68505 0.999141 0
M  V30 887 H 83.6707 0.555755 -0.499144 0
M  V30 888 H 86.3327 0.880957 -1.73854 0
M  V30 889 H 85.4287 2.38348 -2.01486 0
M  V30 890 N 85.7298 1.2412 0.971189 0
M  V30 891 C 86.6768 1.0305 2.06517 0
M  V30 892 C 87.6468 -0.0550666 1.66009 0
M  V30 893 O 88.8318 0.0988688 1.90544 0
M  V30 894 C 85.9718 0.637653 3.39158 0
M  V30 895 C 85.0848 1.79633 3.92882 0
M  V30 896 C 84.2198 1.34939 5.13775 0
M  V30 897 C 83.2588 2.47823 5.59687 0
M  V30 898 N 82.3958 2.04022 6.71803 0
M  V30 899 H 87.2358 1.96685 2.23873 0
M  V30 900 H 84.7728 0.979694 1.09729 0
M  V30 901 H 86.7308 0.390931 4.15364 0
M  V30 902 H 85.3608 -0.261693 3.21737 0
M  V30 903 H 84.4128 2.15681 3.13346 0
M  V30 904 H 85.7248 2.64466 4.22918 0
M  V30 905 H 84.8788 1.06134 5.97345 0
M  V30 906 H 83.6178 0.471557 4.85415 0
M  V30 907 H 82.6228 2.77392 4.74693 0
M  V30 908 H 83.8478 3.36158 5.90063 0
M  V30 909 H 81.7938 1.18632 6.45184 0
M  V30 910 H 81.7108 2.82409 7.01271 0
M  V30 911 H 82.9788 1.78347 7.58823 0
M  V30 912 N 87.2079 -1.17134 1.05439 0
M  V30 913 C 88.1559 -2.23289 0.651511 0
M  V30 914 C 89.1499 -1.66186 -0.328411 0
M  V30 915 O 90.3559 -1.78949 -0.194206 0
M  V30 916 H 86.7309 -0.726938 0.192523 0
M  V30 917 H 88.7019 -2.54565 1.55689 0
M  V30 918 C 87.4509 -3.47671 0.0448436 0
M  V30 919 H 86.7739 -3.91918 0.78996 0
M  V30 920 H 88.2139 -4.2353 -0.19964 0
M  V30 921 C 86.6729 -3.14453 -1.20918 0
M  V30 922 O 87.2029 -3.29459 -2.29825 0
M  V30 923 N 85.4089 -2.68657 -1.10779 0
M  V30 924 H 84.9559 -2.56646 -0.221526 0
M  V30 925 H 84.9139 -2.46804 -1.9477 0
M  V30 926 N 88.686 -0.835752 -1.33615 0
M  V30 927 C 89.616 -0.281739 -2.31794 0
M  V30 928 C 90.597 0.608833 -1.58831 0
M  V30 929 O 91.782 0.533035 -1.86741 0
M  V30 930 C 88.912 0.546612 -3.42971 0
M  V30 931 C 87.866 -0.247904 -4.27281 0
M  V30 932 C 87.192 0.704001 -5.30045 0
M  V30 933 C 88.492 -1.46324 -5.01385 0
M  V30 934 H 90.186 -1.10206 -2.78379 0
M  V30 935 H 87.732 -0.531388 -1.33837 0
M  V30 936 H 89.685 0.944467 -4.1068 0
M  V30 937 H 88.409 1.40011 -2.95067 0
M  V30 938 H 87.068 -0.627281 -3.61194 0
M  V30 939 H 86.716 1.55381 -4.78399 0
M  V30 940 H 86.416 0.176524 -5.87335 0
M  V30 941 H 87.94 1.09944 -6.0062 0
M  V30 942 H 89.354 -1.13871 -5.61877 0
M  V30 943 H 87.751 -1.92728 -5.6831 0
M  V30 944 H 88.821 -2.23467 -4.30338 0
M  V30 945 N 90.1641 1.46063 -0.591896 0
M  V30 946 C 91.5751 1.85944 -0.167822 0
M  V30 947 C 91.9261 1.49429 1.27143 0
M  V30 948 O 91.0511 0.913515 1.96173 0
M  V30 949 C 91.6461 3.37489 -0.297794 0
M  V30 950 C 90.2051 3.76332 0.0714732 0
M  V30 951 C 89.3521 2.7006 -0.629509 0
M  V30 952 H 92.3031 1.37087 -0.799555 0
M  V30 953 H 92.3241 3.77532 0.474349 0
M  V30 954 H 91.8361 3.64034 -1.3454 0
M  V30 955 H 89.9371 3.55405 1.11886 0
M  V30 956 H 90.0501 4.78088 -0.311245 0
M  V30 957 H 88.4141 2.54607 -0.0687867 0
M  V30 958 H 89.1971 2.99444 -1.67894 0
M  V30 959 N 91.6422 0.330177 1.54103 0
M  V30 960 C 92.8892 -0.270405 2.00686 0
M  V30 961 C 93.2172 -1.51621 1.21825 0
M  V30 962 O 92.4722 -1.93536 0.29025 0
M  V30 963 C 92.7712 -0.643134 3.51566 0
M  V30 964 C 92.4372 0.504251 4.48072 0
M  V30 965 C 91.0992 0.819163 4.74176 0
M  V30 966 C 93.4512 1.27465 5.05373 0
M  V30 967 C 90.7792 1.90708 5.5484 0
M  V30 968 C 93.1312 2.35271 5.87223 0
M  V30 969 C 91.7952 2.67336 6.11627 0
M  V30 970 H 91.0652 -0.0989482 0.734364 0
M  V30 971 H 93.7122 0.455324 1.86008 0
M  V30 972 H 92.0172 -1.44938 3.64006 0
M  V30 973 H 93.7142 -1.11949 3.85056 0
M  V30 974 H 90.3042 0.248733 4.27878 0
M  V30 975 H 94.4882 1.04462 4.85182 0
M  V30 976 H 89.7442 2.15991 5.71977 0
M  V30 977 H 93.9182 2.95405 6.30641 0
M  V30 978 H 91.5452 3.51763 6.73919 0
M  V30 979 N 93.1203 -1.57491 0.0584922 0
M  V30 980 C 94.3693 -1.92155 -0.613146 0
M  V30 981 C 94.6823 -0.939334 -1.71569 0
M  V30 982 O 95.8883 -1.17829 -2.44599 0
M  V30 983 C 94.3443 -3.41303 -1.14195 0
M  V30 984 C 93.9523 -4.47944 -0.0711265 0
M  V30 985 C 95.6963 -3.84988 -1.78841 0
M  V30 986 C 93.6033 -5.88212 -0.613225 0
M  V30 987 H 92.5333 -0.717162 -0.232796 0
M  V30 988 H 95.1843 -1.83049 0.12857 0
M  V30 989 H 93.5663 -3.45437 -1.93621 0
M  V30 990 H 94.7403 -4.55408 0.702836 0
M  V30 991 H 93.0553 -4.13644 0.478313 0
M  V30 992 H 95.6523 -4.87159 -2.20408 0
M  V30 993 H 95.9953 -3.21632 -2.64308 0
M  V30 994 H 96.5283 -3.83401 -1.06059 0
M  V30 995 H 93.2673 -6.55183 0.203978 0
M  V30 996 H 92.7873 -5.84294 -1.35501 0
M  V30 997 H 94.4663 -6.37687 -1.09383 0
M  V30 998 N 94.5984 0.214957 -1.56127 0
M  V30 999 C 95.8284 0.953707 -1.8327 0
M  V30 1000 C 96.2364 1.78181 -0.636262 0
M  V30 1001 O 95.5794 1.79191 0.404516 0
M  V30 1002 C 95.6414 1.91516 -3.0424 0
M  V30 1003 C 95.3054 1.27094 -4.38972 0
M  V30 1004 C 96.3024 0.657575 -5.15725 0
M  V30 1005 C 93.9874 1.28073 -4.85698 0
M  V30 1006 C 95.9814 0.0625968 -6.37369 0
M  V30 1007 C 93.6684 0.681914 -6.07283 0
M  V30 1008 C 94.6664 0.0739046 -6.8296 0
M  V30 1009 O 94.3544 -0.515582 -8.02245 0
M  V30 1010 H 94.0864 0.284764 -0.613095 0
M  V30 1011 H 96.6404 0.233283 -2.04071 0
M  V30 1012 H 94.8704 2.67475 -2.79274 0
M  V30 1013 H 96.5594 2.52001 -3.18198 0
M  V30 1014 H 97.3254 0.642288 -4.80728 0
M  V30 1015 H 93.2044 1.74337 -4.26764 0
M  V30 1016 H 96.7484 -0.412593 -6.96379 0
M  V30 1017 H 92.6454 0.694636 -6.41752 0
M  V30 1018 H 93.4134 -0.410544 -8.1747 0
M  V30 1019 N 96.0765 1.50051 0.48192 0
M  V30 1020 C 97.3245 1.60181 1.23234 0
M  V30 1021 C 97.6455 0.299176 1.92691 0
M  V30 1022 O 96.9155 -0.682708 1.83619 0
M  V30 1023 H 95.4955 0.590232 0.457859 0
M  V30 1024 H 98.1575 1.86775 0.556881 0
M  V30 1025 H 97.2535 2.40753 1.98607 0
M  V30 1026 N 97.5546 -0.734337 1.39446 0
M  V30 1027 C 98.8316 -1.48579 1.27215 0
M  V30 1028 C 99.2116 -2.1077 -0.117968 0
M  V30 1029 O 98.5596 -1.98646 -1.12924 0
M  V30 1030 C 98.7696 -2.53667 2.39696 0
M  V30 1031 C 100.118 -3.20031 2.79044 0
M  V30 1032 O 101.142 -2.6398 2.39151 0
M  V30 1033 O 100.001 -4.21455 3.47905 0
M  V30 1034 H 97.0946 -0.659816 0.49857 0
M  V30 1035 H 99.6406 -0.768106 1.51322 0
M  V30 1036 H 98.4126 -2.06096 3.32626 0
M  V30 1037 H 98.0356 -3.32994 2.17258 0
M  V30 1038 N 99.0327 -1.24633 -0.964593 0
M  V30 1039 C 100.282 -1.08188 -1.7023 0
M  V30 1040 C 100.595 0.37873 -1.91898 0
M  V30 1041 O 101.801 0.663427 -2.6327 0
M  V30 1042 C 100.257 -1.88773 -3.06419 0
M  V30 1043 C 99.8647 -3.39263 -2.92582 0
M  V30 1044 C 101.609 -1.80867 -3.84041 0
M  V30 1045 C 99.5157 -4.1218 -4.24101 0
M  V30 1046 H 98.4457 -0.401245 -0.638372 0
M  V30 1047 H 101.097 -1.48742 -1.07462 0
M  V30 1048 H 99.4787 -1.41035 -3.70034 0
M  V30 1049 H 100.653 -3.94603 -2.37961 0
M  V30 1050 H 98.9677 -3.48154 -2.28424 0
M  V30 1051 H 101.565 -2.32646 -4.81435 0
M  V30 1052 H 101.908 -0.774543 -4.09031 0
M  V30 1053 H 102.441 -2.26301 -3.27159 0
M  V30 1054 H 99.1797 -5.15965 -4.04303 0
M  V30 1055 H 98.6997 -3.61626 -4.78526 0
M  V30 1056 H 100.379 -4.19349 -4.92702 0
M  V30 1057 N 100.511 1.16574 -1.06058 0
M  V30 1058 C 101.922 1.68662 -0.800632 0
M  V30 1059 C 102.273 1.84184 0.67608 0
M  V30 1060 O 101.398 1.53568 1.52466 0
M  V30 1061 C 101.993 3.06356 -1.44676 0
M  V30 1062 C 100.552 3.55575 -1.23465 0
M  V30 1063 C 99.6988 2.31616 -1.52477 0
M  V30 1064 H 102.65 1.00969 -1.22438 0
M  V30 1065 H 102.671 3.70636 -0.860788 0
M  V30 1066 H 102.183 2.95027 -2.52152 0
M  V30 1067 H 100.284 3.72167 -0.179527 0
M  V30 1068 H 100.397 4.37812 -1.94571 0
M  V30 1069 H 98.7608 2.36512 -0.945209 0
M  V30 1070 H 99.5438 2.22887 -2.61106 0
M  V30 1071 N 101.989 0.842826 1.3317 0
M  V30 1072 C 103.4 0.496651 1.79973 0
M  V30 1073 C 103.751 -0.984641 1.69703 0
M  V30 1074 O 102.876 -1.76743 1.24863 0
M  V30 1075 C 103.471 0.894727 3.26772 0
M  V30 1076 C 102.03 0.600629 3.71577 0
M  V30 1077 C 101.177 1.10091 2.5451 0
M  V30 1078 H 104.128 1.03116 1.20635 0
M  V30 1079 H 104.149 0.206347 3.7994 0
M  V30 1080 H 103.661 1.97287 3.34215 0
M  V30 1081 H 101.762 -0.467284 3.69658 0
M  V30 1082 H 101.875 1.15863 4.64879 0
M  V30 1083 H 100.239 0.52162 2.49301 0
M  V30 1084 H 101.022 2.18591 2.64713 0
M  V30 1085 N 103.467 -1.45747 0.599634 0
M  V30 1086 C 104.377 -2.34262 -0.125888 0
M  V30 1087 C 105.393 -1.50768 -0.868625 0
M  V30 1088 O 106.569 -1.83592 -0.828003 0
M  V30 1089 C 103.634 -3.28252 -1.11587 0
M  V30 1090 C 102.695 -4.27651 -0.375956 0
M  V30 1091 C 101.928 -5.1715 -1.31877 0
M  V30 1092 O 102.151 -5.09916 -2.55621 0
M  V30 1093 O 101.085 -5.96286 -0.820157 0
M  V30 1094 H 104.911 -2.97688 0.601315 0
M  V30 1095 H 102.496 -1.44999 0.359934 0
M  V30 1096 H 104.378 -3.86191 -1.68626 0
M  V30 1097 H 103.053 -2.67401 -1.82424 0
M  V30 1098 H 101.96 -3.7335 0.236698 0
M  V30 1099 H 103.293 -4.91334 0.29177 0
M  V30 1100 N 104.945 -0.338344 -1.53925 0
M  V30 1101 C 105.878 0.563758 -2.21127 0
M  V30 1102 C 106.856 1.10433 -1.19345 0
M  V30 1103 O 108.04 1.16557 -1.48144 0
M  V30 1104 C 105.167 1.77505 -2.88461 0
M  V30 1105 C 104.213 1.3644 -4.04087 0
M  V30 1106 S 105.046 0.388593 -5.34088 0
M  V30 1107 C 106.202 1.60683 -6.04923 0
M  V30 1108 H 106.435 -0.00704546 -2.97299 0
M  V30 1109 H 103.968 -0.122418 -1.53914 0
M  V30 1110 H 105.926 2.46999 -3.27875 0
M  V30 1111 H 104.587 2.31706 -2.12064 0
M  V30 1112 H 103.78 2.26739 -4.50117 0
M  V30 1113 H 103.382 0.748998 -3.66423 0
M  V30 1114 H 105.674 2.54209 -6.28 0
M  V30 1115 H 106.617 1.18842 -6.98056 0
M  V30 1116 H 107.025 1.80052 -5.35015 0
M  V30 1117 N 106.423 1.57458 -0.0668435 0
M  V30 1118 C 107.669 1.93587 0.6043 0
M  V30 1119 C 108.002 0.946722 1.69561 0
M  V30 1120 O 107.277 -0.0248516 1.94484 0
M  V30 1121 C 107.56 3.40014 1.18585 0
M  V30 1122 C 107.413 4.49685 0.101529 0
M  V30 1123 C 108.732 3.87154 2.09284 0
M  V30 1124 H 105.851 0.703958 0.218202 0
M  V30 1125 H 108.493 1.89542 -0.131804 0
M  V30 1126 H 106.643 3.43592 1.81319 0
M  V30 1127 H 108.315 4.5823 -0.531279 0
M  V30 1128 H 106.558 4.30059 -0.568487 0
M  V30 1129 H 107.229 5.49266 0.54874 0
M  V30 1130 H 109.705 3.85551 1.56491 0
M  V30 1131 H 108.581 4.90231 2.46911 0
M  V30 1132 H 108.842 3.2481 2.99918 0
M  V30 1133 N 107.901 -0.206675 1.56239 0
M  V30 1134 C 109.126 -0.949474 1.8439 0
M  V30 1135 C 109.551 -1.76549 0.649016 0
M  V30 1136 O 108.909 -1.76782 -0.402231 0
M  V30 1137 C 108.957 -1.83078 3.10668 0
M  V30 1138 O 108.061 -2.9281 2.90407 0
M  V30 1139 H 107.402 -0.268033 0.607499 0
M  V30 1140 H 109.932 -0.215488 2.03462 0
M  V30 1141 H 109.942 -2.2377 3.41161 0
M  V30 1142 H 108.617 -1.23112 3.97261 0
M  V30 1143 H 107.194 -2.55956 2.71184 0
M  V30 1144 N 109.379 -1.50304 -0.473955 0
M  V30 1145 C 110.289 -1.7174 -1.5982 0
M  V30 1146 C 111.305 -0.600457 -1.63311 0
M  V30 1147 O 112.481 -0.878441 -1.81233 0
M  V30 1148 C 109.546 -1.80427 -2.96052 0
M  V30 1149 C 108.607 -3.04148 -3.02972 0
M  V30 1150 C 107.84 -3.12411 -4.32706 0
M  V30 1151 O 108.063 -2.27542 -5.23049 0
M  V30 1152 O 106.997 -4.05113 -4.45159 0
M  V30 1153 H 110.823 -2.67035 -1.44657 0
M  V30 1154 H 108.408 -1.34366 -0.653148 0
M  V30 1155 H 110.29 -1.88338 -3.7697 0
M  V30 1156 H 108.965 -0.883156 -3.11419 0
M  V30 1157 H 107.872 -3.0174 -2.21142 0
M  V30 1158 H 109.205 -3.95829 -2.92541 0
M  V30 1159 N 110.857 0.726932 -1.39834 0
M  V30 1160 C 112.268 1.30558 -1.3346 0
M  V30 1161 C 112.619 1.962 -0.00273003 0
M  V30 1162 O 111.744 1.96826 0.899371 0
M  V30 1163 C 112.339 2.37404 -2.41713 0
M  V30 1164 C 110.898 2.90921 -2.38835 0
M  V30 1165 C 110.045 1.64578 -2.2318 0
M  V30 1166 H 112.996 0.523862 -1.49804 0
M  V30 1167 H 113.017 3.17984 -2.08966 0
M  V30 1168 H 112.529 1.89599 -3.38635 0
M  V30 1169 H 110.63 3.42985 -1.45575 0
M  V30 1170 H 110.743 3.43487 -3.33997 0
M  V30 1171 H 109.107 1.89219 -1.70494 0
M  V30 1172 H 109.89 1.18814 -3.22084 0
M  V30 1173 N 112.336 1.25143 0.95797 0
M  V30 1174 C 113.266 1.07711 2.07173 0
M  V30 1175 C 114.247 -0.0128462 1.70095 0
M  V30 1176 O 115.432 0.156061 1.93572 0
M  V30 1177 C 112.562 0.691503 3.40346 0
M  V30 1178 C 111.516 1.73132 3.9142 0
M  V30 1179 C 110.842 1.20049 5.21049 0
M  V30 1180 C 112.142 3.1294 4.1817 0
M  V30 1181 H 113.836 2.00873 2.22014 0
M  V30 1182 H 111.382 0.967191 1.06684 0
M  V30 1183 H 113.335 0.556505 4.17709 0
M  V30 1184 H 112.059 -0.275819 3.25433 0
M  V30 1185 H 110.718 1.8547 3.16222 0
M  V30 1186 H 110.366 0.223499 5.02503 0
M  V30 1187 H 110.066 1.89545 5.56189 0
M  V30 1188 H 111.59 1.07782 6.01012 0
M  V30 1189 H 113.004 3.03775 4.86203 0
M  V30 1190 H 111.401 3.79875 4.64559 0
M  V30 1191 H 112.471 3.6025 3.24573 0
M  V30 1192 N 113.814 -1.1601 1.06675 0
M  V30 1193 C 114.724 -2.24156 0.692179 0
M  V30 1194 C 115.74 -1.71507 -0.293513 0
M  V30 1195 O 116.916 -2.009 -0.141861 0
M  V30 1196 C 113.981 -3.46587 0.0884131 0
M  V30 1197 C 113.042 -4.14257 1.12646 0
M  V30 1198 C 112.275 -5.30844 0.551416 0
M  V30 1199 O 112.498 -5.66858 -0.634656 0
M  V30 1200 O 111.432 -5.87848 1.29298 0
M  V30 1201 H 115.258 -2.58513 1.59388 0
M  V30 1202 H 112.843 -1.23599 0.83926 0
M  V30 1203 H 114.725 -4.20679 -0.246361 0
M  V30 1204 H 113.4 -3.13994 -0.786712 0
M  V30 1205 H 112.307 -3.42118 1.51348 0
M  V30 1206 H 113.64 -4.50914 1.97325 0
M  V30 1207 N 115.292 -0.849877 -1.32721 0
M  V30 1208 C 116.569 -0.372405 -1.92022 0
M  V30 1209 C 116.949 1.1435 -1.77447 0
M  V30 1210 O 116.297 1.96296 -1.16962 0
M  V30 1211 C 116.507 -0.831482 -3.3895 0
M  V30 1212 C 117.855 -0.845882 -4.16089 0
M  V30 1213 O 118.879 -0.775806 -3.47649 0
M  V30 1214 O 117.738 -0.943753 -5.38289 0
M  V30 1215 H 114.832 -0.107667 -0.819961 0
M  V30 1216 H 117.378 -0.93646 -1.41522 0
M  V30 1217 H 116.15 -1.87448 -3.4348 0
M  V30 1218 H 115.773 -0.24461 -3.96847 0
M  V30 1219 N 116.77 1.45427 -0.607355 0
M  V30 1220 C 117.7 2.3329 0.0989352 0
M  V30 1221 C 118.681 1.46816 0.859007 0
M  V30 1222 O 119.866 1.75588 0.829604 0
M  V30 1223 C 116.996 3.29518 1.09705 0
M  V30 1224 C 115.95 4.25626 0.450206 0
M  V30 1225 C 115.276 5.11542 1.55655 0
M  V30 1226 C 116.576 5.18505 -0.628455 0
M  V30 1227 H 118.27 2.92595 -0.634716 0
M  V30 1228 H 115.816 1.40696 -0.306681 0
M  V30 1229 H 117.769 3.89855 1.59971 0
M  V30 1230 H 116.493 2.68372 1.86129 0
M  V30 1231 H 115.152 3.66586 -0.0315886 0
M  V30 1232 H 114.8 4.46765 2.31107 0
M  V30 1233 H 114.5 5.76647 1.12925 0
M  V30 1234 H 116.024 5.74748 2.06148 0
M  V30 1235 H 117.438 5.72916 -0.209877 0
M  V30 1236 H 115.835 5.92085 -0.977489 0
M  V30 1237 H 116.905 4.60948 -1.50514 0
M  V30 1238 N 118.248 0.346503 1.53744 0
M  V30 1239 C 119.525 -0.304532 1.93215 0
M  V30 1240 C 119.905 -1.67993 1.27834 0
M  V30 1241 O 119.253 -2.24411 0.430352 0
M  V30 1242 C 119.463 -0.373852 3.46992 0
M  V30 1243 C 120.811 -0.62329 4.2 0
M  V30 1244 O 121.835 -0.455847 3.53271 0
M  V30 1245 O 120.694 -0.947879 5.38217 0
M  V30 1246 H 117.788 -0.178318 0.807547 0
M  V30 1247 H 120.334 0.397895 1.64969 0
M  V30 1248 H 119.106 0.591224 3.86808 0
M  V30 1249 H 118.729 -1.12294 3.81413 0
M  V30 1250 N 119.726 -1.57421 0.075193 0
M  V30 1251 C 121.137 -1.81021 -0.456964 0
M  V30 1252 C 121.488 -0.98936 -1.69429 0
M  V30 1253 O 120.613 -0.212865 -2.15351 0
M  V30 1254 C 121.208 -3.28329 -0.83581 0
M  V30 1255 C 119.767 -3.52764 -1.31281 0
M  V30 1256 C 118.914 -2.75676 -0.299648 0
M  V30 1257 H 121.865 -1.55822 0.300856 0
M  V30 1258 H 121.886 -3.40564 -1.69696 0
M  V30 1259 H 121.398 -3.88046 0.0649238 0
M  V30 1260 H 119.499 -2.98355 -2.23193 0
M  V30 1261 H 119.612 -4.61451 -1.28839 0
M  V30 1262 H 117.976 -2.42538 -0.777641 0
M  V30 1263 H 118.759 -3.38132 0.593417 0
M  V30 1264 N 121.204 0.198386 -1.56346 0
M  V30 1265 C 122.434 0.934215 -1.84271 0
M  V30 1266 C 122.842 1.77496 -0.655125 0
M  V30 1267 O 122.185 1.7961 0.385488 0
M  V30 1268 C 122.247 1.88278 -3.06254 0
M  V30 1269 C 121.911 1.22431 -4.40295 0
M  V30 1270 C 122.908 0.602839 -5.16393 0
M  V30 1271 C 120.593 1.22915 -4.87029 0
M  V30 1272 C 122.587 -0.0050083 -6.374 0
M  V30 1273 C 120.274 0.617465 -6.07973 0
M  V30 1274 C 121.272 0.00146341 -6.83 0
M  V30 1275 O 120.96 -0.600642 -8.01653 0
M  V30 1276 H 120.692 0.278245 -0.616081 0
M  V30 1277 H 123.246 0.211626 -2.04307 0
M  V30 1278 H 121.476 2.64498 -2.82095 0
M  V30 1279 H 123.165 2.48612 -3.20853 0
M  V30 1280 H 123.931 0.591265 -4.81382 0
M  V30 1281 H 119.81 1.69801 -4.28589 0
M  V30 1282 H 123.354 -0.48643 -6.95902 0
M  V30 1283 H 119.251 0.62653 -6.42452 0
M  V30 1284 H 120.019 -0.497225 -8.16988 0
M  V30 1285 N 122.682 1.50554 0.465978 0
M  V30 1286 C 123.912 1.65323 1.23903 0
M  V30 1287 C 124.32 0.338051 1.86155 0
M  V30 1288 O 123.663 -0.690518 1.70228 0
M  V30 1289 C 123.725 2.69048 2.3844 0
M  V30 1290 C 123.389 4.12462 1.96784 0
M  V30 1291 C 124.386 4.98168 1.48745 0
M  V30 1292 C 122.071 4.58407 2.05349 0
M  V30 1293 C 124.065 6.27868 1.0982 0
M  V30 1294 C 121.752 5.88112 1.66035 0
M  V30 1295 C 122.75 6.72668 1.18349 0
M  V30 1296 O 122.438 7.99951 0.795825 0
M  V30 1297 H 122.17 0.558629 0.38067 0
M  V30 1298 H 124.724 1.97561 0.562022 0
M  V30 1299 H 122.954 2.32062 3.09328 0
M  V30 1300 H 124.643 2.72985 3.0039 0
M  V30 1301 H 125.409 4.63885 1.41546 0
M  V30 1302 H 121.288 3.92735 2.41414 0
M  V30 1303 H 124.832 6.93819 0.725293 0
M  V30 1304 H 120.729 6.21914 1.72895 0
M  V30 1305 H 121.497 8.13265 0.924222 0
M  V30 1306 N 124.16 -0.719506 1.40217 0
M  V30 1307 C 125.409 -1.47486 1.37589 0
M  V30 1308 C 125.722 -1.9559 -0.0201568 0
M  V30 1309 O 126.928 -2.70973 -0.169049 0
M  V30 1310 C 125.384 -2.66575 2.41796 0
M  V30 1311 C 124.992 -2.25358 3.87192 0
M  V30 1312 C 126.736 -3.4433 2.48269 0
M  V30 1313 C 124.643 -3.41262 4.83005 0
M  V30 1314 H 123.573 -0.553901 0.511576 0
M  V30 1315 H 126.224 -0.783427 1.65936 0
M  V30 1316 H 124.606 -3.3787 2.06543 0
M  V30 1317 H 125.78 -1.61509 4.31569 0
M  V30 1318 H 124.095 -1.60657 3.84159 0
M  V30 1319 H 126.692 -4.30569 3.17041 0
M  V30 1320 H 127.035 -3.87872 1.51198 0
M  V30 1321 H 127.568 -2.80076 2.82493 0
M  V30 1322 H 124.307 -3.02755 5.81394 0
M  V30 1323 H 123.827 -4.0404 4.43297 0
M  V30 1324 H 125.506 -4.07383 5.02641 0
M  V30 1325 N 125.638 -1.25649 -0.95132 0
M  V30 1326 C 126.586 -1.06118 -2.06982 0
M  V30 1327 C 127.58 0.00889169 -1.69398 0
M  V30 1328 O 128.786 -0.146988 -1.79399 0
M  V30 1329 H 125.161 -0.326248 -0.677544 0
M  V30 1330 H 127.132 -2.00932 -2.2061 0
M  V30 1331 C 125.881 -0.700145 -3.40578 0
M  V30 1332 H 125.204 -1.51537 -3.69968 0
M  V30 1333 H 126.644 -0.603211 -4.19687 0
M  V30 1334 C 125.103 0.59403 -3.31622 0
M  V30 1335 O 125.633 1.63522 -3.66911 0
M  V30 1336 N 123.839 0.58089 -2.84735 0
M  V30 1337 H 123.386 -0.266783 -2.56215 0
M  V30 1338 H 123.344 1.44695 -2.79125 0
M  V30 1339 N 127.117 1.15442 -1.07289 0
M  V30 1340 C 128.064 2.20161 -0.692653 0
M  V30 1341 C 129.034 1.63073 0.31564 0
M  V30 1342 O 130.219 1.89725 0.202235 0
M  V30 1343 C 127.359 3.44967 -0.0959509 0
M  V30 1344 C 126.472 4.16256 -1.15564 0
M  V30 1345 C 125.607 5.28609 -0.524011 0
M  V30 1346 C 124.646 5.91715 -1.56653 0
M  V30 1347 N 123.783 6.9554 -0.957531 0
M  V30 1348 H 128.623 2.52037 -1.59002 0
M  V30 1349 H 126.16 1.2378 -0.794798 0
M  V30 1350 H 128.118 4.16341 0.267628 0
M  V30 1351 H 126.748 3.1361 0.764772 0
M  V30 1352 H 125.8 3.43385 -1.6368 0
M  V30 1353 H 127.112 4.59268 -1.94613 0
M  V30 1354 H 126.266 6.06604 -0.108032 0
M  V30 1355 H 125.005 4.86787 0.29825 0
M  V30 1356 H 124.01 5.12433 -1.9923 0
M  V30 1357 H 125.235 6.35614 -2.39107 0
M  V30 1358 H 123.181 6.55814 -0.156162 0
M  V30 1359 H 123.098 7.36977 -1.68526 0
M  V30 1360 H 124.366 7.77435 -0.567032 0
M  V30 1361 N 128.595 0.856903 1.32268 0
M  V30 1362 C 129.542 0.301172 2.28827 0
M  V30 1363 C 130.512 -0.593104 1.5515 0
M  V30 1364 O 131.697 -0.527537 1.83362 0
M  V30 1365 C 128.837 -0.502523 3.41422 0
M  V30 1366 C 127.95 0.417797 4.29975 0
M  V30 1367 C 127.085 -0.398749 5.29701 0
M  V30 1368 C 126.124 0.518827 6.09897 0
M  V30 1369 N 125.261 -0.260674 7.01616 0
M  V30 1370 H 130.101 1.12983 2.75751 0
M  V30 1371 H 127.638 0.568582 1.35667 0
M  V30 1372 H 129.596 -0.984141 4.05426 0
M  V30 1373 H 128.226 -1.29599 2.95642 0
M  V30 1374 H 127.278 1.01781 3.66531 0
M  V30 1375 H 128.59 1.12191 4.86019 0
M  V30 1376 H 127.744 -0.943435 5.9932 0
M  V30 1377 H 126.483 -1.13622 4.7428 0
M  V30 1378 H 125.488 1.07538 5.39181 0
M  V30 1379 H 126.713 1.25495 6.67404 0
M  V30 1380 H 124.659 -0.981198 6.4862 0
M  V30 1381 H 124.576 0.384364 7.55022 0
M  V30 1382 H 125.844 -0.787014 7.75517 0
M  V30 1383 N 130.073 -1.45103 0.615059 0
M  V30 1384 C 131.301 -2.06553 0.11977 0
M  V30 1385 C 131.716 -1.45842 -1.19898 0
M  V30 1386 O 131.073 -0.575325 -1.73194 0
M  V30 1387 C 131.124 -3.61495 -0.018364 0
M  V30 1388 O 130.845 -4.19942 1.24822 0
M  V30 1389 C 132.346 -4.39947 -0.544237 0
M  V30 1390 H 129.566 -0.667096 0.0722739 0
M  V30 1391 H 132.11 -1.8623 0.84491 0
M  V30 1392 H 130.265 -3.81135 -0.693865 0
M  V30 1393 H 130.679 -5.13204 1.0827 0
M  V30 1394 H 132.153 -5.48838 -0.589953 0
M  V30 1395 H 132.63 -4.10255 -1.56805 0
M  V30 1396 H 133.236 -4.25188 0.0974703 0
M  V30 1397 N 131.551 -0.354651 -1.53558 0
M  V30 1398 C 132.798 0.238443 -2.01091 0
M  V30 1399 C 133.126 1.49663 -1.24222 0
M  V30 1400 O 132.381 1.93049 -0.321003 0
M  V30 1401 C 132.68 0.587121 -3.52545 0
M  V30 1402 C 132.346 -0.575472 -4.47213 0
M  V30 1403 C 131.008 -0.894497 -4.72813 0
M  V30 1404 C 133.36 -1.35489 -5.03281 0
M  V30 1405 C 130.688 -1.99511 -5.51736 0
M  V30 1406 C 133.04 -2.44583 -5.83405 0
M  V30 1407 C 131.704 -2.77033 -6.07296 0
M  V30 1408 H 130.974 0.0872526 -0.735845 0
M  V30 1409 H 133.621 -0.484859 -1.8526 0
M  V30 1410 H 131.926 1.39129 -3.66265 0
M  V30 1411 H 133.623 1.05809 -3.86789 0
M  V30 1412 H 130.213 -0.316774 -4.27428 0
M  V30 1413 H 134.397 -1.12167 -4.83459 0
M  V30 1414 H 129.653 -2.25063 -5.68469 0
M  V30 1415 H 133.827 -3.05401 -6.25862 0
M  V30 1416 H 131.454 -3.6244 -6.68237 0
M  V30 1417 N 133.029 1.57378 -0.0835403 0
M  V30 1418 C 134.278 1.93106 0.582498 0
M  V30 1419 C 134.591 0.96651 1.70053 0
M  V30 1420 O 135.797 1.21705 2.42693 0
M  V30 1421 C 134.253 3.43076 1.08751 0
M  V30 1422 C 133.861 4.48 -0.000146404 0
M  V30 1423 C 135.605 3.87785 1.72694 0
M  V30 1424 C 133.512 5.89113 0.519568 0
M  V30 1425 H 132.442 0.720775 0.221358 0
M  V30 1426 H 135.093 1.82821 -0.157675 0
M  V30 1427 H 133.475 3.48474 1.88101 0
M  V30 1428 H 134.649 4.54233 -0.775199 0
M  V30 1429 H 132.964 4.1283 -0.54406 0
M  V30 1430 H 135.561 4.90604 2.1263 0
M  V30 1431 H 135.904 3.25796 2.59158 0
M  V30 1432 H 136.437 3.8504 0.999457 0
M  V30 1433 H 133.176 6.54775 -0.308186 0
M  V30 1434 H 132.696 5.86376 1.26188 0
M  V30 1435 H 134.375 6.39346 0.992237 0
M  V30 1436 N 134.507 -0.190092 1.56449 0
M  V30 1437 C 135.753 -0.911052 1.81184 0
M  V30 1438 C 136.086 -1.82699 0.658396 0
M  V30 1439 O 135.361 -1.91491 -0.340775 0
M  V30 1440 C 135.644 -1.72297 3.16205 0
M  V30 1441 C 135.497 -0.831419 4.42049 0
M  V30 1442 C 136.816 -2.69454 3.47969 0
M  V30 1443 H 133.935 -0.32977 0.659106 0
M  V30 1444 H 136.577 -0.178169 1.89163 0
M  V30 1445 H 134.727 -2.34778 3.09534 0
M  V30 1446 H 136.399 -0.220929 4.60771 0
M  V30 1447 H 134.642 -0.138406 4.33579 0
M  V30 1448 H 135.313 -1.43461 5.33032 0
M  V30 1449 H 137.789 -2.17104 3.54972 0
M  V30 1450 H 136.665 -3.23342 4.43555 0
M  V30 1451 H 136.926 -3.48744 2.71717 0
M  V30 1452 N 135.985 -1.50799 -0.457987 0
M  V30 1453 C 136.915 -1.73553 -1.5621 0
M  V30 1454 C 137.896 -0.584774 -1.59732 0
M  V30 1455 O 139.081 -0.825314 -1.7579 0
M  V30 1456 C 136.211 -1.84169 -2.94447 0
M  V30 1457 C 135.165 -2.99461 -3.0579 0
M  V30 1458 C 134.491 -2.95235 -4.45803 0
M  V30 1459 C 135.791 -4.39766 -2.81786 0
M  V30 1460 H 137.485 -2.66 -1.37421 0
M  V30 1461 H 135.031 -1.28002 -0.659662 0
M  V30 1462 H 136.984 -1.98672 -3.71628 0
M  V30 1463 H 135.708 -0.883545 -3.14422 0
M  V30 1464 H 134.367 -2.8463 -2.31044 0
M  V30 1465 H 134.015 -1.97239 -4.62715 0
M  V30 1466 H 133.715 -3.72642 -4.54326 0
M  V30 1467 H 135.239 -3.11803 -5.24987 0
M  V30 1468 H 136.653 -4.55054 -3.4871 0
M  V30 1469 H 135.05 -5.18722 -3.0174 0
M  V30 1470 H 136.12 -4.51229 -1.7754 0
M  V30 1471 N 137.463 0.71206 -1.40597 0
M  V30 1472 C 138.411 1.84746 -1.41321 0
M  V30 1473 C 139.405 1.66842 -0.293268 0
M  V30 1474 O 140.611 1.73904 -0.464481 0
M  V30 1475 H 136.986 0.608522 -0.441819 0
M  V30 1476 H 138.957 1.81252 -2.37045 0
M  V30 1477 C 137.706 3.22638 -1.29614 0
M  V30 1478 H 137.029 3.37023 -2.15071 0
M  V30 1479 H 138.469 4.02209 -1.3418 0
M  V30 1480 C 136.928 3.36899 -0.00673121 0
M  V30 1481 O 137.458 3.90186 0.954859 0
M  V30 1482 N 135.664 2.9053 0.0639327 0
M  V30 1483 H 135.211 2.47353 -0.719311 0
M  V30 1484 H 135.169 3.0045 0.926118 0
M  V30 1485 N 138.941 1.26152 0.944643 0
M  V30 1486 C 139.888 1.07408 2.04285 0
M  V30 1487 C 140.858 -0.0198413 1.66088 0
M  V30 1488 O 142.043 0.139264 1.90291 0
M  V30 1489 C 139.183 0.70945 3.37729 0
M  V30 1490 C 138.296 1.87926 3.88983 0
M  V30 1491 C 137.431 1.45807 5.10797 0
M  V30 1492 C 136.47 2.5964 5.54305 0
M  V30 1493 N 135.607 2.18226 6.67324 0
M  V30 1494 H 140.447 2.01389 2.1965 0
M  V30 1495 H 137.984 1.00275 1.07626 0
M  V30 1496 H 139.942 0.478948 4.14442 0
M  V30 1497 H 138.572 -0.193389 3.2222 0
M  V30 1498 H 137.624 2.22279 3.08701 0
M  V30 1499 H 138.936 2.73377 4.17213 0
M  V30 1500 H 138.09 1.18781 5.94959 0
M  V30 1501 H 136.829 0.574414 4.84305 0
M  V30 1502 H 135.834 2.87399 4.68702 0
M  V30 1503 H 137.059 3.48599 5.828 0
M  V30 1504 H 135.005 1.3229 6.42523 0
M  V30 1505 H 134.922 2.97221 6.95123 0
M  V30 1506 H 136.19 1.94403 7.54869 0
M  V30 1507 N 140.419 -1.14872 1.07899 0
M  V30 1508 C 141.667 -1.85422 0.803941 0
M  V30 1509 C 141.988 -1.83051 -0.67211 0
M  V30 1510 O 141.258 -1.27532 -1.48703 0
M  V30 1511 H 139.838 -0.686537 0.294408 0
M  V30 1512 H 142.5 -1.39226 1.3639 0
M  V30 1513 H 141.596 -2.90399 1.14346 0
M  V30 1514 N 141.898 -0.863906 -1.31812 0
M  V30 1515 C 142.845 -0.313303 -2.28664 0
M  V30 1516 C 143.815 0.584868 -1.55462 0
M  V30 1517 O 145 0.517805 -1.83639 0
M  V30 1518 C 142.14 0.48441 -3.41683 0
M  V30 1519 C 141.253 -0.440594 -4.29747 0
M  V30 1520 C 140.388 0.370652 -5.29905 0
M  V30 1521 C 139.427 -0.551164 -6.09613 0
M  V30 1522 N 138.564 0.223462 -7.01744 0
M  V30 1523 H 143.404 -1.14444 -2.75148 0
M  V30 1524 H 140.941 -0.575769 -1.35364 0
M  V30 1525 H 142.899 0.962627 -4.05943 0
M  V30 1526 H 141.529 1.28029 -2.96325 0
M  V30 1527 H 140.581 -1.03724 -3.65986 0
M  V30 1528 H 141.893 -1.14767 -4.85417 0
M  V30 1529 H 141.047 0.911638 -5.99812 0
M  V30 1530 H 139.786 1.11105 -4.74876 0
M  V30 1531 H 138.791 -1.10396 -5.38603 0
M  V30 1532 H 140.016 -1.29032 -6.66729 0
M  V30 1533 H 137.962 0.946787 -6.49132 0
M  V30 1534 H 137.879 -0.424399 -7.54808 0
M  V30 1535 H 139.147 0.745876 -7.75923 0
M  V30 1536 N 143.376 1.44774 -0.622745 0
M  V30 1537 C 144.339 2.29069 0.0774015 0
M  V30 1538 C 145.339 1.4059 0.780461 0
M  V30 1539 O 146.529 1.62551 0.626322 0
M  V30 1540 C 143.661 3.21974 1.12006 0
M  V30 1541 H 144.854 2.92459 -0.663901 0
M  V30 1542 H 142.407 1.51548 -0.382486 0
M  V30 1543 H 143.142 2.63417 1.89162 0
M  V30 1544 H 142.927 3.87168 0.619951 0
M  V30 1545 H 144.417 3.85318 1.60995 0
M  V30 1546 N 144.854 0.36279 1.53368 0
M  V30 1547 C 146.103 -0.22888 2.00397 0
M  V30 1548 C 146.416 -1.50096 1.25421 0
M  V30 1549 O 147.622 -2.17106 1.63025 0
M  V30 1550 C 146.078 -0.458417 3.56969 0
M  V30 1551 C 145.686 0.798877 4.4082 0
M  V30 1552 C 147.43 -1.00789 4.12361 0
M  V30 1553 C 145.337 0.539078 5.88938 0
M  V30 1554 H 144.267 -0.089305 0.748693 0
M  V30 1555 H 146.918 0.481099 1.77081 0
M  V30 1556 H 145.3 -1.22959 3.76427 0
M  V30 1557 H 146.474 1.57262 4.33134 0
M  V30 1558 H 144.789 1.27137 3.96516 0
M  V30 1559 H 147.386 -1.21754 5.20653 0
M  V30 1560 H 147.729 -1.9692 3.66781 0
M  V30 1561 H 148.262 -0.296961 3.9669 0
M  V30 1562 H 145.001 1.47064 6.3879 0
M  V30 1563 H 144.521 -0.196222 5.99479 0
M  V30 1564 H 146.2 0.163542 6.46793 0
M  V30 1565 N 146.332 -1.57332 0.0918853 0
M  V30 1566 C 147.579 -1.94236 -0.572577 0
M  V30 1567 C 147.907 -0.973398 -1.6839 0
M  V30 1568 O 147.162 0.00756912 -1.95699 0
M  V30 1569 C 147.461 -3.37689 -1.17051 0
M  V30 1570 C 147.127 -4.50527 -0.183304 0
M  V30 1571 C 145.789 -4.81119 0.0882276 0
M  V30 1572 C 148.141 -5.18883 0.49095 0
M  V30 1573 C 145.469 -5.77395 1.04076 0
M  V30 1574 C 147.821 -6.1618 1.43193 0
M  V30 1575 C 146.485 -6.45179 1.71173 0
M  V30 1576 H 145.755 -0.710762 -0.209521 0
M  V30 1577 H 148.402 -1.9077 0.167036 0
M  V30 1578 H 146.707 -3.37718 -1.9863 0
M  V30 1579 H 148.404 -3.63543 -1.69227 0
M  V30 1580 H 144.994 -4.26681 -0.405124 0
M  V30 1581 H 149.178 -4.95427 0.294312 0
M  V30 1582 H 144.434 -5.98179 1.26457 0
M  V30 1583 H 148.608 -6.68243 1.96023 0
M  V30 1584 H 146.235 -7.1959 2.4514 0
M  V30 1585 N 147.81 0.181792 -1.56548 0
M  V30 1586 C 149.226 0.53316 -1.50431 0
M  V30 1587 C 149.426 1.85184 -0.794297 0
M  V30 1588 O 148.482 2.50058 -0.350318 0
M  V30 1589 C 149.795 0.575597 -2.9514 0
M  V30 1590 C 151.343 0.663519 -3.05886 0
M  V30 1591 C 151.818 0.736946 -4.52032 0
M  V30 1592 N 153.309 0.800118 -4.56237 0
M  V30 1593 C 154.044 0.877327 -5.66649 0
M  V30 1594 N 153.54 0.916016 -6.86718 0
M  V30 1595 N 155.333 0.915542 -5.54594 0
M  V30 1596 H 147.484 -0.683025 -2.01118 0
M  V30 1597 H 149.747 -0.244988 -0.915797 0
M  V30 1598 H 149.453 -0.324482 -3.502 0
M  V30 1599 H 149.327 1.42572 -3.49218 0
M  V30 1600 H 151.714 1.55403 -2.50867 0
M  V30 1601 H 151.795 -0.21307 -2.54911 0
M  V30 1602 H 151.439 -0.149262 -5.07681 0
M  V30 1603 H 151.369 1.62953 -5.00753 0
M  V30 1604 H 153.86 0.778926 -3.69785 0
M  V30 1605 H 154.173 0.975813 -7.66614 0
M  V30 1606 H 152.518 0.884469 -6.89349 0
M  V30 1607 H 155.709 0.882245 -4.59711 0
M  V30 1608 H 155.882 0.972253 -6.40665 0
M  V30 1609 N 149.288 1.51039 0.449983 0
M  V30 1610 C 150.535 1.63081 1.20045 0
M  V30 1611 C 150.863 0.341024 1.91487 0
M  V30 1612 O 150.118 -0.674276 1.83717 0
M  V30 1613 C 150.417 2.77556 2.25161 0
M  V30 1614 C 150.083 4.17289 1.70823 0
M  V30 1615 C 148.745 4.55305 1.55725 0
M  V30 1616 C 151.097 5.04536 1.3074 0
M  V30 1617 C 148.425 5.78287 0.989999 0
M  V30 1618 C 150.777 6.28085 0.754482 0
M  V30 1619 C 149.441 6.64885 0.590308 0
M  V30 1620 H 148.711 0.596755 0.439277 0
M  V30 1621 H 151.358 1.85037 0.49333 0
M  V30 1622 H 149.663 2.49771 3.01863 0
M  V30 1623 H 151.36 2.84073 2.83026 0
M  V30 1624 H 147.95 3.8731 1.83546 0
M  V30 1625 H 152.134 4.75782 1.41229 0
M  V30 1626 H 147.39 6.05456 0.850451 0
M  V30 1627 H 151.564 6.95038 0.435324 0
M  V30 1628 H 149.191 7.60055 0.14862 0
M  V30 1629 N 150.766 -0.704594 1.40972 0
M  V30 1630 C 151.991 -1.49858 1.43378 0
M  V30 1631 C 152.416 -1.88061 0.038184 0
M  V30 1632 O 151.774 -1.5402 -0.956425 0
M  V30 1633 C 151.822 -2.74333 2.34038 0
M  V30 1634 O 150.926 -3.7147 1.7912 0
M  V30 1635 H 150.267 -0.45139 0.486974 0
M  V30 1636 H 152.797 -0.866832 1.8533 0
M  V30 1637 H 152.807 -3.22741 2.49604 0
M  V30 1638 H 151.482 -2.45863 3.35446 0
M  V30 1639 H 150.059 -3.30363 1.72958 0
M  V30 1640 N 152.244 -1.26651 -0.937939 0
M  V30 1641 C 153.207 -1.08546 -2.01867 0
M  V30 1642 C 154.207 -0.0327327 -1.60767 0
M  V30 1643 O 155.397 -0.276427 -1.71993 0
M  V30 1644 C 152.529 -0.651711 -3.34613 0
M  V30 1645 H 153.722 -2.04502 -2.1936 0
M  V30 1646 H 151.275 -1.09294 -1.11734 0
M  V30 1647 H 152.01 0.309696 -3.22818 0
M  V30 1648 H 151.795 -1.41189 -3.65798 0
M  V30 1649 H 153.285 -0.546973 -4.14002 0
M  V30 1650 N 153.722 1.14298 -1.08507 0
M  V30 1651 C 154.95 1.89219 -0.836876 0
M  V30 1652 C 155.365 1.78638 0.611054 0
M  V30 1653 O 154.722 1.14643 1.41998 0
M  V30 1654 C 154.773 3.39158 -1.25116 0
M  V30 1655 O 154.494 3.49449 -2.64229 0
M  V30 1656 C 155.995 4.31073 -1.03398 0
M  V30 1657 H 153.215 0.599328 -0.301739 0
M  V30 1658 H 155.759 1.44746 -1.44461 0
M  V30 1659 H 153.914 3.81251 -0.687514 0
M  V30 1660 H 154.328 4.42589 -2.81452 0
M  V30 1661 H 155.802 5.34646 -1.37323 0
M  V30 1662 H 156.279 4.3919 0.0289259 0
M  V30 1663 H 156.885 3.94738 -1.58311 0
M  V30 1664 N 155.201 0.870884 1.31352 0
M  V30 1665 C 156.426 0.495957 2.01383 0
M  V30 1666 C 156.851 -0.904324 1.64935 0
M  V30 1667 O 156.209 -1.59687 0.858466 0
M  V30 1668 C 156.257 0.661433 3.54482 0
M  V30 1669 O 155.361 -0.298851 4.11316 0
M  V30 1670 H 154.702 0.197158 0.634054 0
M  V30 1671 H 157.232 1.17455 1.67527 0
M  V30 1672 H 157.242 0.555072 4.04207 0
M  V30 1673 H 155.917 1.68246 3.8035 0
M  V30 1674 H 154.494 -0.147368 3.72609 0
M  V30 1675 N 156.679 -1.44442 0.630414 0
M  V30 1676 C 157.642 -2.29107 -0.0652523 0
M  V30 1677 C 158.642 -1.41002 -0.772995 0
M  V30 1678 O 159.832 -1.62881 -0.617692 0
M  V30 1679 C 156.964 -3.22564 -1.10296 0
M  V30 1680 H 158.157 -2.92103 0.679401 0
M  V30 1681 H 155.71 -1.51343 0.390517 0
M  V30 1682 H 156.445 -2.64416 -1.87762 0
M  V30 1683 H 156.23 -3.87491 -0.59941 0
M  V30 1684 H 157.72 -3.86167 -1.5895 0
M  V30 1685 N 158.157 -0.370918 -1.53173 0
M  V30 1686 C 159.087 0.464847 -2.28826 0
M  V30 1687 C 160.068 1.07936 -1.31468 0
M  V30 1688 O 161.253 1.0956 -1.60344 0
M  V30 1689 C 158.383 1.60196 -3.08147 0
M  V30 1690 C 157.337 1.11443 -4.13237 0
M  V30 1691 C 156.663 2.3422 -4.80672 0
M  V30 1692 C 157.963 0.195384 -5.21934 0
M  V30 1693 H 159.657 -0.166329 -2.98938 0
M  V30 1694 H 157.203 -0.0814359 -1.4377 0
M  V30 1695 H 159.156 2.19332 -3.59822 0
M  V30 1696 H 157.88 2.26045 -2.35735 0
M  V30 1697 H 156.539 0.545727 -3.62515 0
M  V30 1698 H 156.187 2.98537 -4.04827 0
M  V30 1699 H 155.887 2.02269 -5.51689 0
M  V30 1700 H 157.411 2.94032 -5.35143 0
M  V30 1701 H 158.825 0.694375 -5.69079 0
M  V30 1702 H 157.222 -0.0335027 -6.00091 0
M  V30 1703 H 158.292 -0.760961 -4.78892 0
M  V30 1704 N 159.635 1.57281 -0.100228 0
M  V30 1705 C 160.865 1.98591 0.569681 0
M  V30 1706 C 161.273 0.978315 1.61943 0
M  V30 1707 O 160.616 -0.0396108 1.83657 0
M  V30 1708 C 160.678 3.36282 1.271 0
M  V30 1709 C 160.342 4.55488 0.371409 0
M  V30 1710 C 161.339 5.18491 -0.382504 0
M  V30 1711 C 159.024 5.01474 0.287965 0
M  V30 1712 C 161.018 6.25852 -1.20779 0
M  V30 1713 C 158.705 6.08701 -0.540965 0
M  V30 1714 C 159.703 6.70755 -1.28749 0
M  V30 1715 O 159.391 7.75914 -2.10269 0
M  V30 1716 H 159.123 0.65752 0.156982 0
M  V30 1717 H 161.677 2.0463 -0.177734 0
M  V30 1718 H 159.907 3.26941 2.0651 0
M  V30 1719 H 161.596 3.62005 1.83595 0
M  V30 1720 H 162.362 4.83891 -0.3278 0
M  V30 1721 H 158.241 4.52932 0.858689 0
M  V30 1722 H 161.785 6.74218 -1.79096 0
M  V30 1723 H 157.682 6.42732 -0.597131 0
M  V30 1724 H 158.45 7.92925 -2.03007 0
M  V30 1725 N 161.113 -0.173488 1.56642 0
M  V30 1726 C 162.362 -0.888758 1.81063 0
M  V30 1727 C 162.675 -1.83506 0.67712 0
M  V30 1728 O 163.881 -2.59254 0.806206 0
M  V30 1729 C 162.337 -1.63091 3.20826 0
M  V30 1730 C 161.945 -0.728357 4.4204 0
M  V30 1731 C 163.689 -2.33454 3.54541 0
M  V30 1732 C 161.596 -1.47062 5.72823 0
M  V30 1733 H 160.526 -0.335618 0.675186 0
M  V30 1734 H 163.177 -0.141712 1.82952 0
M  V30 1735 H 161.559 -2.42263 3.13248 0
M  V30 1736 H 162.733 0.0262449 4.60793 0
M  V30 1737 H 161.048 -0.134492 4.16183 0
M  V30 1738 H 163.645 -2.89578 4.49498 0
M  V30 1739 H 163.988 -3.08687 2.79317 0
M  V30 1740 H 164.521 -1.61227 3.63663 0
M  V30 1741 H 161.26 -0.760658 6.51072 0
M  V30 1742 H 160.78 -2.1986 5.58052 0
M  V30 1743 H 162.459 -2.01868 6.14702 0
M  V30 1744 N 162.591 -1.51276 -0.441967 0
M  V30 1745 C 163.521 -1.752 -1.54361 0
M  V30 1746 C 164.502 -0.601682 -1.59103 0
M  V30 1747 O 165.687 -0.843913 -1.74905 0
M  V30 1748 C 162.817 -1.87282 -2.92477 0
M  V30 1749 C 161.771 -3.02687 -3.02596 0
M  V30 1750 C 161.097 -2.99947 -4.42647 0
M  V30 1751 C 162.397 -4.4273 -2.77106 0
M  V30 1752 H 164.091 -2.67442 -1.34592 0
M  V30 1753 H 161.637 -1.28694 -0.646048 0
M  V30 1754 H 163.59 -2.02602 -3.695 0
M  V30 1755 H 162.314 -0.916844 -3.13467 0
M  V30 1756 H 160.973 -2.87065 -2.28012 0
M  V30 1757 H 160.621 -2.02136 -4.60597 0
M  V30 1758 H 160.321 -3.77439 -4.50348 0
M  V30 1759 H 161.845 -3.17354 -5.2165 0
M  V30 1760 H 163.259 -4.58727 -3.43864 0
M  V30 1761 H 161.656 -5.21893 -2.96222 0
M  V30 1762 H 162.726 -4.53087 -1.72744 0
M  V30 1763 N 164.069 0.697108 -1.41344 0
M  V30 1764 C 165.297 1.48593 -1.43972 0
M  V30 1765 C 165.712 1.88747 -0.0445612 0
M  V30 1766 O 165.069 1.56682 0.935785 0
M  V30 1767 C 165.12 2.74946 -2.34706 0
M  V30 1768 O 164.841 2.36484 -3.68791 0
M  V30 1769 C 166.342 3.687 -2.46121 0
M  V30 1770 H 163.562 0.457964 -0.490418 0
M  V30 1771 H 166.106 0.858429 -1.8561 0
M  V30 1772 H 164.261 3.33937 -1.9638 0
M  V30 1773 H 164.675 3.17918 -4.17167 0
M  V30 1774 H 166.149 4.54145 -3.13777 0
M  V30 1775 H 166.626 4.13081 -1.49199 0
M  V30 1776 H 167.232 3.15613 -2.85076 0
M  V30 1777 N 165.547 1.27147 0.931209 0
M  V30 1778 C 166.958 1.12044 1.49342 0
M  V30 1779 C 167.309 -0.295795 1.93957 0
M  V30 1780 O 166.434 -1.18835 1.80852 0
M  V30 1781 C 167.029 2.02781 2.71414 0
M  V30 1782 C 165.588 1.91794 3.2387 0
M  V30 1783 C 164.735 1.95543 1.96617 0
M  V30 1784 H 167.686 1.40091 0.745672 0
M  V30 1785 H 167.707 1.58156 3.46074 0
M  V30 1786 H 167.219 3.05848 2.38911 0
M  V30 1787 H 165.32 0.916992 3.6114 0
M  V30 1788 H 165.433 2.77852 3.90302 0
M  V30 1789 H 163.797 1.39722 2.12955 0
M  V30 1790 H 164.58 3.00259 1.66432 0
M  V30 1791 N 167.025 -1.13721 1.09112 0
M  V30 1792 C 168.272 -1.84924 0.825192 0
M  V30 1793 C 168.6 -1.83347 -0.649151 0
M  V30 1794 O 167.855 -1.26449 -1.49362 0
M  V30 1795 C 168.154 -3.32861 1.30146 0
M  V30 1796 C 167.82 -3.54621 2.78486 0
M  V30 1797 C 166.482 -3.60268 3.18999 0
M  V30 1798 C 168.834 -3.62855 3.74146 0
M  V30 1799 C 166.162 -3.71679 4.53951 0
M  V30 1800 C 168.514 -3.75793 5.08883 0
M  V30 1801 C 167.178 -3.79692 5.4899 0
M  V30 1802 H 166.448 -0.676684 0.301959 0
M  V30 1803 H 169.095 -1.3428 1.36533 0
M  V30 1804 H 167.4 -3.85835 0.681064 0
M  V30 1805 H 169.097 -3.86395 1.07236 0
M  V30 1806 H 165.687 -3.50879 2.46134 0
M  V30 1807 H 169.871 -3.57775 3.43963 0
M  V30 1808 H 165.127 -3.72963 4.84467 0
M  V30 1809 H 169.301 -3.81107 5.82864 0
M  V30 1810 H 166.928 -3.88287 6.53558 0
M  V30 1811 N 168.503 -0.877838 -1.30888 0
M  V30 1812 C 169.451 -0.328662 -2.30266 0
M  V30 1813 C 170.445 0.560496 -1.59859 0
M  V30 1814 O 171.651 0.445722 -1.74394 0
M  V30 1815 H 168.026 -0.0876142 -0.746879 0
M  V30 1816 H 169.997 -1.18061 -2.74051 0
M  V30 1817 C 168.746 0.448071 -3.44801 0
M  V30 1818 H 168.069 -0.226859 -3.99156 0
M  V30 1819 H 169.509 0.797541 -4.16432 0
M  V30 1820 C 167.968 1.64239 -2.94155 0
M  V30 1821 O 168.498 2.74175 -2.93583 0
M  V30 1822 N 166.704 1.47716 -2.50256 0
M  V30 1823 H 166.251 0.582821 -2.5092 0
M  V30 1824 H 166.209 2.27765 -2.16727 0
M  V30 1825 N 169.982 1.44106 -0.638065 0
M  V30 1826 C 171.393 1.85316 -0.226894 0
M  V30 1827 C 171.744 1.53399 1.22324 0
M  V30 1828 O 170.869 0.975463 1.93167 0
M  V30 1829 C 171.464 3.3637 -0.405013 0
M  V30 1830 C 170.023 3.76369 -0.0482902 0
M  V30 1831 C 169.17 2.67921 -0.715108 0
M  V30 1832 H 172.121 1.34474 -0.842764 0
M  V30 1833 H 172.142 3.7885 0.354 0
M  V30 1834 H 171.654 3.59569 -1.46053 0
M  V30 1835 H 169.755 3.58784 1.00522 0
M  V30 1836 H 169.868 4.76856 -0.463187 0
M  V30 1837 H 168.232 2.54259 -0.149753 0
M  V30 1838 H 169.015 2.93951 -1.77335 0
M  V30 1839 N 171.46 0.379036 1.52974 0
M  V30 1840 C 172.39 -0.452706 2.29069 0
M  V30 1841 C 173.371 -1.07237 1.32039 0
M  V30 1842 O 174.556 -1.08708 1.60923 0
M  V30 1843 C 171.686 -1.5856 3.08992 0
M  V30 1844 C 170.64 -1.0925 4.13822 0
M  V30 1845 C 169.966 -2.31668 4.81907 0
M  V30 1846 C 171.266 -0.167702 5.22031 0
M  V30 1847 H 172.96 0.182181 2.98845 0
M  V30 1848 H 170.506 0.0890592 1.43724 0
M  V30 1849 H 172.459 -2.1742 3.6098 0
M  V30 1850 H 171.183 -2.24792 2.36931 0
M  V30 1851 H 169.842 -0.526494 3.628 0
M  V30 1852 H 169.49 -2.96386 4.06404 0
M  V30 1853 H 169.19 -1.9934 5.52754 0
M  V30 1854 H 170.714 -2.91189 5.36695 0
M  V30 1855 H 172.128 -0.664186 5.6944 0
M  V30 1856 H 170.525 0.0653265 6.00064 0
M  V30 1857 H 171.595 0.786347 4.78482 0
M  V30 1858 N 172.938 -1.57226 0.108567 0
M  V30 1859 C 174.354 -1.5766 -0.248058 0
M  V30 1860 C 174.554 -1.12063 -1.67464 0
M  V30 1861 O 173.61 -0.803236 -2.39383 0
M  V30 1862 C 174.923 -3.0069 -0.0242287 0
M  V30 1863 C 176.471 -3.12868 -0.0909372 0
M  V30 1864 C 176.946 -4.57879 0.105067 0
M  V30 1865 N 178.437 -4.63172 0.0506846 0
M  V30 1866 C 179.172 -5.73126 0.177396 0
M  V30 1867 N 178.668 -6.91866 0.359696 0
M  V30 1868 N 180.461 -5.61977 0.117709 0
M  V30 1869 H 172.612 -1.85169 1.04049 0
M  V30 1870 H 174.875 -0.85529 0.40888 0
M  V30 1871 H 174.581 -3.38299 0.961604 0
M  V30 1872 H 174.455 -3.6945 -0.76068 0
M  V30 1873 H 176.842 -2.75124 -1.06729 0
M  V30 1874 H 176.923 -2.46672 0.677225 0
M  V30 1875 H 176.567 -4.96321 1.07834 0
M  V30 1876 H 176.497 -5.22153 -0.682954 0
M  V30 1877 H 178.988 -3.778 -0.0871266 0
M  V30 1878 H 179.301 -7.71503 0.447529 0
M  V30 1879 H 177.646 -6.93874 0.395536 0
M  V30 1880 H 180.837 -4.68094 -0.0236741 0
M  V30 1881 H 181.01 -6.47627 0.219905 0
M  V30 1882 N 174.416 0.165178 -1.56732 0
M  V30 1883 C 175.363 1.2044 -1.96883 0
M  V30 1884 C 176.333 1.43664 -0.833657 0
M  V30 1885 O 177.518 1.56302 -1.09427 0
M  V30 1886 C 174.658 2.53727 -2.33916 0
M  V30 1887 C 173.771 2.3783 -3.6064 0
M  V30 1888 C 172.906 3.64026 -3.86857 0
M  V30 1889 C 171.945 3.43088 -5.06909 0
M  V30 1890 N 171.082 4.61369 -5.29229 0
M  V30 1891 H 175.922 0.854996 -2.85471 0
M  V30 1892 H 173.459 0.41076 -1.41249 0
M  V30 1893 H 175.417 3.31419 -2.53411 0
M  V30 1894 H 174.047 2.8665 -1.48431 0
M  V30 1895 H 173.099 1.51282 -3.49024 0
M  V30 1896 H 174.411 2.18308 -4.4849 0
M  V30 1897 H 173.565 4.50152 -4.06753 0
M  V30 1898 H 172.304 3.86533 -2.97394 0
M  V30 1899 H 171.309 2.55349 -4.86906 0
M  V30 1900 H 172.534 3.21997 -5.97909 0
M  V30 1901 H 170.48 4.84084 -4.42718 0
M  V30 1902 H 170.397 4.44783 -6.11313 0
M  V30 1903 H 171.665 5.48761 -5.53608 0
M  V30 1904 N 175.894 1.51508 0.433938 0
M  V30 1905 C 177.143 1.63578 1.18005 0
M  V30 1906 C 177.456 0.359514 1.92268 0
M  V30 1907 O 178.662 0.359632 2.69108 0
M  V30 1908 C 177.118 2.88901 2.14626 0
M  V30 1909 C 176.726 4.23544 1.45995 0
M  V30 1910 C 178.47 3.10328 2.89649 0
M  V30 1911 C 176.377 5.40014 2.4112 0
M  V30 1912 H 175.307 0.609277 0.444182 0
M  V30 1913 H 177.958 1.77978 0.446773 0
M  V30 1914 H 176.34 2.68142 2.91403 0
M  V30 1915 H 177.514 4.54696 0.747532 0
M  V30 1916 H 175.829 4.08021 0.831115 0
M  V30 1917 H 178.426 3.94518 3.60915 0
M  V30 1918 H 178.769 2.23544 3.51189 0
M  V30 1919 H 179.302 3.31443 2.19978 0
M  V30 1920 H 176.041 6.29068 1.84264 0
M  V30 1921 H 175.561 5.13233 3.10406 0
M  V30 1922 H 177.24 5.72099 3.02177 0
M  V30 1923 N 177.372 -0.689602 1.41712 0
M  V30 1924 C 178.335 -1.78521 1.43746 0
M  V30 1925 C 179.335 -1.57436 0.327191 0
M  V30 1926 O 180.525 -1.64 0.587348 0
M  V30 1927 C 177.657 -3.16971 1.25467 0
M  V30 1928 H 178.85 -1.78108 2.41283 0
M  V30 1929 H 176.403 -0.89781 1.27942 0
M  V30 1930 H 177.138 -3.23019 0.287948 0
M  V30 1931 H 176.923 -3.33678 2.05917 0
M  V30 1932 H 178.413 -3.96935 1.2974 0
M  V30 1933 N 178.85 -1.27639 -0.924453 0
M  V30 1934 C 180.099 -1.13549 -1.66702 0
M  V30 1935 C 180.412 0.317487 -1.93006 0
M  V30 1936 O 181.618 0.579333 -2.65247 0
M  V30 1937 C 180.074 -1.98426 -3.00259 0
M  V30 1938 C 179.682 -3.484 -2.81641 0
M  V30 1939 C 181.426 -1.92993 -3.78092 0
M  V30 1940 C 179.333 -4.25464 -4.10773 0
M  V30 1941 H 178.263 -0.421351 -0.625283 0
M  V30 1942 H 180.914 -1.52085 -1.02676 0
M  V30 1943 H 179.296 -1.52736 -3.6536 0
M  V30 1944 H 180.47 -4.01973 -2.25287 0
M  V30 1945 H 178.785 -3.55245 -2.17232 0
M  V30 1946 H 181.382 -2.47844 -4.7379 0
M  V30 1947 H 181.725 -0.904281 -4.0636 0
M  V30 1948 H 182.258 -2.36595 -3.19793 0
M  V30 1949 H 178.997 -5.28566 -3.87683 0
M  V30 1950 H 178.517 -3.76667 -4.66779 0
M  V30 1951 H 180.196 -4.34812 -4.79111 0
M  V30 1952 N 180.328 1.1314 -1.09713 0
M  V30 1953 C 181.275 2.18642 -0.739196 0
M  V30 1954 C 182.245 1.63706 0.280978 0
M  V30 1955 O 183.43 1.90111 0.161946 0
M  V30 1956 C 180.57 3.44685 -0.169102 0
M  V30 1957 C 179.683 4.13711 -1.24367 0
M  V30 1958 C 178.818 5.27379 -0.636019 0
M  V30 1959 C 177.857 5.88259 -1.69169 0
M  V30 1960 N 176.994 6.93352 -1.10485 0
M  V30 1961 H 181.834 2.48607 -1.64312 0
M  V30 1962 H 179.371 1.22066 -0.820875 0
M  V30 1963 H 181.329 4.16815 0.179256 0
M  V30 1964 H 179.959 3.15161 0.698079 0
M  V30 1965 H 179.011 3.39835 -1.70927 0
M  V30 1966 H 180.323 4.55037 -2.04311 0
M  V30 1967 H 179.477 6.06238 -0.236677 0
M  V30 1968 H 178.216 4.8731 0.194928 0
M  V30 1969 H 177.221 5.08092 -2.10055 0
M  V30 1970 H 178.446 6.30399 -2.52536 0
M  V30 1971 H 176.392 6.55335 -0.295234 0
M  V30 1972 H 176.309 7.33236 -1.84121 0
M  V30 1973 H 177.577 7.76057 -0.73181 0
M  V30 1974 N 181.806 0.884767 1.30421 0
M  V30 1975 C 183.055 0.499164 1.95426 0
M  V30 1976 C 183.368 -0.95645 1.70621 0
M  V30 1977 O 184.574 -1.44889 2.29607 0
M  V30 1978 C 183.03 0.84177 3.49917 0
M  V30 1979 C 182.638 2.31514 3.83543 0
M  V30 1980 C 184.382 0.525355 4.21237 0
M  V30 1981 C 182.289 2.59939 5.31212 0
M  V30 1982 H 181.219 0.182944 0.73147 0
M  V30 1983 H 183.87 1.07971 1.48373 0
M  V30 1984 H 182.252 0.190311 3.95542 0
M  V30 1985 H 183.426 3.0109 3.48829 0
M  V30 1986 H 181.741 2.59907 3.25326 0
M  V30 1987 H 184.338 0.714762 5.29901 0
M  V30 1988 H 184.681 -0.535222 4.12845 0
M  V30 1989 H 185.214 1.134 3.81294 0
M  V30 1990 H 181.953 3.64736 5.44654 0
M  V30 1991 H 181.473 1.94972 5.67227 0
M  V30 1992 H 183.152 2.45429 5.98643 0
M  V30 1993 N 183.284 -1.43765 0.645699 0
M  V30 1994 C 184.214 -2.33471 -0.0370477 0
M  V30 1995 C 185.195 -1.49042 -0.819779 0
M  V30 1996 O 186.38 -1.77726 -0.782758 0
M  V30 1997 C 183.51 -3.32311 -1.0093 0
M  V30 1998 C 182.464 -4.2667 -0.337201 0
M  V30 1999 C 181.79 -5.1549 -1.42037 0
M  V30 2000 C 183.09 -5.16657 0.765706 0
M  V30 2001 H 184.784 -2.90809 0.712069 0
M  V30 2002 H 182.33 -1.39834 0.343876 0
M  V30 2003 H 184.283 -3.9396 -1.49578 0
M  V30 2004 H 183.007 -2.73213 -1.78948 0
M  V30 2005 H 181.666 -3.66374 0.128771 0
M  V30 2006 H 181.314 -4.52735 -2.1918 0
M  V30 2007 H 181.014 -5.79438 -0.975966 0
M  V30 2008 H 182.538 -5.80012 -1.90838 0
M  V30 2009 H 183.952 -5.72158 0.361702 0
M  V30 2010 H 182.349 -5.89286 1.13413 0
M  V30 2011 H 183.419 -4.56796 1.62683 0
M  V30 2012 N 184.763 -0.387143 -1.52771 0
M  V30 2013 C 186.009 0.196025 -2.0185 0
M  V30 2014 C 186.342 1.46641 -1.27319 0
M  V30 2015 O 185.617 1.90889 -0.373032 0
M  V30 2016 C 185.9 0.466136 -3.5707 0
M  V30 2017 C 185.753 -0.819385 -4.42274 0
M  V30 2018 C 187.072 1.25768 -4.21747 0
M  V30 2019 H 184.191 0.0697708 -0.73369 0
M  V30 2020 H 186.833 -0.516286 -1.82851 0
M  V30 2021 H 184.983 1.07293 -3.7339 0
M  V30 2022 H 186.655 -1.4563 -4.37709 0
M  V30 2023 H 184.898 -1.43517 -4.09372 0
M  V30 2024 H 185.569 -0.585065 -5.48891 0
M  V30 2025 H 188.045 0.744167 -4.09391 0
M  V30 2026 H 186.921 1.41541 -5.30337 0
M  V30 2027 H 187.182 2.27228 -3.79236 0
M  V30 2028 N 186.241 1.57166 -0.116904 0
M  V30 2029 C 187.191 2.11756 0.845178 0
M  V30 2030 C 188.175 1.03783 1.22955 0
M  V30 2031 O 189.367 1.3002 1.20099 0
M  V30 2032 C 186.496 2.71886 2.09602 0
M  V30 2033 C 185.582 3.86937 1.7361 0
M  V30 2034 N 185.973 4.94073 1.08284 0
M  V30 2035 C 184.271 3.97082 2.03082 0
M  V30 2036 C 184.972 5.74477 0.913855 0
M  V30 2037 N 183.948 5.2423 1.43818 0
M  V30 2038 H 187.75 2.91967 0.336523 0
M  V30 2039 H 185.264 1.62174 0.0856332 0
M  V30 2040 H 187.261 3.09338 2.79492 0
M  V30 2041 H 185.921 1.93138 2.61013 0
M  V30 2042 H 186.932 5.12483 0.747067 0
M  V30 2043 H 183.609 3.29372 2.56554 0
M  V30 2044 H 184.999 6.70701 0.40125 0
M  V30 2045 N 187.719 -0.156864 1.56817 0
M  V30 2046 C 188.944 -0.890331 1.87318 0
M  V30 2047 C 189.369 -1.74394 0.704855 0
M  V30 2048 O 188.727 -1.77972 -0.345786 0
M  V30 2049 C 188.775 -1.73102 3.16336 0
M  V30 2050 O 187.879 -2.83422 2.99576 0
M  V30 2051 H 187.22 -0.24857 0.615718 0
M  V30 2052 H 189.75 -0.150649 2.04045 0
M  V30 2053 H 189.76 -2.12803 3.48107 0
M  V30 2054 H 188.435 -1.10412 4.00976 0
M  V30 2055 H 187.012 -2.47199 2.7919 0
M  V30 2056 N 189.197 -1.51736 -0.425897 0
M  V30 2057 C 190.127 -1.76827 -1.52494 0
M  V30 2058 C 191.108 -0.618524 -1.58456 0
M  V30 2059 O 192.293 -0.862416 -1.74 0
M  V30 2060 C 189.423 -1.90374 -2.90474 0
M  V30 2061 C 188.377 -3.0588 -2.99369 0
M  V30 2062 C 187.703 -3.04625 -4.3944 0
M  V30 2063 C 189.003 -4.45644 -2.72394 0
M  V30 2064 H 190.697 -2.68855 -1.31748 0
M  V30 2065 H 188.243 -1.29372 -0.632362 0
M  V30 2066 H 190.196 -2.0651 -3.6733 0
M  V30 2067 H 188.92 -0.95004 -3.12477 0
M  V30 2068 H 187.579 -2.89467 -2.24954 0
M  V30 2069 H 187.227 -2.0701 -4.58428 0
M  V30 2070 H 186.927 -3.82195 -4.46319 0
M  V30 2071 H 188.451 -3.22869 -5.18255 0
M  V30 2072 H 189.865 -4.62348 -3.38979 0
M  V30 2073 H 188.262 -5.25006 -2.9067 0
M  V30 2074 H 189.332 -4.54893 -1.67929 0
M  V30 2075 N 190.675 0.682077 -1.42076 0
M  V30 2076 C 191.922 1.44215 -1.42156 0
M  V30 2077 C 192.25 1.94468 -0.0354186 0
M  V30 2078 O 191.505 1.70816 0.955002 0
M  V30 2079 C 191.804 2.66036 -2.38662 0
M  V30 2080 C 191.47 2.34366 -3.85206 0
M  V30 2081 C 190.132 2.25439 -4.25124 0
M  V30 2082 C 192.484 2.08513 -4.77673 0
M  V30 2083 C 189.812 1.88775 -5.55501 0
M  V30 2084 C 192.164 1.73354 -6.08384 0
M  V30 2085 C 190.828 1.62933 -6.47309 0
M  V30 2086 H 190.098 0.527718 -0.520187 0
M  V30 2087 H 192.745 0.778387 -1.74967 0
M  V30 2088 H 191.05 3.3741 -1.99152 0
M  V30 2089 H 192.747 3.24205 -2.35991 0
M  V30 2090 H 189.337 2.42213 -3.53597 0
M  V30 2091 H 193.521 2.14346 -4.47626 0
M  V30 2092 H 188.777 1.7927 -5.84527 0
M  V30 2093 H 192.951 1.52373 -6.79526 0
M  V30 2094 H 190.578 1.34292 -7.48244 0
M  V30 2095 N 192.153 1.28127 0.917671 0
M  V30 2096 C 193.378 1.18007 1.70555 0
M  V30 2097 C 193.803 -0.258257 1.86319 0
M  V30 2098 O 193.161 -1.1869 1.37049 0
M  V30 2099 C 193.209 1.87948 3.07746 0
M  V30 2100 O 192.313 1.18427 3.9503 0
M  V30 2101 H 191.654 0.409867 0.522403 0
M  V30 2102 H 194.184 1.69379 1.1477 0
M  V30 2103 H 194.194 1.95701 3.58001 0
M  V30 2104 H 192.869 2.92573 2.95591 0
M  V30 2105 H 191.446 1.18811 3.53466 0
M  V30 2106 N 193.631 -1.12557 1.10312 0
M  V30 2107 C 194.564 -2.1737 0.694674 0
M  V30 2108 C 195.542 -1.59745 -0.303373 0
M  V30 2109 O 196.726 -1.87408 -0.202578 0
M  V30 2110 C 193.853 -3.38691 0.0248052 0
M  V30 2111 C 192.899 -4.14943 0.986121 0
M  V30 2112 S 193.732 -4.73413 2.50281 0
M  V30 2113 C 194.888 -5.9807 1.84562 0
M  V30 2114 H 195.121 -2.5168 1.58255 0
M  V30 2115 H 192.654 -1.23998 0.919992 0
M  V30 2116 H 194.612 -4.08959 -0.355361 0
M  V30 2117 H 193.273 -3.02664 -0.839851 0
M  V30 2118 H 192.466 -5.01854 0.464651 0
M  V30 2119 H 192.068 -3.50377 1.30813 0
M  V30 2120 H 194.36 -6.67232 1.17507 0
M  V30 2121 H 195.303 -6.54841 2.69423 0
M  V30 2122 H 195.711 -5.49073 1.31069 0
M  V30 2123 N 195.109 -0.891671 -1.2995 0
M  V30 2124 C 196.039 -0.379797 -2.30391 0
M  V30 2125 C 197.02 0.540919 -1.6127 0
M  V30 2126 O 198.205 0.453352 -1.88834 0
M  V30 2127 C 195.335 0.400654 -3.44981 0
M  V30 2128 C 194.289 -0.428905 -4.25846 0
M  V30 2129 C 193.615 0.478557 -5.32554 0
M  V30 2130 C 194.915 -1.67458 -4.94727 0
M  V30 2131 H 196.609 -1.21914 -2.73454 0
M  V30 2132 H 194.155 -0.587675 -1.31462 0
M  V30 2133 H 196.108 0.769434 -4.14316 0
M  V30 2134 H 194.832 1.27371 -3.0074 0
M  V30 2135 H 193.491 -0.779911 -3.58208 0
M  V30 2136 H 193.139 1.34951 -4.84559 0
M  V30 2137 H 192.839 -0.0727433 -5.87555 0
M  V30 2138 H 194.363 0.843705 -6.04743 0
M  V30 2139 H 195.777 -1.376 -5.56542 0
M  V30 2140 H 194.174 -2.16659 -5.59624 0
M  V30 2141 H 195.244 -2.41518 -4.20473 0
M  V30 2142 N 196.587 1.43421 -0.653314 0
M  V30 2143 C 197.836 2.01032 -0.164076 0
M  V30 2144 C 198.149 1.52147 1.22926 0
M  V30 2145 O 199.355 2.02031 1.81371 0
M  V30 2146 C 197.811 3.59082 -0.24252 0
M  V30 2147 C 197.419 4.1696 -1.63855 0
M  V30 2148 C 199.163 4.24079 0.18911 0
M  V30 2149 C 197.07 5.67304 -1.67092 0
M  V30 2150 H 196 0.751798 -0.0575769 0
M  V30 2151 H 198.651 1.6439 -0.815362 0
M  V30 2152 H 197.033 3.93125 0.476276 0
M  V30 2153 H 198.207 3.94416 -2.38271 0
M  V30 2154 H 196.522 3.64335 -2.01616 0
M  V30 2155 H 199.119 5.34381 0.184775 0
M  V30 2156 H 199.462 3.98005 1.22056 0
M  V30 2157 H 199.995 3.94918 -0.477938 0
M  V30 2158 H 196.734 5.98145 -2.68146 0
M  V30 2159 H 196.254 5.91904 -0.970014 0
M  V30 2160 H 197.933 6.31344 -1.4147 0
M  V30 2161 N 198.065 0.39524 1.52563 0
M  V30 2162 C 198.998 -0.4813 2.23067 0
M  V30 2163 C 199.976 -1.05927 1.23362 0
M  V30 2164 O 201.16 -1.10979 1.52368 0
M  V30 2165 C 198.287 -1.66676 2.9485 0
M  V30 2166 C 197.333 -1.21348 4.08873 0
M  V30 2167 S 198.166 -0.190102 5.35162 0
M  V30 2168 C 199.322 -1.38121 6.1047 0
M  V30 2169 H 199.555 0.117381 2.97068 0
M  V30 2170 H 197.088 0.179458 1.53354 0
M  V30 2171 H 199.046 -2.3466 3.36816 0
M  V30 2172 H 197.707 -2.23676 2.20518 0
M  V30 2173 H 196.9 -2.09877 4.58222 0
M  V30 2174 H 196.502 -0.612486 3.68951 0
M  V30 2175 H 198.794 -2.30726 6.37002 0
M  V30 2176 H 199.737 -0.928521 7.01986 0
M  V30 2177 H 200.145 -1.60071 5.41329 0
M  V30 2178 N 199.544 -1.57102 0.125237 0
M  V30 2179 C 200.784 -1.97294 -0.534259 0
M  V30 2180 C 201.148 -1.0074 -1.63449 0
M  V30 2181 O 202.349 -1.29893 -2.35332 0
M  V30 2182 C 200.62 -3.41705 -1.04748 0
M  V30 2183 S 202.179 -4.03913 -1.71463 0
M  V30 2184 H 198.997 -0.689517 -0.173458 0
M  V30 2185 H 201.599 -1.94349 0.211797 0
M  V30 2186 H 200.303 -4.09723 -0.235649 0
M  V30 2187 H 199.834 -3.48315 -1.82867 0
M  V30 2188 H 201.849 -3.95182 -3.00077 0
M  V30 2189 N 201.022 0.148545 -1.56898 0
M  V30 2190 C 202.25 0.876389 -1.87422 0
M  V30 2191 C 202.665 1.74809 -0.713256 0
M  V30 2192 O 202.022 1.79725 0.317025 0
M  V30 2193 C 202.073 1.73438 -3.17178 0
M  V30 2194 O 201.794 0.897809 -4.28802 0
M  V30 2195 C 203.295 2.56993 -3.61205 0
M  V30 2196 H 200.515 0.253489 -0.621277 0
M  V30 2197 H 203.059 0.141798 -2.04008 0
M  V30 2198 H 201.214 2.42205 -3.0235 0
M  V30 2199 H 201.628 1.48672 -5.02988 0
M  V30 2200 H 203.102 3.12773 -4.54838 0
M  V30 2201 H 203.579 3.32958 -2.86419 0
M  V30 2202 H 204.185 1.9352 -3.78722 0
M  V30 2203 N 202.5 1.5196 0.417844 0
M  V30 2204 C 203.749 1.6482 1.16264 0
M  V30 2205 C 204.062 0.379886 1.91876 0
M  V30 2206 O 205.268 0.388154 2.68711 0
M  V30 2207 C 203.724 2.91161 2.1155 0
M  V30 2208 C 203.332 4.25068 1.41495 0
M  V30 2209 C 205.076 3.13383 2.86341 0
M  V30 2210 C 202.983 5.42541 2.35379 0
M  V30 2211 H 201.913 0.613954 0.437694 0
M  V30 2212 H 204.564 1.78442 0.427871 0
M  V30 2213 H 202.946 2.71218 2.88543 0
M  V30 2214 H 204.12 4.55463 0.699263 0
M  V30 2215 H 202.435 4.0888 0.787792 0
M  V30 2216 H 205.032 3.98324 3.5671 0
M  V30 2217 H 205.375 2.27256 3.48798 0
M  V30 2218 H 205.908 3.33757 2.1645 0
M  V30 2219 H 202.647 6.30987 1.77582 0
M  V30 2220 H 202.167 5.16497 3.04945 0
M  V30 2221 H 203.846 5.75272 2.96093 0
M  V30 2222 N 203.978 -0.674533 1.42435 0
M  V30 2223 C 204.908 -1.80009 1.48724 0
M  V30 2224 C 205.889 -1.6659 0.343793 0
M  V30 2225 O 207.074 -1.86007 0.558137 0
M  V30 2226 C 204.204 -3.18306 1.38919 0
M  V30 2227 C 203.158 -3.46461 2.51294 0
M  V30 2228 C 202.484 -4.84335 2.26547 0
M  V30 2229 C 203.784 -3.43328 3.93603 0
M  V30 2230 H 205.478 -1.75004 2.42928 0
M  V30 2231 H 203.024 -0.840533 1.16923 0
M  V30 2232 H 204.977 -3.9678 1.41927 0
M  V30 2233 H 203.701 -3.2399 0.412094 0
M  V30 2234 H 202.36 -2.70348 2.47604 0
M  V30 2235 H 202.008 -4.86669 1.2713 0
M  V30 2236 H 201.708 -5.04136 3.01861 0
M  V30 2237 H 203.232 -5.65094 2.31304 0
M  V30 2238 H 204.646 -4.11772 3.98894 0
M  V30 2239 H 203.043 -3.74664 4.68771 0
M  V30 2240 H 204.113 -2.41897 4.20255 0
M  V30 2241 N 205.456 -1.28612 -0.910864 0
M  V30 2242 C 206.684 -1.18792 -1.69399 0
M  V30 2243 C 207.099 0.253039 -1.87097 0
M  V30 2244 O 206.456 1.17071 -1.40003 0
M  V30 2245 C 206.507 -1.88511 -3.08457 0
M  V30 2246 O 206.228 -3.26979 -2.91576 0
M  V30 2247 C 207.729 -1.85029 -4.02839 0
M  V30 2248 H 204.949 -0.412233 -0.529438 0
M  V30 2249 H 207.493 -1.69788 -1.13984 0
M  V30 2250 H 205.648 -1.41379 -3.60681 0
M  V30 2251 H 206.062 -3.61936 -3.79608 0
M  V30 2252 H 207.536 -2.38395 -4.97867 0
M  V30 2253 H 208.013 -0.823303 -4.31414 0
M  V30 2254 H 208.619 -2.31853 -3.56545 0
M  V30 2255 N 206.934 1.1197 -1.10907 0
M  V30 2256 C 207.882 2.19927 -0.757303 0
M  V30 2257 C 208.876 1.67564 0.248747 0
M  V30 2258 O 210.082 1.79672 0.108605 0
M  V30 2259 H 206.457 0.716925 -0.226987 0
M  V30 2260 H 208.428 2.46847 -1.67658 0
M  V30 2261 C 207.177 3.47061 -0.210671 0
M  V30 2262 H 206.5 3.87703 -0.976049 0
M  V30 2263 H 207.94 4.24 -0.0026584 0
M  V30 2264 C 206.399 3.19864 1.05777 0
M  V30 2265 O 206.929 3.40049 2.13845 0
M  V30 2266 N 205.135 2.73636 0.978349 0
M  V30 2267 H 204.682 2.5741 0.0988246 0
M  V30 2268 H 204.64 2.55815 1.82773 0
M  V30 2269 N 208.412 0.89855 1.29475 0
M  V30 2270 C 209.652 0.530771 1.97388 0
M  V30 2271 C 210.016 -0.905832 1.69289 0
M  V30 2272 O 211.217 -1.38042 2.30646 0
M  V30 2273 C 209.488 0.81369 3.48014 0
M  V30 2274 S 211.047 0.550048 4.35339 0
M  V30 2275 H 207.865 0.196956 0.683176 0
M  V30 2276 H 210.467 1.16074 1.57312 0
M  V30 2277 H 209.171 1.85749 3.65958 0
M  V30 2278 H 208.702 0.171795 3.93025 0
M  V30 2279 H 210.717 -0.605423 4.92493 0
M  V30 2280 N 209.89 -1.43072 0.660911 0
M  V30 2281 C 211.136 -2.0202 0.177708 0
M  V30 2282 C 211.469 -1.52066 -1.20787 0
M  V30 2283 O 210.744 -0.716987 -1.80802 0
M  V30 2284 C 211.027 -3.59561 0.197019 0
M  V30 2285 C 210.88 -4.19727 1.61706 0
M  V30 2286 C 212.199 -4.37664 -0.462396 0
M  V30 2287 H 209.318 -0.734034 0.0660494 0
M  V30 2288 H 211.96 -1.70272 0.843058 0
M  V30 2289 H 210.11 -3.86739 -0.369527 0
M  V30 2290 H 211.782 -4.03553 2.23479 0
M  V30 2291 H 210.025 -3.76084 2.16201 0
M  V30 2292 H 210.696 -5.28834 1.58237 0
M  V30 2293 H 213.172 -4.16095 0.0197215 0
M  V30 2294 H 212.048 -5.47305 -0.418188 0
M  V30 2295 H 212.309 -4.14493 -1.53778 0
M  V30 2296 N 211.368 -0.403325 -1.52352 0
M  V30 2297 C 212.615 0.174347 -2.01748 0
M  V30 2298 C 212.943 1.45636 -1.2892 0
M  V30 2299 O 212.198 1.9193 -0.382258 0
M  V30 2300 C 212.497 0.474665 -3.54234 0
M  V30 2301 C 212.163 -0.717458 -4.45155 0
M  V30 2302 C 210.825 -1.04447 -4.69728 0
M  V30 2303 C 213.177 -1.51432 -4.98716 0
M  V30 2304 C 210.505 -2.16963 -5.45109 0
M  V30 2305 C 212.857 -2.6302 -5.75329 0
M  V30 2306 C 211.521 -2.96213 -5.98175 0
M  V30 2307 H 210.791 0.0637981 -0.738248 0
M  V30 2308 H 213.438 -0.543553 -1.83624 0
M  V30 2309 H 211.743 1.27406 -3.70506 0
M  V30 2310 H 213.44 0.934496 -3.89959 0
M  V30 2311 H 210.03 -0.452596 -4.26204 0
M  V30 2312 H 214.214 -1.27491 -4.79645 0
M  V30 2313 H 209.47 -2.43034 -5.61021 0
M  V30 2314 H 213.644 -3.25158 -6.15829 0
M  V30 2315 H 211.271 -3.83516 -6.56368 0
M  V30 2316 N 212.846 1.57033 -0.133567 0
M  V30 2317 C 213.779 2.11824 0.848872 0
M  V30 2318 C 214.757 1.03833 1.2513 0
M  V30 2319 O 215.941 1.31579 1.34978 0
M  V30 2320 C 213.068 2.62692 2.138 0
M  V30 2321 C 212.114 3.82705 1.88253 0
M  V30 2322 S 212.947 5.2438 1.08563 0
M  V30 2323 C 214.103 5.78627 2.38624 0
M  V30 2324 H 214.336 2.94824 0.38289 0
M  V30 2325 H 211.869 1.5419 0.0804796 0
M  V30 2326 H 213.827 2.92652 2.87863 0
M  V30 2327 H 212.488 1.79847 2.57515 0
M  V30 2328 H 211.681 4.16496 2.83809 0
M  V30 2329 H 211.283 3.53437 1.22305 0
M  V30 2330 H 213.575 5.8924 3.34369 0
M  V30 2331 H 214.518 6.76443 2.09358 0
M  V30 2332 H 214.926 5.06783 2.48658 0
M  V30 2333 N 214.325 -0.140222 1.56975 0
M  V30 2334 C 215.553 -0.866437 1.87884 0
M  V30 2335 C 215.968 -1.74428 0.722517 0
M  V30 2336 O 215.325 -1.79891 -0.30749 0
M  V30 2337 C 215.376 -1.71753 3.18093 0
M  V30 2338 O 215.097 -0.875056 4.29272 0
M  V30 2339 C 216.598 -2.55074 3.62563 0
M  V30 2340 H 213.818 -0.25019 0.622612 0
M  V30 2341 H 216.362 -0.130977 2.0408 0
M  V30 2342 H 214.517 -2.40598 3.03631 0
M  V30 2343 H 214.931 -1.46002 5.03769 0
M  V30 2344 H 216.405 -3.10356 4.5649 0
M  V30 2345 H 216.882 -3.31434 2.88181 0
M  V30 2346 H 217.488 -1.91509 3.79743 0
M  V30 2347 N 215.803 -1.52179 -0.40978 0
M  V30 2348 C 216.736 -1.70196 -1.52015 0
M  V30 2349 C 217.714 -0.549542 -1.53032 0
M  V30 2350 O 218.898 -0.776815 -1.71749 0
M  V30 2351 C 216.025 -1.74069 -2.90547 0
M  V30 2352 C 215.071 -2.95601 -3.07445 0
M  V30 2353 S 215.904 -4.55956 -2.80827 0
M  V30 2354 C 217.06 -4.62614 -4.21591 0
M  V30 2355 H 217.293 -2.64109 -1.36504 0
M  V30 2356 H 214.826 -1.4221 -0.601312 0
M  V30 2357 H 216.784 -1.76985 -3.70387 0
M  V30 2358 H 215.445 -0.812835 -3.034 0
M  V30 2359 H 214.638 -2.94791 -4.08796 0
M  V30 2360 H 214.24 -2.90569 -2.35469 0
M  V30 2361 H 216.532 -4.39951 -5.15218 0
M  V30 2362 H 217.475 -5.64548 -4.27424 0
M  V30 2363 H 217.883 -3.91654 -4.06531 0
M  V30 2364 N 217.281 0.66697 -1.42791 0
M  V30 2365 C 218.506 1.46004 -1.47301 0
M  V30 2366 C 218.931 1.87894 -0.0880317 0
M  V30 2367 O 218.289 1.56502 0.915253 0
M  V30 2368 C 218.337 2.68031 -2.41229 0
M  V30 2369 O 217.441 3.6659 -1.88906 0
M  V30 2370 H 216.782 0.43832 -0.49877 0
M  V30 2371 H 219.312 0.817391 -1.87563 0
M  V30 2372 H 219.322 3.1601 -2.58073 0
M  V30 2373 H 217.997 2.36883 -3.41847 0
M  V30 2374 H 216.574 3.25661 -1.81656 0
M  V30 2375 N 218.759 1.29093 0.90403 0
M  V30 2376 C 219.707 1.13727 2.02901 0
M  V30 2377 C 220.701 0.0539853 1.69314 0
M  V30 2378 O 221.907 0.213469 1.7873 0
M  V30 2379 H 218.282 0.35117 0.664969 0
M  V30 2380 H 220.253 2.08982 2.13001 0
M  V30 2381 C 219.002 0.826066 3.37745 0
M  V30 2382 H 218.325 1.65164 3.64089 0
M  V30 2383 H 219.765 0.758559 4.17159 0
M  V30 2384 C 218.224 -0.470541 3.33598 0
M  V30 2385 O 218.754 -1.49792 3.72727 0
M  V30 2386 N 216.96 -0.474812 2.86695 0
M  V30 2387 H 216.507 0.361692 2.55048 0
M  V30 2388 H 216.465 -1.34236 2.84303 0
M  V30 2389 N 220.237 -1.11381 1.11499 0
M  V30 2390 C 221.648 -1.6465 0.880191 0
M  V30 2391 C 221.999 -1.87199 -0.587434 0
M  V30 2392 O 221.124 -1.60667 -1.44966 0
M  V30 2393 C 221.719 -2.99105 1.59128 0
M  V30 2394 C 220.278 -3.49279 1.40289 0
M  V30 2395 C 219.425 -2.24077 1.63354 0
M  V30 2396 H 222.376 -0.950123 1.27116 0
M  V30 2397 H 222.397 -3.66107 1.03664 0
M  V30 2398 H 221.909 -2.82661 2.65941 0
M  V30 2399 H 220.01 -3.70887 0.356888 0
M  V30 2400 H 220.123 -4.2803 2.15238 0
M  V30 2401 H 218.487 -2.31733 1.05698 0
M  V30 2402 H 219.27 -2.10175 2.71443 0
M  V30 2403 N 221.715 -0.905404 -1.28997 0
M  V30 2404 C 223.126 -0.581953 -1.77398 0
M  V30 2405 C 223.477 0.902552 -1.74208 0
M  V30 2406 O 222.602 1.70584 -1.33154 0
M  V30 2407 C 223.197 -1.04961 -3.22131 0
M  V30 2408 C 221.756 -0.777229 -3.68288 0
M  V30 2409 C 220.903 -1.22109 -2.48967 0
M  V30 2410 H 223.854 -1.08754 -1.15578 0
M  V30 2411 H 223.875 -0.387387 -3.78523 0
M  V30 2412 H 223.387 -2.13008 -3.24421 0
M  V30 2413 H 221.488 0.290383 -3.71467 0
M  V30 2414 H 221.601 -1.37911 -4.58822 0
M  V30 2415 H 219.965 -0.639971 -2.46529 0
M  V30 2416 H 220.748 -2.30972 -2.53982 0
M  V30 2417 N 223.193 1.4272 -0.668489 0
M  V30 2418 C 224.47 1.95248 -0.117373 0
M  V30 2419 C 224.85 1.60919 1.36632 0
M  V30 2420 O 224.198 0.902095 2.09939 0
M  V30 2421 C 224.408 3.46927 -0.379806 0
M  V30 2422 C 225.756 4.23588 -0.292923 0
M  V30 2423 O 226.78 3.5482 -0.313204 0
M  V30 2424 O 225.639 5.46017 -0.229697 0
M  V30 2425 H 222.733 0.827 0.00079152 0
M  V30 2426 H 225.279 1.52581 -0.742783 0
M  V30 2427 H 224.051 3.65096 -1.40786 0
M  V30 2428 H 223.674 3.96627 0.277923 0
M  V30 2429 N 224.671 0.411399 1.52136 0
M  V30 2430 C 225.917 -0.156262 2.02799 0
M  V30 2431 C 226.272 -1.42613 1.29149 0
M  V30 2432 O 225.565 -1.87592 0.389839 0
M  V30 2433 C 225.759 -0.455872 3.54481 0
M  V30 2434 C 225.588 0.783404 4.42824 0
M  V30 2435 C 224.358 1.30928 4.88043 0
M  V30 2436 C 226.556 1.66217 4.86699 0
M  V30 2437 N 224.538 2.5038 5.6052 0
M  V30 2438 C 225.909 2.70292 5.5798 0
M  V30 2439 C 227.964 1.67966 4.68713 0
M  V30 2440 C 226.667 3.7603 6.13184 0
M  V30 2441 C 228.693 2.72624 5.24815 0
M  V30 2442 C 228.055 3.7542 5.9602 0
M  V30 2443 H 224.154 -0.0186886 0.781777 0
M  V30 2444 H 226.738 0.566255 1.86284 0
M  V30 2445 H 224.909 -1.14743 3.71064 0
M  V30 2446 H 226.641 -1.01261 3.91827 0
M  V30 2447 H 223.396 0.866977 4.65597 0
M  V30 2448 H 223.82 3.10881 6.014 0
M  V30 2449 H 228.462 0.898312 4.13147 0
M  V30 2450 H 226.18 4.55019 6.6782 0
M  V30 2451 H 229.766 2.74887 5.12765 0
M  V30 2452 H 228.646 4.55073 6.38654 0
M  V30 2453 N 226.149 -1.5696 0.141893 0
M  V30 2454 C 227.377 -2.00322 -0.517579 0
M  V30 2455 C 227.792 -1.02193 -1.58752 0
M  V30 2456 O 227.149 -0.0181619 -1.82491 0
M  V30 2457 C 227.2 -3.43618 -1.12289 0
M  V30 2458 O 226.921 -4.37995 -0.0956929 0
M  V30 2459 C 228.422 -4.02231 -1.86347 0
M  V30 2460 H 225.642 -0.657243 -0.135177 0
M  V30 2461 H 228.186 -2.03146 0.234973 0
M  V30 2462 H 226.341 -3.41662 -1.82609 0
M  V30 2463 H 226.755 -5.21729 -0.538469 0
M  V30 2464 H 228.229 -5.04509 -2.23997 0
M  V30 2465 H 228.706 -3.42655 -2.74744 0
M  V30 2466 H 229.312 -4.07802 -1.20737 0
M  V30 2467 N 227.627 0.131896 -1.57047 0
M  V30 2468 C 228.574 1.16236 -1.99393 0
M  V30 2469 C 229.544 1.41863 -0.863943 0
M  V30 2470 O 230.729 1.53946 -1.12718 0
M  V30 2471 C 227.869 2.48708 -2.39245 0
M  V30 2472 C 226.982 2.30127 -3.65603 0
M  V30 2473 C 226.117 3.55738 -3.94492 0
M  V30 2474 C 225.156 3.32259 -5.14073 0
M  V30 2475 N 224.293 4.50039 -5.38896 0
M  V30 2476 H 229.133 0.794251 -2.87221 0
M  V30 2477 H 226.67 0.380707 -1.42088 0
M  V30 2478 H 228.628 3.25969 -2.60384 0
M  V30 2479 H 227.258 2.83437 -1.54478 0
M  V30 2480 H 226.31 1.43845 -3.52154 0
M  V30 2481 H 227.622 2.08746 -4.5302 0
M  V30 2482 H 226.776 4.41423 -4.1621 0
M  V30 2483 H 225.515 3.80138 -3.05526 0
M  V30 2484 H 224.52 2.44963 -4.92212 0
M  V30 2485 H 225.745 3.09242 -6.04604 0
M  V30 2486 H 223.691 4.74584 -4.52886 0
M  V30 2487 H 223.608 4.31716 -6.2061 0
M  V30 2488 H 224.876 5.36895 -5.65123 0
M  V30 2489 N 229.106 1.52395 0.401703 0
M  V30 2490 C 230.054 1.7689 1.51039 0
M  V30 2491 C 231.048 0.636298 1.56996 0
M  V30 2492 O 232.254 0.818507 1.60314 0
M  V30 2493 H 228.629 0.559502 0.502456 0
M  V30 2494 H 230.6 2.69757 1.27568 0
M  V30 2495 C 229.349 1.94331 2.88324 0
M  V30 2496 H 228.672 2.80905 2.84486 0
M  V30 2497 H 230.112 2.15466 3.65172 0
M  V30 2498 C 228.571 0.712396 3.29282 0
M  V30 2499 O 229.101 -0.116218 4.01532 0
M  V30 2500 N 227.307 0.546154 2.85422 0
M  V30 2501 H 226.854 1.22156 2.26794 0
M  V30 2502 H 226.812 -0.276113 3.13185 0
M  V30 2503 N 230.584 -0.659388 1.43143 0
M  V30 2504 C 231.83 -1.42145 1.44647 0
M  V30 2505 C 232.163 -1.9408 0.0681907 0
M  V30 2506 O 231.438 -1.71899 -0.910007 0
M  V30 2507 C 231.721 -2.60735 2.48373 0
M  V30 2508 C 231.574 -2.14332 3.95451 0
M  V30 2509 C 232.893 -3.62951 2.48906 0
M  V30 2510 H 230.012 -0.51552 0.526696 0
M  V30 2511 H 232.654 -0.748069 1.74654 0
M  V30 2512 H 230.804 -3.18184 2.22916 0
M  V30 2513 H 232.476 -1.61932 4.31944 0
M  V30 2514 H 230.719 -1.4576 4.08578 0
M  V30 2515 H 231.39 -2.99583 4.63631 0
M  V30 2516 H 233.866 -3.1525 2.71582 0
M  V30 2517 H 232.742 -4.43487 3.23435 0
M  V30 2518 H 233.003 -4.15126 1.52061 0
M  V30 2519 N 232.062 -1.29571 -0.897171 0
M  V30 2520 C 232.972 -1.16808 -2.03453 0
M  V30 2521 C 233.988 -0.0907471 -1.73763 0
M  V30 2522 O 235.164 -0.303312 -1.99103 0
M  V30 2523 C 232.229 -0.848264 -3.36163 0
M  V30 2524 C 231.29 -2.0097 -3.79354 0
M  V30 2525 C 230.523 -1.70505 -5.05731 0
M  V30 2526 O 230.746 -0.62718 -5.66941 0
M  V30 2527 O 229.68 -2.5538 -5.45036 0
M  V30 2528 H 233.506 -2.12325 -2.17144 0
M  V30 2529 H 231.091 -1.09047 -1.02123 0
M  V30 2530 H 232.973 -0.684581 -4.15802 0
M  V30 2531 H 231.648 0.0771071 -3.23608 0
M  V30 2532 H 230.555 -2.22863 -3.00471 0
M  V30 2533 H 231.888 -2.91636 -3.96496 0
M  V30 2534 N 233.54 1.10788 -1.12088 0
M  V30 2535 C 234.77 1.86191 -0.895351 0
M  V30 2536 C 235.178 1.80763 0.558702 0
M  V30 2537 O 234.521 1.19188 1.39785 0
M  V30 2538 C 234.583 3.35659 -1.28737 0
M  V30 2539 C 234.247 3.64849 -2.75198 0
M  V30 2540 C 235.244 3.61757 -3.734 0
M  V30 2541 C 232.929 3.93641 -3.12013 0
M  V30 2542 C 234.923 3.87045 -5.06434 0
M  V30 2543 C 232.61 4.18585 -4.4523 0
M  V30 2544 C 233.608 4.15277 -5.42249 0
M  V30 2545 O 233.296 4.3959 -6.73065 0
M  V30 2546 H 233.028 0.595425 -0.32007 0
M  V30 2547 H 235.582 1.40992 -1.49367 0
M  V30 2548 H 233.812 3.81497 -0.63224 0
M  V30 2549 H 235.501 3.92441 -1.03656 0
M  V30 2550 H 236.267 3.39557 -3.46303 0
M  V30 2551 H 232.146 3.95348 -2.37109 0
M  V30 2552 H 235.69 3.84378 -5.82151 0
M  V30 2553 H 231.587 4.40264 -4.72057 0
M  V30 2554 H 232.355 4.57123 -6.78956 0
M  V30 2555 N 235.018 0.912232 1.28515 0
M  V30 2556 C 236.246 0.560416 1.99166 0
M  V30 2557 C 236.661 -0.857927 1.68182 0
M  V30 2558 O 236.018 -1.56805 0.933733 0
M  V30 2559 C 236.069 0.758142 3.53461 0
M  V30 2560 O 235.79 2.12067 3.83352 0
M  V30 2561 C 237.291 0.412954 4.41372 0
M  V30 2562 H 234.511 0.213805 0.636026 0
M  V30 2563 H 237.055 1.22502 1.63749 0
M  V30 2564 H 235.21 0.140556 3.87145 0
M  V30 2565 H 235.624 2.15923 4.77993 0
M  V30 2566 H 237.098 0.60208 5.48707 0
M  V30 2567 H 237.575 -0.65073 4.34353 0
M  V30 2568 H 238.181 1.00802 4.13182 0
M  V30 2569 N 236.496 -1.42363 0.676048 0
M  V30 2570 C 237.743 -2.01522 0.19883 0
M  V30 2571 C 238.071 -1.53456 -1.19505 0
M  V30 2572 O 237.326 -0.727967 -1.81657 0
M  V30 2573 C 237.625 -3.56929 0.183431 0
M  V30 2574 C 237.291 -4.24431 1.52215 0
M  V30 2575 C 235.953 -4.42585 1.8887 0
M  V30 2576 C 238.305 -4.62459 2.40377 0
M  V30 2577 C 235.633 -4.96039 3.13309 0
M  V30 2578 C 237.985 -5.17294 3.64129 0
M  V30 2579 C 236.649 -5.33661 4.00951 0
M  V30 2580 H 235.919 -0.737419 0.0727571 0
M  V30 2581 H 238.566 -1.70531 0.871281 0
M  V30 2582 H 236.871 -3.87594 -0.572532 0
M  V30 2583 H 238.568 -4.00486 -0.203035 0
M  V30 2584 H 235.158 -4.10661 1.22701 0
M  V30 2585 H 239.342 -4.48105 2.13343 0
M  V30 2586 H 234.598 -5.06896 3.41857 0
M  V30 2587 H 238.772 -5.45704 4.32644 0
M  V30 2588 H 236.399 -5.74845 4.9745 0
M  V30 2589 N 237.974 -0.419461 -1.51915 0
M  V30 2590 C 239.202 0.152136 -2.0634 0
M  V30 2591 C 239.617 1.37988 -1.28859 0
M  V30 2592 O 238.974 1.79243 -0.343232 0
M  V30 2593 C 239.025 0.492266 -3.58133 0
M  V30 2594 O 238.746 -0.686736 -4.32684 0
M  V30 2595 C 240.247 1.11648 -4.2901 0
M  V30 2596 H 237.467 0.0158325 -0.670813 0
M  V30 2597 H 240.011 -0.593394 -1.95702 0
M  V30 2598 H 238.166 1.18769 -3.68745 0
M  V30 2599 H 238.58 -0.400341 -5.2297 0
M  V30 2600 H 240.054 1.3046 -5.36362 0
M  V30 2601 H 240.531 2.09251 -3.86148 0
M  V30 2602 H 241.137 0.460958 -4.22795 0
M  V30 2603 N 239.452 1.56882 -0.150215 0
M  V30 2604 C 240.7 1.9584 0.499105 0
M  V30 2605 C 241.021 1.03623 1.65188 0
M  V30 2606 O 240.291 0.0984084 1.95653 0
M  V30 2607 H 238.871 0.723119 0.187373 0
M  V30 2608 H 241.533 1.9358 -0.226466 0
M  V30 2609 H 240.629 2.99638 0.873122 0
M  V30 2610 N 240.93 -0.123565 1.57115 0
M  V30 2611 C 242.179 -0.830704 1.83799 0
M  V30 2612 C 242.492 -1.81259 0.735158 0
M  V30 2613 O 243.698 -2.56558 0.888278 0
M  V30 2614 C 242.154 -1.52802 3.25852 0
M  V30 2615 C 241.762 -0.587356 4.44133 0
M  V30 2616 C 243.506 -2.22056 3.61789 0
M  V30 2617 C 241.413 -1.28764 5.77212 0
M  V30 2618 H 240.343 -0.313967 0.685522 0
M  V30 2619 H 242.994 -0.0834359 1.8331 0
M  V30 2620 H 241.376 -2.32175 3.20797 0
M  V30 2621 H 242.55 0.172829 4.60476 0
M  V30 2622 H 240.865 -0.00201892 4.164 0
M  V30 2623 H 243.462 -2.75131 4.58483 0
M  V30 2624 H 243.805 -2.99644 2.88997 0
M  V30 2625 H 244.338 -1.49576 3.68608 0
M  V30 2626 H 241.077 -0.55314 6.53162 0
M  V30 2627 H 240.597 -2.01995 5.64764 0
M  V30 2628 H 242.276 -1.8221 6.20813 0
M  V30 2629 N 242.408 -1.52605 -0.393616 0
M  V30 2630 C 243.638 -1.71046 -1.15874 0
M  V30 2631 C 244.046 -0.426483 -1.84331 0
M  V30 2632 O 243.389 0.608513 -1.73329 0
M  V30 2633 C 243.451 -2.80118 -2.25332 0
M  V30 2634 C 243.115 -4.21381 -1.76881 0
M  V30 2635 C 244.112 -5.04697 -1.24808 0
M  V30 2636 C 241.797 -4.67683 -1.83244 0
M  V30 2637 C 243.791 -6.32393 -0.797387 0
M  V30 2638 C 241.478 -5.95364 -1.37787 0
M  V30 2639 C 242.476 -6.77549 -0.861208 0
M  V30 2640 O 242.164 -8.02837 -0.413252 0
M  V30 2641 H 241.896 -0.576155 -0.353583 0
M  V30 2642 H 244.45 -2.00018 -0.467123 0
M  V30 2643 H 242.68 -2.46557 -2.97904 0
M  V30 2644 H 244.369 -2.87006 -2.87023 0
M  V30 2645 H 245.135 -4.70111 -1.19252 0
M  V30 2646 H 241.014 -4.03805 -2.22401 0
M  V30 2647 H 244.558 -6.9649 -0.393437 0
M  V30 2648 H 240.455 -6.29455 -1.43026 0
M  V30 2649 H 241.223 -8.16749 -0.53515 0
M  V30 2650 N 243.887 0.651787 -1.4349 0
M  V30 2651 C 245.115 1.43937 -1.48626 0
M  V30 2652 C 245.53 1.8851 -0.104587 0
M  V30 2653 O 244.887 1.5958 0.885464 0
M  V30 2654 C 244.938 2.6734 -2.43334 0
M  V30 2655 O 244.659 2.24631 -3.76128 0
M  V30 2656 C 246.16 3.60683 -2.57726 0
M  V30 2657 H 243.38 0.44213 -0.504739 0
M  V30 2658 H 245.924 0.798944 -1.88248 0
M  V30 2659 H 244.079 3.2752 -2.06904 0
M  V30 2660 H 244.493 3.04485 -4.2707 0
M  V30 2661 H 245.967 4.43933 -3.28067 0
M  V30 2662 H 246.444 4.08126 -1.62265 0
M  V30 2663 H 247.05 3.06384 -2.94973 0
M  V30 2664 N 245.365 1.30045 0.890287 0
M  V30 2665 C 246.612 1.18561 1.64163 0
M  V30 2666 C 246.94 -0.260852 1.92743 0
M  V30 2667 O 246.195 -1.20376 1.54299 0
M  V30 2668 C 246.494 1.95409 2.99249 0
M  V30 2669 C 246.16 3.45066 2.90242 0
M  V30 2670 C 244.822 3.85878 2.87492 0
M  V30 2671 C 247.174 4.4039 2.78758 0
M  V30 2672 C 244.502 5.20314 2.7109 0
M  V30 2673 C 246.854 5.74928 2.63894 0
M  V30 2674 C 245.518 6.14986 2.59516 0
M  V30 2675 H 244.788 0.433846 0.600715 0
M  V30 2676 H 247.435 1.61088 1.03552 0
M  V30 2677 H 245.74 1.45501 3.63781 0
M  V30 2678 H 247.437 1.8392 3.56334 0
M  V30 2679 H 244.027 3.12631 2.93189 0
M  V30 2680 H 248.211 4.09806 2.79952 0
M  V30 2681 H 243.467 5.50449 2.66112 0
M  V30 2682 H 247.641 6.48434 2.53981 0
M  V30 2683 H 245.268 7.19104 2.46565 0
M  V30 2684 N 246.843 -1.10192 1.12674 0
M  V30 2685 C 247.753 -2.20172 0.810026 0
M  V30 2686 C 248.769 -1.72821 -0.202188 0
M  V30 2687 O 249.945 -2.01369 -0.0351691 0
M  V30 2688 C 247.01 -3.45631 0.272007 0
M  V30 2689 C 246.071 -4.07704 1.34447 0
M  V30 2690 C 245.304 -5.27175 0.832029 0
M  V30 2691 O 245.527 -5.69425 -0.333284 0
M  V30 2692 O 244.461 -5.80168 1.60277 0
M  V30 2693 H 248.287 -2.49701 1.72867 0
M  V30 2694 H 245.872 -1.18977 0.903597 0
M  V30 2695 H 247.754 -4.21394 -0.0230219 0
M  V30 2696 H 246.429 -3.17723 -0.619164 0
M  V30 2697 H 245.336 -3.33614 1.6927 0
M  V30 2698 H 246.669 -4.3982 2.2095 0
M  V30 2699 N 248.321 -0.919034 -1.28029 0
M  V30 2700 C 249.546 -0.570357 -1.99403 0
M  V30 2701 C 249.971 0.842486 -1.68178 0
M  V30 2702 O 249.329 1.56391 -0.917141 0
M  V30 2703 C 249.377 -0.792541 -3.51783 0
M  V30 2704 O 248.481 0.145988 -4.12142 0
M  V30 2705 H 247.822 -0.220555 -0.6263 0
M  V30 2706 H 250.352 -1.23592 -1.63053 0
M  V30 2707 H 250.362 -0.704708 -4.01868 0
M  V30 2708 H 249.037 -1.82247 -3.73844 0
M  V30 2709 H 247.614 0.00897528 -3.72899 0
M  V30 2710 N 249.799 1.42003 -0.683588 0
M  V30 2711 C 250.729 2.33487 -0.024866 0
M  V30 2712 C 251.71 1.51163 0.779975 0
M  V30 2713 O 252.895 1.79739 0.735362 0
M  V30 2714 C 250.025 3.3487 0.920836 0
M  V30 2715 C 248.979 4.27414 0.223958 0
M  V30 2716 C 248.305 5.19074 1.2832 0
M  V30 2717 C 249.605 5.14445 -0.90242 0
M  V30 2718 H 251.299 2.88819 -0.788921 0
M  V30 2719 H 248.845 1.38873 -0.38083 0
M  V30 2720 H 250.798 3.97787 1.39081 0
M  V30 2721 H 249.522 2.77861 1.71642 0
M  V30 2722 H 248.181 3.65904 -0.225864 0
M  V30 2723 H 247.829 4.58387 2.071 0
M  V30 2724 H 247.529 5.81822 0.821995 0
M  V30 2725 H 249.053 5.84867 1.75392 0
M  V30 2726 H 250.467 5.70998 -0.513272 0
M  V30 2727 H 248.864 5.86072 -1.28997 0
M  V30 2728 H 249.934 4.52322 -1.74737 0
M  V30 2729 N 251.277 0.427512 1.51691 0
M  V30 2730 C 252.526 -0.143679 2.01188 0
M  V30 2731 C 252.839 -1.44642 1.31674 0
M  V30 2732 O 254.045 -2.09997 1.72086 0
M  V30 2733 C 252.501 -0.306602 3.58592 0
M  V30 2734 C 252.109 0.985125 4.37035 0
M  V30 2735 C 253.853 -0.832091 4.16265 0
M  V30 2736 C 251.76 0.788382 5.86122 0
M  V30 2737 H 250.69 -0.0574701 0.751807 0
M  V30 2738 H 253.341 0.555772 1.74881 0
M  V30 2739 H 251.723 -1.06882 3.81303 0
M  V30 2740 H 252.897 1.75492 4.26074 0
M  V30 2741 H 251.212 1.4384 3.90767 0
M  V30 2742 H 253.809 -0.995617 5.25349 0
M  V30 2743 H 254.152 -1.81186 3.74803 0
M  V30 2744 H 254.685 -0.128444 3.97593 0
M  V30 2745 H 251.424 1.74025 6.31978 0
M  V30 2746 H 250.944 0.0582143 5.99772 0
M  V30 2747 H 252.623 0.437722 6.45518 0
M  V30 2748 N 252.755 -1.56801 0.158532 0
M  V30 2749 C 253.702 -2.17337 -0.776729 0
M  V30 2750 C 254.672 -1.1096 -1.23601 0
M  V30 2751 O 255.857 -1.39054 -1.30647 0
M  V30 2752 C 252.997 -2.80822 -2.00582 0
M  V30 2753 C 252.11 -4.01624 -1.59129 0
M  V30 2754 C 251.245 -4.53072 -2.77306 0
M  V30 2755 C 250.284 -5.66314 -2.32282 0
M  V30 2756 N 249.421 -6.12329 -3.43508 0
M  V30 2757 H 254.261 -2.96918 -0.253701 0
M  V30 2758 H 251.798 -1.46661 -0.113504 0
M  V30 2759 H 253.756 -3.15779 -2.72652 0
M  V30 2760 H 252.386 -2.03866 -2.50277 0
M  V30 2761 H 251.438 -3.72571 -0.767806 0
M  V30 2762 H 252.75 -4.83633 -1.2207 0
M  V30 2763 H 251.904 -4.90145 -3.57551 0
M  V30 2764 H 250.643 -3.70095 -3.17617 0
M  V30 2765 H 249.648 -5.28806 -1.5048 0
M  V30 2766 H 250.873 -6.51085 -1.93043 0
M  V30 2767 H 248.819 -5.32284 -3.83418 0
M  V30 2768 H 248.736 -6.89293 -3.105 0
M  V30 2769 H 250.004 -6.5405 -4.24075 0
M  V30 2770 N 254.233 0.115231 -1.57178 0
M  V30 2771 C 255.482 0.820945 -1.84237 0
M  V30 2772 C 255.795 1.80866 -0.744761 0
M  V30 2773 O 257.001 2.56083 -0.901871 0
M  V30 2774 C 255.457 1.51072 -3.26658 0
M  V30 2775 C 255.065 0.563795 -4.44438 0
M  V30 2776 C 256.809 2.20134 -3.62962 0
M  V30 2777 C 254.716 1.25701 -5.77887 0
M  V30 2778 H 253.646 0.310328 -0.687177 0
M  V30 2779 H 256.297 0.0737134 -1.83352 0
M  V30 2780 H 254.679 2.30471 -3.22024 0
M  V30 2781 H 255.853 -0.197247 -4.60378 0
M  V30 2782 H 254.168 -0.0200638 -4.16395 0
M  V30 2783 H 256.765 2.72696 -4.59936 0
M  V30 2784 H 257.108 2.98107 -2.90582 0
M  V30 2785 H 257.641 1.47619 -3.69396 0
M  V30 2786 H 254.38 0.518493 -6.53446 0
M  V30 2787 H 253.9 1.98997 -5.65827 0
M  V30 2788 H 255.579 1.78915 -6.2177 0
M  V30 2789 N 255.711 1.52812 0.385517 0
M  V30 2790 C 256.96 1.67249 1.12741 0
M  V30 2791 C 257.273 0.4205 1.91027 0
M  V30 2792 O 258.479 0.445064 2.67827 0
M  V30 2793 C 256.935 2.95583 2.05326 0
M  V30 2794 C 256.543 4.27974 1.32447 0
M  V30 2795 C 258.287 3.19386 2.7963 0
M  V30 2796 C 256.194 5.47412 2.23818 0
M  V30 2797 H 255.124 0.6231 0.424573 0
M  V30 2798 H 257.775 1.79309 0.389924 0
M  V30 2799 H 256.157 2.77277 2.82725 0
M  V30 2800 H 257.331 4.56844 0.602495 0
M  V30 2801 H 255.646 4.10459 0.700885 0
M  V30 2802 H 258.243 4.05801 3.48181 0
M  V30 2803 H 258.586 2.34604 3.43899 0
M  V30 2804 H 259.119 3.38274 2.09322 0
M  V30 2805 H 255.858 6.34612 1.64157 0
M  V30 2806 H 255.378 5.22849 2.93921 0
M  V30 2807 H 257.057 5.81423 2.83824 0
M  V30 2808 N 257.189 -0.644168 1.43834 0
M  V30 2809 C 258.152 -1.73857 1.49353 0
M  V30 2810 C 259.152 -1.56315 0.377112 0
M  V30 2811 O 260.342 -1.62048 0.639226 0
M  V30 2812 C 257.474 -3.12819 1.35488 0
M  V30 2813 H 258.667 -1.70342 2.46827 0
M  V30 2814 H 256.22 -0.856652 1.30733 0
M  V30 2815 H 256.955 -3.2194 0.390569 0
M  V30 2816 H 256.74 -3.26958 2.16428 0
M  V30 2817 H 258.23 -3.92606 1.42302 0
M  V30 2818 N 258.668 -1.30515 -0.883378 0
M  V30 2819 C 260.084 -1.08881 -1.16692 0
M  V30 2820 C 260.284 0.149409 -2.00945 0
M  V30 2821 O 259.34 0.84257 -2.38027 0
M  V30 2822 C 260.653 -2.35319 -1.87204 0
M  V30 2823 C 262.201 -2.40799 -1.99962 0
M  V30 2824 C 262.676 -3.67083 -2.73887 0
M  V30 2825 N 264.167 -3.679 -2.81432 0
M  V30 2826 C 264.902 -4.62303 -3.3921 0
M  V30 2827 N 264.398 -5.67052 -3.98025 0
M  V30 2828 N 266.191 -4.49845 -3.3704 0
M  V30 2829 H 258.342 -2.09951 -0.321633 0
M  V30 2830 H 260.605 -0.92556 -0.205043 0
M  V30 2831 H 260.311 -3.25689 -1.3274 0
M  V30 2832 H 260.185 -2.44089 -2.87577 0
M  V30 2833 H 262.572 -1.50907 -2.53597 0
M  V30 2834 H 262.653 -2.36003 -0.98673 0
M  V30 2835 H 262.297 -4.57334 -2.20925 0
M  V30 2836 H 262.227 -3.69141 -3.75556 0
M  V30 2837 H 264.718 -2.92171 -2.39676 0
M  V30 2838 H 265.031 -6.35184 -4.40183 0
M  V30 2839 H 263.376 -5.70842 -3.96439 0
M  V30 2840 H 266.567 -3.67194 -2.90321 0
M  V30 2841 H 266.74 -5.23597 -3.81772 0
M  V30 2842 N 260.146 1.09593 -1.13257 0
M  V30 2843 C 261.394 1.81375 -0.891492 0
M  V30 2844 C 261.715 1.86049 0.584009 0
M  V30 2845 O 260.985 1.34481 1.42449 0
M  V30 2846 H 259.565 0.671708 -0.326828 0
M  V30 2847 H 262.227 1.3256 -1.42877 0
M  V30 2848 H 261.323 2.84612 -1.28071 0
M  V30 2849 N 261.624 0.925811 1.2754 0
M  V30 2850 C 262.871 0.565255 1.94451 0
M  V30 2851 C 263.199 -0.89316 1.7278 0
M  V30 2852 O 262.454 -1.65213 1.04895 0
M  V30 2853 C 262.753 0.835296 3.47502 0
M  V30 2854 C 262.419 2.27515 3.89291 0
M  V30 2855 C 261.081 2.66879 4.00411 0
M  V30 2856 C 263.433 3.21158 4.10496 0
M  V30 2857 C 260.761 3.99014 4.30122 0
M  V30 2858 C 263.113 4.52871 4.4169 0
M  V30 2859 C 261.777 4.92072 4.51023 0
M  V30 2860 H 261.047 0.206841 0.711546 0
M  V30 2861 H 263.694 1.16942 1.51647 0
M  V30 2862 H 261.999 0.148442 3.91519 0
M  V30 2863 H 263.696 0.535322 3.97411 0
M  V30 2864 H 260.286 1.95976 3.81171 0
M  V30 2865 H 264.47 2.9195 4.01346 0
M  V30 2866 H 259.726 4.2907 4.35556 0
M  V30 2867 H 263.9 5.25436 4.57045 0
M  V30 2868 H 261.527 5.9449 4.738 0
M  V30 2869 N 263.102 -1.41638 0.69111 0
M  V30 2870 C 264.342 -2.03166 0.224291 0
M  V30 2871 C 264.706 -1.53537 -1.15284 0
M  V30 2872 O 265.907 -2.0696 -1.71525 0
M  V30 2873 C 264.178 -3.56342 0.274758 0
M  V30 2874 S 265.737 -4.3864 -0.118669 0
M  V30 2875 H 262.555 -0.705188 0.0907263 0
M  V30 2876 H 265.157 -1.7314 0.907895 0
M  V30 2877 H 263.861 -3.89958 1.2791 0
M  V30 2878 H 263.392 -3.91063 -0.428142 0
M  V30 2879 H 265.407 -4.77549 -1.34764 0
M  V30 2880 N 264.58 -0.43555 -1.51462 0
M  V30 2881 C 265.51 0.367376 -2.30592 0
M  V30 2882 C 266.491 1.02263 -1.35928 0
M  V30 2883 O 267.676 1.02661 -1.64847 0
M  V30 2884 C 264.806 1.46983 -3.14664 0
M  V30 2885 C 263.76 0.938161 -4.17591 0
M  V30 2886 C 263.086 2.13622 -4.90173 0
M  V30 2887 C 264.386 -0.0261621 -5.22293 0
M  V30 2888 H 266.08 -0.292969 -2.97963 0
M  V30 2889 H 263.626 -0.14234 -1.43295 0
M  V30 2890 H 265.579 2.03873 -3.688 0
M  V30 2891 H 264.303 2.15843 -2.4511 0
M  V30 2892 H 262.962 0.391481 -3.64504 0
M  V30 2893 H 262.61 2.81098 -4.17124 0
M  V30 2894 H 262.31 1.78688 -5.59772 0
M  V30 2895 H 263.834 2.7107 -5.47132 0
M  V30 2896 H 265.248 0.452384 -5.71512 0
M  V30 2897 H 263.645 -0.287992 -5.99409 0
M  V30 2898 H 264.715 -0.963391 -4.75233 0
M  V30 2899 N 266.058 1.56714 -0.166846 0
M  V30 2900 C 266.968 2.21331 0.777791 0
M  V30 2901 C 267.984 1.20358 1.25658 0
M  V30 2902 O 269.16 1.53005 1.30964 0
M  V30 2903 C 266.225 2.83787 1.99163 0
M  V30 2904 C 265.286 3.99947 1.56016 0
M  V30 2905 C 264.519 4.59415 2.71613 0
M  V30 2906 O 264.742 4.17769 3.88362 0
M  V30 2907 O 263.676 5.49359 2.45945 0
M  V30 2908 H 267.502 3.02605 0.257636 0
M  V30 2909 H 265.087 1.49275 0.0611393 0
M  V30 2910 H 266.969 3.23405 2.70161 0
M  V30 2911 H 265.644 2.05513 2.50092 0
M  V30 2912 H 264.551 3.65007 0.819809 0
M  V30 2913 H 265.884 4.79801 1.09782 0
M  V30 2914 N 267.536 -0.106894 1.57237 0
M  V30 2915 C 268.813 -0.843526 1.76477 0
M  V30 2916 C 269.193 -1.97499 0.745464 0
M  V30 2917 O 268.541 -2.27357 -0.228306 0
M  V30 2918 C 268.751 -1.34903 3.21873 0
M  V30 2919 C 270.099 -1.79654 3.8472 0
M  V30 2920 O 271.123 -1.44554 3.2555 0
M  V30 2921 O 269.982 -2.44515 4.88748 0
M  V30 2922 H 267.076 -0.401468 0.723016 0
M  V30 2923 H 269.622 -0.0896927 1.69463 0
M  V30 2924 H 268.394 -0.53781 3.87586 0
M  V30 2925 H 268.017 -2.16522 3.33473 0
M  V30 2926 N 269.014 -1.53014 -0.377408 0
M  V30 2927 C 270.261 -1.68623 -1.12128 0
M  V30 2928 C 270.589 -0.431997 -1.89642 0
M  V30 2929 O 269.844 0.585855 -1.86725 0
M  V30 2930 C 270.143 -2.87982 -2.11663 0
M  V30 2931 C 269.809 -4.24964 -1.50719 0
M  V30 2932 C 268.471 -4.62217 -1.33825 0
M  V30 2933 C 270.823 -5.10199 -1.06519 0
M  V30 2934 C 268.151 -5.82352 -0.712963 0
M  V30 2935 C 270.503 -6.30969 -0.453955 0
M  V30 2936 C 269.167 -6.66944 -0.272411 0
M  V30 2937 H 268.437 -0.617034 -0.410305 0
M  V30 2938 H 271.084 -1.8718 -0.404484 0
M  V30 2939 H 269.389 -2.63889 -2.89603 0
M  V30 2940 H 271.086 -2.97253 -2.6915 0
M  V30 2941 H 267.676 -3.95626 -1.64858 0
M  V30 2942 H 271.86 -4.81978 -1.18368 0
M  V30 2943 H 267.116 -6.08824 -0.560611 0
M  V30 2944 H 271.29 -6.96324 -0.103217 0
M  V30 2945 H 268.917 -7.59898 0.214181 0
M  V30 2946 N 270.492 0.636531 -1.44174 0
M  V30 2947 C 271.72 1.42353 -1.50144 0
M  V30 2948 C 272.135 1.88389 -0.124575 0
M  V30 2949 O 271.492 1.6051 0.868489 0
M  V30 2950 C 271.543 2.64744 -2.46156 0
M  V30 2951 O 271.264 2.20629 -3.7849 0
M  V30 2952 C 272.765 3.57929 -2.61537 0
M  V30 2953 H 269.985 0.436752 -0.5094 0
M  V30 2954 H 272.529 0.778933 -1.89084 0
M  V30 2955 H 270.684 3.25307 -2.10366 0
M  V30 2956 H 271.098 2.99938 -4.30276 0
M  V30 2957 H 272.572 4.40428 -3.32757 0
M  V30 2958 H 273.049 4.06382 -1.66585 0
M  V30 2959 H 273.655 3.03238 -2.98206 0
M  V30 2960 N 271.97 1.30982 0.876444 0
M  V30 2961 C 273.217 1.20296 1.62896 0
M  V30 2962 C 273.545 -0.240395 1.93009 0
M  V30 2963 O 272.8 -1.18733 1.55567 0
M  V30 2964 C 273.099 1.98572 2.9716 0
M  V30 2965 C 272.765 3.48125 2.86566 0
M  V30 2966 C 271.427 3.88905 2.83383 0
M  V30 2967 C 273.779 4.43322 2.74071 0
M  V30 2968 C 271.107 5.2316 2.65556 0
M  V30 2969 C 273.459 5.77695 2.57781 0
M  V30 2970 C 272.123 6.17704 2.52979 0
M  V30 2971 H 271.393 0.440193 0.59608 0
M  V30 2972 H 274.04 1.62177 1.01837 0
M  V30 2973 H 272.345 1.49352 3.62217 0
M  V30 2974 H 274.042 1.8769 3.54364 0
M  V30 2975 H 270.632 3.15723 2.89856 0
M  V30 2976 H 274.816 4.12752 2.75589 0
M  V30 2977 H 270.072 5.53241 2.60259 0
M  V30 2978 H 274.246 6.51091 2.47089 0
M  V30 2979 H 271.873 7.21678 2.38924 0
M  V30 2980 N 273.449 -1.08991 1.13837 0
M  V30 2981 C 274.379 -2.17771 0.842507 0
M  V30 2982 C 275.36 -1.6892 -0.20001 0
M  V30 2983 O 276.545 -1.94113 -0.0579731 0
M  V30 2984 C 273.675 -3.4589 0.312644 0
M  V30 2985 C 272.629 -4.08099 1.28992 0
M  V30 2986 C 271.955 -5.31098 0.619623 0
M  V30 2987 C 273.255 -4.50077 2.65005 0
M  V30 2988 H 274.949 -2.42777 1.75213 0
M  V30 2989 H 272.495 -1.16682 0.843875 0
M  V30 2990 H 274.448 -4.21297 0.0933043 0
M  V30 2991 H 273.172 -3.20419 -0.632382 0
M  V30 2992 H 271.831 -3.34717 1.49533 0
M  V30 2993 H 271.479 -5.0191 -0.33102 0
M  V30 2994 H 271.179 -5.73674 1.27167 0
M  V30 2995 H 272.703 -6.09224 0.409669 0
M  V30 2996 H 274.117 -5.16688 2.48407 0
M  V30 2997 H 272.514 -5.03553 3.26427 0
M  V30 2998 H 273.584 -3.62257 3.22332 0
M  V30 2999 N 274.927 -0.932562 -1.27047 0
M  V30 3000 C 276.343 -0.633544 -1.46487 0
M  V30 3001 C 276.543 0.815746 -1.84249 0
M  V30 3002 O 275.599 1.59319 -1.95892 0
M  V30 3003 C 276.912 -1.58758 -2.55375 0
M  V30 3004 C 278.46 -1.59634 -2.69232 0
M  V30 3005 C 278.935 -2.53747 -3.81283 0
M  V30 3006 N 280.426 -2.51982 -3.88664 0
M  V30 3007 C 281.161 -3.21491 -4.74796 0
M  V30 3008 N 280.657 -4.00395 -5.65381 0
M  V30 3009 N 282.45 -3.10485 -4.68568 0
M  V30 3010 H 274.601 -1.86946 -1.00821 0
M  V30 3011 H 276.864 -0.802897 -0.504044 0
M  V30 3012 H 276.57 -2.62172 -2.34432 0
M  V30 3013 H 276.444 -1.33301 -3.52861 0
M  V30 3014 H 278.831 -0.569488 -2.89553 0
M  V30 3015 H 278.912 -1.89142 -1.72218 0
M  V30 3016 H 278.556 -3.56545 -3.61715 0
M  V30 3017 H 278.486 -2.21532 -4.77735 0
M  V30 3018 H 280.977 -1.94681 -3.23895 0
M  V30 3019 H 281.29 -4.50406 -6.27976 0
M  V30 3020 H 279.635 -4.04498 -5.65161 0
M  V30 3021 H 282.826 -2.48331 -3.96799 0
M  V30 3022 H 282.999 -3.64925 -5.35475 0
M  V30 3023 N 276.405 1.4127 -0.698611 0
M  V30 3024 C 277.682 1.94955 -0.158762 0
M  V30 3025 C 278.062 1.63781 1.33188 0
M  V30 3026 O 277.41 0.946423 2.07979 0
M  V30 3027 C 277.62 3.46044 -0.453309 0
M  V30 3028 C 278.968 4.22872 -0.382707 0
M  V30 3029 O 279.992 3.54076 -0.388396 0
M  V30 3030 O 278.851 5.45407 -0.345463 0
M  V30 3031 H 275.945 0.82683 -0.0167505 0
M  V30 3032 H 278.491 1.50971 -0.77498 0
M  V30 3033 H 277.263 3.62028 -1.48498 0
M  V30 3034 H 276.886 3.97128 0.19373 0
M  V30 3035 N 277.883 0.443576 1.51229 0
M  V30 3036 C 279.294 -0.0180867 1.86691 0
M  V30 3037 C 279.645 -1.41384 1.36033 0
M  V30 3038 O 278.77 -2.04291 0.713722 0
M  V30 3039 C 279.365 -0.039597 3.38777 0
M  V30 3040 C 277.924 -0.445692 3.73752 0
M  V30 3041 C 277.071 0.357584 2.74985 0
M  V30 3042 H 280.022 0.659138 1.44364 0
M  V30 3043 H 280.043 -0.847761 3.70936 0
M  V30 3044 H 279.555 0.976382 3.75617 0
M  V30 3045 H 277.656 -1.46704 3.42503 0
M  V30 3046 H 277.769 -0.166155 4.78812 0
M  V30 3047 H 276.133 -0.184973 2.54027 0
M  V30 3048 H 276.916 1.37256 3.14668 0
M  V30 3049 N 279.361 -1.56624 0.175154 0
M  V30 3050 C 280.607 -1.98061 -0.462976 0
M  V30 3051 C 280.962 -1.05949 -1.60601 0
M  V30 3052 O 280.255 -0.0999027 -1.91339 0
M  V30 3053 C 280.449 -3.43419 -0.989864 0
M  V30 3054 C 280.278 -4.49587 0.100583 0
M  V30 3055 C 279.048 -5.02281 0.551539 0
M  V30 3056 C 281.246 -5.06322 0.902369 0
M  V30 3057 N 279.228 -5.92088 1.62189 0
M  V30 3058 C 280.599 -5.92607 1.82256 0
M  V30 3059 C 282.654 -4.88811 0.947019 0
M  V30 3060 C 281.357 -6.63254 2.78364 0
M  V30 3061 C 283.383 -5.60182 1.89606 0
M  V30 3062 C 282.745 -6.46197 2.80372 0
M  V30 3063 H 278.844 -0.769833 -0.137409 0
M  V30 3064 H 281.428 -1.9273 0.276256 0
M  V30 3065 H 279.599 -3.49288 -1.6986 0
M  V30 3066 H 281.331 -3.7186 -1.59694 0
M  V30 3067 H 278.086 -4.73367 0.148537 0
M  V30 3068 H 278.51 -6.41696 2.15767 0
M  V30 3069 H 283.152 -4.22004 0.259304 0
M  V30 3070 H 280.87 -7.29271 3.48122 0
M  V30 3071 H 284.456 -5.48617 1.93676 0
M  V30 3072 H 283.336 -7.00453 3.52612 0
M  V30 3073 N 280.839 0.0985539 -1.57292 0
M  V30 3074 C 281.787 1.1387 -2.02821 0
M  V30 3075 C 282.781 1.41676 -0.928666 0
M  V30 3076 O 283.987 1.41398 -1.11385 0
M  V30 3077 H 280.362 0.384419 -0.646317 0
M  V30 3078 H 282.333 0.728347 -2.89375 0
M  V30 3079 C 281.082 2.45166 -2.46554 0
M  V30 3080 H 280.405 2.24613 -3.3074 0
M  V30 3081 H 281.845 3.16456 -2.8219 0
M  V30 3082 C 280.304 3.09216 -1.33742 0
M  V30 3083 O 280.834 3.96163 -0.66464 0
M  V30 3084 N 279.04 2.69413 -1.08928 0
M  V30 3085 H 278.587 1.98801 -1.63817 0
M  V30 3086 H 278.545 3.12594 -0.336458 0
M  V30 3087 N 282.317 1.53212 0.369288 0
M  V30 3088 C 283.563 1.70413 1.11046 0
M  V30 3089 C 283.918 0.448509 1.87099 0
M  V30 3090 O 283.211 -0.558382 1.83283 0
M  V30 3091 C 283.405 2.89101 2.10132 0
M  V30 3092 C 283.234 4.26084 1.43814 0
M  V30 3093 C 282.004 4.90994 1.19384 0
M  V30 3094 C 284.202 5.06754 0.877802 0
M  V30 3095 N 282.184 6.11911 0.49377 0
M  V30 3096 C 283.555 6.1924 0.306891 0
M  V30 3097 C 285.61 4.91814 0.776129 0
M  V30 3098 C 284.313 7.1842 -0.355774 0
M  V30 3099 C 286.339 5.91263 0.127252 0
M  V30 3100 C 285.701 7.03069 -0.432801 0
M  V30 3101 H 281.8 0.676872 0.391623 0
M  V30 3102 H 284.384 1.90603 0.397334 0
M  V30 3103 H 282.555 2.70456 2.78761 0
M  V30 3104 H 284.287 2.95142 2.76899 0
M  V30 3105 H 281.042 4.50074 1.47413 0
M  V30 3106 H 281.466 6.76813 0.159207 0
M  V30 3107 H 286.108 4.05564 1.19489 0
M  V30 3108 H 283.826 8.04264 -0.786499 0
M  V30 3109 H 287.412 5.81779 0.0495613 0
M  V30 3110 H 286.292 7.78702 -0.926958 0
M  V30 3111 N 283.795 -0.628877 1.44509 0
M  V30 3112 C 284.725 -1.75187 1.54376 0
M  V30 3113 C 285.706 -1.65411 0.396618 0
M  V30 3114 O 286.891 -1.84137 0.617031 0
M  V30 3115 C 284.021 -3.13725 1.48976 0
M  V30 3116 C 282.975 -3.38291 2.62189 0
M  V30 3117 C 282.301 -4.76883 2.41841 0
M  V30 3118 C 283.601 -3.30632 4.04326 0
M  V30 3119 H 285.295 -1.67187 2.48373 0
M  V30 3120 H 282.841 -0.802909 1.19538 0
M  V30 3121 H 284.794 -3.92064 1.54478 0
M  V30 3122 H 283.518 -3.22515 0.514961 0
M  V30 3123 H 282.177 -2.62334 2.56079 0
M  V30 3124 H 281.825 -4.82378 1.42548 0
M  V30 3125 H 281.525 -4.94278 3.17747 0
M  V30 3126 H 283.049 -5.57449 2.49165 0
M  V30 3127 H 284.463 -3.98873 4.11793 0
M  V30 3128 H 282.86 -3.59561 4.80454 0
M  V30 3129 H 283.93 -2.28404 4.27738 0
M  V30 3130 N 285.273 -1.31445 -0.869486 0
M  V30 3131 C 286.55 -1.11795 -1.60503 0
M  V30 3132 C 286.93 0.327168 -2.08549 0
M  V30 3133 O 286.278 1.32135 -1.8642 0
M  V30 3134 C 286.488 -2.13258 -2.76265 0
M  V30 3135 C 287.836 -2.45805 -3.46215 0
M  V30 3136 O 288.86 -2.11688 -2.86473 0
M  V30 3137 O 287.719 -3.04228 -4.5399 0
M  V30 3138 H 284.813 -0.430421 -0.706163 0
M  V30 3139 H 287.359 -1.42925 -0.914907 0
M  V30 3140 H 286.131 -3.10461 -2.3818 0
M  V30 3141 H 285.754 -1.83035 -3.52964 0
M  V30 3142 N 286.751 1.08385 -1.14413 0
M  V30 3143 C 287.998 1.80776 -0.912482 0
M  V30 3144 C 288.326 1.86236 0.560934 0
M  V30 3145 O 287.581 1.33431 1.43159 0
M  V30 3146 C 287.88 3.26273 -1.45879 0
M  V30 3147 C 287.546 3.4093 -2.95089 0
M  V30 3148 C 286.208 3.44638 -3.35824 0
M  V30 3149 C 288.56 3.44591 -3.91033 0
M  V30 3150 C 285.888 3.49597 -4.71167 0
M  V30 3151 C 288.24 3.51086 -5.26233 0
M  V30 3152 C 286.904 3.53067 -5.6648 0
M  V30 3153 H 286.174 0.661507 -0.333901 0
M  V30 3154 H 288.821 1.27613 -1.42784 0
M  V30 3155 H 287.126 3.82146 -0.864376 0
M  V30 3156 H 288.823 3.80839 -1.2555 0
M  V30 3157 H 285.413 3.38736 -2.62594 0
M  V30 3158 H 289.597 3.40957 -3.60641 0
M  V30 3159 H 284.853 3.49424 -5.0171 0
M  V30 3160 H 289.027 3.52864 -6.00383 0
M  V30 3161 H 286.654 3.56662 -6.71339 0
M  V30 3162 N 288.23 0.939286 1.26551 0
M  V30 3163 C 289.458 0.602536 1.97932 0
M  V30 3164 C 289.873 -0.82206 1.69964 0
M  V30 3165 O 289.23 -1.54789 0.966784 0
M  V30 3166 C 289.281 0.832946 3.51773 0
M  V30 3167 O 289.002 2.20151 3.78768 0
M  V30 3168 C 290.503 0.506483 4.40397 0
M  V30 3169 H 287.723 0.227248 0.631347 0
M  V30 3170 H 290.267 1.25948 1.61113 0
M  V30 3171 H 288.422 0.222644 3.8676 0
M  V30 3172 H 288.836 2.26013 4.73306 0
M  V30 3173 H 290.31 0.718333 5.47306 0
M  V30 3174 H 290.787 -0.558451 4.35635 0
M  V30 3175 H 291.393 1.09543 4.10951 0
M  V30 3176 N 289.708 -1.40897 0.706093 0
M  V30 3177 C 290.954 -2.01352 0.241889 0
M  V30 3178 C 291.287 -1.55832 -1.15888 0
M  V30 3179 O 290.562 -0.774145 -1.7843 0
M  V30 3180 C 290.845 -3.58752 0.311311 0
M  V30 3181 C 290.698 -4.1437 1.74978 0
M  V30 3182 C 292.017 -4.38914 -0.322922 0
M  V30 3183 H 289.136 -0.731562 0.0893687 0
M  V30 3184 H 291.778 -1.67504 0.896802 0
M  V30 3185 H 289.928 -3.87718 -0.246302 0
M  V30 3186 H 291.6 -3.96239 2.36205 0
M  V30 3187 H 289.843 -3.69016 2.28057 0
M  V30 3188 H 290.514 -5.23532 1.74981 0
M  V30 3189 H 292.99 -4.15822 0.152089 0
M  V30 3190 H 291.866 -5.48358 -0.243855 0
M  V30 3191 H 292.127 -4.19176 -1.40513 0
M  V30 3192 N 291.186 -0.45159 -1.50991 0
M  V30 3193 C 292.435 0.111653 -2.01391 0
M  V30 3194 C 292.748 1.42529 -1.33959 0
M  V30 3195 O 293.954 2.07232 -1.75405 0
M  V30 3196 C 292.41 0.249514 -3.59034 0
M  V30 3197 C 292.018 -1.05453 -4.35412 0
M  V30 3198 C 293.762 0.765762 -4.17536 0
M  V30 3199 C 291.669 -0.881529 -5.84793 0
M  V30 3200 H 290.599 0.0455022 -0.752626 0
M  V30 3201 H 293.25 -0.583524 -1.73975 0
M  V30 3202 H 291.632 1.00803 -3.82955 0
M  V30 3203 H 292.806 -1.82248 -4.23229 0
M  V30 3204 H 291.121 -1.50039 -3.88429 0
M  V30 3205 H 293.718 0.911913 -5.26866 0
M  V30 3206 H 294.061 1.75201 -3.77638 0
M  V30 3207 H 294.594 0.0651744 -3.97747 0
M  V30 3208 H 291.333 -1.84057 -6.29129 0
M  V30 3209 H 290.853 -0.153625 -5.99603 0
M  V30 3210 H 292.532 -0.540363 -6.4474 0
M  V30 3211 N 292.664 1.56529 -0.183458 0
M  V30 3212 C 293.892 2.01623 0.464285 0
M  V30 3213 C 294.307 1.06366 1.55986 0
M  V30 3214 O 293.664 0.0665398 1.82379 0
M  V30 3215 C 293.715 3.46475 1.03139 0
M  V30 3216 O 293.436 4.38095 -0.0204675 0
M  V30 3217 C 294.937 4.0703 1.75617 0
M  V30 3218 H 292.157 0.660596 0.117704 0
M  V30 3219 H 294.701 2.02451 -0.288751 0
M  V30 3220 H 292.856 3.46383 1.73486 0
M  V30 3221 H 293.27 5.22973 0.399952 0
M  V30 3222 H 294.744 5.10271 2.10542 0
M  V30 3223 H 295.221 3.49819 2.65563 0
M  V30 3224 H 295.827 4.1086 1.09882 0
M  V30 3225 N 294.142 -0.090211 1.57342 0
M  V30 3226 C 295.389 -0.792807 1.86335 0
M  V30 3227 C 295.717 -1.78494 0.772662 0
M  V30 3228 O 294.972 -1.94305 -0.233258 0
M  V30 3229 C 295.271 -1.55222 3.21933 0
M  V30 3230 C 294.937 -0.701765 4.45406 0
M  V30 3231 C 293.599 -0.467334 4.78925 0
M  V30 3232 C 295.951 -0.11086 5.21082 0
M  V30 3233 C 293.279 0.367785 5.85546 0
M  V30 3234 C 295.631 0.711609 6.28585 0
M  V30 3235 C 294.295 0.956086 6.60617 0
M  V30 3236 H 293.565 -0.290109 0.681849 0
M  V30 3237 H 296.212 -0.0541332 1.91423 0
M  V30 3238 H 294.517 -2.3626 3.12551 0
M  V30 3239 H 296.214 -2.10032 3.41595 0
M  V30 3240 H 292.804 -0.894598 4.1916 0
M  V30 3241 H 296.988 -0.279129 4.95514 0
M  V30 3242 H 292.244 0.566128 6.08773 0
M  V30 3243 H 296.418 1.17632 6.86393 0
M  V30 3244 H 294.045 1.60499 7.43064 0
M  V30 3245 N 295.62 -1.53406 -0.361157 0
M  V30 3246 C 296.583 -1.79479 -1.42548 0
M  V30 3247 C 297.583 -0.665327 -1.4639 0
M  V30 3248 O 298.773 -0.933549 -1.47073 0
M  V30 3249 C 295.905 -1.92087 -2.8163 0
M  V30 3250 H 297.098 -2.74538 -1.20701 0
M  V30 3251 H 294.651 -1.4455 -0.594546 0
M  V30 3252 H 295.386 -0.991099 -3.08784 0
M  V30 3253 H 295.171 -2.74241 -2.80239 0
M  V30 3254 H 296.661 -2.13836 -3.58697 0
M  V30 3255 N 297.098 0.621204 -1.44841 0
M  V30 3256 C 298.328 1.40548 -1.51426 0
M  V30 3257 C 298.736 1.88673 -0.141083 0
M  V30 3258 O 298.079 1.62053 0.865128 0
M  V30 3259 C 298.141 2.65325 -2.42576 0
M  V30 3260 C 297.805 2.3893 -3.89566 0
M  V30 3261 C 298.802 2.00138 -4.79834 0
M  V30 3262 C 296.487 2.52263 -4.3436 0
M  V30 3263 C 298.481 1.75021 -6.129 0
M  V30 3264 C 296.168 2.2676 -5.67471 0
M  V30 3265 C 297.166 1.88199 -6.56559 0
M  V30 3266 O 296.854 1.62986 -7.87204 0
M  V30 3267 H 296.586 0.437122 -0.515655 0
M  V30 3268 H 299.14 0.765987 -1.90583 0
M  V30 3269 H 297.37 3.31947 -1.98364 0
M  V30 3270 H 299.059 3.27347 -2.39998 0
M  V30 3271 H 299.825 1.89386 -4.46495 0
M  V30 3272 H 295.704 2.81246 -3.65269 0
M  V30 3273 H 299.248 1.44848 -6.82396 0
M  V30 3274 H 295.145 2.37125 -6.00368 0
M  V30 3275 H 295.913 1.7715 -7.991 0
M  V30 3276 N 298.576 1.31904 0.862503 0
M  V30 3277 C 299.822 1.22197 1.61851 0
M  V30 3278 C 300.155 -0.217641 1.92977 0
M  V30 3279 O 299.43 -1.15264 1.56666 0
M  V30 3280 C 299.713 2.07378 2.94391 0
M  V30 3281 C 299.566 3.59678 2.70096 0
M  V30 3282 C 300.885 1.92891 3.95577 0
M  V30 3283 H 298.004 0.445255 0.587296 0
M  V30 3284 H 300.646 1.6177 0.99651 0
M  V30 3285 H 298.796 1.73758 3.47477 0
M  V30 3286 H 300.468 4.03472 2.23625 0
M  V30 3287 H 298.711 3.82735 2.04197 0
M  V30 3288 H 299.382 4.14595 3.64438 0
M  V30 3289 H 301.858 2.22327 3.51724 0
M  V30 3290 H 300.734 2.54781 4.86187 0
M  V30 3291 H 300.995 0.894315 4.3296 0
M  V30 3292 N 300.054 -1.07777 1.14986 0
M  V30 3293 C 301.282 -1.84018 0.945773 0
M  V30 3294 C 301.697 -1.81897 -0.505863 0
M  V30 3295 O 301.054 -1.22726 -1.35072 0
M  V30 3296 C 301.105 -3.31287 1.44677 0
M  V30 3297 O 300.826 -3.33449 2.84154 0
M  V30 3298 C 302.327 -4.24311 1.28355 0
M  V30 3299 H 299.547 -0.580716 0.336169 0
M  V30 3300 H 302.091 -1.36077 1.52654 0
M  V30 3301 H 300.246 -3.76594 0.908625 0
M  V30 3302 H 300.66 -4.25427 3.06777 0
M  V30 3303 H 302.134 -5.2573 1.68261 0
M  V30 3304 H 302.611 -4.38612 0.227184 0
M  V30 3305 H 303.217 -3.84836 1.81056 0
M  V30 3306 N 301.532 -0.945985 -1.26051 0
M  V30 3307 C 302.442 -0.465633 -2.29933 0
M  V30 3308 C 303.458 0.462761 -1.67733 0
M  V30 3309 O 304.634 0.341118 -1.9849 0
M  V30 3310 C 301.699 0.256994 -3.45746 0
M  V30 3311 C 300.76 -0.708549 -4.23412 0
M  V30 3312 C 299.993 -0.0203135 -5.33696 0
M  V30 3313 O 300.216 1.19571 -5.57726 0
M  V30 3314 O 299.15 -0.701459 -5.97799 0
M  V30 3315 H 302.976 -1.32866 -2.73094 0
M  V30 3316 H 300.561 -0.712071 -1.31339 0
M  V30 3317 H 302.443 0.663852 -4.16138 0
M  V30 3318 H 301.118 1.09533 -3.04605 0
M  V30 3319 H 300.025 -1.16545 -3.55483 0
M  V30 3320 H 301.358 -1.51465 -4.68315 0
M  V30 3321 N 303.011 1.40521 -0.713556 0
M  V30 3322 C 304.258 2.00923 -0.25219 0
M  V30 3323 C 304.586 1.56571 1.15395 0
M  V30 3324 O 303.841 0.775874 1.79663 0
M  V30 3325 C 304.14 3.56317 -0.278 0
M  V30 3326 C 303.806 4.20246 -1.63415 0
M  V30 3327 C 302.468 4.37422 -2.00538 0
M  V30 3328 C 304.82 4.55923 -2.52554 0
M  V30 3329 C 302.148 4.87558 -3.2635 0
M  V30 3330 C 304.5 5.07458 -3.77716 0
M  V30 3331 C 303.164 5.22843 -4.14959 0
M  V30 3332 H 302.434 0.735231 -0.0922829 0
M  V30 3333 H 305.081 1.68161 -0.916188 0
M  V30 3334 H 303.386 3.88976 0.469567 0
M  V30 3335 H 305.083 4.00883 0.0967819 0
M  V30 3336 H 301.673 4.07263 -1.33546 0
M  V30 3337 H 305.857 4.42291 -2.25149 0
M  V30 3338 H 301.113 4.97654 -3.55176 0
M  V30 3339 H 305.287 5.34041 -4.4696 0
M  V30 3340 H 302.914 5.61454 -5.12516 0
M  V30 3341 N 304.489 0.459591 1.5075 0
M  V30 3342 C 305.735 -0.0994966 2.02556 0
M  V30 3343 C 306.068 -1.40399 1.3417 0
M  V30 3344 O 305.343 -1.88892 0.463683 0
M  V30 3345 C 305.626 -0.295242 3.58888 0
M  V30 3346 C 305.479 1.02947 4.37861 0
M  V30 3347 C 306.798 -1.05502 4.27267 0
M  V30 3348 H 303.917 -0.034686 0.736183 0
M  V30 3349 H 306.559 0.602938 1.8018 0
M  V30 3350 H 304.709 -0.893563 3.78084 0
M  V30 3351 H 306.381 1.66348 4.30263 0
M  V30 3352 H 304.624 1.62885 4.02058 0
M  V30 3353 H 305.295 0.846281 5.45474 0
M  V30 3354 H 307.771 -0.547993 4.12476 0
M  V30 3355 H 306.647 -1.16077 5.36486 0
M  V30 3356 H 306.908 -2.08875 3.89645 0
M  V30 3357 N 305.967 -1.56429 0.191757 0
M  V30 3358 C 307.244 -1.89224 -0.495332 0
M  V30 3359 C 307.624 -1.10478 -1.79883 0
M  V30 3360 O 306.972 -0.204852 -2.2758 0
M  V30 3361 C 307.182 -3.41548 -0.717367 0
M  V30 3362 C 308.53 -4.11711 -1.03823 0
M  V30 3363 O 309.554 -3.4698 -0.805204 0
M  V30 3364 O 308.413 -5.2611 -1.47887 0
M  V30 3365 H 305.507 -0.785788 -0.25781 0
M  V30 3366 H 308.053 -1.68111 0.231721 0
M  V30 3367 H 306.825 -3.90772 0.203287 0
M  V30 3368 H 306.448 -3.68342 -1.497 0
M  V30 3369 N 307.445 0.0818655 -1.57387 0
M  V30 3370 C 308.375 1.09885 -2.06028 0
M  V30 3371 C 309.356 1.4098 -0.951774 0
M  V30 3372 O 310.541 1.50781 -1.22387 0
M  V30 3373 C 307.671 2.4151 -2.4958 0
M  V30 3374 C 306.625 2.24792 -3.64215 0
M  V30 3375 C 305.951 3.61712 -3.93787 0
M  V30 3376 C 307.251 1.67749 -4.94629 0
M  V30 3377 H 308.945 0.694128 -2.91243 0
M  V30 3378 H 306.491 0.332448 -1.4011 0
M  V30 3379 H 308.444 3.12939 -2.82219 0
M  V30 3380 H 307.168 2.83943 -1.61381 0
M  V30 3381 H 305.827 1.55807 -3.31843 0
M  V30 3382 H 305.475 4.01697 -3.02735 0
M  V30 3383 H 305.175 3.51368 -4.70971 0
M  V30 3384 H 306.699 4.34587 -4.28913 0
M  V30 3385 H 308.113 2.29032 -5.25564 0
M  V30 3386 H 306.51 1.68128 -5.76067 0
M  V30 3387 H 307.58 0.638059 -4.80684 0
M  V30 3388 N 308.923 1.53595 0.353017 0
M  V30 3389 C 310.171 1.70049 1.09215 0
M  V30 3390 C 310.492 0.461406 1.89463 0
M  V30 3391 O 309.762 -0.524633 1.88744 0
M  V30 3392 H 308.342 0.626912 0.40619 0
M  V30 3393 H 311.004 1.90822 0.396585 0
M  V30 3394 H 310.1 2.56718 1.77488 0
M  V30 3395 N 310.401 -0.613514 1.45168 0
M  V30 3396 C 311.349 -1.74572 1.53712 0
M  V30 3397 C 312.343 -1.64426 0.407505 0
M  V30 3398 O 313.549 -1.70291 0.583176 0
M  V30 3399 H 309.924 -0.576641 0.48269 0
M  V30 3400 H 311.895 -1.64492 2.48968 0
M  V30 3401 C 310.644 -3.12943 1.51532 0
M  V30 3402 H 309.967 -3.21407 2.37776 0
M  V30 3403 H 311.407 -3.9201 1.61569 0
M  V30 3404 C 309.866 -3.36053 0.238798 0
M  V30 3405 O 310.396 -3.95837 -0.6838 0
M  V30 3406 N 308.602 -2.9028 0.136359 0
M  V30 3407 H 308.149 -2.41811 0.887999 0
M  V30 3408 H 308.107 -3.06116 -0.716944 0
M  V30 3409 N 311.879 -1.3236 -0.855495 0
M  V30 3410 C 313.125 -1.23054 -1.612 0
M  V30 3411 C 313.458 0.207404 -1.93089 0
M  V30 3412 O 312.733 1.14432 -1.57275 0
M  V30 3413 C 313.016 -2.08937 -2.93287 0
M  V30 3414 C 312.869 -3.61105 -2.68185 0
M  V30 3415 C 314.188 -1.94986 -3.94549 0
M  V30 3416 H 311.307 -0.448364 -0.584926 0
M  V30 3417 H 313.949 -1.62297 -0.987917 0
M  V30 3418 H 312.099 -1.75599 -3.46551 0
M  V30 3419 H 313.771 -4.04652 -2.21483 0
M  V30 3420 H 312.014 -3.83813 -2.02164 0
M  V30 3421 H 312.685 -4.16522 -3.62234 0
M  V30 3422 H 315.161 -2.24189 -3.5054 0
M  V30 3423 H 314.037 -2.57356 -4.84829 0
M  V30 3424 H 314.298 -0.917263 -4.3248 0
M  V30 3425 N 313.357 1.07166 -1.15556 0
M  V30 3426 C 314.582 1.84053 -0.955988 0
M  V30 3427 C 315.007 1.81586 0.490739 0
M  V30 3428 O 314.365 1.21018 1.34997 0
M  V30 3429 C 314.413 3.28957 -1.47714 0
M  V30 3430 O 313.517 4.06795 -0.677593 0
M  V30 3431 H 312.858 0.569842 -0.340847 0
M  V30 3432 H 315.388 1.35178 -1.53584 0
M  V30 3433 H 315.398 3.79788 -1.4908 0
M  V30 3434 H 314.073 3.30068 -2.53037 0
M  V30 3435 H 312.65 3.6561 -0.733721 0
M  V30 3436 N 314.835 0.952656 1.25548 0
M  V30 3437 C 315.798 0.475794 2.24207 0
M  V30 3438 C 316.798 -0.419428 1.55234 0
M  V30 3439 O 317.988 -0.216994 1.72843 0
M  V30 3440 C 315.12 -0.312814 3.39462 0
M  V30 3441 H 316.313 1.34779 2.67908 0
M  V30 3442 H 313.866 0.735739 1.37901 0
M  V30 3443 H 314.601 -1.20257 3.01179 0
M  V30 3444 H 314.386 0.329404 3.90714 0
M  V30 3445 H 315.876 -0.635986 4.12729 0
M  V30 3446 N 316.313 -1.40141 0.720998 0
M  V30 3447 C 317.243 -2.33339 0.0867621 0
M  V30 3448 C 318.224 -1.53178 -0.739622 0
M  V30 3449 O 319.409 -1.81625 -0.687449 0
M  V30 3450 C 316.539 -3.37194 -0.831728 0
M  V30 3451 C 315.493 -4.27857 -0.110558 0
M  V30 3452 C 314.819 -5.22294 -1.14513 0
M  V30 3453 C 316.119 -5.11872 1.0385 0
M  V30 3454 H 317.813 -2.86626 0.865219 0
M  V30 3455 H 315.359 -1.37814 0.417516 0
M  V30 3456 H 317.312 -4.01335 -1.28485 0
M  V30 3457 H 316.036 -2.82314 -1.64214 0
M  V30 3458 H 314.695 -3.65176 0.322797 0
M  V30 3459 H 314.343 -4.63717 -1.94874 0
M  V30 3460 H 314.043 -5.83797 -0.667446 0
M  V30 3461 H 315.567 -5.89312 -1.59824 0
M  V30 3462 H 316.981 -5.69436 0.664482 0
M  V30 3463 H 315.378 -5.82445 1.4449 0
M  V30 3464 H 316.448 -4.4753 1.86668 0
M  V30 3465 N 317.792 -0.46758 -1.50504 0
M  V30 3466 C 319.208 -0.121533 -1.59137 0
M  V30 3467 C 319.408 1.3717 -1.47603 0
M  V30 3468 O 318.464 2.14464 -1.33272 0
M  V30 3469 C 319.777 -0.6686 -2.93173 0
M  V30 3470 C 321.325 -0.631716 -3.06559 0
M  V30 3471 C 321.8 -1.15627 -4.43164 0
M  V30 3472 N 323.291 -1.11553 -4.49567 0
M  V30 3473 C 324.026 -1.49195 -5.5365 0
M  V30 3474 N 323.522 -1.94269 -6.65005 0
M  V30 3475 N 325.315 -1.4082 -5.44175 0
M  V30 3476 H 317.466 -1.4388 -1.56245 0
M  V30 3477 H 319.729 -0.594784 -0.738198 0
M  V30 3478 H 319.435 -1.71453 -3.07078 0
M  V30 3479 H 319.309 -0.11021 -3.77039 0
M  V30 3480 H 321.696 0.405297 -2.92304 0
M  V30 3481 H 321.777 -1.22687 -2.24458 0
M  V30 3482 H 321.421 -2.1919 -4.58168 0
M  V30 3483 H 321.351 -0.537365 -5.23851 0
M  V30 3484 H 323.842 -0.784895 -3.69659 0
M  V30 3485 H 324.155 -2.21148 -7.40482 0
M  V30 3486 H 322.5 -1.98219 -6.66134 0
M  V30 3487 H 325.691 -1.0545 -4.56068 0
M  V30 3488 H 325.864 -1.70481 -6.25172 0
M  V30 3489 N 319.27 1.56325 -0.20005 0
M  V30 3490 C 320.498 2.02105 0.442874 0
M  V30 3491 C 320.913 1.08014 1.5485 0
M  V30 3492 O 320.27 0.0858797 1.82298 0
M  V30 3493 C 320.321 3.47549 0.994583 0
M  V30 3494 O 320.042 4.38049 -0.0669322 0
M  V30 3495 C 321.543 4.0887 1.7129 0
M  V30 3496 H 318.763 0.661807 0.110691 0
M  V30 3497 H 321.307 2.02134 -0.310207 0
M  V30 3498 H 319.462 3.48204 1.69803 0
M  V30 3499 H 319.876 5.23368 0.344462 0
M  V30 3500 H 321.35 5.12475 2.05118 0
M  V30 3501 H 321.827 3.52615 2.61838 0
M  V30 3502 H 322.433 4.12002 1.05518 0
M  V30 3503 N 320.748 -0.0735177 1.57428 0
M  V30 3504 C 321.995 -0.772999 1.87166 0
M  V30 3505 C 322.323 -1.77665 0.791551 0
M  V30 3506 O 321.578 -1.94541 -0.212636 0
M  V30 3507 C 321.877 -1.51799 3.23561 0
M  V30 3508 C 321.543 -0.654484 4.46125 0
M  V30 3509 C 320.205 -0.416511 4.79394 0
M  V30 3510 C 322.557 -0.0555862 5.2117 0
M  V30 3511 C 319.885 0.429869 5.85123 0
M  V30 3512 C 322.237 0.778239 6.27795 0
M  V30 3513 C 320.901 1.0261 6.59566 0
M  V30 3514 H 320.171 -0.282861 0.684888 0
M  V30 3515 H 322.818 -0.0338272 1.9147 0
M  V30 3516 H 321.123 -2.32932 3.1504 0
M  V30 3517 H 322.82 -2.06397 3.43804 0
M  V30 3518 H 319.41 -0.850091 4.20085 0
M  V30 3519 H 323.594 -0.226558 4.95783 0
M  V30 3520 H 318.85 0.630665 6.08139 0
M  V30 3521 H 323.024 1.24906 6.85107 0
M  V30 3522 H 320.651 1.68371 7.4132 0
M  V30 3523 N 322.226 -1.5378 -0.344866 0
M  V30 3524 C 323.642 -1.44015 -0.687888 0
M  V30 3525 C 323.842 -0.595834 -1.92489 0
M  V30 3526 O 322.898 -0.0863064 -2.52352 0
M  V30 3527 C 324.211 -2.87481 -0.881758 0
M  V30 3528 C 325.759 -2.97247 -0.980459 0
M  V30 3529 C 326.234 -4.41819 -1.20665 0
M  V30 3530 N 327.725 -4.45339 -1.27389 0
M  V30 3531 C 328.46 -5.54333 -1.46639 0
M  V30 3532 N 327.956 -6.73335 -1.63071 0
M  V30 3533 N 329.749 -5.41944 -1.49176 0
M  V30 3534 H 321.9 -2.07169 0.468475 0
M  V30 3535 H 324.163 -0.93643 0.147655 0
M  V30 3536 H 323.869 -3.51672 -0.0443444 0
M  V30 3537 H 323.743 -3.32352 -1.78388 0
M  V30 3538 H 326.13 -2.33197 -1.8084 0
M  V30 3539 H 326.211 -2.5574 -0.0552713 0
M  V30 3540 H 325.855 -5.06449 -0.383652 0
M  V30 3541 H 325.785 -4.80917 -2.14539 0
M  V30 3542 H 328.276 -3.59585 -1.1622 0
M  V30 3543 H 328.589 -7.52165 -1.77391 0
M  V30 3544 H 326.934 -6.76282 -1.60209 0
M  V30 3545 H 330.125 -4.47932 -1.3592 0
M  V30 3546 H 330.298 -6.26946 -1.63837 0
M  V30 3547 N 323.704 0.605807 -1.45491 0
M  V30 3548 C 324.95 1.36679 -1.49823 0
M  V30 3549 C 325.283 1.93693 -0.140175 0
M  V30 3550 O 324.558 1.75158 0.845581 0
M  V30 3551 C 324.841 2.51337 -2.57879 0
M  V30 3552 C 324.694 1.99508 -4.03134 0
M  V30 3553 C 326.013 3.53463 -2.62205 0
M  V30 3554 H 323.132 0.495617 -0.545466 0
M  V30 3555 H 325.774 0.682732 -1.7731 0
M  V30 3556 H 323.924 3.09691 -2.34571 0
M  V30 3557 H 325.596 1.45789 -4.37656 0
M  V30 3558 H 323.839 1.30496 -4.13707 0
M  V30 3559 H 324.51 2.82169 -4.74431 0
M  V30 3560 H 326.986 3.04953 -2.83095 0
M  V30 3561 H 325.862 4.31178 -3.39672 0
M  V30 3562 H 326.123 4.09197 -1.67363 0
M  V30 3563 N 325.182 1.32811 0.848464 0
M  V30 3564 C 326.112 1.24882 1.97299 0
M  V30 3565 C 327.093 0.131357 1.69592 0
M  V30 3566 O 328.278 0.319553 1.91553 0
M  V30 3567 C 325.408 0.97746 3.33261 0
M  V30 3568 C 324.362 2.05682 3.75338 0
M  V30 3569 C 323.688 1.63777 5.09 0
M  V30 3570 C 324.988 3.47254 3.90144 0
M  V30 3571 H 326.682 2.18966 2.04191 0
M  V30 3572 H 324.228 1.05413 0.981029 0
M  V30 3573 H 326.181 0.908513 4.1149 0
M  V30 3574 H 324.905 0.000980011 3.266 0
M  V30 3575 H 323.564 2.11603 2.99366 0
M  V30 3576 H 323.212 0.648569 4.98801 0
M  V30 3577 H 322.912 2.36 5.38124 0
M  V30 3578 H 324.436 1.5833 5.89715 0
M  V30 3579 H 325.85 3.43888 4.58709 0
M  V30 3580 H 324.247 4.1788 4.30693 0
M  V30 3581 H 325.317 3.86462 2.92874 0
M  V30 3582 N 326.66 -1.06551 1.16123 0
M  V30 3583 C 328.076 -1.3142 0.905585 0
M  V30 3584 C 328.276 -1.96571 -0.442964 0
M  V30 3585 O 327.332 -2.23068 -1.18308 0
M  V30 3586 C 328.645 -2.19741 2.05267 0
M  V30 3587 C 330.193 -2.33165 2.08813 0
M  V30 3588 C 330.668 -3.24838 3.22868 0
M  V30 3589 N 332.159 -3.32421 3.22568 0
M  V30 3590 C 332.894 -4.0344 4.0746 0
M  V30 3591 N 332.39 -4.77003 5.02434 0
M  V30 3592 N 334.183 -3.99464 3.95456 0
M  V30 3593 H 326.334 -0.626548 2.02949 0
M  V30 3594 H 328.597 -0.338777 0.8854 0
M  V30 3595 H 328.303 -1.79142 3.02657 0
M  V30 3596 H 328.177 -3.20313 1.99198 0
M  V30 3597 H 330.564 -2.73013 1.12018 0
M  V30 3598 H 330.645 -1.3227 2.18948 0
M  V30 3599 H 330.289 -2.85708 4.19921 0
M  V30 3600 H 330.219 -4.25707 3.0997 0
M  V30 3601 H 332.71 -2.79994 2.53795 0
M  V30 3602 H 333.023 -5.28712 5.63634 0
M  V30 3603 H 331.368 -4.75992 5.06415 0
M  V30 3604 H 334.559 -3.4111 3.20564 0
M  V30 3605 H 334.732 -4.54544 4.61837 0
M  V30 3606 N 328.138 -0.959301 -1.25041 0
M  V30 3607 C 329.101 -0.487677 -2.23952 0
M  V30 3608 C 330.101 0.41119 -1.55454 0
M  V30 3609 O 331.291 0.207825 -1.72956 0
M  V30 3610 C 328.423 0.294807 -3.39623 0
M  V30 3611 H 329.616 -1.36198 -2.67189 0
M  V30 3612 H 327.169 -0.743042 -1.37508 0
M  V30 3613 H 327.904 1.18658 -3.01813 0
M  V30 3614 H 327.689 -0.35012 -3.90534 0
M  V30 3615 H 329.179 0.614089 -4.1306 0
M  V30 3616 N 329.616 1.39756 -0.72842 0
M  V30 3617 C 330.546 2.33289 -0.0991354 0
M  V30 3618 C 331.527 1.53568 0.731489 0
M  V30 3619 O 332.712 1.81987 0.677807 0
M  V30 3620 C 329.842 3.3763 0.813834 0
M  V30 3621 C 328.796 4.2791 0.0878663 0
M  V30 3622 C 328.122 5.22894 1.11741 0
M  V30 3623 C 329.422 5.11314 -1.06563 0
M  V30 3624 H 331.116 2.86163 -0.880408 0
M  V30 3625 H 328.662 1.37591 -0.424819 0
M  V30 3626 H 330.615 4.0201 1.26355 0
M  V30 3627 H 329.339 2.83181 1.62715 0
M  V30 3628 H 327.998 3.65 -0.342159 0
M  V30 3629 H 327.646 4.64744 1.92412 0
M  V30 3630 H 327.346 5.84143 0.636477 0
M  V30 3631 H 328.87 5.90151 1.56697 0
M  V30 3632 H 330.284 5.69076 -0.694671 0
M  V30 3633 H 328.681 5.81671 -1.47577 0
M  V30 3634 H 329.751 4.46534 -1.89038 0
M  V30 3635 N 331.094 0.475555 1.50254 0
M  V30 3636 C 332.041 -0.316293 2.28622 0
M  V30 3637 C 333.011 -0.983227 1.33873 0
M  V30 3638 O 334.196 -0.994805 1.62814 0
M  V30 3639 C 331.336 -1.38975 3.1588 0
M  V30 3640 C 330.449 -0.737146 4.25664 0
M  V30 3641 C 329.584 -1.78887 5.00173 0
M  V30 3642 C 328.623 -1.11676 6.01826 0
M  V30 3643 N 327.76 -2.11154 6.69596 0
M  V30 3644 H 332.6 0.358297 2.95838 0
M  V30 3645 H 330.137 0.188541 1.45887 0
M  V30 3646 H 332.095 -2.02383 3.64825 0
M  V30 3647 H 330.725 -2.03344 2.50701 0
M  V30 3648 H 329.777 0.0096065 3.80399 0
M  V30 3649 H 331.089 -0.206816 4.98371 0
M  V30 3650 H 330.243 -2.49865 5.52859 0
M  V30 3651 H 328.982 -2.35302 4.27182 0
M  V30 3652 H 327.987 -0.392633 5.48396 0
M  V30 3653 H 329.212 -0.55945 6.76792 0
M  V30 3654 H 327.158 -2.66577 5.99394 0
M  V30 3655 H 327.075 -1.63118 7.38193 0
M  V30 3656 H 328.343 -2.81497 7.26897 0
M  V30 3657 N 332.573 -1.56217 0.208337 0
M  V30 3658 C 333.801 -2.02337 -0.43215 0
M  V30 3659 C 334.216 -1.08834 -1.54275 0
M  V30 3660 O 333.573 -0.0955462 -1.8225 0
M  V30 3661 C 333.624 -3.48072 -0.976138 0
M  V30 3662 O 333.345 -4.38007 0.0901621 0
M  V30 3663 C 334.846 -4.09773 -1.69119 0
M  V30 3664 H 332.066 -0.662385 -0.10718 0
M  V30 3665 H 334.61 -2.01966 0.320923 0
M  V30 3666 H 332.765 -3.49099 -1.67954 0
M  V30 3667 H 333.179 -5.23543 -0.316701 0
M  V30 3668 H 334.653 -5.13556 -2.02397 0
M  V30 3669 H 335.13 -3.53999 -2.59964 0
M  V30 3670 H 335.736 -4.12556 -1.03332 0
M  V30 3671 N 334.051 0.0651679 -1.57465 0
M  V30 3672 C 335.3 0.761916 -1.86756 0
M  V30 3673 C 335.613 1.78406 -0.801925 0
M  V30 3674 O 336.819 2.53084 -0.982885 0
M  V30 3675 C 335.275 1.40603 -3.31299 0
M  V30 3676 C 334.883 0.422115 -4.46007 0
M  V30 3677 C 336.627 2.08476 -3.69781 0
M  V30 3678 C 334.534 1.07252 -5.81593 0
M  V30 3679 H 333.464 0.288308 -0.696702 0
M  V30 3680 H 336.115 0.015344 -1.83494 0
M  V30 3681 H 334.497 2.20109 -3.29193 0
M  V30 3682 H 335.671 -0.343613 -4.59517 0
M  V30 3683 H 333.986 -0.152527 -4.16121 0
M  V30 3684 H 336.583 2.57925 -4.68379 0
M  V30 3685 H 336.926 2.88712 -2.99919 0
M  V30 3686 H 337.459 1.35792 -3.73905 0
M  V30 3687 H 334.198 0.310342 -6.54765 0
M  V30 3688 H 333.718 1.80895 -5.71872 0
M  V30 3689 H 335.397 1.59043 -6.27148 0
M  V30 3690 N 335.529 1.53961 0.336706 0
M  V30 3691 C 336.754 1.75797 1.10046 0
M  V30 3692 C 337.179 0.498985 1.81361 0
M  V30 3693 O 336.537 -0.548769 1.72795 0
M  V30 3694 C 336.585 2.94257 2.08436 0
M  V30 3695 O 335.689 2.64883 3.16087 0
M  V30 3696 H 335.03 0.582936 0.317934 0
M  V30 3697 H 337.56 2.00945 0.38501 0
M  V30 3698 H 337.57 3.21237 2.51537 0
M  V30 3699 H 336.245 3.85564 1.55927 0
M  V30 3700 H 334.822 2.48812 2.77753 0
M  V30 3701 N 337.007 -0.598083 1.45811 0
M  V30 3702 C 338.253 -1.35882 1.50545 0
M  V30 3703 C 338.586 -1.93616 0.150445 0
M  V30 3704 O 337.861 -1.75604 -0.83628 0
M  V30 3705 C 338.144 -2.49966 2.59208 0
M  V30 3706 C 337.997 -1.97367 4.04186 0
M  V30 3707 C 339.316 -3.52068 2.64076 0
M  V30 3708 H 336.435 -0.492717 0.548087 0
M  V30 3709 H 339.077 -0.673319 1.77669 0
M  V30 3710 H 337.227 -3.08443 2.3621 0
M  V30 3711 H 338.899 -1.43466 4.38423 0
M  V30 3712 H 337.142 -1.283 4.14393 0
M  V30 3713 H 337.813 -2.79649 4.75921 0
M  V30 3714 H 340.289 -3.03448 2.84708 0
M  V30 3715 H 339.165 -4.2937 3.41954 0
M  V30 3716 H 339.426 -4.08304 1.69531 0
M  V30 3717 N 338.485 -1.33259 -0.841409 0
M  V30 3718 C 339.734 -1.23921 -1.59143 0
M  V30 3719 C 340.047 0.1941 -1.94635 0
M  V30 3720 O 341.253 0.409474 -2.68394 0
M  V30 3721 C 339.709 -2.17119 -2.87032 0
M  V30 3722 C 339.317 -3.65606 -2.58914 0
M  V30 3723 C 341.061 -2.16648 -3.65053 0
M  V30 3724 C 338.968 -4.50726 -3.82884 0
M  V30 3725 H 337.898 -0.460264 -0.597221 0
M  V30 3726 H 340.549 -1.58307 -0.927959 0
M  V30 3727 H 338.931 -1.75663 -3.54906 0
M  V30 3728 H 340.105 -4.15487 -1.99267 0
M  V30 3729 H 338.42 -3.68341 -1.942 0
M  V30 3730 H 341.017 -2.77474 -4.57069 0
M  V30 3731 H 341.36 -1.16088 -3.99787 0
M  V30 3732 H 341.893 -2.56453 -3.041 0
M  V30 3733 H 338.632 -5.52151 -3.53283 0
M  V30 3734 H 338.152 -4.0559 -4.41879 0
M  V30 3735 H 339.831 -4.64401 -4.50489 0
M  V30 3736 N 339.963 1.05934 -1.16686 0
M  V30 3737 C 341.374 1.60263 -0.957745 0
M  V30 3738 C 341.725 1.89789 0.49745 0
M  V30 3739 O 340.85 1.67401 1.37135 0
M  V30 3740 C 341.445 2.91172 -1.73218 0
M  V30 3741 C 340.004 3.42188 -1.56794 0
M  V30 3742 C 339.151 2.16028 -1.73859 0
M  V30 3743 H 342.102 0.888392 -1.31504 0
M  V30 3744 H 342.123 3.60744 -1.21014 0
M  V30 3745 H 341.635 2.6965 -2.79124 0
M  V30 3746 H 339.736 3.68762 -0.533437 0
M  V30 3747 H 339.849 4.17273 -2.35414 0
M  V30 3748 H 338.213 2.26426 -1.16633 0
M  V30 3749 H 338.996 1.96985 -2.81161 0
M  V30 3750 N 341.441 0.965919 1.2453 0
M  V30 3751 C 342.689 0.625593 1.92174 0
M  V30 3752 C 343.01 -0.841652 1.75901 0
M  V30 3753 O 342.28 -1.60061 1.12948 0
M  V30 3754 H 340.86 0.228388 0.71123 0
M  V30 3755 H 343.522 1.2266 1.51461 0
M  V30 3756 H 342.618 0.864653 2.99884 0
M  V30 3757 N 342.919 -1.39368 0.735821 0
M  V30 3758 C 343.849 -2.33234 0.111506 0
M  V30 3759 C 344.83 -1.53954 -0.723334 0
M  V30 3760 O 346.015 -1.82344 -0.668147 0
M  V30 3761 C 343.145 -3.38057 -0.795917 0
M  V30 3762 C 342.099 -4.2795 -0.065172 0
M  V30 3763 C 341.425 -5.23479 -1.08967 0
M  V30 3764 C 342.725 -5.10741 1.09273 0
M  V30 3765 H 344.419 -2.85692 0.895571 0
M  V30 3766 H 341.965 -1.37364 0.432109 0
M  V30 3767 H 343.918 -4.02675 -1.24221 0
M  V30 3768 H 342.642 -2.8404 -1.61211 0
M  V30 3769 H 341.301 -3.64813 0.361511 0
M  V30 3770 H 340.949 -4.65758 -1.89944 0
M  V30 3771 H 340.649 -5.84472 -0.605489 0
M  V30 3772 H 342.173 -5.90974 -1.53565 0
M  V30 3773 H 343.587 -5.68699 0.724841 0
M  V30 3774 H 341.984 -5.8088 1.50659 0
M  V30 3775 H 343.054 -4.45525 1.91404 0
M  V30 3776 N 344.397 -0.483516 -1.5 0
M  V30 3777 C 345.344 0.304164 -2.28787 0
M  V30 3778 C 346.314 0.976114 -1.34392 0
M  V30 3779 O 347.499 0.986156 -1.63339 0
M  V30 3780 C 344.639 1.37298 -3.16612 0
M  V30 3781 C 343.752 0.714561 -4.26049 0
M  V30 3782 C 342.887 1.76232 -5.01114 0
M  V30 3783 C 341.926 1.08483 -6.0241 0
M  V30 3784 N 341.063 2.076 -6.70706 0
M  V30 3785 H 345.903 -0.373981 -2.95644 0
M  V30 3786 H 343.44 -0.196275 -1.45785 0
M  V30 3787 H 345.398 2.00445 -3.65893 0
M  V30 3788 H 344.028 2.02012 -2.51776 0
M  V30 3789 H 343.08 -0.0297798 -3.80388 0
M  V30 3790 H 344.392 0.180383 -4.98474 0
M  V30 3791 H 343.546 2.46929 -5.54176 0
M  V30 3792 H 342.285 2.33033 -4.28424 0
M  V30 3793 H 341.29 0.363545 -5.48597 0
M  V30 3794 H 342.515 0.523551 -6.77079 0
M  V30 3795 H 340.461 2.63394 -6.00799 0
M  V30 3796 H 340.378 1.59201 -7.39047 0
M  V30 3797 H 341.646 2.77639 -7.2838 0
M  V30 3798 N 345.875 1.56104 -0.216619 0
M  V30 3799 C 347.103 2.02563 0.421413 0
M  V30 3800 C 347.518 1.0965 1.53695 0
M  V30 3801 O 346.875 0.10521 1.82196 0
M  V30 3802 C 346.926 3.48584 0.957665 0
M  V30 3803 O 346.647 4.37953 -0.113389 0
M  V30 3804 C 348.148 4.10664 1.66943 0
M  V30 3805 H 345.368 0.662944 0.103665 0
M  V30 3806 H 347.912 2.01793 -0.331629 0
M  V30 3807 H 346.067 3.49985 1.661 0
M  V30 3808 H 346.481 5.23704 0.288932 0
M  V30 3809 H 347.955 5.14622 1.99671 0
M  V30 3810 H 348.432 3.55373 2.58083 0
M  V30 3811 H 349.038 4.13098 1.01142 0
M  V30 3812 N 347.353 -0.0568162 1.57498 0
M  V30 3813 C 348.602 -0.752001 1.87157 0
M  V30 3814 C 348.915 -1.77978 0.811375 0
M  V30 3815 O 350.121 -2.52559 0.996293 0
M  V30 3816 C 348.577 -1.38844 3.3204 0
M  V30 3817 C 348.185 -0.398456 4.46225 0
M  V30 3818 C 349.929 -2.06512 3.70882 0
M  V30 3819 C 347.836 -1.04166 5.82154 0
M  V30 3820 H 346.766 -0.28461 0.698222 0
M  V30 3821 H 349.417 -0.00561272 1.83499 0
M  V30 3822 H 347.799 -2.1836 3.30356 0
M  V30 3823 H 348.973 0.367977 4.59328 0
M  V30 3824 H 347.288 0.174592 4.16034 0
M  V30 3825 H 349.885 -2.55437 4.6974 0
M  V30 3826 H 350.228 -2.87117 3.01445 0
M  V30 3827 H 350.761 -1.33808 3.7462 0
M  V30 3828 H 347.5 -0.275614 6.5492 0
M  V30 3829 H 347.02 -1.7786 5.72823 0
M  V30 3830 H 348.699 -1.55715 6.27982 0
M  V30 3831 N 348.832 -1.54138 -0.328536 0
M  V30 3832 C 350.078 -1.7236 -1.06865 0
M  V30 3833 C 350.411 -0.493231 -1.87832 0
M  V30 3834 O 349.686 0.5098 -1.877 0
M  V30 3835 C 349.969 -2.99621 -1.99747 0
M  V30 3836 C 349.822 -4.32899 -1.22143 0
M  V30 3837 C 351.141 -3.22615 -2.99345 0
M  V30 3838 H 348.26 -0.627151 -0.387105 0
M  V30 3839 H 350.902 -1.86827 -0.345767 0
M  V30 3840 H 349.052 -2.87418 -2.61387 0
M  V30 3841 H 350.724 -4.56978 -0.630017 0
M  V30 3842 H 348.967 -4.30628 -0.523628 0
M  V30 3843 H 349.638 -5.18154 -1.90318 0
M  V30 3844 H 352.114 -3.34248 -2.47826 0
M  V30 3845 H 350.99 -4.13027 -3.61524 0
M  V30 3846 H 351.251 -2.3961 -3.71536 0
M  V30 3847 N 350.31 0.590341 -1.46126 0
M  V30 3848 C 351.558 1.34616 -1.50742 0
M  V30 3849 C 351.879 1.94363 -0.157486 0
M  V30 3850 O 351.149 1.78136 0.815136 0
M  V30 3851 H 349.729 0.499789 -0.555175 0
M  V30 3852 H 352.391 0.691953 -1.82203 0
M  V30 3853 H 351.487 2.15678 -2.25587 0
M  V30 3854 N 351.788 1.33704 0.83433 0
M  V30 3855 C 352.751 1.24244 1.92603 0
M  V30 3856 C 353.751 0.160383 1.59998 0
M  V30 3857 O 354.941 0.412228 1.69252 0
M  V30 3858 C 352.073 0.91555 3.28376 0
M  V30 3859 H 353.266 2.21287 2.02416 0
M  V30 3860 H 350.819 1.17827 1.02696 0
M  V30 3861 H 351.554 -0.0521886 3.24258 0
M  V30 3862 H 351.339 1.69811 3.53422 0
M  V30 3863 H 352.829 0.874231 4.08347 0
M  V30 3864 N 353.266 -1.05314 1.17247 0
M  V30 3865 C 354.196 -2.1498 0.911362 0
M  V30 3866 C 355.177 -1.69471 -0.146169 0
M  V30 3867 O 356.362 -1.942 0.003812 0
M  V30 3868 C 353.492 -3.4472 0.422528 0
M  V30 3869 C 352.446 -4.03789 1.4191 0
M  V30 3870 C 351.772 -5.28858 0.788274 0
M  V30 3871 C 353.072 -4.41418 2.7919 0
M  V30 3872 H 354.766 -2.3708 1.82848 0
M  V30 3873 H 352.312 -1.13938 0.880569 0
M  V30 3874 H 354.265 -4.20787 0.227289 0
M  V30 3875 H 352.989 -3.22269 -0.530123 0
M  V30 3876 H 351.648 -3.2979 1.60106 0
M  V30 3877 H 351.296 -5.02709 -0.171173 0
M  V30 3878 H 350.996 -5.69338 1.45353 0
M  V30 3879 H 352.52 -6.07612 0.603282 0
M  V30 3880 H 353.934 -5.08524 2.64719 0
M  V30 3881 H 352.331 -4.92913 3.42282 0
M  V30 3882 H 353.401 -3.51819 3.33693 0
M  V30 3883 N 354.744 -0.972509 -1.24016 0
M  V30 3884 C 355.993 -0.632603 -1.91523 0
M  V30 3885 C 356.306 0.836641 -1.76804 0
M  V30 3886 O 357.512 1.28728 -2.39043 0
M  V30 3887 C 355.968 -1.08082 -3.43287 0
M  V30 3888 C 355.576 -2.57386 -3.66683 0
M  V30 3889 C 357.32 -0.814288 -4.16617 0
M  V30 3890 C 355.227 -2.95915 -5.12043 0
M  V30 3891 H 354.157 -0.232898 -0.717129 0
M  V30 3892 H 356.808 -1.17936 -1.40582 0
M  V30 3893 H 355.19 -0.462339 -3.93292 0
M  V30 3894 H 356.364 -3.24405 -3.27258 0
M  V30 3895 H 354.679 -2.81701 -3.06649 0
M  V30 3896 H 357.276 -1.0781 -5.23718 0
M  V30 3897 H 357.619 0.24955 -4.15551 0
M  V30 3898 H 358.152 -1.39397 -3.72577 0
M  V30 3899 H 354.891 -4.0139 -5.18234 0
M  V30 3900 H 354.411 -2.33584 -5.52448 0
M  V30 3901 H 356.09 -2.86086 -5.80314 0
M  V30 3902 N 356.222 1.38976 -0.743202 0
M  V30 3903 C 357.154 2.29096 -0.0689228 0
M  V30 3904 C 358.167 1.47229 0.694791 0
M  V30 3905 O 359.356 1.70212 0.537597 0
M  V30 3906 C 356.456 3.25988 0.926548 0
M  V30 3907 C 355.629 4.36833 0.222647 0
M  V30 3908 C 354.688 5.13981 1.12739 0
M  V30 3909 O 353.714 5.6601 0.601795 0
M  V30 3910 N 354.916 5.25966 2.45641 0
M  V30 3911 H 357.681 2.87604 -0.842846 0
M  V30 3912 H 355.242 1.50645 -0.593109 0
M  V30 3913 H 357.234 3.74476 1.5346 0
M  V30 3914 H 355.804 2.68453 1.60162 0
M  V30 3915 H 355.024 3.90116 -0.565983 0
M  V30 3916 H 356.312 5.0811 -0.264841 0
M  V30 3917 H 355.71 4.85228 2.9081 0
M  V30 3918 H 354.267 5.77865 3.01522 0
M  V30 3919 N 357.7 0.491464 1.49741 0
M  V30 3920 C 358.925 -0.0557177 2.07325 0
M  V30 3921 C 359.35 -1.30925 1.35056 0
M  V30 3922 O 358.708 -1.76733 0.404365 0
M  V30 3923 C 358.756 -0.302074 3.59333 0
M  V30 3924 O 357.86 -1.37868 3.88672 0
M  V30 3925 H 357.201 0.0219956 0.663636 0
M  V30 3926 H 359.731 0.688352 1.92673 0
M  V30 3927 H 359.741 -0.536464 4.04458 0
M  V30 3928 H 358.416 0.61383 4.11345 0
M  V30 3929 H 356.993 -1.12999 3.55367 0
M  V30 3930 N 359.178 -1.55987 0.224894 0
M  V30 3931 C 360.424 -1.98684 -0.406502 0
M  V30 3932 C 360.757 -1.11248 -1.59177 0
M  V30 3933 O 360.032 -0.170909 -1.93748 0
M  V30 3934 C 360.315 -3.50218 -0.837808 0
M  V30 3935 C 360.168 -4.48426 0.351332 0
M  V30 3936 C 361.487 -4.06243 -1.69278 0
M  V30 3937 H 358.606 -0.722337 -0.146283 0
M  V30 3938 H 361.248 -1.87255 0.321799 0
M  V30 3939 H 359.398 -3.60089 -1.45837 0
M  V30 3940 H 361.07 -4.50562 0.989526 0
M  V30 3941 H 359.313 -4.22159 0.998207 0
M  V30 3942 H 359.984 -5.52 0.00655905 0
M  V30 3943 H 362.46 -3.99337 -1.16914 0
M  V30 3944 H 361.336 -5.12581 -1.96346 0
M  V30 3945 H 361.597 -3.53332 -2.65723 0
M  V30 3946 N 360.656 0.0484629 -1.57525 0
M  V30 3947 C 361.603 1.05504 -2.05275 0
M  V30 3948 C 362.573 1.37084 -0.937927 0
M  V30 3949 O 363.758 1.47754 -1.2072 0
M  V30 3950 C 360.898 2.35676 -2.52093 0
M  V30 3951 C 360.011 2.10423 -3.77288 0
M  V30 3952 C 359.146 3.34327 -4.12794 0
M  V30 3953 C 358.185 3.04542 -5.30962 0
M  V30 3954 N 357.322 4.20841 -5.61994 0
M  V30 3955 H 362.162 0.640885 -2.91027 0
M  V30 3956 H 359.699 0.304854 -1.43906 0
M  V30 3957 H 361.657 3.11709 -2.77297 0
M  V30 3958 H 360.287 2.7485 -1.69285 0
M  V30 3959 H 359.339 1.24976 -3.59284 0
M  V30 3960 H 360.651 1.84438 -4.63448 0
M  V30 3961 H 359.805 4.1874 -4.39024 0
M  V30 3962 H 358.544 3.63408 -3.25247 0
M  V30 3963 H 357.549 2.18528 -5.04505 0
M  V30 3964 H 358.774 2.76758 -6.20146 0
M  V30 3965 H 356.72 4.4991 -4.77406 0
M  V30 3966 H 356.637 3.98212 -6.42622 0
M  V30 3967 H 357.905 5.06184 -5.92789 0
M  V30 3968 N 362.134 1.5431 0.320358 0
M  V30 3969 C 363.081 1.83918 1.39438 0
M  V30 3970 C 364.051 0.686525 1.51248 0
M  V30 3971 O 365.236 0.933269 1.66417 0
M  V30 3972 C 362.376 2.075 2.75749 0
M  V30 3973 C 361.489 3.35177 2.72544 0
M  V30 3974 C 360.624 3.48704 4.00723 0
M  V30 3975 C 359.663 4.70244 3.91838 0
M  V30 3976 N 358.8 4.80679 5.11754 0
M  V30 3977 H 363.64 2.75544 1.13489 0
M  V30 3978 H 361.177 1.36459 0.549309 0
M  V30 3979 H 363.135 2.19166 3.54996 0
M  V30 3980 H 361.765 1.19163 3 0
M  V30 3981 H 360.817 3.32233 1.85271 0
M  V30 3982 H 362.129 4.24534 2.61863 0
M  V30 3983 H 361.283 3.59928 4.88402 0
M  V30 3984 H 360.022 2.57445 4.14214 0
M  V30 3985 H 359.027 4.59072 3.02544 0
M  V30 3986 H 360.252 5.6289 3.7991 0
M  V30 3987 H 358.198 3.92337 5.25745 0
M  V30 3988 H 358.115 5.64007 5.0342 0
M  V30 3989 H 359.383 4.96239 6.01138 0
M  V30 3990 N 363.613 -0.582584 1.46437 0
M  V30 3991 C 364.543 -1.70187 1.59871 0
M  V30 3992 C 365.524 -1.64066 0.449042 0
M  V30 3993 O 366.709 -1.82081 0.6753 0
M  V30 3994 C 363.839 -3.08827 1.58881 0
M  V30 3995 C 362.793 -3.29779 2.72819 0
M  V30 3996 C 362.119 -4.68947 2.5689 0
M  V30 3997 C 363.419 -3.17601 4.1464 0
M  V30 3998 H 365.113 -1.592 2.53566 0
M  V30 3999 H 362.659 -0.764472 1.22032 0
M  V30 4000 H 364.612 -3.86951 1.66873 0
M  V30 4001 H 363.336 -3.20713 0.617306 0
M  V30 4002 H 361.995 -2.54054 2.64296 0
M  V30 4003 H 361.643 -4.77599 1.57823 0
M  V30 4004 H 361.343 -4.83919 3.33312 0
M  V30 4005 H 362.867 -5.4924 2.66773 0
M  V30 4006 H 364.281 -3.8557 4.24274 0
M  V30 4007 H 362.678 -3.44094 4.9165 0
M  V30 4008 H 363.748 -2.14681 4.34788 0
M  V30 4009 N 365.091 -1.34144 -0.827227 0
M  V30 4010 C 366.316 -1.29476 -1.62021 0
M  V30 4011 C 366.741 0.129292 -1.87655 0
M  V30 4012 O 366.099 1.08967 -1.449 0
M  V30 4013 C 366.147 -2.08702 -2.94068 0
M  V30 4014 O 365.251 -1.45359 -3.85933 0
M  V30 4015 H 364.592 -0.444881 -0.492927 0
M  V30 4016 H 367.122 -1.76882 -1.02829 0
M  V30 4017 H 367.132 -2.19898 -3.43669 0
M  V30 4018 H 365.807 -3.12241 -2.74734 0
M  V30 4019 H 364.384 -1.42879 -3.44442 0
M  V30 4020 N 366.569 1.04691 -1.17803 0
M  V30 4021 C 367.846 1.7472 -0.879328 0
M  V30 4022 C 368.226 2.01812 0.619271 0
M  V30 4023 O 367.574 1.65824 1.57209 0
M  V30 4024 C 367.784 3.03686 -1.71976 0
M  V30 4025 C 369.132 3.77542 -1.94286 0
M  V30 4026 O 370.156 3.13569 -1.68976 0
M  V30 4027 O 369.015 4.92506 -2.36855 0
M  V30 4028 H 366.109 0.760011 -0.326056 0
M  V30 4029 H 368.655 1.10813 -1.28525 0
M  V30 4030 H 367.427 2.79754 -2.73594 0
M  V30 4031 H 367.05 3.75332 -1.31194 0
M  V30 4032 N 368.047 0.979072 1.23499 0
M  V30 4033 C 369.293 0.648178 1.92163 0
M  V30 4034 C 369.626 -0.816049 1.76222 0
M  V30 4035 O 368.901 -1.58849 1.12237 0
M  V30 4036 C 369.184 1.03773 3.44824 0
M  V30 4037 C 369.037 2.55948 3.69879 0
M  V30 4038 C 370.356 0.580653 4.36253 0
M  V30 4039 H 367.475 0.236952 0.69787 0
M  V30 4040 H 370.117 1.22012 1.45647 0
M  V30 4041 H 368.267 0.551058 3.84572 0
M  V30 4042 H 369.939 3.12179 3.3962 0
M  V30 4043 H 368.182 2.98641 3.14636 0
M  V30 4044 H 368.853 2.78255 4.76737 0
M  V30 4045 H 371.329 0.998465 4.03943 0
M  V30 4046 H 370.205 0.881663 5.41773 0
M  V30 4047 H 370.466 -0.519052 4.39042 0
M  V30 4048 N 369.525 -1.3858 0.750561 0
M  V30 4049 C 370.458 -2.28095 0.0693139 0
M  V30 4050 C 371.436 -1.45217 -0.731491 0
M  V30 4051 O 372.62 -1.74587 -0.71076 0
M  V30 4052 C 369.747 -3.26282 -0.90871 0
M  V30 4053 C 368.793 -4.26056 -0.194507 0
M  V30 4054 S 369.626 -5.24026 1.10257 0
M  V30 4055 C 370.782 -6.2577 0.127542 0
M  V30 4056 H 371.015 -2.85526 0.8284 0
M  V30 4057 H 368.548 -1.44536 0.543014 0
M  V30 4058 H 370.506 -3.83367 -1.46766 0
M  V30 4059 H 369.167 -2.6784 -1.64075 0
M  V30 4060 H 368.36 -4.95249 -0.93512 0
M  V30 4061 H 367.962 -3.72852 0.292837 0
M  V30 4062 H 370.254 -6.73796 -0.707516 0
M  V30 4063 H 371.197 -7.03712 0.787044 0
M  V30 4064 H 371.605 -5.63938 -0.251803 0
M  V30 4065 N 371.003 -0.499398 -1.49478 0
M  V30 4066 C 372.252 0.0475259 -2.01644 0
M  V30 4067 C 372.565 1.38195 -1.38425 0
M  V30 4068 O 373.771 2.01547 -1.8191 0
M  V30 4069 C 372.227 0.135164 -3.59646 0
M  V30 4070 C 371.835 -1.19252 -4.31837 0
M  V30 4071 C 373.579 0.632538 -4.19761 0
M  V30 4072 C 371.486 -1.06713 -5.81693 0
M  V30 4073 H 370.416 0.0215349 -0.753692 0
M  V30 4074 H 373.067 -0.638577 -1.7203 0
M  V30 4075 H 371.449 0.885681 -3.85969 0
M  V30 4076 H 372.623 -1.9562 -4.17216 0
M  V30 4077 H 370.938 -1.62321 -3.83459 0
M  V30 4078 H 373.535 0.743833 -5.29501 0
M  V30 4079 H 373.878 1.63098 -3.83021 0
M  V30 4080 H 374.411 -0.0613987 -3.97753 0
M  V30 4081 H 371.15 -2.03979 -6.22955 0
M  V30 4082 H 370.67 -0.344307 -5.98811 0
M  V30 4083 H 372.349 -0.745208 -6.42694 0
M  V30 4084 N 372.481 1.55866 -0.233164 0
M  V30 4085 C 373.411 2.23783 0.666599 0
M  V30 4086 C 374.392 1.21343 1.19205 0
M  V30 4087 O 375.577 1.4996 1.23392 0
M  V30 4088 C 372.707 2.92671 1.86978 0
M  V30 4089 C 371.661 4.01682 1.47768 0
M  V30 4090 C 370.987 4.57926 2.76058 0
M  V30 4091 C 372.287 5.18126 0.658993 0
M  V30 4092 H 373.981 2.99232 0.100306 0
M  V30 4093 H 371.527 1.43924 0.046804 0
M  V30 4094 H 373.48 3.3888 2.50476 0
M  V30 4095 H 372.204 2.14688 2.46123 0
M  V30 4096 H 370.863 3.56222 0.866106 0
M  V30 4097 H 370.511 3.76659 3.33372 0
M  V30 4098 H 370.211 5.31505 2.50552 0
M  V30 4099 H 371.735 5.06859 3.40479 0
M  V30 4100 H 373.149 5.60644 1.19795 0
M  V30 4101 H 371.546 5.98009 0.500552 0
M  V30 4102 H 372.616 4.83763 -0.331856 0
M  V30 4103 N 373.959 -0.0401083 1.57549 0
M  V30 4104 C 375.187 -0.745196 1.93014 0
M  V30 4105 C 375.602 -1.6948 0.831984 0
M  V30 4106 O 374.959 -1.81482 -0.192463 0
M  V30 4107 C 375.01 -1.51176 3.28372 0
M  V30 4108 O 374.731 -0.600284 4.33968 0
M  V30 4109 C 376.232 -2.315 3.78051 0
M  V30 4110 H 373.452 -0.210088 0.637263 0
M  V30 4111 H 375.996 -0.000924689 2.045 0
M  V30 4112 H 374.151 -2.20801 3.18317 0
M  V30 4113 H 374.565 -1.13669 5.12035 0
M  V30 4114 H 376.039 -2.80697 4.75303 0
M  V30 4115 H 376.516 -3.12436 3.08675 0
M  V30 4116 H 377.122 -1.66971 3.91153 0
M  V30 4117 N 375.437 -1.54477 -0.31217 0
M  V30 4118 C 376.683 -1.73483 -1.0503 0
M  V30 4119 C 377.016 -0.513125 -1.87298 0
M  V30 4120 O 376.291 0.489864 -1.8823 0
M  V30 4121 C 376.574 -3.01723 -1.96558 0
M  V30 4122 C 376.427 -4.3417 -1.17545 0
M  V30 4123 C 377.746 -3.25772 -2.95907 0
M  V30 4124 H 374.865 -0.631222 -0.380432 0
M  V30 4125 H 377.507 -1.87184 -0.325932 0
M  V30 4126 H 375.657 -2.90174 -2.58324 0
M  V30 4127 H 377.329 -4.5762 -0.581513 0
M  V30 4128 H 375.572 -4.31159 -0.477925 0
M  V30 4129 H 376.243 -5.20143 -1.84811 0
M  V30 4130 H 378.719 -3.36857 -2.44267 0
M  V30 4131 H 377.595 -4.16838 -3.57123 0
M  V30 4132 H 377.856 -2.43537 -3.68974 0
M  V30 4133 N 376.915 0.57481 -1.46744 0
M  V30 4134 C 378.162 1.33272 -1.52462 0
M  V30 4135 C 378.49 1.93669 -0.179572 0
M  V30 4136 O 377.745 1.7743 0.825664 0
M  V30 4137 C 378.044 2.476 -2.57738 0
M  V30 4138 C 377.71 2.05146 -4.01529 0
M  V30 4139 C 376.372 1.93284 -4.40676 0
M  V30 4140 C 378.724 1.72506 -4.91824 0
M  V30 4141 C 376.052 1.47049 -5.67973 0
M  V30 4142 C 378.404 1.27748 -6.19567 0
M  V30 4143 C 377.068 1.14468 -6.57612 0
M  V30 4144 H 376.338 0.487678 -0.557899 0
M  V30 4145 H 378.985 0.646456 -1.80259 0
M  V30 4146 H 377.29 3.21708 -2.23632 0
M  V30 4147 H 378.987 3.05807 -2.5939 0
M  V30 4148 H 375.577 2.15316 -3.7059 0
M  V30 4149 H 379.761 1.80552 -4.62293 0
M  V30 4150 H 375.017 1.35417 -5.96215 0
M  V30 4151 H 379.191 1.01547 -6.88957 0
M  V30 4152 H 376.818 0.78419 -7.56145 0
M  V30 4153 N 378.394 1.34581 0.820102 0
M  V30 4154 C 379.634 1.28448 1.58998 0
M  V30 4155 C 379.998 -0.142883 1.91468 0
M  V30 4156 O 381.199 -0.328422 2.66786 0
M  V30 4157 C 379.47 2.153 2.85273 0
M  V30 4158 S 381.029 2.26548 3.75794 0
M  V30 4159 H 377.847 0.456685 0.54494 0
M  V30 4160 H 380.449 1.69825 0.968487 0
M  V30 4161 H 379.153 3.18008 2.59421 0
M  V30 4162 H 378.684 1.7483 3.52417 0
M  V30 4163 H 380.699 1.44034 4.74835 0
M  V30 4164 N 379.872 -1.04064 1.18357 0
M  V30 4165 C 380.802 -2.14001 0.934113 0
M  V30 4166 C 381.783 -1.69616 -0.128186 0
M  V30 4167 O 382.968 -1.94185 0.0244093 0
M  V30 4168 C 380.098 -3.44253 0.459066 0
M  V30 4169 C 379.052 -4.02261 1.46185 0
M  V30 4170 C 378.378 -5.27992 0.844322 0
M  V30 4171 C 379.678 -4.38432 2.83856 0
M  V30 4172 H 381.372 -2.35127 1.85352 0
M  V30 4173 H 378.918 -1.12998 0.892604 0
M  V30 4174 H 380.871 -4.20522 0.271907 0
M  V30 4175 H 379.595 -3.22813 -0.495912 0
M  V30 4176 H 378.254 -3.28074 1.63595 0
M  V30 4177 H 377.902 -5.02862 -0.117845 0
M  V30 4178 H 377.602 -5.67765 1.51384 0
M  V30 4179 H 379.126 -6.06938 0.667693 0
M  V30 4180 H 380.54 -5.05688 2.70098 0
M  V30 4181 H 378.937 -4.89254 3.47491 0
M  V30 4182 H 380.007 -3.4826 3.37406 0
M  V30 4183 N 381.35 -0.985608 -1.22978 0
M  V30 4184 C 382.575 -0.675254 -1.961 0
M  V30 4185 C 383 0.752154 -1.72407 0
M  V30 4186 O 382.358 1.5131 -0.998751 0
M  V30 4187 C 382.406 -0.977899 -3.47087 0
M  V30 4188 O 381.51 -0.072685 -4.12336 0
M  V30 4189 H 380.851 -0.253443 -0.613728 0
M  V30 4190 H 383.381 -1.32061 -1.56272 0
M  V30 4191 H 383.391 -0.916739 -3.97567 0
M  V30 4192 H 382.066 -2.01807 -3.63657 0
M  V30 4193 H 380.643 -0.188703 -3.72422 0
M  V30 4194 N 382.828 1.3818 -0.7579 0
M  V30 4195 C 384.074 2.00316 -0.316453 0
M  V30 4196 C 384.407 1.60026 1.10025 0
M  V30 4197 O 383.682 0.839835 1.75434 0
M  V30 4198 C 383.965 3.57349 -0.444245 0
M  V30 4199 C 383.818 4.07591 -1.90236 0
M  V30 4200 C 385.137 4.3981 0.1598 0
M  V30 4201 H 382.256 0.727741 -0.116459 0
M  V30 4202 H 384.898 1.6406 -0.958352 0
M  V30 4203 H 383.048 3.88365 0.102233 0
M  V30 4204 H 384.72 3.87199 -2.50748 0
M  V30 4205 H 382.963 3.60297 -2.41595 0
M  V30 4206 H 383.634 5.16677 -1.94291 0
M  V30 4207 H 386.11 4.14971 -0.306314 0
M  V30 4208 H 384.986 5.48885 0.0401675 0
M  V30 4209 H 385.247 4.24102 1.24859 0
M  V30 4210 N 384.306 0.507319 1.49211 0
M  V30 4211 C 385.553 -0.0349529 2.0247 0
M  V30 4212 C 385.881 -1.36409 1.38647 0
M  V30 4213 O 385.136 -1.88841 0.513566 0
M  V30 4214 C 385.435 -0.229513 3.56662 0
M  V30 4215 C 385.101 1.02241 4.39156 0
M  V30 4216 C 383.763 1.36557 4.61417 0
M  V30 4217 C 386.115 1.85428 4.871 0
M  V30 4218 C 383.443 2.53999 5.28868 0
M  V30 4219 C 385.795 3.02028 5.55843 0
M  V30 4220 C 384.459 3.36717 5.76349 0
M  V30 4221 H 383.729 -0.0127902 0.74089 0
M  V30 4222 H 386.376 0.668756 1.79443 0
M  V30 4223 H 384.681 -1.0158 3.78403 0
M  V30 4224 H 386.378 -0.663641 3.9547 0
M  V30 4225 H 382.968 0.745124 4.22073 0
M  V30 4226 H 387.152 1.6023 4.69723 0
M  V30 4227 H 382.408 2.81105 5.42946 0
M  V30 4228 H 386.582 3.66808 5.91967 0
M  V30 4229 H 384.209 4.27821 6.28389 0
M  V30 4230 N 385.784 -1.5574 0.241426 0
M  V30 4231 C 386.747 -2.19877 -0.647063 0
M  V30 4232 C 387.747 -1.16642 -1.10686 0
M  V30 4233 O 388.937 -1.41757 -1.01245 0
M  V30 4234 C 386.069 -2.83797 -1.88871 0
M  V30 4235 H 387.262 -2.99772 -0.087574 0
M  V30 4236 H 384.815 -1.56298 -0.00813574 0
M  V30 4237 H 385.55 -2.07824 -2.48957 0
M  V30 4238 H 385.335 -3.59414 -1.56728 0
M  V30 4239 H 386.825 -3.32898 -2.52129 0
M  V30 4240 N 387.262 0.0317525 -1.57568 0
M  V30 4241 C 388.192 1.03274 -2.0942 0
M  V30 4242 C 389.173 1.3788 -0.996143 0
M  V30 4243 O 390.358 1.46811 -1.27122 0
M  V30 4244 C 387.488 2.33448 -2.57137 0
M  V30 4245 C 386.442 2.13091 -3.71182 0
M  V30 4246 C 385.768 3.49001 -4.05095 0
M  V30 4247 C 387.068 1.51928 -4.99715 0
M  V30 4248 H 388.762 0.60112 -2.93303 0
M  V30 4249 H 386.308 0.287705 -1.41097 0
M  V30 4250 H 388.261 3.03802 -2.92032 0
M  V30 4251 H 386.985 2.78665 -1.70333 0
M  V30 4252 H 385.644 1.45171 -3.36632 0
M  V30 4253 H 385.292 3.91862 -3.15362 0
M  V30 4254 H 384.992 3.36207 -4.81911 0
M  V30 4255 H 386.516 4.20721 -4.42522 0
M  V30 4256 H 387.93 2.12196 -5.32584 0
M  V30 4257 H 386.327 1.49716 -5.81124 0
M  V30 4258 H 387.397 0.484811 -4.8247 0
M  V30 4259 N 388.74 1.54641 0.303973 0
M  V30 4260 C 389.989 1.7299 1.03717 0
M  V30 4261 C 390.302 0.521168 1.88529 0
M  V30 4262 O 391.508 0.586408 2.65092 0
M  V30 4263 C 389.964 3.06051 1.89369 0
M  V30 4264 C 389.572 4.34393 1.09574 0
M  V30 4265 C 391.316 3.3376 2.62306 0
M  V30 4266 C 389.223 5.58506 1.94486 0
M  V30 4267 H 388.153 0.64473 0.390947 0
M  V30 4268 H 390.804 1.81124 0.294328 0
M  V30 4269 H 389.186 2.91874 2.67629 0
M  V30 4270 H 390.36 4.59396 0.359485 0
M  V30 4271 H 388.675 4.13597 0.482324 0
M  V30 4272 H 391.272 4.23687 3.26181 0
M  V30 4273 H 391.615 2.52503 3.3098 0
M  V30 4274 H 392.148 3.48894 1.91097 0
M  V30 4275 H 388.887 6.42422 1.30287 0
M  V30 4276 H 388.407 5.37694 2.65792 0
M  V30 4277 H 390.086 5.95651 2.52605 0
M  V30 4278 N 390.218 -0.567019 1.47046 0
M  V30 4279 C 391.466 -1.322 1.52864 0
M  V30 4280 C 391.787 -1.94088 0.188388 0
M  V30 4281 O 391.057 -1.7941 -0.786693 0
M  V30 4282 H 389.637 -0.490894 0.563056 0
M  V30 4283 H 392.299 -0.662879 1.83281 0
M  V30 4284 H 391.395 -2.12062 2.2899 0
M  V30 4285 N 391.696 -1.35014 -0.812953 0
M  V30 4286 C 392.626 -1.30069 -1.93919 0
M  V30 4287 C 393.607 -0.176275 -1.69184 0
M  V30 4288 O 394.792 -0.370227 -1.90638 0
M  V30 4289 C 391.922 -1.06547 -3.30552 0
M  V30 4290 C 390.876 -2.15561 -3.69753 0
M  V30 4291 C 390.202 -1.77214 -5.04479 0
M  V30 4292 C 391.502 -3.57476 -3.808 0
M  V30 4293 H 393.196 -2.24303 -1.98314 0
M  V30 4294 H 390.742 -1.07977 -0.952736 0
M  V30 4295 H 392.695 -1.01729 -4.08937 0
M  V30 4296 H 391.419 -0.0875719 -3.26483 0
M  V30 4297 H 390.078 -2.19466 -2.9365 0
M  V30 4298 H 389.726 -0.780589 -4.96906 0
M  V30 4299 H 389.426 -2.50184 -5.31678 0
M  V30 4300 H 390.95 -1.7391 -5.8531 0
M  V30 4301 H 392.364 -3.55929 -4.4943 0
M  V30 4302 H 390.761 -4.29152 -4.19462 0
M  V30 4303 H 391.831 -3.94091 -2.82525 0
M  V30 4304 N 393.175 1.03435 -1.18907 0
M  V30 4305 C 394.107 2.1165 -0.879595 0
M  V30 4306 C 395.12 1.62316 0.125439 0
M  V30 4307 O 396.309 1.78201 -0.103245 0
M  V30 4308 C 393.409 3.37622 -0.294042 0
M  V30 4309 C 392.582 4.16166 -1.34629 0
M  V30 4310 C 391.641 5.20457 -0.775274 0
M  V30 4311 O 390.667 5.50379 -1.4516 0
M  V30 4312 N 391.869 5.78949 0.424126 0
M  V30 4313 H 394.634 2.38791 -1.81105 0
M  V30 4314 H 392.195 1.19681 -1.09032 0
M  V30 4315 H 394.187 4.04572 0.101679 0
M  V30 4316 H 392.757 3.07873 0.541575 0
M  V30 4317 H 391.977 3.44444 -1.91707 0
M  V30 4318 H 393.265 4.65432 -2.05549 0
M  V30 4319 H 392.663 5.56948 0.991209 0
M  V30 4320 H 391.22 6.47334 0.761691 0
M  V30 4321 N 394.653 0.992116 1.22453 0
M  V30 4322 C 395.583 0.561677 2.26644 0
M  V30 4323 C 396.564 -0.411055 1.65059 0
M  V30 4324 O 397.749 -0.301861 1.9184 0
M  V30 4325 C 394.879 -0.125247 3.47074 0
M  V30 4326 C 393.833 0.765948 4.21091 0
M  V30 4327 C 393.159 -0.0538484 5.34673 0
M  V30 4328 C 394.459 2.06242 4.79856 0
M  V30 4329 H 396.153 1.43259 2.62902 0
M  V30 4330 H 393.699 0.690283 1.26377 0
M  V30 4331 H 395.652 -0.437764 4.1912 0
M  V30 4332 H 394.376 -1.03069 3.0991 0
M  V30 4333 H 393.035 1.0621 3.50878 0
M  V30 4334 H 392.683 -0.960188 4.9375 0
M  V30 4335 H 392.383 0.539415 5.85119 0
M  V30 4336 H 393.907 -0.360477 6.09535 0
M  V30 4337 H 395.321 1.8139 5.43848 0
M  V30 4338 H 393.718 2.60444 5.40638 0
M  V30 4339 H 394.788 2.74167 3.99951 0
M  V30 4340 N 396.131 -1.37776 0.765217 0
M  V30 4341 C 397.378 -1.99849 0.326588 0
M  V30 4342 C 397.706 -1.60746 -1.09504 0
M  V30 4343 O 396.961 -0.84202 -1.76659 0
M  V30 4344 C 397.26 -3.5504 0.410053 0
M  V30 4345 C 396.926 -4.13891 1.78899 0
M  V30 4346 C 395.588 -4.29678 2.16635 0
M  V30 4347 C 397.94 -4.46236 2.69301 0
M  V30 4348 C 395.268 -4.7511 3.44221 0
M  V30 4349 C 397.62 -4.93089 3.9629 0
M  V30 4350 C 396.284 -5.07082 4.34078 0
M  V30 4351 H 395.554 -0.7313 0.119507 0
M  V30 4352 H 398.201 -1.64645 0.977968 0
M  V30 4353 H 396.506 -3.90451 -0.324878 0
M  V30 4354 H 398.203 -4.00966 0.0520699 0
M  V30 4355 H 394.793 -4.02026 1.48569 0
M  V30 4356 H 398.977 -4.3363 2.41409 0
M  V30 4357 H 394.233 -4.84129 3.73402 0
M  V30 4358 H 398.407 -5.17084 4.66472 0
M  V30 4359 H 396.034 -5.42046 5.33001 0
M  V30 4360 N 397.609 -0.515225 -1.4894 0
M  V30 4361 C 398.542 0.302518 -2.26186 0
M  V30 4362 C 399.52 0.957895 -1.31389 0
M  V30 4363 O 400.704 0.985198 -1.60705 0
M  V30 4364 C 397.831 1.42719 -3.07163 0
M  V30 4365 C 396.877 0.884736 -4.17223 0
M  V30 4366 S 397.71 -0.235767 -5.34981 0
M  V30 4367 C 398.866 0.891731 -6.19515 0
M  V30 4368 H 399.099 -0.353076 -2.95196 0
M  V30 4369 H 396.632 -0.300753 -1.51443 0
M  V30 4370 H 398.59 2.07152 -3.54398 0
M  V30 4371 H 397.251 2.05445 -2.37595 0
M  V30 4372 H 396.444 1.72801 -4.73451 0
M  V30 4373 H 396.046 0.317362 -3.72651 0
M  V30 4374 H 398.338 1.79377 -6.53322 0
M  V30 4375 H 399.281 0.367751 -7.07144 0
M  V30 4376 H 399.689 1.16548 -5.52338 0
M  V30 4377 N 399.087 1.5561 -0.249682 0
M  V30 4378 C 400.335 1.98618 0.373548 0
M  V30 4379 C 400.656 1.13919 1.58264 0
M  V30 4380 O 399.926 0.222637 1.94631 0
M  V30 4381 H 398.506 0.733571 0.141006 0
M  V30 4382 H 401.168 1.91748 -0.349117 0
M  V30 4383 H 400.264 3.04584 0.680796 0
M  V30 4384 N 400.565 -0.0233959 1.57583 0
M  V30 4385 C 401.513 -1.04063 2.08023 0
M  V30 4386 C 402.507 -1.37084 0.995204 0
M  V30 4387 O 403.713 -1.35923 1.18004 0
M  V30 4388 H 400.088 -0.353144 0.663922 0
M  V30 4389 H 402.059 -0.589453 2.9252 0
M  V30 4390 C 400.808 -2.33123 2.57971 0
M  V30 4391 H 400.131 -2.08577 3.4108 0
M  V30 4392 H 401.571 -3.02632 2.96967 0
M  V30 4393 C 400.03 -3.02483 1.48342 0
M  V30 4394 O 400.56 -3.92541 0.852898 0
M  V30 4395 N 398.766 -2.63909 1.21658 0
M  V30 4396 H 398.313 -1.90758 1.73116 0
M  V30 4397 H 398.271 -3.10633 0.485218 0
M  V30 4398 N 402.043 -1.548 -0.295768 0
M  V30 4399 C 402.973 -1.89115 -1.36959 0
M  V30 4400 C 403.954 -0.75059 -1.52644 0
M  V30 4401 O 405.139 -1.00678 -1.66065 0
M  V30 4402 C 402.269 -2.14307 -2.73295 0
M  V30 4403 C 401.223 -3.30151 -2.72368 0
M  V30 4404 C 400.549 -3.40772 -4.12042 0
M  V30 4405 C 401.849 -4.67126 -2.33646 0
M  V30 4406 H 403.543 -2.79053 -1.08488 0
M  V30 4407 H 401.089 -1.34266 -0.520443 0
M  V30 4408 H 403.042 -2.36898 -3.48507 0
M  V30 4409 H 401.766 -1.21145 -3.03301 0
M  V30 4410 H 400.425 -3.0749 -1.99613 0
M  V30 4411 H 400.073 -2.45117 -4.39234 0
M  V30 4412 H 399.773 -4.18645 -4.12322 0
M  V30 4413 H 401.297 -3.6563 -4.89027 0
M  V30 4414 H 402.711 -4.89414 -2.98575 0
M  V30 4415 H 401.108 -5.47751 -2.45129 0
M  V30 4416 H 402.178 -4.67489 -1.28772 0
M  V30 4417 N 403.521 0.559213 -1.47345 0
M  V30 4418 C 404.937 0.884943 -1.32819 0
M  V30 4419 C 405.137 1.98988 -0.317173 0
M  V30 4420 O 404.193 2.51031 0.272011 0
M  V30 4421 C 405.506 1.28007 -2.72093 0
M  V30 4422 C 407.054 1.39161 -2.80363 0
M  V30 4423 C 407.529 1.82031 -4.20272 0
M  V30 4424 N 409.02 1.89185 -4.22804 0
M  V30 4425 C 409.755 2.2368 -5.27973 0
M  V30 4426 N 409.251 2.56802 -6.43447 0
M  V30 4427 N 411.044 2.24436 -5.15349 0
M  V30 4428 H 403.195 -0.170304 -2.11716 0
M  V30 4429 H 405.458 -0.0135247 -0.947904 0
M  V30 4430 H 405.164 0.542027 -3.47498 0
M  V30 4431 H 405.038 2.23665 -3.03733 0
M  V30 4432 H 407.425 2.12048 -2.05231 0
M  V30 4433 H 407.506 0.41696 -2.52379 0
M  V30 4434 H 407.15 1.09715 -4.95908 0
M  V30 4435 H 407.08 2.80495 -4.45679 0
M  V30 4436 H 409.571 1.65982 -3.39497 0
M  V30 4437 H 409.884 2.82144 -7.19454 0
M  V30 4438 H 408.229 2.54387 -6.46771 0
M  V30 4439 H 411.42 1.97998 -4.24163 0
M  V30 4440 H 411.593 2.50989 -5.97418 0
M  V30 4441 N 404.999 1.35443 0.805782 0
M  V30 4442 C 405.947 1.28465 1.93906 0
M  V30 4443 C 406.941 0.17943 1.68447 0
M  V30 4444 O 408.147 0.345459 1.76654 0
M  V30 4445 H 404.522 0.399528 0.637088 0
M  V30 4446 H 406.493 2.24206 1.96912 0
M  V30 4447 C 405.242 1.07432 3.30687 0
M  V30 4448 H 404.565 1.91716 3.50835 0
M  V30 4449 H 406.005 1.06591 4.10383 0
M  V30 4450 C 404.464 -0.22179 3.36169 0
M  V30 4451 O 404.994 -1.21731 3.82811 0
M  V30 4452 N 403.2 -0.260841 2.89427 0
M  V30 4453 H 402.747 0.549884 2.51663 0
M  V30 4454 H 402.705 -1.12777 2.93477 0
M  V30 4455 N 406.477 -1.02803 1.19454 0
M  V30 4456 C 407.424 -2.11099 0.933046 0
M  V30 4457 C 408.394 -1.65571 -0.132447 0
M  V30 4458 O 409.579 -1.90797 0.00987576 0
M  V30 4459 C 406.719 -3.41763 0.478747 0
M  V30 4460 C 405.832 -4.00833 1.6111 0
M  V30 4461 C 404.967 -5.19511 1.10825 0
M  V30 4462 C 404.006 -5.70639 2.21445 0
M  V30 4463 N 403.143 -6.80589 1.72461 0
M  V30 4464 H 407.983 -2.32804 1.86028 0
M  V30 4465 H 405.52 -1.14179 0.927441 0
M  V30 4466 H 407.478 -4.16736 0.196745 0
M  V30 4467 H 406.108 -3.20166 -0.411493 0
M  V30 4468 H 405.16 -3.23066 2.00829 0
M  V30 4469 H 406.472 -4.34794 2.4445 0
M  V30 4470 H 405.626 -6.01645 0.781533 0
M  V30 4471 H 404.365 -4.87086 0.244606 0
M  V30 4472 H 403.37 -4.87116 2.54947 0
M  V30 4473 H 404.595 -6.05102 3.08267 0
M  V30 4474 H 402.541 -6.50016 0.884056 0
M  V30 4475 H 402.458 -7.13681 2.49389 0
M  V30 4476 H 403.726 -7.66317 1.42755 0
M  V30 4477 N 407.956 -0.998596 -1.21925 0
M  V30 4478 C 409.196 -0.685948 -1.92546 0
M  V30 4479 C 409.56 0.768441 -1.75952 0
M  V30 4480 O 410.761 1.19277 -2.40887 0
M  V30 4481 C 409.032 -1.08767 -3.40448 0
M  V30 4482 S 410.591 -0.894251 -4.29591 0
M  V30 4483 H 407.409 -0.250622 -0.665364 0
M  V30 4484 H 410.011 -1.28207 -1.47591 0
M  V30 4485 H 408.715 -2.14242 -3.50041 0
M  V30 4486 H 408.246 -0.48357 -3.90417 0
M  V30 4487 H 410.261 0.212149 -4.95746 0
M  V30 4488 N 409.434 1.37368 -0.772513 0
M  V30 4489 C 410.683 1.98918 -0.333861 0
M  V30 4490 C 410.996 1.62017 1.09589 0
M  V30 4491 O 412.202 2.16676 1.63596 0
M  V30 4492 C 410.658 3.55735 -0.545971 0
M  V30 4493 C 410.266 4.01573 -1.98603 0
M  V30 4494 C 412.01 4.24156 -0.170979 0
M  V30 4495 C 409.917 5.51102 -2.1457 0
M  V30 4496 H 408.847 0.744214 -0.121085 0
M  V30 4497 H 411.498 1.56888 -0.95175 0
M  V30 4498 H 409.88 3.95748 0.141387 0
M  V30 4499 H 411.054 3.72803 -2.7084 0
M  V30 4500 H 409.369 3.45937 -2.31769 0
M  V30 4501 H 411.966 5.34024 -0.26878 0
M  V30 4502 H 412.309 4.06917 0.878855 0
M  V30 4503 H 412.842 3.89447 -0.810914 0
M  V30 4504 H 409.581 5.73268 -3.17875 0
M  V30 4505 H 409.101 5.81554 -1.46817 0
M  V30 4506 H 410.78 6.17083 -1.94468 0
M  V30 4507 N 410.912 0.523116 1.48665 0
M  V30 4508 C 411.844 -0.280421 2.27478 0
M  V30 4509 C 412.857 -0.910694 1.34945 0
M  V30 4510 O 414.046 -0.790295 1.60052 0
M  V30 4511 C 411.146 -1.41171 3.08097 0
M  V30 4512 C 410.319 -0.884642 4.28361 0
M  V30 4513 C 409.378 -1.89622 4.90846 0
M  V30 4514 O 408.404 -1.4559 5.50265 0
M  V30 4515 N 409.606 -3.22801 4.82472 0
M  V30 4516 H 412.371 0.395481 2.97079 0
M  V30 4517 H 409.932 0.357018 1.57915 0
M  V30 4518 H 411.924 -2.08645 3.4677 0
M  V30 4519 H 410.494 -1.99139 2.40961 0
M  V30 4520 H 409.714 -0.0341177 3.94185 0
M  V30 4521 H 411.002 -0.511268 5.06225 0
M  V30 4522 H 410.4 -3.61246 4.35336 0
M  V30 4523 H 408.957 -3.85927 5.25265 0
M  V30 4524 N 412.39 -1.55475 0.257931 0
M  V30 4525 C 413.636 -2.00237 -0.357338 0
M  V30 4526 C 413.991 -1.14313 -1.54759 0
M  V30 4527 O 413.284 -0.201187 -1.90541 0
M  V30 4528 C 413.478 -3.48183 -0.806433 0
M  V30 4529 C 413.307 -4.48422 0.338758 0
M  V30 4530 C 412.077 -4.98651 0.817011 0
M  V30 4531 C 414.275 -5.00827 1.16949 0
M  V30 4532 N 412.257 -5.82658 1.93346 0
M  V30 4533 C 413.628 -5.82113 2.13413 0
M  V30 4534 C 415.683 -4.83104 1.2048 0
M  V30 4535 C 414.386 -6.47566 3.13131 0
M  V30 4536 C 416.412 -5.49343 2.19034 0
M  V30 4537 C 415.774 -6.30427 3.14232 0
M  V30 4538 H 411.873 -0.776034 -0.0964083 0
M  V30 4539 H 414.457 -1.90995 0.37803 0
M  V30 4540 H 412.628 -3.57801 -1.51107 0
M  V30 4541 H 414.36 -3.79802 -1.39758 0
M  V30 4542 H 411.115 -4.71914 0.39925 0
M  V30 4543 H 411.539 -6.29356 2.49478 0
M  V30 4544 H 416.181 -4.20036 0.482634 0
M  V30 4545 H 413.899 -7.09793 3.8629 0
M  V30 4546 H 417.485 -5.37579 2.22485 0
M  V30 4547 H 416.365 -6.80777 3.89246 0
M  V30 4548 N 413.868 0.0150385 -1.57593 0
M  V30 4549 C 415.279 0.559832 -1.78109 0
M  V30 4550 C 415.63 1.74814 -0.890756 0
M  V30 4551 O 414.755 2.16216 -0.0892482 0
M  V30 4552 C 415.35 1.02238 -3.23006 0
M  V30 4553 C 413.909 1.51258 -3.44671 0
M  V30 4554 C 413.056 0.456955 -2.73509 0
M  V30 4555 H 416.007 -0.211169 -1.57289 0
M  V30 4556 H 416.028 1.88912 -3.30292 0
M  V30 4557 H 415.54 0.157302 -3.87781 0
M  V30 4558 H 413.641 2.39905 -2.8509 0
M  V30 4559 H 413.754 1.55042 -4.5332 0
M  V30 4560 H 412.118 0.915196 -2.37689 0
M  V30 4561 H 412.901 -0.398896 -3.40975 0
M  V30 4562 N 415.346 1.54954 0.287554 0
M  V30 4563 C 416.757 1.65732 0.859634 0
M  V30 4564 C 417.108 0.574767 1.87592 0
M  V30 4565 O 416.233 -0.286299 2.14498 0
M  V30 4566 C 416.828 3.00438 1.56597 0
M  V30 4567 C 415.387 3.13292 2.08627 0
M  V30 4568 C 414.534 2.61473 0.923416 0
M  V30 4569 H 417.485 1.5857 0.0642338 0
M  V30 4570 H 417.506 2.92613 2.43224 0
M  V30 4571 H 417.018 3.79207 0.826053 0
M  V30 4572 H 415.119 2.39268 2.85625 0
M  V30 4573 H 415.232 4.19647 2.31157 0
M  V30 4574 H 413.596 2.18264 1.31275 0
M  V30 4575 H 414.379 3.42733 0.197241 0
M  V30 4576 N 416.824 -0.551391 1.4764 0
M  V30 4577 C 418.052 -1.33357 1.58189 0
M  V30 4578 C 418.467 -1.87342 0.234199 0
M  V30 4579 O 417.824 -1.65301 -0.77343 0
M  V30 4580 C 417.875 -2.49942 2.61173 0
M  V30 4581 O 417.596 -1.98187 3.90709 0
M  V30 4582 C 419.097 -3.42072 2.8196 0
M  V30 4583 H 416.317 -0.40631 0.533998 0
M  V30 4584 H 418.861 -0.667367 1.93304 0
M  V30 4585 H 417.016 -3.12489 2.28975 0
M  V30 4586 H 417.43 -2.74342 4.47031 0
M  V30 4587 H 418.904 -4.20278 3.57869 0
M  V30 4588 H 419.381 -3.95978 1.89995 0
M  V30 4589 H 419.987 -2.85336 3.15378 0
M  V30 4590 N 418.302 -1.35869 -0.798587 0
M  V30 4591 C 419.25 -1.29491 -1.93222 0
M  V30 4592 C 420.244 -0.18836 -1.6835 0
M  V30 4593 O 421.45 -0.354822 -1.76468 0
M  V30 4594 H 417.825 -0.402901 -0.63496 0
M  V30 4595 H 419.796 -2.25247 -1.9572 0
M  V30 4596 C 418.545 -1.09184 -3.30112 0
M  V30 4597 H 417.868 -1.93574 -3.49813 0
M  V30 4598 H 419.308 -1.08766 -4.09812 0
M  V30 4599 C 417.767 0.203959 -3.36282 0
M  V30 4600 O 418.297 1.19699 -3.83451 0
M  V30 4601 N 416.503 0.245488 -2.89561 0
M  V30 4602 H 416.05 -0.563223 -2.51367 0
M  V30 4603 H 416.008 1.11219 -2.94071 0
M  V30 4604 N 419.78 1.02168 -1.19998 0
M  V30 4605 C 420.743 2.08765 -0.94604 0
M  V30 4606 C 421.743 1.60618 0.0763846 0
M  V30 4607 O 422.933 1.73472 -0.159135 0
M  V30 4608 C 420.065 3.38262 -0.423255 0
M  V30 4609 H 421.258 2.32726 -1.89153 0
M  V30 4610 H 418.811 1.1889 -1.01464 0
M  V30 4611 H 419.546 3.19974 0.527938 0
M  V30 4612 H 419.331 3.74532 -1.16053 0
M  V30 4613 H 420.821 4.16759 -0.264911 0
M  V30 4614 N 421.258 1.00505 1.21394 0
M  V30 4615 C 422.483 0.706367 1.95001 0
M  V30 4616 C 422.908 -0.72463 1.73582 0
M  V30 4617 O 422.266 -1.49702 1.0227 0
M  V30 4618 C 422.314 1.03299 3.45487 0
M  V30 4619 O 421.418 0.138275 4.12168 0
M  V30 4620 H 420.759 0.263175 0.609619 0
M  V30 4621 H 423.289 1.34531 1.54151 0
M  V30 4622 H 423.299 0.979872 3.96059 0
M  V30 4623 H 421.974 2.07567 3.60401 0
M  V30 4624 H 420.551 0.247928 3.72075 0
M  V30 4625 N 422.737 -1.36956 0.779787 0
M  V30 4626 C 423.667 -2.32761 0.185651 0
M  V30 4627 C 424.648 -1.56177 -0.673989 0
M  V30 4628 O 425.833 -1.84378 -0.609797 0
M  V30 4629 C 422.963 -3.40418 -0.687964 0
M  V30 4630 C 421.917 -4.27941 0.0710102 0
M  V30 4631 C 421.243 -5.26681 -0.922573 0
M  V30 4632 C 422.543 -5.07006 1.25467 0
M  V30 4633 H 424.237 -2.82698 0.986008 0
M  V30 4634 H 421.783 -1.3592 0.475592 0
M  V30 4635 H 423.736 -4.06423 -1.11348 0
M  V30 4636 H 422.46 -2.89025 -1.52093 0
M  V30 4637 H 421.119 -3.63478 0.47739 0
M  V30 4638 H 420.767 -4.71565 -1.7503 0
M  V30 4639 H 420.467 -5.86103 -0.419237 0
M  V30 4640 H 421.991 -5.9556 -1.34686 0
M  V30 4641 H 423.405 -5.66105 0.905401 0
M  V30 4642 H 421.802 -5.75793 1.69063 0
M  V30 4643 H 422.872 -4.3921 2.05481 0
M  V30 4644 N 424.215 -0.530993 -1.48385 0
M  V30 4645 C 425.125 0.23503 -2.3342 0
M  V30 4646 C 426.141 0.93801 -1.46552 0
M  V30 4647 O 427.317 0.912745 -1.7953 0
M  V30 4648 C 424.382 1.26778 -3.22689 0
M  V30 4649 C 423.443 0.575038 -4.25431 0
M  V30 4650 C 422.676 1.55858 -5.10435 0
M  V30 4651 O 422.899 2.79129 -4.97437 0
M  V30 4652 O 421.833 1.09742 -5.91811 0
M  V30 4653 H 425.659 -0.461794 -3.00169 0
M  V30 4654 H 423.244 -0.291903 -1.46521 0
M  V30 4655 H 425.126 1.86457 -3.77904 0
M  V30 4656 H 423.801 1.94699 -2.586 0
M  V30 4657 H 422.708 -0.0622782 -3.74048 0
M  V30 4658 H 424.041 -0.062253 -4.92161 0
M  V30 4659 N 425.693 1.55336 -0.266172 0
M  V30 4660 C 426.603 2.2583 0.635458 0
M  V30 4661 C 427.619 1.28106 1.17749 0
M  V30 4662 O 428.795 1.61024 1.20968 0
M  V30 4663 C 425.86 2.95879 1.80712 0
M  V30 4664 C 424.921 4.09059 1.30265 0
M  V30 4665 C 424.154 4.75759 2.41846 0
M  V30 4666 O 424.377 4.41622 3.61007 0
M  V30 4667 O 423.311 5.63888 2.1051 0
M  V30 4668 H 427.137 3.03631 0.0646693 0
M  V30 4669 H 424.722 1.49361 -0.0339177 0
M  V30 4670 H 426.604 3.39932 2.49047 0
M  V30 4671 H 425.279 2.21002 2.36516 0
M  V30 4672 H 424.186 3.69482 0.586019 0
M  V30 4673 H 425.519 4.85811 0.790458 0
M  V30 4674 N 427.171 -0.0066808 1.57599 0
M  V30 4675 C 428.121 -1.0086 2.04478 0
M  V30 4676 C 429.105 -1.30714 0.938231 0
M  V30 4677 O 430.297 -1.29924 1.20203 0
M  V30 4678 C 427.426 -2.30273 2.54615 0
M  V30 4679 C 426.512 -2.03413 3.72134 0
M  V30 4680 N 426.903 -1.46688 4.84062 0
M  V30 4681 C 425.201 -2.33589 3.79937 0
M  V30 4682 C 425.902 -1.36146 5.65543 0
M  V30 4683 N 424.878 -1.84477 5.1134 0
M  V30 4684 H 428.68 -0.564402 2.8843 0
M  V30 4685 H 426.194 -0.212521 1.61003 0
M  V30 4686 H 428.191 -3.02885 2.86472 0
M  V30 4687 H 426.851 -2.75352 1.72079 0
M  V30 4688 H 427.862 -1.14658 5.05049 0
M  V30 4689 H 424.539 -2.81589 3.08243 0
M  V30 4690 H 425.929 -0.925873 6.6549 0
M  V30 4691 N 428.649 -1.55105 -0.279332 0
M  V30 4692 C 429.874 -1.7976 -1.03446 0
M  V30 4693 C 430.299 -0.565952 -1.79384 0
M  V30 4694 O 429.657 0.484259 -1.74713 0
M  V30 4695 C 429.705 -3.0179 -1.97371 0
M  V30 4696 O 428.809 -2.76432 -3.06038 0
M  V30 4697 H 428.15 -0.594334 -0.29608 0
M  V30 4698 H 430.68 -2.02235 -0.310165 0
M  V30 4699 H 430.69 -3.30351 -2.39441 0
M  V30 4700 H 429.365 -3.91085 -1.4151 0
M  V30 4701 H 427.942 -2.58949 -2.68328 0
M  V30 4702 N 430.127 0.543554 -1.4793 0
M  V30 4703 C 431.376 1.29649 -1.54512 0
M  V30 4704 C 431.689 1.94382 -0.217973 0
M  V30 4705 O 432.895 2.71017 -0.161908 0
M  V30 4706 C 431.351 2.35175 -2.72435 0
M  V30 4707 C 430.959 1.76572 -4.11736 0
M  V30 4708 C 432.703 3.11564 -2.8832 0
M  V30 4709 C 430.61 2.79958 -5.20939 0
M  V30 4710 H 429.54 0.487541 -0.57517 0
M  V30 4711 H 432.191 0.575708 -1.74235 0
M  V30 4712 H 430.573 3.10229 -2.46118 0
M  V30 4713 H 431.747 1.07799 -4.48013 0
M  V30 4714 H 430.062 1.12722 -4.00852 0
M  V30 4715 H 432.659 3.88794 -3.67074 0
M  V30 4716 H 433.002 3.66594 -1.97268 0
M  V30 4717 H 433.535 2.43623 -3.14472 0
M  V30 4718 H 430.274 2.29766 -6.13912 0
M  V30 4719 H 429.794 3.47101 -4.89164 0
M  V30 4720 H 431.473 3.43198 -5.48474 0
M  V30 4721 N 431.605 1.3629 0.791371 0
M  V30 4722 C 432.515 1.32606 1.93527 0
M  V30 4723 C 433.531 0.228541 1.72493 0
M  V30 4724 O 434.707 0.460571 1.96063 0
M  V30 4725 C 431.772 1.11271 3.28359 0
M  V30 4726 C 430.833 2.3048 3.62185 0
M  V30 4727 C 430.066 2.10154 4.90583 0
M  V30 4728 O 430.289 1.07572 5.60165 0
M  V30 4729 O 429.223 2.97884 5.23019 0
M  V30 4730 H 433.049 2.28909 1.99585 0
M  V30 4731 H 430.634 1.16818 0.931344 0
M  V30 4732 H 432.516 1.01283 4.09047 0
M  V30 4733 H 431.191 0.180292 3.23198 0
M  V30 4734 H 430.098 2.46036 2.81811 0
M  V30 4735 H 431.431 3.22221 3.72068 0
M  V30 4736 N 433.083 -1.0153 1.20538 0
M  V30 4737 C 434.03 -2.10098 0.955383 0
M  V30 4738 C 435 -1.65702 -0.114878 0
M  V30 4739 O 436.185 -1.90776 0.0301118 0
M  V30 4740 C 433.325 -3.41236 0.514969 0
M  V30 4741 C 432.438 -3.99102 1.65353 0
M  V30 4742 C 431.573 -5.18306 1.16329 0
M  V30 4743 C 430.612 -5.68258 2.27485 0
M  V30 4744 N 429.749 -6.78722 1.7967 0
M  V30 4745 H 434.589 -2.30818 1.88486 0
M  V30 4746 H 432.126 -1.13189 0.939499 0
M  V30 4747 H 434.084 -4.16504 0.240935 0
M  V30 4748 H 432.714 -3.20585 -0.377512 0
M  V30 4749 H 431.766 -3.20918 2.04245 0
M  V30 4750 H 433.078 -4.32177 2.49047 0
M  V30 4751 H 432.232 -6.00782 0.845302 0
M  V30 4752 H 430.971 -4.86799 0.296254 0
M  V30 4753 H 429.976 -4.84385 2.60099 0
M  V30 4754 H 431.201 -6.01798 3.14667 0
M  V30 4755 H 429.147 -6.49042 0.95295 0
M  V30 4756 H 429.064 -7.10996 2.56944 0
M  V30 4757 H 430.332 -7.64759 1.50875 0
M  V30 4758 N 434.561 -1.01147 -1.20859 0
M  V30 4759 C 435.509 -0.57059 -2.25493 0
M  V30 4760 C 436.503 0.388109 -1.64894 0
M  V30 4761 O 437.709 0.258592 -1.78133 0
M  V30 4762 H 434.084 -0.166191 -0.733406 0
M  V30 4763 H 436.055 -1.46411 -2.60012 0
M  V30 4764 C 434.804 0.0805241 -3.47607 0
M  V30 4765 H 434.127 -0.648156 -3.94511 0
M  V30 4766 H 435.567 0.352197 -4.22535 0
M  V30 4767 C 434.026 1.32175 -3.09889 0
M  V30 4768 O 434.556 2.41553 -3.20959 0
M  V30 4769 N 432.762 1.20392 -2.64488 0
M  V30 4770 H 432.309 0.313905 -2.5568 0
M  V30 4771 H 432.267 2.03541 -2.39621 0
M  V30 4772 N 436.039 1.36541 -0.78704 0
M  V30 4773 C 437.288 1.98552 -0.35494 0
M  V30 4774 C 437.601 1.63171 1.07864 0
M  V30 4775 O 438.807 2.18399 1.61289 0
M  V30 4776 C 437.263 3.55136 -0.583671 0
M  V30 4777 C 436.871 3.99444 -2.02851 0
M  V30 4778 C 438.615 4.2395 -0.215957 0
M  V30 4779 C 436.522 5.48796 -2.20403 0
M  V30 4780 H 435.452 0.742888 -0.128972 0
M  V30 4781 H 438.103 1.5587 -0.968337 0
M  V30 4782 H 436.485 3.95875 0.0994046 0
M  V30 4783 H 437.659 3.6991 -2.74779 0
M  V30 4784 H 435.974 3.43459 -2.35425 0
M  V30 4785 H 438.571 5.33709 -0.325405 0
M  V30 4786 H 438.914 4.07827 0.835646 0
M  V30 4787 H 439.447 3.88565 -0.852175 0
M  V30 4788 H 436.186 5.69864 -3.23937 0
M  V30 4789 H 435.706 5.79964 -1.52977 0
M  V30 4790 H 437.385 6.14986 -2.01002 0
M  V30 4791 N 437.518 0.538854 1.48102 0
M  V30 4792 C 438.746 0.0123136 2.06896 0
M  V30 4793 C 439.161 -1.27312 1.39417 0
M  V30 4794 O 438.518 -1.75949 0.484582 0
M  V30 4795 C 438.569 -0.206118 3.60912 0
M  V30 4796 O 438.29 1.0284 4.25859 0
M  V30 4797 C 439.791 -0.772033 4.36526 0
M  V30 4798 H 437.011 0.0375239 0.66995 0
M  V30 4799 H 439.555 0.747032 1.90367 0
M  V30 4800 H 437.71 -0.89091 3.77017 0
M  V30 4801 H 438.124 0.814654 5.18135 0
M  V30 4802 H 439.598 -0.874251 5.45033 0
M  V30 4803 H 440.075 -1.77904 4.01555 0
M  V30 4804 H 440.681 -0.123526 4.25121 0
M  V30 4805 N 438.996 -1.55193 0.274407 0
M  V30 4806 C 440.242 -1.99877 -0.343086 0
M  V30 4807 C 440.575 -1.16256 -1.55558 0
M  V30 4808 O 439.85 -0.232462 -1.93106 0
M  V30 4809 C 440.133 -3.52706 -0.725965 0
M  V30 4810 C 439.986 -4.47081 0.493818 0
M  V30 4811 C 441.305 -4.11422 -1.56268 0
M  V30 4812 H 438.424 -0.726625 -0.123229 0
M  V30 4813 H 441.066 -1.86136 0.38121 0
M  V30 4814 H 439.216 -3.64546 -1.34307 0
M  V30 4815 H 440.888 -4.47186 1.13237 0
M  V30 4816 H 439.131 -4.1877 1.13201 0
M  V30 4817 H 439.802 -5.51699 0.18217 0
M  V30 4818 H 442.278 -4.02855 -1.04151 0
M  V30 4819 H 441.154 -5.18568 -1.79939 0
M  V30 4820 H 441.415 -3.61607 -2.54348 0
M  V30 4821 N 440.474 -0.00167713 -1.576 0
M  V30 4822 C 441.422 1.0074 -2.09652 0
M  V30 4823 C 442.416 1.35483 -1.01689 0
M  V30 4824 O 443.622 1.34028 -1.20152 0
M  V30 4825 H 439.997 0.342537 -0.669457 0
M  V30 4826 H 441.968 0.542841 -2.93421 0
M  V30 4827 C 440.717 2.2899 -2.61647 0
M  V30 4828 H 440.04 2.03124 -3.44355 0
M  V30 4829 H 441.48 2.9787 -3.01744 0
M  V30 4830 C 439.939 3.00085 -1.53136 0
M  V30 4831 O 440.469 3.91135 -0.91524 0
M  V30 4832 N 438.675 2.6194 -1.25841 0
M  V30 4833 H 438.222 1.8798 -1.76129 0
M  V30 4834 H 438.18 3.09822 -0.534576 0
M  V30 4835 N 441.952 1.55251 0.271103 0
M  V30 4836 C 443.182 1.79713 1.01916 0
M  V30 4837 C 443.59 0.571613 1.80359 0
M  V30 4838 O 442.933 -0.468853 1.77616 0
M  V30 4839 C 442.995 2.97138 2.02359 0
M  V30 4840 C 442.659 4.34104 1.42837 0
M  V30 4841 C 443.656 5.13019 0.843071 0
M  V30 4842 C 441.341 4.80765 1.455 0
M  V30 4843 C 443.335 6.36729 0.292333 0
M  V30 4844 C 441.022 6.0443 0.900402 0
M  V30 4845 C 442.02 6.8225 0.32007 0
M  V30 4846 O 441.708 8.03582 -0.226031 0
M  V30 4847 H 441.44 0.602431 0.306681 0
M  V30 4848 H 443.994 2.03097 0.306701 0
M  V30 4849 H 442.224 2.6945 2.77369 0
M  V30 4850 H 443.913 3.08907 2.63309 0
M  V30 4851 H 444.679 4.781 0.815178 0
M  V30 4852 H 440.558 4.20202 1.89609 0
M  V30 4853 H 444.102 6.97414 -0.161274 0
M  V30 4854 H 439.999 6.3883 0.925541 0
M  V30 4855 H 440.767 8.18418 -0.115572 0
M  V30 4856 N 443.43 -0.535701 1.48216 0
M  V30 4857 C 444.378 -1.66179 1.62749 0
M  V30 4858 C 445.372 -1.62034 0.49409 0
M  V30 4859 O 446.578 -1.6696 0.672624 0
M  V30 4860 H 442.953 -0.550244 0.512578 0
M  V30 4861 H 444.924 -1.51063 2.57337 0
M  V30 4862 C 443.673 -3.04471 1.67907 0
M  V30 4863 H 442.996 -3.08351 2.54479 0
M  V30 4864 H 444.436 -3.82894 1.82121 0
M  V30 4865 C 442.895 -3.34314 0.416596 0
M  V30 4866 O 443.425 -3.98905 -0.473014 0
M  V30 4867 N 441.631 -2.89149 0.290038 0
M  V30 4868 H 441.178 -2.36764 1.01493 0
M  V30 4869 H 441.136 -3.09486 -0.55367 0
M  V30 4870 N 444.908 -1.36708 -0.784132 0
M  V30 4871 C 446.156 -1.30972 -1.53918 0
M  V30 4872 C 446.477 0.109086 -1.94695 0
M  V30 4873 O 445.747 1.05048 -1.65353 0
M  V30 4874 H 444.327 -0.481819 -0.570841 0
M  V30 4875 H 446.989 -1.71063 -0.934002 0
M  V30 4876 H 446.085 -1.94061 -2.44431 0
M  V30 4877 N 446.386 1.0089 -1.21074 0
M  V30 4878 C 447.614 1.78191 -1.05145 0
M  V30 4879 C 448.029 1.84537 0.398952 0
M  V30 4880 O 447.386 1.30393 1.27687 0
M  V30 4881 C 447.437 3.22288 -1.63746 0
M  V30 4882 O 447.158 3.16315 -3.03111 0
M  V30 4883 C 448.659 4.16106 -1.52875 0
M  V30 4884 H 445.879 0.560129 -0.369454 0
M  V30 4885 H 448.423 1.26945 -1.60328 0
M  V30 4886 H 446.578 3.70655 -1.12664 0
M  V30 4887 H 446.992 4.06817 -3.31059 0
M  V30 4888 H 448.466 5.15026 -1.98626 0
M  V30 4889 H 448.943 4.36541 -0.482521 0
M  V30 4890 H 449.549 3.73625 -2.03185 0
M  V30 4891 N 447.864 1.01787 1.20321 0
M  V30 4892 C 448.794 0.609625 2.25401 0
M  V30 4893 C 449.775 -0.375951 1.65893 0
M  V30 4894 O 450.96 -0.261101 1.92437 0
M  V30 4895 C 448.09 -0.0515995 3.47262 0
M  V30 4896 C 447.044 0.855095 4.19371 0
M  V30 4897 C 446.37 0.0595757 5.34667 0
M  V30 4898 C 447.67 2.16374 4.75373 0
M  V30 4899 H 449.364 1.48803 2.59804 0
M  V30 4900 H 446.91 0.716934 1.24884 0
M  V30 4901 H 448.863 -0.348764 4.19954 0
M  V30 4902 H 447.587 -0.964726 3.12027 0
M  V30 4903 H 446.246 1.13628 3.48546 0
M  V30 4904 H 445.894 -0.85524 4.95676 0
M  V30 4905 H 445.594 0.663406 5.83843 0
M  V30 4906 H 447.118 -0.231105 6.10162 0
M  V30 4907 H 448.532 1.92885 5.39878 0
M  V30 4908 H 446.929 2.71853 5.34991 0
M  V30 4909 H 447.999 2.82589 3.94045 0
M  V30 4910 N 449.342 -1.36122 0.79427 0
M  V30 4911 C 450.591 -1.98361 0.365464 0
M  V30 4912 C 450.904 -1.6374 -1.06997 0
M  V30 4913 O 452.11 -2.19251 -1.60129 0
M  V30 4914 C 450.566 -3.54821 0.602496 0
M  V30 4915 C 450.174 -3.98362 2.04967 0
M  V30 4916 C 451.918 -4.2383 0.238437 0
M  V30 4917 C 449.825 -5.47619 2.2331 0
M  V30 4918 H 448.755 -0.742193 0.13291 0
M  V30 4919 H 451.406 -1.55354 0.976589 0
M  V30 4920 H 449.788 -3.95922 -0.078409 0
M  V30 4921 H 450.962 -3.68447 2.76737 0
M  V30 4922 H 449.277 -3.42206 2.37243 0
M  V30 4923 H 451.874 -5.33529 0.353705 0
M  V30 4924 H 452.217 -4.08264 -0.814006 0
M  V30 4925 H 452.75 -3.88108 0.872769 0
M  V30 4926 H 449.489 -5.68138 3.26955 0
M  V30 4927 H 449.009 -5.79145 1.5605 0
M  V30 4928 H 450.688 -6.13911 2.0426 0
M  V30 4929 N 450.82 -0.546701 -1.47814 0
M  V30 4930 C 451.768 0.220048 -2.31557 0
M  V30 4931 C 452.762 0.919472 -1.42275 0
M  V30 4932 O 453.968 0.841953 -1.59095 0
M  V30 4933 H 450.343 0.0898334 -0.746615 0
M  V30 4934 H 452.314 -0.505589 -2.94086 0
M  V30 4935 C 451.063 1.24353 -3.24702 0
M  V30 4936 H 450.386 0.714758 -3.93359 0
M  V30 4937 H 451.826 1.75112 -3.8615 0
M  V30 4938 C 450.285 2.28593 -2.47481 0
M  V30 4939 O 450.815 3.35334 -2.21165 0
M  V30 4940 N 449.021 2.02244 -2.08676 0
M  V30 4941 H 448.568 1.15455 -2.30278 0
M  V30 4942 H 448.526 2.72207 -1.57323 0
M  V30 4943 N 452.299 1.55045 -0.282633 0
M  V30 4944 C 453.209 2.26491 0.61147 0
M  V30 4945 C 454.225 1.29348 1.16384 0
M  V30 4946 O 455.401 1.62298 1.19253 0
M  V30 4947 C 452.466 2.97779 1.77563 0
M  V30 4948 C 451.527 4.10418 1.25919 0
M  V30 4949 C 450.76 4.78297 2.36786 0
M  V30 4950 O 450.983 4.45426 3.56303 0
M  V30 4951 O 449.917 5.66089 2.04517 0
M  V30 4952 H 453.743 3.03683 0.0324615 0
M  V30 4953 H 451.328 1.49317 -0.0497576 0
M  V30 4954 H 453.21 3.42554 2.45427 0
M  V30 4955 H 451.885 2.23498 2.34159 0
M  V30 4956 H 450.792 3.70082 0.546797 0
M  V30 4957 H 452.125 4.86622 0.738887 0
M  V30 4958 N 453.777 0.010035 1.57597 0
M  V30 4959 C 455.005 -0.683413 1.95287 0
M  V30 4960 C 455.42 -1.66747 0.885481 0
M  V30 4961 O 454.777 -1.82003 -0.134629 0
M  V30 4962 C 454.828 -1.40652 3.33015 0
M  V30 4963 O 454.549 -0.461916 4.35658 0
M  V30 4964 C 456.05 -2.19356 3.85225 0
M  V30 4965 H 453.27 -0.189708 0.643624 0
M  V30 4966 H 455.814 0.0641359 2.04399 0
M  V30 4967 H 453.969 -2.10562 3.2518 0
M  V30 4968 H 454.383 -0.973215 5.15392 0
M  V30 4969 H 455.857 -2.65433 4.83993 0
M  V30 4970 H 456.334 -3.02457 3.18459 0
M  V30 4971 H 456.94 -1.54442 3.96267 0
M  V30 4972 N 455.255 -1.55392 -0.262866 0
M  V30 4973 C 456.501 -1.76737 -0.99458 0
M  V30 4974 C 456.834 -0.572453 -1.85571 0
M  V30 4975 O 456.109 0.429732 -1.89693 0
M  V30 4976 C 456.392 -3.07824 -1.8686 0
M  V30 4977 C 456.245 -4.3769 -1.03672 0
M  V30 4978 C 457.564 -3.35021 -2.85393 0
M  V30 4979 H 454.683 -0.643005 -0.360157 0
M  V30 4980 H 457.325 -1.88126 -0.266216 0
M  V30 4981 H 455.475 -2.98245 -2.48962 0
M  V30 4982 H 457.147 -4.59238 -0.43563 0
M  V30 4983 H 455.39 -4.32461 -0.340513 0
M  V30 4984 H 456.061 -5.25759 -1.6817 0
M  V30 4985 H 458.537 -3.44458 -2.33426 0
M  V30 4986 H 457.413 -4.27989 -3.43681 0
M  V30 4987 H 457.674 -2.55153 -3.61039 0
M  V30 4988 N 456.733 0.527833 -1.48498 0
M  V30 4989 C 457.98 1.28354 -1.56625 0
M  V30 4990 C 458.308 1.93 -0.241096 0
M  V30 4991 O 457.563 1.79967 0.768798 0
M  V30 4992 C 457.862 2.39275 -2.65485 0
M  V30 4993 C 457.528 1.92268 -4.07853 0
M  V30 4994 C 456.19 1.79166 -4.46602 0
M  V30 4995 C 458.542 1.56771 -4.97064 0
M  V30 4996 C 455.87 1.28905 -5.72364 0
M  V30 4997 C 458.222 1.07972 -6.23318 0
M  V30 4998 C 456.886 0.934887 -6.60921 0
M  V30 4999 H 456.156 0.469682 -0.573131 0
M  V30 5000 H 458.803 0.588781 -1.82224 0
M  V30 5001 H 457.108 3.1443 -2.33754 0
M  V30 5002 H 458.805 2.974 -2.68988 0
M  V30 5003 H 455.395 2.03417 -3.77252 0
M  V30 5004 H 459.579 1.65753 -4.67803 0
M  V30 5005 H 454.835 1.16381 -6.00221 0
M  V30 5006 H 459.009 0.795775 -6.91838 0
M  V30 5007 H 456.636 0.543231 -7.58257 0
M  V30 5008 N 458.211 1.37122 0.776871 0
M  V30 5009 C 459.121 1.34651 1.9211 0
M  V30 5010 C 460.137 0.246824 1.7224 0
M  V30 5011 O 461.313 0.48134 1.95563 0
M  V30 5012 C 458.378 1.14748 3.2716 0
M  V30 5013 C 457.439 2.34308 3.5972 0
M  V30 5014 C 456.672 2.15345 4.88326 0
M  V30 5015 O 456.895 1.13507 5.58992 0
M  V30 5016 O 455.829 3.03414 5.1983 0
M  V30 5017 H 459.655 2.31013 1.97146 0
M  V30 5018 H 457.24 1.17799 0.918901 0
M  V30 5019 H 459.122 1.05616 4.0795 0
M  V30 5020 H 457.797 0.214562 3.22988 0
M  V30 5021 H 456.704 2.49011 2.79185 0
M  V30 5022 H 458.037 3.26149 3.68629 0
M  V30 5023 N 459.689 -1.00246 1.21608 0
M  V30 5024 C 460.936 -1.74061 1.03485 0
M  V30 5025 C 461.264 -1.89658 -0.431308 0
M  V30 5026 O 460.519 -1.42976 -1.33627 0
M  V30 5027 C 460.818 -3.15448 1.68009 0
M  V30 5028 C 460.484 -3.19792 3.17874 0
M  V30 5029 C 459.146 -3.20685 3.58768 0
M  V30 5030 C 461.498 -3.16835 4.13842 0
M  V30 5031 C 458.826 -3.16309 4.94131 0
M  V30 5032 C 461.178 -3.14001 5.49169 0
M  V30 5033 C 459.842 -3.13204 5.89457 0
M  V30 5034 H 459.112 -0.636934 0.378677 0
M  V30 5035 H 461.759 -1.17473 1.51236 0
M  V30 5036 H 460.064 -3.75284 1.12557 0
M  V30 5037 H 461.761 -3.71285 1.51487 0
M  V30 5038 H 458.351 -3.19842 2.85305 0
M  V30 5039 H 462.535 -3.15303 3.83272 0
M  V30 5040 H 457.791 -3.14032 5.24589 0
M  V30 5041 H 461.965 -3.10667 6.23265 0
M  V30 5042 H 459.592 -3.09568 6.94314 0
M  V30 5043 N 461.167 -1.02423 -1.1978 0
M  V30 5044 C 462.444 -0.632802 -1.85081 0
M  V30 5045 C 462.824 0.888745 -1.9148 0
M  V30 5046 O 462.172 1.78357 -1.42832 0
M  V30 5047 C 462.382 -1.28947 -3.24305 0
M  V30 5048 C 463.73 -1.40976 -4.00513 0
M  V30 5049 O 464.754 -1.24628 -3.33686 0
M  V30 5050 O 463.613 -1.67467 -5.20209 0
M  V30 5051 H 460.707 -0.219348 -0.79738 0
M  V30 5052 H 463.253 -1.12209 -1.27307 0
M  V30 5053 H 462.025 -2.3288 -3.14456 0
M  V30 5054 H 461.648 -0.787748 -3.89718 0
M  V30 5055 N 462.645 1.35699 -0.801477 0
M  V30 5056 C 463.891 1.99643 -0.389135 0
M  V30 5057 C 464.246 1.62447 1.03095 0
M  V30 5058 O 463.539 0.875064 1.7045 0
M  V30 5059 C 463.733 3.53828 -0.504041 0
M  V30 5060 C 463.562 4.06 -1.93375 0
M  V30 5061 C 462.332 4.35592 -2.561 0
M  V30 5062 C 464.53 4.24905 -2.89759 0
M  V30 5063 N 462.512 4.73663 -3.90534 0
M  V30 5064 C 463.883 4.65914 -4.09052 0
M  V30 5065 C 465.938 4.07101 -2.86658 0
M  V30 5066 C 464.641 4.90984 -5.25669 0
M  V30 5067 C 466.667 4.33324 -4.02472 0
M  V30 5068 C 466.029 4.74601 -5.20512 0
M  V30 5069 H 462.128 0.758552 -0.19006 0
M  V30 5070 H 464.712 1.64493 -1.04164 0
M  V30 5071 H 462.883 3.88219 0.118437 0
M  V30 5072 H 464.615 4.04645 -0.0667794 0
M  V30 5073 H 461.37 4.25728 -2.07492 0
M  V30 5074 H 461.794 4.96965 -4.59734 0
M  V30 5075 H 466.436 3.74335 -1.96552 0
M  V30 5076 H 464.154 5.22626 -6.1635 0
M  V30 5077 H 467.74 4.21107 -4.01447 0
M  V30 5078 H 466.62 4.94497 -6.08639 0
M  V30 5079 N 464.123 0.554532 1.47522 0
M  V30 5080 C 465.07 -0.19466 2.29978 0
M  V30 5081 C 466.04 -0.910882 1.38896 0
M  V30 5082 O 467.225 -0.907102 1.67858 0
M  V30 5083 C 464.365 -1.22035 3.22802 0
M  V30 5084 C 463.478 -0.510474 4.28973 0
M  V30 5085 C 462.613 -1.52123 5.08952 0
M  V30 5086 C 461.652 -0.796173 6.069 0
M  V30 5087 N 460.789 -1.75363 6.79847 0
M  V30 5088 H 465.629 0.51461 2.93523 0
M  V30 5089 H 463.166 0.265607 1.44682 0
M  V30 5090 H 465.124 -1.8276 3.7504 0
M  V30 5091 H 463.754 -1.89769 2.61127 0
M  V30 5092 H 462.806 0.211234 3.79813 0
M  V30 5093 H 464.118 0.0576503 4.98767 0
M  V30 5094 H 463.272 -2.20207 5.65326 0
M  V30 5095 H 462.011 -2.12327 4.39054 0
M  V30 5096 H 461.016 -0.101388 5.49707 0
M  V30 5097 H 462.241 -0.199911 6.78806 0
M  V30 5098 H 460.187 -2.3443 6.12682 0
M  V30 5099 H 460.104 -1.23759 7.45801 0
M  V30 5100 H 461.372 -2.4257 7.40797 0
M  V30 5101 N 465.601 -1.54893 0.290851 0
M  V30 5102 C 466.826 -2.04804 -0.32712 0
M  V30 5103 C 467.251 -1.16721 -1.47506 0
M  V30 5104 O 466.609 -0.169107 -1.8051 0
M  V30 5105 C 466.657 -3.52268 -0.770689 0
M  V30 5106 O 465.761 -3.67236 -1.87647 0
M  V30 5107 H 465.102 -0.660789 -0.0652227 0
M  V30 5108 H 467.632 -2.00036 0.429739 0
M  V30 5109 H 467.642 -3.9393 -1.06223 0
M  V30 5110 H 466.317 -4.15843 0.069096 0
M  V30 5111 H 464.894 -3.37479 -1.58626 0
M  V30 5112 N 467.08 -0.0183926 -1.57589 0
M  V30 5113 C 468.31 0.67207 -1.95363 0
M  V30 5114 C 468.718 1.66807 -0.892872 0
M  V30 5115 O 468.061 1.83204 0.134958 0
M  V30 5116 C 468.123 1.44397 -3.29226 0
M  V30 5117 C 467.787 0.607511 -4.52944 0
M  V30 5118 C 468.784 -0.112657 -5.19778 0
M  V30 5119 C 466.469 0.548068 -4.99301 0
M  V30 5120 C 468.463 -0.881057 -6.31281 0
M  V30 5121 C 466.15 -0.224044 -6.10689 0
M  V30 5122 C 467.148 -0.937323 -6.76538 0
M  V30 5123 O 466.836 -1.6968 -7.85789 0
M  V30 5124 H 466.568 0.190925 -0.648478 0
M  V30 5125 H 469.122 -0.0711994 -2.05277 0
M  V30 5126 H 467.352 2.23214 -3.15773 0
M  V30 5127 H 469.041 2.02152 -3.51979 0
M  V30 5128 H 469.807 -0.0759998 -4.8494 0
M  V30 5129 H 465.686 1.09281 -4.4786 0
M  V30 5130 H 469.23 -1.43832 -6.82611 0
M  V30 5131 H 465.127 -0.262457 -6.44966 0
M  V30 5132 H 465.895 -1.61544 -8.024 0
M  V30 5133 N 468.558 1.5553 0.254621 0
M  V30 5134 C 469.807 1.76202 0.981612 0
M  V30 5135 C 470.12 0.580883 1.86776 0
M  V30 5136 O 471.326 0.670448 2.63092 0
M  V30 5137 C 469.782 3.11921 1.79537 0
M  V30 5138 C 469.39 4.37659 0.956991 0
M  V30 5139 C 471.134 3.41936 2.51555 0
M  V30 5140 C 469.041 5.64411 1.76619 0
M  V30 5141 H 467.971 0.656841 0.370237 0
M  V30 5142 H 470.622 1.81969 0.236556 0
M  V30 5143 H 469.004 3.00241 2.58208 0
M  V30 5144 H 470.178 4.60307 0.21315 0
M  V30 5145 H 468.493 4.14922 0.350497 0
M  V30 5146 H 471.09 4.33849 3.12536 0
M  V30 5147 H 471.433 2.62905 3.22779 0
M  V30 5148 H 471.966 3.54797 1.799 0
M  V30 5149 H 468.705 6.46241 1.09783 0
M  V30 5150 H 468.225 5.45877 2.48551 0
M  V30 5151 H 469.904 6.03386 2.33527 0
M  V30 5152 N 470.036 -0.519951 1.48776 0
M  V30 5153 C 470.968 -1.63973 1.60142 0
M  V30 5154 C 471.981 -1.55404 0.485117 0
M  V30 5155 O 473.17 -1.61682 0.756391 0
M  V30 5156 C 470.27 -3.02676 1.52449 0
M  V30 5157 C 469.443 -3.36624 2.79291 0
M  V30 5158 C 468.502 -4.54652 2.64912 0
M  V30 5159 O 467.528 -4.57374 3.38818 0
M  V30 5160 N 468.73 -5.53432 1.75195 0
M  V30 5161 H 471.495 -1.54656 2.56713 0
M  V30 5162 H 469.056 -0.707439 1.45626 0
M  V30 5163 H 471.048 -3.79525 1.4051 0
M  V30 5164 H 469.618 -3.06018 0.638125 0
M  V30 5165 H 468.838 -2.48855 3.0572 0
M  V30 5166 H 470.126 -3.56094 3.6342 0
M  V30 5167 H 469.524 -5.54018 1.14371 0
M  V30 5168 H 468.081 -6.29459 1.69189 0
M  V30 5169 N 471.514 -1.37532 -0.769588 0
M  V30 5170 C 472.791 -1.23392 -1.51768 0
M  V30 5171 C 473.171 0.17157 -2.10402 0
M  V30 5172 O 472.519 1.17943 -1.95708 0
M  V30 5173 C 472.729 -2.33163 -2.59685 0
M  V30 5174 C 474.077 -2.70809 -3.27028 0
M  V30 5175 O 475.101 -2.32355 -2.69981 0
M  V30 5176 O 473.96 -3.37066 -4.30173 0
M  V30 5177 H 471.054 -0.481617 -0.67229 0
M  V30 5178 H 473.6 -1.49318 -0.806368 0
M  V30 5179 H 472.372 -3.27273 -2.14494 0
M  V30 5180 H 471.995 -2.08713 -3.38415 0
M  V30 5181 N 472.992 0.995999 -1.22138 0
M  V30 5182 C 474.217 1.77601 -1.0711 0
M  V30 5183 C 474.642 1.84339 0.374264 0
M  V30 5184 O 474 1.29359 1.27028 0
M  V30 5185 C 474.048 3.18897 -1.68336 0
M  V30 5186 O 473.152 4.01663 -0.934928 0
M  V30 5187 H 472.493 0.547011 -0.376397 0
M  V30 5188 H 475.023 1.25137 -1.6187 0
M  V30 5189 H 475.033 3.69539 -1.72931 0
M  V30 5190 H 473.708 3.13308 -2.73516 0
M  V30 5191 H 472.285 3.60204 -0.964751 0
M  V30 5192 N 474.47 1.03057 1.19235 0
M  V30 5193 C 475.886 0.747947 1.40989 0
M  V30 5194 C 476.086 -0.666752 1.90149 0
M  V30 5195 O 475.142 -1.43249 2.07933 0
M  V30 5196 C 476.455 1.7855 2.41951 0
M  V30 5197 C 478.003 1.80524 2.55695 0
M  V30 5198 C 478.478 2.83243 3.59913 0
M  V30 5199 N 479.969 2.8207 3.67411 0
M  V30 5200 C 480.704 3.58204 4.47747 0
M  V30 5201 N 480.2 4.44057 5.31775 0
M  V30 5202 N 481.993 3.46738 4.42413 0
M  V30 5203 H 474.144 1.94367 0.856468 0
M  V30 5204 H 476.407 0.840412 0.438647 0
M  V30 5205 H 476.113 2.79973 2.12857 0
M  V30 5206 H 475.987 1.6092 3.41152 0
M  V30 5207 H 478.374 0.79778 2.84112 0
M  V30 5208 H 478.455 2.02229 1.56643 0
M  V30 5209 H 478.099 3.84161 3.32239 0
M  V30 5210 H 478.029 2.58795 4.5862 0
M  V30 5211 H 480.52 2.19803 3.074 0
M  V30 5212 H 480.833 4.98884 5.90199 0
M  V30 5213 H 479.178 4.48129 5.3123 0
M  V30 5214 H 482.369 2.79077 3.75811 0
M  V30 5215 H 482.542 4.06322 5.04783 0
M  V30 5216 N 475.948 -1.35272 0.808662 0
M  V30 5217 C 477.178 -2.02652 0.401953 0
M  V30 5218 C 477.586 -1.6108 -0.992462 0
M  V30 5219 O 476.929 -0.804984 -1.65123 0
M  V30 5220 C 476.991 -3.57174 0.408246 0
M  V30 5221 C 476.655 -4.22019 1.75353 0
M  V30 5222 C 477.652 -4.43552 2.71215 0
M  V30 5223 C 475.337 -4.59093 2.03811 0
M  V30 5224 C 477.331 -5.01264 3.93717 0
M  V30 5225 C 475.018 -5.16519 3.26576 0
M  V30 5226 C 476.016 -5.37546 4.21347 0
M  V30 5227 O 475.704 -5.93761 5.41944 0
M  V30 5228 H 475.436 -0.656495 0.161216 0
M  V30 5229 H 477.99 -1.73829 1.0942 0
M  V30 5230 H 476.22 -3.85197 -0.340608 0
M  V30 5231 H 477.909 -4.05893 0.0235623 0
M  V30 5232 H 478.675 -4.15288 2.50522 0
M  V30 5233 H 474.554 -4.42039 1.30854 0
M  V30 5234 H 478.098 -5.17592 4.67701 0
M  V30 5235 H 473.995 -5.4421 3.47139 0
M  V30 5236 H 474.763 -6.1221 5.43269 0
M  V30 5237 N 477.426 -0.562348 -1.47226 0
M  V30 5238 C 478.376 0.202967 -2.27095 0
M  V30 5239 C 479.36 0.880611 -1.34663 0
M  V30 5240 O 480.552 0.778069 -1.58981 0
M  V30 5241 C 477.681 1.22906 -3.20545 0
M  V30 5242 C 476.767 0.554566 -4.20459 0
M  V30 5243 N 477.158 -0.378295 -5.04383 0
M  V30 5244 C 475.456 0.807854 -4.38623 0
M  V30 5245 C 476.157 -0.770583 -5.76573 0
M  V30 5246 N 475.133 -0.124263 -5.43458 0
M  V30 5247 H 478.935 -0.514196 -2.89367 0
M  V30 5248 H 476.449 -0.382655 -1.57827 0
M  V30 5249 H 478.446 1.79134 -3.76453 0
M  V30 5250 H 477.106 1.94726 -2.59831 0
M  V30 5251 H 478.117 -0.75274 -5.124 0
M  V30 5252 H 474.794 1.51418 -3.89075 0
M  V30 5253 H 476.184 -1.53742 -6.54074 0
M  V30 5254 N 478.904 1.54736 -0.299062 0
M  V30 5255 C 480.134 2.04215 0.312992 0
M  V30 5256 C 480.542 1.17596 1.48215 0
M  V30 5257 O 479.885 0.193835 1.82674 0
M  V30 5258 C 479.947 3.49696 0.833862 0
M  V30 5259 C 479.611 4.56518 -0.20977 0
M  V30 5260 C 480.608 5.09442 -1.03756 0
M  V30 5261 C 478.293 5.01073 -0.35091 0
M  V30 5262 C 480.287 6.05459 -1.99244 0
M  V30 5263 C 477.974 5.9691 -1.30924 0
M  V30 5264 C 478.972 6.48987 -2.1285 0
M  V30 5265 O 478.66 7.42947 -3.07059 0
M  V30 5266 H 478.392 0.672128 0.0722494 0
M  V30 5267 H 480.946 2.00718 -0.436043 0
M  V30 5268 H 479.176 3.5051 1.63339 0
M  V30 5269 H 480.865 3.82381 1.36159 0
M  V30 5270 H 481.631 4.75816 -0.939376 0
M  V30 5271 H 477.51 4.60168 0.276813 0
M  V30 5272 H 481.054 6.46031 -2.63229 0
M  V30 5273 H 476.951 6.29953 -1.40815 0
M  V30 5274 H 477.719 7.60743 -3.02015 0
M  V30 5275 N 480.382 0.0267497 1.57577 0
M  V30 5276 C 481.629 -0.652404 1.91703 0
M  V30 5277 C 481.957 -1.72271 0.902936 0
M  V30 5278 O 481.212 -1.955 -0.0884843 0
M  V30 5279 C 481.511 -1.30914 3.3256 0
M  V30 5280 C 481.177 -0.369441 4.49384 0
M  V30 5281 C 479.839 -0.110791 4.81072 0
M  V30 5282 C 482.191 0.275971 5.20469 0
M  V30 5283 C 479.519 0.801116 5.81205 0
M  V30 5284 C 481.871 1.17592 6.21575 0
M  V30 5285 C 480.535 1.44348 6.51705 0
M  V30 5286 H 479.805 -0.238732 0.70149 0
M  V30 5287 H 482.452 0.0880091 1.91298 0
M  V30 5288 H 480.757 -2.12425 3.29216 0
M  V30 5289 H 482.454 -1.84115 3.56234 0
M  V30 5290 H 479.044 -0.581211 4.24641 0
M  V30 5291 H 483.228 0.0892 4.9622 0
M  V30 5292 H 478.484 1.01614 6.02897 0
M  V30 5293 H 482.658 1.68223 6.75777 0
M  V30 5294 H 480.285 2.15176 7.29111 0
M  V30 5295 N 481.861 -1.55662 -0.24637 0
M  V30 5296 C 482.791 -1.93377 -1.30873 0
M  V30 5297 C 483.772 -0.798773 -1.50179 0
M  V30 5298 O 484.957 -1.0591 -1.62778 0
M  V30 5299 C 482.087 -2.22893 -2.66338 0
M  V30 5300 C 481.041 -3.38649 -2.61727 0
M  V30 5301 C 480.367 -3.53708 -4.00992 0
M  V30 5302 C 481.667 -4.74323 -2.18666 0
M  V30 5303 H 483.361 -2.82363 -0.995552 0
M  V30 5304 H 480.907 -1.35854 -0.477464 0
M  V30 5305 H 482.86 -2.47866 -3.40794 0
M  V30 5306 H 481.584 -1.30733 -2.99293 0
M  V30 5307 H 480.243 -3.13685 -1.89729 0
M  V30 5308 H 479.891 -2.58967 -4.31214 0
M  V30 5309 H 479.591 -4.31551 -3.98795 0
M  V30 5310 H 481.115 -3.81003 -4.77147 0
M  V30 5311 H 482.529 -4.98665 -2.82854 0
M  V30 5312 H 480.926 -5.55273 -2.27579 0
M  V30 5313 H 481.996 -4.71349 -1.13834 0
M  V30 5314 N 483.339 0.512053 -1.4905 0
M  V30 5315 C 484.249 1.64139 -1.67617 0
M  V30 5316 C 485.265 1.64786 -0.558701 0
M  V30 5317 O 486.441 1.8341 -0.832034 0
M  V30 5318 C 483.506 3.00548 -1.72835 0
M  V30 5319 C 482.567 3.10615 -2.96339 0
M  V30 5320 C 481.8 4.40517 -3.01298 0
M  V30 5321 O 482.023 5.28671 -2.14157 0
M  V30 5322 O 480.957 4.55325 -3.93653 0
M  V30 5323 H 484.783 1.51407 -2.63267 0
M  V30 5324 H 482.368 0.687131 -1.32661 0
M  V30 5325 H 484.25 3.81641 -1.78683 0
M  V30 5326 H 482.925 3.13566 -0.803616 0
M  V30 5327 H 481.832 2.2875 -2.96014 0
M  V30 5328 H 483.165 3.0252 -3.88256 0
M  V30 5329 N 484.817 1.37938 0.762283 0
M  V30 5330 C 486.065 1.33404 1.51815 0
M  V30 5331 C 486.386 -0.0780975 1.94844 0
M  V30 5332 O 485.656 -1.02405 1.67003 0
M  V30 5333 H 484.236 0.490839 0.563104 0
M  V30 5334 H 486.898 1.72527 0.906669 0
M  V30 5335 H 485.994 1.97926 2.41313 0
M  V30 5336 N 486.295 -0.989507 1.22664 0
M  V30 5337 C 487.542 -1.72953 1.05325 0
M  V30 5338 C 487.87 -1.90104 -0.411168 0
M  V30 5339 O 487.125 -1.44386 -1.32103 0
M  V30 5340 C 487.424 -3.13649 1.71345 0
M  V30 5341 C 487.09 -3.16403 3.21248 0
M  V30 5342 C 485.752 -3.16862 3.62149 0
M  V30 5343 C 488.104 -3.12428 4.17179 0
M  V30 5344 C 485.432 -3.11051 4.97458 0
M  V30 5345 C 487.784 -3.08159 5.52468 0
M  V30 5346 C 486.448 -3.06935 5.92746 0
M  V30 5347 H 485.718 -0.632881 0.385412 0
M  V30 5348 H 488.365 -1.15863 1.52473 0
M  V30 5349 H 486.67 -3.74069 1.16532 0
M  V30 5350 H 488.367 -3.69658 1.55416 0
M  V30 5351 H 484.957 -3.16798 2.88682 0
M  V30 5352 H 489.141 -3.11221 3.86595 0
M  V30 5353 H 484.397 -3.0845 5.27891 0
M  V30 5354 H 488.571 -3.04039 6.26525 0
M  V30 5355 H 486.198 -3.02186 6.97558 0
M  V30 5356 N 487.773 -1.03688 -1.18687 0
M  V30 5357 C 488.703 -0.645407 -2.24403 0
M  V30 5358 C 489.684 0.349511 -1.66471 0
M  V30 5359 O 490.869 0.230453 -1.92828 0
M  V30 5360 C 487.999 -0.00365337 -3.473 0
M  V30 5361 C 486.953 -0.921705 -4.17958 0
M  V30 5362 C 486.279 -0.144629 -5.34504 0
M  V30 5363 C 487.579 -2.23909 -4.71871 0
M  V30 5364 H 489.273 -1.52917 -2.57404 0
M  V30 5365 H 486.819 -0.736711 -1.23728 0
M  V30 5366 H 488.772 0.281908 -4.20456 0
M  V30 5367 H 487.496 0.914963 -3.13522 0
M  V30 5368 H 486.155 -1.19159 -3.46694 0
M  V30 5369 H 485.803 0.776274 -4.96974 0
M  V30 5370 H 485.503 -0.756206 -5.82714 0
M  V30 5371 H 487.027 0.134004 -6.10453 0
M  V30 5372 H 488.441 -2.0145 -5.36741 0
M  V30 5373 H 486.838 -2.8033 -5.30599 0
M  V30 5374 H 487.908 -2.88822 -3.895 0
M  V30 5375 N 489.251 1.34841 -0.815825 0
M  V30 5376 C 490.528 1.92908 -0.323416 0
M  V30 5377 C 490.908 1.74479 1.18828 0
M  V30 5378 O 490.256 1.11928 1.99209 0
M  V30 5379 C 490.466 3.40957 -0.744952 0
M  V30 5380 C 491.814 4.18107 -0.739716 0
M  V30 5381 O 492.838 3.49511 -0.68708 0
M  V30 5382 O 491.697 5.40517 -0.806456 0
M  V30 5383 H 488.791 0.822436 -0.0867646 0
M  V30 5384 H 491.337 1.4386 -0.90014 0
M  V30 5385 H 490.109 3.4814 -1.78646 0
M  V30 5386 H 489.732 3.97341 -0.143535 0
M  V30 5387 N 490.729 0.570148 1.46925 0
M  V30 5388 C 491.692 -0.159933 2.28641 0
M  V30 5389 C 492.692 -0.830638 1.37685 0
M  V30 5390 O 493.882 -0.684516 1.60187 0
M  V30 5391 C 491.014 -1.2354 3.17727 0
M  V30 5392 H 492.207 0.558035 2.94662 0
M  V30 5393 H 489.76 0.327603 1.52828 0
M  V30 5394 H 490.495 -1.98535 2.56426 0
M  V30 5395 H 490.28 -0.759125 3.84681 0
M  V30 5396 H 491.77 -1.74782 3.79264 0
M  V30 5397 N 492.207 -1.54576 0.307264 0
M  V30 5398 C 493.137 -2.26708 -0.55907 0
M  V30 5399 C 494.118 -1.26893 -1.1328 0
M  V30 5400 O 495.303 -1.55677 -1.16097 0
M  V30 5401 C 492.433 -3.01259 -1.72801 0
M  V30 5402 C 491.387 -4.08275 -1.28435 0
M  V30 5403 C 490.713 -4.70575 -2.53895 0
M  V30 5404 C 492.013 -5.2068 -0.411038 0
M  V30 5405 H 493.707 -2.9937 0.042576 0
M  V30 5406 H 491.253 -1.43983 0.0219173 0
M  V30 5407 H 493.206 -3.50444 -2.34023 0
M  V30 5408 H 491.93 -2.26187 -2.356 0
M  V30 5409 H 490.589 -3.59949 -0.695161 0
M  V30 5410 H 490.237 -3.92136 -3.15021 0
M  V30 5411 H 489.937 -5.42854 -2.24908 0
M  V30 5412 H 491.461 -5.22527 -3.15908 0
M  V30 5413 H 492.875 -5.65721 -0.929097 0
M  V30 5414 H 491.272 -5.99716 -0.214664 0
M  V30 5415 H 492.342 -4.81629 0.562287 0
M  V30 5416 N 493.685 -0.035106 -1.57561 0
M  V30 5417 C 494.615 0.942993 -2.13612 0
M  V30 5418 C 495.596 1.33531 -1.05373 0
M  V30 5419 O 496.781 1.41287 -1.33235 0
M  V30 5420 C 493.911 2.22332 -2.66807 0
M  V30 5421 C 492.865 1.97156 -3.79886 0
M  V30 5422 C 492.191 3.31506 -4.19533 0
M  V30 5423 C 493.491 1.30596 -5.05709 0
M  V30 5424 H 495.185 0.476179 -2.95589 0
M  V30 5425 H 492.731 0.227602 -1.4219 0
M  V30 5426 H 494.684 2.91142 -3.04654 0
M  V30 5427 H 493.408 2.7119 -1.81999 0
M  V30 5428 H 492.067 1.30763 -3.42486 0
M  V30 5429 H 491.715 3.78134 -3.31698 0
M  V30 5430 H 491.415 3.15465 -4.95738 0
M  V30 5431 H 492.939 4.01574 -4.59968 0
M  V30 5432 H 494.353 1.89416 -5.41105 0
M  V30 5433 H 492.75 1.24934 -5.86951 0
M  V30 5434 H 493.82 0.279742 -4.84092 0
M  V30 5435 N 495.163 1.55791 0.238111 0
M  V30 5436 C 496.403 1.79801 0.972163 0
M  V30 5437 C 496.767 0.606027 1.82185 0
M  V30 5438 O 497.968 0.725079 2.58836 0
M  V30 5439 C 496.239 3.08608 1.80266 0
M  V30 5440 S 497.798 3.53872 2.59461 0
M  V30 5441 H 494.616 0.631418 0.326852 0
M  V30 5442 H 497.218 1.94031 0.239212 0
M  V30 5443 H 495.922 3.93419 1.1683 0
M  V30 5444 H 495.453 2.9714 2.57821 0
M  V30 5445 H 497.468 3.15899 3.82651 0
M  V30 5446 N 496.642 -0.504142 1.49319 0
M  V30 5447 C 497.89 -1.25598 1.58334 0
M  V30 5448 C 498.211 -1.93114 0.270538 0
M  V30 5449 O 497.481 -1.82585 -0.709891 0
M  V30 5450 H 496.061 -0.466571 0.58337 0
M  V30 5451 H 498.723 -0.584547 1.85928 0
M  V30 5452 H 497.819 -2.02159 2.37778 0
M  V30 5453 N 498.12 -1.38341 -0.754957 0
M  V30 5454 C 499.068 -1.35573 -1.89005 0
M  V30 5455 C 500.062 -0.241824 -1.67665 0
M  V30 5456 O 501.268 -0.410785 -1.7525 0
M  V30 5457 H 497.643 -0.422898 -0.621821 0
M  V30 5458 H 499.614 -2.31359 -1.88455 0
M  V30 5459 C 498.363 -1.19631 -3.26471 0
M  V30 5460 H 497.686 -2.04605 -3.43477 0
M  V30 5461 H 499.126 -1.21748 -4.06144 0
M  V30 5462 C 497.585 0.0968705 -3.36761 0
M  V30 5463 O 498.115 1.07439 -3.87066 0
M  V30 5464 N 496.321 0.153242 -2.90196 0
M  V30 5465 H 495.868 -0.642908 -2.49448 0
M  V30 5466 H 495.826 1.01807 -2.9746 0
M  V30 5467 N 499.598 0.982988 -1.23187 0
M  V30 5468 C 500.823 1.76455 -1.08988 0
M  V30 5469 C 501.248 1.84726 0.354691 0
M  V30 5470 O 500.606 1.30699 1.25649 0
M  V30 5471 C 500.654 3.17094 -1.71708 0
M  V30 5472 O 499.758 4.00648 -0.977477 0
M  V30 5473 H 499.099 0.542988 -0.382177 0
M  V30 5474 H 501.629 1.23413 -1.63188 0
M  V30 5475 H 501.639 3.67684 -1.76841 0
M  V30 5476 H 500.314 3.10389 -2.76823 0
M  V30 5477 H 498.891 3.59161 -1.0029 0
M  V30 5478 N 501.076 1.04316 1.18135 0
M  V30 5479 C 502.301 0.768047 1.92655 0
M  V30 5480 C 502.726 -0.66904 1.758 0
M  V30 5481 O 502.084 -1.46372 1.06981 0
M  V30 5482 C 502.132 1.14239 3.42026 0
M  V30 5483 O 501.236 0.269333 4.1152 0
M  V30 5484 H 500.577 0.282436 0.600937 0
M  V30 5485 H 503.107 1.39367 1.49793 0
M  V30 5486 H 503.117 1.10538 3.92741 0
M  V30 5487 H 501.792 2.18928 3.53615 0
M  V30 5488 H 500.369 0.366175 3.71098 0
M  V30 5489 N 502.554 -1.34406 0.822964 0
M  V30 5490 C 503.831 -1.92733 0.333641 0
M  V30 5491 C 504.211 -1.75107 -1.17901 0
M  V30 5492 O 503.559 -1.12983 -1.98613 0
M  V30 5493 C 503.769 -3.40557 0.763023 0
M  V30 5494 C 505.117 -4.17709 0.761879 0
M  V30 5495 O 506.141 -3.49141 0.705606 0
M  V30 5496 O 505 -5.40082 0.835109 0
M  V30 5497 H 502.094 -0.821964 0.0911249 0
M  V30 5498 H 504.64 -1.4338 0.907757 0
M  V30 5499 H 503.412 -3.47187 1.8049 0
M  V30 5500 H 503.035 -3.97259 0.164605 0
M  V30 5501 N 504.032 -0.577932 -1.46621 0
M  V30 5502 C 504.995 0.147805 -2.28723 0
M  V30 5503 C 505.995 0.823325 -1.38123 0
M  V30 5504 O 507.185 0.676011 -1.60548 0
M  V30 5505 C 504.317 1.21853 -3.18378 0
M  V30 5506 H 505.51 -0.573654 -2.94362 0
M  V30 5507 H 503.063 -0.335703 -1.52652 0
M  V30 5508 H 503.798 1.97173 -2.57475 0
M  V30 5509 H 503.583 0.738714 -3.85078 0
M  V30 5510 H 505.073 1.72768 -3.80186 0
M  V30 5511 N 505.51 1.54411 -0.315457 0
M  V30 5512 C 506.758 2.00023 0.288971 0
M  V30 5513 C 507.079 1.20529 1.5329 0
M  V30 5514 O 506.349 0.304986 1.93511 0
M  V30 5515 H 504.929 0.738891 0.109766 0
M  V30 5516 H 507.591 1.90094 -0.430129 0
M  V30 5517 H 506.687 3.07198 0.550999 0
M  V30 5518 N 506.988 0.0434614 1.5754 0
M  V30 5519 C 507.92 -0.962586 2.08007 0
M  V30 5520 C 508.933 -1.27972 1.00634 0
M  V30 5521 O 510.122 -1.24186 1.28219 0
M  V30 5522 C 507.222 -2.28621 2.50171 0
M  V30 5523 C 506.395 -2.15214 3.80791 0
M  V30 5524 C 505.454 -3.30633 4.09351 0
M  V30 5525 O 504.48 -3.0688 4.79388 0
M  V30 5526 N 505.682 -4.54873 3.60654 0
M  V30 5527 H 508.447 -0.531891 2.94942 0
M  V30 5528 H 506.008 -0.142965 1.61268 0
M  V30 5529 H 508 -3.04689 2.66359 0
M  V30 5530 H 506.57 -2.63283 1.68525 0
M  V30 5531 H 505.79 -1.23785 3.74261 0
M  V30 5532 H 507.078 -2.03475 4.66343 0
M  V30 5533 H 506.476 -4.77063 3.04019 0
M  V30 5534 H 505.033 -5.2806 3.82094 0
M  V30 5535 N 508.466 -1.55915 -0.229846 0
M  V30 5536 C 509.706 -1.80314 -0.962614 0
M  V30 5537 C 510.07 -0.61568 -1.81861 0
M  V30 5538 O 511.271 -0.738795 -2.58448 0
M  V30 5539 C 509.542 -3.0956 -1.78627 0
M  V30 5540 S 511.101 -3.55243 -2.57581 0
M  V30 5541 H 507.919 -0.633142 -0.323499 0
M  V30 5542 H 510.521 -1.94155 -0.228919 0
M  V30 5543 H 509.225 -3.94033 -1.14742 0
M  V30 5544 H 508.756 -2.98503 -2.56241 0
M  V30 5545 H 510.771 -3.17924 -3.80971 0
M  V30 5546 N 509.944 0.496216 -1.49584 0
M  V30 5547 C 511.355 1.07765 -1.52459 0
M  V30 5548 C 511.706 1.93679 -0.31353 0
M  V30 5549 O 510.831 2.08588 0.576186 0
M  V30 5550 C 511.426 1.96111 -2.76271 0
M  V30 5551 C 509.985 2.49409 -2.81908 0
M  V30 5552 C 509.132 1.27142 -2.46435 0
M  V30 5553 H 512.083 0.279914 -1.56212 0
M  V30 5554 H 512.104 2.80862 -2.56704 0
M  V30 5555 H 511.616 1.33555 -3.64396 0
M  V30 5556 H 509.717 3.1559 -1.98074 0
M  V30 5557 H 509.83 2.86234 -3.84196 0
M  V30 5558 H 508.194 1.59818 -1.98319 0
M  V30 5559 H 508.977 0.662866 -3.3684 0
M  V30 5560 N 511.423 1.38739 0.74761 0
M  V30 5561 C 512.333 1.38696 1.89211 0
M  V30 5562 C 513.349 0.283303 1.71678 0
M  V30 5563 O 514.525 0.522713 1.94498 0
M  V30 5564 C 511.59 1.21662 3.24653 0
M  V30 5565 C 510.651 2.41886 3.54669 0
M  V30 5566 C 509.884 2.25655 4.83648 0
M  V30 5567 O 510.107 1.25339 5.56459 0
M  V30 5568 O 509.041 3.14372 5.13277 0
M  V30 5569 H 512.867 2.35143 1.92202 0
M  V30 5570 H 510.452 1.19721 0.893708 0
M  V30 5571 H 512.334 1.14246 4.05618 0
M  V30 5572 H 511.009 0.283024 3.2246 0
M  V30 5573 H 509.916 2.54877 2.73841 0
M  V30 5574 H 511.249 3.33895 3.61628 0
M  V30 5575 N 512.901 -0.976442 1.23707 0
M  V30 5576 C 514.149 -1.71487 1.06942 0
M  V30 5577 C 514.47 -1.9098 -0.393897 0
M  V30 5578 O 513.74 -1.48128 -1.28198 0
M  V30 5579 H 512.32 -0.635425 0.392739 0
M  V30 5580 H 514.982 -1.17515 1.55487 0
M  V30 5581 H 514.078 -2.70286 1.56051 0
M  V30 5582 N 514.379 -1.04941 -1.1758 0
M  V30 5583 C 515.609 -0.777166 -1.91425 0
M  V30 5584 C 516.017 0.670647 -1.76915 0
M  V30 5585 O 515.36 1.46965 -1.10213 0
M  V30 5586 C 515.422 -1.07495 -3.43052 0
M  V30 5587 C 515.086 -2.51844 -3.81345 0
M  V30 5588 C 516.083 -3.50047 -3.844 0
M  V30 5589 C 513.768 -2.86787 -4.12382 0
M  V30 5590 C 515.762 -4.81239 -4.17957 0
M  V30 5591 C 513.449 -4.18182 -4.45608 0
M  V30 5592 C 514.447 -5.15219 -4.48373 0
M  V30 5593 O 514.135 -6.44258 -4.80819 0
M  V30 5594 H 513.867 -0.282209 -0.614275 0
M  V30 5595 H 516.421 -1.40258 -1.50056 0
M  V30 5596 H 514.651 -0.392437 -3.84704 0
M  V30 5597 H 516.34 -0.78912 -3.98155 0
M  V30 5598 H 517.106 -3.24391 -3.60548 0
M  V30 5599 H 512.985 -2.11922 -4.09402 0
M  V30 5600 H 516.529 -5.56974 -4.2003 0
M  V30 5601 H 512.426 -4.43602 -4.68922 0
M  V30 5602 H 513.194 -6.49041 -4.98686 0
M  V30 5603 N 515.857 1.33968 -0.830081 0
M  V30 5604 C 516.79 2.27303 -0.202182 0
M  V30 5605 C 517.768 1.49235 0.645581 0
M  V30 5606 O 518.952 1.78433 0.607762 0
M  V30 5607 C 516.079 3.31025 0.716932 0
M  V30 5608 C 515.125 4.26466 -0.0542271 0
M  V30 5609 S 515.958 5.16707 -1.40622 0
M  V30 5610 C 517.114 6.23962 -0.492167 0
M  V30 5611 H 517.347 2.8021 -0.99346 0
M  V30 5612 H 514.88 1.41124 -0.626359 0
M  V30 5613 H 516.838 3.91271 1.24165 0
M  V30 5614 H 515.499 2.76951 1.4818 0
M  V30 5615 H 514.692 4.99858 0.644785 0
M  V30 5616 H 514.294 3.7051 -0.509722 0
M  V30 5617 H 516.586 6.76774 0.31347 0
M  V30 5618 H 517.529 6.97927 -1.19599 0
M  V30 5619 H 517.937 5.64447 -0.0774176 0
M  V30 5620 N 517.335 0.585699 1.46312 0
M  V30 5621 C 518.575 0.0751432 2.04262 0
M  V30 5622 C 518.939 -1.26201 1.44697 0
M  V30 5623 O 520.14 -1.86198 1.93865 0
M  V30 5624 C 518.411 0.013478 3.57397 0
M  V30 5625 S 519.97 -0.439068 4.36598 0
M  V30 5626 H 516.788 0.0389228 0.709934 0
M  V30 5627 H 519.39 0.778871 1.79315 0
M  V30 5628 H 518.094 0.990558 3.98266 0
M  V30 5629 H 517.625 -0.712927 3.86886 0
M  V30 5630 H 519.64 -1.6932 4.66417 0
M  V30 5631 N 518.813 -1.54241 0.323641 0
M  V30 5632 C 520.059 -2.00867 -0.279323 0
M  V30 5633 C 520.392 -1.21146 -1.5178 0
M  V30 5634 O 519.667 -0.29378 -1.92269 0
M  V30 5635 C 519.95 -3.54837 -0.613387 0
M  V30 5636 C 519.803 -4.45284 0.635803 0
M  V30 5637 C 521.122 -4.16186 -1.43099 0
M  V30 5638 H 518.241 -0.730177 -0.100049 0
M  V30 5639 H 520.883 -1.84829 0.440235 0
M  V30 5640 H 519.033 -3.68634 -1.22641 0
M  V30 5641 H 520.705 -4.43357 1.27406 0
M  V30 5642 H 518.948 -4.14956 1.26466 0
M  V30 5643 H 519.619 -5.5084 0.357597 0
M  V30 5644 H 522.095 -4.05964 -0.912814 0
M  V30 5645 H 520.971 -5.24031 -1.6335 0
M  V30 5646 H 521.232 -3.69516 -2.42715 0
M  V30 5647 N 520.291 -0.0518155 -1.57515 0
M  V30 5648 C 521.238 0.922352 -2.11569 0
M  V30 5649 C 522.208 1.30842 -1.02321 0
M  V30 5650 O 523.393 1.39778 -1.29872 0
M  V30 5651 C 520.533 2.19167 -2.6657 0
M  V30 5652 C 519.646 1.86003 -3.89906 0
M  V30 5653 C 518.781 3.07398 -4.33221 0
M  V30 5654 C 517.82 2.70158 -5.49255 0
M  V30 5655 N 516.957 3.84248 -5.8762 0
M  V30 5656 H 521.797 0.454506 -2.94514 0
M  V30 5657 H 519.334 0.212718 -1.45554 0
M  V30 5658 H 521.292 2.93443 -2.96559 0
M  V30 5659 H 519.922 2.63528 -1.86421 0
M  V30 5660 H 518.974 1.01874 -3.66505 0
M  V30 5661 H 520.286 1.54592 -4.74239 0
M  V30 5662 H 519.44 3.89972 -4.64765 0
M  V30 5663 H 518.179 3.41988 -3.477 0
M  V30 5664 H 517.184 1.86001 -5.17382 0
M  V30 5665 H 518.409 2.36759 -6.36492 0
M  V30 5666 H 516.355 4.18638 -5.05053 0
M  V30 5667 H 516.272 3.56538 -6.66646 0
M  V30 5668 H 517.54 4.6746 -6.2378 0
M  V30 5669 N 521.769 1.56035 0.221574 0
M  V30 5670 C 522.732 1.91584 1.2581 0
M  V30 5671 C 523.732 0.794425 1.39805 0
M  V30 5672 O 524.922 1.06217 1.38071 0
M  V30 5673 C 522.054 2.16663 2.63192 0
M  V30 5674 H 523.247 2.8429 0.954935 0
M  V30 5675 H 520.8 1.49316 0.461988 0
M  V30 5676 H 521.535 1.26508 2.98607 0
M  V30 5677 H 521.32 2.98358 2.5441 0
M  V30 5678 H 522.81 2.45262 3.37988 0
M  V30 5679 N 523.247 -0.488276 1.49845 0
M  V30 5680 C 524.495 -1.23911 1.59657 0
M  V30 5681 C 524.816 -1.92816 0.291005 0
M  V30 5682 O 524.086 -1.83328 -0.690485 0
M  V30 5683 H 522.666 -0.460357 0.588286 0
M  V30 5684 H 525.328 -0.564794 1.86537 0
M  V30 5685 H 524.424 -1.99625 2.39909 0
M  V30 5686 N 524.725 -1.39134 -0.740242 0
M  V30 5687 C 526.141 -1.20623 -1.0451 0
M  V30 5688 C 526.341 -0.0641651 -2.01398 0
M  V30 5689 O 525.397 0.585843 -2.4561 0
M  V30 5690 C 526.71 -2.53815 -1.6124 0
M  V30 5691 C 528.258 -2.60615 -1.73346 0
M  V30 5692 C 528.733 -3.94015 -2.33486 0
M  V30 5693 N 530.224 -3.95627 -2.40902 0
M  V30 5694 C 530.959 -4.95616 -2.88361 0
M  V30 5695 N 530.455 -6.06003 -3.35756 0
M  V30 5696 N 532.248 -4.82998 -2.87523 0
M  V30 5697 H 524.399 -2.12176 -0.0975576 0
M  V30 5698 H 526.662 -0.942066 -0.105904 0
M  V30 5699 H 526.368 -3.37911 -0.975144 0
M  V30 5700 H 526.242 -2.73162 -2.6012 0
M  V30 5701 H 528.629 -1.76906 -2.36195 0
M  V30 5702 H 528.71 -2.45123 -0.731336 0
M  V30 5703 H 528.354 -4.78153 -1.71267 0
M  V30 5704 H 528.284 -4.06825 -3.34366 0
M  V30 5705 H 530.775 -3.15903 -2.07398 0
M  V30 5706 H 531.088 -6.78215 -3.70464 0
M  V30 5707 H 529.433 -6.09604 -3.33778 0
M  V30 5708 H 532.624 -3.95866 -2.49816 0
M  V30 5709 H 532.797 -5.61072 -3.24196 0
M  V30 5710 N 526.204 0.969867 -1.24223 0
M  V30 5711 C 527.152 2.08535 -1.03034 0
M  V30 5712 C 528.146 1.69366 0.0340379 0
M  V30 5713 O 529.352 1.79597 -0.12034 0
M  V30 5714 H 525.727 0.682313 -0.316154 0
M  V30 5715 H 527.698 2.23569 -1.97635 0
M  V30 5716 C 526.447 3.4158 -0.649509 0
M  V30 5717 H 525.77 3.72177 -1.46028 0
M  V30 5718 H 527.21 4.20536 -0.540841 0
M  V30 5719 C 525.669 3.30703 0.643194 0
M  V30 5720 O 526.199 3.64443 1.68951 0
M  V30 5721 N 524.405 2.83841 0.623095 0
M  V30 5722 H 523.952 2.56583 -0.228719 0
M  V30 5723 H 523.91 2.76946 1.48823 0
M  V30 5724 N 527.682 1.05563 1.17022 0
M  V30 5725 C 529.093 0.793475 1.69 0
M  V30 5726 C 529.444 -0.683882 1.83895 0
M  V30 5727 O 528.569 -1.53116 1.5292 0
M  V30 5728 C 529.164 1.43376 3.06967 0
M  V30 5729 C 527.723 1.21956 3.56095 0
M  V30 5730 C 526.87 1.51494 2.3226 0
M  V30 5731 H 529.821 1.22008 1.01487 0
M  V30 5732 H 529.842 0.845068 3.70997 0
M  V30 5733 H 529.354 2.50899 2.96093 0
M  V30 5734 H 527.455 0.163749 3.7224 0
M  V30 5735 H 527.568 1.92713 4.38633 0
M  V30 5736 H 525.932 0.935175 2.3691 0
M  V30 5737 H 526.715 2.60159 2.23992 0
M  V30 5738 N 529.16 -1.33526 0.837174 0
M  V30 5739 C 530.108 -2.31168 0.257698 0
M  V30 5740 C 531.102 -1.5806 -0.609388 0
M  V30 5741 O 532.308 -1.72941 -0.499139 0
M  V30 5742 H 528.683 -0.74922 0.0646058 0
M  V30 5743 H 530.654 -2.77552 1.09578 0
M  V30 5744 C 529.403 -3.4326 -0.553887 0
M  V30 5745 H 528.726 -3.99665 0.104008 0
M  V30 5746 H 530.166 -4.13782 -0.925219 0
M  V30 5747 C 528.625 -2.88965 -1.73207 0
M  V30 5748 O 529.155 -2.85013 -2.83073 0
M  V30 5749 N 527.361 -2.45596 -1.55342 0
M  V30 5750 H 526.908 -2.49009 -0.659705 0
M  V30 5751 H 526.866 -2.0962 -2.34322 0
M  V30 5752 N 530.638 -0.59345 -1.46 0
M  V30 5753 C 531.868 -0.0889642 -2.06408 0
M  V30 5754 C 532.276 1.22597 -1.44106 0
M  V30 5755 O 531.619 1.75448 -0.544398 0
M  V30 5756 C 531.681 0.139902 -3.59228 0
M  V30 5757 C 531.345 -1.09107 -4.43784 0
M  V30 5758 C 532.342 -2.00577 -4.79651 0
M  V30 5759 C 530.027 -1.31593 -4.84756 0
M  V30 5760 C 532.021 -3.12873 -5.55328 0
M  V30 5761 C 529.708 -2.44192 -5.60191 0
M  V30 5762 C 530.706 -3.34661 -5.95392 0
M  V30 5763 O 530.394 -4.45302 -6.69299 0
M  V30 5764 H 530.126 -0.0594613 -0.67338 0
M  V30 5765 H 532.68 -0.817 -1.88452 0
M  V30 5766 H 530.91 0.922672 -3.75531 0
M  V30 5767 H 532.599 0.594228 -4.01527 0
M  V30 5768 H 533.365 -1.84425 -4.48567 0
M  V30 5769 H 529.244 -0.620801 -4.56801 0
M  V30 5770 H 532.788 -3.83511 -5.82722 0
M  V30 5771 H 528.685 -2.60303 -5.90688 0
M  V30 5772 H 529.453 -4.43805 -6.87735 0
M  V30 5773 N 532.116 1.54067 -0.331816 0
M  V30 5774 C 533.364 2.00319 0.267739 0
M  V30 5775 C 533.685 1.22148 1.52003 0
M  V30 5776 O 532.955 0.325494 1.93177 0
M  V30 5777 H 531.535 0.740014 0.101922 0
M  V30 5778 H 534.197 1.89628 -0.450267 0
M  V30 5779 H 533.293 3.07765 0.518385 0
M  V30 5780 N 533.594 0.0601682 1.57485 0
M  V30 5781 C 534.824 -0.620037 1.97076 0
M  V30 5782 C 535.232 -1.64381 0.936784 0
M  V30 5783 O 534.575 -1.83497 -0.0863377 0
M  V30 5784 C 534.637 -1.35617 3.32939 0
M  V30 5785 C 534.301 -0.487208 4.54396 0
M  V30 5786 C 535.298 0.250428 5.19297 0
M  V30 5787 C 532.983 -0.415494 5.00579 0
M  V30 5788 C 534.977 1.04812 6.28723 0
M  V30 5789 C 532.664 0.385879 6.0988 0
M  V30 5790 C 533.662 1.11637 6.73815 0
M  V30 5791 O 533.35 1.90454 7.81014 0
M  V30 5792 H 533.082 -0.173664 0.653312 0
M  V30 5793 H 535.636 0.1256 2.05016 0
M  V30 5794 H 533.866 -2.14763 3.2158 0
M  V30 5795 H 535.555 -1.92749 3.57215 0
M  V30 5796 H 536.321 0.204546 4.84568 0
M  V30 5797 H 532.2 -0.973679 4.506 0
M  V30 5798 H 535.744 1.6188 6.78558 0
M  V30 5799 H 531.641 0.433366 6.44044 0
M  V30 5800 H 532.409 1.82762 7.97835 0
M  V30 5801 N 535.072 -1.5615 -0.213296 0
M  V30 5802 C 536.3 -1.83638 -0.953139 0
M  V30 5803 C 536.715 -0.640362 -1.77609 0
M  V30 5804 O 536.072 0.391071 -1.78261 0
M  V30 5805 C 536.123 -3.09735 -1.86405 0
M  V30 5806 O 535.844 -4.24723 -1.07435 0
M  V30 5807 C 537.345 -3.5027 -2.71709 0
M  V30 5808 H 534.565 -0.610263 -0.278962 0
M  V30 5809 H 537.109 -2.03247 -0.226035 0
M  V30 5810 H 535.264 -2.92077 -2.545 0
M  V30 5811 H 535.678 -4.9641 -1.69343 0
M  V30 5812 H 537.152 -4.41515 -3.31313 0
M  V30 5813 H 537.629 -2.72406 -3.44516 0
M  V30 5814 H 538.235 -3.70396 -2.09015 0
M  V30 5815 N 536.55 0.480323 -1.50102 0
M  V30 5816 C 537.775 1.26126 -1.64642 0
M  V30 5817 C 538.2 1.85257 -0.325823 0
M  V30 5818 O 537.558 1.66854 0.709194 0
M  V30 5819 C 537.606 2.35243 -2.73301 0
M  V30 5820 O 536.71 3.39646 -2.33911 0
M  V30 5821 H 536.051 0.371463 -0.550374 0
M  V30 5822 H 538.581 0.572696 -1.96421 0
M  V30 5823 H 538.591 2.80695 -2.96098 0
M  V30 5824 H 537.266 1.91574 -3.6915 0
M  V30 5825 H 535.843 2.99969 -2.21525 0
M  V30 5826 N 538.028 1.39524 0.732853 0
M  V30 5827 C 539.275 1.36865 1.49246 0
M  V30 5828 C 539.603 -0.0347118 1.94469 0
M  V30 5829 O 538.858 -1.01596 1.67262 0
M  V30 5830 C 539.157 2.28916 2.74468 0
M  V30 5831 C 538.823 3.76506 2.481 0
M  V30 5832 C 537.485 4.16721 2.40619 0
M  V30 5833 C 539.837 4.69846 2.25598 0
M  V30 5834 C 537.165 5.48334 2.08679 0
M  V30 5835 C 539.517 6.01739 1.95174 0
M  V30 5836 C 538.181 6.41015 1.86163 0
M  V30 5837 H 537.451 0.500824 0.546129 0
M  V30 5838 H 540.098 1.72047 0.840958 0
M  V30 5839 H 538.403 1.86859 3.4437 0
M  V30 5840 H 540.1 2.2415 3.32502 0
M  V30 5841 H 536.69 3.44635 2.54803 0
M  V30 5842 H 540.874 4.39608 2.30344 0
M  V30 5843 H 536.13 5.77685 2.00226 0
M  V30 5844 H 540.304 6.73591 1.76771 0
M  V30 5845 H 537.931 7.42917 1.61179 0
M  V30 5846 N 539.506 -0.963266 1.24736 0
M  V30 5847 C 540.783 -1.68248 0.9976 0
M  V30 5848 C 541.163 -2.05599 -0.478776 0
M  V30 5849 O 540.511 -1.7626 -1.45412 0
M  V30 5850 C 540.721 -2.91118 1.92487 0
M  V30 5851 C 542.069 -3.63261 2.19833 0
M  V30 5852 O 543.093 -3.01184 1.90176 0
M  V30 5853 O 541.952 -4.75019 2.7022 0
M  V30 5854 H 539.046 -0.735744 0.377637 0
M  V30 5855 H 541.592 -1.01696 1.35853 0
M  V30 5856 H 540.364 -2.60242 2.92215 0
M  V30 5857 H 539.987 -3.65402 1.56738 0
M  V30 5858 N 540.985 -1.06182 -1.16461 0
M  V30 5859 C 542.213 -0.798583 -1.90867 0
M  V30 5860 C 542.628 0.646921 -1.77371 0
M  V30 5861 O 541.985 1.44279 -1.11758 0
M  V30 5862 C 542.036 -1.18258 -3.4161 0
M  V30 5863 O 541.757 -2.57135 -3.54701 0
M  V30 5864 C 543.258 -0.946917 -4.33069 0
M  V30 5865 H 540.478 -0.289603 -0.605286 0
M  V30 5866 H 543.022 -1.41515 -1.47627 0
M  V30 5867 H 541.177 -0.610562 -3.82558 0
M  V30 5868 H 541.591 -2.72477 -4.4817 0
M  V30 5869 H 543.065 -1.26523 -5.37304 0
M  V30 5870 H 543.542 0.117406 -4.39043 0
M  V30 5871 H 544.148 -1.50326 -3.97847 0
M  V30 5872 N 542.463 1.3308 -0.844243 0
M  V30 5873 C 543.71 1.97605 -0.44255 0
M  V30 5874 C 544.038 1.66856 0.999458 0
M  V30 5875 O 543.293 0.943586 1.7145 0
M  V30 5876 C 543.592 3.52045 -0.616354 0
M  V30 5877 C 543.258 4.02757 -2.02726 0
M  V30 5878 C 541.92 4.16316 -2.41317 0
M  V30 5879 C 544.272 4.29776 -2.9486 0
M  V30 5880 C 541.6 4.54232 -3.71335 0
M  V30 5881 C 543.952 4.69146 -4.24364 0
M  V30 5882 C 542.616 4.80911 -4.62904 0
M  V30 5883 H 541.886 0.723088 -0.161941 0
M  V30 5884 H 544.533 1.58663 -1.0723 0
M  V30 5885 H 542.838 3.91681 0.0966812 0
M  V30 5886 H 544.535 3.99981 -0.285756 0
M  V30 5887 H 541.125 3.9268 -1.71756 0
M  V30 5888 H 545.309 4.18818 -2.6628 0
M  V30 5889 H 540.565 4.61535 -4.00993 0
M  V30 5890 H 544.739 4.89008 -4.95827 0
M  V30 5891 H 542.366 5.10048 -5.63698 0
M  V30 5892 N 543.941 0.601185 1.45683 0
M  V30 5893 C 545.166 0.0982245 2.07167 0
M  V30 5894 C 545.591 -1.20546 1.44396 0
M  V30 5895 O 544.949 -1.73247 0.534347 0
M  V30 5896 C 544.997 -0.0346976 3.60583 0
M  V30 5897 O 544.101 -1.08657 3.97828 0
M  V30 5898 H 543.442 0.0711618 0.660176 0
M  V30 5899 H 545.972 0.829376 1.87036 0
M  V30 5900 H 545.982 -0.234969 4.07323 0
M  V30 5901 H 544.657 0.917265 4.05659 0
M  V30 5902 H 543.234 -0.863275 3.6277 0
M  V30 5903 N 545.419 -1.53889 0.339982 0
M  V30 5904 C 546.665 -2.01849 -0.250694 0
M  V30 5905 C 547.02 -1.22356 -1.48482 0
M  V30 5906 O 546.313 -0.301906 -1.89206 0
M  V30 5907 C 546.507 -3.51968 -0.620735 0
M  V30 5908 C 546.336 -4.45996 0.575981 0
M  V30 5909 C 545.106 -4.93619 1.08019 0
M  V30 5910 C 547.304 -4.93923 1.43332 0
M  V30 5911 N 545.286 -5.7159 2.2396 0
M  V30 5912 C 546.657 -5.69982 2.43969 0
M  V30 5913 C 548.712 -4.76038 1.45918 0
M  V30 5914 C 547.415 -6.30057 3.47016 0
M  V30 5915 C 549.441 -5.36961 2.47845 0
M  V30 5916 C 548.803 -6.12884 3.47208 0
M  V30 5917 H 544.902 -0.780054 -0.0551368 0
M  V30 5918 H 547.486 -1.88722 0.478741 0
M  V30 5919 H 545.657 -3.65308 -1.31928 0
M  V30 5920 H 547.389 -3.86677 -1.19429 0
M  V30 5921 H 544.144 -4.69134 0.64884 0
M  V30 5922 H 544.568 -6.15247 2.82489 0
M  V30 5923 H 549.21 -4.16887 0.704608 0
M  V30 5924 H 546.928 -6.88319 4.23371 0
M  V30 5925 H 550.514 -5.2503 2.50668 0
M  V30 5926 H 549.394 -6.59187 4.24785 0
M  V30 5927 N 546.897 -0.0685191 -1.57451 0
M  V30 5928 C 547.86 0.885173 -2.11417 0
M  V30 5929 C 548.86 1.22853 -1.03748 0
M  V30 5930 O 550.05 1.16235 -1.2975 0
M  V30 5931 C 547.182 2.18964 -2.61281 0
M  V30 5932 H 548.375 0.417034 -2.96986 0
M  V30 5933 H 545.928 0.18014 -1.55258 0
M  V30 5934 H 546.663 2.70321 -1.79156 0
M  V30 5935 H 546.448 1.9534 -3.39977 0
M  V30 5936 H 547.938 2.87242 -3.0312 0
M  V30 5937 N 548.375 1.56261 0.205012 0
M  V30 5938 C 549.622 1.8004 0.926927 0
M  V30 5939 C 549.95 0.640086 1.83666 0
M  V30 5940 O 549.205 -0.374702 1.92079 0
M  V30 5941 C 549.504 3.09722 1.78345 0
M  V30 5942 C 549.17 4.39082 1.02555 0
M  V30 5943 C 547.832 4.74226 0.816256 0
M  V30 5944 C 550.184 5.18877 0.491559 0
M  V30 5945 C 547.512 5.86668 0.0613287 0
M  V30 5946 C 549.864 6.32105 -0.250107 0
M  V30 5947 C 548.528 6.6584 -0.470508 0
M  V30 5948 H 547.798 0.658812 0.339187 0
M  V30 5949 H 550.445 1.90515 0.19395 0
M  V30 5950 H 548.75 2.9444 2.5848 0
M  V30 5951 H 550.447 3.25324 2.34446 0
M  V30 5952 H 547.037 4.11497 1.19868 0
M  V30 5953 H 551.221 4.92147 0.640684 0
M  V30 5954 H 546.477 6.11283 -0.119501 0
M  V30 5955 H 550.651 6.93157 -0.671307 0
M  V30 5956 H 548.278 7.5281 -1.05739 0
M  V30 5957 N 549.853 -0.472356 1.50355 0
M  V30 5958 C 550.783 -1.57859 1.72055 0
M  V30 5959 C 551.764 -1.60283 0.569505 0
M  V30 5960 O 552.949 -1.7657 0.808503 0
M  V30 5961 C 550.079 -2.96191 1.81351 0
M  V30 5962 C 549.033 -3.08633 2.96529 0
M  V30 5963 C 548.359 -4.486 2.90968 0
M  V30 5964 C 549.659 -2.85969 4.37057 0
M  V30 5965 H 551.353 -1.39953 2.64676 0
M  V30 5966 H 548.899 -0.671846 1.27367 0
M  V30 5967 H 550.852 -3.73507 1.95117 0
M  V30 5968 H 549.576 -3.15251 0.853502 0
M  V30 5969 H 548.235 -2.33749 2.82413 0
M  V30 5970 H 547.883 -4.64577 1.92815 0
M  V30 5971 H 547.583 -4.57861 3.68289 0
M  V30 5972 H 549.107 -5.27938 3.0678 0
M  V30 5973 H 550.521 -3.53036 4.51706 0
M  V30 5974 H 548.918 -3.06677 5.15819 0
M  V30 5975 H 549.988 -1.81838 4.49514 0
M  V30 5976 N 551.331 -1.39911 -0.725443 0
M  V30 5977 C 552.556 -1.41137 -1.5197 0
M  V30 5978 C 552.981 -0.010262 -1.88097 0
M  V30 5979 O 552.339 0.979184 -1.52583 0
M  V30 5980 C 552.387 -2.2994 -2.77777 0
M  V30 5981 O 551.491 -1.73586 -3.74088 0
M  V30 5982 H 550.832 -0.480219 -0.458569 0
M  V30 5983 H 553.362 -1.84023 -0.894249 0
M  V30 5984 H 553.372 -2.44785 -3.26411 0
M  V30 5985 H 552.047 -3.31759 -2.50816 0
M  V30 5986 H 550.624 -1.68035 -3.32894 0
M  V30 5987 N 552.809 0.956637 -1.25245 0
M  V30 5988 C 553.739 2.07058 -1.07931 0
M  V30 5989 C 554.72 1.70096 0.0110361 0
M  V30 5990 O 555.905 1.93555 -0.158121 0
M  V30 5991 C 553.035 3.40272 -0.695124 0
M  V30 5992 C 551.989 3.91235 -1.73549 0
M  V30 5993 C 551.315 5.20921 -1.20604 0
M  V30 5994 C 552.615 4.17837 -3.13385 0
M  V30 5995 H 554.309 2.218 -2.01109 0
M  V30 5996 H 551.855 1.06581 -0.968326 0
M  V30 5997 H 553.808 4.1765 -0.560949 0
M  V30 5998 H 552.532 3.25462 0.272355 0
M  V30 5999 H 551.191 3.16025 -1.85807 0
M  V30 6000 H 550.839 5.02479 -0.228846 0
M  V30 6001 H 550.539 5.55987 -1.90136 0
M  V30 6002 H 552.063 6.00897 -1.08421 0
M  V30 6003 H 553.477 4.8588 -3.04292 0
M  V30 6004 H 551.874 4.64154 -3.80369 0
M  V30 6005 H 552.944 3.2419 -3.60595 0
M  V30 6006 N 554.287 1.06798 1.15896 0
M  V30 6007 C 555.534 0.787767 1.86549 0
M  V30 6008 C 555.862 -0.685959 1.82002 0
M  V30 6009 O 555.117 -1.5188 1.23414 0
M  V30 6010 C 555.416 1.23414 3.35416 0
M  V30 6011 C 555.082 2.71285 3.6016 0
M  V30 6012 C 553.744 3.11676 3.66622 0
M  V30 6013 C 556.096 3.6676 3.7032 0
M  V30 6014 C 553.424 4.4637 3.8075 0
M  V30 6015 C 555.776 5.01209 3.8597 0
M  V30 6016 C 554.44 5.41229 3.90676 0
M  V30 6017 H 553.71 0.288264 0.682631 0
M  V30 6018 H 556.357 1.338 1.37003 0
M  V30 6019 H 554.662 0.60319 3.87129 0
M  V30 6020 H 556.359 0.994298 3.88477 0
M  V30 6021 H 552.949 2.39015 3.55767 0
M  V30 6022 H 557.133 3.36685 3.64633 0
M  V30 6023 H 552.389 4.76855 3.82648 0
M  V30 6024 H 556.563 5.75067 3.92773 0
M  V30 6025 H 554.19 6.45602 4.01375 0
M  V30 6026 N 555.766 -1.3263 0.851289 0
M  V30 6027 C 557.182 -1.50162 0.5407 0
M  V30 6028 C 557.382 -1.78788 -0.929369 0
M  V30 6029 O 556.438 -1.85545 -1.71258 0
M  V30 6030 C 557.751 -2.64803 1.42478 0
M  V30 6031 C 559.299 -2.78688 1.42485 0
M  V30 6032 C 559.774 -3.96405 2.29407 0
M  V30 6033 N 561.265 -4.0366 2.27184 0
M  V30 6034 C 562 -4.93971 2.9117 0
M  V30 6035 N 561.496 -5.89313 3.64256 0
M  V30 6036 N 563.289 -4.87066 2.80576 0
M  V30 6037 H 555.44 -1.12315 1.80275 0
M  V30 6038 H 557.703 -0.553266 0.769806 0
M  V30 6039 H 557.409 -2.50368 2.46999 0
M  V30 6040 H 557.283 -3.60506 1.10974 0
M  V30 6041 H 559.67 -2.92547 0.387304 0
M  V30 6042 H 559.751 -1.83708 1.78002 0
M  V30 6043 H 559.395 -3.83304 3.33228 0
M  V30 6044 H 559.325 -4.90654 1.91224 0
M  V30 6045 H 561.816 -3.35435 1.74045 0
M  V30 6046 H 562.129 -6.54913 4.10255 0
M  V30 6047 H 560.474 -5.8935 3.68364 0
M  V30 6048 H 563.665 -4.11552 2.23031 0
M  V30 6049 H 563.838 -5.57248 3.30725 0
M  V30 6050 N 557.244 -0.608902 -1.45362 0
M  V30 6051 C 558.174 0.0964526 -2.33301 0
M  V30 6052 C 559.155 0.857444 -1.46908 0
M  V30 6053 O 560.34 0.827735 -1.75676 0
M  V30 6054 C 557.47 1.09354 -3.29635 0
M  V30 6055 C 556.424 0.445676 -4.25673 0
M  V30 6056 C 555.75 1.5511 -5.11708 0
M  V30 6057 C 557.05 -0.633972 -5.18438 0
M  V30 6058 H 558.744 -0.637829 -2.92527 0
M  V30 6059 H 556.29 -0.308178 -1.40664 0
M  V30 6060 H 558.243 1.59556 -3.90025 0
M  V30 6061 H 556.967 1.85843 -2.6857 0
M  V30 6062 H 555.626 -0.0354897 -3.66583 0
M  V30 6063 H 555.274 2.30631 -4.4701 0
M  V30 6064 H 554.974 1.12311 -5.76767 0
M  V30 6065 H 556.498 2.05537 -5.74967 0
M  V30 6066 H 557.912 -0.215974 -5.72893 0
M  V30 6067 H 556.309 -0.983789 -5.91981 0
M  V30 6068 H 557.379 -1.51005 -4.60788 0
M  V30 6069 N 558.722 1.53707 -0.348139 0
M  V30 6070 C 559.655 2.21481 0.549667 0
M  V30 6071 C 560.633 1.20046 1.09671 0
M  V30 6072 O 561.817 1.48883 1.15612 0
M  V30 6073 C 558.944 2.89585 1.75664 0
M  V30 6074 C 557.99 4.04948 1.33864 0
M  V30 6075 S 558.823 5.34325 0.354577 0
M  V30 6076 C 559.979 6.05934 1.56828 0
M  V30 6077 H 560.212 2.97289 -0.0259755 0
M  V30 6078 H 557.745 1.53833 -0.132216 0
M  V30 6079 H 559.703 3.29441 2.44906 0
M  V30 6080 H 558.364 2.13535 2.30351 0
M  V30 6081 H 557.557 4.51552 2.23868 0
M  V30 6082 H 557.159 3.66893 0.725651 0
M  V30 6083 H 559.451 6.29606 2.50205 0
M  V30 6084 H 560.394 6.98799 1.14395 0
M  V30 6085 H 560.802 5.36151 1.76642 0
M  V30 6086 N 560.2 0.0768682 1.57412 0
M  V30 6087 C 561.428 -0.59997 1.9801 0
M  V30 6088 C 561.843 -1.62842 0.955408 0
M  V30 6089 O 561.2 -1.8241 -0.057314 0
M  V30 6090 C 561.251 -1.26401 3.38681 0
M  V30 6091 O 560.972 -0.276723 4.37225 0
M  V30 6092 C 562.473 -2.0282 3.94182 0
M  V30 6093 H 559.693 -0.162239 0.651091 0
M  V30 6094 H 562.237 0.150771 2.03943 0
M  V30 6095 H 560.392 -1.96581 3.33819 0
M  V30 6096 H 560.806 -0.753744 5.19056 0
M  V30 6097 H 562.28 -2.44667 4.94815 0
M  V30 6098 H 562.757 -2.88678 3.31001 0
M  V30 6099 H 563.363 -1.37496 4.02461 0
M  V30 6100 N 561.678 -1.56367 -0.196722 0
M  V30 6101 C 562.61 -1.90941 -1.26784 0
M  V30 6102 C 563.623 -0.799928 -1.41792 0
M  V30 6103 O 564.812 -1.07833 -1.42247 0
M  V30 6104 C 561.912 -2.12477 -2.6402 0
M  V30 6105 C 561.085 -3.43616 -2.70641 0
M  V30 6106 C 560.144 -3.54284 -3.89062 0
M  V30 6107 O 559.17 -4.2712 -3.76241 0
M  V30 6108 N 560.372 -2.87252 -5.04447 0
M  V30 6109 H 563.137 -2.83417 -0.974417 0
M  V30 6110 H 560.698 -1.57215 -0.386649 0
M  V30 6111 H 562.69 -2.16904 -3.41665 0
M  V30 6112 H 561.26 -1.26508 -2.85857 0
M  V30 6113 H 560.48 -3.51072 -1.79283 0
M  V30 6114 H 561.768 -4.29958 -2.72054 0
M  V30 6115 H 561.166 -2.27901 -5.17762 0
M  V30 6116 H 559.723 -2.97308 -5.80044 0
M  V30 6117 N 563.156 0.464375 -1.50603 0
M  V30 6118 C 564.433 1.22549 -1.5245 0
M  V30 6119 C 564.813 2.09327 -0.273035 0
M  V30 6120 O 564.161 2.16074 0.743242 0
M  V30 6121 C 564.371 2.05074 -2.82393 0
M  V30 6122 C 565.719 2.63036 -3.33313 0
M  V30 6123 O 566.743 2.1531 -2.8376 0
M  V30 6124 O 565.602 3.5001 -4.19709 0
M  V30 6125 H 562.696 0.556471 -0.611775 0
M  V30 6126 H 565.242 0.475648 -1.62898 0
M  V30 6127 H 564.014 1.41169 -3.64948 0
M  V30 6128 H 563.637 2.87179 -2.7498 0
M  V30 6129 N 564.634 1.40294 0.718013 0
M  V30 6130 C 565.881 1.3844 1.47786 0
M  V30 6131 C 566.209 -0.0140838 1.94495 0
M  V30 6132 O 565.464 -0.998165 1.68331 0
M  V30 6133 C 565.763 2.31814 2.72024 0
M  V30 6134 C 565.429 3.79117 2.44093 0
M  V30 6135 C 564.091 4.19249 2.36185 0
M  V30 6136 C 566.443 4.72212 2.20602 0
M  V30 6137 C 563.771 5.50516 2.02851 0
M  V30 6138 C 566.123 6.03775 1.88781 0
M  V30 6139 C 564.787 6.42953 1.79354 0
M  V30 6140 H 564.057 0.506588 0.540786 0
M  V30 6141 H 566.704 1.72929 0.822663 0
M  V30 6142 H 565.009 1.90501 3.42369 0
M  V30 6143 H 566.706 2.27664 3.30106 0
M  V30 6144 H 563.296 3.47318 2.51133 0
M  V30 6145 H 567.48 4.42026 2.25669 0
M  V30 6146 H 562.736 5.79776 1.94088 0
M  V30 6147 H 566.91 6.75428 1.69617 0
M  V30 6148 H 564.537 7.44584 1.53291 0
M  V30 6149 N 566.112 -0.949982 1.2575 0
M  V30 6150 C 567.358 -1.69822 1.11947 0
M  V30 6151 C 567.713 -1.89455 -0.335334 0
M  V30 6152 O 567.006 -1.45778 -1.24336 0
M  V30 6153 C 567.2 -3.08039 1.81237 0
M  V30 6154 C 567.029 -3.0189 3.33305 0
M  V30 6155 C 565.799 -3.05391 4.02573 0
M  V30 6156 C 567.997 -2.827 4.29634 0
M  V30 6157 N 565.979 -2.89449 5.4138 0
M  V30 6158 C 567.35 -2.75237 5.55558 0
M  V30 6159 C 569.405 -2.67416 4.19992 0
M  V30 6160 C 568.108 -2.54051 6.72942 0
M  V30 6161 C 570.134 -2.47602 5.37073 0
M  V30 6162 C 569.496 -2.40863 6.6194 0
M  V30 6163 H 565.595 -0.629188 0.464378 0
M  V30 6164 H 568.179 -1.1249 1.58916 0
M  V30 6165 H 566.35 -3.63528 1.36756 0
M  V30 6166 H 568.082 -3.71671 1.60134 0
M  V30 6167 H 564.837 -3.14763 3.53866 0
M  V30 6168 H 565.261 -2.84669 6.14241 0
M  V30 6169 H 569.903 -2.71398 3.24196 0
M  V30 6170 H 567.621 -2.48811 7.68842 0
M  V30 6171 H 571.207 -2.36694 5.31477 0
M  V30 6172 H 570.087 -2.25732 7.51009 0
M  V30 6173 N 567.59 -1.07411 -1.15328 0
M  V30 6174 C 568.5 -0.706438 -2.23711 0
M  V30 6175 C 569.516 0.282586 -1.7169 0
M  V30 6176 O 570.692 0.129066 -2.00986 0
M  V30 6177 C 567.757 -0.11048 -3.46524 0
M  V30 6178 C 566.818 -1.15282 -4.13532 0
M  V30 6179 C 566.051 -0.585205 -5.30482 0
M  V30 6180 O 566.274 0.598549 -5.67251 0
M  V30 6181 O 565.208 -1.33039 -5.87013 0
M  V30 6182 H 569.034 -1.61031 -2.57493 0
M  V30 6183 H 566.619 -0.847113 -1.23062 0
M  V30 6184 H 568.501 0.21957 -4.20828 0
M  V30 6185 H 567.176 0.766703 -3.14489 0
M  V30 6186 H 566.083 -1.53523 -3.41147 0
M  V30 6187 H 567.416 -2.00192 -4.49649 0
M  V30 6188 N 569.068 1.32177 -0.85831 0
M  V30 6189 C 570.016 2.30729 -0.294442 0
M  V30 6190 C 571.01 1.59009 0.584165 0
M  V30 6191 O 572.216 1.73713 0.471562 0
M  V30 6192 H 568.591 0.748097 -0.0765171 0
M  V30 6193 H 570.562 2.75774 -1.1398 0
M  V30 6194 C 569.311 3.44098 0.499208 0
M  V30 6195 H 568.634 3.99449 -0.167579 0
M  V30 6196 H 570.074 4.15202 0.859273 0
M  V30 6197 C 568.533 2.91684 1.68588 0
M  V30 6198 O 569.063 2.89481 2.78503 0
M  V30 6199 N 567.269 2.48036 1.51415 0
M  V30 6200 H 566.816 2.50027 0.620006 0
M  V30 6201 H 566.774 2.13322 2.30957 0
M  V30 6202 N 570.547 0.616602 1.45037 0
M  V30 6203 C 571.477 -0.0840787 2.33349 0
M  V30 6204 C 572.458 -0.849641 1.4736 0
M  V30 6205 O 573.643 -0.818407 1.76113 0
M  V30 6206 C 570.773 -1.07604 3.3021 0
M  V30 6207 C 569.727 -0.423096 4.25904 0
M  V30 6208 C 569.053 -1.52394 5.12523 0
M  V30 6209 C 570.353 0.661457 5.18095 0
M  V30 6210 H 572.047 0.653333 2.92185 0
M  V30 6211 H 569.593 0.315634 1.40498 0
M  V30 6212 H 571.546 -1.57485 3.90866 0
M  V30 6213 H 570.27 -1.84416 2.69552 0
M  V30 6214 H 568.929 0.05493 3.66559 0
M  V30 6215 H 568.577 -2.28257 4.48227 0
M  V30 6216 H 568.277 -1.09251 5.77354 0
M  V30 6217 H 569.801 -2.02485 5.76049 0
M  V30 6218 H 571.215 0.246353 5.7277 0
M  V30 6219 H 569.612 1.01517 5.91451 0
M  V30 6220 H 570.682 1.53446 4.59981 0
M  V30 6221 N 572.025 -1.5352 0.356285 0
M  V30 6222 C 573.255 -2.05236 -0.236983 0
M  V30 6223 C 573.663 -1.23016 -1.43749 0
M  V30 6224 O 573.006 -0.2615 -1.81829 0
M  V30 6225 C 573.068 -3.52549 -0.7035 0
M  V30 6226 C 572.732 -4.55425 0.379059 0
M  V30 6227 C 573.729 -5.0524 1.22592 0
M  V30 6228 C 571.414 -4.99425 0.536638 0
M  V30 6229 C 573.408 -5.97647 2.21578 0
M  V30 6230 C 571.095 -5.9164 1.52988 0
M  V30 6231 C 572.093 -6.4064 2.3679 0
M  V30 6232 O 571.781 -7.31039 3.34421 0
M  V30 6233 H 571.513 -0.674346 -0.047254 0
M  V30 6234 H 574.067 -1.98962 0.510238 0
M  V30 6235 H 572.297 -3.56331 -1.50217 0
M  V30 6236 H 573.986 -3.87171 -1.21873 0
M  V30 6237 H 574.752 -4.72002 1.11532 0
M  V30 6238 H 570.631 -4.60879 -0.105834 0
M  V30 6239 H 574.175 -6.35816 2.87025 0
M  V30 6240 H 570.072 -6.24293 1.64099 0
M  V30 6241 H 570.84 -7.49009 3.30041 0
M  V30 6242 N 573.503 -0.0852151 -1.57369 0
M  V30 6243 C 574.435 0.907099 -2.10486 0
M  V30 6244 C 575.448 1.25259 -1.03991 0
M  V30 6245 O 576.637 1.20743 -1.31467 0
M  V30 6246 C 573.737 2.21908 -2.56145 0
M  V30 6247 C 572.91 2.05042 -3.86363 0
M  V30 6248 C 571.969 3.19664 -4.17973 0
M  V30 6249 O 570.995 2.94062 -4.87356 0
M  V30 6250 N 572.197 4.45151 -3.72587 0
M  V30 6251 H 574.962 0.453505 -2.96249 0
M  V30 6252 H 572.523 0.100157 -1.6159 0
M  V30 6253 H 574.515 2.97519 -2.74343 0
M  V30 6254 H 573.085 2.58723 -1.75446 0
M  V30 6255 H 572.305 1.13819 -3.77411 0
M  V30 6256 H 573.593 1.91039 -4.71574 0
M  V30 6257 H 572.991 4.68834 -3.16561 0
M  V30 6258 H 571.548 5.17744 -3.9596 0
M  V30 6259 N 574.981 1.5647 0.188427 0
M  V30 6260 C 575.911 1.98101 1.23606 0
M  V30 6261 C 576.892 0.853961 1.47111 0
M  V30 6262 O 578.077 1.11879 1.58735 0
M  V30 6263 C 575.207 2.32624 2.57882 0
M  V30 6264 C 574.161 3.48129 2.48978 0
M  V30 6265 C 573.487 3.68347 3.87588 0
M  V30 6266 C 574.787 4.82112 2.00911 0
M  V30 6267 H 576.481 2.85864 0.890068 0
M  V30 6268 H 574.027 1.37532 0.426714 0
M  V30 6269 H 575.98 2.60343 3.3136 0
M  V30 6270 H 574.704 1.41751 2.94235 0
M  V30 6271 H 573.363 3.20511 1.77956 0
M  V30 6272 H 573.011 2.74793 4.21305 0
M  V30 6273 H 572.711 4.46055 3.82503 0
M  V30 6274 H 574.235 3.98449 4.62678 0
M  V30 6275 H 575.649 5.08819 2.64151 0
M  V30 6276 H 574.046 5.63337 2.06814 0
M  V30 6277 H 575.116 4.75249 0.96262 0
M  V30 6278 N 576.459 -0.456382 1.50847 0
M  V30 6279 C 577.687 -1.23026 1.66349 0
M  V30 6280 C 578.102 -1.85473 0.352868 0
M  V30 6281 O 577.459 -1.69885 -0.666739 0
M  V30 6282 C 577.51 -2.32827 2.76539 0
M  V30 6283 O 577.231 -1.72938 4.02522 0
M  V30 6284 C 578.732 -3.23448 3.03144 0
M  V30 6285 H 575.952 -0.371527 0.558756 0
M  V30 6286 H 578.496 -0.543082 1.97157 0
M  V30 6287 H 576.651 -2.97294 2.48384 0
M  V30 6288 H 577.065 -2.45357 4.63573 0
M  V30 6289 H 578.539 -3.96669 3.83872 0
M  V30 6290 H 579.016 -3.83094 2.14793 0
M  V30 6291 H 579.622 -2.64702 3.32886 0
M  V30 6292 N 577.937 -1.40673 -0.710563 0
M  V30 6293 C 578.867 -1.44095 -1.83736 0
M  V30 6294 C 579.848 -0.301286 -1.67411 0
M  V30 6295 O 581.033 -0.510618 -1.87367 0
M  V30 6296 C 578.163 -1.30773 -3.21738 0
M  V30 6297 C 577.117 -2.42395 -3.52745 0
M  V30 6298 C 576.443 -2.14147 -4.89944 0
M  V30 6299 C 577.743 -3.84738 -3.53234 0
M  V30 6300 H 579.437 -2.38396 -1.81129 0
M  V30 6301 H 576.983 -1.14746 -0.870017 0
M  V30 6302 H 578.936 -1.31783 -4.00264 0
M  V30 6303 H 577.66 -0.329507 -3.24934 0
M  V30 6304 H 576.319 -2.40643 -2.76562 0
M  V30 6305 H 575.967 -1.14703 -4.89747 0
M  V30 6306 H 575.667 -2.88934 -5.11655 0
M  V30 6307 H 577.191 -2.16848 -5.70797 0
M  V30 6308 H 578.605 -3.88286 -4.2179 0
M  V30 6309 H 577.002 -4.59085 -3.86473 0
M  V30 6310 H 578.072 -4.13962 -2.52514 0
M  V30 6311 N 579.415 0.9433 -1.26252 0
M  V30 6312 C 580.831 1.21644 -1.03319 0
M  V30 6313 C 581.031 2.0003 0.242983 0
M  V30 6314 O 580.087 2.33838 0.952688 0
M  V30 6315 C 581.4 1.97978 -2.2633 0
M  V30 6316 C 582.948 2.10978 -2.31209 0
M  V30 6317 C 583.423 2.90713 -3.53907 0
M  V30 6318 N 584.914 2.98287 -3.54371 0
M  V30 6319 C 585.649 3.60406 -4.45976 0
M  V30 6320 N 585.145 4.24043 -5.47868 0
M  V30 6321 N 586.938 3.57658 -4.33633 0
M  V30 6322 H 579.089 0.419221 -2.08222 0
M  V30 6323 H 581.352 0.247995 -0.914988 0
M  V30 6324 H 581.058 1.47788 -3.19142 0
M  V30 6325 H 580.932 2.9865 -2.30408 0
M  V30 6326 H 583.319 2.6036 -1.38913 0
M  V30 6327 H 583.4 1.09575 -2.31143 0
M  V30 6328 H 583.044 2.42018 -4.46531 0
M  V30 6329 H 582.974 3.92367 -3.5122 0
M  V30 6330 H 585.465 2.53044 -2.80673 0
M  V30 6331 H 585.778 4.69334 -6.13959 0
M  V30 6332 H 584.123 4.22637 -5.51728 0
M  V30 6333 H 587.314 3.07134 -3.53251 0
M  V30 6334 H 587.487 4.05782 -5.05218 0
M  V30 6335 N 580.893 1.08022 1.14757 0
M  V30 6336 C 581.856 0.71048 2.1791 0
M  V30 6337 C 582.856 -0.252731 1.58801 0
M  V30 6338 O 584.046 -0.0327915 1.74169 0
M  V30 6339 C 581.178 0.0483203 3.40866 0
M  V30 6340 H 582.371 1.62384 2.52134 0
M  V30 6341 H 579.924 0.877595 1.29337 0
M  V30 6342 H 580.659 -0.876959 3.12218 0
M  V30 6343 H 580.444 0.741189 3.85031 0
M  V30 6344 H 581.934 -0.195471 4.17142 0
M  V30 6345 N 582.371 -1.3172 0.865308 0
M  V30 6346 C 583.334 -2.26918 0.322627 0
M  V30 6347 C 584.334 -1.52031 -0.523751 0
M  V30 6348 O 585.524 -1.70973 -0.333727 0
M  V30 6349 C 582.656 -3.36558 -0.542338 0
M  V30 6350 H 583.849 -2.76432 1.16298 0
M  V30 6351 H 581.402 -1.42573 0.640512 0
M  V30 6352 H 582.137 -2.92329 -1.40407 0
M  V30 6353 H 581.922 -3.92048 0.0636395 0
M  V30 6354 H 583.412 -4.07465 -0.91446 0
M  V30 6355 N 583.85 -0.624285 -1.44708 0
M  V30 6356 C 585.098 -0.125802 -2.01708 0
M  V30 6357 C 585.418 1.2543 -1.49306 0
M  V30 6358 O 584.689 1.83198 -0.693924 0
M  V30 6359 H 583.269 -0.0435161 -0.745731 0
M  V30 6360 H 585.931 -0.809446 -1.77296 0
M  V30 6361 H 585.027 -0.0882734 -3.11975 0
M  V30 6362 N 585.328 1.53329 -0.364422 0
M  V30 6363 C 586.275 2.25698 0.482607 0
M  V30 6364 C 587.245 1.26325 1.07848 0
M  V30 6365 O 588.43 1.55104 1.11119 0
M  V30 6366 C 585.57 3.04873 1.61699 0
M  V30 6367 C 584.683 4.19135 1.0464 0
M  V30 6368 C 583.818 4.85754 2.14979 0
M  V30 6369 C 582.857 5.9205 1.5538 0
M  V30 6370 N 581.994 6.52365 2.59547 0
M  V30 6371 H 586.834 2.97666 -0.141032 0
M  V30 6372 H 584.371 1.46875 -0.0813692 0
M  V30 6373 H 586.329 3.49051 2.28516 0
M  V30 6374 H 584.959 2.35162 2.2113 0
M  V30 6375 H 584.011 3.79451 0.268553 0
M  V30 6376 H 585.323 4.95525 0.570653 0
M  V30 6377 H 584.477 5.3311 2.89619 0
M  V30 6378 H 583.216 4.08834 2.65906 0
M  V30 6379 H 582.221 5.44058 0.792549 0
M  V30 6380 H 583.446 6.7089 1.0528 0
M  V30 6381 H 581.392 5.78298 3.09689 0
M  V30 6382 H 581.309 7.2429 2.16655 0
M  V30 6383 H 582.577 7.0437 3.33892 0
M  V30 6384 N 586.806 0.0935595 1.57322 0
M  V30 6385 C 588.034 -0.578934 1.98635 0
M  V30 6386 C 588.449 -1.61819 0.972626 0
M  V30 6387 O 587.806 -1.82461 -0.0379638 0
M  V30 6388 C 587.857 -1.22802 3.40003 0
M  V30 6389 O 587.578 -0.230334 4.37494 0
M  V30 6390 C 589.079 -1.98627 3.96311 0
M  V30 6391 H 586.299 -0.155324 0.652775 0
M  V30 6392 H 588.843 0.172393 2.03772 0
M  V30 6393 H 586.998 -1.93029 3.35885 0
M  V30 6394 H 587.412 -0.698649 5.19826 0
M  V30 6395 H 588.886 -2.39405 4.97382 0
M  V30 6396 H 589.363 -2.85151 3.34044 0
M  V30 6397 H 589.969 -1.3322 4.03897 0
M  V30 6398 N 588.284 -1.56567 -0.180126 0
M  V30 6399 C 589.514 -1.85349 -0.912647 0
M  V30 6400 C 589.922 -0.675795 -1.76719 0
M  V30 6401 O 589.265 0.3645 -1.80047 0
M  V30 6402 C 589.327 -3.08431 -1.84691 0
M  V30 6403 C 588.991 -4.41694 -1.17284 0
M  V30 6404 C 589.988 -5.17062 -0.542532 0
M  V30 6405 C 587.673 -4.8843 -1.17223 0
M  V30 6406 C 589.667 -6.37351 0.0793953 0
M  V30 6407 C 587.354 -6.08652 -0.54647 0
M  V30 6408 C 588.352 -6.82955 0.0782458 0
M  V30 6409 O 588.04 -8.00897 0.694158 0
M  V30 6410 H 587.772 -0.619286 -0.271036 0
M  V30 6411 H 590.326 -2.0454 -0.187768 0
M  V30 6412 H 588.556 -2.85163 -2.61188 0
M  V30 6413 H 590.245 -3.23733 -2.44851 0
M  V30 6414 H 591.011 -4.8204 -0.535045 0
M  V30 6415 H 586.89 -4.30542 -1.64788 0
M  V30 6416 H 590.434 -6.95287 0.567612 0
M  V30 6417 H 586.331 -6.4314 -0.55151 0
M  V30 6418 H 587.099 -8.16352 0.592537 0
M  V30 6419 N 589.762 0.448376 -1.51087 0
M  V30 6420 C 590.695 1.56298 -1.66272 0
M  V30 6421 C 591.673 1.54381 -0.510419 0
M  V30 6422 O 592.857 1.73671 -0.732854 0
M  V30 6423 C 589.984 2.94883 -1.66618 0
M  V30 6424 C 589.03 3.14868 -2.87681 0
M  V30 6425 S 589.863 2.9234 -4.48662 0
M  V30 6426 C 591.019 4.33227 -4.51735 0
M  V30 6427 H 591.252 1.43182 -2.6055 0
M  V30 6428 H 588.785 0.637309 -1.40633 0
M  V30 6429 H 590.743 3.74771 -1.67502 0
M  V30 6430 H 589.404 3.05371 -0.735358 0
M  V30 6431 H 588.597 4.16166 -2.84292 0
M  V30 6432 H 588.199 2.42788 -2.84482 0
M  V30 6433 H 590.491 5.26247 -4.26697 0
M  V30 6434 H 591.434 4.41653 -5.53487 0
M  V30 6435 H 591.842 4.16367 -3.81181 0
M  V30 6436 N 591.24 1.41047 0.703093 0
M  V30 6437 C 592.489 1.39301 1.4587 0
M  V30 6438 C 592.802 0.00267077 1.956 0
M  V30 6439 O 594.008 -0.137414 2.71152 0
M  V30 6440 C 592.464 2.44891 2.63735 0
M  V30 6441 C 592.072 3.89796 2.20824 0
M  V30 6442 C 593.816 2.5227 3.41409 0
M  V30 6443 C 591.723 4.86955 3.35602 0
M  V30 6444 H 590.653 0.518005 0.547893 0
M  V30 6445 H 593.304 1.66839 0.764009 0
M  V30 6446 H 591.686 2.10472 3.35436 0
M  V30 6447 H 592.86 4.33424 1.56461 0
M  V30 6448 H 591.175 3.86008 1.56163 0
M  V30 6449 H 593.772 3.22044 4.26839 0
M  V30 6450 H 594.115 1.55714 3.86081 0
M  V30 6451 H 594.648 2.85742 2.7676 0
M  V30 6452 H 591.387 5.84888 2.9595 0
M  V30 6453 H 590.907 4.47982 3.98839 0
M  V30 6454 H 592.586 5.07361 4.01489 0
M  V30 6455 N 592.718 -0.936591 1.26751 0
M  V30 6456 C 593.965 -1.68331 1.12566 0
M  V30 6457 C 594.293 -1.91677 -0.330168 0
M  V30 6458 O 593.548 -1.49859 -1.2586 0
M  V30 6459 C 593.847 -3.06099 1.84494 0
M  V30 6460 C 593.513 -3.02493 3.34378 0
M  V30 6461 C 592.175 -3.01217 3.75262 0
M  V30 6462 C 594.527 -2.94453 4.30055 0
M  V30 6463 C 591.855 -2.89672 5.10203 0
M  V30 6464 C 594.207 -2.84449 5.65041 0
M  V30 6465 C 592.871 -2.81518 6.0523 0
M  V30 6466 H 592.141 -0.615965 0.411907 0
M  V30 6467 H 594.788 -1.09292 1.5725 0
M  V30 6468 H 593.093 -3.6879 1.32292 0
M  V30 6469 H 594.79 -3.62733 1.70955 0
M  V30 6470 H 591.38 -3.04269 3.01858 0
M  V30 6471 H 595.564 -2.94544 3.99447 0
M  V30 6472 H 590.82 -2.85783 5.40498 0
M  V30 6473 H 594.994 -2.77192 6.38856 0
M  V30 6474 H 592.621 -2.72329 7.09747 0
M  V30 6475 N 594.196 -1.08629 -1.14182 0
M  V30 6476 C 595.443 -0.817345 -1.85272 0
M  V30 6477 C 595.771 0.656917 -1.83071 0
M  V30 6478 O 595.026 1.49897 -1.25815 0
M  V30 6479 C 595.325 -1.28734 -3.3341 0
M  V30 6480 C 594.991 -2.76981 -3.55798 0
M  V30 6481 C 593.653 -3.17469 -3.61617 0
M  V30 6482 C 596.005 -3.72605 -3.64438 0
M  V30 6483 C 593.333 -4.52371 -3.736 0
M  V30 6484 C 595.685 -5.07286 -3.77947 0
M  V30 6485 C 594.349 -5.47376 -3.82016 0
M  V30 6486 H 593.619 -0.299088 -0.677958 0
M  V30 6487 H 596.266 -1.35962 -1.34857 0
M  V30 6488 H 594.571 -0.664702 -3.8612 0
M  V30 6489 H 596.268 -1.05598 -3.86846 0
M  V30 6490 H 592.858 -2.44644 -3.51919 0
M  V30 6491 H 597.042 -3.42443 -3.5923 0
M  V30 6492 H 592.298 -4.82882 -3.75013 0
M  V30 6493 H 596.472 -5.81243 -3.83575 0
M  V30 6494 H 594.099 -6.51906 -3.91054 0
M  V30 6495 N 595.674 1.31259 -0.872281 0
M  V30 6496 C 596.92 1.96913 -0.485083 0
M  V30 6497 C 597.253 1.68774 0.960667 0
M  V30 6498 O 596.528 0.985495 1.67685 0
M  V30 6499 C 596.811 3.52299 -0.745502 0
M  V30 6500 C 596.664 3.90002 -2.24095 0
M  V30 6501 C 597.983 4.39582 -0.213516 0
M  V30 6502 H 595.102 0.715252 -0.177716 0
M  V30 6503 H 597.744 1.55347 -1.09395 0
M  V30 6504 H 595.894 3.87835 -0.227276 0
M  V30 6505 H 597.566 3.64555 -2.82661 0
M  V30 6506 H 595.809 3.38526 -2.71261 0
M  V30 6507 H 596.48 4.98352 -2.37381 0
M  V30 6508 H 598.956 4.10882 -0.656902 0
M  V30 6509 H 597.832 5.47251 -0.42516 0
M  V30 6510 H 598.093 4.33158 0.884666 0
M  V30 6511 N 597.152 0.631951 1.44375 0
M  V30 6512 C 598.082 -0.0593243 2.33425 0
M  V30 6513 C 599.063 -0.833964 1.48253 0
M  V30 6514 O 600.248 -0.799682 1.76971 0
M  V30 6515 C 597.378 -1.04096 3.31333 0
M  V30 6516 C 596.332 -0.377899 4.26328 0
M  V30 6517 C 595.658 -1.4695 5.14111 0
M  V30 6518 C 596.958 0.716371 5.17364 0
M  V30 6519 H 598.652 0.684287 2.91475 0
M  V30 6520 H 596.198 0.330518 1.40156 0
M  V30 6521 H 598.151 -1.53331 3.92514 0
M  V30 6522 H 596.875 -1.81547 2.71493 0
M  V30 6523 H 595.534 0.0938054 3.6648 0
M  V30 6524 H 595.182 -2.2349 4.50623 0
M  V30 6525 H 594.882 -1.03121 5.78481 0
M  V30 6526 H 596.406 -1.96363 5.78164 0
M  V30 6527 H 597.82 0.307089 5.72477 0
M  V30 6528 H 596.217 1.07784 5.90341 0
M  V30 6529 H 597.287 1.58316 4.58327 0
M  V30 6530 N 598.631 -1.53133 0.372548 0
M  V30 6531 C 599.877 -2.01654 -0.215277 0
M  V30 6532 C 600.21 -1.25914 -1.47849 0
M  V30 6533 O 599.485 -0.3548 -1.91237 0
M  V30 6534 C 599.768 -3.56609 -0.500187 0
M  V30 6535 C 599.621 -4.43036 0.777145 0
M  V30 6536 C 600.94 -4.20528 -1.29786 0
M  V30 6537 H 598.059 -0.732991 -0.0767686 0
M  V30 6538 H 600.701 -1.83335 0.498814 0
M  V30 6539 H 598.851 -3.7235 -1.10852 0
M  V30 6540 H 600.523 -4.39079 1.41447 0
M  V30 6541 H 598.766 -4.10723 1.39604 0
M  V30 6542 H 599.437 -5.49424 0.532662 0
M  V30 6543 H 601.913 -4.08663 -0.783198 0
M  V30 6544 H 600.789 -5.28962 -1.46596 0
M  V30 6545 H 601.05 -3.77051 -2.30836 0
M  V30 6546 N 600.109 -0.101901 -1.5727 0
M  V30 6547 C 601.358 0.559922 -1.93772 0
M  V30 6548 C 601.671 1.68913 -0.98629 0
M  V30 6549 O 602.877 2.41256 -1.24529 0
M  V30 6550 C 601.333 1.04739 -3.44322 0
M  V30 6551 C 600.941 -0.05243 -4.47969 0
M  V30 6552 C 602.685 1.68157 -3.89774 0
M  V30 6553 C 600.592 0.450781 -5.8968 0
M  V30 6554 H 599.522 0.212931 -0.723309 0
M  V30 6555 H 602.173 -0.179001 -1.82625 0
M  V30 6556 H 600.555 1.84021 -3.50645 0
M  V30 6557 H 601.729 -0.828157 -4.53297 0
M  V30 6558 H 600.044 -0.592202 -4.12167 0
M  V30 6559 H 602.641 2.0689 -4.93052 0
M  V30 6560 H 602.984 2.55338 -3.28798 0
M  V30 6561 H 603.517 0.954453 -3.8618 0
M  V30 6562 H 600.256 -0.38458 -6.54371 0
M  V30 6563 H 599.776 1.19336 -5.87809 0
M  V30 6564 H 601.455 0.917555 -6.40461 0
M  V30 6565 N 601.587 1.56661 0.17182 0
M  V30 6566 C 602.834 1.81965 0.888529 0
M  V30 6567 C 603.162 0.6789 1.82267 0
M  V30 6568 O 602.417 -0.333875 1.92831 0
M  V30 6569 C 602.716 3.13435 1.71736 0
M  V30 6570 C 602.382 4.41159 0.932184 0
M  V30 6571 C 601.044 4.75851 0.715481 0
M  V30 6572 C 603.396 5.19803 0.381387 0
M  V30 6573 C 600.724 5.86666 -0.063126 0
M  V30 6574 C 603.076 6.31433 -0.384129 0
M  V30 6575 C 601.74 6.64692 -0.611637 0
M  V30 6576 H 601.01 0.665859 0.325136 0
M  V30 6577 H 603.657 1.90884 0.153495 0
M  V30 6578 H 601.962 2.99857 2.52177 0
M  V30 6579 H 603.659 3.30224 2.27493 0
M  V30 6580 H 600.249 4.13947 1.11112 0
M  V30 6581 H 604.433 4.93396 0.536148 0
M  V30 6582 H 599.689 6.10892 -0.249136 0
M  V30 6583 H 603.863 6.91577 -0.818185 0
M  V30 6584 H 601.49 7.50398 -1.21684 0
M  V30 6585 N 603.065 -0.440357 1.51323 0
M  V30 6586 C 603.995 -1.54174 1.75364 0
M  V30 6587 C 604.976 -1.59039 0.603375 0
M  V30 6588 O 606.161 -1.74815 0.845774 0
M  V30 6589 C 603.291 -2.92277 1.87593 0
M  V30 6590 C 602.245 -3.02274 3.03009 0
M  V30 6591 C 601.571 -4.42327 3.00418 0
M  V30 6592 C 602.871 -2.76634 4.43024 0
M  V30 6593 H 604.565 -1.34307 2.67585 0
M  V30 6594 H 602.111 -0.644678 1.28763 0
M  V30 6595 H 604.064 -3.69284 2.02995 0
M  V30 6596 H 602.788 -3.13369 0.920179 0
M  V30 6597 H 601.447 -2.27706 2.87307 0
M  V30 6598 H 601.095 -4.60382 2.02626 0
M  V30 6599 H 600.795 -4.49946 3.77918 0
M  V30 6600 H 602.319 -5.21312 3.17909 0
M  V30 6601 H 603.733 -3.43376 4.59093 0
M  V30 6602 H 602.13 -2.95666 5.22208 0
M  V30 6603 H 603.2 -1.72262 4.5327 0
M  V30 6604 N 604.543 -1.41418 -0.695603 0
M  V30 6605 C 605.791 -1.40496 -1.45277 0
M  V30 6606 C 606.112 -0.0149538 -1.94994 0
M  V30 6607 O 605.382 0.9432 -1.71699 0
M  V30 6608 H 603.962 -0.517147 -0.539044 0
M  V30 6609 H 606.624 -1.76656 -0.823321 0
M  V30 6610 H 605.72 -2.09214 -2.31595 0
M  V30 6611 N 606.021 0.929856 -1.27246 0
M  V30 6612 C 607.246 1.71674 -1.16374 0
M  V30 6613 C 607.671 1.86064 0.276024 0
M  V30 6614 O 607.029 1.3591 1.19992 0
M  V30 6615 C 607.077 3.09526 -1.85003 0
M  V30 6616 O 606.181 3.96142 -1.14653 0
M  V30 6617 H 605.522 0.52629 -0.404863 0
M  V30 6618 H 608.052 1.16381 -1.68276 0
M  V30 6619 H 608.062 3.59852 -1.92276 0
M  V30 6620 H 606.737 2.98369 -2.89739 0
M  V30 6621 H 605.314 3.54584 -1.15433 0
M  V30 6622 N 607.499 1.09233 1.13605 0
M  V30 6623 C 608.746 0.827159 1.84836 0
M  V30 6624 C 609.074 -0.647199 1.83416 0
M  V30 6625 O 608.329 -1.49228 1.26608 0
M  V30 6626 C 608.628 1.305 3.32723 0
M  V30 6627 C 608.294 2.78864 3.54325 0
M  V30 6628 C 606.956 3.19382 3.59928 0
M  V30 6629 C 609.308 3.74532 3.62457 0
M  V30 6630 C 606.636 4.54346 3.71196 0
M  V30 6631 C 608.988 5.09283 3.75252 0
M  V30 6632 C 607.652 5.49394 3.79108 0
M  V30 6633 H 606.922 0.302679 0.676363 0
M  V30 6634 H 609.569 1.36676 1.34134 0
M  V30 6635 H 607.874 0.68517 3.85762 0
M  V30 6636 H 609.571 1.07648 3.86281 0
M  V30 6637 H 606.161 2.46507 3.50617 0
M  V30 6638 H 610.345 3.44343 3.57409 0
M  V30 6639 H 605.601 4.84864 3.72447 0
M  V30 6640 H 609.775 5.83269 3.80487 0
M  V30 6641 H 607.402 6.5397 3.87591 0
M  V30 6642 N 608.977 -1.30795 0.87923 0
M  V30 6643 C 610.207 -2.00237 0.50881 0
M  V30 6644 C 610.615 -1.66115 -0.905682 0
M  V30 6645 O 609.958 -0.89138 -1.60624 0
M  V30 6646 C 610.02 -3.54508 0.597003 0
M  V30 6647 C 609.684 -4.12131 1.97477 0
M  V30 6648 C 610.681 -4.28552 2.94346 0
M  V30 6649 C 608.366 -4.47644 2.2786 0
M  V30 6650 C 610.36 -4.79689 4.19735 0
M  V30 6651 C 608.047 -4.98481 3.53496 0
M  V30 6652 C 609.045 -5.14456 4.49248 0
M  V30 6653 O 608.733 -5.64199 5.72656 0
M  V30 6654 H 608.465 -0.647026 0.195788 0
M  V30 6655 H 611.019 -1.67785 1.1848 0
M  V30 6656 H 609.249 -3.86461 -0.135945 0
M  V30 6657 H 610.938 -4.05198 0.238684 0
M  V30 6658 H 611.704 -4.01424 2.72183 0
M  V30 6659 H 607.583 -4.34481 1.54102 0
M  V30 6660 H 611.127 -4.92073 4.9448 0
M  V30 6661 H 607.024 -5.25044 3.75498 0
M  V30 6662 H 607.792 -5.82551 5.74957 0
M  V30 6663 N 610.455 -0.639598 -1.44038 0
M  V30 6664 C 611.385 0.0469443 -2.33453 0
M  V30 6665 C 612.366 0.82609 -1.48694 0
M  V30 6666 O 613.551 0.790285 -1.77393 0
M  V30 6667 C 610.681 1.02338 -3.3188 0
M  V30 6668 C 609.635 0.355284 -4.26523 0
M  V30 6669 C 608.961 1.44221 -5.14883 0
M  V30 6670 C 610.261 -0.743798 -5.16977 0
M  V30 6671 H 611.955 -0.699735 -2.91108 0
M  V30 6672 H 609.501 -0.337946 -1.39978 0
M  V30 6673 H 611.454 1.51247 -3.93322 0
M  V30 6674 H 610.178 1.80105 -2.72451 0
M  V30 6675 H 608.837 -0.113239 -3.66425 0
M  V30 6676 H 608.485 2.21097 -4.51802 0
M  V30 6677 H 608.185 1.00052 -5.79019 0
M  V30 6678 H 609.709 1.93295 -5.79197 0
M  V30 6679 H 611.123 -0.337444 -5.72306 0
M  V30 6680 H 609.52 -1.10914 -5.89761 0
M  V30 6681 H 610.59 -1.60745 -4.57481 0
M  V30 6682 N 611.933 1.52934 -0.380664 0
M  V30 6683 C 613.182 2.00651 0.205477 0
M  V30 6684 C 613.495 1.27164 1.48623 0
M  V30 6685 O 614.701 1.65547 2.15189 0
M  V30 6686 C 613.157 3.57479 0.416726 0
M  V30 6687 C 612.765 4.39857 -0.850268 0
M  V30 6688 C 614.509 4.13509 0.959702 0
M  V30 6689 C 612.416 5.88269 -0.607773 0
M  V30 6690 H 611.346 0.749684 0.0805614 0
M  V30 6691 H 613.997 1.76508 -0.501732 0
M  V30 6692 H 612.379 3.77836 1.18557 0
M  V30 6693 H 613.553 4.31269 -1.62307 0
M  V30 6694 H 611.868 3.95005 -1.31756 0
M  V30 6695 H 614.465 5.22039 1.15669 0
M  V30 6696 H 614.808 3.69054 1.92626 0
M  V30 6697 H 615.341 3.9701 0.250645 0
M  V30 6698 H 612.08 6.3703 -1.54509 0
M  V30 6699 H 611.6 5.99667 0.126247 0
M  V30 6700 H 613.279 6.46558 -0.239014 0
M  V30 6701 N 613.412 0.11024 1.57214 0
M  V30 6702 C 614.36 -0.860586 2.16094 0
M  V30 6703 C 615.354 -1.28156 1.1078 0
M  V30 6704 O 616.56 -1.25433 1.29099 0
M  V30 6705 H 612.935 -0.295606 0.691463 0
M  V30 6706 H 614.906 -0.33942 2.96463 0
M  V30 6707 C 613.655 -2.10421 2.768 0
M  V30 6708 H 612.978 -1.7892 3.5753 0
M  V30 6709 H 614.418 -2.76375 3.21547 0
M  V30 6710 C 612.877 -2.88823 1.73444 0
M  V30 6711 O 613.407 -3.839 1.18251 0
M  V30 6712 N 611.613 -2.52649 1.43586 0
M  V30 6713 H 611.16 -1.754 1.8866 0
M  V30 6714 H 611.118 -3.05403 0.746735 0
M  V30 6715 N 614.89 -1.56749 -0.16351 0
M  V30 6716 C 615.82 -2.00042 -1.20438 0
M  V30 6717 C 616.801 -0.877256 -1.45733 0
M  V30 6718 O 617.986 -1.1439 -1.56935 0
M  V30 6719 C 615.116 -2.36697 -2.54149 0
M  V30 6720 C 614.07 -3.52046 -2.43408 0
M  V30 6721 C 613.396 -3.74466 -3.81679 0
M  V30 6722 C 614.696 -4.85247 -1.93216 0
M  V30 6723 H 616.39 -2.87244 -0.844477 0
M  V30 6724 H 613.936 -1.38194 -0.40478 0
M  V30 6725 H 615.889 -2.65582 -3.27176 0
M  V30 6726 H 614.613 -1.46414 -2.91943 0
M  V30 6727 H 613.272 -3.23301 -1.72834 0
M  V30 6728 H 612.92 -2.81461 -4.1688 0
M  V30 6729 H 612.62 -4.52084 -3.75359 0
M  V30 6730 H 614.144 -4.0576 -4.5628 0
M  V30 6731 H 615.558 -5.12957 -2.56023 0
M  V30 6732 H 613.955 -5.66556 -1.97825 0
M  V30 6733 H 615.025 -4.7672 -0.88689 0
M  V30 6734 N 616.368 0.432326 -1.51554 0
M  V30 6735 C 617.617 1.17831 -1.63703 0
M  V30 6736 C 617.93 1.92229 -0.36156 0
M  V30 6737 O 619.136 2.69069 -0.362495 0
M  V30 6738 C 617.592 2.14318 -2.89129 0
M  V30 6739 C 617.2 1.45544 -4.23699 0
M  V30 6740 C 618.944 2.89319 -3.10636 0
M  V30 6741 C 616.851 2.40545 -5.4027 0
M  V30 6742 H 615.781 0.443533 -0.60975 0
M  V30 6743 H 618.432 0.444878 -1.78026 0
M  V30 6744 H 616.814 2.91117 -2.68452 0
M  V30 6745 H 617.988 0.742693 -4.54775 0
M  V30 6746 H 616.303 0.826772 -4.0811 0
M  V30 6747 H 618.9 3.60495 -3.94902 0
M  V30 6748 H 619.243 3.50951 -2.23918 0
M  V30 6749 H 619.776 2.19625 -3.31677 0
M  V30 6750 H 616.515 1.83594 -6.29264 0
M  V30 6751 H 616.035 3.09859 -5.13563 0
M  V30 6752 H 617.714 3.01569 -5.72421 0
M  V30 6753 N 617.846 1.41785 0.688094 0
M  V30 6754 C 618.776 1.47 1.8142 0
M  V30 6755 C 619.757 0.327881 1.6691 0
M  V30 6756 O 620.942 0.540362 1.86531 0
M  V30 6757 C 618.072 1.35876 3.19617 0
M  V30 6758 C 617.026 2.47976 3.48844 0
M  V30 6759 C 616.352 2.21915 4.86475 0
M  V30 6760 C 617.652 3.90309 3.47068 0
M  V30 6761 H 619.346 2.41247 1.77314 0
M  V30 6762 H 616.892 1.16116 0.851651 0
M  V30 6763 H 618.845 1.38134 3.98117 0
M  V30 6764 H 617.569 0.38116 3.24368 0
M  V30 6765 H 616.228 2.45013 2.72698 0
M  V30 6766 H 615.876 1.2248 4.8786 0
M  V30 6767 H 615.576 2.97037 5.06994 0
M  V30 6768 H 617.1 2.25901 5.67275 0
M  V30 6769 H 618.514 3.94947 4.1556 0
M  V30 6770 H 616.911 4.65175 3.7912 0
M  V30 6771 H 617.981 4.17927 2.45896 0
M  V30 6772 N 619.324 -0.923095 1.27737 0
M  V30 6773 C 620.287 -2.00587 1.10894 0
M  V30 6774 C 621.287 -1.60718 0.0514927 0
M  V30 6775 O 622.477 -1.71658 0.296481 0
M  V30 6776 C 619.609 -3.33829 0.690717 0
M  V30 6777 H 620.802 -2.16959 2.07048 0
M  V30 6778 H 618.355 -1.10451 1.1059 0
M  V30 6779 H 619.09 -3.23157 -0.272 0
M  V30 6780 H 618.875 -3.64125 1.45448 0
M  V30 6781 H 620.365 -4.13336 0.595252 0
M  V30 6782 N 620.802 -1.09834 -1.13024 0
M  V30 6783 C 622.048 -0.83819 -1.84668 0
M  V30 6784 C 622.381 0.634645 -1.83537 0
M  V30 6785 O 621.656 1.46753 -1.27647 0
M  V30 6786 C 621.939 -1.37933 -3.32636 0
M  V30 6787 C 621.792 -2.91857 -3.42257 0
M  V30 6788 C 623.111 -1.01654 -4.28199 0
M  V30 6789 H 620.23 -0.30595 -0.670495 0
M  V30 6790 H 622.872 -1.36044 -1.32635 0
M  V30 6791 H 621.022 -0.935111 -3.77078 0
M  V30 6792 H 622.694 -3.44759 -3.06495 0
M  V30 6793 H 620.937 -3.28776 -2.83 0
M  V30 6794 H 621.608 -3.24799 -4.46329 0
M  V30 6795 H 624.084 -1.39973 -3.9185 0
M  V30 6796 H 622.96 -1.42217 -5.30156 0
M  V30 6797 H 623.221 0.0747794 -4.42037 0
M  V30 6798 N 622.28 1.30327 -0.886154 0
M  V30 6799 C 623.526 1.96388 -0.505941 0
M  V30 6800 C 623.859 1.69784 0.942712 0
M  V30 6801 O 623.134 1.00322 1.6663 0
M  V30 6802 C 623.417 3.51488 -0.782826 0
M  V30 6803 C 623.27 3.87603 -2.28219 0
M  V30 6804 C 624.589 4.39331 -0.260128 0
M  V30 6805 H 621.708 0.713327 -0.185292 0
M  V30 6806 H 624.35 1.54178 -1.11036 0
M  V30 6807 H 622.5 3.87572 -0.268399 0
M  V30 6808 H 624.172 3.61537 -2.86512 0
M  V30 6809 H 622.415 3.3563 -2.74837 0
M  V30 6810 H 623.086 4.95806 -2.42653 0
M  V30 6811 H 625.562 4.10162 -0.700444 0
M  V30 6812 H 624.438 5.46769 -0.483179 0
M  V30 6813 H 624.699 4.34072 0.838674 0
M  V30 6814 N 623.758 0.647228 1.43697 0
M  V30 6815 C 624.721 -0.0385101 2.29168 0
M  V30 6816 C 625.721 -0.756487 1.41894 0
M  V30 6817 O 626.911 -0.598641 1.63591 0
M  V30 6818 C 624.043 -1.06524 3.23829 0
M  V30 6819 H 625.236 0.713445 2.9129 0
M  V30 6820 H 622.789 0.408153 1.50877 0
M  V30 6821 H 623.524 -1.84664 2.66589 0
M  V30 6822 H 623.309 -0.554147 3.88164 0
M  V30 6823 H 624.799 -1.54432 3.87996 0
M  V30 6824 N 625.236 -1.5273 0.388769 0
M  V30 6825 C 626.169 -2.22861 -0.490752 0
M  V30 6826 C 627.147 -1.22912 -1.06449 0
M  V30 6827 O 628.331 -1.51896 -1.11624 0
M  V30 6828 C 625.458 -2.94141 -1.67925 0
M  V30 6829 C 624.504 -4.08355 -1.23081 0
M  V30 6830 S 625.337 -5.35077 -0.212786 0
M  V30 6831 C 626.493 -6.09879 -1.40708 0
M  V30 6832 H 626.726 -2.97115 0.104787 0
M  V30 6833 H 624.259 -1.53428 0.172956 0
M  V30 6834 H 626.217 -3.35818 -2.36085 0
M  V30 6835 H 624.878 -2.19568 -2.24608 0
M  V30 6836 H 624.071 -4.57328 -2.11818 0
M  V30 6837 H 623.673 -3.68688 -0.628121 0
M  V30 6838 H 625.965 -6.36018 -2.33424 0
M  V30 6839 H 626.908 -7.01586 -0.958271 0
M  V30 6840 H 627.316 -5.40646 -1.62364 0
M  V30 6841 N 626.714 -0.118576 -1.57153 0
M  V30 6842 C 627.677 0.817464 -2.14127 0
M  V30 6843 C 628.677 1.1949 -1.07604 0
M  V30 6844 O 629.867 1.12048 -1.33382 0
M  V30 6845 C 626.999 2.10541 -2.68115 0
M  V30 6846 H 628.192 0.322339 -2.98163 0
M  V30 6847 H 625.745 0.130655 -1.55753 0
M  V30 6848 H 626.48 2.64485 -1.87665 0
M  V30 6849 H 626.265 1.84425 -3.4602 0
M  V30 6850 H 627.755 2.77453 -3.12105 0
M  V30 6851 N 628.193 1.56834 0.155195 0
M  V30 6852 C 629.423 1.86778 0.883044 0
M  V30 6853 C 629.831 0.703824 1.75622 0
M  V30 6854 O 629.174 -0.33581 1.80605 0
M  V30 6855 C 629.236 3.1133 1.79761 0
M  V30 6856 C 628.9 4.43504 1.10242 0
M  V30 6857 C 629.897 5.17859 0.460204 0
M  V30 6858 C 627.582 4.90233 1.09437 0
M  V30 6859 C 629.576 6.37144 -0.180782 0
M  V30 6860 C 627.263 6.09444 0.449569 0
M  V30 6861 C 628.261 6.82744 -0.186888 0
M  V30 6862 O 627.949 7.99692 -0.821486 0
M  V30 6863 H 627.681 0.62352 0.261149 0
M  V30 6864 H 630.235 2.04813 0.155204 0
M  V30 6865 H 628.465 2.89282 2.56618 0
M  V30 6866 H 630.154 3.27587 2.39669 0
M  V30 6867 H 630.92 4.8283 0.458289 0
M  V30 6868 H 626.799 4.33109 1.57917 0
M  V30 6869 H 630.343 6.94296 -0.678154 0
M  V30 6870 H 626.24 6.43936 0.449123 0
M  V30 6871 H 627.008 8.15306 -0.722337 0
M  V30 6872 N 629.671 -0.424282 1.51781 0
M  V30 6873 C 630.581 -1.54087 1.76902 0
M  V30 6874 C 631.597 -1.61249 0.653826 0
M  V30 6875 O 632.773 -1.78247 0.937552 0
M  V30 6876 C 629.838 -2.8996 1.90063 0
M  V30 6877 C 628.899 -2.92809 3.13945 0
M  V30 6878 C 628.132 -4.22201 3.26469 0
M  V30 6879 O 628.355 -5.15286 2.44616 0
M  V30 6880 O 627.289 -4.31599 4.1953 0
M  V30 6881 H 631.115 -1.358 2.71647 0
M  V30 6882 H 628.7 -0.608618 1.36441 0
M  V30 6883 H 630.582 -3.70575 2.0063 0
M  V30 6884 H 629.257 -3.08347 0.985067 0
M  V30 6885 H 628.164 -2.11102 3.08847 0
M  V30 6886 H 629.497 -2.79369 4.05233 0
M  V30 6887 N 631.149 -1.42148 -0.680565 0
M  V30 6888 C 632.059 -1.47565 -1.82378 0
M  V30 6889 C 633.075 -0.36489 -1.70131 0
M  V30 6890 O 634.251 -0.614916 -1.91783 0
M  V30 6891 C 631.316 -1.37013 -3.18478 0
M  V30 6892 C 630.377 -2.58532 -3.42724 0
M  V30 6893 C 629.61 -2.48473 -4.72331 0
M  V30 6894 O 629.833 -1.51745 -5.49845 0
M  V30 6895 O 628.767 -3.38503 -4.97694 0
M  V30 6896 H 632.593 -2.44045 -1.80764 0
M  V30 6897 H 630.178 -1.23849 -0.835569 0
M  V30 6898 H 632.06 -1.33468 -3.99705 0
M  V30 6899 H 630.735 -0.436552 -3.20743 0
M  V30 6900 H 629.642 -2.67652 -2.61368 0
M  V30 6901 H 630.975 -3.50769 -3.45286 0
M  V30 6902 N 632.627 0.916307 -1.28225 0
M  V30 6903 C 633.559 2.02303 -1.07732 0
M  V30 6904 C 634.572 1.62773 -0.0298421 0
M  V30 6905 O 635.761 1.76406 -0.272626 0
M  V30 6906 C 632.861 3.33282 -0.614504 0
M  V30 6907 C 632.034 4.01439 -1.73682 0
M  V30 6908 C 631.093 5.10698 -1.26781 0
M  V30 6909 O 630.119 5.34038 -1.96958 0
M  V30 6910 N 631.321 5.80355 -0.129624 0
M  V30 6911 H 634.086 2.20442 -2.03041 0
M  V30 6912 H 631.647 1.08744 -1.19943 0
M  V30 6913 H 633.639 4.03699 -0.284397 0
M  V30 6914 H 632.209 3.11633 0.245664 0
M  V30 6915 H 631.429 3.24604 -2.23665 0
M  V30 6916 H 632.717 4.43721 -2.48976 0
M  V30 6917 H 632.115 5.6386 0.455847 0
M  V30 6918 H 630.672 6.51647 0.141224 0
M  V30 6919 N 634.105 1.10431 1.1244 0
M  V30 6920 C 635.053 0.747974 2.20246 0
M  V30 6921 C 636.047 -0.255848 1.67457 0
M  V30 6922 O 637.253 -0.116221 1.79624 0
M  V30 6923 H 633.628 0.223946 0.71788 0
M  V30 6924 H 635.599 1.6661 2.47556 0
M  V30 6925 C 634.348 0.195957 3.47147 0
M  V30 6926 H 633.671 0.959606 3.88113 0
M  V30 6927 H 635.111 -0.0153154 4.23997 0
M  V30 6928 C 633.57 -1.07132 3.19413 0
M  V30 6929 O 634.1 -2.15284 3.3914 0
M  V30 6930 N 632.306 -0.98994 2.73219 0
M  V30 6931 H 631.853 -0.109736 2.57366 0
M  V30 6932 H 631.811 -1.83856 2.55038 0
M  V30 6933 N 635.583 -1.29855 0.893053 0
M  V30 6934 C 636.515 -2.26911 0.32311 0
M  V30 6935 C 637.528 -1.54039 -0.526858 0
M  V30 6936 O 638.717 -1.75132 -0.345095 0
M  V30 6937 C 635.817 -3.34266 -0.558509 0
M  V30 6938 C 634.99 -4.36601 0.264222 0
M  V30 6939 C 634.049 -5.23326 -0.549171 0
M  V30 6940 O 633.075 -5.69192 0.0309883 0
M  V30 6941 N 634.277 -5.50008 -1.85664 0
M  V30 6942 H 637.042 -2.76455 1.15726 0
M  V30 6943 H 634.603 -1.4312 0.756859 0
M  V30 6944 H 636.595 -3.89211 -1.1089 0
M  V30 6945 H 635.165 -2.8459 -1.29334 0
M  V30 6946 H 634.385 -3.81409 0.996046 0
M  V30 6947 H 635.673 -5.02019 0.827906 0
M  V30 6948 H 635.071 -5.14542 -2.35081 0
M  V30 6949 H 633.628 -6.07796 -2.35431 0
M  V30 6950 N 637.061 -0.65484 -1.43351 0
M  V30 6951 C 638.024 0.0263562 -2.29185 0
M  V30 6952 C 639.024 0.748951 -1.42293 0
M  V30 6953 O 640.214 0.589957 -1.63906 0
M  V30 6954 C 637.346 1.04806 -3.2439 0
M  V30 6955 H 638.539 -0.728883 -2.90908 0
M  V30 6956 H 636.092 -0.416149 -1.50658 0
M  V30 6957 H 636.827 1.83247 -2.67565 0
M  V30 6958 H 636.612 0.533554 -3.88453 0
M  V30 6959 H 638.102 1.52372 -3.88809 0
M  V30 6960 N 638.539 1.52521 -0.396863 0
M  V30 6961 C 639.767 2.06091 0.18275 0
M  V30 6962 C 640.182 1.26796 1.39886 0
M  V30 6963 O 639.539 0.316585 1.79733 0
M  V30 6964 C 639.59 3.57362 0.545377 0
M  V30 6965 O 639.311 4.33656 -0.622428 0
M  V30 6966 C 640.812 4.27305 1.18004 0
M  V30 6967 H 638.032 0.670504 0.025789 0
M  V30 6968 H 640.576 1.96561 -0.564276 0
M  V30 6969 H 638.731 3.66941 1.2423 0
M  V30 6970 H 639.145 5.23507 -0.322662 0
M  V30 6971 H 640.619 5.34366 1.38408 0
M  V30 6972 H 641.096 3.83 2.1496 0
M  V30 6973 H 641.702 4.22064 0.523671 0
M  V30 6974 N 640.017 0.126909 1.57088 0
M  V30 6975 C 640.947 -0.816847 2.18746 0
M  V30 6976 C 641.928 -1.27161 1.12979 0
M  V30 6977 O 643.113 -1.33279 1.41246 0
M  V30 6978 C 640.243 -2.06398 2.79315 0
M  V30 6979 C 639.197 -1.74673 3.90735 0
M  V30 6980 C 638.523 -3.06482 4.38147 0
M  V30 6981 C 639.823 -1.0089 5.12463 0
M  V30 6982 H 641.517 -0.303032 2.97863 0
M  V30 6983 H 639.063 -0.144314 1.43275 0
M  V30 6984 H 641.016 -2.72885 3.2111 0
M  V30 6985 H 639.74 -2.60118 1.975 0
M  V30 6986 H 638.399 -1.10572 3.49527 0
M  V30 6987 H 638.047 -3.58152 3.5318 0
M  V30 6988 H 637.747 -2.86025 5.13287 0
M  V30 6989 H 639.271 -3.74073 4.82599 0
M  V30 6990 H 640.685 -1.57546 5.51228 0
M  V30 6991 H 639.082 -0.905006 5.93237 0
M  V30 6992 H 640.152 0.00297335 4.849 0
M  V30 6993 N 641.495 -1.56914 -0.146875 0
M  V30 6994 C 642.405 -2.0154 -1.20079 0
M  V30 6995 C 643.421 -0.930838 -1.47008 0
M  V30 6996 O 644.597 -1.24032 -1.58676 0
M  V30 6997 C 641.662 -2.38715 -2.51428 0
M  V30 6998 C 640.723 -3.6112 -2.32145 0
M  V30 6999 C 639.956 -3.96512 -3.57231 0
M  V30 7000 O 640.179 -3.32566 -4.63418 0
M  V30 7001 O 639.113 -4.89758 -3.49887 0
M  V30 7002 H 642.939 -2.91506 -0.851924 0
M  V30 7003 H 640.524 -1.45106 -0.355607 0
M  V30 7004 H 642.406 -2.63485 -3.28867 0
M  V30 7005 H 641.081 -1.51903 -2.85845 0
M  V30 7006 H 639.988 -3.41536 -1.52656 0
M  V30 7007 H 641.321 -4.48549 -2.02644 0
M  V30 7008 N 642.974 0.416227 -1.52004 0
M  V30 7009 C 643.884 1.53147 -1.77717 0
M  V30 7010 C 644.9 1.609 -0.662368 0
M  V30 7011 O 646.076 1.77747 -0.946991 0
M  V30 7012 C 643.141 2.88948 -1.91598 0
M  V30 7013 C 642.202 2.9114 -3.15493 0
M  V30 7014 C 641.435 4.20464 -3.28703 0
M  V30 7015 O 641.658 5.13981 -2.47345 0
M  V30 7016 O 640.592 4.29368 -4.21813 0
M  V30 7017 H 644.418 1.34357 -2.72363 0
M  V30 7018 H 642.003 0.601373 -1.36762 0
M  V30 7019 H 643.885 3.69505 -2.02593 0
M  V30 7020 H 642.56 3.07821 -1.00141 0
M  V30 7021 H 641.467 2.09461 -3.09962 0
M  V30 7022 H 642.8 2.77216 -4.06709 0
M  V30 7023 N 644.452 1.42507 0.673017 0
M  V30 7024 C 645.415 1.4582 1.76831 0
M  V30 7025 C 646.415 0.345542 1.57043 0
M  V30 7026 O 647.605 0.606447 1.63303 0
M  V30 7027 C 644.737 1.29158 3.15485 0
M  V30 7028 H 645.93 2.43345 1.7528 0
M  V30 7029 H 643.483 1.28981 0.882817 0
M  V30 7030 H 644.218 0.325626 3.22661 0
M  V30 7031 H 644.003 2.09797 3.31252 0
M  V30 7032 H 645.493 1.34363 3.95394 0
M  V30 7033 N 645.93 -0.909495 1.28709 0
M  V30 7034 C 646.84 -2.04558 1.14861 0
M  V30 7035 C 647.856 -1.73842 0.0741621 0
M  V30 7036 O 649.032 -1.99383 0.2843 0
M  V30 7037 C 646.097 -3.36957 0.816148 0
M  V30 7038 C 645.158 -3.81255 1.97341 0
M  V30 7039 C 644.391 -5.07335 1.65671 0
M  V30 7040 O 644.614 -5.67514 0.573053 0
M  V30 7041 O 643.548 -5.47449 2.50167 0
M  V30 7042 H 647.374 -2.19161 2.10243 0
M  V30 7043 H 644.959 -1.03159 1.08068 0
M  V30 7044 H 646.841 -4.16436 0.644873 0
M  V30 7045 H 645.516 -3.2352 -0.107983 0
M  V30 7046 H 644.423 -3.02584 2.19986 0
M  V30 7047 H 645.756 -3.99261 2.87839 0
M  V30 7048 N 647.408 -1.11026 -1.11852 0
M  V30 7049 C 648.34 -0.72249 -2.17515 0
M  V30 7050 C 649.353 0.243782 -1.60964 0
M  V30 7051 O 650.542 0.0273252 -1.78479 0
M  V30 7052 C 647.642 -0.0463979 -3.38868 0
M  V30 7053 C 646.815 -1.0384 -4.24895 0
M  V30 7054 C 645.874 -0.392659 -5.24733 0
M  V30 7055 O 644.9 -1.0453 -5.5952 0
M  V30 7056 N 646.102 0.846296 -5.74298 0
M  V30 7057 H 648.867 -1.63161 -2.51393 0
M  V30 7058 H 646.428 -0.999899 -1.27333 0
M  V30 7059 H 648.42 0.397215 -4.02746 0
M  V30 7060 H 646.99 0.765231 -3.03089 0
M  V30 7061 H 646.21 -1.6601 -3.57539 0
M  V30 7062 H 647.498 -1.70968 -4.79215 0
M  V30 7063 H 646.896 1.39578 -5.4821 0
M  V30 7064 H 645.453 1.23296 -6.40032 0
M  V30 7065 N 648.886 1.2938 -0.899927 0
M  V30 7066 C 649.833 2.27713 -0.376243 0
M  V30 7067 C 650.803 1.57016 0.541774 0
M  V30 7068 O 651.988 1.84997 0.466966 0
M  V30 7069 C 649.128 3.42889 0.39 0
M  V30 7070 C 648.241 4.28369 -0.558938 0
M  V30 7071 C 647.376 5.30726 0.224379 0
M  V30 7072 C 646.415 6.07862 -0.719068 0
M  V30 7073 N 645.552 7.02094 0.0298569 0
M  V30 7074 H 650.392 2.71888 -1.21988 0
M  V30 7075 H 647.929 1.33724 -0.612879 0
M  V30 7076 H 649.887 4.08443 0.850314 0
M  V30 7077 H 648.517 2.99743 1.19809 0
M  V30 7078 H 647.569 3.62986 -1.13777 0
M  V30 7079 H 648.881 4.82068 -1.2811 0
M  V30 7080 H 648.035 6.02098 0.745881 0
M  V30 7081 H 646.774 4.77759 0.979674 0
M  V30 7082 H 645.779 5.35353 -1.25207 0
M  V30 7083 H 647.004 6.62917 -1.4737 0
M  V30 7084 H 644.95 6.51496 0.767415 0
M  V30 7085 H 644.867 7.5335 -0.632391 0
M  V30 7086 H 646.135 7.77685 0.531615 0
M  V30 7087 N 650.364 0.662433 1.43002 0
M  V30 7088 C 651.274 -0.0239199 2.34588 0
M  V30 7089 C 652.29 -0.802255 1.54402 0
M  V30 7090 O 653.466 -0.747401 1.87018 0
M  V30 7091 C 650.531 -0.972098 3.32793 0
M  V30 7092 C 649.592 -0.189673 4.28881 0
M  V30 7093 C 648.825 -1.09269 5.22395 0
M  V30 7094 O 649.048 -2.33209 5.20547 0
M  V30 7095 O 647.982 -0.560136 5.99288 0
M  V30 7096 H 651.808 0.730171 2.94792 0
M  V30 7097 H 649.393 0.422635 1.43297 0
M  V30 7098 H 651.275 -1.51676 3.93157 0
M  V30 7099 H 649.95 -1.70626 2.75079 0
M  V30 7100 H 648.857 0.398794 3.71968 0
M  V30 7101 H 650.19 0.50511 4.89601 0
M  V30 7102 N 651.842 -1.52309 0.404946 0
M  V30 7103 C 652.805 -2.25491 -0.410651 0
M  V30 7104 C 653.805 -1.27704 -0.977154 0
M  V30 7105 O 654.995 -1.51679 -0.856691 0
M  V30 7106 C 652.127 -3.02197 -1.57765 0
M  V30 7107 H 653.32 -2.99015 0.230277 0
M  V30 7108 H 650.873 -1.55506 0.157377 0
M  V30 7109 H 651.608 -2.33013 -2.25556 0
M  V30 7110 H 651.393 -3.73987 -1.17797 0
M  V30 7111 H 652.883 -3.57719 -2.15469 0
M  V30 7112 N 653.32 -0.135238 -1.57019 0
M  V30 7113 C 654.23 0.822226 -2.19719 0
M  V30 7114 C 655.246 1.28057 -1.17802 0
M  V30 7115 O 656.422 1.3402 -1.50335 0
M  V30 7116 C 653.487 2.0484 -2.79717 0
M  V30 7117 C 652.548 1.64042 -3.96723 0
M  V30 7118 C 651.781 2.80814 -4.53849 0
M  V30 7119 O 652.004 3.967 -4.0986 0
M  V30 7120 O 650.938 2.56963 -5.44292 0
M  V30 7121 H 654.764 0.318552 -3.02025 0
M  V30 7122 H 652.349 0.0912021 -1.49121 0
M  V30 7123 H 654.231 2.76622 -3.17897 0
M  V30 7124 H 652.906 2.54182 -2.00432 0
M  V30 7125 H 651.813 0.893182 -3.63281 0
M  V30 7126 H 653.146 1.19426 -4.77492 0
M  V30 7127 N 654.798 1.5699 0.138552 0
M  V30 7128 C 656.045 1.83809 0.849732 0
M  V30 7129 C 656.373 0.717409 1.80786 0
M  V30 7130 O 655.628 -0.292897 1.93496 0
M  V30 7131 C 655.927 3.17007 1.65049 0
M  V30 7132 C 655.593 4.43037 0.838398 0
M  V30 7133 C 654.255 4.77262 0.614385 0
M  V30 7134 C 656.607 5.20495 0.271044 0
M  V30 7135 C 653.935 5.864 -0.187552 0
M  V30 7136 C 656.287 6.30476 -0.517979 0
M  V30 7137 C 654.951 6.63245 -0.75249 0
M  V30 7138 H 654.221 0.672605 0.310939 0
M  V30 7139 H 656.868 1.91166 0.112971 0
M  V30 7140 H 655.173 3.05138 2.4576 0
M  V30 7141 H 656.87 3.34975 2.20437 0
M  V30 7142 H 653.46 4.16211 1.02307 0
M  V30 7143 H 657.644 4.94422 0.431371 0
M  V30 7144 H 652.9 6.10226 -0.378659 0
M  V30 7145 H 657.074 6.89686 -0.964694 0
M  V30 7146 H 654.701 7.47648 -1.37573 0
M  V30 7147 N 656.276 -0.40816 1.52223 0
M  V30 7148 C 657.208 -1.51642 1.71864 0
M  V30 7149 C 658.221 -1.51378 0.599056 0
M  V30 7150 O 659.41 -1.55626 0.874239 0
M  V30 7151 C 656.51 -2.90534 1.74481 0
M  V30 7152 C 655.683 -3.14979 3.03491 0
M  V30 7153 C 654.742 -4.33749 2.97907 0
M  V30 7154 O 653.768 -4.30982 3.71811 0
M  V30 7155 N 654.97 -5.38912 2.15764 0
M  V30 7156 H 657.735 -1.35188 2.67478 0
M  V30 7157 H 655.296 -0.597468 1.50472 0
M  V30 7158 H 657.288 -3.68056 1.68275 0
M  V30 7159 H 655.858 -3.00441 0.863363 0
M  V30 7160 H 655.078 -2.25492 3.23337 0
M  V30 7161 H 656.366 -3.28156 3.88833 0
M  V30 7162 H 655.764 -5.44008 1.55152 0
M  V30 7163 H 654.321 -6.15174 2.15415 0
M  V30 7164 N 657.755 -1.42862 -0.66545 0
M  V30 7165 C 658.687 -1.43026 -1.79098 0
M  V30 7166 C 659.7 -0.32803 -1.59461 0
M  V30 7167 O 660.889 -0.591709 -1.68407 0
M  V30 7168 C 657.989 -1.21566 -3.16346 0
M  V30 7169 C 657.162 -2.44399 -3.62751 0
M  V30 7170 C 656.221 -2.18344 -4.78761 0
M  V30 7171 O 655.247 -2.91611 -4.88827 0
M  V30 7172 N 656.449 -1.1924 -5.68122 0
M  V30 7173 H 659.214 -2.40045 -1.79439 0
M  V30 7174 H 656.775 -1.37861 -0.848872 0
M  V30 7175 H 658.767 -1.02037 -3.91625 0
M  V30 7176 H 657.337 -0.330368 -3.10849 0
M  V30 7177 H 656.557 -2.79433 -2.78048 0
M  V30 7178 H 657.845 -3.26173 -3.90498 0
M  V30 7179 H 657.243 -0.586603 -5.6265 0
M  V30 7180 H 655.8 -1.05698 -6.43173 0
M  V30 7181 N 659.233 0.902656 -1.29189 0
M  V30 7182 C 660.166 2.00816 -1.0839 0
M  V30 7183 C 661.144 1.626 0.00335266 0
M  V30 7184 O 662.328 1.87928 -0.146765 0
M  V30 7185 C 659.455 3.32415 -0.649435 0
M  V30 7186 C 658.501 3.89617 -1.73496 0
M  V30 7187 S 659.334 4.19091 -3.33351 0
M  V30 7188 C 660.49 5.53736 -2.91766 0
M  V30 7189 H 660.723 2.18151 -2.01984 0
M  V30 7190 H 658.256 1.0489 -1.13303 0
M  V30 7191 H 660.214 4.08492 -0.405479 0
M  V30 7192 H 658.875 3.12964 0.266857 0
M  V30 7193 H 658.068 4.84658 -1.38284 0
M  V30 7194 H 657.67 3.20217 -1.93229 0
M  V30 7195 H 659.962 6.34085 -2.38627 0
M  V30 7196 H 660.905 5.93871 -3.85647 0
M  V30 7197 H 661.313 5.15453 -2.30149 0
M  V30 7198 N 660.711 1.11618 1.11262 0
M  V30 7199 C 661.96 0.860934 1.82403 0
M  V30 7200 C 662.273 -0.615303 1.8567 0
M  V30 7201 O 663.479 -0.986861 2.52929 0
M  V30 7202 C 661.935 1.49048 3.27586 0
M  V30 7203 C 661.543 3.00089 3.32642 0
M  V30 7204 C 663.287 1.31515 4.03614 0
M  V30 7205 C 661.194 3.56019 4.72234 0
M  V30 7206 H 660.124 0.318423 0.683464 0
M  V30 7207 H 662.775 1.34165 1.25188 0
M  V30 7208 H 661.157 0.937434 3.84744 0
M  V30 7209 H 662.331 3.61813 2.85356 0
M  V30 7210 H 660.646 3.16919 2.70096 0
M  V30 7211 H 663.243 1.70732 5.0671 0
M  V30 7212 H 663.586 0.257917 4.155 0
M  V30 7213 H 664.119 1.83694 3.52848 0
M  V30 7214 H 660.858 4.61463 4.65545 0
M  V30 7215 H 660.378 2.99066 5.19923 0
M  V30 7216 H 662.057 3.54568 5.41193 0
M  V30 7217 N 662.189 -1.289 0.906776 0
M  V30 7218 C 663.099 -2.31256 0.394707 0
M  V30 7219 C 664.115 -1.66231 -0.514121 0
M  V30 7220 O 665.291 -1.97347 -0.401994 0
M  V30 7221 C 662.356 -3.44792 -0.363191 0
M  V30 7222 C 661.417 -4.25391 0.578012 0
M  V30 7223 C 660.65 -5.33506 -0.143811 0
M  V30 7224 O 660.873 -5.53786 -1.36665 0
M  V30 7225 O 659.807 -5.99673 0.5173 0
M  V30 7226 H 663.633 -2.77051 1.24405 0
M  V30 7227 H 661.218 -1.33466 0.671346 0
M  V30 7228 H 663.1 -4.139 -0.791503 0
M  V30 7229 H 661.775 -3.01093 -1.18848 0
M  V30 7230 H 660.682 -3.58899 1.05558 0
M  V30 7231 H 662.015 -4.72752 1.36992 0
M  V30 7232 N 663.667 -0.670007 -1.42649 0
M  V30 7233 C 664.599 0.0501746 -2.29145 0
M  V30 7234 C 665.612 0.770331 -1.43422 0
M  V30 7235 O 666.801 0.625288 -1.6719 0
M  V30 7236 C 663.901 1.09463 -3.20735 0
M  V30 7237 C 663.074 0.44926 -4.35087 0
M  V30 7238 C 662.133 1.39285 -5.07431 0
M  V30 7239 O 661.159 0.894997 -5.6212 0
M  V30 7240 N 662.361 2.72631 -5.12496 0
M  V30 7241 H 665.126 -0.692312 -2.91594 0
M  V30 7242 H 662.687 -0.514056 -1.53522 0
M  V30 7243 H 664.679 1.72705 -3.65999 0
M  V30 7244 H 663.249 1.73891 -2.59771 0
M  V30 7245 H 662.469 -0.362573 -3.92529 0
M  V30 7246 H 663.757 -0.000544776 -5.088 0
M  V30 7247 H 663.155 3.15623 -4.69467 0
M  V30 7248 H 661.712 3.31132 -5.61422 0
M  V30 7249 N 665.145 1.52092 -0.413018 0
M  V30 7250 C 666.075 2.30021 0.401567 0
M  V30 7251 C 667.056 1.34395 1.04269 0
M  V30 7252 O 668.241 1.63304 1.05097 0
M  V30 7253 C 665.371 3.12447 1.51638 0
M  V30 7254 C 664.325 4.16153 1.00005 0
M  V30 7255 C 663.651 4.86948 2.20875 0
M  V30 7256 C 664.951 5.22275 0.0513757 0
M  V30 7257 H 666.645 2.98365 -0.248704 0
M  V30 7258 H 664.191 1.4349 -0.121052 0
M  V30 7259 H 666.144 3.65733 2.09326 0
M  V30 7260 H 664.868 2.41879 2.19458 0
M  V30 7261 H 663.527 3.63882 0.445549 0
M  V30 7262 H 663.175 4.12905 2.8726 0
M  V30 7263 H 662.875 5.57057 1.86978 0
M  V30 7264 H 664.399 5.43048 2.79162 0
M  V30 7265 H 665.813 5.70778 0.537176 0
M  V30 7266 H 664.21 5.9977 -0.198977 0
M  V30 7267 H 665.28 4.76611 -0.892736 0
M  V30 7268 N 666.623 0.143563 1.56945 0
M  V30 7269 C 667.57 -0.797433 2.16586 0
M  V30 7270 C 668.54 -1.24654 1.09775 0
M  V30 7271 O 669.725 -1.31968 1.37801 0
M  V30 7272 C 666.865 -2.03253 2.78895 0
M  V30 7273 C 665.978 -1.62954 4.00087 0
M  V30 7274 C 665.113 -2.81617 4.50406 0
M  V30 7275 C 664.152 -2.37675 5.64072 0
M  V30 7276 N 663.289 -3.49335 6.09023 0
M  V30 7277 H 668.129 -0.282023 2.96662 0
M  V30 7278 H 665.666 -0.127494 1.46546 0
M  V30 7279 H 667.624 -2.75653 3.13163 0
M  V30 7280 H 666.254 -2.52211 2.01469 0
M  V30 7281 H 665.306 -0.803322 3.71821 0
M  V30 7282 H 666.618 -1.26679 4.82446 0
M  V30 7283 H 665.772 -3.62212 4.86711 0
M  V30 7284 H 664.511 -3.21134 3.67048 0
M  V30 7285 H 663.516 -1.55519 5.27346 0
M  V30 7286 H 664.741 -1.99247 6.49213 0
M  V30 7287 H 662.687 -3.8848 5.28601 0
M  V30 7288 H 662.604 -3.17064 6.86299 0
M  V30 7289 H 663.872 -4.30297 6.49973 0
M  V30 7290 N 668.101 -1.57061 -0.130224 0
M  V30 7291 C 669.048 -1.99517 -1.16024 0
M  V30 7292 C 670.018 -0.865452 -1.41771 0
M  V30 7293 O 671.203 -1.12882 -1.53826 0
M  V30 7294 C 668.343 -2.3951 -2.48453 0
M  V30 7295 C 667.456 -3.65848 -2.29737 0
M  V30 7296 C 666.591 -3.9487 -3.55318 0
M  V30 7297 C 665.63 -5.14426 -3.31711 0
M  V30 7298 N 664.767 -5.39375 -4.49466 0
M  V30 7299 H 669.607 -2.87305 -0.791194 0
M  V30 7300 H 667.144 -1.42129 -0.379195 0
M  V30 7301 H 669.102 -2.60731 -3.25692 0
M  V30 7302 H 667.732 -1.54779 -2.83272 0
M  V30 7303 H 666.784 -3.52307 -1.4347 0
M  V30 7304 H 668.096 -4.53241 -2.08263 0
M  V30 7305 H 667.25 -4.16679 -4.4098 0
M  V30 7306 H 665.989 -3.05931 -3.79813 0
M  V30 7307 H 664.994 -4.92473 -2.44439 0
M  V30 7308 H 666.219 -6.04933 -3.08598 0
M  V30 7309 H 664.165 -4.53391 -4.74102 0
M  V30 7310 H 664.082 -6.21069 -4.31055 0
M  V30 7311 H 665.35 -5.65694 -5.36293 0
M  V30 7312 N 669.579 0.400081 -1.52437 0
M  V30 7313 C 670.511 1.50729 -1.72666 0
M  V30 7314 C 671.524 1.51058 -0.607075 0
M  V30 7315 O 672.713 1.5516 -0.88248 0
M  V30 7316 C 669.813 2.89604 -1.76019 0
M  V30 7317 C 668.986 3.13365 -3.05157 0
M  V30 7318 C 668.045 4.32163 -3.00203 0
M  V30 7319 O 667.071 4.29004 -3.74092 0
M  V30 7320 N 668.273 5.3776 -2.18619 0
M  V30 7321 H 671.038 1.33767 -2.68191 0
M  V30 7322 H 668.599 0.58948 -1.50787 0
M  V30 7323 H 670.591 3.67159 -1.70225 0
M  V30 7324 H 669.161 2.99979 -0.879284 0
M  V30 7325 H 668.381 2.23774 -3.24529 0
M  V30 7326 H 669.669 3.26089 -3.90568 0
M  V30 7327 H 669.067 5.43177 -1.58035 0
M  V30 7328 H 667.624 6.14023 -2.18674 0
M  V30 7329 N 671.057 1.43213 0.657864 0
M  V30 7330 C 671.989 1.43974 1.78337 0
M  V30 7331 C 673.002 0.336482 1.59285 0
M  V30 7332 O 674.191 0.600631 1.68091 0
M  V30 7333 C 671.291 1.23242 3.15697 0
M  V30 7334 C 670.464 2.46319 3.61449 0
M  V30 7335 C 669.523 2.2088 4.77597 0
M  V30 7336 O 668.549 2.942 4.87273 0
M  V30 7337 N 669.751 1.22251 5.67481 0
M  V30 7338 H 672.516 2.40993 1.78164 0
M  V30 7339 H 670.077 1.3831 0.841549 0
M  V30 7340 H 672.069 1.04113 3.91079 0
M  V30 7341 H 670.639 0.346849 3.1067 0
M  V30 7342 H 669.859 2.80904 2.76563 0
M  V30 7343 H 671.147 3.28239 3.88763 0
M  V30 7344 H 670.545 0.616433 5.62331 0
M  V30 7345 H 669.102 1.09107 6.42603 0
M  V30 7346 N 672.536 -0.895792 1.29666 0
M  V30 7347 C 673.446 -2.03329 1.17024 0
M  V30 7348 C 674.462 -1.73753 0.0925962 0
M  V30 7349 O 675.638 -1.99071 0.305431 0
M  V30 7350 C 672.703 -3.36072 0.851841 0
M  V30 7351 C 671.764 -3.7914 2.01373 0
M  V30 7352 C 670.997 -5.05549 1.71043 0
M  V30 7353 O 671.22 -5.66874 0.633213 0
M  V30 7354 O 670.154 -5.44764 2.5596 0
M  V30 7355 H 673.98 -2.16918 2.12556 0
M  V30 7356 H 671.565 -1.02007 1.09156 0
M  V30 7357 H 673.447 -4.15729 0.689006 0
M  V30 7358 H 672.122 -3.23616 -0.0736634 0
M  V30 7359 H 671.029 -3.00233 2.23183 0
M  V30 7360 H 672.362 -3.96186 2.92058 0
M  V30 7361 N 674.014 -1.12206 -1.10668 0
M  V30 7362 C 674.977 -0.790867 -2.15123 0
M  V30 7363 C 675.977 0.193618 -1.5963 0
M  V30 7364 O 677.167 -0.0318728 -1.74171 0
M  V30 7365 C 674.299 -0.174797 -3.40452 0
M  V30 7366 H 675.492 -1.7163 -2.45933 0
M  V30 7367 H 673.045 -0.924993 -1.2599 0
M  V30 7368 H 673.78 0.760478 -3.15257 0
M  V30 7369 H 673.565 -0.88358 -3.82015 0
M  V30 7370 H 675.055 0.0405162 -4.1758 0
M  V30 7371 N 675.492 1.28418 -0.913599 0
M  V30 7372 C 676.455 2.25564 -0.406624 0
M  V30 7373 C 677.455 1.5387 0.466965 0
M  V30 7374 O 678.645 1.72094 0.270042 0
M  V30 7375 C 675.777 3.38339 0.417053 0
M  V30 7376 H 676.97 2.71926 -1.26477 0
M  V30 7377 H 674.523 1.40098 -0.692986 0
M  V30 7378 H 675.258 2.97339 1.29461 0
M  V30 7379 H 675.043 3.91542 -0.209102 0
M  V30 7380 H 676.533 4.10578 0.762602 0
M  V30 7381 N 676.97 0.677563 1.42291 0
M  V30 7382 C 677.902 -0.0380218 2.29168 0
M  V30 7383 C 678.915 -0.762714 1.43828 0
M  V30 7384 O 680.104 -0.616413 1.67519 0
M  V30 7385 C 677.204 -1.07761 3.21311 0
M  V30 7386 C 676.377 -0.42618 4.35319 0
M  V30 7387 C 675.436 -1.36592 5.08162 0
M  V30 7388 O 674.462 -0.865174 5.62586 0
M  V30 7389 N 675.664 -2.69909 5.13935 0
M  V30 7390 H 678.429 0.707766 2.91223 0
M  V30 7391 H 675.99 0.52219 1.53247 0
M  V30 7392 H 677.982 -1.70761 3.6691 0
M  V30 7393 H 676.552 -1.72511 2.60689 0
M  V30 7394 H 675.772 0.383385 3.92331 0
M  V30 7395 H 677.06 0.0275277 5.08793 0
M  V30 7396 H 676.458 -3.13129 4.71134 0
M  V30 7397 H 675.015 -3.2815 5.6317 0
M  V30 7398 N 678.448 -1.51871 0.421078 0
M  V30 7399 C 679.38 -2.25052 -0.434065 0
M  V30 7400 C 680.393 -1.28458 -1.00013 0
M  V30 7401 O 681.582 -1.54323 -0.897033 0
M  V30 7402 C 678.682 -2.97813 -1.61743 0
M  V30 7403 C 677.855 -4.21374 -1.17315 0
M  V30 7404 C 676.914 -4.76854 -2.22478 0
M  V30 7405 O 675.94 -5.39123 -1.82577 0
M  V30 7406 N 677.142 -4.59467 -3.54782 0
M  V30 7407 H 679.907 -2.99077 0.193073 0
M  V30 7408 H 677.468 -1.59972 0.249088 0
M  V30 7409 H 679.46 -3.3182 -2.31685 0
M  V30 7410 H 678.03 -2.26899 -2.15024 0
M  V30 7411 H 677.25 -3.93046 -0.3014 0
M  V30 7412 H 678.538 -5.01591 -0.853444 0
M  V30 7413 H 677.936 -4.09832 -3.89941 0
M  V30 7414 H 676.493 -4.9788 -4.20665 0
M  V30 7415 N 679.926 -0.151884 -1.56866 0
M  V30 7416 C 680.889 0.771861 -2.15812 0
M  V30 7417 C 681.889 1.17181 -1.10115 0
M  V30 7418 O 683.079 1.09194 -1.35729 0
M  V30 7419 C 680.211 2.04806 -2.7252 0
M  V30 7420 H 681.404 0.259021 -2.98779 0
M  V30 7421 H 678.957 0.097588 -1.55995 0
M  V30 7422 H 679.692 2.60445 -1.93233 0
M  V30 7423 H 679.477 1.77044 -3.49854 0
M  V30 7424 H 680.967 2.70771 -3.1792 0
M  V30 7425 N 681.404 1.57128 0.121893 0
M  V30 7426 C 682.367 1.99197 1.13372 0
M  V30 7427 C 683.367 0.881728 1.3447 0
M  V30 7428 O 684.557 1.14783 1.31036 0
M  V30 7429 C 681.689 2.32963 2.4888 0
M  V30 7430 H 682.882 2.89788 0.772204 0
M  V30 7431 H 680.435 1.51952 0.366093 0
M  V30 7432 H 681.17 1.45243 2.89957 0
M  V30 7433 H 680.955 3.13934 2.34921 0
M  V30 7434 H 682.445 2.66261 3.21706 0
M  V30 7435 N 682.882 -0.391992 1.52647 0
M  V30 7436 C 684.11 -1.1586 1.71418 0
M  V30 7437 C 684.525 -1.8381 0.431216 0
M  V30 7438 O 683.882 -1.7256 -0.594085 0
M  V30 7439 C 683.933 -2.20888 2.86165 0
M  V30 7440 O 683.654 -1.5571 4.09495 0
M  V30 7441 C 685.155 -3.103 3.1659 0
M  V30 7442 H 682.375 -0.347494 0.574011 0
M  V30 7443 H 684.919 -0.458972 1.99283 0
M  V30 7444 H 683.074 -2.86492 2.6077 0
M  V30 7445 H 683.488 -2.25474 4.73563 0
M  V30 7446 H 684.962 -3.8003 4.00351 0
M  V30 7447 H 685.439 -3.73639 2.30848 0
M  V30 7448 H 686.045 -2.50345 3.43813 0
M  V30 7449 N 684.36 -1.4356 -0.65026 0
M  V30 7450 C 685.323 -1.48615 -1.74489 0
M  V30 7451 C 686.323 -0.370483 -1.56474 0
M  V30 7452 O 687.513 -0.632351 -1.62317 0
M  V30 7453 C 684.645 -1.34161 -3.13391 0
M  V30 7454 H 685.838 -2.46103 -1.71387 0
M  V30 7455 H 683.391 -1.30369 -0.862186 0
M  V30 7456 H 684.126 -0.376918 -3.22102 0
M  V30 7457 H 683.911 -2.1504 -3.27872 0
M  V30 7458 H 685.401 -1.40637 -3.93206 0
M  V30 7459 N 685.838 0.888903 -1.30139 0
M  V30 7460 C 687.066 1.67358 -1.21651 0
M  V30 7461 C 687.481 1.87499 0.221246 0
M  V30 7462 O 686.838 1.41969 1.14677 0
M  V30 7463 C 686.889 3.05213 -1.93719 0
M  V30 7464 O 686.61 2.85984 -3.31881 0
M  V30 7465 C 688.111 3.9964 -1.9184 0
M  V30 7466 H 685.331 0.522365 -0.42116 0
M  V30 7467 H 687.875 1.11086 -1.71698 0
M  V30 7468 H 686.03 3.5823 -1.4748 0
M  V30 7469 H 686.444 3.73411 -3.68327 0
M  V30 7470 H 687.918 4.93749 -2.46811 0
M  V30 7471 H 688.395 4.29955 -0.896409 0
M  V30 7472 H 689.001 3.52558 -2.37872 0
M  V30 7473 N 687.317 1.12792 1.10072 0
M  V30 7474 C 688.28 0.802264 2.14701 0
M  V30 7475 C 689.28 -0.18515 1.59731 0
M  V30 7476 O 690.47 0.041109 1.74151 0
M  V30 7477 C 687.602 0.19285 3.40354 0
M  V30 7478 H 688.795 1.72932 2.45019 0
M  V30 7479 H 686.348 0.931662 1.25498 0
M  V30 7480 H 687.083 -0.743748 3.15656 0
M  V30 7481 H 686.868 0.903827 3.81541 0
M  V30 7482 H 688.358 -0.0183704 4.17596 0
M  V30 7483 N 688.795 -1.27931 0.920396 0
M  V30 7484 C 690.02 -1.99343 0.572478 0
M  V30 7485 C 690.445 -1.68267 -0.840696 0
M  V30 7486 O 689.803 -0.918805 -1.56294 0
M  V30 7487 C 689.851 -3.51698 0.796284 0
M  V30 7488 O 688.955 -4.12157 -0.141602 0
M  V30 7489 H 688.296 -0.626065 0.221221 0
M  V30 7490 H 690.826 -1.62921 1.23765 0
M  V30 7491 H 690.836 -4.01793 0.708984 0
M  V30 7492 H 689.511 -3.73649 1.82644 0
M  V30 7493 H 688.088 -3.729 -0.005007 0
M  V30 7494 N 690.273 -0.685099 -1.4193 0
M  V30 7495 C 691.183 -0.013404 -2.34596 0
M  V30 7496 C 692.199 0.777589 -1.55658 0
M  V30 7497 O 693.375 0.717553 -1.88184 0
M  V30 7498 C 690.44 0.919031 -3.34297 0
M  V30 7499 C 689.501 0.121417 -4.29128 0
M  V30 7500 C 688.734 1.00944 -5.24067 0
M  V30 7501 O 688.957 2.24898 -5.24192 0
M  V30 7502 O 687.891 0.464724 -6.00103 0
M  V30 7503 H 691.717 -0.776978 -2.93593 0
M  V30 7504 H 689.302 -0.445379 -1.42607 0
M  V30 7505 H 691.184 1.45402 -3.9552 0
M  V30 7506 H 689.859 1.66228 -2.77759 0
M  V30 7507 H 688.766 -0.45792 -3.71287 0
M  V30 7508 H 690.099 -0.582937 -4.88736 0
M  V30 7509 N 691.751 1.51645 -0.429126 0
M  V30 7510 C 692.701 2.24388 0.404217 0
M  V30 7511 C 693.685 1.26294 0.996933 0
M  V30 7512 O 694.877 1.51428 0.916434 0
M  V30 7513 C 692.006 3.08338 1.50938 0
M  V30 7514 C 691.092 4.13857 0.926464 0
M  V30 7515 N 691.483 5.05749 0.0719732 0
M  V30 7516 C 689.781 4.29695 1.19491 0
M  V30 7517 C 690.482 5.81143 -0.254528 0
M  V30 7518 N 689.458 5.42408 0.359763 0
M  V30 7519 H 693.26 2.92794 -0.254697 0
M  V30 7520 H 690.774 1.60606 -0.240712 0
M  V30 7521 H 692.771 3.59022 2.11918 0
M  V30 7522 H 691.431 2.41475 2.17072 0
M  V30 7523 H 692.442 5.17066 -0.293854 0
M  V30 7524 H 689.119 3.74059 1.85434 0
M  V30 7525 H 690.509 6.65159 -0.949365 0
M  V30 7526 N 693.229 0.160201 1.56784 0
M  V30 7527 C 694.454 -0.497373 2.01348 0
M  V30 7528 C 694.879 -1.56757 1.03966 0
M  V30 7529 O 694.237 -1.81292 0.0174455 0
M  V30 7530 C 694.285 -1.0628 3.44582 0
M  V30 7531 O 693.389 -2.17723 3.50244 0
M  V30 7532 H 692.73 -0.120295 0.653012 0
M  V30 7533 H 695.26 0.260821 2.02931 0
M  V30 7534 H 695.27 -1.38819 3.83658 0
M  V30 7535 H 693.945 -0.279166 4.14962 0
M  V30 7536 H 692.522 -1.86313 3.2302 0
M  V30 7537 N 694.707 -1.5719 -0.113559 0
M  V30 7538 C 696.123 -1.52607 -0.467253 0
M  V30 7539 C 696.323 -0.874058 -1.81556 0
M  V30 7540 O 695.379 -0.458703 -2.48299 0
M  V30 7541 C 696.692 -2.97363 -0.446736 0
M  V30 7542 C 698.24 -3.08482 -0.529903 0
M  V30 7543 C 698.715 -4.54809 -0.539721 0
M  V30 7544 N 700.206 -4.59284 -0.601005 0
M  V30 7545 C 700.941 -5.69927 -0.630138 0
M  V30 7546 N 700.437 -6.90051 -0.616589 0
M  V30 7547 N 702.23 -5.5805 -0.673558 0
M  V30 7548 H 694.381 -1.97958 0.769819 0
M  V30 7549 H 696.644 -0.90428 0.284572 0
M  V30 7550 H 696.35 -3.48458 0.47643 0
M  V30 7551 H 696.224 -3.55086 -1.27254 0
M  V30 7552 H 698.611 -2.57386 -1.44349 0
M  V30 7553 H 698.692 -2.53744 0.323695 0
M  V30 7554 H 698.336 -5.06552 0.369843 0
M  V30 7555 H 698.266 -5.07364 -1.41028 0
M  V30 7556 H 700.757 -3.72822 -0.617419 0
M  V30 7557 H 701.07 -7.70132 -0.641592 0
M  V30 7558 H 699.415 -6.92543 -0.583927 0
M  V30 7559 H 702.606 -4.63112 -0.681544 0
M  V30 7560 H 702.779 -6.44286 -0.692794 0
M  V30 7561 N 696.185 0.383891 -1.52853 0
M  V30 7562 C 697.095 1.49343 -1.80925 0
M  V30 7563 C 698.111 1.59458 -0.696348 0
M  V30 7564 O 699.287 1.75698 -0.984481 0
M  V30 7565 C 696.352 2.84819 -1.97684 0
M  V30 7566 C 695.413 2.84382 -3.21598 0
M  V30 7567 C 694.646 4.13397 -3.37548 0
M  V30 7568 O 694.869 5.08619 -2.58192 0
M  V30 7569 O 693.803 4.20325 -4.30826 0
M  V30 7570 H 697.629 1.2855 -2.75152 0
M  V30 7571 H 695.214 0.572229 -1.38007 0
M  V30 7572 H 697.096 3.65125 -2.10385 0
M  V30 7573 H 695.771 3.05627 -1.06647 0
M  V30 7574 H 694.678 2.0284 -3.14336 0
M  V30 7575 H 696.011 2.68526 -4.12498 0
M  V30 7576 N 697.663 1.43903 0.642637 0
M  V30 7577 C 699.074 1.40975 1.22404 0
M  V30 7578 C 699.425 0.1192 1.95838 0
M  V30 7579 O 698.55 -0.780939 2.01818 0
M  V30 7580 C 699.145 2.5538 2.22636 0
M  V30 7581 C 697.704 2.55684 2.76229 0
M  V30 7582 C 696.851 2.32556 1.51039 0
M  V30 7583 H 699.802 1.5265 0.434006 0
M  V30 7584 H 699.823 2.27474 3.05017 0
M  V30 7585 H 699.335 3.49294 1.69161 0
M  V30 7586 H 697.436 1.65679 3.33738 0
M  V30 7587 H 697.549 3.53799 3.23053 0
M  V30 7588 H 695.913 1.81427 1.78764 0
M  V30 7589 H 696.696 3.28569 0.99484 0
M  V30 7590 N 699.141 -0.881989 1.30609 0
M  V30 7591 C 700.366 -1.67236 1.22665 0
M  V30 7592 C 700.791 -1.8696 -0.206777 0
M  V30 7593 O 700.149 -1.4027 -1.14865 0
M  V30 7594 C 700.197 -3.02446 1.96363 0
M  V30 7595 O 699.301 -3.91614 1.29276 0
M  V30 7596 H 698.642 -0.510902 0.424117 0
M  V30 7597 H 701.172 -1.10055 1.72479 0
M  V30 7598 H 701.182 -3.52468 2.055 0
M  V30 7599 H 699.857 -2.8741 3.00613 0
M  V30 7600 H 698.434 -3.50055 1.28514 0
M  V30 7601 N 700.619 -1.13374 -1.09472 0
M  V30 7602 C 701.582 -0.813639 -2.14272 0
M  V30 7603 C 702.582 0.176677 -1.59826 0
M  V30 7604 O 703.772 -0.0503441 -1.74127 0
M  V30 7605 C 700.904 -0.210897 -3.40247 0
M  V30 7606 H 702.097 -1.74229 -2.44099 0
M  V30 7607 H 699.65 -0.938304 -1.25002 0
M  V30 7608 H 700.385 0.726998 -3.16046 0
M  V30 7609 H 700.17 -0.924048 -3.81056 0
M  V30 7610 H 701.66 -0.00377603 -4.176 0
M  V30 7611 N 702.098 1.27442 -0.927168 0
M  V30 7612 C 703.061 2.2512 -0.430525 0
M  V30 7613 C 704.061 1.54357 0.450619 0
M  V30 7614 O 705.251 1.72371 0.251774 0
M  V30 7615 C 702.383 3.38763 0.381144 0
M  V30 7616 H 703.576 2.70569 -1.29354 0
M  V30 7617 H 701.129 1.39355 -0.707806 0
M  V30 7618 H 701.864 2.98695 1.263 0
M  V30 7619 H 701.649 3.91298 -0.250618 0
M  V30 7620 H 703.139 4.11364 0.719012 0
M  V30 7621 N 703.576 0.692616 1.41565 0
M  V30 7622 C 704.824 0.221896 2.00878 0
M  V30 7623 C 705.145 -1.18164 1.5512 0
M  V30 7624 O 704.415 -1.79679 0.78054 0
M  V30 7625 H 702.995 0.0790463 0.742806 0
M  V30 7626 H 705.657 0.893115 1.73232 0
M  V30 7627 H 704.753 0.23702 3.11199 0
M  V30 7628 N 705.054 -1.51416 0.437162 0
M  V30 7629 C 706.47 -1.59349 0.0894459 0
M  V30 7630 C 706.67 -1.44809 -1.40116 0
M  V30 7631 O 705.726 -1.28924 -2.17106 0
M  V30 7632 C 707.039 -2.9446 0.609398 0
M  V30 7633 C 708.587 -3.07769 0.569824 0
M  V30 7634 C 709.062 -4.45404 1.06675 0
M  V30 7635 N 710.553 -4.51723 1.02473 0
M  V30 7636 C 711.288 -5.56544 1.3801 0
M  V30 7637 N 710.784 -6.68784 1.80831 0
M  V30 7638 N 712.577 -5.46901 1.29828 0
M  V30 7639 H 704.728 -1.59112 1.40703 0
M  V30 7640 H 706.991 -0.750031 0.579791 0
M  V30 7641 H 706.697 -3.1047 1.65231 0
M  V30 7642 H 706.571 -3.77184 0.0342236 0
M  V30 7643 H 708.958 -2.91428 -0.464107 0
M  V30 7644 H 709.039 -2.26885 1.1814 0
M  V30 7645 H 708.683 -4.62492 2.09914 0
M  V30 7646 H 708.613 -5.24827 0.431712 0
M  V30 7647 H 711.104 -3.71165 0.710258 0
M  V30 7648 H 711.417 -7.44787 2.06185 0
M  V30 7649 H 709.762 -6.69992 1.84757 0
M  V30 7650 H 712.953 -4.581 0.962397 0
M  V30 7651 H 713.126 -6.2848 1.57851 0
M  V30 7652 N 706.532 -0.168513 -1.56696 0
M  V30 7653 C 707.462 0.758563 -2.20835 0
M  V30 7654 C 708.443 1.24121 -1.1631 0
M  V30 7655 O 709.628 1.29487 -1.4473 0
M  V30 7656 C 706.758 1.9892 -2.8469 0
M  V30 7657 C 705.712 1.64252 -3.95228 0
M  V30 7658 C 705.038 2.94757 -4.46119 0
M  V30 7659 C 706.338 0.872675 -5.14958 0
M  V30 7660 H 708.032 0.223953 -2.98561 0
M  V30 7661 H 705.578 0.106277 -1.43607 0
M  V30 7662 H 707.531 2.64275 -3.28233 0
M  V30 7663 H 706.255 2.5479 -2.04327 0
M  V30 7664 H 704.914 1.01266 -3.52336 0
M  V30 7665 H 704.562 3.48662 -3.62552 0
M  V30 7666 H 704.262 2.72316 -5.2069 0
M  V30 7667 H 705.786 3.61147 -4.92347 0
M  V30 7668 H 707.2 1.42875 -5.55211 0
M  V30 7669 H 705.597 0.747402 -5.95428 0
M  V30 7670 H 706.667 -0.131535 -4.84722 0
M  V30 7671 N 708.01 1.57248 0.105221 0
M  V30 7672 C 709.235 1.90143 0.828264 0
M  V30 7673 C 709.66 0.761811 1.71983 0
M  V30 7674 O 709.018 -0.287086 1.79013 0
M  V30 7675 C 709.066 3.21856 1.62608 0
M  V30 7676 O 708.17 3.08732 2.7342 0
M  V30 7677 H 707.511 0.623558 0.228192 0
M  V30 7678 H 710.041 2.0443 0.0834826 0
M  V30 7679 H 710.051 3.54916 2.01243 0
M  V30 7680 H 708.726 4.0439 0.971687 0
M  V30 7681 H 707.303 2.87167 2.37886 0
M  V30 7682 N 709.488 -0.375779 1.53054 0
M  V30 7683 C 710.765 -1.13453 1.59336 0
M  V30 7684 C 711.145 -2.07379 0.394614 0
M  V30 7685 O 710.493 -2.2004 -0.616 0
M  V30 7686 C 710.703 -1.8826 2.93869 0
M  V30 7687 C 712.051 -2.43155 3.48081 0
M  V30 7688 O 713.075 -1.984 2.95831 0
M  V30 7689 O 711.934 -3.24944 4.39401 0
M  V30 7690 H 709.028 -0.519856 0.643179 0
M  V30 7691 H 711.574 -0.379865 1.65394 0
M  V30 7692 H 710.346 -1.19652 3.72558 0
M  V30 7693 H 709.969 -2.70658 2.91256 0
M  V30 7694 N 710.966 -1.44241 -0.634997 0
M  V30 7695 C 712.191 -1.50516 -1.42687 0
M  V30 7696 C 712.616 -0.129864 -1.87651 0
M  V30 7697 O 711.974 0.880164 -1.58502 0
M  V30 7698 C 712.022 -2.4714 -2.62591 0
M  V30 7699 O 711.126 -1.97025 -3.62291 0
M  V30 7700 H 710.467 -0.50841 -0.427101 0
M  V30 7701 H 712.997 -1.89337 -0.775408 0
M  V30 7702 H 713.007 -2.65048 -3.10183 0
M  V30 7703 H 711.682 -3.47039 -2.29209 0
M  V30 7704 H 710.259 -1.88866 -3.21534 0
M  V30 7705 N 712.444 0.87505 -1.31075 0
M  V30 7706 C 713.669 1.66583 -1.23551 0
M  V30 7707 C 714.094 1.87067 0.19686 0
M  V30 7708 O 713.452 1.40877 1.1412 0
M  V30 7709 C 713.5 3.01401 -1.97965 0
M  V30 7710 O 712.604 3.90923 -1.31351 0
M  V30 7711 H 711.945 0.508645 -0.426821 0
M  V30 7712 H 714.475 1.09139 -1.7306 0
M  V30 7713 H 714.485 3.51374 -2.07366 0
M  V30 7714 H 713.16 2.85812 -3.02133 0
M  V30 7715 H 711.737 3.49369 -1.30368 0
M  V30 7716 N 713.922 1.13953 1.08869 0
M  V30 7717 C 715.147 0.928559 1.85452 0
M  V30 7718 C 715.572 -0.517642 1.80837 0
M  V30 7719 O 714.93 -1.36779 1.19001 0
M  V30 7720 C 714.978 1.42814 3.31114 0
M  V30 7721 O 714.082 0.617129 4.07756 0
M  V30 7722 H 713.423 0.33235 0.574839 0
M  V30 7723 H 715.953 1.5156 1.37443 0
M  V30 7724 H 715.963 1.43425 3.8196 0
M  V30 7725 H 714.638 2.48109 3.33788 0
M  V30 7726 H 713.215 0.679365 3.66659 0
M  V30 7727 N 715.4 -1.26948 0.933913 0
M  V30 7728 C 716.31 -2.30366 0.443671 0
M  V30 7729 C 717.326 -1.67284 -0.478745 0
M  V30 7730 O 718.502 -1.98156 -0.360043 0
M  V30 7731 C 715.567 -3.45485 -0.289974 0
M  V30 7732 C 714.628 -4.24069 0.668114 0
M  V30 7733 C 713.861 -5.33691 -0.0306138 0
M  V30 7734 O 714.084 -5.5656 -1.24888 0
M  V30 7735 O 713.018 -5.98441 0.644384 0
M  V30 7736 H 716.844 -2.74349 1.30254 0
M  V30 7737 H 714.429 -1.32012 0.699506 0
M  V30 7738 H 716.311 -4.15486 -0.70353 0
M  V30 7739 H 714.986 -3.03546 -1.12435 0
M  V30 7740 H 713.893 -3.56579 1.13147 0
M  V30 7741 H 715.226 -4.69739 1.46989 0
M  V30 7742 N 716.879 -0.700114 -1.41195 0
M  V30 7743 C 717.842 -0.0465706 -2.29153 0
M  V30 7744 C 718.842 0.703302 -1.44604 0
M  V30 7745 O 720.032 0.537513 -1.657 0
M  V30 7746 C 717.164 0.944324 -3.2756 0
M  V30 7747 H 718.357 -0.821064 -2.88442 0
M  V30 7748 H 715.91 -0.463869 -1.49258 0
M  V30 7749 H 716.645 1.74642 -2.73259 0
M  V30 7750 H 716.43 0.409701 -3.89954 0
M  V30 7751 H 717.92 1.39925 -3.9346 0
M  V30 7752 N 718.357 1.51182 -0.445186 0
M  V30 7753 C 719.582 2.07056 0.119445 0
M  V30 7754 C 720.007 1.30966 1.35016 0
M  V30 7755 O 719.365 0.349827 1.77893 0
M  V30 7756 C 719.413 3.58234 0.412428 0
M  V30 7757 O 718.517 3.84249 1.49754 0
M  V30 7758 H 717.858 0.663998 -0.00157797 0
M  V30 7759 H 720.388 1.94699 -0.628779 0
M  V30 7760 H 720.398 4.02617 0.660583 0
M  V30 7761 H 719.073 4.13038 -0.487049 0
M  V30 7762 H 717.65 3.51724 1.23873 0
M  V30 7763 N 719.835 0.176821 1.56605 0
M  V30 7764 C 720.782 -0.751312 2.18229 0
M  V30 7765 C 721.752 -1.22297 1.12395 0
M  V30 7766 O 722.937 -1.29015 1.40569 0
M  V30 7767 C 720.077 -1.97291 2.83143 0
M  V30 7768 C 719.19 -1.54431 4.03454 0
M  V30 7769 C 718.325 -2.72 4.56278 0
M  V30 7770 C 717.364 -2.25657 5.68986 0
M  V30 7771 N 716.501 -3.36338 6.16296 0
M  V30 7772 H 721.341 -0.219033 2.97194 0
M  V30 7773 H 718.878 -0.0963803 1.46784 0
M  V30 7774 H 720.836 -2.68949 3.1894 0
M  V30 7775 H 719.466 -2.4788 2.06773 0
M  V30 7776 H 718.518 -0.724273 3.73441 0
M  V30 7777 H 719.83 -1.16417 4.85024 0
M  V30 7778 H 718.984 -3.51806 4.94285 0
M  V30 7779 H 717.723 -3.13277 3.73777 0
M  V30 7780 H 716.728 -1.44299 5.30526 0
M  V30 7781 H 717.953 -1.85432 6.53293 0
M  V30 7782 H 715.899 -3.7718 5.36723 0
M  V30 7783 H 715.816 -3.02435 6.9287 0
M  V30 7784 H 717.084 -4.16413 6.58954 0
M  V30 7785 N 721.313 -1.57302 -0.09688 0
M  V30 7786 C 722.243 -2.0497 -1.11846 0
M  V30 7787 C 723.224 -0.938278 -1.41882 0
M  V30 7788 O 724.409 -1.20943 -1.51942 0
M  V30 7789 C 721.539 -2.47264 -2.43881 0
M  V30 7790 C 720.493 -3.62053 -2.28257 0
M  V30 7791 C 719.819 -3.90318 -3.65453 0
M  V30 7792 C 721.119 -4.93005 -1.72461 0
M  V30 7793 H 722.813 -2.90567 -0.721888 0
M  V30 7794 H 720.359 -1.39786 -0.345803 0
M  V30 7795 H 722.312 -2.7922 -3.15617 0
M  V30 7796 H 721.036 -1.58664 -2.8547 0
M  V30 7797 H 719.695 -3.30341 -1.58967 0
M  V30 7798 H 719.343 -2.98889 -4.04567 0
M  V30 7799 H 719.043 -4.67597 -3.55846 0
M  V30 7800 H 720.567 -4.24747 -4.3866 0
M  V30 7801 H 721.981 -5.23354 -2.34036 0
M  V30 7802 H 720.378 -5.74436 -1.73618 0
M  V30 7803 H 721.448 -4.80053 -0.683898 0
M  V30 7804 N 722.791 0.367657 -1.53252 0
M  V30 7805 C 724.016 1.13566 -1.73544 0
M  V30 7806 C 724.441 1.82329 -0.462344 0
M  V30 7807 O 723.799 1.71655 0.583472 0
M  V30 7808 C 723.847 2.14322 -2.89997 0
M  V30 7809 O 722.951 3.21359 -2.58461 0
M  V30 7810 H 722.292 0.329614 -0.576412 0
M  V30 7811 H 724.822 0.425417 -2.00128 0
M  V30 7812 H 724.832 2.57958 -3.16104 0
M  V30 7813 H 723.507 1.63664 -3.82344 0
M  V30 7814 H 722.084 2.8271 -2.43165 0
M  V30 7815 N 724.269 1.44576 0.627338 0
M  V30 7816 C 725.494 1.51271 1.41887 0
M  V30 7817 C 725.919 0.139814 1.8758 0
M  V30 7818 O 725.277 -0.871746 1.58966 0
M  V30 7819 C 725.325 2.48529 2.61277 0
M  V30 7820 O 724.429 1.98944 3.61241 0
M  V30 7821 H 723.77 0.510668 0.424399 0
M  V30 7822 H 726.3 1.89746 0.765356 0
M  V30 7823 H 726.31 2.66689 3.08773 0
M  V30 7824 H 724.985 3.48249 2.27366 0
M  V30 7825 H 723.562 1.90568 3.20528 0
M  V30 7826 N 725.747 -0.868086 1.31537 0
M  V30 7827 C 726.694 -1.97548 1.19346 0
M  V30 7828 C 727.664 -1.65913 0.0787922 0
M  V30 7829 O 728.849 -1.89129 0.251985 0
M  V30 7830 C 725.989 -3.32922 0.908692 0
M  V30 7831 C 725.102 -3.77141 2.10687 0
M  V30 7832 C 724.237 -5.01241 1.75873 0
M  V30 7833 C 723.276 -5.37914 2.92088 0
M  V30 7834 N 722.413 -6.53192 2.57457 0
M  V30 7835 H 727.253 -2.07307 2.14074 0
M  V30 7836 H 724.79 -1.01483 1.06487 0
M  V30 7837 H 726.748 -4.10867 0.724138 0
M  V30 7838 H 725.378 -3.228 -0.0017611 0
M  V30 7839 H 724.43 -2.94961 2.40213 0
M  V30 7840 H 725.742 -4.00248 2.97663 0
M  V30 7841 H 724.896 -5.86858 1.53891 0
M  V30 7842 H 723.635 -4.80041 0.86091 0
M  V30 7843 H 722.64 -4.50814 3.14717 0
M  V30 7844 H 723.865 -5.61077 3.82582 0
M  V30 7845 H 721.811 -6.33536 1.702 0
M  V30 7846 H 721.728 -6.76252 3.37963 0
M  V30 7847 H 722.996 -7.41997 2.38873 0
M  V30 7848 N 727.225 -1.14528 -1.08264 0
M  V30 7849 C 728.45 -0.938381 -1.84957 0
M  V30 7850 C 728.875 0.508044 -1.81109 0
M  V30 7851 O 728.233 1.36146 -1.19724 0
M  V30 7852 C 728.281 -1.44568 -3.30352 0
M  V30 7853 O 727.385 -0.638745 -4.07423 0
M  V30 7854 H 726.726 -0.335394 -0.573068 0
M  V30 7855 H 729.256 -1.52287 -1.36637 0
M  V30 7856 H 729.266 -1.45449 -3.81194 0
M  V30 7857 H 727.941 -2.49876 -3.32468 0
M  V30 7858 H 726.518 -0.698801 -3.66294 0
M  V30 7859 N 728.703 1.26451 -0.940633 0
M  V30 7860 C 729.666 2.24651 -0.454378 0
M  V30 7861 C 730.666 1.54826 0.434222 0
M  V30 7862 O 731.856 1.72628 0.233477 0
M  V30 7863 C 728.988 3.39148 0.345192 0
M  V30 7864 H 730.181 2.69182 -1.32217 0
M  V30 7865 H 727.734 1.38596 -0.722547 0
M  V30 7866 H 728.469 3.00018 1.23125 0
M  V30 7867 H 728.254 3.9101 -0.292107 0
M  V30 7868 H 729.744 4.12103 0.675341 0
M  V30 7869 N 730.181 0.707592 1.40822 0
M  V30 7870 C 731.128 0.0499029 2.30746 0
M  V30 7871 C 732.098 -0.758718 1.47759 0
M  V30 7872 O 733.283 -0.724299 1.76518 0
M  V30 7873 C 730.423 -0.871756 3.33908 0
M  V30 7874 C 729.536 -0.0534655 4.31967 0
M  V30 7875 C 728.671 -0.973869 5.22197 0
M  V30 7876 C 727.71 -0.149194 6.11918 0
M  V30 7877 N 726.847 -1.02404 6.94592 0
M  V30 7878 H 731.687 0.822461 2.86426 0
M  V30 7879 H 729.224 0.417285 1.41057 0
M  V30 7880 H 731.182 -1.42028 3.9228 0
M  V30 7881 H 729.812 -1.61058 2.7975 0
M  V30 7882 H 728.864 0.612142 3.75442 0
M  V30 7883 H 730.176 0.585354 4.95353 0
M  V30 7884 H 729.33 -1.59121 5.85462 0
M  V30 7885 H 728.069 -1.64652 4.59065 0
M  V30 7886 H 727.074 0.481137 5.47691 0
M  V30 7887 H 728.299 0.519841 6.77107 0
M  V30 7888 H 726.245 -1.6825 6.34057 0
M  V30 7889 H 726.162 -0.441076 7.54712 0
M  V30 7890 H 727.43 -1.62782 7.62314 0
M  V30 7891 N 731.66 -1.50943 0.453197 0
M  V30 7892 C 732.57 -2.31884 -0.355963 0
M  V30 7893 C 733.586 -1.41481 -1.01287 0
M  V30 7894 O 734.762 -1.74546 -1.00477 0
M  V30 7895 C 731.827 -3.15668 -1.43369 0
M  V30 7896 C 730.888 -4.2187 -0.795253 0
M  V30 7897 C 730.121 -5.0165 -1.82162 0
M  V30 7898 O 730.344 -4.82266 -3.04592 0
M  V30 7899 O 729.278 -5.85311 -1.40336 0
M  V30 7900 H 733.104 -3.02162 0.305248 0
M  V30 7901 H 730.689 -1.47839 0.215398 0
M  V30 7902 H 732.571 -3.67709 -2.05836 0
M  V30 7903 H 731.246 -2.48137 -2.07869 0
M  V30 7904 H 730.153 -3.73867 -0.132106 0
M  V30 7905 H 731.486 -4.9182 -0.193484 0
M  V30 7906 N 733.138 -0.185124 -1.56509 0
M  V30 7907 C 734.554 0.170865 -1.58683 0
M  V30 7908 C 734.754 1.61799 -1.20098 0
M  V30 7909 O 733.81 2.35181 -0.919038 0
M  V30 7910 C 735.123 -0.122459 -3.00451 0
M  V30 7911 C 736.671 -0.0617699 -3.12939 0
M  V30 7912 C 737.146 -0.328269 -4.56822 0
M  V30 7913 N 738.637 -0.276533 -4.62374 0
M  V30 7914 C 739.372 -0.456722 -5.71578 0
M  V30 7915 N 738.868 -0.69672 -6.89288 0
M  V30 7916 N 740.661 -0.391669 -5.60734 0
M  V30 7917 H 732.812 -1.12956 -1.79874 0
M  V30 7918 H 735.075 -0.45011 -0.834329 0
M  V30 7919 H 734.781 -1.12546 -3.33206 0
M  V30 7920 H 734.655 0.579578 -3.72721 0
M  V30 7921 H 737.042 0.931826 -2.80002 0
M  V30 7922 H 737.123 -0.796732 -2.43076 0
M  V30 7923 H 736.767 -1.31914 -4.9047 0
M  V30 7924 H 736.697 0.427465 -5.24862 0
M  V30 7925 H 739.188 -0.0972458 -3.77775 0
M  V30 7926 H 739.501 -0.823291 -7.68402 0
M  V30 7927 H 737.846 -0.733497 -6.91119 0
M  V30 7928 H 741.037 -0.204663 -4.67652 0
M  V30 7929 H 741.21 -0.535518 -6.45783 0
M  V30 7930 N 734.616 1.57351 0.0885366 0
M  V30 7931 C 736.032 1.53331 0.442916 0
M  V30 7932 C 736.232 0.902831 1.80142 0
M  V30 7933 O 735.288 0.498147 2.47537 0
M  V30 7934 C 736.601 2.98036 0.399372 0
M  V30 7935 C 738.149 3.09286 0.480759 0
M  V30 7936 C 738.624 4.5561 0.467296 0
M  V30 7937 N 740.115 4.60182 0.52786 0
M  V30 7938 C 740.85 5.70857 0.539388 0
M  V30 7939 N 740.346 6.90944 0.506729 0
M  V30 7940 N 742.139 5.59051 0.584691 0
M  V30 7941 H 734.29 1.96709 -0.801215 0
M  V30 7942 H 736.553 0.899639 -0.298922 0
M  V30 7943 H 736.259 3.47656 -0.531806 0
M  V30 7944 H 736.133 3.57066 1.21589 0
M  V30 7945 H 738.52 2.5965 1.40236 0
M  V30 7946 H 738.601 2.53197 -0.364023 0
M  V30 7947 H 738.245 5.05899 -0.450384 0
M  V30 7948 H 738.175 5.09544 1.32938 0
M  V30 7949 H 740.666 3.73757 0.558028 0
M  V30 7950 H 740.979 7.71055 0.518989 0
M  V30 7951 H 739.324 6.93384 0.473675 0
M  V30 7952 H 742.515 4.64138 0.607781 0
M  V30 7953 H 742.688 6.45307 0.590206 0
M  V30 7954 N 736.094 -0.359525 1.53444 0
M  V30 7955 C 737.042 -1.46104 1.80987 0
M  V30 7956 C 738.036 -1.55181 0.679351 0
M  V30 7957 O 739.242 -1.57995 0.862405 0
M  V30 7958 H 735.617 -0.486835 0.573145 0
M  V30 7959 H 737.588 -1.2008 2.73173 0
M  V30 7960 C 736.337 -2.82855 2.02208 0
M  V30 7961 H 735.66 -2.76631 2.88644 0
M  V30 7962 H 737.1 -3.59091 2.25455 0
M  V30 7963 C 735.559 -3.27192 0.802931 0
M  V30 7964 O 736.089 -4.017 -0.00544286 0
M  V30 7965 N 734.295 -2.83807 0.624657 0
M  V30 7966 H 733.842 -2.23339 1.28364 0
M  V30 7967 H 733.8 -3.13828 -0.189641 0
M  V30 7968 N 737.572 -1.44907 -0.619662 0
M  V30 7969 C 738.988 -1.29046 -0.939107 0
M  V30 7970 C 739.188 -0.23462 -2.00129 0
M  V30 7971 O 738.244 0.37558 -2.49691 0
M  V30 7972 C 739.557 -2.66567 -1.39149 0
M  V30 7973 C 741.105 -2.74368 -1.50635 0
M  V30 7974 C 741.58 -4.12386 -1.99253 0
M  V30 7975 N 743.071 -4.1462 -2.06506 0
M  V30 7976 C 743.806 -5.18272 -2.4532 0
M  V30 7977 N 743.302 -6.32278 -2.83189 0
M  V30 7978 N 745.095 -5.05628 -2.45554 0
M  V30 7979 H 737.246 -2.12239 0.0826135 0
M  V30 7980 H 739.509 -0.947652 -0.0256829 0
M  V30 7981 H 739.215 -3.4496 -0.685254 0
M  V30 7982 H 739.089 -2.94224 -2.36034 0
M  V30 7983 H 741.476 -1.96287 -2.20353 0
M  V30 7984 H 741.557 -2.50439 -0.520963 0
M  V30 7985 H 741.201 -4.90947 -1.30127 0
M  V30 7986 H 741.131 -4.33699 -2.98684 0
M  V30 7987 H 743.622 -3.32343 -1.79878 0
M  V30 7988 H 743.935 -7.07172 -3.11652 0
M  V30 7989 H 742.28 -6.35699 -2.80913 0
M  V30 7990 H 745.471 -4.15613 -2.15367 0
M  V30 7991 H 745.644 -5.86529 -2.75478 0
M  V30 7992 N 739.05 0.861098 -1.31996 0
M  V30 7993 C 740.466 1.14827 -1.10846 0
M  V30 7994 C 740.666 2.0117 0.11528 0
M  V30 7995 O 739.722 2.39423 0.802048 0
M  V30 7996 C 741.035 1.83183 -2.38462 0
M  V30 7997 C 742.583 1.95847 -2.44158 0
M  V30 7998 C 743.058 2.67617 -3.71679 0
M  V30 7999 N 744.549 2.75147 -3.72624 0
M  V30 8000 C 745.284 3.31314 -4.67994 0
M  V30 8001 N 744.78 3.88343 -5.73726 0
M  V30 8002 N 746.573 3.29356 -4.55501 0
M  V30 8003 H 738.724 0.285951 -2.10466 0
M  V30 8004 H 740.987 0.189303 -0.928907 0
M  V30 8005 H 740.693 1.27193 -3.27895 0
M  V30 8006 H 740.567 2.83393 -2.48935 0
M  V30 8007 H 742.954 2.50999 -1.55189 0
M  V30 8008 H 743.035 0.94653 -2.37644 0
M  V30 8009 H 742.679 2.13131 -4.61018 0
M  V30 8010 H 742.609 3.69237 -3.75462 0
M  V30 8011 H 745.1 2.34682 -2.96197 0
M  V30 8012 H 745.413 4.29338 -6.42564 0
M  V30 8013 H 743.758 3.86693 -5.77489 0
M  V30 8014 H 746.949 2.84047 -3.72069 0
M  V30 8015 H 747.122 3.7283 -5.30001 0
M  V30 8016 N 740.528 1.15101 1.07655 0
M  V30 8017 C 741.475 0.844958 2.14777 0
M  V30 8018 C 742.445 -0.200798 1.64882 0
M  V30 8019 O 743.63 -0.0690278 1.90675 0
M  V30 8020 C 740.77 0.337018 3.4345 0
M  V30 8021 C 739.883 1.44398 4.07153 0
M  V30 8022 C 739.018 0.892487 5.23649 0
M  V30 8023 C 738.057 1.9766 5.79307 0
M  V30 8024 N 737.194 1.44171 6.87138 0
M  V30 8025 H 742.034 1.76242 2.40297 0
M  V30 8026 H 739.571 0.879435 1.17917 0
M  V30 8027 H 741.529 0.024256 4.17193 0
M  V30 8028 H 740.159 -0.543531 3.18191 0
M  V30 8029 H 739.211 1.87299 3.31094 0
M  V30 8030 H 740.523 2.26262 4.4453 0
M  V30 8031 H 739.677 0.532083 6.04362 0
M  V30 8032 H 738.416 0.0429854 4.87681 0
M  V30 8033 H 737.421 2.34586 4.97242 0
M  V30 8034 H 738.646 2.82982 6.17331 0
M  V30 8035 H 736.592 0.614518 6.53115 0
M  V30 8036 H 736.509 2.19665 7.23383 0
M  V30 8037 H 737.777 1.10945 7.71564 0
M  V30 8038 N 742.006 -1.2595 0.947325 0
M  V30 8039 C 742.953 -2.26159 0.460497 0
M  V30 8040 C 743.923 -1.58919 -0.483125 0
M  V30 8041 O 745.108 -1.86603 -0.397983 0
M  V30 8042 C 742.248 -3.441 -0.26247 0
M  V30 8043 C 741.361 -4.25999 0.717539 0
M  V30 8044 C 740.496 -5.31193 -0.0272486 0
M  V30 8045 C 739.535 -6.04774 0.944177 0
M  V30 8046 N 738.672 -7.01721 0.230741 0
M  V30 8047 H 743.512 -2.67173 1.31995 0
M  V30 8048 H 741.049 -1.31358 0.662088 0
M  V30 8049 H 743.007 -4.11317 -0.698137 0
M  V30 8050 H 741.637 -3.03983 -1.08602 0
M  V30 8051 H 740.689 -3.58513 1.27171 0
M  V30 8052 H 742.001 -4.76981 1.45913 0
M  V30 8053 H 741.155 -6.04451 -0.521903 0
M  V30 8054 H 739.894 -4.81066 -0.801682 0
M  V30 8055 H 738.899 -5.30338 1.4499 0
M  V30 8056 H 740.124 -6.56991 1.71872 0
M  V30 8057 H 738.07 -6.53895 -0.525088 0
M  V30 8058 H 737.987 -7.50484 0.911556 0
M  V30 8059 H 739.255 -7.79122 -0.242616 0
M  V30 8060 N 743.484 -0.715051 -1.40445 0
M  V30 8061 C 744.9 -0.388555 -1.54798 0
M  V30 8062 C 745.1 1.10271 -1.68649 0
M  V30 8063 O 744.156 1.88875 -1.67578 0
M  V30 8064 C 745.469 -1.15414 -2.77669 0
M  V30 8065 C 747.017 -1.14039 -2.91486 0
M  V30 8066 C 747.492 -1.88812 -4.1727 0
M  V30 8067 N 748.983 -1.85878 -4.24268 0
M  V30 8068 C 749.718 -2.40558 -5.20499 0
M  V30 8069 N 749.214 -3.03791 -6.22642 0
M  V30 8070 N 751.007 -2.30703 -5.12574 0
M  V30 8071 H 743.158 -1.68201 -1.297 0
M  V30 8072 H 745.421 -0.710915 -0.627139 0
M  V30 8073 H 745.127 -2.20853 -2.7371 0
M  V30 8074 H 745.001 -0.745412 -3.69761 0
M  V30 8075 H 747.388 -0.0941996 -2.9495 0
M  V30 8076 H 747.469 -1.58834 -2.00513 0
M  V30 8077 H 747.113 -2.93422 -4.14568 0
M  V30 8078 H 747.043 -1.41438 -5.0725 0
M  V30 8079 H 749.534 -1.39794 -3.51093 0
M  V30 8080 H 749.847 -3.43032 -6.92495 0
M  V30 8081 H 748.192 -3.07875 -6.23087 0
M  V30 8082 H 751.383 -1.80961 -4.31707 0
M  V30 8083 H 751.556 -2.73618 -5.87398 0
M  V30 8084 N 744.962 1.50701 -0.461195 0
M  V30 8085 C 745.909 2.2831 0.338094 0
M  V30 8086 C 746.879 1.32928 0.995957 0
M  V30 8087 O 748.064 1.61857 1.0103 0
M  V30 8088 C 745.204 3.14539 1.41983 0
M  V30 8089 C 744.317 4.24942 0.77773 0
M  V30 8090 C 743.452 4.98443 1.83652 0
M  V30 8091 C 742.491 6.00733 1.17413 0
M  V30 8092 N 741.628 6.6755 2.17533 0
M  V30 8093 H 746.468 2.96167 -0.330051 0
M  V30 8094 H 744.005 1.4606 -0.174611 0
M  V30 8095 H 745.963 3.62877 2.05855 0
M  V30 8096 H 744.593 2.48749 2.05727 0
M  V30 8097 H 743.645 3.80391 0.0266924 0
M  V30 8098 H 744.957 4.98151 0.254362 0
M  V30 8099 H 744.111 5.50449 2.55129 0
M  V30 8100 H 742.85 4.24917 2.39367 0
M  V30 8101 H 741.855 5.47997 0.444944 0
M  V30 8102 H 743.08 6.76227 0.624006 0
M  V30 8103 H 741.026 5.96823 2.72284 0
M  V30 8104 H 740.943 7.36603 1.70154 0
M  V30 8105 H 742.211 7.24178 2.88421 0
M  V30 8106 N 746.441 0.193421 1.56409 0
M  V30 8107 C 747.373 -0.759944 2.16235 0
M  V30 8108 C 748.386 -1.17797 1.12373 0
M  V30 8109 O 749.575 -1.11399 1.39472 0
M  V30 8110 C 746.675 -2.03735 2.70823 0
M  V30 8111 C 745.848 -1.77939 3.9957 0
M  V30 8112 C 744.907 -2.90111 4.39001 0
M  V30 8113 O 743.933 -2.59791 5.06456 0
M  V30 8114 N 745.135 -4.18426 4.02368 0
M  V30 8115 H 747.9 -0.248348 2.98669 0
M  V30 8116 H 745.461 0.0113966 1.61896 0
M  V30 8117 H 747.453 -2.77914 2.94187 0
M  V30 8118 H 746.023 -2.46022 1.92852 0
M  V30 8119 H 745.243 -0.875491 3.84355 0
M  V30 8120 H 746.531 -1.58099 4.83614 0
M  V30 8121 H 745.929 -4.45913 3.48106 0
M  V30 8122 H 744.486 -4.89237 4.30686 0
M  V30 8123 N 747.919 -1.57396 -0.0801906 0
M  V30 8124 C 748.866 -2.03107 -1.09618 0
M  V30 8125 C 749.836 -0.910118 -1.38946 0
M  V30 8126 O 751.021 -1.17719 -1.50156 0
M  V30 8127 C 748.161 -2.47293 -2.40708 0
M  V30 8128 C 747.274 -3.72972 -2.17982 0
M  V30 8129 C 746.409 -4.05975 -3.42576 0
M  V30 8130 C 745.448 -5.24719 -3.15177 0
M  V30 8131 N 744.585 -5.53401 -4.32078 0
M  V30 8132 H 749.425 -2.89677 -0.69939 0
M  V30 8133 H 746.962 -1.43263 -0.333785 0
M  V30 8134 H 748.92 -2.7096 -3.17232 0
M  V30 8135 H 747.55 -1.63713 -2.78205 0
M  V30 8136 H 746.602 -3.56693 -1.32189 0
M  V30 8137 H 747.914 -4.59638 -1.93738 0
M  V30 8138 H 747.068 -4.30498 -4.275 0
M  V30 8139 H 745.807 -3.17859 -3.69887 0
M  V30 8140 H 744.812 -5 -2.28648 0
M  V30 8141 H 746.037 -6.14445 -2.89197 0
M  V30 8142 H 743.983 -4.68245 -4.59437 0
M  V30 8143 H 743.9 -6.34469 -4.11078 0
M  V30 8144 H 745.168 -5.8247 -5.18024 0
M  V30 8145 N 749.397 0.351382 -1.53633 0
M  V30 8146 C 750.307 1.45471 -1.84052 0
M  V30 8147 C 751.323 1.57945 -0.730015 0
M  V30 8148 O 752.499 1.73571 -1.02153 0
M  V30 8149 C 749.564 2.80562 -2.03681 0
M  V30 8150 C 748.625 2.77497 -3.27558 0
M  V30 8151 C 747.858 4.06144 -3.46241 0
M  V30 8152 O 748.081 5.03028 -2.68922 0
M  V30 8153 O 747.015 4.11092 -4.39645 0
M  V30 8154 H 750.841 1.22684 -2.77817 0
M  V30 8155 H 748.426 0.542827 -1.3919 0
M  V30 8156 H 750.308 3.6058 -2.18082 0
M  V30 8157 H 748.983 3.03296 -1.13106 0
M  V30 8158 H 747.89 1.96126 -3.18568 0
M  V30 8159 H 749.223 2.59716 -4.18101 0
M  V30 8160 N 750.875 1.45233 0.611969 0
M  V30 8161 C 751.807 1.49575 1.73666 0
M  V30 8162 C 752.82 0.386987 1.58134 0
M  V30 8163 O 754.009 0.653804 1.66095 0
M  V30 8164 C 751.109 1.33223 3.11617 0
M  V30 8165 C 750.282 2.57694 3.5343 0
M  V30 8166 C 749.341 2.35962 4.70328 0
M  V30 8167 O 748.367 3.09553 4.77667 0
M  V30 8168 N 749.569 1.40243 5.63305 0
M  V30 8169 H 752.334 2.46539 1.70407 0
M  V30 8170 H 749.895 1.40917 0.79712 0
M  V30 8171 H 751.887 1.16502 3.87569 0
M  V30 8172 H 750.457 0.44551 3.09409 0
M  V30 8173 H 749.677 2.8956 2.67486 0
M  V30 8174 H 750.965 3.40441 3.78124 0
M  V30 8175 H 750.363 0.795023 5.60086 0
M  V30 8176 H 748.92 1.29496 6.38807 0
M  V30 8177 N 752.353 -0.854086 1.3245 0
M  V30 8178 C 753.578 -1.64597 1.26185 0
M  V30 8179 C 754.003 -1.87357 -0.167074 0
M  V30 8180 O 753.361 -1.42675 -1.11864 0
M  V30 8181 C 753.409 -2.98213 2.02734 0
M  V30 8182 O 752.513 -3.88784 1.37554 0
M  V30 8183 H 751.854 -0.50179 0.434859 0
M  V30 8184 H 754.384 -1.06372 1.74775 0
M  V30 8185 H 754.394 -3.4803 2.1293 0
M  V30 8186 H 753.069 -2.80969 3.06642 0
M  V30 8187 H 751.646 -3.4725 1.3591 0
M  V30 8188 N 753.831 -1.1567 -1.07043 0
M  V30 8189 C 755.079 -0.931673 -1.79344 0
M  V30 8190 C 755.4 0.542421 -1.87304 0
M  V30 8191 O 754.67 1.39418 -1.37621 0
M  V30 8192 H 753.25 -0.34171 -0.664262 0
M  V30 8193 H 755.912 -1.45795 -1.29344 0
M  V30 8194 H 755.008 -1.34379 -2.81689 0
M  V30 8195 N 755.309 1.25446 -0.953992 0
M  V30 8196 C 756.557 1.92762 -0.607227 0
M  V30 8197 C 756.878 1.7509 0.858399 0
M  V30 8198 O 756.148 1.11416 1.61132 0
M  V30 8199 H 754.728 0.713377 -0.221591 0
M  V30 8200 H 757.39 1.52625 -1.21209 0
M  V30 8201 H 756.486 3.00695 -0.835998 0
M  V30 8202 N 756.787 0.722489 1.40064 0
M  V30 8203 C 757.697 0.0755984 2.34478 0
M  V30 8204 C 758.713 -0.736046 1.57665 0
M  V30 8205 O 759.889 -0.667407 1.9002 0
M  V30 8206 C 756.954 -0.830075 3.36616 0
M  V30 8207 C 756.015 -0.00759884 4.29299 0
M  V30 8208 C 755.248 -0.870139 5.26559 0
M  V30 8209 O 755.471 -2.10921 5.2997 0
M  V30 8210 O 754.405 -0.305454 6.01124 0
M  V30 8211 H 758.231 0.854545 2.9143 0
M  V30 8212 H 755.816 0.483032 1.41376 0
M  V30 8213 H 757.698 -1.34864 3.99236 0
M  V30 8214 H 756.373 -1.58805 2.82069 0
M  V30 8215 H 755.28 0.556199 3.69942 0
M  V30 8216 H 756.613 0.712312 4.87018 0
M  V30 8217 N 758.265 -1.50454 0.469181 0
M  V30 8218 C 759.175 -2.32248 -0.331349 0
M  V30 8219 C 760.191 -1.42548 -0.997807 0
M  V30 8220 O 761.367 -1.75602 -0.9862 0
M  V30 8221 C 758.432 -3.17171 -1.40012 0
M  V30 8222 C 757.493 -4.2269 -0.750463 0
M  V30 8223 C 756.726 -5.03554 -1.76831 0
M  V30 8224 O 756.949 -4.85469 -2.99459 0
M  V30 8225 O 755.883 -5.86767 -1.3412 0
M  V30 8226 H 759.709 -3.01821 0.337279 0
M  V30 8227 H 757.294 -1.47602 0.231066 0
M  V30 8228 H 759.176 -3.69871 -2.01924 0
M  V30 8229 H 757.851 -2.50328 -2.05226 0
M  V30 8230 H 756.758 -3.73986 -0.0924446 0
M  V30 8231 H 758.091 -4.91997 -0.14131 0
M  V30 8232 N 759.743 -0.201713 -1.56304 0
M  V30 8233 C 760.69 0.716499 -2.19397 0
M  V30 8234 C 761.66 1.20494 -1.14326 0
M  V30 8235 O 762.845 1.26763 -1.42604 0
M  V30 8236 C 759.985 1.92762 -2.86246 0
M  V30 8237 C 759.098 1.47993 -4.0586 0
M  V30 8238 C 758.233 2.64706 -4.60547 0
M  V30 8239 C 757.272 2.16576 -5.72504 0
M  V30 8240 N 756.409 3.26491 -6.21569 0
M  V30 8241 H 761.249 0.171724 -2.97505 0
M  V30 8242 H 758.786 0.073016 -1.46919 0
M  V30 8243 H 760.744 2.6384 -3.23178 0
M  V30 8244 H 759.374 2.44559 -2.10691 0
M  V30 8245 H 758.426 0.66477 -3.74546 0
M  V30 8246 H 759.738 1.08686 -4.86815 0
M  V30 8247 H 758.892 3.43898 -4.99819 0
M  V30 8248 H 757.631 3.0729 -3.78713 0
M  V30 8249 H 756.636 1.3584 -5.32755 0
M  V30 8250 H 757.861 1.75015 -6.56161 0
M  V30 8251 H 755.807 3.68594 -5.42655 0
M  V30 8252 H 755.724 2.91374 -6.97594 0
M  V30 8253 H 756.992 4.05877 -6.65495 0
M  V30 8254 N 761.222 1.57436 0.0718424 0
M  V30 8255 C 762.499 1.78312 0.804006 0
M  V30 8256 C 762.879 0.789273 1.9579 0
M  V30 8257 O 762.227 -0.177605 2.27809 0
M  V30 8258 C 762.437 3.24798 1.277 0
M  V30 8259 C 763.785 3.88627 1.71039 0
M  V30 8260 O 764.809 3.28689 1.37266 0
M  V30 8261 O 763.668 4.94073 2.33567 0
M  V30 8262 H 760.762 0.73178 0.385262 0
M  V30 8263 H 763.308 1.69621 0.0519219 0
M  V30 8264 H 762.08 3.88688 0.45134 0
M  V30 8265 H 761.703 3.38213 2.0904 0
M  V30 8266 N 762.7 -0.34323 1.53817 0
M  V30 8267 C 763.61 -1.44493 1.84821 0
M  V30 8268 C 764.626 -1.57556 0.738381 0
M  V30 8269 O 765.802 -1.73026 1.03072 0
M  V30 8270 C 762.867 -2.79478 2.05166 0
M  V30 8271 C 761.928 -2.75756 3.29025 0
M  V30 8272 C 761.161 -4.04302 3.4839 0
M  V30 8273 O 761.384 -5.01595 2.71586 0
M  V30 8274 O 760.318 -4.08754 4.41819 0
M  V30 8275 H 764.144 -1.21209 2.78464 0
M  V30 8276 H 761.729 -0.535437 1.39476 0
M  V30 8277 H 763.611 -3.59419 2.19991 0
M  V30 8278 H 762.286 -3.02692 1.14713 0
M  V30 8279 H 761.193 -1.94434 3.19603 0
M  V30 8280 H 762.526 -2.57495 4.19472 0
M  V30 8281 N 764.178 -1.45556 -0.604258 0
M  V30 8282 C 765.455 -1.40221 -1.36373 0
M  V30 8283 C 765.835 -0.0745195 -2.10968 0
M  V30 8284 O 765.183 0.943594 -2.08107 0
M  V30 8285 C 765.393 -2.61807 -2.30777 0
M  V30 8286 C 766.741 -3.07037 -2.93281 0
M  V30 8287 O 767.765 -2.62203 -2.41097 0
M  V30 8288 O 766.624 -3.8485 -3.88011 0
M  V30 8289 H 763.718 -0.556602 -0.611656 0
M  V30 8290 H 766.264 -1.57689 -0.627069 0
M  V30 8291 H 765.036 -3.50017 -1.74939 0
M  V30 8292 H 764.659 -2.46688 -3.11818 0
M  V30 8293 N 765.656 0.84705 -1.32902 0
M  V30 8294 C 766.566 1.98845 -1.2449 0
M  V30 8295 C 767.582 1.7329 -0.15702 0
M  V30 8296 O 768.758 1.978 -0.379104 0
M  V30 8297 C 765.823 3.32679 -0.975985 0
M  V30 8298 C 764.884 3.71405 -2.15306 0
M  V30 8299 C 764.117 4.98853 -1.89688 0
M  V30 8300 O 764.34 5.64134 -0.843168 0
M  V30 8301 O 763.274 5.34889 -2.76002 0
M  V30 8302 H 767.1 2.0888 -2.2046 0
M  V30 8303 H 764.685 0.978852 -1.12867 0
M  V30 8304 H 766.567 4.12885 -0.842826 0
M  V30 8305 H 765.242 3.23667 -0.0464954 0
M  V30 8306 H 764.149 2.91743 -2.34172 0
M  V30 8307 H 765.482 3.85073 -3.06561 0
M  V30 8308 N 767.134 1.16236 1.06428 0
M  V30 8309 C 768.381 0.943034 1.79201 0
M  V30 8310 C 768.709 -0.529243 1.87161 0
M  V30 8311 O 767.964 -1.40874 1.35842 0
M  V30 8312 C 768.263 1.51396 3.2375 0
M  V30 8313 C 767.929 3.00833 3.35873 0
M  V30 8314 C 766.591 3.41626 3.38888 0
M  V30 8315 C 768.943 3.96825 3.37904 0
M  V30 8316 C 766.271 4.77033 3.4155 0
M  V30 8317 C 768.623 5.32116 3.42104 0
M  V30 8318 C 767.287 5.72392 3.43401 0
M  V30 8319 H 766.557 0.34508 0.655744 0
M  V30 8320 H 769.204 1.44929 1.25171 0
M  V30 8321 H 767.509 0.929114 3.80624 0
M  V30 8322 H 769.206 1.31996 3.78653 0
M  V30 8323 H 765.796 2.68306 3.3423 0
M  V30 8324 H 769.98 3.66376 3.34787 0
M  V30 8325 H 765.236 5.07569 3.40858 0
M  V30 8326 H 769.41 6.06286 3.42623 0
M  V30 8327 H 767.037 6.77296 3.45216 0
M  V30 8328 N 768.612 -1.24939 0.960631 0
M  V30 8329 C 769.544 -2.24879 0.442937 0
M  V30 8330 C 770.557 -1.56615 -0.444464 0
M  V30 8331 O 771.746 -1.76715 -0.251776 0
M  V30 8332 C 768.846 -3.36757 -0.380537 0
M  V30 8333 C 768.019 -4.34587 0.495283 0
M  V30 8334 C 767.078 -5.25502 -0.270995 0
M  V30 8335 O 766.104 -5.68227 0.332661 0
M  V30 8336 N 767.306 -5.59077 -1.56249 0
M  V30 8337 H 770.071 -2.69932 1.30218 0
M  V30 8338 H 767.632 -1.38907 0.83166 0
M  V30 8339 H 769.624 -3.94542 -0.90103 0
M  V30 8340 H 768.194 -2.91045 -1.14067 0
M  V30 8341 H 767.414 -3.75593 1.19682 0
M  V30 8342 H 768.702 -4.96925 1.09285 0
M  V30 8343 H 768.1 -5.2628 -2.07476 0
M  V30 8344 H 766.657 -6.19421 -2.02882 0
M  V30 8345 N 770.09 -0.729906 -1.39679 0
M  V30 8346 C 771.037 -0.0866063 -2.30637 0
M  V30 8347 C 772.007 0.735115 -1.48947 0
M  V30 8348 O 773.192 0.696125 -1.77648 0
M  V30 8349 C 770.332 0.818524 -3.35252 0
M  V30 8350 C 769.445 -0.0152635 -4.31997 0
M  V30 8351 C 768.58 0.890669 -5.2368 0
M  V30 8352 C 767.619 0.0518246 -6.12078 0
M  V30 8353 N 766.756 0.913411 -6.96133 0
M  V30 8354 H 771.596 -0.867925 -2.85081 0
M  V30 8355 H 769.133 -0.439673 -1.40376 0
M  V30 8356 H 771.091 1.3577 -3.9449 0
M  V30 8357 H 769.721 1.56587 -2.82277 0
M  V30 8358 H 768.773 -0.671794 -3.74421 0
M  V30 8359 H 770.085 -0.664086 -4.9436 0
M  V30 8360 H 769.239 1.49787 -5.87919 0
M  V30 8361 H 767.978 1.57328 -4.61627 0
M  V30 8362 H 766.983 -0.568209 -5.46856 0
M  V30 8363 H 768.208 -0.627497 -6.76195 0
M  V30 8364 H 766.154 1.58141 -6.36653 0
M  V30 8365 H 766.071 0.320952 -7.55318 0
M  V30 8366 H 767.339 1.50633 -7.64807 0
M  V30 8367 N 771.568 1.50203 -0.477153 0
M  V30 8368 C 772.793 2.07263 0.0754986 0
M  V30 8369 C 773.218 1.33801 1.32208 0
M  V30 8370 O 772.576 0.387482 1.77111 0
M  V30 8371 C 772.624 3.59028 0.336348 0
M  V30 8372 O 771.728 3.87339 1.4157 0
M  V30 8373 H 771.069 0.663815 -0.015662 0
M  V30 8374 H 773.599 1.93321 -0.669936 0
M  V30 8375 H 773.609 4.03927 0.575034 0
M  V30 8376 H 772.284 4.11912 -0.574551 0
M  V30 8377 H 770.861 3.54272 1.16385 0
M  V30 8378 N 773.046 0.209999 1.56195 0
M  V30 8379 C 773.956 -0.716459 2.23392 0
M  V30 8380 C 774.972 -1.22291 1.23778 0
M  V30 8381 O 776.148 -1.26694 1.56558 0
M  V30 8382 C 773.213 -1.91261 2.89172 0
M  V30 8383 C 772.274 -1.44927 4.04097 0
M  V30 8384 C 771.507 -2.5884 4.66731 0
M  V30 8385 O 771.73 -3.76693 4.2832 0
M  V30 8386 O 770.664 -2.30701 5.55932 0
M  V30 8387 H 774.49 -0.174089 3.03201 0
M  V30 8388 H 772.075 -0.0199505 1.49387 0
M  V30 8389 H 773.957 -2.6114 3.30733 0
M  V30 8390 H 772.632 -2.4433 2.12331 0
M  V30 8391 H 771.539 -0.718839 3.67129 0
M  V30 8392 H 772.872 -0.965084 4.82646 0
M  V30 8393 N 774.524 -1.57472 -0.0634922 0
M  V30 8394 C 775.749 -1.92273 -0.77756 0
M  V30 8395 C 776.174 -0.807141 -1.69902 0
M  V30 8396 O 775.532 0.239523 -1.79711 0
M  V30 8397 C 775.58 -3.26054 -1.54017 0
M  V30 8398 O 774.684 -3.15873 -2.65138 0
M  V30 8399 H 774.025 -0.629389 -0.211579 0
M  V30 8400 H 776.555 -2.04579 -0.0292523 0
M  V30 8401 H 776.565 -3.60127 -1.91763 0
M  V30 8402 H 775.24 -4.06824 -0.864128 0
M  V30 8403 H 773.817 -2.93373 -2.30189 0
M  V30 8404 N 776.003 0.335068 -1.53997 0
M  V30 8405 C 776.913 1.43511 -1.85585 0
M  V30 8406 C 777.929 1.57162 -0.746726 0
M  V30 8407 O 779.105 1.72477 -1.03988 0
M  V30 8408 C 776.17 2.78386 -2.06646 0
M  V30 8409 C 775.231 2.74007 -3.30483 0
M  V30 8410 C 774.464 4.02449 -3.50529 0
M  V30 8411 O 774.687 5.00147 -2.74242 0
M  V30 8412 O 773.621 4.06405 -4.4398 0
M  V30 8413 H 777.447 1.19731 -2.79102 0
M  V30 8414 H 775.032 0.528033 -1.39758 0
M  V30 8415 H 776.914 3.58247 -2.21894 0
M  V30 8416 H 775.589 3.0208 -1.16317 0
M  V30 8417 H 774.496 1.92736 -3.2063 0
M  V30 8418 H 775.829 2.55267 -4.20832 0
M  V30 8419 N 777.481 1.45874 0.596531 0
M  V30 8420 C 778.758 1.40942 1.35627 0
M  V30 8421 C 779.138 0.0857066 2.10926 0
M  V30 8422 O 778.486 -0.932544 2.08605 0
M  V30 8423 C 778.696 2.63027 2.29386 0
M  V30 8424 C 780.044 3.08588 2.91649 0
M  V30 8425 O 781.068 2.63478 2.39704 0
M  V30 8426 O 779.927 3.86902 3.85965 0
M  V30 8427 H 777.021 0.559838 0.608696 0
M  V30 8428 H 779.567 1.5802 0.618698 0
M  V30 8429 H 778.339 3.5094 1.7308 0
M  V30 8430 H 777.962 2.48338 3.10506 0
M  V30 8431 N 778.959 -0.83999 1.33349 0
M  V30 8432 C 780.184 -1.63249 1.27924 0
M  V30 8433 C 780.609 -1.87523 -0.147193 0
M  V30 8434 O 779.967 -1.43853 -1.10345 0
M  V30 8435 C 780.015 -2.96046 2.05886 0
M  V30 8436 O 779.119 -3.87303 1.4167 0
M  V30 8437 H 778.46 -0.49715 0.440157 0
M  V30 8438 H 780.99 -1.04512 1.75893 0
M  V30 8439 H 781 -3.45752 2.16609 0
M  V30 8440 H 779.675 -2.77701 3.09605 0
M  V30 8441 H 778.252 -3.45789 1.39585 0
M  V30 8442 N 780.437 -1.16799 -1.0581 0
M  V30 8443 C 781.686 -0.94698 -1.78088 0
M  V30 8444 C 781.999 0.526016 -1.88394 0
M  V30 8445 O 783.205 0.865061 -2.5735 0
M  V30 8446 C 781.661 -1.64508 -3.20102 0
M  V30 8447 C 781.269 -3.15618 -3.17946 0
M  V30 8448 C 783.013 -1.50622 -3.96879 0
M  V30 8449 C 780.92 -3.78144 -4.5471 0
M  V30 8450 H 779.85 -0.35067 -0.667493 0
M  V30 8451 H 782.501 -1.39985 -1.18645 0
M  V30 8452 H 780.883 -1.11993 -3.79834 0
M  V30 8453 H 782.057 -3.75016 -2.67768 0
M  V30 8454 H 780.372 -3.29444 -2.54667 0
M  V30 8455 H 782.969 -1.94713 -4.97987 0
M  V30 8456 H 783.312 -0.455864 -4.13797 0
M  V30 8457 H 783.845 -2.00319 -3.43682 0
M  V30 8458 H 780.584 -4.83149 -4.42998 0
M  V30 8459 H 780.104 -3.23532 -5.05062 0
M  V30 8460 H 781.783 -3.79986 -5.2366 0
M  V30 8461 N 781.915 1.24427 -0.967243 0
M  V30 8462 C 783.331 1.44684 -0.6737 0
M  V30 8463 C 783.531 1.86429 0.764625 0
M  V30 8464 O 782.587 2.00211 1.53857 0
M  V30 8465 C 783.9 2.509 -1.6574 0
M  V30 8466 C 785.448 2.64728 -1.66998 0
M  V30 8467 C 785.923 3.7414 -2.64165 0
M  V30 8468 N 787.414 3.81567 -2.62604 0
M  V30 8469 C 788.149 4.6575 -3.34462 0
M  V30 8470 N 787.645 5.54124 -4.15835 0
M  V30 8471 N 789.438 4.59827 -3.23288 0
M  V30 8472 H 781.589 0.956276 -1.89655 0
M  V30 8473 H 783.852 0.48171 -0.816492 0
M  V30 8474 H 783.558 2.27113 -2.68538 0
M  V30 8475 H 783.432 3.4905 -1.42981 0
M  V30 8476 H 785.819 2.87872 -0.649121 0
M  V30 8477 H 785.9 1.66936 -1.93819 0
M  V30 8478 H 785.544 3.51745 -3.66384 0
M  V30 8479 H 785.474 4.71444 -2.34623 0
M  V30 8480 H 787.965 3.18403 -2.03539 0
M  V30 8481 H 788.278 6.15316 -4.67553 0
M  V30 8482 H 786.623 5.53791 -4.19929 0
M  V30 8483 H 789.814 3.898 -2.59179 0
M  V30 8484 H 789.987 5.25208 -3.79553 0
M  V30 8485 N 783.393 0.737304 1.3929 0
M  V30 8486 C 784.809 0.413132 1.5416 0
M  V30 8487 C 785.009 -1.07574 1.70382 0
M  V30 8488 O 784.065 -1.86185 1.70562 0
M  V30 8489 C 785.378 1.19817 2.75798 0
M  V30 8490 C 786.926 1.18662 2.89635 0
M  V30 8491 C 787.401 1.95427 4.14213 0
M  V30 8492 N 788.892 1.92605 4.21257 0
M  V30 8493 C 789.627 2.48808 5.16606 0
M  V30 8494 N 789.123 3.13659 6.1773 0
M  V30 8495 N 790.916 2.38829 5.08839 0
M  V30 8496 H 783.067 1.70243 1.27008 0
M  V30 8497 H 785.33 0.720802 0.61575 0
M  V30 8498 H 785.036 2.25179 2.70161 0
M  V30 8499 H 784.91 0.804144 3.68529 0
M  V30 8500 H 787.297 0.141112 2.94762 0
M  V30 8501 H 787.378 1.62003 1.97961 0
M  V30 8502 H 787.022 2.9998 4.09847 0
M  V30 8503 H 786.952 1.4949 5.04936 0
M  V30 8504 H 789.443 1.45362 3.48824 0
M  V30 8505 H 789.756 3.54006 6.8695 0
M  V30 8506 H 788.101 3.17749 6.1811 0
M  V30 8507 H 791.292 1.87806 4.28773 0
M  V30 8508 H 791.465 2.82929 5.82971 0
M  V30 8509 N 784.871 -1.49948 0.485112 0
M  V30 8510 C 785.818 -2.28819 -0.301729 0
M  V30 8511 C 786.788 -1.34496 -0.974683 0
M  V30 8512 O 787.973 -1.63444 -0.984418 0
M  V30 8513 C 785.113 -3.16758 -1.36961 0
M  V30 8514 C 784.226 -4.26125 -0.710027 0
M  V30 8515 C 783.361 -5.01302 -1.75699 0
M  V30 8516 C 782.4 -6.02525 -1.07841 0
M  V30 8517 N 781.537 -6.70927 -2.06886 0
M  V30 8518 H 786.377 -2.95604 0.377127 0
M  V30 8519 H 783.914 -1.45764 0.197826 0
M  V30 8520 H 785.872 -3.66106 -2.00056 0
M  V30 8521 H 784.502 -2.51991 -2.01744 0
M  V30 8522 H 783.554 -3.80385 0.0338278 0
M  V30 8523 H 784.866 -4.98493 -0.175079 0
M  V30 8524 H 784.02 -5.54438 -2.46339 0
M  V30 8525 H 782.759 -4.28672 -2.32577 0
M  V30 8526 H 781.764 -5.48635 -0.357706 0
M  V30 8527 H 782.989 -6.77134 -0.516345 0
M  V30 8528 H 780.935 -6.01079 -2.62755 0
M  V30 8529 H 780.852 -7.39216 -1.58414 0
M  V30 8530 H 782.12 -7.28675 -2.76863 0
M  V30 8531 N 786.349 -0.21828 -1.56081 0
M  V30 8532 C 787.597 0.413488 -1.97825 0
M  V30 8533 C 787.918 1.60527 -1.10707 0
M  V30 8534 O 787.188 1.9504 -0.183378 0
M  V30 8535 H 785.768 0.155757 -0.730581 0
M  V30 8536 H 788.43 -0.310413 -1.92412 0
M  V30 8537 H 787.526 0.742024 -3.03151 0
M  V30 8538 N 787.827 1.57504 0.0551401 0
M  V30 8539 C 789.074 1.88055 0.751104 0
M  V30 8540 C 789.402 0.812231 1.76729 0
M  V30 8541 O 788.657 -0.189918 1.94776 0
M  V30 8542 C 788.956 3.25311 1.48013 0
M  V30 8543 C 788.622 4.46858 0.602375 0
M  V30 8544 C 787.284 4.79847 0.360536 0
M  V30 8545 C 789.636 5.212 -0.00524047 0
M  V30 8546 C 786.964 5.84582 -0.498127 0
M  V30 8547 C 789.316 6.26844 -0.851453 0
M  V30 8548 C 787.98 6.58324 -1.103 0
M  V30 8549 H 787.25 0.688142 0.274848 0
M  V30 8550 H 789.897 1.91497 0.0114795 0
M  V30 8551 H 788.202 3.17737 2.29239 0
M  V30 8552 H 789.899 3.46189 2.02371 0
M  V30 8553 H 786.489 4.21049 0.801007 0
M  V30 8554 H 790.673 4.96013 0.168682 0
M  V30 8555 H 785.929 6.07361 -0.701594 0
M  V30 8556 H 790.103 6.83603 -1.32893 0
M  V30 8557 H 787.73 7.39304 -1.77011 0
M  V30 8558 N 789.305 -0.326896 1.54172 0
M  V30 8559 C 790.721 -0.671034 1.44808 0
M  V30 8560 C 790.921 -1.91781 0.618258 0
M  V30 8561 O 789.977 -2.52235 0.115751 0
M  V30 8562 C 791.29 -0.848147 2.88491 0
M  V30 8563 C 792.838 -0.945702 2.98371 0
M  V30 8564 C 793.313 -1.15501 4.43197 0
M  V30 8565 N 794.804 -1.22183 4.46795 0
M  V30 8566 C 795.539 -1.4016 5.56006 0
M  V30 8567 N 795.035 -1.55202 6.75192 0
M  V30 8568 N 796.828 -1.42841 5.43648 0
M  V30 8569 H 788.979 0.49262 2.06608 0
M  V30 8570 H 791.242 0.158574 0.934643 0
M  V30 8571 H 790.948 -0.00329969 3.517 0
M  V30 8572 H 790.822 -1.74497 3.34411 0
M  V30 8573 H 793.209 -1.78106 2.35292 0
M  V30 8574 H 793.29 -0.0254215 2.55787 0
M  V30 8575 H 792.934 -0.324521 5.06862 0
M  V30 8576 H 792.864 -2.08911 4.83388 0
M  V30 8577 H 795.355 -1.12016 3.60917 0
M  V30 8578 H 795.668 -1.68601 7.54184 0
M  V30 8579 H 794.013 -1.52306 6.78106 0
M  V30 8580 H 797.204 -1.30683 4.49488 0
M  V30 8581 H 797.377 -1.56509 6.28816 0
M  V30 8582 N 790.784 -1.46188 -0.588786 0
M  V30 8583 C 792.031 -1.51184 -1.34721 0
M  V30 8584 C 792.359 -0.161084 -1.93832 0
M  V30 8585 O 791.614 0.842557 -1.76634 0
M  V30 8586 C 791.913 -2.55364 -2.50048 0
M  V30 8587 C 791.579 -3.99553 -2.08969 0
M  V30 8588 C 790.241 -4.38811 -1.9748 0
M  V30 8589 C 792.593 -4.90156 -1.77191 0
M  V30 8590 C 789.921 -5.66544 -1.52463 0
M  V30 8591 C 792.273 -6.1832 -1.33654 0
M  V30 8592 C 790.937 -6.5649 -1.20738 0
M  V30 8593 H 790.207 -0.55322 -0.49298 0
M  V30 8594 H 792.854 -1.79634 -0.663627 0
M  V30 8595 H 791.159 -2.20552 -3.23827 0
M  V30 8596 H 792.856 -2.5646 -3.08268 0
M  V30 8597 H 789.446 -3.68518 -2.18843 0
M  V30 8598 H 793.63 -4.60549 -1.84955 0
M  V30 8599 H 788.886 -5.94895 -1.411 0
M  V30 8600 H 793.06 -6.87956 -1.08117 0
M  V30 8601 H 790.687 -7.55362 -0.856307 0
M  V30 8602 N 792.262 0.832906 -1.33792 0
M  V30 8603 C 793.487 1.62568 -1.28788 0
M  V30 8604 C 793.912 1.87599 0.137246 0
M  V30 8605 O 793.27 1.44436 1.0958 0
M  V30 8606 C 793.318 2.9495 -2.07453 0
M  V30 8607 O 792.422 3.86546 -1.43722 0
M  V30 8608 H 791.763 0.494809 -0.442787 0
M  V30 8609 H 794.293 1.03578 -1.76445 0
M  V30 8610 H 794.303 3.44599 -2.1844 0
M  V30 8611 H 792.978 2.76055 -3.11073 0
M  V30 8612 H 791.555 3.45044 -1.41417 0
M  V30 8613 N 793.74 1.17359 1.05189 0
M  V30 8614 C 794.989 0.956412 1.77583 0
M  V30 8615 C 795.302 -0.516018 1.88671 0
M  V30 8616 O 796.508 -0.851401 2.57805 0
M  V30 8617 C 794.964 1.66203 3.19225 0
M  V30 8618 C 794.572 3.17299 3.16267 0
M  V30 8619 C 796.316 1.52725 3.96075 0
M  V30 8620 C 794.223 3.8055 4.52698 0
M  V30 8621 H 793.153 0.354204 0.665624 0
M  V30 8622 H 795.804 1.40612 1.17901 0
M  V30 8623 H 794.186 1.14006 3.79234 0
M  V30 8624 H 795.36 3.76431 2.65776 0
M  V30 8625 H 793.675 3.3079 2.52917 0
M  V30 8626 H 796.272 1.97351 4.96947 0
M  V30 8627 H 796.615 0.477803 4.13549 0
M  V30 8628 H 797.148 2.02139 3.42614 0
M  V30 8629 H 793.887 4.85492 4.4043 0
M  V30 8630 H 793.407 3.26206 5.03339 0
M  V30 8631 H 795.086 3.82757 5.21638 0
M  V30 8632 N 795.218 -1.23913 0.973828 0
M  V30 8633 C 796.128 -2.28838 0.516735 0
M  V30 8634 C 797.144 -1.68723 -0.425282 0
M  V30 8635 O 798.32 -1.99201 -0.296819 0
M  V30 8636 C 795.385 -3.46233 -0.179914 0
M  V30 8637 C 794.446 -4.21729 0.80269 0
M  V30 8638 C 793.679 -5.33518 0.139191 0
M  V30 8639 O 793.902 -5.60252 -1.07118 0
M  V30 8640 O 792.836 -5.96088 0.834447 0
M  V30 8641 H 796.662 -2.70067 1.38916 0
M  V30 8642 H 794.247 -1.2972 0.74115 0
M  V30 8643 H 796.129 -4.17514 -0.570991 0
M  V30 8644 H 794.804 -3.06969 -1.02721 0
M  V30 8645 H 793.711 -3.52799 1.24434 0
M  V30 8646 H 795.044 -4.64825 1.61859 0
M  V30 8647 N 796.696 -0.74468 -1.38897 0
M  V30 8648 C 797.944 -0.296298 -1.99916 0
M  V30 8649 C 798.265 1.12325 -1.59399 0
M  V30 8650 O 797.535 1.76658 -0.846689 0
M  V30 8651 H 796.115 -0.106561 -0.73936 0
M  V30 8652 H 798.777 -0.956793 -1.69798 0
M  V30 8653 H 797.873 -0.352356 -3.10105 0
M  V30 8654 N 798.174 1.49689 -0.493057 0
M  V30 8655 C 799.122 2.30613 0.303383 0
M  V30 8656 C 800.116 1.38867 0.970165 0
M  V30 8657 O 801.322 1.55956 0.898761 0
M  V30 8658 H 797.697 0.742891 0.116691 0
M  V30 8659 H 799.668 2.95717 -0.39924 0
M  V30 8660 C 798.417 3.20008 1.35978 0
M  V30 8661 H 797.74 3.90526 0.856103 0
M  V30 8662 H 799.18 3.79586 1.88919 0
M  V30 8663 C 797.639 2.39079 2.37367 0
M  V30 8664 O 798.169 2.08933 3.43089 0
M  V30 8665 N 796.375 2.0125 2.09635 0
M  V30 8666 H 795.922 2.25966 1.23682 0
M  V30 8667 H 795.88 1.47408 2.77702 0
M  V30 8668 N 799.652 0.226554 1.55963 0
M  V30 8669 C 801.068 -0.128733 1.5908 0
M  V30 8670 C 801.268 -1.58558 1.24345 0
M  V30 8671 O 800.324 -2.32661 0.981069 0
M  V30 8672 C 801.637 0.202076 3.0002 0
M  V30 8673 C 803.185 0.144718 3.12665 0
M  V30 8674 C 803.66 0.449272 4.55791 0
M  V30 8675 N 805.151 0.399026 4.61478 0
M  V30 8676 C 805.886 0.608106 5.70166 0
M  V30 8677 N 805.382 0.879227 6.87198 0
M  V30 8678 N 807.175 0.5402 5.59498 0
M  V30 8679 H 799.326 1.17686 1.76816 0
M  V30 8680 H 801.589 0.472072 0.822102 0
M  V30 8681 H 801.295 1.21341 3.30105 0
M  V30 8682 H 801.169 -0.480554 3.74126 0
M  V30 8683 H 803.556 -0.857261 2.82374 0
M  V30 8684 H 803.637 0.860899 2.40878 0
M  V30 8685 H 803.281 1.44871 4.86801 0
M  V30 8686 H 803.211 -0.288157 5.25811 0
M  V30 8687 H 805.702 0.197372 3.77384 0
M  V30 8688 H 806.015 1.02673 7.65949 0
M  V30 8689 H 804.36 0.916477 6.88931 0
M  V30 8690 H 807.551 0.328581 4.66945 0
M  V30 8691 H 807.724 0.706548 6.44137 0
M  V30 8692 N 801.13 -1.57531 -0.0467866 0
M  V30 8693 C 802.06 -2.08425 -1.05268 0
M  V30 8694 C 803.041 -0.982941 -1.38825 0
M  V30 8695 O 804.226 -1.25716 -1.48018 0
M  V30 8696 C 801.356 -2.54897 -2.35891 0
M  V30 8697 C 800.31 -3.69132 -2.16623 0
M  V30 8698 C 799.636 -4.01747 -3.52851 0
M  V30 8699 C 800.936 -4.98243 -1.56689 0
M  V30 8700 H 802.63 -2.92716 -0.62908 0
M  V30 8701 H 800.176 -1.40816 -0.301156 0
M  V30 8702 H 802.129 -2.8912 -3.06574 0
M  V30 8703 H 800.853 -1.67666 -2.80278 0
M  V30 8704 H 799.512 -3.35231 -1.48377 0
M  V30 8705 H 799.16 -3.11608 -3.94853 0
M  V30 8706 H 798.86 -4.78681 -3.4079 0
M  V30 8707 H 800.384 -4.38487 -4.24925 0
M  V30 8708 H 801.798 -5.30535 -2.17268 0
M  V30 8709 H 800.195 -5.79669 -1.55255 0
M  V30 8710 H 801.265 -4.81986 -0.530827 0
M  V30 8711 N 802.608 0.318715 -1.54344 0
M  V30 8712 C 803.836 1.0755 -1.7675 0
M  V30 8713 C 804.251 1.81543 -0.518422 0
M  V30 8714 O 803.608 1.75198 0.511078 0
M  V30 8715 C 803.659 2.06983 -2.96378 0
M  V30 8716 O 803.38 1.35995 -4.16458 0
M  V30 8717 C 804.881 2.94841 -3.31034 0
M  V30 8718 H 802.101 0.319711 -0.589937 0
M  V30 8719 H 804.645 0.363369 -2.01246 0
M  V30 8720 H 802.8 2.73724 -2.74142 0
M  V30 8721 H 803.214 2.02623 -4.83781 0
M  V30 8722 H 804.688 3.60496 -4.18027 0
M  V30 8723 H 805.165 3.62199 -2.48412 0
M  V30 8724 H 805.771 2.33656 -3.55366 0
M  V30 8725 N 804.086 1.46499 0.581025 0
M  V30 8726 C 805.316 1.55244 1.36319 0
M  V30 8727 C 805.724 0.193059 1.88212 0
M  V30 8728 O 805.067 -0.820109 1.64377 0
M  V30 8729 C 805.129 2.498 2.58535 0
M  V30 8730 C 804.793 3.96007 2.28096 0
M  V30 8731 C 805.79 4.85171 1.8683 0
M  V30 8732 C 803.475 4.41152 2.40189 0
M  V30 8733 C 805.469 6.17493 1.58053 0
M  V30 8734 C 803.156 5.73508 2.11024 0
M  V30 8735 C 804.154 6.615 1.70021 0
M  V30 8736 O 803.842 7.914 1.41215 0
M  V30 8737 H 803.574 0.527513 0.422736 0
M  V30 8738 H 806.128 1.92623 0.713139 0
M  V30 8739 H 804.358 2.07443 3.2635 0
M  V30 8740 H 806.047 2.48934 3.20604 0
M  V30 8741 H 806.813 4.51548 1.77001 0
M  V30 8742 H 802.692 3.72886 2.71066 0
M  V30 8743 H 806.236 6.86131 1.25974 0
M  V30 8744 H 802.133 6.06679 2.20478 0
M  V30 8745 H 802.901 8.03681 1.55046 0
M  V30 8746 N 805.565 -0.825799 1.34232 0
M  V30 8747 C 806.475 -1.9684 1.27638 0
M  V30 8748 C 807.491 -1.73018 0.184569 0
M  V30 8749 O 808.667 -1.97172 0.410525 0
M  V30 8750 C 805.732 -3.31084 1.02879 0
M  V30 8751 C 804.793 -3.67933 2.21188 0
M  V30 8752 C 804.026 -4.95772 1.976 0
M  V30 8753 O 804.249 -5.62721 0.93281 0
M  V30 8754 O 803.183 -5.30431 2.84477 0
M  V30 8755 H 807.009 -2.05346 2.23756 0
M  V30 8756 H 804.594 -0.960772 1.1441 0
M  V30 8757 H 806.476 -4.11492 0.908406 0
M  V30 8758 H 805.151 -3.23552 0.0979821 0
M  V30 8759 H 804.058 -2.87981 2.38784 0
M  V30 8760 H 805.391 -3.80147 3.12648 0
M  V30 8761 N 807.043 -1.17915 -1.04565 0
M  V30 8762 C 807.99 -0.901605 -2.12461 0
M  V30 8763 C 808.96 0.157011 -1.65356 0
M  V30 8764 O 810.145 0.0184494 -1.90791 0
M  V30 8765 C 807.285 -0.42796 -3.42436 0
M  V30 8766 C 806.398 -1.55142 -4.03181 0
M  V30 8767 C 805.533 -1.03101 -5.21098 0
M  V30 8768 C 804.572 -2.1295 -5.73863 0
M  V30 8769 N 803.709 -1.62339 -6.83074 0
M  V30 8770 H 808.549 -1.82551 -2.3554 0
M  V30 8771 H 806.086 -0.910389 -1.15544 0
M  V30 8772 H 808.044 -0.134859 -4.16982 0
M  V30 8773 H 806.674 0.458977 -3.1952 0
M  V30 8774 H 805.726 -1.96011 -3.26012 0
M  V30 8775 H 807.038 -2.37968 -4.38375 0
M  V30 8776 H 806.192 -0.692132 -6.02739 0
M  V30 8777 H 804.931 -0.17227 -4.87396 0
M  V30 8778 H 803.936 -2.47687 -4.90847 0
M  V30 8779 H 805.161 -2.9925 -6.09611 0
M  V30 8780 H 803.107 -0.787464 -6.51256 0
M  V30 8781 H 803.024 -2.38767 -7.17305 0
M  V30 8782 H 804.292 -1.31363 -7.68351 0
M  V30 8783 N 808.521 1.23394 -0.980386 0
M  V30 8784 C 809.937 1.43961 -0.689008 0
M  V30 8785 C 810.137 1.87229 0.744809 0
M  V30 8786 O 809.193 2.01831 1.51725 0
M  V30 8787 C 810.506 2.49128 -1.68392 0
M  V30 8788 C 812.054 2.62941 -1.69796 0
M  V30 8789 C 812.529 3.71317 -2.68118 0
M  V30 8790 N 814.02 3.7876 -2.66636 0
M  V30 8791 C 814.755 4.62176 -3.39383 0
M  V30 8792 N 814.251 5.49682 -4.21688 0
M  V30 8793 N 816.044 4.56372 -3.28147 0
M  V30 8794 H 808.195 0.936106 -1.90659 0
M  V30 8795 H 810.458 0.473023 -0.821555 0
M  V30 8796 H 810.164 2.24252 -2.70931 0
M  V30 8797 H 810.038 3.47514 -1.46675 0
M  V30 8798 H 812.425 2.87168 -0.679617 0
M  V30 8799 H 812.506 1.64871 -1.95579 0
M  V30 8800 H 812.15 3.4784 -3.70095 0
M  V30 8801 H 812.08 4.68929 -2.3961 0
M  V30 8802 H 814.571 3.16226 -2.06904 0
M  V30 8803 H 814.884 6.10323 -4.74053 0
M  V30 8804 H 813.229 5.49306 -4.25779 0
M  V30 8805 H 816.42 3.87029 -2.63299 0
M  V30 8806 H 816.593 5.21153 -3.85102 0
M  V30 8807 N 809.999 0.752036 1.385 0
M  V30 8808 C 811.229 0.317812 2.04141 0
M  V30 8809 C 811.637 -1.05822 1.56839 0
M  V30 8810 O 810.98 -1.68311 0.736016 0
M  V30 8811 C 811.042 0.260205 3.58557 0
M  V30 8812 C 810.706 1.57753 4.28909 0
M  V30 8813 C 811.703 2.52642 4.54387 0
M  V30 8814 C 809.388 1.84653 4.67128 0
M  V30 8815 C 811.382 3.72653 5.17116 0
M  V30 8816 C 809.069 3.04938 5.29581 0
M  V30 8817 C 810.067 3.98759 5.54509 0
M  V30 8818 O 809.755 5.16929 6.15662 0
M  V30 8819 H 809.487 0.133931 0.6626 0
M  V30 8820 H 812.041 1.02138 1.78205 0
M  V30 8821 H 810.271 -0.499596 3.83459 0
M  V30 8822 H 811.96 -0.144295 4.05643 0
M  V30 8823 H 812.726 2.33135 4.25292 0
M  V30 8824 H 808.605 1.12464 4.47071 0
M  V30 8825 H 812.149 4.45898 5.36489 0
M  V30 8826 H 808.046 3.24339 5.58099 0
M  V30 8827 H 808.814 5.1749 6.3415 0
M  V30 8828 N 811.477 -1.49425 0.500989 0
M  V30 8829 C 812.702 -2.07356 -0.0425154 0
M  V30 8830 C 813.127 -1.35887 -1.30063 0
M  V30 8831 O 812.485 -0.41561 -1.76472 0
M  V30 8832 C 812.533 -3.59518 -0.279188 0
M  V30 8833 O 811.637 -3.89542 -1.3539 0
M  V30 8834 H 810.978 -0.663482 0.0262207 0
M  V30 8835 H 813.508 -1.92231 0.700607 0
M  V30 8836 H 813.518 -4.04791 -0.5107 0
M  V30 8837 H 812.193 -4.10946 0.640009 0
M  V30 8838 H 810.77 -3.56079 -1.10734 0
M  V30 8839 N 812.955 -0.234822 -1.55841 0
M  V30 8840 C 814.18 0.400741 -2.03492 0
M  V30 8841 C 814.605 1.51618 -1.11327 0
M  V30 8842 O 813.963 1.81002 -0.103922 0
M  V30 8843 C 814.011 0.897184 -3.49261 0
M  V30 8844 O 813.115 2.00764 -3.60233 0
M  V30 8845 H 812.456 0.0890023 -0.658008 0
M  V30 8846 H 814.986 -0.357345 -2.01455 0
M  V30 8847 H 814.996 1.20356 -3.89844 0
M  V30 8848 H 813.671 0.0808639 -4.15821 0
M  V30 8849 H 812.248 1.70689 -3.31541 0
M  V30 8850 N 814.433 1.57553 0.0384317 0
M  V30 8851 C 815.844 1.77258 0.586211 0
M  V30 8852 C 816.195 0.864706 1.76117 0
M  V30 8853 O 815.32 0.057141 2.16325 0
M  V30 8854 C 815.915 3.21453 1.07021 0
M  V30 8855 C 814.474 3.42387 1.56358 0
M  V30 8856 C 813.621 2.72801 0.497508 0
M  V30 8857 H 816.572 1.57585 -0.187796 0
M  V30 8858 H 816.593 3.27451 1.93794 0
M  V30 8859 H 816.105 3.87505 0.214851 0
M  V30 8860 H 814.206 2.81497 2.44111 0
M  V30 8861 H 814.319 4.50968 1.61754 0
M  V30 8862 H 812.683 2.36305 0.95038 0
M  V30 8863 H 813.466 3.41529 -0.348234 0
M  V30 8864 N 815.911 -0.310526 1.54511 0
M  V30 8865 C 816.861 -1.38405 1.81185 0
M  V30 8866 C 817.845 -1.46355 0.668499 0
M  V30 8867 O 819.037 -1.50668 0.928873 0
M  V30 8868 C 816.166 -2.75059 2.0542 0
M  V30 8869 C 815.252 -2.7137 3.25913 0
M  V30 8870 N 815.643 -2.37298 4.4668 0
M  V30 8871 C 813.941 -3.02484 3.27749 0
M  V30 8872 C 814.642 -2.42669 5.28665 0
M  V30 8873 N 813.618 -2.79639 4.66158 0
M  V30 8874 H 817.42 -1.11012 2.72128 0
M  V30 8875 H 814.934 -0.519068 1.53881 0
M  V30 8876 H 816.931 -3.52451 2.22674 0
M  V30 8877 H 815.591 -3.03372 1.15739 0
M  V30 8878 H 816.602 -2.09917 4.73451 0
M  V30 8879 H 813.279 -3.35754 2.48144 0
M  V30 8880 H 814.669 -2.19206 6.35136 0
M  V30 8881 N 817.389 -1.46805 -0.573248 0
M  V30 8882 C 818.321 -1.54127 -1.6964 0
M  V30 8883 C 819.334 -0.428778 -1.57052 0
M  V30 8884 O 820.523 -0.697612 -1.64303 0
M  V30 8885 C 817.623 -1.41438 -3.07975 0
M  V30 8886 C 816.796 -2.66974 -3.46474 0
M  V30 8887 C 815.855 -2.48349 -4.63906 0
M  V30 8888 O 814.881 -3.22109 -4.69292 0
M  V30 8889 N 816.083 -1.55129 -5.59388 0
M  V30 8890 H 818.848 -2.50971 -1.6381 0
M  V30 8891 H 816.409 -1.42981 -0.759479 0
M  V30 8892 H 818.401 -1.26737 -3.84343 0
M  V30 8893 H 816.971 -0.527388 -3.08119 0
M  V30 8894 H 816.191 -2.9655 -2.59715 0
M  V30 8895 H 817.479 -3.50347 -3.68964 0
M  V30 8896 H 816.877 -0.94324 -5.57781 0
M  V30 8897 H 815.434 -1.46387 -6.35149 0
M  V30 8898 N 818.867 0.818669 -1.34668 0
M  V30 8899 C 820.092 1.61193 -1.30505 0
M  V30 8900 C 820.517 1.87734 0.117341 0
M  V30 8901 O 819.875 1.45591 1.08042 0
M  V30 8902 C 819.923 2.92733 -2.1057 0
M  V30 8903 O 819.027 3.85 -1.47813 0
M  V30 8904 H 818.368 0.490085 -0.44801 0
M  V30 8905 H 820.898 1.01701 -1.77534 0
M  V30 8906 H 820.908 3.42262 -2.22082 0
M  V30 8907 H 819.583 2.7274 -3.13984 0
M  V30 8908 H 818.16 3.43525 -1.45069 0
M  V30 8909 N 820.346 1.18468 1.03938 0
M  V30 8910 C 821.276 0.936389 2.13902 0
M  V30 8911 C 822.257 -0.126381 1.6963 0
M  V30 8912 O 823.442 0.0264757 1.94182 0
M  V30 8913 C 820.572 0.462729 3.44204 0
M  V30 8914 C 819.526 1.46613 4.02105 0
M  V30 8915 C 818.852 0.84994 5.27902 0
M  V30 8916 C 820.152 2.84323 4.3813 0
M  V30 8917 H 821.846 1.85602 2.3493 0
M  V30 8918 H 819.392 0.893806 1.12903 0
M  V30 8919 H 821.345 0.276382 4.20493 0
M  V30 8920 H 820.069 -0.492477 3.22866 0
M  V30 8921 H 818.728 1.63944 3.27899 0
M  V30 8922 H 818.376 -0.112493 5.02874 0
M  V30 8923 H 818.076 1.51988 5.67603 0
M  V30 8924 H 819.6 0.674152 6.06867 0
M  V30 8925 H 821.014 2.70636 5.054 0
M  V30 8926 H 819.411 3.48012 4.88884 0
M  V30 8927 H 820.481 3.37776 3.47901 0
M  V30 8928 N 821.824 -1.22873 0.986916 0
M  V30 8929 C 822.754 -2.2688 0.552064 0
M  V30 8930 C 823.735 -1.64883 -0.418048 0
M  V30 8931 O 824.92 -1.9171 -0.30999 0
M  V30 8932 C 822.05 -3.47018 -0.139959 0
M  V30 8933 C 821.004 -4.21411 0.748091 0
M  V30 8934 C 820.33 -5.34645 -0.0765132 0
M  V30 8935 C 821.63 -4.80726 2.04206 0
M  V30 8936 H 823.324 -2.63507 1.42143 0
M  V30 8937 H 820.87 -1.26668 0.68492 0
M  V30 8938 H 822.823 -4.18931 -0.455527 0
M  V30 8939 H 821.547 -3.0947 -1.04382 0
M  V30 8940 H 820.206 -3.51325 1.04721 0
M  V30 8941 H 819.854 -4.93339 -0.981109 0
M  V30 8942 H 819.554 -5.85342 0.514606 0
M  V30 8943 H 821.078 -6.09377 -0.386313 0
M  V30 8944 H 822.492 -5.44612 1.79083 0
M  V30 8945 H 820.889 -5.41737 2.5815 0
M  V30 8946 H 821.959 -4.01109 2.72469 0
M  V30 8947 N 823.302 -0.75937 -1.38099 0
M  V30 8948 C 824.527 -0.327859 -2.04792 0
M  V30 8949 C 824.952 1.03752 -1.56899 0
M  V30 8950 O 824.31 1.66235 -0.723581 0
M  V30 8951 C 824.358 -0.366264 -3.58735 0
M  V30 8952 O 823.462 0.637697 -4.0744 0
M  V30 8953 H 822.803 -0.144092 -0.648177 0
M  V30 8954 H 825.333 -1.03211 -1.7666 0
M  V30 8955 H 825.343 -0.219179 -4.07411 0
M  V30 8956 H 824.018 -1.36243 -3.92951 0
M  V30 8957 H 822.595 0.454749 -3.70117 0
M  V30 8958 N 824.78 1.49157 -0.508906 0
M  V30 8959 C 826.029 2.0167 0.0346854 0
M  V30 8960 C 826.342 1.39302 1.37311 0
M  V30 8961 O 827.548 1.83189 2.00385 0
M  V30 8962 C 826.004 3.59725 0.112261 0
M  V30 8963 C 825.612 4.31069 -1.21999 0
M  V30 8964 C 827.356 4.20155 0.605798 0
M  V30 8965 C 825.263 5.81001 -1.10415 0
M  V30 8966 H 824.193 0.753814 0.0167355 0
M  V30 8967 H 826.844 1.7162 -0.649518 0
M  V30 8968 H 825.226 3.86525 0.861087 0
M  V30 8969 H 826.4 4.15962 -1.98273 0
M  V30 8970 H 824.715 3.82418 -1.64759 0
M  V30 8971 H 827.312 5.29964 0.710102 0
M  V30 8972 H 827.655 3.84051 1.60656 0
M  V30 8973 H 828.188 3.97705 -0.0867239 0
M  V30 8974 H 824.927 6.21643 -2.07941 0
M  V30 8975 H 824.447 5.9858 -0.382428 0
M  V30 8976 H 826.126 6.42207 -0.786116 0
M  V30 8977 N 826.258 0.243083 1.55714 0
M  V30 8978 C 827.674 -0.111853 1.59208 0
M  V30 8979 C 827.874 -1.5723 1.2602 0
M  V30 8980 O 826.93 -2.31608 1.00569 0
M  V30 8981 C 828.243 0.233885 2.99789 0
M  V30 8982 C 829.791 0.177873 3.12494 0
M  V30 8983 C 830.266 0.49759 4.55289 0
M  V30 8984 N 831.757 0.447949 4.61029 0
M  V30 8985 C 832.492 0.668545 5.69489 0
M  V30 8986 N 831.988 0.952064 6.86227 0
M  V30 8987 N 833.781 0.599512 5.58894 0
M  V30 8988 H 825.932 1.19554 1.75558 0
M  V30 8989 H 828.195 0.480765 0.817049 0
M  V30 8990 H 827.901 1.24835 3.28799 0
M  V30 8991 H 827.775 -0.440846 3.74615 0
M  V30 8992 H 830.162 -0.827263 2.83267 0
M  V30 8993 H 830.243 0.886399 2.39951 0
M  V30 8994 H 829.887 1.50026 4.85237 0
M  V30 8995 H 829.817 -0.232371 5.26087 0
M  V30 8996 H 832.308 0.237388 3.77154 0
M  V30 8997 H 832.621 1.10791 7.64817 0
M  V30 8998 H 830.966 0.989496 6.8792 0
M  V30 8999 H 834.157 0.378088 4.66571 0
M  V30 9000 H 834.33 0.774828 6.43351 0
M  V30 9001 N 827.736 -1.57571 -0.0300757 0
M  V30 9002 C 828.984 -1.88852 -0.719666 0
M  V30 9003 C 829.305 -0.840645 -1.75949 0
M  V30 9004 O 828.575 0.125854 -1.95495 0
M  V30 9005 H 827.155 -0.696965 -0.268792 0
M  V30 9006 H 829.817 -1.949 0.00373285 0
M  V30 9007 H 828.913 -2.87695 -1.20987 0
M  V30 9008 N 829.214 0.302327 -1.54673 0
M  V30 9009 C 830.439 1.06103 -1.78205 0
M  V30 9010 C 830.864 1.80204 -0.53926 0
M  V30 9011 O 830.222 1.73975 0.510142 0
M  V30 9012 C 830.27 2.01829 -2.98827 0
M  V30 9013 O 829.374 3.10108 -2.71858 0
M  V30 9014 H 828.715 0.30487 -0.589873 0
M  V30 9015 H 831.245 0.340153 -2.01753 0
M  V30 9016 H 831.255 2.44319 -3.2676 0
M  V30 9017 H 829.93 1.473 -3.88942 0
M  V30 9018 H 828.507 2.72142 -2.54937 0
M  V30 9019 N 830.692 1.47107 0.565454 0
M  V30 9020 C 831.622 1.61846 1.68309 0
M  V30 9021 C 832.603 0.468159 1.63531 0
M  V30 9022 O 833.788 0.696504 1.8128 0
M  V30 9023 C 830.918 1.62474 3.06952 0
M  V30 9024 C 829.872 2.76649 3.26572 0
M  V30 9025 C 829.198 2.62345 4.65917 0
M  V30 9026 C 830.498 4.18319 3.12741 0
M  V30 9027 H 832.192 2.55407 1.5623 0
M  V30 9028 H 829.738 1.22916 0.750179 0
M  V30 9029 H 831.691 1.71378 3.84977 0
M  V30 9030 H 830.415 0.654692 3.19971 0
M  V30 9031 H 829.074 2.67242 2.50952 0
M  V30 9032 H 828.722 1.63386 4.75725 0
M  V30 9033 H 828.422 3.38936 4.79996 0
M  V30 9034 H 829.946 2.73165 5.46089 0
M  V30 9035 H 831.36 4.28745 3.80593 0
M  V30 9036 H 829.757 4.95632 3.38333 0
M  V30 9037 H 830.827 4.37263 2.09592 0
M  V30 9038 N 832.17 -0.811516 1.35101 0
M  V30 9039 C 833.417 -1.56835 1.28098 0
M  V30 9040 C 833.745 -1.93951 -0.14597 0
M  V30 9041 O 833 -1.61173 -1.11004 0
M  V30 9042 C 833.299 -2.87121 2.1283 0
M  V30 9043 C 832.965 -2.69245 3.61688 0
M  V30 9044 C 831.627 -2.64078 4.02264 0
M  V30 9045 C 833.979 -2.52122 4.56162 0
M  V30 9046 C 831.307 -2.39724 5.3549 0
M  V30 9047 C 833.659 -2.29298 5.89581 0
M  V30 9048 C 832.323 -2.2255 6.29307 0
M  V30 9049 H 831.593 -0.5739 0.468742 0
M  V30 9050 H 834.24 -0.93806 1.66951 0
M  V30 9051 H 832.545 -3.54502 1.66841 0
M  V30 9052 H 834.242 -3.44788 2.0475 0
M  V30 9053 H 830.832 -2.74112 3.29485 0
M  V30 9054 H 835.016 -2.5513 4.25702 0
M  V30 9055 H 830.272 -2.32965 5.65276 0
M  V30 9056 H 834.446 -2.15038 6.62368 0
M  V30 9057 H 832.073 -2.0344 7.32473 0
M  V30 9058 N 833.648 -1.19017 -1.03309 0
M  V30 9059 C 834.873 -1.01598 -1.80811 0
M  V30 9060 C 835.298 0.430773 -1.83101 0
M  V30 9061 O 834.656 1.30946 -1.25391 0
M  V30 9062 C 834.704 -1.5845 -3.23923 0
M  V30 9063 O 833.808 -0.810972 -4.04348 0
M  V30 9064 H 833.149 -0.359398 -0.558327 0
M  V30 9065 H 835.679 -1.57945 -1.30055 0
M  V30 9066 H 835.689 -1.61486 -3.74682 0
M  V30 9067 H 834.364 -2.63752 -3.21571 0
M  V30 9068 H 832.941 -0.85353 -3.63 0
M  V30 9069 N 835.127 1.22348 -0.993418 0
M  V30 9070 C 836.538 1.72893 -0.704616 0
M  V30 9071 C 836.889 1.80095 0.778483 0
M  V30 9072 O 836.014 1.4476 1.60853 0
M  V30 9073 C 836.609 3.14 -1.27237 0
M  V30 9074 C 835.168 3.61949 -1.03294 0
M  V30 9075 C 834.315 2.39816 -1.39225 0
M  V30 9076 H 837.266 1.07688 -1.16572 0
M  V30 9077 H 837.287 3.74886 -0.651212 0
M  V30 9078 H 836.799 3.08727 -2.3518 0
M  V30 9079 H 834.9 3.72588 0.0298329 0
M  V30 9080 H 835.013 4.48051 -1.69668 0
M  V30 9081 H 833.377 2.41448 -0.810849 0
M  V30 9082 H 834.16 2.37203 -2.48172 0
M  V30 9083 N 836.605 0.766683 1.37694 0
M  V30 9084 C 838.021 0.445739 1.53249 0
M  V30 9085 C 838.221 -1.03935 1.72626 0
M  V30 9086 O 837.277 -1.82525 1.74473 0
M  V30 9087 C 838.59 1.2564 2.73194 0
M  V30 9088 C 840.138 1.24779 2.87053 0
M  V30 9089 C 840.613 2.04169 4.09974 0
M  V30 9090 N 842.104 2.01497 4.17077 0
M  V30 9091 C 842.839 2.5971 5.11212 0
M  V30 9092 N 842.335 3.26691 6.10938 0
M  V30 9093 N 844.128 2.49568 5.03659 0
M  V30 9094 H 836.279 1.72899 1.23368 0
M  V30 9095 H 838.542 0.733701 0.600322 0
M  V30 9096 H 838.248 2.30859 2.65324 0
M  V30 9097 H 838.122 0.882133 3.6674 0
M  V30 9098 H 840.509 0.203603 2.94397 0
M  V30 9099 H 840.59 1.66166 1.9448 0
M  V30 9100 H 840.234 3.08606 4.03392 0
M  V30 9101 H 840.164 1.60167 5.01651 0
M  V30 9102 H 842.655 1.52728 3.45662 0
M  V30 9103 H 842.968 3.68497 6.79286 0
M  V30 9104 H 841.313 3.30789 6.11231 0
M  V30 9105 H 844.504 1.96859 4.24693 0
M  V30 9106 H 844.677 2.95231 5.76839 0
M  V30 9107 N 838.083 -1.48885 0.516809 0
M  V30 9108 C 839.499 -1.58651 0.173788 0
M  V30 9109 C 839.699 -1.52033 -1.32243 0
M  V30 9110 O 838.755 -1.40251 -2.09967 0
M  V30 9111 C 840.068 -2.90816 0.764628 0
M  V30 9112 C 841.616 -3.04316 0.732164 0
M  V30 9113 C 842.091 -4.39123 1.30135 0
M  V30 9114 N 843.582 -4.45656 1.26273 0
M  V30 9115 C 844.317 -5.48446 1.67317 0
M  V30 9116 N 843.813 -6.58258 2.16028 0
M  V30 9117 N 845.606 -5.39251 1.58635 0
M  V30 9118 H 837.757 -1.5143 1.48939 0
M  V30 9119 H 840.02 -0.718243 0.618733 0
M  V30 9120 H 839.726 -3.01275 1.81456 0
M  V30 9121 H 839.6 -3.76473 0.234113 0
M  V30 9122 H 841.987 -2.93478 -0.308975 0
M  V30 9123 H 842.068 -2.20303 1.3 0
M  V30 9124 H 841.712 -4.50714 2.34135 0
M  V30 9125 H 841.642 -5.21801 0.709305 0
M  V30 9126 H 844.133 -3.66879 0.906006 0
M  V30 9127 H 844.446 -7.32811 2.45374 0
M  V30 9128 H 842.791 -6.59257 2.20013 0
M  V30 9129 H 845.982 -4.52354 1.20387 0
M  V30 9130 H 846.155 -6.19229 1.90944 0
M  V30 9131 N 839.561 -0.251338 -1.55583 0
M  V30 9132 C 840.509 0.662534 -2.22965 0
M  V30 9133 C 841.503 1.17662 -1.21869 0
M  V30 9134 O 842.709 1.133 -1.39868 0
M  V30 9135 H 839.084 0.232151 -0.715269 0
M  V30 9136 H 841.055 0.0711252 -2.98315 0
M  V30 9137 C 839.804 1.84646 -2.94621 0
M  V30 9138 H 839.127 1.46003 -3.72187 0
M  V30 9139 H 840.567 2.46303 -3.45124 0
M  V30 9140 C 839.026 2.72034 -1.98744 0
M  V30 9141 O 839.556 3.71695 -1.52335 0
M  V30 9142 N 837.762 2.38695 -1.6575 0
M  V30 9143 H 837.309 1.57702 -2.03685 0
M  V30 9144 H 837.267 2.9744 -1.01867 0
M  V30 9145 N 841.039 1.57585 0.0217189 0
M  V30 9146 C 842.264 1.94267 0.726309 0
M  V30 9147 C 842.689 0.851904 1.67703 0
M  V30 9148 O 842.047 -0.191792 1.80283 0
M  V30 9149 C 842.095 3.30023 1.45318 0
M  V30 9150 O 841.199 3.22791 2.5667 0
M  V30 9151 H 840.54 0.634777 0.194818 0
M  V30 9152 H 843.07 2.04585 -0.0249985 0
M  V30 9153 H 843.08 3.65084 1.82147 0
M  V30 9154 H 841.755 4.08972 0.755962 0
M  V30 9155 H 840.332 2.99373 2.2233 0
M  V30 9156 N 842.517 -0.29412 1.54831 0
M  V30 9157 C 843.933 -0.640167 1.46199 0
M  V30 9158 C 844.133 -1.90426 0.658798 0
M  V30 9159 O 843.189 -2.51932 0.169228 0
M  V30 9160 C 844.502 -0.786763 2.90225 0
M  V30 9161 C 846.05 -0.882201 3.0031 0
M  V30 9162 C 846.525 -1.06074 4.45547 0
M  V30 9163 N 848.016 -1.12678 4.49286 0
M  V30 9164 C 848.751 -1.28334 5.58854 0
M  V30 9165 N 848.247 -1.40845 6.78332 0
M  V30 9166 N 850.04 -1.31277 5.46555 0
M  V30 9167 H 842.191 0.536334 2.05517 0
M  V30 9168 H 844.454 0.178363 0.93107 0
M  V30 9169 H 844.16 0.0713018 3.51628 0
M  V30 9170 H 844.034 -1.67364 3.38037 0
M  V30 9171 H 846.421 -1.73075 2.39017 0
M  V30 9172 H 846.502 0.0288405 2.55784 0
M  V30 9173 H 846.146 -0.216935 5.07437 0
M  V30 9174 H 846.076 -1.98611 4.8771 0
M  V30 9175 H 848.567 -1.04335 3.63212 0
M  V30 9176 H 848.88 -1.52566 7.57591 0
M  V30 9177 H 847.225 -1.37888 6.81184 0
M  V30 9178 H 850.416 -1.2112 4.52159 0
M  V30 9179 H 850.589 -1.43136 6.31994 0
M  V30 9180 N 843.995 -1.47404 -0.557645 0
M  V30 9181 C 845.223 -1.57622 -1.34026 0
M  V30 9182 C 845.638 -0.226256 -1.87439 0
M  V30 9183 O 844.995 0.78043 -1.64971 0
M  V30 9184 C 845.046 -2.60111 -2.51047 0
M  V30 9185 O 844.767 -3.89866 -1.99841 0
M  V30 9186 C 846.268 -2.80508 -3.43264 0
M  V30 9187 H 843.488 -0.532271 -0.40857 0
M  V30 9188 H 846.032 -1.93019 -0.675555 0
M  V30 9189 H 844.187 -2.27648 -3.13457 0
M  V30 9190 H 844.601 -4.45864 -2.76234 0
M  V30 9191 H 846.075 -3.56084 -4.21792 0
M  V30 9192 H 846.552 -1.88314 -3.9678 0
M  V30 9193 H 847.158 -3.14166 -2.86671 0
M  V30 9194 N 845.473 0.80434 -1.35529 0
M  V30 9195 C 846.698 1.598 -1.32207 0
M  V30 9196 C 847.123 1.87848 0.0974226 0
M  V30 9197 O 846.481 1.46728 1.06492 0
M  V30 9198 C 846.529 2.90483 -2.13663 0
M  V30 9199 O 845.633 3.83411 -1.51888 0
M  V30 9200 H 844.974 0.485305 -0.453183 0
M  V30 9201 H 847.504 0.998119 -1.78602 0
M  V30 9202 H 847.514 3.39888 -2.257 0
M  V30 9203 H 846.189 2.69395 -3.16859 0
M  V30 9204 H 844.766 3.41967 -1.48704 0
M  V30 9205 N 846.951 1.19563 1.02676 0
M  V30 9206 C 847.881 0.959024 2.12897 0
M  V30 9207 C 848.862 -0.108382 1.69754 0
M  V30 9208 O 850.047 0.0470698 1.94143 0
M  V30 9209 C 847.177 0.499211 3.43693 0
M  V30 9210 C 846.131 1.5087 4.00528 0
M  V30 9211 C 845.457 0.905884 5.2697 0
M  V30 9212 C 846.757 2.88954 4.3509 0
M  V30 9213 H 848.451 1.88084 2.32948 0
M  V30 9214 H 845.997 0.905731 1.11949 0
M  V30 9215 H 847.95 0.320965 4.20176 0
M  V30 9216 H 846.674 -0.458205 3.2337 0
M  V30 9217 H 845.333 1.67413 3.26142 0
M  V30 9218 H 844.981 -0.0591506 5.02965 0
M  V30 9219 H 844.681 1.58 5.65959 0
M  V30 9220 H 846.205 0.73848 6.06118 0
M  V30 9221 H 847.619 2.75981 5.02501 0
M  V30 9222 H 846.016 3.53177 4.85166 0
M  V30 9223 H 847.086 3.41447 3.44299 0
M  V30 9224 N 848.429 -1.21819 0.999893 0
M  V30 9225 C 849.676 -1.90752 0.679694 0
M  V30 9226 C 850.004 -1.77777 -0.789014 0
M  V30 9227 O 849.259 -1.14518 -1.58695 0
M  V30 9228 C 849.558 -3.4193 1.04012 0
M  V30 9229 C 849.224 -3.75098 2.50225 0
M  V30 9230 C 847.886 -3.83861 2.90179 0
M  V30 9231 C 850.238 -3.90706 3.44961 0
M  V30 9232 C 847.566 -4.05676 4.23844 0
M  V30 9233 C 849.918 -4.14027 4.78294 0
M  V30 9234 C 848.582 -4.21016 5.17979 0
M  V30 9235 H 847.852 -0.698012 0.248718 0
M  V30 9236 H 850.499 -1.44437 1.25738 0
M  V30 9237 H 848.804 -3.89947 0.380606 0
M  V30 9238 H 850.501 -3.93532 0.770301 0
M  V30 9239 H 847.091 -3.68865 2.18258 0
M  V30 9240 H 851.275 -3.83307 3.15261 0
M  V30 9241 H 846.531 -4.09316 4.5417 0
M  V30 9242 H 850.705 -4.25046 5.51642 0
M  V30 9243 H 848.332 -4.37672 6.21568 0
M  V30 9244 N 849.908 -0.773975 -1.37286 0
M  V30 9245 C 851.133 -0.349561 -2.04433 0
M  V30 9246 C 851.558 1.02082 -1.5799 0
M  V30 9247 O 850.916 1.65458 -0.741172 0
M  V30 9248 C 850.964 -0.404292 -3.58326 0
M  V30 9249 O 850.068 0.594447 -4.08093 0
M  V30 9250 H 849.409 -0.150959 -0.646612 0
M  V30 9251 H 851.939 -1.05079 -1.75555 0
M  V30 9252 H 851.949 -0.262378 -4.07155 0
M  V30 9253 H 850.624 -1.40403 -3.91484 0
M  V30 9254 H 849.201 0.415468 -3.70578 0
M  V30 9255 N 851.386 1.48609 -0.524698 0
M  V30 9256 C 852.633 2.02497 0.0113214 0
M  V30 9257 C 852.961 1.40229 1.34781 0
M  V30 9258 O 852.216 0.53557 1.88229 0
M  V30 9259 C 852.515 3.56906 0.187873 0
M  V30 9260 C 852.181 4.37932 -1.07359 0
M  V30 9261 C 850.843 4.59792 -1.41933 0
M  V30 9262 C 853.195 4.84902 -1.911 0
M  V30 9263 C 850.523 5.25868 -2.60154 0
M  V30 9264 C 852.875 5.52281 -3.08495 0
M  V30 9265 C 851.539 5.7238 -3.4342 0
M  V30 9266 H 850.809 0.740988 0.0041428 0
M  V30 9267 H 853.456 1.78651 -0.689652 0
M  V30 9268 H 851.761 3.79563 0.971572 0
M  V30 9269 H 853.458 3.96218 0.617443 0
M  V30 9270 H 850.048 4.21175 -0.794331 0
M  V30 9271 H 854.232 4.67821 -1.65701 0
M  V30 9272 H 849.488 5.39628 -2.87422 0
M  V30 9273 H 853.662 5.87645 -3.73692 0
M  V30 9274 H 851.289 6.23354 -4.35126 0
M  V30 9275 N 852.864 0.259585 1.55447 0
M  V30 9276 C 854.28 -0.094961 1.59317 0
M  V30 9277 C 854.48 -1.55884 1.2768 0
M  V30 9278 O 853.536 -2.30528 1.0302 0
M  V30 9279 C 854.849 0.265669 2.99524 0
M  V30 9280 C 856.397 0.211007 3.12288 0
M  V30 9281 C 856.872 0.545851 4.54736 0
M  V30 9282 N 858.363 0.496823 4.60528 0
M  V30 9283 C 859.098 0.728909 5.68748 0
M  V30 9284 N 858.594 1.02479 6.85179 0
M  V30 9285 N 860.387 0.658756 5.58226 0
M  V30 9286 H 852.538 1.2141 1.7428 0
M  V30 9287 H 854.801 0.489404 0.811904 0
M  V30 9288 H 854.507 1.28316 3.27457 0
M  V30 9289 H 854.381 -0.401089 3.75061 0
M  V30 9290 H 856.768 -0.797172 2.84129 0
M  V30 9291 H 856.849 0.911799 2.38998 0
M  V30 9292 H 856.493 1.55164 4.83618 0
M  V30 9293 H 856.423 -0.17656 5.26304 0
M  V30 9294 H 858.914 0.277376 3.76881 0
M  V30 9295 H 859.227 1.18897 7.63599 0
M  V30 9296 H 857.572 1.0624 6.86832 0
M  V30 9297 H 860.763 0.427553 4.66143 0
M  V30 9298 H 860.936 0.84302 6.42493 0
M  V30 9299 N 854.342 -1.57594 -0.0133615 0
M  V30 9300 C 855.59 -1.89605 -0.699596 0
M  V30 9301 C 855.911 -0.85926 -1.75048 0
M  V30 9302 O 855.181 0.105112 -1.95618 0
M  V30 9303 H 853.761 -0.699776 -0.261385 0
M  V30 9304 H 856.423 -1.94885 0.0244044 0
M  V30 9305 H 855.519 -2.88962 -1.17928 0
M  V30 9306 N 855.82 0.285905 -1.54985 0
M  V30 9307 C 857.236 0.632405 -1.46536 0
M  V30 9308 C 857.436 1.90074 -0.668888 0
M  V30 9309 O 856.492 2.51839 -0.182586 0
M  V30 9310 C 857.805 0.771361 -2.90638 0
M  V30 9311 C 859.353 0.866262 -3.00774 0
M  V30 9312 C 859.828 1.0371 -4.46103 0
M  V30 9313 N 861.319 1.10294 -4.49877 0
M  V30 9314 C 862.054 1.25369 -5.59527 0
M  V30 9315 N 861.55 1.37246 -6.7907 0
M  V30 9316 N 863.343 1.28377 -5.47244 0
M  V30 9317 H 855.494 -0.547226 -2.0523 0
M  V30 9318 H 857.757 -0.183298 -0.930111 0
M  V30 9319 H 857.463 -0.0899485 -3.51585 0
M  V30 9320 H 857.337 1.65569 -3.3892 0
M  V30 9321 H 859.724 1.71805 -2.39931 0
M  V30 9322 H 859.805 -0.0424049 -2.55765 0
M  V30 9323 H 859.449 0.190021 -5.07544 0
M  V30 9324 H 859.379 1.96022 -4.88757 0
M  V30 9325 H 861.87 1.02407 -3.6376 0
M  V30 9326 H 862.183 1.48546 -7.58389 0
M  V30 9327 H 860.528 1.34274 -6.81906 0
M  V30 9328 H 863.719 1.1872 -4.52795 0
M  V30 9329 H 863.892 1.39782 -6.32744 0
M  V30 9330 N 857.298 1.47698 0.54982 0
M  V30 9331 C 858.261 1.60282 1.63837 0
M  V30 9332 C 859.261 0.477394 1.5355 0
M  V30 9333 O 860.451 0.742665 1.57576 0
M  V30 9334 C 857.583 1.55431 3.03404 0
M  V30 9335 H 858.776 2.57325 1.54026 0
M  V30 9336 H 856.329 1.35999 0.770329 0
M  V30 9337 H 857.064 0.597912 3.1874 0
M  V30 9338 H 856.849 2.37116 3.12279 0
M  V30 9339 H 858.339 1.6739 3.82584 0
M  V30 9340 N 858.776 -0.797141 1.35954 0
M  V30 9341 C 859.723 -1.90944 1.2965 0
M  V30 9342 C 860.693 -1.65262 0.166628 0
M  V30 9343 O 861.878 -1.87527 0.351883 0
M  V30 9344 C 859.018 -3.27637 1.08389 0
M  V30 9345 C 858.131 -3.65442 2.30382 0
M  V30 9346 C 857.266 -4.91213 2.02195 0
M  V30 9347 C 856.305 -5.21674 3.20191 0
M  V30 9348 N 855.442 -6.38627 2.91719 0
M  V30 9349 H 860.282 -1.95668 2.24762 0
M  V30 9350 H 857.819 -0.95696 1.11717 0
M  V30 9351 H 859.777 -4.06451 0.940912 0
M  V30 9352 H 858.407 -3.22355 0.169351 0
M  V30 9353 H 857.459 -2.81813 2.55511 0
M  V30 9354 H 858.771 -3.83907 3.18461 0
M  V30 9355 H 857.925 -5.77876 1.84783 0
M  V30 9356 H 856.664 -4.74803 1.11416 0
M  V30 9357 H 855.669 -4.33498 3.38171 0
M  V30 9358 H 856.894 -5.40009 4.11786 0
M  V30 9359 H 854.84 -6.23623 2.03543 0
M  V30 9360 H 854.757 -6.57387 3.73334 0
M  V30 9361 H 856.025 -7.28292 2.77868 0
M  V30 9362 N 860.254 -1.20106 -1.0204 0
M  V30 9363 C 861.531 -0.918029 -1.72718 0
M  V30 9364 C 861.911 0.574163 -2.03142 0
M  V30 9365 O 861.259 1.53476 -1.69285 0
M  V30 9366 C 861.469 -1.78698 -2.9978 0
M  V30 9367 C 862.817 -2.02648 -3.7312 0
M  V30 9368 O 863.841 -1.75919 -3.09727 0
M  V30 9369 O 862.7 -2.47767 -4.87107 0
M  V30 9370 H 859.794 -0.342904 -0.752559 0
M  V30 9371 H 862.34 -1.30961 -1.07923 0
M  V30 9372 H 861.112 -2.79757 -2.7359 0
M  V30 9373 H 860.735 -1.39522 -3.72316 0
M  V30 9374 N 861.732 1.21287 -1.00634 0
M  V30 9375 C 862.978 1.90671 -0.690822 0
M  V30 9376 C 863.311 1.77996 0.776592 0
M  V30 9377 O 862.586 1.15748 1.5631 0
M  V30 9378 C 862.869 3.42426 -1.11428 0
M  V30 9379 C 862.722 3.64086 -2.64124 0
M  V30 9380 C 864.041 4.34851 -0.677686 0
M  V30 9381 H 861.16 0.692419 -0.252439 0
M  V30 9382 H 863.802 1.42893 -1.25226 0
M  V30 9383 H 861.952 3.83249 -0.636586 0
M  V30 9384 H 863.624 3.32582 -3.19667 0
M  V30 9385 H 861.867 3.07906 -3.05576 0
M  V30 9386 H 862.538 4.7042 -2.88806 0
M  V30 9387 H 865.014 4.01619 -1.0882 0
M  V30 9388 H 863.89 5.39675 -1.00213 0
M  V30 9389 H 864.151 4.4009 0.421125 0
M  V30 9390 N 863.21 0.781244 1.36873 0
M  V30 9391 C 864.458 0.349198 1.9906 0
M  V30 9392 C 864.779 -1.0806 1.62321 0
M  V30 9393 O 864.049 -1.74351 0.893229 0
M  V30 9394 H 862.629 0.126126 0.736275 0
M  V30 9395 H 865.291 1.00148 1.67202 0
M  V30 9396 H 864.387 0.434451 3.09061 0
M  V30 9397 N 864.689 -1.48329 0.532571 0
M  V30 9398 C 865.914 -2.074 0.00147755 0
M  V30 9399 C 866.339 -1.38615 -1.27151 0
M  V30 9400 O 865.697 -0.452949 -1.75551 0
M  V30 9401 C 865.745 -3.60029 -0.202866 0
M  V30 9402 O 864.849 -3.92327 -1.27097 0
M  V30 9403 H 864.19 -0.662777 0.0402883 0
M  V30 9404 H 866.72 -1.90701 0.741224 0
M  V30 9405 H 866.73 -4.05783 -0.424722 0
M  V30 9406 H 865.405 -4.09496 0.727033 0
M  V30 9407 H 863.982 -3.58348 -1.03156 0
M  V30 9408 N 866.167 -0.267825 -1.55308 0
M  V30 9409 C 867.077 0.633055 -2.25897 0
M  V30 9410 C 868.093 1.17613 -1.28231 0
M  V30 9411 O 869.269 1.20797 -1.61153 0
M  V30 9412 C 866.334 1.80397 -2.96071 0
M  V30 9413 C 865.395 1.29829 -4.09198 0
M  V30 9414 C 864.628 2.4134 -4.76016 0
M  V30 9415 O 864.851 3.60537 -4.42006 0
M  V30 9416 O 863.785 2.09909 -5.64111 0
M  V30 9417 H 867.611 0.0614381 -3.03638 0
M  V30 9418 H 865.196 -0.0355072 -1.49358 0
M  V30 9419 H 867.078 2.48685 -3.40197 0
M  V30 9420 H 865.753 2.36281 -2.21253 0
M  V30 9421 H 864.66 0.582086 -3.69544 0
M  V30 9422 H 865.993 0.785288 -4.85895 0
M  V30 9423 N 867.645 1.57599 0.00500368 0
M  V30 9424 C 868.593 2.09223 1.01628 0
M  V30 9425 C 869.587 1.01113 1.35913 0
M  V30 9426 O 870.793 1.19583 1.34536 0
M  V30 9427 H 867.168 0.667999 0.345372 0
M  V30 9428 H 869.139 2.93188 0.555274 0
M  V30 9429 C 867.888 2.60674 2.30097 0
M  V30 9430 H 867.211 3.43491 2.04582 0
M  V30 9431 H 868.651 3.00479 2.99146 0
M  V30 9432 C 867.11 1.51862 3.00731 0
M  V30 9433 O 867.64 0.898651 3.91519 0
M  V30 9434 N 865.846 1.24729 2.62471 0
M  V30 9435 H 865.393 1.7533 1.88725 0
M  V30 9436 H 865.351 0.521437 3.10046 0
M  V30 9437 N 869.123 -0.277682 1.55134 0
M  V30 9438 C 870.4 -1.0309 1.66228 0
M  V30 9439 C 870.78 -2.0445 0.525701 0
M  V30 9440 O 870.128 -2.23512 -0.474816 0
M  V30 9441 C 870.338 -1.6919 3.05247 0
M  V30 9442 C 871.686 -2.20526 3.62841 0
M  V30 9443 O 872.71 -1.79185 3.07849 0
M  V30 9444 O 871.569 -2.96342 4.59177 0
M  V30 9445 H 868.663 -0.4779 0.674937 0
M  V30 9446 H 871.209 -0.273912 1.67475 0
M  V30 9447 H 869.981 -0.957163 3.79413 0
M  V30 9448 H 869.604 -2.51587 3.07879 0
M  V30 9449 N 870.601 -1.47988 -0.541979 0
M  V30 9450 C 871.848 -1.55393 -1.29843 0
M  V30 9451 C 872.176 -0.222668 -1.93221 0
M  V30 9452 O 871.431 0.785936 -1.79225 0
M  V30 9453 C 871.73 -2.63189 -2.41798 0
M  V30 9454 C 871.396 -4.05999 -1.96151 0
M  V30 9455 C 870.058 -4.44872 -1.83419 0
M  V30 9456 C 872.41 -4.95545 -1.61507 0
M  V30 9457 C 869.738 -5.71108 -1.34361 0
M  V30 9458 C 872.09 -6.22259 -1.13915 0
M  V30 9459 C 870.754 -6.59998 -0.997911 0
M  V30 9460 H 870.024 -0.568623 -0.47513 0
M  V30 9461 H 872.671 -1.81654 -0.606142 0
M  V30 9462 H 870.976 -2.30743 -3.16647 0
M  V30 9463 H 872.673 -2.66138 -2.99953 0
M  V30 9464 H 869.263 -3.75294 -2.07008 0
M  V30 9465 H 873.447 -4.662 -1.70209 0
M  V30 9466 H 868.703 -5.99083 -1.22103 0
M  V30 9467 H 872.877 -6.91048 -0.861755 0
M  V30 9468 H 870.504 -7.57704 -0.615561 0
M  V30 9469 N 872.079 0.78992 -1.36375 0
M  V30 9470 C 873.042 1.88414 -1.30509 0
M  V30 9471 C 874.042 1.59384 -0.2129 0
M  V30 9472 O 875.232 1.67805 -0.467651 0
M  V30 9473 C 872.364 3.25188 -1.02302 0
M  V30 9474 H 873.557 1.95031 -2.27822 0
M  V30 9475 H 871.11 0.987664 -1.2114 0
M  V30 9476 H 871.845 3.24254 -0.0544486 0
M  V30 9477 H 871.63 3.47647 -1.81338 0
M  V30 9478 H 873.12 4.05252 -1.00801 0
M  V30 9479 N 873.557 1.20646 1.01402 0
M  V30 9480 C 874.834 0.927176 1.72229 0
M  V30 9481 C 875.214 -0.563382 2.03443 0
M  V30 9482 O 874.562 -1.52576 1.70096 0
M  V30 9483 C 874.772 1.80285 2.98828 0
M  V30 9484 C 876.12 2.04624 3.72041 0
M  V30 9485 O 877.144 1.77559 3.0879 0
M  V30 9486 O 876.003 2.50347 4.85787 0
M  V30 9487 H 873.097 0.346891 0.75073 0
M  V30 9488 H 875.643 1.31532 1.07227 0
M  V30 9489 H 874.415 2.81204 2.72102 0
M  V30 9490 H 874.038 1.41495 3.71571 0
M  V30 9491 N 875.035 -1.20752 1.01276 0
M  V30 9492 C 876.312 -1.85676 0.615112 0
M  V30 9493 C 876.692 -1.90623 -0.906976 0
M  V30 9494 O 876.04 -1.41124 -1.79712 0
M  V30 9495 C 876.25 -3.2552 1.25847 0
M  V30 9496 C 877.598 -4.0184 1.37148 0
M  V30 9497 O 878.622 -3.3486 1.21438 0
M  V30 9498 O 877.481 -5.21783 1.62495 0
M  V30 9499 H 874.575 -0.799437 0.211729 0
M  V30 9500 H 877.121 -1.28372 1.10989 0
M  V30 9501 H 875.893 -3.16664 2.29869 0
M  V30 9502 H 875.516 -3.90452 0.750524 0
M  V30 9503 N 876.513 -0.788492 -1.36457 0
M  V30 9504 C 877.423 -0.187385 -2.3385 0
M  V30 9505 C 878.439 0.659984 -1.60998 0
M  V30 9506 O 879.615 0.575986 -1.92988 0
M  V30 9507 C 876.68 0.668525 -3.40194 0
M  V30 9508 C 875.741 -0.197234 -4.28847 0
M  V30 9509 C 874.974 0.61792 -5.30111 0
M  V30 9510 O 875.197 1.85396 -5.3943 0
M  V30 9511 O 874.131 0.0183016 -6.01897 0
M  V30 9512 H 877.957 -0.992617 -2.87021 0
M  V30 9513 H 875.542 -0.549934 -1.3891 0
M  V30 9514 H 877.424 1.15663 -4.05216 0
M  V30 9515 H 876.099 1.45166 -2.89324 0
M  V30 9516 H 875.006 -0.73207 -3.66867 0
M  V30 9517 H 876.339 -0.943863 -4.83065 0
M  V30 9518 N 877.991 1.48044 -0.54043 0
M  V30 9519 C 878.941 2.26768 0.236657 0
M  V30 9520 C 879.925 1.33341 0.900505 0
M  V30 9521 O 881.117 1.57809 0.801584 0
M  V30 9522 C 878.246 3.18685 1.27651 0
M  V30 9523 C 877.332 4.19589 0.616923 0
M  V30 9524 N 877.723 5.04889 -0.303377 0
M  V30 9525 C 876.021 4.37375 0.872879 0
M  V30 9526 C 876.722 5.77654 -0.684905 0
M  V30 9527 N 875.698 5.43583 -0.0435728 0
M  V30 9528 H 879.5 2.90098 -0.471183 0
M  V30 9529 H 877.014 1.58378 -0.359183 0
M  V30 9530 H 879.011 3.73752 1.84702 0
M  V30 9531 H 877.671 2.56911 1.98562 0
M  V30 9532 H 878.682 5.13461 -0.676591 0
M  V30 9533 H 875.359 3.86784 1.57177 0
M  V30 9534 H 876.749 6.56285 -1.44015 0
M  V30 9535 N 879.47 0.276058 1.55163 0
M  V30 9536 C 880.695 -0.346648 2.04483 0
M  V30 9537 C 881.12 -1.48613 1.15308 0
M  V30 9538 O 880.478 -1.80663 0.151875 0
M  V30 9539 C 880.526 -0.804268 3.51517 0
M  V30 9540 O 879.63 -1.91143 3.65429 0
M  V30 9541 H 878.971 -0.0715251 0.660136 0
M  V30 9542 H 881.501 0.410631 2.00437 0
M  V30 9543 H 881.511 -1.09977 3.92898 0
M  V30 9544 H 880.186 0.0294123 4.1589 0
M  V30 9545 H 878.763 -1.61839 3.3595 0
M  V30 9546 N 880.948 -1.576 0.00335426 0
M  V30 9547 C 882.176 -1.94996 -0.691685 0
M  V30 9548 C 882.591 -0.878405 -1.67121 0
M  V30 9549 O 881.948 0.142343 -1.81944 0
M  V30 9550 C 881.999 -3.32416 -1.42063 0
M  V30 9551 O 881.72 -4.35458 -0.48038 0
M  V30 9552 C 883.221 -3.84291 -2.20987 0
M  V30 9553 H 880.441 -0.642814 -0.192434 0
M  V30 9554 H 882.985 -2.04425 0.0554706 0
M  V30 9555 H 881.14 -3.24285 -2.11939 0
M  V30 9556 H 881.554 -5.14975 -0.995054 0
M  V30 9557 H 883.028 -4.82863 -2.67483 0
M  V30 9558 H 883.505 -3.17174 -3.03805 0
M  V30 9559 H 884.111 -3.95609 -1.56121 0
M  V30 9560 N 882.426 0.269451 -1.5528 0
M  V30 9561 C 883.673 1.00058 -1.76053 0
M  V30 9562 C 884.001 1.86156 -0.563592 0
M  V30 9563 O 883.256 1.90366 0.453806 0
M  V30 9564 C 883.555 1.91 -3.02082 0
M  V30 9565 C 883.221 1.20623 -4.34466 0
M  V30 9566 C 881.883 1.01165 -4.70446 0
M  V30 9567 C 884.235 0.705695 -5.164 0
M  V30 9568 C 881.563 0.303865 -5.85913 0
M  V30 9569 C 883.915 0.0114838 -6.32599 0
M  V30 9570 C 882.579 -0.19478 -6.67216 0
M  V30 9571 H 881.849 0.366138 -0.644223 0
M  V30 9572 H 884.496 0.272563 -1.8955 0
M  V30 9573 H 882.801 2.70435 -2.835 0
M  V30 9574 H 884.498 2.47698 -3.15352 0
M  V30 9575 H 881.088 1.36781 -4.06188 0
M  V30 9576 H 885.272 0.84364 -4.89077 0
M  V30 9577 H 880.528 0.133368 -6.11255 0
M  V30 9578 H 884.702 -0.384111 -6.9534 0
M  V30 9579 H 882.329 -0.745201 -7.56539 0
M  V30 9580 N 883.904 1.48273 0.534124 0
M  V30 9581 C 884.814 1.65162 1.66609 0
M  V30 9582 C 885.83 0.534177 1.65598 0
M  V30 9583 O 887.006 0.804715 1.84625 0
M  V30 9584 C 884.071 1.68354 3.03081 0
M  V30 9585 C 883.132 2.91696 3.1498 0
M  V30 9586 C 882.365 2.94725 4.44941 0
M  V30 9587 O 882.588 2.06285 5.31792 0
M  V30 9588 O 881.522 3.8685 4.61119 0
M  V30 9589 H 885.348 2.60991 1.55298 0
M  V30 9590 H 882.933 1.31626 0.706749 0
M  V30 9591 H 884.815 1.72998 3.84252 0
M  V30 9592 H 883.49 0.756978 3.14725 0
M  V30 9593 H 882.397 2.92586 2.33119 0
M  V30 9594 H 883.73 3.83722 3.0825 0
M  V30 9595 N 885.382 -0.782676 1.36792 0
M  V30 9596 C 886.659 -1.52939 1.21939 0
M  V30 9597 C 887.039 -2.10228 -0.191639 0
M  V30 9598 O 886.387 -1.94574 -1.19805 0
M  V30 9599 C 886.597 -2.61898 2.30674 0
M  V30 9600 C 887.945 -3.29598 2.67676 0
M  V30 9601 O 888.969 -2.72186 2.29768 0
M  V30 9602 O 887.828 -4.3337 3.32946 0
M  V30 9603 H 884.922 -0.676856 0.47518 0
M  V30 9604 H 887.468 -0.82058 1.48542 0
M  V30 9605 H 886.24 -2.17607 3.25212 0
M  V30 9606 H 885.863 -3.40391 2.05475 0
M  V30 9607 N 886.86 -1.21182 -1.00761 0
M  V30 9608 C 887.808 -0.965728 -2.11604 0
M  V30 9609 C 888.802 0.0861028 -1.69181 0
M  V30 9610 O 890.008 -0.0650558 -1.79882 0
M  V30 9611 H 886.383 -0.295023 -0.691712 0
M  V30 9612 H 888.354 -1.90667 -2.2954 0
M  V30 9613 C 887.103 -0.544164 -3.43415 0
M  V30 9614 H 886.426 -1.34515 -3.76491 0
M  V30 9615 H 887.866 -0.411268 -4.22001 0
M  V30 9616 C 886.325 0.744583 -3.28569 0
M  V30 9617 O 886.855 1.80078 -3.59075 0
M  V30 9618 N 885.061 0.710083 -2.81791 0
M  V30 9619 H 884.608 -0.14971 -2.57165 0
M  V30 9620 H 884.566 1.57268 -2.72239 0
M  V30 9621 N 888.338 1.20213 -1.01915 0
M  V30 9622 C 889.248 2.26763 -0.601311 0
M  V30 9623 C 890.264 1.70185 0.362369 0
M  V30 9624 O 891.44 2.00165 0.222682 0
M  V30 9625 C 888.505 3.46662 0.0512879 0
M  V30 9626 C 887.566 4.18459 -0.958659 0
M  V30 9627 C 886.799 5.32634 -0.337107 0
M  V30 9628 O 887.022 5.63841 0.86251 0
M  V30 9629 O 885.956 5.9258 -1.05511 0
M  V30 9630 H 889.782 2.64725 -1.48844 0
M  V30 9631 H 887.367 1.2688 -0.788784 0
M  V30 9632 H 889.249 4.19345 0.41564 0
M  V30 9633 H 887.924 3.1057 0.912572 0
M  V30 9634 H 886.831 3.47937 -1.37442 0
M  V30 9635 H 888.164 4.58498 -1.78999 0
M  V30 9636 N 889.816 0.795718 1.36037 0
M  V30 9637 C 891.041 0.38204 2.03851 0
M  V30 9638 C 891.466 -0.995553 1.59594 0
M  V30 9639 O 890.824 -1.64258 0.767401 0
M  V30 9640 C 890.872 0.461248 3.57638 0
M  V30 9641 O 889.976 -0.529448 4.08987 0
M  V30 9642 H 889.317 0.161227 0.644129 0
M  V30 9643 H 891.847 1.07858 1.73861 0
M  V30 9644 H 891.857 0.32712 4.06687 0
M  V30 9645 H 890.532 1.46613 3.89201 0
M  V30 9646 H 889.109 -0.35646 3.71192 0
M  V30 9647 N 891.294 -1.47756 0.548274 0
M  V30 9648 C 892.71 -1.58247 0.207401 0
M  V30 9649 C 892.91 -1.54804 -1.28988 0
M  V30 9650 O 891.966 -1.44673 -2.06944 0
M  V30 9651 C 893.279 -2.89129 0.826142 0
M  V30 9652 C 894.827 -3.02695 0.79655 0
M  V30 9653 C 895.302 -4.36264 1.3942 0
M  V30 9654 N 896.793 -4.42877 1.35698 0
M  V30 9655 C 897.528 -5.44773 1.78913 0
M  V30 9656 N 897.024 -6.53528 2.29942 0
M  V30 9657 N 898.817 -5.35765 1.70038 0
M  V30 9658 H 890.968 -1.48236 1.52117 0
M  V30 9659 H 893.231 -0.704957 0.633829 0
M  V30 9660 H 892.937 -2.97358 1.87806 0
M  V30 9661 H 892.811 -3.75891 0.313916 0
M  V30 9662 H 895.198 -2.94067 -0.246655 0
M  V30 9663 H 895.279 -2.17496 1.34644 0
M  V30 9664 H 894.923 -4.45646 2.43642 0
M  V30 9665 H 894.853 -5.20179 0.819827 0
M  V30 9666 H 897.344 -3.64874 0.983623 0
M  V30 9667 H 897.657 -7.27441 2.60863 0
M  V30 9668 H 896.002 -6.54442 2.33947 0
M  V30 9669 H 899.193 -4.49699 1.29955 0
M  V30 9670 H 899.366 -6.1504 2.04035 0
M  V30 9671 N 892.772 -0.284283 -1.55015 0
M  V30 9672 C 894.188 0.069603 -1.59448 0
M  V30 9673 C 894.388 1.53833 -1.30144 0
M  V30 9674 O 893.444 2.2886 -1.06674 0
M  V30 9675 C 894.757 -0.313287 -2.99064 0
M  V30 9676 C 896.305 -0.260662 -3.11913 0
M  V30 9677 C 896.78 -0.618127 -4.5381 0
M  V30 9678 N 898.271 -0.570026 -4.59679 0
M  V30 9679 C 899.006 -0.8193 -5.67517 0
M  V30 9680 N 898.502 -1.13367 -6.83462 0
M  V30 9681 N 900.295 -0.747482 -5.57108 0
M  V30 9682 H 892.446 -1.24167 -1.72326 0
M  V30 9683 H 894.709 -0.502259 -0.804015 0
M  V30 9684 H 894.415 -1.33509 -3.25374 0
M  V30 9685 H 894.289 0.341369 -3.75652 0
M  V30 9686 H 896.676 0.751869 -2.85361 0
M  V30 9687 H 896.757 -0.949706 -2.37517 0
M  V30 9688 H 896.401 -1.62839 -4.81088 0
M  V30 9689 H 896.331 0.092807 -5.26518 0
M  V30 9690 H 898.822 -0.3373 -3.76392 0
M  V30 9691 H 899.135 -1.3103 -7.61611 0
M  V30 9692 H 897.48 -1.17154 -6.85055 0
M  V30 9693 H 900.671 -0.501658 -4.65404 0
M  V30 9694 H 900.844 -0.945128 -6.4107 0
M  V30 9695 N 894.251 1.57596 -0.0117121 0
M  V30 9696 C 895.528 1.82323 0.708356 0
M  V30 9697 C 895.908 0.891947 1.91331 0
M  V30 9698 O 895.256 -0.0565984 2.2843 0
M  V30 9699 C 895.466 3.31111 1.10303 0
M  V30 9700 C 896.814 3.97147 1.50199 0
M  V30 9701 O 897.838 3.35503 1.1965 0
M  V30 9702 O 896.697 5.0576 2.07049 0
M  V30 9703 H 893.791 0.751173 0.345931 0
M  V30 9704 H 896.337 1.69657 -0.0380632 0
M  V30 9705 H 895.109 3.90534 0.24467 0
M  V30 9706 H 894.732 3.48818 1.90818 0
M  V30 9707 N 895.729 -0.261212 1.5542 0
M  V30 9708 C 896.954 -1.01341 1.80955 0
M  V30 9709 C 897.379 -1.78711 0.586849 0
M  V30 9710 O 896.737 -1.75266 -0.463837 0
M  V30 9711 C 896.785 -1.93835 3.04073 0
M  V30 9712 O 895.889 -3.02791 2.79985 0
M  V30 9713 H 895.23 -0.289123 0.597749 0
M  V30 9714 H 897.76 -0.286543 2.02584 0
M  V30 9715 H 897.77 -2.3557 3.33123 0
M  V30 9716 H 896.445 -1.36936 3.9271 0
M  V30 9717 H 895.022 -2.65287 2.62063 0
M  V30 9718 N 897.207 -1.48554 -0.526253 0
M  V30 9719 C 898.137 -1.66252 -1.63959 0
M  V30 9720 C 899.118 -0.511351 -1.62232 0
M  V30 9721 O 900.303 -0.744322 -1.7937 0
M  V30 9722 C 897.433 -1.70556 -3.02536 0
M  V30 9723 C 896.387 -2.8521 -3.19123 0
M  V30 9724 C 895.713 -2.74606 -4.58798 0
M  V30 9725 C 897.013 -4.26463 -3.0154 0
M  V30 9726 H 898.707 -2.59459 -1.49404 0
M  V30 9727 H 896.253 -1.24862 -0.717326 0
M  V30 9728 H 898.206 -1.81524 -3.80298 0
M  V30 9729 H 896.93 -0.739297 -3.18123 0
M  V30 9730 H 895.589 -2.73802 -2.43779 0
M  V30 9731 H 895.237 -1.75941 -4.71226 0
M  V30 9732 H 894.937 -3.51544 -4.70841 0
M  V30 9733 H 896.461 -2.87548 -5.38655 0
M  V30 9734 H 897.875 -4.38685 -3.69091 0
M  V30 9735 H 896.272 -5.04428 -3.25073 0
M  V30 9736 H 897.342 -4.42667 -1.97925 0
M  V30 9737 N 898.685 0.775411 -1.37205 0
M  V30 9738 C 899.932 1.53384 -1.32211 0
M  V30 9739 C 900.26 1.9427 0.0944958 0
M  V30 9740 O 899.515 1.64059 1.06692 0
M  V30 9741 C 899.814 2.81377 -2.20367 0
M  V30 9742 C 899.48 2.59561 -3.68699 0
M  V30 9743 C 898.142 2.53319 -4.09124 0
M  V30 9744 C 900.494 2.39939 -4.62686 0
M  V30 9745 C 897.822 2.25442 -5.41658 0
M  V30 9746 C 900.174 2.13586 -5.95453 0
M  V30 9747 C 898.838 2.05786 -6.34987 0
M  V30 9748 H 898.108 0.561271 -0.483793 0
M  V30 9749 H 900.755 0.893466 -1.6938 0
M  V30 9750 H 899.06 3.49954 -1.76181 0
M  V30 9751 H 900.757 3.39238 -2.13819 0
M  V30 9752 H 897.347 2.6528 -3.36637 0
M  V30 9753 H 901.531 2.43753 -4.32317 0
M  V30 9754 H 896.787 2.17896 -5.71254 0
M  V30 9755 H 900.961 1.97401 -6.67837 0
M  V30 9756 H 898.588 1.83948 -7.37609 0
M  V30 9757 N 900.163 1.21714 1.00117 0
M  V30 9758 C 901.409 1.03823 1.74208 0
M  V30 9759 C 901.742 -0.426733 1.89454 0
M  V30 9760 O 901.017 -1.31658 1.43166 0
M  V30 9761 C 901.3 1.74047 3.15246 0
M  V30 9762 C 901.153 3.28087 3.077 0
M  V30 9763 C 902.472 1.48614 4.14249 0
M  V30 9764 H 899.591 0.378573 0.632338 0
M  V30 9765 H 902.233 1.49942 1.16694 0
M  V30 9766 H 900.383 1.3484 3.64349 0
M  V30 9767 H 902.055 3.76686 2.6628 0
M  V30 9768 H 900.298 3.58191 2.44707 0
M  V30 9769 H 900.969 3.72392 4.07466 0
M  V30 9770 H 903.445 1.82656 3.73866 0
M  V30 9771 H 902.321 2.00257 5.11066 0
M  V30 9772 H 902.582 0.416957 4.40129 0
M  V30 9773 N 901.641 -1.19671 1.02551 0
M  V30 9774 C 903.052 -1.70964 0.750208 0
M  V30 9775 C 903.403 -1.82095 -0.730461 0
M  V30 9776 O 902.528 -1.48974 -1.56958 0
M  V30 9777 C 903.123 -3.10516 1.35518 0
M  V30 9778 C 901.682 -3.59083 1.12854 0
M  V30 9779 C 900.829 -2.36041 1.45534 0
M  V30 9780 H 903.78 -1.04559 1.19386 0
M  V30 9781 H 903.801 -3.73028 0.750378 0
M  V30 9782 H 903.313 -3.02383 2.43282 0
M  V30 9783 H 901.414 -3.72536 0.0689627 0
M  V30 9784 H 901.527 -4.43395 1.81488 0
M  V30 9785 H 899.891 -2.39214 0.87458 0
M  V30 9786 H 900.674 -2.3054 2.54374 0
M  V30 9787 N 903.119 -0.802921 -1.35613 0
M  V30 9788 C 904.535 -0.486214 -1.52014 0
M  V30 9789 C 904.735 0.993219 -1.75321 0
M  V30 9790 O 903.791 1.77835 -1.79251 0
M  V30 9791 C 905.104 -1.32839 -2.69767 0
M  V30 9792 C 906.652 -1.32346 -2.83643 0
M  V30 9793 C 907.127 -2.14967 -4.04417 0
M  V30 9794 N 908.618 -2.12484 -4.11588 0
M  V30 9795 C 909.353 -2.73173 -5.04147 0
M  V30 9796 N 908.849 -3.42774 -6.02061 0
M  V30 9797 N 910.642 -2.62834 -4.96865 0
M  V30 9798 H 902.793 -1.76109 -1.18741 0
M  V30 9799 H 905.056 -0.74936 -0.580658 0
M  V30 9800 H 904.762 -2.37813 -2.5911 0
M  V30 9801 H 904.636 -0.979058 -3.64272 0
M  V30 9802 H 907.023 -0.281586 -2.93753 0
M  V30 9803 H 907.104 -1.71264 -1.90006 0
M  V30 9804 H 906.748 -3.19193 -3.95068 0
M  V30 9805 H 906.678 -1.73411 -4.97228 0
M  V30 9806 H 909.169 -1.61839 -3.41492 0
M  V30 9807 H 909.482 -3.86378 -6.69277 0
M  V30 9808 H 907.827 -3.46878 -6.02246 0
M  V30 9809 H 911.018 -2.08049 -4.19325 0
M  V30 9810 H 911.191 -3.10421 -5.68808 0
M  V30 9811 N 904.597 1.47463 -0.556102 0
M  V30 9812 C 906.013 1.58134 -0.21579 0
M  V30 9813 C 906.213 1.55486 1.28166 0
M  V30 9814 O 905.269 1.45768 2.06174 0
M  V30 9815 C 906.582 2.88686 -0.841464 0
M  V30 9816 C 908.13 3.02268 -0.812591 0
M  V30 9817 C 908.605 4.35518 -1.41731 0
M  V30 9818 N 910.096 4.42151 -1.38045 0
M  V30 9819 C 910.831 5.43817 -1.81799 0
M  V30 9820 N 910.327 6.52299 -2.33404 0
M  V30 9821 N 912.12 5.34855 -1.72877 0
M  V30 9822 H 904.271 1.47428 -1.52901 0
M  V30 9823 H 906.534 0.701586 -0.637559 0
M  V30 9824 H 906.24 2.96358 -1.8938 0
M  V30 9825 H 906.114 3.7572 -0.333846 0
M  V30 9826 H 908.501 2.94194 0.231056 0
M  V30 9827 H 908.582 2.16779 -1.35796 0
M  V30 9828 H 908.226 4.44348 -2.46002 0
M  V30 9829 H 908.156 5.19737 -0.847402 0
M  V30 9830 H 910.647 3.64348 -1.00296 0
M  V30 9831 H 910.96 7.26047 -2.64717 0
M  V30 9832 H 909.305 6.53192 -2.37414 0
M  V30 9833 H 912.496 4.49004 -1.32338 0
M  V30 9834 H 912.669 6.13949 -2.07294 0
M  V30 9835 N 906.075 0.2925 1.54862 0
M  V30 9836 C 907.025 -0.60226 2.19902 0
M  V30 9837 C 908.009 -1.10535 1.16923 0
M  V30 9838 O 909.201 -1.04753 1.42674 0
M  V30 9839 C 906.33 -1.77774 2.93686 0
M  V30 9840 C 905.416 -1.29101 4.03972 0
M  V30 9841 N 905.807 -0.521671 5.03103 0
M  V30 9842 C 904.105 -1.57248 4.17359 0
M  V30 9843 C 904.806 -0.263545 5.81103 0
M  V30 9844 N 903.782 -0.840937 5.37056 0
M  V30 9845 H 907.584 -0.00682274 2.93899 0
M  V30 9846 H 905.098 0.0968604 1.62111 0
M  V30 9847 H 907.095 -2.43021 3.38743 0
M  V30 9848 H 905.755 -2.37696 2.21203 0
M  V30 9849 H 906.766 -0.167364 5.1763 0
M  V30 9850 H 903.443 -2.1798 3.56077 0
M  V30 9851 H 904.833 0.353783 6.70968 0
M  V30 9852 N 907.553 -1.57587 0.0200696 0
M  V30 9853 C 908.801 -1.91046 -0.65922 0
M  V30 9854 C 909.122 -0.896197 -1.73186 0
M  V30 9855 O 908.392 0.0635952 -1.95797 0
M  V30 9856 H 906.972 -0.705163 -0.246483 0
M  V30 9857 H 909.634 -1.94789 0.0657368 0
M  V30 9858 H 908.73 -2.91399 -1.11773 0
M  V30 9859 N 909.032 0.252966 -1.55557 0
M  V30 9860 C 909.942 1.33472 -1.92931 0
M  V30 9861 C 910.958 1.52983 -0.828985 0
M  V30 9862 O 912.134 1.66723 -1.12984 0
M  V30 9863 C 909.199 2.6704 -2.21112 0
M  V30 9864 C 908.26 2.56103 -3.44542 0
M  V30 9865 C 907.493 3.83302 -3.71369 0
M  V30 9866 O 907.716 4.84907 -3.00368 0
M  V30 9867 O 906.65 3.823 -4.64898 0
M  V30 9868 H 910.476 1.04768 -2.85057 0
M  V30 9869 H 908.061 0.453208 -1.4236 0
M  V30 9870 H 909.943 3.45981 -2.40572 0
M  V30 9871 H 908.618 2.95489 -1.32166 0
M  V30 9872 H 907.525 1.7547 -3.30396 0
M  V30 9873 H 908.858 2.32601 -4.33772 0
M  V30 9874 N 910.51 1.48831 0.518367 0
M  V30 9875 C 911.926 1.35209 0.847979 0
M  V30 9876 C 912.126 0.371927 1.98038 0
M  V30 9877 O 911.182 -0.202681 2.51685 0
M  V30 9878 C 912.495 2.7552 1.20455 0
M  V30 9879 C 914.043 2.84094 1.31377 0
M  V30 9880 C 914.518 4.25132 1.70372 0
M  V30 9881 N 916.009 4.27861 1.77453 0
M  V30 9882 C 916.744 5.3394 2.09035 0
M  V30 9883 N 916.24 6.50285 2.3896 0
M  V30 9884 N 918.033 5.21343 2.10139 0
M  V30 9885 H 910.184 2.11166 -0.228624 0
M  V30 9886 H 912.447 0.94717 -0.0396599 0
M  V30 9887 H 912.153 3.48861 0.445991 0
M  V30 9888 H 912.027 3.09785 2.15204 0
M  V30 9889 H 914.414 2.11001 2.06307 0
M  V30 9890 H 914.495 2.53433 0.347203 0
M  V30 9891 H 914.139 4.98745 0.959975 0
M  V30 9892 H 914.069 4.53245 2.68098 0
M  V30 9893 H 916.56 3.43945 1.56557 0
M  V30 9894 H 916.873 7.26961 2.62196 0
M  V30 9895 H 915.218 6.5354 2.36454 0
M  V30 9896 H 918.409 4.29462 1.86225 0
M  V30 9897 H 918.582 6.04112 2.34419 0
M  V30 9898 N 911.988 -0.768124 1.37614 0
M  V30 9899 C 913.404 -1.06919 1.18493 0
M  V30 9900 C 913.604 -2.01486 0.0235753 0
M  V30 9901 O 912.66 -2.4438 -0.635209 0
M  V30 9902 C 913.973 -1.66321 2.50515 0
M  V30 9903 C 915.521 -1.78562 2.57069 0
M  V30 9904 C 915.996 -2.41377 3.89231 0
M  V30 9905 N 917.487 -2.48824 3.90693 0
M  V30 9906 C 918.222 -2.98288 4.89706 0
M  V30 9907 N 917.718 -3.47897 5.99115 0
M  V30 9908 N 919.511 -2.97196 4.77107 0
M  V30 9909 H 911.662 -0.140286 2.11936 0
M  V30 9910 H 913.925 -0.124863 0.939741 0
M  V30 9911 H 913.631 -1.04303 3.35878 0
M  V30 9912 H 913.505 -2.65571 2.67866 0
M  V30 9913 H 915.892 -2.39712 1.72111 0
M  V30 9914 H 915.973 -0.780574 2.43599 0
M  V30 9915 H 915.617 -1.80866 4.74605 0
M  V30 9916 H 915.547 -3.42495 4.00006 0
M  V30 9917 H 918.038 -2.1372 3.1166 0
M  V30 9918 H 918.351 -3.84053 6.70614 0
M  V30 9919 H 916.696 -3.45993 6.02755 0
M  V30 9920 H 919.887 -2.57741 3.90752 0
M  V30 9921 H 920.06 -3.35434 5.54426 0
M  V30 9922 N 913.466 -1.22244 -0.994698 0
M  V30 9923 C 914.414 -0.988118 -2.10568 0
M  V30 9924 C 915.408 0.0681541 -1.69263 0
M  V30 9925 O 916.614 -0.0841311 -1.79803 0
M  V30 9926 H 912.989 -0.302343 -0.688544 0
M  V30 9927 H 914.96 -1.93091 -2.27505 0
M  V30 9928 C 913.709 -0.580557 -3.42819 0
M  V30 9929 H 913.032 -1.385 -3.75044 0
M  V30 9930 H 914.472 -0.456004 -4.21541 0
M  V30 9931 C 912.931 0.709692 -3.2934 0
M  V30 9932 O 913.461 1.76259 -3.60965 0
M  V30 9933 N 911.667 0.680155 -2.82528 0
M  V30 9934 H 911.214 -0.176977 -2.56991 0
M  V30 9935 H 911.172 1.54372 -2.73892 0
M  V30 9936 N 914.944 1.19125 -1.03184 0
M  V30 9937 C 916.169 1.93379 -0.749628 0
M  V30 9938 C 916.594 1.75153 0.685785 0
M  V30 9939 O 915.952 1.05579 1.47386 0
M  V30 9940 C 916 3.43101 -1.1097 0
M  V30 9941 O 915.104 4.11758 -0.230053 0
M  V30 9942 H 914.445 0.603605 -0.276689 0
M  V30 9943 H 916.975 1.51116 -1.37931 0
M  V30 9944 H 916.985 3.93778 -1.06785 0
M  V30 9945 H 915.66 3.55688 -2.15544 0
M  V30 9946 H 914.237 3.7143 -0.330748 0
M  V30 9947 N 916.422 0.810101 1.35185 0
M  V30 9948 C 917.37 0.211071 2.3164 0
M  V30 9949 C 918.364 -0.641109 1.568 0
M  V30 9950 O 919.57 -0.533881 1.719 0
M  V30 9951 H 915.945 0.0494978 0.750369 0
M  V30 9952 H 917.916 1.03964 2.79703 0
M  V30 9953 C 916.665 -0.622933 3.42074 0
M  V30 9954 H 915.988 0.0234648 3.99793 0
M  V30 9955 H 917.428 -1.0084 4.11834 0
M  V30 9956 C 915.887 -1.78994 2.85417 0
M  V30 9957 O 916.417 -2.88758 2.79252 0
M  V30 9958 N 914.623 -1.60259 2.42416 0
M  V30 9959 H 914.17 -0.70974 2.4763 0
M  V30 9960 H 914.128 -2.38498 2.04857 0
M  V30 9961 N 917.9 -1.47166 0.563914 0
M  V30 9962 C 918.83 -2.32894 -0.168148 0
M  V30 9963 C 919.811 -1.44202 -0.902214 0
M  V30 9964 O 920.996 -1.73048 -0.881365 0
M  V30 9965 C 918.126 -3.26116 -1.19439 0
M  V30 9966 C 917.08 -4.24101 -0.576363 0
M  V30 9967 C 916.406 -5.06696 -1.70772 0
M  V30 9968 C 917.706 -5.20142 0.47425 0
M  V30 9969 H 919.4 -2.9435 0.547573 0
M  V30 9970 H 916.946 -1.41545 0.264778 0
M  V30 9971 H 918.899 -3.84935 -1.71474 0
M  V30 9972 H 917.623 -2.62728 -1.94014 0
M  V30 9973 H 916.282 -3.66519 -0.0772534 0
M  V30 9974 H 915.93 -4.39707 -2.44268 0
M  V30 9975 H 915.63 -5.7304 -1.29994 0
M  V30 9976 H 917.154 -5.68375 -2.2312 0
M  V30 9977 H 918.568 -5.73286 0.0397035 0
M  V30 9978 H 916.965 -5.94726 0.801287 0
M  V30 9979 H 918.035 -4.65214 1.36764 0
M  V30 9980 N 919.378 -0.300708 -1.54705 0
M  V30 9981 C 920.603 0.314073 -2.05008 0
M  V30 9982 C 921.028 1.46759 -1.17657 0
M  V30 9983 O 920.386 1.80398 -0.180598 0
M  V30 9984 C 920.434 0.748243 -3.52752 0
M  V30 9985 O 919.538 1.85305 -3.68424 0
M  V30 9986 H 918.879 0.0610139 -0.661191 0
M  V30 9987 H 921.409 -0.442467 -1.99758 0
M  V30 9988 H 921.419 1.03713 -3.94598 0
M  V30 9989 H 920.094 -0.095573 -4.1579 0
M  V30 9990 H 918.671 1.56473 -3.38483 0
M  V30 9991 N 920.856 1.57574 -0.0284266 0
M  V30 9992 C 921.788 2.07079 0.982391 0
M  V30 9993 C 922.801 0.994078 1.28926 0
M  V30 9994 O 923.99 1.27028 1.25404 0
M  V30 9995 C 921.09 2.47978 2.30998 0
M  V30 9996 C 920.263 3.7872 2.18838 0
M  V30 9997 C 919.322 4.06177 3.34524 0
M  V30 9998 O 918.348 4.76438 3.11441 0
M  V30 9999 N 919.55 3.56297 4.58293 0
M  V30 10000 H 922.315 2.94421 0.560011 0
M  V30 10001 H 919.876 1.61124 0.158347 0
M  V30 10002 H 921.868 2.63439 3.07216 0
M  V30 10003 H 920.438 1.66005 2.64879 0
M  V30 10004 H 919.658 3.73062 1.27351 0
M  V30 10005 H 920.946 4.6438 2.07915 0
M  V30 10006 H 920.344 2.99453 4.79942 0
M  V30 10007 H 918.901 3.77038 5.31682 0
M  V30 10008 N 922.334 -0.244713 1.55689 0
M  V30 10009 C 923.562 -0.989944 1.8168 0
M  V30 10010 C 923.977 -1.78863 0.604449 0
M  V30 10011 O 923.334 -1.77437 -0.426907 0
M  V30 10012 C 923.385 -1.92607 3.05916 0
M  V30 10013 O 923.106 -1.1597 4.22472 0
M  V30 10014 C 924.607 -2.78711 3.44724 0
M  V30 10015 H 921.827 -0.2912 0.604519 0
M  V30 10016 H 924.371 -0.266938 2.0275 0
M  V30 10017 H 922.526 -2.60333 2.8689 0
M  V30 10018 H 922.94 -1.79311 4.92898 0
M  V30 10019 H 924.414 -3.40141 4.34751 0
M  V30 10020 H 924.891 -3.49935 2.6541 0
M  V30 10021 H 925.497 -2.16435 3.66109 0
M  V30 10022 N 923.813 -1.49104 -0.510467 0
M  V30 10023 C 925.038 -1.62068 -1.29417 0
M  V30 10024 C 925.463 -0.288432 -1.85875 0
M  V30 10025 O 924.821 0.742667 -1.65391 0
M  V30 10026 C 924.869 -2.68506 -2.40701 0
M  V30 10027 O 923.973 -2.27021 -3.4429 0
M  V30 10028 H 923.314 -0.542778 -0.382476 0
M  V30 10029 H 925.844 -1.95228 -0.612154 0
M  V30 10030 H 925.854 -2.90383 -2.86604 0
M  V30 10031 H 924.529 -3.65216 -1.98973 0
M  V30 10032 H 923.106 -2.15436 -3.04371 0
M  V30 10033 N 925.291 0.760815 -1.38019 0
M  V30 10034 C 926.707 1.06289 -1.19058 0
M  V30 10035 C 926.907 2.01471 -0.0342603 0
M  V30 10036 O 925.963 2.44713 0.62224 0
M  V30 10037 C 927.276 1.6499 -2.51394 0
M  V30 10038 C 928.824 1.77196 -2.58013 0
M  V30 10039 C 929.299 2.3931 -3.90506 0
M  V30 10040 N 930.79 2.46749 -3.92007 0
M  V30 10041 C 931.525 2.95687 -4.91281 0
M  V30 10042 N 931.021 3.44715 -6.00952 0
M  V30 10043 N 932.814 2.94661 -4.78677 0
M  V30 10044 H 924.965 0.129045 -2.12008 0
M  V30 10045 H 927.228 0.119878 -0.94039 0
M  V30 10046 H 926.934 1.0252 -3.36426 0
M  V30 10047 H 926.808 2.64146 -2.6927 0
M  V30 10048 H 929.195 2.38796 -1.7338 0
M  V30 10049 H 929.276 0.767645 -2.4401 0
M  V30 10050 H 928.92 1.78346 -4.75558 0
M  V30 10051 H 928.85 3.40369 -4.01817 0
M  V30 10052 H 931.341 2.12064 -3.12789 0
M  V30 10053 H 931.654 3.80492 -6.72641 0
M  V30 10054 H 929.999 3.42791 -6.04582 0
M  V30 10055 H 933.19 2.55665 -3.92113 0
M  V30 10056 H 933.363 3.32489 -5.56197 0
M  V30 10057 N 926.769 1.22769 0.988202 0
M  V30 10058 C 927.994 1.08239 1.76915 0
M  V30 10059 C 928.419 -0.362519 1.84574 0
M  V30 10060 O 927.777 -1.26202 1.30165 0
M  V30 10061 C 927.825 1.70363 3.17819 0
M  V30 10062 O 926.929 0.960484 4.01059 0
M  V30 10063 H 926.27 0.379872 0.544604 0
M  V30 10064 H 928.8 1.62663 1.24104 0
M  V30 10065 H 928.81 1.7528 3.6843 0
M  V30 10066 H 927.485 2.75505 3.1156 0
M  V30 10067 H 926.062 0.987667 3.59582 0
M  V30 10068 N 928.247 -1.18576 1.03814 0
M  V30 10069 C 929.472 -1.92978 0.759873 0
M  V30 10070 C 929.897 -1.75514 -0.676486 0
M  V30 10071 O 929.255 -1.06359 -1.46824 0
M  V30 10072 C 929.303 -3.42507 1.12788 0
M  V30 10073 O 928.407 -4.1163 0.251886 0
M  V30 10074 H 927.748 -0.602129 0.279886 0
M  V30 10075 H 930.278 -1.50383 1.3873 0
M  V30 10076 H 930.288 -3.93206 1.08872 0
M  V30 10077 H 928.963 -3.5454 2.17427 0
M  V30 10078 H 927.54 -3.7125 0.350441 0
M  V30 10079 N 929.725 -0.817259 -1.34754 0
M  V30 10080 C 931.141 -0.502309 -1.51489 0
M  V30 10081 C 931.341 0.974568 -1.76364 0
M  V30 10082 O 930.397 1.75924 -1.81127 0
M  V30 10083 C 931.71 -1.35693 -2.68343 0
M  V30 10084 C 933.258 -1.35347 -2.82224 0
M  V30 10085 C 933.733 -2.19244 -4.02114 0
M  V30 10086 N 935.224 -2.16837 -4.09311 0
M  V30 10087 C 935.959 -2.78505 -5.01221 0
M  V30 10088 N 935.455 -3.4914 -5.98392 0
M  V30 10089 N 937.248 -2.68089 -4.94049 0
M  V30 10090 H 929.399 -1.77359 -1.16866 0
M  V30 10091 H 931.662 -0.755476 -0.572678 0
M  V30 10092 H 931.368 -2.40548 -2.56573 0
M  V30 10093 H 931.242 -1.01764 -3.63213 0
M  V30 10094 H 933.629 -0.312727 -2.93438 0
M  V30 10095 H 933.71 -1.7327 -1.88179 0
M  V30 10096 H 933.354 -3.23365 -3.9166 0
M  V30 10097 H 933.284 -1.78675 -4.95361 0
M  V30 10098 H 935.775 -1.65452 -3.39756 0
M  V30 10099 H 936.088 -3.93455 -6.65141 0
M  V30 10100 H 934.433 -3.53246 -5.98533 0
M  V30 10101 H 937.624 -2.12485 -4.17094 0
M  V30 10102 H 937.797 -3.16436 -5.65484 0
M  V30 10103 N 931.203 1.46865 -0.571711 0
M  V30 10104 C 932.136 2.27176 0.215944 0
M  V30 10105 C 933.114 1.34951 0.907035 0
M  V30 10106 O 934.298 1.64349 0.923127 0
M  V30 10107 C 931.425 3.12388 1.30888 0
M  V30 10108 C 930.471 4.20296 0.724804 0
M  V30 10109 S 931.304 5.33691 -0.439839 0
M  V30 10110 C 932.46 6.22468 0.654564 0
M  V30 10111 H 932.693 2.93633 -0.465518 0
M  V30 10112 H 930.226 1.50184 -0.358351 0
M  V30 10113 H 932.184 3.62049 1.93471 0
M  V30 10114 H 930.845 2.45265 1.96224 0
M  V30 10115 H 930.038 4.79703 1.54599 0
M  V30 10116 H 929.64 3.73591 0.174861 0
M  V30 10117 H 931.932 6.59694 1.54304 0
M  V30 10118 H 932.875 7.08033 0.0975111 0
M  V30 10119 H 933.283 5.56384 0.953762 0
M  V30 10120 N 932.681 0.308908 1.54543 0
M  V30 10121 C 933.611 -0.556657 2.26768 0
M  V30 10122 C 934.592 -1.13145 1.27013 0
M  V30 10123 O 935.777 -1.15931 1.558 0
M  V30 10124 C 932.907 -1.72481 3.01443 0
M  V30 10125 C 931.861 -1.28001 4.08411 0
M  V30 10126 C 931.187 -2.53395 4.70845 0
M  V30 10127 C 932.487 -0.405497 5.20724 0
M  V30 10128 H 934.181 0.0457618 2.99365 0
M  V30 10129 H 931.727 0.0234495 1.43981 0
M  V30 10130 H 933.68 -2.3365 3.50693 0
M  V30 10131 H 932.404 -2.35359 2.26437 0
M  V30 10132 H 931.063 -0.69133 3.60022 0
M  V30 10133 H 930.711 -3.14604 3.92471 0
M  V30 10134 H 930.411 -2.2433 5.43093 0
M  V30 10135 H 931.935 -3.15352 5.22863 0
M  V30 10136 H 933.349 -0.923076 5.6582 0
M  V30 10137 H 931.746 -0.208282 5.99738 0
M  V30 10138 H 932.816 0.567412 4.81569 0
M  V30 10139 N 934.159 -1.57557 0.0367827 0
M  V30 10140 C 935.122 -2.09591 -0.927589 0
M  V30 10141 C 936.122 -1.01252 -1.24919 0
M  V30 10142 O 937.312 -1.27382 -1.18825 0
M  V30 10143 C 934.444 -2.56816 -2.24184 0
M  V30 10144 H 935.637 -2.96086 -0.476784 0
M  V30 10145 H 933.19 -1.54864 -0.211385 0
M  V30 10146 H 933.925 -1.73673 -2.73876 0
M  V30 10147 H 933.71 -3.35973 -2.0215 0
M  V30 10148 H 935.2 -2.97271 -2.93291 0
M  V30 10149 N 935.637 0.236453 -1.55816 0
M  V30 10150 C 936.883 0.964439 -1.784 0
M  V30 10151 C 937.216 1.84573 -0.603868 0
M  V30 10152 O 936.491 1.90395 0.397473 0
M  V30 10153 C 936.774 1.81608 -3.10951 0
M  V30 10154 C 936.627 0.962283 -4.39386 0
M  V30 10155 C 937.946 2.79665 -3.39817 0
M  V30 10156 H 935.065 0.349192 -0.649026 0
M  V30 10157 H 937.707 0.234247 -1.8855 0
M  V30 10158 H 935.857 2.43864 -3.02428 0
M  V30 10159 H 937.529 0.35762 -4.59912 0
M  V30 10160 H 935.772 0.267062 -4.32977 0
M  V30 10161 H 936.443 1.59222 -5.28538 0
M  V30 10162 H 938.919 2.27546 -3.4837 0
M  V30 10163 H 937.795 3.36367 -4.33761 0
M  V30 10164 H 938.056 3.56657 -2.61244 0
M  V30 10165 N 937.115 1.49373 0.502552 0
M  V30 10166 C 938.362 1.58781 1.25678 0
M  V30 10167 C 938.69 0.273819 1.92563 0
M  V30 10168 O 937.945 -0.738141 1.81246 0
M  V30 10169 C 938.244 2.69508 2.34735 0
M  V30 10170 C 937.91 4.11057 1.85318 0
M  V30 10171 C 936.572 4.49578 1.7156 0
M  V30 10172 C 938.924 4.99653 1.48312 0
M  V30 10173 C 936.252 5.74469 1.19172 0
M  V30 10174 C 938.604 6.2506 0.97377 0
M  V30 10175 C 937.268 6.62412 0.822573 0
M  V30 10176 H 936.538 0.581021 0.459887 0
M  V30 10177 H 939.185 1.83197 0.557767 0
M  V30 10178 H 937.49 2.39057 3.10418 0
M  V30 10179 H 939.187 2.73997 2.92791 0
M  V30 10180 H 935.777 3.80651 1.96985 0
M  V30 10181 H 939.961 4.70549 1.57789 0
M  V30 10182 H 935.217 6.0211 1.06176 0
M  V30 10183 H 939.391 6.93089 0.678233 0
M  V30 10184 H 937.018 7.59069 0.414453 0
M  V30 10185 N 938.594 -0.753485 1.38421 0
M  V30 10186 C 940.005 -1.33081 1.30944 0
M  V30 10187 C 940.356 -1.96169 -0.0347124 0
M  V30 10188 O 939.481 -1.95073 -0.936768 0
M  V30 10189 C 940.076 -2.41973 2.37138 0
M  V30 10190 C 938.635 -2.95426 2.33239 0
M  V30 10191 C 937.782 -1.68808 2.19998 0
M  V30 10192 H 940.733 -0.552354 1.48777 0
M  V30 10193 H 940.754 -3.21913 2.02859 0
M  V30 10194 H 940.266 -1.96027 3.34956 0
M  V30 10195 H 938.367 -3.45701 1.39003 0
M  V30 10196 H 938.48 -3.49798 3.27381 0
M  V30 10197 H 936.844 -1.92438 1.66852 0
M  V30 10198 H 937.627 -1.24939 3.19758 0
M  V30 10199 N 940.072 -1.23292 -0.981677 0
M  V30 10200 C 941.035 -1.01417 -2.05542 0
M  V30 10201 C 942.035 0.0235354 -1.60783 0
M  V30 10202 O 943.225 -0.216082 -1.72855 0
M  V30 10203 C 940.357 -0.534239 -3.36688 0
M  V30 10204 H 941.55 -1.96702 -2.26381 0
M  V30 10205 H 939.103 -1.05318 -1.1549 0
M  V30 10206 H 939.838 0.422452 -3.21537 0
M  V30 10207 H 939.623 -1.28304 -3.70514 0
M  V30 10208 H 941.113 -0.40179 -4.15663 0
M  V30 10209 N 941.55 1.18024 -1.04442 0
M  V30 10210 C 942.498 2.23834 -0.632557 0
M  V30 10211 C 943.492 1.65902 0.342488 0
M  V30 10212 O 944.698 1.78778 0.20937 0
M  V30 10213 H 941.073 0.728544 -0.186353 0
M  V30 10214 H 943.044 2.55876 -1.53526 0
M  V30 10215 C 941.793 3.47697 -0.0153661 0
M  V30 10216 H 941.116 3.92574 -0.756704 0
M  V30 10217 H 942.556 4.23345 0.235541 0
M  V30 10218 C 941.015 3.13416 1.23579 0
M  V30 10219 O 941.545 3.27499 2.3261 0
M  V30 10220 N 939.751 2.67708 1.13053 0
M  V30 10221 H 939.298 2.56449 0.243277 0
M  V30 10222 H 939.256 2.45143 1.96855 0
M  V30 10223 N 943.028 0.824394 1.34319 0
M  V30 10224 C 944.276 0.41235 1.97849 0
M  V30 10225 C 944.597 -1.02841 1.65677 0
M  V30 10226 O 943.867 -1.71421 0.948245 0
M  V30 10227 H 942.447 0.149486 0.73189 0
M  V30 10228 H 945.109 1.05416 1.63931 0
M  V30 10229 H 944.205 0.532557 3.07523 0
M  V30 10230 N 944.506 -1.46559 0.579492 0
M  V30 10231 C 945.453 -2.30275 -0.155598 0
M  V30 10232 C 946.423 -1.40422 -0.887175 0
M  V30 10233 O 947.608 -1.69373 -0.878481 0
M  V30 10234 C 944.748 -3.24827 -1.16539 0
M  V30 10235 C 943.861 -4.29778 -0.43759 0
M  V30 10236 C 942.996 -5.11461 -1.43462 0
M  V30 10237 C 942.035 -6.08164 -0.693048 0
M  V30 10238 N 941.172 -6.82726 -1.63799 0
M  V30 10239 H 946.012 -2.92607 0.564356 0
M  V30 10240 H 943.549 -1.44211 0.290126 0
M  V30 10241 H 945.507 -3.78088 -1.76368 0
M  V30 10242 H 944.137 -2.64311 -1.8531 0
M  V30 10243 H 943.189 -3.794 0.27567 0
M  V30 10244 H 944.501 -4.98597 0.142298 0
M  V30 10245 H 943.655 -5.68982 -2.1058 0
M  V30 10246 H 942.394 -4.42595 -2.04844 0
M  V30 10247 H 941.399 -5.49799 -0.00807093 0
M  V30 10248 H 942.624 -6.79047 -0.0846678 0
M  V30 10249 H 940.57 -6.16572 -2.23997 0
M  V30 10250 H 940.487 -7.47795 -1.11082 0
M  V30 10251 H 941.755 -7.44807 -2.29962 0
M  V30 10252 N 945.984 -0.3171 -1.54377 0
M  V30 10253 C 946.917 0.594178 -2.20329 0
M  V30 10254 C 947.895 1.12067 -1.17812 0
M  V30 10255 O 949.079 1.18588 -1.46524 0
M  V30 10256 C 946.206 1.81463 -2.85987 0
M  V30 10257 C 945.252 1.41996 -4.02168 0
M  V30 10258 S 946.085 0.462159 -5.33502 0
M  V30 10259 C 947.241 1.69004 -6.02651 0
M  V30 10260 H 947.474 0.0339261 -2.97281 0
M  V30 10261 H 945.007 -0.101196 -1.54068 0
M  V30 10262 H 946.965 2.51494 -3.2444 0
M  V30 10263 H 945.626 2.34606 -2.08851 0
M  V30 10264 H 944.819 2.32921 -4.4695 0
M  V30 10265 H 944.421 0.799423 -3.65356 0
M  V30 10266 H 946.713 2.62839 -6.24437 0
M  V30 10267 H 947.656 1.28451 -6.96352 0
M  V30 10268 H 948.064 1.87408 -5.32483 0
M  V30 10269 N 947.462 1.57535 -0.0451378 0
M  V30 10270 C 948.412 2.07683 0.940829 0
M  V30 10271 C 949.396 0.9807 1.27558 0
M  V30 10272 O 950.588 1.2441 1.25901 0
M  V30 10273 C 947.717 2.62049 2.21778 0
M  V30 10274 C 946.803 3.78621 1.91068 0
M  V30 10275 N 947.194 4.88623 1.30694 0
M  V30 10276 C 945.492 3.87411 2.20972 0
M  V30 10277 C 946.193 5.69714 1.17478 0
M  V30 10278 N 945.169 5.17129 1.67566 0
M  V30 10279 H 948.971 2.90129 0.469267 0
M  V30 10280 H 946.485 1.61615 0.159472 0
M  V30 10281 H 948.482 2.96276 2.93302 0
M  V30 10282 H 947.142 1.81039 2.69546 0
M  V30 10283 H 948.153 5.08545 0.979907 0
M  V30 10284 H 944.83 3.17335 2.71302 0
M  V30 10285 H 946.22 6.68174 0.706574 0
M  V30 10286 N 948.94 -0.228186 1.55939 0
M  V30 10287 C 950.165 -0.974795 1.83064 0
M  V30 10288 C 950.59 -1.77426 0.624624 0
M  V30 10289 O 949.948 -1.76211 -0.426556 0
M  V30 10290 C 949.996 -1.87342 3.08116 0
M  V30 10291 O 949.1 -2.96784 2.86344 0
M  V30 10292 H 948.441 -0.276379 0.603747 0
M  V30 10293 H 950.971 -0.243507 2.03146 0
M  V30 10294 H 950.981 -2.28451 3.38045 0
M  V30 10295 H 949.656 -1.28575 3.95526 0
M  V30 10296 H 948.233 -2.59669 2.67631 0
M  V30 10297 N 950.418 -1.49637 -0.494624 0
M  V30 10298 C 951.646 -1.63164 -1.2722 0
M  V30 10299 C 952.061 -0.305552 -1.86311 0
M  V30 10300 O 951.418 0.709758 -1.68133 0
M  V30 10301 C 951.469 -2.70524 -2.39789 0
M  V30 10302 O 951.19 -3.97991 -1.83126 0
M  V30 10303 C 952.691 -2.94814 -3.31058 0
M  V30 10304 H 949.911 -0.54912 -0.385627 0
M  V30 10305 H 952.455 -1.95711 -0.593081 0
M  V30 10306 H 950.61 -2.40738 -3.03519 0
M  V30 10307 H 951.024 -4.57179 -2.57075 0
M  V30 10308 H 952.498 -3.73653 -4.06309 0
M  V30 10309 H 952.975 -2.04974 -3.88436 0
M  V30 10310 H 953.581 -3.26042 -2.73088 0
M  V30 10311 N 951.896 0.746133 -1.38819 0
M  V30 10312 C 953.142 1.50768 -1.35635 0
M  V30 10313 C 953.475 1.94132 0.0512435 0
M  V30 10314 O 952.75 1.65979 1.01396 0
M  V30 10315 C 953.033 2.7551 -2.31875 0
M  V30 10316 C 952.886 2.38236 -3.81528 0
M  V30 10317 C 954.205 3.77566 -2.26124 0
M  V30 10318 H 951.324 0.546922 -0.494009 0
M  V30 10319 H 953.966 0.854017 -1.69725 0
M  V30 10320 H 952.116 3.31285 -2.02935 0
M  V30 10321 H 953.788 1.88178 -4.21173 0
M  V30 10322 H 952.031 1.70601 -3.98846 0
M  V30 10323 H 952.702 3.27517 -4.44339 0
M  V30 10324 H 955.178 3.31349 -2.51689 0
M  V30 10325 H 954.054 4.62531 -2.95561 0
M  V30 10326 H 954.315 4.23689 -1.26254 0
M  V30 10327 N 953.375 1.23811 0.975125 0
M  V30 10328 C 954.652 0.9815 1.69192 0
M  V30 10329 C 955.032 -0.498373 2.05133 0
M  V30 10330 O 954.38 -1.47087 1.74864 0
M  V30 10331 C 954.59 1.89701 2.92941 0
M  V30 10332 C 955.938 2.16357 3.65342 0
M  V30 10333 O 956.962 1.87293 3.02985 0
M  V30 10334 O 955.821 2.65675 4.77576 0
M  V30 10335 H 952.915 0.370599 0.739314 0
M  V30 10336 H 955.461 1.34876 1.02988 0
M  V30 10337 H 954.233 2.89719 2.63018 0
M  V30 10338 H 953.856 1.53244 3.66881 0
M  V30 10339 N 954.853 -1.17469 1.05066 0
M  V30 10340 C 956.093 -1.89382 0.769012 0
M  V30 10341 C 956.457 -1.79126 -0.691217 0
M  V30 10342 O 957.658 -2.45845 -1.08692 0
M  V30 10343 C 955.929 -3.35397 1.23465 0
M  V30 10344 S 957.488 -4.25297 1.08018 0
M  V30 10345 H 954.306 -0.653839 0.279312 0
M  V30 10346 H 956.908 -1.41877 1.34503 0
M  V30 10347 H 955.612 -3.40395 2.29258 0
M  V30 10348 H 955.143 -3.87945 0.652853 0
M  V30 10349 H 957.158 -4.962 0.00358573 0
M  V30 10350 N 956.331 -0.831506 -1.3388 0
M  V30 10351 C 957.279 -0.247896 -2.31275 0
M  V30 10352 C 958.273 0.616083 -1.578 0
M  V30 10353 O 959.479 0.506465 -1.72728 0
M  V30 10354 H 955.854 -0.0614293 -0.749487 0
M  V30 10355 H 957.825 -1.08401 -2.78014 0
M  V30 10356 C 956.574 0.568434 -3.43022 0
M  V30 10357 H 955.897 -0.0870654 -3.99705 0
M  V30 10358 H 957.337 0.942751 -4.13386 0
M  V30 10359 C 955.796 1.74431 -2.88228 0
M  V30 10360 O 956.326 2.84278 -2.83811 0
M  V30 10361 N 954.532 1.56382 -2.44935 0
M  V30 10362 H 954.079 0.670255 -2.48727 0
M  V30 10363 H 954.037 2.35208 -2.08625 0
M  V30 10364 N 957.809 1.4625 -0.587256 0
M  V30 10365 C 959.057 2.01963 -0.0744273 0
M  V30 10366 C 959.378 1.46065 1.29189 0
M  V30 10367 O 958.648 0.647077 1.84905 0
M  V30 10368 H 957.228 0.746597 -0.0245236 0
M  V30 10369 H 959.89 1.79299 -0.764063 0
M  V30 10370 H 958.986 3.12099 -0.00884894 0
M  V30 10371 N 959.287 0.325282 1.54207 0
M  V30 10372 C 960.533 -0.277185 2.00897 0
M  V30 10373 C 960.866 -1.51651 1.21308 0
M  V30 10374 O 960.141 -1.92237 0.295825 0
M  V30 10375 C 960.424 -0.60961 3.54902 0
M  V30 10376 C 960.277 0.640542 4.45216 0
M  V30 10377 C 961.596 -1.42656 4.16338 0
M  V30 10378 H 958.715 -0.0992722 0.730284 0
M  V30 10379 H 961.357 0.442201 1.84783 0
M  V30 10380 H 959.507 -1.22249 3.68765 0
M  V30 10381 H 961.179 1.27878 4.43221 0
M  V30 10382 H 959.422 1.26908 4.14821 0
M  V30 10383 H 960.093 0.363459 5.50802 0
M  V30 10384 H 962.569 -0.908494 4.06061 0
M  V30 10385 H 961.445 -1.62792 5.24204 0
M  V30 10386 H 961.706 -2.42321 3.69774 0
M  V30 10387 N 960.765 -1.57509 0.0534917 0
M  V30 10388 C 962.011 -1.93068 -0.62069 0
M  V30 10389 C 962.344 -0.932313 -1.70357 0
M  V30 10390 O 961.619 0.0413393 -1.94456 0
M  V30 10391 C 961.902 -3.38997 -1.21463 0
M  V30 10392 C 961.755 -4.49583 -0.13965 0
M  V30 10393 C 963.074 -3.85366 -2.12558 0
M  V30 10394 H 960.193 -0.702083 -0.224163 0
M  V30 10395 H 962.835 -1.89647 0.115729 0
M  V30 10396 H 960.985 -3.42043 -1.84226 0
M  V30 10397 H 962.657 -4.58664 0.492411 0
M  V30 10398 H 960.9 -4.30525 0.532006 0
M  V30 10399 H 961.571 -5.48781 -0.595287 0
M  V30 10400 H 964.047 -3.8421 -1.59755 0
M  V30 10401 H 962.923 -4.8812 -2.51058 0
M  V30 10402 H 963.184 -3.22256 -3.02661 0
M  V30 10403 N 962.243 0.219913 -1.56058 0
M  V30 10404 C 963.468 0.965073 -1.83579 0
M  V30 10405 C 963.893 1.77092 -0.634024 0
M  V30 10406 O 963.251 1.76434 0.417205 0
M  V30 10407 C 963.299 1.85705 -3.09105 0
M  V30 10408 O 962.403 2.95261 -2.87914 0
M  V30 10409 H 961.744 0.273173 -0.605204 0
M  V30 10410 H 964.274 0.23273 -2.03272 0
M  V30 10411 H 964.284 2.26655 -3.39252 0
M  V30 10412 H 962.959 1.26476 -3.96203 0
M  V30 10413 H 961.536 2.58246 -2.69005 0
M  V30 10414 N 963.721 1.49897 0.486681 0
M  V30 10415 C 964.651 1.7054 1.59494 0
M  V30 10416 C 965.632 0.554184 1.60819 0
M  V30 10417 O 966.817 0.791617 1.77333 0
M  V30 10418 C 963.947 1.78517 2.97908 0
M  V30 10419 C 962.901 2.93571 3.11449 0
M  V30 10420 C 962.227 2.86674 4.51356 0
M  V30 10421 C 963.527 4.34308 2.90127 0
M  V30 10422 H 965.221 2.63329 1.42472 0
M  V30 10423 H 962.767 1.2672 0.683969 0
M  V30 10424 H 964.72 1.91544 3.75352 0
M  V30 10425 H 963.444 0.823381 3.16051 0
M  V30 10426 H 962.103 2.80169 2.36433 0
M  V30 10427 H 961.751 1.88373 4.66395 0
M  V30 10428 H 961.451 3.63903 4.61355 0
M  V30 10429 H 962.975 3.01728 5.30841 0
M  V30 10430 H 964.389 4.48317 3.57331 0
M  V30 10431 H 962.786 5.12869 3.11585 0
M  V30 10432 H 963.856 4.47759 1.86119 0
M  V30 10433 N 965.199 -0.738761 1.39212 0
M  V30 10434 C 966.445 -1.50046 1.36433 0
M  V30 10435 C 966.778 -1.94157 -0.0409474 0
M  V30 10436 O 966.053 -1.66515 -1.00514 0
M  V30 10437 C 966.336 -2.74277 2.33333 0
M  V30 10438 C 966.189 -2.36209 3.82786 0
M  V30 10439 C 967.508 -3.76361 2.28123 0
M  V30 10440 H 964.627 -0.544294 0.496903 0
M  V30 10441 H 967.269 -0.845005 1.70175 0
M  V30 10442 H 965.419 -3.30204 2.04689 0
M  V30 10443 H 967.091 -1.85942 4.22165 0
M  V30 10444 H 965.334 -1.68483 3.99745 0
M  V30 10445 H 966.005 -3.25156 4.46069 0
M  V30 10446 H 968.481 -3.30009 2.53443 0
M  V30 10447 H 967.357 -4.60957 2.9801 0
M  V30 10448 H 967.618 -4.23013 1.28499 0
M  V30 10449 N 966.677 -1.24326 -0.968545 0
M  V30 10450 C 967.925 -1.08032 -1.70803 0
M  V30 10451 C 968.246 0.381728 -1.91227 0
M  V30 10452 O 967.516 1.27253 -1.48942 0
M  V30 10453 H 966.096 -0.396777 -0.632912 0
M  V30 10454 H 968.758 -1.56232 -1.16523 0
M  V30 10455 H 967.854 -1.57769 -2.69287 0
M  V30 10456 N 968.156 1.1691 -1.05688 0
M  V30 10457 C 969.404 1.86922 -0.768409 0
M  V30 10458 C 969.725 1.81735 0.706921 0
M  V30 10459 O 968.995 1.24671 1.51109 0
M  V30 10460 H 967.575 0.69203 -0.281253 0
M  V30 10461 H 970.237 1.41803 -1.33708 0
M  V30 10462 H 969.333 2.92528 -1.08783 0
M  V30 10463 N 969.634 0.838594 1.33437 0
M  V30 10464 C 971.045 0.490934 1.8013 0
M  V30 10465 C 971.396 -0.990024 1.6939 0
M  V30 10466 O 970.521 -1.77139 1.24302 0
M  V30 10467 C 971.116 0.884347 3.27055 0
M  V30 10468 C 969.675 0.588829 3.71766 0
M  V30 10469 C 968.822 1.09282 2.54858 0
M  V30 10470 H 971.773 1.02732 1.20962 0
M  V30 10471 H 971.794 0.194283 3.80004 0
M  V30 10472 H 971.306 1.96225 3.34839 0
M  V30 10473 H 969.407 -0.479018 3.69508 0
M  V30 10474 H 969.52 1.14387 4.65245 0
M  V30 10475 H 967.884 0.513702 2.49466 0
M  V30 10476 H 968.667 2.1775 2.65405 0
M  V30 10477 N 971.112 -1.45937 0.595003 0
M  V30 10478 C 972.337 -2.07207 0.0894416 0
M  V30 10479 C 972.762 -1.43884 -1.21157 0
M  V30 10480 O 972.12 -0.526998 -1.73472 0
M  V30 10481 C 972.168 -3.60565 -0.0499828 0
M  V30 10482 O 971.272 -3.97364 -1.10342 0
M  V30 10483 H 970.613 -0.660471 0.0683627 0
M  V30 10484 H 973.143 -1.87386 0.82144 0
M  V30 10485 H 973.153 -4.0722 -0.252234 0
M  V30 10486 H 971.828 -4.06044 0.90006 0
M  V30 10487 H 970.405 -3.62401 -0.878645 0
M  V30 10488 N 972.59 -0.333456 -1.54032 0
M  V30 10489 C 973.836 0.266527 -2.01041 0
M  V30 10490 C 974.169 1.51006 -1.2211 0
M  V30 10491 O 973.444 1.92078 -0.306016 0
M  V30 10492 C 973.727 0.59078 -3.55221 0
M  V30 10493 C 973.58 -0.664143 -4.4487 0
M  V30 10494 C 974.899 1.40447 -4.17088 0
M  V30 10495 H 972.018 0.0953979 -0.7308 0
M  V30 10496 H 974.66 -0.451995 -1.84545 0
M  V30 10497 H 972.81 1.20292 -3.69408 0
M  V30 10498 H 974.482 -1.30227 -4.42537 0
M  V30 10499 H 972.725 -1.29106 -4.14143 0
M  V30 10500 H 973.396 -0.392664 -5.50602 0
M  V30 10501 H 975.872 0.886946 -4.06537 0
M  V30 10502 H 974.748 1.6001 -5.2506 0
M  V30 10503 H 975.009 2.40357 -3.71054 0
M  V30 10504 N 974.068 1.57479 -0.061844 0
M  V30 10505 C 975.479 1.80627 0.472295 0
M  V30 10506 C 975.83 0.97496 1.70261 0
M  V30 10507 O 974.955 0.1946 2.15523 0
M  V30 10508 C 975.55 3.27608 0.863616 0
M  V30 10509 C 974.109 3.51638 1.34267 0
M  V30 10510 C 973.256 2.75412 0.323009 0
M  V30 10511 H 976.207 1.56072 -0.287634 0
M  V30 10512 H 976.228 3.39113 1.72577 0
M  V30 10513 H 975.74 3.88087 -0.0320226 0
M  V30 10514 H 973.841 2.96452 2.25714 0
M  V30 10515 H 973.954 4.60342 1.32747 0
M  V30 10516 H 972.318 2.4187 0.798175 0
M  V30 10517 H 973.101 3.38623 -0.564729 0
M  V30 10518 N 975.546 -0.211634 1.56173 0
M  V30 10519 C 976.774 -0.951184 1.83739 0
M  V30 10520 C 977.189 -1.7754 0.642252 0
M  V30 10521 O 976.546 -1.78302 -0.389174 0
M  V30 10522 C 976.597 -1.86075 3.09933 0
M  V30 10523 O 976.318 -1.06983 4.24837 0
M  V30 10524 C 977.819 -2.71337 3.50559 0
M  V30 10525 H 975.039 -0.278312 0.61056 0
M  V30 10526 H 977.583 -0.223871 2.03271 0
M  V30 10527 H 975.738 -2.54189 2.92347 0
M  V30 10528 H 976.152 -1.68815 4.9659 0
M  V30 10529 H 977.626 -3.30843 4.41868 0
M  V30 10530 H 978.103 -3.44226 2.72773 0
M  V30 10531 H 978.709 -2.0862 3.70618 0
M  V30 10532 N 977.024 -1.50153 -0.478725 0
M  V30 10533 C 978.249 -1.64776 -1.2595 0
M  V30 10534 C 978.674 -0.327794 -1.85222 0
M  V30 10535 O 978.032 0.707418 -1.66929 0
M  V30 10536 C 978.08 -2.73551 -2.34952 0
M  V30 10537 O 977.184 -2.34273 -3.39397 0
M  V30 10538 H 976.525 -0.550769 -0.370877 0
M  V30 10539 H 979.055 -1.96482 -0.570605 0
M  V30 10540 H 979.065 -2.96397 -2.8038 0
M  V30 10541 H 977.74 -3.69354 -1.91181 0
M  V30 10542 H 976.317 -2.21844 -2.99733 0
M  V30 10543 N 978.502 0.731368 -1.39602 0
M  V30 10544 C 979.913 1.30981 -1.33045 0
M  V30 10545 C 980.264 1.962 0.00349918 0
M  V30 10546 O 979.389 1.96539 0.905615 0
M  V30 10547 C 979.984 2.3817 -2.40958 0
M  V30 10548 C 978.543 2.91678 -2.3791 0
M  V30 10549 C 977.69 1.65286 -2.22656 0
M  V30 10550 H 980.641 0.528615 -1.49637 0
M  V30 10551 H 980.662 3.18645 -2.07955 0
M  V30 10552 H 980.174 1.90673 -3.38032 0
M  V30 10553 H 978.275 3.43446 -1.44485 0
M  V30 10554 H 978.388 3.44545 -3.32904 0
M  V30 10555 H 976.752 1.89759 -1.69893 0
M  V30 10556 H 977.535 1.19836 -3.21705 0
M  V30 10557 N 979.98 1.24838 0.961938 0
M  V30 10558 C 981.226 1.09313 1.70817 0
M  V30 10559 C 981.559 -0.366244 1.90715 0
M  V30 10560 O 980.834 -1.27036 1.47282 0
M  V30 10561 C 981.117 1.83988 3.09549 0
M  V30 10562 C 980.97 3.3771 2.97106 0
M  V30 10563 C 982.289 1.61718 4.09311 0
M  V30 10564 H 979.408 0.398498 0.619974 0
M  V30 10565 H 982.05 1.53579 1.11864 0
M  V30 10566 H 980.2 1.46363 3.59875 0
M  V30 10567 H 981.872 3.84967 2.54161 0
M  V30 10568 H 980.115 3.65795 2.33187 0
M  V30 10569 H 980.786 3.85166 3.95412 0
M  V30 10570 H 983.262 1.94458 3.67866 0
M  V30 10571 H 982.138 2.16415 5.04436 0
M  V30 10572 H 982.399 0.55677 4.3858 0
M  V30 10573 N 981.458 -1.16348 1.06306 0
M  V30 10574 C 982.706 -1.86512 0.778311 0
M  V30 10575 C 983.027 -1.82107 -0.697273 0
M  V30 10576 O 982.297 -1.2547 -1.50446 0
M  V30 10577 H 980.877 -0.690529 0.284919 0
M  V30 10578 H 983.539 -1.41092 1.34458 0
M  V30 10579 H 982.635 -2.91947 1.10333 0
M  V30 10580 N 982.937 -0.845659 -1.3299 0
M  V30 10581 C 983.869 -0.241097 -2.27928 0
M  V30 10582 C 984.882 0.582048 -1.5204 0
M  V30 10583 O 986.071 0.408008 -1.73774 0
M  V30 10584 C 983.171 0.678652 -3.32035 0
M  V30 10585 C 982.344 -0.106652 -4.3727 0
M  V30 10586 C 981.403 0.737478 -5.21006 0
M  V30 10587 O 980.429 0.174231 -5.68933 0
M  V30 10588 N 981.631 2.05372 -5.42957 0
M  V30 10589 H 984.396 -1.05685 -2.80448 0
M  V30 10590 H 981.957 -0.704771 -1.45755 0
M  V30 10591 H 983.949 1.24849 -3.84961 0
M  V30 10592 H 982.519 1.3951 -2.79742 0
M  V30 10593 H 981.739 -0.857897 -3.84752 0
M  V30 10594 H 983.027 -0.646386 -5.04677 0
M  V30 10595 H 982.425 2.53478 -5.05733 0
M  V30 10596 H 980.982 2.5719 -5.98913 0
M  V30 10597 N 984.415 1.45619 -0.602734 0
M  V30 10598 C 985.345 2.33258 0.106342 0
M  V30 10599 C 986.326 1.46543 0.863664 0
M  V30 10600 O 987.511 1.75324 0.835175 0
M  V30 10601 C 984.641 3.29168 1.10751 0
M  V30 10602 C 983.595 4.25481 0.463717 0
M  V30 10603 C 982.921 5.11046 1.57278 0
M  V30 10604 C 984.221 5.18702 -0.61199 0
M  V30 10605 H 985.915 2.92795 -0.625423 0
M  V30 10606 H 983.461 1.40793 -0.302213 0
M  V30 10607 H 985.414 3.89346 1.61208 0
M  V30 10608 H 984.138 2.6778 1.8698 0
M  V30 10609 H 982.797 3.66595 -0.0199496 0
M  V30 10610 H 982.445 4.46029 2.32524 0
M  V30 10611 H 982.145 5.76286 1.14755 0
M  V30 10612 H 983.669 5.74091 2.07972 0
M  V30 10613 H 985.083 5.72979 -0.191686 0
M  V30 10614 H 983.48 5.92393 -0.958686 0
M  V30 10615 H 984.55 4.61424 -1.4905 0
M  V30 10616 N 985.893 0.34162 1.53853 0
M  V30 10617 C 986.823 -0.508431 2.27897 0
M  V30 10618 C 987.804 -1.10425 1.29384 0
M  V30 10619 O 988.989 -1.126 1.58224 0
M  V30 10620 C 986.119 -1.66048 3.05034 0
M  V30 10621 C 985.073 -1.19309 4.11035 0
M  V30 10622 C 984.399 -2.4335 4.76114 0
M  V30 10623 C 985.699 -0.294952 5.21467 0
M  V30 10624 H 987.393 0.109251 2.99201 0
M  V30 10625 H 984.939 0.0539847 1.43899 0
M  V30 10626 H 986.892 -2.26158 3.5557 0
M  V30 10627 H 985.616 -2.30503 2.31379 0
M  V30 10628 H 984.275 -0.614809 3.61408 0
M  V30 10629 H 983.923 -3.06208 3.99056 0
M  V30 10630 H 983.623 -2.1276 5.47729 0
M  V30 10631 H 985.147 -3.0419 5.29434 0
M  V30 10632 H 986.561 -0.80285 5.67651 0
M  V30 10633 H 984.958 -0.0810221 6.00045 0
M  V30 10634 H 986.028 0.669433 4.80257 0
M  V30 10635 N 987.371 -1.57444 0.0701946 0
M  V30 10636 C 988.782 -1.80875 -0.462709 0
M  V30 10637 C 989.133 -0.983975 -1.69742 0
M  V30 10638 O 988.258 -0.206027 -2.15417 0
M  V30 10639 C 988.853 -3.28062 -0.84623 0
M  V30 10640 C 987.412 -3.52345 -1.32401 0
M  V30 10641 C 986.559 -2.7558 -0.308399 0
M  V30 10642 H 989.51 -1.55917 0.295907 0
M  V30 10643 H 989.531 -3.40023 -1.70776 0
M  V30 10644 H 989.043 -3.88064 0.0526033 0
M  V30 10645 H 987.144 -2.97645 -2.24139 0
M  V30 10646 H 987.257 -4.6104 -1.30304 0
M  V30 10647 H 985.621 -2.4229 -0.785337 0
M  V30 10648 H 986.404 -3.38319 0.582679 0
M  V30 10649 N 988.849 0.203349 -1.56283 0
M  V30 10650 C 989.759 1.27266 -1.9708 0
M  V30 10651 C 990.775 1.50268 -0.877236 0
M  V30 10652 O 991.951 1.63044 -1.18231 0
M  V30 10653 C 989.016 2.59871 -2.29495 0
M  V30 10654 C 988.077 2.45012 -3.52516 0
M  V30 10655 C 987.31 3.71293 -3.83376 0
M  V30 10656 O 987.533 4.75106 -3.15643 0
M  V30 10657 O 986.467 3.67316 -4.76826 0
M  V30 10658 H 990.293 0.956461 -2.88246 0
M  V30 10659 H 987.878 0.407688 -1.4373 0
M  V30 10660 H 989.76 3.38152 -2.51458 0
M  V30 10661 H 988.435 2.91135 -1.415 0
M  V30 10662 H 987.342 1.6487 -3.35811 0
M  V30 10663 H 988.675 2.18683 -4.40952 0
M  V30 10664 N 990.327 1.50405 0.470755 0
M  V30 10665 C 991.573 1.6165 1.22462 0
M  V30 10666 C 991.906 0.316034 1.91611 0
M  V30 10667 O 991.181 -0.682509 1.82132 0
M  V30 10668 C 991.464 2.79702 2.26801 0
M  V30 10669 C 991.317 4.19631 1.61955 0
M  V30 10670 C 992.636 2.93313 3.28109 0
M  V30 10671 H 989.755 0.588345 0.443868 0
M  V30 10672 H 992.397 1.82792 0.518376 0
M  V30 10673 H 990.547 2.61807 2.87036 0
M  V30 10674 H 992.219 4.49117 1.05316 0
M  V30 10675 H 990.462 4.23874 0.922674 0
M  V30 10676 H 991.133 4.98162 2.37779 0
M  V30 10677 H 993.609 3.09697 2.77897 0
M  V30 10678 H 992.485 3.77537 3.98443 0
M  V30 10679 H 992.746 2.03942 3.9225 0
M  V30 10680 N 991.805 -0.723954 1.39988 0
M  V30 10681 C 993.054 -1.47922 1.3712 0
M  V30 10682 C 993.367 -1.95582 -0.0263665 0
M  V30 10683 O 994.573 -2.70918 -0.177652 0
M  V30 10684 C 993.029 -2.67342 2.40949 0
M  V30 10685 C 992.637 -2.26586 3.86475 0
M  V30 10686 C 994.381 -3.45116 2.47174 0
M  V30 10687 C 992.288 -3.42794 4.81919 0
M  V30 10688 H 991.218 -0.555522 0.509815 0
M  V30 10689 H 993.869 -0.788692 1.65686 0
M  V30 10690 H 992.251 -3.38524 2.0547 0
M  V30 10691 H 993.425 -1.62878 4.31054 0
M  V30 10692 H 991.74 -1.61876 3.83647 0
M  V30 10693 H 994.337 -4.31573 3.15672 0
M  V30 10694 H 994.68 -3.8835 1.49966 0
M  V30 10695 H 995.213 -2.80971 2.81602 0
M  V30 10696 H 991.952 -3.046 5.8043 0
M  V30 10697 H 991.472 -4.05445 4.42012 0
M  V30 10698 H 993.151 -4.08977 5.01345 0
M  V30 10699 N 993.283 -1.25346 -0.955304 0
M  V30 10700 C 994.532 -1.0945 -1.69421 0
M  V30 10701 C 994.845 0.364459 -1.92175 0
M  V30 10702 O 996.051 0.643843 -2.63755 0
M  V30 10703 C 994.507 -1.91045 -3.05008 0
M  V30 10704 C 994.115 -3.41428 -2.90053 0
M  V30 10705 C 995.859 -1.83716 -3.82686 0
M  V30 10706 C 993.766 -4.1532 -4.21026 0
M  V30 10707 H 992.696 -0.405978 -0.635372 0
M  V30 10708 H 995.347 -1.49536 -1.06354 0
M  V30 10709 H 993.729 -1.43781 -3.68975 0
M  V30 10710 H 994.903 -3.9636 -2.35022 0
M  V30 10711 H 993.218 -3.49842 -2.25831 0
M  V30 10712 H 995.815 -2.36217 -4.79693 0
M  V30 10713 H 996.158 -0.804919 -4.08444 0
M  V30 10714 H 996.691 -2.28726 -3.25468 0
M  V30 10715 H 993.43 -5.18955 -4.00457 0
M  V30 10716 H 992.95 -3.65172 -4.75825 0
M  V30 10717 H 994.629 -4.22999 -4.89572 0
M  V30 10718 N 994.761 1.15782 -1.06922 0
M  V30 10719 C 996.038 1.8253 -0.703 0
M  V30 10720 C 996.418 1.94733 0.814994 0
M  V30 10721 O 995.766 1.49537 1.72774 0
M  V30 10722 C 995.976 3.19145 -1.41234 0
M  V30 10723 C 997.324 3.94839 -1.56164 0
M  V30 10724 O 998.348 3.28685 -1.37277 0
M  V30 10725 O 997.207 5.13436 -1.87205 0
M  V30 10726 H 994.301 0.788425 -0.24963 0
M  V30 10727 H 996.847 1.22931 -1.16988 0
M  V30 10728 H 995.619 3.05336 -2.44715 0
M  V30 10729 H 995.242 3.86427 -0.935959 0
M  V30 10730 N 996.239 0.8527 1.3254 0
M  V30 10731 C 997.186 0.293905 2.28921 0
M  V30 10732 C 998.156 -0.598027 1.54961 0
M  V30 10733 O 999.341 -0.533355 1.83194 0
M  V30 10734 C 996.481 -0.513361 3.4126 0
M  V30 10735 C 995.594 0.404144 4.30105 0
M  V30 10736 C 994.729 -0.415564 5.29572 0
M  V30 10737 C 993.768 0.499461 6.10059 0
M  V30 10738 N 992.905 -0.282949 7.0153 0
M  V30 10739 H 997.745 1.12107 2.76109 0
M  V30 10740 H 995.282 0.564272 1.35847 0
M  V30 10741 H 997.24 -0.997008 4.05112 0
M  V30 10742 H 995.87 -1.30537 2.95229 0
M  V30 10743 H 994.922 1.00617 3.66852 0
M  V30 10744 H 996.234 1.10648 4.86373 0
M  V30 10745 H 995.388 -0.962458 5.99017 0
M  V30 10746 H 994.127 -1.15127 4.73917 0
M  V30 10747 H 993.132 1.05825 5.39519 0
M  V30 10748 H 994.357 1.23375 6.67799 0
M  V30 10749 H 992.303 -1.00179 6.48306 0
M  V30 10750 H 992.22 0.36039 7.55141 0
M  V30 10751 H 993.488 -0.811632 7.75263 0
M  V30 10752 N 997.718 -1.45297 0.610449 0
M  V30 10753 C 999.129 -1.85715 0.191488 0
M  V30 10754 C 999.48 -1.51036 -1.25229 0
M  V30 10755 O 998.605 -0.938422 -1.94994 0
M  V30 10756 C 999.2 -3.37082 0.340747 0
M  V30 10757 C 997.759 -3.76393 -0.0235433 0
M  V30 10758 C 996.906 -2.69237 0.663849 0
M  V30 10759 H 999.857 -1.36058 0.816948 0
M  V30 10760 H 999.878 -3.78105 -0.426233 0
M  V30 10761 H 999.39 -3.62291 1.39164 0
M  V30 10762 H 997.491 -3.56801 -1.07351 0
M  V30 10763 H 997.604 -4.77653 0.372102 0
M  V30 10764 H 995.968 -2.54499 0.101204 0
M  V30 10765 H 996.751 -2.97281 1.71694 0
M  V30 10766 N 999.196 -0.349774 -1.5367 0
M  V30 10767 C 1000.16 0.491676 -2.23864 0
M  V30 10768 C 1001.16 1.02256 -1.24098 0
M  V30 10769 O 1002.35 0.910816 -1.48492 0
M  V30 10770 C 999.481 1.68557 -2.96313 0
M  V30 10771 H 1000.67 -0.12233 -2.9965 0
M  V30 10772 H 998.227 -0.101214 -1.55972 0
M  V30 10773 H 998.962 2.3381 -2.2473 0
M  V30 10774 H 998.747 1.31203 -3.69497 0
M  V30 10775 H 1000.24 2.28225 -3.49718 0
M  V30 10776 N 1000.67 1.57404 -0.0785433 0
M  V30 10777 C 1001.9 1.98074 0.597862 0
M  V30 10778 C 1002.32 0.95714 1.6274 0
M  V30 10779 O 1001.67 -0.0553728 1.82416 0
M  V30 10780 C 1001.72 3.38815 1.26041 0
M  V30 10781 O 1001.45 4.37254 0.27207 0
M  V30 10782 C 1002.95 3.94397 2.024 0
M  V30 10783 H 1000.17 0.651263 0.161546 0
M  V30 10784 H 1002.71 2.03927 -0.152941 0
M  V30 10785 H 1000.87 3.34028 1.96225 0
M  V30 10786 H 1001.28 5.19136 0.74822 0
M  V30 10787 H 1002.75 4.95075 2.4414 0
M  V30 10788 H 1003.23 3.31308 2.88326 0
M  V30 10789 H 1003.84 4.02607 1.37068 0
M  V30 10790 N 1002.15 -0.195058 1.56388 0
M  V30 10791 C 1003.43 -0.941335 1.71459 0
M  V30 10792 C 1003.81 -2.01375 0.633336 0
M  V30 10793 O 1003.16 -2.25715 -0.35567 0
M  V30 10794 C 1003.37 -1.52772 3.13786 0
M  V30 10795 C 1004.71 -2.00983 3.7402 0
M  V30 10796 O 1005.74 -1.62614 3.16915 0
M  V30 10797 O 1004.6 -2.71586 4.7424 0
M  V30 10798 H 1001.69 -0.441451 0.699321 0
M  V30 10799 H 1004.24 -0.184752 1.68691 0
M  V30 10800 H 1003.01 -0.754699 3.83953 0
M  V30 10801 H 1002.63 -2.34914 3.20782 0
M  V30 10802 N 1003.63 -1.50653 -0.462772 0
M  V30 10803 C 1004.91 -1.5258 -1.22387 0
M  V30 10804 C 1005.29 -0.275263 -2.09298 0
M  V30 10805 O 1004.63 0.740943 -2.16153 0
M  V30 10806 C 1004.84 -2.82611 -2.04773 0
M  V30 10807 C 1006.19 -3.33592 -2.62681 0
M  V30 10808 O 1007.22 -2.83989 -2.15008 0
M  V30 10809 O 1006.08 -4.20081 -3.49563 0
M  V30 10810 H 1003.17 -0.612367 -0.55582 0
M  V30 10811 H 1005.72 -1.62948 -0.473914 0
M  V30 10812 H 1004.49 -3.65098 -1.40781 0
M  V30 10813 H 1004.11 -2.75286 -2.86886 0
M  V30 10814 N 1005.11 0.71652 -1.4037 0
M  V30 10815 C 1006.06 1.85194 -1.40734 0
M  V30 10816 C 1007.05 1.66934 -0.287969 0
M  V30 10817 O 1008.26 1.74051 -0.458957 0
M  V30 10818 H 1004.63 0.609922 -0.439885 0
M  V30 10819 H 1006.6 1.82003 -2.36468 0
M  V30 10820 C 1005.35 3.23048 -1.28589 0
M  V30 10821 H 1004.67 3.37704 -2.13999 0
M  V30 10822 H 1006.11 4.02633 -1.32902 0
M  V30 10823 C 1004.57 3.369 0.00396512 0
M  V30 10824 O 1005.1 3.89881 0.967243 0
M  V30 10825 N 1003.31 2.90508 0.0731565 0
M  V30 10826 H 1002.86 2.4758 -0.711454 0
M  V30 10827 H 1002.81 3.00155 0.935652 0
M  V30 10828 N 1006.59 1.25851 0.948643 0
M  V30 10829 C 1007.83 1.10735 1.69062 0
M  V30 10830 C 1008.16 -0.351257 1.9181 0
M  V30 10831 O 1007.43 -1.24867 1.50947 0
M  V30 10832 H 1006.01 0.406796 0.626519 0
M  V30 10833 H 1008.67 1.58066 1.14022 0
M  V30 10834 H 1007.76 1.62033 2.66743 0
M  V30 10835 N 1008.06 -1.15214 1.07534 0
M  V30 10836 C 1009.29 -1.89922 0.820804 0
M  V30 10837 C 1009.71 -1.78114 -0.626177 0
M  V30 10838 O 1009.06 -1.13435 -1.42964 0
M  V30 10839 C 1009.12 -3.40207 1.22236 0
M  V30 10840 O 1008.84 -3.51676 2.61257 0
M  V30 10841 C 1010.34 -4.31934 0.997393 0
M  V30 10842 H 1007.56 -0.601865 0.296647 0
M  V30 10843 H 1010.1 -1.45965 1.43229 0
M  V30 10844 H 1008.26 -3.8182 0.655167 0
M  V30 10845 H 1008.67 -4.44959 2.77689 0
M  V30 10846 H 1010.14 -5.35791 1.32785 0
M  V30 10847 H 1010.62 -4.3915 -0.0661599 0
M  V30 10848 H 1011.23 -3.96066 1.54958 0
M  V30 10849 N 1009.54 -0.859717 -1.32086 0
M  V30 10850 C 1010.77 -0.479724 -2.01262 0
M  V30 10851 C 1011.19 0.924985 -1.64589 0
M  V30 10852 O 1010.54 1.60439 -0.869803 0
M  V30 10853 C 1010.59 -0.615128 -3.56228 0
M  V30 10854 O 1010.31 -1.96451 -3.91585 0
M  V30 10855 C 1011.82 -0.234804 -4.42678 0
M  V30 10856 H 1009.04 -0.188007 -0.644123 0
M  V30 10857 H 1011.58 -1.15805 -1.68551 0
M  V30 10858 H 1009.73 0.0155268 -3.87397 0
M  V30 10859 H 1010.15 -1.96491 -4.86304 0
M  V30 10860 H 1011.62 -0.380534 -5.50687 0
M  V30 10861 H 1012.1 0.825189 -4.31378 0
M  V30 10862 H 1012.71 -0.840739 -4.16907 0
M  V30 10863 N 1011.02 1.44971 -0.618145 0
M  V30 10864 C 1012.25 2.06527 -0.124165 0
M  V30 10865 C 1012.66 1.46097 1.19588 0
M  V30 10866 O 1012.02 0.57901 1.73071 0
M  V30 10867 C 1012.07 3.61498 0.0106701 0
M  V30 10868 O 1011.79 4.19675 -1.25716 0
M  V30 10869 C 1013.29 4.40061 0.534872 0
M  V30 10870 H 1010.51 0.666941 -0.0736935 0
M  V30 10871 H 1013.06 1.8605 -0.848871 0
M  V30 10872 H 1011.21 3.81282 0.685752 0
M  V30 10873 H 1011.63 5.12972 -1.09362 0
M  V30 10874 H 1013.1 5.48963 0.57827 0
M  V30 10875 H 1013.58 4.10587 1.55931 0
M  V30 10876 H 1014.18 4.25167 -0.10652 0
M  V30 10877 N 1012.5 0.357919 1.53482 0
M  V30 10878 C 1013.41 -0.500273 2.29204 0
M  V30 10879 C 1014.42 -1.09936 1.3487 0
M  V30 10880 O 1015.6 -1.11195 1.67921 0
M  V30 10881 C 1012.67 -1.62828 3.06085 0
M  V30 10882 C 1011.73 -1.05751 4.16071 0
M  V30 10883 C 1010.96 -2.13176 4.89277 0
M  V30 10884 O 1011.18 -3.34153 4.62274 0
M  V30 10885 O 1010.12 -1.76663 5.7539 0
M  V30 10886 H 1013.94 0.115696 3.0348 0
M  V30 10887 H 1011.53 0.122527 1.48897 0
M  V30 10888 H 1013.41 -2.28427 3.54117 0
M  V30 10889 H 1012.08 -2.22979 2.34653 0
M  V30 10890 H 1010.99 -0.365642 3.72309 0
M  V30 10891 H 1012.32 -0.500661 4.89647 0
M  V30 10892 N 1013.98 -1.5736 0.0868897 0
M  V30 10893 C 1015.2 -1.98388 -0.587349 0
M  V30 10894 C 1015.62 -0.965757 -1.6223 0
M  V30 10895 O 1014.98 0.0456981 -1.82443 0
M  V30 10896 C 1015.03 -3.39479 -1.24242 0
M  V30 10897 O 1014.75 -4.37393 -0.248878 0
M  V30 10898 C 1016.25 -3.95465 -2.00305 0
M  V30 10899 H 1013.47 -0.652111 -0.15809 0
M  V30 10900 H 1016.01 -2.03843 0.163754 0
M  V30 10901 H 1014.17 -3.35063 -1.94451 0
M  V30 10902 H 1014.58 -5.19525 -0.720678 0
M  V30 10903 H 1016.06 -4.96363 -2.41511 0
M  V30 10904 H 1016.53 -3.32832 -2.86565 0
M  V30 10905 H 1017.14 -4.03328 -1.34931 0
M  V30 10906 N 1015.45 0.186762 -1.56489 0
M  V30 10907 C 1016.36 1.25169 -1.98419 0
M  V30 10908 C 1017.38 1.49329 -0.893124 0
M  V30 10909 O 1018.56 1.61781 -1.19954 0
M  V30 10910 C 1015.62 2.57422 -2.32239 0
M  V30 10911 C 1014.68 2.4126 -3.55095 0
M  V30 10912 C 1013.92 3.67206 -3.87292 0
M  V30 10913 O 1014.14 4.71731 -3.20665 0
M  V30 10914 O 1013.07 3.62238 -4.80695 0
M  V30 10915 H 1016.9 0.925834 -2.89244 0
M  V30 10916 H 1014.48 0.392421 -1.44154 0
M  V30 10917 H 1016.37 3.35466 -2.5503 0
M  V30 10918 H 1015.04 2.89618 -1.44579 0
M  V30 10919 H 1013.95 1.61299 -3.37541 0
M  V30 10920 H 1015.28 2.13994 -4.43247 0
M  V30 10921 N 1016.93 1.50896 0.454776 0
M  V30 10922 C 1017.87 1.65608 1.57001 0
M  V30 10923 C 1018.84 0.50387 1.54596 0
M  V30 10924 O 1020.03 0.725485 1.7398 0
M  V30 10925 C 1017.15 1.65366 2.95587 0
M  V30 10926 C 1016.2 2.86344 3.16085 0
M  V30 10927 S 1017.03 4.47418 2.9424 0
M  V30 10928 C 1018.19 4.49895 4.35138 0
M  V30 10929 H 1018.42 2.59941 1.44285 0
M  V30 10930 H 1015.96 1.40362 0.643264 0
M  V30 10931 H 1017.91 1.65911 3.75478 0
M  V30 10932 H 1016.57 0.722407 3.0568 0
M  V30 10933 H 1015.77 2.82526 4.17367 0
M  V30 10934 H 1015.37 2.8345 2.43992 0
M  V30 10935 H 1017.66 4.24462 5.28051 0
M  V30 10936 H 1018.6 5.5161 4.43995 0
M  V30 10937 H 1019.01 3.79412 4.17979 0
M  V30 10938 N 1018.41 -0.709066 1.40748 0
M  V30 10939 C 1019.83 -1.01797 1.22921 0
M  V30 10940 C 1020.03 -2.01205 0.109011 0
M  V30 10941 O 1019.08 -2.46854 -0.530987 0
M  V30 10942 C 1020.4 -1.55546 2.57344 0
M  V30 10943 C 1021.94 -1.67498 2.64412 0
M  V30 10944 C 1022.42 -2.24652 3.99119 0
M  V30 10945 N 1023.91 -2.3203 4.00895 0
M  V30 10946 C 1024.64 -2.7725 5.01917 0
M  V30 10947 N 1024.14 -3.22174 6.13332 0
M  V30 10948 N 1025.93 -2.76692 4.89283 0
M  V30 10949 H 1018.08 -0.0502704 2.12341 0
M  V30 10950 H 1020.35 -0.0848933 0.944191 0
M  V30 10951 H 1020.05 -0.899631 3.39999 0
M  V30 10952 H 1019.93 -2.53971 2.78888 0
M  V30 10953 H 1022.31 -2.32196 1.82123 0
M  V30 10954 H 1022.4 -0.676553 2.46691 0
M  V30 10955 H 1022.04 -1.60573 4.81849 0
M  V30 10956 H 1021.97 -3.25221 4.14173 0
M  V30 10957 H 1024.46 -2.00309 3.20444 0
M  V30 10958 H 1024.77 -3.55265 6.86299 0
M  V30 10959 H 1023.12 -3.20116 6.16888 0
M  V30 10960 H 1026.31 -2.40936 4.01332 0
M  V30 10961 H 1026.48 -3.11617 5.68154 0
M  V30 10962 N 1019.89 -1.26353 -0.941956 0
M  V30 10963 C 1020.84 -1.07842 -2.04056 0
M  V30 10964 C 1021.81 0.0163064 -1.66092 0
M  V30 10965 O 1022.99 -0.143313 -1.90261 0
M  V30 10966 C 1020.13 -0.716636 -3.37577 0
M  V30 10967 C 1019.24 -1.88754 -3.88582 0
M  V30 10968 C 1018.38 -1.46893 -5.10486 0
M  V30 10969 C 1017.42 -2.60819 -5.53751 0
M  V30 10970 N 1016.56 -2.19646 -6.66858 0
M  V30 10971 H 1021.4 -2.01856 -2.19221 0
M  V30 10972 H 1018.93 -1.00504 -1.07412 0
M  V30 10973 H 1020.89 -0.487768 -4.14339 0
M  V30 10974 H 1019.52 0.18653 -3.22261 0
M  V30 10975 H 1018.57 -2.22936 -3.08227 0
M  V30 10976 H 1019.88 -2.74264 -4.1663 0
M  V30 10977 H 1019.04 -1.20047 -5.94705 0
M  V30 10978 H 1017.78 -0.584721 -4.84182 0
M  V30 10979 H 1016.78 -2.88396 -4.6809 0
M  V30 10980 H 1018.01 -3.49838 -5.82057 0
M  V30 10981 H 1015.95 -1.33657 -6.4224 0
M  V30 10982 H 1015.87 -2.987 -6.94489 0
M  V30 10983 H 1017.14 -1.96009 -7.54454 0
M  V30 10984 N 1021.37 1.14642 -1.08144 0
M  V30 10985 C 1022.78 1.37604 -0.808537 0
M  V30 10986 C 1022.98 1.92868 0.583452 0
M  V30 10987 O 1022.04 2.13964 1.34073 0
M  V30 10988 C 1023.35 2.3396 -1.889 0
M  V30 10989 C 1024.9 2.47605 -1.9147 0
M  V30 10990 C 1025.38 3.47258 -2.98623 0
M  V30 10991 N 1026.87 3.548 -2.97777 0
M  V30 10992 C 1027.6 4.31751 -3.77331 0
M  V30 10993 N 1027.1 5.11966 -4.66757 0
M  V30 10994 N 1028.89 4.2692 -3.65645 0
M  V30 10995 H 1021.04 0.771154 -1.97906 0
M  V30 10996 H 1023.3 0.401694 -0.858688 0
M  V30 10997 H 1023.01 2.00484 -2.88962 0
M  V30 10998 H 1022.88 3.33833 -1.756 0
M  V30 10999 H 1025.27 2.80375 -0.920548 0
M  V30 11000 H 1025.35 1.47702 -2.08848 0
M  V30 11001 H 1025 3.15223 -3.98243 0
M  V30 11002 H 1024.93 4.46935 -2.7849 0
M  V30 11003 H 1027.42 2.97553 -2.3296 0
M  V30 11004 H 1027.73 5.67951 -5.24072 0
M  V30 11005 H 1026.08 5.11245 -4.70801 0
M  V30 11006 H 1029.27 3.63322 -2.95152 0
M  V30 11007 H 1029.44 4.8664 -4.27885 0
M  V30 11008 N 1022.85 0.866709 1.31628 0
M  V30 11009 C 1024.26 0.558188 1.49521 0
M  V30 11010 C 1024.46 -0.90844 1.7986 0
M  V30 11011 O 1023.52 -1.6908 1.87531 0
M  V30 11012 C 1024.83 1.45559 2.63122 0
M  V30 11013 C 1026.38 1.45728 2.77006 0
M  V30 11014 C 1026.85 2.34017 3.937 0
M  V30 11015 N 1028.34 2.31879 4.00982 0
M  V30 11016 C 1029.08 2.96915 4.90539 0
M  V30 11017 N 1028.58 3.71109 5.85021 0
M  V30 11018 N 1030.37 2.86241 4.83759 0
M  V30 11019 H 1022.52 1.81574 1.10203 0
M  V30 11020 H 1024.78 0.77621 0.544244 0
M  V30 11021 H 1024.49 2.49904 2.47469 0
M  V30 11022 H 1024.36 1.15174 3.59186 0
M  V30 11023 H 1026.75 0.421419 2.92075 0
M  V30 11024 H 1026.83 1.80134 1.81619 0
M  V30 11025 H 1026.47 3.37678 3.79389 0
M  V30 11026 H 1026.4 1.96937 4.88388 0
M  V30 11027 H 1028.9 1.77948 3.33381 0
M  V30 11028 H 1029.21 4.1787 6.5008 0
M  V30 11029 H 1027.55 3.75217 5.8501 0
M  V30 11030 H 1030.74 2.27819 4.08921 0
M  V30 11031 H 1030.92 3.37206 5.5335 0
M  V30 11032 N 1024.32 -1.44642 0.625825 0
M  V30 11033 C 1025.55 -2.06971 0.133373 0
M  V30 11034 C 1025.97 -1.46421 -1.18078 0
M  V30 11035 O 1025.33 -0.563676 -1.72315 0
M  V30 11036 C 1025.38 -3.6059 0.0265097 0
M  V30 11037 O 1024.48 -3.99615 -1.01889 0
M  V30 11038 H 1023.82 -0.658873 0.0823568 0
M  V30 11039 H 1026.35 -1.85601 0.861002 0
M  V30 11040 H 1026.36 -4.07663 -0.1658 0
M  V30 11041 H 1025.04 -4.04043 0.985986 0
M  V30 11042 H 1023.62 -3.64183 -0.801577 0
M  V30 11043 N 1025.8 -0.366053 -1.5329 0
M  V30 11044 C 1027.03 0.226839 -2.06156 0
M  V30 11045 C 1027.45 1.41637 -1.23776 0
M  V30 11046 O 1026.81 1.7947 -0.256948 0
M  V30 11047 C 1026.86 0.597956 -3.55608 0
M  V30 11048 O 1025.96 1.69512 -3.75951 0
M  V30 11049 H 1025.3 0.0329156 -0.663184 0
M  V30 11050 H 1027.83 -0.526793 -1.97702 0
M  V30 11051 H 1027.84 0.868831 -3.98642 0
M  V30 11052 H 1026.52 -0.271838 -4.15011 0
M  V30 11053 H 1025.09 1.41976 -3.44815 0
M  V30 11054 N 1027.28 1.57312 -0.0952337 0
M  V30 11055 C 1028.5 1.99119 0.580206 0
M  V30 11056 C 1028.93 0.973955 1.60922 0
M  V30 11057 O 1028.29 -0.0575338 1.81209 0
M  V30 11058 C 1028.34 3.39893 1.20438 0
M  V30 11059 O 1027.44 3.40941 2.32019 0
M  V30 11060 H 1026.78 0.64748 0.147195 0
M  V30 11061 H 1029.31 2.03836 -0.176686 0
M  V30 11062 H 1029.32 3.7759 1.54564 0
M  V30 11063 H 1028 4.13453 0.450514 0
M  V30 11064 H 1026.57 3.1504 1.9951 0
M  V30 11065 N 1028.76 -0.17846 1.56586 0
M  V30 11066 C 1030 -0.896235 1.81587 0
M  V30 11067 C 1030.33 -1.82553 0.671168 0
M  V30 11068 O 1029.59 -1.92688 -0.342046 0
M  V30 11069 C 1029.89 -1.73063 3.12704 0
M  V30 11070 C 1029.55 -0.950877 4.4076 0
M  V30 11071 C 1028.21 -0.735647 4.75544 0
M  V30 11072 C 1030.57 -0.403419 5.19636 0
M  V30 11073 C 1027.89 0.0382562 5.86688 0
M  V30 11074 C 1030.25 0.357359 6.3159 0
M  V30 11075 C 1028.91 0.583455 6.64945 0
M  V30 11076 H 1028.18 -0.327956 0.664474 0
M  V30 11077 H 1030.83 -0.161586 1.90817 0
M  V30 11078 H 1029.13 -2.53446 2.98785 0
M  V30 11079 H 1030.83 -2.28891 3.29257 0
M  V30 11080 H 1027.42 -1.12866 4.13472 0
M  V30 11081 H 1031.6 -0.557059 4.93164 0
M  V30 11082 H 1026.86 0.223237 6.10992 0
M  V30 11083 H 1031.03 0.788861 6.91918 0
M  V30 11084 H 1028.66 1.18502 7.50907 0
M  V30 11085 N 1030.24 -1.51135 -0.446768 0
M  V30 11086 C 1031.19 -1.68152 -1.53977 0
M  V30 11087 C 1032.17 -0.53563 -1.51723 0
M  V30 11088 O 1033.36 -0.791134 -1.58335 0
M  V30 11089 C 1030.49 -1.80133 -2.92245 0
M  V30 11090 C 1029.58 -3.00476 -2.99291 0
M  V30 11091 N 1029.97 -4.23796 -2.76099 0
M  V30 11092 C 1028.27 -2.99536 -3.30445 0
M  V30 11093 C 1028.97 -5.04977 -2.88744 0
M  V30 11094 N 1027.94 -4.39428 -3.20006 0
M  V30 11095 H 1031.74 -2.61172 -1.34784 0
M  V30 11096 H 1029.26 -1.48653 -0.653923 0
M  V30 11097 H 1031.26 -1.90432 -3.70866 0
M  V30 11098 H 1029.92 -0.882879 -3.12467 0
M  V30 11099 H 1030.93 -4.52896 -2.51209 0
M  V30 11100 H 1027.6 -2.17286 -3.56501 0
M  V30 11101 H 1028.99 -6.13114 -2.74847 0
M  V30 11102 N 1031.71 0.701592 -1.41122 0
M  V30 11103 C 1032.96 1.46376 -1.40363 0
M  V30 11104 C 1033.29 1.94197 -0.0105442 0
M  V30 11105 O 1032.57 1.69121 0.960637 0
M  V30 11106 C 1032.85 2.67994 -2.40523 0
M  V30 11107 C 1032.7 2.25977 -3.88914 0
M  V30 11108 C 1034.02 3.70181 -2.38022 0
M  V30 11109 H 1031.14 0.530929 -0.511159 0
M  V30 11110 H 1033.78 0.799588 -1.72356 0
M  V30 11111 H 1031.93 3.24661 -2.13372 0
M  V30 11112 H 1033.61 1.74684 -4.26946 0
M  V30 11113 H 1031.85 1.57826 -4.04071 0
M  V30 11114 H 1032.52 3.13215 -4.54533 0
M  V30 11115 H 1035 3.23174 -2.62103 0
M  V30 11116 H 1033.87 4.52894 -3.10127 0
M  V30 11117 H 1034.13 4.19458 -1.3967 0
M  V30 11118 N 1033.19 1.2685 0.935242 0
M  V30 11119 C 1034.42 1.15645 1.72165 0
M  V30 11120 C 1034.84 -0.283909 1.85945 0
M  V30 11121 O 1034.2 -1.20567 1.354 0
M  V30 11122 C 1034.25 1.83689 3.10307 0
M  V30 11123 O 1033.35 1.12972 3.96625 0
M  V30 11124 H 1032.69 0.402629 0.528002 0
M  V30 11125 H 1035.22 1.67781 1.17093 0
M  V30 11126 H 1035.23 1.90749 3.60664 0
M  V30 11127 H 1033.91 2.88472 2.99595 0
M  V30 11128 H 1032.48 1.13929 3.5507 0
M  V30 11129 N 1034.67 -1.14067 1.0875 0
M  V30 11130 C 1035.6 -2.18306 0.664652 0
M  V30 11131 C 1036.58 -1.59312 -0.325359 0
M  V30 11132 O 1037.77 -1.87111 -0.228385 0
M  V30 11133 C 1034.89 -3.38693 -0.0218723 0
M  V30 11134 C 1033.94 -4.16263 0.928844 0
M  V30 11135 S 1034.77 -4.76817 2.43734 0
M  V30 11136 C 1035.93 -6.00557 1.76302 0
M  V30 11137 H 1036.16 -2.53837 1.54772 0
M  V30 11138 H 1033.69 -1.25254 0.902817 0
M  V30 11139 H 1035.65 -4.0843 -0.411686 0
M  V30 11140 H 1034.31 -3.01478 -0.881481 0
M  V30 11141 H 1033.51 -5.02446 0.395446 0
M  V30 11142 H 1033.11 -3.52146 1.25972 0
M  V30 11143 H 1035.4 -6.68788 1.08301 0
M  V30 11144 H 1036.34 -6.58492 2.60373 0
M  V30 11145 H 1036.75 -5.50827 1.23489 0
M  V30 11146 N 1036.15 -0.873678 -1.31166 0
M  V30 11147 C 1037.43 -0.40698 -1.91319 0
M  V30 11148 C 1037.81 1.1113 -1.79481 0
M  V30 11149 O 1037.15 1.94155 -1.20483 0
M  V30 11150 C 1037.36 -0.892484 -3.37396 0
M  V30 11151 C 1038.71 -0.920795 -4.14496 0
M  V30 11152 O 1039.74 -0.838386 -3.46193 0
M  V30 11153 O 1038.59 -1.04069 -5.365 0
M  V30 11154 H 1035.69 -0.122439 -0.817886 0
M  V30 11155 H 1038.23 -0.961835 -1.3981 0
M  V30 11156 H 1037.01 -1.93613 -3.40044 0
M  V30 11157 H 1036.63 -0.31615 -3.96341 0
M  V30 11158 N 1037.63 1.44308 -0.633487 0
M  V30 11159 C 1038.87 2.02023 -0.138917 0
M  V30 11160 C 1039.2 1.49841 1.24008 0
M  V30 11161 O 1038.46 0.673718 1.83738 0
M  V30 11162 C 1038.76 3.57316 -0.0773886 0
M  V30 11163 C 1038.42 4.28762 -1.39548 0
M  V30 11164 C 1037.08 4.47997 -1.75648 0
M  V30 11165 C 1039.44 4.69391 -2.26542 0
M  V30 11166 C 1036.76 5.05121 -2.98445 0
M  V30 11167 C 1039.12 5.27876 -3.48612 0
M  V30 11168 C 1037.78 5.45329 -3.84932 0
M  V30 11169 H 1037.05 0.739254 -0.0508333 0
M  V30 11170 H 1039.7 1.73043 -0.820271 0
M  V30 11171 H 1038 3.85724 0.687345 0
M  V30 11172 H 1039.7 3.99706 0.321837 0
M  V30 11173 H 1036.29 4.14122 -1.10456 0
M  V30 11174 H 1040.47 4.54241 -1.99946 0
M  V30 11175 H 1035.73 5.16821 -3.26658 0
M  V30 11176 H 1039.9 5.58307 -4.16253 0
M  V30 11177 H 1037.53 5.8936 -4.80166 0
M  V30 11178 N 1039.1 0.374177 1.53094 0
M  V30 11179 C 1040.03 -0.459976 2.28925 0
M  V30 11180 C 1041.02 -1.07656 1.31698 0
M  V30 11181 O 1042.2 -1.09219 1.60577 0
M  V30 11182 C 1039.33 -1.5954 3.08487 0
M  V30 11183 C 1038.28 -1.10563 4.13473 0
M  V30 11184 C 1037.61 -2.33196 4.81169 0
M  V30 11185 C 1038.91 -0.184275 5.21975 0
M  V30 11186 H 1040.6 0.172692 2.98902 0
M  V30 11187 H 1038.15 0.0844956 1.43752 0
M  V30 11188 H 1040.1 -2.18565 3.60288 0
M  V30 11189 H 1038.83 -2.25543 2.36216 0
M  V30 11190 H 1037.49 -0.53801 3.62631 0
M  V30 11191 H 1037.13 -2.97675 4.05461 0
M  V30 11192 H 1036.83 -2.01094 5.52119 0
M  V30 11193 H 1038.36 -2.92892 5.35767 0
M  V30 11194 H 1039.77 -0.682262 5.69226 0
M  V30 11195 H 1038.17 0.0462746 6.00082 0
M  V30 11196 H 1039.24 0.771152 4.78729 0
M  V30 11197 N 1040.58 -1.57259 0.103575 0
M  V30 11198 C 1041.49 -2.18018 -0.866327 0
M  V30 11199 C 1042.51 -1.15198 -1.30404 0
M  V30 11200 O 1043.68 -1.47605 -1.37021 0
M  V30 11201 C 1040.75 -2.75533 -2.10434 0
M  V30 11202 C 1039.81 -3.93337 -1.72002 0
M  V30 11203 C 1039.04 -4.481 -2.89901 0
M  V30 11204 O 1039.27 -4.01784 -4.04877 0
M  V30 11205 O 1038.2 -5.39004 -2.67877 0
M  V30 11206 H 1042.03 -3.01322 -0.379338 0
M  V30 11207 H 1039.61 -1.48907 -0.121228 0
M  V30 11208 H 1041.49 -3.12259 -2.8297 0
M  V30 11209 H 1040.17 -1.9527 -2.58169 0
M  V30 11210 H 1039.08 -3.61408 -0.966193 0
M  V30 11211 H 1040.41 -4.74989 -1.29022 0
M  V30 11212 N 1042.06 0.170153 -1.56679 0
M  V30 11213 C 1043.34 0.913938 -1.72935 0
M  V30 11214 C 1043.72 2.00342 -0.665293 0
M  V30 11215 O 1043.07 2.26252 0.319715 0
M  V30 11216 C 1043.28 1.47761 -3.16177 0
M  V30 11217 C 1044.62 1.95007 -3.7717 0
M  V30 11218 O 1045.65 1.57552 -3.19462 0
M  V30 11219 O 1044.51 2.64007 -4.78501 0
M  V30 11220 H 1041.6 0.43027 -0.706256 0
M  V30 11221 H 1044.15 0.157891 -1.68964 0
M  V30 11222 H 1042.92 0.69352 -3.85105 0
M  V30 11223 H 1042.54 2.2978 -3.24479 0
M  V30 11224 N 1043.54 1.5137 0.438746 0
M  V30 11225 C 1044.95 1.56462 1.01866 0
M  V30 11226 C 1045.3 0.387244 1.9234 0
M  V30 11227 O 1044.43 -0.496131 2.10636 0
M  V30 11228 C 1045.02 2.83557 1.85421 0
M  V30 11229 C 1043.58 2.91224 2.38464 0
M  V30 11230 C 1042.73 2.51109 1.17641 0
M  V30 11231 H 1045.68 1.57167 0.220072 0
M  V30 11232 H 1045.7 2.6724 2.70857 0
M  V30 11233 H 1045.21 3.69229 1.19546 0
M  V30 11234 H 1043.31 2.09979 3.07798 0
M  V30 11235 H 1043.42 3.94844 2.71358 0
M  V30 11236 H 1041.79 2.04276 1.5213 0
M  V30 11237 H 1042.57 3.39125 0.533785 0
M  V30 11238 N 1045.02 -0.694098 1.41492 0
M  V30 11239 C 1046.24 -1.48789 1.44488 0
M  V30 11240 C 1046.67 -1.88028 0.0521588 0
M  V30 11241 O 1046.02 -1.54727 -0.944952 0
M  V30 11242 C 1046.07 -2.72586 2.3607 0
M  V30 11243 O 1045.18 -3.70128 1.81876 0
M  V30 11244 H 1044.52 -0.447758 0.490315 0
M  V30 11245 H 1047.05 -0.853036 1.85969 0
M  V30 11246 H 1047.06 -3.20877 2.51995 0
M  V30 11247 H 1045.73 -2.43363 3.37264 0
M  V30 11248 H 1044.31 -3.29069 1.75408 0
M  V30 11249 N 1046.49 -1.27344 -0.928501 0
M  V30 11250 C 1047.43 -1.05797 -2.03322 0
M  V30 11251 C 1048.44 -0.0143086 -1.62794 0
M  V30 11252 O 1049.63 -0.25578 -1.76658 0
M  V30 11253 C 1046.73 -0.582673 -3.33853 0
M  V30 11254 C 1045.9 -1.69844 -4.03078 0
M  V30 11255 C 1044.96 -1.21902 -5.11885 0
M  V30 11256 O 1043.99 -1.91853 -5.35893 0
M  V30 11257 N 1045.19 -0.0742392 -5.80453 0
M  V30 11258 H 1047.95 -2.00928 -2.22369 0
M  V30 11259 H 1045.51 -1.189 -1.09883 0
M  V30 11260 H 1047.51 -0.245862 -4.03952 0
M  V30 11261 H 1046.08 0.27539 -3.11385 0
M  V30 11262 H 1045.3 -2.20557 -3.26723 0
M  V30 11263 H 1046.58 -2.4473 -4.46077 0
M  V30 11264 H 1045.98 0.509631 -5.634 0
M  V30 11265 H 1044.54 0.203399 -6.51483 0
M  V30 11266 N 1047.97 1.13488 -1.09353 0
M  V30 11267 C 1049.39 1.36739 -0.823086 0
M  V30 11268 C 1049.59 1.93476 0.562963 0
M  V30 11269 O 1048.64 2.15374 1.31796 0
M  V30 11270 C 1049.96 2.31943 -1.91371 0
M  V30 11271 C 1051.51 2.4556 -1.94085 0
M  V30 11272 C 1051.98 3.44072 -3.02289 0
M  V30 11273 N 1053.47 3.51622 -3.01524 0
M  V30 11274 C 1054.21 4.27724 -3.8189 0
M  V30 11275 N 1053.7 5.06987 -4.72161 0
M  V30 11276 N 1055.5 4.23018 -3.70152 0
M  V30 11277 H 1047.65 0.75012 -1.98713 0
M  V30 11278 H 1049.91 0.392564 -0.862901 0
M  V30 11279 H 1049.62 1.97408 -2.91072 0
M  V30 11280 H 1049.49 3.31952 -1.79131 0
M  V30 11281 H 1051.88 2.79382 -0.950234 0
M  V30 11282 H 1051.96 1.45479 -2.10403 0
M  V30 11283 H 1051.6 3.10981 -4.01564 0
M  V30 11284 H 1051.53 4.43956 -2.83214 0
M  V30 11285 H 1054.02 2.95066 -2.36103 0
M  V30 11286 H 1054.34 5.6236 -5.30067 0
M  V30 11287 H 1052.68 5.06222 -4.76197 0
M  V30 11288 H 1055.87 3.60171 -2.98989 0
M  V30 11289 H 1056.04 4.82075 -4.33022 0
M  V30 11290 N 1049.45 0.880621 1.30701 0
M  V30 11291 C 1050.38 0.301443 2.27209 0
M  V30 11292 C 1051.4 -0.541533 1.53529 0
M  V30 11293 O 1052.59 -0.361791 1.74795 0
M  V30 11294 C 1049.69 -0.59038 3.33718 0
M  V30 11295 C 1048.86 0.222549 4.36833 0
M  V30 11296 C 1047.92 -0.599083 5.22779 0
M  V30 11297 O 1046.94 -0.0233267 5.69195 0
M  V30 11298 N 1048.15 -1.90904 5.48211 0
M  V30 11299 H 1050.91 1.13083 2.77547 0
M  V30 11300 H 1048.47 0.743168 1.43835 0
M  V30 11301 H 1050.46 -1.14599 3.88135 0
M  V30 11302 H 1049.03 -1.32044 2.83343 0
M  V30 11303 H 1048.25 0.959606 3.82342 0
M  V30 11304 H 1049.54 0.779965 5.02786 0
M  V30 11305 H 1048.94 -2.3998 5.12275 0
M  V30 11306 H 1047.5 -2.4122 6.05521 0
M  V30 11307 N 1050.93 -1.4397 0.641131 0
M  V30 11308 C 1052.35 -1.56607 0.30762 0
M  V30 11309 C 1052.55 -1.62694 -1.18882 0
M  V30 11310 O 1051.6 -1.57541 -1.97325 0
M  V30 11311 C 1052.91 -2.83289 1.00834 0
M  V30 11312 C 1054.46 -2.97016 0.98744 0
M  V30 11313 C 1054.94 -4.26514 1.66882 0
M  V30 11314 N 1056.43 -4.33351 1.63589 0
M  V30 11315 C 1057.16 -5.32292 2.13196 0
M  V30 11316 N 1056.66 -6.37582 2.71038 0
M  V30 11317 N 1058.45 -5.23866 2.03766 0
M  V30 11318 H 1050.6 -1.38262 1.61237 0
M  V30 11319 H 1052.87 -0.663221 0.677378 0
M  V30 11320 H 1052.57 -2.84812 2.06337 0
M  V30 11321 H 1052.45 -3.73134 0.552333 0
M  V30 11322 H 1054.83 -2.95041 -0.0591395 0
M  V30 11323 H 1054.91 -2.08493 1.48203 0
M  V30 11324 H 1054.56 -4.2925 2.71491 0
M  V30 11325 H 1054.49 -5.13912 1.14898 0
M  V30 11326 H 1056.98 -3.5788 1.21368 0
M  V30 11327 H 1057.29 -7.09378 3.06597 0
M  V30 11328 H 1055.64 -6.38239 2.75093 0
M  V30 11329 H 1058.83 -4.40524 1.58291 0
M  V30 11330 H 1059 -6.00819 2.42737 0
M  V30 11331 N 1052.41 -0.382291 -1.52893 0
M  V30 11332 C 1053.37 0.44408 -2.24857 0
M  V30 11333 C 1054.37 0.996004 -1.26239 0
M  V30 11334 O 1055.56 0.879114 -1.5039 0
M  V30 11335 C 1052.69 1.62234 -2.99822 0
M  V30 11336 H 1053.89 -0.185862 -2.99324 0
M  V30 11337 H 1051.44 -0.134275 -1.55722 0
M  V30 11338 H 1052.17 2.28991 -2.29638 0
M  V30 11339 H 1051.96 1.23336 -3.72197 0
M  V30 11340 H 1053.45 2.20756 -3.54481 0
M  V30 11341 N 1053.89 1.57202 -0.111913 0
M  V30 11342 C 1054.82 2.10634 0.877983 0
M  V30 11343 C 1055.8 1.02098 1.26549 0
M  V30 11344 O 1056.98 1.29707 1.36779 0
M  V30 11345 C 1054.11 2.59721 2.174 0
M  V30 11346 C 1053.15 3.80074 1.93509 0
M  V30 11347 S 1053.99 5.22834 1.1578 0
M  V30 11348 C 1055.14 5.75284 2.46576 0
M  V30 11349 H 1055.38 2.94268 0.423483 0
M  V30 11350 H 1052.91 1.54065 0.101721 0
M  V30 11351 H 1054.87 2.88657 2.91868 0
M  V30 11352 H 1053.53 1.76281 2.59969 0
M  V30 11353 H 1052.72 4.12545 2.89522 0
M  V30 11354 H 1052.32 3.51718 1.27164 0
M  V30 11355 H 1054.61 5.84576 3.42457 0
M  V30 11356 H 1055.56 6.73493 2.1866 0
M  V30 11357 H 1055.97 5.03308 2.55619 0
M  V30 11358 N 1055.36 -0.161842 1.56767 0
M  V30 11359 C 1056.59 -0.896274 1.87034 0
M  V30 11360 C 1057.01 -1.74617 0.699314 0
M  V30 11361 O 1056.37 -1.77861 -0.351435 0
M  V30 11362 C 1056.42 -1.74105 3.15784 0
M  V30 11363 O 1055.52 -2.84372 2.98674 0
M  V30 11364 H 1054.86 -0.250523 0.614926 0
M  V30 11365 H 1057.39 -0.157127 2.03996 0
M  V30 11366 H 1057.4 -2.13907 3.4743 0
M  V30 11367 H 1056.08 -1.11684 4.00624 0
M  V30 11368 H 1054.66 -2.48084 2.78404 0
M  V30 11369 N 1056.84 -1.516 -0.430713 0
M  V30 11370 C 1058.09 -1.63829 -1.17657 0
M  V30 11371 C 1058.4 -0.363605 -1.92191 0
M  V30 11372 O 1059.61 -0.365358 -2.6903 0
M  V30 11373 C 1058.07 -2.89357 -2.14011 0
M  V30 11374 C 1057.67 -4.23854 -1.45094 0
M  V30 11375 C 1059.42 -3.10944 -2.88988 0
M  V30 11376 C 1057.32 -5.40526 -2.3997 0
M  V30 11377 H 1056.25 -0.610221 -0.442884 0
M  V30 11378 H 1058.91 -1.78073 -0.442984 0
M  V30 11379 H 1057.29 -2.68762 -2.90832 0
M  V30 11380 H 1058.46 -4.54854 -0.737853 0
M  V30 11381 H 1056.78 -4.08197 -0.822429 0
M  V30 11382 H 1059.37 -3.95286 -3.60074 0
M  V30 11383 H 1059.72 -2.24291 -3.50712 0
M  V30 11384 H 1060.25 -3.3191 -2.19272 0
M  V30 11385 H 1056.99 -6.29459 -1.82925 0
M  V30 11386 H 1056.51 -5.13893 -3.09313 0
M  V30 11387 H 1058.19 -5.72741 -3.00959 0
M  V30 11388 N 1058.32 0.686584 -1.41858 0
M  V30 11389 C 1059.28 1.78214 -1.44126 0
M  V30 11390 C 1060.28 1.57366 -0.330541 0
M  V30 11391 O 1061.47 1.63874 -0.590837 0
M  V30 11392 C 1058.6 3.16704 -1.26142 0
M  V30 11393 H 1059.8 1.77594 -2.41661 0
M  V30 11394 H 1057.35 0.895085 -1.28132 0
M  V30 11395 H 1058.09 3.22957 -0.294823 0
M  V30 11396 H 1057.87 3.33238 -2.06627 0
M  V30 11397 H 1059.36 3.96658 -1.30584 0
M  V30 11398 N 1059.8 1.27835 0.921735 0
M  V30 11399 C 1061.02 1.17465 1.70929 0
M  V30 11400 C 1061.45 -0.264171 1.86236 0
M  V30 11401 O 1060.81 -1.19124 1.36671 0
M  V30 11402 C 1060.85 1.8697 3.08342 0
M  V30 11403 O 1059.96 1.17173 3.95404 0
M  V30 11404 H 1059.3 0.408206 0.523702 0
M  V30 11405 H 1061.83 1.69013 1.15307 0
M  V30 11406 H 1061.84 1.94564 3.58621 0
M  V30 11407 H 1060.51 2.91633 2.96518 0
M  V30 11408 H 1059.09 1.17688 3.53842 0
M  V30 11409 N 1061.28 -1.12907 1.09954 0
M  V30 11410 C 1062.52 -1.83661 0.833761 0
M  V30 11411 C 1062.84 -1.84736 -0.642798 0
M  V30 11412 O 1064.04 -2.51437 -1.0243 0
M  V30 11413 C 1062.5 -3.29763 1.44168 0
M  V30 11414 C 1062.11 -3.3706 2.95118 0
M  V30 11415 C 1063.85 -4.05522 1.25509 0
M  V30 11416 C 1061.76 -4.77467 3.48969 0
M  V30 11417 H 1060.69 -0.688115 0.308242 0
M  V30 11418 H 1063.34 -1.27166 1.32291 0
M  V30 11419 H 1061.72 -3.86094 0.880215 0
M  V30 11420 H 1062.9 -2.90695 3.57537 0
M  V30 11421 H 1061.21 -2.7477 3.12874 0
M  V30 11422 H 1063.81 -5.09188 1.63191 0
M  V30 11423 H 1064.15 -4.15837 0.196208 0
M  V30 11424 H 1064.68 -3.55536 1.78435 0
M  V30 11425 H 1061.42 -4.72344 4.54501 0
M  V30 11426 H 1060.94 -5.24305 2.91315 0
M  V30 11427 H 1062.62 -5.46397 3.46495 0
M  V30 11428 N 1062.75 -0.88754 -1.30232 0
M  V30 11429 C 1063.68 -0.372481 -2.3051 0
M  V30 11430 C 1064.66 0.546037 -1.61098 0
M  V30 11431 O 1065.85 0.459345 -1.88689 0
M  V30 11432 C 1062.98 0.411605 -3.44852 0
M  V30 11433 C 1061.93 -0.415383 -4.2598 0
M  V30 11434 C 1061.26 0.495463 -5.324 0
M  V30 11435 C 1062.56 -1.65886 -4.95257 0
M  V30 11436 H 1064.25 -1.21045 -2.7384 0
M  V30 11437 H 1061.8 -0.583498 -1.31648 0
M  V30 11438 H 1063.75 0.782584 -4.1407 0
M  V30 11439 H 1062.48 1.28325 -3.00334 0
M  V30 11440 H 1061.14 -0.768534 -3.58454 0
M  V30 11441 H 1060.78 1.36489 -4.84128 0
M  V30 11442 H 1060.48 -0.0540885 -5.87575 0
M  V30 11443 H 1062.01 0.862901 -6.04472 0
M  V30 11444 H 1063.42 -1.35832 -5.56976 0
M  V30 11445 H 1061.82 -2.14881 -5.60309 0
M  V30 11446 H 1062.89 -2.40181 -4.21237 0
M  V30 11447 N 1064.23 1.43628 -0.648757 0
M  V30 11448 C 1065.46 2.06217 -0.167945 0
M  V30 11449 C 1065.88 1.486 1.16462 0
M  V30 11450 O 1065.23 0.61559 1.71804 0
M  V30 11451 C 1065.28 3.6144 -0.0660114 0
M  V30 11452 O 1065 4.16914 -1.34589 0
M  V30 11453 C 1066.51 4.41097 0.441408 0
M  V30 11454 H 1063.73 0.665228 -0.0878237 0
M  V30 11455 H 1066.27 1.84207 -0.888144 0
M  V30 11456 H 1064.42 3.82651 0.604722 0
M  V30 11457 H 1064.84 5.10537 -1.20218 0
M  V30 11458 H 1066.31 5.50066 0.461697 0
M  V30 11459 H 1066.79 4.13803 1.47187 0
M  V30 11460 H 1067.4 4.24845 -0.19668 0
M  V30 11461 N 1065.71 0.390394 1.52688 0
M  V30 11462 C 1066.66 -0.4591 2.28024 0
M  V30 11463 C 1067.65 -1.06212 1.31967 0
M  V30 11464 O 1068.86 -1.00247 1.49501 0
M  V30 11465 H 1065.23 -0.16681 0.733266 0
M  V30 11466 H 1067.2 0.197747 2.97744 0
M  V30 11467 C 1065.95 -1.5737 3.10048 0
M  V30 11468 H 1065.28 -1.11901 3.83821 0
M  V30 11469 H 1066.72 -2.1423 3.65898 0
M  V30 11470 C 1065.18 -2.53036 2.22429 0
M  V30 11471 O 1065.71 -3.5647 1.85181 0
M  V30 11472 N 1063.91 -2.22802 1.86567 0
M  V30 11473 H 1063.46 -1.38723 2.17057 0
M  V30 11474 H 1063.42 -2.87061 1.28233 0
M  V30 11475 N 1067.19 -1.57141 0.120249 0
M  V30 11476 C 1068.42 -1.99589 -0.545136 0
M  V30 11477 C 1068.83 -0.999951 -1.60145 0
M  V30 11478 O 1068.19 0.00698897 -1.82499 0
M  V30 11479 C 1068.24 -3.42038 -1.17014 0
M  V30 11480 O 1067.96 -4.37822 -0.156044 0
M  V30 11481 C 1069.46 -3.99625 -1.91872 0
M  V30 11482 H 1066.68 -0.655318 -0.144222 0
M  V30 11483 H 1069.23 -2.0345 0.206955 0
M  V30 11484 H 1067.38 -3.39113 -1.873 0
M  V30 11485 H 1067.79 -5.20937 -0.610317 0
M  V30 11486 H 1069.27 -5.01374 -2.30928 0
M  V30 11487 H 1069.75 -3.38836 -2.7944 0
M  V30 11488 H 1070.35 -4.061 -1.26345 0
M  V30 11489 N 1068.67 0.153526 -1.5685 0
M  V30 11490 C 1069.91 0.868517 -1.83261 0
M  V30 11491 C 1070.25 1.81112 -0.700857 0
M  V30 11492 O 1069.52 1.92235 0.295989 0
M  V30 11493 C 1069.8 1.6487 -3.2014 0
M  V30 11494 C 1069.66 0.728021 -4.43869 0
M  V30 11495 C 1070.98 2.61259 -3.54163 0
M  V30 11496 H 1068.09 0.314297 -0.666623 0
M  V30 11497 H 1070.74 0.133971 -1.89527 0
M  V30 11498 H 1068.89 2.2749 -3.1493 0
M  V30 11499 H 1070.56 0.113328 -4.61161 0
M  V30 11500 H 1068.8 0.0371744 -4.33784 0
M  V30 11501 H 1069.47 1.30981 -5.36235 0
M  V30 11502 H 1071.95 2.0876 -3.59942 0
M  V30 11503 H 1070.82 3.12902 -4.50981 0
M  V30 11504 H 1071.09 3.42307 -2.79782 0
M  V30 11505 N 1070.14 1.51827 0.422667 0
M  V30 11506 C 1071.05 1.77066 1.53899 0
M  V30 11507 C 1072.07 0.655541 1.61179 0
M  V30 11508 O 1073.25 0.939448 1.78147 0
M  V30 11509 C 1070.31 1.90372 2.89758 0
M  V30 11510 C 1069.37 3.14256 2.92475 0
M  V30 11511 C 1068.61 3.26918 4.21853 0
M  V30 11512 O 1068.83 2.45164 5.15025 0
M  V30 11513 O 1067.76 4.19989 4.31153 0
M  V30 11514 H 1071.59 2.71791 1.35511 0
M  V30 11515 H 1069.17 1.36506 0.607165 0
M  V30 11516 H 1071.06 2.01024 3.70361 0
M  V30 11517 H 1069.73 0.988347 3.08242 0
M  V30 11518 H 1068.64 3.09072 2.10773 0
M  V30 11519 H 1069.97 4.0553 2.78937 0
M  V30 11520 N 1071.62 -0.679052 1.4222 0
M  V30 11521 C 1072.53 -1.82221 1.47759 0
M  V30 11522 C 1073.55 -1.70092 0.3667 0
M  V30 11523 O 1074.72 -1.91718 0.616957 0
M  V30 11524 C 1071.79 -3.18332 1.37351 0
M  V30 11525 C 1070.85 -3.42449 2.58896 0
M  V30 11526 C 1070.08 -4.72067 2.48976 0
M  V30 11527 O 1070.31 -5.49683 1.5233 0
M  V30 11528 O 1069.24 -4.97333 3.39033 0
M  V30 11529 H 1073.07 -1.80504 2.44238 0
M  V30 11530 H 1070.65 -0.834251 1.23938 0
M  V30 11531 H 1072.53 -3.99563 1.33893 0
M  V30 11532 H 1071.21 -3.20696 0.439965 0
M  V30 11533 H 1070.12 -2.61083 2.6793 0
M  V30 11534 H 1071.45 -3.44912 3.51136 0
M  V30 11535 N 1073.1 -1.28322 -0.914942 0
M  V30 11536 C 1074.03 -1.14681 -2.03398 0
M  V30 11537 C 1075.01 -0.0448939 -1.70041 0
M  V30 11538 O 1076.2 -0.221672 -1.92931 0
M  V30 11539 C 1073.33 -0.806623 -3.37803 0
M  V30 11540 C 1072.28 -1.86318 -3.85318 0
M  V30 11541 C 1071.61 -1.37665 -5.16674 0
M  V30 11542 C 1072.91 -3.26953 -4.07307 0
M  V30 11543 H 1074.6 -2.08293 -2.15068 0
M  V30 11544 H 1072.15 -1.00284 -1.03339 0
M  V30 11545 H 1074.1 -0.69796 -4.1558 0
M  V30 11546 H 1072.82 0.165203 -3.26182 0
M  V30 11547 H 1071.48 -1.96096 -3.09745 0
M  V30 11548 H 1071.13 -0.393927 -5.01455 0
M  V30 11549 H 1070.83 -2.08313 -5.49435 0
M  V30 11550 H 1072.35 -1.28119 -5.97007 0
M  V30 11551 H 1073.77 -3.20102 -4.75613 0
M  V30 11552 H 1072.17 -3.95424 -4.51398 0
M  V30 11553 H 1073.24 -3.71059 -3.12159 0
M  V30 11554 N 1074.58 1.12322 -1.10551 0
M  V30 11555 C 1075.49 2.21678 -0.767862 0
M  V30 11556 C 1076.5 1.72404 0.235132 0
M  V30 11557 O 1077.68 2.01266 0.0735912 0
M  V30 11558 C 1074.75 3.46087 -0.205999 0
M  V30 11559 C 1073.81 4.10195 -1.26642 0
M  V30 11560 C 1073.04 5.28666 -0.731274 0
M  V30 11561 O 1073.26 5.68686 0.44189 0
M  V30 11562 O 1072.2 5.83121 -1.49176 0
M  V30 11563 H 1076.02 2.52955 -1.6807 0
M  V30 11564 H 1073.61 1.2068 -0.880728 0
M  V30 11565 H 1075.49 4.21273 0.103435 0
M  V30 11566 H 1074.16 3.16484 0.679685 0
M  V30 11567 H 1073.07 3.36784 -1.62873 0
M  V30 11568 H 1074.4 4.43957 -2.12516 0
M  V30 11569 N 1076.06 0.894434 1.2976 0
M  V30 11570 C 1076.97 0.372622 2.31622 0
M  V30 11571 C 1077.98 -0.52996 1.65733 0
M  V30 11572 O 1079.16 -0.420807 1.96955 0
M  V30 11573 C 1076.22 -0.396076 3.4443 0
M  V30 11574 C 1075.28 0.537394 4.25923 0
M  V30 11575 C 1074.52 -0.194713 5.33345 0
M  V30 11576 O 1074.74 -1.41943 5.52457 0
M  V30 11577 O 1073.67 0.460055 6.00139 0
M  V30 11578 H 1077.5 1.21756 2.78225 0
M  V30 11579 H 1075.09 0.65858 1.34101 0
M  V30 11580 H 1076.97 -0.830962 4.13126 0
M  V30 11581 H 1075.64 -1.21716 2.99945 0
M  V30 11582 H 1074.55 1.02129 3.5989 0
M  V30 11583 H 1075.88 1.32475 4.74037 0
M  V30 11584 N 1077.53 -1.43282 0.656365 0
M  V30 11585 C 1078.76 -2.06641 0.177245 0
M  V30 11586 C 1079.18 -1.48893 -1.14946 0
M  V30 11587 O 1078.54 -0.600099 -1.7108 0
M  V30 11588 C 1078.59 -3.60453 0.10299 0
M  V30 11589 O 1077.69 -4.01687 -0.933895 0
M  V30 11590 H 1077.04 -0.656978 0.096314 0
M  V30 11591 H 1079.57 -1.83733 0.900178 0
M  V30 11592 H 1079.58 -4.07923 -0.079291 0
M  V30 11593 H 1078.25 -4.01861 1.07147 0
M  V30 11594 H 1076.83 -3.65801 -0.724148 0
M  V30 11595 N 1079.01 -0.398486 -1.52479 0
M  V30 11596 C 1080.43 -0.0488635 -1.59525 0
M  V30 11597 C 1080.63 1.43756 -1.41197 0
M  V30 11598 O 1079.69 2.20317 -1.23357 0
M  V30 11599 C 1081 -0.534262 -2.95916 0
M  V30 11600 C 1082.55 -0.491314 -3.0912 0
M  V30 11601 C 1083.02 -0.953049 -4.47974 0
M  V30 11602 N 1084.51 -0.909434 -4.54184 0
M  V30 11603 C 1085.25 -1.23801 -5.59876 0
M  V30 11604 N 1084.74 -1.63752 -6.73169 0
M  V30 11605 N 1086.54 -1.15867 -5.50028 0
M  V30 11606 H 1078.69 -1.36608 -1.62641 0
M  V30 11607 H 1080.95 -0.560515 -0.764544 0
M  V30 11608 H 1080.66 -1.57277 -3.14574 0
M  V30 11609 H 1080.53 0.0617787 -3.77149 0
M  V30 11610 H 1082.92 0.538123 -2.90152 0
M  V30 11611 H 1083 -1.12327 -2.29818 0
M  V30 11612 H 1082.64 -1.98076 -4.67684 0
M  V30 11613 H 1082.57 -0.298007 -5.25756 0
M  V30 11614 H 1085.06 -0.615569 -3.72853 0
M  V30 11615 H 1085.38 -1.87163 -7.49793 0
M  V30 11616 H 1083.72 -1.67647 -6.74477 0
M  V30 11617 H 1086.91 -0.845502 -4.60401 0
M  V30 11618 H 1087.09 -1.41805 -6.32294 0
M  V30 11619 N 1080.49 1.57075 -0.12858 0
M  V30 11620 C 1081.42 2.12907 0.848708 0
M  V30 11621 C 1082.44 1.07406 1.22343 0
M  V30 11622 O 1083.63 1.34746 1.17071 0
M  V30 11623 C 1080.73 2.62167 2.1476 0
M  V30 11624 C 1079.9 3.91871 1.94309 0
M  V30 11625 C 1078.96 4.26629 3.08016 0
M  V30 11626 O 1077.98 4.9528 2.80511 0
M  V30 11627 N 1079.19 3.84721 4.34706 0
M  V30 11628 H 1081.95 2.97387 0.371636 0
M  V30 11629 H 1079.51 1.61805 0.0555574 0
M  V30 11630 H 1081.5 2.82444 2.89841 0
M  V30 11631 H 1080.07 1.82514 2.53786 0
M  V30 11632 H 1079.29 3.80406 1.03367 0
M  V30 11633 H 1080.58 4.76662 1.77962 0
M  V30 11634 H 1079.98 3.2937 4.59926 0
M  V30 11635 H 1078.54 4.10087 5.06628 0
M  V30 11636 N 1081.97 -0.145205 1.5693 0
M  V30 11637 C 1082.92 -1.17923 1.98401 0
M  V30 11638 C 1083.89 -1.42591 0.851885 0
M  V30 11639 O 1085.07 -1.54896 1.11409 0
M  V30 11640 C 1082.21 -2.50727 2.37128 0
M  V30 11641 C 1081.32 -2.33218 3.63639 0
M  V30 11642 C 1080.46 -3.5907 3.91462 0
M  V30 11643 C 1079.5 -3.36605 5.11237 0
M  V30 11644 N 1078.64 -4.54592 5.35061 0
M  V30 11645 H 1083.48 -0.818573 2.86537 0
M  V30 11646 H 1081.01 -0.392739 1.4176 0
M  V30 11647 H 1082.97 -3.28165 2.57611 0
M  V30 11648 H 1081.6 -2.84736 1.52069 0
M  V30 11649 H 1080.65 -1.46826 3.50922 0
M  V30 11650 H 1081.96 -2.12579 4.51234 0
M  V30 11651 H 1081.12 -4.44936 4.12453 0
M  V30 11652 H 1079.86 -3.82715 3.02293 0
M  V30 11653 H 1078.86 -2.49127 4.90118 0
M  V30 11654 H 1080.09 -3.14357 6.01961 0
M  V30 11655 H 1078.03 -4.78406 4.48847 0
M  V30 11656 H 1077.95 -4.36962 6.16928 0
M  V30 11657 H 1079.22 -5.41666 5.60551 0
M  V30 11658 N 1083.45 -1.52049 -0.414609 0
M  V30 11659 C 1084.69 -1.67511 -1.17129 0
M  V30 11660 C 1085.05 -0.39383 -1.87917 0
M  V30 11661 O 1086.25 -0.424496 -2.65427 0
M  V30 11662 C 1084.52 -2.85982 -2.14357 0
M  V30 11663 S 1086.08 -3.21898 -2.98206 0
M  V30 11664 H 1082.9 -0.589923 -0.396877 0
M  V30 11665 H 1085.5 -1.90025 -0.459409 0
M  V30 11666 H 1084.21 -3.77488 -1.6103 0
M  V30 11667 H 1083.74 -2.65725 -2.90092 0
M  V30 11668 H 1085.75 -2.70095 -4.16249 0
M  V30 11669 N 1084.93 0.6715 -1.42579 0
M  V30 11670 C 1086.34 1.2522 -1.38481 0
M  V30 11671 C 1086.69 1.96038 -0.079719 0
M  V30 11672 O 1085.81 2.00203 0.821441 0
M  V30 11673 C 1086.41 2.27736 -2.50842 0
M  V30 11674 C 1084.97 2.81325 -2.50067 0
M  V30 11675 C 1084.11 1.55694 -2.29466 0
M  V30 11676 H 1087.06 0.464673 -1.51745 0
M  V30 11677 H 1087.09 3.09539 -2.21283 0
M  V30 11678 H 1086.6 1.76164 -3.45815 0
M  V30 11679 H 1084.7 3.37008 -1.58922 0
M  V30 11680 H 1084.81 3.30116 -3.47218 0
M  V30 11681 H 1083.18 1.82383 -1.77788 0
M  V30 11682 H 1083.96 1.06084 -3.26498 0
M  V30 11683 N 1086.4 1.28806 0.908124 0
M  V30 11684 C 1087.81 1.14719 1.47297 0
M  V30 11685 C 1088.17 -0.260763 1.94459 0
M  V30 11686 O 1087.29 -1.15553 1.82966 0
M  V30 11687 C 1087.89 2.07643 2.67712 0
M  V30 11688 C 1086.44 1.97605 3.20358 0
M  V30 11689 C 1085.59 1.99058 1.93058 0
M  V30 11690 H 1088.54 1.41413 0.720283 0
M  V30 11691 H 1088.56 1.64372 3.43165 0
M  V30 11692 H 1088.08 3.10108 2.33355 0
M  V30 11693 H 1086.18 0.981982 3.59427 0
M  V30 11694 H 1086.29 2.84846 3.85226 0
M  V30 11695 H 1084.65 1.43541 2.104 0
M  V30 11696 H 1085.44 3.03212 1.60989 0
M  V30 11697 N 1087.88 -1.11734 1.11145 0
M  V30 11698 C 1089.12 -1.85039 0.868318 0
M  V30 11699 C 1089.49 -1.82538 -0.595294 0
M  V30 11700 O 1090.69 -2.5126 -0.955071 0
M  V30 11701 C 1088.96 -3.28381 1.4107 0
M  V30 11702 S 1090.52 -4.18973 1.3041 0
M  V30 11703 H 1087.33 -0.638114 0.313578 0
M  V30 11704 H 1089.94 -1.34548 1.41835 0
M  V30 11705 H 1088.64 -3.27764 2.46979 0
M  V30 11706 H 1088.17 -3.83939 0.857576 0
M  V30 11707 H 1090.19 -4.95483 0.266605 0
M  V30 11708 N 1089.36 -0.901303 -1.29284 0
M  V30 11709 C 1090.61 -0.538241 -1.96149 0
M  V30 11710 C 1090.96 0.905804 -1.69744 0
M  V30 11711 O 1090.25 1.63383 -1.00083 0
M  V30 11712 C 1090.45 -0.768828 -3.49033 0
M  V30 11713 C 1090.28 -2.23373 -3.903 0
M  V30 11714 C 1089.05 -2.88148 -4.15089 0
M  V30 11715 C 1091.24 -3.20907 -4.01899 0
M  V30 11716 N 1089.23 -4.25065 -4.42937 0
M  V30 11717 C 1090.6 -4.42948 -4.33817 0
M  V30 11718 C 1092.65 -3.16475 -3.8438 0
M  V30 11719 C 1091.36 -5.6112 -4.50041 0
M  V30 11720 C 1093.38 -4.33934 -4.01815 0
M  V30 11721 C 1092.74 -5.54745 -4.34093 0
M  V30 11722 H 1088.84 -0.246593 -0.742102 0
M  V30 11723 H 1091.43 -1.16245 -1.5619 0
M  V30 11724 H 1089.6 -0.17399 -3.8801 0
M  V30 11725 H 1091.33 -0.37104 -4.02996 0
M  V30 11726 H 1088.08 -2.38935 -4.0891 0
M  V30 11727 H 1088.51 -4.95822 -4.60966 0
M  V30 11728 H 1093.15 -2.2416 -3.58486 0
M  V30 11729 H 1090.87 -6.53925 -4.74771 0
M  V30 11730 H 1094.45 -4.31993 -3.89709 0
M  V30 11731 H 1093.33 -6.4412 -4.47302 0
M  V30 11732 N 1090.84 1.42931 -0.663954 0
M  V30 11733 C 1092.07 2.05729 -0.189532 0
M  V30 11734 C 1092.48 1.49914 1.15423 0
M  V30 11735 O 1091.82 0.629324 1.72584 0
M  V30 11736 C 1091.88 3.59482 -0.0354748 0
M  V30 11737 C 1091.54 4.37935 -1.30622 0
M  V30 11738 C 1092.54 4.69297 -2.23733 0
M  V30 11739 C 1090.23 4.77761 -1.5508 0
M  V30 11740 C 1092.22 5.39407 -3.39586 0
M  V30 11741 C 1089.91 5.47613 -2.71224 0
M  V30 11742 C 1090.91 5.7836 -3.63302 0
M  V30 11743 O 1090.59 6.46783 -4.77417 0
M  V30 11744 H 1090.33 0.669678 -0.0922342 0
M  V30 11745 H 1092.88 1.84243 -0.907943 0
M  V30 11746 H 1091.11 3.79584 0.738412 0
M  V30 11747 H 1092.8 4.03947 0.397679 0
M  V30 11748 H 1093.56 4.39038 -2.06084 0
M  V30 11749 H 1089.44 4.53229 -0.842863 0
M  V30 11750 H 1092.99 5.63323 -4.11476 0
M  V30 11751 H 1088.88 5.77289 -2.88804 0
M  V30 11752 H 1089.65 6.6527 -4.76821 0
M  V30 11753 N 1092.32 0.406567 1.52266 0
M  V30 11754 C 1093.26 -0.420182 2.26943 0
M  V30 11755 C 1094.23 -1.04323 1.29251 0
M  V30 11756 O 1095.42 -1.06799 1.5811 0
M  V30 11757 C 1092.56 -1.5323 3.09216 0
M  V30 11758 C 1091.67 -0.930419 4.21862 0
M  V30 11759 C 1090.81 -2.01502 4.91498 0
M  V30 11760 C 1089.84 -1.38994 5.9611 0
M  V30 11761 N 1088.98 -2.41458 6.59274 0
M  V30 11762 H 1093.82 0.223066 2.97164 0
M  V30 11763 H 1091.36 0.121842 1.46595 0
M  V30 11764 H 1093.32 -2.18803 3.5522 0
M  V30 11765 H 1091.95 -2.14561 2.41171 0
M  V30 11766 H 1091 -0.163809 3.80047 0
M  V30 11767 H 1092.31 -0.433785 4.9691 0
M  V30 11768 H 1091.46 -2.74807 5.40894 0
M  V30 11769 H 1090.2 -2.5453 4.16012 0
M  V30 11770 H 1089.21 -0.642213 5.46036 0
M  V30 11771 H 1090.43 -0.867386 6.73538 0
M  V30 11772 H 1088.38 -2.93623 5.86619 0
M  V30 11773 H 1088.3 -1.96599 7.2999 0
M  V30 11774 H 1089.56 -3.14341 7.13309 0
M  V30 11775 N 1093.79 -1.57004 0.136909 0
M  V30 11776 C 1095.04 -1.95797 -0.516711 0
M  V30 11777 C 1095.37 -1.02123 -1.65533 0
M  V30 11778 O 1094.62 -0.0484835 -1.9564 0
M  V30 11779 C 1094.92 -3.40903 -1.07331 0
M  V30 11780 C 1094.59 -4.50867 -0.0541941 0
M  V30 11781 C 1093.25 -4.80669 0.225988 0
M  V30 11782 C 1095.6 -5.17264 0.639361 0
M  V30 11783 C 1092.93 -5.74177 1.2057 0
M  V30 11784 C 1095.28 -6.11827 1.60783 0
M  V30 11785 C 1093.95 -6.40012 1.89581 0
M  V30 11786 H 1093.22 -0.716471 -0.189078 0
M  V30 11787 H 1095.86 -1.90213 0.221605 0
M  V30 11788 H 1094.17 -3.43268 -1.88876 0
M  V30 11789 H 1095.87 -3.6824 -1.58745 0
M  V30 11790 H 1092.46 -4.27666 -0.282754 0
M  V30 11791 H 1096.64 -4.9438 0.436085 0
M  V30 11792 H 1091.9 -5.94312 1.43538 0
M  V30 11793 H 1096.07 -6.62354 2.15081 0
M  V30 11794 H 1093.7 -7.12274 2.65649 0
M  V30 11795 N 1095.27 0.136881 -1.57004 0
M  V30 11796 C 1096.5 0.866405 -1.88436 0
M  V30 11797 C 1096.92 1.73483 -0.727006 0
M  V30 11798 O 1096.28 1.78398 0.323094 0
M  V30 11799 C 1096.33 1.69059 -3.18514 0
M  V30 11800 O 1095.43 2.79584 -3.03161 0
M  V30 11801 H 1094.77 0.240709 -0.618834 0
M  V30 11802 H 1097.3 0.124653 -2.0422 0
M  V30 11803 H 1097.31 2.08353 -3.50789 0
M  V30 11804 H 1095.99 1.05296 -4.0235 0
M  V30 11805 H 1094.57 2.43623 -2.82315 0
M  V30 11806 N 1096.75 1.52266 0.40654 0
M  V30 11807 C 1097.7 1.76409 1.516 0
M  V30 11808 C 1098.69 0.631311 1.57197 0
M  V30 11809 O 1099.9 0.813413 1.60573 0
M  V30 11810 H 1096.27 0.557904 0.50423 0
M  V30 11811 H 1098.24 2.69351 1.28424 0
M  V30 11812 C 1096.99 1.93415 2.88939 0
M  V30 11813 H 1096.32 2.8 2.85377 0
M  V30 11814 H 1097.76 2.14306 3.65854 0
M  V30 11815 C 1096.22 0.701938 3.29506 0
M  V30 11816 O 1096.75 -0.128965 4.01493 0
M  V30 11817 N 1094.95 0.537089 2.85594 0
M  V30 11818 H 1094.5 1.21435 2.27181 0
M  V30 11819 H 1094.46 -0.286055 3.13096 0
M  V30 11820 N 1098.23 -0.663929 1.42933 0
M  V30 11821 C 1099.48 -1.41973 1.43271 0
M  V30 11822 C 1099.79 -1.95518 0.0566103 0
M  V30 11823 O 1101 -2.71428 -0.0625862 0
M  V30 11824 C 1099.45 -2.56882 2.52071 0
M  V30 11825 C 1099.06 -2.0999 3.95737 0
M  V30 11826 C 1100.8 -3.34322 2.61589 0
M  V30 11827 C 1098.71 -3.22046 4.96025 0
M  V30 11828 H 1097.64 -0.5334 0.532917 0
M  V30 11829 H 1100.29 -0.717709 1.68882 0
M  V30 11830 H 1098.67 -3.29504 2.19643 0
M  V30 11831 H 1099.85 -1.44449 4.37574 0
M  V30 11832 H 1098.16 -1.45459 3.90168 0
M  V30 11833 H 1100.76 -4.17796 3.33692 0
M  V30 11834 H 1101.1 -3.8164 1.66302 0
M  V30 11835 H 1101.64 -2.68775 2.93266 0
M  V30 11836 H 1098.38 -2.79708 5.92827 0
M  V30 11837 H 1097.9 -3.86333 4.5881 0
M  V30 11838 H 1099.57 -3.87345 5.1824 0
M  V30 11839 N 1099.71 -1.29285 -0.901281 0
M  V30 11840 C 1100.95 -1.17165 -1.65162 0
M  V30 11841 C 1101.28 0.277184 -1.92515 0
M  V30 11842 O 1100.54 1.2168 -1.53273 0
M  V30 11843 C 1100.84 -1.92865 -3.00895 0
M  V30 11844 C 1100.5 -3.42593 -2.93157 0
M  V30 11845 C 1099.16 -3.83426 -2.90754 0
M  V30 11846 C 1101.52 -4.38011 -2.82481 0
M  V30 11847 C 1098.84 -5.17997 -2.75492 0
M  V30 11848 C 1101.2 -5.7267 -2.68759 0
M  V30 11849 C 1099.86 -6.12764 -2.64721 0
M  V30 11850 H 1099.13 -0.428737 -0.604372 0
M  V30 11851 H 1101.78 -1.60204 -1.04914 0
M  V30 11852 H 1100.08 -1.42412 -3.65001 0
M  V30 11853 H 1101.78 -1.80893 -3.57881 0
M  V30 11854 H 1098.37 -3.10134 -2.95829 0
M  V30 11855 H 1102.55 -4.07417 -2.83416 0
M  V30 11856 H 1097.81 -5.48173 -2.70769 0
M  V30 11857 H 1101.98 -6.46258 -2.59469 0
M  V30 11858 H 1099.61 -7.16987 -2.52652 0
M  V30 11859 N 1101.18 1.11143 -1.11736 0
M  V30 11860 C 1102.11 2.19339 -0.800795 0
M  V30 11861 C 1103.1 1.68508 0.23221 0
M  V30 11862 O 1104.28 1.93967 0.0950063 0
M  V30 11863 C 1101.41 3.46424 -0.246579 0
M  V30 11864 C 1100.36 4.10487 -1.21181 0
M  V30 11865 C 1099.69 5.32183 -0.518158 0
M  V30 11866 C 1100.99 4.55052 -2.56368 0
M  V30 11867 H 1102.68 2.46077 -1.70548 0
M  V30 11868 H 1100.23 1.18271 -0.821454 0
M  V30 11869 H 1102.18 4.21398 -0.0128889 0
M  V30 11870 H 1100.91 3.19154 0.693415 0
M  V30 11871 H 1099.57 3.3751 -1.43118 0
M  V30 11872 H 1099.21 5.01187 0.426742 0
M  V30 11873 H 1098.91 5.75997 -1.16196 0
M  V30 11874 H 1100.44 6.09895 -0.293333 0
M  V30 11875 H 1101.85 5.21335 -2.38501 0
M  V30 11876 H 1100.25 5.0969 -3.16758 0
M  V30 11877 H 1101.32 3.68343 -3.1536 0
M  V30 11878 N 1102.66 0.908147 1.28804 0
M  V30 11879 C 1103.91 0.534332 1.94494 0
M  V30 11880 C 1104.22 -0.92552 1.72318 0
M  V30 11881 O 1105.43 -1.40724 2.32183 0
M  V30 11882 C 1103.89 0.904748 3.48342 0
M  V30 11883 C 1103.49 2.38394 3.79305 0
M  V30 11884 C 1105.24 0.601249 4.2022 0
M  V30 11885 C 1103.15 2.69478 5.26437 0
M  V30 11886 H 1102.08 0.196107 0.728051 0
M  V30 11887 H 1104.73 1.1063 1.46401 0
M  V30 11888 H 1103.11 0.261624 3.95135 0
M  V30 11889 H 1104.28 3.07333 3.43341 0
M  V30 11890 H 1102.6 2.65733 3.20586 0
M  V30 11891 H 1105.19 0.810225 5.28526 0
M  V30 11892 H 1105.54 -0.460669 4.13743 0
M  V30 11893 H 1106.07 1.20259 3.79187 0
M  V30 11894 H 1102.81 3.74501 5.37986 0
M  V30 11895 H 1102.33 2.05171 5.63618 0
M  V30 11896 H 1104.01 2.56187 5.94119 0
M  V30 11897 N 1104.14 -1.42577 0.671525 0
M  V30 11898 C 1105.39 -2.02401 0.201384 0
M  V30 11899 C 1105.74 -1.52133 -1.17786 0
M  V30 11900 O 1105.03 -0.712405 -1.77863 0
M  V30 11901 C 1105.23 -3.56985 0.172097 0
M  V30 11902 C 1105.06 -4.22255 1.54696 0
M  V30 11903 C 1103.83 -4.57564 2.14391 0
M  V30 11904 C 1106.03 -4.5006 2.48899 0
M  V30 11905 N 1104.01 -5.07997 3.44692 0
M  V30 11906 C 1105.38 -5.02008 3.63851 0
M  V30 11907 C 1107.43 -4.32045 2.47471 0
M  V30 11908 C 1106.14 -5.37837 4.77624 0
M  V30 11909 C 1108.16 -4.68947 3.60337 0
M  V30 11910 C 1107.52 -5.21045 4.74016 0
M  V30 11911 H 1103.62 -0.772963 0.118539 0
M  V30 11912 H 1106.21 -1.73485 0.883802 0
M  V30 11913 H 1104.38 -3.85426 -0.479723 0
M  V30 11914 H 1106.11 -4.03506 -0.31062 0
M  V30 11915 H 1102.87 -4.43212 1.66913 0
M  V30 11916 H 1103.29 -5.37647 4.11418 0
M  V30 11917 H 1107.93 -3.91024 1.60811 0
M  V30 11918 H 1105.65 -5.77792 5.64962 0
M  V30 11919 H 1109.24 -4.56687 3.60455 0
M  V30 11920 H 1108.12 -5.49067 5.59906 0
M  V30 11921 N 1105.62 -0.414636 -1.52048 0
M  V30 11922 C 1106.9 0.218172 -1.94379 0
M  V30 11923 C 1107.28 1.62133 -1.35189 0
M  V30 11924 O 1106.62 2.22271 -0.529877 0
M  V30 11925 C 1106.83 0.218932 -3.48313 0
M  V30 11926 C 1108.18 0.435604 -4.2236 0
M  V30 11927 O 1109.21 0.298049 -3.54951 0
M  V30 11928 O 1108.06 0.707217 -5.41905 0
M  V30 11929 H 1105.16 0.142173 -0.814688 0
M  V30 11930 H 1107.7 -0.470977 -1.63033 0
M  V30 11931 H 1106.48 -0.76292 -3.83791 0
M  V30 11932 H 1106.1 0.951949 -3.86036 0
M  V30 11933 N 1107.1 1.56929 -0.145233 0
M  V30 11934 C 1108.34 1.97959 0.509092 0
M  V30 11935 C 1108.7 1.02813 1.62153 0
M  V30 11936 O 1109.9 1.3288 2.33659 0
M  V30 11937 C 1108.17 3.43012 1.00388 0
M  V30 11938 S 1109.73 4.06064 1.66305 0
M  V30 11939 H 1106.55 0.69167 0.164663 0
M  V30 11940 H 1109.15 1.94064 -0.236529 0
M  V30 11941 H 1107.86 4.0999 0.183454 0
M  V30 11942 H 1107.39 3.50615 1.78417 0
M  V30 11943 H 1109.4 3.98971 2.9502 0
M  V30 11944 N 1108.58 -0.128553 1.57075 0
M  V30 11945 C 1109.8 -0.8564 1.88893 0
M  V30 11946 C 1110.23 -1.73095 0.736196 0
M  V30 11947 O 1109.58 -1.78567 -0.313629 0
M  V30 11948 C 1109.63 -1.67368 3.19406 0
M  V30 11949 O 1108.74 -2.77973 3.04639 0
M  V30 11950 H 1108.08 -0.237424 0.620102 0
M  V30 11951 H 1110.61 -0.113821 2.04283 0
M  V30 11952 H 1110.62 -2.0649 3.51889 0
M  V30 11953 H 1109.29 -1.03161 4.02903 0
M  V30 11954 H 1107.87 -2.42123 2.83603 0
M  V30 11955 N 1110.05 -1.5248 -0.398459 0
M  V30 11956 C 1111.46 -1.59107 -0.976817 0
M  V30 11957 C 1111.82 -0.438104 -1.91246 0
M  V30 11958 O 1110.94 0.440111 -2.11877 0
M  V30 11959 C 1111.54 -2.88373 -1.77838 0
M  V30 11960 C 1110.09 -2.97445 -2.30659 0
M  V30 11961 C 1109.24 -2.5414 -1.10942 0
M  V30 11962 H 1112.19 -1.57695 -0.178324 0
M  V30 11963 H 1112.21 -2.74327 -2.63676 0
M  V30 11964 H 1111.73 -3.72269 -1.09714 0
M  V30 11965 H 1109.83 -2.18066 -3.02123 0
M  V30 11966 H 1109.94 -4.019 -2.60794 0
M  V30 11967 H 1108.3 -2.08237 -1.46661 0
M  V30 11968 H 1109.09 -3.40421 -0.443684 0
M  V30 11969 N 1111.53 0.65634 -1.43283 0
M  V30 11970 C 1112.76 1.44199 -1.47954 0
M  V30 11971 C 1113.17 1.88961 -0.0950315 0
M  V30 11972 O 1112.51 1.59895 0.904388 0
M  V30 11973 C 1112.57 2.71161 -2.36033 0
M  V30 11974 C 1112.24 2.48359 -3.83623 0
M  V30 11975 C 1113.24 2.1178 -4.74811 0
M  V30 11976 C 1110.92 2.6278 -4.28079 0
M  V30 11977 C 1112.91 1.89915 -6.0845 0
M  V30 11978 C 1110.6 2.4053 -5.61772 0
M  V30 11979 C 1111.6 2.04154 -6.51775 0
M  V30 11980 O 1111.29 1.82134 -7.82996 0
M  V30 11981 H 1111.02 0.449567 -0.504842 0
M  V30 11982 H 1113.57 0.812234 -1.88658 0
M  V30 11983 H 1111.8 3.36685 -1.9021 0
M  V30 11984 H 1113.49 3.33102 -2.31944 0
M  V30 11985 H 1114.26 2.00217 -4.41744 0
M  V30 11986 H 1110.14 2.9007 -3.58302 0
M  V30 11987 H 1113.68 1.61445 -6.78661 0
M  V30 11988 H 1109.58 2.51695 -5.94407 0
M  V30 11989 H 1110.35 1.96584 -7.94542 0
M  V30 11990 N 1113.01 1.29761 0.894412 0
M  V30 11991 C 1114.26 1.19224 1.64794 0
M  V30 11992 C 1114.61 -0.252648 1.90734 0
M  V30 11993 O 1113.9 -1.17881 1.51045 0
M  V30 11994 C 1114.1 1.94458 2.99868 0
M  V30 11995 C 1113.93 3.46115 2.87114 0
M  V30 11996 C 1112.7 4.15469 2.87599 0
M  V30 11997 C 1114.89 4.41518 2.63754 0
M  V30 11998 N 1112.88 5.53453 2.65637 0
M  V30 11999 C 1114.25 5.66999 2.50823 0
M  V30 12000 C 1116.3 4.31221 2.48903 0
M  V30 12001 C 1115.01 6.83351 2.24554 0
M  V30 12002 C 1117.03 5.4733 2.24018 0
M  V30 12003 C 1116.39 6.71786 2.11856 0
M  V30 12004 H 1112.49 0.491294 0.608403 0
M  V30 12005 H 1115.08 1.63656 1.05474 0
M  V30 12006 H 1113.25 1.52432 3.57238 0
M  V30 12007 H 1114.98 1.76142 3.64357 0
M  V30 12008 H 1111.73 3.67217 2.9908 0
M  V30 12009 H 1112.16 6.26037 2.57695 0
M  V30 12010 H 1116.8 3.35689 2.57046 0
M  V30 12011 H 1114.52 7.78933 2.15149 0
M  V30 12012 H 1118.1 5.41265 2.13363 0
M  V30 12013 H 1116.98 7.60113 1.92867 0
M  V30 12014 N 1114.49 -1.10549 1.12324 0
M  V30 12015 C 1115.42 -2.18911 0.812416 0
M  V30 12016 C 1116.4 -1.68628 -0.22327 0
M  V30 12017 O 1117.58 -1.94015 -0.0847184 0
M  V30 12018 C 1114.71 -3.46288 0.264947 0
M  V30 12019 C 1113.67 -4.09838 1.23356 0
M  V30 12020 C 1112.99 -5.31901 0.546374 0
M  V30 12021 C 1114.29 -4.53686 2.58778 0
M  V30 12022 H 1115.99 -2.45169 1.71851 0
M  V30 12023 H 1113.53 -1.17834 0.827715 0
M  V30 12024 H 1115.49 -4.21385 0.0352364 0
M  V30 12025 H 1114.21 -3.19517 -0.676479 0
M  V30 12026 H 1112.87 -3.36746 1.44906 0
M  V30 12027 H 1112.52 -5.01406 -0.400157 0
M  V30 12028 H 1112.22 -5.75372 1.19249 0
M  V30 12029 H 1113.74 -6.09731 0.325673 0
M  V30 12030 H 1115.16 -5.20063 2.41263 0
M  V30 12031 H 1113.55 -5.08003 3.19457 0
M  V30 12032 H 1114.62 -3.66665 3.17309 0
M  V30 12033 N 1115.97 -0.914965 -1.28321 0
M  V30 12034 C 1116.91 -0.402792 -2.27258 0
M  V30 12035 C 1117.88 0.523412 -1.57638 0
M  V30 12036 O 1119.07 0.445344 -1.8553 0
M  V30 12037 C 1116.21 0.349956 -3.43321 0
M  V30 12038 C 1115.32 -0.608892 -4.27687 0
M  V30 12039 C 1114.46 0.162425 -5.30952 0
M  V30 12040 C 1113.49 -0.789959 -6.06981 0
M  V30 12041 N 1112.63 -0.0520826 -7.02081 0
M  V30 12042 H 1117.47 -1.25153 -2.70446 0
M  V30 12043 H 1115.01 -0.628444 -1.33 0
M  V30 12044 H 1116.97 0.802589 -4.09407 0
M  V30 12045 H 1115.6 1.16303 -3.01121 0
M  V30 12046 H 1114.65 -1.18005 -3.61634 0
M  V30 12047 H 1115.96 -1.33727 -4.8054 0
M  V30 12048 H 1115.11 0.675563 -6.02927 0
M  V30 12049 H 1113.85 0.923851 -4.7887 0
M  V30 12050 H 1112.86 -1.31446 -5.33856 0
M  V30 12051 H 1114.08 -1.55096 -6.61152 0
M  V30 12052 H 1112.03 0.691331 -6.52347 0
M  V30 12053 H 1111.95 -0.720267 -7.52561 0
M  V30 12054 H 1113.21 0.44082 -7.78253 0
M  V30 12055 N 1117.44 1.42219 -0.679077 0
M  V30 12056 C 1118.69 2.01777 -0.20342 0
M  V30 12057 C 1119.02 1.53592 1.18841 0
M  V30 12058 O 1118.3 0.739954 1.79875 0
M  V30 12059 C 1118.58 3.59281 -0.242791 0
M  V30 12060 C 1118.43 4.17634 -1.67038 0
M  V30 12061 C 1119.75 4.38218 0.406624 0
M  V30 12062 H 1116.87 0.733134 -0.0753916 0
M  V30 12063 H 1119.51 1.69185 -0.864673 0
M  V30 12064 H 1117.66 3.87178 0.320248 0
M  V30 12065 H 1119.34 4.00674 -2.286 0
M  V30 12066 H 1117.58 3.73301 -2.20973 0
M  V30 12067 H 1118.25 5.26776 -1.64958 0
M  V30 12068 H 1120.73 4.16036 -0.0727077 0
M  V30 12069 H 1119.6 5.47793 0.348457 0
M  V30 12070 H 1119.86 4.16418 1.48487 0
M  V30 12071 N 1118.92 0.422693 1.51826 0
M  V30 12072 C 1119.87 -0.396088 2.27376 0
M  V30 12073 C 1120.84 -1.02946 1.30351 0
M  V30 12074 O 1122.02 -1.05116 1.59233 0
M  V30 12075 C 1119.16 -1.49942 3.10824 0
M  V30 12076 C 1118.28 -0.885623 4.22825 0
M  V30 12077 C 1117.41 -1.96278 4.93608 0
M  V30 12078 C 1116.45 -1.32664 5.97551 0
M  V30 12079 N 1115.59 -2.34452 6.61798 0
M  V30 12080 H 1120.43 0.254571 2.96911 0
M  V30 12081 H 1117.96 0.137383 1.46457 0
M  V30 12082 H 1119.92 -2.15023 3.57521 0
M  V30 12083 H 1118.55 -2.11991 2.43433 0
M  V30 12084 H 1117.6 -0.123491 3.80199 0
M  V30 12085 H 1118.92 -0.381057 4.97342 0
M  V30 12086 H 1118.07 -2.69055 5.43778 0
M  V30 12087 H 1116.81 -2.50103 4.18688 0
M  V30 12088 H 1115.81 -0.584262 5.46687 0
M  V30 12089 H 1117.04 -0.7959 6.7442 0
M  V30 12090 H 1114.99 -2.87385 5.897 0
M  V30 12091 H 1114.9 -1.88845 7.32034 0
M  V30 12092 H 1116.17 -3.06757 7.16603 0
M  V30 12093 N 1120.4 -1.5685 0.153553 0
M  V30 12094 C 1121.35 -2.13671 -0.795526 0
M  V30 12095 C 1122.33 -1.06624 -1.20499 0
M  V30 12096 O 1123.53 -1.32788 -1.17032 0
M  V30 12097 C 1120.65 -2.76704 -2.03199 0
M  V30 12098 C 1119.74 -3.90884 -1.64532 0
M  V30 12099 N 1120.13 -4.96466 -0.96723 0
M  V30 12100 C 1118.43 -4.01713 -1.93759 0
M  V30 12101 C 1119.13 -5.76453 -0.779527 0
M  V30 12102 N 1118.11 -5.27444 -1.31544 0
M  V30 12103 H 1121.91 -2.92673 -0.268288 0
M  V30 12104 H 1119.42 -1.6233 -0.0477596 0
M  V30 12105 H 1121.42 -3.15777 -2.72196 0
M  V30 12106 H 1120.08 -1.99177 -2.56434 0
M  V30 12107 H 1121.09 -5.14087 -0.627253 0
M  V30 12108 H 1117.77 -3.3527 -2.48797 0
M  V30 12109 H 1119.16 -6.71455 -0.244604 0
M  V30 12110 N 1121.88 0.120221 -1.57141 0
M  V30 12111 C 1123.12 0.829449 -1.85062 0
M  V30 12112 C 1123.46 1.79585 -0.739116 0
M  V30 12113 O 1122.73 1.92819 0.255147 0
M  V30 12114 C 1123.01 1.58042 -3.23566 0
M  V30 12115 C 1122.87 0.633706 -4.45314 0
M  V30 12116 C 1124.19 2.53688 -3.59625 0
M  V30 12117 H 1121.31 0.300086 -0.67314 0
M  V30 12118 H 1123.95 0.0937393 -1.89769 0
M  V30 12119 H 1122.1 2.20758 -3.19684 0
M  V30 12120 H 1123.77 0.0154836 -4.61297 0
M  V30 12121 H 1122.01 -0.054846 -4.33765 0
M  V30 12122 H 1122.68 1.19577 -5.38893 0
M  V30 12123 H 1125.16 2.01078 -3.6429 0
M  V30 12124 H 1124.04 3.03265 -4.57516 0
M  V30 12125 H 1124.3 3.36296 -2.8698 0
M  V30 12126 N 1123.36 1.52689 0.390367 0
M  V30 12127 C 1124.6 1.67914 1.13722 0
M  V30 12128 C 1124.94 0.417159 1.89667 0
M  V30 12129 O 1124.21 -0.585005 1.85494 0
M  V30 12130 C 1124.49 2.91331 2.11656 0
M  V30 12131 C 1124.35 4.27626 1.39484 0
M  V30 12132 C 1125.67 3.10293 3.12099 0
M  V30 12133 H 1122.78 0.611047 0.412057 0
M  V30 12134 H 1125.43 1.85283 0.420753 0
M  V30 12135 H 1123.58 2.76654 2.72754 0
M  V30 12136 H 1125.25 4.54068 0.813607 0
M  V30 12137 H 1123.49 4.28169 0.69669 0
M  V30 12138 H 1124.16 5.10066 2.11038 0
M  V30 12139 H 1126.64 3.23992 2.6109 0
M  V30 12140 H 1125.51 3.98127 3.7787 0
M  V30 12141 H 1125.78 2.24448 3.80888 0
M  V30 12142 N 1124.83 -0.648732 1.43629 0
M  V30 12143 C 1125.78 -1.78269 1.49409 0
M  V30 12144 C 1126.78 -1.6537 0.367288 0
M  V30 12145 O 1127.98 -1.71663 0.541476 0
M  V30 12146 H 1124.36 -0.58824 0.468484 0
M  V30 12147 H 1126.33 -1.70514 2.44883 0
M  V30 12148 C 1125.08 -3.16545 1.43856 0
M  V30 12149 H 1124.4 -3.2711 2.29868 0
M  V30 12150 H 1125.84 -3.95833 1.51961 0
M  V30 12151 C 1124.3 -3.36535 0.156779 0
M  V30 12152 O 1124.83 -3.94052 -0.780124 0
M  V30 12153 N 1123.04 -2.90526 0.0655319 0
M  V30 12154 H 1122.58 -2.43904 0.828768 0
M  V30 12155 H 1122.54 -3.04277 -0.791379 0
M  V30 12156 N 1126.31 -1.30234 -0.887518 0
M  V30 12157 C 1127.24 -1.18969 -2.00919 0
M  V30 12158 C 1128.22 -0.080952 -1.69907 0
M  V30 12159 O 1129.41 -0.262546 -1.92417 0
M  V30 12160 C 1126.54 -0.878094 -3.36016 0
M  V30 12161 C 1125.49 -1.94449 -3.81279 0
M  V30 12162 C 1124.82 -1.48594 -5.13638 0
M  V30 12163 C 1126.12 -3.35519 -4.00281 0
M  V30 12164 H 1127.81 -2.12808 -2.10602 0
M  V30 12165 H 1125.36 -1.02454 -1.01189 0
M  V30 12166 H 1127.31 -0.785954 -4.14006 0
M  V30 12167 H 1126.04 0.0959779 -3.26459 0
M  V30 12168 H 1124.69 -2.02622 -3.05516 0
M  V30 12169 H 1124.34 -0.500204 -5.00507 0
M  V30 12170 H 1124.04 -2.19921 -5.44893 0
M  V30 12171 H 1125.57 -1.40754 -5.94156 0
M  V30 12172 H 1126.98 -3.30119 -4.68716 0
M  V30 12173 H 1125.38 -4.0491 -4.42909 0
M  V30 12174 H 1126.45 -3.77597 -3.04218 0
M  V30 12175 N 1127.79 1.09952 -1.12909 0
M  V30 12176 C 1129.04 1.82286 -0.888797 0
M  V30 12177 C 1129.37 1.85218 0.58379 0
M  V30 12178 O 1128.64 1.31645 1.43177 0
M  V30 12179 C 1128.93 3.28706 -1.47053 0
M  V30 12180 C 1128.78 3.34078 -3.01184 0
M  V30 12181 C 1130.1 4.25233 -1.13424 0
M  V30 12182 H 1127.22 0.661803 -0.324324 0
M  V30 12183 H 1129.86 1.28833 -1.3965 0
M  V30 12184 H 1128.01 3.74356 -1.03874 0
M  V30 12185 H 1129.68 2.96871 -3.5308 0
M  V30 12186 H 1127.93 2.73825 -3.36455 0
M  V30 12187 H 1128.6 4.37202 -3.36984 0
M  V30 12188 H 1131.07 3.87841 -1.50726 0
M  V30 12189 H 1129.95 5.26033 -1.56783 0
M  V30 12190 H 1130.21 4.42075 -0.0471496 0
M  V30 12191 N 1129.27 0.921757 1.27833 0
M  V30 12192 C 1130.51 0.559906 1.94918 0
M  V30 12193 C 1130.85 -0.895532 1.72319 0
M  V30 12194 O 1130.12 -1.638 1.04879 0
M  V30 12195 C 1130.41 0.879458 3.49196 0
M  V30 12196 C 1130.26 2.38821 3.81162 0
M  V30 12197 C 1131.58 0.381183 4.38446 0
M  V30 12198 H 1128.7 0.204893 0.707946 0
M  V30 12199 H 1131.34 1.15246 1.51058 0
M  V30 12200 H 1129.49 0.375177 3.86684 0
M  V30 12201 H 1131.16 2.96373 3.53498 0
M  V30 12202 H 1129.4 2.83988 3.27923 0
M  V30 12203 H 1130.07 2.56234 4.88926 0
M  V30 12204 H 1132.55 0.813289 4.08075 0
M  V30 12205 H 1131.43 0.633778 5.45229 0
M  V30 12206 H 1131.69 -0.718651 4.3622 0
M  V30 12207 N 1130.75 -1.41857 0.686609 0
M  V30 12208 C 1131.68 -2.28174 -0.0347358 0
M  V30 12209 C 1132.66 -1.41732 -0.796928 0
M  V30 12210 O 1133.84 -1.71165 -0.789607 0
M  V30 12211 C 1130.97 -3.21801 -1.0565 0
M  V30 12212 C 1130.01 -4.24727 -0.388523 0
M  V30 12213 S 1130.85 -5.28508 0.862546 0
M  V30 12214 C 1132 -6.25701 -0.157849 0
M  V30 12215 H 1132.24 -2.89005 0.697381 0
M  V30 12216 H 1129.77 -1.46861 0.476562 0
M  V30 12217 H 1131.73 -3.76278 -1.64089 0
M  V30 12218 H 1130.39 -2.60082 -1.76114 0
M  V30 12219 H 1129.58 -4.90471 -1.15991 0
M  V30 12220 H 1129.18 -3.73799 0.122567 0
M  V30 12221 H 1131.48 -6.6987 -1.01393 0
M  V30 12222 H 1132.42 -7.06569 0.465437 0
M  V30 12223 H 1132.83 -5.62204 -0.508614 0
M  V30 12224 N 1132.22 -0.430739 -1.51599 0
M  V30 12225 C 1133.5 0.197543 -1.946 0
M  V30 12226 C 1133.88 1.6069 -1.36901 0
M  V30 12227 O 1133.23 2.21697 -0.553422 0
M  V30 12228 C 1133.44 0.181976 -3.48525 0
M  V30 12229 C 1134.79 0.390783 -4.22798 0
M  V30 12230 O 1135.81 0.260384 -3.55247 0
M  V30 12231 O 1134.67 0.649701 -5.42624 0
M  V30 12232 H 1131.76 0.133524 -0.81615 0
M  V30 12233 H 1134.31 -0.488243 -1.62525 0
M  V30 12234 H 1133.08 -0.803584 -3.8296 0
M  V30 12235 H 1132.71 0.910952 -3.87024 0
M  V30 12236 N 1133.7 1.56767 -0.161869 0
M  V30 12237 C 1135.11 1.83265 0.356466 0
M  V30 12238 C 1135.46 1.08127 1.63716 0
M  V30 12239 O 1134.59 0.33127 2.13849 0
M  V30 12240 C 1135.18 3.32437 0.653521 0
M  V30 12241 C 1133.74 3.59465 1.11633 0
M  V30 12242 C 1132.89 2.76909 0.147204 0
M  V30 12243 H 1135.84 1.53926 -0.386308 0
M  V30 12244 H 1135.86 3.49401 1.50662 0
M  V30 12245 H 1135.37 3.87098 -0.278766 0
M  V30 12246 H 1133.48 3.10206 2.06404 0
M  V30 12247 H 1133.59 4.67853 1.03202 0
M  V30 12248 H 1131.95 2.46457 0.642739 0
M  V30 12249 H 1132.74 3.34346 -0.778938 0
M  V30 12250 N 1135.18 -0.111886 1.57202 0
M  V30 12251 C 1136.43 -0.818411 1.85225 0
M  V30 12252 C 1136.76 -1.79542 0.747991 0
M  V30 12253 O 1136.01 -1.93965 -0.260013 0
M  V30 12254 C 1136.31 -1.59644 3.19763 0
M  V30 12255 C 1135.98 -0.76308 4.44396 0
M  V30 12256 C 1134.64 -0.53329 4.78236 0
M  V30 12257 C 1136.99 -0.18266 5.2088 0
M  V30 12258 C 1134.32 0.287056 5.85997 0
M  V30 12259 C 1136.67 0.624916 6.29506 0
M  V30 12260 C 1135.33 0.864955 6.61872 0
M  V30 12261 H 1134.6 -0.299478 0.677786 0
M  V30 12262 H 1137.25 -0.0805082 1.91331 0
M  V30 12263 H 1135.56 -2.40545 3.09266 0
M  V30 12264 H 1137.25 -2.1472 3.38669 0
M  V30 12265 H 1133.84 -0.952278 4.17887 0
M  V30 12266 H 1138.03 -0.34739 4.95083 0
M  V30 12267 H 1133.28 0.482179 6.09496 0
M  V30 12268 H 1137.46 1.08162 6.87949 0
M  V30 12269 H 1135.08 1.50244 7.45205 0
M  V30 12270 N 1136.66 -1.52894 -0.382264 0
M  V30 12271 C 1137.9 -1.68515 -1.12829 0
M  V30 12272 C 1138.24 -0.427211 -1.89443 0
M  V30 12273 O 1137.51 0.57516 -1.85801 0
M  V30 12274 C 1137.8 -2.92449 -2.10108 0
M  V30 12275 C 1137.65 -4.2836 -1.37214 0
M  V30 12276 C 1138.97 -3.11944 -3.1045 0
M  V30 12277 H 1136.09 -0.613223 -0.408811 0
M  V30 12278 H 1138.73 -1.85503 -0.410921 0
M  V30 12279 H 1136.88 -2.78097 -2.71283 0
M  V30 12280 H 1138.55 -4.54493 -0.789516 0
M  V30 12281 H 1136.79 -4.28532 -0.673973 0
M  V30 12282 H 1137.46 -5.11178 -2.0833 0
M  V30 12283 H 1139.94 -3.25372 -2.59369 0
M  V30 12284 H 1138.82 -4.00125 -3.75754 0
M  V30 12285 H 1139.08 -2.26465 -3.79692 0
M  V30 12286 N 1138.14 0.641106 -1.43971 0
M  V30 12287 C 1139.41 1.39897 -1.36704 0
M  V30 12288 C 1139.79 2.1109 -0.0208051 0
M  V30 12289 O 1139.14 2.05638 0.99625 0
M  V30 12290 C 1139.35 2.37366 -2.55849 0
M  V30 12291 C 1140.7 3.01 -2.99473 0
M  V30 12292 O 1141.72 2.47692 -2.55982 0
M  V30 12293 O 1140.58 3.9768 -3.74851 0
M  V30 12294 H 1137.68 0.625623 -0.540855 0
M  V30 12295 H 1140.22 0.666997 -1.56042 0
M  V30 12296 H 1139 1.8379 -3.45452 0
M  V30 12297 H 1138.62 3.17995 -2.38673 0
M  V30 12298 N 1139.62 1.30703 0.880598 0
M  V30 12299 C 1140.55 1.20033 2.00286 0
M  V30 12300 C 1141.53 0.0899614 1.69862 0
M  V30 12301 O 1142.71 0.272747 1.92275 0
M  V30 12302 C 1139.84 0.895902 3.35546 0
M  V30 12303 C 1138.8 1.96468 3.80242 0
M  V30 12304 C 1138.12 1.51316 5.12843 0
M  V30 12305 C 1139.42 3.37637 3.98496 0
M  V30 12306 H 1141.12 2.13922 2.0947 0
M  V30 12307 H 1138.66 1.02989 1.00644 0
M  V30 12308 H 1140.61 0.807899 4.13583 0
M  V30 12309 H 1139.34 -0.0786636 3.26505 0
M  V30 12310 H 1138 2.0424 3.04437 0
M  V30 12311 H 1137.65 0.52674 5.00234 0
M  V30 12312 H 1137.35 2.22807 5.43719 0
M  V30 12313 H 1138.87 1.43903 5.93401 0
M  V30 12314 H 1140.28 3.326 4.66959 0
M  V30 12315 H 1138.68 4.07253 4.40755 0
M  V30 12316 H 1139.75 3.79205 3.02211 0
M  V30 12317 N 1141.09 -1.09351 1.1349 0
M  V30 12318 C 1142.06 -2.14185 0.815919 0
M  V30 12319 C 1143.06 -1.59845 -0.174976 0
M  V30 12320 O 1144.25 -1.74122 0.0521971 0
M  V30 12321 C 1141.38 -3.40224 0.214517 0
M  V30 12322 H 1142.57 -2.43913 1.74489 0
M  V30 12323 H 1140.12 -1.24902 0.939634 0
M  V30 12324 H 1140.86 -3.16123 -0.723634 0
M  V30 12325 H 1140.64 -3.80958 0.928102 0
M  V30 12326 H 1142.13 -4.17599 0.00821999 0
M  V30 12327 N 1142.57 -0.928524 -1.27343 0
M  V30 12328 C 1143.82 -0.565207 -1.93619 0
M  V30 12329 C 1144.13 0.897988 -1.73769 0
M  V30 12330 O 1145.34 1.37012 -2.34393 0
M  V30 12331 C 1143.8 -0.960052 -3.46859 0
M  V30 12332 C 1143.4 -2.44399 -3.75464 0
M  V30 12333 C 1145.15 -0.668026 -4.19211 0
M  V30 12334 C 1143.05 -2.77819 -5.22083 0
M  V30 12335 H 1141.98 -0.207665 -0.724839 0
M  V30 12336 H 1144.64 -1.12945 -1.44623 0
M  V30 12337 H 1143.02 -0.324454 -3.94669 0
M  V30 12338 H 1144.19 -3.12756 -3.38408 0
M  V30 12339 H 1142.51 -2.70799 -3.16317 0
M  V30 12340 H 1145.1 -0.894207 -5.2717 0
M  V30 12341 H 1145.45 0.394788 -4.14424 0
M  V30 12342 H 1145.98 -1.26276 -3.77226 0
M  V30 12343 H 1142.72 -3.83013 -5.3196 0
M  V30 12344 H 1142.24 -2.14112 -5.60282 0
M  V30 12345 H 1143.92 -2.65607 -5.89968 0
M  V30 12346 N 1144.05 1.41491 -0.694123 0
M  V30 12347 C 1145.28 2.05579 -0.233466 0
M  V30 12348 C 1145.69 1.5223 1.11675 0
M  V30 12349 O 1145.05 0.669937 1.69759 0
M  V30 12350 C 1145.1 3.61047 -0.180967 0
M  V30 12351 O 1144.82 4.12421 -1.47785 0
M  V30 12352 C 1146.32 4.42278 0.300853 0
M  V30 12353 H 1143.54 0.662097 -0.108943 0
M  V30 12354 H 1146.09 1.81288 -0.946299 0
M  V30 12355 H 1144.24 3.84381 0.482678 0
M  V30 12356 H 1144.66 5.06454 -1.364 0
M  V30 12357 H 1146.13 5.51256 0.286464 0
M  V30 12358 H 1146.61 4.18276 1.33948 0
M  V30 12359 H 1147.21 4.24004 -0.331741 0
M  V30 12360 N 1145.53 0.438773 1.51369 0
M  V30 12361 C 1146.78 -0.128723 2.01289 0
M  V30 12362 C 1147.09 -1.43659 1.32745 0
M  V30 12363 O 1148.3 -2.08712 1.73642 0
M  V30 12364 C 1146.75 -0.279945 3.5881 0
M  V30 12365 C 1146.36 1.01758 4.3629 0
M  V30 12366 C 1148.1 -0.801133 4.16872 0
M  V30 12367 C 1146.01 0.831918 5.85519 0
M  V30 12368 H 1144.94 -0.0518814 0.752213 0
M  V30 12369 H 1147.59 0.568753 1.74463 0
M  V30 12370 H 1145.97 -1.04046 3.82087 0
M  V30 12371 H 1147.15 1.78653 4.24758 0
M  V30 12372 H 1145.46 1.46741 3.89687 0
M  V30 12373 H 1148.06 -0.956548 5.26074 0
M  V30 12374 H 1148.4 -1.78396 3.76139 0
M  V30 12375 H 1148.94 -0.0988934 3.97677 0
M  V30 12376 H 1145.67 1.78716 6.30667 0
M  V30 12377 H 1145.19 0.102785 5.99712 0
M  V30 12378 H 1146.87 0.485681 6.45174 0
M  V30 12379 N 1147.01 -1.56678 0.170181 0
M  V30 12380 C 1148.25 -1.98743 -0.477534 0
M  V30 12381 C 1148.61 -1.0538 -1.60497 0
M  V30 12382 O 1149.81 -1.3658 -2.31515 0
M  V30 12383 C 1148.08 -3.44565 -0.949186 0
M  V30 12384 S 1149.64 -4.08658 -1.59824 0
M  V30 12385 H 1146.46 -0.694202 -0.153639 0
M  V30 12386 H 1149.06 -1.93663 0.267373 0
M  V30 12387 H 1147.76 -4.1023 -0.118205 0
M  V30 12388 H 1147.3 -3.53409 -1.72816 0
M  V30 12389 H 1149.31 -4.03614 -2.88635 0
M  V30 12390 N 1148.48 0.103547 -1.57259 0
M  V30 12391 C 1149.73 0.807231 -1.84842 0
M  V30 12392 C 1150.05 1.80308 -0.758181 0
M  V30 12393 O 1151.25 2.55406 -0.920877 0
M  V30 12394 C 1149.71 1.4864 -3.27771 0
M  V30 12395 C 1149.32 0.53075 -4.44845 0
M  V30 12396 C 1151.06 2.17431 -3.64587 0
M  V30 12397 C 1148.97 1.21403 -5.78805 0
M  V30 12398 H 1147.9 0.305212 -0.689465 0
M  V30 12399 H 1150.55 0.0600855 -1.83402 0
M  V30 12400 H 1148.93 2.28071 -3.23728 0
M  V30 12401 H 1150.1 -0.231455 -4.60218 0
M  V30 12402 H 1148.42 -0.0510078 -4.16369 0
M  V30 12403 H 1151.02 2.6927 -4.6195 0
M  V30 12404 H 1151.36 2.9594 -2.92789 0
M  V30 12405 H 1151.89 1.4487 -3.70483 0
M  V30 12406 H 1148.63 0.469918 -6.53813 0
M  V30 12407 H 1148.15 1.94787 -5.6729 0
M  V30 12408 H 1149.83 1.74289 -6.23083 0
M  V30 12409 N 1149.96 1.53094 0.37415 0
M  V30 12410 C 1151.21 1.69111 1.11934 0
M  V30 12411 C 1151.54 0.437252 1.89213 0
M  V30 12412 O 1150.82 -0.565298 1.86104 0
M  V30 12413 C 1151.1 2.93559 2.08554 0
M  V30 12414 C 1150.95 4.29082 1.3494 0
M  V30 12415 C 1152.27 3.13586 3.08791 0
M  V30 12416 H 1149.39 0.615383 0.405553 0
M  V30 12417 H 1152.03 1.85719 0.401078 0
M  V30 12418 H 1150.18 2.79531 2.69805 0
M  V30 12419 H 1151.85 4.54906 0.765402 0
M  V30 12420 H 1150.1 4.28884 0.651238 0
M  V30 12421 H 1150.77 5.12275 2.05616 0
M  V30 12422 H 1153.24 3.26743 2.57639 0
M  V30 12423 H 1152.12 4.02112 3.73627 0
M  V30 12424 H 1152.38 2.28475 3.78486 0
M  V30 12425 N 1151.44 -0.633461 1.44309 0
M  V30 12426 C 1152.37 -1.75676 1.53819 0
M  V30 12427 C 1153.35 -1.65537 0.391365 0
M  V30 12428 O 1154.54 -1.84332 0.611181 0
M  V30 12429 C 1151.67 -3.14197 1.47979 0
M  V30 12430 C 1150.62 -3.39122 2.61113 0
M  V30 12431 C 1149.95 -4.77648 2.40325 0
M  V30 12432 C 1151.25 -3.31914 4.03274 0
M  V30 12433 H 1152.94 -1.67974 2.47841 0
M  V30 12434 H 1150.49 -0.8067 1.19283 0
M  V30 12435 H 1152.44 -3.92553 1.53233 0
M  V30 12436 H 1151.16 -3.22677 0.504718 0
M  V30 12437 H 1149.82 -2.63145 2.55245 0
M  V30 12438 H 1149.47 -4.82829 1.41016 0
M  V30 12439 H 1149.17 -4.95284 3.16177 0
M  V30 12440 H 1150.69 -5.58237 2.47394 0
M  V30 12441 H 1152.11 -4.00178 4.10524 0
M  V30 12442 H 1150.5 -3.61085 4.7931 0
M  V30 12443 H 1151.57 -2.29761 4.2701 0
M  V30 12444 N 1152.92 -1.31168 -0.873655 0
M  V30 12445 C 1153.87 -1.18432 -2.00191 0
M  V30 12446 C 1154.86 -0.0934873 -1.69142 0
M  V30 12447 O 1156.07 -0.255126 -1.78183 0
M  V30 12448 H 1152.44 -0.366594 -0.656592 0
M  V30 12449 H 1154.41 -2.13896 -2.08065 0
M  V30 12450 C 1153.16 -0.904668 -3.35725 0
M  V30 12451 H 1152.48 -1.73617 -3.60135 0
M  V30 12452 H 1153.92 -0.855715 -4.15275 0
M  V30 12453 C 1152.38 0.392554 -3.34605 0
M  V30 12454 O 1152.91 1.41052 -3.76121 0
M  V30 12455 N 1151.12 0.40777 -2.87725 0
M  V30 12456 H 1150.67 -0.42112 -2.54134 0
M  V30 12457 H 1150.62 1.27564 -2.87358 0
M  V30 12458 N 1154.4 1.08748 -1.14068 0
M  V30 12459 C 1155.62 1.84814 -0.930138 0
M  V30 12460 C 1156.04 1.81461 0.521267 0
M  V30 12461 O 1155.4 1.21577 1.36108 0
M  V30 12462 C 1155.45 3.32501 -1.41863 0
M  V30 12463 O 1155.17 3.35846 -2.81317 0
M  V30 12464 C 1156.67 4.25384 -1.24753 0
M  V30 12465 H 1153.89 0.583546 -0.331233 0
M  V30 12466 H 1156.43 1.37366 -1.51495 0
M  V30 12467 H 1154.59 3.7735 -0.876664 0
M  V30 12468 H 1155 4.28013 -3.03159 0
M  V30 12469 H 1156.48 5.27138 -1.63798 0
M  V30 12470 H 1156.95 4.38789 -0.18999 0
M  V30 12471 H 1157.56 3.86357 -1.77787 0
M  V30 12472 N 1155.87 0.935264 1.26849 0
M  V30 12473 C 1156.8 0.457776 2.28969 0
M  V30 12474 C 1157.79 -0.48587 1.63013 0
M  V30 12475 O 1158.97 -0.388998 1.90264 0
M  V30 12476 C 1156.1 -0.283332 3.46142 0
M  V30 12477 C 1155.05 0.573196 4.24144 0
M  V30 12478 C 1154.38 -0.297525 5.33872 0
M  V30 12479 C 1155.68 1.84153 4.88759 0
M  V30 12480 H 1157.37 1.31125 2.69159 0
M  V30 12481 H 1154.92 0.631956 1.29392 0
M  V30 12482 H 1156.87 -0.628366 4.16689 0
M  V30 12483 H 1155.6 -1.1709 3.04889 0
M  V30 12484 H 1154.26 0.901043 3.55354 0
M  V30 12485 H 1153.9 -1.18427 4.8886 0
M  V30 12486 H 1153.6 0.272126 5.8697 0
M  V30 12487 H 1155.13 -0.637961 6.07258 0
M  V30 12488 H 1156.54 1.5641 5.51551 0
M  V30 12489 H 1154.94 2.35528 5.51948 0
M  V30 12490 H 1156.01 2.5565 4.12033 0
M  V30 12491 N 1157.35 -1.41121 0.701616 0
M  V30 12492 C 1158.6 -2.0113 0.235147 0
M  V30 12493 C 1158.93 -1.55587 -1.16718 0
M  V30 12494 O 1158.18 -0.760615 -1.80314 0
M  V30 12495 C 1158.48 -3.5654 0.247781 0
M  V30 12496 C 1158.15 -4.21616 1.59846 0
M  V30 12497 C 1156.81 -4.39106 1.96822 0
M  V30 12498 C 1159.16 -4.58048 2.48679 0
M  V30 12499 C 1156.49 -4.90307 3.22205 0
M  V30 12500 C 1158.84 -5.10642 3.734 0
M  V30 12501 C 1157.51 -5.26343 4.10512 0
M  V30 12502 H 1156.78 -0.735987 0.0860462 0
M  V30 12503 H 1159.42 -1.68932 0.901898 0
M  V30 12504 H 1157.73 -3.88564 -0.502528 0
M  V30 12505 H 1159.42 -4.00787 -0.130766 0
M  V30 12506 H 1156.01 -4.08381 1.30088 0
M  V30 12507 H 1160.2 -4.44184 2.21391 0
M  V30 12508 H 1155.45 -5.00647 3.50945 0
M  V30 12509 H 1159.63 -5.37811 4.42416 0
M  V30 12510 H 1157.26 -5.65779 5.07738 0
M  V30 12511 N 1158.83 -0.446794 -1.51134 0
M  V30 12512 C 1159.76 0.405311 -2.24572 0
M  V30 12513 C 1160.74 1.01679 -1.26886 0
M  V30 12514 O 1161.93 1.05743 -1.56047 0
M  V30 12515 C 1159.05 1.56573 -3.00338 0
M  V30 12516 C 1158.1 1.07401 -4.12756 0
M  V30 12517 S 1158.93 0.00835038 -5.35499 0
M  V30 12518 C 1160.09 1.17321 -6.14806 0
M  V30 12519 H 1160.32 -0.218143 -2.96499 0
M  V30 12520 H 1157.85 -0.231405 -1.52656 0
M  V30 12521 H 1159.81 2.23092 -3.44587 0
M  V30 12522 H 1158.47 2.16062 -2.27982 0
M  V30 12523 H 1157.67 1.94204 -4.65082 0
M  V30 12524 H 1157.27 0.486906 -3.70817 0
M  V30 12525 H 1159.56 2.08972 -6.44466 0
M  V30 12526 H 1160.5 0.689723 -7.04733 0
M  V30 12527 H 1160.91 1.41605 -5.4645 0
M  V30 12528 N 1160.31 1.56586 -0.178487 0
M  V30 12529 C 1161.27 2.17091 0.73512 0
M  V30 12530 C 1162.27 1.12088 1.15295 0
M  V30 12531 O 1163.46 1.37563 1.06874 0
M  V30 12532 C 1160.59 2.75957 2.00151 0
M  V30 12533 H 1161.79 2.99176 0.208272 0
M  V30 12534 H 1159.34 1.56138 0.0710967 0
M  V30 12535 H 1160.07 1.97626 2.57127 0
M  V30 12536 H 1159.86 3.52809 1.7108 0
M  V30 12537 H 1161.35 3.2247 2.65335 0
M  V30 12538 N 1161.79 -0.095206 1.57312 0
M  V30 12539 C 1162.72 -1.14662 1.97301 0
M  V30 12540 C 1163.7 -1.38845 0.846212 0
M  V30 12541 O 1164.88 -1.52607 1.1065 0
M  V30 12542 C 1162.01 -2.49582 2.28968 0
M  V30 12543 C 1161.05 -2.41681 3.51415 0
M  V30 12544 S 1161.89 -1.83343 5.03136 0
M  V30 12545 C 1163.04 -3.19888 5.3798 0
M  V30 12546 H 1163.28 -0.805726 2.86174 0
M  V30 12547 H 1160.81 -0.302881 1.514 0
M  V30 12548 H 1162.77 -3.27202 2.47889 0
M  V30 12549 H 1161.43 -2.80841 1.40667 0
M  V30 12550 H 1160.62 -3.41122 3.71015 0
M  V30 12551 H 1160.22 -1.7219 3.32004 0
M  V30 12552 H 1162.52 -4.16161 5.34618 0
M  V30 12553 H 1163.46 -3.05093 6.39002 0
M  V30 12554 H 1163.87 -3.19414 4.6544 0
M  V30 12555 N 1163.26 -1.53291 -0.366026 0
M  V30 12556 C 1164.17 -1.82656 -1.47221 0
M  V30 12557 C 1165.19 -0.71491 -1.58635 0
M  V30 12558 O 1166.37 -1.00492 -1.74538 0
M  V30 12559 C 1163.43 -2.00995 -2.82492 0
M  V30 12560 C 1162.49 -3.24895 -2.8061 0
M  V30 12561 C 1161.73 -3.4235 -4.09429 0
M  V30 12562 O 1161.95 -2.6411 -5.05571 0
M  V30 12563 O 1160.88 -4.35702 -4.15268 0
M  V30 12564 H 1164.71 -2.76634 -1.2533 0
M  V30 12565 H 1162.29 -1.38665 -0.556084 0
M  V30 12566 H 1164.18 -2.14632 -3.62645 0
M  V30 12567 H 1162.85 -1.10207 -3.04362 0
M  V30 12568 H 1161.76 -3.16682 -1.99157 0
M  V30 12569 H 1163.09 -4.15604 -2.63694 0
M  V30 12570 N 1164.74 0.6258 -1.44643 0
M  V30 12571 C 1165.69 1.73135 -1.48352 0
M  V30 12572 C 1166.68 1.57076 -0.348716 0
M  V30 12573 O 1167.87 1.66722 -0.594379 0
M  V30 12574 C 1165 3.11838 -1.43568 0
M  V30 12575 C 1164.08 3.33348 -2.62183 0
M  V30 12576 N 1164.47 3.252 -3.87399 0
M  V30 12577 C 1162.77 3.64162 -2.57492 0
M  V30 12578 C 1163.47 3.47544 -4.66463 0
M  V30 12579 N 1162.45 3.70672 -3.97622 0
M  V30 12580 H 1166.25 1.65301 -2.43008 0
M  V30 12581 H 1163.77 0.828449 -1.3968 0
M  V30 12582 H 1165.76 3.91127 -1.44309 0
M  V30 12583 H 1164.42 3.20834 -0.499547 0
M  V30 12584 H 1165.43 3.04001 -4.19289 0
M  V30 12585 H 1162.11 3.80107 -1.727 0
M  V30 12586 H 1163.5 3.46792 -5.75487 0
M  V30 12587 N 1166.22 1.31629 0.866686 0
M  V30 12588 C 1167.45 1.24293 1.6503 0
M  V30 12589 C 1167.86 -0.193556 1.88207 0
M  V30 12590 O 1167.2 -1.13712 1.44275 0
M  V30 12591 C 1167.26 1.92032 3.03914 0
M  V30 12592 C 1166.93 3.41373 3.03831 0
M  V30 12593 C 1167.92 4.37064 2.81551 0
M  V30 12594 C 1165.61 3.83118 3.24848 0
M  V30 12595 C 1167.6 5.72474 2.80272 0
M  V30 12596 C 1165.29 5.18639 3.23197 0
M  V30 12597 C 1166.29 6.13128 3.00936 0
M  V30 12598 O 1165.98 7.46172 2.99137 0
M  V30 12599 H 1165.71 0.430569 0.521139 0
M  V30 12600 H 1168.26 1.74105 1.0898 0
M  V30 12601 H 1166.49 1.36774 3.61704 0
M  V30 12602 H 1168.18 1.78567 3.64512 0
M  V30 12603 H 1168.95 4.06142 2.65093 0
M  V30 12604 H 1164.83 3.10001 3.41204 0
M  V30 12605 H 1168.37 6.46199 2.62816 0
M  V30 12606 H 1164.27 5.49196 3.39197 0
M  V30 12607 H 1165.04 7.55385 3.15175 0
M  V30 12608 N 1167.7 -1.08142 1.14644 0
M  V30 12609 C 1169.11 -1.62061 0.926986 0
M  V30 12610 C 1169.46 -1.88805 -0.533578 0
M  V30 12611 O 1168.59 -1.64753 -1.40305 0
M  V30 12612 C 1169.18 -2.94425 1.67629 0
M  V30 12613 C 1167.74 -3.45118 1.50235 0
M  V30 12614 C 1166.89 -2.19307 1.69705 0
M  V30 12615 H 1169.84 -0.913326 1.29785 0
M  V30 12616 H 1169.86 -3.62987 1.14107 0
M  V30 12617 H 1169.37 -2.74928 2.73927 0
M  V30 12618 H 1167.47 -3.69713 0.462967 0
M  V30 12619 H 1167.59 -4.2169 2.27408 0
M  V30 12620 H 1165.95 -2.28611 1.12291 0
M  V30 12621 H 1166.73 -2.02315 2.77351 0
M  V30 12622 N 1169.18 -0.941978 -1.26351 0
M  V30 12623 C 1170.11 -0.396486 -2.24729 0
M  V30 12624 C 1171.09 0.51514 -1.54224 0
M  V30 12625 O 1172.27 0.452405 -1.82991 0
M  V30 12626 C 1169.4 0.430232 -3.35956 0
M  V30 12627 C 1168.45 -0.419981 -4.24427 0
M  V30 12628 S 1169.28 -1.84442 -5.02734 0
M  V30 12629 C 1170.43 -1.02578 -6.17437 0
M  V30 12630 H 1170.67 -1.23025 -2.70651 0
M  V30 12631 H 1168.2 -0.745148 -1.35229 0
M  V30 12632 H 1170.16 0.901315 -4.00483 0
M  V30 12633 H 1168.82 1.23868 -2.88644 0
M  V30 12634 H 1168.01 0.213475 -5.03548 0
M  V30 12635 H 1167.61 -0.82578 -3.6477 0
M  V30 12636 H 1169.91 -0.268431 -6.76968 0
M  V30 12637 H 1170.85 -1.79047 -6.85089 0
M  V30 12638 H 1171.26 -0.561488 -5.61701 0
M  V30 12639 N 1170.66 1.40747 -0.709091 0
M  V30 12640 C 1171.88 2.05319 -0.255258 0
M  V30 12641 C 1172.3 1.53406 1.10054 0
M  V30 12642 O 1171.66 0.687905 1.69039 0
M  V30 12643 C 1171.71 3.60835 -0.219251 0
M  V30 12644 O 1171.43 4.1083 -1.52151 0
M  V30 12645 C 1172.93 4.42572 0.253927 0
M  V30 12646 H 1170.15 0.660904 -0.115959 0
M  V30 12647 H 1172.69 1.80274 -0.965474 0
M  V30 12648 H 1170.85 3.84872 0.441882 0
M  V30 12649 H 1171.26 5.04979 -1.41764 0
M  V30 12650 H 1172.74 5.51529 0.22798 0
M  V30 12651 H 1173.21 4.19673 1.29504 0
M  V30 12652 H 1173.82 4.23629 -0.376694 0
M  V30 12653 N 1172.13 0.454803 1.50895 0
M  V30 12654 C 1173.41 -0.166559 1.9489 0
M  V30 12655 C 1173.79 -1.58492 1.3944 0
M  V30 12656 O 1173.14 -2.20788 0.588622 0
M  V30 12657 C 1173.35 -0.126506 3.48771 0
M  V30 12658 C 1174.7 -0.32347 4.23366 0
M  V30 12659 O 1175.72 -0.203835 3.55616 0
M  V30 12660 O 1174.58 -0.563292 5.43589 0
M  V30 12661 H 1171.67 -0.120523 0.818171 0
M  V30 12662 H 1174.22 0.514037 1.61727 0
M  V30 12663 H 1172.99 0.864407 3.81633 0
M  V30 12664 H 1172.61 -0.849264 3.88424 0
M  V30 12665 N 1173.61 -1.56489 0.186789 0
M  V30 12666 C 1174.56 -2.15311 -0.750024 0
M  V30 12667 C 1175.55 -1.09156 -1.18211 0
M  V30 12668 O 1176.74 -1.3524 -1.14189 0
M  V30 12669 C 1173.87 -2.80952 -1.97284 0
M  V30 12670 C 1172.95 -3.94286 -1.56204 0
M  V30 12671 N 1173.34 -4.98406 -0.861705 0
M  V30 12672 C 1171.64 -4.05733 -1.85194 0
M  V30 12673 C 1172.34 -5.77977 -0.657078 0
M  V30 12674 N 1171.32 -5.30116 -1.20326 0
M  V30 12675 H 1175.12 -2.93176 -0.206148 0
M  V30 12676 H 1172.63 -1.62395 -0.0133163 0
M  V30 12677 H 1174.63 -3.21479 -2.65437 0
M  V30 12678 H 1173.29 -2.04572 -2.52152 0
M  V30 12679 H 1174.3 -5.15302 -0.518067 0
M  V30 12680 H 1170.98 -3.40472 -2.4163 0
M  V30 12681 H 1172.37 -6.71822 -0.102123 0
M  V30 12682 N 1175.09 0.086862 -1.5736 0
M  V30 12683 C 1176.34 0.78884 -1.86504 0
M  V30 12684 C 1176.66 1.78329 -0.77646 0
M  V30 12685 O 1175.92 1.94354 0.229122 0
M  V30 12686 C 1176.22 1.54537 -3.22263 0
M  V30 12687 C 1175.88 0.692284 -4.45554 0
M  V30 12688 C 1174.55 0.45714 -4.79024 0
M  V30 12689 C 1176.9 0.0997695 -5.21105 0
M  V30 12690 C 1174.23 -0.380247 -5.85466 0
M  V30 12691 C 1176.58 -0.724986 -6.28432 0
M  V30 12692 C 1175.24 -0.970144 -6.60412 0
M  V30 12693 H 1174.51 0.288657 -0.682465 0
M  V30 12694 H 1177.16 0.050059 -1.91435 0
M  V30 12695 H 1175.46 2.35594 -3.13053 0
M  V30 12696 H 1177.16 2.09305 -3.42042 0
M  V30 12697 H 1173.75 0.885675 -4.19349 0
M  V30 12698 H 1177.94 0.268583 -4.95573 0
M  V30 12699 H 1173.19 -0.579084 -6.08651 0
M  V30 12700 H 1177.37 -1.19093 -6.86141 0
M  V30 12701 H 1174.99 -1.6208 -7.42721 0
M  V30 12702 N 1176.57 1.53483 0.357892 0
M  V30 12703 C 1177.52 1.81143 1.45911 0
M  V30 12704 C 1178.51 0.681002 1.55109 0
M  V30 12705 O 1179.72 0.864086 1.57904 0
M  V30 12706 H 1176.09 0.573663 0.486225 0
M  V30 12707 H 1178.06 2.733 1.19789 0
M  V30 12708 C 1176.81 2.02509 2.8264 0
M  V30 12709 H 1176.13 2.88938 2.76324 0
M  V30 12710 H 1177.57 2.25837 3.58851 0
M  V30 12711 C 1176.03 0.806412 3.27106 0
M  V30 12712 O 1176.56 -0.00116809 4.017 0
M  V30 12713 N 1174.77 0.627677 2.8374 0
M  V30 12714 H 1174.32 1.28601 2.23203 0
M  V30 12715 H 1174.27 -0.186301 3.13848 0
M  V30 12716 N 1178.05 -0.61812 1.44973 0
M  V30 12717 C 1178.99 -1.75059 1.53157 0
M  V30 12718 C 1179.99 -1.64554 0.402282 0
M  V30 12719 O 1181.19 -1.70475 0.577767 0
M  V30 12720 H 1177.57 -0.57817 0.480856 0
M  V30 12721 H 1179.54 -1.65281 2.48445 0
M  V30 12722 C 1178.29 -3.13423 1.50538 0
M  V30 12723 H 1177.61 -3.2216 2.36755 0
M  V30 12724 H 1179.05 -3.92521 1.60323 0
M  V30 12725 C 1177.51 -3.36127 0.228127 0
M  V30 12726 O 1178.04 -3.95618 -0.696364 0
M  V30 12727 N 1176.25 -2.90322 0.127142 0
M  V30 12728 H 1175.79 -2.42091 0.880317 0
M  V30 12729 H 1175.75 -3.05887 -0.726659 0
M  V30 12730 N 1179.52 -1.32087 -0.859693 0
M  V30 12731 C 1180.77 -1.22542 -1.6159 0
M  V30 12732 C 1181.1 0.213533 -1.93022 0
M  V30 12733 O 1180.38 1.14931 -1.56911 0
M  V30 12734 C 1180.66 -2.08004 -2.93949 0
M  V30 12735 C 1180.51 -3.60252 -2.6933 0
M  V30 12736 C 1181.83 -1.93732 -3.95166 0
M  V30 12737 H 1178.95 -0.446504 -0.586347 0
M  V30 12738 H 1181.59 -1.61982 -0.993064 0
M  V30 12739 H 1179.74 -1.74498 -3.47106 0
M  V30 12740 H 1181.42 -4.03947 -2.22766 0
M  V30 12741 H 1179.66 -3.83169 -2.03382 0
M  V30 12742 H 1180.33 -4.1537 -3.63555 0
M  V30 12743 H 1182.81 -2.23075 -3.5125 0
M  V30 12744 H 1181.68 -2.55815 -4.85644 0
M  V30 12745 H 1181.94 -0.903528 -4.32769 0
M  V30 12746 N 1181 1.07532 -1.15215 0
M  V30 12747 C 1181.93 2.1668 -0.870171 0
M  V30 12748 C 1182.91 1.69161 0.178483 0
M  V30 12749 O 1184.1 1.94172 0.0332489 0
M  V30 12750 C 1181.23 3.45464 -0.356666 0
M  V30 12751 C 1180.18 4.06424 -1.34179 0
M  V30 12752 C 1179.51 5.30266 -0.687206 0
M  V30 12753 C 1180.81 4.46666 -2.70715 0
M  V30 12754 H 1182.5 2.40526 -1.7829 0
M  V30 12755 H 1180.05 1.15598 -0.858665 0
M  V30 12756 H 1182 4.21144 -0.146947 0
M  V30 12757 H 1180.72 3.21199 0.591527 0
M  V30 12758 H 1179.38 3.32786 -1.53783 0
M  V30 12759 H 1179.03 5.0229 0.267077 0
M  V30 12760 H 1178.73 5.72009 -1.34462 0
M  V30 12761 H 1180.26 6.08653 -0.487218 0
M  V30 12762 H 1181.67 5.13483 -2.54966 0
M  V30 12763 H 1180.07 4.99355 -3.32813 0
M  V30 12764 H 1181.14 3.58123 -3.26919 0
M  V30 12765 N 1182.48 0.948665 1.2585 0
M  V30 12766 C 1183.71 0.617229 1.97479 0
M  V30 12767 C 1184.12 -0.809406 1.7057 0
M  V30 12768 O 1183.48 -1.54066 0.97826 0
M  V30 12769 C 1183.53 0.859065 3.51144 0
M  V30 12770 O 1183.25 2.2296 3.77121 0
M  V30 12771 C 1184.75 0.539197 4.40009 0
M  V30 12772 H 1181.97 0.231933 0.629641 0
M  V30 12773 H 1184.52 1.27141 1.60173 0
M  V30 12774 H 1182.67 0.25138 3.86584 0
M  V30 12775 H 1183.09 2.29524 4.71613 0
M  V30 12776 H 1184.56 0.758986 5.46757 0
M  V30 12777 H 1185.04 -0.526062 4.36038 0
M  V30 12778 H 1185.64 1.12594 4.10125 0
M  V30 12779 N 1183.96 -1.40369 0.716545 0
M  V30 12780 C 1185.2 -2.01167 0.256846 0
M  V30 12781 C 1185.54 -1.56689 -1.14727 0
M  V30 12782 O 1184.81 -0.787384 -1.7785 0
M  V30 12783 C 1185.1 -3.58511 0.337963 0
M  V30 12784 C 1184.95 -4.13059 1.78052 0
M  V30 12785 C 1186.27 -4.39142 -0.290295 0
M  V30 12786 H 1183.39 -0.730877 0.0948028 0
M  V30 12787 H 1186.03 -1.66833 0.909225 0
M  V30 12788 H 1184.18 -3.87891 -0.217482 0
M  V30 12789 H 1185.85 -3.94472 2.39143 0
M  V30 12790 H 1184.09 -3.67311 2.30793 0
M  V30 12791 H 1184.76 -5.22217 1.78867 0
M  V30 12792 H 1187.24 -4.15697 0.182987 0
M  V30 12793 H 1186.12 -5.48524 -0.203097 0
M  V30 12794 H 1186.38 -4.20209 -1.37394 0
M  V30 12795 N 1185.44 -0.462799 -1.50652 0
M  V30 12796 C 1186.68 0.0948568 -2.01877 0
M  V30 12797 C 1187.01 1.4096 -1.34741 0
M  V30 12798 O 1186.28 1.89671 -0.49006 0
M  V30 12799 H 1184.86 0.0380453 -0.746031 0
M  V30 12800 H 1187.52 -0.611327 -1.85064 0
M  V30 12801 H 1186.61 0.252378 -3.11078 0
M  V30 12802 N 1186.91 1.56388 -0.195085 0
M  V30 12803 C 1187.86 2.20431 0.742484 0
M  V30 12804 C 1188.86 1.17548 1.21979 0
M  V30 12805 O 1190.06 1.35693 1.18269 0
M  V30 12806 H 1186.44 0.706435 0.257786 0
M  V30 12807 H 1188.41 2.97865 0.178624 0
M  V30 12808 C 1187.16 2.87772 1.95147 0
M  V30 12809 H 1186.48 3.66681 1.59326 0
M  V30 12810 H 1187.92 3.36021 2.58585 0
M  V30 12811 C 1186.38 1.88807 2.79022 0
M  V30 12812 O 1186.91 1.38836 3.76945 0
M  V30 12813 N 1185.12 1.57037 2.44515 0
M  V30 12814 H 1184.66 1.97868 1.64943 0
M  V30 12815 H 1184.62 0.910776 3.00919 0
M  V30 12816 N 1188.39 -0.0785156 1.57404 0
M  V30 12817 C 1189.32 -1.09446 2.06262 0
M  V30 12818 C 1190.3 -1.40777 0.954772 0
M  V30 12819 O 1191.49 -1.5052 1.22708 0
M  V30 12820 C 1188.62 -2.40979 2.50093 0
M  V30 12821 C 1187.57 -2.24017 3.64692 0
M  V30 12822 C 1186.9 -3.60873 3.94556 0
M  V30 12823 C 1188.2 -1.66696 4.94985 0
M  V30 12824 H 1189.89 -0.687928 2.9139 0
M  V30 12825 H 1187.44 -0.329466 1.4018 0
M  V30 12826 H 1189.39 -3.12337 2.82884 0
M  V30 12827 H 1188.12 -2.83599 1.61985 0
M  V30 12828 H 1186.77 -1.55101 3.32174 0
M  V30 12829 H 1186.42 -4.01051 3.0359 0
M  V30 12830 H 1186.12 -3.50365 4.71718 0
M  V30 12831 H 1187.65 -4.33673 4.29837 0
M  V30 12832 H 1189.06 -2.27913 5.2605 0
M  V30 12833 H 1187.46 -1.66902 5.76423 0
M  V30 12834 H 1188.53 -0.627827 4.80818 0
M  V30 12835 N 1189.87 -1.5367 -0.349747 0
M  V30 12836 C 1191.12 -1.7087 -1.0923 0
M  V30 12837 C 1191.45 -0.467299 -1.88494 0
M  V30 12838 O 1190.72 0.535619 -1.8698 0
M  V30 12839 C 1191.01 -2.9684 -2.03858 0
M  V30 12840 C 1190.86 -4.31174 -1.28097 0
M  V30 12841 C 1192.18 -3.18459 -3.03763 0
M  V30 12842 H 1189.3 -0.621757 -0.395711 0
M  V30 12843 H 1191.94 -1.86333 -0.371481 0
M  V30 12844 H 1190.09 -2.83788 -2.65323 0
M  V30 12845 H 1191.76 -4.56066 -0.692933 0
M  V30 12846 H 1190.01 -4.29866 -0.582924 0
M  V30 12847 H 1190.68 -5.15482 -1.9744 0
M  V30 12848 H 1193.15 -3.30801 -2.52409 0
M  V30 12849 H 1192.03 -4.08006 -3.67182 0
M  V30 12850 H 1192.29 -2.34467 -3.74803 0
M  V30 12851 N 1191.35 0.610423 -1.45298 0
M  V30 12852 C 1192.6 1.36951 -1.49167 0
M  V30 12853 C 1192.92 1.9405 -0.132292 0
M  V30 12854 O 1192.18 1.75363 0.868686 0
M  V30 12855 C 1192.48 2.53812 -2.51623 0
M  V30 12856 C 1192.14 2.14877 -3.96407 0
M  V30 12857 C 1190.81 2.03972 -4.35831 0
M  V30 12858 C 1193.16 1.84448 -4.87472 0
M  V30 12859 C 1190.49 1.60856 -5.64218 0
M  V30 12860 C 1192.84 1.42818 -6.16268 0
M  V30 12861 C 1191.5 1.3047 -6.54625 0
M  V30 12862 H 1190.77 0.501138 -0.54584 0
M  V30 12863 H 1193.42 0.690221 -1.78629 0
M  V30 12864 H 1191.72 3.27066 -2.1572 0
M  V30 12865 H 1193.42 3.12041 -2.51856 0
M  V30 12866 H 1190.01 2.2429 -3.65229 0
M  V30 12867 H 1194.19 1.91771 -4.57753 0
M  V30 12868 H 1189.45 1.49916 -5.92735 0
M  V30 12869 H 1193.62 1.18318 -6.86275 0
M  V30 12870 H 1191.25 0.968347 -7.54007 0
M  V30 12871 N 1192.83 1.32541 0.852676 0
M  V30 12872 C 1194.05 1.2622 1.6394 0
M  V30 12873 C 1194.47 -0.169455 1.88038 0
M  V30 12874 O 1193.83 -1.10719 1.45078 0
M  V30 12875 C 1193.88 2.02062 2.99755 0
M  V30 12876 O 1193.6 3.39641 2.76723 0
M  V30 12877 C 1195.1 2.02787 3.94198 0
M  V30 12878 H 1192.32 0.435405 0.510552 0
M  V30 12879 H 1194.86 1.74696 1.06309 0
M  V30 12880 H 1193.02 1.57303 3.54026 0
M  V30 12881 H 1193.43 3.78484 3.63111 0
M  V30 12882 H 1194.91 2.60333 4.86755 0
M  V30 12883 H 1195.38 1.01464 4.27319 0
M  V30 12884 H 1195.99 2.47504 3.45864 0
M  V30 12885 N 1194.3 -1.0692 1.15784 0
M  V30 12886 C 1195.55 -1.79245 0.933581 0
M  V30 12887 C 1195.87 -1.87362 -0.540427 0
M  V30 12888 O 1195.14 -1.37769 -1.39271 0
M  V30 12889 H 1193.72 -0.663898 0.342416 0
M  V30 12890 H 1196.39 -1.29189 1.45932 0
M  V30 12891 H 1195.48 -2.81546 1.34679 0
M  V30 12892 N 1195.78 -0.955326 -1.25345 0
M  V30 12893 C 1197.03 -0.606149 -1.92377 0
M  V30 12894 C 1197.34 0.860927 -1.75634 0
M  V30 12895 O 1198.55 1.3201 -2.37246 0
M  V30 12896 C 1197.01 -1.03341 -3.44744 0
M  V30 12897 C 1196.61 -2.52308 -3.70196 0
M  V30 12898 C 1198.36 -0.756797 -4.17699 0
M  V30 12899 C 1196.27 -2.88831 -5.16072 0
M  V30 12900 H 1195.2 -0.222994 -0.720271 0
M  V30 12901 H 1197.85 -1.15987 -1.42194 0
M  V30 12902 H 1196.23 -0.408096 -3.93892 0
M  V30 12903 H 1197.4 -3.19864 -3.31698 0
M  V30 12904 H 1195.72 -2.77448 -3.10502 0
M  V30 12905 H 1198.31 -1.00583 -5.25154 0
M  V30 12906 H 1198.66 0.306794 -4.15168 0
M  V30 12907 H 1199.19 -1.34249 -3.74462 0
M  V30 12908 H 1195.93 -3.9421 -5.23716 0
M  V30 12909 H 1195.45 -2.25948 -5.55614 0
M  V30 12910 H 1197.13 -2.78061 -5.84201 0
M  V30 12911 N 1197.26 1.39987 -0.723979 0
M  V30 12912 C 1198.51 2.00731 -0.267115 0
M  V30 12913 C 1198.84 1.57424 1.14228 0
M  V30 12914 O 1198.09 0.789205 1.79081 0
M  V30 12915 C 1198.39 3.56101 -0.304472 0
M  V30 12916 C 1198.06 4.1902 -1.66533 0
M  V30 12917 C 1196.72 4.3592 -2.03783 0
M  V30 12918 C 1199.07 4.54034 -2.55935 0
M  V30 12919 C 1196.4 4.85119 -3.29964 0
M  V30 12920 C 1198.75 5.04637 -3.81477 0
M  V30 12921 C 1197.41 5.19745 -4.18833 0
M  V30 12922 H 1196.68 0.734525 -0.0977442 0
M  V30 12923 H 1199.33 1.67476 -0.928659 0
M  V30 12924 H 1197.64 3.89314 0.440647 0
M  V30 12925 H 1199.33 4.00944 0.0669875 0
M  V30 12926 H 1195.92 4.0626 -1.36569 0
M  V30 12927 H 1200.11 4.40606 -2.2843 0
M  V30 12928 H 1195.36 4.95001 -3.58865 0
M  V30 12929 H 1199.54 5.30705 -4.50916 0
M  V30 12930 H 1197.16 5.5763 -5.16675 0
M  V30 12931 N 1198.74 0.470782 1.50404 0
M  V30 12932 C 1199.97 -0.0820134 2.06737 0
M  V30 12933 C 1200.38 -1.33535 1.33468 0
M  V30 12934 O 1199.74 -1.77975 0.403872 0
M  V30 12935 C 1199.79 -0.370427 3.59597 0
M  V30 12936 O 1199.51 0.8332 4.30104 0
M  V30 12937 C 1201.01 -0.970222 4.32552 0
M  V30 12938 H 1198.23 0.00694502 0.670964 0
M  V30 12939 H 1200.78 0.659476 1.93575 0
M  V30 12940 H 1198.93 -1.06185 3.72563 0
M  V30 12941 H 1199.35 0.577614 5.2131 0
M  V30 12942 H 1200.82 -1.1218 5.40481 0
M  V30 12943 H 1201.3 -1.96024 3.93028 0
M  V30 12944 H 1201.9 -0.31719 4.24116 0
M  V30 12945 N 1200.22 -1.56282 0.203376 0
M  V30 12946 C 1201.18 -2.18233 -0.700489 0
M  V30 12947 C 1202.18 -1.13908 -1.13497 0
M  V30 12948 O 1203.37 -1.39246 -1.04672 0
M  V30 12949 C 1200.5 -2.79107 -1.95735 0
M  V30 12950 H 1201.7 -2.99469 -0.160649 0
M  V30 12951 H 1199.25 -1.56232 -0.0462475 0
M  V30 12952 H 1199.98 -2.01691 -2.53951 0
M  V30 12953 H 1199.77 -3.55486 -1.65446 0
M  V30 12954 H 1201.26 -3.2665 -2.60172 0
M  V30 12955 N 1201.7 0.070167 -1.57444 0
M  V30 12956 C 1202.61 1.10106 -2.07157 0
M  V30 12957 C 1203.62 1.42293 -1.00143 0
M  V30 12958 O 1204.8 1.52437 -1.31624 0
M  V30 12959 C 1201.86 2.39486 -2.50694 0
M  V30 12960 C 1200.92 2.14255 -3.72012 0
M  V30 12961 C 1200.16 3.37466 -4.13464 0
M  V30 12962 O 1200.38 4.46645 -3.54773 0
M  V30 12963 O 1199.31 3.25583 -5.0624 0
M  V30 12964 H 1203.14 0.70873 -2.95315 0
M  V30 12965 H 1200.72 0.28441 -1.46668 0
M  V30 12966 H 1202.61 3.15625 -2.79212 0
M  V30 12967 H 1201.28 2.78095 -1.65664 0
M  V30 12968 H 1200.19 1.35816 -3.48575 0
M  V30 12969 H 1201.52 1.80525 -4.57899 0
M  V30 12970 N 1203.17 1.53854 0.341593 0
M  V30 12971 C 1204.11 1.76797 1.44284 0
M  V30 12972 C 1205.08 0.617157 1.50432 0
M  V30 12973 O 1206.27 0.85254 1.68119 0
M  V30 12974 C 1203.4 1.86837 2.82506 0
M  V30 12975 C 1202.44 3.09001 2.93974 0
M  V30 12976 S 1203.27 4.68012 2.60241 0
M  V30 12977 C 1204.43 4.80933 4.00567 0
M  V30 12978 H 1204.66 2.69927 1.24606 0
M  V30 12979 H 1202.2 1.44747 0.537375 0
M  V30 12980 H 1204.15 1.93306 3.62137 0
M  V30 12981 H 1202.82 0.947162 2.99479 0
M  V30 12982 H 1202.01 3.12707 3.9526 0
M  V30 12983 H 1201.61 3.00768 2.22294 0
M  V30 12984 H 1203.9 4.62462 4.95111 0
M  V30 12985 H 1204.85 5.83025 4.01855 0
M  V30 12986 H 1205.25 4.09372 3.88684 0
M  V30 12987 N 1204.65 -0.602709 1.4562 0
M  V30 12988 C 1205.9 -1.36158 1.49891 0
M  V30 12989 C 1206.23 -1.93977 0.142581 0
M  V30 12990 O 1205.48 -1.75822 -0.859374 0
M  V30 12991 C 1205.78 -2.52474 2.52966 0
M  V30 12992 C 1205.45 -2.12772 3.97541 0
M  V30 12993 C 1204.11 -2.01658 4.36907 0
M  V30 12994 C 1206.46 -1.8186 4.88443 0
M  V30 12995 C 1203.79 -1.57862 5.65063 0
M  V30 12996 C 1206.14 -1.39548 6.17016 0
M  V30 12997 C 1204.8 -1.26997 6.55308 0
M  V30 12998 H 1204.07 -0.498236 0.54849 0
M  V30 12999 H 1206.72 -0.680738 1.78992 0
M  V30 13000 H 1205.03 -3.25917 2.17452 0
M  V30 13001 H 1206.72 -3.10701 2.53507 0
M  V30 13002 H 1203.31 -2.22349 3.66413 0
M  V30 13003 H 1207.5 -1.89341 4.58763 0
M  V30 13004 H 1202.75 -1.46771 5.93522 0
M  V30 13005 H 1206.93 -1.14677 6.86893 0
M  V30 13006 H 1204.55 -0.928346 7.5451 0
M  V30 13007 N 1206.13 -1.32992 -0.845635 0
M  V30 13008 C 1207.06 -1.25301 -1.97033 0
M  V30 13009 C 1208.04 -0.134966 -1.69564 0
M  V30 13010 O 1209.23 -0.323629 -1.91484 0
M  V30 13011 C 1206.36 -0.984551 -3.33052 0
M  V30 13012 C 1205.31 -2.06481 -3.749 0
M  V30 13013 C 1204.64 -1.6486 -5.08651 0
M  V30 13014 C 1205.94 -3.48083 -3.89404 0
M  V30 13015 H 1207.63 -2.194 -2.03725 0
M  V30 13016 H 1205.18 -1.05621 -0.978783 0
M  V30 13017 H 1207.13 -0.917269 -4.11296 0
M  V30 13018 H 1205.85 -0.00793116 -3.26599 0
M  V30 13019 H 1204.51 -2.1224 -2.98915 0
M  V30 13020 H 1204.16 -0.659183 -4.98662 0
M  V30 13021 H 1203.86 -2.37145 -5.37621 0
M  V30 13022 H 1205.38 -1.59585 -5.89377 0
M  V30 13023 H 1206.8 -3.44863 -4.57976 0
M  V30 13024 H 1205.19 -4.18796 -4.29802 0
M  V30 13025 H 1206.26 -3.87084 -2.92051 0
M  V30 13026 N 1207.61 1.06304 -1.1635 0
M  V30 13027 C 1208.55 2.13776 -0.869965 0
M  V30 13028 C 1209.52 1.65105 0.181541 0
M  V30 13029 O 1210.71 1.90743 0.0467705 0
M  V30 13030 C 1207.85 3.43034 -0.377077 0
M  V30 13031 C 1206.96 4.0544 -1.4914 0
M  V30 13032 C 1206.1 5.22572 -0.953538 0
M  V30 13033 C 1205.14 5.76961 -2.04407 0
M  V30 13034 N 1204.27 6.85409 -1.52181 0
M  V30 13035 H 1209.11 2.38224 -1.79034 0
M  V30 13036 H 1206.65 1.16882 -0.893136 0
M  V30 13037 H 1208.61 4.17136 -0.0729426 0
M  V30 13038 H 1207.24 3.18804 0.506359 0
M  V30 13039 H 1206.29 3.28886 -1.9115 0
M  V30 13040 H 1207.6 4.41859 -2.31434 0
M  V30 13041 H 1206.76 6.037 -0.602579 0
M  V30 13042 H 1205.5 4.87598 -0.099897 0
M  V30 13043 H 1204.5 4.9447 -2.40373 0
M  V30 13044 H 1205.73 6.13987 -2.90167 0
M  V30 13045 H 1203.67 6.52354 -0.690697 0
M  V30 13046 H 1203.59 7.2077 -2.28092 0
M  V30 13047 H 1204.86 7.70217 -1.19942 0
M  V30 13048 N 1209.09 0.96196 1.24836 0
M  V30 13049 C 1210.33 0.616342 1.92052 0
M  V30 13050 C 1210.65 -0.851601 1.76088 0
M  V30 13051 O 1211.85 -1.3075 2.37943 0
M  V30 13052 C 1210.31 1.05168 3.44191 0
M  V30 13053 C 1209.92 2.54268 3.68852 0
M  V30 13054 C 1211.66 0.778938 4.17292 0
M  V30 13055 C 1209.57 2.91564 5.14533 0
M  V30 13056 H 1208.5 0.22681 0.719078 0
M  V30 13057 H 1211.15 1.1674 1.41577 0
M  V30 13058 H 1209.53 0.428979 3.9367 0
M  V30 13059 H 1210.71 3.21619 3.29997 0
M  V30 13060 H 1209.02 2.79091 3.09026 0
M  V30 13061 H 1211.62 1.03366 5.24614 0
M  V30 13062 H 1211.96 -0.284772 4.15325 0
M  V30 13063 H 1212.49 1.36233 3.73745 0
M  V30 13064 H 1209.23 3.96982 5.21618 0
M  V30 13065 H 1208.75 2.28892 5.54408 0
M  V30 13066 H 1210.43 2.81155 5.82718 0
M  V30 13067 N 1210.56 -1.39601 0.731392 0
M  V30 13068 C 1211.81 -1.99821 0.274661 0
M  V30 13069 C 1212.13 -1.58693 -1.1435 0
M  V30 13070 O 1213.33 -2.11724 -1.69957 0
M  V30 13071 C 1211.79 -3.57199 0.440124 0
M  V30 13072 C 1211.4 -4.07292 1.86594 0
M  V30 13073 C 1213.14 -4.24476 0.0449851 0
M  V30 13074 C 1211.05 -5.57229 1.98115 0
M  V30 13075 H 1209.98 -0.747481 0.0989383 0
M  V30 13076 H 1212.63 -1.59645 0.904755 0
M  V30 13077 H 1211.01 -3.95153 -0.25881 0
M  V30 13078 H 1212.18 -3.80679 2.59654 0
M  V30 13079 H 1210.5 -3.52665 2.21397 0
M  V30 13080 H 1213.1 -5.34587 0.110126 0
M  V30 13081 H 1213.44 -4.04129 -0.999269 0
M  V30 13082 H 1213.97 -3.91683 0.694942 0
M  V30 13083 H 1210.71 -5.82452 3.00716 0
M  V30 13084 H 1210.23 -5.85656 1.29487 0
M  V30 13085 H 1211.91 -6.22584 1.76063 0
M  V30 13086 N 1212.04 -0.478751 -1.50152 0
M  V30 13087 C 1213.01 0.300181 -2.27226 0
M  V30 13088 C 1214.01 0.913705 -1.32318 0
M  V30 13089 O 1215.2 0.781692 -1.55677 0
M  V30 13090 C 1212.33 1.42838 -3.09532 0
M  V30 13091 H 1213.52 -0.375845 -2.97536 0
M  V30 13092 H 1211.07 -0.233037 -1.54553 0
M  V30 13093 H 1211.81 2.13923 -2.43737 0
M  V30 13094 H 1211.59 0.994161 -3.79287 0
M  V30 13095 H 1213.08 1.97765 -3.67802 0
M  V30 13096 N 1213.52 1.56172 -0.211661 0
M  V30 13097 C 1214.45 2.15791 0.74225 0
M  V30 13098 C 1215.43 1.0994 1.198 0
M  V30 13099 O 1216.62 1.38143 1.28253 0
M  V30 13100 C 1213.74 2.73021 2.00443 0
M  V30 13101 C 1212.79 3.91611 1.68946 0
M  V30 13102 S 1213.62 5.29139 0.822949 0
M  V30 13103 C 1214.78 5.898 2.09491 0
M  V30 13104 H 1215.01 2.96366 0.235482 0
M  V30 13105 H 1212.54 1.544 0.0035357 0
M  V30 13106 H 1214.5 3.06635 2.7292 0
M  V30 13107 H 1213.16 1.92457 2.48232 0
M  V30 13108 H 1212.36 4.30122 2.62699 0
M  V30 13109 H 1211.96 3.59093 1.04539 0
M  V30 13110 H 1214.25 6.05172 3.04587 0
M  V30 13111 H 1215.19 6.86036 1.75386 0
M  V30 13112 H 1215.6 5.18546 2.23093 0
M  V30 13113 N 1215 -0.0618163 1.57479 0
M  V30 13114 C 1216.28 -0.792636 1.7882 0
M  V30 13115 C 1216.66 -1.95283 0.801724 0
M  V30 13116 O 1216 -2.27917 -0.163095 0
M  V30 13117 C 1216.21 -1.25629 3.25605 0
M  V30 13118 C 1217.56 -1.68561 3.89708 0
M  V30 13119 O 1218.59 -1.35171 3.29556 0
M  V30 13120 O 1217.44 -2.30417 4.95551 0
M  V30 13121 H 1214.54 -0.380595 0.734218 0
M  V30 13122 H 1217.08 -0.0411205 1.6965 0
M  V30 13123 H 1215.86 -0.426582 3.88968 0
M  V30 13124 H 1215.48 -2.06882 3.39537 0
M  V30 13125 N 1216.48 -1.54033 -0.333429 0
M  V30 13126 C 1217.89 -1.63107 -0.908455 0
M  V30 13127 C 1218.24 -0.518823 -1.89216 0
M  V30 13128 O 1217.36 0.34985 -2.13553 0
M  V30 13129 C 1217.96 -2.95657 -1.65447 0
M  V30 13130 C 1216.52 -3.0696 -2.17836 0
M  V30 13131 C 1215.66 -2.58617 -1.00063 0
M  V30 13132 H 1218.62 -1.58309 -0.11128 0
M  V30 13133 H 1218.64 -2.85263 -2.51804 0
M  V30 13134 H 1218.15 -3.76588 -0.938263 0
M  V30 13135 H 1216.25 -2.30683 -2.92602 0
M  V30 13136 H 1216.36 -4.12599 -2.43513 0
M  V30 13137 H 1214.73 -2.1427 -1.37697 0
M  V30 13138 H 1215.51 -3.41996 -0.298901 0
M  V30 13139 N 1217.95 0.594978 -1.45938 0
M  V30 13140 C 1219.18 1.37794 -1.53936 0
M  V30 13141 C 1219.59 1.88388 -0.175091 0
M  V30 13142 O 1218.94 1.63587 0.835757 0
M  V30 13143 C 1219 2.60906 -2.47322 0
M  V30 13144 C 1218.66 2.31865 -3.93812 0
M  V30 13145 C 1219.66 1.91451 -4.83366 0
M  V30 13146 C 1217.34 2.44387 -4.3884 0
M  V30 13147 C 1219.34 1.63938 -6.15957 0
M  V30 13148 C 1217.02 2.16487 -5.71469 0
M  V30 13149 C 1218.02 1.76326 -6.59847 0
M  V30 13150 O 1217.71 1.4876 -7.90016 0
M  V30 13151 H 1217.44 0.42775 -0.523456 0
M  V30 13152 H 1220 0.731487 -1.91933 0
M  V30 13153 H 1218.23 3.28315 -2.04319 0
M  V30 13154 H 1219.92 3.22964 -2.45863 0
M  V30 13155 H 1220.68 1.81301 -4.49839 0
M  V30 13156 H 1216.56 2.74612 -3.70283 0
M  V30 13157 H 1220.1 1.32516 -6.84898 0
M  V30 13158 H 1216 2.26257 -6.04548 0
M  V30 13159 H 1216.77 1.62708 -8.02165 0
M  V30 13160 N 1219.43 1.33438 0.838571 0
M  V30 13161 C 1220.66 1.27766 1.62356 0
M  V30 13162 C 1221.07 -0.15359 1.88576 0
M  V30 13163 O 1220.41 -1.10626 1.46654 0
M  V30 13164 C 1220.48 1.98435 2.99773 0
M  V30 13165 C 1220.14 3.47741 2.96522 0
M  V30 13166 C 1221.14 4.42938 2.72217 0
M  V30 13167 C 1218.82 3.89922 3.16648 0
M  V30 13168 C 1220.82 5.7829 2.68066 0
M  V30 13169 C 1218.5 5.25378 3.12123 0
M  V30 13170 C 1219.5 6.19374 2.87863 0
M  V30 13171 O 1219.19 7.52349 2.83242 0
M  V30 13172 H 1218.92 0.441527 0.511889 0
M  V30 13173 H 1221.47 1.76377 1.05262 0
M  V30 13174 H 1219.7 1.44415 3.58721 0
M  V30 13175 H 1221.39 1.86258 3.60642 0
M  V30 13176 H 1222.16 4.11673 2.56418 0
M  V30 13177 H 1218.04 3.17169 3.34552 0
M  V30 13178 H 1221.58 6.51629 2.4905 0
M  V30 13179 H 1217.48 5.56267 3.27471 0
M  V30 13180 H 1218.25 7.61901 2.99082 0
M  V30 13181 N 1220.91 -1.05686 1.16912 0
M  V30 13182 C 1222.14 -1.82018 0.977392 0
M  V30 13183 C 1222.55 -1.83072 -0.477636 0
M  V30 13184 O 1221.89 -1.25296 -1.34338 0
M  V30 13185 C 1221.95 -3.29592 1.4356 0
M  V30 13186 C 1221.62 -3.5223 2.91175 0
M  V30 13187 C 1222.61 -3.44767 3.89142 0
M  V30 13188 C 1220.3 -3.79353 3.29236 0
M  V30 13189 C 1222.29 -3.64104 5.2317 0
M  V30 13190 C 1219.98 -3.98339 4.63432 0
M  V30 13191 C 1220.98 -3.90713 5.60207 0
M  V30 13192 O 1220.67 -4.09175 6.91976 0
M  V30 13193 H 1220.4 -0.580578 0.346273 0
M  V30 13194 H 1222.95 -1.34199 1.55498 0
M  V30 13195 H 1221.18 -3.78302 0.80153 0
M  V30 13196 H 1222.87 -3.87435 1.21032 0
M  V30 13197 H 1223.64 -3.23796 3.61083 0
M  V30 13198 H 1219.52 -3.84395 2.54482 0
M  V30 13199 H 1223.06 -3.58068 5.98693 0
M  V30 13200 H 1218.96 -4.18801 4.91198 0
M  V30 13201 H 1219.73 -4.26429 6.98642 0
M  V30 13202 N 1222.39 -0.968567 -1.24324 0
M  V30 13203 C 1223.64 -0.630928 -1.9242 0
M  V30 13204 C 1223.96 0.834001 -1.75712 0
M  V30 13205 O 1223.22 1.61558 -1.10442 0
M  V30 13206 C 1223.52 -0.952762 -3.44467 0
M  V30 13207 C 1223.18 -2.40597 -3.81345 0
M  V30 13208 C 1221.85 -2.80316 -3.91122 0
M  V30 13209 C 1224.2 -3.34906 -3.99359 0
M  V30 13210 C 1221.53 -4.13383 -4.16331 0
M  V30 13211 C 1223.88 -4.67602 -4.26065 0
M  V30 13212 C 1222.54 -5.07097 -4.34061 0
M  V30 13213 H 1221.81 -0.230873 -0.704116 0
M  V30 13214 H 1224.46 -1.22022 -1.47591 0
M  V30 13215 H 1222.76 -0.281244 -3.90789 0
M  V30 13216 H 1224.46 -0.6699 -3.95365 0
M  V30 13217 H 1221.05 -2.088 -3.743 0
M  V30 13218 H 1225.23 -3.05404 -3.91206 0
M  V30 13219 H 1220.49 -4.43606 -4.20742 0
M  V30 13220 H 1224.66 -5.40646 -4.38948 0
M  V30 13221 H 1222.29 -6.10229 -4.53349 0
M  V30 13222 N 1223.87 1.39211 -0.738786 0
M  V30 13223 C 1224.8 2.29117 -0.0616489 0
M  V30 13224 C 1225.81 1.47008 0.699462 0
M  V30 13225 O 1227 1.70041 0.542998 0
M  V30 13226 C 1224.1 3.25692 0.936893 0
M  V30 13227 C 1223.27 4.3676 0.236515 0
M  V30 13228 C 1222.33 5.1362 1.1437 0
M  V30 13229 O 1221.36 5.65816 0.619762 0
M  V30 13230 N 1222.56 5.25184 2.4731 0
M  V30 13231 H 1225.33 2.8787 -0.833711 0
M  V30 13232 H 1222.89 1.50832 -0.588323 0
M  V30 13233 H 1224.88 3.73987 1.54648 0
M  V30 13234 H 1223.45 2.67943 1.61014 0
M  V30 13235 H 1222.67 3.90293 -0.553594 0
M  V30 13236 H 1223.96 5.08192 -0.248707 0
M  V30 13237 H 1223.35 4.84302 2.92349 0
M  V30 13238 H 1221.91 5.76905 3.03355 0
M  V30 13239 N 1225.34 0.486708 1.49896 0
M  V30 13240 C 1226.25 -0.304222 2.32619 0
M  V30 13241 C 1227.27 -0.981103 1.43702 0
M  V30 13242 O 1228.45 -0.965639 1.76741 0
M  V30 13243 C 1225.51 -1.36301 3.18783 0
M  V30 13244 C 1224.57 -0.701082 4.23537 0
M  V30 13245 C 1223.81 -1.70943 5.05583 0
M  V30 13246 O 1224.03 -2.93773 4.88931 0
M  V30 13247 O 1222.96 -1.27263 5.88292 0
M  V30 13248 H 1226.79 0.37248 3.01407 0
M  V30 13249 H 1224.37 0.248277 1.47323 0
M  V30 13250 H 1226.26 -1.97594 3.72202 0
M  V30 13251 H 1224.93 -2.0229 2.52706 0
M  V30 13252 H 1223.84 -0.0487926 3.74068 0
M  V30 13253 H 1225.17 -0.0838817 4.92129 0
M  V30 13254 N 1226.82 -1.56058 0.219941 0
M  V30 13255 C 1228.07 -1.97869 -0.411383 0
M  V30 13256 C 1228.39 -1.10878 -1.60409 0
M  V30 13257 O 1227.66 -0.185454 -1.9502 0
M  V30 13258 H 1226.24 -0.730747 -0.154979 0
M  V30 13259 H 1228.9 -1.92379 0.312461 0
M  V30 13260 H 1228 -3.0323 -0.738798 0
M  V30 13261 N 1228.3 0.053464 -1.57509 0
M  V30 13262 C 1229.55 0.744867 -1.8927 0
M  V30 13263 C 1229.9 1.74249 -0.815791 0
M  V30 13264 O 1229.2 1.9077 0.178187 0
M  V30 13265 C 1229.39 1.47666 -3.25468 0
M  V30 13266 C 1229.22 0.551427 -4.46306 0
M  V30 13267 C 1227.99 0.181517 -5.04974 0
M  V30 13268 C 1230.19 -0.159765 -5.14052 0
M  V30 13269 N 1228.17 -0.747526 -6.09332 0
M  V30 13270 C 1229.54 -0.94533 -6.12751 0
M  V30 13271 C 1231.59 -0.2293 -4.97372 0
M  V30 13272 C 1230.3 -1.794 -6.96569 0
M  V30 13273 C 1232.32 -1.065 -5.81732 0
M  V30 13274 C 1231.69 -1.83856 -6.79983 0
M  V30 13275 H 1227.78 0.247424 -0.741826 0
M  V30 13276 H 1230.37 0.00570542 -1.94699 0
M  V30 13277 H 1228.54 2.18643 -3.21014 0
M  V30 13278 H 1230.27 2.11852 -3.4482 0
M  V30 13279 H 1227.03 0.538408 -4.7053 0
M  V30 13280 H 1227.45 -1.20583 -6.66175 0
M  V30 13281 H 1232.09 0.354441 -4.21312 0
M  V30 13282 H 1229.81 -2.38864 -7.71991 0
M  V30 13283 H 1233.4 -1.12202 -5.70878 0
M  V30 13284 H 1232.28 -2.47479 -7.44126 0
M  V30 13285 N 1229.78 1.54207 0.325255 0
M  V30 13286 C 1230.73 1.84197 1.42036 0
M  V30 13287 C 1231.72 0.71375 1.53629 0
M  V30 13288 O 1232.93 0.897385 1.56035 0
M  V30 13289 H 1229.3 0.583848 0.473947 0
M  V30 13290 H 1231.27 2.7578 1.13965 0
M  V30 13291 C 1230.02 2.08459 2.78281 0
M  V30 13292 H 1229.35 2.94734 2.70133 0
M  V30 13293 H 1230.79 2.33398 3.5398 0
M  V30 13294 C 1229.24 0.875615 3.25322 0
M  V30 13295 O 1229.77 0.0840387 4.01612 0
M  V30 13296 N 1227.98 0.687721 2.82345 0
M  V30 13297 H 1227.53 1.33307 2.20425 0
M  V30 13298 H 1227.49 -0.119687 3.14172 0
M  V30 13299 N 1231.26 -0.58723 1.46251 0
M  V30 13300 C 1232.51 -1.34179 1.50595 0
M  V30 13301 C 1232.82 -1.94943 0.160171 0
M  V30 13302 O 1234.03 -2.71378 0.0813797 0
M  V30 13303 C 1232.48 -2.43159 2.65333 0
M  V30 13304 C 1232.09 -1.88718 4.06312 0
M  V30 13305 C 1233.83 -3.19986 2.78943 0
M  V30 13306 C 1231.74 -2.953 5.12398 0
M  V30 13307 H 1230.67 -0.504401 0.560442 0
M  V30 13308 H 1233.32 -0.627179 1.72449 0
M  V30 13309 H 1231.7 -3.17398 2.368 0
M  V30 13310 H 1232.88 -1.21051 4.44616 0
M  V30 13311 H 1231.19 -1.24572 3.97329 0
M  V30 13312 H 1233.79 -3.9952 3.5537 0
M  V30 13313 H 1234.13 -3.72288 1.86298 0
M  V30 13314 H 1234.67 -2.52852 3.07101 0
M  V30 13315 H 1231.4 -2.4789 6.0682 0
M  V30 13316 H 1230.92 -3.61469 4.78644 0
M  V30 13317 H 1232.6 -3.5933 5.38044 0
M  V30 13318 N 1232.74 -1.33881 -0.831482 0
M  V30 13319 C 1233.98 -1.25755 -1.58719 0
M  V30 13320 C 1234.31 0.174746 -1.93713 0
M  V30 13321 O 1233.57 1.13384 -1.59507 0
M  V30 13322 C 1233.86 -2.08544 -2.90249 0
M  V30 13323 C 1233.53 -3.57651 -2.74585 0
M  V30 13324 C 1232.19 -3.983 -2.7002 0
M  V30 13325 C 1234.54 -4.52369 -2.58866 0
M  V30 13326 C 1231.87 -5.31872 -2.47647 0
M  V30 13327 C 1234.22 -5.86112 -2.38025 0
M  V30 13328 C 1232.89 -6.25934 -2.31867 0
M  V30 13329 H 1232.16 -0.460171 -0.580796 0
M  V30 13330 H 1234.81 -1.6554 -0.96274 0
M  V30 13331 H 1233.11 -1.6156 -3.56939 0
M  V30 13332 H 1234.81 -1.99609 -3.47789 0
M  V30 13333 H 1231.4 -3.2538 -2.78973 0
M  V30 13334 H 1235.58 -4.21868 -2.61421 0
M  V30 13335 H 1230.84 -5.61756 -2.41331 0
M  V30 13336 H 1235.01 -6.59103 -2.24847 0
M  V30 13337 H 1232.64 -7.29372 -2.14291 0
M  V30 13338 N 1234.21 1.05064 -1.1747 0
M  V30 13339 C 1235.49 1.74999 -0.873776 0
M  V30 13340 C 1235.87 2.01615 0.625676 0
M  V30 13341 O 1235.22 1.65324 1.57734 0
M  V30 13342 C 1235.43 3.04231 -1.7101 0
M  V30 13343 C 1236.78 3.78157 -1.93087 0
M  V30 13344 O 1237.8 3.14104 -1.6798 0
M  V30 13345 O 1236.66 4.93255 -2.3529 0
M  V30 13346 H 1233.75 0.761042 -0.323641 0
M  V30 13347 H 1236.3 1.1122 -1.28172 0
M  V30 13348 H 1235.07 2.80621 -2.72704 0
M  V30 13349 H 1234.69 3.75746 -1.30002 0
M  V30 13350 N 1235.69 0.975146 1.23809 0
M  V30 13351 C 1236.94 0.639858 1.91704 0
M  V30 13352 C 1237.26 -0.828557 1.76522 0
M  V30 13353 O 1236.53 -1.59217 1.14135 0
M  V30 13354 H 1235.11 0.233667 0.709513 0
M  V30 13355 H 1237.77 1.23782 1.50545 0
M  V30 13356 H 1236.87 0.886915 2.99233 0
M  V30 13357 N 1237.17 -1.38817 0.746158 0
M  V30 13358 C 1238.42 -2.0028 0.299016 0
M  V30 13359 C 1238.74 -1.59221 -1.11709 0
M  V30 13360 O 1238 -0.817595 -1.77803 0
M  V30 13361 C 1238.3 -3.55571 0.361086 0
M  V30 13362 C 1237.96 -4.16317 1.73179 0
M  V30 13363 C 1236.63 -4.32622 2.10693 0
M  V30 13364 C 1238.98 -4.49905 2.63126 0
M  V30 13365 C 1236.31 -4.79808 3.3764 0
M  V30 13366 C 1238.66 -4.98504 3.89457 0
M  V30 13367 C 1237.32 -5.13016 4.27049 0
M  V30 13368 H 1236.59 -0.732877 0.109418 0
M  V30 13369 H 1239.24 -1.65977 0.955186 0
M  V30 13370 H 1237.54 -3.89966 -0.378655 0
M  V30 13371 H 1239.24 -4.01 -0.00319228 0
M  V30 13372 H 1235.83 -4.04035 1.43015 0
M  V30 13373 H 1240.02 -4.36916 2.3541 0
M  V30 13374 H 1235.27 -4.89229 3.66695 0
M  V30 13375 H 1239.45 -5.23464 4.59302 0
M  V30 13376 H 1237.07 -5.4934 5.25481 0
M  V30 13377 N 1238.65 -0.49465 -1.49636 0
M  V30 13378 C 1239.9 0.0539277 -2.01628 0
M  V30 13379 C 1240.21 1.38634 -1.37986 0
M  V30 13380 O 1241.42 2.02123 -1.81269 0
M  V30 13381 C 1239.87 0.146582 -3.59601 0
M  V30 13382 C 1239.48 -1.1788 -4.32213 0
M  V30 13383 C 1241.22 0.645862 -4.19558 0
M  V30 13384 C 1239.13 -1.04866 -5.82028 0
M  V30 13385 H 1238.06 0.0239278 -0.75362 0
M  V30 13386 H 1240.71 -0.633112 -1.72232 0
M  V30 13387 H 1239.09 0.897931 -3.85685 0
M  V30 13388 H 1240.27 -1.94295 -4.17835 0
M  V30 13389 H 1238.58 -1.61102 -3.83973 0
M  V30 13390 H 1241.18 0.76064 -5.29262 0
M  V30 13391 H 1241.52 1.64313 -3.82501 0
M  V30 13392 H 1242.06 -0.04877 -3.9777 0
M  V30 13393 H 1238.79 -2.02 -6.23599 0
M  V30 13394 H 1238.31 -0.325293 -5.98917 0
M  V30 13395 H 1239.99 -0.724799 -6.42927 0
M  V30 13396 N 1240.13 1.55939 -0.228214 0
M  V30 13397 C 1241.37 1.9877 0.402272 0
M  V30 13398 C 1241.7 1.11587 1.5894 0
M  V30 13399 O 1240.98 0.175032 1.93711 0
M  V30 13400 C 1241.26 3.50396 0.830353 0
M  V30 13401 C 1241.12 4.4835 -0.360876 0
M  V30 13402 C 1242.43 4.06602 1.68413 0
M  V30 13403 H 1239.55 0.722646 0.144746 0
M  V30 13404 H 1242.2 1.87186 -0.325784 0
M  V30 13405 H 1240.35 3.60398 1.4507 0
M  V30 13406 H 1242.02 4.5035 -0.999113 0
M  V30 13407 H 1240.26 4.21946 -1.00719 0
M  V30 13408 H 1240.93 5.51997 -0.0183074 0
M  V30 13409 H 1243.41 3.99585 1.16064 0
M  V30 13410 H 1242.28 5.12998 1.95254 0
M  V30 13411 H 1242.54 3.53897 2.64971 0
M  V30 13412 N 1241.6 -0.0451101 1.57535 0
M  V30 13413 C 1242.83 -0.75132 1.92777 0
M  V30 13414 C 1243.25 -1.69743 0.826599 0
M  V30 13415 O 1242.6 -1.8142 -0.198224 0
M  V30 13416 C 1242.66 -1.52218 3.2789 0
M  V30 13417 O 1242.38 -0.614059 4.33775 0
M  V30 13418 C 1243.88 -2.32699 3.77314 0
M  V30 13419 H 1241.1 -0.21211 0.636593 0
M  V30 13420 H 1243.64 -0.0074174 2.04499 0
M  V30 13421 H 1241.8 -2.2181 3.17614 0
M  V30 13422 H 1242.21 -1.15294 5.11671 0
M  V30 13423 H 1243.68 -2.82205 4.7441 0
M  V30 13424 H 1244.16 -3.13414 3.07682 0
M  V30 13425 H 1244.77 -1.68212 3.90621 0
M  V30 13426 N 1243.08 -1.54377 -0.317073 0
M  V30 13427 C 1244.01 -1.8721 -1.39552 0
M  V30 13428 C 1244.99 -0.729483 -1.53664 0
M  V30 13429 O 1246.18 -0.983799 -1.67437 0
M  V30 13430 C 1243.31 -2.1052 -2.76222 0
M  V30 13431 C 1242.26 -3.26366 -2.76892 0
M  V30 13432 C 1241.59 -3.35061 -4.16699 0
M  V30 13433 C 1242.89 -4.63862 -2.40061 0
M  V30 13434 H 1244.58 -2.77532 -1.12323 0
M  V30 13435 H 1242.13 -1.33536 -0.538897 0
M  V30 13436 H 1244.08 -2.32073 -3.51739 0
M  V30 13437 H 1242.81 -1.16953 -3.04942 0
M  V30 13438 H 1241.46 -3.0471 -2.03831 0
M  V30 13439 H 1241.11 -2.39041 -4.4257 0
M  V30 13440 H 1240.81 -4.12923 -4.18053 0
M  V30 13441 H 1242.34 -3.58856 -4.94019 0
M  V30 13442 H 1243.75 -4.85252 -3.05292 0
M  V30 13443 H 1242.15 -5.44321 -2.52655 0
M  V30 13444 H 1243.22 -4.6567 -1.35202 0
M  V30 13445 N 1244.56 0.579466 -1.4656 0
M  V30 13446 C 1245.79 1.36837 -1.55854 0
M  V30 13447 C 1246.21 1.87019 -0.20141 0
M  V30 13448 O 1245.57 1.61746 0.81901 0
M  V30 13449 C 1245.62 2.52965 -2.56985 0
M  V30 13450 O 1244.72 3.54505 -2.10713 0
M  V30 13451 H 1244.06 0.407379 -0.524345 0
M  V30 13452 H 1246.59 0.702558 -1.9216 0
M  V30 13453 H 1246.6 2.99838 -2.76697 0
M  V30 13454 H 1245.28 2.15793 -3.55536 0
M  V30 13455 H 1243.85 3.14089 -2.01003 0
M  V30 13456 N 1246.04 1.3432 0.824371 0
M  V30 13457 C 1246.97 1.2842 1.95014 0
M  V30 13458 C 1247.95 0.161925 1.69328 0
M  V30 13459 O 1249.13 0.354052 1.90945 0
M  V30 13460 C 1246.26 1.03741 3.31444 0
M  V30 13461 C 1245.22 2.12419 3.71567 0
M  V30 13462 C 1244.54 1.72931 5.05963 0
M  V30 13463 C 1245.84 3.54235 3.83817 0
M  V30 13464 H 1247.54 2.22614 2.00209 0
M  V30 13465 H 1245.08 1.07165 0.961856 0
M  V30 13466 H 1247.04 0.982586 4.09784 0
M  V30 13467 H 1245.76 0.0598892 3.26545 0
M  V30 13468 H 1244.42 2.16968 2.955 0
M  V30 13469 H 1244.07 0.738433 4.9755 0
M  V30 13470 H 1243.77 2.45668 5.3378 0
M  V30 13471 H 1245.29 1.68941 5.86763 0
M  V30 13472 H 1246.71 3.52106 4.52432 0
M  V30 13473 H 1245.1 4.25581 4.23085 0
M  V30 13474 H 1246.17 3.91682 2.85856 0
M  V30 13475 N 1247.52 -1.0444 1.18026 0
M  V30 13476 C 1248.76 -1.77838 0.974756 0
M  V30 13477 C 1249.1 -1.87792 -0.494755 0
M  V30 13478 O 1248.37 -1.38327 -1.36733 0
M  V30 13479 C 1248.65 -3.21315 1.62569 0
M  V30 13480 C 1248.51 -3.19327 3.16781 0
M  V30 13481 C 1249.83 -4.19337 1.33583 0
M  V30 13482 H 1246.94 -0.645575 0.35553 0
M  V30 13483 H 1249.59 -1.22023 1.45638 0
M  V30 13484 H 1247.74 -3.68974 1.21617 0
M  V30 13485 H 1249.41 -2.79687 3.66842 0
M  V30 13486 H 1247.65 -2.57461 3.49137 0
M  V30 13487 H 1248.32 -4.20626 3.5746 0
M  V30 13488 H 1250.8 -3.80208 1.69059 0
M  V30 13489 H 1249.67 -5.17953 1.81702 0
M  V30 13490 H 1249.94 -4.41346 0.258016 0
M  V30 13491 N 1248.99 -0.981699 -1.2329 0
M  V30 13492 C 1249.9 -0.531296 -2.28505 0
M  V30 13493 C 1250.92 0.414531 -1.6899 0
M  V30 13494 O 1252.1 0.284129 -1.99386 0
M  V30 13495 C 1249.16 0.157864 -3.4634 0
M  V30 13496 C 1248.22 -0.829527 -4.21209 0
M  V30 13497 C 1247.46 -0.17316 -5.33419 0
M  V30 13498 O 1247.68 1.03549 -5.60922 0
M  V30 13499 O 1246.61 -0.872385 -5.95544 0
M  V30 13500 H 1250.44 -1.40633 -2.69177 0
M  V30 13501 H 1248.02 -0.749395 -1.29246 0
M  V30 13502 H 1249.91 0.544394 -4.17869 0
M  V30 13503 H 1248.58 1.00764 -3.07617 0
M  V30 13504 H 1247.49 -1.26678 -3.51999 0
M  V30 13505 H 1248.82 -1.64815 -4.63785 0
M  V30 13506 N 1250.47 1.3842 -0.753509 0
M  V30 13507 C 1251.4 2.33073 -0.141198 0
M  V30 13508 C 1252.38 1.54863 0.70367 0
M  V30 13509 O 1253.57 1.8318 0.644872 0
M  V30 13510 C 1250.7 3.39043 0.752802 0
M  V30 13511 C 1249.65 4.27999 0.0106692 0
M  V30 13512 C 1248.98 5.24824 1.02291 0
M  V30 13513 C 1250.28 5.09308 -1.15768 0
M  V30 13514 H 1251.97 2.84528 -0.93188 0
M  V30 13515 H 1249.52 1.36802 -0.449567 0
M  V30 13516 H 1251.47 4.04224 1.19083 0
M  V30 13517 H 1250.2 2.8607 1.57581 0
M  V30 13518 H 1248.85 3.64323 -0.407939 0
M  V30 13519 H 1248.5 4.68139 1.83998 0
M  V30 13520 H 1248.2 5.85196 0.53101 0
M  V30 13521 H 1249.73 5.92882 1.46026 0
M  V30 13522 H 1251.14 5.6773 -0.797203 0
M  V30 13523 H 1249.54 5.78914 -1.58044 0
M  V30 13524 H 1250.61 4.43051 -1.97062 0
M  V30 13525 N 1251.95 0.502579 1.49372 0
M  V30 13526 C 1253.2 -0.0412993 2.02058 0
M  V30 13527 C 1253.52 -1.37338 1.38431 0
M  V30 13528 O 1252.79 -1.88305 0.540175 0
M  V30 13529 H 1251.37 -0.0182522 0.746777 0
M  V30 13530 H 1254.03 0.660179 1.83378 0
M  V30 13531 H 1253.13 -0.169812 3.11638 0
M  V30 13532 N 1253.43 -1.55816 0.23648 0
M  V30 13533 C 1254.36 -2.23924 -0.661834 0
M  V30 13534 C 1255.34 -1.21597 -1.18946 0
M  V30 13535 O 1256.52 -1.50222 -1.23073 0
M  V30 13536 C 1253.65 -2.93069 -1.86355 0
M  V30 13537 C 1252.61 -4.01996 -1.46913 0
M  V30 13538 C 1251.93 -4.58512 -2.75083 0
M  V30 13539 C 1253.23 -5.18265 -0.647964 0
M  V30 13540 H 1254.93 -2.99253 -0.0939368 0
M  V30 13541 H 1252.47 -1.43934 -0.0437407 0
M  V30 13542 H 1254.43 -3.39412 -2.49755 0
M  V30 13543 H 1253.15 -2.15212 -2.45665 0
M  V30 13544 H 1251.81 -3.56406 -0.858522 0
M  V30 13545 H 1251.46 -3.77368 -3.3257 0
M  V30 13546 H 1251.16 -5.32037 -2.49421 0
M  V30 13547 H 1252.68 -5.07583 -3.39399 0
M  V30 13548 H 1254.1 -5.60898 -1.18602 0
M  V30 13549 H 1252.49 -5.98114 -0.487823 0
M  V30 13550 H 1253.56 -4.83691 0.342151 0
M  V30 13551 N 1254.91 0.036755 -1.57557 0
M  V30 13552 C 1255.87 1.02435 -2.05036 0
M  V30 13553 C 1256.87 1.29506 -0.953146 0
M  V30 13554 O 1258.06 1.24638 -1.217 0
M  V30 13555 C 1255.19 2.3592 -2.46079 0
M  V30 13556 H 1256.38 0.614384 -2.93539 0
M  V30 13557 H 1253.94 0.283396 -1.53709 0
M  V30 13558 H 1254.67 2.8168 -1.60708 0
M  V30 13559 H 1254.46 2.17603 -3.26177 0
M  V30 13560 H 1255.95 3.06839 -2.83266 0
M  V30 13561 N 1256.39 1.54543 0.308881 0
M  V30 13562 C 1257.33 1.85693 1.40074 0
M  V30 13563 C 1258.33 0.730004 1.52864 0
M  V30 13564 O 1259.53 0.913884 1.55075 0
M  V30 13565 H 1255.91 0.588842 0.467728 0
M  V30 13566 H 1257.88 2.76973 1.11034 0
M  V30 13567 C 1256.63 2.11399 2.76054 0
M  V30 13568 H 1255.95 2.97583 2.66992 0
M  V30 13569 H 1257.39 2.37139 3.51484 0
M  V30 13570 C 1255.85 0.91007 3.24375 0
M  V30 13571 O 1256.38 0.12663 4.015 0
M  V30 13572 N 1254.59 0.717629 2.816 0
M  V30 13573 H 1254.13 1.35637 2.18998 0
M  V30 13574 H 1254.09 -0.0863585 3.14281 0
M  V30 13575 N 1257.86 -0.571685 1.46866 0
M  V30 13576 C 1259.11 -1.33145 1.52972 0
M  V30 13577 C 1259.44 -1.93314 0.185344 0
M  V30 13578 O 1258.72 -1.77083 -0.80447 0
M  V30 13579 C 1259 -2.4525 2.63675 0
M  V30 13580 C 1258.85 -1.90044 4.0768 0
M  V30 13581 C 1260.17 -3.47247 2.70384 0
M  V30 13582 H 1257.29 -0.482751 0.556885 0
M  V30 13583 H 1259.93 -0.641163 1.78855 0
M  V30 13584 H 1258.08 -3.04132 2.41735 0
M  V30 13585 H 1259.76 -1.35535 4.4094 0
M  V30 13586 H 1258 -1.20805 4.1664 0
M  V30 13587 H 1258.67 -2.71019 4.80887 0
M  V30 13588 H 1261.15 -2.98263 2.90135 0
M  V30 13589 H 1260.02 -4.23132 3.49643 0
M  V30 13590 H 1260.28 -4.05179 1.76868 0
M  V30 13591 N 1259.34 -1.34755 -0.817236 0
M  V30 13592 C 1260.25 -1.28888 -1.96023 0
M  V30 13593 C 1261.27 -0.195582 -1.72897 0
M  V30 13594 O 1262.44 -0.423071 -1.96906 0
M  V30 13595 C 1259.51 -1.04985 -3.30423 0
M  V30 13596 C 1258.57 -2.23526 -3.66517 0
M  V30 13597 C 1257.8 -2.00753 -4.94504 0
M  V30 13598 O 1258.03 -0.968622 -5.62116 0
M  V30 13599 O 1256.96 -2.87848 -5.28608 0
M  V30 13600 H 1260.79 -2.25059 -2.03917 0
M  V30 13601 H 1258.37 -1.15019 -0.953467 0
M  V30 13602 H 1260.25 -0.934589 -4.10906 0
M  V30 13603 H 1258.93 -0.118582 -3.23483 0
M  V30 13604 H 1257.83 -2.40613 -2.86455 0
M  V30 13605 H 1259.17 -3.15062 -3.78149 0
M  V30 13606 N 1260.82 1.03812 -1.18578 0
M  V30 13607 C 1262.07 1.76706 -0.980776 0
M  V30 13608 C 1262.39 1.88729 0.490562 0
M  V30 13609 O 1261.66 1.41413 1.35569 0
M  V30 13610 H 1260.24 0.654586 -0.359898 0
M  V30 13611 H 1262.9 1.25274 -1.49306 0
M  V30 13612 H 1262 2.77876 -1.42096 0
M  V30 13613 N 1262.3 0.988223 1.22768 0
M  V30 13614 C 1263.23 0.554478 2.26821 0
M  V30 13615 C 1264.21 -0.416293 1.64927 0
M  V30 13616 O 1265.39 -0.30795 1.91743 0
M  V30 13617 C 1262.52 -0.136266 3.47033 0
M  V30 13618 C 1261.48 0.752575 4.21332 0
M  V30 13619 C 1260.8 -0.0708236 5.34653 0
M  V30 13620 C 1262.1 2.04717 4.80508 0
M  V30 13621 H 1263.8 1.42423 2.63355 0
M  V30 13622 H 1261.34 0.686267 1.26595 0
M  V30 13623 H 1263.3 -0.451068 4.18979 0
M  V30 13624 H 1262.02 -1.04053 3.09581 0
M  V30 13625 H 1260.68 1.05095 3.51213 0
M  V30 13626 H 1260.33 -0.975859 4.93443 0
M  V30 13627 H 1260.03 0.520835 5.85287 0
M  V30 13628 H 1261.55 -0.379828 6.09417 0
M  V30 13629 H 1262.97 1.79663 5.44421 0
M  V30 13630 H 1261.36 2.58726 5.41462 0
M  V30 13631 H 1262.43 2.72896 4.00819 0
M  V30 13632 N 1263.78 -1.38018 0.760839 0
M  V30 13633 C 1265 -2.04757 0.330038 0
M  V30 13634 C 1265.43 -1.57009 -1.03585 0
M  V30 13635 O 1264.78 -0.725349 -1.66158 0
M  V30 13636 C 1264.83 -3.58696 0.370082 0
M  V30 13637 O 1263.94 -4.07507 -0.633361 0
M  V30 13638 H 1263.28 -0.648023 0.144782 0
M  V30 13639 H 1265.81 -1.7655 1.03399 0
M  V30 13640 H 1265.82 -4.07387 0.223515 0
M  V30 13641 H 1264.49 -3.92806 1.36661 0
M  V30 13642 H 1263.07 -3.70165 -0.45081 0
M  V30 13643 N 1265.25 -0.510493 -1.49103 0
M  V30 13644 C 1266.5 0.030689 -2.02777 0
M  V30 13645 C 1266.83 1.35765 -1.38858 0
M  V30 13646 O 1266.11 1.87209 -0.527528 0
M  V30 13647 C 1266.39 0.173261 -3.59683 0
M  V30 13648 C 1266.24 -1.17749 -4.34114 0
M  V30 13649 C 1267.56 0.909395 -4.30602 0
M  V30 13650 H 1264.68 0.0096789 -0.736936 0
M  V30 13651 H 1267.32 -0.663746 -1.78029 0
M  V30 13652 H 1265.47 0.764721 -3.80899 0
M  V30 13653 H 1267.15 -1.80856 -4.24369 0
M  V30 13654 H 1265.39 -1.76438 -3.96298 0
M  V30 13655 H 1266.06 -1.03094 -5.42287 0
M  V30 13656 H 1268.54 0.407677 -4.14098 0
M  V30 13657 H 1267.41 0.978012 -5.40117 0
M  V30 13658 H 1267.67 1.9553 -3.96511 0
M  V30 13659 N 1266.73 1.55688 -0.24474 0
M  V30 13660 C 1267.66 2.24272 0.64995 0
M  V30 13661 C 1268.64 1.22226 1.183 0
M  V30 13662 O 1269.83 1.50873 1.22274 0
M  V30 13663 C 1266.96 2.94053 1.84798 0
M  V30 13664 C 1265.91 4.02769 1.44779 0
M  V30 13665 C 1265.24 4.59965 2.72647 0
M  V30 13666 C 1266.54 5.18601 0.62047 0
M  V30 13667 H 1268.23 2.99298 0.0780654 0
M  V30 13668 H 1265.78 1.43955 0.0361069 0
M  V30 13669 H 1267.73 3.40732 2.47951 0
M  V30 13670 H 1266.45 2.16511 2.44521 0
M  V30 13671 H 1265.11 3.56856 0.839609 0
M  V30 13672 H 1264.76 3.79126 3.30564 0
M  V30 13673 H 1264.46 5.33352 2.46596 0
M  V30 13674 H 1265.99 5.09376 3.36703 0
M  V30 13675 H 1267.4 5.61519 1.15625 0
M  V30 13676 H 1265.8 5.98364 0.456097 0
M  V30 13677 H 1266.87 4.83503 -0.367798 0
M  V30 13678 N 1268.21 -0.0283989 1.57574 0
M  V30 13679 C 1269.63 -0.384054 1.5491 0
M  V30 13680 C 1269.83 -1.76564 0.970947 0
M  V30 13681 O 1268.88 -2.45455 0.592288 0
M  V30 13682 C 1270.19 -0.285297 2.99344 0
M  V30 13683 C 1271.74 -0.36233 3.10896 0
M  V30 13684 C 1272.22 -0.293014 4.57062 0
M  V30 13685 N 1273.71 -0.351788 4.61862 0
M  V30 13686 C 1274.44 -0.321054 5.725 0
M  V30 13687 N 1273.94 -0.242573 6.92375 0
M  V30 13688 N 1275.73 -0.370832 5.60875 0
M  V30 13689 H 1267.88 0.87573 1.93506 0
M  V30 13690 H 1270.15 0.33305 0.887571 0
M  V30 13691 H 1269.85 0.664146 3.45372 0
M  V30 13692 H 1269.73 -1.07869 3.61447 0
M  V30 13693 H 1272.11 -1.30221 2.64814 0
M  V30 13694 H 1272.19 0.460422 2.51622 0
M  V30 13695 H 1271.84 0.643197 5.03811 0
M  V30 13696 H 1271.77 -1.13388 5.14248 0
M  V30 13697 H 1274.26 -0.414929 3.75615 0
M  V30 13698 H 1274.57 -0.224239 7.72475 0
M  V30 13699 H 1272.92 -0.208612 6.94687 0
M  V30 13700 H 1276.11 -0.430141 4.6612 0
M  V30 13701 H 1276.28 -0.343412 6.47089 0
M  V30 13702 N 1269.69 -1.54705 -0.300681 0
M  V30 13703 C 1270.91 -1.78318 -1.05913 0
M  V30 13704 C 1271.34 -0.541177 -1.80147 0
M  V30 13705 O 1270.7 0.508291 -1.74029 0
M  V30 13706 C 1270.74 -2.99041 -2.01511 0
M  V30 13707 O 1269.85 -2.72188 -3.09818 0
M  V30 13708 H 1269.19 -0.590197 -0.304242 0
M  V30 13709 H 1271.72 -2.01789 -0.338006 0
M  V30 13710 H 1271.73 -3.2702 -2.43971 0
M  V30 13711 H 1270.4 -3.89098 -1.46886 0
M  V30 13712 H 1268.98 -2.55227 -2.71871 0
M  V30 13713 N 1271.17 0.563888 -1.47167 0
M  V30 13714 C 1272.41 1.32136 -1.53448 0
M  V30 13715 C 1272.74 1.9353 -0.19396 0
M  V30 13716 O 1272 1.78038 0.812456 0
M  V30 13717 C 1272.3 2.45678 -2.59571 0
M  V30 13718 C 1271.96 2.02157 -4.03043 0
M  V30 13719 C 1270.62 1.90003 -4.421 0
M  V30 13720 C 1272.98 1.68846 -4.93093 0
M  V30 13721 C 1270.3 1.42825 -5.6905 0
M  V30 13722 C 1272.66 1.2314 -6.20499 0
M  V30 13723 C 1271.32 1.09578 -6.58444 0
M  V30 13724 H 1270.59 0.483519 -0.561507 0
M  V30 13725 H 1273.24 0.633042 -1.80734 0
M  V30 13726 H 1271.54 3.20037 -2.26017 0
M  V30 13727 H 1273.24 3.03871 -2.61655 0
M  V30 13728 H 1269.83 2.12557 -3.7218 0
M  V30 13729 H 1274.01 1.77111 -4.63622 0
M  V30 13730 H 1269.27 1.30983 -5.97205 0
M  V30 13731 H 1273.44 0.964247 -6.89692 0
M  V30 13732 H 1271.07 0.727975 -7.56706 0
M  V30 13733 N 1272.64 1.35187 0.810078 0
M  V30 13734 C 1274.06 1.15149 1.10512 0
M  V30 13735 C 1274.26 -0.038394 2.01463 0
M  V30 13736 O 1273.32 -0.710056 2.42311 0
M  V30 13737 C 1274.63 2.45282 1.73946 0
M  V30 13738 C 1276.18 2.51457 1.86382 0
M  V30 13739 C 1276.65 3.81625 2.53232 0
M  V30 13740 N 1278.14 3.82856 2.6072 0
M  V30 13741 C 1278.88 4.80302 3.13206 0
M  V30 13742 N 1278.37 5.88134 3.66156 0
M  V30 13743 N 1280.17 4.67743 3.11726 0
M  V30 13744 H 1272.32 2.11405 0.205391 0
M  V30 13745 H 1274.58 0.935457 0.153702 0
M  V30 13746 H 1274.29 3.32512 1.14582 0
M  V30 13747 H 1274.16 2.59573 2.73682 0
M  V30 13748 H 1276.55 1.64659 2.44891 0
M  V30 13749 H 1276.63 2.41084 0.855113 0
M  V30 13750 H 1276.27 4.68819 1.95375 0
M  V30 13751 H 1276.2 3.89285 3.54633 0
M  V30 13752 H 1278.69 3.04941 2.23203 0
M  V30 13753 H 1279.01 6.58487 4.04494 0
M  V30 13754 H 1277.35 5.91831 3.64364 0
M  V30 13755 H 1280.54 3.82642 2.69635 0
M  V30 13756 H 1280.72 5.43849 3.52324 0
M  V30 13757 N 1274.12 -1.03182 1.19127 0
M  V30 13758 C 1275.05 -2.13301 0.94999 0
M  V30 13759 C 1276.03 -1.69707 -0.115577 0
M  V30 13760 O 1277.22 -1.94161 0.0388395 0
M  V30 13761 C 1274.35 -3.43902 0.484637 0
M  V30 13762 C 1273.3 -4.01164 1.4917 0
M  V30 13763 C 1272.63 -5.2735 0.883537 0
M  V30 13764 C 1273.93 -4.36311 2.87107 0
M  V30 13765 H 1275.62 -2.33743 1.87095 0
M  V30 13766 H 1273.17 -1.12332 0.900977 0
M  V30 13767 H 1275.12 -4.20308 0.30315 0
M  V30 13768 H 1273.85 -3.23173 -0.471909 0
M  V30 13769 H 1272.5 -3.26849 1.66028 0
M  V30 13770 H 1272.15 -5.02936 -0.0804712 0
M  V30 13771 H 1271.85 -5.66624 1.55599 0
M  V30 13772 H 1273.38 -6.06425 0.71278 0
M  V30 13773 H 1274.79 -5.03666 2.73848 0
M  V30 13774 H 1273.19 -4.86659 3.51117 0
M  V30 13775 H 1274.26 -3.45743 3.39985 0
M  V30 13776 N 1275.6 -0.99472 -1.22242 0
M  V30 13777 C 1276.53 -0.566499 -2.26524 0
M  V30 13778 C 1277.51 0.407541 -1.65146 0
M  V30 13779 O 1278.7 0.297777 -1.91903 0
M  V30 13780 C 1275.83 0.11786 -3.471 0
M  V30 13781 C 1274.78 -0.774908 -4.20927 0
M  V30 13782 C 1274.11 0.0424687 -5.34683 0
M  V30 13783 C 1275.41 -2.07263 -4.79416 0
M  V30 13784 H 1277.1 -1.43818 -2.62596 0
M  V30 13785 H 1274.65 -0.692971 -1.2623 0
M  V30 13786 H 1276.6 0.428842 -4.19212 0
M  V30 13787 H 1275.32 1.0241 -3.10129 0
M  V30 13788 H 1273.98 -1.06956 -3.50651 0
M  V30 13789 H 1273.63 0.949677 -4.93954 0
M  V30 13790 H 1273.33 -0.551867 -5.85003 0
M  V30 13791 H 1274.85 0.347504 -6.0961 0
M  V30 13792 H 1276.27 -1.82548 -5.4346 0
M  V30 13793 H 1274.67 -2.61594 -5.40082 0
M  V30 13794 H 1275.74 -2.75017 -3.99366 0
M  V30 13795 N 1277.08 1.37613 -0.768148 0
M  V30 13796 C 1278.49 1.53202 -0.44737 0
M  V30 13797 C 1278.69 1.72736 1.03752 0
M  V30 13798 O 1277.75 1.74667 1.8234 0
M  V30 13799 C 1279.06 2.7306 -1.25931 0
M  V30 13800 C 1280.61 2.8692 -1.25084 0
M  V30 13801 C 1281.09 4.09757 -2.04605 0
M  V30 13802 N 1282.58 4.16862 -2.0194 0
M  V30 13803 C 1283.31 5.10936 -2.60254 0
M  V30 13804 N 1282.81 6.1059 -3.27341 0
M  V30 13805 N 1284.6 5.03393 -2.50104 0
M  V30 13806 H 1276.75 1.23184 -1.7303 0
M  V30 13807 H 1279.02 0.599541 -0.73434 0
M  V30 13808 H 1278.72 2.65078 -2.31141 0
M  V30 13809 H 1278.6 3.66646 -0.886036 0
M  V30 13810 H 1280.98 2.94375 -0.206736 0
M  V30 13811 H 1281.06 1.94303 -1.66373 0
M  V30 13812 H 1280.71 4.03063 -3.09035 0
M  V30 13813 H 1280.64 5.01481 -1.60701 0
M  V30 13814 H 1283.13 3.455 -1.53096 0
M  V30 13815 H 1283.44 6.78893 -3.6922 0
M  V30 13816 H 1281.79 6.10879 -3.31439 0
M  V30 13817 H 1284.98 4.24483 -1.9731 0
M  V30 13818 H 1285.15 5.76524 -2.95844 0
M  V30 13819 N 1278.56 0.518393 1.4883 0
M  V30 13820 C 1279.8 -0.0199348 2.0279 0
M  V30 13821 C 1280.14 -1.35026 1.39576 0
M  V30 13822 O 1279.41 -1.86927 0.537449 0
M  V30 13823 C 1279.69 -0.154184 3.5977 0
M  V30 13824 C 1279.55 1.2005 4.33484 0
M  V30 13825 C 1280.87 -0.886547 4.31078 0
M  V30 13826 H 1277.98 -0.00577061 0.736977 0
M  V30 13827 H 1280.63 0.673178 1.77675 0
M  V30 13828 H 1278.78 -0.74451 3.81299 0
M  V30 13829 H 1280.45 1.83104 4.23404 0
M  V30 13830 H 1278.69 1.78537 3.95357 0
M  V30 13831 H 1279.36 1.05968 5.41733 0
M  V30 13832 H 1281.84 -0.385711 4.14308 0
M  V30 13833 H 1280.71 -0.949355 5.40628 0
M  V30 13834 H 1280.98 -1.93424 3.97542 0
M  V30 13835 N 1280.03 -1.55556 0.252993 0
M  V30 13836 C 1281.28 -1.9909 -0.37005 0
M  V30 13837 C 1281.61 -1.1412 -1.57502 0
M  V30 13838 O 1280.86 -0.193471 -1.94741 0
M  V30 13839 C 1281.16 -3.47925 -0.817484 0
M  V30 13840 C 1280.83 -4.50027 0.280398 0
M  V30 13841 C 1279.49 -4.77669 0.581914 0
M  V30 13842 C 1281.84 -5.11096 1.02129 0
M  V30 13843 C 1279.17 -5.63652 1.62829 0
M  V30 13844 C 1281.52 -5.98215 2.05723 0
M  V30 13845 C 1280.19 -6.24186 2.36533 0
M  V30 13846 H 1279.46 -0.728522 -0.135411 0
M  V30 13847 H 1282.1 -1.88046 0.36209 0
M  V30 13848 H 1280.41 -3.56333 -1.62893 0
M  V30 13849 H 1282.11 -3.79001 -1.30993 0
M  V30 13850 H 1278.7 -4.28585 0.0352579 0
M  V30 13851 H 1282.88 -4.89784 0.801603 0
M  V30 13852 H 1278.14 -5.82028 1.87227 0
M  V30 13853 H 1282.31 -6.44575 2.6362 0
M  V30 13854 H 1279.94 -6.90607 3.17752 0
M  V30 13855 N 1281.51 0.0200419 -1.57587 0
M  V30 13856 C 1282.46 1.01784 -2.07144 0
M  V30 13857 C 1283.43 1.3537 -0.962501 0
M  V30 13858 O 1284.61 1.45553 -1.23365 0
M  V30 13859 C 1281.75 2.31091 -2.56302 0
M  V30 13860 C 1280.87 2.03584 -3.81022 0
M  V30 13861 C 1280 3.26827 -4.18757 0
M  V30 13862 C 1279.04 2.94915 -5.36369 0
M  V30 13863 N 1278.18 4.10636 -5.69493 0
M  V30 13864 H 1283.02 0.588288 -2.92136 0
M  V30 13865 H 1280.56 0.278848 -1.44433 0
M  V30 13866 H 1282.51 3.06656 -2.82874 0
M  V30 13867 H 1281.14 2.71752 -1.74215 0
M  V30 13868 H 1280.2 1.18475 -3.6148 0
M  V30 13869 H 1281.51 1.76049 -4.66699 0
M  V30 13870 H 1280.66 4.10753 -4.46505 0
M  V30 13871 H 1279.4 3.57483 -3.31749 0
M  V30 13872 H 1278.41 2.09392 -5.08365 0
M  V30 13873 H 1279.63 2.65528 -6.25037 0
M  V30 13874 H 1277.58 4.41226 -4.85444 0
M  V30 13875 H 1277.49 3.86556 -6.497 0
M  V30 13876 H 1278.76 4.95409 -6.01822 0
M  V30 13877 N 1282.99 1.54862 0.292472 0
M  V30 13878 C 1283.92 1.89406 1.36556 0
M  V30 13879 C 1284.9 0.753838 1.52484 0
M  V30 13880 O 1286.09 1.01031 1.6585 0
M  V30 13881 C 1283.22 2.14888 2.72838 0
M  V30 13882 C 1282.17 3.3073 2.71665 0
M  V30 13883 C 1281.5 3.41648 4.11316 0
M  V30 13884 C 1282.8 4.67622 2.32651 0
M  V30 13885 H 1284.49 2.79284 1.07894 0
M  V30 13886 H 1282.04 1.34377 0.517585 0
M  V30 13887 H 1283.99 2.3764 3.48002 0
M  V30 13888 H 1282.71 1.2179 3.03042 0
M  V30 13889 H 1281.37 3.07915 1.98958 0
M  V30 13890 H 1281.02 2.46051 4.38711 0
M  V30 13891 H 1280.72 4.19522 4.11431 0
M  V30 13892 H 1282.24 3.6667 4.88248 0
M  V30 13893 H 1283.66 4.90048 2.97533 0
M  V30 13894 H 1282.06 5.48272 2.43963 0
M  V30 13895 H 1283.13 4.67762 1.27777 0
M  V30 13896 N 1284.47 -0.556076 1.47464 0
M  V30 13897 C 1285.43 -1.64515 1.59586 0
M  V30 13898 C 1286.43 -1.53751 0.470881 0
M  V30 13899 O 1287.62 -1.57889 0.735979 0
M  V30 13900 C 1284.75 -3.0406 1.54143 0
M  V30 13901 H 1285.95 -1.55116 2.56669 0
M  V30 13902 H 1283.5 -0.776087 1.35671 0
M  V30 13903 H 1284.23 -3.18991 0.584395 0
M  V30 13904 H 1284.02 -3.13282 2.3579 0
M  V30 13905 H 1285.51 -3.8329 1.65766 0
M  V30 13906 N 1285.95 -1.35615 -0.802897 0
M  V30 13907 C 1286.89 -1.28839 -1.91492 0
M  V30 13908 C 1287.86 -0.159621 -1.65331 0
M  V30 13909 O 1289.05 -0.343931 -1.87675 0
M  V30 13910 C 1286.19 -1.06999 -3.28093 0
M  V30 13911 C 1285.3 -2.28831 -3.66416 0
M  V30 13912 C 1284.44 -2.00111 -4.92066 0
M  V30 13913 C 1283.48 -3.17977 -5.23027 0
M  V30 13914 N 1282.61 -2.89009 -6.39858 0
M  V30 13915 H 1287.45 -2.2393 -1.96619 0
M  V30 13916 H 1284.99 -1.1131 -0.961687 0
M  V30 13917 H 1286.95 -0.923673 -4.06847 0
M  V30 13918 H 1285.58 -0.155684 -3.22424 0
M  V30 13919 H 1284.63 -2.54314 -2.82893 0
M  V30 13920 H 1285.94 -3.1683 -3.85253 0
M  V30 13921 H 1285.1 -1.82331 -5.78654 0
M  V30 13922 H 1283.84 -1.09402 -4.75271 0
M  V30 13923 H 1282.84 -3.3633 -4.34928 0
M  V30 13924 H 1284.07 -4.09493 -5.41749 0
M  V30 13925 H 1282.01 -2.00898 -6.24481 0
M  V30 13926 H 1281.93 -3.70544 -6.58964 0
M  V30 13927 H 1283.2 -2.74779 -7.29463 0
M  V30 13928 N 1287.43 1.02549 -1.19673 0
M  V30 13929 C 1288.65 1.8016 -1.02748 0
M  V30 13930 C 1289.08 1.83372 0.419105 0
M  V30 13931 O 1288.43 1.26222 1.30144 0
M  V30 13932 C 1288.48 3.22907 -1.60509 0
M  V30 13933 O 1287.59 4.03823 -0.836702 0
M  V30 13934 H 1286.93 0.556027 -0.362946 0
M  V30 13935 H 1289.46 1.29047 -1.5877 0
M  V30 13936 H 1289.47 3.73646 -1.63868 0
M  V30 13937 H 1288.14 3.19885 -2.65794 0
M  V30 13938 H 1286.72 3.6245 -0.876626 0
M  V30 13939 N 1288.9 1.00119 1.21713 0
M  V30 13940 C 1290.15 0.692409 1.91252 0
M  V30 13941 C 1290.5 -0.768052 1.76405 0
M  V30 13942 O 1289.8 -1.54913 1.1275 0
M  V30 13943 C 1289.99 1.04376 3.41819 0
M  V30 13944 C 1289.82 2.53682 3.71316 0
M  V30 13945 C 1288.59 3.20222 3.90879 0
M  V30 13946 C 1290.79 3.51829 3.75127 0
M  V30 13947 N 1288.77 4.58919 4.07758 0
M  V30 13948 C 1290.14 4.7602 3.97246 0
M  V30 13949 C 1292.2 3.46019 3.58015 0
M  V30 13950 C 1290.9 5.95108 4.04029 0
M  V30 13951 C 1292.93 4.64492 3.66061 0
M  V30 13952 C 1292.29 5.87486 3.88638 0
M  V30 13953 H 1288.39 0.304785 0.72016 0
M  V30 13954 H 1290.97 1.28289 1.46459 0
M  V30 13955 H 1289.14 0.481773 3.854 0
M  V30 13956 H 1290.87 0.690108 3.98773 0
M  V30 13957 H 1287.63 2.70673 3.8863 0
M  V30 13958 H 1288.05 5.30884 4.20108 0
M  V30 13959 H 1292.69 2.51938 3.3954 0
M  V30 13960 H 1290.41 6.89585 4.21305 0
M  V30 13961 H 1294 4.61595 3.54148 0
M  V30 13962 H 1292.88 6.77628 3.94703 0
M  V30 13963 N 1290.38 -1.37203 0.775435 0
M  V30 13964 C 1291.79 -1.82224 0.406372 0
M  V30 13965 C 1292.14 -1.64587 -1.06796 0
M  V30 13966 O 1291.27 -1.15903 -1.82744 0
M  V30 13967 C 1291.86 -3.30824 0.730819 0
M  V30 13968 C 1290.42 -3.74108 0.414766 0
M  V30 13969 C 1289.57 -2.59679 0.972747 0
M  V30 13970 H 1292.52 -1.25623 0.969775 0
M  V30 13971 H 1292.54 -3.80496 0.0168066 0
M  V30 13972 H 1292.05 -3.43628 1.80392 0
M  V30 13973 H 1290.15 -3.66871 -0.650866 0
M  V30 13974 H 1290.27 -4.70074 0.925595 0
M  V30 13975 H 1288.63 -2.51591 0.396772 0
M  V30 13976 H 1289.41 -2.75274 2.05132 0
M  V30 13977 N 1291.86 -0.526279 -1.48553 0
M  V30 13978 C 1293.09 0.0052277 -2.06899 0
M  V30 13979 C 1293.5 1.2849 -1.38332 0
M  V30 13980 O 1292.86 1.76354 -0.469648 0
M  V30 13981 C 1292.91 0.236709 -3.60724 0
M  V30 13982 O 1292.63 -0.992256 -4.26715 0
M  V30 13983 C 1294.13 0.809014 -4.35855 0
M  V30 13984 H 1291.35 -0.0318426 -0.670244 0
M  V30 13985 H 1293.9 -0.730865 -1.90994 0
M  V30 13986 H 1292.05 0.922842 -3.76248 0
M  V30 13987 H 1292.47 -0.770697 -5.18807 0
M  V30 13988 H 1293.94 0.920428 -5.44272 0
M  V30 13989 H 1294.42 1.81302 -4.00033 0
M  V30 13990 H 1295.02 0.159564 -4.25001 0
M  V30 13991 N 1293.34 1.5542 -0.261239 0
M  V30 13992 C 1294.27 2.24949 0.626126 0
M  V30 13993 C 1295.25 1.23474 1.16997 0
M  V30 13994 O 1296.43 1.52161 1.20667 0
M  V30 13995 C 1293.56 2.95996 1.81669 0
M  V30 13996 C 1292.52 4.04282 1.40499 0
M  V30 13997 C 1291.84 4.62831 2.67753 0
M  V30 13998 C 1293.14 5.1923 0.56543 0
M  V30 13999 H 1294.84 2.99364 0.0463164 0
M  V30 14000 H 1292.38 1.43985 0.0208366 0
M  V30 14001 H 1294.34 3.43343 2.44323 0
M  V30 14002 H 1293.06 2.19093 2.42211 0
M  V30 14003 H 1291.72 3.57726 0.801712 0
M  V30 14004 H 1291.37 3.82611 3.26524 0
M  V30 14005 H 1291.07 5.35938 2.40925 0
M  V30 14006 H 1292.59 5.12918 3.31281 0
M  V30 14007 H 1294.01 5.62714 1.09663 0
M  V30 14008 H 1292.4 5.98814 0.392607 0
M  V30 14009 H 1293.47 4.83086 -0.419059 0
M  V30 14010 N 1294.82 -0.0116844 1.57596 0
M  V30 14011 C 1295.76 -1.02514 2.08791 0
M  V30 14012 C 1296.76 -1.36341 1.00536 0
M  V30 14013 O 1297.96 -1.35042 1.19011 0
M  V30 14014 H 1294.34 -0.348201 0.666528 0
M  V30 14015 H 1296.31 -0.567698 2.9295 0
M  V30 14016 C 1295.06 -2.312 2.59696 0
M  V30 14017 H 1294.38 -2.06036 3.42621 0
M  V30 14018 H 1295.82 -3.00417 2.99208 0
M  V30 14019 C 1294.28 -3.01372 1.50586 0
M  V30 14020 O 1294.81 -3.91896 0.882046 0
M  V30 14021 N 1293.02 -2.62997 1.23616 0
M  V30 14022 H 1292.56 -1.89466 1.74529 0
M  V30 14023 H 1292.52 -3.10264 0.508289 0
M  V30 14024 N 1296.29 -1.55015 -0.284256 0
M  V30 14025 C 1297.23 -1.82031 -1.37623 0
M  V30 14026 C 1298.2 -0.672564 -1.48038 0
M  V30 14027 O 1299.39 -0.914349 -1.64839 0
M  V30 14028 C 1296.52 -1.97193 -2.75377 0
M  V30 14029 C 1295.56 -3.19699 -2.82303 0
M  V30 14030 S 1296.39 -4.77348 -2.42691 0
M  V30 14031 C 1297.55 -4.95468 -3.82442 0
M  V30 14032 H 1297.78 -2.74366 -1.14502 0
M  V30 14033 H 1295.32 -1.46642 -0.483283 0
M  V30 14034 H 1297.27 -2.06614 -3.54713 0
M  V30 14035 H 1295.94 -1.05766 -2.95757 0
M  V30 14036 H 1295.13 -3.27161 -3.83382 0
M  V30 14037 H 1294.73 -3.08811 -2.10978 0
M  V30 14038 H 1297.02 -4.80519 -4.77606 0
M  V30 14039 H 1297.97 -5.97538 -3.7994 0
M  V30 14040 H 1298.37 -4.23516 -3.73222 0
M  V30 14041 N 1297.77 0.548248 -1.47757 0
M  V30 14042 C 1298.7 1.66409 -1.63799 0
M  V30 14043 C 1299.68 1.62973 -0.487211 0
M  V30 14044 O 1300.87 1.80455 -0.717612 0
M  V30 14045 C 1298 3.05035 -1.66046 0
M  V30 14046 C 1296.95 3.23322 -2.80441 0
M  V30 14047 C 1296.28 4.62824 -2.67765 0
M  V30 14048 C 1297.58 3.07837 -4.2194 0
M  V30 14049 H 1299.27 1.53239 -2.57212 0
M  V30 14050 H 1296.82 0.735783 -1.23783 0
M  V30 14051 H 1298.77 3.82951 -1.75859 0
M  V30 14052 H 1297.49 3.19185 -0.69199 0
M  V30 14053 H 1296.15 2.47816 -2.70153 0
M  V30 14054 H 1295.8 4.73786 -1.68927 0
M  V30 14055 H 1295.5 4.76007 -3.44515 0
M  V30 14056 H 1297.03 5.42864 -2.7952 0
M  V30 14057 H 1298.44 3.75563 -4.33157 0
M  V30 14058 H 1296.84 3.32525 -4.99547 0
M  V30 14059 H 1297.91 2.04474 -4.3968 0
M  V30 14060 N 1299.25 1.36039 0.795694 0
M  V30 14061 C 1300.5 1.29251 1.54845 0
M  V30 14062 C 1300.81 -0.127926 1.95181 0
M  V30 14063 O 1302.02 -0.318141 2.6963 0
M  V30 14064 C 1300.47 2.26736 2.79497 0
M  V30 14065 C 1300.08 3.74183 2.46355 0
M  V30 14066 C 1301.83 2.28913 3.5749 0
M  V30 14067 C 1299.73 4.63462 3.67365 0
M  V30 14068 H 1298.66 0.48027 0.581255 0
M  V30 14069 H 1301.31 1.61366 0.873693 0
M  V30 14070 H 1299.7 1.87608 3.4874 0
M  V30 14071 H 1300.87 4.22011 1.8505 0
M  V30 14072 H 1299.18 3.7472 1.81586 0
M  V30 14073 H 1301.78 2.92828 4.47388 0
M  V30 14074 H 1302.12 1.2959 3.95616 0
M  V30 14075 H 1302.66 2.66627 2.9522 0
M  V30 14076 H 1299.4 5.63824 3.34339 0
M  V30 14077 H 1298.92 4.20354 4.27858 0
M  V30 14078 H 1300.6 4.79424 4.34467 0
M  V30 14079 N 1300.73 -1.01913 1.20215 0
M  V30 14080 C 1301.68 -2.104 0.948708 0
M  V30 14081 C 1302.65 -1.65665 -0.120139 0
M  V30 14082 O 1303.83 -1.90785 0.0240547 0
M  V30 14083 C 1300.97 -3.41398 0.504132 0
M  V30 14084 C 1300.08 -3.99625 1.64085 0
M  V30 14085 C 1299.22 -5.18673 1.14683 0
M  V30 14086 C 1298.26 -5.68977 2.2568 0
M  V30 14087 N 1297.39 -6.79289 1.77514 0
M  V30 14088 H 1302.23 -2.31415 1.87753 0
M  V30 14089 H 1299.77 -1.13487 0.935901 0
M  V30 14090 H 1301.73 -4.16578 0.22771 0
M  V30 14091 H 1300.36 -3.20463 -0.387689 0
M  V30 14092 H 1299.41 -3.21565 2.03225 0
M  V30 14093 H 1300.72 -4.32965 2.47674 0
M  V30 14094 H 1299.88 -6.01048 0.826223 0
M  V30 14095 H 1298.62 -4.86891 0.280797 0
M  V30 14096 H 1297.62 -4.85208 2.5856 0
M  V30 14097 H 1298.85 -6.02794 3.12755 0
M  V30 14098 H 1296.79 -6.49341 0.932338 0
M  V30 14099 H 1296.71 -7.11808 2.54686 0
M  V30 14100 H 1297.98 -7.65235 1.48446 0
M  V30 14101 N 1302.21 -1.00763 -1.2118 0
M  V30 14102 C 1303.46 -0.687197 -1.89633 0
M  V30 14103 C 1303.77 0.78566 -1.79128 0
M  V30 14104 O 1304.97 1.21828 -2.42632 0
M  V30 14105 C 1303.43 -1.1787 -3.40051 0
M  V30 14106 C 1303.04 -2.67782 -3.59161 0
M  V30 14107 C 1304.78 -0.933277 -4.14114 0
M  V30 14108 C 1302.69 -3.10459 -5.03358 0
M  V30 14109 H 1301.62 -0.253342 -0.710165 0
M  V30 14110 H 1304.27 -1.21914 -1.37147 0
M  V30 14111 H 1302.65 -0.574791 -3.91806 0
M  V30 14112 H 1303.83 -3.33645 -3.17833 0
M  V30 14113 H 1302.14 -2.90368 -2.98455 0
M  V30 14114 H 1304.74 -1.22766 -5.20416 0
M  V30 14115 H 1305.08 0.130431 -4.16096 0
M  V30 14116 H 1305.61 -1.50011 -3.68431 0
M  V30 14117 H 1302.35 -4.16068 -5.06525 0
M  V30 14118 H 1301.87 -2.4931 -5.45531 0
M  V30 14119 H 1303.55 -3.02589 -5.71882 0
M  V30 14120 N 1303.68 1.3679 -0.7827 0
M  V30 14121 C 1304.93 1.98664 -0.348634 0
M  V30 14122 C 1305.25 1.62827 1.08382 0
M  V30 14123 O 1306.45 2.17886 1.61982 0
M  V30 14124 C 1304.91 3.55319 -0.572392 0
M  V30 14125 C 1304.52 4.00086 -2.01582 0
M  V30 14126 C 1306.26 4.24017 -0.202496 0
M  V30 14127 C 1304.17 5.49493 -2.18659 0
M  V30 14128 H 1303.1 0.743294 -0.126612 0
M  V30 14129 H 1305.75 1.56177 -0.963383 0
M  V30 14130 H 1304.13 3.95842 0.111973 0
M  V30 14131 H 1305.3 3.7078 -2.73603 0
M  V30 14132 H 1303.62 3.44205 -2.34333 0
M  V30 14133 H 1306.22 5.3381 -0.308459 0
M  V30 14134 H 1306.56 4.07559 0.84859 0
M  V30 14135 H 1307.09 3.88834 -0.839834 0
M  V30 14136 H 1303.83 5.7089 -3.22126 0
M  V30 14137 H 1303.35 5.80447 -1.51134 0
M  V30 14138 H 1305.03 6.15621 -1.99048 0
M  V30 14139 N 1305.16 0.53415 1.48272 0
M  V30 14140 C 1306.41 0.00156948 2.021 0
M  V30 14141 C 1306.73 -1.34371 1.41313 0
M  V30 14142 O 1306 -1.87117 0.579996 0
M  V30 14143 H 1304.58 -0.00240789 0.746996 0
M  V30 14144 H 1307.24 0.698928 1.81937 0
M  V30 14145 H 1306.34 -0.103671 3.11928 0
M  V30 14146 N 1306.64 -1.55279 0.269478 0
M  V30 14147 C 1307.59 -2.23723 -0.636468 0
M  V30 14148 C 1308.58 -1.23234 -1.16232 0
M  V30 14149 O 1309.79 -1.41181 -1.1166 0
M  V30 14150 H 1306.16 -0.71793 -0.223788 0
M  V30 14151 H 1308.13 -2.98378 -0.0363057 0
M  V30 14152 C 1306.88 -2.96755 -1.81195 0
M  V30 14153 H 1306.21 -3.73865 -1.4165 0
M  V30 14154 H 1307.65 -3.47975 -2.42258 0
M  V30 14155 C 1306.11 -2.01905 -2.69696 0
M  V30 14156 O 1306.64 -1.56662 -3.69892 0
M  V30 14157 N 1304.84 -1.68524 -2.36744 0
M  V30 14158 H 1304.39 -2.05512 -1.55314 0
M  V30 14159 H 1304.35 -1.05331 -2.96231 0
M  V30 14160 N 1308.12 0.00332656 -1.576 0
M  V30 14161 C 1309.34 0.703587 -1.95101 0
M  V30 14162 C 1309.77 1.66697 -0.871418 0
M  V30 14163 O 1309.13 1.80494 0.170739 0
M  V30 14164 C 1309.17 1.41457 -3.31696 0
M  V30 14165 O 1308.28 2.52885 -3.25765 0
M  V30 14166 H 1307.62 0.187396 -0.637008 0
M  V30 14167 H 1310.15 -0.0488727 -2.04542 0
M  V30 14168 H 1310.16 1.77874 -3.67185 0
M  V30 14169 H 1308.83 0.708182 -4.09826 0
M  V30 14170 H 1307.41 2.18821 -3.01947 0
M  V30 14171 N 1309.6 1.55164 0.276031 0
M  V30 14172 C 1310.84 1.75887 1.00953 0
M  V30 14173 C 1311.18 0.5567 1.8605 0
M  V30 14174 O 1310.45 -0.445799 1.89322 0
M  V30 14175 C 1310.73 3.06228 1.89463 0
M  V30 14176 C 1310.59 4.36795 1.07379 0
M  V30 14177 C 1311.91 3.32589 2.88223 0
M  V30 14178 H 1309.02 0.639929 0.365596 0
M  V30 14179 H 1311.67 1.87893 0.282156 0
M  V30 14180 H 1309.82 2.96124 2.51481 0
M  V30 14181 H 1311.49 4.58853 0.474549 0
M  V30 14182 H 1309.73 4.32157 0.377165 0
M  V30 14183 H 1310.4 5.24315 1.72621 0
M  V30 14184 H 1312.88 3.42467 2.36338 0
M  V30 14185 H 1311.75 4.2506 3.47297 0
M  V30 14186 H 1312.02 2.52083 3.6319 0
M  V30 14187 N 1311.07 -0.540404 1.48045 0
M  V30 14188 C 1312.32 -1.29422 1.55224 0
M  V30 14189 C 1312.64 -1.93716 0.223365 0
M  V30 14190 O 1311.91 -1.808 -0.754204 0
M  V30 14191 H 1310.49 -0.480658 0.571819 0
M  V30 14192 H 1313.16 -0.629712 1.84447 0
M  V30 14193 H 1312.25 -2.07897 2.32777 0
M  V30 14194 N 1312.55 -1.36459 -0.788468 0
M  V30 14195 C 1313.52 -1.3071 -1.88275 0
M  V30 14196 C 1314.52 -0.214596 -1.59362 0
M  V30 14197 O 1315.71 -0.469437 -1.67756 0
M  V30 14198 C 1312.84 -1.02648 -3.25079 0
M  V30 14199 H 1314.03 -2.28029 -1.94788 0
M  V30 14200 H 1311.58 -1.21245 -0.986375 0
M  V30 14201 H 1312.32 -0.0578992 -3.24248 0
M  V30 14202 H 1312.1 -1.81708 -3.47454 0
M  V30 14203 H 1313.59 -1.01233 -4.05144 0
M  V30 14204 N 1314.03 1.01274 -1.20754 0
M  V30 14205 C 1314.96 2.11763 -0.983805 0
M  V30 14206 C 1315.94 1.69869 0.0885635 0
M  V30 14207 O 1317.13 1.94075 -0.0697239 0
M  V30 14208 C 1314.26 3.43087 -0.539287 0
M  V30 14209 C 1313.21 3.9874 -1.55534 0
M  V30 14210 C 1312.54 5.25877 -0.967322 0
M  V30 14211 C 1313.84 4.31688 -2.94012 0
M  V30 14212 H 1315.53 2.30737 -1.90789 0
M  V30 14213 H 1313.08 1.10884 -0.918734 0
M  V30 14214 H 1315.03 4.19773 -0.369979 0
M  V30 14215 H 1313.75 3.23883 0.420435 0
M  V30 14216 H 1312.41 3.24166 -1.71207 0
M  V30 14217 H 1312.06 5.03 0.000448307 0
M  V30 14218 H 1311.76 5.64077 -1.64594 0
M  V30 14219 H 1313.28 6.05215 -0.809167 0
M  V30 14220 H 1314.7 4.99246 -2.81827 0
M  V30 14221 H 1313.1 4.81011 -3.58815 0
M  V30 14222 H 1314.17 3.4029 -3.45442 0
M  V30 14223 N 1315.51 1.01404 1.20644 0
M  V30 14224 C 1316.76 0.700523 1.89571 0
M  V30 14225 C 1317.08 -0.771978 1.79068 0
M  V30 14226 O 1316.35 -1.55506 1.19142 0
M  V30 14227 H 1314.93 0.256122 0.70172 0
M  V30 14228 H 1317.59 1.28509 1.46531 0
M  V30 14229 H 1316.69 0.981665 2.9626 0
M  V30 14230 N 1316.99 -1.36373 0.789944 0
M  V30 14231 C 1317.94 -2.31928 0.17666 0
M  V30 14232 C 1318.93 -1.55831 -0.664316 0
M  V30 14233 O 1320.14 -1.71089 -0.559341 0
M  V30 14234 H 1316.51 -0.751021 0.038353 0
M  V30 14235 H 1318.48 -2.81216 0.998004 0
M  V30 14236 C 1317.23 -3.41112 -0.673646 0
M  V30 14237 H 1316.55 -3.99784 -0.0358875 0
M  V30 14238 H 1317.99 -4.10292 -1.06942 0
M  V30 14239 C 1316.45 -2.82728 -1.83211 0
M  V30 14240 O 1316.98 -2.74935 -2.92871 0
M  V30 14241 N 1315.19 -2.4001 -1.6384 0
M  V30 14242 H 1314.74 -2.46549 -0.746423 0
M  V30 14243 H 1314.69 -2.01294 -2.41512 0
M  V30 14244 N 1318.47 -0.542005 -1.47987 0
M  V30 14245 C 1319.4 0.202703 -2.32618 0
M  V30 14246 C 1320.38 0.923521 -1.42846 0
M  V30 14247 O 1321.56 0.906957 -1.7172 0
M  V30 14248 C 1318.69 1.24267 -3.24307 0
M  V30 14249 C 1317.65 0.639257 -4.23199 0
M  V30 14250 C 1316.97 1.78275 -5.04105 0
M  V30 14251 C 1318.27 -0.396982 -5.20789 0
M  V30 14252 H 1319.97 -0.503817 -2.95131 0
M  V30 14253 H 1317.51 -0.243736 -1.41922 0
M  V30 14254 H 1319.46 1.7717 -3.82347 0
M  V30 14255 H 1318.19 1.97893 -2.59819 0
M  V30 14256 H 1316.85 0.131655 -3.66364 0
M  V30 14257 H 1316.5 2.50768 -4.36032 0
M  V30 14258 H 1316.2 1.38487 -5.71047 0
M  V30 14259 H 1317.72 2.31533 -5.65 0
M  V30 14260 H 1319.13 0.0454057 -5.73282 0
M  V30 14261 H 1317.53 -0.712911 -5.9585 0
M  V30 14262 H 1318.6 -1.29843 -4.67193 0
M  V30 14263 N 1319.94 1.55134 -0.277709 0
M  V30 14264 C 1321.17 2.04061 0.341601 0
M  V30 14265 C 1321.59 1.15597 1.49274 0
M  V30 14266 O 1320.94 0.176625 1.81643 0
M  V30 14267 C 1320.99 3.52074 0.820139 0
M  V30 14268 O 1320.72 4.37171 -0.28516 0
M  V30 14269 C 1322.22 4.16899 1.507 0
M  V30 14270 H 1319.44 0.666501 0.0775708 0
M  V30 14271 H 1321.98 2.00336 -0.410559 0
M  V30 14272 H 1320.14 3.56233 1.52238 0
M  V30 14273 H 1320.55 5.24434 0.0832022 0
M  V30 14274 H 1322.02 5.22061 1.79323 0
M  V30 14275 H 1322.5 3.65227 2.43939 0
M  V30 14276 H 1323.11 4.16749 0.848541 0
M  V30 14277 N 1321.42 0.00503138 1.57599 0
M  V30 14278 C 1322.35 -0.983586 2.11773 0
M  V30 14279 C 1323.33 -1.35518 1.02805 0
M  V30 14280 O 1324.52 -1.43804 1.30514 0
M  V30 14281 C 1321.65 -2.27383 2.62515 0
M  V30 14282 C 1320.6 -2.0437 3.76054 0
M  V30 14283 C 1319.93 -3.39451 4.1313 0
M  V30 14284 C 1321.23 -1.40223 5.03125 0
M  V30 14285 H 1322.92 -0.532501 2.94627 0
M  V30 14286 H 1320.47 -0.254696 1.4173 0
M  V30 14287 H 1322.42 -2.96903 2.99043 0
M  V30 14288 H 1321.14 -2.74614 1.7679 0
M  V30 14289 H 1319.8 -1.37275 3.39928 0
M  V30 14290 H 1319.45 -3.84395 3.24422 0
M  V30 14291 H 1319.15 -3.24868 4.89627 0
M  V30 14292 H 1320.68 -4.10279 4.52221 0
M  V30 14293 H 1322.09 -1.99708 5.37392 0
M  V30 14294 H 1320.49 -1.36112 5.8446 0
M  V30 14295 H 1321.56 -0.372073 4.8347 0
M  V30 14296 N 1322.9 -1.55308 -0.267798 0
M  V30 14297 C 1324.15 -1.7642 -1.00019 0
M  V30 14298 C 1324.48 -0.566559 -1.85752 0
M  V30 14299 O 1323.75 0.435752 -1.89556 0
M  V30 14300 C 1324.04 -3.07229 -1.87836 0
M  V30 14301 C 1323.89 -4.37358 -1.05061 0
M  V30 14302 C 1325.21 -3.34113 -2.86455 0
M  V30 14303 H 1322.33 -0.641859 -0.362197 0
M  V30 14304 H 1324.97 -1.8804 -0.272188 0
M  V30 14305 H 1323.12 -2.97454 -2.49907 0
M  V30 14306 H 1324.79 -4.59098 -0.450208 0
M  V30 14307 H 1323.03 -4.32351 -0.354242 0
M  V30 14308 H 1323.71 -5.25223 -1.69838 0
M  V30 14309 H 1326.18 -3.43715 -2.34519 0
M  V30 14310 H 1325.06 -4.26896 -3.45038 0
M  V30 14311 H 1325.32 -2.54005 -3.61848 0
M  V30 14312 N 1324.38 0.532545 -1.4833 0
M  V30 14313 C 1325.31 1.64662 -1.65555 0
M  V30 14314 C 1326.29 1.62447 -0.50447 0
M  V30 14315 O 1327.47 1.79684 -0.736712 0
M  V30 14316 C 1324.6 3.03256 -1.69272 0
M  V30 14317 C 1323.56 3.20329 -2.83854 0
M  V30 14318 C 1322.88 4.59958 -2.72659 0
M  V30 14319 C 1324.18 3.03345 -4.25181 0
M  V30 14320 H 1325.88 1.50502 -2.58823 0
M  V30 14321 H 1323.42 0.722612 -1.24556 0
M  V30 14322 H 1325.38 3.81064 -1.79911 0
M  V30 14323 H 1324.1 3.18433 -0.725805 0
M  V30 14324 H 1322.76 2.44937 -2.72766 0
M  V30 14325 H 1322.41 4.71967 -1.73942 0
M  V30 14326 H 1322.11 4.72327 -3.49544 0
M  V30 14327 H 1323.63 5.39869 -2.85262 0
M  V30 14328 H 1325.05 3.70948 -4.37116 0
M  V30 14329 H 1323.44 3.27208 -5.03045 0
M  V30 14330 H 1324.51 1.998 -4.41824 0
M  V30 14331 N 1325.86 1.36875 0.78122 0
M  V30 14332 C 1326.82 1.31706 1.8758 0
M  V30 14333 C 1327.82 0.223044 1.59246 0
M  V30 14334 O 1329.01 0.478327 1.67504 0
M  V30 14335 C 1326.14 1.0437 3.2453 0
M  V30 14336 H 1327.33 2.29059 1.93576 0
M  V30 14337 H 1324.89 1.21766 0.979931 0
M  V30 14338 H 1325.62 0.0750941 3.24213 0
M  V30 14339 H 1325.41 1.83548 3.46486 0
M  V30 14340 H 1326.9 1.0338 4.04602 0
M  V30 14341 N 1327.33 -1.00632 1.21289 0
M  V30 14342 C 1328.58 -1.73802 1.02351 0
M  V30 14343 C 1328.9 -1.90503 -0.443611 0
M  V30 14344 O 1330.1 -2.60868 -0.752356 0
M  V30 14345 C 1328.56 -3.12647 1.78269 0
M  V30 14346 C 1328.17 -3.03923 3.29142 0
M  V30 14347 C 1329.91 -3.89956 1.67735 0
M  V30 14348 C 1327.82 -4.3784 3.97556 0
M  V30 14349 H 1326.75 -0.651616 0.379358 0
M  V30 14350 H 1329.4 -1.12446 1.45011 0
M  V30 14351 H 1327.78 -3.74605 1.28401 0
M  V30 14352 H 1328.95 -2.51211 3.86303 0
M  V30 14353 H 1327.27 -2.40103 3.40205 0
M  V30 14354 H 1329.87 -4.89051 2.1618 0
M  V30 14355 H 1330.21 -4.11423 0.635338 0
M  V30 14356 H 1330.74 -3.34647 2.15072 0
M  V30 14357 H 1327.48 -4.21573 5.01952 0
M  V30 14358 H 1327 -4.90518 3.45184 0
M  V30 14359 H 1328.68 -5.06644 4.02393 0
M  V30 14360 N 1328.81 -1.02043 -1.20104 0
M  V30 14361 C 1330.06 -0.707271 -1.88893 0
M  V30 14362 C 1330.37 0.766617 -1.79951 0
M  V30 14363 O 1331.58 1.19248 -2.4391 0
M  V30 14364 C 1330.04 -1.2147 -3.38782 0
M  V30 14365 C 1329.64 -2.71576 -3.56301 0
M  V30 14366 C 1331.39 -0.977146 -4.13101 0
M  V30 14367 C 1329.29 -3.15781 -5.00037 0
M  V30 14368 H 1328.22 -0.26086 -0.707438 0
M  V30 14369 H 1330.88 -1.23361 -1.35846 0
M  V30 14370 H 1329.26 -0.616315 -3.91175 0
M  V30 14371 H 1330.43 -3.36997 -3.14276 0
M  V30 14372 H 1328.75 -2.93517 -2.95359 0
M  V30 14373 H 1331.34 -1.28278 -5.19085 0
M  V30 14374 H 1331.69 0.0862909 -4.16211 0
M  V30 14375 H 1332.22 -1.5391 -3.6682 0
M  V30 14376 H 1328.96 -4.21417 -5.02084 0
M  V30 14377 H 1328.48 -2.55083 -5.42856 0
M  V30 14378 H 1330.16 -3.08637 -5.6864 0
M  V30 14379 N 1330.29 1.35952 -0.797165 0
M  V30 14380 C 1331.54 1.99327 -0.373695 0
M  V30 14381 C 1331.87 1.63111 1.05396 0
M  V30 14382 O 1331.14 0.889736 1.72956 0
M  V30 14383 C 1331.43 3.5593 -0.54641 0
M  V30 14384 C 1331.28 4.01975 -2.01832 0
M  V30 14385 C 1332.6 4.40087 0.0337694 0
M  V30 14386 H 1329.72 0.724107 -0.137254 0
M  V30 14387 H 1332.36 1.61248 -1.00495 0
M  V30 14388 H 1330.51 3.88499 -0.00903959 0
M  V30 14389 H 1332.18 3.79859 -2.61735 0
M  V30 14390 H 1330.43 3.5323 -2.51815 0
M  V30 14391 H 1331.1 5.109 -2.09009 0
M  V30 14392 H 1333.57 4.13923 -0.425039 0
M  V30 14393 H 1332.45 5.48775 -0.117054 0
M  V30 14394 H 1332.71 4.27504 1.12661 0
M  V30 14395 N 1331.77 0.549846 1.47697 0
M  V30 14396 C 1333.02 0.0230503 2.02487 0
M  V30 14397 C 1333.34 -1.32382 1.42497 0
M  V30 14398 O 1332.6 -1.87293 0.567441 0
M  V30 14399 C 1332.9 -0.127268 3.57173 0
M  V30 14400 C 1332.56 1.14777 4.36047 0
M  V30 14401 C 1331.23 1.49716 4.57317 0
M  V30 14402 C 1333.58 1.99302 4.81589 0
M  V30 14403 C 1330.91 2.69042 5.21376 0
M  V30 14404 C 1333.26 3.17824 5.46965 0
M  V30 14405 C 1331.92 3.53086 5.66469 0
M  V30 14406 H 1331.19 0.00843471 0.740952 0
M  V30 14407 H 1333.84 0.719876 1.77454 0
M  V30 14408 H 1332.14 -0.907008 3.81157 0
M  V30 14409 H 1333.84 -0.550103 3.97209 0
M  V30 14410 H 1330.43 0.865703 4.19766 0
M  V30 14411 H 1334.61 1.73618 4.64942 0
M  V30 14412 H 1329.87 2.9654 5.34672 0
M  V30 14413 H 1334.04 3.83612 5.81218 0
M  V30 14414 H 1331.67 4.45643 6.15878 0
M  V30 14415 N 1333.25 -1.54984 0.285932 0
M  V30 14416 C 1334.5 -1.99008 -0.328433 0
M  V30 14417 C 1334.81 -1.17787 -1.56158 0
M  V30 14418 O 1336.01 -1.52006 -2.24959 0
M  V30 14419 C 1334.47 -3.54241 -0.635688 0
M  V30 14420 C 1334.08 -4.44252 0.578271 0
M  V30 14421 C 1335.82 -4.06828 -1.21208 0
M  V30 14422 C 1333.73 -5.90892 0.245003 0
M  V30 14423 H 1332.66 -0.743314 -0.126494 0
M  V30 14424 H 1335.31 -1.79258 0.39228 0
M  V30 14425 H 1333.69 -3.69834 -1.41559 0
M  V30 14426 H 1334.87 -4.40431 1.35489 0
M  V30 14427 H 1333.18 -4.02358 1.07225 0
M  V30 14428 H 1335.78 -5.13941 -1.47542 0
M  V30 14429 H 1336.12 -3.56515 -2.14948 0
M  V30 14430 H 1336.65 -3.94718 -0.494222 0
M  V30 14431 H 1333.39 -6.45323 1.15057 0
M  V30 14432 H 1332.91 -5.97757 -0.494636 0
M  V30 14433 H 1334.59 -6.46805 -0.158891 0
M  V30 14434 N 1334.72 -0.0133892 -1.57594 0
M  V30 14435 C 1335.97 0.668634 -1.91143 0
M  V30 14436 C 1336.3 1.7303 -0.888299 0
M  V30 14437 O 1335.55 1.95418 0.105056 0
M  V30 14438 C 1335.85 1.33729 -3.31438 0
M  V30 14439 C 1335.52 0.407527 -4.49055 0
M  V30 14440 C 1334.18 0.151573 -4.80961 0
M  V30 14441 C 1336.53 -0.231835 -5.20684 0
M  V30 14442 C 1333.86 -0.751812 -5.81863 0
M  V30 14443 C 1336.21 -1.12318 -6.22549 0
M  V30 14444 C 1334.88 -1.38818 -6.52906 0
M  V30 14445 H 1334.15 0.24467 -0.699441 0
M  V30 14446 H 1336.79 -0.0717876 -1.91365 0
M  V30 14447 H 1335.1 2.15209 -3.27403 0
M  V30 14448 H 1336.8 1.87128 -3.5466 0
M  V30 14449 H 1333.39 0.617192 -4.24133 0
M  V30 14450 H 1337.57 -0.0471268 -4.96278 0
M  V30 14451 H 1332.83 -0.964991 -6.03737 0
M  V30 14452 H 1337 -1.62488 -6.77179 0
M  V30 14453 H 1334.63 -2.08986 -7.3091 0
M  V30 14454 N 1336.2 1.55448 0.259558 0
M  V30 14455 C 1337.17 1.88459 1.30445 0
M  V30 14456 C 1338.17 0.760096 1.41701 0
M  V30 14457 O 1339.36 1.02819 1.4062 0
M  V30 14458 C 1336.49 2.10181 2.68397 0
M  V30 14459 H 1337.68 2.81877 1.02398 0
M  V30 14460 H 1335.23 1.48145 0.498262 0
M  V30 14461 H 1335.97 1.19189 3.01603 0
M  V30 14462 H 1335.75 2.92066 2.6161 0
M  V30 14463 H 1337.24 2.36947 3.43869 0
M  V30 14464 N 1337.68 -0.524672 1.4861 0
M  V30 14465 C 1338.93 -1.28211 1.5713 0
M  V30 14466 C 1339.26 -1.92626 0.246751 0
M  V30 14467 O 1338.53 -1.79553 -0.747725 0
M  V30 14468 C 1338.82 -2.36737 2.71344 0
M  V30 14469 C 1338.67 -1.76978 4.1352 0
M  V30 14470 C 1339.99 -3.3847 2.81294 0
M  V30 14471 H 1337.11 -0.46479 0.571961 0
M  V30 14472 H 1339.75 -0.583937 1.80804 0
M  V30 14473 H 1337.9 -2.96287 2.51289 0
M  V30 14474 H 1339.57 -1.21438 4.45029 0
M  V30 14475 H 1337.82 -1.07488 4.20272 0
M  V30 14476 H 1338.49 -2.55583 4.89266 0
M  V30 14477 H 1340.96 -2.88882 2.99477 0
M  V30 14478 H 1339.84 -4.11795 3.62928 0
M  V30 14479 H 1340.1 -3.99347 1.89669 0
M  V30 14480 N 1339.16 -1.37287 -0.77395 0
M  V30 14481 C 1340.4 -1.3257 -1.5347 0
M  V30 14482 C 1340.74 0.090346 -1.9399 0
M  V30 14483 O 1340.01 1.04719 -1.63903 0
M  V30 14484 C 1340.3 -2.26277 -2.80126 0
M  V30 14485 C 1340.15 -3.76651 -2.45874 0
M  V30 14486 C 1341.47 -2.18471 -3.82045 0
M  V30 14487 H 1338.59 -0.48289 -0.556764 0
M  V30 14488 H 1341.23 -1.6797 -0.888039 0
M  V30 14489 H 1339.38 -1.96219 -3.35306 0
M  V30 14490 H 1341.05 -4.17296 -1.96626 0
M  V30 14491 H 1339.29 -3.95327 -1.78602 0
M  V30 14492 H 1339.96 -4.3765 -3.36403 0
M  V30 14493 H 1342.44 -2.44962 -3.36352 0
M  V30 14494 H 1341.32 -2.86183 -4.68392 0
M  V30 14495 H 1341.58 -1.17692 -4.26147 0
M  V30 14496 N 1340.64 0.999871 -1.21821 0
M  V30 14497 C 1341.88 1.73497 -1.0365 0
M  V30 14498 C 1342.21 1.90194 0.430271 0
M  V30 14499 O 1341.48 1.45655 1.31002 0
M  V30 14500 H 1340.06 0.642804 -0.380541 0
M  V30 14501 H 1342.72 1.20461 -1.53216 0
M  V30 14502 H 1341.81 2.73215 -1.50864 0
M  V30 14503 N 1342.11 1.02678 1.19562 0
M  V30 14504 C 1343.05 0.550355 2.21464 0
M  V30 14505 C 1344.03 -0.407674 1.57406 0
M  V30 14506 O 1345.21 -0.325272 1.85672 0
M  V30 14507 C 1342.34 -0.197777 3.38122 0
M  V30 14508 C 1341.38 0.711362 4.20526 0
M  V30 14509 S 1342.22 2.18636 4.88834 0
M  V30 14510 C 1343.37 1.44868 6.08904 0
M  V30 14511 H 1343.6 1.41377 2.61534 0
M  V30 14512 H 1341.14 0.836535 1.29775 0
M  V30 14513 H 1343.1 -0.62329 4.0574 0
M  V30 14514 H 1341.76 -1.03689 2.96492 0
M  V30 14515 H 1340.95 0.133916 5.03822 0
M  V30 14516 H 1340.55 1.0751 3.58214 0
M  V30 14517 H 1342.84 0.734143 6.73511 0
M  V30 14518 H 1343.79 2.25816 6.71128 0
M  V30 14519 H 1344.19 0.947098 5.56498 0
M  V30 14520 N 1343.59 -1.35528 0.804364 0
M  V30 14521 C 1344.52 -2.28562 0.170893 0
M  V30 14522 C 1345.54 -1.50178 -0.628526 0
M  V30 14523 O 1346.73 -1.72438 -0.461252 0
M  V30 14524 C 1343.83 -3.29792 -0.780434 0
M  V30 14525 C 1343 -4.37391 -0.0278619 0
M  V30 14526 C 1342.06 -5.18492 -0.897341 0
M  V30 14527 O 1341.08 -5.68128 -0.349098 0
M  V30 14528 N 1342.29 -5.36385 -2.21971 0
M  V30 14529 H 1345.05 -2.83565 0.970108 0
M  V30 14530 H 1342.61 -1.47854 0.659617 0
M  V30 14531 H 1344.6 -3.80939 -1.36628 0
M  V30 14532 H 1343.17 -2.7532 -1.48046 0
M  V30 14533 H 1342.39 -3.87208 0.739178 0
M  V30 14534 H 1343.68 -5.06426 0.490889 0
M  V30 14535 H 1343.08 -4.97699 -2.6891 0
M  V30 14536 H 1341.64 -5.90721 -2.75485 0
M  V30 14537 N 1345.07 -0.557671 -1.47404 0
M  V30 14538 C 1346 0.178019 -2.3282 0
M  V30 14539 C 1346.98 0.908318 -1.43818 0
M  V30 14540 O 1348.17 0.888693 -1.72673 0
M  V30 14541 C 1345.3 1.2082 -3.25607 0
M  V30 14542 C 1344.25 0.594335 -4.23853 0
M  V30 14543 C 1343.58 1.72919 -5.05968 0
M  V30 14544 C 1344.88 -0.452196 -5.20339 0
M  V30 14545 H 1346.57 -0.535091 -2.9458 0
M  V30 14546 H 1344.12 -0.258775 -1.41656 0
M  V30 14547 H 1346.07 1.73104 -3.84204 0
M  V30 14548 H 1344.79 1.95126 -2.61903 0
M  V30 14549 H 1343.45 0.0927898 -3.66483 0
M  V30 14550 H 1343.1 2.4613 -4.38668 0
M  V30 14551 H 1342.8 1.32422 -5.72484 0
M  V30 14552 H 1344.33 2.25527 -5.67424 0
M  V30 14553 H 1345.74 -0.0154011 -5.73298 0
M  V30 14554 H 1344.14 -0.776068 -5.95061 0
M  V30 14555 H 1345.21 -1.34791 -4.65789 0
M  V30 14556 N 1346.55 1.54831 -0.294147 0
M  V30 14557 C 1347.8 2.00001 0.317135 0
M  V30 14558 C 1348.12 1.18256 1.54421 0
M  V30 14559 O 1347.38 0.245035 1.9416 0
M  V30 14560 C 1347.68 3.4997 0.72495 0
M  V30 14561 C 1347.34 4.49126 -0.399616 0
M  V30 14562 C 1346.01 4.75958 -0.708354 0
M  V30 14563 C 1348.36 5.08208 -1.15644 0
M  V30 14564 C 1345.69 5.59137 -1.77716 0
M  V30 14565 C 1348.04 5.9255 -2.21512 0
M  V30 14566 C 1346.7 6.17695 -2.52999 0
M  V30 14567 H 1345.97 0.731856 0.116048 0
M  V30 14568 H 1348.62 1.87019 -0.41182 0
M  V30 14569 H 1346.92 3.60526 1.53388 0
M  V30 14570 H 1348.62 3.82341 1.20898 0
M  V30 14571 H 1345.21 4.28341 -0.148877 0
M  V30 14572 H 1349.4 4.87486 -0.931178 0
M  V30 14573 H 1344.65 5.76859 -2.02592 0
M  V30 14574 H 1348.83 6.37359 -2.80617 0
M  V30 14575 H 1346.45 6.81939 -3.35951 0
M  V30 14576 N 1348.03 0.0217466 1.57585 0
M  V30 14577 C 1349.28 -0.657187 1.91116 0
M  V30 14578 C 1349.6 -1.7309 0.898039 0
M  V30 14579 O 1348.87 -1.95803 -0.0615116 0
M  V30 14580 H 1347.45 -0.245732 0.705425 0
M  V30 14581 H 1350.11 0.0678096 1.94782 0
M  V30 14582 H 1349.2 -1.11462 2.91518 0
M  V30 14583 N 1349.51 -1.55583 -0.251311 0
M  V30 14584 C 1350.45 -1.89946 -1.31108 0
M  V30 14585 C 1351.42 -0.753209 -1.4804 0
M  V30 14586 O 1352.61 -1.00646 -1.62095 0
M  V30 14587 C 1349.75 -2.19576 -2.66233 0
M  V30 14588 C 1348.86 -3.46983 -2.57345 0
M  V30 14589 C 1348 -3.66206 -3.84794 0
M  V30 14590 C 1347.03 -4.87229 -3.70505 0
M  V30 14591 N 1346.17 -5.02996 -4.89836 0
M  V30 14592 H 1351.01 -2.80325 -1.01104 0
M  V30 14593 H 1348.55 -1.3877 -0.487986 0
M  V30 14594 H 1350.51 -2.3476 -3.44882 0
M  V30 14595 H 1349.14 -1.32406 -2.94395 0
M  V30 14596 H 1348.19 -3.40156 -1.70289 0
M  V30 14597 H 1349.5 -4.35776 -2.42695 0
M  V30 14598 H 1348.65 -3.81324 -4.71886 0
M  V30 14599 H 1347.39 -2.75638 -4.02337 0
M  V30 14600 H 1346.4 -4.72092 -2.81797 0
M  V30 14601 H 1347.62 -5.79253 -3.54462 0
M  V30 14602 H 1345.57 -4.15364 -5.07748 0
M  V30 14603 H 1345.49 -5.8587 -4.778 0
M  V30 14604 H 1346.75 -5.22521 -5.78439 0
M  V30 14605 N 1350.98 0.516783 -1.48886 0
M  V30 14606 C 1352.21 1.30103 -1.61518 0
M  V30 14607 C 1352.63 1.85996 -0.28055 0
M  V30 14608 O 1351.99 1.65075 0.749671 0
M  V30 14609 C 1352.04 2.41837 -2.67483 0
M  V30 14610 O 1351.14 3.45249 -2.25559 0
M  V30 14611 H 1350.48 0.384774 -0.541152 0
M  V30 14612 H 1353.01 0.620424 -1.94966 0
M  V30 14613 H 1353.02 2.87832 -2.89165 0
M  V30 14614 H 1351.7 2.00519 -3.64369 0
M  V30 14615 H 1350.28 3.05281 -2.14144 0
M  V30 14616 N 1352.46 1.37696 0.766659 0
M  V30 14617 C 1353.69 1.36192 1.55355 0
M  V30 14618 C 1354.1 -0.0534148 1.89125 0
M  V30 14619 O 1353.44 -1.02697 1.52312 0
M  V30 14620 C 1353.5 2.14047 2.88833 0
M  V30 14621 C 1353.17 3.6297 2.77672 0
M  V30 14622 C 1354.17 4.56745 2.48355 0
M  V30 14623 C 1351.85 4.06158 2.95534 0
M  V30 14624 C 1353.84 5.91687 2.37035 0
M  V30 14625 C 1351.53 5.41185 2.83835 0
M  V30 14626 C 1352.53 6.33762 2.54627 0
M  V30 14627 O 1352.22 7.66305 2.42963 0
M  V30 14628 H 1351.95 0.46804 0.487765 0
M  V30 14629 H 1354.5 1.81709 0.95765 0
M  V30 14630 H 1352.73 1.63227 3.50562 0
M  V30 14631 H 1354.42 2.05113 3.50262 0
M  V30 14632 H 1355.19 4.24687 2.34236 0
M  V30 14633 H 1351.07 3.34457 3.17269 0
M  V30 14634 H 1354.61 6.63914 2.14158 0
M  V30 14635 H 1350.51 5.72844 2.97524 0
M  V30 14636 H 1351.28 7.76683 2.58274 0
M  V30 14637 N 1353.94 -0.993397 1.22349 0
M  V30 14638 C 1354.89 -2.0834 0.993123 0
M  V30 14639 C 1355.86 -1.65883 -0.0849717 0
M  V30 14640 O 1357.04 -1.90691 0.0645176 0
M  V30 14641 C 1354.18 -3.40252 0.576434 0
M  V30 14642 C 1353.29 -3.96055 1.72524 0
M  V30 14643 C 1352.43 -5.16123 1.25659 0
M  V30 14644 C 1351.47 -5.64062 2.37698 0
M  V30 14645 N 1350.61 -6.7537 1.91883 0
M  V30 14646 H 1355.45 -2.27381 1.92619 0
M  V30 14647 H 1352.98 -1.11476 0.959763 0
M  V30 14648 H 1354.94 -4.16001 0.316021 0
M  V30 14649 H 1353.57 -3.21214 -0.319626 0
M  V30 14650 H 1352.62 -3.17182 2.1 0
M  V30 14651 H 1353.93 -4.27614 2.56802 0
M  V30 14652 H 1353.09 -5.9916 0.953528 0
M  V30 14653 H 1351.83 -4.86186 0.384011 0
M  V30 14654 H 1350.83 -4.79614 2.68794 0
M  V30 14655 H 1352.06 -5.96025 3.25471 0
M  V30 14656 H 1350 -6.47217 1.06986 0
M  V30 14657 H 1349.92 -7.06246 2.69727 0
M  V30 14658 H 1351.19 -7.61914 1.64644 0
M  V30 14659 N 1355.42 -1.03311 -1.19015 0
M  V30 14660 C 1356.69 -0.646539 -1.84606 0
M  V30 14661 C 1357.07 0.87449 -1.92135 0
M  V30 14662 O 1356.42 1.77291 -1.44154 0
M  V30 14663 C 1356.63 -1.31354 -3.23338 0
M  V30 14664 C 1357.98 -1.43949 -3.99455 0
M  V30 14665 O 1359 -1.27104 -3.32751 0
M  V30 14666 O 1357.86 -1.71328 -5.1895 0
M  V30 14667 H 1354.96 -0.225267 -0.795728 0
M  V30 14668 H 1357.5 -1.13152 -1.2647 0
M  V30 14669 H 1356.28 -2.3521 -3.12717 0
M  V30 14670 H 1355.9 -0.816688 -3.89122 0
M  V30 14671 N 1356.9 1.35099 -0.81154 0
M  V30 14672 C 1358.14 2.00449 -0.399935 0
M  V30 14673 C 1358.5 1.62971 1.0151 0
M  V30 14674 O 1359.7 2.21078 1.52898 0
M  V30 14675 C 1357.97 3.52608 -0.583277 0
M  V30 14676 S 1359.53 4.38012 -0.26283 0
M  V30 14677 H 1356.35 0.69464 -0.151644 0
M  V30 14678 H 1358.95 1.64599 -1.05487 0
M  V30 14679 H 1357.65 3.77372 -1.61303 0
M  V30 14680 H 1357.19 3.93304 0.0868032 0
M  V30 14681 H 1359.2 4.87451 0.927696 0
M  V30 14682 N 1358.37 0.56548 1.47106 0
M  V30 14683 C 1359.62 0.0445914 2.02751 0
M  V30 14684 C 1359.95 -1.30517 1.43801 0
M  V30 14685 O 1359.23 -1.85123 0.596646 0
M  V30 14686 C 1359.51 -0.0396474 3.60078 0
M  V30 14687 C 1359.36 1.3378 4.29445 0
M  V30 14688 C 1360.68 -0.748954 4.3368 0
M  V30 14689 H 1357.8 0.0176787 0.736788 0
M  V30 14690 H 1360.44 0.729363 1.75443 0
M  V30 14691 H 1358.59 -0.622826 3.83475 0
M  V30 14692 H 1360.27 1.96482 4.17364 0
M  V30 14693 H 1358.51 1.91024 3.89477 0
M  V30 14694 H 1359.18 1.23149 5.38088 0
M  V30 14695 H 1361.66 -0.253707 4.15326 0
M  V30 14696 H 1360.53 -0.776877 5.43374 0
M  V30 14697 H 1360.79 -1.80679 4.03494 0
M  V30 14698 N 1359.85 -1.54672 0.302354 0
M  V30 14699 C 1361.09 -2.02076 -0.30738 0
M  V30 14700 C 1361.46 -1.18603 -1.50988 0
M  V30 14701 O 1362.66 -1.5571 -2.19107 0
M  V30 14702 C 1360.93 -3.5137 -0.65375 0
M  V30 14703 S 1362.49 -4.20733 -1.24615 0
M  V30 14704 H 1359.31 -0.704725 -0.0942521 0
M  V30 14705 H 1361.91 -1.907 0.430542 0
M  V30 14706 H 1360.61 -4.09756 0.229892 0
M  V30 14707 H 1360.14 -3.66784 -1.42243 0
M  V30 14708 H 1362.16 -4.26624 -2.5339 0
M  V30 14709 N 1361.33 -0.0301034 -1.57571 0
M  V30 14710 C 1362.28 0.951421 -2.10277 0
M  V30 14711 C 1363.25 1.3224 -1.00508 0
M  V30 14712 O 1364.43 1.41554 -1.27934 0
M  V30 14713 C 1361.57 2.2282 -2.63525 0
M  V30 14714 C 1360.69 1.91359 -3.87306 0
M  V30 14715 C 1359.82 3.13339 -4.28943 0
M  V30 14716 C 1358.86 2.77701 -5.4548 0
M  V30 14717 N 1358 3.9231 -5.82269 0
M  V30 14718 H 1362.84 0.495049 -2.93859 0
M  V30 14719 H 1360.37 0.232756 -1.45247 0
M  V30 14720 H 1362.33 2.97502 -2.92487 0
M  V30 14721 H 1360.96 2.66072 -1.82772 0
M  V30 14722 H 1360.01 1.06915 -3.65066 0
M  V30 14723 H 1361.33 1.61112 -4.72064 0
M  V30 14724 H 1360.48 3.9634 -4.59347 0
M  V30 14725 H 1359.22 3.46747 -3.42954 0
M  V30 14726 H 1358.22 1.93113 -5.14769 0
M  V30 14727 H 1359.45 2.45508 -6.33169 0
M  V30 14728 H 1357.39 4.25559 -4.99235 0
M  V30 14729 H 1357.31 3.65691 -6.61669 0
M  V30 14730 H 1358.58 4.76012 -6.17279 0
M  V30 14731 N 1362.81 1.55714 0.243056 0
M  V30 14732 C 1364.06 1.76927 0.96849 0
M  V30 14733 C 1364.37 0.594748 1.86339 0
M  V30 14734 O 1365.58 0.689981 2.62586 0
M  V30 14735 C 1364.03 3.13246 1.77214 0
M  V30 14736 C 1363.64 4.38358 0.92444 0
M  V30 14737 C 1365.38 3.43796 2.49007 0
M  V30 14738 C 1363.29 5.65708 1.7242 0
M  V30 14739 H 1362.22 0.659574 0.365346 0
M  V30 14740 H 1364.87 1.8214 0.223026 0
M  V30 14741 H 1363.25 3.02151 2.5597 0
M  V30 14742 H 1364.43 4.60452 0.178936 0
M  V30 14743 H 1362.74 4.15171 0.319653 0
M  V30 14744 H 1365.34 4.3616 3.09303 0
M  V30 14745 H 1365.68 2.65297 3.20817 0
M  V30 14746 H 1366.22 3.56124 1.77259 0
M  V30 14747 H 1362.96 6.47039 1.04978 0
M  V30 14748 H 1362.48 5.4771 2.44488 0
M  V30 14749 H 1364.15 6.05105 2.29036 0
M  V30 14750 N 1364.29 -0.50888 1.49158 0
M  V30 14751 C 1365.25 -1.59354 1.64739 0
M  V30 14752 C 1366.25 -1.52175 0.519557 0
M  V30 14753 O 1367.44 -1.55468 0.785838 0
M  V30 14754 C 1364.57 -2.99002 1.63739 0
M  V30 14755 H 1365.76 -1.46871 2.61474 0
M  V30 14756 H 1363.32 -0.732532 1.38071 0
M  V30 14757 H 1364.05 -3.1697 0.685583 0
M  V30 14758 H 1363.84 -3.05622 2.45637 0
M  V30 14759 H 1365.33 -3.77822 1.77877 0
M  V30 14760 N 1365.76 -1.381 -0.759346 0
M  V30 14761 C 1366.99 -1.37389 -1.55367 0
M  V30 14762 C 1367.41 0.0356097 -1.88066 0
M  V30 14763 O 1366.77 1.0161 -1.5015 0
M  V30 14764 C 1366.82 -2.23098 -2.83302 0
M  V30 14765 O 1365.92 -1.64412 -3.7821 0
M  V30 14766 H 1365.27 -0.468894 -0.470143 0
M  V30 14767 H 1367.8 -1.81787 -0.938858 0
M  V30 14768 H 1367.81 -2.36753 -3.32283 0
M  V30 14769 H 1366.48 -3.25544 -2.58831 0
M  V30 14770 H 1365.06 -1.59867 -3.36893 0
M  V30 14771 N 1367.24 0.986894 -1.22875 0
M  V30 14772 C 1368.52 1.70121 -0.965311 0
M  V30 14773 C 1368.9 2.04648 0.517924 0
M  V30 14774 O 1368.25 1.73453 1.48749 0
M  V30 14775 C 1368.46 2.94738 -1.86897 0
M  V30 14776 C 1369.81 3.6739 -2.12861 0
M  V30 14777 O 1370.83 3.04758 -1.84394 0
M  V30 14778 O 1369.69 4.8009 -2.61106 0
M  V30 14779 H 1366.78 0.742817 -0.363527 0
M  V30 14780 H 1369.33 1.0427 -1.33887 0
M  V30 14781 H 1368.1 2.65771 -2.87196 0
M  V30 14782 H 1367.72 3.68327 -1.49736 0
M  V30 14783 N 1368.72 1.0394 1.18466 0
M  V30 14784 C 1369.96 0.750905 1.90107 0
M  V30 14785 C 1370.32 -0.708278 1.78458 0
M  V30 14786 O 1371.53 -1.11033 2.44796 0
M  V30 14787 C 1369.8 1.20259 3.3656 0
M  V30 14788 S 1371.36 1.03954 4.26308 0
M  V30 14789 H 1368.17 0.273061 0.656475 0
M  V30 14790 H 1370.78 1.33143 1.43154 0
M  V30 14791 H 1369.48 2.26 3.42567 0
M  V30 14792 H 1369.01 0.615804 3.8855 0
M  V30 14793 H 1371.03 -0.0437629 4.96181 0
M  V30 14794 N 1370.2 -1.34667 0.818693 0
M  V30 14795 C 1371.13 -2.28368 0.195126 0
M  V30 14796 C 1372.14 -1.50836 -0.612562 0
M  V30 14797 O 1373.33 -1.72917 -0.442936 0
M  V30 14798 C 1370.43 -3.30601 -0.745411 0
M  V30 14799 C 1369.61 -4.37396 0.0185308 0
M  V30 14800 C 1368.66 -5.19415 -0.842298 0
M  V30 14801 O 1367.69 -5.68467 -0.288821 0
M  V30 14802 N 1368.89 -5.38709 -2.1627 0
M  V30 14803 H 1371.66 -2.8252 1.00013 0
M  V30 14804 H 1369.22 -1.47146 0.675262 0
M  V30 14805 H 1371.21 -3.82367 -1.3258 0
M  V30 14806 H 1369.78 -2.76875 -1.45118 0
M  V30 14807 H 1369 -3.86402 0.780205 0
M  V30 14808 H 1370.29 -5.05877 0.544575 0
M  V30 14809 H 1369.69 -5.00523 -2.63616 0
M  V30 14810 H 1368.24 -5.9361 -2.69204 0
M  V30 14811 N 1371.68 -0.573274 -1.46804 0
M  V30 14812 C 1372.61 0.153316 -2.32996 0
M  V30 14813 C 1373.59 0.893013 -1.44773 0
M  V30 14814 O 1374.77 0.870329 -1.73606 0
M  V30 14815 C 1371.9 1.1736 -3.2687 0
M  V30 14816 C 1370.86 0.549347 -4.2446 0
M  V30 14817 C 1370.18 1.67542 -5.07773 0
M  V30 14818 C 1371.48 -0.50736 -5.1983 0
M  V30 14819 H 1373.18 -0.566305 -2.93995 0
M  V30 14820 H 1370.72 -0.273785 -1.41373 0
M  V30 14821 H 1372.68 1.6902 -3.86019 0
M  V30 14822 H 1371.4 1.92337 -2.63958 0
M  V30 14823 H 1370.06 0.0539142 -3.6656 0
M  V30 14824 H 1369.71 2.41463 -4.41253 0
M  V30 14825 H 1369.41 1.26343 -5.73856 0
M  V30 14826 H 1370.93 2.19496 -5.69784 0
M  V30 14827 H 1372.34 -0.0762061 -5.73249 0
M  V30 14828 H 1370.74 -0.839139 -5.94204 0
M  V30 14829 H 1371.81 -1.39723 -4.64333 0
M  V30 14830 N 1373.15 1.5451 -0.310553 0
M  V30 14831 C 1374.57 1.85829 0.180166 0
M  V30 14832 C 1374.92 1.23239 1.52665 0
M  V30 14833 O 1374.04 0.53359 2.09718 0
M  V30 14834 C 1374.64 3.37153 0.333687 0
M  V30 14835 C 1373.2 3.68469 0.768625 0
M  V30 14836 C 1372.34 2.77051 -0.117399 0
M  V30 14837 H 1375.29 1.49544 -0.531262 0
M  V30 14838 H 1375.31 3.62171 1.16673 0
M  V30 14839 H 1374.83 3.82678 -0.646455 0
M  V30 14840 H 1372.93 3.28467 1.75898 0
M  V30 14841 H 1373.04 4.75559 0.581392 0
M  V30 14842 H 1371.4 2.51461 0.404905 0
M  V30 14843 H 1372.19 3.254 -1.09407 0
M  V30 14844 N 1374.63 0.0384594 1.57553 0
M  V30 14845 C 1376.05 -0.318006 1.564 0
M  V30 14846 C 1376.25 -1.72287 1.04496 0
M  V30 14847 O 1375.31 -2.42722 0.695861 0
M  V30 14848 C 1376.62 -0.158079 3.00284 0
M  V30 14849 C 1378.17 -0.230143 3.12153 0
M  V30 14850 C 1378.64 -0.0988948 4.57893 0
M  V30 14851 N 1380.13 -0.15558 4.62939 0
M  V30 14852 C 1380.87 -0.077948 5.73347 0
M  V30 14853 N 1380.36 0.0513054 6.92781 0
M  V30 14854 N 1382.16 -0.132612 5.61944 0
M  V30 14855 H 1374.31 0.957014 1.89618 0
M  V30 14856 H 1376.57 0.370396 0.872646 0
M  V30 14857 H 1376.28 0.810032 3.42245 0
M  V30 14858 H 1376.15 -0.924413 3.65697 0
M  V30 14859 H 1378.54 -1.18872 2.70099 0
M  V30 14860 H 1378.62 0.56673 2.49443 0
M  V30 14861 H 1378.26 0.856301 5.00629 0
M  V30 14862 H 1378.19 -0.91475 5.18594 0
M  V30 14863 H 1380.68 -0.255245 3.77037 0
M  V30 14864 H 1381 0.103595 7.72731 0
M  V30 14865 H 1379.34 0.0862166 6.94947 0
M  V30 14866 H 1382.53 -0.232056 4.67524 0
M  V30 14867 H 1382.71 -0.0686506 6.47964 0
M  V30 14868 N 1376.11 -1.55841 -0.234795 0
M  V30 14869 C 1377.36 -1.79415 -0.958219 0
M  V30 14870 C 1377.71 -0.609349 -1.82496 0
M  V30 14871 O 1377.01 0.397051 -1.87441 0
M  V30 14872 C 1377.2 -3.06262 -1.84223 0
M  V30 14873 C 1377.03 -4.36966 -1.06256 0
M  V30 14874 C 1375.8 -4.99509 -0.762795 0
M  V30 14875 C 1378 -5.12463 -0.434262 0
M  V30 14876 N 1375.98 -6.13887 0.0396694 0
M  V30 14877 C 1377.35 -6.19565 0.232209 0
M  V30 14878 C 1379.4 -4.96697 -0.345951 0
M  V30 14879 C 1378.11 -7.12613 0.978527 0
M  V30 14880 C 1380.13 -5.90133 0.386865 0
M  V30 14881 C 1379.5 -6.96651 1.04193 0
M  V30 14882 H 1375.59 -0.708334 -0.331342 0
M  V30 14883 H 1378.18 -1.93334 -0.230254 0
M  V30 14884 H 1376.35 -2.9365 -2.54213 0
M  V30 14885 H 1378.08 -3.18081 -2.50213 0
M  V30 14886 H 1374.84 -4.61178 -1.07757 0
M  V30 14887 H 1375.26 -6.75637 0.429349 0
M  V30 14888 H 1379.9 -4.14411 -0.83806 0
M  V30 14889 H 1377.62 -7.94391 1.4822 0
M  V30 14890 H 1381.21 -5.8001 0.456023 0
M  V30 14891 H 1380.09 -7.67706 1.59992 0
M  V30 14892 N 1377.59 0.500963 -1.49426 0
M  V30 14893 C 1378.54 1.59939 -1.62492 0
M  V30 14894 C 1379.52 1.53555 -0.480584 0
M  V30 14895 O 1380.72 1.61085 -0.733538 0
M  V30 14896 C 1377.84 2.98549 -1.6948 0
M  V30 14897 C 1376.93 3.09929 -2.89491 0
M  V30 14898 N 1377.32 2.91198 -4.13567 0
M  V30 14899 C 1375.62 3.41029 -2.87428 0
M  V30 14900 C 1376.32 3.06761 -4.94239 0
M  V30 14901 N 1375.3 3.35639 -4.27606 0
M  V30 14902 H 1379.1 1.44111 -2.56143 0
M  V30 14903 H 1376.61 0.707088 -1.46199 0
M  V30 14904 H 1378.61 3.7749 -1.76938 0
M  V30 14905 H 1377.27 3.15446 -0.769658 0
M  V30 14906 H 1378.28 2.67373 -4.43545 0
M  V30 14907 H 1374.96 3.64103 -2.04293 0
M  V30 14908 H 1376.35 2.96772 -6.02807 0
M  V30 14909 N 1379.07 1.38501 0.752011 0
M  V30 14910 C 1380 1.30236 1.87387 0
M  V30 14911 C 1380.98 0.179099 1.61611 0
M  V30 14912 O 1382.16 0.356686 1.85095 0
M  V30 14913 C 1379.29 1.01829 3.2303 0
M  V30 14914 C 1378.34 2.16114 3.67691 0
M  V30 14915 S 1379.17 3.78266 3.79044 0
M  V30 14916 C 1380.32 3.5205 5.17505 0
M  V30 14917 H 1380.56 2.25185 1.94111 0
M  V30 14918 H 1378.09 1.24356 0.915152 0
M  V30 14919 H 1380.05 0.861231 4.01364 0
M  V30 14920 H 1378.71 0.0859612 3.13982 0
M  V30 14921 H 1377.9 1.91788 4.66083 0
M  V30 14922 H 1377.5 2.27936 2.96515 0
M  V30 14923 H 1379.8 3.08262 6.03308 0
M  V30 14924 H 1380.74 4.49842 5.46853 0
M  V30 14925 H 1381.15 2.86528 4.86377 0
M  V30 14926 N 1380.55 -0.980364 1.23396 0
M  V30 14927 C 1381.49 -2.09401 1.01262 0
M  V30 14928 C 1382.49 -1.69331 -0.0483957 0
M  V30 14929 O 1383.69 -1.79693 0.105109 0
M  V30 14930 H 1380.07 -0.684969 0.310358 0
M  V30 14931 H 1382.04 -2.25236 1.95732 0
M  V30 14932 C 1380.79 -3.42118 0.620526 0
M  V30 14933 H 1380.11 -3.73402 1.42868 0
M  V30 14934 H 1381.55 -4.2098 0.505169 0
M  V30 14935 C 1380.01 -3.30146 -0.671208 0
M  V30 14936 O 1380.54 -3.62997 -1.72034 0
M  V30 14937 N 1378.75 -2.83303 -0.647137 0
M  V30 14938 H 1378.29 -2.56767 0.206957 0
M  V30 14939 H 1378.25 -2.75675 -1.51165 0
M  V30 14940 N 1382.02 -1.04567 -1.17913 0
M  V30 14941 C 1383.3 -0.666082 -1.8391 0
M  V30 14942 C 1383.68 0.854062 -1.93052 0
M  V30 14943 O 1383.03 1.75752 -1.46026 0
M  V30 14944 C 1383.24 -1.34776 -3.21926 0
M  V30 14945 C 1384.59 -1.48177 -3.97905 0
M  V30 14946 O 1385.61 -1.30627 -3.31384 0
M  V30 14947 O 1384.47 -1.76822 -5.17104 0
M  V30 14948 H 1381.56 -0.233694 -0.793294 0
M  V30 14949 H 1384.11 -1.14487 -1.25263 0
M  V30 14950 H 1382.88 -2.38514 -3.10204 0
M  V30 14951 H 1382.5 -0.857914 -3.88234 0
M  V30 14952 N 1383.5 1.34231 -0.825823 0
M  V30 14953 C 1384.75 1.98196 -0.415276 0
M  V30 14954 C 1385.08 1.65463 1.02236 0
M  V30 14955 O 1384.33 0.919868 1.72734 0
M  V30 14956 C 1384.63 3.52861 -0.56778 0
M  V30 14957 C 1384.3 4.05512 -1.97157 0
M  V30 14958 C 1382.96 4.19602 -2.35557 0
M  V30 14959 C 1385.31 4.33798 -2.88909 0
M  V30 14960 C 1382.64 4.59307 -3.6504 0
M  V30 14961 C 1384.99 4.74949 -4.17859 0
M  V30 14962 C 1383.65 4.87245 -4.56233 0
M  V30 14963 H 1382.92 0.725251 -0.15196 0
M  V30 14964 H 1385.57 1.60126 -1.05033 0
M  V30 14965 H 1383.88 3.9151 0.15065 0
M  V30 14966 H 1385.57 4.00336 -0.230608 0
M  V30 14967 H 1382.16 3.9501 -1.66328 0
M  V30 14968 H 1386.35 4.22448 -2.60483 0
M  V30 14969 H 1381.6 4.67017 -3.94594 0
M  V30 14970 H 1385.78 4.95795 -4.8904 0
M  V30 14971 H 1383.4 5.17768 -5.56615 0
M  V30 14972 N 1384.98 0.581051 1.46498 0
M  V30 14973 C 1386.23 0.0659956 2.02392 0
M  V30 14974 C 1386.55 -1.29329 1.45273 0
M  V30 14975 O 1385.81 -1.86047 0.607041 0
M  V30 14976 C 1386.11 -0.0514774 3.57363 0
M  V30 14977 C 1385.77 1.24 4.33514 0
M  V30 14978 C 1384.44 1.59383 4.54038 0
M  V30 14979 C 1386.79 2.09473 4.77253 0
M  V30 14980 C 1384.12 2.8004 5.15552 0
M  V30 14981 C 1386.47 3.29355 5.401 0
M  V30 14982 C 1385.13 3.65022 5.58852 0
M  V30 14983 H 1384.4 0.0241495 0.740606 0
M  V30 14984 H 1387.05 0.757354 1.75887 0
M  V30 14985 H 1385.35 -0.825955 3.82995 0
M  V30 14986 H 1387.05 -0.465726 3.98286 0
M  V30 14987 H 1383.64 0.954547 4.17835 0
M  V30 14988 H 1387.83 1.83441 4.61154 0
M  V30 14989 H 1383.08 3.07814 5.28262 0
M  V30 14990 H 1387.26 3.95855 5.7295 0
M  V30 14991 H 1384.88 4.58607 6.06287 0
M  V30 14992 N 1386.46 -1.54343 0.318742 0
M  V30 14993 C 1387.41 -2.20892 -0.564849 0
M  V30 14994 C 1388.39 -1.18782 -1.08534 0
M  V30 14995 O 1389.58 -1.44431 -1.02316 0
M  V30 14996 C 1386.71 -2.96661 -1.72763 0
M  V30 14997 C 1385.8 -4.06105 -1.22226 0
M  V30 14998 N 1386.19 -5.03916 -0.436203 0
M  V30 14999 C 1384.49 -4.19968 -1.50142 0
M  V30 15000 C 1385.19 -5.81466 -0.164875 0
M  V30 15001 N 1384.16 -5.38406 -0.74966 0
M  V30 15002 H 1387.97 -2.93868 0.0430622 0
M  V30 15003 H 1385.48 -1.61923 0.124362 0
M  V30 15004 H 1387.48 -3.42819 -2.37236 0
M  V30 15005 H 1386.14 -2.25206 -2.33907 0
M  V30 15006 H 1387.15 -5.17839 -0.0794815 0
M  V30 15007 H 1383.83 -3.59726 -2.11905 0
M  V30 15008 H 1385.22 -6.70271 0.467617 0
M  V30 15009 N 1387.94 -0.0468143 -1.5753 0
M  V30 15010 C 1389.16 0.641161 -1.97241 0
M  V30 15011 C 1389.59 1.6384 -0.92401 0
M  V30 15012 O 1388.94 1.80946 0.113229 0
M  V30 15013 C 1388.99 1.30832 -3.36029 0
M  V30 15014 O 1388.1 2.42394 -3.33645 0
M  V30 15015 H 1387.44 0.167035 -0.642647 0
M  V30 15016 H 1389.97 -0.113921 -2.04283 0
M  V30 15017 H 1389.98 1.66102 -3.72658 0
M  V30 15018 H 1388.65 0.57744 -4.11872 0
M  V30 15019 H 1387.23 2.09104 -3.08756 0
M  V30 15020 N 1389.41 1.55964 0.226527 0
M  V30 15021 C 1390.66 1.78745 0.95165 0
M  V30 15022 C 1390.99 0.614714 1.84531 0
M  V30 15023 O 1390.24 -0.401137 1.91545 0
M  V30 15024 C 1390.54 3.07235 1.82597 0
M  V30 15025 C 1390.21 4.37627 1.08596 0
M  V30 15026 C 1388.87 4.73057 0.881531 0
M  V30 15027 C 1391.22 5.1815 0.563019 0
M  V30 15028 C 1388.55 5.86528 0.142172 0
M  V30 15029 C 1390.9 6.3239 -0.162972 0
M  V30 15030 C 1389.57 6.66425 -0.378704 0
M  V30 15031 H 1388.84 0.654075 0.348233 0
M  V30 15032 H 1391.48 1.9023 0.220187 0
M  V30 15033 H 1389.79 2.9085 2.62514 0
M  V30 15034 H 1391.49 3.22063 2.38907 0
M  V30 15035 H 1388.08 4.09806 1.25527 0
M  V30 15036 H 1392.26 4.91218 0.708446 0
M  V30 15037 H 1387.52 6.1139 -0.0352481 0
M  V30 15038 H 1391.69 6.94016 -0.575719 0
M  V30 15039 H 1389.32 7.54196 -0.953549 0
M  V30 15040 N 1390.89 -0.493031 1.4969 0
M  V30 15041 C 1391.82 -1.60215 1.69863 0
M  V30 15042 C 1392.8 -1.61053 0.547362 0
M  V30 15043 O 1393.99 -1.77667 0.784093 0
M  V30 15044 C 1391.12 -2.98662 1.77252 0
M  V30 15045 C 1390.07 -3.1269 2.92248 0
M  V30 15046 C 1389.4 -4.52567 2.84758 0
M  V30 15047 C 1390.7 -2.91965 4.33074 0
M  V30 15048 H 1392.39 -1.43587 2.62723 0
M  V30 15049 H 1389.94 -0.689334 1.26429 0
M  V30 15050 H 1391.89 -3.7616 1.89951 0
M  V30 15051 H 1390.62 -3.16397 0.809976 0
M  V30 15052 H 1389.27 -2.37619 2.79164 0
M  V30 15053 H 1388.92 -4.6719 1.86394 0
M  V30 15054 H 1388.62 -4.62893 3.61944 0
M  V30 15055 H 1390.15 -5.32116 2.99475 0
M  V30 15056 H 1391.56 -3.59228 4.46798 0
M  V30 15057 H 1389.96 -3.13756 5.11544 0
M  V30 15058 H 1391.03 -1.88015 4.46966 0
M  V30 15059 N 1392.37 -1.38898 -0.744656 0
M  V30 15060 C 1393.62 -1.34909 -1.49941 0
M  V30 15061 C 1393.93 0.0553979 -1.95522 0
M  V30 15062 O 1395.14 0.21785 -2.70625 0
M  V30 15063 C 1393.59 -2.36954 -2.70889 0
M  V30 15064 C 1393.2 -3.83069 -2.32298 0
M  V30 15065 C 1394.95 -2.42024 -3.48747 0
M  V30 15066 C 1392.85 -4.76777 -3.4991 0
M  V30 15067 H 1391.78 -0.501512 -0.563029 0
M  V30 15068 H 1394.43 -1.64497 -0.813201 0
M  V30 15069 H 1392.82 -2.00421 -3.41537 0
M  V30 15070 H 1393.99 -4.28588 -1.69259 0
M  V30 15071 H 1392.31 -3.81202 -1.67554 0
M  V30 15072 H 1394.9 -3.0923 -4.36212 0
M  V30 15073 H 1395.25 -1.44184 -3.90534 0
M  V30 15074 H 1395.78 -2.774 -2.85121 0
M  V30 15075 H 1392.52 -5.75844 -3.13183 0
M  V30 15076 H 1392.04 -4.35944 -4.11962 0
M  V30 15077 H 1393.72 -4.95219 -4.16374 0
M  V30 15078 N 1393.85 0.973806 -1.23914 0
M  V30 15079 C 1395.09 1.71852 -1.07678 0
M  V30 15080 C 1395.43 1.90357 0.384425 0
M  V30 15081 O 1394.7 1.46063 1.28436 0
M  V30 15082 C 1394.99 3.1129 -1.81026 0
M  V30 15083 C 1394.84 3.00315 -3.3486 0
M  V30 15084 C 1396.16 4.10835 -1.57805 0
M  V30 15085 H 1393.28 0.623749 -0.392564 0
M  V30 15086 H 1395.92 1.13325 -1.52504 0
M  V30 15087 H 1394.07 3.61255 -1.42922 0
M  V30 15088 H 1395.74 2.57823 -3.82524 0
M  V30 15089 H 1393.98 2.36667 -3.63553 0
M  V30 15090 H 1394.65 3.9907 -3.81376 0
M  V30 15091 H 1397.13 3.69705 -1.90939 0
M  V30 15092 H 1396.01 5.06478 -2.11591 0
M  V30 15093 H 1396.27 4.39091 -0.514894 0
M  V30 15094 N 1395.33 1.05191 1.17357 0
M  V30 15095 C 1396.57 0.761984 1.87617 0
M  V30 15096 C 1396.9 -0.710976 1.8104 0
M  V30 15097 O 1396.16 -1.53566 1.21309 0
M  V30 15098 C 1396.46 1.18779 3.37085 0
M  V30 15099 C 1396.12 2.66296 3.63864 0
M  V30 15100 C 1394.78 3.06594 3.70882 0
M  V30 15101 C 1397.14 3.61622 3.75339 0
M  V30 15102 C 1394.46 4.41081 3.86865 0
M  V30 15103 C 1396.82 4.95842 3.9284 0
M  V30 15104 C 1395.48 5.35793 3.98097 0
M  V30 15105 H 1394.75 0.27883 0.686538 0
M  V30 15106 H 1397.4 1.31899 1.38834 0
M  V30 15107 H 1395.7 0.549782 3.87923 0
M  V30 15108 H 1397.4 0.940667 3.89811 0
M  V30 15109 H 1393.99 2.34089 3.59027 0
M  V30 15110 H 1398.17 3.31628 3.69238 0
M  V30 15111 H 1393.43 4.71536 3.89183 0
M  V30 15112 H 1397.6 5.696 4.00661 0
M  V30 15113 H 1395.23 6.40009 4.10234 0
M  V30 15114 N 1396.8 -1.33791 0.83293 0
M  V30 15115 C 1398.22 -1.50893 0.519955 0
M  V30 15116 C 1398.42 -1.7749 -0.953919 0
M  V30 15117 O 1397.48 -1.83168 -1.73798 0
M  V30 15118 C 1398.79 -2.66741 1.38815 0
M  V30 15119 C 1400.34 -2.80625 1.38631 0
M  V30 15120 C 1400.81 -3.99528 2.23922 0
M  V30 15121 N 1402.3 -4.06753 2.21599 0
M  V30 15122 C 1403.04 -4.97937 2.84335 0
M  V30 15123 N 1402.53 -5.94276 3.561 0
M  V30 15124 N 1404.33 -4.90887 2.73837 0
M  V30 15125 H 1396.48 -1.14788 1.7871 0
M  V30 15126 H 1398.74 -0.563822 0.762108 0
M  V30 15127 H 1398.45 -2.53748 2.43525 0
M  V30 15128 H 1398.32 -3.62001 1.05996 0
M  V30 15129 H 1400.71 -2.93053 0.346951 0
M  V30 15130 H 1400.79 -1.86144 1.75454 0
M  V30 15131 H 1400.43 -3.8786 3.27914 0
M  V30 15132 H 1400.36 -4.93242 1.84444 0
M  V30 15133 H 1402.85 -3.37802 1.69406 0
M  V30 15134 H 1403.17 -6.60504 4.01191 0
M  V30 15135 H 1401.51 -5.9437 3.60207 0
M  V30 15136 H 1404.7 -4.14586 2.17338 0
M  V30 15137 H 1404.88 -5.61752 3.23014 0
M  V30 15138 N 1398.28 -0.588812 -1.46187 0
M  V30 15139 C 1399.53 -0.0768417 -2.02654 0
M  V30 15140 C 1399.86 1.28213 -1.4586 0
M  V30 15141 O 1399.14 1.8415 -0.626022 0
M  V30 15142 C 1399.42 -0.0176429 -3.60096 0
M  V30 15143 C 1399.27 -1.40595 -4.27262 0
M  V30 15144 C 1400.59 0.679864 -4.34817 0
M  V30 15145 H 1397.71 -0.0293981 -0.736413 0
M  V30 15146 H 1400.35 -0.757183 -1.74261 0
M  V30 15147 H 1398.5 0.56174 -3.84417 0
M  V30 15148 H 1400.17 -2.03097 -4.14185 0
M  V30 15149 H 1398.42 -1.97196 -3.86388 0
M  V30 15150 H 1399.09 -1.31694 -5.3606 0
M  V30 15151 H 1401.56 0.1876 -4.15677 0
M  V30 15152 H 1400.44 0.690333 -5.44542 0
M  V30 15153 H 1400.7 1.74237 -4.06318 0
M  V30 15154 N 1399.76 1.54172 -0.326923 0
M  V30 15155 C 1400.69 2.27402 0.530154 0
M  V30 15156 C 1401.67 1.28325 1.11655 0
M  V30 15157 O 1402.86 1.57142 1.14105 0
M  V30 15158 C 1399.99 3.03435 1.68951 0
M  V30 15159 C 1398.94 4.09877 1.23226 0
M  V30 15160 C 1398.27 4.7377 2.47882 0
M  V30 15161 C 1399.57 5.21161 0.344698 0
M  V30 15162 H 1401.26 2.99291 -0.0806959 0
M  V30 15163 H 1398.81 1.43944 -0.0402511 0
M  V30 15164 H 1400.76 3.53396 2.29541 0
M  V30 15165 H 1399.48 2.29169 2.327 0
M  V30 15166 H 1398.14 3.60805 0.649267 0
M  V30 15167 H 1397.79 3.96116 3.10002 0
M  V30 15168 H 1397.49 5.45674 2.17977 0
M  V30 15169 H 1399.01 5.26507 3.09229 0
M  V30 15170 H 1400.43 5.66859 0.856979 0
M  V30 15171 H 1398.83 5.99941 0.138276 0
M  V30 15172 H 1399.9 4.80874 -0.623575 0
M  V30 15173 N 1401.24 0.0551678 1.57503 0
M  V30 15174 C 1402.48 -0.621569 1.9472 0
M  V30 15175 C 1402.84 -1.67772 0.933626 0
M  V30 15176 O 1404.04 -2.40882 1.19287 0
M  V30 15177 C 1402.31 -1.19858 3.36703 0
M  V30 15178 S 1403.87 -1.89276 3.95879 0
M  V30 15179 H 1400.69 -0.203985 0.68111 0
M  V30 15180 H 1403.29 0.125058 1.951 0
M  V30 15181 H 1402 -0.417833 4.08267 0
M  V30 15182 H 1401.53 -1.98193 3.39828 0
M  V30 15183 H 1403.54 -3.17373 3.8143 0
M  V30 15184 N 1402.72 -1.56081 -0.218252 0
M  V30 15185 C 1403.96 -1.78893 -0.940296 0
M  V30 15186 C 1404.29 -0.62425 -1.84738 0
M  V30 15187 O 1403.56 0.358686 -1.92588 0
M  V30 15188 H 1402.14 -0.659828 -0.350193 0
M  V30 15189 H 1404.8 -1.93546 -0.229316 0
M  V30 15190 H 1403.89 -2.71167 -1.54516 0
M  V30 15191 N 1404.2 0.485086 -1.49949 0
M  V30 15192 C 1405.11 1.61089 -1.70551 0
M  V30 15193 C 1406.12 1.63752 -0.588333 0
M  V30 15194 O 1407.3 1.81879 -0.86498 0
M  V30 15195 C 1404.36 2.97382 -1.78227 0
M  V30 15196 C 1403.42 3.05219 -3.01894 0
M  V30 15197 C 1402.66 4.35011 -3.09195 0
M  V30 15198 O 1402.88 5.24722 -2.23658 0
M  V30 15199 O 1401.81 4.48151 -4.01802 0
M  V30 15200 H 1405.64 1.46633 -2.65956 0
M  V30 15201 H 1403.22 0.663091 -1.33879 0
M  V30 15202 H 1405.11 3.78356 -1.85538 0
M  V30 15203 H 1403.78 3.12066 -0.860043 0
M  V30 15204 H 1402.69 2.23373 -3.00092 0
M  V30 15205 H 1404.02 2.95467 -3.93649 0
M  V30 15206 N 1405.67 1.39291 0.737279 0
M  V30 15207 C 1406.92 1.37597 1.49795 0
M  V30 15208 C 1407.27 -0.0289024 1.92378 0
M  V30 15209 O 1406.57 -0.994964 1.63741 0
M  V30 15210 C 1406.76 2.28043 2.75193 0
M  V30 15211 C 1406.59 3.77184 2.44871 0
M  V30 15212 C 1405.36 4.46123 2.37281 0
M  V30 15213 C 1407.56 4.69219 2.10565 0
M  V30 15214 N 1405.54 5.80612 1.99406 0
M  V30 15215 C 1406.91 5.92342 1.83115 0
M  V30 15216 C 1408.97 4.57263 1.97014 0
M  V30 15217 C 1407.67 7.04845 1.4348 0
M  V30 15218 C 1409.7 5.69686 1.58781 0
M  V30 15219 C 1409.06 6.9188 1.32215 0
M  V30 15220 H 1405.16 0.558776 0.547077 0
M  V30 15221 H 1407.74 1.74821 0.857065 0
M  V30 15222 H 1405.91 1.92981 3.37065 0
M  V30 15223 H 1407.64 2.17358 3.41376 0
M  V30 15224 H 1404.4 3.99535 2.543 0
M  V30 15225 H 1404.82 6.51779 1.83068 0
M  V30 15226 H 1409.46 3.63329 2.16222 0
M  V30 15227 H 1407.18 7.98682 1.23013 0
M  V30 15228 H 1410.77 5.62422 1.48905 0
M  V30 15229 H 1409.65 7.77397 1.03073 0
M  V30 15230 N 1407.15 -0.967221 1.24429 0
M  V30 15231 C 1408.4 -1.70458 1.07829 0
M  V30 15232 C 1408.71 -1.91818 -0.38278 0
M  V30 15233 O 1409.92 -2.63129 -0.668982 0
M  V30 15234 C 1408.38 -3.06817 1.88125 0
M  V30 15235 C 1407.98 -2.93298 3.38645 0
M  V30 15236 C 1409.73 -3.84422 1.80056 0
M  V30 15237 C 1407.63 -4.2497 4.11284 0
M  V30 15238 H 1406.56 -0.639217 0.399897 0
M  V30 15239 H 1409.22 -1.07776 1.48515 0
M  V30 15240 H 1407.6 -3.70331 1.40254 0
M  V30 15241 H 1408.77 -2.38793 3.94099 0
M  V30 15242 H 1407.09 -2.29159 3.47671 0
M  V30 15243 H 1409.68 -4.81925 2.31629 0
M  V30 15244 H 1410.03 -4.09194 0.765908 0
M  V30 15245 H 1410.56 -3.27636 2.2561 0
M  V30 15246 H 1407.3 -4.05391 5.1511 0
M  V30 15247 H 1406.82 -4.79288 3.60615 0
M  V30 15248 H 1408.5 -4.93586 4.18308 0
M  V30 15249 N 1408.63 -1.05812 -1.16797 0
M  V30 15250 C 1409.54 -0.675541 -2.24663 0
M  V30 15251 C 1410.56 0.30622 -1.71284 0
M  V30 15252 O 1411.73 0.156752 -2.00789 0
M  V30 15253 C 1408.8 -0.0627149 -3.46643 0
M  V30 15254 C 1407.86 -1.09572 -4.15081 0
M  V30 15255 C 1407.09 -0.512044 -5.31238 0
M  V30 15256 O 1407.31 0.676665 -5.66372 0
M  V30 15257 O 1406.25 -1.24936 -5.88791 0
M  V30 15258 H 1410.07 -1.57467 -2.59688 0
M  V30 15259 H 1407.66 -0.830073 -1.24218 0
M  V30 15260 H 1409.54 0.277543 -4.20485 0
M  V30 15261 H 1408.22 0.80997 -3.13403 0
M  V30 15262 H 1407.12 -1.48807 -3.4323 0
M  V30 15263 H 1408.46 -1.93977 -4.52365 0
M  V30 15264 N 1410.11 1.33347 -0.840014 0
M  V30 15265 C 1411.34 2.01952 -0.449793 0
M  V30 15266 C 1411.75 1.63197 0.949317 0
M  V30 15267 O 1411.11 0.84589 1.61713 0
M  V30 15268 C 1411.16 3.57102 -0.562178 0
M  V30 15269 O 1410.88 3.94458 -1.90616 0
M  V30 15270 C 1412.38 4.42978 -0.169062 0
M  V30 15271 H 1409.6 0.646843 -0.178425 0
M  V30 15272 H 1412.14 1.70251 -1.1329 0
M  V30 15273 H 1410.3 3.87331 0.0730345 0
M  V30 15274 H 1410.71 4.89167 -1.8925 0
M  V30 15275 H 1412.19 5.51191 -0.298742 0
M  V30 15276 H 1412.66 4.30106 0.889137 0
M  V30 15277 H 1413.27 4.18109 -0.778756 0
M  V30 15278 N 1411.59 0.596556 1.45873 0
M  V30 15279 C 1412.52 -0.177354 2.2751 0
M  V30 15280 C 1413.5 -0.883999 1.36471 0
M  V30 15281 O 1414.68 -0.895098 1.65892 0
M  V30 15282 C 1411.81 -1.25567 3.14564 0
M  V30 15283 C 1410.85 -0.653363 4.21466 0
M  V30 15284 S 1411.69 0.53036 5.32867 0
M  V30 15285 C 1412.84 -0.548817 6.23489 0
M  V30 15286 H 1413.08 0.515289 2.928 0
M  V30 15287 H 1410.61 0.383791 1.49554 0
M  V30 15288 H 1412.57 -1.87298 3.6528 0
M  V30 15289 H 1411.23 -1.92033 2.4856 0
M  V30 15290 H 1410.42 -1.46435 4.82258 0
M  V30 15291 H 1410.02 -0.111425 3.73834 0
M  V30 15292 H 1412.31 -1.43085 6.62218 0
M  V30 15293 H 1413.26 0.0226785 7.08096 0
M  V30 15294 H 1413.67 -0.859188 5.57923 0
M  V30 15295 N 1413.06 -1.53996 0.335095 0
M  V30 15296 C 1414.31 -2.01769 -0.257101 0
M  V30 15297 C 1414.66 -1.21883 -1.4887 0
M  V30 15298 O 1413.96 -0.295897 -1.89301 0
M  V30 15299 C 1414.15 -3.51769 -0.631907 0
M  V30 15300 C 1413.98 -4.46177 0.561818 0
M  V30 15301 C 1412.75 -4.9396 1.06451 0
M  V30 15302 C 1414.95 -4.94376 1.41763 0
M  V30 15303 N 1412.93 -5.72298 2.22144 0
M  V30 15304 C 1414.3 -5.70753 2.42158 0
M  V30 15305 C 1416.36 -4.76499 1.44406 0
M  V30 15306 C 1415.06 -6.31156 3.45014 0
M  V30 15307 C 1417.09 -5.37745 2.46139 0
M  V30 15308 C 1416.45 -6.13983 3.4526 0
M  V30 15309 H 1412.55 -0.779875 -0.0576132 0
M  V30 15310 H 1415.13 -1.88873 0.472746 0
M  V30 15311 H 1413.3 -3.64887 -1.33087 0
M  V30 15312 H 1415.03 -3.86295 -1.20656 0
M  V30 15313 H 1411.79 -4.69338 0.633942 0
M  V30 15314 H 1412.21 -6.16141 2.80534 0
M  V30 15315 H 1416.85 -4.17109 0.691369 0
M  V30 15316 H 1414.57 -6.89659 4.21184 0
M  V30 15317 H 1418.16 -5.25823 2.49 0
M  V30 15318 H 1417.04 -6.60532 4.2269 0
M  V30 15319 N 1414.54 -0.0635198 -1.57472 0
M  V30 15320 C 1415.82 0.648029 -1.84553 0
M  V30 15321 C 1416.2 1.88295 -0.954371 0
M  V30 15322 O 1415.55 2.28492 -0.0185351 0
M  V30 15323 C 1415.76 0.993573 -3.34558 0
M  V30 15324 C 1417.1 1.3706 -4.0187 0
M  V30 15325 O 1418.13 1.08555 -3.39255 0
M  V30 15326 O 1416.99 1.90309 -5.12294 0
M  V30 15327 H 1414.08 0.321047 -0.76214 0
M  V30 15328 H 1416.63 -0.0938223 -1.6944 0
M  V30 15329 H 1415.4 0.116139 -3.91128 0
M  V30 15330 H 1415.02 1.79246 -3.54904 0
M  V30 15331 N 1416.02 1.56195 0.209972 0
M  V30 15332 C 1417.26 1.81525 0.939574 0
M  V30 15333 C 1417.62 0.638789 1.81062 0
M  V30 15334 O 1418.82 0.771648 2.57486 0
M  V30 15335 C 1417.1 3.11809 1.7467 0
M  V30 15336 S 1418.65 3.58494 2.53036 0
M  V30 15337 H 1415.47 0.637211 0.31541 0
M  V30 15338 H 1418.07 1.94431 0.204175 0
M  V30 15339 H 1416.78 3.95463 1.09715 0
M  V30 15340 H 1416.31 3.01742 2.52419 0
M  V30 15341 H 1418.32 3.2275 3.76891 0
M  V30 15342 N 1417.5 -0.477127 1.50204 0
M  V30 15343 C 1418.43 -1.59442 1.63259 0
M  V30 15344 C 1419.41 -1.55327 0.480864 0
M  V30 15345 O 1420.59 -1.75038 0.699578 0
M  V30 15346 C 1417.72 -2.98009 1.6096 0
M  V30 15347 C 1416.77 -3.20301 2.8162 0
M  V30 15348 S 1417.6 -3.00849 4.43001 0
M  V30 15349 C 1418.75 -4.41769 4.43386 0
M  V30 15350 H 1418.99 -1.48128 2.5777 0
M  V30 15351 H 1416.52 -0.66403 1.39392 0
M  V30 15352 H 1418.48 -3.779 1.60319 0
M  V30 15353 H 1417.14 -3.06718 0.676948 0
M  V30 15354 H 1416.33 -4.21515 2.76299 0
M  V30 15355 H 1415.93 -2.48173 2.79797 0
M  V30 15356 H 1418.23 -5.34294 4.16576 0
M  V30 15357 H 1419.17 -4.52135 5.44958 0
M  V30 15358 H 1419.58 -4.23565 3.73166 0
M  V30 15359 N 1418.98 -1.3968 -0.729882 0
M  V30 15360 C 1419.89 -1.41094 -1.87429 0
M  V30 15361 C 1420.9 -0.305142 -1.71303 0
M  V30 15362 O 1422.08 -0.54744 -1.93817 0
M  V30 15363 C 1419.14 -1.25786 -3.23077 0
M  V30 15364 C 1418.2 -2.46382 -3.5156 0
M  V30 15365 C 1417.44 -2.31795 -4.80735 0
M  V30 15366 O 1417.66 -1.32415 -5.54818 0
M  V30 15367 O 1416.59 -3.20883 -5.09232 0
M  V30 15368 H 1420.42 -2.37571 -1.89192 0
M  V30 15369 H 1418.01 -1.2085 -0.878389 0
M  V30 15370 H 1419.89 -1.19402 -4.0413 0
M  V30 15371 H 1418.56 -0.324065 -3.22074 0
M  V30 15372 H 1417.47 -2.58343 -2.70573 0
M  V30 15373 H 1418.8 -3.38473 -3.57347 0
M  V30 15374 N 1420.45 0.960609 -1.2494 0
M  V30 15375 C 1421.7 1.70701 -1.09495 0
M  V30 15376 C 1422.03 1.90754 0.364214 0
M  V30 15377 O 1421.31 1.47417 1.26879 0
M  V30 15378 C 1421.59 3.09353 -1.84317 0
M  V30 15379 C 1421.44 2.96747 -3.38026 0
M  V30 15380 C 1422.76 4.09139 -1.62153 0
M  V30 15381 H 1419.88 0.61955 -0.399158 0
M  V30 15382 H 1422.52 1.11701 -1.53698 0
M  V30 15383 H 1420.67 3.59719 -1.46746 0
M  V30 15384 H 1422.35 2.53752 -3.85237 0
M  V30 15385 H 1420.59 2.32798 -3.66043 0
M  V30 15386 H 1421.26 3.95002 -3.85587 0
M  V30 15387 H 1423.74 3.67659 -1.94849 0
M  V30 15388 H 1422.61 5.04206 -2.16951 0
M  V30 15389 H 1422.87 4.38521 -0.561437 0
M  V30 15390 N 1421.93 1.0643 1.16234 0
M  V30 15391 C 1422.9 0.680383 2.18869 0
M  V30 15392 C 1423.9 -0.274591 1.58438 0
M  V30 15393 O 1425.09 -0.0567907 1.74107 0
M  V30 15394 C 1422.22 0.00134091 3.409 0
M  V30 15395 H 1423.41 1.58894 2.54347 0
M  V30 15396 H 1420.96 0.859688 1.30534 0
M  V30 15397 H 1421.7 -0.919903 3.1098 0
M  V30 15398 H 1421.48 0.688057 3.86016 0
M  V30 15399 H 1422.97 -0.252938 4.16833 0
M  V30 15400 N 1423.41 -1.329 0.847073 0
M  V30 15401 C 1424.66 -1.9712 0.445872 0
M  V30 15402 C 1424.98 -1.67398 -1.00014 0
M  V30 15403 O 1424.25 -0.977204 -1.69787 0
M  V30 15404 H 1422.83 -0.729247 0.161887 0
M  V30 15405 H 1425.49 -1.62118 1.08184 0
M  V30 15406 H 1424.59 -3.06575 0.584676 0
M  V30 15407 N 1424.89 -0.604284 -1.45555 0
M  V30 15408 C 1425.82 0.154579 -2.28678 0
M  V30 15409 C 1426.83 0.83491 -1.39761 0
M  V30 15410 O 1428.02 0.700852 -1.64166 0
M  V30 15411 C 1425.12 1.2397 -3.15412 0
M  V30 15412 C 1424.3 0.647128 -4.32586 0
M  V30 15413 C 1423.35 1.62272 -5.00554 0
M  V30 15414 O 1422.38 1.15031 -5.57455 0
M  V30 15415 N 1423.58 2.9571 -4.99536 0
M  V30 15416 H 1426.35 -0.558668 -2.94447 0
M  V30 15417 H 1423.91 -0.443538 -1.55706 0
M  V30 15418 H 1425.9 1.89209 -3.57746 0
M  V30 15419 H 1424.47 1.85552 -2.51574 0
M  V30 15420 H 1423.69 -0.183261 -3.93774 0
M  V30 15421 H 1424.98 0.231394 -5.08274 0
M  V30 15422 H 1424.38 3.36695 -4.54591 0
M  V30 15423 H 1422.93 3.56381 -5.45744 0
M  V30 15424 N 1426.37 1.53816 -0.343257 0
M  V30 15425 C 1427.33 2.23654 0.501161 0
M  V30 15426 C 1428.33 1.23664 1.02781 0
M  V30 15427 O 1429.52 1.48104 0.917103 0
M  V30 15428 C 1426.65 2.95596 1.69812 0
M  V30 15429 H 1427.84 2.997 -0.109626 0
M  V30 15430 H 1425.4 1.56013 -0.0946011 0
M  V30 15431 H 1426.13 2.23736 2.34761 0
M  V30 15432 H 1425.92 3.68938 1.32768 0
M  V30 15433 H 1427.41 3.48748 2.29706 0
M  V30 15434 N 1427.84 0.0718701 1.57436 0
M  V30 15435 C 1428.78 -0.931304 2.08331 0
M  V30 15436 C 1429.76 -1.29106 0.988448 0
M  V30 15437 O 1430.94 -1.40035 1.26184 0
M  V30 15438 C 1428.07 -2.23939 2.54104 0
M  V30 15439 C 1427.11 -2.03119 3.75026 0
M  V30 15440 S 1427.95 -1.29048 5.19718 0
M  V30 15441 C 1429.1 -2.61136 5.68822 0
M  V30 15442 H 1429.33 -0.498236 2.93095 0
M  V30 15443 H 1426.87 -0.140897 1.53756 0
M  V30 15444 H 1428.83 -2.9912 2.81136 0
M  V30 15445 H 1427.49 -2.64371 1.69608 0
M  V30 15446 H 1426.68 -2.99927 4.05043 0
M  V30 15447 H 1426.28 -1.36074 3.48367 0
M  V30 15448 H 1428.57 -3.57224 5.75671 0
M  V30 15449 H 1429.52 -2.35729 6.67711 0
M  V30 15450 H 1429.92 -2.68345 4.9664 0
M  V30 15451 N 1429.32 -1.56304 -0.201686 0
M  V30 15452 C 1430.56 -1.82021 -0.929934 0
M  V30 15453 C 1430.93 -0.648382 -1.80721 0
M  V30 15454 O 1432.13 -0.785292 -2.57073 0
M  V30 15455 C 1430.4 -3.12731 -1.73014 0
M  V30 15456 S 1431.96 -3.59831 -2.51131 0
M  V30 15457 H 1428.78 -0.638874 -0.312027 0
M  V30 15458 H 1431.38 -1.94536 -0.193861 0
M  V30 15459 H 1430.08 -3.96039 -1.07616 0
M  V30 15460 H 1429.61 -3.03076 -2.50816 0
M  V30 15461 H 1431.63 -3.24744 -3.75174 0
M  V30 15462 N 1430.8 0.469154 -1.50455 0
M  V30 15463 C 1431.73 1.57493 -1.7239 0
M  V30 15464 C 1432.71 1.60161 -0.572915 0
M  V30 15465 O 1433.9 1.76397 -0.812259 0
M  V30 15466 C 1431.03 2.95804 -1.81981 0
M  V30 15467 C 1429.98 3.08001 -2.97185 0
M  V30 15468 C 1429.31 4.4798 -2.91922 0
M  V30 15469 C 1430.61 2.85039 -4.37665 0
M  V30 15470 H 1432.3 1.39389 -2.64974 0
M  V30 15471 H 1429.85 0.669133 -1.27509 0
M  V30 15472 H 1431.8 3.73091 -1.95911 0
M  V30 15473 H 1430.52 3.15068 -0.86021 0
M  V30 15474 H 1429.18 2.33148 -2.82909 0
M  V30 15475 H 1428.83 4.64165 -1.93803 0
M  V30 15476 H 1428.53 4.57076 -3.69263 0
M  V30 15477 H 1430.05 5.27284 -3.07903 0
M  V30 15478 H 1431.47 3.52074 -4.52456 0
M  V30 15479 H 1429.87 3.05578 -5.16471 0
M  V30 15480 H 1430.94 1.8088 -4.499 0
M  V30 15481 N 1432.28 1.40065 0.722464 0
M  V30 15482 C 1433.51 1.41271 1.51163 0
M  V30 15483 C 1433.92 0.0105425 1.88797 0
M  V30 15484 O 1433.28 -0.963867 1.5497 0
M  V30 15485 C 1433.33 2.29713 2.79131 0
M  V30 15486 O 1433.05 3.6447 2.43091 0
M  V30 15487 C 1434.55 2.39437 3.73075 0
M  V30 15488 H 1431.77 0.482086 0.466727 0
M  V30 15489 H 1434.32 1.84033 0.891736 0
M  V30 15490 H 1432.47 1.9033 3.37421 0
M  V30 15491 H 1432.88 4.11371 3.25383 0
M  V30 15492 H 1434.36 3.05543 4.59726 0
M  V30 15493 H 1434.84 1.41731 4.15703 0
M  V30 15494 H 1435.44 2.79342 3.20699 0
M  V30 15495 N 1433.76 -0.95397 1.25448 0
M  V30 15496 C 1435 -1.70118 1.10399 0
M  V30 15497 C 1435.34 -1.90945 -0.354093 0
M  V30 15498 O 1434.61 -1.48088 -1.26096 0
M  V30 15499 C 1434.89 -3.08371 1.85955 0
M  V30 15500 C 1434.75 -2.9495 3.39595 0
M  V30 15501 C 1436.07 -4.08273 1.64321 0
M  V30 15502 H 1433.19 -0.617424 0.402438 0
M  V30 15503 H 1435.83 -1.10884 1.54288 0
M  V30 15504 H 1433.98 -3.58936 1.48651 0
M  V30 15505 H 1435.65 -2.51705 3.86578 0
M  V30 15506 H 1433.89 -2.30853 3.67273 0
M  V30 15507 H 1434.56 -3.92952 3.87676 0
M  V30 15508 H 1437.04 -3.6662 1.96796 0
M  V30 15509 H 1435.92 -5.03048 2.19622 0
M  V30 15510 H 1436.18 -4.38217 0.584685 0
M  V30 15511 N 1435.24 -1.07045 -1.15668 0
M  V30 15512 C 1436.48 -0.791735 -1.86381 0
M  V30 15513 C 1436.81 0.682084 -1.82148 0
M  V30 15514 O 1436.07 1.51617 -1.23737 0
M  V30 15515 C 1436.36 -1.24127 -3.35153 0
M  V30 15516 C 1436.03 -2.72051 -3.59582 0
M  V30 15517 C 1434.69 -3.12455 -3.65958 0
M  V30 15518 C 1437.04 -3.67547 -3.69538 0
M  V30 15519 C 1434.37 -4.4718 -3.79799 0
M  V30 15520 C 1436.72 -5.02029 -3.84902 0
M  V30 15521 C 1435.39 -5.42059 -3.89523 0
M  V30 15522 H 1434.66 -0.289717 -0.682016 0
M  V30 15523 H 1437.31 -1.34091 -1.36718 0
M  V30 15524 H 1435.61 -0.611428 -3.87 0
M  V30 15525 H 1437.31 -1.00256 -3.88265 0
M  V30 15526 H 1433.9 -2.39771 -3.55257 0
M  V30 15527 H 1438.08 -3.3746 -3.63915 0
M  V30 15528 H 1433.34 -4.77668 -3.81632 0
M  V30 15529 H 1437.51 -5.75902 -3.91548 0
M  V30 15530 H 1435.14 -6.46455 -4 0
M  V30 15531 N 1436.71 1.32449 -0.85411 0
M  V30 15532 C 1437.65 2.26901 -0.243148 0
M  V30 15533 C 1438.62 1.50375 0.618558 0
M  V30 15534 O 1439.81 1.79501 0.575479 0
M  V30 15535 C 1436.94 3.32265 0.657108 0
M  V30 15536 C 1435.98 4.26298 -0.131141 0
M  V30 15537 S 1436.81 5.14086 -1.49919 0
M  V30 15538 C 1437.97 6.22973 -0.604632 0
M  V30 15539 H 1438.2 2.78373 -1.04384 0
M  V30 15540 H 1435.74 1.39972 -0.651712 0
M  V30 15541 H 1437.69 3.93447 1.17087 0
M  V30 15542 H 1436.36 2.79578 1.4316 0
M  V30 15543 H 1435.55 5.0094 0.55452 0
M  V30 15544 H 1435.15 3.69531 -0.576469 0
M  V30 15545 H 1437.44 6.7723 0.191348 0
M  V30 15546 H 1438.39 6.95656 -1.32168 0
M  V30 15547 H 1438.79 5.64215 -0.179215 0
M  V30 15548 N 1438.19 0.611994 1.45232 0
M  V30 15549 C 1439.12 -0.153214 2.27685 0
M  V30 15550 C 1440.1 -0.869474 1.37401 0
M  V30 15551 O 1441.29 -0.877453 1.66832 0
M  V30 15552 C 1438.41 -1.22224 3.15878 0
M  V30 15553 C 1437.46 -0.608624 4.22135 0
M  V30 15554 S 1438.29 0.586848 5.32275 0
M  V30 15555 C 1439.45 -0.482657 6.24036 0
M  V30 15556 H 1439.68 0.546316 2.92237 0
M  V30 15557 H 1437.21 0.399631 1.49139 0
M  V30 15558 H 1439.17 -1.83413 3.67246 0
M  V30 15559 H 1437.83 -1.89386 2.50583 0
M  V30 15560 H 1437.03 -1.41312 4.83784 0
M  V30 15561 H 1436.63 -0.0717689 3.73931 0
M  V30 15562 H 1438.92 -1.36053 6.63699 0
M  V30 15563 H 1439.86 0.0977803 7.08032 0
M  V30 15564 H 1440.27 -0.799965 5.58803 0
M  V30 15565 N 1439.67 -1.53632 0.351409 0
M  V30 15566 C 1440.92 -2.01338 -0.243047 0
M  V30 15567 C 1441.25 -1.23864 -1.4957 0
M  V30 15568 O 1440.52 -0.328412 -1.91707 0
M  V30 15569 C 1440.81 -3.55886 -0.549284 0
M  V30 15570 C 1440.66 -4.44064 0.716016 0
M  V30 15571 C 1441.98 -4.18699 -1.35569 0
M  V30 15572 H 1439.1 -0.731863 -0.0868627 0
M  V30 15573 H 1441.74 -1.84005 0.473501 0
M  V30 15574 H 1439.89 -3.70787 -1.15972 0
M  V30 15575 H 1441.56 -4.40987 1.35383 0
M  V30 15576 H 1439.8 -4.12608 1.3393 0
M  V30 15577 H 1440.48 -5.50106 0.456895 0
M  V30 15578 H 1442.95 -4.07545 -0.839441 0
M  V30 15579 H 1441.83 -5.26892 -1.53871 0
M  V30 15580 H 1442.09 -3.73834 -2.3601 0
M  V30 15581 N 1441.15 -0.0802183 -1.57396 0
M  V30 15582 C 1442.08 0.920242 -2.08822 0
M  V30 15583 C 1443.06 1.2858 -0.995281 0
M  V30 15584 O 1444.24 1.39364 -1.26925 0
M  V30 15585 C 1441.37 2.22589 -2.55288 0
M  V30 15586 C 1440.42 2.01128 -3.76098 0
M  V30 15587 S 1441.25 1.2629 -5.20395 0
M  V30 15588 C 1442.4 2.58116 -5.70199 0
M  V30 15589 H 1442.64 0.482685 -2.93355 0
M  V30 15590 H 1440.17 0.13274 -1.53828 0
M  V30 15591 H 1442.13 2.97625 -2.82718 0
M  V30 15592 H 1440.79 2.63468 -1.71008 0
M  V30 15593 H 1439.98 2.97775 -4.06628 0
M  V30 15594 H 1439.58 1.34225 -3.49084 0
M  V30 15595 H 1441.88 3.54166 -5.77558 0
M  V30 15596 H 1442.82 2.32185 -6.68951 0
M  V30 15597 H 1443.23 2.65707 -4.98056 0
M  V30 15598 N 1442.63 1.56409 0.193394 0
M  V30 15599 C 1443.87 1.80991 0.914875 0
M  V30 15600 C 1444.2 0.654538 1.82837 0
M  V30 15601 O 1443.48 -0.344816 1.91419 0
M  V30 15602 C 1443.76 3.15841 1.72964 0
M  V30 15603 C 1443.62 4.41873 0.840748 0
M  V30 15604 C 1444.93 3.474 2.70188 0
M  V30 15605 H 1442.05 0.658408 0.331161 0
M  V30 15606 H 1444.7 1.89125 0.182161 0
M  V30 15607 H 1442.85 3.09038 2.35431 0
M  V30 15608 H 1444.52 4.60723 0.230654 0
M  V30 15609 H 1442.76 4.33549 0.147558 0
M  V30 15610 H 1443.43 5.32728 1.44586 0
M  V30 15611 H 1445.91 3.54513 2.17852 0
M  V30 15612 H 1444.78 4.42872 3.24278 0
M  V30 15613 H 1445.04 2.7098 3.49317 0
M  V30 15614 N 1444.1 -0.461169 1.50702 0
M  V30 15615 C 1445.35 -1.20934 1.61425 0
M  V30 15616 C 1445.67 -1.92884 0.32481 0
M  V30 15617 O 1446.87 -2.69712 0.311081 0
M  V30 15618 C 1445.33 -2.19797 2.84987 0
M  V30 15619 C 1444.94 -1.53604 4.20844 0
M  V30 15620 C 1446.68 -2.95194 3.05059 0
M  V30 15621 C 1444.59 -2.50811 5.35582 0
M  V30 15622 H 1443.52 -0.455088 0.601174 0
M  V30 15623 H 1446.17 -0.478771 1.77144 0
M  V30 15624 H 1444.55 -2.96187 2.62848 0
M  V30 15625 H 1445.72 -0.829345 4.53275 0
M  V30 15626 H 1444.04 -0.904504 4.06457 0
M  V30 15627 H 1446.64 -3.67965 3.87951 0
M  V30 15628 H 1446.98 -3.5516 2.1718 0
M  V30 15629 H 1447.51 -2.25915 3.27425 0
M  V30 15630 H 1444.25 -1.9557 6.25646 0
M  V30 15631 H 1443.77 -3.19604 5.07556 0
M  V30 15632 H 1445.45 -3.12437 5.66561 0
M  V30 15633 N 1445.58 -1.40446 -0.715026 0
M  V30 15634 C 1446.83 -1.3848 -1.47199 0
M  V30 15635 C 1447.15 0.0119198 -1.94996 0
M  V30 15636 O 1446.42 0.966772 -1.70383 0
M  V30 15637 H 1445 -0.509669 -0.54612 0
M  V30 15638 H 1447.66 -1.75505 -0.847588 0
M  V30 15639 H 1446.76 -2.06002 -2.34456 0
M  V30 15640 N 1447.06 0.947303 -1.25952 0
M  V30 15641 C 1448.01 2.06642 -1.06779 0
M  V30 15642 C 1449 1.694 0.00348362 0
M  V30 15643 O 1450.21 1.79351 -0.152715 0
M  V30 15644 H 1446.58 0.676499 -0.32841 0
M  V30 15645 H 1448.55 2.19968 -2.01635 0
M  V30 15646 C 1447.3 3.40353 -0.711015 0
M  V30 15647 H 1446.63 3.69483 -1.52718 0
M  V30 15648 H 1448.07 4.19493 -0.616606 0
M  V30 15649 C 1446.52 3.3181 0.58344 0
M  V30 15650 O 1447.05 3.67431 1.6235 0
M  V30 15651 N 1445.26 2.84919 0.571797 0
M  V30 15652 H 1444.81 2.56128 -0.274962 0
M  V30 15653 H 1444.77 2.79586 1.43803 0
M  V30 15654 N 1448.54 1.07657 1.15099 0
M  V30 15655 C 1449.47 0.721201 2.22083 0
M  V30 15656 C 1450.45 -0.292808 1.67561 0
M  V30 15657 O 1451.63 -0.164872 1.93499 0
M  V30 15658 C 1448.76 0.12153 3.47087 0
M  V30 15659 C 1447.72 1.06303 4.14588 0
M  V30 15660 C 1447.04 0.325964 5.33706 0
M  V30 15661 C 1448.34 2.39796 4.63999 0
M  V30 15662 H 1450.04 1.61566 2.52065 0
M  V30 15663 H 1447.58 0.778282 1.21156 0
M  V30 15664 H 1449.54 -0.139037 4.21171 0
M  V30 15665 H 1448.26 -0.808022 3.16447 0
M  V30 15666 H 1446.92 1.30858 3.4245 0
M  V30 15667 H 1446.57 -0.607147 4.99322 0
M  V30 15668 H 1446.27 0.953552 5.79811 0
M  V30 15669 H 1447.79 0.0732695 6.10556 0
M  V30 15670 H 1449.21 2.19552 5.29594 0
M  V30 15671 H 1447.6 2.98178 5.20778 0
M  V30 15672 H 1448.67 3.01876 3.79472 0
M  V30 15673 N 1450.02 -1.31994 0.861122 0
M  V30 15674 C 1451.26 -1.97317 0.468371 0
M  V30 15675 C 1451.6 -1.67954 -0.974941 0
M  V30 15676 O 1450.87 -0.971243 -1.68514 0
M  V30 15677 C 1451.15 -3.52918 0.715607 0
M  V30 15678 C 1451.01 -3.91888 2.20781 0
M  V30 15679 C 1452.33 -4.39747 0.17624 0
M  V30 15680 H 1449.44 -0.716733 0.171646 0
M  V30 15681 H 1452.09 -1.56269 1.08074 0
M  V30 15682 H 1450.24 -3.88013 0.194387 0
M  V30 15683 H 1451.91 -3.66938 2.7956 0
M  V30 15684 H 1450.15 -3.40813 2.68382 0
M  V30 15685 H 1450.82 -5.00346 2.33147 0
M  V30 15686 H 1453.3 -4.11424 0.622043 0
M  V30 15687 H 1452.17 -5.47592 0.378748 0
M  V30 15688 H 1452.44 -4.32393 -0.921358 0
M  V30 15689 N 1451.49 -0.619688 -1.44906 0
M  V30 15690 C 1452.74 -0.11981 -2.02446 0
M  V30 15691 C 1453.07 1.2509 -1.48546 0
M  V30 15692 O 1452.35 1.82781 -0.664942 0
M  V30 15693 C 1452.63 -0.0940205 -3.59977 0
M  V30 15694 C 1452.48 -1.49626 -4.24184 0
M  V30 15695 C 1453.8 0.58748 -4.36161 0
M  V30 15696 H 1450.92 -0.0450119 -0.735624 0
M  V30 15697 H 1453.56 -0.793975 -1.72615 0
M  V30 15698 H 1451.71 0.480073 -3.85522 0
M  V30 15699 H 1453.39 -2.11836 -4.09784 0
M  V30 15700 H 1451.63 -2.05348 -3.82119 0
M  V30 15701 H 1452.3 -1.43035 -5.33146 0
M  V30 15702 H 1454.78 0.0993863 -4.15981 0
M  V30 15703 H 1453.65 0.574672 -5.45883 0
M  V30 15704 H 1453.91 1.65579 -4.09922 0
M  V30 15705 N 1452.97 1.53444 -0.359552 0
M  V30 15706 C 1453.9 2.28475 0.4818 0
M  V30 15707 C 1454.88 1.30664 1.08908 0
M  V30 15708 O 1456.07 1.59527 1.10746 0
M  V30 15709 C 1453.2 3.06951 1.62477 0
M  V30 15710 C 1452.15 4.12399 1.14504 0
M  V30 15711 C 1451.48 4.78922 2.37777 0
M  V30 15712 C 1452.78 5.21775 0.234075 0
M  V30 15713 H 1454.47 2.99053 -0.144162 0
M  V30 15714 H 1452.02 1.43826 -0.0707746 0
M  V30 15715 H 1453.97 3.58186 2.21993 0
M  V30 15716 H 1452.7 2.34053 2.27787 0
M  V30 15717 H 1451.35 3.62101 0.572589 0
M  V30 15718 H 1451 4.02602 3.0153 0
M  V30 15719 H 1450.7 5.50175 2.06353 0
M  V30 15720 H 1452.23 5.32948 2.97991 0
M  V30 15721 H 1453.64 5.68549 0.736548 0
M  V30 15722 H 1452.04 6.00099 0.0109887 0
M  V30 15723 H 1453.11 4.79443 -0.725435 0
M  V30 15724 N 1454.45 0.0885642 1.57351 0
M  V30 15725 C 1455.4 -0.890284 2.14888 0
M  V30 15726 C 1456.39 -1.29671 1.09004 0
M  V30 15727 O 1457.6 -1.272 1.27359 0
M  V30 15728 H 1453.97 -0.305107 0.687324 0
M  V30 15729 H 1455.94 -0.380243 2.95967 0
M  V30 15730 C 1454.69 -2.14216 2.73874 0
M  V30 15731 H 1454.02 -1.8383 3.55031 0
M  V30 15732 H 1455.46 -2.8078 3.17708 0
M  V30 15733 C 1453.92 -2.91186 1.69448 0
M  V30 15734 O 1454.45 -3.85494 1.12949 0
M  V30 15735 N 1452.65 -2.54603 1.40091 0
M  V30 15736 H 1452.2 -1.77984 1.86225 0
M  V30 15737 H 1452.16 -3.06403 0.704577 0
M  V30 15738 N 1455.93 -1.56509 -0.185096 0
M  V30 15739 C 1456.86 -1.98363 -1.23184 0
M  V30 15740 C 1457.84 -0.85709 -1.46929 0
M  V30 15741 O 1459.02 -1.12216 -1.58497 0
M  V30 15742 C 1456.15 -2.33172 -2.57387 0
M  V30 15743 C 1455.11 -3.48658 -2.48236 0
M  V30 15744 C 1454.43 -3.69171 -3.86804 0
M  V30 15745 C 1455.73 -4.82538 -1.99885 0
M  V30 15746 H 1457.43 -2.86053 -0.883982 0
M  V30 15747 H 1454.97 -1.37623 -0.423786 0
M  V30 15748 H 1456.93 -2.61048 -3.30805 0
M  V30 15749 H 1455.65 -1.42377 -2.93933 0
M  V30 15750 H 1454.31 -3.20889 -1.77273 0
M  V30 15751 H 1453.96 -2.75689 -4.20719 0
M  V30 15752 H 1453.66 -4.46868 -3.81553 0
M  V30 15753 H 1455.18 -3.99433 -4.61829 0
M  V30 15754 H 1456.6 -5.0938 -2.63068 0
M  V30 15755 H 1454.99 -5.63775 -2.05614 0
M  V30 15756 H 1456.06 -4.75453 -0.952503 0
M  V30 15757 N 1457.41 0.45317 -1.50944 0
M  V30 15758 C 1458.65 1.20389 -1.62827 0
M  V30 15759 C 1458.98 1.91559 -0.336982 0
M  V30 15760 O 1458.24 1.83574 0.678153 0
M  V30 15761 C 1458.54 2.25747 -2.7708 0
M  V30 15762 C 1458.2 1.71703 -4.16928 0
M  V30 15763 C 1456.86 1.56686 -4.54976 0
M  V30 15764 C 1459.22 1.31804 -5.04259 0
M  V30 15765 C 1456.54 1.0022 -5.78077 0
M  V30 15766 C 1458.9 0.767738 -6.27924 0
M  V30 15767 C 1457.56 0.604341 -6.64759 0
M  V30 15768 H 1456.83 0.440536 -0.595827 0
M  V30 15769 H 1459.48 0.497234 -1.84932 0
M  V30 15770 H 1457.78 3.0239 -2.49134 0
M  V30 15771 H 1459.48 2.83625 -2.83475 0
M  V30 15772 H 1456.07 1.84364 -3.86921 0
M  V30 15773 H 1460.25 1.42233 -4.75482 0
M  V30 15774 H 1455.51 0.863228 -6.05275 0
M  V30 15775 H 1459.68 0.449994 -6.94945 0
M  V30 15776 H 1457.31 0.164663 -7.60022 0
M  V30 15777 N 1458.88 1.40823 0.707568 0
M  V30 15778 C 1459.81 1.44485 1.83429 0
M  V30 15779 C 1460.8 0.304848 1.67346 0
M  V30 15780 O 1461.98 0.514605 1.87258 0
M  V30 15781 C 1459.11 1.31458 3.21459 0
M  V30 15782 C 1458.06 2.43145 3.52228 0
M  V30 15783 C 1457.39 2.15189 4.89487 0
M  V30 15784 C 1458.69 3.85489 3.52414 0
M  V30 15785 H 1460.38 2.38781 1.80622 0
M  V30 15786 H 1457.93 1.14931 0.867572 0
M  V30 15787 H 1459.88 1.32635 3.99983 0
M  V30 15788 H 1458.61 0.336422 3.24863 0
M  V30 15789 H 1457.27 2.41231 2.76049 0
M  V30 15790 H 1456.91 1.15745 4.89502 0
M  V30 15791 H 1456.61 2.90022 5.11039 0
M  V30 15792 H 1458.14 2.18062 5.70334 0
M  V30 15793 H 1459.55 3.89183 4.20963 0
M  V30 15794 H 1457.95 4.59906 3.85495 0
M  V30 15795 H 1459.02 4.14499 2.51632 0
M  V30 15796 N 1460.36 -0.94061 1.26453 0
M  V30 15797 C 1461.33 -2.02096 1.0812 0
M  V30 15798 C 1462.33 -1.60773 0.0293393 0
M  V30 15799 O 1463.52 -1.72051 0.272796 0
M  V30 15800 C 1460.65 -3.34749 0.644646 0
M  V30 15801 H 1461.84 -2.19792 2.04038 0
M  V30 15802 H 1459.39 -1.11965 1.09058 0
M  V30 15803 H 1460.13 -3.22752 -0.316509 0
M  V30 15804 H 1459.91 -3.66095 1.40416 0
M  V30 15805 H 1461.4 -4.14117 0.538233 0
M  V30 15806 N 1461.84 -1.08266 -1.14527 0
M  V30 15807 C 1462.77 -0.732968 -2.21698 0
M  V30 15808 C 1463.75 0.283917 -1.67714 0
M  V30 15809 O 1464.94 0.154607 -1.93584 0
M  V30 15810 C 1462.07 -0.139935 -3.47018 0
M  V30 15811 C 1461.02 -1.08501 -4.14019 0
M  V30 15812 C 1460.35 -0.354263 -5.33525 0
M  V30 15813 C 1461.65 -2.42254 -4.62721 0
M  V30 15814 H 1463.34 -1.629 -2.51205 0
M  V30 15815 H 1460.89 -0.784696 -1.20742 0
M  V30 15816 H 1462.84 0.1167 -4.21238 0
M  V30 15817 H 1461.56 0.791228 -3.16871 0
M  V30 15818 H 1460.22 -1.32672 -3.41751 0
M  V30 15819 H 1459.87 0.580658 -4.99637 0
M  V30 15820 H 1459.57 -0.984287 -5.79297 0
M  V30 15821 H 1461.09 -0.105648 -6.10509 0
M  V30 15822 H 1462.51 -2.22357 -5.28422 0
M  V30 15823 H 1460.91 -3.00935 -5.1919 0
M  V30 15824 H 1461.98 -3.03884 -3.77866 0
M  V30 15825 N 1463.32 1.31536 -0.86811 0
M  V30 15826 C 1464.25 2.31037 -0.33822 0
M  V30 15827 C 1465.23 1.60269 0.569892 0
M  V30 15828 O 1466.42 1.87987 0.487305 0
M  V30 15829 C 1463.55 3.44203 0.462753 0
M  V30 15830 C 1462.5 4.26549 -0.3521 0
M  V30 15831 C 1461.83 5.31605 0.574443 0
M  V30 15832 C 1463.13 4.97665 -1.58516 0
M  V30 15833 H 1464.82 2.75607 -1.16967 0
M  V30 15834 H 1462.37 1.325 -0.56389 0
M  V30 15835 H 1464.32 4.12862 0.843967 0
M  V30 15836 H 1463.04 2.98396 1.32769 0
M  V30 15837 H 1461.7 3.59555 -0.715237 0
M  V30 15838 H 1461.35 4.82048 1.43661 0
M  V30 15839 H 1461.05 5.87591 0.0331436 0
M  V30 15840 H 1462.57 6.03124 0.952541 0
M  V30 15841 H 1463.99 5.58931 -1.27549 0
M  V30 15842 H 1462.38 5.63437 -2.06539 0
M  V30 15843 H 1463.45 4.24756 -2.33902 0
M  V30 15844 N 1464.8 0.627364 1.44575 0
M  V30 15845 C 1465.73 -0.066735 2.33405 0
M  V30 15846 C 1466.71 -0.838666 1.47988 0
M  V30 15847 O 1467.89 -0.805296 1.76716 0
M  V30 15848 C 1465.02 -1.05148 3.31 0
M  V30 15849 C 1463.98 -0.391433 4.26206 0
M  V30 15850 C 1463.3 -1.48581 5.13642 0
M  V30 15851 C 1464.6 0.699942 5.17589 0
M  V30 15852 H 1466.3 0.675029 2.91691 0
M  V30 15853 H 1463.84 0.326066 1.4026 0
M  V30 15854 H 1465.8 -1.54576 3.92026 0
M  V30 15855 H 1464.52 -1.82408 2.70915 0
M  V30 15856 H 1463.18 0.0821694 3.66508 0
M  V30 15857 H 1462.83 -2.2492 4.49911 0
M  V30 15858 H 1462.53 -1.04957 5.7815 0
M  V30 15859 H 1464.05 -1.98198 5.77538 0
M  V30 15860 H 1465.47 0.288911 5.72572 0
M  V30 15861 H 1463.86 1.0591 5.9068 0
M  V30 15862 H 1464.93 1.5686 4.58828 0
M  V30 15863 N 1466.28 -1.53251 0.367684 0
M  V30 15864 C 1467.5 -2.0618 -0.224645 0
M  V30 15865 C 1467.93 -1.23927 -1.41505 0
M  V30 15866 O 1467.28 -0.258858 -1.79443 0
M  V30 15867 C 1467.33 -3.55671 -0.594171 0
M  V30 15868 O 1466.44 -3.76132 -1.69112 0
M  V30 15869 H 1465.78 -0.663218 -0.0322099 0
M  V30 15870 H 1468.31 -1.97646 0.528897 0
M  V30 15871 H 1468.32 -3.98734 -0.864589 0
M  V30 15872 H 1466.99 -4.14982 0.276254 0
M  V30 15873 H 1465.57 -3.44965 -1.41609 0
M  V30 15874 N 1467.75 -0.0969077 -1.57302 0
M  V30 15875 C 1468.98 0.578086 -1.99181 0
M  V30 15876 C 1469.4 1.60818 -0.975667 0
M  V30 15877 O 1468.76 1.81215 0.0556054 0
M  V30 15878 C 1468.81 1.20076 -3.40021 0
M  V30 15879 O 1467.91 2.31656 -3.41188 0
M  V30 15880 H 1467.25 0.146506 -0.647636 0
M  V30 15881 H 1469.78 -0.178855 -2.03817 0
M  V30 15882 H 1469.79 1.54162 -3.77754 0
M  V30 15883 H 1468.47 0.446114 -4.135 0
M  V30 15884 H 1467.05 1.99175 -3.15252 0
M  V30 15885 N 1469.23 1.56605 0.176793 0
M  V30 15886 C 1470.48 1.81682 0.894302 0
M  V30 15887 C 1470.81 0.67311 1.82481 0
M  V30 15888 O 1470.06 -0.339995 1.92724 0
M  V30 15889 C 1470.36 3.12888 1.7273 0
M  V30 15890 C 1470.03 4.40861 0.946186 0
M  V30 15891 C 1468.69 4.75622 0.730586 0
M  V30 15892 C 1471.04 5.19679 0.397889 0
M  V30 15893 C 1468.37 5.86683 -0.0444995 0
M  V30 15894 C 1470.72 6.31551 -0.36408 0
M  V30 15895 C 1469.38 6.64883 -0.59053 0
M  V30 15896 H 1468.65 0.664823 0.327248 0
M  V30 15897 H 1471.3 1.90834 0.159555 0
M  V30 15898 H 1469.61 2.99055 2.53128 0
M  V30 15899 H 1471.3 3.295 2.2854 0
M  V30 15900 H 1467.89 4.13592 1.12426 0
M  V30 15901 H 1472.08 4.93223 0.55181 0
M  V30 15902 H 1467.33 6.10968 -0.229739 0
M  V30 15903 H 1471.51 6.91833 -0.796223 0
M  V30 15904 H 1469.13 7.50781 -1.19301 0
M  V30 15905 N 1470.71 -0.445159 1.51182 0
M  V30 15906 C 1471.93 -1.22249 1.67541 0
M  V30 15907 C 1472.36 -1.84446 0.368972 0
M  V30 15908 O 1471.72 -1.68463 -0.670058 0
M  V30 15909 C 1471.77 -2.288 2.78717 0
M  V30 15910 O 1470.87 -3.34094 2.41775 0
M  V30 15911 H 1470.21 -0.358516 0.558894 0
M  V30 15912 H 1472.74 -0.526696 1.97704 0
M  V30 15913 H 1472.75 -2.73708 3.02569 0
M  V30 15914 H 1471.43 -1.82906 3.73521 0
M  V30 15915 H 1470 -2.94717 2.28466 0
M  V30 15916 N 1472.19 -1.41197 -0.700089 0
M  V30 15917 C 1473.15 -1.42419 -1.79582 0
M  V30 15918 C 1474.15 -0.31551 -1.57674 0
M  V30 15919 O 1475.34 -0.575173 -1.64431 0
M  V30 15920 C 1472.47 -1.23114 -3.17893 0
M  V30 15921 H 1473.67 -2.39956 -1.79892 0
M  V30 15922 H 1471.22 -1.27273 -0.907271 0
M  V30 15923 H 1471.95 -0.263992 -3.23224 0
M  V30 15924 H 1471.74 -2.03437 -3.35195 0
M  V30 15925 H 1473.23 -1.26793 -3.97886 0
M  V30 15926 N 1473.67 0.933891 -1.2695 0
M  V30 15927 C 1474.94 1.65874 -1.0366 0
M  V30 15928 C 1475.32 2.0666 0.43066 0
M  V30 15929 O 1474.67 1.79606 1.41259 0
M  V30 15930 C 1474.88 2.86546 -1.99229 0
M  V30 15931 C 1476.23 3.58031 -2.28251 0
M  V30 15932 O 1477.25 2.96663 -1.97154 0
M  V30 15933 O 1476.11 4.68583 -2.81233 0
M  V30 15934 H 1473.21 0.72673 -0.394706 0
M  V30 15935 H 1475.75 0.984975 -1.38189 0
M  V30 15936 H 1474.52 2.53351 -2.9821 0
M  V30 15937 H 1474.15 3.61645 -1.65224 0
M  V30 15938 N 1475.14 1.08871 1.13951 0
M  V30 15939 C 1476.09 0.71755 2.21255 0
M  V30 15940 C 1477.09 -0.278901 1.67088 0
M  V30 15941 O 1478.29 -0.140964 1.79447 0
M  V30 15942 H 1474.67 0.214032 0.720898 0
M  V30 15943 H 1476.64 1.63182 2.49828 0
M  V30 15944 C 1475.39 0.148098 3.47384 0
M  V30 15945 H 1474.71 0.906028 3.89398 0
M  V30 15946 H 1476.15 -0.0737451 4.23936 0
M  V30 15947 C 1474.61 -1.11524 3.17906 0
M  V30 15948 O 1475.14 -2.19937 3.3614 0
M  V30 15949 N 1473.34 -1.0275 2.71829 0
M  V30 15950 H 1472.89 -0.145193 2.5719 0
M  V30 15951 H 1472.85 -1.87353 2.5248 0
M  V30 15952 N 1476.62 -1.31073 0.875073 0
M  V30 15953 C 1477.55 -2.30855 0.350468 0
M  V30 15954 C 1478.53 -1.60569 -0.561384 0
M  V30 15955 O 1479.72 -1.88242 -0.477329 0
M  V30 15956 C 1476.85 -3.44444 -0.444493 0
M  V30 15957 C 1475.8 -4.26357 0.374716 0
M  V30 15958 C 1475.13 -5.31903 -0.546243 0
M  V30 15959 C 1476.43 -4.96817 1.61153 0
M  V30 15960 H 1478.12 -2.74983 1.18427 0
M  V30 15961 H 1475.67 -1.32199 0.570909 0
M  V30 15962 H 1477.62 -4.13304 -0.82206 0
M  V30 15963 H 1476.34 -2.99096 -1.31185 0
M  V30 15964 H 1475 -3.59171 0.734295 0
M  V30 15965 H 1474.65 -4.82803 -1.41102 0
M  V30 15966 H 1474.35 -5.876 -0.00198173 0
M  V30 15967 H 1475.88 -6.03621 -0.920542 0
M  V30 15968 H 1477.29 -5.58247 1.30511 0
M  V30 15969 H 1475.69 -5.62334 2.09524 0
M  V30 15970 H 1476.76 -4.2351 2.36151 0
M  V30 15971 N 1478.1 -0.635022 -1.4424 0
M  V30 15972 C 1479.06 0.0579377 -2.29127 0
M  V30 15973 C 1480.06 0.768489 -1.41248 0
M  V30 15974 O 1481.25 0.612489 -1.63077 0
M  V30 15975 C 1478.39 1.09266 -3.22914 0
M  V30 15976 H 1479.58 -0.688723 -2.91885 0
M  V30 15977 H 1477.13 -0.395347 -1.51217 0
M  V30 15978 H 1477.87 1.86917 -2.65014 0
M  V30 15979 H 1477.65 0.587036 -3.87681 0
M  V30 15980 H 1479.14 1.57716 -3.86672 0
M  V30 15981 N 1479.58 1.53054 -0.375806 0
M  V30 15982 C 1480.54 2.24666 0.453608 0
M  V30 15983 C 1481.54 1.25816 1.00135 0
M  V30 15984 O 1482.73 1.50016 0.885481 0
M  V30 15985 C 1479.86 2.99131 1.63503 0
M  V30 15986 H 1481.06 2.994 -0.173172 0
M  V30 15987 H 1478.61 1.55778 -0.127673 0
M  V30 15988 H 1479.34 2.28666 2.29962 0
M  V30 15989 H 1479.13 3.71671 1.24913 0
M  V30 15990 H 1480.62 3.53542 2.22256 0
M  V30 15991 N 1481.06 0.105248 1.57248 0
M  V30 15992 C 1482.28 -0.564157 1.9906 0
M  V30 15993 C 1482.7 -1.61092 0.984624 0
M  V30 15994 O 1482.06 -1.82484 -0.0244031 0
M  V30 15995 C 1482.11 -1.20272 3.40906 0
M  V30 15996 O 1481.83 -0.197815 4.37653 0
M  V30 15997 C 1483.33 -1.95677 3.97776 0
M  V30 15998 H 1480.55 -0.150468 0.653912 0
M  V30 15999 H 1483.09 0.187532 2.03638 0
M  V30 16000 H 1481.25 -1.90528 3.3731 0
M  V30 16001 H 1481.66 -0.659998 5.20331 0
M  V30 16002 H 1483.14 -2.35702 4.99148 0
M  V30 16003 H 1483.61 -2.82661 3.36154 0
M  V30 16004 H 1484.22 -1.30215 4.04876 0
M  V30 16005 N 1482.53 -1.56697 -0.168486 0
M  V30 16006 C 1483.81 -1.73032 -0.912097 0
M  V30 16007 C 1484.19 -0.667424 -2.00271 0
M  V30 16008 O 1483.54 0.317307 -2.26286 0
M  V30 16009 C 1483.75 -3.16334 -1.47424 0
M  V30 16010 C 1485.1 -3.77378 -1.94606 0
M  V30 16011 O 1486.12 -3.19629 -1.57212 0
M  V30 16012 O 1484.98 -4.78781 -2.63497 0
M  V30 16013 H 1482.07 -0.706713 -0.429518 0
M  V30 16014 H 1484.62 -1.68981 -0.156093 0
M  V30 16015 H 1483.39 -3.85179 -0.689421 0
M  V30 16016 H 1483.02 -3.24723 -2.29435 0
M  V30 16017 N 1484.01 0.437135 -1.51416 0
M  V30 16018 C 1485.29 1.1978 -1.54636 0
M  V30 16019 C 1485.67 2.088 -0.310747 0
M  V30 16020 O 1485.02 2.1738 0.704148 0
M  V30 16021 C 1485.23 1.99947 -2.86046 0
M  V30 16022 C 1486.58 2.56981 -3.38003 0
M  V30 16023 O 1487.6 2.10157 -2.87598 0
M  V30 16024 O 1486.46 3.42383 -4.25953 0
M  V30 16025 H 1483.55 0.545346 -0.621713 0
M  V30 16026 H 1486.1 0.446189 -1.63729 0
M  V30 16027 H 1484.87 1.34564 -3.67435 0
M  V30 16028 H 1484.49 2.82172 -2.80115 0
M  V30 16029 N 1485.49 1.41566 0.692592 0
M  V30 16030 C 1486.77 1.31572 1.44735 0
M  V30 16031 C 1487.15 -0.0553081 2.11028 0
M  V30 16032 O 1486.5 -1.06974 2.01913 0
M  V30 16033 C 1486.71 2.47125 2.46435 0
M  V30 16034 C 1488.05 2.88427 3.11601 0
M  V30 16035 O 1489.08 2.46886 2.5676 0
M  V30 16036 O 1487.94 3.6027 4.10935 0
M  V30 16037 H 1485.03 0.517949 0.644715 0
M  V30 16038 H 1487.58 1.53536 0.722818 0
M  V30 16039 H 1486.35 3.38601 1.96124 0
M  V30 16040 H 1485.97 2.27054 3.26393 0
M  V30 16041 N 1486.97 -0.927146 1.27443 0
M  V30 16042 C 1487.92 -2.04917 1.10053 0
M  V30 16043 C 1488.91 -1.69384 0.0234668 0
M  V30 16044 O 1490.12 -1.79085 0.181228 0
M  V30 16045 H 1486.49 -0.671189 0.33913 0
M  V30 16046 H 1488.46 -2.16732 2.05109 0
M  V30 16047 C 1487.21 -3.39178 0.765072 0
M  V30 16048 H 1486.53 -3.67006 1.58577 0
M  V30 16049 H 1487.97 -4.18458 0.683266 0
M  V30 16050 C 1486.43 -3.32696 -0.530578 0
M  V30 16051 O 1486.96 -3.69967 -1.56484 0
M  V30 16052 N 1485.17 -2.85793 -0.526396 0
M  V30 16053 H 1484.72 -2.55658 0.315675 0
M  V30 16054 H 1484.67 -2.81838 -1.39337 0
M  V30 16055 N 1488.45 -1.09474 -1.13372 0
M  V30 16056 C 1489.36 -0.746674 -2.224 0
M  V30 16057 C 1490.37 0.251572 -1.72172 0
M  V30 16058 O 1491.55 0.092793 -2.01186 0
M  V30 16059 C 1488.61 -0.172965 -3.46268 0
M  V30 16060 C 1487.67 -1.22722 -4.11385 0
M  V30 16061 C 1486.91 -0.680794 -5.2934 0
M  V30 16062 O 1487.13 0.496135 -5.68238 0
M  V30 16063 O 1486.06 -1.43605 -5.84518 0
M  V30 16064 H 1489.89 -1.65649 -2.54547 0
M  V30 16065 H 1487.48 -0.869172 -1.21514 0
M  V30 16066 H 1489.36 0.143629 -4.21155 0
M  V30 16067 H 1488.03 0.709853 -3.15821 0
M  V30 16068 H 1486.94 -1.59652 -3.38323 0
M  V30 16069 H 1488.27 -2.0827 -4.45965 0
M  V30 16070 N 1489.92 1.30607 -0.882012 0
M  V30 16071 C 1490.86 2.26334 -0.291222 0
M  V30 16072 C 1491.84 1.51653 0.586522 0
M  V30 16073 O 1493.02 1.80681 0.537275 0
M  V30 16074 C 1490.15 3.33584 0.586482 0
M  V30 16075 C 1489.19 4.25924 -0.221535 0
M  V30 16076 S 1490.03 5.10791 -1.6079 0
M  V30 16077 C 1491.18 6.2155 -0.736638 0
M  V30 16078 H 1491.41 2.76096 -1.10265 0
M  V30 16079 H 1488.95 1.38558 -0.681255 0
M  V30 16080 H 1490.91 3.95842 1.08715 0
M  V30 16081 H 1489.57 2.82552 1.37198 0
M  V30 16082 H 1488.76 5.02004 0.448139 0
M  V30 16083 H 1488.36 3.68225 -0.654722 0
M  V30 16084 H 1490.65 6.77483 0.0476549 0
M  V30 16085 H 1491.6 6.92696 -1.46894 0
M  V30 16086 H 1492 5.63708 -0.298853 0
M  V30 16087 N 1491.4 0.642663 1.43901 0
M  V30 16088 C 1492.35 -0.0673926 2.32502 0
M  V30 16089 C 1493.34 -0.823981 1.4801 0
M  V30 16090 O 1494.55 -0.735575 1.64284 0
M  V30 16091 H 1490.93 -0.0405715 0.750905 0
M  V30 16092 H 1492.9 0.69777 2.90127 0
M  V30 16093 C 1491.65 -1.02745 3.32173 0
M  V30 16094 H 1490.97 -0.454697 3.97206 0
M  V30 16095 H 1492.41 -1.49355 3.96824 0
M  V30 16096 C 1490.87 -2.11835 2.61969 0
M  V30 16097 O 1491.4 -3.20074 2.42725 0
M  V30 16098 N 1489.6 -1.88092 2.21517 0
M  V30 16099 H 1489.15 -1.00072 2.37368 0
M  V30 16100 H 1489.11 -2.61279 1.74873 0
M  V30 16101 N 1492.88 -1.52852 0.383918 0
M  V30 16102 C 1493.83 -2.27828 -0.468762 0
M  V30 16103 C 1494.82 -1.31516 -1.0677 0
M  V30 16104 O 1496.03 -1.49075 -1.0088 0
M  V30 16105 H 1492.4 -0.732552 -0.169917 0
M  V30 16106 H 1494.38 -2.97825 0.185124 0
M  V30 16107 C 1493.12 -3.09378 -1.58683 0
M  V30 16108 H 1492.45 -3.83343 -1.13527 0
M  V30 16109 H 1493.89 -3.64987 -2.15779 0
M  V30 16110 C 1492.35 -2.21354 -2.53976 0
M  V30 16111 O 1492.88 -1.83668 -3.57252 0
M  V30 16112 N 1491.08 -1.85621 -2.23591 0
M  V30 16113 H 1490.63 -2.16467 -1.39642 0
M  V30 16114 H 1490.59 -1.27015 -2.87602 0
M  V30 16115 N 1494.36 -0.113586 -1.5719 0
M  V30 16116 C 1495.29 0.835363 -2.18046 0
M  V30 16117 C 1496.27 1.28114 -1.11897 0
M  V30 16118 O 1497.46 1.34472 -1.40111 0
M  V30 16119 C 1494.59 2.08759 -2.77556 0
M  V30 16120 C 1493.54 1.77979 -3.8924 0
M  V30 16121 C 1492.87 3.10185 -4.35533 0
M  V30 16122 C 1494.17 1.05231 -5.11589 0
M  V30 16123 H 1495.86 0.328275 -2.97595 0
M  V30 16124 H 1493.41 0.156456 -1.43148 0
M  V30 16125 H 1495.36 2.75597 -3.18785 0
M  V30 16126 H 1494.08 2.61783 -1.95288 0
M  V30 16127 H 1492.74 1.13532 -3.48577 0
M  V30 16128 H 1492.39 3.61133 -3.50131 0
M  V30 16129 H 1492.09 2.90367 -5.10843 0
M  V30 16130 H 1493.61 3.78151 -4.7941 0
M  V30 16131 H 1495.03 1.62213 -5.49872 0
M  V30 16132 H 1493.42 0.955269 -5.92448 0
M  V30 16133 H 1494.49 0.038137 -4.84885 0
M  V30 16134 N 1495.84 1.56784 0.160173 0
M  V30 16135 C 1496.77 1.93848 1.22293 0
M  V30 16136 C 1497.78 0.832803 1.39886 0
M  V30 16137 O 1498.97 1.11124 1.39692 0
M  V30 16138 C 1496.07 2.18581 2.58989 0
M  V30 16139 C 1495.24 3.49839 2.62548 0
M  V30 16140 C 1494.3 3.63268 3.80687 0
M  V30 16141 O 1493.33 4.35785 3.6617 0
M  V30 16142 N 1494.53 2.98948 4.97605 0
M  V30 16143 H 1497.3 2.85614 0.908004 0
M  V30 16144 H 1494.86 1.58075 0.349851 0
M  V30 16145 H 1496.85 2.24819 3.36509 0
M  V30 16146 H 1495.42 1.33145 2.82827 0
M  V30 16147 H 1494.64 3.5516 1.7104 0
M  V30 16148 H 1495.93 4.3619 2.61945 0
M  V30 16149 H 1495.33 2.39924 5.12302 0
M  V30 16150 H 1493.88 3.10765 5.72947 0
M  V30 16151 N 1497.32 -0.429099 1.51646 0
M  V30 16152 C 1498.56 -1.17482 1.63954 0
M  V30 16153 C 1498.88 -1.92152 0.36565 0
M  V30 16154 O 1500.08 -2.68991 0.368221 0
M  V30 16155 C 1498.54 -2.13703 2.89585 0
M  V30 16156 C 1498.15 -1.44642 4.24008 0
M  V30 16157 C 1499.89 -2.88657 3.11252 0
M  V30 16158 C 1497.8 -2.39395 5.40781 0
M  V30 16159 H 1496.73 -0.442234 0.610692 0
M  V30 16160 H 1499.38 -0.441088 1.7812 0
M  V30 16161 H 1497.76 -2.90545 2.69071 0
M  V30 16162 H 1498.94 -0.733012 4.54932 0
M  V30 16163 H 1497.25 -0.818084 4.08285 0
M  V30 16164 H 1499.85 -3.59653 3.95669 0
M  V30 16165 H 1500.19 -3.50473 2.24664 0
M  V30 16166 H 1500.72 -2.18919 3.32144 0
M  V30 16167 H 1497.46 -1.82255 6.29653 0
M  V30 16168 H 1496.98 -3.08766 5.14222 0
M  V30 16169 H 1498.66 -3.0035 5.73061 0
M  V30 16170 N 1498.79 -1.41931 -0.685074 0
M  V30 16171 C 1499.76 -1.44315 -1.78061 0
M  V30 16172 C 1500.76 -0.332215 -1.57331 0
M  V30 16173 O 1501.95 -0.59258 -1.63811 0
M  V30 16174 C 1499.08 -1.26479 -3.16569 0
M  V30 16175 H 1500.27 -2.4185 -1.77337 0
M  V30 16176 H 1497.82 -1.28228 -0.893721 0
M  V30 16177 H 1498.56 -0.298259 -3.22926 0
M  V30 16178 H 1498.34 -2.06981 -3.33018 0
M  V30 16179 H 1499.83 -1.31006 -3.96519 0
M  V30 16180 N 1500.27 0.920374 -1.27933 0
M  V30 16181 C 1501.52 1.67131 -1.1487 0
M  V30 16182 C 1501.85 1.91816 0.303343 0
M  V30 16183 O 1501.13 1.51379 1.22125 0
M  V30 16184 C 1501.41 3.03332 -1.94066 0
M  V30 16185 C 1501.26 2.85842 -3.47296 0
M  V30 16186 C 1502.58 4.03773 -1.75087 0
M  V30 16187 H 1499.7 0.606537 -0.418666 0
M  V30 16188 H 1502.34 1.06755 -1.57173 0
M  V30 16189 H 1500.49 3.54869 -1.58116 0
M  V30 16190 H 1502.16 2.41367 -3.93115 0
M  V30 16191 H 1500.41 2.21035 -3.73264 0
M  V30 16192 H 1501.08 3.82535 -3.97958 0
M  V30 16193 H 1503.55 3.61274 -2.06447 0
M  V30 16194 H 1502.43 4.97048 -2.32882 0
M  V30 16195 H 1502.69 4.36512 -0.700665 0
M  V30 16196 N 1501.75 1.10074 1.1279 0
M  V30 16197 C 1503.03 0.753069 1.80522 0
M  V30 16198 C 1503.41 -0.760982 1.96907 0
M  V30 16199 O 1502.75 -1.68584 1.54245 0
M  V30 16200 C 1502.96 1.49982 3.15129 0
M  V30 16201 C 1504.31 1.66993 3.90382 0
M  V30 16202 O 1505.34 1.46289 3.24774 0
M  V30 16203 O 1504.2 2.01293 5.08078 0
M  V30 16204 H 1501.29 0.271277 0.781241 0
M  V30 16205 H 1503.84 1.20333 1.19658 0
M  V30 16206 H 1502.61 2.53043 2.98471 0
M  V30 16207 H 1502.23 1.04217 3.83699 0
M  V30 16208 N 1503.23 -1.30138 0.888926 0
M  V30 16209 C 1504.64 -1.48552 0.583486 0
M  V30 16210 C 1504.84 -1.81376 -0.877781 0
M  V30 16211 O 1503.9 -1.90374 -1.65873 0
M  V30 16212 C 1505.21 -2.60613 1.50004 0
M  V30 16213 C 1506.76 -2.74493 1.50409 0
M  V30 16214 C 1507.24 -3.89672 2.40666 0
M  V30 16215 N 1508.73 -3.96988 2.38652 0
M  V30 16216 C 1509.46 -4.85429 3.05199 0
M  V30 16217 N 1508.96 -5.78638 3.80985 0
M  V30 16218 N 1510.75 -4.78831 2.9441 0
M  V30 16219 H 1502.9 -1.07105 1.83418 0
M  V30 16220 H 1505.16 -0.530991 0.785336 0
M  V30 16221 H 1504.87 -2.43191 2.54069 0
M  V30 16222 H 1504.74 -3.5718 1.21254 0
M  V30 16223 H 1507.13 -2.91318 0.470933 0
M  V30 16224 H 1507.21 -1.78535 1.83191 0
M  V30 16225 H 1506.86 -3.73603 3.44069 0
M  V30 16226 H 1506.79 -4.84975 2.05198 0
M  V30 16227 H 1509.28 -3.30313 1.83581 0
M  V30 16228 H 1509.59 -6.42894 4.28844 0
M  V30 16229 H 1507.94 -5.78558 3.85092 0
M  V30 16230 H 1511.13 -4.04995 2.34727 0
M  V30 16231 H 1511.3 -5.47547 3.46549 0
M  V30 16232 N 1504.71 -0.650285 -1.43559 0
M  V30 16233 C 1505.64 0.0927934 -2.28011 0
M  V30 16234 C 1506.62 0.832739 -1.39657 0
M  V30 16235 O 1507.8 0.832912 -1.691 0
M  V30 16236 C 1504.93 1.13806 -3.19008 0
M  V30 16237 C 1503.97 0.496488 -4.236 0
M  V30 16238 S 1504.81 -0.727765 -5.30532 0
M  V30 16239 C 1505.96 0.317035 -6.25097 0
M  V30 16240 H 1506.2 -0.623605 -2.90686 0
M  V30 16241 H 1503.73 -0.439032 -1.48027 0
M  V30 16242 H 1505.69 1.73612 -3.7198 0
M  V30 16243 H 1504.35 1.82676 -2.55516 0
M  V30 16244 H 1503.54 1.28436 -4.87361 0
M  V30 16245 H 1503.14 -0.0273975 -3.7399 0
M  V30 16246 H 1505.43 1.18408 -6.67073 0
M  V30 16247 H 1506.38 -0.285468 -7.07524 0
M  V30 16248 H 1506.79 0.651527 -5.60728 0
M  V30 16249 N 1506.18 1.52647 -0.392018 0
M  V30 16250 C 1507.13 2.23336 0.458815 0
M  V30 16251 C 1508.12 1.23825 1.02743 0
M  V30 16252 O 1509.31 1.49148 0.953089 0
M  V30 16253 C 1506.44 3.04566 1.58412 0
M  V30 16254 C 1505.52 4.11474 1.02711 0
M  V30 16255 N 1505.92 5.05423 0.195282 0
M  V30 16256 C 1504.21 4.26654 1.29934 0
M  V30 16257 C 1504.91 5.81591 -0.112738 0
M  V30 16258 N 1503.89 5.4137 0.491926 0
M  V30 16259 H 1507.69 2.93328 -0.183222 0
M  V30 16260 H 1505.21 1.61145 -0.201476 0
M  V30 16261 H 1507.2 3.53747 2.2061 0
M  V30 16262 H 1505.86 2.36109 2.22896 0
M  V30 16263 H 1506.87 5.17628 -0.167677 0
M  V30 16264 H 1503.55 3.69426 1.94501 0
M  V30 16265 H 1504.94 6.67276 -0.786879 0
M  V30 16266 N 1507.66 0.121921 1.57128 0
M  V30 16267 C 1508.61 -0.827205 2.15467 0
M  V30 16268 C 1509.58 -1.26155 1.08047 0
M  V30 16269 O 1510.76 -1.33855 1.35969 0
M  V30 16270 C 1507.9 -2.07077 2.76067 0
M  V30 16271 C 1507.02 -1.68452 3.97804 0
M  V30 16272 C 1506.15 -2.87797 4.46482 0
M  V30 16273 C 1505.19 -2.45426 5.60743 0
M  V30 16274 N 1504.33 -3.57695 6.04151 0
M  V30 16275 H 1509.17 -0.322879 2.96246 0
M  V30 16276 H 1506.71 -0.147677 1.46357 0
M  V30 16277 H 1508.66 -2.79943 3.09335 0
M  V30 16278 H 1507.29 -2.54963 1.97974 0
M  V30 16279 H 1506.35 -0.854487 3.70679 0
M  V30 16280 H 1507.66 -1.33316 4.80654 0
M  V30 16281 H 1506.81 -3.68885 4.81673 0
M  V30 16282 H 1505.55 -3.26162 3.62587 0
M  V30 16283 H 1504.56 -1.62772 5.25153 0
M  V30 16284 H 1505.78 -2.08175 6.46405 0
M  V30 16285 H 1503.73 -3.95728 5.23197 0
M  V30 16286 H 1503.64 -3.26491 6.81865 0
M  V30 16287 H 1504.91 -4.39213 6.43981 0
M  V30 16288 N 1509.14 -1.56867 -0.151857 0
M  V30 16289 C 1510.39 -1.82721 -0.863575 0
M  V30 16290 C 1510.71 -0.702042 -1.81924 0
M  V30 16291 O 1509.98 0.27668 -1.93936 0
M  V30 16292 H 1508.56 -0.674088 -0.321893 0
M  V30 16293 H 1511.22 -1.94345 -0.14702 0
M  V30 16294 H 1510.32 -2.77476 -1.42876 0
M  V30 16295 N 1510.62 0.421051 -1.51871 0
M  V30 16296 C 1511.86 1.17082 -1.65589 0
M  V30 16297 C 1512.2 1.90469 -0.378861 0
M  V30 16298 O 1511.47 1.84277 0.622259 0
M  V30 16299 C 1511.76 2.17483 -2.87007 0
M  V30 16300 C 1511.61 1.48071 -4.24729 0
M  V30 16301 C 1512.93 3.18288 -3.03942 0
M  V30 16302 H 1510.05 0.424284 -0.602621 0
M  V30 16303 H 1512.69 0.457998 -1.84397 0
M  V30 16304 H 1510.84 2.78273 -2.71102 0
M  V30 16305 H 1512.51 0.904926 -4.52337 0
M  V30 16306 H 1510.75 0.782814 -4.26678 0
M  V30 16307 H 1511.42 2.21272 -5.0571 0
M  V30 16308 H 1513.9 2.67565 -3.18666 0
M  V30 16309 H 1512.78 3.85815 -3.90433 0
M  V30 16310 H 1513.04 3.85333 -2.16728 0
M  V30 16311 N 1512.1 1.42293 0.677538 0
M  V30 16312 C 1513.06 1.45258 1.77293 0
M  V30 16313 C 1514.06 0.340554 1.57152 0
M  V30 16314 O 1515.25 0.601259 1.63495 0
M  V30 16315 C 1512.38 1.28156 3.15894 0
M  V30 16316 H 1513.57 2.42787 1.76052 0
M  V30 16317 H 1511.13 1.287 0.886908 0
M  V30 16318 H 1511.86 0.315381 3.22763 0
M  V30 16319 H 1511.65 2.08744 3.31916 0
M  V30 16320 H 1513.14 1.33107 3.95818 0
M  V30 16321 N 1513.57 -0.913576 1.28419 0
M  V30 16322 C 1514.8 -1.69403 1.18263 0
M  V30 16323 C 1515.21 -1.87387 -0.26128 0
M  V30 16324 O 1514.56 -1.40082 -1.18839 0
M  V30 16325 C 1514.62 -3.1064 1.80951 0
M  V30 16326 C 1514.28 -3.15941 3.30198 0
M  V30 16327 C 1515.28 -2.97124 4.2663 0
M  V30 16328 C 1512.96 -3.38449 3.71157 0
M  V30 16329 C 1514.96 -3.00728 5.61998 0
M  V30 16330 C 1512.64 -3.41685 5.06651 0
M  V30 16331 C 1513.64 -3.22845 6.01881 0
M  V30 16332 O 1513.33 -3.25842 7.34903 0
M  V30 16333 H 1513.06 -0.536323 0.411502 0
M  V30 16334 H 1515.62 -1.15186 1.70063 0
M  V30 16335 H 1513.85 -3.664 1.23645 0
M  V30 16336 H 1515.54 -3.70712 1.6531 0
M  V30 16337 H 1516.3 -2.79562 3.96321 0
M  V30 16338 H 1512.18 -3.52158 2.97499 0
M  V30 16339 H 1515.72 -2.85941 6.36304 0
M  V30 16340 H 1511.62 -3.58775 5.3661 0
M  V30 16341 H 1512.39 -3.42203 7.43532 0
M  V30 16342 N 1515.05 -1.1067 -1.12204 0
M  V30 16343 C 1516.3 -0.85189 -1.8404 0
M  V30 16344 C 1516.63 0.620988 -1.84004 0
M  V30 16345 O 1515.91 1.45801 -1.28734 0
M  V30 16346 C 1516.19 -1.40401 -3.31602 0
M  V30 16347 C 1516.04 -2.94392 -3.40078 0
M  V30 16348 C 1517.36 -1.04834 -4.27432 0
M  V30 16349 H 1514.48 -0.310924 -0.668203 0
M  V30 16350 H 1517.12 -1.37026 -1.3162 0
M  V30 16351 H 1515.27 -0.963107 -3.76373 0
M  V30 16352 H 1516.94 -3.47027 -3.03924 0
M  V30 16353 H 1515.19 -3.3087 -2.80548 0
M  V30 16354 H 1515.86 -3.28107 -4.43903 0
M  V30 16355 H 1518.33 -1.42882 -3.90799 0
M  V30 16356 H 1517.21 -1.46153 -5.29085 0
M  V30 16357 H 1517.47 0.0419272 -4.4208 0
M  V30 16358 N 1516.53 1.29665 -0.895815 0
M  V30 16359 C 1517.48 2.27831 -0.369011 0
M  V30 16360 C 1518.45 1.56843 0.546756 0
M  V30 16361 O 1519.63 1.84848 0.472837 0
M  V30 16362 C 1516.77 3.42764 0.400884 0
M  V30 16363 C 1515.89 4.28544 -0.545335 0
M  V30 16364 C 1515.02 5.30652 0.241228 0
M  V30 16365 C 1514.06 6.08087 -0.699765 0
M  V30 16366 N 1513.2 7.02081 0.0521477 0
M  V30 16367 H 1518.04 2.72274 -1.21124 0
M  V30 16368 H 1515.57 1.33918 -0.608631 0
M  V30 16369 H 1517.53 4.08171 0.863277 0
M  V30 16370 H 1516.16 2.99361 1.2076 0
M  V30 16371 H 1515.21 3.63346 -1.12624 0
M  V30 16372 H 1516.53 4.82472 -1.26579 0
M  V30 16373 H 1515.68 6.01858 0.764994 0
M  V30 16374 H 1514.42 4.77446 0.994838 0
M  V30 16375 H 1513.42 5.35748 -1.23507 0
M  V30 16376 H 1514.65 6.63382 -1.45264 0
M  V30 16377 H 1512.59 6.51249 0.788096 0
M  V30 16378 H 1512.51 7.53547 -0.60847 0
M  V30 16379 H 1513.78 7.77512 0.556304 0
M  V30 16380 N 1518.01 0.657889 1.43212 0
M  V30 16381 C 1519.42 0.325876 1.56238 0
M  V30 16382 C 1519.62 -1.16975 1.6407 0
M  V30 16383 O 1518.68 -1.95473 1.59833 0
M  V30 16384 C 1519.99 1.04134 2.82093 0
M  V30 16385 C 1521.54 1.02204 2.95844 0
M  V30 16386 C 1522.02 1.71849 4.24537 0
M  V30 16387 N 1523.51 1.68635 4.31412 0
M  V30 16388 C 1524.24 2.19393 5.29768 0
M  V30 16389 N 1523.74 2.7846 6.34375 0
M  V30 16390 N 1525.53 2.09866 5.21452 0
M  V30 16391 H 1517.68 1.62839 1.36371 0
M  V30 16392 H 1519.95 0.685072 0.655271 0
M  V30 16393 H 1519.65 2.09647 2.82385 0
M  V30 16394 H 1519.53 0.595842 3.72464 0
M  V30 16395 H 1521.91 -0.0247029 2.9509 0
M  V30 16396 H 1521.99 1.50627 2.06749 0
M  V30 16397 H 1521.64 2.76482 4.26052 0
M  V30 16398 H 1521.57 1.20888 5.12536 0
M  V30 16399 H 1524.06 1.25536 3.56439 0
M  V30 16400 H 1524.37 3.14855 7.05752 0
M  V30 16401 H 1522.72 2.82523 6.34985 0
M  V30 16402 H 1525.91 1.63422 4.38647 0
M  V30 16403 H 1526.08 2.49732 5.97945 0
M  V30 16404 N 1519.49 -1.52437 0.400108 0
M  V30 16405 C 1520.43 -2.26763 -0.429799 0
M  V30 16406 C 1521.4 -1.28808 -1.0487 0
M  V30 16407 O 1522.59 -1.57655 -1.07468 0
M  V30 16408 C 1519.73 -3.08564 -1.54539 0
M  V30 16409 C 1518.84 -4.21463 -0.948294 0
M  V30 16410 C 1517.98 -4.9064 -2.03584 0
M  V30 16411 C 1517.02 -5.95515 -1.4152 0
M  V30 16412 N 1516.15 -6.58245 -2.4425 0
M  V30 16413 H 1520.99 -2.97256 0.210467 0
M  V30 16414 H 1518.53 -1.46645 0.115627 0
M  V30 16415 H 1520.49 -3.54289 -2.20307 0
M  V30 16416 H 1519.12 -2.40259 -2.15582 0
M  V30 16417 H 1518.17 -3.79974 -0.179918 0
M  V30 16418 H 1519.48 -4.96722 -0.454845 0
M  V30 16419 H 1518.64 -5.39724 -2.77097 0
M  V30 16420 H 1517.37 -4.14929 -2.56291 0
M  V30 16421 H 1516.38 -5.45759 -0.665354 0
M  V30 16422 H 1517.6 -6.73164 -0.89593 0
M  V30 16423 H 1515.55 -5.85369 -2.96107 0
M  V30 16424 H 1515.47 -7.2915 -1.99692 0
M  V30 16425 H 1516.74 -7.1197 -3.17362 0
M  V30 16426 N 1520.96 -0.130252 -1.57061 0
M  V30 16427 C 1522.21 0.52488 -1.94751 0
M  V30 16428 C 1522.53 1.67107 -1.0166 0
M  V30 16429 O 1523.73 2.38971 -1.28861 0
M  V30 16430 C 1522.19 0.985118 -3.46155 0
M  V30 16431 C 1521.8 -0.133222 -4.47802 0
M  V30 16432 C 1523.54 1.61099 -3.92743 0
M  V30 16433 C 1521.45 0.344346 -5.90397 0
M  V30 16434 H 1520.38 0.19985 -0.727032 0
M  V30 16435 H 1523.03 -0.211912 -1.82272 0
M  V30 16436 H 1521.41 1.77667 -3.53907 0
M  V30 16437 H 1522.58 -0.909784 -4.5173 0
M  V30 16438 H 1520.9 -0.666449 -4.11032 0
M  V30 16439 H 1523.5 1.97963 -4.96704 0
M  V30 16440 H 1523.84 2.49366 -3.3335 0
M  V30 16441 H 1524.37 0.884641 -3.87839 0
M  V30 16442 H 1521.11 -0.502547 -6.53571 0
M  V30 16443 H 1520.63 1.08714 -5.89865 0
M  V30 16444 H 1522.31 0.801885 -6.42012 0
M  V30 16445 N 1522.44 1.56945 0.143535 0
M  V30 16446 C 1523.67 1.87429 0.869139 0
M  V30 16447 C 1524.08 0.716856 1.75094 0
M  V30 16448 O 1523.42 -0.322379 1.80849 0
M  V30 16449 C 1523.49 3.12657 1.77442 0
M  V30 16450 C 1523.15 4.44311 1.06943 0
M  V30 16451 C 1524.15 5.18187 0.421706 0
M  V30 16452 C 1521.83 4.91033 1.05791 0
M  V30 16453 C 1523.83 6.36992 -0.228127 0
M  V30 16454 C 1521.51 6.09761 0.404266 0
M  V30 16455 C 1522.51 6.82587 -0.237621 0
M  V30 16456 O 1522.2 7.99059 -0.880893 0
M  V30 16457 H 1521.93 0.625443 0.256508 0
M  V30 16458 H 1524.49 2.04922 0.139979 0
M  V30 16459 H 1522.72 2.91181 2.54461 0
M  V30 16460 H 1524.4 3.29359 2.37228 0
M  V30 16461 H 1525.17 4.83157 0.422395 0
M  V30 16462 H 1521.05 4.3427 1.54694 0
M  V30 16463 H 1524.59 6.93773 -0.729732 0
M  V30 16464 H 1520.49 6.44252 0.401256 0
M  V30 16465 H 1521.26 8.14747 -0.782907 0
M  V30 16466 N 1523.92 -0.412991 1.52093 0
M  V30 16467 C 1524.83 -1.52768 1.78042 0
M  V30 16468 C 1525.85 -1.60758 0.665791 0
M  V30 16469 O 1527.02 -1.77545 0.950772 0
M  V30 16470 C 1524.09 -2.8854 1.92213 0
M  V30 16471 C 1523.15 -2.90468 3.16112 0
M  V30 16472 C 1522.38 -4.19763 3.29598 0
M  V30 16473 O 1522.61 -5.13454 2.48438 0
M  V30 16474 O 1521.54 -4.2847 4.22726 0
M  V30 16475 H 1525.37 -1.33777 2.72649 0
M  V30 16476 H 1522.95 -0.598461 1.3689 0
M  V30 16477 H 1524.83 -3.69073 2.03379 0
M  V30 16478 H 1523.51 -3.07607 1.00795 0
M  V30 16479 H 1522.41 -2.08801 3.10408 0
M  V30 16480 H 1523.75 -2.76349 4.07298 0
M  V30 16481 N 1525.4 -1.4265 -0.669982 0
M  V30 16482 C 1526.65 -1.43376 -1.43002 0
M  V30 16483 C 1526.97 -0.0519386 -1.94431 0
M  V30 16484 O 1526.23 0.940456 -1.71621 0
M  V30 16485 C 1526.53 -2.40913 -2.63999 0
M  V30 16486 C 1526.19 -3.87183 -2.31085 0
M  V30 16487 C 1524.86 -4.27024 -2.21819 0
M  V30 16488 C 1527.21 -4.79428 -2.04447 0
M  V30 16489 C 1524.54 -5.57084 -1.84049 0
M  V30 16490 C 1526.89 -6.09835 -1.68179 0
M  V30 16491 C 1525.55 -6.4867 -1.57428 0
M  V30 16492 H 1524.82 -0.524651 -0.52328 0
M  V30 16493 H 1527.47 -1.75622 -0.763494 0
M  V30 16494 H 1525.77 -2.02012 -3.35706 0
M  V30 16495 H 1527.47 -2.38737 -3.22189 0
M  V30 16496 H 1524.06 -3.55642 -2.392 0
M  V30 16497 H 1528.25 -4.49431 -2.10535 0
M  V30 16498 H 1523.5 -5.86029 -1.74298 0
M  V30 16499 H 1527.68 -6.80796 -1.46594 0
M  V30 16500 H 1525.3 -7.49358 -1.2793 0
M  V30 16501 N 1526.88 0.906753 -1.28902 0
M  V30 16502 C 1528.13 1.65119 -1.15839 0
M  V30 16503 C 1528.44 1.93426 0.290825 0
M  V30 16504 O 1529.65 2.66021 0.542678 0
M  V30 16505 C 1528.1 2.97492 -2.0255 0
M  V30 16506 C 1527.71 2.76807 -3.52253 0
M  V30 16507 C 1529.45 3.75393 -1.98192 0
M  V30 16508 C 1527.36 4.04863 -4.31091 0
M  V30 16509 H 1526.29 0.619409 -0.429939 0
M  V30 16510 H 1528.94 1.00567 -1.53488 0
M  V30 16511 H 1527.32 3.63217 -1.57763 0
M  V30 16512 H 1528.5 2.19719 -4.05044 0
M  V30 16513 H 1526.81 2.1231 -3.58209 0
M  V30 16514 H 1529.41 4.70325 -2.54358 0
M  V30 16515 H 1529.75 4.05074 -0.960267 0
M  V30 16516 H 1530.29 3.16498 -2.40985 0
M  V30 16517 H 1527.02 3.80353 -5.33865 0
M  V30 16518 H 1526.54 4.61537 -3.83072 0
M  V30 16519 H 1528.22 4.73066 -4.41381 0
M  V30 16520 N 1528.36 1.11264 1.11616 0
M  V30 16521 C 1529.29 0.727118 2.17361 0
M  V30 16522 C 1530.3 -0.240356 1.61016 0
M  V30 16523 O 1531.49 -0.0235265 1.78484 0
M  V30 16524 C 1528.59 0.05361 3.38858 0
M  V30 16525 C 1527.76 1.04744 4.24673 0
M  V30 16526 C 1526.82 0.403827 5.24648 0
M  V30 16527 O 1525.85 1.0572 5.59296 0
M  V30 16528 N 1527.05 -0.834071 5.74477 0
M  V30 16529 H 1529.81 1.63696 2.51045 0
M  V30 16530 H 1527.38 1.00261 1.2712 0
M  V30 16531 H 1529.37 -0.388643 4.0283 0
M  V30 16532 H 1527.94 -0.758778 3.03251 0
M  V30 16533 H 1527.16 1.6677 3.57185 0
M  V30 16534 H 1528.45 1.71988 4.7885 0
M  V30 16535 H 1527.84 -1.3841 5.48506 0
M  V30 16536 H 1526.4 -1.21933 6.40293 0
M  V30 16537 N 1529.83 -1.29188 0.902679 0
M  V30 16538 C 1530.77 -2.26665 0.339964 0
M  V30 16539 C 1531.78 -1.54426 -0.515396 0
M  V30 16540 O 1532.97 -1.75384 -0.332071 0
M  V30 16541 C 1530.07 -3.34672 -0.533653 0
M  V30 16542 C 1529.24 -4.36393 0.296661 0
M  V30 16543 C 1528.3 -5.2372 -0.510264 0
M  V30 16544 O 1527.33 -5.69153 0.0732871 0
M  V30 16545 N 1528.53 -5.51373 -1.81572 0
M  V30 16546 H 1531.29 -2.75588 1.17778 0
M  V30 16547 H 1528.85 -1.42553 0.767474 0
M  V30 16548 H 1530.85 -3.90025 -1.07995 0
M  V30 16549 H 1529.42 -2.85543 -1.27216 0
M  V30 16550 H 1528.64 -3.80658 1.02436 0
M  V30 16551 H 1529.92 -5.0139 0.865191 0
M  V30 16552 H 1529.32 -5.16275 -2.31251 0
M  V30 16553 H 1527.88 -6.09528 -2.30908 0
M  V30 16554 N 1531.31 -0.665475 -1.42861 0
M  V30 16555 C 1532.54 -0.190399 -2.06524 0
M  V30 16556 C 1532.96 1.13995 -1.49622 0
M  V30 16557 O 1532.32 1.70695 -0.610981 0
M  V30 16558 C 1532.37 -0.12594 -3.6038 0
M  V30 16559 O 1531.47 0.908299 -4.02273 0
M  V30 16560 H 1530.81 -0.100495 -0.656351 0
M  V30 16561 H 1533.34 -0.911858 -1.83156 0
M  V30 16562 H 1533.35 0.0533153 -4.07965 0
M  V30 16563 H 1532.03 -1.09703 -4.01171 0
M  V30 16564 H 1530.6 0.700841 -3.66255 0
M  V30 16565 N 1532.79 1.52222 -0.408187 0
M  V30 16566 C 1534.04 2.01803 0.167905 0
M  V30 16567 C 1534.36 1.29385 1.45223 0
M  V30 16568 O 1533.62 0.388383 1.91807 0
M  V30 16569 C 1533.92 3.54384 0.463353 0
M  V30 16570 C 1533.58 4.44924 -0.731665 0
M  V30 16571 C 1532.25 4.69392 -1.05946 0
M  V30 16572 C 1534.6 4.9823 -1.53023 0
M  V30 16573 C 1531.93 5.44414 -2.18702 0
M  V30 16574 C 1534.28 5.74486 -2.64855 0
M  V30 16575 C 1532.94 5.97227 -2.98121 0
M  V30 16576 H 1532.21 0.738448 0.0614409 0
M  V30 16577 H 1534.86 1.83449 -0.549412 0
M  V30 16578 H 1533.16 3.70911 1.26223 0
M  V30 16579 H 1534.86 3.90256 0.922042 0
M  V30 16580 H 1531.45 4.26057 -0.4662 0
M  V30 16581 H 1535.64 4.79236 -1.29022 0
M  V30 16582 H 1530.89 5.60242 -2.44824 0
M  V30 16583 H 1535.07 6.14788 -3.27122 0
M  V30 16584 H 1532.69 6.5514 -3.8561 0
M  V30 16585 N 1534.27 0.138579 1.5699 0
M  V30 16586 C 1535.52 -0.514545 1.95026 0
M  V30 16587 C 1535.83 -1.66565 1.02544 0
M  V30 16588 O 1537.04 -2.38284 1.30126 0
M  V30 16589 C 1535.49 -0.966746 3.46673 0
M  V30 16590 C 1535.1 0.156969 4.47725 0
M  V30 16591 C 1536.84 -1.59014 3.93592 0
M  V30 16592 C 1534.75 -0.313031 5.90571 0
M  V30 16593 H 1533.68 -0.195991 0.728082 0
M  V30 16594 H 1536.33 0.221575 1.82157 0
M  V30 16595 H 1534.71 -1.75788 3.54845 0
M  V30 16596 H 1535.89 0.933728 4.51241 0
M  V30 16597 H 1534.2 0.688238 4.10673 0
M  V30 16598 H 1536.8 -1.95326 4.97747 0
M  V30 16599 H 1537.14 -2.47595 3.34668 0
M  V30 16600 H 1537.68 -0.864061 3.88302 0
M  V30 16601 H 1534.41 0.5372 6.53295 0
M  V30 16602 H 1533.93 -1.05585 5.90434 0
M  V30 16603 H 1535.61 -0.767826 6.42428 0
M  V30 16604 N 1535.75 -1.57019 -0.13521 0
M  V30 16605 C 1537.16 -1.51949 -0.48824 0
M  V30 16606 C 1537.36 -0.848955 -1.82743 0
M  V30 16607 O 1536.42 -0.424441 -2.48907 0
M  V30 16608 C 1537.73 -2.96719 -0.487673 0
M  V30 16609 C 1539.28 -3.07722 -0.572365 0
M  V30 16610 C 1539.75 -4.54022 -0.602347 0
M  V30 16611 N 1541.24 -4.58413 -0.664242 0
M  V30 16612 C 1541.98 -5.69005 -0.70862 0
M  V30 16613 N 1541.48 -6.89135 -0.711626 0
M  V30 16614 N 1543.27 -5.57069 -0.750399 0
M  V30 16615 H 1535.42 -1.99001 0.742465 0
M  V30 16616 H 1537.68 -0.908116 0.272083 0
M  V30 16617 H 1537.39 -3.49082 0.428363 0
M  V30 16618 H 1537.26 -3.53299 -1.32136 0
M  V30 16619 H 1539.65 -2.55372 -1.47882 0
M  V30 16620 H 1539.73 -2.54166 0.288696 0
M  V30 16621 H 1539.37 -5.07013 0.3 0
M  V30 16622 H 1539.3 -5.05373 -1.48006 0
M  V30 16623 H 1541.8 -3.71936 -0.668739 0
M  V30 16624 H 1542.11 -7.69175 -0.747663 0
M  V30 16625 H 1540.45 -6.91672 -0.679311 0
M  V30 16626 H 1543.64 -4.62129 -0.745301 0
M  V30 16627 H 1543.82 -6.4327 -0.781518 0
M  V30 16628 N 1537.22 0.404919 -1.52309 0
M  V30 16629 C 1538.17 1.49363 -1.75953 0
M  V30 16630 C 1539.14 1.54802 -0.60212 0
M  V30 16631 O 1540.33 1.71308 -0.840128 0
M  V30 16632 C 1537.47 2.86767 -1.91987 0
M  V30 16633 C 1536.58 2.90603 -3.19646 0
M  V30 16634 C 1535.71 4.19333 -3.26088 0
M  V30 16635 C 1534.75 4.17161 -4.47932 0
M  V30 16636 N 1533.89 5.37469 -4.51743 0
M  V30 16637 H 1538.73 1.28503 -2.6887 0
M  V30 16638 H 1536.27 0.623684 -1.33224 0
M  V30 16639 H 1538.23 3.66536 -1.99267 0
M  V30 16640 H 1536.86 3.06112 -1.02447 0
M  V30 16641 H 1535.91 2.033 -3.21517 0
M  V30 16642 H 1537.22 2.84864 -4.09456 0
M  V30 16643 H 1536.37 5.07497 -3.32463 0
M  V30 16644 H 1535.11 4.27774 -2.34224 0
M  V30 16645 H 1534.12 3.27386 -4.417 0
M  V30 16646 H 1535.34 4.10356 -5.41096 0
M  V30 16647 H 1533.29 5.46569 -3.62764 0
M  V30 16648 H 1533.21 5.3374 -5.35404 0
M  V30 16649 H 1534.47 6.27575 -4.62353 0
M  V30 16650 N 1538.7 1.43003 0.662408 0
M  V30 16651 C 1539.63 1.43407 1.78793 0
M  V30 16652 C 1540.65 0.331423 1.59391 0
M  V30 16653 O 1541.84 0.595291 1.68281 0
M  V30 16654 C 1538.94 1.22239 3.16087 0
M  V30 16655 C 1538.11 2.4517 3.6223 0
M  V30 16656 C 1537.17 2.19362 4.78296 0
M  V30 16657 O 1536.19 2.92651 4.88205 0
M  V30 16658 N 1537.4 1.20449 5.67866 0
M  V30 16659 H 1540.16 2.40426 1.78928 0
M  V30 16660 H 1537.72 1.38042 0.845936 0
M  V30 16661 H 1539.71 1.02871 3.91407 0
M  V30 16662 H 1538.28 0.336983 3.10778 0
M  V30 16663 H 1537.5 2.80024 2.77453 0
M  V30 16664 H 1538.79 3.27003 3.89803 0
M  V30 16665 H 1538.19 0.598577 5.62524 0
M  V30 16666 H 1536.75 1.07066 6.42946 0
M  V30 16667 N 1540.18 -0.899904 1.29381 0
M  V30 16668 C 1541.13 -2.004 1.14493 0
M  V30 16669 C 1542.1 -1.66056 0.0383099 0
M  V30 16670 O 1543.28 -1.89687 0.20579 0
M  V30 16671 C 1540.42 -3.35039 0.827237 0
M  V30 16672 C 1539.54 -3.82166 2.01427 0
M  V30 16673 C 1538.67 -5.0538 1.63598 0
M  V30 16674 C 1537.71 -5.44876 2.78884 0
M  V30 16675 N 1536.85 -6.59276 2.41452 0
M  V30 16676 H 1541.69 -2.12466 2.08955 0
M  V30 16677 H 1539.22 -1.0405 1.03981 0
M  V30 16678 H 1541.18 -4.12511 0.62373 0
M  V30 16679 H 1539.81 -3.227 -0.0804772 0
M  V30 16680 H 1538.86 -3.00731 2.32949 0
M  V30 16681 H 1540.18 -4.07387 2.87814 0
M  V30 16682 H 1539.33 -5.90436 1.39534 0
M  V30 16683 H 1538.07 -4.81998 0.743593 0
M  V30 16684 H 1537.07 -4.58355 3.0363 0
M  V30 16685 H 1538.3 -5.7024 3.68786 0
M  V30 16686 H 1536.24 -6.37498 1.54701 0
M  V30 16687 H 1536.16 -6.84293 3.21372 0
M  V30 16688 H 1537.43 -7.47602 2.20708 0
M  V30 16689 N 1541.66 -1.11854 -1.11024 0
M  V30 16690 C 1542.91 -0.864814 -1.82219 0
M  V30 16691 C 1543.22 0.611349 -1.85801 0
M  V30 16692 O 1544.43 0.981475 -2.53139 0
M  V30 16693 C 1542.88 -1.49745 -3.27268 0
M  V30 16694 C 1542.49 -3.00796 -3.32003 0
M  V30 16695 C 1544.23 -1.32374 -4.03333 0
M  V30 16696 C 1542.14 -3.57023 -4.71475 0
M  V30 16697 H 1541.07 -0.319877 -0.682784 0
M  V30 16698 H 1543.72 -1.34431 -1.24903 0
M  V30 16699 H 1542.1 -0.94562 -3.84544 0
M  V30 16700 H 1543.28 -3.6242 -2.84585 0
M  V30 16701 H 1541.59 -3.17493 -2.6942 0
M  V30 16702 H 1544.19 -1.7181 -5.06345 0
M  V30 16703 H 1544.53 -0.26676 -4.15444 0
M  V30 16704 H 1545.07 -1.84444 -3.52456 0
M  V30 16705 H 1541.81 -4.62453 -4.64562 0
M  V30 16706 H 1541.33 -3.00172 -5.19285 0
M  V30 16707 H 1543 -3.5572 -5.40437 0
M  V30 16708 N 1543.14 1.28707 -0.909517 0
M  V30 16709 C 1544.07 2.29845 -0.411552 0
M  V30 16710 C 1545.05 1.62001 0.518615 0
M  V30 16711 O 1546.23 1.89442 0.427252 0
M  V30 16712 C 1543.36 3.45501 0.353013 0
M  V30 16713 C 1542.32 4.25213 -0.487625 0
M  V30 16714 C 1541.64 5.33164 0.405026 0
M  V30 16715 C 1542.94 4.9237 -1.74268 0
M  V30 16716 H 1544.64 2.71746 -1.25676 0
M  V30 16717 H 1542.18 1.30639 -0.605759 0
M  V30 16718 H 1544.14 4.15338 0.712191 0
M  V30 16719 H 1542.86 3.02469 1.23209 0
M  V30 16720 H 1541.52 3.57098 -0.829265 0
M  V30 16721 H 1541.17 4.86375 1.28252 0
M  V30 16722 H 1540.87 5.87399 -0.153811 0
M  V30 16723 H 1542.39 6.0585 0.760179 0
M  V30 16724 H 1543.8 5.5459 -1.45266 0
M  V30 16725 H 1542.2 5.56581 -2.2436 0
M  V30 16726 H 1543.27 4.171 -2.47297 0
M  V30 16727 N 1544.61 0.673042 1.42506 0
M  V30 16728 C 1545.89 0.123606 1.95209 0
M  V30 16729 C 1546.27 -1.36118 1.61354 0
M  V30 16730 O 1545.62 -2.0965 0.908793 0
M  V30 16731 C 1545.83 0.39088 3.46804 0
M  V30 16732 C 1547.18 0.306445 4.23493 0
M  V30 16733 O 1548.2 0.32453 3.54719 0
M  V30 16734 O 1547.06 0.247127 5.45941 0
M  V30 16735 H 1544.15 0.00184868 0.826998 0
M  V30 16736 H 1546.7 0.74765 1.52343 0
M  V30 16737 H 1545.47 1.41951 3.64645 0
M  V30 16738 H 1545.1 -0.265259 3.96714 0
M  V30 16739 N 1546.09 -1.52004 0.416254 0
M  V30 16740 C 1547 -2.30947 -0.412403 0
M  V30 16741 C 1548.02 -1.38969 -1.04707 0
M  V30 16742 O 1549.19 -1.72044 -1.04703 0
M  V30 16743 C 1546.26 -3.12078 -1.51024 0
M  V30 16744 C 1545.32 -4.19805 -0.897892 0
M  V30 16745 C 1544.55 -4.97059 -1.94341 0
M  V30 16746 O 1544.78 -4.74695 -3.16261 0
M  V30 16747 O 1543.71 -5.81715 -1.54567 0
M  V30 16748 H 1547.54 -3.02817 0.231473 0
M  V30 16749 H 1545.12 -1.4832 0.179283 0
M  V30 16750 H 1547 -3.6258 -2.14741 0
M  V30 16751 H 1545.68 -2.42995 -2.13858 0
M  V30 16752 H 1544.59 -3.73433 -0.223236 0
M  V30 16753 H 1545.92 -4.91201 -0.31336 0
M  V30 16754 N 1547.57 -0.146903 -1.56914 0
M  V30 16755 C 1548.82 0.504195 -1.95297 0
M  V30 16756 C 1549.13 1.66019 -1.03426 0
M  V30 16757 O 1550.34 2.37591 -1.31388 0
M  V30 16758 C 1548.79 0.948348 -3.47181 0
M  V30 16759 C 1548.4 -0.18071 -4.47635 0
M  V30 16760 C 1550.15 1.56924 -3.9443 0
M  V30 16761 C 1548.05 0.281707 -5.90729 0
M  V30 16762 H 1546.98 0.192127 -0.729111 0
M  V30 16763 H 1549.63 -0.231232 -1.82037 0
M  V30 16764 H 1548.02 1.73903 -3.55772 0
M  V30 16765 H 1549.19 -0.957645 -4.50739 0
M  V30 16766 H 1547.51 -0.710007 -4.10302 0
M  V30 16767 H 1550.1 1.92684 -4.98776 0
M  V30 16768 H 1550.45 2.45816 -3.35976 0
M  V30 16769 H 1550.98 0.843456 -3.88755 0
M  V30 16770 H 1547.72 -0.571839 -6.53001 0
M  V30 16771 H 1547.24 1.02452 -5.90985 0
M  V30 16772 H 1548.92 0.733746 -6.42826 0
M  V30 16773 N 1549.05 1.57088 0.126881 0
M  V30 16774 C 1550 1.99764 1.15599 0
M  V30 16775 C 1550.97 0.868468 1.41587 0
M  V30 16776 O 1552.15 1.13209 1.53585 0
M  V30 16777 C 1549.29 2.40038 2.47943 0
M  V30 16778 C 1548.4 3.66336 2.28958 0
M  V30 16779 C 1547.54 3.95626 3.54477 0
M  V30 16780 C 1546.58 5.15131 3.30616 0
M  V30 16781 N 1545.71 5.4033 4.48317 0
M  V30 16782 H 1550.55 2.87473 0.785078 0
M  V30 16783 H 1548.09 1.42209 0.376169 0
M  V30 16784 H 1550.05 2.61423 3.25136 0
M  V30 16785 H 1548.68 1.55382 2.82942 0
M  V30 16786 H 1547.73 3.52612 1.4272 0
M  V30 16787 H 1549.04 4.53684 2.07298 0
M  V30 16788 H 1548.2 4.17617 4.40092 0
M  V30 16789 H 1546.94 3.06738 3.79161 0
M  V30 16790 H 1545.94 4.92992 2.43391 0
M  V30 16791 H 1547.17 6.05588 3.0731 0
M  V30 16792 H 1545.11 4.54399 4.73136 0
M  V30 16793 H 1545.03 6.21985 4.29733 0
M  V30 16794 H 1546.3 5.66835 5.35088 0
M  V30 16795 N 1550.53 -0.396836 1.52522 0
M  V30 16796 C 1551.94 -0.975124 1.59211 0
M  V30 16797 C 1552.29 -1.91199 0.440138 0
M  V30 16798 O 1551.41 -2.11924 -0.437856 0
M  V30 16799 C 1552.01 -1.77531 2.88562 0
M  V30 16800 C 1550.57 -2.30343 2.9769 0
M  V30 16801 C 1549.71 -1.10671 2.54258 0
M  V30 16802 H 1552.67 -0.176646 1.57714 0
M  V30 16803 H 1552.69 -2.63384 2.74607 0
M  V30 16804 H 1552.2 -1.09318 3.72386 0
M  V30 16805 H 1550.3 -3.01891 2.18387 0
M  V30 16806 H 1550.41 -2.60366 4.02177 0
M  V30 16807 H 1548.78 -1.46439 2.08393 0
M  V30 16808 H 1549.56 -0.440061 3.40468 0
M  V30 16809 N 1552.01 -1.43353 -0.654814 0
M  V30 16810 C 1552.94 -1.51194 -1.7794 0
M  V30 16811 C 1553.92 -0.366747 -1.66099 0
M  V30 16812 O 1555.1 -0.58375 -1.85219 0
M  V30 16813 C 1552.23 -1.43298 -3.16359 0
M  V30 16814 C 1551.19 -2.5605 -3.42961 0
M  V30 16815 C 1550.51 -2.33208 -4.81163 0
M  V30 16816 C 1551.81 -3.98303 -3.37864 0
M  V30 16817 H 1553.51 -2.4532 -1.71635 0
M  V30 16818 H 1551.05 -1.18072 -0.824319 0
M  V30 16819 H 1553 -1.47388 -3.94784 0
M  V30 16820 H 1551.73 -0.456761 -3.2339 0
M  V30 16821 H 1550.39 -2.5131 -2.66906 0
M  V30 16822 H 1550.04 -1.33833 -4.84869 0
M  V30 16823 H 1549.74 -3.08789 -4.99923 0
M  V30 16824 H 1551.26 -2.39079 -5.61848 0
M  V30 16825 H 1552.67 -4.04538 -4.06229 0
M  V30 16826 H 1551.07 -4.73897 -3.6816 0
M  V30 16827 H 1552.14 -4.23552 -2.36075 0
M  V30 16828 N 1553.48 0.89303 -1.29857 0
M  V30 16829 C 1554.76 1.62492 -1.08884 0
M  V30 16830 C 1555.14 2.07926 0.364695 0
M  V30 16831 O 1554.49 1.84009 1.35473 0
M  V30 16832 C 1554.7 2.80063 -2.08245 0
M  V30 16833 C 1556.05 3.50589 -2.39526 0
M  V30 16834 O 1557.07 2.90241 -2.06492 0
M  V30 16835 O 1555.93 4.59399 -2.95998 0
M  V30 16836 H 1553.02 0.713805 -0.417626 0
M  V30 16837 H 1555.57 0.940513 -1.41253 0
M  V30 16838 H 1554.34 2.43735 -3.06119 0
M  V30 16839 H 1553.96 3.56205 -1.76645 0
M  V30 16840 N 1554.96 1.12442 1.10429 0
M  V30 16841 C 1556.24 0.791191 1.78884 0
M  V30 16842 C 1556.62 -0.719044 1.98477 0
M  V30 16843 O 1555.97 -1.65275 1.57786 0
M  V30 16844 C 1556.18 1.56632 3.11877 0
M  V30 16845 C 1557.52 1.75236 3.86752 0
M  V30 16846 O 1558.55 1.53145 3.21598 0
M  V30 16847 O 1557.41 2.12025 5.03694 0
M  V30 16848 H 1554.5 0.287788 0.775311 0
M  V30 16849 H 1557.05 1.22844 1.17078 0
M  V30 16850 H 1555.82 2.59317 2.93037 0
M  V30 16851 H 1555.44 1.12332 3.81402 0
M  V30 16852 N 1556.44 -1.28223 0.91633 0
M  V30 16853 C 1557.37 -2.29623 0.423735 0
M  V30 16854 C 1558.35 -1.62274 -0.510016 0
M  V30 16855 O 1559.54 -1.89666 -0.4172 0
M  V30 16856 C 1556.67 -3.45684 -0.334686 0
M  V30 16857 C 1555.62 -4.24949 0.510169 0
M  V30 16858 C 1554.95 -5.33371 -0.376745 0
M  V30 16859 C 1556.25 -4.91438 1.76877 0
M  V30 16860 H 1557.94 -2.71076 1.27115 0
M  V30 16861 H 1555.49 -1.30316 0.612678 0
M  V30 16862 H 1557.44 -4.1571 -0.690154 0
M  V30 16863 H 1556.16 -3.03118 -1.21603 0
M  V30 16864 H 1554.82 -3.56653 0.848191 0
M  V30 16865 H 1554.47 -4.87048 -1.25671 0
M  V30 16866 H 1554.17 -5.87309 0.18496 0
M  V30 16867 H 1555.69 -6.06244 -0.728039 0
M  V30 16868 H 1557.11 -5.53812 1.48205 0
M  V30 16869 H 1555.5 -5.55384 2.27308 0
M  V30 16870 H 1556.57 -4.15783 2.49505 0
M  V30 16871 N 1557.92 -0.68059 -1.42147 0
M  V30 16872 C 1558.87 0.00572503 -2.32599 0
M  V30 16873 C 1559.86 0.784449 -1.50142 0
M  V30 16874 O 1561.07 0.69176 -1.66177 0
M  V30 16875 H 1557.44 0.0206483 -0.751716 0
M  V30 16876 H 1559.41 -0.774447 -2.88175 0
M  V30 16877 C 1558.16 0.939019 -3.3478 0
M  V30 16878 H 1557.48 0.349225 -3.98272 0
M  V30 16879 H 1558.92 1.38782 -4.00644 0
M  V30 16880 C 1557.38 2.04814 -2.67493 0
M  V30 16881 O 1557.91 3.13526 -2.51126 0
M  V30 16882 N 1556.12 1.82153 -2.26426 0
M  V30 16883 H 1555.67 0.93743 -2.39938 0
M  V30 16884 H 1555.62 2.56551 -1.81738 0
M  V30 16885 N 1559.4 1.51781 -0.424309 0
M  V30 16886 C 1560.34 2.2899 0.408193 0
M  V30 16887 C 1561.34 1.34301 1.03246 0
M  V30 16888 O 1562.54 1.51697 0.968919 0
M  V30 16889 H 1558.92 0.736799 0.150435 0
M  V30 16890 H 1560.89 2.9723 -0.264022 0
M  V30 16891 C 1559.64 3.13477 1.50425 0
M  V30 16892 H 1558.96 3.86218 1.03324 0
M  V30 16893 H 1560.4 3.7058 2.06026 0
M  V30 16894 C 1558.86 2.2801 2.48018 0
M  V30 16895 O 1559.39 1.93076 3.52257 0
M  V30 16896 N 1557.6 1.91484 2.18591 0
M  V30 16897 H 1557.14 2.20093 1.33854 0
M  V30 16898 H 1557.1 1.34595 2.84133 0
M  V30 16899 N 1560.87 0.155222 1.56834 0
M  V30 16900 C 1561.82 -0.781315 2.17173 0
M  V30 16901 C 1562.79 -1.23835 1.10699 0
M  V30 16902 O 1563.98 -1.3094 1.38778 0
M  V30 16903 C 1561.12 -2.01174 2.80398 0
M  V30 16904 C 1560.23 -1.59976 4.01287 0
M  V30 16905 C 1559.36 -2.78262 4.52486 0
M  V30 16906 C 1558.4 -2.33477 5.65822 0
M  V30 16907 N 1557.54 -3.44799 6.11603 0
M  V30 16908 H 1562.38 -0.259968 2.96864 0
M  V30 16909 H 1559.92 -0.116599 1.46637 0
M  V30 16910 H 1561.87 -2.73318 3.15203 0
M  V30 16911 H 1560.5 -2.50706 2.03338 0
M  V30 16912 H 1559.56 -0.775668 3.72408 0
M  V30 16913 H 1560.87 -1.2309 4.83374 0
M  V30 16914 H 1560.02 -3.58585 4.89389 0
M  V30 16915 H 1558.76 -3.18398 3.69424 0
M  V30 16916 H 1557.77 -1.51596 5.28487 0
M  V30 16917 H 1558.99 -1.94417 6.50676 0
M  V30 16918 H 1556.94 -3.84541 5.31474 0
M  V30 16919 H 1556.85 -3.11955 6.88637 0
M  V30 16920 H 1558.12 -4.25454 6.53153 0
M  V30 16921 N 1562.35 -1.57153 -0.118549 0
M  V30 16922 C 1563.3 -2.00374 -1.14538 0
M  V30 16923 C 1564.27 -0.875964 -1.41124 0
M  V30 16924 O 1565.45 -1.14022 -1.52982 0
M  V30 16925 C 1562.59 -2.4135 -2.46666 0
M  V30 16926 C 1561.71 -3.67545 -2.27012 0
M  V30 16927 C 1560.84 -3.975 -3.52374 0
M  V30 16928 C 1559.88 -5.16877 -3.27879 0
M  V30 16929 N 1559.02 -5.427 -4.45445 0
M  V30 16930 H 1563.86 -2.87885 -0.769821 0
M  V30 16931 H 1561.39 -1.42406 -0.368622 0
M  V30 16932 H 1563.35 -2.63144 -3.23745 0
M  V30 16933 H 1561.98 -1.5688 -2.82114 0
M  V30 16934 H 1561.03 -3.53364 -1.40848 0
M  V30 16935 H 1562.35 -4.54777 -2.04889 0
M  V30 16936 H 1561.5 -4.19945 -4.37871 0
M  V30 16937 H 1560.24 -3.08745 -3.77529 0
M  V30 16938 H 1559.24 -4.94276 -2.40773 0
M  V30 16939 H 1560.47 -6.0721 -3.04094 0
M  V30 16940 H 1558.42 -4.56902 -4.70719 0
M  V30 16941 H 1558.33 -6.24256 -4.26428 0
M  V30 16942 H 1559.6 -5.69664 -5.32074 0
M  V30 16943 N 1563.83 0.388742 -1.5273 0
M  V30 16944 C 1565.11 1.14799 -1.58368 0
M  V30 16945 C 1565.49 2.07706 -0.377018 0
M  V30 16946 O 1564.83 2.1951 0.634634 0
M  V30 16947 C 1565.04 1.90745 -2.92262 0
M  V30 16948 C 1566.39 2.46098 -3.46007 0
M  V30 16949 O 1567.42 2.00901 -2.94138 0
M  V30 16950 O 1566.28 3.28658 -4.3663 0
M  V30 16951 H 1563.37 0.52529 -0.638748 0
M  V30 16952 H 1565.92 0.393874 -1.65066 0
M  V30 16953 H 1564.69 1.22806 -3.7153 0
M  V30 16954 H 1564.31 2.73118 -2.88951 0
M  V30 16955 N 1565.31 1.43698 0.647203 0
M  V30 16956 C 1566.53 1.49301 1.43958 0
M  V30 16957 C 1566.96 0.11395 1.87755 0
M  V30 16958 O 1566.32 -0.893571 1.5775 0
M  V30 16959 C 1566.36 2.44905 2.64677 0
M  V30 16960 O 1565.47 1.93947 3.63948 0
M  V30 16961 H 1564.81 0.504771 0.431396 0
M  V30 16962 H 1567.34 1.88673 0.791432 0
M  V30 16963 H 1567.35 2.62409 3.12419 0
M  V30 16964 H 1566.02 3.45083 2.32143 0
M  V30 16965 H 1564.6 1.86133 3.23124 0
M  V30 16966 N 1566.79 -0.886131 1.30328 0
M  V30 16967 C 1568.03 -1.652 1.20367 0
M  V30 16968 C 1568.39 -1.90518 -0.238093 0
M  V30 16969 O 1569.59 -2.64819 -0.460926 0
M  V30 16970 C 1567.86 -2.95645 2.00821 0
M  V30 16971 S 1569.42 -3.86614 2.07545 0
M  V30 16972 H 1566.24 -0.567015 0.428969 0
M  V30 16973 H 1568.84 -1.05189 1.64789 0
M  V30 16974 H 1567.55 -2.74942 3.04688 0
M  V30 16975 H 1567.08 -3.6069 1.57056 0
M  V30 16976 H 1569.09 -4.81421 1.20199 0
M  V30 16977 N 1568.26 -1.13026 -1.09832 0
M  V30 16978 C 1569.2 -0.747512 -2.1561 0
M  V30 16979 C 1570.18 0.2643 -1.60438 0
M  V30 16980 O 1571.36 0.156784 -1.87847 0
M  V30 16981 C 1568.49 -0.107449 -3.3853 0
M  V30 16982 C 1567.53 -1.08709 -4.12413 0
M  V30 16983 S 1568.37 -2.6176 -4.67164 0
M  V30 16984 C 1569.52 -1.99102 -5.93388 0
M  V30 16985 H 1569.75 -1.6435 -2.47743 0
M  V30 16986 H 1567.29 -0.949978 -1.21716 0
M  V30 16987 H 1569.25 0.255456 -4.09704 0
M  V30 16988 H 1567.91 0.765741 -3.04623 0
M  V30 16989 H 1567.1 -0.58698 -5.0057 0
M  V30 16990 H 1566.7 -1.39325 -3.4708 0
M  V30 16991 H 1568.99 -1.33755 -6.64166 0
M  V30 16992 H 1569.94 -2.85323 -6.48071 0
M  V30 16993 H 1570.34 -1.44429 -5.45711 0
M  V30 16994 N 1569.74 1.27735 -0.923117 0
M  V30 16995 C 1570.97 1.9922 -0.57672 0
M  V30 16996 C 1571.39 1.68446 0.837113 0
M  V30 16997 O 1570.75 0.922129 1.56098 0
M  V30 16998 C 1570.8 3.51528 -0.803768 0
M  V30 16999 O 1569.9 4.12186 0.132829 0
M  V30 17000 H 1569.24 0.625593 -0.222553 0
M  V30 17001 H 1571.77 1.62657 -1.24112 0
M  V30 17002 H 1571.78 4.01641 -0.717534 0
M  V30 17003 H 1570.46 3.7326 -1.83439 0
M  V30 17004 H 1569.04 3.729 -0.00292957 0
M  V30 17005 N 1571.22 0.688118 1.41784 0
M  V30 17006 C 1572.17 0.00661035 2.32599 0
M  V30 17007 C 1573.16 -0.776475 1.50556 0
M  V30 17008 O 1574.37 -0.682937 1.66541 0
M  V30 17009 H 1570.74 -0.0166615 0.751815 0
M  V30 17010 H 1572.71 0.789718 2.8776 0
M  V30 17011 C 1571.46 -0.921251 3.35273 0
M  V30 17012 H 1570.79 -0.328099 3.98451 0
M  V30 17013 H 1572.23 -1.36655 4.01374 0
M  V30 17014 C 1570.69 -2.03393 2.68576 0
M  V30 17015 O 1571.22 -3.1219 2.52785 0
M  V30 17016 N 1569.42 -1.8095 2.27389 0
M  V30 17017 H 1568.97 -0.924692 2.40431 0
M  V30 17018 H 1568.93 -2.55584 1.83096 0
M  V30 17019 N 1572.7 -1.51554 0.432352 0
M  V30 17020 C 1573.65 -2.24474 -0.39944 0
M  V30 17021 C 1574.63 -1.26505 -0.994242 0
M  V30 17022 O 1575.82 -1.51623 -0.913209 0
M  V30 17023 C 1572.95 -3.08659 -1.50282 0
M  V30 17024 C 1572.04 -4.14053 -0.917654 0
M  V30 17025 N 1572.43 -5.05763 -0.061209 0
M  V30 17026 C 1570.73 -4.29949 -1.18576 0
M  V30 17027 C 1571.43 -5.81087 0.266897 0
M  V30 17028 N 1570.41 -5.42484 -0.348218 0
M  V30 17029 H 1574.21 -2.92739 0.260928 0
M  V30 17030 H 1571.72 -1.60555 0.24413 0
M  V30 17031 H 1573.72 -3.59472 -2.11153 0
M  V30 17032 H 1572.38 -2.41936 -2.16557 0
M  V30 17033 H 1573.39 -5.17002 0.304858 0
M  V30 17034 H 1570.07 -3.74453 -1.84638 0
M  V30 17035 H 1571.46 -6.64956 0.963519 0
M  V30 17036 N 1574.18 -0.163538 -1.56749 0
M  V30 17037 C 1575.4 0.489888 -2.01017 0
M  V30 17038 C 1575.82 1.57327 -1.04373 0
M  V30 17039 O 1575.18 1.82449 -0.0433414 0
M  V30 17040 C 1575.23 1.07537 -3.45135 0
M  V30 17041 O 1574.95 0.0352465 -4.38086 0
M  V30 17042 C 1576.45 1.80779 -4.04764 0
M  V30 17043 H 1573.67 0.126095 -0.659046 0
M  V30 17044 H 1576.21 -0.262982 -2.02802 0
M  V30 17045 H 1574.37 1.77877 -3.44149 0
M  V30 17046 H 1574.78 0.466426 -5.22422 0
M  V30 17047 H 1576.26 2.17014 -5.07552 0
M  V30 17048 H 1576.73 2.6999 -3.46413 0
M  V30 17049 H 1577.34 1.15098 -4.09429 0
M  V30 17050 N 1575.65 1.57214 0.110213 0
M  V30 17051 C 1576.62 2.00034 1.11888 0
M  V30 17052 C 1577.62 0.891697 1.33811 0
M  V30 17053 O 1578.81 1.15754 1.3018 0
M  V30 17054 C 1575.94 2.34806 2.47142 0
M  V30 17055 H 1577.13 2.90354 0.750647 0
M  V30 17056 H 1574.69 1.5222 0.35479 0
M  V30 17057 H 1575.42 1.47393 2.8887 0
M  V30 17058 H 1575.21 3.15671 2.32581 0
M  V30 17059 H 1576.7 2.68644 3.19719 0
M  V30 17060 N 1577.13 -0.380637 1.52934 0
M  V30 17061 C 1578.04 -1.48957 1.81243 0
M  V30 17062 C 1579.06 -1.5931 0.69974 0
M  V30 17063 O 1580.23 -1.75488 0.988218 0
M  V30 17064 C 1577.3 -2.84397 1.9829 0
M  V30 17065 C 1576.36 -2.83697 3.22202 0
M  V30 17066 C 1575.59 -4.12677 3.38427 0
M  V30 17067 O 1575.82 -5.08068 2.59274 0
M  V30 17068 O 1574.75 -4.19407 4.31719 0
M  V30 17069 H 1578.58 -1.27964 2.75425 0
M  V30 17070 H 1576.16 -0.56929 1.38128 0
M  V30 17071 H 1578.04 -3.64676 2.11161 0
M  V30 17072 H 1576.72 -3.054 1.07298 0
M  V30 17073 H 1575.63 -2.0217 3.14767 0
M  V30 17074 H 1576.96 -2.67648 4.13068 0
M  V30 17075 N 1578.61 -1.44039 -0.639573 0
M  V30 17076 C 1579.86 -1.4566 -1.39521 0
M  V30 17077 C 1580.17 -0.0897878 -1.95394 0
M  V30 17078 O 1581.38 0.0165074 -2.71495 0
M  V30 17079 C 1579.83 -2.56395 -2.52566 0
M  V30 17080 C 1579.44 -3.99245 -2.03243 0
M  V30 17081 C 1581.19 -2.67226 -3.29834 0
M  V30 17082 C 1579.09 -5.01419 -3.1358 0
M  V30 17083 H 1578.02 -0.541894 -0.524277 0
M  V30 17084 H 1580.67 -1.70076 -0.688941 0
M  V30 17085 H 1579.06 -2.25204 -3.25729 0
M  V30 17086 H 1580.23 -4.39963 -1.37002 0
M  V30 17087 H 1578.55 -3.9258 -1.38816 0
M  V30 17088 H 1581.14 -3.40736 -4.12072 0
M  V30 17089 H 1581.49 -1.72756 -3.78763 0
M  V30 17090 H 1582.02 -2.97786 -2.63758 0
M  V30 17091 H 1578.76 -5.97489 -2.69605 0
M  V30 17092 H 1578.28 -4.65301 -3.7849 0
M  V30 17093 H 1579.96 -5.2474 -3.78493 0
M  V30 17094 N 1580.09 0.879207 -1.30796 0
M  V30 17095 C 1581.34 1.62828 -1.19715 0
M  V30 17096 C 1581.66 1.93429 0.247031 0
M  V30 17097 O 1580.93 1.57478 1.16522 0
M  V30 17098 H 1579.51 0.603607 -0.440077 0
M  V30 17099 H 1582.17 1.05309 -1.64 0
M  V30 17100 H 1581.27 2.57591 -1.76219 0
M  V30 17101 N 1581.57 1.13606 1.09231 0
M  V30 17102 C 1582.51 0.815279 2.15921 0
M  V30 17103 C 1583.48 -0.223501 1.64589 0
M  V30 17104 O 1584.67 -0.0952982 1.90562 0
M  V30 17105 C 1581.81 0.289655 3.43882 0
M  V30 17106 C 1580.92 1.38773 4.09104 0
M  V30 17107 C 1580.06 0.820238 5.24829 0
M  V30 17108 C 1579.1 1.89658 5.81976 0
M  V30 17109 N 1578.23 1.34688 6.8906 0
M  V30 17110 H 1583.07 1.72914 2.42703 0
M  V30 17111 H 1580.61 0.863101 1.19117 0
M  V30 17112 H 1582.57 -0.0332398 4.17187 0
M  V30 17113 H 1581.2 -0.587329 3.17412 0
M  V30 17114 H 1580.25 1.82718 3.33644 0
M  V30 17115 H 1581.56 2.20114 4.47606 0
M  V30 17116 H 1580.72 0.448745 6.05038 0
M  V30 17117 H 1579.46 -0.0242261 4.87694 0
M  V30 17118 H 1578.46 2.27712 5.00427 0
M  V30 17119 H 1579.69 2.74448 6.21172 0
M  V30 17120 H 1577.63 0.524453 6.539 0
M  V30 17121 H 1577.55 2.09675 7.26342 0
M  V30 17122 H 1578.82 1.00302 7.7302 0
M  V30 17123 N 1583.05 -1.27244 0.929878 0
M  V30 17124 C 1584.32 -1.89369 0.489774 0
M  V30 17125 C 1584.7 -1.84142 -1.03222 0
M  V30 17126 O 1584.05 -1.2881 -1.88733 0
M  V30 17127 C 1584.26 -3.33196 1.03833 0
M  V30 17128 C 1585.61 -4.101 1.10013 0
M  V30 17129 O 1586.63 -3.42221 0.988106 0
M  V30 17130 O 1585.49 -5.31468 1.27296 0
M  V30 17131 H 1582.59 -0.811789 0.157882 0
M  V30 17132 H 1585.13 -1.35496 1.02171 0
M  V30 17133 H 1583.9 -3.31304 2.08214 0
M  V30 17134 H 1583.53 -3.94592 0.488167 0
M  V30 17135 N 1584.52 -0.695628 -1.41417 0
M  V30 17136 C 1585.45 -0.0447013 -2.33457 0
M  V30 17137 C 1586.43 0.767104 -1.51821 0
M  V30 17138 O 1587.62 0.720066 -1.80357 0
M  V30 17139 C 1584.75 0.892353 -3.3564 0
M  V30 17140 C 1583.7 0.187638 -4.27588 0
M  V30 17141 C 1583.03 1.23906 -5.20146 0
M  V30 17142 C 1584.33 -0.946093 -5.1366 0
M  V30 17143 H 1586.02 -0.81343 -2.88138 0
M  V30 17144 H 1583.57 -0.392614 -1.38544 0
M  V30 17145 H 1585.52 1.35696 -3.98954 0
M  V30 17146 H 1584.25 1.69275 -2.79309 0
M  V30 17147 H 1582.91 -0.256942 -3.65698 0
M  V30 17148 H 1582.55 2.03198 -4.6013 0
M  V30 17149 H 1582.25 0.772536 -5.82499 0
M  V30 17150 H 1583.78 1.70417 -5.86336 0
M  V30 17151 H 1585.19 -0.561764 -5.70541 0
M  V30 17152 H 1583.59 -1.33971 -5.84954 0
M  V30 17153 H 1584.66 -1.78573 -4.50821 0
M  V30 17154 N 1586 1.51322 -0.440383 0
M  V30 17155 C 1587.28 1.94722 0.185148 0
M  V30 17156 C 1587.66 1.37922 1.59815 0
M  V30 17157 O 1587.01 0.567527 2.2134 0
M  V30 17158 C 1587.22 3.48634 0.159781 0
M  V30 17159 C 1588.56 4.23038 0.363853 0
M  V30 17160 O 1589.59 3.55406 0.237759 0
M  V30 17161 O 1588.45 5.43027 0.615137 0
M  V30 17162 H 1585.54 0.816983 0.128325 0
M  V30 17163 H 1588.09 1.62211 -0.498581 0
M  V30 17164 H 1586.86 3.8244 -0.827952 0
M  V30 17165 H 1586.48 3.87596 0.88629 0
M  V30 17166 N 1587.48 0.171848 1.5666 0
M  V30 17167 C 1588.71 -0.478526 2.00982 0
M  V30 17168 C 1589.12 -1.57313 1.05115 0
M  V30 17169 O 1588.46 -1.83647 0.0441833 0
M  V30 17170 C 1588.52 -1.11633 3.41729 0
M  V30 17171 C 1588.19 -0.163307 4.56708 0
M  V30 17172 C 1589.18 0.618553 5.16207 0
M  V30 17173 C 1586.87 -0.0589794 5.02265 0
M  V30 17174 C 1588.86 1.49194 6.19693 0
M  V30 17175 C 1586.55 0.817987 6.05601 0
M  V30 17176 C 1587.55 1.59203 6.64186 0
M  V30 17177 O 1587.24 2.45434 7.65518 0
M  V30 17178 H 1586.97 -0.126833 0.663995 0
M  V30 17179 H 1589.52 0.270866 2.03606 0
M  V30 17180 H 1587.75 -1.91385 3.36019 0
M  V30 17181 H 1589.44 -1.66896 3.70001 0
M  V30 17182 H 1590.21 0.548127 4.81893 0
M  V30 17183 H 1586.09 -0.651245 4.56377 0
M  V30 17184 H 1589.63 2.09656 6.6535 0
M  V30 17185 H 1585.53 0.889614 6.3934 0
M  V30 17186 H 1586.29 2.38955 7.82843 0
M  V30 17187 N 1588.96 -1.5727 -0.101874 0
M  V30 17188 C 1589.89 -2.04614 -1.12496 0
M  V30 17189 C 1590.87 -0.933768 -1.42179 0
M  V30 17190 O 1592.05 -1.2046 -1.52325 0
M  V30 17191 C 1589.18 -2.46488 -2.44665 0
M  V30 17192 C 1588.14 -3.61327 -2.29406 0
M  V30 17193 C 1587.46 -3.89155 -3.66691 0
M  V30 17194 C 1588.76 -4.92455 -1.74026 0
M  V30 17195 H 1590.46 -2.90336 -0.731109 0
M  V30 17196 H 1588 -1.39676 -0.350239 0
M  V30 17197 H 1589.96 -2.78216 -3.16502 0
M  V30 17198 H 1588.68 -1.57757 -2.85972 0
M  V30 17199 H 1587.34 -3.29835 -1.60015 0
M  V30 17200 H 1586.99 -2.97603 -4.05514 0
M  V30 17201 H 1586.69 -4.66465 -3.57329 0
M  V30 17202 H 1588.21 -4.23352 -4.40006 0
M  V30 17203 H 1589.63 -5.22609 -2.35697 0
M  V30 17204 H 1588.02 -5.73882 -1.75441 0
M  V30 17205 H 1589.09 -4.79833 -0.699136 0
M  V30 17206 N 1590.44 0.372521 -1.53134 0
M  V30 17207 C 1591.38 1.45597 -1.79082 0
M  V30 17208 C 1592.35 1.5349 -0.63482 0
M  V30 17209 O 1593.54 1.69488 -0.876276 0
M  V30 17210 C 1590.68 2.8263 -1.98026 0
M  V30 17211 C 1589.79 2.83758 -3.25738 0
M  V30 17212 C 1588.93 4.12322 -3.34909 0
M  V30 17213 C 1587.96 4.07565 -4.5668 0
M  V30 17214 N 1587.1 5.27766 -4.63042 0
M  V30 17215 H 1591.94 1.22771 -2.71535 0
M  V30 17216 H 1589.48 0.595285 -1.34517 0
M  V30 17217 H 1591.44 3.62227 -2.06997 0
M  V30 17218 H 1590.07 3.0387 -1.08917 0
M  V30 17219 H 1589.12 1.96435 -3.25757 0
M  V30 17220 H 1590.43 2.76114 -4.15406 0
M  V30 17221 H 1589.58 5.00331 -3.43153 0
M  V30 17222 H 1588.32 4.22709 -2.43245 0
M  V30 17223 H 1587.33 3.17943 -4.48545 0
M  V30 17224 H 1588.55 3.98786 -5.49678 0
M  V30 17225 H 1586.5 5.38752 -3.74276 0
M  V30 17226 H 1586.42 5.22264 -5.46605 0
M  V30 17227 H 1587.68 6.17626 -4.75561 0
M  V30 17228 N 1591.91 1.44376 0.631925 0
M  V30 17229 C 1593.19 1.37592 1.39024 0
M  V30 17230 C 1593.57 0.0342456 2.11072 0
M  V30 17231 O 1592.92 -0.983136 2.06268 0
M  V30 17232 C 1593.13 2.57355 2.35732 0
M  V30 17233 C 1594.48 3.01384 2.99087 0
M  V30 17234 O 1595.5 2.57554 2.46057 0
M  V30 17235 O 1594.36 3.77375 3.95285 0
M  V30 17236 H 1591.45 0.544828 0.622167 0
M  V30 17237 H 1594 1.56464 0.657048 0
M  V30 17238 H 1592.77 3.46615 1.81587 0
M  V30 17239 H 1592.39 2.40693 3.16469 0
M  V30 17240 N 1593.39 -0.872258 1.31261 0
M  V30 17241 C 1594.64 -1.62752 1.20994 0
M  V30 17242 C 1594.97 -1.9281 -0.231942 0
M  V30 17243 O 1594.25 -1.55808 -1.16423 0
M  V30 17244 C 1594.53 -2.95921 2.0519 0
M  V30 17245 C 1594.38 -2.72756 3.57665 0
M  V30 17246 C 1595.7 -3.96996 1.89953 0
M  V30 17247 H 1592.82 -0.590581 0.440889 0
M  V30 17248 H 1595.46 -1.00848 1.61027 0
M  V30 17249 H 1593.61 -3.48756 1.71177 0
M  V30 17250 H 1595.28 -2.26611 4.01803 0
M  V30 17251 H 1593.53 -2.07029 3.81211 0
M  V30 17252 H 1594.2 -3.67502 4.11882 0
M  V30 17253 H 1596.67 -3.53363 2.19713 0
M  V30 17254 H 1595.55 -4.88063 2.51169 0
M  V30 17255 H 1595.81 -4.33611 0.862191 0
M  V30 17256 N 1594.87 -1.14184 -1.08627 0
M  V30 17257 C 1595.82 -0.822297 -2.1758 0
M  V30 17258 C 1596.81 0.198863 -1.68229 0
M  V30 17259 O 1598.02 0.0551869 -1.79915 0
M  V30 17260 H 1594.39 -0.248183 -0.709866 0
M  V30 17261 H 1596.36 -1.74916 -2.41758 0
M  V30 17262 C 1595.11 -0.313671 -3.46282 0
M  V30 17263 H 1594.44 -1.09078 -3.84632 0
M  V30 17264 H 1595.88 -0.128604 -4.23805 0
M  V30 17265 C 1594.33 0.962289 -3.22865 0
M  V30 17266 O 1594.86 2.03649 -3.46251 0
M  V30 17267 N 1593.07 0.896635 -2.76421 0
M  V30 17268 H 1592.62 0.0223186 -2.5759 0
M  V30 17269 H 1592.58 1.75093 -2.61132 0
M  V30 17270 N 1596.35 1.26749 -0.936613 0
M  V30 17271 C 1597.6 1.9358 -0.580605 0
M  V30 17272 C 1597.92 1.7389 0.882446 0
M  V30 17273 O 1597.19 1.09185 1.62652 0
M  V30 17274 H 1595.77 0.716363 -0.211739 0
M  V30 17275 H 1598.43 1.54281 -1.19095 0
M  V30 17276 H 1597.53 3.01819 -0.79448 0
M  V30 17277 N 1597.83 0.703118 1.41046 0
M  V30 17278 C 1599.05 0.246552 2.05426 0
M  V30 17279 C 1599.47 -1.10704 1.52938 0
M  V30 17280 O 1598.83 -1.69329 0.680733 0
M  V30 17281 C 1598.88 0.203953 3.60924 0
M  V30 17282 O 1598.6 1.50408 4.11472 0
M  V30 17283 C 1600.1 -0.272686 4.42461 0
M  V30 17284 H 1597.32 0.113157 0.66139 0
M  V30 17285 H 1599.86 0.957823 1.80682 0
M  V30 17286 H 1598.02 -0.458194 3.84681 0
M  V30 17287 H 1598.43 1.39622 5.05575 0
M  V30 17288 H 1599.91 -0.251357 5.51427 0
M  V30 17289 H 1600.38 -1.31282 4.1912 0
M  V30 17290 H 1600.99 0.358733 4.23784 0
M  V30 17291 N 1599.3 -1.51086 0.448402 0
M  V30 17292 C 1600.53 -2.06593 -0.112695 0
M  V30 17293 C 1600.95 -1.31471 -1.35502 0
M  V30 17294 O 1600.3 -0.377406 -1.78555 0
M  V30 17295 C 1600.36 -3.59008 -0.423769 0
M  V30 17296 O 1600.08 -4.31293 0.769259 0
M  V30 17297 C 1601.58 -4.31064 -1.03433 0
M  V30 17298 H 1598.8 -0.670993 -0.00301626 0
M  V30 17299 H 1601.34 -1.94532 0.630667 0
M  V30 17300 H 1599.5 -3.70946 -1.11704 0
M  V30 17301 H 1599.91 -5.2211 0.500162 0
M  V30 17302 H 1601.38 -5.38756 -1.20191 0
M  V30 17303 H 1601.86 -3.90075 -2.01837 0
M  V30 17304 H 1602.47 -4.23598 -0.380115 0
M  V30 17305 N 1600.78 -0.180154 -1.56567 0
M  V30 17306 C 1602.01 0.471692 -2.01965 0
M  V30 17307 C 1602.43 1.5542 -1.05954 0
M  V30 17308 O 1601.79 1.81255 -0.0405307 0
M  V30 17309 C 1601.84 1.01883 -3.45908 0
M  V30 17310 O 1600.94 2.13245 -3.52988 0
M  V30 17311 H 1600.28 0.11197 -0.654491 0
M  V30 17312 H 1602.81 -0.286642 -2.02582 0
M  V30 17313 H 1602.82 1.33922 -3.85395 0
M  V30 17314 H 1601.5 0.226299 -4.15284 0
M  V30 17315 H 1600.08 1.82184 -3.25367 0
M  V30 17316 N 1602.26 1.57322 0.0935319 0
M  V30 17317 C 1603.51 1.858 0.795165 0
M  V30 17318 C 1603.83 0.769078 1.79193 0
M  V30 17319 O 1603.1 -0.204511 1.9483 0
M  V30 17320 H 1601.68 0.68557 0.296653 0
M  V30 17321 H 1604.34 1.94756 0.0747892 0
M  V30 17322 H 1603.44 2.82588 1.32479 0
M  V30 17323 N 1603.74 -0.364395 1.53329 0
M  V30 17324 C 1604.99 -1.10423 1.68789 0
M  V30 17325 C 1605.3 -1.90428 0.446819 0
M  V30 17326 O 1606.51 -2.67188 0.481978 0
M  V30 17327 C 1604.96 -2.01228 2.98388 0
M  V30 17328 C 1604.57 -1.26529 4.29761 0
M  V30 17329 C 1606.31 -2.75196 3.23214 0
M  V30 17330 C 1604.22 -2.16243 5.50448 0
M  V30 17331 H 1603.15 -0.415935 0.628899 0
M  V30 17332 H 1605.8 -0.365145 1.7983 0
M  V30 17333 H 1604.18 -2.78872 2.81152 0
M  V30 17334 H 1605.36 -0.5394 4.57632 0
M  V30 17335 H 1603.67 -0.644181 4.11387 0
M  V30 17336 H 1606.27 -3.42548 4.10567 0
M  V30 17337 H 1606.61 -3.40629 2.39327 0
M  V30 17338 H 1607.15 -2.04635 3.4113 0
M  V30 17339 H 1603.89 -1.55385 6.36817 0
M  V30 17340 H 1603.41 -2.86678 5.26855 0
M  V30 17341 H 1605.08 -2.75774 5.85284 0
M  V30 17342 N 1605.22 -1.44709 -0.62426 0
M  V30 17343 C 1606.46 -1.47561 -1.38094 0
M  V30 17344 C 1606.79 -0.112115 -1.94677 0
M  V30 17345 O 1606.06 0.856458 -1.76186 0
M  V30 17346 H 1604.64 -0.543368 -0.512601 0
M  V30 17347 H 1607.3 -1.8054 -0.734258 0
M  V30 17348 H 1606.39 -2.20496 -2.2088 0
M  V30 17349 N 1606.69 0.865285 -1.31722 0
M  V30 17350 C 1607.92 1.65137 -1.24649 0
M  V30 17351 C 1608.34 1.87868 0.187391 0
M  V30 17352 O 1607.69 1.44015 1.12098 0
M  V30 17353 C 1607.75 3.0167 -1.99193 0
M  V30 17354 O 1607.47 2.79951 -3.36985 0
M  V30 17355 C 1608.97 3.96115 -1.99017 0
M  V30 17356 H 1606.19 0.514683 -0.430514 0
M  V30 17357 H 1608.73 1.07971 -1.73674 0
M  V30 17358 H 1606.89 3.55511 -1.53918 0
M  V30 17359 H 1607.3 3.66706 -3.75002 0
M  V30 17360 H 1608.77 4.89217 -2.55677 0
M  V30 17361 H 1609.25 4.28268 -0.973815 0
M  V30 17362 H 1609.86 3.4821 -2.44192 0
M  V30 17363 N 1608.17 1.14759 1.0802 0
M  V30 17364 C 1609.42 0.916435 1.80127 0
M  V30 17365 C 1609.74 -0.558281 1.86837 0
M  V30 17366 O 1609.01 -1.40579 1.36434 0
M  V30 17367 H 1607.59 0.336066 0.667135 0
M  V30 17368 H 1610.25 1.44693 1.30576 0
M  V30 17369 H 1609.35 1.31986 2.82818 0
M  V30 17370 N 1609.65 -1.26251 0.943322 0
M  V30 17371 C 1610.88 -1.98278 0.608341 0
M  V30 17372 C 1611.3 -1.69756 -0.810208 0
M  V30 17373 O 1610.66 -0.946846 -1.54611 0
M  V30 17374 C 1610.71 -3.50205 0.859591 0
M  V30 17375 O 1609.81 -4.12345 -0.0672371 0
M  V30 17376 H 1609.15 -0.621973 0.232477 0
M  V30 17377 H 1611.68 -1.60662 1.26684 0
M  V30 17378 H 1611.69 -4.00449 0.781341 0
M  V30 17379 H 1610.37 -3.70294 1.89354 0
M  V30 17380 H 1608.94 -3.72848 0.0622543 0
M  V30 17381 N 1611.13 -0.710588 -1.40671 0
M  V30 17382 C 1612.35 -0.256007 -2.05814 0
M  V30 17383 C 1612.78 1.09178 -1.53173 0
M  V30 17384 O 1612.14 1.68665 -0.664977 0
M  V30 17385 C 1612.19 -0.240528 -3.59797 0
M  V30 17386 O 1611.29 0.779859 -4.04959 0
M  V30 17387 H 1610.63 -0.121326 -0.652822 0
M  V30 17388 H 1613.16 -0.969667 -1.80163 0
M  V30 17389 H 1613.17 -0.0765027 -4.07928 0
M  V30 17390 H 1611.85 -1.22411 -3.97478 0
M  V30 17391 H 1610.42 0.583965 -3.68299 0
M  V30 17392 N 1612.61 1.50847 -0.456408 0
M  V30 17393 C 1613.85 2.02534 0.103772 0
M  V30 17394 C 1614.19 1.33874 1.40682 0
M  V30 17395 O 1613.46 0.459695 1.8899 0
M  V30 17396 C 1613.74 3.58825 0.302817 0
M  V30 17397 C 1613.6 4.38077 -1.02022 0
M  V30 17398 C 1614.92 4.27044 1.06404 0
M  V30 17399 H 1612.04 0.736108 0.0362398 0
M  V30 17400 H 1614.68 1.80306 -0.599134 0
M  V30 17401 H 1612.83 3.77895 0.901542 0
M  V30 17402 H 1614.5 4.30613 -1.6544 0
M  V30 17403 H 1612.74 4.02401 -1.62036 0
M  V30 17404 H 1613.41 5.45652 -0.834766 0
M  V30 17405 H 1615.89 4.12359 0.556698 0
M  V30 17406 H 1614.77 5.3624 1.17209 0
M  V30 17407 H 1615.03 3.89204 2.09697 0
M  V30 17408 N 1614.09 0.188454 1.56469 0
M  V30 17409 C 1615 -0.747176 2.22384 0
M  V30 17410 C 1616.01 -1.23985 1.22081 0
M  V30 17411 O 1617.19 -1.2884 1.54797 0
M  V30 17412 C 1614.25 -1.95228 2.86508 0
M  V30 17413 C 1613.31 -1.50482 4.02062 0
M  V30 17414 C 1612.55 -2.65248 4.63119 0
M  V30 17415 O 1612.77 -3.8256 4.23088 0
M  V30 17416 O 1611.7 -2.38341 5.527 0
M  V30 17417 H 1615.53 -0.215857 3.02932 0
M  V30 17418 H 1613.11 -0.0405356 1.49345 0
M  V30 17419 H 1615 -2.65673 3.27103 0
M  V30 17420 H 1613.67 -2.47233 2.08944 0
M  V30 17421 H 1612.58 -0.769365 3.66103 0
M  V30 17422 H 1613.91 -1.03151 4.8127 0
M  V30 17423 N 1615.56 -1.5737 -0.0851874 0
M  V30 17424 C 1616.51 -2.02758 -1.10262 0
M  V30 17425 C 1617.48 -0.905702 -1.39235 0
M  V30 17426 O 1618.67 -1.17241 -1.50529 0
M  V30 17427 C 1615.81 -2.46528 -2.41492 0
M  V30 17428 C 1614.92 -3.72278 -2.19165 0
M  V30 17429 C 1614.05 -4.04885 -3.43863 0
M  V30 17430 C 1613.09 -5.23715 -3.16842 0
M  V30 17431 N 1612.23 -5.52026 -4.33833 0
M  V30 17432 H 1617.07 -2.89453 -0.708583 0
M  V30 17433 H 1614.61 -1.43156 -0.338332 0
M  V30 17434 H 1616.56 -2.69952 -3.18091 0
M  V30 17435 H 1615.19 -1.62829 -2.78723 0
M  V30 17436 H 1614.25 -3.56272 -1.33321 0
M  V30 17437 H 1615.56 -4.5902 -1.95197 0
M  V30 17438 H 1614.71 -4.29138 -4.28865 0
M  V30 17439 H 1613.45 -3.16683 -3.70895 0
M  V30 17440 H 1612.46 -4.99272 -2.30234 0
M  V30 17441 H 1613.68 -6.13523 -2.91146 0
M  V30 17442 H 1611.63 -4.66784 -4.60922 0
M  V30 17443 H 1611.54 -6.3316 -4.13091 0
M  V30 17444 H 1612.81 -5.80822 -5.19871 0
M  V30 17445 N 1617.04 0.356258 -1.53521 0
M  V30 17446 C 1618.27 1.11666 -1.73823 0
M  V30 17447 C 1618.68 1.83235 -0.471338 0
M  V30 17448 O 1618.02 1.74762 0.566035 0
M  V30 17449 C 1618.08 2.18429 -2.85533 0
M  V30 17450 C 1617.75 1.66545 -4.25572 0
M  V30 17451 C 1618.75 1.12454 -5.07592 0
M  V30 17452 C 1616.43 1.71776 -4.72015 0
M  V30 17453 C 1618.42 0.642826 -6.3415 0
M  V30 17454 C 1616.11 1.23217 -5.98549 0
M  V30 17455 C 1617.11 0.695609 -6.79449 0
M  V30 17456 O 1616.8 0.217211 -8.03606 0
M  V30 17457 H 1616.53 0.339418 -0.584612 0
M  V30 17458 H 1619.08 0.418173 -2.01098 0
M  V30 17459 H 1617.31 2.91798 -2.53753 0
M  V30 17460 H 1619 2.79934 -2.93925 0
M  V30 17461 H 1619.77 1.07745 -4.72881 0
M  V30 17462 H 1615.65 2.12481 -4.09112 0
M  V30 17463 H 1619.19 0.223354 -6.97242 0
M  V30 17464 H 1615.09 1.27623 -6.32758 0
M  V30 17465 H 1615.86 0.335679 -8.17811 0
M  V30 17466 N 1618.52 1.45038 0.616577 0
M  V30 17467 C 1619.77 1.47861 1.37186 0
M  V30 17468 C 1620.08 0.120862 1.95226 0
M  V30 17469 O 1621.29 0.0266872 2.71487 0
M  V30 17470 C 1619.74 2.6038 2.48455 0
M  V30 17471 C 1619.35 4.02428 1.96866 0
M  V30 17472 C 1621.1 2.7244 3.25541 0
M  V30 17473 C 1619 5.06345 3.05563 0
M  V30 17474 H 1617.93 0.550166 0.51559 0
M  V30 17475 H 1620.58 1.71151 0.661796 0
M  V30 17476 H 1618.97 2.30357 3.22105 0
M  V30 17477 H 1620.14 4.42087 1.29985 0
M  V30 17478 H 1618.45 3.94739 1.32552 0
M  V30 17479 H 1621.05 3.47248 4.06599 0
M  V30 17480 H 1621.39 1.7876 3.75966 0
M  V30 17481 H 1621.93 3.01944 2.58988 0
M  V30 17482 H 1618.67 6.01703 2.60065 0
M  V30 17483 H 1618.19 4.71264 3.7104 0
M  V30 17484 H 1619.87 5.30695 3.70097 0
M  V30 17485 N 1620 -0.858287 1.32179 0
M  V30 17486 C 1621.25 -1.60706 1.21887 0
M  V30 17487 C 1621.56 -1.94372 -0.218836 0
M  V30 17488 O 1622.77 -2.67852 -0.443572 0
M  V30 17489 C 1621.22 -2.8977 2.13452 0
M  V30 17490 C 1620.83 -2.63542 3.62284 0
M  V30 17491 C 1622.57 -3.67779 2.11988 0
M  V30 17492 C 1620.48 -3.88584 4.45821 0
M  V30 17493 H 1619.41 -0.603026 0.452632 0
M  V30 17494 H 1622.06 -0.948016 1.57114 0
M  V30 17495 H 1620.44 -3.57112 1.71135 0
M  V30 17496 H 1621.62 -2.04534 4.12919 0
M  V30 17497 H 1619.93 -1.98869 3.65842 0
M  V30 17498 H 1622.53 -4.60561 2.71639 0
M  V30 17499 H 1622.87 -4.0123 1.10995 0
M  V30 17500 H 1623.41 -3.07336 2.52565 0
M  V30 17501 H 1620.14 -3.60276 5.47614 0
M  V30 17502 H 1619.66 -4.47001 3.99937 0
M  V30 17503 H 1621.34 -4.56358 4.58635 0
M  V30 17504 N 1621.48 -1.1533 -1.07409 0
M  V30 17505 C 1622.75 -0.838341 -1.76724 0
M  V30 17506 C 1623.13 0.666169 -2.00313 0
M  V30 17507 O 1622.48 1.61033 -1.62113 0
M  V30 17508 C 1622.69 -1.64846 -3.07615 0
M  V30 17509 C 1624.04 -1.85429 -3.8197 0
M  V30 17510 O 1625.06 -1.61617 -3.17424 0
M  V30 17511 O 1623.92 -2.25305 -4.97896 0
M  V30 17512 H 1621.02 -0.308242 -0.767408 0
M  V30 17513 H 1623.56 -1.25905 -1.1378 0
M  V30 17514 H 1622.33 -2.66995 -2.86058 0
M  V30 17515 H 1621.96 -1.22405 -3.78289 0
M  V30 17516 N 1622.95 1.25748 -0.950004 0
M  V30 17517 C 1623.86 2.29783 -0.472971 0
M  V30 17518 C 1624.88 1.6788 0.457403 0
M  V30 17519 O 1626.06 1.98598 0.334779 0
M  V30 17520 C 1623.12 3.45826 0.245955 0
M  V30 17521 C 1622.18 4.23184 -0.722063 0
M  V30 17522 C 1621.41 5.33687 -0.0373517 0
M  V30 17523 O 1621.64 5.58105 1.1779 0
M  V30 17524 O 1620.57 5.97572 -0.72054 0
M  V30 17525 H 1624.4 2.72668 -1.33737 0
M  V30 17526 H 1621.98 1.31111 -0.71626 0
M  V30 17527 H 1623.86 4.16348 0.650563 0
M  V30 17528 H 1622.54 3.04953 1.0856 0
M  V30 17529 H 1621.45 3.55109 -1.17679 0
M  V30 17530 H 1622.78 4.67829 -1.52959 0
M  V30 17531 N 1624.43 0.718038 1.40292 0
M  V30 17532 C 1625.66 0.266918 2.05675 0
M  V30 17533 C 1626.08 -1.08364 1.53749 0
M  V30 17534 O 1625.44 -1.6831 0.673912 0
M  V30 17535 C 1625.49 0.259606 3.59664 0
M  V30 17536 O 1624.59 -0.758372 4.05367 0
M  V30 17537 H 1623.93 0.124786 0.652169 0
M  V30 17538 H 1626.46 0.979207 1.79646 0
M  V30 17539 H 1626.47 0.098135 4.07882 0
M  V30 17540 H 1625.15 1.24517 3.96823 0
M  V30 17541 H 1623.72 -0.564425 3.68604 0
M  V30 17542 N 1625.91 -1.50602 0.464402 0
M  V30 17543 C 1627.19 -1.94992 -0.154146 0
M  V30 17544 C 1627.57 -1.40447 -1.57601 0
M  V30 17545 O 1626.92 -0.602668 -2.20409 0
M  V30 17546 C 1627.13 -3.48844 -0.104296 0
M  V30 17547 C 1628.47 -4.23563 -0.296506 0
M  V30 17548 O 1629.5 -3.55739 -0.181187 0
M  V30 17549 O 1628.36 -5.43937 -0.528668 0
M  V30 17550 H 1625.45 -0.818921 -0.115311 0
M  V30 17551 H 1628 -1.61397 0.524324 0
M  V30 17552 H 1626.77 -3.81075 0.88869 0
M  V30 17553 H 1626.39 -3.88957 -0.824514 0
M  V30 17554 N 1627.39 -0.19675 -1.56367 0
M  V30 17555 C 1628.62 0.446491 -2.01718 0
M  V30 17556 C 1629.03 1.55621 -1.07604 0
M  V30 17557 O 1628.37 1.83553 -0.0733943 0
M  V30 17558 C 1628.43 1.06182 -3.43461 0
M  V30 17559 C 1628.1 0.0906278 -4.5691 0
M  V30 17560 C 1629.09 -0.700599 -5.15158 0
M  V30 17561 C 1626.78 -0.0209341 -5.02296 0
M  V30 17562 C 1628.77 -1.59034 -6.17241 0
M  V30 17563 C 1626.46 -0.91423 -6.04223 0
M  V30 17564 C 1627.46 -1.6975 -6.61569 0
M  V30 17565 O 1627.14 -2.57582 -7.61516 0
M  V30 17566 H 1626.88 0.116254 -0.665929 0
M  V30 17567 H 1629.43 -0.303224 -2.03149 0
M  V30 17568 H 1627.66 1.86015 -3.39021 0
M  V30 17569 H 1629.35 1.60988 -3.72609 0
M  V30 17570 H 1630.12 -0.624723 -4.8096 0
M  V30 17571 H 1625.99 0.578557 -4.57355 0
M  V30 17572 H 1629.54 -2.20215 -6.6193 0
M  V30 17573 H 1625.44 -0.991215 -6.37844 0
M  V30 17574 H 1626.2 -2.5138 -7.78942 0
M  V30 17575 N 1628.87 1.57413 0.0768405 0
M  V30 17576 C 1629.8 1.98626 1.12352 0
M  V30 17577 C 1630.78 0.862359 1.37848 0
M  V30 17578 O 1631.96 1.12423 1.51305 0
M  V30 17579 C 1629.09 2.31866 2.46893 0
M  V30 17580 C 1628.13 3.54212 2.37563 0
M  V30 17581 S 1628.97 5.05241 1.77459 0
M  V30 17582 C 1630.12 5.41677 3.13588 0
M  V30 17583 H 1630.36 2.87094 0.772273 0
M  V30 17584 H 1627.89 1.51743 0.285191 0
M  V30 17585 H 1629.85 2.51691 3.24287 0
M  V30 17586 H 1628.51 1.43935 2.7918 0
M  V30 17587 H 1627.7 3.7497 3.36769 0
M  V30 17588 H 1627.3 3.33991 1.68304 0
M  V30 17589 H 1629.6 5.39439 4.09893 0
M  V30 17590 H 1630.54 6.42519 2.97614 0
M  V30 17591 H 1630.95 4.69136 3.13961 0
M  V30 17592 N 1630.34 -0.348112 1.53707 0
M  V30 17593 C 1631.57 -1.11346 1.74976 0
M  V30 17594 C 1631.99 -1.81726 0.485525 0
M  V30 17595 O 1631.35 -1.72384 -0.561565 0
M  V30 17596 C 1631.4 -2.10611 2.92703 0
M  V30 17597 O 1630.5 -3.18042 2.62532 0
M  V30 17598 H 1629.85 -0.322247 0.580563 0
M  V30 17599 H 1632.38 -0.399898 2.00654 0
M  V30 17600 H 1632.39 -2.53912 3.19363 0
M  V30 17601 H 1631.06 -1.58782 3.84397 0
M  V30 17602 H 1629.64 -2.79591 2.46746 0
M  V30 17603 N 1631.82 -1.45363 -0.608876 0
M  V30 17604 C 1633.07 -1.49313 -1.36792 0
M  V30 17605 C 1633.4 -0.134357 -1.94035 0
M  V30 17606 O 1632.65 0.866819 -1.75456 0
M  V30 17607 C 1632.95 -2.51893 -2.53544 0
M  V30 17608 C 1632.62 -3.96636 -2.14455 0
M  V30 17609 C 1631.28 -4.36048 -2.03508 0
M  V30 17610 C 1633.63 -4.87668 -1.83929 0
M  V30 17611 C 1630.96 -5.64389 -1.60256 0
M  V30 17612 C 1633.31 -6.16419 -1.42163 0
M  V30 17613 C 1631.98 -6.54763 -1.29774 0
M  V30 17614 H 1631.25 -0.546373 -0.500557 0
M  V30 17615 H 1633.89 -1.78702 -0.68832 0
M  V30 17616 H 1632.2 -2.16068 -3.26836 0
M  V30 17617 H 1633.89 -2.52187 -3.11773 0
M  V30 17618 H 1630.48 -3.65467 -2.23901 0
M  V30 17619 H 1634.67 -4.57956 -1.91284 0
M  V30 17620 H 1629.92 -5.92894 -1.49285 0
M  V30 17621 H 1634.1 -6.86401 -1.17588 0
M  V30 17622 H 1631.73 -7.5411 -0.960322 0
M  V30 17623 N 1633.3 0.851265 -1.32632 0
M  V30 17624 C 1634.55 1.60057 -1.22738 0
M  V30 17625 C 1634.86 1.94485 0.208525 0
M  V30 17626 O 1636.07 2.68083 0.429361 0
M  V30 17627 C 1634.52 2.88634 -2.14985 0
M  V30 17628 C 1634.13 2.61617 -3.63676 0
M  V30 17629 C 1635.88 3.6665 -2.13935 0
M  V30 17630 C 1633.78 3.86215 -4.47875 0
M  V30 17631 H 1632.71 0.600617 -0.455824 0
M  V30 17632 H 1635.36 0.939671 -1.57615 0
M  V30 17633 H 1633.75 3.56199 -1.73027 0
M  V30 17634 H 1634.92 2.02342 -4.13998 0
M  V30 17635 H 1633.24 1.96926 -3.66891 0
M  V30 17636 H 1635.83 4.59114 -2.74078 0
M  V30 17637 H 1636.18 4.00636 -1.13121 0
M  V30 17638 H 1636.71 3.05993 -2.54192 0
M  V30 17639 H 1633.45 3.57367 -5.49517 0
M  V30 17640 H 1632.97 4.44874 -4.02302 0
M  V30 17641 H 1634.65 4.5392 -4.61049 0
M  V30 17642 N 1634.78 1.15898 1.06796 0
M  V30 17643 C 1635.73 0.856808 2.16244 0
M  V30 17644 C 1636.72 -0.172075 1.68524 0
M  V30 17645 O 1637.93 -0.0265569 1.7998 0
M  V30 17646 H 1634.3 0.259445 0.705827 0
M  V30 17647 H 1636.27 1.7874 2.38945 0
M  V30 17648 C 1635.02 0.368721 3.45739 0
M  V30 17649 H 1634.34 1.15184 3.82848 0
M  V30 17650 H 1635.78 0.196012 4.23547 0
M  V30 17651 C 1634.24 -0.910802 3.24355 0
M  V30 17652 O 1634.77 -1.98115 3.49447 0
M  V30 17653 N 1632.98 -0.852545 2.77813 0
M  V30 17654 H 1632.53 0.0186646 2.57593 0
M  V30 17655 H 1632.48 -1.70917 2.63884 0
M  V30 17656 N 1636.26 -1.25243 0.956659 0
M  V30 17657 C 1637.2 -2.2781 0.46963 0
M  V30 17658 C 1638.2 -1.63003 -0.461138 0
M  V30 17659 O 1639.4 -1.76805 -0.337644 0
M  V30 17660 H 1635.78 -0.740078 0.133374 0
M  V30 17661 H 1637.75 -2.66273 1.34689 0
M  V30 17662 C 1636.5 -3.46904 -0.235206 0
M  V30 17663 H 1635.82 -3.97006 0.471869 0
M  V30 17664 H 1637.26 -4.20548 -0.539969 0
M  V30 17665 C 1635.72 -3.03697 -1.45841 0
M  V30 17666 O 1636.25 -3.09887 -2.55603 0
M  V30 17667 N 1634.46 -2.58866 -1.32049 0
M  V30 17668 H 1634 -2.54029 -0.427428 0
M  V30 17669 H 1633.96 -2.30322 -2.14008 0
M  V30 17670 N 1637.73 -0.725468 -1.3991 0
M  V30 17671 C 1639.15 -0.340415 -1.8357 0
M  V30 17672 C 1639.5 1.1266 -1.6063 0
M  V30 17673 O 1638.62 1.86804 -1.0924 0
M  V30 17674 C 1639.22 -0.611079 -3.33244 0
M  V30 17675 C 1637.78 -0.279627 -3.7536 0
M  V30 17676 C 1636.92 -0.878498 -2.63017 0
M  V30 17677 H 1639.87 -0.923856 -1.29037 0
M  V30 17678 H 1639.89 0.120377 -3.8031 0
M  V30 17679 H 1639.41 -1.67886 -3.49908 0
M  V30 17680 H 1637.51 0.782703 -3.64286 0
M  V30 17681 H 1637.62 -0.755528 -4.73105 0
M  V30 17682 H 1635.98 -0.305813 -2.52857 0
M  V30 17683 H 1636.77 -1.95075 -2.8249 0
M  V30 17684 N 1639.21 1.50354 -0.472382 0
M  V30 17685 C 1640.44 2.07238 0.0820787 0
M  V30 17686 C 1640.86 1.3338 1.32632 0
M  V30 17687 O 1640.22 0.381857 1.77233 0
M  V30 17688 C 1640.27 3.58919 0.347746 0
M  V30 17689 O 1639.37 3.86888 1.42799 0
M  V30 17690 H 1638.71 0.663862 -0.0135544 0
M  V30 17691 H 1641.24 1.93533 -0.663795 0
M  V30 17692 H 1641.25 4.03743 0.587855 0
M  V30 17693 H 1639.93 4.12093 -0.56147 0
M  V30 17694 H 1638.51 3.53901 1.17509 0
M  V30 17695 N 1640.69 0.205039 1.56261 0
M  V30 17696 C 1641.62 -0.706815 2.22545 0
M  V30 17697 C 1642.6 -1.21372 1.19176 0
M  V30 17698 O 1643.79 -1.26074 1.47712 0
M  V30 17699 C 1640.92 -1.92221 2.89255 0
M  V30 17700 C 1639.87 -1.54982 3.98954 0
M  V30 17701 C 1639.2 -2.84265 4.52877 0
M  V30 17702 C 1640.5 -0.75225 5.16854 0
M  V30 17703 H 1642.19 -0.15421 2.99003 0
M  V30 17704 H 1639.74 -0.0727309 1.43816 0
M  V30 17705 H 1641.69 -2.56542 3.34311 0
M  V30 17706 H 1640.41 -2.49952 2.10218 0
M  V30 17707 H 1639.07 -0.930155 3.54604 0
M  V30 17708 H 1638.72 -3.40105 3.70591 0
M  V30 17709 H 1638.42 -2.60089 5.26904 0
M  V30 17710 H 1639.95 -3.49557 5.00642 0
M  V30 17711 H 1641.36 -1.29878 5.58395 0
M  V30 17712 H 1639.76 -0.60823 5.9701 0
M  V30 17713 H 1640.83 0.24463 4.84283 0
M  V30 17714 N 1642.17 -1.57451 -0.0684915 0
M  V30 17715 C 1643.4 -1.9164 -0.779855 0
M  V30 17716 C 1643.81 -0.801309 -1.70952 0
M  V30 17717 O 1643.17 0.225134 -1.81106 0
M  V30 17718 C 1643.22 -3.25594 -1.57068 0
M  V30 17719 O 1642.94 -4.32816 -0.678385 0
M  V30 17720 C 1644.44 -3.73818 -2.38275 0
M  V30 17721 H 1641.66 -0.633374 -0.221537 0
M  V30 17722 H 1644.21 -2.04465 -0.0377746 0
M  V30 17723 H 1642.36 -3.14287 -2.26501 0
M  V30 17724 H 1642.78 -5.09903 -1.22877 0
M  V30 17725 H 1644.25 -4.70168 -2.89216 0
M  V30 17726 H 1644.73 -3.02995 -3.17947 0
M  V30 17727 H 1645.33 -3.88081 -1.73992 0
M  V30 17728 N 1643.65 0.339955 -1.5389 0
M  V30 17729 C 1644.89 1.08139 -1.71563 0
M  V30 17730 C 1645.23 1.88193 -0.479292 0
M  V30 17731 O 1644.5 1.87317 0.523702 0
M  V30 17732 C 1644.78 2.01963 -2.98132 0
M  V30 17733 C 1644.64 1.25349 -4.31981 0
M  V30 17734 C 1645.96 3.01729 -3.20387 0
M  V30 17735 H 1643.08 0.391744 -0.624264 0
M  V30 17736 H 1645.72 0.359609 -1.86566 0
M  V30 17737 H 1643.87 2.63511 -2.85472 0
M  V30 17738 H 1645.54 0.66388 -4.56498 0
M  V30 17739 H 1643.78 0.555541 -4.30228 0
M  V30 17740 H 1644.45 1.94154 -5.16728 0
M  V30 17741 H 1646.93 2.50297 -3.32401 0
M  V30 17742 H 1645.81 3.64577 -4.10335 0
M  V30 17743 H 1646.07 3.73303 -2.36849 0
M  V30 17744 N 1645.13 1.45684 0.601159 0
M  V30 17745 C 1646.35 1.53574 1.38646 0
M  V30 17746 C 1646.77 0.170511 1.88028 0
M  V30 17747 O 1646.13 -0.829061 1.62582 0
M  V30 17748 C 1646.18 2.52543 2.58658 0
M  V30 17749 O 1645.9 3.83761 2.11327 0
M  V30 17750 C 1647.4 2.70194 3.5144 0
M  V30 17751 H 1644.62 0.519907 0.424191 0
M  V30 17752 H 1647.16 1.90929 0.732559 0
M  V30 17753 H 1645.32 2.18242 3.20077 0
M  V30 17754 H 1645.73 4.37467 2.89349 0
M  V30 17755 H 1647.21 3.43405 4.32177 0
M  V30 17756 H 1647.68 1.76452 4.02196 0
M  V30 17757 H 1648.29 3.05517 2.95871 0
M  V30 17758 N 1646.6 -0.84422 1.33082 0
M  V30 17759 C 1647.85 -1.60149 1.24419 0
M  V30 17760 C 1648.18 -1.93259 -0.190992 0
M  V30 17761 O 1647.46 -1.58242 -1.13092 0
M  V30 17762 C 1647.74 -2.91502 2.11421 0
M  V30 17763 C 1647.59 -2.65108 3.6337 0
M  V30 17764 C 1648.91 -3.92878 1.98331 0
M  V30 17765 H 1646.03 -0.581096 0.453317 0
M  V30 17766 H 1648.67 -0.974093 1.6313 0
M  V30 17767 H 1646.82 -3.45046 1.78537 0
M  V30 17768 H 1648.5 -2.18037 4.06519 0
M  V30 17769 H 1646.74 -1.98896 3.85516 0
M  V30 17770 H 1647.41 -3.58682 4.19584 0
M  V30 17771 H 1649.89 -3.48623 2.27159 0
M  V30 17772 H 1648.76 -4.82625 2.61466 0
M  V30 17773 H 1649.02 -4.31685 0.953972 0
M  V30 17774 N 1648.08 -1.16463 -1.0618 0
M  V30 17775 C 1649.49 -0.95436 -1.60465 0
M  V30 17776 C 1649.84 0.501455 -1.89684 0
M  V30 17777 O 1648.97 1.37488 -1.67111 0
M  V30 17778 C 1649.56 -1.72603 -2.91537 0
M  V30 17779 C 1648.12 -1.56071 -3.42518 0
M  V30 17780 C 1647.27 -1.73403 -2.16395 0
M  V30 17781 H 1650.22 -1.31316 -0.891166 0
M  V30 17782 H 1650.24 -1.20252 -3.60998 0
M  V30 17783 H 1649.75 -2.78554 -2.70239 0
M  V30 17784 H 1647.85 -0.525652 -3.68874 0
M  V30 17785 H 1647.97 -2.34533 -4.17769 0
M  V30 17786 H 1646.33 -1.16155 -2.26672 0
M  V30 17787 H 1647.11 -2.80745 -1.97578 0
M  V30 17788 N 1649.56 1.24734 -0.963288 0
M  V30 17789 C 1650.81 1.91987 -0.618386 0
M  V30 17790 C 1651.12 1.76179 0.849726 0
M  V30 17791 O 1652.33 2.38082 1.30496 0
M  V30 17792 C 1650.78 3.44079 -1.05534 0
M  V30 17793 C 1650.39 3.68582 -2.5466 0
M  V30 17794 C 1652.14 4.17209 -0.783378 0
M  V30 17795 C 1650.04 5.14223 -2.92111 0
M  V30 17796 H 1648.97 0.718836 -0.227575 0
M  V30 17797 H 1651.62 1.41453 -1.1689 0
M  V30 17798 H 1650.01 3.93624 -0.433168 0
M  V30 17799 H 1651.18 3.29655 -3.2197 0
M  V30 17800 H 1649.49 3.08729 -2.79419 0
M  V30 17801 H 1652.09 5.24503 -1.03924 0
M  V30 17802 H 1652.43 4.15355 0.280352 0
M  V30 17803 H 1652.97 3.736 -1.36631 0
M  V30 17804 H 1649.71 5.21195 -3.97537 0
M  V30 17805 H 1649.23 5.54164 -2.29482 0
M  V30 17806 H 1650.91 5.82419 -2.81775 0
M  V30 17807 N 1651.04 0.732878 1.39523 0
M  V30 17808 C 1652 0.10004 2.28982 0
M  V30 17809 C 1653 -0.669361 1.46206 0
M  V30 17810 O 1654.19 -0.498694 1.66909 0
M  V30 17811 C 1651.32 -0.867616 3.29674 0
M  V30 17812 H 1652.52 0.88816 2.86447 0
M  V30 17813 H 1650.07 0.498578 1.48135 0
M  V30 17814 H 1650.8 -1.68217 2.77261 0
M  V30 17815 H 1650.59 -0.318577 3.90804 0
M  V30 17816 H 1652.08 -1.30704 3.96618 0
M  V30 17817 N 1652.52 -1.50101 0.480349 0
M  V30 17818 C 1653.76 -2.02674 -0.0715373 0
M  V30 17819 C 1654.09 -1.36095 -1.38535 0
M  V30 17820 O 1653.37 -0.489703 -1.88234 0
M  V30 17821 C 1653.65 -3.59261 -0.245693 0
M  V30 17822 C 1653.51 -4.36399 1.08979 0
M  V30 17823 C 1654.82 -4.28682 -0.995966 0
M  V30 17824 H 1651.94 -0.736592 -0.0245244 0
M  V30 17825 H 1654.59 -1.7933 0.627743 0
M  V30 17826 H 1652.74 -3.79281 -0.841308 0
M  V30 17827 H 1654.41 -4.27926 1.72269 0
M  V30 17828 H 1652.65 -3.99773 1.68417 0
M  V30 17829 H 1653.32 -5.44254 0.921468 0
M  V30 17830 H 1655.8 -4.13193 -0.491025 0
M  V30 17831 H 1654.67 -5.38037 -1.08663 0
M  V30 17832 H 1654.93 -3.92491 -2.03479 0
M  V30 17833 N 1653.99 -0.213323 -1.5615 0
M  V30 17834 C 1655.24 0.419767 -1.97693 0
M  V30 17835 C 1655.56 1.60878 -1.10197 0
M  V30 17836 O 1654.83 1.95097 -0.177185 0
M  V30 17837 H 1653.41 0.158075 -0.730083 0
M  V30 17838 H 1656.07 -0.304303 -1.9251 0
M  V30 17839 H 1655.17 0.751645 -3.02914 0
M  V30 17840 N 1655.47 1.57485 0.0601405 0
M  V30 17841 C 1656.38 2.07853 1.08785 0
M  V30 17842 C 1657.4 1.01047 1.41653 0
M  V30 17843 O 1658.57 1.32592 1.51596 0
M  V30 17844 C 1655.64 2.52214 2.37885 0
M  V30 17845 C 1654.7 3.73369 2.11882 0
M  V30 17846 C 1653.93 4.15604 3.34827 0
M  V30 17847 O 1654.16 3.5761 4.44377 0
M  V30 17848 O 1653.09 5.08303 3.22353 0
M  V30 17849 H 1656.92 2.9576 0.689912 0
M  V30 17850 H 1654.5 1.46846 0.275065 0
M  V30 17851 H 1656.38 2.81216 3.1384 0
M  V30 17852 H 1655.06 1.67432 2.77035 0
M  V30 17853 H 1653.97 3.49433 1.33594 0
M  V30 17854 H 1655.3 4.59039 1.77606 0
M  V30 17855 N 1656.95 -0.331789 1.54068 0
M  V30 17856 C 1658.18 -1.09484 1.76148 0
M  V30 17857 C 1658.6 -1.81201 0.504772 0
M  V30 17858 O 1657.96 -1.7297 -0.54325 0
M  V30 17859 C 1658.01 -2.07495 2.94921 0
M  V30 17860 O 1657.11 -3.15239 2.65891 0
M  V30 17861 H 1656.45 -0.316071 0.583948 0
M  V30 17862 H 1658.98 -0.378593 2.01067 0
M  V30 17863 H 1658.99 -2.5051 3.22038 0
M  V30 17864 H 1657.67 -1.54696 3.8606 0
M  V30 17865 H 1656.24 -2.76958 2.49697 0
M  V30 17866 N 1658.43 -1.46001 -0.593424 0
M  V30 17867 C 1659.71 -1.4123 -1.35327 0
M  V30 17868 C 1660.09 -0.0901956 -2.10907 0
M  V30 17869 O 1659.43 0.928102 -2.08803 0
M  V30 17870 C 1659.64 -2.63515 -2.28825 0
M  V30 17871 C 1660.99 -3.09208 -2.90991 0
M  V30 17872 O 1662.02 -2.63988 -2.39142 0
M  V30 17873 O 1660.87 -3.87723 -3.8514 0
M  V30 17874 H 1657.97 -0.561132 -0.607503 0
M  V30 17875 H 1660.51 -1.58151 -0.615333 0
M  V30 17876 H 1659.29 -3.51308 -1.72333 0
M  V30 17877 H 1658.91 -2.48999 -3.09976 0
M  V30 17878 N 1659.91 0.83715 -1.33527 0
M  V30 17879 C 1661.15 1.59251 -1.25081 0
M  V30 17880 C 1661.48 1.93638 0.182956 0
M  V30 17881 O 1660.74 1.59025 1.14059 0
M  V30 17882 C 1661.04 2.9113 -2.07312 0
M  V30 17883 C 1660.7 2.76098 -3.56484 0
M  V30 17884 C 1659.36 2.71706 -3.97151 0
M  V30 17885 C 1661.72 2.60781 -4.51268 0
M  V30 17886 C 1659.04 2.49899 -5.30818 0
M  V30 17887 C 1661.4 2.40507 -5.85097 0
M  V30 17888 C 1660.06 2.34519 -6.24946 0
M  V30 17889 H 1659.33 0.582741 -0.457705 0
M  V30 17890 H 1661.98 0.969749 -1.65131 0
M  V30 17891 H 1660.28 3.57621 -1.60045 0
M  V30 17892 H 1661.98 3.48632 -1.98133 0
M  V30 17893 H 1658.57 2.8035 -3.24194 0
M  V30 17894 H 1662.75 2.63207 -4.20756 0
M  V30 17895 H 1658.01 2.4371 -5.60728 0
M  V30 17896 H 1662.18 2.27639 -6.58144 0
M  V30 17897 H 1659.81 2.17381 -7.28457 0
M  V30 17898 N 1661.38 1.17024 1.05561 0
M  V30 17899 C 1662.29 0.898107 2.16728 0
M  V30 17900 C 1663.31 -0.132369 1.73496 0
M  V30 17901 O 1664.49 0.0460203 2.01347 0
M  V30 17902 C 1661.55 0.411091 3.44254 0
M  V30 17903 C 1660.61 1.5077 4.01954 0
M  V30 17904 C 1659.85 1.04383 5.23393 0
M  V30 17905 O 1660.07 -0.10351 5.70306 0
M  V30 17906 O 1659 1.8353 5.73237 0
M  V30 17907 H 1662.83 1.82791 2.42531 0
M  V30 17908 H 1660.41 0.950816 1.15238 0
M  V30 17909 H 1662.3 0.146837 4.21144 0
M  V30 17910 H 1660.97 -0.490605 3.19961 0
M  V30 17911 H 1659.88 1.82579 3.26521 0
M  V30 17912 H 1661.21 2.38497 4.30558 0
M  V30 17913 N 1662.86 -1.24221 0.969889 0
M  V30 17914 C 1663.81 -2.27299 0.493765 0
M  V30 17915 C 1664.8 -1.63483 -0.443824 0
M  V30 17916 O 1666.01 -1.77153 -0.318873 0
M  V30 17917 H 1662.39 -0.738622 0.141216 0
M  V30 17918 H 1664.36 -2.6483 1.37506 0
M  V30 17919 C 1663.11 -3.47134 -0.198399 0
M  V30 17920 H 1662.43 -3.96483 0.51395 0
M  V30 17921 H 1663.87 -4.21097 -0.495334 0
M  V30 17922 C 1662.33 -3.05227 -1.42612 0
M  V30 17923 O 1662.86 -3.1258 -2.52302 0
M  V30 17924 N 1661.06 -2.60252 -1.29295 0
M  V30 17925 H 1660.61 -2.54468 -0.400461 0
M  V30 17926 H 1660.57 -2.32579 -2.11553 0
M  V30 17927 N 1664.34 -0.740267 -1.39132 0
M  V30 17928 C 1665.27 -0.118951 -2.33197 0
M  V30 17929 C 1666.25 0.718416 -1.54184 0
M  V30 17930 O 1667.44 0.662322 -1.82557 0
M  V30 17931 C 1664.57 0.78512 -3.38309 0
M  V30 17932 C 1663.52 0.0515093 -4.27969 0
M  V30 17933 C 1662.85 1.07295 -5.23824 0
M  V30 17934 C 1664.15 -1.10903 -5.1039 0
M  V30 17935 H 1665.84 -0.904687 -2.85405 0
M  V30 17936 H 1663.39 -0.436493 -1.37225 0
M  V30 17937 H 1665.34 1.22935 -4.03069 0
M  V30 17938 H 1664.06 1.60303 -2.84553 0
M  V30 17939 H 1662.72 -0.373156 -3.64696 0
M  V30 17940 H 1662.37 1.88456 -4.66362 0
M  V30 17941 H 1662.07 0.586827 -5.84662 0
M  V30 17942 H 1663.59 1.51677 -5.91461 0
M  V30 17943 H 1665.01 -0.742993 -5.68465 0
M  V30 17944 H 1663.41 -1.52513 -5.80396 0
M  V30 17945 H 1664.48 -1.92825 -4.44912 0
M  V30 17946 N 1665.82 1.49844 -0.488302 0
M  V30 17947 C 1666.77 2.30515 0.310703 0
M  V30 17948 C 1667.76 1.38559 0.974569 0
M  V30 17949 O 1668.97 1.5567 0.903708 0
M  V30 17950 H 1665.34 0.742517 0.119049 0
M  V30 17951 H 1667.31 2.95842 -0.389849 0
M  V30 17952 C 1666.06 3.19575 1.36994 0
M  V30 17953 H 1665.38 3.90253 0.868497 0
M  V30 17954 H 1666.82 3.78984 1.90123 0
M  V30 17955 C 1665.28 2.38324 2.38124 0
M  V30 17956 O 1665.81 2.07842 3.43751 0
M  V30 17957 N 1664.02 2.00583 2.10273 0
M  V30 17958 H 1663.57 2.25572 1.24399 0
M  V30 17959 H 1663.52 1.46525 2.78169 0
M  V30 17960 N 1667.3 0.221601 1.56034 0
M  V30 17961 C 1668.52 -0.414945 2.02696 0
M  V30 17962 C 1668.94 -1.53344 1.10141 0
M  V30 17963 O 1668.3 -1.82162 0.111026 0
M  V30 17964 C 1668.35 -0.946532 3.48888 0
M  V30 17965 O 1668.07 0.12737 4.37915 0
M  V30 17966 C 1669.57 -1.65631 4.11195 0
M  V30 17967 H 1666.79 -0.101548 0.663271 0
M  V30 17968 H 1669.33 0.338069 2.01686 0
M  V30 17969 H 1667.49 -1.64982 3.50514 0
M  V30 17970 H 1667.9 -0.272211 5.23793 0
M  V30 17971 H 1669.38 -1.98027 5.15257 0
M  V30 17972 H 1669.85 -2.56947 3.56195 0
M  V30 17973 H 1670.46 -0.998231 4.13419 0
M  V30 17974 N 1668.77 -1.57515 -0.0517878 0
M  V30 17975 C 1669.68 -2.08427 -1.07681 0
M  V30 17976 C 1670.7 -1.01797 -1.41115 0
M  V30 17977 O 1671.88 -1.33394 -1.50891 0
M  V30 17978 C 1668.94 -2.53472 -2.36544 0
M  V30 17979 C 1668 -3.74488 -2.09899 0
M  V30 17980 C 1667.24 -4.17374 -3.32618 0
M  V30 17981 O 1667.46 -3.59962 -4.42475 0
M  V30 17982 O 1666.39 -5.10006 -3.19653 0
M  V30 17983 H 1670.22 -2.96122 -0.674217 0
M  V30 17984 H 1667.8 -1.4699 -0.267274 0
M  V30 17985 H 1669.69 -2.82876 -3.12345 0
M  V30 17986 H 1668.36 -1.68899 -2.76143 0
M  V30 17987 H 1667.27 -3.50137 -1.31739 0
M  V30 17988 H 1668.6 -4.59975 -1.75169 0
M  V30 17989 N 1670.25 0.323614 -1.54242 0
M  V30 17990 C 1671.53 1.07979 -1.63095 0
M  V30 17991 C 1671.91 2.0592 -0.464774 0
M  V30 17992 O 1671.26 2.22004 0.540961 0
M  V30 17993 C 1671.47 1.78178 -3.0009 0
M  V30 17994 C 1672.82 2.31201 -3.56134 0
M  V30 17995 O 1673.84 1.88245 -3.02394 0
M  V30 17996 O 1672.7 3.09843 -4.50177 0
M  V30 17997 H 1669.79 0.497726 -0.660453 0
M  V30 17998 H 1672.34 0.323509 -1.66588 0
M  V30 17999 H 1671.11 1.06938 -3.76404 0
M  V30 18000 H 1670.73 2.60616 -3.00275 0
M  V30 18001 N 1671.73 1.46313 0.585673 0
M  V30 18002 C 1672.98 1.5147 1.34399 0
M  V30 18003 C 1673.31 0.165209 1.93797 0
M  V30 18004 O 1672.56 -0.838796 1.76813 0
M  V30 18005 C 1672.86 2.55895 2.49504 0
M  V30 18006 C 1672.53 3.99997 2.08118 0
M  V30 18007 C 1671.19 4.3923 1.96545 0
M  V30 18008 C 1673.54 4.90532 1.76147 0
M  V30 18009 C 1670.87 5.66867 1.51256 0
M  V30 18010 C 1673.22 6.18603 1.32338 0
M  V30 18011 C 1671.88 6.56745 1.1934 0
M  V30 18012 H 1671.15 0.554268 0.491801 0
M  V30 18013 H 1673.8 1.79774 0.659803 0
M  V30 18014 H 1672.11 2.21241 3.23357 0
M  V30 18015 H 1673.8 2.57116 3.07722 0
M  V30 18016 H 1670.39 3.68983 2.18058 0
M  V30 18017 H 1674.58 4.60942 1.83974 0
M  V30 18018 H 1669.83 5.95194 1.39834 0
M  V30 18019 H 1674.01 6.88185 1.06653 0
M  V30 18020 H 1671.63 7.55542 0.840228 0
M  V30 18021 N 1673.21 -0.830057 1.33969 0
M  V30 18022 C 1674.43 -1.62294 1.29133 0
M  V30 18023 C 1674.86 -1.87627 -0.133253 0
M  V30 18024 O 1674.22 -1.44669 -1.09272 0
M  V30 18025 C 1674.27 -2.94508 2.0808 0
M  V30 18026 O 1673.37 -3.86239 1.44544 0
M  V30 18027 H 1672.71 -0.493865 0.443839 0
M  V30 18028 H 1675.24 -1.03202 1.76665 0
M  V30 18029 H 1675.25 -3.44133 2.19173 0
M  V30 18030 H 1673.93 -2.75392 3.1166 0
M  V30 18031 H 1672.5 -3.44743 1.42151 0
M  V30 18032 N 1674.69 -1.17582 -1.04939 0
M  V30 18033 C 1675.91 -0.99097 -1.82194 0
M  V30 18034 C 1676.34 0.455965 -1.8249 0
M  V30 18035 O 1675.7 1.32661 -1.23575 0
M  V30 18036 C 1675.74 -1.53971 -3.26076 0
M  V30 18037 O 1674.85 -0.755172 -4.05427 0
M  V30 18038 H 1674.19 -0.351669 -0.563227 0
M  V30 18039 H 1676.72 -1.56138 -1.3222 0
M  V30 18040 H 1676.73 -1.56307 -3.76872 0
M  V30 18041 H 1675.4 -2.59295 -3.25175 0
M  V30 18042 H 1673.98 -0.803423 -3.64142 0
M  V30 18043 N 1676.17 1.23705 -0.976463 0
M  V30 18044 C 1677.08 2.28728 -0.521605 0
M  V30 18045 C 1678.09 1.68813 0.421691 0
M  V30 18046 O 1679.27 1.99263 0.292579 0
M  V30 18047 C 1676.33 3.4627 0.172545 0
M  V30 18048 C 1675.39 4.21557 -0.811664 0
M  V30 18049 C 1674.63 5.33488 -0.150546 0
M  V30 18050 O 1674.85 5.60478 1.05926 0
M  V30 18051 O 1673.78 5.95909 -0.847132 0
M  V30 18052 H 1677.61 2.6977 -1.39491 0
M  V30 18053 H 1675.19 1.29562 -0.743909 0
M  V30 18054 H 1677.08 4.17634 0.562103 0
M  V30 18055 H 1675.75 3.07187 1.02067 0
M  V30 18056 H 1674.66 3.52533 -1.25185 0
M  V30 18057 H 1675.99 4.6448 -1.62848 0
M  V30 18058 N 1677.64 0.747635 1.38738 0
M  V30 18059 C 1678.87 0.310484 2.05063 0
M  V30 18060 C 1679.29 -1.05078 1.56013 0
M  V30 18061 O 1678.65 -1.66842 0.709461 0
M  V30 18062 C 1678.7 0.335837 3.59033 0
M  V30 18063 O 1677.8 -0.672218 4.06884 0
M  V30 18064 H 1677.14 0.138591 0.649375 0
M  V30 18065 H 1679.67 1.01709 1.77529 0
M  V30 18066 H 1679.68 0.184631 4.07582 0
M  V30 18067 H 1678.36 1.32906 3.94092 0
M  V30 18068 H 1676.94 -0.486112 3.69718 0
M  V30 18069 N 1679.12 -1.49583 0.496242 0
M  V30 18070 C 1680.4 -1.95275 -0.112751 0
M  V30 18071 C 1680.78 -1.43758 -1.54586 0
M  V30 18072 O 1680.13 -0.649285 -2.19081 0
M  V30 18073 C 1680.34 -3.48987 -0.0302774 0
M  V30 18074 C 1681.68 -4.24097 -0.206595 0
M  V30 18075 O 1682.71 -3.56043 -0.105689 0
M  V30 18076 O 1681.57 -5.44936 -0.413172 0
M  V30 18077 H 1678.66 -0.821183 -0.0979145 0
M  V30 18078 H 1681.21 -1.60248 0.558441 0
M  V30 18079 H 1679.98 -3.79104 0.969322 0
M  V30 18080 H 1679.6 -3.90618 -0.741825 0
M  V30 18081 N 1680.6 -0.229873 -1.55915 0
M  V30 18082 C 1681.53 0.671321 -2.23642 0
M  V30 18083 C 1682.51 1.19461 -1.21091 0
M  V30 18084 O 1683.7 1.23708 -1.49699 0
M  V30 18085 C 1680.83 1.87595 -2.92276 0
M  V30 18086 C 1679.78 1.48616 -4.01369 0
M  V30 18087 C 1679.11 2.77024 -4.57342 0
M  V30 18088 C 1680.41 0.669928 -5.17986 0
M  V30 18089 H 1682.1 0.106622 -2.9921 0
M  V30 18090 H 1679.65 0.0498418 -1.43914 0
M  V30 18091 H 1681.6 2.51191 -3.3835 0
M  V30 18092 H 1680.32 2.46576 -2.14168 0
M  V30 18093 H 1678.98 0.873623 -3.56038 0
M  V30 18094 H 1678.63 3.34166 -3.75955 0
M  V30 18095 H 1678.33 2.51674 -5.30975 0
M  V30 18096 H 1679.85 3.41548 -5.0614 0
M  V30 18097 H 1681.27 1.20978 -5.6039 0
M  V30 18098 H 1679.66 0.513174 -5.97902 0
M  V30 18099 H 1680.73 -0.321644 -4.83832 0
M  V30 18100 N 1682.08 1.5754 0.0434337 0
M  V30 18101 C 1682.99 2.08996 1.06574 0
M  V30 18102 C 1684 1.02544 1.40573 0
M  V30 18103 O 1685.18 1.34192 1.50181 0
M  V30 18104 C 1682.24 2.54723 2.35196 0
M  V30 18105 C 1681.31 3.75595 2.0791 0
M  V30 18106 C 1680.54 4.19132 3.304 0
M  V30 18107 O 1680.76 3.62303 4.40559 0
M  V30 18108 O 1679.7 5.11694 3.16944 0
M  V30 18109 H 1683.52 2.96475 0.658503 0
M  V30 18110 H 1681.11 1.47129 0.259475 0
M  V30 18111 H 1682.99 2.84529 3.1084 0
M  V30 18112 H 1681.66 1.70361 2.75243 0
M  V30 18113 H 1680.57 3.5083 1.2988 0
M  V30 18114 H 1681.9 4.60897 1.72727 0
M  V30 18115 N 1683.56 -0.31543 1.54411 0
M  V30 18116 C 1684.47 -1.41136 1.87397 0
M  V30 18117 C 1685.48 -1.56199 0.76668 0
M  V30 18118 O 1686.66 -1.71139 1.06176 0
M  V30 18119 C 1683.72 -2.75731 2.10174 0
M  V30 18120 C 1682.78 -2.69776 3.33945 0
M  V30 18121 C 1682.02 -3.97952 3.55626 0
M  V30 18122 O 1682.24 -4.96614 2.80589 0
M  V30 18123 O 1681.17 -4.00719 4.49119 0
M  V30 18124 H 1685 -1.16167 2.80605 0
M  V30 18125 H 1682.58 -0.510193 1.40419 0
M  V30 18126 H 1684.47 -3.55392 2.26439 0
M  V30 18127 H 1683.14 -3.00574 1.20154 0
M  V30 18128 H 1682.05 -1.88638 3.23058 0
M  V30 18129 H 1683.38 -2.49887 4.24049 0
M  V30 18130 N 1685.03 -1.46622 -0.577906 0
M  V30 18131 C 1686.26 -1.56 -1.36671 0
M  V30 18132 C 1686.68 -0.2034 -1.86997 0
M  V30 18133 O 1686.04 0.817288 -1.61834 0
M  V30 18134 C 1686.09 -2.57254 -2.52691 0
M  V30 18135 O 1685.19 -2.1109 -3.54281 0
M  V30 18136 H 1684.54 -0.524779 -0.406821 0
M  V30 18137 H 1687.07 -1.92234 -0.700512 0
M  V30 18138 H 1687.08 -2.77016 -2.99543 0
M  V30 18139 H 1685.75 -3.55766 -2.15415 0
M  V30 18140 H 1684.33 -2.01337 -3.13875 0
M  V30 18141 N 1686.51 0.822941 -1.34408 0
M  V30 18142 C 1687.46 1.93383 -1.25982 0
M  V30 18143 C 1688.43 1.6555 -0.13506 0
M  V30 18144 O 1689.61 1.88164 -0.316033 0
M  V30 18145 C 1686.75 3.29646 -1.02117 0
M  V30 18146 C 1685.87 3.69772 -2.23366 0
M  V30 18147 C 1685 4.94982 -1.92784 0
M  V30 18148 C 1684.04 5.2769 -3.10177 0
M  V30 18149 N 1683.18 6.44078 -2.79479 0
M  V30 18150 H 1688.02 1.99922 -2.20987 0
M  V30 18151 H 1685.56 0.978105 -1.0987 0
M  V30 18152 H 1687.51 4.08173 -0.863175 0
M  V30 18153 H 1686.14 3.2262 -0.107803 0
M  V30 18154 H 1685.2 2.86637 -2.50086 0
M  V30 18155 H 1686.51 3.89914 -3.11076 0
M  V30 18156 H 1685.66 5.81297 -1.73721 0
M  V30 18157 H 1684.4 4.76843 -1.02335 0
M  V30 18158 H 1683.41 4.39873 -3.29837 0
M  V30 18159 H 1684.63 5.47769 -4.01405 0
M  V30 18160 H 1682.58 6.27394 -1.91605 0
M  V30 18161 H 1682.49 6.64392 -3.60721 0
M  V30 18162 H 1683.76 7.33462 -2.63919 0
M  V30 18163 N 1687.99 1.18137 1.04314 0
M  V30 18164 C 1688.9 0.921044 2.15764 0
M  V30 18165 C 1689.92 -0.11396 1.73626 0
M  V30 18166 O 1691.09 0.0673733 2.01287 0
M  V30 18167 C 1688.16 0.447581 3.43799 0
M  V30 18168 C 1687.22 1.55025 4.00332 0
M  V30 18169 C 1686.45 1.09928 5.22256 0
M  V30 18170 O 1686.67 -0.0430152 5.70384 0
M  V30 18171 O 1685.61 1.896 5.71258 0
M  V30 18172 H 1689.43 1.85353 2.40579 0
M  V30 18173 H 1687.02 0.962985 1.14223 0
M  V30 18174 H 1688.9 0.191497 4.20965 0
M  V30 18175 H 1687.58 -0.456641 3.20463 0
M  V30 18176 H 1686.48 1.86032 3.24566 0
M  V30 18177 H 1687.82 2.4305 4.28004 0
M  V30 18178 N 1689.47 -1.23186 0.98301 0
M  V30 18179 C 1690.42 -2.24748 0.525082 0
M  V30 18180 C 1691.39 -1.60237 -0.437411 0
M  V30 18181 O 1692.57 -1.87666 -0.344376 0
M  V30 18182 C 1689.71 -3.44711 -0.163809 0
M  V30 18183 C 1688.82 -4.23769 0.839254 0
M  V30 18184 C 1687.96 -5.31053 0.1249 0
M  V30 18185 C 1687 -6.01822 1.117 0
M  V30 18186 N 1686.13 -7.00772 0.431625 0
M  V30 18187 H 1690.97 -2.63283 1.39593 0
M  V30 18188 H 1688.51 -1.29407 0.699438 0
M  V30 18189 H 1690.47 -4.13148 -0.580046 0
M  V30 18190 H 1689.1 -3.06969 -0.998507 0
M  V30 18191 H 1688.15 -3.54724 1.37386 0
M  V30 18192 H 1689.46 -4.72606 1.59515 0
M  V30 18193 H 1688.62 -6.05698 -0.348569 0
M  V30 18194 H 1687.36 -4.83165 -0.663573 0
M  V30 18195 H 1686.36 -5.25967 1.6012 0
M  V30 18196 H 1687.59 -6.51799 1.90618 0
M  V30 18197 H 1685.53 -6.55131 -0.337592 0
M  V30 18198 H 1685.45 -7.47566 1.12613 0
M  V30 18199 H 1686.72 -7.79498 -0.0193703 0
M  V30 18200 N 1690.95 -0.754982 -1.38339 0
M  V30 18201 C 1691.88 -0.143678 -2.33058 0
M  V30 18202 C 1692.86 0.702022 -1.54938 0
M  V30 18203 O 1694.04 0.642922 -1.83249 0
M  V30 18204 C 1691.17 0.749194 -3.39123 0
M  V30 18205 C 1690.13 0.00611459 -4.28 0
M  V30 18206 C 1689.45 1.01733 -5.24933 0
M  V30 18207 C 1690.75 -1.1631 -5.09185 0
M  V30 18208 H 1692.45 -0.934907 -2.84429 0
M  V30 18209 H 1689.99 -0.451023 -1.36754 0
M  V30 18210 H 1691.95 1.18653 -4.04351 0
M  V30 18211 H 1690.67 1.57276 -2.86237 0
M  V30 18212 H 1689.33 -0.411816 -3.6428 0
M  V30 18213 H 1688.98 1.83499 -4.68334 0
M  V30 18214 H 1688.68 0.524783 -5.85252 0
M  V30 18215 H 1690.2 1.45395 -5.93037 0
M  V30 18216 H 1691.61 -0.803244 -5.67645 0
M  V30 18217 H 1690.01 -1.5866 -5.78746 0
M  V30 18218 H 1691.08 -1.97533 -4.42842 0
M  V30 18219 N 1692.42 1.49318 -0.504168 0
M  V30 18220 C 1693.37 2.30832 0.286237 0
M  V30 18221 C 1694.37 1.39585 0.959818 0
M  V30 18222 O 1695.57 1.5662 0.887146 0
M  V30 18223 H 1691.95 0.743738 0.111167 0
M  V30 18224 H 1693.92 2.95412 -0.421206 0
M  V30 18225 C 1692.67 3.2101 1.33596 0
M  V30 18226 H 1691.99 3.91152 0.827057 0
M  V30 18227 H 1693.43 3.8098 1.86093 0
M  V30 18228 C 1691.89 2.40836 2.35583 0
M  V30 18229 O 1692.42 2.11476 3.41527 0
M  V30 18230 N 1690.63 2.02802 2.08134 0
M  V30 18231 H 1690.17 2.26879 1.21999 0
M  V30 18232 H 1690.13 1.49467 2.76599 0
M  V30 18233 N 1693.9 0.238138 1.5579 0
M  V30 18234 C 1694.81 -0.676049 2.24648 0
M  V30 18235 C 1695.83 -1.20038 1.25964 0
M  V30 18236 O 1697 -1.2385 1.58818 0
M  V30 18237 C 1694.07 -1.86014 2.92574 0
M  V30 18238 C 1693.13 -1.37615 4.06646 0
M  V30 18239 C 1692.36 -2.5038 4.71323 0
M  V30 18240 O 1692.59 -3.68906 4.35045 0
M  V30 18241 O 1691.52 -2.20636 5.60003 0
M  V30 18242 H 1695.35 -0.119372 3.03465 0
M  V30 18243 H 1692.93 0.00699789 1.49398 0
M  V30 18244 H 1694.81 -2.55132 3.35389 0
M  V30 18245 H 1693.49 -2.4046 2.16704 0
M  V30 18246 H 1692.4 -0.652503 3.68366 0
M  V30 18247 H 1693.73 -0.877871 4.84308 0
M  V30 18248 N 1695.38 -1.57561 -0.0350783 0
M  V30 18249 C 1696.61 -1.93644 -0.742753 0
M  V30 18250 C 1697.03 -0.837655 -1.68419 0
M  V30 18251 O 1696.39 0.207069 -1.80114 0
M  V30 18252 C 1696.44 -3.28779 -1.48111 0
M  V30 18253 O 1695.54 -3.20604 -2.59398 0
M  V30 18254 H 1694.88 -0.633103 -0.200192 0
M  V30 18255 H 1697.41 -2.04599 0.00765271 0
M  V30 18256 H 1697.42 -3.63527 -1.85236 0
M  V30 18257 H 1696.1 -4.08316 -0.790608 0
M  V30 18258 H 1694.67 -2.97477 -2.2486 0
M  V30 18259 N 1696.86 0.307236 -1.54576 0
M  V30 18260 C 1698.08 1.06668 -1.77867 0
M  V30 18261 C 1698.51 1.80375 -0.533536 0
M  V30 18262 O 1697.87 1.73812 0.515663 0
M  V30 18263 C 1697.91 2.02777 -2.98184 0
M  V30 18264 O 1697.02 3.10969 -2.70872 0
M  V30 18265 H 1696.36 0.306741 -0.588902 0
M  V30 18266 H 1698.89 0.346557 -2.01644 0
M  V30 18267 H 1698.9 2.45355 -3.25983 0
M  V30 18268 H 1697.57 1.48534 -3.88472 0
M  V30 18269 H 1696.15 2.7295 -2.54072 0
M  V30 18270 N 1698.34 1.46926 0.570122 0
M  V30 18271 C 1699.56 1.56722 1.35841 0
M  V30 18272 C 1699.99 0.213314 1.86887 0
M  V30 18273 O 1699.34 -0.808694 1.62265 0
M  V30 18274 C 1699.39 2.5859 2.51323 0
M  V30 18275 O 1698.5 2.12966 3.53156 0
M  V30 18276 H 1697.84 0.526929 0.404032 0
M  V30 18277 H 1700.37 1.92603 0.690308 0
M  V30 18278 H 1700.38 2.78601 2.9807 0
M  V30 18279 H 1699.05 3.56903 2.13525 0
M  V30 18280 H 1697.63 2.02999 3.12803 0
M  V30 18281 N 1699.82 -0.815801 1.34842 0
M  V30 18282 C 1701.04 -1.60915 1.30848 0
M  V30 18283 C 1701.47 -1.87758 -0.113345 0
M  V30 18284 O 1700.82 -1.4582 -1.07732 0
M  V30 18285 C 1700.87 -2.92284 2.11192 0
M  V30 18286 O 1699.98 -3.84685 1.48632 0
M  V30 18287 H 1699.32 -0.48913 0.449052 0
M  V30 18288 H 1701.85 -1.01322 1.7775 0
M  V30 18289 H 1701.86 -3.41789 2.2281 0
M  V30 18290 H 1700.53 -2.72071 3.14563 0
M  V30 18291 H 1699.11 -3.43215 1.458 0
M  V30 18292 N 1701.29 -1.18689 -1.03686 0
M  V30 18293 C 1702.52 -1.01024 -1.81132 0
M  V30 18294 C 1702.94 0.436584 -1.82963 0
M  V30 18295 O 1702.3 1.31343 -1.24975 0
M  V30 18296 C 1702.35 -1.5742 -3.24424 0
M  V30 18297 O 1701.45 -0.79813 -4.04603 0
M  V30 18298 H 1700.79 -0.357623 -0.559465 0
M  V30 18299 H 1703.32 -1.57532 -1.30556 0
M  V30 18300 H 1703.33 -1.60295 -3.75193 0
M  V30 18301 H 1702.01 -2.6273 -3.22406 0
M  V30 18302 H 1700.59 -0.842 -3.6327 0
M  V30 18303 N 1702.77 1.22662 -0.989529 0
M  V30 18304 C 1703.68 2.28162 -0.545835 0
M  V30 18305 C 1704.7 1.69251 0.403762 0
M  V30 18306 O 1705.87 1.99563 0.271428 0
M  V30 18307 C 1702.94 3.46434 0.135808 0
M  V30 18308 C 1702 4.20673 -0.85633 0
M  V30 18309 C 1701.23 5.33298 -0.207121 0
M  V30 18310 O 1701.46 5.6157 0.99975 0
M  V30 18311 O 1700.39 5.94977 -0.910288 0
M  V30 18312 H 1704.22 2.68276 -1.42344 0
M  V30 18313 H 1701.8 1.28766 -0.757609 0
M  V30 18314 H 1703.68 4.18207 0.517776 0
M  V30 18315 H 1702.36 3.08252 0.988035 0
M  V30 18316 H 1701.26 3.51186 -1.28917 0
M  V30 18317 H 1702.6 4.62726 -1.67765 0
M  V30 18318 N 1704.25 0.762308 1.37937 0
M  V30 18319 C 1705.5 0.321732 1.99523 0
M  V30 18320 C 1705.82 -1.10286 1.60816 0
M  V30 18321 O 1705.09 -1.75565 0.869117 0
M  V30 18322 H 1703.67 0.115967 0.737943 0
M  V30 18323 H 1706.33 0.978339 1.68566 0
M  V30 18324 H 1705.43 0.391818 3.09631 0
M  V30 18325 N 1705.73 -1.49049 0.51208 0
M  V30 18326 C 1706.95 -2.07382 -0.0271044 0
M  V30 18327 C 1707.38 -1.3685 -1.29049 0
M  V30 18328 O 1706.74 -0.428713 -1.76158 0
M  V30 18329 C 1706.78 -3.59715 -0.252462 0
M  V30 18330 O 1705.89 -3.90538 -1.32491 0
M  V30 18331 H 1705.23 -0.663269 0.0311507 0
M  V30 18332 H 1707.76 -1.91705 0.714873 0
M  V30 18333 H 1707.77 -4.05159 -0.480603 0
M  V30 18334 H 1706.44 -4.10459 0.670531 0
M  V30 18335 H 1705.02 -3.56892 -1.08085 0
M  V30 18336 N 1707.21 -0.246397 -1.55662 0
M  V30 18337 C 1708.43 0.382645 -2.03331 0
M  V30 18338 C 1708.85 1.51573 -1.12566 0
M  V30 18339 O 1708.21 1.81962 -0.139992 0
M  V30 18340 C 1708.26 0.890907 -3.5035 0
M  V30 18341 O 1707.98 -0.197023 -4.37657 0
M  V30 18342 C 1709.48 1.59069 -4.13778 0
M  V30 18343 H 1706.7 0.0909834 -0.664803 0
M  V30 18344 H 1709.24 -0.370113 -2.01123 0
M  V30 18345 H 1707.4 1.59385 -3.53094 0
M  V30 18346 H 1707.81 0.188846 -5.2416 0
M  V30 18347 H 1709.29 1.89805 -5.18342 0
M  V30 18348 H 1709.76 2.51248 -3.60238 0
M  V30 18349 H 1710.37 0.932333 -4.14955 0
M  V30 18350 N 1708.68 1.57577 0.026722 0
M  V30 18351 C 1709.93 1.8966 0.718124 0
M  V30 18352 C 1710.26 0.844423 1.7488 0
M  V30 18353 O 1709.54 -0.14023 1.93994 0
M  V30 18354 C 1709.82 3.32377 1.38555 0
M  V30 18355 C 1709.67 4.4829 0.368227 0
M  V30 18356 C 1710.99 3.74051 2.31891 0
M  V30 18357 H 1708.11 0.689767 0.259596 0
M  V30 18358 H 1710.75 1.8999 -0.0190825 0
M  V30 18359 H 1708.9 3.32226 2.01391 0
M  V30 18360 H 1710.58 4.60576 -0.258394 0
M  V30 18361 H 1708.82 4.32675 -0.312255 0
M  V30 18362 H 1709.49 5.45041 0.873749 0
M  V30 18363 H 1711.97 3.75584 1.79097 0
M  V30 18364 H 1710.84 4.74713 2.7557 0
M  V30 18365 H 1711.1 3.06438 3.18666 0
M  V30 18366 N 1710.16 -0.299034 1.54737 0
M  V30 18367 C 1711.44 -1.05371 1.64792 0
M  V30 18368 C 1711.82 -2.05155 0.497475 0
M  V30 18369 O 1711.17 -2.22837 -0.505573 0
M  V30 18370 C 1711.38 -1.73381 3.02886 0
M  V30 18371 C 1712.72 -2.25506 3.59767 0
M  V30 18372 O 1713.75 -1.8341 3.05351 0
M  V30 18373 O 1712.61 -3.02642 4.55049 0
M  V30 18374 H 1709.7 -0.487156 0.668287 0
M  V30 18375 H 1712.25 -0.296965 1.67081 0
M  V30 18376 H 1711.02 -1.00936 3.78058 0
M  V30 18377 H 1710.64 -2.55806 3.04383 0
M  V30 18378 N 1711.64 -1.47227 -0.562322 0
M  V30 18379 C 1712.89 -1.52851 -1.31604 0
M  V30 18380 C 1713.2 -0.193236 -1.94643 0
M  V30 18381 O 1714.41 -0.127429 -2.71201 0
M  V30 18382 C 1712.86 -2.69422 -2.3862 0
M  V30 18383 C 1712.47 -4.09457 -1.81794 0
M  V30 18384 C 1714.22 -2.84334 -3.15205 0
M  V30 18385 C 1712.12 -5.17337 -2.8656 0
M  V30 18386 H 1711.05 -0.568923 -0.494816 0
M  V30 18387 H 1713.7 -1.73489 -0.597819 0
M  V30 18388 H 1712.09 -2.42153 -3.13333 0
M  V30 18389 H 1713.26 -4.46606 -1.13487 0
M  V30 18390 H 1711.57 -3.99387 -1.17811 0
M  V30 18391 H 1714.17 -3.621 -3.93431 0
M  V30 18392 H 1714.51 -1.9259 -3.69073 0
M  V30 18393 H 1715.05 -3.11348 -2.47603 0
M  V30 18394 H 1711.79 -6.1094 -2.37554 0
M  V30 18395 H 1711.31 -4.8471 -3.53293 0
M  V30 18396 H 1712.99 -5.44065 -3.50146 0
M  V30 18397 N 1713.12 0.808639 -1.35273 0
M  V30 18398 C 1714.37 1.56253 -1.28177 0
M  V30 18399 C 1714.69 1.94466 0.144151 0
M  V30 18400 O 1713.96 1.63433 1.08011 0
M  V30 18401 H 1712.54 0.579431 -0.471454 0
M  V30 18402 H 1715.2 0.964675 -1.69352 0
M  V30 18403 H 1714.29 2.47888 -1.89625 0
M  V30 18404 N 1714.6 1.19237 1.03055 0
M  V30 18405 C 1715.56 0.930536 2.0946 0
M  V30 18406 C 1716.56 -0.0882907 1.60557 0
M  V30 18407 O 1717.75 0.146269 1.73585 0
M  V30 18408 C 1714.88 0.398165 3.38567 0
M  V30 18409 H 1716.07 1.87422 2.34122 0
M  V30 18410 H 1713.63 1.00579 1.19639 0
M  V30 18411 H 1714.36 -0.551646 3.19574 0
M  V30 18412 H 1714.15 1.13273 3.75382 0
M  V30 18413 H 1715.64 0.234006 4.16944 0
M  V30 18414 N 1716.07 -1.22136 0.99602 0
M  V30 18415 C 1717.49 -1.72743 0.708295 0
M  V30 18416 C 1717.84 -1.8026 -0.774649 0
M  V30 18417 O 1716.96 -1.45102 -1.60544 0
M  V30 18418 C 1717.56 -3.13729 1.27905 0
M  V30 18419 C 1716.12 -3.61729 1.04064 0
M  V30 18420 C 1715.26 -2.39519 1.39735 0
M  V30 18421 H 1718.21 -1.07439 1.16801 0
M  V30 18422 H 1718.23 -3.74746 0.65919 0
M  V30 18423 H 1717.75 -3.08225 2.35836 0
M  V30 18424 H 1715.85 -3.72594 -0.0219029 0
M  V30 18425 H 1715.96 -4.47689 1.70621 0
M  V30 18426 H 1714.32 -2.41275 0.815986 0
M  V30 18427 H 1715.11 -2.36675 2.48677 0
M  V30 18428 N 1717.55 -0.769612 -1.37531 0
M  V30 18429 C 1718.8 -0.33346 -2.0004 0
M  V30 18430 C 1719.13 1.08661 -1.60955 0
M  V30 18431 O 1718.41 1.74714 -0.854709 0
M  V30 18432 C 1718.69 -0.474588 -3.56959 0
M  V30 18433 C 1718.54 -1.93692 -4.0596 0
M  V30 18434 C 1719.86 0.122429 -4.3993 0
M  V30 18435 H 1716.98 -0.122637 -0.726725 0
M  V30 18436 H 1719.62 -0.972255 -1.6324 0
M  V30 18437 H 1717.77 0.0692352 -3.88438 0
M  V30 18438 H 1719.44 -2.54028 -3.85055 0
M  V30 18439 H 1717.69 -2.44647 -3.58232 0
M  V30 18440 H 1718.36 -1.98674 -5.15008 0
M  V30 18441 H 1720.83 -0.341557 -4.14696 0
M  V30 18442 H 1719.71 -0.00646545 -5.489 0
M  V30 18443 H 1719.97 1.21251 -4.25148 0
M  V30 18444 N 1719.03 1.48775 -0.519977 0
M  V30 18445 C 1719.94 2.33239 0.252329 0
M  V30 18446 C 1720.96 1.45852 0.948849 0
M  V30 18447 O 1722.13 1.78848 0.92603 0
M  V30 18448 C 1719.2 3.2174 1.29166 0
M  V30 18449 C 1718.26 4.24993 0.606564 0
M  V30 18450 C 1717.49 5.09266 1.59638 0
M  V30 18451 O 1717.71 4.95353 2.82809 0
M  V30 18452 O 1716.65 5.90981 1.14127 0
M  V30 18453 H 1720.47 3.00503 -0.439527 0
M  V30 18454 H 1718.06 1.46733 -0.281032 0
M  V30 18455 H 1719.94 3.76512 1.89254 0
M  V30 18456 H 1718.62 2.5715 1.96611 0
M  V30 18457 H 1717.52 3.74084 -0.0345447 0
M  V30 18458 H 1718.86 4.92193 -0.0257627 0
M  V30 18459 N 1720.51 0.254649 1.55529 0
M  V30 18460 C 1721.42 -0.652184 2.25352 0
M  V30 18461 C 1722.43 -1.18695 1.2723 0
M  V30 18462 O 1723.61 -1.22158 1.60123 0
M  V30 18463 C 1720.68 -1.829 2.94531 0
M  V30 18464 C 1719.74 -1.33294 4.08082 0
M  V30 18465 C 1718.97 -2.45367 4.73952 0
M  V30 18466 O 1719.19 -3.64271 4.38933 0
M  V30 18467 O 1718.13 -2.14684 5.62311 0
M  V30 18468 H 1721.95 -0.0871786 3.03575 0
M  V30 18469 H 1719.54 0.0228432 1.49383 0
M  V30 18470 H 1721.42 -2.5156 3.38076 0
M  V30 18471 H 1720.09 -2.38148 2.19242 0
M  V30 18472 H 1719 -0.613396 3.69037 0
M  V30 18473 H 1720.33 -0.826454 4.85212 0
M  V30 18474 N 1721.99 -1.57589 -0.0183649 0
M  V30 18475 C 1722.92 -2.04071 -1.04343 0
M  V30 18476 C 1723.93 -0.955366 -1.3182 0
M  V30 18477 O 1725.12 -1.23249 -1.29119 0
M  V30 18478 C 1722.22 -2.41011 -2.38258 0
M  V30 18479 C 1721.39 -3.72057 -2.29984 0
M  V30 18480 C 1720.45 -3.96067 -3.46435 0
M  V30 18481 O 1719.48 -4.66982 -3.25447 0
M  V30 18482 N 1720.68 -3.42535 -4.68669 0
M  V30 18483 H 1723.45 -2.92629 -0.647168 0
M  V30 18484 H 1721.01 -1.60583 -0.20611 0
M  V30 18485 H 1723 -2.54203 -3.14902 0
M  V30 18486 H 1721.57 -1.58068 -2.69691 0
M  V30 18487 H 1720.79 -3.69117 -1.38369 0
M  V30 18488 H 1722.08 -4.58003 -2.2161 0
M  V30 18489 H 1721.47 -2.85073 -4.8862 0
M  V30 18490 H 1720.03 -3.61087 -5.42641 0
M  V30 18491 N 1723.46 0.290824 -1.54893 0
M  V30 18492 C 1724.88 0.86313 -1.6555 0
M  V30 18493 C 1725.23 1.87713 -0.570806 0
M  V30 18494 O 1724.35 2.14437 0.290826 0
M  V30 18495 C 1724.95 1.57231 -3.00107 0
M  V30 18496 C 1723.51 2.09288 -3.1285 0
M  V30 18497 C 1722.65 0.928933 -2.61278 0
M  V30 18498 H 1725.6 0.0675807 -1.58556 0
M  V30 18499 H 1725.62 2.43841 -2.92099 0
M  V30 18500 H 1725.14 0.834055 -3.79032 0
M  V30 18501 H 1723.24 2.86129 -2.38665 0
M  V30 18502 H 1723.35 2.32042 -4.19158 0
M  V30 18503 H 1721.71 1.31735 -2.17986 0
M  V30 18504 H 1722.5 0.204475 -3.42691 0
M  V30 18505 N 1724.94 1.47523 0.554506 0
M  V30 18506 C 1726.19 1.54515 1.3135 0
M  V30 18507 C 1726.52 0.207892 1.93084 0
M  V30 18508 O 1725.8 -0.783749 1.7801 0
M  V30 18509 C 1726.08 2.66519 2.42156 0
M  V30 18510 C 1725.93 4.0987 1.85274 0
M  V30 18511 C 1727.25 2.74418 3.44068 0
M  V30 18512 H 1724.37 0.562481 0.476219 0
M  V30 18513 H 1727.01 1.79591 0.620246 0
M  V30 18514 H 1725.16 2.45268 3.0129 0
M  V30 18515 H 1726.83 4.42492 1.3038 0
M  V30 18516 H 1725.08 4.18021 1.15934 0
M  V30 18517 H 1725.75 4.84017 2.65389 0
M  V30 18518 H 1728.22 2.93596 2.94857 0
M  V30 18519 H 1727.1 3.54557 4.19023 0
M  V30 18520 H 1727.36 1.81584 4.03088 0
M  V30 18521 N 1726.42 -0.801453 1.357 0
M  V30 18522 C 1727.67 -1.5611 1.29451 0
M  V30 18523 C 1728 -1.93768 -0.129412 0
M  V30 18524 O 1727.27 -1.6176 -1.08 0
M  V30 18525 C 1727.56 -2.84628 2.20588 0
M  V30 18526 C 1727.41 -2.53413 3.71621 0
M  V30 18527 C 1728.73 -3.86369 2.10729 0
M  V30 18528 H 1725.85 -0.56638 0.471575 0
M  V30 18529 H 1728.49 -0.921701 1.66147 0
M  V30 18530 H 1726.64 -3.39192 1.89424 0
M  V30 18531 H 1728.31 -2.04993 4.1325 0
M  V30 18532 H 1726.56 -1.86531 3.91649 0
M  V30 18533 H 1727.23 -3.45152 4.30783 0
M  V30 18534 H 1729.7 -3.41219 2.38136 0
M  V30 18535 H 1728.58 -4.74062 2.76688 0
M  V30 18536 H 1728.84 -4.28431 1.09083 0
M  V30 18537 N 1727.9 -1.19782 -1.02421 0
M  V30 18538 C 1728.81 -0.955253 -2.14271 0
M  V30 18539 C 1729.82 0.0863233 -1.73786 0
M  V30 18540 O 1731 -0.0993878 -2.01155 0
M  V30 18541 C 1728.07 -0.502219 -3.43043 0
M  V30 18542 C 1727.13 -1.61374 -3.97815 0
M  V30 18543 C 1726.36 -1.18223 -5.20441 0
M  V30 18544 O 1726.58 -0.0477334 -5.7038 0
M  V30 18545 O 1725.52 -1.98664 -5.68169 0
M  V30 18546 H 1729.34 -1.89157 -2.37599 0
M  V30 18547 H 1726.93 -0.981035 -1.12677 0
M  V30 18548 H 1728.81 -0.258445 -4.20607 0
M  V30 18549 H 1727.48 0.4056 -3.21149 0
M  V30 18550 H 1726.39 -1.91172 -3.21565 0
M  V30 18551 H 1727.72 -2.49829 -4.24083 0
M  V30 18552 N 1729.38 1.21606 -1.00248 0
M  V30 18553 C 1730.79 1.72365 -0.717446 0
M  V30 18554 C 1731.14 1.80668 0.765078 0
M  V30 18555 O 1730.26 1.45951 1.59772 0
M  V30 18556 C 1730.86 3.13046 -1.29567 0
M  V30 18557 C 1729.42 3.61172 -1.05981 0
M  V30 18558 C 1728.57 2.38775 -1.41003 0
M  V30 18559 H 1731.52 1.06818 -1.17369 0
M  V30 18560 H 1731.54 3.74392 -0.679054 0
M  V30 18561 H 1731.05 3.0697 -2.37467 0
M  V30 18562 H 1729.15 3.726 0.00214307 0
M  V30 18563 H 1729.26 4.46778 -1.72993 0
M  V30 18564 H 1727.63 2.40839 -0.82877 0
M  V30 18565 H 1728.41 2.35352 -2.49928 0
M  V30 18566 N 1730.86 0.776895 1.37121 0
M  V30 18567 C 1731.77 0.167552 2.34001 0
M  V30 18568 C 1732.78 -0.673609 1.60432 0
M  V30 18569 O 1733.96 -0.592327 1.92493 0
M  V30 18570 C 1731.02 -0.697343 3.39615 0
M  V30 18571 C 1730.08 0.160869 4.28998 0
M  V30 18572 C 1729.32 -0.662841 5.29568 0
M  V30 18573 O 1729.54 -1.89962 5.37839 0
M  V30 18574 O 1728.47 -0.0693304 6.0186 0
M  V30 18575 H 1732.3 0.968247 2.87852 0
M  V30 18576 H 1729.88 0.538137 1.39372 0
M  V30 18577 H 1731.77 -1.19094 4.04221 0
M  V30 18578 H 1730.44 -1.47614 2.88083 0
M  V30 18579 H 1729.35 0.700941 3.67475 0
M  V30 18580 H 1730.68 0.902875 4.83848 0
M  V30 18581 N 1732.33 -1.48497 0.527859 0
M  V30 18582 C 1733.24 -2.3337 -0.239957 0
M  V30 18583 C 1734.26 -1.46353 -0.941101 0
M  V30 18584 O 1735.44 -1.79337 -0.916532 0
M  V30 18585 C 1732.5 -3.22421 -1.27458 0
M  V30 18586 C 1731.56 -4.25309 -0.584017 0
M  V30 18587 C 1730.79 -5.10105 -1.56935 0
M  V30 18588 O 1731.02 -4.96846 -2.80178 0
M  V30 18589 O 1729.95 -5.91578 -1.10991 0
M  V30 18590 H 1733.78 -3.00265 0.455458 0
M  V30 18591 H 1731.36 -1.46582 0.288809 0
M  V30 18592 H 1733.24 -3.7751 -1.87254 0
M  V30 18593 H 1731.92 -2.58189 -1.95244 0
M  V30 18594 H 1730.83 -3.7406 0.0543828 0
M  V30 18595 H 1732.16 -4.92173 0.0518646 0
M  V30 18596 N 1733.81 -0.262893 -1.55392 0
M  V30 18597 C 1735.04 0.361057 -2.03725 0
M  V30 18598 C 1735.45 1.5037 -1.14168 0
M  V30 18599 O 1734.81 1.81804 -0.159284 0
M  V30 18600 C 1734.86 0.853697 -3.51275 0
M  V30 18601 O 1734.58 -0.243431 -4.37423 0
M  V30 18602 C 1736.08 1.54671 -4.15442 0
M  V30 18603 H 1733.3 0.0839272 -0.665731 0
M  V30 18604 H 1735.85 -0.391424 -2.00719 0
M  V30 18605 H 1734 1.55631 -3.54765 0
M  V30 18606 H 1734.42 0.133241 -5.24331 0
M  V30 18607 H 1735.89 1.84296 -5.20326 0
M  V30 18608 H 1736.37 2.47413 -3.62882 0
M  V30 18609 H 1736.97 0.888269 -4.15921 0
M  V30 18610 N 1735.29 1.57597 0.0100073 0
M  V30 18611 C 1736.22 2.10825 1.00375 0
M  V30 18612 C 1737.2 1.01507 1.36493 0
M  V30 18613 O 1738.39 1.29136 1.45043 0
M  V30 18614 C 1735.52 2.60334 2.29878 0
M  V30 18615 C 1734.47 3.74087 2.07949 0
M  V30 18616 C 1733.8 4.09873 3.43378 0
M  V30 18617 C 1735.1 5.01764 1.45018 0
M  V30 18618 H 1736.79 2.94105 0.560591 0
M  V30 18619 H 1734.34 1.4148 0.268208 0
M  V30 18620 H 1736.29 2.96196 2.99743 0
M  V30 18621 H 1735.01 1.74162 2.76288 0
M  V30 18622 H 1733.67 3.38603 1.40512 0
M  V30 18623 H 1733.32 3.20739 3.87473 0
M  V30 18624 H 1733.02 4.86505 3.29525 0
M  V30 18625 H 1734.54 4.48285 4.14575 0
M  V30 18626 H 1735.96 5.35462 2.04826 0
M  V30 18627 H 1734.35 5.83135 1.41683 0
M  V30 18628 H 1735.42 4.83093 0.41819 0
M  V30 18629 N 1736.77 -0.282606 1.55045 0
M  V30 18630 C 1737.68 -1.37129 1.90349 0
M  V30 18631 C 1738.69 -1.54537 0.799639 0
M  V30 18632 O 1739.87 -1.68849 1.09782 0
M  V30 18633 C 1736.93 -2.71211 2.15975 0
M  V30 18634 C 1736 -2.62632 3.39592 0
M  V30 18635 C 1735.23 -3.90319 3.63987 0
M  V30 18636 O 1735.45 -4.90551 2.9106 0
M  V30 18637 O 1734.39 -3.91102 4.57518 0
M  V30 18638 H 1738.21 -1.10189 2.83006 0
M  V30 18639 H 1735.8 -0.480293 1.41469 0
M  V30 18640 H 1737.68 -3.50509 2.33926 0
M  V30 18641 H 1736.35 -2.97958 1.26503 0
M  V30 18642 H 1735.26 -1.81743 3.26987 0
M  V30 18643 H 1736.59 -2.40836 4.29254 0
M  V30 18644 N 1738.25 -1.47815 -0.546675 0
M  V30 18645 C 1739.66 -1.48715 -1.12875 0
M  V30 18646 C 1740.01 -0.247647 -1.94631 0
M  V30 18647 O 1739.13 0.646615 -2.06514 0
M  V30 18648 C 1739.73 -2.69459 -2.05371 0
M  V30 18649 C 1738.29 -2.73285 -2.58829 0
M  V30 18650 C 1737.43 -2.4198 -1.35429 0
M  V30 18651 H 1740.38 -1.55172 -0.332746 0
M  V30 18652 H 1740.41 -2.47028 -2.89408 0
M  V30 18653 H 1739.92 -3.59656 -1.4584 0
M  V30 18654 H 1738.02 -1.87254 -3.22128 0
M  V30 18655 H 1738.13 -3.74265 -2.99103 0
M  V30 18656 H 1736.5 -1.92783 -1.66454 0
M  V30 18657 H 1737.28 -3.34397 -0.776753 0
M  V30 18658 N 1739.72 0.794246 -1.36123 0
M  V30 18659 C 1740.63 1.93807 -1.32197 0
M  V30 18660 C 1741.65 1.7254 -0.2249 0
M  V30 18661 O 1742.83 1.9616 -0.456431 0
M  V30 18662 C 1739.89 3.28593 -1.10578 0
M  V30 18663 C 1738.95 3.6267 -2.29715 0
M  V30 18664 C 1738.18 4.91025 -2.09118 0
M  V30 18665 O 1738.41 5.6039 -1.06389 0
M  V30 18666 O 1737.34 5.23647 -2.96779 0
M  V30 18667 H 1741.17 2.00068 -2.28487 0
M  V30 18668 H 1738.75 0.933808 -1.16621 0
M  V30 18669 H 1740.63 4.0926 -1.0042 0
M  V30 18670 H 1739.31 3.23235 -0.17347 0
M  V30 18671 H 1738.22 2.82329 -2.4544 0
M  V30 18672 H 1739.55 3.72747 -3.21435 0
M  V30 18673 N 1741.2 1.20323 1.01785 0
M  V30 18674 C 1742.16 0.9527 2.08462 0
M  V30 18675 C 1743.16 -0.0712564 1.60642 0
M  V30 18676 O 1744.35 0.164672 1.7342 0
M  V30 18677 C 1741.49 0.434052 3.38125 0
M  V30 18678 H 1742.68 1.89895 2.32121 0
M  V30 18679 H 1740.23 1.01843 1.18565 0
M  V30 18680 H 1740.97 -0.51772 3.20141 0
M  V30 18681 H 1740.75 1.17248 3.74159 0
M  V30 18682 H 1742.24 0.278215 4.16672 0
M  V30 18683 N 1742.68 -1.21073 1.00892 0
M  V30 18684 C 1743.92 -1.91957 0.702281 0
M  V30 18685 C 1744.28 -1.76598 -0.753465 0
M  V30 18686 O 1745.48 -2.41891 -1.17226 0
M  V30 18687 C 1743.76 -3.39511 1.11655 0
M  V30 18688 S 1745.31 -4.28816 0.930715 0
M  V30 18689 H 1742.13 -0.663211 0.256265 0
M  V30 18690 H 1744.73 -1.46496 1.29457 0
M  V30 18691 H 1743.44 -3.48208 2.17208 0
M  V30 18692 H 1742.97 -3.89992 0.516721 0
M  V30 18693 H 1744.98 -4.95909 -0.170024 0
M  V30 18694 N 1744.16 -0.784156 -1.36707 0
M  V30 18695 C 1745.41 -0.354133 -1.99379 0
M  V30 18696 C 1745.73 1.07276 -1.62241 0
M  V30 18697 O 1744.99 1.75481 -0.866317 0
M  V30 18698 C 1745.29 -0.459004 -3.5444 0
M  V30 18699 C 1744.95 -1.84594 -4.11383 0
M  V30 18700 C 1743.62 -2.22543 -4.26648 0
M  V30 18701 C 1745.97 -2.75433 -4.42477 0
M  V30 18702 C 1743.3 -3.50744 -4.70315 0
M  V30 18703 C 1745.65 -4.03056 -4.87574 0
M  V30 18704 C 1744.31 -4.41034 -5.01044 0
M  V30 18705 H 1743.58 -0.129586 -0.729581 0
M  V30 18706 H 1746.23 -1.00059 -1.6328 0
M  V30 18707 H 1744.53 0.27097 -3.90862 0
M  V30 18708 H 1746.23 -0.107393 -4.00856 0
M  V30 18709 H 1742.82 -1.54103 -3.99938 0
M  V30 18710 H 1747 -2.4737 -4.30258 0
M  V30 18711 H 1742.26 -3.80047 -4.78931 0
M  V30 18712 H 1746.43 -4.73563 -5.10599 0
M  V30 18713 H 1744.06 -5.4043 -5.34639 0
M  V30 18714 N 1745.64 1.48215 -0.535727 0
M  V30 18715 C 1746.86 2.06898 -0.0079465 0
M  V30 18716 C 1747.28 1.39148 1.27606 0
M  V30 18717 O 1746.64 0.480867 1.76051 0
M  V30 18718 C 1746.69 3.60868 0.213736 0
M  V30 18719 O 1746.41 4.26075 -1.01941 0
M  V30 18720 C 1747.91 4.36362 0.781245 0
M  V30 18721 H 1745.13 0.670028 -0.0361097 0
M  V30 18722 H 1747.67 1.90524 -0.743012 0
M  V30 18723 H 1745.83 3.76828 0.898866 0
M  V30 18724 H 1746.24 5.18306 -0.803716 0
M  V30 18725 H 1747.72 5.44847 0.885753 0
M  V30 18726 H 1748.19 4.01179 1.78751 0
M  V30 18727 H 1748.8 4.25094 0.132499 0
M  V30 18728 N 1747.11 0.27113 1.5525 0
M  V30 18729 C 1748.02 -0.628245 2.26031 0
M  V30 18730 C 1749.04 -1.17339 1.28481 0
M  V30 18731 O 1750.22 -1.20453 1.61409 0
M  V30 18732 C 1747.28 -1.79766 2.96454 0
M  V30 18733 C 1746.34 -1.28958 4.09473 0
M  V30 18734 C 1745.58 -2.40326 4.76528 0
M  V30 18735 O 1745.8 -3.59595 4.42772 0
M  V30 18736 O 1744.73 -2.08708 5.64557 0
M  V30 18737 H 1748.56 -0.0549756 3.0365 0
M  V30 18738 H 1746.14 0.0386859 1.4935 0
M  V30 18739 H 1748.03 -2.4796 3.40725 0
M  V30 18740 H 1746.7 -2.35809 2.21756 0
M  V30 18741 H 1745.61 -0.57422 3.69667 0
M  V30 18742 H 1746.94 -0.774945 4.86061 0
M  V30 18743 N 1748.59 -1.576 -0.00164943 0
M  V30 18744 C 1749.84 -1.9012 -0.685486 0
M  V30 18745 C 1750.16 -0.872245 -1.74404 0
M  V30 18746 O 1749.43 0.090572 -1.95691 0
M  V30 18747 H 1748.01 -0.701699 -0.256177 0
M  V30 18748 H 1750.67 -1.94861 0.0388866 0
M  V30 18749 H 1749.77 -2.89831 -1.15778 0
M  V30 18750 N 1750.07 0.274379 -1.55193 0
M  V30 18751 C 1751.31 1.01383 -1.77485 0
M  V30 18752 C 1751.67 1.83549 -0.563373 0
M  V30 18753 O 1752.88 2.60457 -0.664517 0
M  V30 18754 C 1751.15 1.87414 -3.0432 0
M  V30 18755 S 1752.71 2.67644 -3.47725 0
M  V30 18756 H 1749.52 0.341489 -0.623623 0
M  V30 18757 H 1752.13 0.284398 -1.9342 0
M  V30 18758 H 1750.83 1.25974 -3.90588 0
M  V30 18759 H 1750.36 2.6468 -2.91046 0
M  V30 18760 H 1752.38 3.89914 -3.06889 0
M  V30 18761 N 1751.55 1.48103 0.538828 0
M  V30 18762 C 1752.79 1.559 1.29704 0
M  V30 18763 C 1753.13 0.228359 1.92853 0
M  V30 18764 O 1752.4 -0.764825 1.78831 0
M  V30 18765 C 1752.69 2.69072 2.39316 0
M  V30 18766 C 1752.54 4.11812 1.80916 0
M  V30 18767 C 1753.86 2.78051 3.41138 0
M  V30 18768 H 1750.98 0.5675 0.470226 0
M  V30 18769 H 1753.62 1.80239 0.601163 0
M  V30 18770 H 1751.77 2.4845 2.98672 0
M  V30 18771 H 1753.44 4.4385 1.25679 0
M  V30 18772 H 1751.68 4.19227 1.11494 0
M  V30 18773 H 1752.35 4.86805 2.6024 0
M  V30 18774 H 1754.83 2.96707 2.91726 0
M  V30 18775 H 1753.71 3.58982 4.15239 0
M  V30 18776 H 1753.97 1.85849 4.01139 0
M  V30 18777 N 1753.03 -0.787016 1.36542 0
M  V30 18778 C 1753.96 -1.90844 1.26931 0
M  V30 18779 C 1754.97 -1.61707 0.188293 0
M  V30 18780 O 1756.16 -1.7291 0.443205 0
M  V30 18781 C 1753.26 -3.25709 0.936305 0
M  V30 18782 C 1752.43 -3.82607 2.11969 0
M  V30 18783 C 1751.49 -4.95916 1.75937 0
M  V30 18784 O 1750.52 -5.12307 2.48053 0
M  V30 18785 N 1751.72 -5.76331 0.694461 0
M  V30 18786 H 1754.49 -1.9961 2.23553 0
M  V30 18787 H 1752.05 -0.965401 1.29968 0
M  V30 18788 H 1754.04 -3.99008 0.676378 0
M  V30 18789 H 1752.61 -3.12544 0.0591364 0
M  V30 18790 H 1751.83 -3.01267 2.54227 0
M  V30 18791 H 1753.12 -4.17352 2.91024 0
M  V30 18792 H 1752.51 -5.65619 0.0957046 0
M  V30 18793 H 1751.07 -6.49923 0.494363 0
M  V30 18794 N 1754.5 -1.20861 -1.01145 0
M  V30 18795 C 1755.92 -0.964575 -1.27154 0
M  V30 18796 C 1756.12 0.352861 -1.98386 0
M  V30 18797 O 1755.18 1.08012 -2.28232 0
M  V30 18798 C 1756.49 -2.15074 -2.10151 0
M  V30 18799 C 1758.04 -2.19229 -2.234 0
M  V30 18800 C 1758.51 -3.37346 -3.09777 0
M  V30 18801 N 1760 -3.37392 -3.17365 0
M  V30 18802 C 1760.74 -4.25434 -3.84439 0
M  V30 18803 N 1760.23 -5.23664 -4.53595 0
M  V30 18804 N 1762.03 -4.13261 -3.81014 0
M  V30 18805 H 1754.18 -2.05595 -0.533346 0
M  V30 18806 H 1756.44 -0.899928 -0.298048 0
M  V30 18807 H 1756.15 -3.10511 -1.65153 0
M  V30 18808 H 1756.02 -2.13598 -3.10895 0
M  V30 18809 H 1758.41 -1.24352 -2.6762 0
M  V30 18810 H 1758.49 -2.24752 -1.22148 0
M  V30 18811 H 1758.13 -4.32513 -2.66261 0
M  V30 18812 H 1758.06 -3.29061 -4.11128 0
M  V30 18813 H 1760.55 -2.66299 -2.68129 0
M  V30 18814 H 1760.87 -5.87158 -5.02459 0
M  V30 18815 H 1759.21 -5.27595 -4.52403 0
M  V30 18816 H 1762.4 -3.35786 -3.26137 0
M  V30 18817 H 1762.58 -4.82085 -4.3301 0
M  V30 18818 N 1755.98 1.20536 -1.01532 0
M  V30 18819 C 1757.23 1.89871 -0.70393 0
M  V30 18820 C 1757.56 1.78768 0.76631 0
M  V30 18821 O 1756.81 1.1653 1.57224 0
M  V30 18822 C 1757.11 3.40578 -1.08358 0
M  V30 18823 C 1756.78 3.71881 -2.54981 0
M  V30 18824 C 1755.44 3.80135 -2.95044 0
M  V30 18825 C 1757.79 3.86282 -3.49909 0
M  V30 18826 C 1755.12 4.00246 -4.28976 0
M  V30 18827 C 1757.47 4.07902 -4.83527 0
M  V30 18828 C 1756.14 4.14385 -5.23298 0
M  V30 18829 H 1755.41 0.694788 -0.257586 0
M  V30 18830 H 1758.05 1.42825 -1.27567 0
M  V30 18831 H 1756.36 3.89431 -0.430234 0
M  V30 18832 H 1758.05 3.92519 -0.820353 0
M  V30 18833 H 1754.64 3.66055 -2.22938 0
M  V30 18834 H 1758.83 3.79261 -3.20117 0
M  V30 18835 H 1754.08 4.03499 -4.59345 0
M  V30 18836 H 1758.26 4.17987 -5.5701 0
M  V30 18837 H 1755.89 4.29721 -6.27092 0
M  V30 18838 N 1757.46 0.791395 1.36289 0
M  V30 18839 C 1758.41 0.189246 2.30023 0
M  V30 18840 C 1759.38 -0.668045 1.52074 0
M  V30 18841 O 1760.56 -0.61631 1.80572 0
M  V30 18842 C 1757.7 -0.668391 3.38565 0
M  V30 18843 C 1756.82 0.207659 4.31501 0
M  V30 18844 C 1755.95 -0.656539 5.27127 0
M  V30 18845 C 1754.99 0.220845 6.11701 0
M  V30 18846 N 1754.13 -0.602449 6.99511 0
M  V30 18847 H 1758.97 0.994038 2.80932 0
M  V30 18848 H 1756.5 0.501759 1.38278 0
M  V30 18849 H 1758.46 -1.18064 4.00146 0
M  V30 18850 H 1757.09 -1.43859 2.88971 0
M  V30 18851 H 1756.14 0.837894 3.71057 0
M  V30 18852 H 1757.46 0.883613 4.90911 0
M  V30 18853 H 1756.61 -1.23452 5.94007 0
M  V30 18854 H 1755.35 -1.36611 4.68176 0
M  V30 18855 H 1754.35 0.811214 5.43782 0
M  V30 18856 H 1755.58 0.928049 6.72729 0
M  V30 18857 H 1753.52 -1.29628 6.43065 0
M  V30 18858 H 1753.44 0.015783 7.55998 0
M  V30 18859 H 1754.71 -1.16419 7.70757 0
M  V30 18860 N 1758.94 -1.47929 0.54358 0
M  V30 18861 C 1760.18 -2.04393 0.0166462 0
M  V30 18862 C 1760.54 -1.41025 -1.30291 0
M  V30 18863 O 1761.74 -1.88456 -1.91671 0
M  V30 18864 C 1760.02 -3.5729 -0.0888261 0
M  V30 18865 S 1761.57 -4.35162 -0.563857 0
M  V30 18866 H 1758.39 -0.710757 0.0185863 0
M  V30 18867 H 1760.99 -1.81471 0.727226 0
M  V30 18868 H 1759.7 -4.00938 0.876155 0
M  V30 18869 H 1759.23 -3.84687 -0.823374 0
M  V30 18870 H 1761.24 -4.6138 -1.82601 0
M  V30 18871 N 1760.42 -0.27936 -1.55104 0
M  V30 18872 C 1761.66 0.337344 -2.01597 0
M  V30 18873 C 1762.02 1.52732 -1.16348 0
M  V30 18874 O 1763.22 2.21394 -1.5244 0
M  V30 18875 C 1761.49 0.705839 -3.50361 0
M  V30 18876 S 1763.05 1.30847 -4.18837 0
M  V30 18877 H 1759.87 0.104703 -0.703248 0
M  V30 18878 H 1762.47 -0.402184 -1.91318 0
M  V30 18879 H 1761.18 -0.169038 -4.10052 0
M  V30 18880 H 1760.71 1.47672 -3.64632 0
M  V30 18881 H 1762.72 2.59696 -4.22815 0
M  V30 18882 N 1761.9 1.57599 -0.0067085 0
M  V30 18883 C 1762.83 2.05706 1.01084 0
M  V30 18884 C 1763.84 0.976216 1.30284 0
M  V30 18885 O 1765.03 1.25288 1.27142 0
M  V30 18886 C 1762.13 2.44771 2.34393 0
M  V30 18887 C 1761.3 3.75668 2.24036 0
M  V30 18888 C 1760.36 4.01528 3.4009 0
M  V30 18889 O 1759.39 4.72101 3.17977 0
M  V30 18890 N 1760.59 3.49947 4.6316 0
M  V30 18891 H 1763.35 2.93622 0.600532 0
M  V30 18892 H 1760.92 1.6089 0.180536 0
M  V30 18893 H 1762.91 2.5918 3.10818 0
M  V30 18894 H 1761.48 1.62339 2.67142 0
M  V30 18895 H 1760.7 3.71272 1.3248 0
M  V30 18896 H 1761.99 4.6147 2.14295 0
M  V30 18897 H 1761.38 2.92811 4.84023 0
M  V30 18898 H 1759.94 3.69675 5.36828 0
M  V30 18899 N 1763.37 -0.266145 1.55336 0
M  V30 18900 C 1764.62 -0.994648 1.7547 0
M  V30 18901 C 1764.94 -1.87201 0.56702 0
M  V30 18902 O 1766.14 -2.63582 0.650924 0
M  V30 18903 C 1764.6 -1.81844 3.10581 0
M  V30 18904 C 1764.21 -0.989413 4.36938 0
M  V30 18905 C 1765.95 -2.54084 3.40061 0
M  V30 18906 C 1763.86 -1.80799 5.63086 0
M  V30 18907 H 1762.79 -0.375097 0.654078 0
M  V30 18908 H 1765.44 -0.25004 1.81788 0
M  V30 18909 H 1763.82 -2.60427 2.98318 0
M  V30 18910 H 1764.99 -0.247271 4.60136 0
M  V30 18911 H 1763.31 -0.38125 4.14651 0
M  V30 18912 H 1765.91 -3.15744 4.3152 0
M  V30 18913 H 1766.25 -3.2472 2.60505 0
M  V30 18914 H 1766.78 -1.82526 3.53453 0
M  V30 18915 H 1763.52 -1.14571 6.4541 0
M  V30 18916 H 1763.04 -2.52592 5.4402 0
M  V30 18917 H 1764.72 -2.37994 6.01638 0
M  V30 18918 N 1764.85 -1.48386 -0.530967 0
M  V30 18919 C 1765.8 -1.63279 -1.65658 0
M  V30 18920 C 1766.79 -0.499261 -1.61876 0
M  V30 18921 O 1768 -0.677951 -1.66745 0
M  V30 18922 H 1764.37 -0.514332 -0.548605 0
M  V30 18923 H 1766.35 -2.57818 -1.50241 0
M  V30 18924 C 1765.09 -1.68878 -3.03933 0
M  V30 18925 H 1764.42 -2.55462 -3.07537 0
M  V30 18926 H 1765.86 -1.83343 -3.82311 0
M  V30 18927 C 1764.32 -0.427267 -3.3418 0
M  V30 18928 O 1764.85 0.460276 -3.99054 0
M  V30 18929 N 1763.05 -0.299268 -2.89055 0
M  V30 18930 H 1762.6 -1.02248 -2.36438 0
M  V30 18931 H 1762.56 0.543787 -3.09662 0
M  V30 18932 N 1766.33 0.779763 -1.36958 0
M  V30 18933 C 1767.58 1.54031 -1.31918 0
M  V30 18934 C 1767.91 1.9395 0.0985685 0
M  V30 18935 O 1767.18 1.63458 1.05413 0
M  V30 18936 C 1767.47 2.81083 -2.25088 0
M  V30 18937 C 1767.32 2.47469 -3.75605 0
M  V30 18938 C 1768.64 3.82968 -2.1685 0
M  V30 18939 H 1765.76 0.558806 -0.480526 0
M  V30 18940 H 1768.4 0.895152 -1.67592 0
M  V30 18941 H 1766.55 3.36135 -1.94796 0
M  V30 18942 H 1768.22 1.98393 -4.16459 0
M  V30 18943 H 1766.46 1.80276 -3.94567 0
M  V30 18944 H 1767.14 3.38255 -4.3622 0
M  V30 18945 H 1769.61 3.37388 -2.43534 0
M  V30 18946 H 1768.49 4.69601 -2.84194 0
M  V30 18947 H 1768.75 4.26642 -1.15885 0
M  V30 18948 N 1767.81 1.21396 1.00503 0
M  V30 18949 C 1768.72 0.989221 2.12724 0
M  V30 18950 C 1769.73 -0.0586646 1.73901 0
M  V30 18951 O 1770.91 0.131377 2.00971 0
M  V30 18952 C 1767.97 0.556731 3.42201 0
M  V30 18953 C 1767.04 1.67683 3.95197 0
M  V30 18954 C 1766.27 1.26488 5.18494 0
M  V30 18955 O 1766.49 0.13847 5.70232 0
M  V30 18956 O 1765.43 2.07678 5.64937 0
M  V30 18957 H 1769.25 1.92913 2.3456 0
M  V30 18958 H 1766.84 0.998837 1.11102 0
M  V30 18959 H 1768.72 0.325327 4.20142 0
M  V30 18960 H 1767.39 -0.354457 3.21753 0
M  V30 18961 H 1766.3 1.96263 3.18483 0
M  V30 18962 H 1767.63 2.56544 4.20055 0
M  V30 18963 N 1769.29 -1.19996 1.0217 0
M  V30 18964 C 1770.2 -2.26634 0.606136 0
M  V30 18965 C 1771.21 -1.70262 -0.358746 0
M  V30 18966 O 1772.39 -2.00212 -0.218422 0
M  V30 18967 C 1769.45 -3.46672 -0.0439096 0
M  V30 18968 C 1768.51 -4.18254 0.967563 0
M  V30 18969 C 1767.75 -5.32561 0.348443 0
M  V30 18970 O 1767.97 -5.64024 -0.850508 0
M  V30 18971 O 1766.9 -5.92354 1.06772 0
M  V30 18972 H 1770.73 -2.64407 1.49407 0
M  V30 18973 H 1768.31 -1.26712 0.791483 0
M  V30 18974 H 1770.2 -4.19433 -0.406714 0
M  V30 18975 H 1768.87 -3.10764 -0.90596 0
M  V30 18976 H 1767.78 -3.47644 1.38183 0
M  V30 18977 H 1769.11 -4.58116 1.79975 0
M  V30 18978 N 1770.76 -0.798611 -1.35867 0
M  V30 18979 C 1772.01 -0.374519 -1.986 0
M  V30 18980 C 1772.33 1.05984 -1.63684 0
M  V30 18981 O 1771.6 1.73199 -0.915359 0
M  V30 18982 H 1770.18 -0.135492 -0.734609 0
M  V30 18983 H 1772.84 -1.02269 -1.65913 0
M  V30 18984 H 1771.94 -0.473773 -3.08483 0
M  V30 18985 N 1772.24 1.47639 -0.551417 0
M  V30 18986 C 1773.66 1.58202 -0.210768 0
M  V30 18987 C 1773.86 1.55078 1.28659 0
M  V30 18988 O 1772.91 1.45113 2.06636 0
M  V30 18989 C 1774.23 2.88952 -0.832294 0
M  V30 18990 C 1775.77 3.02524 -0.80299 0
M  V30 18991 C 1776.25 4.35966 -1.40348 0
M  V30 18992 N 1777.74 4.42587 -1.3664 0
M  V30 18993 C 1778.48 5.44391 -1.80072 0
M  V30 18994 N 1777.97 6.53037 -2.31332 0
M  V30 18995 N 1779.76 5.35401 -1.71178 0
M  V30 18996 H 1771.92 1.47912 -1.52433 0
M  V30 18997 H 1774.18 0.703607 -0.635328 0
M  V30 18998 H 1773.88 2.96958 -1.88439 0
M  V30 18999 H 1773.76 3.75824 -0.321915 0
M  V30 19000 H 1776.15 2.94119 0.240395 0
M  V30 19001 H 1776.23 2.17209 -1.35107 0
M  V30 19002 H 1775.87 4.45127 -2.4459 0
M  V30 19003 H 1775.8 5.20004 -0.830897 0
M  V30 19004 H 1778.29 3.64664 -0.991386 0
M  V30 19005 H 1778.6 7.26884 -2.62411 0
M  V30 19006 H 1776.95 6.53942 -2.35339 0
M  V30 19007 H 1780.14 4.49421 -1.30912 0
M  V30 19008 H 1780.31 6.14604 -2.05344 0
M  V30 19009 N 1773.72 0.287581 1.54954 0
M  V30 19010 C 1774.97 -0.324967 1.9947 0
M  V30 19011 C 1775.29 -1.55437 1.17747 0
M  V30 19012 O 1774.56 -1.9403 0.270067 0
M  V30 19013 H 1773.14 -0.123062 0.736794 0
M  V30 19014 H 1775.8 0.395805 1.90839 0
M  V30 19015 H 1774.9 -0.606265 3.06155 0
M  V30 19016 N 1775.2 -1.57593 0.0150662 0
M  V30 19017 C 1776.15 -2.0936 -0.971443 0
M  V30 19018 C 1777.12 -0.992416 -1.33193 0
M  V30 19019 O 1778.3 -1.26577 -1.42769 0
M  V30 19020 C 1775.44 -2.61386 -2.25324 0
M  V30 19021 C 1774.55 -3.85462 -1.95046 0
M  V30 19022 C 1773.69 -4.25934 -3.17418 0
M  V30 19023 C 1772.73 -5.42805 -2.82894 0
M  V30 19024 N 1771.86 -5.78499 -3.97848 0
M  V30 19025 H 1776.7 -2.93373 -0.523068 0
M  V30 19026 H 1774.24 -1.45018 -0.246605 0
M  V30 19027 H 1776.2 -2.89635 -3.00279 0
M  V30 19028 H 1774.83 -1.80225 -2.67804 0
M  V30 19029 H 1773.88 -3.64029 -1.10394 0
M  V30 19030 H 1775.19 -4.70505 -1.6561 0
M  V30 19031 H 1774.35 -4.55544 -4.00705 0
M  V30 19032 H 1773.09 -3.3963 -3.50004 0
M  V30 19033 H 1772.09 -5.12903 -1.98016 0
M  V30 19034 H 1773.32 -6.30797 -2.51539 0
M  V30 19035 H 1771.26 -4.95152 -4.30303 0
M  V30 19036 H 1771.18 -6.5815 -3.71988 0
M  V30 19037 H 1772.45 -6.12708 -4.8188 0
M  V30 19038 N 1776.68 0.257904 -1.55475 0
M  V30 19039 C 1777.61 1.34176 -1.85821 0
M  V30 19040 C 1778.62 1.44821 -0.743696 0
M  V30 19041 O 1779.81 1.46367 -1.02171 0
M  V30 19042 C 1776.91 2.72151 -2.01958 0
M  V30 19043 C 1776.08 2.83911 -3.32736 0
M  V30 19044 C 1775.14 4.02659 -3.38751 0
M  V30 19045 O 1774.17 3.92705 -4.12034 0
M  V30 19046 N 1775.37 5.15325 -2.67245 0
M  V30 19047 H 1778.14 1.08483 -2.79377 0
M  V30 19048 H 1775.7 0.448017 -1.55578 0
M  V30 19049 H 1777.69 3.4991 -2.03335 0
M  V30 19050 H 1776.26 2.906 -1.15198 0
M  V30 19051 H 1775.48 1.92915 -3.43769 0
M  V30 19052 H 1776.77 2.88709 -4.18956 0
M  V30 19053 H 1776.16 5.26303 -2.07418 0
M  V30 19054 H 1774.72 5.91259 -2.74328 0
M  V30 19055 N 1778.15 1.48666 0.52309 0
M  V30 19056 C 1779.4 1.58244 1.2779 0
M  V30 19057 C 1779.76 0.256032 1.90689 0
M  V30 19058 O 1779.05 -0.741766 1.76659 0
M  V30 19059 C 1779.24 2.66247 2.38426 0
M  V30 19060 C 1779.07 4.09261 1.86374 0
M  V30 19061 C 1777.84 4.76319 1.68667 0
M  V30 19062 C 1780.04 4.95208 1.38829 0
M  V30 19063 N 1778.02 6.03724 1.11312 0
M  V30 19064 C 1779.39 6.12915 0.934653 0
M  V30 19065 C 1781.45 4.81379 1.27195 0
M  V30 19066 C 1780.15 7.18315 0.376219 0
M  V30 19067 C 1782.18 5.86908 0.727511 0
M  V30 19068 C 1781.54 7.03827 0.283989 0
M  V30 19069 H 1777.64 0.633565 0.458387 0
M  V30 19070 H 1780.22 1.85577 0.588992 0
M  V30 19071 H 1778.39 2.40725 3.04805 0
M  V30 19072 H 1780.12 2.65472 3.05462 0
M  V30 19073 H 1776.88 4.32761 1.92392 0
M  V30 19074 H 1777.3 6.7169 0.846247 0
M  V30 19075 H 1781.95 3.9132 1.60089 0
M  V30 19076 H 1779.66 8.08092 0.0349696 0
M  V30 19077 H 1783.25 5.78263 0.640583 0
M  V30 19078 H 1782.13 7.84091 -0.13074 0
M  V30 19079 N 1779.63 -0.772489 1.37369 0
M  V30 19080 C 1780.88 -1.53249 1.3374 0
M  V30 19081 C 1781.23 -1.92242 -0.0778522 0
M  V30 19082 O 1780.53 -1.61156 -1.03631 0
M  V30 19083 C 1780.72 -2.80907 2.20966 0
M  V30 19084 C 1780.55 -2.54391 3.7083 0
M  V30 19085 C 1779.32 -2.48557 4.3994 0
M  V30 19086 C 1781.52 -2.22438 4.63709 0
M  V30 19087 N 1779.5 -2.14117 5.75349 0
M  V30 19088 C 1780.87 -1.98131 5.8749 0
M  V30 19089 C 1782.93 -2.08587 4.52101 0
M  V30 19090 C 1781.63 -1.61372 7.00965 0
M  V30 19091 C 1783.65 -1.73228 5.65461 0
M  V30 19092 C 1783.02 -1.4978 6.88292 0
M  V30 19093 H 1779.12 -0.56112 0.544673 0
M  V30 19094 H 1781.7 -0.901278 1.72583 0
M  V30 19095 H 1779.87 -3.41867 1.8434 0
M  V30 19096 H 1781.6 -3.46797 2.086 0
M  V30 19097 H 1778.36 -2.64386 3.92934 0
M  V30 19098 H 1778.78 -1.99596 6.46908 0
M  V30 19099 H 1783.42 -2.25398 3.57708 0
M  V30 19100 H 1781.14 -1.43299 7.95293 0
M  V30 19101 H 1784.73 -1.6317 5.5845 0
M  V30 19102 H 1783.61 -1.22824 7.74522 0
M  V30 19103 N 1781.11 -1.21927 -0.998575 0
M  V30 19104 C 1782.06 -0.981427 -2.10881 0
M  V30 19105 C 1783.05 0.0735277 -1.6924 0
M  V30 19106 O 1784.26 -0.078422 -1.79829 0
M  V30 19107 H 1780.63 -0.300155 -0.6895 0
M  V30 19108 H 1782.6 -1.92367 -2.28117 0
M  V30 19109 C 1781.35 -0.56967 -3.43002 0
M  V30 19110 H 1780.68 -1.37309 -3.75481 0
M  V30 19111 H 1782.12 -0.442618 -4.21683 0
M  V30 19112 C 1780.58 0.720145 -3.29113 0
M  V30 19113 O 1781.11 1.77404 -3.60403 0
M  V30 19114 N 1779.31 0.689122 -2.82311 0
M  V30 19115 H 1778.86 -0.168817 -2.57046 0
M  V30 19116 H 1778.82 1.55241 -2.734 0
M  V30 19117 N 1782.59 1.19452 -1.02805 0
M  V30 19118 C 1783.52 2.24875 -0.628752 0
M  V30 19119 C 1784.5 1.66207 0.361844 0
M  V30 19120 O 1785.68 1.92652 0.244743 0
M  V30 19121 C 1782.81 3.47293 0.0220954 0
M  V30 19122 C 1781.77 4.1863 -0.890693 0
M  V30 19123 C 1781.09 5.34597 -0.104997 0
M  V30 19124 C 1782.39 4.73518 -2.20405 0
M  V30 19125 H 1784.09 2.5853 -1.51005 0
M  V30 19126 H 1781.63 1.24271 -0.727518 0
M  V30 19127 H 1783.59 4.20235 0.313073 0
M  V30 19128 H 1782.31 3.12835 0.938182 0
M  V30 19129 H 1780.97 3.47568 -1.16585 0
M  V30 19130 H 1780.62 4.96385 0.813098 0
M  V30 19131 H 1780.32 5.83258 -0.712983 0
M  V30 19132 H 1781.84 6.10337 0.179259 0
M  V30 19133 H 1783.26 5.3822 -1.97465 0
M  V30 19134 H 1781.65 5.32663 -2.76388 0
M  V30 19135 H 1782.72 3.9163 -2.85926 0
M  V30 19136 N 1784.07 0.805805 1.35442 0
M  V30 19137 C 1785.48 0.489448 1.5191 0
M  V30 19138 C 1785.68 -0.989485 1.75532 0
M  V30 19139 O 1784.74 -1.77453 1.79629 0
M  V30 19140 C 1786.05 1.33413 2.69484 0
M  V30 19141 C 1787.6 1.32949 2.83361 0
M  V30 19142 C 1788.07 2.15827 4.03959 0
M  V30 19143 N 1789.57 2.13359 4.11135 0
M  V30 19144 C 1790.3 2.74245 5.03564 0
M  V30 19145 N 1789.8 3.44055 6.0133 0
M  V30 19146 N 1791.59 2.63891 4.96304 0
M  V30 19147 H 1783.74 1.76361 1.18366 0
M  V30 19148 H 1786 0.750594 0.579062 0
M  V30 19149 H 1785.71 2.38364 2.58603 0
M  V30 19150 H 1785.58 0.986809 3.64063 0
M  V30 19151 H 1787.97 0.287837 2.93693 0
M  V30 19152 H 1788.05 1.71668 1.89641 0
M  V30 19153 H 1787.7 3.20033 3.94388 0
M  V30 19154 H 1787.63 1.74469 4.96858 0
M  V30 19155 H 1790.12 1.62566 3.41146 0
M  V30 19156 H 1790.43 3.87802 6.68453 0
M  V30 19157 H 1788.77 3.48159 6.01507 0
M  V30 19158 H 1791.97 2.08941 4.18881 0
M  V30 19159 H 1792.14 3.11631 5.68146 0
M  V30 19160 N 1785.54 -1.47344 0.559239 0
M  V30 19161 C 1786.96 -1.58088 0.219155 0
M  V30 19162 C 1787.16 -1.55758 -1.27834 0
M  V30 19163 O 1786.22 -1.46207 -2.05864 0
M  V30 19164 C 1787.53 -2.88507 0.847606 0
M  V30 19165 C 1789.08 -3.02094 0.819022 0
M  V30 19166 C 1789.55 -4.35216 1.42658 0
M  V30 19167 N 1791.04 -4.41857 1.38986 0
M  V30 19168 C 1791.78 -5.43429 1.82956 0
M  V30 19169 N 1791.27 -6.51801 2.34792 0
M  V30 19170 N 1793.07 -5.34486 1.74015 0
M  V30 19171 H 1785.22 -1.47102 1.53215 0
M  V30 19172 H 1787.48 -0.700228 0.63905 0
M  V30 19173 H 1787.19 -2.95954 1.90011 0
M  V30 19174 H 1787.06 -3.75648 0.341841 0
M  V30 19175 H 1789.45 -2.94243 -0.224794 0
M  V30 19176 H 1789.53 -2.1649 1.36257 0
M  V30 19177 H 1789.17 -4.43824 2.46947 0
M  V30 19178 H 1789.1 -5.19556 0.858462 0
M  V30 19179 H 1791.59 -3.64133 1.01071 0
M  V30 19180 H 1791.91 -7.25482 2.66262 0
M  V30 19181 H 1790.25 -6.52685 2.38804 0
M  V30 19182 H 1793.44 -4.48721 1.33294 0
M  V30 19183 H 1793.62 -6.13506 2.086 0
M  V30 19184 N 1787.02 -0.295795 -1.54799 0
M  V30 19185 C 1788.25 0.317763 -2.04445 0
M  V30 19186 C 1788.67 1.47915 -1.17331 0
M  V30 19187 O 1788.02 1.81425 -0.197811 0
M  V30 19188 C 1788.07 0.778995 -3.53007 0
M  V30 19189 O 1787.79 -0.33616 -4.36808 0
M  V30 19190 C 1789.3 1.45824 -4.18629 0
M  V30 19191 H 1786.52 0.0697871 -0.667361 0
M  V30 19192 H 1789.06 -0.433911 -1.99844 0
M  V30 19193 H 1787.21 1.4807 -3.57986 0
M  V30 19194 H 1787.63 0.0219928 -5.24495 0
M  V30 19195 H 1789.1 1.73218 -5.24118 0
M  V30 19196 H 1789.58 2.3966 -3.68049 0
M  V30 19197 H 1790.19 0.799847 -4.17711 0
M  V30 19198 N 1788.5 1.57583 -0.0234236 0
M  V30 19199 C 1789.74 1.93428 0.660675 0
M  V30 19200 C 1790.11 0.899634 1.69619 0
M  V30 19201 O 1791.31 1.1441 2.43236 0
M  V30 19202 C 1789.58 3.3422 1.26617 0
M  V30 19203 S 1791.14 3.91985 1.97214 0
M  V30 19204 H 1787.95 0.676862 0.217666 0
M  V30 19205 H 1790.56 1.95312 -0.0857251 0
M  V30 19206 H 1789.26 4.07343 0.500004 0
M  V30 19207 H 1788.79 3.35766 2.05 0
M  V30 19208 H 1790.81 3.74958 3.24994 0
M  V30 19209 N 1789.98 -0.249655 1.5561 0
M  V30 19210 C 1791.23 -0.97808 1.77313 0
M  V30 19211 C 1791.55 -1.85423 0.587253 0
M  V30 19212 O 1790.81 -1.90928 -0.429527 0
M  V30 19213 C 1791.11 -1.87138 3.0449 0
M  V30 19214 C 1790.77 -1.15081 4.35967 0
M  V30 19215 C 1789.44 -0.95166 4.71696 0
M  V30 19216 C 1791.79 -0.639877 5.17257 0
M  V30 19217 C 1789.12 -0.229227 5.86252 0
M  V30 19218 C 1791.47 0.0690756 6.32562 0
M  V30 19219 C 1790.13 0.279731 6.66914 0
M  V30 19220 H 1789.4 -0.357905 0.648834 0
M  V30 19221 H 1792.05 -0.248402 1.89882 0
M  V30 19222 H 1790.35 -2.66802 2.86921 0
M  V30 19223 H 1792.05 -2.43662 3.18481 0
M  V30 19224 H 1788.64 -1.31597 4.07897 0
M  V30 19225 H 1792.83 -0.78129 4.90112 0
M  V30 19226 H 1788.08 -0.0555172 6.11375 0
M  V30 19227 H 1792.26 0.472628 6.94794 0
M  V30 19228 H 1789.88 0.841482 7.55528 0
M  V30 19229 N 1791.46 -1.48941 -0.515198 0
M  V30 19230 C 1792.87 -1.35389 -0.8451 0
M  V30 19231 C 1793.07 -0.376141 -1.97958 0
M  V30 19232 O 1792.13 0.197324 -2.51728 0
M  V30 19233 C 1793.44 -2.75775 -1.19868 0
M  V30 19234 C 1794.99 -2.84373 -1.30772 0
M  V30 19235 C 1795.47 -4.25494 -1.69466 0
M  V30 19236 N 1796.96 -4.28237 -1.76542 0
M  V30 19237 C 1797.69 -5.34384 -2.07898 0
M  V30 19238 N 1797.19 -6.50792 -2.37575 0
M  V30 19239 N 1798.98 -5.21789 -2.09029 0
M  V30 19240 H 1791.13 -2.11117 0.233118 0
M  V30 19241 H 1793.39 -0.947083 0.0416757 0
M  V30 19242 H 1793.1 -3.48955 -0.438565 0
M  V30 19243 H 1792.97 -3.10243 -2.14545 0
M  V30 19244 H 1795.36 -2.11439 -2.05858 0
M  V30 19245 H 1795.44 -2.53506 -0.341808 0
M  V30 19246 H 1795.09 -4.98949 -0.949358 0
M  V30 19247 H 1795.02 -4.53814 -2.67133 0
M  V30 19248 H 1797.51 -3.44278 -1.55824 0
M  V30 19249 H 1797.82 -7.27518 -2.60649 0
M  V30 19250 H 1796.17 -6.54042 -2.35062 0
M  V30 19251 H 1799.36 -4.29858 -1.85311 0
M  V30 19252 H 1799.53 -6.0461 -2.33133 0
M  V30 19253 N 1792.94 0.765193 -1.37777 0
M  V30 19254 C 1794.18 1.51928 -1.32668 0
M  V30 19255 C 1794.5 1.95418 0.0844172 0
M  V30 19256 O 1795.7 2.70271 0.258001 0
M  V30 19257 C 1794.16 2.74377 -2.32906 0
M  V30 19258 C 1793.77 2.37959 -3.79578 0
M  V30 19259 C 1795.51 3.52302 -2.3682 0
M  V30 19260 C 1793.42 3.5695 -4.7153 0
M  V30 19261 H 1792.35 0.570412 -0.493098 0
M  V30 19262 H 1795 0.837531 -1.63272 0
M  V30 19263 H 1793.38 3.44474 -1.95329 0
M  V30 19264 H 1794.56 1.75603 -4.26028 0
M  V30 19265 H 1792.87 1.73194 -3.78672 0
M  V30 19266 H 1795.47 4.40754 -3.02721 0
M  V30 19267 H 1795.81 3.92631 -1.38371 0
M  V30 19268 H 1796.34 2.89207 -2.73137 0
M  V30 19269 H 1793.08 3.21697 -5.71132 0
M  V30 19270 H 1792.6 4.18388 -4.2978 0
M  V30 19271 H 1794.28 4.2368 -4.88983 0
M  V30 19272 N 1794.41 1.22455 0.992094 0
M  V30 19273 C 1795.66 1.05115 1.73432 0
M  V30 19274 C 1795.99 -0.412642 1.89765 0
M  V30 19275 O 1795.27 -1.3059 1.44141 0
M  V30 19276 C 1795.55 1.76385 3.13943 0
M  V30 19277 C 1795.4 3.30364 3.05253 0
M  V30 19278 C 1796.72 1.51688 4.13133 0
M  V30 19279 H 1793.84 0.383261 0.629508 0
M  V30 19280 H 1796.48 1.50805 1.15576 0
M  V30 19281 H 1794.63 1.37544 3.63337 0
M  V30 19282 H 1796.31 3.78655 2.63474 0
M  V30 19283 H 1794.55 3.6 2.42038 0
M  V30 19284 H 1795.22 3.75409 4.04687 0
M  V30 19285 H 1797.7 1.85429 3.72499 0
M  V30 19286 H 1796.57 2.04049 5.09564 0
M  V30 19287 H 1796.83 0.449654 4.39807 0
M  V30 19288 N 1795.89 -1.18905 1.03437 0
M  V30 19289 C 1796.8 -2.25979 0.63014 0
M  V30 19290 C 1797.82 -1.70633 -0.340668 0
M  V30 19291 O 1798.99 -2.00432 -0.197174 0
M  V30 19292 C 1796.06 -3.46699 -0.00713795 0
M  V30 19293 C 1795.12 -4.17205 1.01187 0
M  V30 19294 C 1794.35 -5.32162 0.404909 0
M  V30 19295 O 1794.58 -5.64894 -0.790638 0
M  V30 19296 O 1793.51 -5.91188 1.13048 0
M  V30 19297 H 1797.34 -2.62808 1.52203 0
M  V30 19298 H 1794.92 -1.25865 0.804878 0
M  V30 19299 H 1796.8 -4.1984 -0.362204 0
M  V30 19300 H 1795.48 -3.11707 -0.872948 0
M  V30 19301 H 1794.38 -3.46159 1.41862 0
M  V30 19302 H 1795.72 -4.56181 1.84823 0
M  V30 19303 N 1797.37 -0.812977 -1.35013 0
M  V30 19304 C 1798.32 -0.200375 -2.27118 0
M  V30 19305 C 1799.3 0.629541 -1.48073 0
M  V30 19306 O 1800.5 0.485751 -1.70204 0
M  V30 19307 C 1797.62 0.644989 -3.37187 0
M  V30 19308 C 1796.71 -0.195007 -4.23651 0
M  V30 19309 N 1797.1 -1.26116 -4.89825 0
M  V30 19310 C 1795.4 0.0223111 -4.45994 0
M  V30 19311 C 1796.1 -1.77451 -5.53973 0
M  V30 19312 N 1795.08 -1.07995 -5.32764 0
M  V30 19313 H 1798.88 -1.01605 -2.75778 0
M  V30 19314 H 1796.39 -0.654777 -1.48615 0
M  V30 19315 H 1798.39 1.09995 -4.02128 0
M  V30 19316 H 1797.05 1.45894 -2.90078 0
M  V30 19317 H 1798.06 -1.64387 -4.91118 0
M  V30 19318 H 1794.74 0.804889 -4.09668 0
M  V30 19319 H 1796.13 -2.66591 -6.16749 0
M  V30 19320 N 1798.85 1.47045 -0.567045 0
M  V30 19321 C 1799.8 2.31838 0.188075 0
M  V30 19322 C 1800.79 1.4353 0.899752 0
M  V30 19323 O 1802 1.60241 0.81992 0
M  V30 19324 H 1798.37 0.747783 0.0795226 0
M  V30 19325 H 1800.34 2.9336 -0.546121 0
M  V30 19326 C 1799.09 3.26387 1.19861 0
M  V30 19327 H 1798.41 3.94308 0.660412 0
M  V30 19328 H 1799.85 3.8853 1.69767 0
M  V30 19329 C 1798.31 2.50612 2.25157 0
M  V30 19330 O 1798.84 2.25771 3.3225 0
M  V30 19331 N 1797.05 2.11447 1.99345 0
M  V30 19332 H 1796.6 2.31849 1.12267 0
M  V30 19333 H 1796.55 1.61064 2.7001 0
M  V30 19334 N 1800.33 0.304 1.5464 0
M  V30 19335 C 1801.57 -0.297701 2.0121 0
M  V30 19336 C 1801.93 -1.51295 1.18859 0
M  V30 19337 O 1801.22 -1.89859 0.257697 0
M  V30 19338 C 1801.41 -0.702651 3.50425 0
M  V30 19339 C 1801.24 0.47181 4.47218 0
M  V30 19340 C 1800.01 0.964773 4.96004 0
M  V30 19341 C 1802.21 1.31774 4.97132 0
M  V30 19342 N 1800.19 2.10568 5.76658 0
M  V30 19343 C 1801.56 2.3061 5.75516 0
M  V30 19344 C 1803.62 1.34777 4.79312 0
M  V30 19345 C 1802.32 3.32228 6.37979 0
M  V30 19346 C 1804.35 2.35255 5.42595 0
M  V30 19347 C 1803.71 3.3282 6.20814 0
M  V30 19348 H 1799.81 -0.073314 0.778556 0
M  V30 19349 H 1802.39 0.434597 1.89788 0
M  V30 19350 H 1800.56 -1.40412 3.62131 0
M  V30 19351 H 1802.3 -1.28415 3.83786 0
M  V30 19352 H 1799.05 0.539254 4.7052 0
M  V30 19353 H 1799.47 2.68063 6.21668 0
M  V30 19354 H 1804.12 0.607191 4.18417 0
M  V30 19355 H 1801.83 4.07203 6.98005 0
M  V30 19356 H 1805.42 2.38355 5.30733 0
M  V30 19357 H 1804.3 4.09296 6.68914 0
M  V30 19358 N 1801.8 -1.57568 0.0317802 0
M  V30 19359 C 1803.05 -1.9191 -0.646281 0
M  V30 19360 C 1803.38 -0.908432 -1.71982 0
M  V30 19361 O 1802.63 0.0822426 -1.95527 0
M  V30 19362 C 1802.93 -3.32976 -1.29852 0
M  V30 19363 C 1802.6 -4.495 -0.355092 0
M  V30 19364 C 1801.26 -4.81105 -0.0954326 0
M  V30 19365 C 1803.61 -5.20378 0.292586 0
M  V30 19366 C 1800.94 -5.80946 0.819667 0
M  V30 19367 C 1803.29 -6.21196 1.19576 0
M  V30 19368 C 1801.96 -6.51241 1.46428 0
M  V30 19369 H 1801.23 -0.702249 -0.236491 0
M  V30 19370 H 1803.87 -1.91269 0.0941159 0
M  V30 19371 H 1802.18 -3.29892 -2.11373 0
M  V30 19372 H 1803.88 -3.5682 -1.82977 0
M  V30 19373 H 1800.47 -4.24824 -0.567652 0
M  V30 19374 H 1804.65 -4.96189 0.105041 0
M  V30 19375 H 1799.91 -6.02569 1.03538 0
M  V30 19376 H 1804.08 -6.75236 1.7038 0
M  V30 19377 H 1801.71 -7.28421 2.17502 0
M  V30 19378 N 1803.28 0.241399 -1.5574 0
M  V30 19379 C 1804.19 1.32034 -1.93918 0
M  V30 19380 C 1805.21 1.52363 -0.840331 0
M  V30 19381 O 1806.38 1.65879 -1.1422 0
M  V30 19382 C 1803.45 2.6539 -2.2309 0
M  V30 19383 C 1802.51 2.53536 -3.46436 0
M  V30 19384 C 1801.74 3.80532 -3.74208 0
M  V30 19385 O 1801.97 4.82662 -3.03964 0
M  V30 19386 O 1800.9 3.78834 -4.67727 0
M  V30 19387 H 1804.73 1.02647 -2.85827 0
M  V30 19388 H 1802.31 0.442616 -1.42693 0
M  V30 19389 H 1804.19 3.44184 -2.43137 0
M  V30 19390 H 1802.87 2.94499 -1.34358 0
M  V30 19391 H 1801.78 1.73009 -3.3169 0
M  V30 19392 H 1803.11 2.29371 -4.35488 0
M  V30 19393 N 1804.76 1.49212 0.507292 0
M  V30 19394 C 1805.99 1.6208 1.28599 0
M  V30 19395 C 1806.4 0.289745 1.86563 0
M  V30 19396 O 1805.76 -0.723987 1.67525 0
M  V30 19397 C 1805.81 2.68482 2.42074 0
M  V30 19398 O 1805.53 3.96424 1.86493 0
M  V30 19399 C 1807.03 2.91997 3.33546 0
M  V30 19400 H 1804.25 0.545831 0.390268 0
M  V30 19401 H 1806.8 1.95201 0.609652 0
M  V30 19402 H 1804.95 2.38156 3.05549 0
M  V30 19403 H 1805.37 4.54983 2.60942 0
M  V30 19404 H 1806.84 3.70195 4.09463 0
M  V30 19405 H 1807.32 2.01673 3.9016 0
M  V30 19406 H 1807.92 3.23715 2.75842 0
M  V30 19407 N 1806.24 -0.757876 1.38181 0
M  V30 19408 C 1807.49 -1.51688 1.34153 0
M  V30 19409 C 1807.81 -1.94375 -0.0697487 0
M  V30 19410 O 1807.07 -1.65404 -1.04594 0
M  V30 19411 C 1807.37 -2.78548 2.23933 0
M  V30 19412 C 1807.03 -2.54845 3.71975 0
M  V30 19413 C 1805.7 -2.48089 4.12317 0
M  V30 19414 C 1808.05 -2.34027 4.65704 0
M  V30 19415 C 1805.38 -2.18526 5.44485 0
M  V30 19416 C 1807.73 -2.05986 5.98124 0
M  V30 19417 C 1806.39 -1.97683 6.37556 0
M  V30 19418 H 1805.66 -0.555064 0.490902 0
M  V30 19419 H 1808.31 -0.871823 1.70504 0
M  V30 19420 H 1806.61 -3.47682 1.80623 0
M  V30 19421 H 1808.31 -3.36487 2.18122 0
M  V30 19422 H 1804.9 -2.60972 3.39988 0
M  V30 19423 H 1809.08 -2.38228 4.35386 0
M  V30 19424 H 1804.34 -2.10603 5.73983 0
M  V30 19425 H 1808.51 -1.8888 6.70296 0
M  V30 19426 H 1806.14 -1.7454 7.39892 0
M  V30 19427 N 1807.72 -1.22979 -0.985586 0
M  V30 19428 C 1808.97 -1.05286 -1.7204 0
M  V30 19429 C 1809.28 0.411213 -1.91229 0
M  V30 19430 O 1810.48 0.70797 -2.62107 0
M  V30 19431 C 1808.94 -1.8355 -3.09576 0
M  V30 19432 C 1808.55 -3.34254 -2.98293 0
M  V30 19433 C 1810.29 -1.74329 -3.87052 0
M  V30 19434 C 1808.2 -4.0493 -4.31029 0
M  V30 19435 H 1807.13 -0.390364 -0.645083 0
M  V30 19436 H 1809.78 -1.46898 -1.09969 0
M  V30 19437 H 1808.16 -1.34741 -3.72372 0
M  V30 19438 H 1809.34 -3.90511 -2.44618 0
M  V30 19439 H 1807.65 -3.44231 -2.34294 0
M  V30 19440 H 1810.25 -2.24449 -4.85311 0
M  V30 19441 H 1810.59 -0.705078 -4.10286 0
M  V30 19442 H 1811.12 -2.20721 -3.30949 0
M  V30 19443 H 1807.86 -5.09035 -4.12993 0
M  V30 19444 H 1807.38 -3.5346 -4.84588 0
M  V30 19445 H 1809.06 -4.10935 -4.99742 0
M  V30 19446 N 1809.19 1.18355 -1.04066 0
M  V30 19447 C 1810.44 1.88614 -0.745148 0
M  V30 19448 C 1810.77 1.80147 0.725294 0
M  V30 19449 O 1810.05 1.20177 1.5293 0
M  V30 19450 C 1810.33 3.39095 -1.2119 0
M  V30 19451 C 1810.18 3.56372 -2.74444 0
M  V30 19452 C 1811.5 4.32732 -0.801953 0
M  V30 19453 H 1808.62 0.684905 -0.272166 0
M  V30 19454 H 1811.26 1.39248 -1.29267 0
M  V30 19455 H 1809.41 3.81269 -0.746091 0
M  V30 19456 H 1811.09 3.2329 -3.29061 0
M  V30 19457 H 1809.33 2.99028 -3.14269 0
M  V30 19458 H 1810 4.61956 -3.0216 0
M  V30 19459 H 1812.48 3.98337 -1.20278 0
M  V30 19460 H 1811.35 5.36583 -1.15628 0
M  V30 19461 H 1811.61 4.41115 0.294907 0
M  V30 19462 N 1810.67 0.820125 1.3458 0
M  V30 19463 C 1811.92 0.406871 1.9837 0
M  V30 19464 C 1812.25 -1.02936 1.65028 0
M  V30 19465 O 1811.5 -1.73122 0.912538 0
M  V30 19466 C 1811.8 0.552817 3.53099 0
M  V30 19467 C 1811.47 1.95436 4.06344 0
M  V30 19468 C 1810.13 2.33776 4.20597 0
M  V30 19469 C 1812.48 2.87068 4.35019 0
M  V30 19470 C 1809.81 3.6309 4.6085 0
M  V30 19471 C 1812.16 4.15841 4.76716 0
M  V30 19472 C 1810.83 4.54163 4.89175 0
M  V30 19473 H 1810.1 0.148884 0.725889 0
M  V30 19474 H 1812.74 1.04353 1.6057 0
M  V30 19475 H 1811.05 -0.167245 3.91443 0
M  V30 19476 H 1812.74 0.213635 4.00431 0
M  V30 19477 H 1809.33 1.64652 3.95712 0
M  V30 19478 H 1813.52 2.5869 4.23548 0
M  V30 19479 H 1808.77 3.92611 4.68686 0
M  V30 19480 H 1812.95 4.86934 4.97863 0
M  V30 19481 H 1810.58 5.54415 5.20123 0
M  V30 19482 N 1812.15 -1.46743 0.574835 0
M  V30 19483 C 1813.08 -2.27221 -0.211109 0
M  V30 19484 C 1814.06 -1.35143 -0.90416 0
M  V30 19485 O 1815.25 -1.64545 -0.919627 0
M  V30 19486 C 1812.37 -3.12665 -1.30223 0
M  V30 19487 C 1811.42 -4.20449 -0.715857 0
M  V30 19488 S 1812.25 -5.33596 0.451197 0
M  V30 19489 C 1813.41 -6.22606 -0.641314 0
M  V30 19490 H 1813.64 -2.93533 0.471766 0
M  V30 19491 H 1811.17 -1.50107 0.361547 0
M  V30 19492 H 1813.13 -3.62459 -1.927 0
M  V30 19493 H 1811.79 -2.45682 -1.95702 0
M  V30 19494 H 1810.99 -4.80031 -1.53578 0
M  V30 19495 H 1810.59 -3.73627 -0.166909 0
M  V30 19496 H 1812.88 -6.60021 -1.52899 0
M  V30 19497 H 1813.82 -7.08052 -0.0824416 0
M  V30 19498 H 1814.23 -5.56586 -0.941918 0
M  V30 19499 N 1813.63 -0.312197 -1.54477 0
M  V30 19500 C 1814.88 0.294607 -1.99537 0
M  V30 19501 C 1815.19 1.54137 -1.20421 0
M  V30 19502 O 1816.4 2.22346 -1.55803 0
M  V30 19503 C 1814.85 0.57547 -3.55269 0
M  V30 19504 C 1814.46 -0.653591 -4.43207 0
M  V30 19505 C 1816.2 1.14285 -4.08827 0
M  V30 19506 C 1814.11 -0.345261 -5.90391 0
M  V30 19507 H 1813.04 0.113859 -0.745354 0
M  V30 19508 H 1815.69 -0.42265 -1.78566 0
M  V30 19509 H 1814.07 1.35262 -3.72183 0
M  V30 19510 H 1815.25 -1.42945 -4.38068 0
M  V30 19511 H 1813.56 -1.14039 -4.0048 0
M  V30 19512 H 1816.16 1.38797 -5.16371 0
M  V30 19513 H 1816.5 2.08866 -3.60112 0
M  V30 19514 H 1817.04 0.427154 -3.955 0
M  V30 19515 H 1813.78 -1.25994 -6.43277 0
M  V30 19516 H 1813.3 0.393106 -5.9851 0
M  V30 19517 H 1814.97 0.0490847 -6.46981 0
M  V30 19518 N 1815.11 1.57549 -0.040136 0
M  V30 19519 C 1816.04 2.13912 0.936168 0
M  V30 19520 C 1817.02 1.05798 1.33194 0
M  V30 19521 O 1818.2 1.33685 1.40861 0
M  V30 19522 C 1815.33 2.67515 2.21479 0
M  V30 19523 C 1814.29 3.80513 1.95943 0
M  V30 19524 C 1813.61 4.20589 3.30165 0
M  V30 19525 C 1814.91 5.06124 1.28981 0
M  V30 19526 H 1816.61 2.9574 0.46674 0
M  V30 19527 H 1814.15 1.42262 0.223062 0
M  V30 19528 H 1816.11 3.05582 2.90168 0
M  V30 19529 H 1814.83 1.82864 2.70608 0
M  V30 19530 H 1813.49 3.42902 1.29669 0
M  V30 19531 H 1813.14 3.32904 3.77073 0
M  V30 19532 H 1812.84 4.96742 3.13881 0
M  V30 19533 H 1814.36 4.61248 4.00103 0
M  V30 19534 H 1815.77 5.41707 1.87687 0
M  V30 19535 H 1814.17 5.87347 1.2306 0
M  V30 19536 H 1815.24 4.84179 0.264286 0
M  V30 19537 N 1816.58 -0.233136 1.55866 0
M  V30 19538 C 1817.51 -1.29225 1.94482 0
M  V30 19539 C 1818.5 -1.49495 0.811503 0
M  V30 19540 O 1819.68 -1.61872 1.07289 0
M  V30 19541 C 1816.81 -2.64435 2.25147 0
M  V30 19542 C 1815.76 -2.5884 3.4086 0
M  V30 19543 C 1815.09 -3.97973 3.57102 0
M  V30 19544 C 1816.39 -2.14629 4.76164 0
M  V30 19545 H 1818.08 -0.971527 2.83199 0
M  V30 19546 H 1815.63 -0.465905 1.36255 0
M  V30 19547 H 1817.58 -3.38676 2.50752 0
M  V30 19548 H 1816.31 -2.98172 1.33271 0
M  V30 19549 H 1814.97 -1.87057 3.15286 0
M  V30 19550 H 1814.61 -4.28998 2.62621 0
M  V30 19551 H 1814.31 -3.95114 4.34924 0
M  V30 19552 H 1815.84 -4.73893 3.85043 0
M  V30 19553 H 1817.25 -2.78607 5.0105 0
M  V30 19554 H 1815.65 -2.22853 5.57186 0
M  V30 19555 H 1816.72 -1.09826 4.72299 0
M  V30 19556 N 1818.06 -1.49479 -0.499372 0
M  V30 19557 C 1819.29 -1.63025 -1.28209 0
M  V30 19558 C 1819.71 -0.302238 -1.85656 0
M  V30 19559 O 1819.07 0.730355 -1.65938 0
M  V30 19560 C 1819.12 -2.70287 -2.38699 0
M  V30 19561 O 1818.22 -2.29573 -3.42593 0
M  V30 19562 H 1817.56 -0.545605 -0.378432 0
M  V30 19563 H 1820.09 -1.95677 -0.597628 0
M  V30 19564 H 1820.1 -2.92505 -2.84438 0
M  V30 19565 H 1818.78 -3.66684 -1.96253 0
M  V30 19566 H 1817.36 -2.17692 -3.02761 0
M  V30 19567 N 1819.54 0.750537 -1.38581 0
M  V30 19568 C 1820.77 1.54489 -1.38376 0
M  V30 19569 C 1821.19 1.88085 0.023634 0
M  V30 19570 O 1820.55 1.50794 1.00652 0
M  V30 19571 C 1820.6 2.81875 -2.24897 0
M  V30 19572 O 1819.7 3.77155 -1.66817 0
M  V30 19573 H 1819.04 0.467148 -0.471878 0
M  V30 19574 H 1821.57 0.927264 -1.82381 0
M  V30 19575 H 1821.58 3.30769 -2.38864 0
M  V30 19576 H 1820.26 2.56753 -3.27186 0
M  V30 19577 H 1818.83 3.35868 -1.62009 0
M  V30 19578 N 1821.02 1.235 0.979051 0
M  V30 19579 C 1822.27 1.0658 1.71713 0
M  V30 19580 C 1822.59 -0.397927 1.90897 0
M  V30 19581 O 1821.86 -1.28511 1.47857 0
M  V30 19582 H 1820.44 0.391397 0.636253 0
M  V30 19583 H 1823.1 1.55239 1.17843 0
M  V30 19584 H 1822.2 1.5548 2.70615 0
M  V30 19585 N 1822.5 -1.17802 1.04693 0
M  V30 19586 C 1823.46 -2.19854 0.647816 0
M  V30 19587 C 1824.46 -1.58013 -0.298081 0
M  V30 19588 O 1825.65 -1.74004 -0.0826309 0
M  V30 19589 C 1822.78 -3.40864 -0.0492661 0
M  V30 19590 H 1823.98 -2.56678 1.55101 0
M  V30 19591 H 1821.53 -1.31796 0.840215 0
M  V30 19592 H 1822.26 -3.0958 -0.965967 0
M  V30 19593 H 1822.05 -3.86995 0.630677 0
M  V30 19594 H 1823.54 -4.16412 -0.31479 0
M  V30 19595 N 1823.98 -0.827251 -1.34143 0
M  V30 19596 C 1824.91 -0.267015 -2.31968 0
M  V30 19597 C 1825.89 0.618906 -1.58441 0
M  V30 19598 O 1827.07 0.544882 -1.86399 0
M  V30 19599 C 1824.2 0.568379 -3.42617 0
M  V30 19600 C 1823.16 -0.220767 -4.2743 0
M  V30 19601 C 1822.48 0.737643 -5.29587 0
M  V30 19602 C 1823.78 -1.43137 -5.02304 0
M  V30 19603 H 1825.48 -1.08436 -2.79073 0
M  V30 19604 H 1823.02 -0.522879 -1.34171 0
M  V30 19605 H 1824.97 0.970525 -4.10072 0
M  V30 19606 H 1823.7 1.41882 -2.94172 0
M  V30 19607 H 1822.36 -0.604333 -3.61585 0
M  V30 19608 H 1822.01 1.58416 -4.77403 0
M  V30 19609 H 1821.71 0.213815 -5.87211 0
M  V30 19610 H 1823.23 1.13755 -5.9991 0
M  V30 19611 H 1824.64 -1.10301 -5.62589 0
M  V30 19612 H 1823.04 -1.89115 -5.69522 0
M  V30 19613 H 1824.11 -2.2073 -4.31748 0
M  V30 19614 N 1825.45 1.46436 -0.582609 0
M  V30 19615 C 1826.42 2.28769 0.140502 0
M  V30 19616 C 1827.42 1.38385 0.818911 0
M  V30 19617 O 1828.61 1.60763 0.670882 0
M  V30 19618 C 1825.74 3.18765 1.20836 0
M  V30 19619 H 1826.93 2.94178 -0.583049 0
M  V30 19620 H 1824.48 1.52544 -0.340575 0
M  V30 19621 H 1825.22 2.58103 1.9635 0
M  V30 19622 H 1825 3.85312 0.726417 0
M  V30 19623 H 1826.49 3.80735 1.71553 0
M  V30 19624 N 1826.93 0.320385 1.54309 0
M  V30 19625 C 1828.18 -0.283143 2.00511 0
M  V30 19626 C 1828.51 -1.52391 1.2086 0
M  V30 19627 O 1827.76 -1.93716 0.277955 0
M  V30 19628 C 1828.06 -0.665444 3.5115 0
M  V30 19629 C 1827.73 0.475789 4.48383 0
M  V30 19630 C 1826.39 0.789037 4.74687 0
M  V30 19631 C 1828.74 1.24253 5.06172 0
M  V30 19632 C 1826.07 1.87181 5.5604 0
M  V30 19633 C 1828.42 2.31537 5.88705 0
M  V30 19634 C 1827.08 2.63447 6.13312 0
M  V30 19635 H 1826.35 -0.103609 0.733721 0
M  V30 19636 H 1829 0.443504 1.86294 0
M  V30 19637 H 1827.31 -1.47247 3.63078 0
M  V30 19638 H 1829 -1.14391 3.84338 0
M  V30 19639 H 1825.59 0.221559 4.28027 0
M  V30 19640 H 1829.78 1.01379 4.85835 0
M  V30 19641 H 1825.03 2.12354 5.73337 0
M  V30 19642 H 1829.21 2.91395 6.32504 0
M  V30 19643 H 1826.83 3.47477 6.76139 0
M  V30 19644 N 1828.41 -1.57525 0.0484906 0
M  V30 19645 C 1829.32 -2.14854 -0.942076 0
M  V30 19646 C 1830.34 -1.10565 -1.34355 0
M  V30 19647 O 1831.51 -1.4272 -1.42102 0
M  V30 19648 C 1828.58 -2.68002 -2.19945 0
M  V30 19649 C 1827.64 -3.87078 -1.85658 0
M  V30 19650 C 1826.87 -4.37682 -3.05401 0
M  V30 19651 O 1827.09 -3.87373 -4.18687 0
M  V30 19652 O 1826.03 -5.29302 -2.86571 0
M  V30 19653 H 1829.85 -2.9981 -0.48453 0
M  V30 19654 H 1827.44 -1.48392 -0.173252 0
M  V30 19655 H 1829.32 -3.02167 -2.93722 0
M  V30 19656 H 1828 -1.86118 -2.64843 0
M  V30 19657 H 1826.9 -3.57806 -1.09205 0
M  V30 19658 H 1828.24 -4.70184 -1.45562 0
M  V30 19659 N 1829.89 0.224867 -1.55988 0
M  V30 19660 C 1831.16 0.973884 -1.69632 0
M  V30 19661 C 1831.54 2.02547 -0.594791 0
M  V30 19662 O 1830.89 2.24995 0.398679 0
M  V30 19663 C 1831.1 1.58732 -3.10814 0
M  V30 19664 C 1832.45 2.08084 -3.70117 0
M  V30 19665 O 1833.47 1.68633 -3.13754 0
M  V30 19666 O 1832.33 2.80586 -4.68971 0
M  V30 19667 H 1829.43 0.454716 -0.690769 0
M  V30 19668 H 1831.97 0.216911 -1.68308 0
M  V30 19669 H 1830.75 0.827834 -3.82443 0
M  V30 19670 H 1830.37 2.40992 -3.16241 0
M  V30 19671 N 1831.37 1.49742 0.491438 0
M  V30 19672 C 1832.61 1.58956 1.24161 0
M  V30 19673 C 1832.93 0.285882 1.935 0
M  V30 19674 O 1834.13 0.256678 2.70284 0
M  V30 19675 C 1832.59 2.805 2.25494 0
M  V30 19676 C 1832.2 4.17664 1.62051 0
M  V30 19677 C 1833.94 2.99049 3.0128 0
M  V30 19678 C 1831.85 5.3042 2.61551 0
M  V30 19679 H 1830.78 0.591883 0.467108 0
M  V30 19680 H 1833.43 1.76144 0.514364 0
M  V30 19681 H 1831.81 2.56827 3.01423 0
M  V30 19682 H 1832.99 4.51512 0.9205 0
M  V30 19683 H 1831.3 4.04553 0.986211 0
M  V30 19684 H 1833.9 3.80458 3.75707 0
M  V30 19685 H 1834.24 2.0998 3.59464 0
M  V30 19686 H 1834.77 3.22807 2.32466 0
M  V30 19687 H 1831.51 6.21579 2.08135 0
M  V30 19688 H 1831.03 5.01014 3.29765 0
M  V30 19689 H 1832.71 5.60152 3.23789 0
M  V30 19690 N 1832.84 -0.743177 1.38977 0
M  V30 19691 C 1834.07 -1.53021 1.3881 0
M  V30 19692 C 1834.48 -1.89188 -0.0213066 0
M  V30 19693 O 1833.83 -1.54033 -1.00097 0
M  V30 19694 C 1833.89 -2.85158 2.18918 0
M  V30 19695 C 1833.55 -2.71471 3.67631 0
M  V30 19696 C 1834.55 -2.40567 4.60894 0
M  V30 19697 C 1832.23 -2.88598 4.11116 0
M  V30 19698 C 1834.23 -2.26959 5.95625 0
M  V30 19699 C 1831.91 -2.74609 5.45924 0
M  V30 19700 C 1832.91 -2.43833 6.37992 0
M  V30 19701 O 1832.6 -2.29922 7.70319 0
M  V30 19702 H 1832.33 -0.47975 0.476252 0
M  V30 19703 H 1834.89 -0.92667 1.83308 0
M  V30 19704 H 1833.12 -3.47741 1.69154 0
M  V30 19705 H 1834.81 -3.4673 2.11029 0
M  V30 19706 H 1835.57 -2.26994 4.28601 0
M  V30 19707 H 1831.45 -3.11547 3.39794 0
M  V30 19708 H 1834.99 -2.02859 6.67453 0
M  V30 19709 H 1830.89 -2.87758 5.77811 0
M  V30 19710 H 1831.66 -2.45054 7.80955 0
M  V30 19711 N 1834.32 -1.24018 -0.972487 0
M  V30 19712 C 1835.57 -1.07105 -1.70913 0
M  V30 19713 C 1835.88 0.390908 -1.91654 0
M  V30 19714 O 1837.09 0.68013 -2.62843 0
M  V30 19715 C 1835.55 -1.86823 -3.07612 0
M  V30 19716 C 1835.15 -3.37399 -2.94731 0
M  V30 19717 C 1836.9 -1.78425 -3.85182 0
M  V30 19718 C 1834.81 -4.09479 -4.2671 0
M  V30 19719 H 1833.74 -0.397184 -0.640907 0
M  V30 19720 H 1836.39 -1.48056 -1.08405 0
M  V30 19721 H 1834.77 -1.38683 -3.70922 0
M  V30 19722 H 1835.94 -3.93084 -2.40462 0
M  V30 19723 H 1834.26 -3.46697 -2.3063 0
M  V30 19724 H 1836.85 -2.29584 -4.82903 0
M  V30 19725 H 1837.2 -0.748555 -4.09515 0
M  V30 19726 H 1837.73 -2.24219 -3.28589 0
M  V30 19727 H 1834.47 -5.13387 -4.07571 0
M  V30 19728 H 1833.99 -3.5858 -4.80812 0
M  V30 19729 H 1835.67 -4.16212 -4.95355 0
M  V30 19730 N 1835.8 1.17245 -1.05316 0
M  V30 19731 C 1837.08 1.83482 -0.677779 0
M  V30 19732 C 1837.46 1.93592 0.841753 0
M  V30 19733 O 1836.81 1.47142 1.74818 0
M  V30 19734 C 1837.02 3.21062 -1.36823 0
M  V30 19735 C 1838.36 3.96954 -1.50708 0
M  V30 19736 O 1839.39 3.30545 -1.32734 0
M  V30 19737 O 1838.25 5.15967 -1.80111 0
M  V30 19738 H 1835.34 0.79179 -0.238741 0
M  V30 19739 H 1837.89 1.24531 -1.15283 0
M  V30 19740 H 1836.66 3.08679 -2.40484 0
M  V30 19741 H 1836.28 3.8768 -0.882617 0
M  V30 19742 N 1837.28 0.834353 1.33702 0
M  V30 19743 C 1838.21 0.221764 2.28125 0
M  V30 19744 C 1839.22 -0.594917 1.51541 0
M  V30 19745 O 1840.41 -0.422726 1.73422 0
M  V30 19746 C 1837.51 -0.706778 3.31448 0
M  V30 19747 C 1836.69 0.0695756 4.37345 0
M  V30 19748 C 1835.74 -0.781623 5.20362 0
M  V30 19749 O 1834.77 -0.222459 5.68765 0
M  V30 19750 N 1835.97 -2.09968 5.41197 0
M  V30 19751 H 1838.74 1.03303 2.81333 0
M  V30 19752 H 1836.3 0.692389 1.46348 0
M  V30 19753 H 1838.29 -1.28109 3.83888 0
M  V30 19754 H 1836.86 -1.41877 2.78549 0
M  V30 19755 H 1836.08 0.825247 3.85465 0
M  V30 19756 H 1837.37 0.603576 5.05207 0
M  V30 19757 H 1836.77 -2.57756 5.03565 0
M  V30 19758 H 1835.32 -2.62258 5.96711 0
M  V30 19759 N 1838.76 -1.46125 0.590367 0
M  V30 19760 C 1840.17 -1.57588 0.252639 0
M  V30 19761 C 1840.37 -1.58435 -1.24502 0
M  V30 19762 O 1839.43 -1.50541 -2.02716 0
M  V30 19763 C 1840.74 -2.86644 0.908612 0
M  V30 19764 C 1842.29 -3.00289 0.882917 0
M  V30 19765 C 1842.76 -4.32092 1.51858 0
M  V30 19766 N 1844.26 -4.38809 1.48327 0
M  V30 19767 C 1844.99 -5.39426 1.94442 0
M  V30 19768 N 1844.49 -6.46674 2.48565 0
M  V30 19769 N 1846.28 -5.30675 1.85313 0
M  V30 19770 H 1838.43 -1.43819 1.56301 0
M  V30 19771 H 1840.69 -0.686515 0.653759 0
M  V30 19772 H 1840.4 -2.91857 1.96246 0
M  V30 19773 H 1840.27 -3.74838 0.421445 0
M  V30 19774 H 1842.66 -2.94653 -0.16233 0
M  V30 19775 H 1842.74 -2.13551 1.40818 0
M  V30 19776 H 1842.39 -4.38486 2.56306 0
M  V30 19777 H 1842.32 -5.17618 0.968474 0
M  V30 19778 H 1844.81 -3.61907 1.08772 0
M  V30 19779 H 1845.12 -7.19671 2.8159 0
M  V30 19780 H 1843.46 -6.47473 2.52595 0
M  V30 19781 H 1846.66 -4.45793 1.42782 0
M  V30 19782 H 1846.83 -6.08943 2.21567 0
M  V30 19783 N 1840.23 -0.328564 -1.54137 0
M  V30 19784 C 1841.18 0.535112 -2.24511 0
M  V30 19785 C 1842.15 1.10765 -1.23776 0
M  V30 19786 O 1843.34 1.14706 -1.52471 0
M  V30 19787 C 1840.48 1.68765 -3.01019 0
M  V30 19788 C 1839.59 1.14387 -4.16581 0
M  V30 19789 C 1838.72 2.26249 -4.80609 0
M  V30 19790 C 1837.76 1.69146 -5.88265 0
M  V30 19791 N 1836.9 2.74691 -6.46134 0
M  V30 19792 H 1841.74 -0.0715726 -2.97914 0
M  V30 19793 H 1839.28 -0.0470933 -1.47025 0
M  V30 19794 H 1841.24 2.36594 -3.43626 0
M  V30 19795 H 1839.87 2.26555 -2.29941 0
M  V30 19796 H 1838.92 0.356974 -3.78721 0
M  V30 19797 H 1840.23 0.686063 -4.94059 0
M  V30 19798 H 1839.38 3.01973 -5.2621 0
M  V30 19799 H 1838.12 2.75368 -4.02522 0
M  V30 19800 H 1837.13 0.919217 -5.42061 0
M  V30 19801 H 1838.35 1.20897 -6.68252 0
M  V30 19802 H 1836.3 3.23091 -5.70918 0
M  V30 19803 H 1836.22 2.33488 -7.19041 0
M  V30 19804 H 1837.48 3.50228 -6.96391 0
M  V30 19805 N 1841.71 1.57497 -0.0568439 0
M  V30 19806 C 1842.94 1.97231 0.625102 0
M  V30 19807 C 1843.36 0.934622 1.64043 0
M  V30 19808 O 1842.71 -0.0805064 1.82322 0
M  V30 19809 C 1842.76 3.37046 1.30698 0
M  V30 19810 O 1842.48 4.36838 0.332302 0
M  V30 19811 C 1843.99 3.9157 2.07816 0
M  V30 19812 H 1841.21 0.648975 0.170505 0
M  V30 19813 H 1843.75 2.04119 -0.124823 0
M  V30 19814 H 1841.9 3.31292 2.0081 0
M  V30 19815 H 1842.32 5.18055 0.819691 0
M  V30 19816 H 1843.79 4.91664 2.5094 0
M  V30 19817 H 1844.27 3.27303 2.92864 0
M  V30 19818 H 1844.88 4.0068 1.42603 0
M  V30 19819 N 1843.19 -0.216591 1.56105 0
M  V30 19820 C 1844.44 -0.938321 1.78545 0
M  V30 19821 C 1844.75 -1.85302 0.62629 0
M  V30 19822 O 1845.96 -2.61377 0.734451 0
M  V30 19823 C 1844.41 -1.71871 3.16209 0
M  V30 19824 C 1844.02 -0.849904 4.39864 0
M  V30 19825 C 1845.77 -2.43136 3.47973 0
M  V30 19826 C 1843.67 -1.62793 5.68553 0
M  V30 19827 H 1842.6 -0.354098 0.66568 0
M  V30 19828 H 1845.25 -0.192079 1.82492 0
M  V30 19829 H 1843.64 -2.50804 3.06453 0
M  V30 19830 H 1844.81 -0.100757 4.6069 0
M  V30 19831 H 1843.13 -0.249139 4.15654 0
M  V30 19832 H 1845.72 -3.01856 4.41347 0
M  V30 19833 H 1846.07 -3.16267 2.70704 0
M  V30 19834 H 1846.6 -1.71189 3.59081 0
M  V30 19835 H 1843.34 -0.939801 6.48728 0
M  V30 19836 H 1842.86 -2.35156 5.5178 0
M  V30 19837 H 1844.54 -2.18733 6.08905 0
M  V30 19838 N 1844.67 -1.5 -0.48349 0
M  V30 19839 C 1845.62 -1.67957 -1.58301 0
M  V30 19840 C 1846.59 -0.520895 -1.57721 0
M  V30 19841 O 1847.77 -0.750008 -1.75441 0
M  V30 19842 C 1844.91 -1.76832 -2.96352 0
M  V30 19843 C 1844.02 -3.04119 -3.06815 0
M  V30 19844 C 1843.16 -3.03865 -4.35706 0
M  V30 19845 C 1842.2 -4.25658 -4.39865 0
M  V30 19846 N 1841.33 -4.23214 -5.60209 0
M  V30 19847 H 1846.17 -2.61832 -1.42296 0
M  V30 19848 H 1843.71 -1.29804 -0.692045 0
M  V30 19849 H 1845.67 -1.79958 -3.76392 0
M  V30 19850 H 1844.3 -0.864074 -3.1102 0
M  V30 19851 H 1843.35 -3.10523 -2.19727 0
M  V30 19852 H 1844.66 -3.94106 -3.05748 0
M  V30 19853 H 1843.82 -3.05652 -5.24082 0
M  V30 19854 H 1842.56 -2.11687 -4.39363 0
M  V30 19855 H 1841.56 -4.24097 -3.49888 0
M  V30 19856 H 1842.79 -5.19049 -4.37909 0
M  V30 19857 H 1840.73 -3.33883 -5.64675 0
M  V30 19858 H 1840.65 -5.06956 -5.60832 0
M  V30 19859 H 1841.92 -4.29129 -6.50744 0
M  V30 19860 N 1846.15 0.735796 -1.39369 0
M  V30 19861 C 1847.37 1.52504 -1.39822 0
M  V30 19862 C 1847.79 1.88799 0.00747346 0
M  V30 19863 O 1847.15 1.54044 0.978611 0
M  V30 19864 C 1847.2 2.8131 -2.27039 0
M  V30 19865 O 1846.92 2.46557 -3.62134 0
M  V30 19866 C 1848.42 3.75343 -2.35866 0
M  V30 19867 H 1845.64 0.471306 -0.47761 0
M  V30 19868 H 1848.18 0.909257 -1.83174 0
M  V30 19869 H 1846.34 3.39222 -1.87102 0
M  V30 19870 H 1846.75 3.29294 -4.08247 0
M  V30 19871 H 1848.23 4.6262 -3.01142 0
M  V30 19872 H 1848.7 4.17036 -1.37758 0
M  V30 19873 H 1849.31 3.2335 -2.7627 0
M  V30 19874 N 1847.63 1.24532 0.965897 0
M  V30 19875 C 1848.56 0.982507 2.05966 0
M  V30 19876 C 1849.54 -0.0843549 1.62381 0
M  V30 19877 O 1850.72 0.0529576 1.88426 0
M  V30 19878 C 1847.85 0.48302 3.35238 0
M  V30 19879 C 1846.89 1.5387 3.97777 0
M  V30 19880 S 1847.73 3.12058 4.35178 0
M  V30 19881 C 1848.88 2.63816 5.67584 0
M  V30 19882 H 1849.12 1.90865 2.27942 0
M  V30 19883 H 1846.65 1.07937 1.10404 0
M  V30 19884 H 1848.61 0.201466 4.10005 0
M  V30 19885 H 1847.27 -0.422443 3.11246 0
M  V30 19886 H 1846.46 1.13967 4.90946 0
M  V30 19887 H 1846.06 1.77036 3.29446 0
M  V30 19888 H 1848.35 2.0674 6.45186 0
M  V30 19889 H 1849.3 3.55581 6.12346 0
M  V30 19890 H 1849.71 2.04183 5.26279 0
M  V30 19891 N 1849.1 -1.16685 1.05936 0
M  V30 19892 C 1850.03 -2.23129 0.688153 0
M  V30 19893 C 1851.01 -1.67108 -0.31765 0
M  V30 19894 O 1852.2 -1.93233 -0.193578 0
M  V30 19895 C 1849.33 -3.47229 0.069991 0
M  V30 19896 C 1848.28 -4.16121 1.00137 0
M  V30 19897 C 1847.61 -5.34131 0.246699 0
M  V30 19898 C 1848.91 -4.67508 2.32882 0
M  V30 19899 H 1850.6 -2.54436 1.57806 0
M  V30 19900 H 1848.15 -1.22298 0.76021 0
M  V30 19901 H 1850.1 -4.20918 -0.201545 0
M  V30 19902 H 1848.83 -3.15212 -0.854909 0
M  V30 19903 H 1847.49 -3.44355 1.25759 0
M  V30 19904 H 1847.13 -4.98366 -0.681204 0
M  V30 19905 H 1846.83 -5.81163 0.867373 0
M  V30 19906 H 1848.36 -6.10598 -0.0173762 0
M  V30 19907 H 1849.77 -5.32795 2.11666 0
M  V30 19908 H 1848.17 -5.25147 2.90414 0
M  V30 19909 H 1849.24 -3.83912 2.96209 0
M  V30 19910 N 1850.58 -0.841432 -1.33258 0
M  V30 19911 C 1851.49 -0.279006 -2.32935 0
M  V30 19912 C 1852.51 0.596298 -1.63463 0
M  V30 19913 O 1853.68 0.499812 -1.951 0
M  V30 19914 C 1850.75 0.534514 -3.42555 0
M  V30 19915 C 1849.81 -0.365366 -4.27742 0
M  V30 19916 C 1849.04 0.409423 -5.32127 0
M  V30 19917 O 1849.27 1.64085 -5.4629 0
M  V30 19918 O 1848.2 -0.217904 -6.01505 0
M  V30 19919 H 1852.03 -1.10448 -2.82904 0
M  V30 19920 H 1849.61 -0.60402 -1.36645 0
M  V30 19921 H 1851.49 0.996723 -4.09443 0
M  V30 19922 H 1850.17 1.33701 -2.94798 0
M  V30 19923 H 1849.07 -0.875469 -3.63712 0
M  V30 19924 H 1850.41 -1.1327 -4.78989 0
M  V30 19925 N 1852.06 1.4581 -0.598108 0
M  V30 19926 C 1853.29 2.06379 -0.0955533 0
M  V30 19927 C 1853.7 1.44497 1.22137 0
M  V30 19928 O 1853.04 0.549997 1.75273 0
M  V30 19929 C 1853.1 3.59271 0.128433 0
M  V30 19930 C 1852.77 4.43434 -1.10523 0
M  V30 19931 C 1853.76 4.79008 -2.02107 0
M  V30 19932 C 1851.45 4.84334 -1.3314 0
M  V30 19933 C 1853.44 5.54326 -3.14644 0
M  V30 19934 C 1851.13 5.59408 -2.45979 0
M  V30 19935 C 1852.13 5.9432 -3.3656 0
M  V30 19936 O 1851.82 6.67874 -4.47437 0
M  V30 19937 H 1851.55 0.673187 -0.0616108 0
M  V30 19938 H 1854.1 1.88191 -0.823012 0
M  V30 19939 H 1852.33 3.75824 0.910679 0
M  V30 19940 H 1854.02 4.01714 0.581406 0
M  V30 19941 H 1854.79 4.47976 -1.85856 0
M  V30 19942 H 1850.67 4.566 -0.635381 0
M  V30 19943 H 1854.21 5.81495 -3.8537 0
M  V30 19944 H 1850.11 5.89854 -2.62187 0
M  V30 19945 H 1850.87 6.86314 -4.45999 0
M  V30 19946 N 1853.54 0.336733 1.53961 0
M  V30 19947 C 1854.5 -0.510638 2.23439 0
M  V30 19948 C 1855.5 -1.03304 1.23227 0
M  V30 19949 O 1856.69 -0.923373 1.47714 0
M  V30 19950 C 1853.82 -1.71063 2.94873 0
M  V30 19951 H 1855.02 0.0969205 2.99743 0
M  V30 19952 H 1852.57 0.0879867 1.56052 0
M  V30 19953 H 1853.3 -2.35707 2.22739 0
M  V30 19954 H 1853.09 -1.34331 3.68371 0
M  V30 19955 H 1854.58 -2.31182 3.47771 0
M  V30 19956 N 1855.02 -1.57465 0.0651956 0
M  V30 19957 C 1856.29 -1.84622 -0.646065 0
M  V30 19958 C 1856.67 -0.956374 -1.88193 0
M  V30 19959 O 1856.02 -0.0209666 -2.2849 0
M  V30 19960 C 1856.23 -3.34664 -0.990013 0
M  V30 19961 C 1857.58 -4.02016 -1.36632 0
M  V30 19962 O 1858.6 -3.39371 -1.08194 0
M  V30 19963 O 1857.46 -5.12496 -1.89764 0
M  V30 19964 H 1854.56 -0.762482 -0.320236 0
M  V30 19965 H 1857.1 -1.6943 0.0956254 0
M  V30 19966 H 1855.87 -3.9114 -0.111977 0
M  V30 19967 H 1855.5 -3.55094 -1.78869 0
M  V30 19968 N 1856.49 0.20831 -1.56217 0
M  V30 19969 C 1857.44 1.2582 -1.93489 0
M  V30 19970 C 1858.41 1.45907 -0.793748 0
M  V30 19971 O 1859.6 1.59258 -1.05078 0
M  V30 19972 C 1856.74 2.60077 -2.26835 0
M  V30 19973 C 1855.85 2.47678 -3.53948 0
M  V30 19974 C 1854.98 3.74549 -3.76678 0
M  V30 19975 C 1854.02 3.56928 -4.97261 0
M  V30 19976 N 1853.16 4.75779 -5.16313 0
M  V30 19977 H 1858 0.933346 -2.83006 0
M  V30 19978 H 1855.54 0.449531 -1.40063 0
M  V30 19979 H 1857.49 3.38277 -2.44181 0
M  V30 19980 H 1856.12 2.90632 -1.40474 0
M  V30 19981 H 1855.18 1.60844 -3.44722 0
M  V30 19982 H 1856.49 2.30585 -4.42303 0
M  V30 19983 H 1855.64 4.61191 -3.94193 0
M  V30 19984 H 1854.38 3.94582 -2.86629 0
M  V30 19985 H 1853.39 2.6867 -4.79683 0
M  V30 19986 H 1854.61 3.38353 -5.88808 0
M  V30 19987 H 1852.56 4.96101 -4.29209 0
M  V30 19988 H 1852.47 4.61462 -5.98823 0
M  V30 19989 H 1853.74 5.6381 -5.38274 0
M  V30 19990 N 1857.97 1.50255 0.475528 0
M  V30 19991 C 1859.22 1.61261 1.22975 0
M  V30 19992 C 1859.55 0.309949 1.91711 0
M  V30 19993 O 1858.83 -0.688288 1.81914 0
M  V30 19994 C 1859.11 2.7898 2.27688 0
M  V30 19995 C 1858.96 4.19115 1.63287 0
M  V30 19996 C 1860.28 2.9227 3.29038 0
M  V30 19997 H 1857.4 0.586933 0.445734 0
M  V30 19998 H 1860.04 1.82626 0.524177 0
M  V30 19999 H 1858.19 2.60894 2.87865 0
M  V30 20000 H 1859.86 4.48781 1.06741 0
M  V30 20001 H 1858.11 4.23579 0.936127 0
M  V30 20002 H 1858.78 4.97405 2.39359 0
M  V30 20003 H 1861.25 3.08813 2.78879 0
M  V30 20004 H 1860.13 3.7627 3.9964 0
M  V30 20005 H 1860.39 2.02696 3.92895 0
M  V30 20006 N 1859.45 -0.728395 1.39758 0
M  V30 20007 C 1860.7 -1.48808 1.37341 0
M  V30 20008 C 1861.02 -1.94479 -0.0285032 0
M  V30 20009 O 1860.28 -1.67586 -1.01062 0
M  V30 20010 C 1860.58 -2.73735 2.29791 0
M  V30 20011 C 1860.24 -2.46897 3.77296 0
M  V30 20012 C 1858.91 -2.39287 4.17487 0
M  V30 20013 C 1861.26 -2.24097 4.70564 0
M  V30 20014 C 1858.59 -2.06927 5.48997 0
M  V30 20015 C 1860.94 -1.93252 6.02359 0
M  V30 20016 C 1859.6 -1.84115 6.41606 0
M  V30 20017 H 1858.87 -0.544527 0.502565 0
M  V30 20018 H 1861.52 -0.835461 1.72315 0
M  V30 20019 H 1859.82 -3.43772 1.87957 0
M  V30 20020 H 1861.52 -3.31785 2.2521 0
M  V30 20021 H 1858.11 -2.53701 3.45447 0
M  V30 20022 H 1862.3 -2.28939 4.40341 0
M  V30 20023 H 1857.55 -1.98381 5.78321 0
M  V30 20024 H 1861.73 -1.7462 6.74152 0
M  V30 20025 H 1859.35 -1.58807 7.43427 0
M  V30 20026 N 1860.93 -1.25042 -0.959279 0
M  V30 20027 C 1862.16 -1.12242 -1.73809 0
M  V30 20028 C 1862.57 0.324251 -1.85995 0
M  V30 20029 O 1861.93 1.22328 -1.35433 0
M  V30 20030 C 1861.98 -1.76603 -3.15426 0
M  V30 20031 O 1861.7 -3.15614 -3.03841 0
M  V30 20032 C 1863.2 -1.69522 -4.09606 0
M  V30 20033 H 1860.42 -0.39173 -0.544783 0
M  V30 20034 H 1862.96 -1.65314 -1.2038 0
M  V30 20035 H 1861.12 -1.27512 -3.65813 0
M  V30 20036 H 1861.53 -3.47186 -3.93144 0
M  V30 20037 H 1863.01 -2.19223 -5.06602 0
M  V30 20038 H 1863.48 -0.658074 -4.34242 0
M  V30 20039 H 1864.09 -2.18079 -3.65133 0
M  V30 20040 N 1862.41 1.16121 -1.06553 0
M  V30 20041 C 1863.64 1.90335 -0.803506 0
M  V30 20042 C 1864.04 1.77824 0.646172 0
M  V30 20043 O 1863.39 1.12231 1.4543 0
M  V30 20044 C 1863.45 3.41537 -1.12219 0
M  V30 20045 C 1863.11 3.77833 -2.57082 0
M  V30 20046 C 1864.11 3.79533 -3.55318 0
M  V30 20047 C 1861.8 4.08385 -2.92449 0
M  V30 20048 C 1863.79 4.11277 -4.8696 0
M  V30 20049 C 1861.48 4.39795 -4.24291 0
M  V30 20050 C 1862.47 4.41221 -5.21357 0
M  V30 20051 O 1862.16 4.71883 -6.50831 0
M  V30 20052 H 1861.89 0.610323 -0.290658 0
M  V30 20053 H 1864.45 1.48107 -1.42315 0
M  V30 20054 H 1862.68 3.84125 -0.445483 0
M  V30 20055 H 1864.37 3.97029 -0.843985 0
M  V30 20056 H 1865.13 3.56038 -3.29336 0
M  V30 20057 H 1861.01 4.06439 -2.17551 0
M  V30 20058 H 1864.56 4.12305 -5.62717 0
M  V30 20059 H 1860.45 4.62756 -4.5003 0
M  V30 20060 H 1861.22 4.89683 -6.5586 0
M  V30 20061 N 1863.88 0.848487 1.3281 0
M  V30 20062 C 1865.13 0.445116 1.96727 0
M  V30 20063 C 1865.45 -1.00311 1.6792 0
M  V30 20064 O 1866.65 -1.51162 2.25527 0
M  V30 20065 C 1865.11 0.745015 3.52104 0
M  V30 20066 C 1864.72 2.20856 3.89778 0
M  V30 20067 C 1866.46 0.409065 4.22524 0
M  V30 20068 C 1864.37 2.452 5.38174 0
M  V30 20069 H 1863.3 0.162715 0.736233 0
M  V30 20070 H 1865.95 1.03841 1.51292 0
M  V30 20071 H 1864.33 0.0812291 3.95917 0
M  V30 20072 H 1865.5 2.91362 3.56994 0
M  V30 20073 H 1863.82 2.50842 3.32366 0
M  V30 20074 H 1866.42 0.568453 5.3167 0
M  V30 20075 H 1866.76 -0.648796 4.11213 0
M  V30 20076 H 1867.29 1.02848 3.84275 0
M  V30 20077 H 1864.03 3.49588 5.54499 0
M  V30 20078 H 1863.55 1.79265 5.72384 0
M  V30 20079 H 1865.23 2.28838 6.0518 0
M  V30 20080 N 1865.36 -1.4549 0.605832 0
M  V30 20081 C 1866.61 -2.02251 0.100338 0
M  V30 20082 C 1866.94 -1.47447 -1.26845 0
M  V30 20083 O 1866.19 -0.638532 -1.8499 0
M  V30 20084 C 1866.49 -3.57399 0.00918576 0
M  V30 20085 C 1866.16 -4.31347 1.31341 0
M  V30 20086 C 1864.82 -4.51267 1.67067 0
M  V30 20087 C 1867.17 -4.73629 2.17543 0
M  V30 20088 C 1864.5 -5.10725 2.88751 0
M  V30 20089 C 1866.85 -5.34432 3.38474 0
M  V30 20090 C 1865.52 -5.52576 3.74455 0
M  V30 20091 H 1864.79 -0.74009 0.0367165 0
M  V30 20092 H 1867.43 -1.74577 0.787099 0
M  V30 20093 H 1865.74 -3.84342 -0.760829 0
M  V30 20094 H 1867.43 -3.99019 -0.398057 0
M  V30 20095 H 1864.02 -4.16155 1.02533 0
M  V30 20096 H 1868.21 -4.57974 1.91241 0
M  V30 20097 H 1863.46 -5.22961 3.16736 0
M  V30 20098 H 1867.64 -5.66149 4.05522 0
M  V30 20099 H 1865.27 -5.98416 4.68831 0
M  V30 20100 N 1866.84 -0.344893 -1.5378 0
M  V30 20101 C 1868.09 0.252216 -2.00117 0
M  V30 20102 C 1868.4 1.51548 -1.23663 0
M  V30 20103 O 1869.61 2.18991 -1.60484 0
M  V30 20104 C 1868.06 0.499983 -3.5641 0
M  V30 20105 C 1867.67 -0.747455 -4.41721 0
M  V30 20106 C 1869.42 1.05588 -4.11159 0
M  V30 20107 C 1867.32 -0.470414 -5.89526 0
M  V30 20108 H 1866.25 0.0980234 -0.747601 0
M  V30 20109 H 1868.9 -0.460431 -1.7763 0
M  V30 20110 H 1867.29 1.27337 -3.74969 0
M  V30 20111 H 1868.46 -1.52204 -4.34937 0
M  V30 20112 H 1866.78 -1.22508 -3.97971 0
M  V30 20113 H 1869.37 1.27813 -5.19199 0
M  V30 20114 H 1869.72 2.01181 -3.64461 0
M  V30 20115 H 1870.25 0.343167 -3.96317 0
M  V30 20116 H 1866.99 -1.3961 -6.4046 0
M  V30 20117 H 1866.51 0.266065 -5.9921 0
M  V30 20118 H 1868.19 -0.0881607 -6.4694 0
M  V30 20119 N 1868.32 1.57428 -0.0735454 0
M  V30 20120 C 1869.25 2.15849 0.890584 0
M  V30 20121 C 1870.23 1.086 1.3092 0
M  V30 20122 O 1871.41 1.36643 1.37994 0
M  V30 20123 C 1868.54 2.72153 2.15755 0
M  V30 20124 C 1867.5 3.84584 1.87827 0
M  V30 20125 C 1866.82 4.27498 3.21169 0
M  V30 20126 C 1868.12 5.08746 1.18217 0
M  V30 20127 H 1869.82 2.96663 0.403904 0
M  V30 20128 H 1867.36 1.42703 0.192836 0
M  V30 20129 H 1869.32 3.11668 2.83621 0
M  V30 20130 H 1868.04 1.88562 2.66668 0
M  V30 20131 H 1866.7 3.45575 1.22366 0
M  V30 20132 H 1866.35 3.40827 3.69927 0
M  V30 20133 H 1866.05 5.03288 3.03273 0
M  V30 20134 H 1867.57 4.69631 3.9023 0
M  V30 20135 H 1868.99 5.45566 1.76155 0
M  V30 20136 H 1867.38 5.89825 1.10573 0
M  V30 20137 H 1868.45 4.84631 0.161525 0
M  V30 20138 N 1869.8 -0.200022 1.56326 0
M  V30 20139 C 1870.71 -1.26847 1.9735 0
M  V30 20140 C 1871.72 -1.50081 0.880432 0
M  V30 20141 O 1872.9 -1.62792 1.18578 0
M  V30 20142 C 1869.96 -2.59382 2.30048 0
M  V30 20143 C 1869.02 -2.44262 3.53036 0
M  V30 20144 C 1868.26 -3.70476 3.84165 0
M  V30 20145 O 1868.48 -4.74433 3.16654 0
M  V30 20146 O 1867.41 -3.663 4.77606 0
M  V30 20147 H 1871.24 -0.950324 2.88449 0
M  V30 20148 H 1868.83 -0.404628 1.43816 0
M  V30 20149 H 1870.71 -3.37616 2.52177 0
M  V30 20150 H 1869.38 -2.90833 1.42119 0
M  V30 20151 H 1868.29 -1.64154 3.36161 0
M  V30 20152 H 1869.62 -2.17744 4.41416 0
M  V30 20153 N 1871.27 -1.50505 -0.467553 0
M  V30 20154 C 1872.21 -1.64271 -1.58399 0
M  V30 20155 C 1873.19 -0.490745 -1.55018 0
M  V30 20156 O 1874.37 -0.710709 -1.74589 0
M  V30 20157 C 1871.5 -1.62854 -2.96978 0
M  V30 20158 C 1870.54 -2.83654 -3.18501 0
M  V30 20159 S 1871.38 -4.44908 -2.98022 0
M  V30 20160 C 1872.53 -4.4619 -4.38937 0
M  V30 20161 H 1872.76 -2.58708 -1.46484 0
M  V30 20162 H 1870.3 -1.39812 -0.655141 0
M  V30 20163 H 1872.26 -1.62722 -3.76871 0
M  V30 20164 H 1870.92 -0.696465 -3.06281 0
M  V30 20165 H 1870.11 -2.78977 -4.19747 0
M  V30 20166 H 1869.71 -2.81371 -2.46386 0
M  V30 20167 H 1872 -4.1997 -5.31631 0
M  V30 20168 H 1872.95 -5.47826 -4.48656 0
M  V30 20169 H 1873.35 -3.75855 -4.21181 0
M  V30 20170 N 1872.75 0.720973 -1.40142 0
M  V30 20171 C 1873.68 1.84799 -1.42729 0
M  V30 20172 C 1874.66 1.67629 -0.288866 0
M  V30 20173 O 1875.85 1.8774 -0.496713 0
M  V30 20174 C 1872.98 3.22699 -1.28385 0
M  V30 20175 C 1871.93 3.54532 -2.39773 0
M  V30 20176 C 1871.26 4.91518 -2.10509 0
M  V30 20177 C 1872.56 3.56077 -3.82108 0
M  V30 20178 H 1874.25 1.82892 -2.37046 0
M  V30 20179 H 1871.8 0.8785 -1.14098 0
M  V30 20180 H 1873.75 4.0123 -1.28812 0
M  V30 20181 H 1872.48 3.25169 -0.305408 0
M  V30 20182 H 1871.13 2.78338 -2.38586 0
M  V30 20183 H 1870.78 4.90584 -1.11069 0
M  V30 20184 H 1870.48 5.13783 -2.85132 0
M  V30 20185 H 1872.01 5.72389 -2.1261 0
M  V30 20186 H 1873.42 4.24657 -3.85148 0
M  V30 20187 H 1871.82 3.89866 -4.56207 0
M  V30 20188 H 1872.89 2.55576 -4.12079 0
M  V30 20189 N 1874.23 1.25549 0.952634 0
M  V30 20190 C 1875.16 1.08592 2.06712 0
M  V30 20191 C 1876.14 -0.00560571 1.70099 0
M  V30 20192 O 1877.33 0.164299 1.93504 0
M  V30 20193 C 1874.46 0.705984 3.40049 0
M  V30 20194 C 1873.41 1.74797 3.90679 0
M  V30 20195 C 1872.74 1.22266 5.20533 0
M  V30 20196 C 1874.04 3.14717 4.16834 0
M  V30 20197 H 1875.73 2.01816 2.21157 0
M  V30 20198 H 1873.28 0.971723 1.06271 0
M  V30 20199 H 1875.23 0.57428 4.17469 0
M  V30 20200 H 1873.95 -0.261964 3.25548 0
M  V30 20201 H 1872.61 1.86815 3.1543 0
M  V30 20202 H 1872.26 0.244887 5.02404 0
M  V30 20203 H 1871.96 1.9191 5.55377 0
M  V30 20204 H 1873.48 1.10339 6.00548 0
M  V30 20205 H 1874.9 3.05842 4.84906 0
M  V30 20206 H 1873.3 3.81849 4.62938 0
M  V30 20207 H 1874.37 3.61629 3.23037 0
M  V30 20208 N 1875.71 -1.15554 1.07168 0
M  V30 20209 C 1876.66 -2.20234 0.690348 0
M  V30 20210 C 1877.63 -1.6304 -0.317346 0
M  V30 20211 O 1878.81 -1.89704 -0.20422 0
M  V30 20212 C 1875.95 -3.44976 0.0923404 0
M  V30 20213 C 1875.06 -4.16377 1.15128 0
M  V30 20214 C 1874.2 -5.28664 0.518478 0
M  V30 20215 C 1873.24 -5.91878 1.56034 0
M  V30 20216 N 1872.37 -6.9564 0.950251 0
M  V30 20217 H 1877.21 -2.52203 1.58738 0
M  V30 20218 H 1874.75 -1.23863 0.793502 0
M  V30 20219 H 1876.71 -4.16312 -0.271985 0
M  V30 20220 H 1875.34 -3.1353 -0.768054 0
M  V30 20221 H 1874.39 -3.43556 1.63321 0
M  V30 20222 H 1875.7 -4.59472 1.94132 0
M  V30 20223 H 1874.86 -6.06615 0.101683 0
M  V30 20224 H 1873.6 -4.86756 -0.303345 0
M  V30 20225 H 1872.6 -5.12641 1.98694 0
M  V30 20226 H 1873.83 -6.35864 2.38442 0
M  V30 20227 H 1871.77 -6.5583 0.149298 0
M  V30 20228 H 1871.69 -7.37153 1.67755 0
M  V30 20229 H 1872.96 -7.77494 0.558895 0
M  V30 20230 N 1877.19 -0.855519 -1.32358 0
M  V30 20231 C 1878.43 -0.469284 -1.97912 0
M  V30 20232 C 1878.79 0.964638 -1.66471 0
M  V30 20233 O 1878.08 1.66785 -0.943052 0
M  V30 20234 C 1878.28 -0.64624 -3.51509 0
M  V30 20235 C 1878.1 -2.09581 -3.97877 0
M  V30 20236 C 1876.87 -2.73449 -4.24916 0
M  V30 20237 C 1879.07 -3.06649 -4.12881 0
M  V30 20238 N 1877.05 -4.09308 -4.57537 0
M  V30 20239 C 1878.43 -4.27498 -4.49049 0
M  V30 20240 C 1880.48 -3.02833 -3.95217 0
M  V30 20241 C 1879.18 -5.4503 -4.69398 0
M  V30 20242 C 1881.21 -4.1961 -4.16751 0
M  V30 20243 C 1880.57 -5.39218 -4.53237 0
M  V30 20244 H 1876.67 -0.220478 -0.750276 0
M  V30 20245 H 1879.25 -1.10709 -1.60161 0
M  V30 20246 H 1877.43 -0.038129 -3.88381 0
M  V30 20247 H 1879.16 -0.229815 -4.04047 0
M  V30 20248 H 1875.91 -2.24482 -4.17019 0
M  V30 20249 H 1876.34 -4.7939 -4.78032 0
M  V30 20250 H 1880.98 -2.1148 -3.66109 0
M  V30 20251 H 1878.7 -6.36914 -4.97359 0
M  V30 20252 H 1882.28 -4.18094 -4.04585 0
M  V30 20253 H 1881.16 -6.28075 -4.69565 0
M  V30 20254 N 1878.67 1.45167 -0.61354 0
M  V30 20255 C 1879.91 2.02495 -0.111227 0
M  V30 20256 C 1880.24 1.48015 1.25719 0
M  V30 20257 O 1879.52 0.657188 1.83061 0
M  V30 20258 C 1879.8 3.60014 -0.07876 0
M  V30 20259 C 1879.66 4.24814 -1.47827 0
M  V30 20260 C 1880.97 4.35908 0.605964 0
M  V30 20261 H 1878.09 0.735808 -0.0418931 0
M  V30 20262 H 1880.74 1.7295 -0.786651 0
M  V30 20263 H 1878.89 3.85315 0.496411 0
M  V30 20264 H 1880.56 4.10678 -2.10097 0
M  V30 20265 H 1878.8 3.82986 -2.03726 0
M  V30 20266 H 1879.47 5.33748 -1.40774 0
M  V30 20267 H 1881.95 4.15935 0.117019 0
M  V30 20268 H 1880.82 5.45635 0.597808 0
M  V30 20269 H 1881.08 4.09216 1.67315 0
M  V30 20270 N 1880.14 0.353044 1.53595 0
M  V30 20271 C 1881.11 -0.48691 2.23968 0
M  V30 20272 C 1882.11 -1.01991 1.24316 0
M  V30 20273 O 1883.3 -0.907654 1.48685 0
M  V30 20274 C 1880.43 -1.67926 2.96671 0
M  V30 20275 H 1881.62 0.128707 2.99624 0
M  V30 20276 H 1879.17 0.104533 1.5595 0
M  V30 20277 H 1879.91 -2.33331 2.25227 0
M  V30 20278 H 1879.69 -1.30417 3.69776 0
M  V30 20279 H 1881.18 -2.2748 3.50203 0
M  V30 20280 N 1881.62 -1.57387 0.0818932 0
M  V30 20281 C 1882.85 -1.97913 -0.592784 0
M  V30 20282 C 1883.26 -0.959377 -1.63072 0
M  V30 20283 O 1882.6 0.0610095 -1.83599 0
M  V30 20284 C 1882.66 -3.34778 -1.3101 0
M  V30 20285 C 1882.33 -4.55025 -0.424461 0
M  V30 20286 C 1883.33 -5.18902 0.322059 0
M  V30 20287 C 1881.01 -5.01104 -0.346382 0
M  V30 20288 C 1883 -6.27217 1.13478 0
M  V30 20289 C 1880.69 -6.0929 0.469997 0
M  V30 20290 C 1881.69 -6.7221 1.20924 0
M  V30 20291 O 1881.38 -7.78311 2.01213 0
M  V30 20292 H 1881.11 -0.655646 -0.164633 0
M  V30 20293 H 1883.66 -2.04823 0.153877 0
M  V30 20294 H 1881.89 -3.24513 -2.10305 0
M  V30 20295 H 1883.58 -3.59841 -1.87801 0
M  V30 20296 H 1884.35 -4.8424 0.271391 0
M  V30 20297 H 1880.23 -4.51901 -0.91141 0
M  V30 20298 H 1883.77 -6.7626 1.71227 0
M  V30 20299 H 1879.67 -6.43384 0.522194 0
M  V30 20300 H 1880.44 -7.95237 1.93753 0
M  V30 20301 N 1883.1 0.191729 -1.56429 0
M  V30 20302 C 1884.35 0.909797 -1.80464 0
M  V30 20303 C 1884.67 1.83652 -0.655516 0
M  V30 20304 O 1883.94 1.93169 0.325946 0
M  V30 20305 H 1882.52 0.338944 -0.665677 0
M  V30 20306 H 1885.18 0.196432 -1.93908 0
M  V30 20307 H 1884.28 1.49891 -2.7375 0
M  V30 20308 N 1884.58 1.50751 0.459565 0
M  V30 20309 C 1885.81 1.65848 1.23198 0
M  V30 20310 C 1886.22 0.345972 1.8601 0
M  V30 20311 O 1885.56 -0.683265 1.7052 0
M  V30 20312 C 1885.62 2.7006 2.37292 0
M  V30 20313 C 1885.28 4.13296 1.95027 0
M  V30 20314 C 1886.28 4.98796 1.46623 0
M  V30 20315 C 1883.97 4.59277 2.03396 0
M  V30 20316 C 1885.96 6.2833 1.07147 0
M  V30 20317 C 1883.65 5.88813 1.6353 0
M  V30 20318 C 1884.65 6.73166 1.15485 0
M  V30 20319 O 1884.33 8.00283 0.761767 0
M  V30 20320 H 1884.07 0.560244 0.378289 0
M  V30 20321 H 1886.62 1.97799 0.553607 0
M  V30 20322 H 1884.85 2.33377 3.08338 0
M  V30 20323 H 1886.54 2.74261 2.99225 0
M  V30 20324 H 1887.3 4.64484 1.3957 0
M  V30 20325 H 1883.18 3.93759 2.3974 0
M  V30 20326 H 1886.73 6.94122 0.695753 0
M  V30 20327 H 1882.62 6.22645 1.70247 0
M  V30 20328 H 1883.39 8.13651 0.889596 0
M  V30 20329 N 1886.06 -0.713531 1.40522 0
M  V30 20330 C 1886.99 -1.83847 1.36868 0
M  V30 20331 C 1888 -1.60482 0.273746 0
M  V30 20332 O 1889.19 -1.70318 0.534238 0
M  V30 20333 C 1886.29 -3.20288 1.10764 0
M  V30 20334 C 1885.46 -3.70833 2.31952 0
M  V30 20335 C 1884.52 -4.85893 2.01977 0
M  V30 20336 O 1883.55 -4.98438 2.74861 0
M  V30 20337 N 1884.75 -5.7184 0.998985 0
M  V30 20338 H 1887.51 -1.87479 2.3382 0
M  V30 20339 H 1885.08 -0.895151 1.34902 0
M  V30 20340 H 1887.07 -3.94861 0.886932 0
M  V30 20341 H 1885.64 -3.11791 0.224726 0
M  V30 20342 H 1884.86 -2.87368 2.6984 0
M  V30 20343 H 1886.15 -4.01339 3.12738 0
M  V30 20344 H 1885.54 -5.64317 0.395392 0
M  V30 20345 H 1884.1 -6.46388 0.838178 0
M  V30 20346 N 1887.53 -1.26053 -0.945962 0
M  V30 20347 C 1888.76 -1.14079 -1.72608 0
M  V30 20348 C 1889.18 0.304506 -1.86328 0
M  V30 20349 O 1888.53 1.20885 -1.36723 0
M  V30 20350 C 1888.58 -1.79938 -3.13535 0
M  V30 20351 O 1888.31 -3.18819 -3.00476 0
M  V30 20352 C 1889.81 -1.73856 -4.07785 0
M  V30 20353 H 1887.03 -0.397486 -0.540598 0
M  V30 20354 H 1889.57 -1.66582 -1.1862 0
M  V30 20355 H 1887.73 -1.31385 -3.6444 0
M  V30 20356 H 1888.14 -3.51337 -3.89439 0
M  V30 20357 H 1889.61 -2.24584 -5.04248 0
M  V30 20358 H 1890.09 -0.704095 -4.33519 0
M  V30 20359 H 1890.7 -2.21939 -3.62799 0
M  V30 20360 N 1889.01 1.14984 -1.07779 0
M  V30 20361 C 1890.24 1.89472 -0.823648 0
M  V30 20362 C 1890.65 1.78499 0.627275 0
M  V30 20363 O 1889.99 1.13767 1.44232 0
M  V30 20364 C 1890.05 3.40327 -1.15835 0
M  V30 20365 C 1889.72 3.75085 -2.61075 0
M  V30 20366 C 1890.72 3.75743 -3.59323 0
M  V30 20367 C 1888.4 4.05261 -2.96765 0
M  V30 20368 C 1890.39 4.06089 -4.91295 0
M  V30 20369 C 1888.08 4.3527 -4.28932 0
M  V30 20370 C 1889.08 4.35667 -5.26007 0
M  V30 20371 O 1888.77 4.64954 -6.558 0
M  V30 20372 H 1888.5 0.607205 -0.297115 0
M  V30 20373 H 1891.05 1.46589 -1.43878 0
M  V30 20374 H 1889.28 3.83631 -0.486199 0
M  V30 20375 H 1890.97 3.96111 -0.886048 0
M  V30 20376 H 1891.74 3.52525 -3.33093 0
M  V30 20377 H 1887.62 4.04109 -2.2185 0
M  V30 20378 H 1891.16 4.06313 -5.67059 0
M  V30 20379 H 1887.06 4.57957 -4.54913 0
M  V30 20380 H 1887.83 4.82699 -6.61017 0
M  V30 20381 N 1890.49 0.862526 1.31902 0
M  V30 20382 C 1891.74 0.469775 1.96976 0
M  V30 20383 C 1892.06 -0.976339 1.6822 0
M  V30 20384 O 1891.32 -1.70131 0.967153 0
M  V30 20385 C 1891.62 0.664872 3.51161 0
M  V30 20386 C 1891.28 2.08264 3.99921 0
M  V30 20387 C 1889.95 2.47039 4.12947 0
M  V30 20388 C 1892.3 3.00762 4.25666 0
M  V30 20389 C 1889.63 3.77568 4.49065 0
M  V30 20390 C 1891.98 4.30797 4.63245 0
M  V30 20391 C 1890.64 4.69496 4.74478 0
M  V30 20392 H 1889.91 0.171903 0.720785 0
M  V30 20393 H 1892.56 1.09409 1.57169 0
M  V30 20394 H 1890.86 -0.0426255 3.91777 0
M  V30 20395 H 1892.56 0.340921 3.99548 0
M  V30 20396 H 1889.15 1.77158 3.90273 0
M  V30 20397 H 1893.34 2.72034 4.15104 0
M  V30 20398 H 1888.59 4.07323 4.55958 0
M  V30 20399 H 1892.77 5.02527 4.8212 0
M  V30 20400 H 1890.39 5.70682 5.02221 0
M  V30 20401 N 1891.97 -1.4484 0.62123 0
M  V30 20402 C 1893.2 -2.065 0.128561 0
M  V30 20403 C 1893.61 -1.46351 -1.19277 0
M  V30 20404 O 1892.97 -0.582692 -1.72948 0
M  V30 20405 C 1893.02 -3.615 -0.00297622 0
M  V30 20406 O 1892.74 -4.19407 1.26609 0
M  V30 20407 C 1894.24 -4.40174 -0.525505 0
M  V30 20408 H 1891.46 -0.666783 0.0751128 0
M  V30 20409 H 1894.01 -1.85868 0.852829 0
M  V30 20410 H 1892.16 -3.81427 -0.677635 0
M  V30 20411 H 1892.57 -5.12738 1.10454 0
M  V30 20412 H 1894.05 -5.49085 -0.566585 0
M  V30 20413 H 1894.53 -4.10918 -1.55057 0
M  V30 20414 H 1895.13 -4.25143 0.115568 0
M  V30 20415 N 1893.45 -0.361184 -1.53405 0
M  V30 20416 C 1894.39 0.502532 -2.27107 0
M  V30 20417 C 1895.39 1.08711 -1.29916 0
M  V30 20418 O 1896.59 1.03082 -1.47561 0
M  V30 20419 H 1892.97 0.180773 -0.729949 0
M  V30 20420 H 1894.94 -0.140891 -2.98067 0
M  V30 20421 C 1893.69 1.63258 -3.06989 0
M  V30 20422 H 1893.01 1.19205 -3.81615 0
M  V30 20423 H 1894.45 2.21174 -3.61743 0
M  V30 20424 C 1892.91 2.57234 -2.17559 0
M  V30 20425 O 1893.44 3.59939 -1.78345 0
M  V30 20426 N 1891.65 2.26322 -1.82282 0
M  V30 20427 H 1891.19 1.4284 -2.1437 0
M  V30 20428 H 1891.15 2.89455 -1.22731 0
M  V30 20429 N 1894.92 1.57341 -0.0902386 0
M  V30 20430 C 1895.89 2.12619 0.855916 0
M  V30 20431 C 1896.89 1.05434 1.2141 0
M  V30 20432 O 1898.08 1.31342 1.14433 0
M  V30 20433 C 1895.21 2.64277 2.15338 0
M  V30 20434 H 1896.4 2.97533 0.376014 0
M  V30 20435 H 1893.96 1.55492 0.1587 0
M  V30 20436 H 1894.69 1.82869 2.67824 0
M  V30 20437 H 1894.48 3.4264 1.9063 0
M  V30 20438 H 1895.97 3.07055 2.83032 0
M  V30 20439 N 1896.4 -0.183431 1.56529 0
M  V30 20440 C 1897.65 -0.898713 1.82468 0
M  V30 20441 C 1898 -1.80394 0.66902 0
M  V30 20442 O 1897.3 -1.88645 -0.33521 0
M  V30 20443 C 1897.49 -1.74055 3.12153 0
M  V30 20444 C 1897.32 -0.918322 4.40224 0
M  V30 20445 C 1896.09 -0.598154 5.01747 0
M  V30 20446 C 1898.29 -0.26554 5.13614 0
M  V30 20447 N 1896.27 0.241481 6.13425 0
M  V30 20448 C 1897.64 0.435784 6.18467 0
M  V30 20449 C 1899.7 -0.182461 4.97566 0
M  V30 20450 C 1898.4 1.21229 7.09011 0
M  V30 20451 C 1900.42 0.580679 5.88542 0
M  V30 20452 C 1899.79 1.27041 6.92849 0
M  V30 20453 H 1895.89 -0.307874 0.718845 0
M  V30 20454 H 1898.47 -0.166565 1.93986 0
M  V30 20455 H 1896.64 -2.44421 3.01849 0
M  V30 20456 H 1898.37 -2.3962 3.26135 0
M  V30 20457 H 1895.13 -0.925363 4.64472 0
M  V30 20458 H 1895.55 0.651252 6.7386 0
M  V30 20459 H 1900.19 -0.701357 4.16942 0
M  V30 20460 H 1897.91 1.74257 7.89088 0
M  V30 20461 H 1901.5 0.646471 5.78197 0
M  V30 20462 H 1900.38 1.85146 7.62031 0
M  V30 20463 N 1897.88 -1.50992 -0.451564 0
M  V30 20464 C 1899.12 -1.64605 -1.21179 0
M  V30 20465 C 1899.48 -0.347889 -1.88822 0
M  V30 20466 O 1900.69 -0.359643 -2.66383 0
M  V30 20467 C 1898.96 -2.8067 -2.21267 0
M  V30 20468 S 1900.52 -3.14531 -3.05967 0
M  V30 20469 H 1897.33 -0.58007 -0.411145 0
M  V30 20470 H 1899.94 -1.88849 -0.505611 0
M  V30 20471 H 1898.64 -3.73449 -1.70187 0
M  V30 20472 H 1898.17 -2.58572 -2.96486 0
M  V30 20473 H 1900.19 -2.59864 -4.22712 0
M  V30 20474 N 1899.36 0.706069 -1.40899 0
M  V30 20475 C 1900.6 1.46693 -1.40899 0
M  V30 20476 C 1900.96 1.92395 -0.0139578 0
M  V30 20477 O 1900.25 1.65916 0.958243 0
M  V30 20478 C 1900.45 2.70045 -2.34116 0
M  V30 20479 C 1900.28 2.36409 -3.82545 0
M  V30 20480 C 1899.05 2.27284 -4.51298 0
M  V30 20481 C 1901.24 2.00061 -4.73793 0
M  V30 20482 N 1899.23 1.86423 -5.8491 0
M  V30 20483 C 1900.6 1.69875 -5.96274 0
M  V30 20484 C 1902.65 1.86779 -4.61539 0
M  V30 20485 C 1901.35 1.27744 -7.07866 0
M  V30 20486 C 1903.38 1.46052 -5.73082 0
M  V30 20487 C 1902.74 1.1677 -6.94654 0
M  V30 20488 H 1898.84 0.534494 -0.570824 0
M  V30 20489 H 1901.43 0.81791 -1.76687 0
M  V30 20490 H 1899.6 3.32683 -2.00441 0
M  V30 20491 H 1901.33 3.36449 -2.24909 0
M  V30 20492 H 1898.08 2.45337 -4.05101 0
M  V30 20493 H 1898.51 1.68504 -6.55695 0
M  V30 20494 H 1903.15 2.08075 -3.68055 0
M  V30 20495 H 1900.87 1.05191 -8.01224 0
M  V30 20496 H 1904.45 1.3634 -5.65599 0
M  V30 20497 H 1903.33 0.857309 -7.795 0
M  V30 20498 N 1900.84 1.26553 0.939264 0
M  V30 20499 C 1901.77 1.10778 2.05549 0
M  V30 20500 C 1902.75 0.0124359 1.70095 0
M  V30 20501 O 1903.93 0.184814 1.93319 0
M  V30 20502 C 1901.06 0.742011 3.39281 0
M  V30 20503 C 1900.02 1.78931 3.88803 0
M  V30 20504 C 1899.34 1.2778 5.19207 0
M  V30 20505 C 1900.64 3.1912 4.13473 0
M  V30 20506 H 1902.34 2.04151 2.19004 0
M  V30 20507 H 1899.88 0.98294 1.05234 0
M  V30 20508 H 1901.84 0.618526 4.16836 0
M  V30 20509 H 1900.56 -0.22742 3.25807 0
M  V30 20510 H 1899.22 1.9015 3.13431 0
M  V30 20511 H 1898.87 0.298159 5.02116 0
M  V30 20512 H 1898.57 1.9779 5.53311 0
M  V30 20513 H 1900.09 1.16703 5.99344 0
M  V30 20514 H 1901.5 3.10967 4.81635 0
M  V30 20515 H 1899.9 3.86738 4.58862 0
M  V30 20516 H 1900.97 3.65034 3.19183 0
M  V30 20517 N 1902.31 -1.14411 1.08387 0
M  V30 20518 C 1903.59 -1.8162 0.726188 0
M  V30 20519 C 1903.97 -1.95755 -0.790129 0
M  V30 20520 O 1903.32 -1.51725 -1.70856 0
M  V30 20521 C 1903.53 -3.17321 1.45287 0
M  V30 20522 C 1904.88 -3.92818 1.6118 0
M  V30 20523 O 1905.9 -3.2691 1.41451 0
M  V30 20524 O 1904.76 -5.1101 1.93728 0
M  V30 20525 H 1901.85 -0.785182 0.25965 0
M  V30 20526 H 1904.4 -1.21431 1.18544 0
M  V30 20527 H 1903.17 -3.02195 2.48584 0
M  V30 20528 H 1902.8 -3.85203 0.985093 0
M  V30 20529 N 1903.79 -0.869509 -1.31443 0
M  V30 20530 C 1905.04 -0.480214 -1.96724 0
M  V30 20531 C 1905.37 0.967405 -1.68735 0
M  V30 20532 O 1904.62 1.69616 -0.976162 0
M  V30 20533 C 1904.92 -0.683486 -3.50804 0
M  V30 20534 C 1904.59 -2.10382 -3.98811 0
M  V30 20535 C 1903.25 -2.49226 -4.11631 0
M  V30 20536 C 1905.6 -3.03015 -4.24065 0
M  V30 20537 C 1902.93 -3.79944 -4.47057 0
M  V30 20538 C 1905.28 -4.33248 -4.60954 0
M  V30 20539 C 1903.95 -4.72006 -4.71982 0
M  V30 20540 H 1903.22 -0.175723 -0.719863 0
M  V30 20541 H 1905.86 -1.10241 -1.56586 0
M  V30 20542 H 1904.17 0.0218481 -3.91794 0
M  V30 20543 H 1905.86 -0.362105 -3.99362 0
M  V30 20544 H 1902.45 -1.79225 -3.89328 0
M  V30 20545 H 1906.64 -2.74232 -4.13655 0
M  V30 20546 H 1901.89 -4.09736 -4.53792 0
M  V30 20547 H 1906.07 -5.05077 -4.79448 0
M  V30 20548 H 1903.7 -5.73337 -4.99188 0
M  V30 20549 N 1905.27 1.44508 -0.628902 0
M  V30 20550 C 1906.2 2.33412 0.0642512 0
M  V30 20551 C 1907.18 1.48077 0.837091 0
M  V30 20552 O 1908.37 1.76802 0.803415 0
M  V30 20553 C 1905.5 3.31112 1.04795 0
M  V30 20554 C 1904.45 4.26248 0.386897 0
M  V30 20555 C 1903.78 5.13799 1.48035 0
M  V30 20556 C 1905.08 5.17514 -0.705449 0
M  V30 20557 H 1906.77 2.91619 -0.678133 0
M  V30 20558 H 1904.32 1.40225 -0.327558 0
M  V30 20559 H 1906.27 3.9219 1.54159 0
M  V30 20560 H 1904.99 2.71109 1.8212 0
M  V30 20561 H 1903.65 3.66499 -0.0860697 0
M  V30 20562 H 1903.3 4.5015 2.24441 0
M  V30 20563 H 1903 5.78262 1.04342 0
M  V30 20564 H 1904.52 5.77748 1.97583 0
M  V30 20565 H 1905.94 5.7254 -0.295004 0
M  V30 20566 H 1904.34 5.90567 -1.06538 0
M  V30 20567 H 1905.41 4.5866 -1.57349 0
M  V30 20568 N 1906.75 0.369315 1.53212 0
M  V30 20569 C 1908 -0.220348 2.00493 0
M  V30 20570 C 1908.31 -1.49561 1.26059 0
M  V30 20571 O 1909.52 -2.1641 1.63947 0
M  V30 20572 C 1907.97 -0.443218 3.5716 0
M  V30 20573 C 1907.58 0.817634 4.40476 0
M  V30 20574 C 1909.33 -0.990333 4.12786 0
M  V30 20575 C 1907.23 0.564143 5.88703 0
M  V30 20576 H 1906.16 -0.0861173 0.749066 0
M  V30 20577 H 1908.81 0.488632 1.76875 0
M  V30 20578 H 1907.2 -1.21355 3.76947 0
M  V30 20579 H 1908.37 1.59105 4.32461 0
M  V30 20580 H 1906.68 1.28824 3.95971 0
M  V30 20581 H 1909.28 -1.19537 5.21167 0
M  V30 20582 H 1909.62 -1.95357 3.67616 0
M  V30 20583 H 1910.16 -0.280073 3.96813 0
M  V30 20584 H 1906.9 1.49782 6.38158 0
M  V30 20585 H 1906.42 -0.170702 5.99557 0
M  V30 20586 H 1908.1 0.191072 6.46718 0
M  V30 20587 N 1908.23 -1.57291 0.0985816 0
M  V30 20588 C 1909.47 -1.94767 -0.56514 0
M  V30 20589 C 1909.81 -0.980722 -1.67617 0
M  V30 20590 O 1909.08 -0.0143714 -1.94495 0
M  V30 20591 C 1909.36 -3.42336 -1.11704 0
M  V30 20592 C 1909.22 -4.49799 -0.0108284 0
M  V30 20593 C 1910.54 -3.91296 -2.01434 0
M  V30 20594 H 1907.66 -0.708215 -0.203963 0
M  V30 20595 H 1910.3 -1.89238 0.169998 0
M  V30 20596 H 1908.45 -3.47179 -1.74354 0
M  V30 20597 H 1910.12 -4.57066 0.623574 0
M  V30 20598 H 1908.36 -4.28825 0.655093 0
M  V30 20599 H 1909.03 -5.50261 -0.437868 0
M  V30 20600 H 1911.51 -3.88628 -1.48685 0
M  V30 20601 H 1910.39 -4.9511 -2.36975 0
M  V30 20602 H 1910.65 -3.30792 -2.93307 0
M  V30 20603 N 1909.71 0.175127 -1.56624 0
M  V30 20604 C 1910.98 0.919424 -1.72644 0
M  V30 20605 C 1911.36 2.00553 -0.658929 0
M  V30 20606 O 1910.71 2.2615 0.326897 0
M  V30 20607 C 1910.92 1.48764 -3.15706 0
M  V30 20608 C 1912.27 1.96204 -3.76549 0
M  V30 20609 O 1913.29 1.58565 -3.1896 0
M  V30 20610 O 1912.15 2.65525 -4.7766 0
M  V30 20611 H 1909.25 0.43251 -0.704886 0
M  V30 20612 H 1911.79 0.163255 -1.68913 0
M  V30 20613 H 1910.56 0.705743 -3.84883 0
M  V30 20614 H 1910.19 2.3081 -3.23748 0
M  V30 20615 N 1911.18 1.5123 0.44355 0
M  V30 20616 C 1912.43 1.63833 1.19527 0
M  V30 20617 C 1912.76 0.350544 1.9101 0
M  V30 20618 O 1912.04 -0.649546 1.83333 0
M  V30 20619 C 1912.32 2.83747 2.21719 0
M  V30 20620 C 1912.17 4.22484 1.5436 0
M  V30 20621 C 1913.49 2.99184 3.22765 0
M  V30 20622 H 1910.61 0.596256 0.433184 0
M  V30 20623 H 1913.25 1.83697 0.485321 0
M  V30 20624 H 1911.4 2.66942 2.82267 0
M  V30 20625 H 1913.08 4.50944 0.971976 0
M  V30 20626 H 1911.32 4.25469 0.846069 0
M  V30 20627 H 1911.99 5.0237 2.28754 0
M  V30 20628 H 1914.47 3.14659 2.72266 0
M  V30 20629 H 1913.34 3.84663 3.91569 0
M  V30 20630 H 1913.6 2.10984 3.88508 0
M  V30 20631 N 1912.66 -0.698586 1.41271 0
M  V30 20632 C 1913.89 -1.49247 1.44014 0
M  V30 20633 C 1914.31 -1.88043 0.0461888 0
M  V30 20634 O 1913.67 -1.54426 -0.94986 0
M  V30 20635 C 1913.72 -2.73334 2.35204 0
M  V30 20636 O 1912.82 -3.70704 1.807 0
M  V30 20637 H 1912.16 -0.449313 0.488891 0
M  V30 20638 H 1914.69 -0.858936 1.85697 0
M  V30 20639 H 1914.7 -3.21676 2.50975 0
M  V30 20640 H 1913.38 -2.44433 3.3649 0
M  V30 20641 H 1911.95 -3.29624 1.74363 0
M  V30 20642 N 1914.14 -1.27049 -0.93254 0
M  V30 20643 C 1915.07 -1.11867 -2.04959 0
M  V30 20644 C 1916.05 -0.0214563 -1.70086 0
M  V30 20645 O 1917.24 -0.195063 -1.93218 0
M  V30 20646 C 1914.37 -0.759993 -3.38883 0
M  V30 20647 C 1913.32 -1.8099 -3.87849 0
M  V30 20648 C 1912.65 -1.30532 -5.18522 0
M  V30 20649 C 1913.95 -3.21309 -4.11774 0
M  V30 20650 H 1915.64 -2.05309 -2.17918 0
M  V30 20651 H 1913.19 -0.988507 -1.04712 0
M  V30 20652 H 1915.14 -0.640623 -4.16502 0
M  V30 20653 H 1913.86 0.210139 -3.25923 0
M  V30 20654 H 1912.52 -1.91809 -3.12418 0
M  V30 20655 H 1912.17 -0.324784 -5.0195 0
M  V30 20656 H 1911.87 -2.00722 -5.52254 0
M  V30 20657 H 1913.39 -1.19879 -5.98716 0
M  V30 20658 H 1914.81 -3.13517 -4.79979 0
M  V30 20659 H 1913.2 -3.89166 -4.56804 0
M  V30 20660 H 1914.27 -3.66722 -3.17243 0
M  V30 20661 N 1915.62 1.13835 -1.08993 0
M  V30 20662 C 1916.86 1.85284 -0.824476 0
M  V30 20663 C 1917.2 1.83062 0.648235 0
M  V30 20664 O 1916.47 1.26555 1.47696 0
M  V30 20665 C 1916.75 3.33649 -1.35463 0
M  V30 20666 C 1916.61 3.44411 -2.89312 0
M  V30 20667 C 1917.93 4.28941 -0.984768 0
M  V30 20668 H 1915.05 0.672745 -0.300971 0
M  V30 20669 H 1917.69 1.3364 -1.35057 0
M  V30 20670 H 1915.84 3.77761 -0.907128 0
M  V30 20671 H 1917.51 3.09043 -3.42477 0
M  V30 20672 H 1915.75 2.85429 -3.26669 0
M  V30 20673 H 1916.42 4.48724 -3.21481 0
M  V30 20674 H 1918.9 3.92877 -1.37064 0
M  V30 20675 H 1917.78 5.31196 -1.38283 0
M  V30 20676 H 1918.04 4.41969 0.10755 0
M  V30 20677 N 1917.1 0.876467 1.3098 0
M  V30 20678 C 1918.32 0.504524 2.0117 0
M  V30 20679 C 1918.75 -0.897295 1.65319 0
M  V30 20680 O 1918.1 -1.59321 0.865255 0
M  V30 20681 C 1918.15 0.676516 3.54197 0
M  V30 20682 O 1917.26 -0.28134 4.11439 0
M  V30 20683 H 1916.6 0.199855 0.633209 0
M  V30 20684 H 1919.13 1.18167 1.67026 0
M  V30 20685 H 1919.14 0.572273 4.03967 0
M  V30 20686 H 1917.81 1.69864 3.7963 0
M  V30 20687 H 1916.39 -0.131506 3.72668 0
M  V30 20688 N 1918.57 -1.44173 0.636557 0
M  V30 20689 C 1919.5 -2.33442 -0.0518719 0
M  V30 20690 C 1920.48 -1.48519 -0.829226 0
M  V30 20691 O 1921.67 -1.77225 -0.794028 0
M  V30 20692 C 1918.8 -3.31663 -1.03038 0
M  V30 20693 C 1917.75 -4.26447 -0.364286 0
M  V30 20694 C 1917.08 -5.14577 -1.45308 0
M  V30 20695 C 1918.38 -5.17133 0.732884 0
M  V30 20696 H 1920.07 -2.91255 0.693589 0
M  V30 20697 H 1917.62 -1.40049 0.33499 0
M  V30 20698 H 1919.57 -3.93002 -1.52077 0
M  V30 20699 H 1918.3 -2.72071 -1.80679 0
M  V30 20700 H 1916.96 -3.66448 0.105505 0
M  V30 20701 H 1916.6 -4.51334 -2.22051 0
M  V30 20702 H 1916.3 -5.78807 -1.01274 0
M  V30 20703 H 1917.83 -5.78788 -1.94517 0
M  V30 20704 H 1919.24 -5.72376 0.325363 0
M  V30 20705 H 1917.64 -5.89994 1.09669 0
M  V30 20706 H 1918.71 -4.5782 1.59779 0
M  V30 20707 N 1920.05 -0.377435 -1.53014 0
M  V30 20708 C 1921.28 0.208944 -2.05842 0
M  V30 20709 C 1921.69 1.41487 -1.25007 0
M  V30 20710 O 1921.05 1.80121 -0.293703 0
M  V30 20711 C 1921.1 0.590778 -3.5664 0
M  V30 20712 O 1920.82 -0.56723 -4.34412 0
M  V30 20713 C 1922.32 1.23429 -4.2577 0
M  V30 20714 H 1919.54 0.0343137 -0.670122 0
M  V30 20715 H 1922.09 -0.539234 -1.97263 0
M  V30 20716 H 1920.24 1.28886 -3.65331 0
M  V30 20717 H 1920.66 -0.256062 -5.23875 0
M  V30 20718 H 1922.13 1.45192 -5.32563 0
M  V30 20719 H 1922.61 2.19814 -3.80235 0
M  V30 20720 H 1923.21 0.577303 -4.21364 0
M  V30 20721 N 1921.53 1.57237 -0.106922 0
M  V30 20722 C 1922.49 2.13515 0.833317 0
M  V30 20723 C 1923.49 1.06715 1.20285 0
M  V30 20724 O 1924.68 1.32548 1.13034 0
M  V30 20725 C 1921.82 2.66546 2.12523 0
M  V30 20726 H 1923.01 2.97916 0.344435 0
M  V30 20727 H 1920.56 1.55652 0.142199 0
M  V30 20728 H 1921.3 1.85699 2.65869 0
M  V30 20729 H 1921.08 3.44643 1.86985 0
M  V30 20730 H 1922.57 3.10039 2.7976 0
M  V30 20731 N 1923.01 -0.166818 1.56715 0
M  V30 20732 C 1923.96 -1.22576 1.97681 0
M  V30 20733 C 1924.95 -1.45578 0.866218 0
M  V30 20734 O 1926.16 -1.46105 1.05135 0
M  V30 20735 H 1922.53 -0.412144 0.629 0
M  V30 20736 H 1924.5 -0.853418 2.85936 0
M  V30 20737 C 1923.25 -2.55649 2.35667 0
M  V30 20738 H 1922.57 -2.38774 3.20666 0
M  V30 20739 H 1924.01 -3.28421 2.68171 0
M  V30 20740 C 1922.47 -3.14737 1.20177 0
M  V30 20741 O 1923 -3.98678 0.491844 0
M  V30 20742 N 1921.21 -2.73892 0.971164 0
M  V30 20743 H 1920.76 -2.05732 1.55023 0
M  V30 20744 H 1920.71 -3.13761 0.20029 0
M  V30 20745 N 1924.49 -1.51463 -0.435524 0
M  V30 20746 C 1925.45 -1.72315 -1.51129 0
M  V30 20747 C 1926.45 -0.593161 -1.4946 0
M  V30 20748 O 1927.64 -0.860731 -1.5145 0
M  V30 20749 C 1924.77 -1.78127 -2.9066 0
M  V30 20750 H 1925.96 -2.68327 -1.33943 0
M  V30 20751 H 1923.52 -1.4148 -0.664317 0
M  V30 20752 H 1924.25 -0.839367 -3.13249 0
M  V30 20753 H 1924.04 -2.60252 -2.93277 0
M  V30 20754 H 1925.53 -1.96093 -3.68697 0
M  V30 20755 N 1925.96 0.691085 -1.4164 0
M  V30 20756 C 1926.89 1.8173 -1.46616 0
M  V30 20757 C 1927.88 1.66979 -0.324357 0
M  V30 20758 O 1929.06 1.86644 -0.536424 0
M  V30 20759 C 1926.19 3.19903 -1.35201 0
M  V30 20760 C 1925.14 3.49366 -2.47239 0
M  V30 20761 C 1924.47 4.86942 -2.20887 0
M  V30 20762 C 1925.77 3.47891 -3.89575 0
M  V30 20763 H 1927.46 1.77823 -2.40872 0
M  V30 20764 H 1925.01 0.8541 -1.15936 0
M  V30 20765 H 1926.96 3.98407 -1.37293 0
M  V30 20766 H 1925.69 3.24448 -0.374312 0
M  V30 20767 H 1924.35 2.73215 -2.44436 0
M  V30 20768 H 1923.99 4.88118 -1.2145 0
M  V30 20769 H 1923.69 5.0762 -2.95966 0
M  V30 20770 H 1925.22 5.67751 -2.24703 0
M  V30 20771 H 1926.63 4.16392 -3.94069 0
M  V30 20772 H 1925.03 3.80101 -4.64374 0
M  V30 20773 H 1926.1 2.46778 -4.17407 0
M  V30 20774 N 1927.44 1.27542 0.925789 0
M  V30 20775 C 1928.69 1.13767 1.67038 0
M  V30 20776 C 1929.01 -0.316603 1.92413 0
M  V30 20777 O 1928.28 -1.22124 1.53175 0
M  V30 20778 H 1926.86 0.41803 0.61908 0
M  V30 20779 H 1929.52 1.60097 1.11153 0
M  V30 20780 H 1928.62 1.66818 2.63777 0
M  V30 20781 N 1928.92 -1.13255 1.09595 0
M  V30 20782 C 1930.15 -1.88138 0.853687 0
M  V30 20783 C 1930.56 -1.79474 -0.598798 0
M  V30 20784 O 1929.9 -1.16047 -1.42404 0
M  V30 20785 C 1929.96 -3.38441 1.21234 0
M  V30 20786 C 1929.63 -3.70884 2.67009 0
M  V30 20787 C 1930.62 -3.69979 3.65256 0
M  V30 20788 C 1928.31 -4.00488 3.03174 0
M  V30 20789 C 1930.3 -3.98221 4.97693 0
M  V30 20790 C 1927.99 -4.28391 4.35803 0
M  V30 20791 C 1928.99 -4.27243 5.32872 0
M  V30 20792 O 1928.68 -4.54462 6.63114 0
M  V30 20793 H 1928.41 -0.602402 0.306738 0
M  V30 20794 H 1930.96 -1.44282 1.46192 0
M  V30 20795 H 1929.19 -3.82809 0.54717 0
M  V30 20796 H 1930.88 -3.94651 0.948953 0
M  V30 20797 H 1931.65 -3.47181 3.3866 0
M  V30 20798 H 1927.53 -4.00528 2.28251 0
M  V30 20799 H 1931.07 -3.9724 5.73451 0
M  V30 20800 H 1926.97 -4.50661 4.62141 0
M  V30 20801 H 1927.74 -4.72122 6.68613 0
M  V30 20802 N 1930.4 -0.883401 -1.30514 0
M  V30 20803 C 1931.62 -0.515186 -2.00899 0
M  V30 20804 C 1932.05 0.888515 -1.65792 0
M  V30 20805 O 1931.41 1.58859 -0.873692 0
M  V30 20806 C 1931.45 -0.695291 -3.53833 0
M  V30 20807 O 1930.56 0.259516 -4.11583 0
M  V30 20808 H 1929.9 -0.20321 -0.63214 0
M  V30 20809 H 1932.43 -1.19051 -1.66397 0
M  V30 20810 H 1932.44 -0.593688 -4.03657 0
M  V30 20811 H 1931.11 -1.71874 -3.78724 0
M  V30 20812 H 1929.69 0.111741 -3.72733 0
M  V30 20813 N 1931.88 1.43833 -0.644194 0
M  V30 20814 C 1932.79 2.34538 0.0537504 0
M  V30 20815 C 1933.8 1.53369 0.821825 0
M  V30 20816 O 1934.98 1.86053 0.771123 0
M  V30 20817 C 1932.04 3.3153 1.01434 0
M  V30 20818 C 1931.1 4.28605 0.244198 0
M  V30 20819 C 1930.34 5.20963 1.15903 0
M  V30 20820 O 1930.56 5.1754 2.3981 0
M  V30 20821 O 1929.49 5.98527 0.636302 0
M  V30 20822 H 1933.32 2.95696 -0.692624 0
M  V30 20823 H 1930.91 1.43823 -0.404377 0
M  V30 20824 H 1932.79 3.91196 1.56663 0
M  V30 20825 H 1931.46 2.72887 1.7411 0
M  V30 20826 H 1930.37 3.72445 -0.351459 0
M  V30 20827 H 1931.7 4.90204 -0.442806 0
M  V30 20828 N 1933.35 0.385544 1.52811 0
M  V30 20829 C 1934.28 -0.442951 2.2926 0
M  V30 20830 C 1935.27 -1.06674 1.32494 0
M  V30 20831 O 1936.45 -1.08022 1.61384 0
M  V30 20832 C 1933.58 -1.57243 3.09664 0
M  V30 20833 C 1932.53 -1.07488 4.14283 0
M  V30 20834 C 1931.86 -2.29614 4.82889 0
M  V30 20835 C 1933.16 -0.145479 5.22097 0
M  V30 20836 H 1934.85 0.1949 2.98765 0
M  V30 20837 H 1932.4 0.0951762 1.43685 0
M  V30 20838 H 1934.35 -2.15882 3.61902 0
M  V30 20839 H 1933.08 -2.23781 2.37885 0
M  V30 20840 H 1931.74 -0.511047 3.6302 0
M  V30 20841 H 1931.38 -2.94653 4.07662 0
M  V30 20842 H 1931.08 -1.96985 5.53598 0
M  V30 20843 H 1932.61 -2.88902 5.37929 0
M  V30 20844 H 1934.02 -0.639941 5.69717 0
M  V30 20845 H 1932.42 0.0908687 6.00031 0
M  V30 20846 H 1933.49 0.806707 4.78142 0
M  V30 20847 N 1934.83 -1.57178 0.115259 0
M  V30 20848 C 1936.08 -1.94681 -0.542571 0
M  V30 20849 C 1936.4 -0.999211 -1.67454 0
M  V30 20850 O 1935.67 -0.054836 -1.95823 0
M  V30 20851 H 1934.25 -0.718769 -0.203421 0
M  V30 20852 H 1936.91 -1.94036 0.183323 0
M  V30 20853 H 1936.01 -2.9762 -0.939599 0
M  V30 20854 N 1936.31 0.158505 -1.56801 0
M  V30 20855 C 1937.27 1.17986 -1.96499 0
M  V30 20856 C 1938.27 1.3649 -0.850127 0
M  V30 20857 O 1939.46 1.33678 -1.11696 0
M  V30 20858 C 1936.6 2.54245 -2.27095 0
M  V30 20859 H 1937.79 0.839577 -2.87908 0
M  V30 20860 H 1935.34 0.401431 -1.51057 0
M  V30 20861 H 1936.08 2.93266 -1.38441 0
M  V30 20862 H 1935.86 2.42179 -3.0837 0
M  V30 20863 H 1937.35 3.27829 -2.58686 0
M  V30 20864 N 1937.79 1.51692 0.427485 0
M  V30 20865 C 1939.04 1.64079 1.17308 0
M  V30 20866 C 1939.35 0.367695 1.92113 0
M  V30 20867 O 1940.56 0.371083 2.68952 0
M  V30 20868 C 1939.01 2.89812 2.13394 0
M  V30 20869 C 1938.62 4.24161 1.44191 0
M  V30 20870 C 1940.37 3.11559 2.88325 0
M  V30 20871 C 1938.27 5.41036 2.38819 0
M  V30 20872 H 1937.2 0.611162 0.441584 0
M  V30 20873 H 1939.85 1.78167 0.439193 0
M  V30 20874 H 1938.24 2.6938 2.90259 0
M  V30 20875 H 1939.41 4.5501 0.72817 0
M  V30 20876 H 1937.72 4.08371 0.813739 0
M  V30 20877 H 1940.32 3.96051 3.59232 0
M  V30 20878 H 1940.66 2.25037 3.50234 0
M  V30 20879 H 1941.2 3.32376 2.18565 0
M  V30 20880 H 1937.94 6.29847 1.81585 0
M  V30 20881 H 1937.46 5.1455 3.08218 0
M  V30 20882 H 1939.14 5.73381 2.9974 0
M  V30 20883 N 1939.27 -0.683564 1.42004 0
M  V30 20884 C 1940.21 -1.7973 1.44796 0
M  V30 20885 C 1941.18 -1.63352 0.300905 0
M  V30 20886 O 1942.37 -1.84031 0.503707 0
M  V30 20887 C 1939.51 -3.17701 1.34758 0
M  V30 20888 C 1938.62 -3.45428 2.59429 0
M  V30 20889 C 1937.76 -4.73079 2.41598 0
M  V30 20890 C 1936.8 -4.93812 3.61685 0
M  V30 20891 N 1935.93 -6.12698 3.4285 0
M  V30 20892 H 1940.77 -1.76679 2.39976 0
M  V30 20893 H 1938.31 -0.862624 1.19152 0
M  V30 20894 H 1940.27 -3.9742 1.26938 0
M  V30 20895 H 1938.9 -3.19899 0.431785 0
M  V30 20896 H 1937.95 -2.60027 2.77651 0
M  V30 20897 H 1939.26 -3.56645 3.48721 0
M  V30 20898 H 1938.42 -5.60873 2.31314 0
M  V30 20899 H 1937.16 -4.6413 1.49782 0
M  V30 20900 H 1936.16 -4.04463 3.72411 0
M  V30 20901 H 1937.39 -5.04612 4.5447 0
M  V30 20902 H 1935.33 -6.04938 2.53744 0
M  V30 20903 H 1935.25 -6.24736 4.25724 0
M  V30 20904 H 1936.52 -7.03194 3.36361 0
M  V30 20905 N 1940.75 -1.28031 -0.919012 0
M  V30 20906 C 1941.97 -1.17828 -1.70679 0
M  V30 20907 C 1942.4 0.260207 -1.86292 0
M  V30 20908 O 1941.75 1.18833 -1.36925 0
M  V30 20909 C 1941.8 -1.87626 -3.07943 0
M  V30 20910 O 1940.91 -1.18014 -3.95154 0
M  V30 20911 H 1940.25 -0.40932 -0.522832 0
M  V30 20912 H 1942.78 -1.69258 -1.14947 0
M  V30 20913 H 1942.79 -1.95327 -3.58206 0
M  V30 20914 H 1941.46 -2.92263 -2.95897 0
M  V30 20915 H 1940.04 -1.18441 -3.5359 0
M  V30 20916 N 1942.22 1.12672 -1.10194 0
M  V30 20917 C 1943.15 2.20422 -0.770492 0
M  V30 20918 C 1944.13 1.68172 0.25541 0
M  V30 20919 O 1945.32 1.93818 0.121728 0
M  V30 20920 C 1942.45 3.4673 -0.198815 0
M  V30 20921 C 1941.4 4.12118 -1.15512 0
M  V30 20922 C 1940.73 5.32847 -0.444768 0
M  V30 20923 C 1942.03 4.58542 -2.50073 0
M  V30 20924 H 1943.72 2.48404 -1.67141 0
M  V30 20925 H 1941.27 1.19392 -0.805077 0
M  V30 20926 H 1943.22 4.21376 0.0451853 0
M  V30 20927 H 1941.95 3.18168 0.737331 0
M  V30 20928 H 1940.61 3.3945 -1.38453 0
M  V30 20929 H 1940.25 5.00551 0.49577 0
M  V30 20930 H 1939.95 5.77543 -1.08247 0
M  V30 20931 H 1941.48 6.10241 -0.209255 0
M  V30 20932 H 1942.89 5.24572 -2.31294 0
M  V30 20933 H 1941.29 5.14007 -3.09704 0
M  V30 20934 H 1942.36 3.72654 -3.10254 0
M  V30 20935 N 1943.7 0.89031 1.30043 0
M  V30 20936 C 1945.12 0.585066 1.4849 0
M  V30 20937 C 1945.32 -0.87585 1.81469 0
M  V30 20938 O 1944.37 -1.6567 1.90551 0
M  V30 20939 C 1945.69 1.50281 2.60454 0
M  V30 20940 C 1947.23 1.50701 2.74332 0
M  V30 20941 C 1947.71 2.41081 3.89415 0
M  V30 20942 N 1949.2 2.39074 3.96734 0
M  V30 20943 C 1949.94 3.05715 4.85104 0
M  V30 20944 N 1949.43 3.81601 5.78232 0
M  V30 20945 N 1951.22 2.9492 4.78517 0
M  V30 20946 H 1943.38 1.83532 1.0691 0
M  V30 20947 H 1945.64 0.785901 0.530155 0
M  V30 20948 H 1945.34 2.54327 2.42921 0
M  V30 20949 H 1945.22 1.21634 3.5705 0
M  V30 20950 H 1947.61 0.474032 2.91268 0
M  V30 20951 H 1947.69 1.83381 1.7834 0
M  V30 20952 H 1947.33 3.44466 3.73236 0
M  V30 20953 H 1947.26 2.05714 4.84757 0
M  V30 20954 H 1949.75 1.83932 3.30117 0
M  V30 20955 H 1950.06 4.29528 6.42437 0
M  V30 20956 H 1948.41 3.85708 5.78147 0
M  V30 20957 H 1951.6 2.35158 4.04745 0
M  V30 20958 H 1951.77 3.47132 5.47178 0
M  V30 20959 N 1945.18 -1.43489 0.651812 0
M  V30 20960 C 1946.41 -2.06181 0.172334 0
M  V30 20961 C 1946.82 -1.48848 -1.16145 0
M  V30 20962 O 1946.18 -0.619246 -1.71673 0
M  V30 20963 C 1946.23 -3.61425 0.0737039 0
M  V30 20964 O 1945.95 -4.16627 1.35476 0
M  V30 20965 C 1947.45 -4.4119 -0.432019 0
M  V30 20966 H 1944.67 -0.665039 0.0892394 0
M  V30 20967 H 1947.22 -1.84018 0.892063 0
M  V30 20968 H 1945.37 -3.82779 -0.596577 0
M  V30 20969 H 1945.79 -5.1028 1.21305 0
M  V30 20970 H 1947.26 -5.50163 -0.449989 0
M  V30 20971 H 1947.74 -4.14115 -1.46306 0
M  V30 20972 H 1948.34 -4.24802 0.205721 0
M  V30 20973 N 1946.66 -0.393643 -1.52605 0
M  V30 20974 C 1947.59 0.430786 -2.29492 0
M  V30 20975 C 1948.57 1.0597 -1.33058 0
M  V30 20976 O 1949.75 1.07165 -1.61955 0
M  V30 20977 C 1946.88 1.55599 -3.10494 0
M  V30 20978 C 1945.84 1.05289 -4.14847 0
M  V30 20979 C 1945.16 2.2705 -4.841 0
M  V30 20980 C 1946.46 0.117789 -5.22167 0
M  V30 20981 H 1948.16 -0.210741 -2.98657 0
M  V30 20982 H 1945.7 -0.102795 -1.43633 0
M  V30 20983 H 1947.66 2.1396 -3.63042 0
M  V30 20984 H 1946.38 2.22517 -2.39069 0
M  V30 20985 H 1945.04 0.491788 -3.63286 0
M  V30 20986 H 1944.69 2.92487 -4.09219 0
M  V30 20987 H 1944.39 1.94047 -5.54635 0
M  V30 20988 H 1945.91 2.86045 -5.39454 0
M  V30 20989 H 1947.33 0.609718 -5.70049 0
M  V30 20990 H 1945.72 -0.122689 -5.99975 0
M  V30 20991 H 1946.79 -0.832053 -4.77708 0
M  V30 20992 N 1948.14 1.57115 -0.123593 0
M  V30 20993 C 1949.55 1.5789 0.232975 0
M  V30 20994 C 1949.75 1.13659 1.66385 0
M  V30 20995 O 1948.81 0.826084 2.38604 0
M  V30 20996 C 1950.12 3.007 -0.0045178 0
M  V30 20997 C 1951.67 3.12941 0.0610235 0
M  V30 20998 C 1952.14 4.57758 -0.148835 0
M  V30 20999 N 1953.63 4.63103 -0.0949606 0
M  V30 21000 C 1954.37 5.7293 -0.232177 0
M  V30 21001 N 1953.87 6.9149 -0.42582 0
M  V30 21002 N 1955.66 5.61839 -0.171428 0
M  V30 21003 H 1947.81 1.84166 -1.05814 0
M  V30 21004 H 1950.07 0.851342 -0.417038 0
M  V30 21005 H 1949.78 3.37364 -0.993901 0
M  V30 21006 H 1949.65 3.70161 0.725327 0
M  V30 21007 H 1952.04 2.76131 1.04094 0
M  V30 21008 H 1952.12 2.46014 -0.700776 0
M  V30 21009 H 1951.76 4.95267 -1.12574 0
M  V30 21010 H 1951.69 5.22782 0.633006 0
M  V30 21011 H 1954.19 3.77866 0.0510058 0
M  V30 21012 H 1954.5 7.7104 -0.521263 0
M  V30 21013 H 1952.84 6.93464 -0.461851 0
M  V30 21014 H 1956.03 4.68095 -0.0210758 0
M  V30 21015 H 1956.21 6.47387 -0.281807 0
M  V30 21016 N 1949.61 -0.150187 1.56883 0
M  V30 21017 C 1950.58 -1.16943 1.97122 0
M  V30 21018 C 1951.58 -1.36037 0.857354 0
M  V30 21019 O 1952.77 -1.33083 1.12403 0
M  V30 21020 C 1949.9 -2.53037 2.2844 0
M  V30 21021 H 1951.09 -0.824297 2.88349 0
M  V30 21022 H 1948.64 -0.393414 1.51268 0
M  V30 21023 H 1949.38 -2.92527 1.39994 0
M  V30 21024 H 1949.16 -2.4054 3.0965 0
M  V30 21025 H 1950.65 -3.26452 2.6042 0
M  V30 21026 N 1951.09 -1.51916 -0.419434 0
M  V30 21027 C 1952.02 -1.77475 -1.5174 0
M  V30 21028 C 1953 -0.625263 -1.58191 0
M  V30 21029 O 1954.19 -0.869815 -1.73631 0
M  V30 21030 C 1951.32 -1.91608 -2.89661 0
M  V30 21031 C 1950.27 -3.07151 -2.98064 0
M  V30 21032 C 1949.6 -3.06493 -4.3814 0
M  V30 21033 C 1950.9 -4.46799 -2.70495 0
M  V30 21034 H 1952.59 -2.69413 -1.30602 0
M  V30 21035 H 1950.14 -1.2964 -0.626849 0
M  V30 21036 H 1952.09 -2.08072 -3.66448 0
M  V30 21037 H 1950.82 -0.963332 -3.1207 0
M  V30 21038 H 1949.47 -2.90422 -2.2372 0
M  V30 21039 H 1949.12 -2.08959 -4.57542 0
M  V30 21040 H 1948.82 -3.84091 -4.44689 0
M  V30 21041 H 1950.35 -3.25072 -5.16876 0
M  V30 21042 H 1951.76 -4.63787 -3.37008 0
M  V30 21043 H 1950.16 -5.26238 -2.88432 0
M  V30 21044 H 1951.23 -4.55604 -1.65991 0
M  V30 21045 N 1952.57 0.676023 -1.42365 0
M  V30 21046 C 1953.99 0.989001 -1.25263 0
M  V30 21047 C 1954.19 2.00896 -0.155941 0
M  V30 21048 O 1953.24 2.48026 0.473229 0
M  V30 21049 C 1954.56 1.49498 -2.60904 0
M  V30 21050 C 1956.1 1.61281 -2.68249 0
M  V30 21051 C 1956.58 2.15275 -4.04253 0
M  V30 21052 N 1958.07 2.2261 -4.06201 0
M  V30 21053 C 1958.8 2.6546 -5.08251 0
M  V30 21054 N 1958.3 3.07771 -6.20684 0
M  V30 21055 N 1960.09 2.65198 -4.95607 0
M  V30 21056 H 1952.24 0.000697929 -2.124 0
M  V30 21057 H 1954.51 0.0628334 -0.945915 0
M  V30 21058 H 1954.21 0.820033 -3.42006 0
M  V30 21059 H 1954.09 2.47392 -2.8474 0
M  V30 21060 H 1956.47 2.27882 -1.87493 0
M  V30 21061 H 1956.56 0.618793 -2.48203 0
M  V30 21062 H 1956.2 1.49284 -4.85466 0
M  V30 21063 H 1956.13 3.15466 -4.2165 0
M  V30 21064 H 1958.62 1.92776 -3.25032 0
M  V30 21065 H 1958.93 3.3915 -6.94404 0
M  V30 21066 H 1957.28 3.05631 -6.24191 0
M  V30 21067 H 1960.47 2.31504 -4.06846 0
M  V30 21068 H 1960.64 2.98272 -5.75272 0
M  V30 21069 N 1954.05 1.28517 0.912209 0
M  V30 21070 C 1955.46 1.14251 1.4766 0
M  V30 21071 C 1955.81 -0.266935 1.94376 0
M  V30 21072 O 1954.94 -1.16134 1.82598 0
M  V30 21073 C 1955.53 2.06792 2.6837 0
M  V30 21074 C 1954.09 1.96587 3.20984 0
M  V30 21075 C 1953.24 1.98444 1.93689 0
M  V30 21076 H 1956.19 1.41184 0.724769 0
M  V30 21077 H 1956.21 1.63282 3.43685 0
M  V30 21078 H 1955.72 3.09365 2.34339 0
M  V30 21079 H 1953.82 0.970565 3.59737 0
M  V30 21080 H 1953.93 2.83622 3.86129 0
M  V30 21081 H 1952.3 1.42872 2.10855 0
M  V30 21082 H 1953.08 3.02699 1.61951 0
M  V30 21083 N 1955.53 -1.12086 1.1079 0
M  V30 21084 C 1956.46 -2.2001 0.78217 0
M  V30 21085 C 1957.44 -1.68305 -0.246488 0
M  V30 21086 O 1958.62 -1.9388 -0.111448 0
M  V30 21087 C 1955.75 -3.4662 0.2172 0
M  V30 21088 C 1954.71 -4.11499 1.17696 0
M  V30 21089 C 1954.03 -5.32604 0.47302 0
M  V30 21090 C 1955.33 -4.5721 2.52501 0
M  V30 21091 H 1957.03 -2.47514 1.68456 0
M  V30 21092 H 1954.57 -1.18964 0.811397 0
M  V30 21093 H 1956.53 -4.21394 -0.0228381 0
M  V30 21094 H 1955.25 -3.18555 -0.720448 0
M  V30 21095 H 1953.91 -3.38711 1.40252 0
M  V30 21096 H 1953.56 -5.00807 -0.469217 0
M  V30 21097 H 1953.26 -5.76961 1.11308 0
M  V30 21098 H 1954.78 -6.10122 0.241615 0
M  V30 21099 H 1956.19 -5.23338 2.34073 0
M  V30 21100 H 1954.59 -5.12357 3.12426 0
M  V30 21101 H 1955.66 -3.71003 3.12226 0
M  V30 21102 N 1957 -0.897194 -1.29569 0
M  V30 21103 C 1958.42 -0.592933 -1.48177 0
M  V30 21104 C 1958.62 0.866214 -1.81931 0
M  V30 21105 O 1957.68 1.64658 -1.91427 0
M  V30 21106 C 1958.99 -1.5166 -2.59653 0
M  V30 21107 C 1960.54 -1.52153 -2.73529 0
M  V30 21108 C 1961.01 -2.43142 -3.88131 0
M  V30 21109 N 1962.5 -2.41175 -3.9546 0
M  V30 21110 C 1963.24 -3.08283 -4.83476 0
M  V30 21111 N 1962.73 -3.84662 -5.76201 0
M  V30 21112 N 1964.53 -2.97453 -4.76946 0
M  V30 21113 H 1956.68 -1.84096 -1.05935 0
M  V30 21114 H 1958.94 -0.788701 -0.52598 0
M  V30 21115 H 1958.65 -2.55612 -2.41569 0
M  V30 21116 H 1958.52 -1.23526 -3.564 0
M  V30 21117 H 1960.91 -0.489472 -2.91012 0
M  V30 21118 H 1960.99 -1.84324 -1.77365 0
M  V30 21119 H 1960.63 -3.46441 -3.71404 0
M  V30 21120 H 1960.56 -2.08282 -4.83659 0
M  V30 21121 H 1963.05 -1.8568 -3.29137 0
M  V30 21122 H 1963.37 -4.32929 -6.4015 0
M  V30 21123 H 1961.71 -3.88769 -5.76094 0
M  V30 21124 H 1964.9 -2.37301 -4.03492 0
M  V30 21125 H 1965.08 -3.50029 -5.45329 0
M  V30 21126 N 1958.48 1.43142 -0.659413 0
M  V30 21127 C 1959.45 2.29192 0.0190393 0
M  V30 21128 C 1960.45 1.42532 0.744404 0
M  V30 21129 O 1961.64 1.64093 0.584722 0
M  V30 21130 C 1958.77 3.24723 1.03769 0
M  V30 21131 H 1959.96 2.90674 -0.738166 0
M  V30 21132 H 1957.51 1.50525 -0.420956 0
M  V30 21133 H 1958.25 2.68149 1.82392 0
M  V30 21134 H 1958.03 3.88621 0.52115 0
M  V30 21135 H 1959.52 3.89294 1.5113 0
M  V30 21136 N 1959.96 0.40173 1.52394 0
M  V30 21137 C 1960.89 -0.41861 2.29717 0
M  V30 21138 C 1961.87 -1.05263 1.33618 0
M  V30 21139 O 1963.06 -1.06304 1.62521 0
M  V30 21140 C 1960.19 -1.5395 3.11314 0
M  V30 21141 C 1959.14 -1.03088 4.154 0
M  V30 21142 C 1958.47 -2.2448 4.85297 0
M  V30 21143 C 1959.77 -0.0900956 5.22222 0
M  V30 21144 H 1961.46 0.226577 2.98541 0
M  V30 21145 H 1959.01 0.110411 1.43576 0
M  V30 21146 H 1960.96 -2.12031 3.64171 0
M  V30 21147 H 1959.68 -2.21246 2.40246 0
M  V30 21148 H 1958.34 -0.472515 3.63542 0
M  V30 21149 H 1957.99 -2.90313 4.10764 0
M  V30 21150 H 1957.69 -1.91103 5.55656 0
M  V30 21151 H 1959.21 -2.83181 5.40963 0
M  V30 21152 H 1960.63 -0.579479 5.70364 0
M  V30 21153 H 1959.03 0.154505 5.99901 0
M  V30 21154 H 1960.1 0.857375 4.7726 0
M  V30 21155 N 1961.44 -1.57047 0.131923 0
M  V30 21156 C 1962.66 -2.00419 -0.533574 0
M  V30 21157 C 1963.09 -1.01125 -1.58605 0
M  V30 21158 O 1962.45 0.0152254 -1.81294 0
M  V30 21159 C 1962.49 -3.42611 -1.12472 0
M  V30 21160 O 1961.6 -3.46263 -2.23999 0
M  V30 21161 H 1960.94 -0.650739 -0.132043 0
M  V30 21162 H 1963.47 -2.03368 0.224211 0
M  V30 21163 H 1963.48 -3.81094 -1.45709 0
M  V30 21164 H 1962.15 -4.14392 -0.353895 0
M  V30 21165 H 1960.73 -3.1961 -1.92103 0
M  V30 21166 N 1962.92 0.141865 -1.5696 0
M  V30 21167 C 1964.33 0.494676 -1.5174 0
M  V30 21168 C 1964.53 1.83101 -0.8412 0
M  V30 21169 O 1963.59 2.49085 -0.413886 0
M  V30 21170 C 1964.9 0.500247 -2.9651 0
M  V30 21171 C 1966.45 0.585404 -3.07477 0
M  V30 21172 C 1966.92 0.621588 -4.53762 0
M  V30 21173 N 1968.42 0.683668 -4.58127 0
M  V30 21174 C 1969.15 0.732734 -5.68699 0
M  V30 21175 N 1968.65 0.740833 -6.88828 0
M  V30 21176 N 1970.44 0.774006 -5.56745 0
M  V30 21177 H 1962.59 -0.734022 -1.99314 0
M  V30 21178 H 1964.85 -0.268231 -0.909261 0
M  V30 21179 H 1964.56 -0.413562 -3.4926 0
M  V30 21180 H 1964.43 1.33632 -3.52735 0
M  V30 21181 H 1966.82 1.48963 -2.54743 0
M  V30 21182 H 1966.9 -0.277919 -2.54286 0
M  V30 21183 H 1966.55 -0.278504 -5.07136 0
M  V30 21184 H 1966.48 1.50147 -5.04741 0
M  V30 21185 H 1968.97 0.6845 -3.71649 0
M  V30 21186 H 1969.28 0.780262 -7.68851 0
M  V30 21187 H 1967.62 0.708625 -6.91378 0
M  V30 21188 H 1970.82 0.764885 -4.61809 0
M  V30 21189 H 1970.99 0.808779 -6.42933 0
M  V30 21190 N 1964.39 1.52136 0.411372 0
M  V30 21191 C 1965.64 1.66085 1.15853 0
M  V30 21192 C 1965.97 0.38968 1.90556 0
M  V30 21193 O 1965.22 -0.62727 1.85375 0
M  V30 21194 C 1965.52 2.832 2.1802 0
M  V30 21195 C 1965.19 4.21504 1.6014 0
M  V30 21196 C 1963.85 4.59124 1.4408 0
M  V30 21197 C 1966.2 5.07702 1.17848 0
M  V30 21198 C 1963.53 5.80621 0.842405 0
M  V30 21199 C 1965.88 6.29802 0.594283 0
M  V30 21200 C 1964.55 6.66172 0.420791 0
M  V30 21201 H 1963.82 0.607749 0.423937 0
M  V30 21202 H 1966.46 1.86233 0.446046 0
M  V30 21203 H 1964.77 2.57378 2.95405 0
M  V30 21204 H 1966.47 2.91189 2.75699 0
M  V30 21205 H 1963.06 3.91858 1.73623 0
M  V30 21206 H 1967.24 4.79224 1.29066 0
M  V30 21207 H 1962.5 6.07426 0.695983 0
M  V30 21208 H 1966.67 6.95921 0.258177 0
M  V30 21209 H 1964.3 7.60187 -0.044991 0
M  V30 21210 N 1965.87 -0.668464 1.42721 0
M  V30 21211 C 1966.78 -1.81118 1.49109 0
M  V30 21212 C 1967.8 -1.69815 0.379331 0
M  V30 21213 O 1968.98 -1.91254 0.631187 0
M  V30 21214 C 1966.04 -3.17303 1.39713 0
M  V30 21215 C 1965.1 -3.40515 2.61434 0
M  V30 21216 C 1964.33 -4.70203 2.52477 0
M  V30 21217 O 1964.56 -5.48536 1.56411 0
M  V30 21218 O 1963.49 -4.948 3.42719 0
M  V30 21219 H 1967.32 -1.78684 2.45572 0
M  V30 21220 H 1964.9 -0.825017 1.24554 0
M  V30 21221 H 1966.78 -3.98557 1.36859 0
M  V30 21222 H 1965.46 -3.2036 0.463785 0
M  V30 21223 H 1964.37 -2.59085 2.69863 0
M  V30 21224 H 1965.7 -3.42293 3.53689 0
M  V30 21225 N 1967.35 -1.28999 -0.905381 0
M  V30 21226 C 1968.6 -1.1641 -1.65207 0
M  V30 21227 C 1968.92 0.285952 -1.92892 0
M  V30 21228 O 1968.19 1.19672 -1.55098 0
M  V30 21229 H 1966.77 -0.427826 -0.612351 0
M  V30 21230 H 1969.43 -1.61845 -1.08592 0
M  V30 21231 H 1968.53 -1.70993 -2.6109 0
M  V30 21232 N 1968.83 1.11497 -1.11383 0
M  V30 21233 C 1969.76 2.16696 -0.715422 0
M  V30 21234 C 1970.74 1.60028 0.288088 0
M  V30 21235 O 1971.92 1.87593 0.184653 0
M  V30 21236 C 1969.05 3.38652 -0.0571822 0
M  V30 21237 C 1968.1 4.13982 -1.02574 0
M  V30 21238 S 1968.93 4.70998 -2.54796 0
M  V30 21239 C 1970.09 5.96278 -1.90271 0
M  V30 21240 H 1970.32 2.50155 -1.60654 0
M  V30 21241 H 1967.85 1.23113 -0.931804 0
M  V30 21242 H 1969.81 4.0928 0.316249 0
M  V30 21243 H 1968.47 3.03453 0.810878 0
M  V30 21244 H 1967.66 5.01386 -0.512606 0
M  V30 21245 H 1967.27 3.4911 -1.34157 0
M  V30 21246 H 1969.56 6.66078 -1.2388 0
M  V30 21247 H 1970.5 6.52235 -2.75671 0
M  V30 21248 H 1970.91 5.47795 -1.36312 0
M  V30 21249 N 1970.31 0.904053 1.29092 0
M  V30 21250 C 1971.72 0.600783 1.47861 0
M  V30 21251 C 1971.92 -0.856554 1.82388 0
M  V30 21252 O 1970.98 -1.6364 1.92297 0
M  V30 21253 C 1972.29 1.53035 2.58845 0
M  V30 21254 C 1973.84 1.53602 2.72719 0
M  V30 21255 C 1974.32 2.45197 3.86836 0
M  V30 21256 N 1975.81 2.43269 3.94176 0
M  V30 21257 C 1976.54 3.10843 4.81834 0
M  V30 21258 N 1976.04 3.87712 5.74153 0
M  V30 21259 N 1977.83 2.99979 4.75362 0
M  V30 21260 H 1969.98 1.84656 1.04957 0
M  V30 21261 H 1972.24 0.791479 0.52179 0
M  V30 21262 H 1971.95 2.5689 2.4021 0
M  V30 21263 H 1971.82 1.25414 3.5574 0
M  V30 21264 H 1974.21 0.504899 2.90749 0
M  V30 21265 H 1974.29 1.85262 1.76385 0
M  V30 21266 H 1973.94 3.48406 3.69562 0
M  V30 21267 H 1973.87 2.10844 4.82548 0
M  V30 21268 H 1976.36 1.87423 3.28148 0
M  V30 21269 H 1976.67 4.36317 6.37846 0
M  V30 21270 H 1975.02 3.91818 5.74024 0
M  V30 21271 H 1978.21 2.39437 4.02228 0
M  V30 21272 H 1978.38 3.52916 5.43465 0
M  V30 21273 N 1971.79 -1.4279 0.666995 0
M  V30 21274 C 1973.03 -2.01942 0.186305 0
M  V30 21275 C 1973.36 -1.52579 -1.20139 0
M  V30 21276 O 1972.64 -0.724677 -1.80496 0
M  V30 21277 C 1972.92 -3.59474 0.212322 0
M  V30 21278 C 1972.78 -4.19035 1.63491 0
M  V30 21279 C 1974.09 -4.37857 -0.443762 0
M  V30 21280 H 1971.21 -0.733747 0.0691733 0
M  V30 21281 H 1973.86 -1.69912 0.850298 0
M  V30 21282 H 1972.01 -3.86892 -0.353062 0
M  V30 21283 H 1973.68 -4.02598 2.25195 0
M  V30 21284 H 1971.92 -3.75161 2.178 0
M  V30 21285 H 1972.59 -5.28155 1.60486 0
M  V30 21286 H 1975.07 -4.16083 0.0374331 0
M  V30 21287 H 1973.94 -5.47478 -0.394887 0
M  V30 21288 H 1974.2 -4.15144 -1.52012 0
M  V30 21289 N 1973.26 -0.409806 -1.52179 0
M  V30 21290 C 1974.51 0.166003 -2.02119 0
M  V30 21291 C 1974.84 1.44732 -1.29484 0
M  V30 21292 O 1974.12 1.90314 -0.401362 0
M  V30 21293 C 1974.4 0.413015 -3.57724 0
M  V30 21294 C 1974.25 -0.885028 -4.41007 0
M  V30 21295 C 1975.57 1.19486 -4.2357 0
M  V30 21296 H 1972.69 0.0588585 -0.734646 0
M  V30 21297 H 1975.33 -0.543405 -1.82063 0
M  V30 21298 H 1973.48 1.01732 -3.74944 0
M  V30 21299 H 1975.16 -1.5212 -4.35497 0
M  V30 21300 H 1973.4 -1.49585 -4.07194 0
M  V30 21301 H 1974.07 -0.66658 -5.47961 0
M  V30 21302 H 1976.55 0.683238 -4.10452 0
M  V30 21303 H 1975.42 1.33644 -5.32382 0
M  V30 21304 H 1975.68 2.21566 -3.82571 0
M  V30 21305 N 1974.74 1.56975 -0.14025 0
M  V30 21306 C 1975.99 1.96196 0.513302 0
M  V30 21307 C 1976.32 1.02482 1.64958 0
M  V30 21308 O 1975.6 0.0659332 1.94388 0
M  V30 21309 C 1975.88 3.45178 1.02589 0
M  V30 21310 C 1975.73 4.49669 -0.108432 0
M  V30 21311 C 1977.05 3.96499 1.90989 0
M  V30 21312 H 1974.17 0.713374 0.185114 0
M  V30 21313 H 1976.81 1.88721 -0.220112 0
M  V30 21314 H 1974.96 3.51679 1.65088 0
M  V30 21315 H 1976.63 4.55252 -0.744538 0
M  V30 21316 H 1974.88 4.26937 -0.768558 0
M  V30 21317 H 1975.55 5.51228 0.291822 0
M  V30 21318 H 1978.02 3.92434 1.38329 0
M  V30 21319 H 1976.9 5.01219 2.23765 0
M  V30 21320 H 1977.16 3.38452 2.84433 0
M  V30 21321 N 1976.22 -0.133539 1.57033 0
M  V30 21322 C 1977.17 -1.18356 2.00237 0
M  V30 21323 C 1978.16 -1.43708 0.896902 0
M  V30 21324 O 1979.37 -1.43842 1.0821 0
M  V30 21325 H 1975.74 -0.398709 0.637601 0
M  V30 21326 H 1977.71 -0.792575 2.87682 0
M  V30 21327 C 1976.46 -2.50593 2.41036 0
M  V30 21328 H 1975.79 -2.31919 3.25659 0
M  V30 21329 H 1977.23 -3.22659 2.75077 0
M  V30 21330 C 1975.68 -3.12117 1.26826 0
M  V30 21331 O 1976.21 -3.97545 0.576298 0
M  V30 21332 N 1974.42 -2.7177 1.02904 0
M  V30 21333 H 1973.97 -2.02398 1.59352 0
M  V30 21334 H 1973.93 -3.13266 0.266798 0
M  V30 21335 N 1977.7 -1.52352 -0.403298 0
M  V30 21336 C 1978.66 -1.75482 -1.4744 0
M  V30 21337 C 1979.66 -0.62473 -1.48168 0
M  V30 21338 O 1980.85 -0.892662 -1.4959 0
M  V30 21339 C 1977.98 -1.84253 -2.86817 0
M  V30 21340 H 1979.18 -2.71107 -1.28222 0
M  V30 21341 H 1976.73 -1.42857 -0.634157 0
M  V30 21342 H 1977.46 -0.905623 -3.11398 0
M  V30 21343 H 1977.25 -2.66414 -2.87691 0
M  V30 21344 H 1978.74 -2.03869 -3.64454 0
M  V30 21345 N 1979.18 0.660885 -1.43074 0
M  V30 21346 C 1980.11 1.78579 -1.50438 0
M  V30 21347 C 1981.09 1.66253 -0.359703 0
M  V30 21348 O 1982.27 1.85465 -0.575893 0
M  V30 21349 C 1979.4 3.16963 -1.41956 0
M  V30 21350 C 1978.36 3.44043 -2.54594 0
M  V30 21351 C 1977.68 4.82147 -2.31166 0
M  V30 21352 C 1978.98 3.3955 -3.96867 0
M  V30 21353 H 1980.68 1.72673 -2.4459 0
M  V30 21354 H 1978.22 0.829317 -1.17721 0
M  V30 21355 H 1980.17 3.95406 -1.45713 0
M  V30 21356 H 1978.9 3.23581 -0.443048 0
M  V30 21357 H 1977.56 2.67969 -2.50177 0
M  V30 21358 H 1977.21 4.85432 -1.31776 0
M  V30 21359 H 1976.91 5.01228 -3.06667 0
M  V30 21360 H 1978.43 5.62857 -2.36695 0
M  V30 21361 H 1979.84 4.0794 -4.02813 0
M  V30 21362 H 1978.24 3.70166 -4.72332 0
M  V30 21363 H 1979.31 2.37868 -4.22548 0
M  V30 21364 N 1980.65 1.29477 0.898527 0
M  V30 21365 C 1981.58 1.17262 2.01921 0
M  V30 21366 C 1982.57 0.0665442 1.6997 0
M  V30 21367 O 1983.75 0.246223 1.92633 0
M  V30 21368 C 1980.88 0.849575 3.36748 0
M  V30 21369 C 1979.83 1.91209 3.82914 0
M  V30 21370 C 1979.16 1.44234 5.14879 0
M  V30 21371 C 1980.46 3.32113 4.03111 0
M  V30 21372 H 1982.15 2.11015 2.12398 0
M  V30 21373 H 1979.7 1.01592 1.02054 0
M  V30 21374 H 1981.65 0.750826 4.14657 0
M  V30 21375 H 1980.38 -0.123652 3.26366 0
M  V30 21376 H 1979.04 2.00025 3.07222 0
M  V30 21377 H 1978.68 0.457753 5.00913 0
M  V30 21378 H 1978.38 2.15293 5.46738 0
M  V30 21379 H 1979.91 1.35711 5.95327 0
M  V30 21380 H 1981.32 3.26133 4.71498 0
M  V30 21381 H 1979.72 4.0114 4.46326 0
M  V30 21382 H 1980.79 3.75004 3.07408 0
M  V30 21383 N 1982.13 -1.10905 1.11972 0
M  V30 21384 C 1983.38 -1.82401 0.870296 0
M  V30 21385 C 1983.7 -1.85356 -0.605649 0
M  V30 21386 O 1982.97 -1.32812 -1.44006 0
M  V30 21387 H 1981.55 -0.675471 0.318979 0
M  V30 21388 H 1984.21 -1.34216 1.41323 0
M  V30 21389 H 1983.31 -2.86086 1.24746 0
M  V30 21390 N 1983.61 -0.910886 -1.2861 0
M  V30 21391 C 1984.57 -0.401862 -2.2565 0
M  V30 21392 C 1985.57 0.470212 -1.53771 0
M  V30 21393 O 1986.76 0.273674 -1.72037 0
M  V30 21394 C 1983.9 0.424193 -3.38251 0
M  V30 21395 H 1985.09 -1.25903 -2.72192 0
M  V30 21396 H 1982.64 -0.690027 -1.40244 0
M  V30 21397 H 1983.38 1.30088 -2.97065 0
M  V30 21398 H 1983.16 -0.200837 -3.91585 0
M  V30 21399 H 1984.65 0.771267 -4.10416 0
M  V30 21400 N 1985.09 1.42434 -0.674558 0
M  V30 21401 C 1986.34 2.00765 -0.193936 0
M  V30 21402 C 1986.65 1.53957 1.20651 0
M  V30 21403 O 1987.86 2.04705 1.78348 0
M  V30 21404 C 1986.31 3.58682 -0.295862 0
M  V30 21405 C 1985.92 4.14478 -1.70034 0
M  V30 21406 C 1987.66 4.24313 0.12606 0
M  V30 21407 C 1985.57 5.64758 -1.75505 0
M  V30 21408 H 1984.5 0.75086 -0.0687443 0
M  V30 21409 H 1987.15 1.6316 -0.839705 0
M  V30 21410 H 1985.53 3.9379 0.417795 0
M  V30 21411 H 1986.71 3.90831 -2.44106 0
M  V30 21412 H 1985.02 3.61298 -2.07009 0
M  V30 21413 H 1987.62 5.34596 0.105331 0
M  V30 21414 H 1987.96 3.99775 1.16127 0
M  V30 21415 H 1988.5 3.94164 -0.536581 0
M  V30 21416 H 1985.24 5.94094 -2.77007 0
M  V30 21417 H 1984.76 5.90397 -1.05788 0
M  V30 21418 H 1986.43 6.29172 -1.50838 0
M  V30 21419 N 1986.57 0.417871 1.51959 0
M  V30 21420 C 1987.98 -0.0497386 1.86634 0
M  V30 21421 C 1988.33 -1.43671 1.33616 0
M  V30 21422 O 1987.45 -2.05472 0.67898 0
M  V30 21423 C 1988.05 -0.0970329 3.38661 0
M  V30 21424 C 1986.61 -0.509 3.72943 0
M  V30 21425 C 1985.75 0.310908 2.75552 0
M  V30 21426 H 1988.71 0.634566 1.45461 0
M  V30 21427 H 1988.73 -0.910534 3.69445 0
M  V30 21428 H 1988.24 0.912553 3.77219 0
M  V30 21429 H 1986.34 -1.52491 3.39967 0
M  V30 21430 H 1986.45 -0.247317 4.78461 0
M  V30 21431 H 1984.82 -0.228018 2.53677 0
M  V30 21432 H 1985.6 1.31901 3.1695 0
M  V30 21433 N 1988.04 -1.56898 0.148573 0
M  V30 21434 C 1989.27 -2.00974 -0.512287 0
M  V30 21435 C 1989.69 -1.02801 -1.57523 0
M  V30 21436 O 1989.05 -0.00400411 -1.813 0
M  V30 21437 C 1989.1 -3.43785 -1.08832 0
M  V30 21438 O 1988.2 -3.4862 -2.20313 0
M  V30 21439 H 1987.55 -0.652102 -0.125133 0
M  V30 21440 H 1990.08 -2.03119 0.245769 0
M  V30 21441 H 1990.09 -3.82618 -1.41659 0
M  V30 21442 H 1988.76 -4.14744 -0.309923 0
M  V30 21443 H 1987.34 -3.2163 -1.88702 0
M  V30 21444 N 1989.52 0.125209 -1.57102 0
M  V30 21445 C 1990.77 0.832627 -1.83712 0
M  V30 21446 C 1991.08 1.81336 -0.733261 0
M  V30 21447 O 1992.29 2.56651 -0.885592 0
M  V30 21448 C 1990.75 1.53143 -3.25692 0
M  V30 21449 C 1990.35 0.592004 -4.44071 0
M  V30 21450 C 1992.1 2.22435 -3.61556 0
M  V30 21451 C 1990.01 1.29368 -5.77077 0
M  V30 21452 H 1988.94 0.314685 -0.685193 0
M  V30 21453 H 1991.59 0.0853544 -1.83301 0
M  V30 21454 H 1989.97 2.32511 -3.20554 0
M  V30 21455 H 1991.14 -0.16801 -4.60494 0
M  V30 21456 H 1989.46 0.00637692 -4.164 0
M  V30 21457 H 1992.05 2.75611 -4.58195 0
M  V30 21458 H 1992.4 2.99947 -2.88683 0
M  V30 21459 H 1992.93 1.49962 -3.68451 0
M  V30 21460 H 1989.67 0.559975 -6.53104 0
M  V30 21461 H 1989.19 2.02586 -5.64552 0
M  V30 21462 H 1990.87 1.8286 -6.20622 0
M  V30 21463 N 1991 1.52564 0.395213 0
M  V30 21464 C 1991.93 1.71641 1.50382 0
M  V30 21465 C 1992.91 0.564147 1.525 0
M  V30 21466 O 1994.1 0.793198 1.70999 0
M  V30 21467 C 1991.22 1.76838 2.8887 0
M  V30 21468 C 1990.27 2.98527 3.04605 0
M  V30 21469 S 1991.1 4.5862 2.76456 0
M  V30 21470 C 1992.26 4.66624 4.17149 0
M  V30 21471 H 1992.49 2.65402 1.33973 0
M  V30 21472 H 1990.02 1.42778 0.587689 0
M  V30 21473 H 1991.98 1.80518 3.68678 0
M  V30 21474 H 1990.64 0.841802 3.02609 0
M  V30 21475 H 1989.84 2.98686 4.05959 0
M  V30 21476 H 1989.44 2.92806 2.32681 0
M  V30 21477 H 1991.73 4.44856 5.10988 0
M  V30 21478 H 1992.67 5.68608 4.22008 0
M  V30 21479 H 1993.08 3.95522 4.02768 0
M  V30 21480 N 1992.48 -0.653289 1.43422 0
M  V30 21481 C 1993.43 -1.78742 1.48842 0
M  V30 21482 C 1994.42 -1.65486 0.362035 0
M  V30 21483 O 1995.63 -1.71834 0.536023 0
M  V30 21484 H 1992 -0.589724 0.466614 0
M  V30 21485 H 1993.97 -1.7129 2.4434 0
M  V30 21486 C 1992.72 -3.17 1.4285 0
M  V30 21487 H 1992.04 -3.27838 2.28828 0
M  V30 21488 H 1993.48 -3.96314 1.50704 0
M  V30 21489 C 1991.94 -3.36583 0.146093 0
M  V30 21490 O 1992.47 -3.93802 -0.792631 0
M  V30 21491 N 1990.68 -2.90545 0.0563076 0
M  V30 21492 H 1990.23 -2.44166 0.82102 0
M  V30 21493 H 1990.18 -3.04024 -0.801035 0
M  V30 21494 N 1993.96 -1.29952 -0.891648 0
M  V30 21495 C 1995.2 -1.18565 -1.6453 0
M  V30 21496 C 1995.54 0.260539 -1.92444 0
M  V30 21497 O 1994.81 1.18723 -1.54062 0
M  V30 21498 C 1995.09 -2.00774 -2.98934 0
M  V30 21499 C 1994.95 -3.53577 -2.78035 0
M  V30 21500 C 1996.27 -1.84038 -3.99772 0
M  V30 21501 H 1993.38 -0.432073 -0.597061 0
M  V30 21502 H 1996.03 -1.59512 -1.03227 0
M  V30 21503 H 1994.18 -1.65981 -3.51258 0
M  V30 21504 H 1995.85 -3.98394 -2.3255 0
M  V30 21505 H 1994.09 -3.78095 -2.12665 0
M  V30 21506 H 1994.76 -4.06381 -3.73575 0
M  V30 21507 H 1997.24 -2.14444 -3.56585 0
M  V30 21508 H 1996.11 -2.43896 -4.91737 0
M  V30 21509 H 1996.38 -0.797726 -4.34843 0
M  V30 21510 N 1995.44 1.1031 -1.12559 0
M  V30 21511 C 1996.37 2.18738 -0.817073 0
M  V30 21512 C 1997.35 1.68675 0.219681 0
M  V30 21513 O 1998.53 1.94033 0.0805889 0
M  V30 21514 C 1995.66 3.46231 -0.272317 0
M  V30 21515 C 1994.62 4.09575 -1.24228 0
M  V30 21516 C 1993.94 5.31784 -0.557693 0
M  V30 21517 C 1995.24 4.53135 -2.59743 0
M  V30 21518 H 1996.94 2.44802 -1.72372 0
M  V30 21519 H 1994.48 1.17658 -0.830221 0
M  V30 21520 H 1996.43 4.21377 -0.0442049 0
M  V30 21521 H 1995.16 3.19661 0.669677 0
M  V30 21522 H 1993.82 3.36437 -1.45622 0
M  V30 21523 H 1993.47 5.0149 0.389484 0
M  V30 21524 H 1993.17 5.75117 -1.20473 0
M  V30 21525 H 1994.69 6.0966 -0.338649 0
M  V30 21526 H 1996.1 5.19548 -2.42369 0
M  V30 21527 H 1994.5 5.07322 -3.20537 0
M  V30 21528 H 1995.57 3.65989 -3.18088 0
M  V30 21529 N 1996.91 0.917694 1.28125 0
M  V30 21530 C 1997.84 0.426179 2.29578 0
M  V30 21531 C 1998.82 -0.508289 1.62328 0
M  V30 21532 O 2000.01 -0.415181 1.8971 0
M  V30 21533 C 1997.14 -0.331007 3.45719 0
M  V30 21534 C 1996.09 0.51469 4.24894 0
M  V30 21535 C 1995.42 -0.371069 5.33411 0
M  V30 21536 C 1996.72 1.774 4.9125 0
M  V30 21537 H 1998.41 1.27403 2.7094 0
M  V30 21538 H 1995.96 0.614065 1.30251 0
M  V30 21539 H 1997.91 -0.68573 4.15783 0
M  V30 21540 H 1996.64 -1.2128 3.03247 0
M  V30 21541 H 1995.3 0.851986 3.56562 0
M  V30 21542 H 1994.94 -1.25152 4.87182 0
M  V30 21543 H 1994.64 0.19121 5.87289 0
M  V30 21544 H 1996.17 -0.721587 6.06321 0
M  V30 21545 H 1997.58 1.48795 5.53654 0
M  V30 21546 H 1995.98 2.27899 5.55141 0
M  V30 21547 H 1997.05 2.49947 4.15517 0
M  V30 21548 N 1998.39 -1.42074 0.682102 0
M  V30 21549 C 1999.64 -2.01733 0.207714 0
M  V30 21550 C 1999.97 -1.53844 -1.18514 0
M  V30 21551 O 1999.25 -0.74378 -1.79717 0
M  V30 21552 C 1999.53 -3.59228 0.250438 0
M  V30 21553 C 1999.38 -4.17278 1.67927 0
M  V30 21554 C 2000.7 -4.38303 -0.397296 0
M  V30 21555 H 1997.82 -0.732972 0.0769518 0
M  V30 21556 H 2000.46 -1.69 0.868272 0
M  V30 21557 H 1998.61 -3.87245 -0.312007 0
M  V30 21558 H 2000.28 -4.00187 2.29452 0
M  V30 21559 H 1998.53 -3.7283 2.21767 0
M  V30 21560 H 1999.2 -5.26423 1.66079 0
M  V30 21561 H 2001.67 -4.1602 0.0815622 0
M  V30 21562 H 2000.55 -5.47866 -0.336797 0
M  V30 21563 H 2000.81 -4.16733 -1.476 0
M  V30 21564 N 1999.87 -0.425924 -1.51735 0
M  V30 21565 C 2001.11 0.143658 -2.03895 0
M  V30 21566 C 2001.47 1.40947 -1.30376 0
M  V30 21567 O 2002.67 2.05857 -1.72848 0
M  V30 21568 C 2000.95 0.368683 -3.55493 0
M  V30 21569 S 2002.5 0.903307 -4.29402 0
M  V30 21570 H 1999.32 0.0371973 -0.710026 0
M  V30 21571 H 2001.92 -0.582706 -1.86614 0
M  V30 21572 H 2000.63 -0.559105 -4.06574 0
M  V30 21573 H 2000.16 1.12245 -3.77047 0
M  V30 21574 H 2002.17 2.18213 -4.45643 0
M  V30 21575 N 2001.35 1.56817 -0.156891 0
M  V30 21576 C 2002.28 2.20266 0.774915 0
M  V30 21577 C 2003.26 1.15387 1.24979 0
M  V30 21578 O 2004.44 1.43766 1.30557 0
M  V30 21579 C 2001.57 2.83207 2.01025 0
M  V30 21580 C 2000.53 3.94 1.67177 0
M  V30 21581 C 1999.85 4.43921 2.98057 0
M  V30 21582 C 2001.15 5.14297 0.91083 0
M  V30 21583 H 2002.85 2.98387 0.246082 0
M  V30 21584 H 2000.39 1.43525 0.116921 0
M  V30 21585 H 2002.35 3.26264 2.66701 0
M  V30 21586 H 2001.07 2.02433 2.56298 0
M  V30 21587 H 1999.73 3.51576 1.03876 0
M  V30 21588 H 1999.38 3.59957 3.5134 0
M  V30 21589 H 1999.08 5.18657 2.76169 0
M  V30 21590 H 2000.6 4.89656 3.64787 0
M  V30 21591 H 2002.02 5.54137 1.46988 0
M  V30 21592 H 2000.41 5.94857 0.791526 0
M  V30 21593 H 2001.48 4.84806 -0.0955943 0
M  V30 21594 N 2002.83 -0.116876 1.57166 0
M  V30 21595 C 2004.07 -0.822873 1.84151 0
M  V30 21596 C 2004.39 -1.80944 0.742867 0
M  V30 21597 O 2005.59 -2.56177 0.89919 0
M  V30 21598 C 2004.05 -1.51414 3.26499 0
M  V30 21599 C 2003.66 -0.568446 4.44379 0
M  V30 21600 C 2005.4 -2.20514 3.62731 0
M  V30 21601 C 2003.31 -1.26306 5.77755 0
M  V30 21602 H 2002.24 -0.311047 0.686852 0
M  V30 21603 H 2004.89 -0.0756323 1.83344 0
M  V30 21604 H 2003.27 -2.30807 3.21782 0
M  V30 21605 H 2004.45 0.192429 4.60398 0
M  V30 21606 H 2002.76 0.0157058 4.16397 0
M  V30 21607 H 2005.36 -2.73177 4.5965 0
M  V30 21608 H 2005.7 -2.98411 2.90269 0
M  V30 21609 H 2006.23 -1.48006 3.69241 0
M  V30 21610 H 2002.97 -0.525332 6.53392 0
M  V30 21611 H 2002.49 -1.99589 5.65618 0
M  V30 21612 H 2004.17 -1.79566 6.21583 0
M  V30 21613 N 2004.3 -1.52772 -0.387116 0
M  V30 21614 C 2005.55 -1.67907 -1.13196 0
M  V30 21615 C 2005.88 -0.419946 -1.89912 0
M  V30 21616 O 2005.13 0.5977 -1.86349 0
M  V30 21617 C 2005.43 -2.86632 -2.13487 0
M  V30 21618 C 2005.1 -4.23999 -1.53414 0
M  V30 21619 C 2003.76 -4.61358 -1.36757 0
M  V30 21620 C 2006.11 -5.09513 -1.09756 0
M  V30 21621 C 2003.44 -5.81887 -0.749927 0
M  V30 21622 C 2005.79 -6.30668 -0.494012 0
M  V30 21623 C 2004.46 -6.66757 -0.314755 0
M  V30 21624 H 2003.73 -0.614416 -0.414214 0
M  V30 21625 H 2006.37 -1.86919 -0.416362 0
M  V30 21626 H 2004.68 -2.62045 -2.91273 0
M  V30 21627 H 2006.38 -2.95538 -2.71032 0
M  V30 21628 H 2002.97 -3.94571 -1.67367 0
M  V30 21629 H 2007.15 -4.81217 -1.21426 0
M  V30 21630 H 2002.41 -6.08456 -0.599259 0
M  V30 21631 H 2006.58 -6.96244 -0.14743 0
M  V30 21632 H 2004.21 -7.60019 0.165924 0
M  V30 21633 N 2005.78 0.645673 -1.43767 0
M  V30 21634 C 2007.03 1.40585 -1.46994 0
M  V30 21635 C 2007.38 1.92163 -0.0955466 0
M  V30 21636 O 2006.68 1.69831 0.88701 0
M  V30 21637 C 2006.87 2.59872 -2.45359 0
M  V30 21638 C 2006.7 2.19971 -3.92228 0
M  V30 21639 C 2005.47 2.07938 -4.60532 0
M  V30 21640 C 2007.67 1.79785 -4.81852 0
M  V30 21641 N 2005.65 1.61447 -5.92291 0
M  V30 21642 C 2007.02 1.44432 -6.02942 0
M  V30 21643 C 2009.07 1.67036 -4.69045 0
M  V30 21644 C 2007.78 0.976058 -7.12647 0
M  V30 21645 C 2009.8 1.21614 -5.78761 0
M  V30 21646 C 2009.17 0.872027 -6.98981 0
M  V30 21647 H 2005.26 0.509803 -0.59298 0
M  V30 21648 H 2007.85 0.742235 -1.79997 0
M  V30 21649 H 2006.02 3.23882 -2.14371 0
M  V30 21650 H 2007.75 3.26608 -2.38976 0
M  V30 21651 H 2004.51 2.27935 -4.15142 0
M  V30 21652 H 2004.93 1.40542 -6.62251 0
M  V30 21653 H 2009.57 1.92277 -3.76549 0
M  V30 21654 H 2007.29 0.71114 -8.04965 0
M  V30 21655 H 2010.88 1.12228 -5.70873 0
M  V30 21656 H 2009.76 0.525925 -7.82434 0
M  V30 21657 N 2007.26 1.30423 0.884744 0
M  V30 21658 C 2008.19 1.19397 2.00666 0
M  V30 21659 C 2009.17 0.084568 1.6989 0
M  V30 21660 O 2010.36 0.266641 1.92361 0
M  V30 21661 C 2007.49 0.885244 3.35828 0
M  V30 21662 C 2006.44 1.9526 3.80864 0
M  V30 21663 C 2005.77 1.49687 5.13321 0
M  V30 21664 C 2007.07 3.3637 3.99566 0
M  V30 21665 H 2008.76 2.13256 2.10148 0
M  V30 21666 H 2006.31 1.02669 1.00971 0
M  V30 21667 H 2008.26 0.794764 4.13837 0
M  V30 21668 H 2006.98 -0.0890295 3.26479 0
M  V30 21669 H 2005.64 2.03272 3.05084 0
M  V30 21670 H 2005.29 0.510855 5.00399 0
M  V30 21671 H 2004.99 2.2108 5.44424 0
M  V30 21672 H 2006.51 1.42018 5.93855 0
M  V30 21673 H 2007.93 3.31115 4.68012 0
M  V30 21674 H 2006.32 4.05852 4.42046 0
M  V30 21675 H 2007.39 3.78244 3.03414 0
M  V30 21676 N 2008.74 -1.09711 1.13142 0
M  V30 21677 C 2009.99 -1.81198 0.886021 0
M  V30 21678 C 2010.3 -1.86501 -0.589624 0
M  V30 21679 O 2011.51 -2.54267 -0.951866 0
M  V30 21680 C 2009.96 -3.25498 1.53554 0
M  V30 21681 C 2009.57 -3.2847 3.0465 0
M  V30 21682 C 2011.31 -4.01761 1.37072 0
M  V30 21683 C 2009.22 -4.67276 3.62501 0
M  V30 21684 H 2008.15 -0.679005 0.327824 0
M  V30 21685 H 2010.8 -1.23325 1.35879 0
M  V30 21686 H 2009.18 -3.83414 0.990434 0
M  V30 21687 H 2010.36 -2.80336 3.65716 0
M  V30 21688 H 2008.67 -2.65697 3.20615 0
M  V30 21689 H 2011.27 -5.04306 1.77707 0
M  V30 21690 H 2011.61 -4.15105 0.315226 0
M  V30 21691 H 2012.15 -3.50279 1.88545 0
M  V30 21692 H 2008.88 -4.59133 4.67843 0
M  V30 21693 H 2008.4 -5.15746 3.06212 0
M  V30 21694 H 2010.08 -5.36249 3.62002 0
M  V30 21695 N 2010.22 -0.924476 -1.27637 0
M  V30 21696 C 2011.46 -0.563219 -1.9451 0
M  V30 21697 C 2011.79 0.894968 -1.72686 0
M  V30 21698 O 2011.05 1.65323 -1.04722 0
M  V30 21699 C 2011.35 -0.831659 -3.47589 0
M  V30 21700 C 2011.01 -2.27108 -3.89529 0
M  V30 21701 C 2009.67 -2.6646 -4.0069 0
M  V30 21702 C 2012.03 -3.20729 -4.10832 0
M  V30 21703 C 2009.35 -3.98563 -4.3054 0
M  V30 21704 C 2011.71 -4.52409 -4.42164 0
M  V30 21705 C 2010.37 -4.91599 -4.51538 0
M  V30 21706 H 2009.64 -0.206096 -0.711762 0
M  V30 21707 H 2012.29 -1.16783 -1.51769 0
M  V30 21708 H 2010.59 -0.144345 -3.91534 0
M  V30 21709 H 2012.29 -0.531162 -3.97467 0
M  V30 21710 H 2008.88 -1.95577 -3.81376 0
M  V30 21711 H 2013.06 -2.9153 -4.01652 0
M  V30 21712 H 2008.32 -4.28614 -4.36005 0
M  V30 21713 H 2012.49 -5.24957 -4.57595 0
M  V30 21714 H 2010.12 -5.93994 -4.74421 0
M  V30 21715 N 2011.69 1.41711 -0.689627 0
M  V30 21716 C 2012.92 2.06171 -0.225425 0
M  V30 21717 C 2013.34 1.51535 1.11439 0
M  V30 21718 O 2012.7 0.639865 1.69633 0
M  V30 21719 C 2012.75 3.60114 -0.187089 0
M  V30 21720 O 2011.85 4.03757 0.83989 0
M  V30 21721 H 2011.2 0.654551 -0.111621 0
M  V30 21722 H 2013.73 1.81582 -0.942814 0
M  V30 21723 H 2013.74 4.07997 -0.0159369 0
M  V30 21724 H 2012.41 3.99251 -1.16497 0
M  V30 21725 H 2010.99 3.67392 0.638575 0
M  V30 21726 N 2013.17 0.433965 1.51507 0
M  V30 21727 C 2014.42 -0.135114 2.01247 0
M  V30 21728 C 2014.73 -1.4408 1.32289 0
M  V30 21729 O 2015.94 -2.09262 1.72979 0
M  V30 21730 C 2014.4 -0.291335 3.58719 0
M  V30 21731 C 2014 1.00372 4.36611 0
M  V30 21732 C 2015.75 -0.814365 4.16615 0
M  V30 21733 C 2013.66 0.813324 5.85781 0
M  V30 21734 H 2012.59 -0.0542694 0.752044 0
M  V30 21735 H 2015.24 0.563211 1.74643 0
M  V30 21736 H 2013.62 -1.05258 3.81755 0
M  V30 21737 H 2014.79 1.77304 4.25323 0
M  V30 21738 H 2013.11 1.45503 3.90151 0
M  V30 21739 H 2015.7 -0.973246 5.25768 0
M  V30 21740 H 2016.05 -1.79589 3.75571 0
M  V30 21741 H 2016.58 -0.111519 3.97644 0
M  V30 21742 H 2013.32 1.76713 6.31231 0
M  V30 21743 H 2012.84 0.083744 5.99742 0
M  V30 21744 H 2014.52 0.465195 6.45325 0
M  V30 21745 N 2014.65 -1.56732 0.165206 0
M  V30 21746 C 2015.58 -2.13493 -0.805985 0
M  V30 21747 C 2016.56 -1.06335 -1.23011 0
M  V30 21748 O 2017.75 -1.34275 -1.32297 0
M  V30 21749 C 2014.87 -2.6695 -2.08459 0
M  V30 21750 C 2013.92 -3.86423 -1.80497 0
M  V30 21751 S 2014.75 -5.26462 -0.979671 0
M  V30 21752 C 2015.91 -5.83321 -2.26908 0
M  V30 21753 H 2016.14 -2.95536 -0.32336 0
M  V30 21754 H 2013.67 -1.54321 -0.0493706 0
M  V30 21755 H 2015.63 -2.98398 -2.81903 0
M  V30 21756 H 2014.29 -1.85003 -2.53836 0
M  V30 21757 H 2013.49 -4.22134 -2.75352 0
M  V30 21758 H 2013.09 -3.55831 -1.15153 0
M  V30 21759 H 2015.38 -5.95863 -3.22419 0
M  V30 21760 H 2016.32 -6.80527 -1.95675 0
M  V30 21761 H 2016.73 -5.11694 -2.38388 0
M  V30 21762 N 2016.13 0.10854 -1.57226 0
M  V30 21763 C 2017.38 0.812858 -1.85033 0
M  V30 21764 C 2017.7 1.79919 -0.751944 0
M  V30 21765 O 2016.97 1.94626 0.223093 0
M  V30 21766 H 2015.55 0.303181 -0.682708 0
M  V30 21767 H 2018.21 0.0933699 -1.94676 0
M  V30 21768 H 2017.31 1.35169 -2.81311 0
M  V30 21769 N 2017.61 1.52975 0.379009 0
M  V30 21770 C 2018.85 1.68755 1.12471 0
M  V30 21771 C 2019.19 0.431242 1.89351 0
M  V30 21772 O 2018.46 -0.571204 1.85923 0
M  V30 21773 C 2018.74 2.92896 2.09485 0
M  V30 21774 C 2018.6 4.28651 1.36302 0
M  V30 21775 C 2019.92 3.12604 3.09785 0
M  V30 21776 H 2017.03 0.614092 0.407504 0
M  V30 21777 H 2019.68 1.8559 0.406972 0
M  V30 21778 H 2017.83 2.78673 2.70691 0
M  V30 21779 H 2019.5 4.54661 0.779841 0
M  V30 21780 H 2017.74 4.28675 0.664851 0
M  V30 21781 H 2018.41 5.1162 2.07241 0
M  V30 21782 H 2020.89 3.25924 2.58675 0
M  V30 21783 H 2019.76 4.00924 3.74901 0
M  V30 21784 H 2020.03 2.27272 3.79209 0
M  V30 21785 N 2019.08 -0.63804 1.44107 0
M  V30 21786 C 2020.03 -1.77153 1.5073 0
M  V30 21787 C 2021.03 -1.65093 0.379567 0
M  V30 21788 O 2022.23 -1.71255 0.554218 0
M  V30 21789 H 2018.61 -0.584742 0.472843 0
M  V30 21790 H 2020.58 -1.68689 2.46143 0
M  V30 21791 C 2019.33 -3.15467 1.46204 0
M  V30 21792 H 2018.65 -3.25392 2.32293 0
M  V30 21793 H 2020.09 -3.94693 1.54899 0
M  V30 21794 C 2018.55 -3.36409 0.181784 0
M  V30 21795 O 2019.08 -3.94621 -0.750818 0
M  V30 21796 N 2017.29 -2.90469 0.0871207 0
M  V30 21797 H 2016.83 -2.43281 0.846871 0
M  V30 21798 H 2016.79 -3.04857 -0.768744 0
M  V30 21799 N 2020.56 -1.3089 -0.877815 0
M  V30 21800 C 2021.49 -1.20459 -2.0003 0
M  V30 21801 C 2022.47 -0.0935765 -1.69842 0
M  V30 21802 O 2023.66 -0.276838 -1.92217 0
M  V30 21803 C 2020.79 -0.903041 -3.35354 0
M  V30 21804 C 2019.74 -1.97277 -3.79823 0
M  V30 21805 C 2019.07 -1.52407 -5.12519 0
M  V30 21806 C 2020.37 -3.38484 -3.97776 0
M  V30 21807 H 2022.06 -2.14367 -2.09014 0
M  V30 21808 H 2019.61 -1.03203 -1.00425 0
M  V30 21809 H 2021.56 -0.816699 -4.1341 0
M  V30 21810 H 2020.29 0.0717143 -3.26521 0
M  V30 21811 H 2018.94 -2.04887 -3.04001 0
M  V30 21812 H 2018.59 -0.537386 -5.00121 0
M  V30 21813 H 2018.29 -2.23964 -5.43244 0
M  V30 21814 H 2019.82 -1.45165 -5.93093 0
M  V30 21815 H 2021.23 -3.33593 -4.6625 0
M  V30 21816 H 2019.63 -4.0819 -4.39887 0
M  V30 21817 H 2020.7 -3.79847 -3.01403 0
M  V30 21818 N 2022.04 1.0911 -1.13723 0
M  V30 21819 C 2023.29 1.81352 -0.900984 0
M  V30 21820 C 2023.62 1.85876 0.572749 0
M  V30 21821 O 2022.87 1.3252 1.44003 0
M  V30 21822 C 2023.17 3.27193 -1.43805 0
M  V30 21823 C 2022.84 3.42797 -2.92918 0
M  V30 21824 C 2021.5 3.46763 -3.33629 0
M  V30 21825 C 2023.85 3.47067 -3.88837 0
M  V30 21826 C 2021.18 3.52582 -4.68938 0
M  V30 21827 C 2023.53 3.5442 -5.23993 0
M  V30 21828 C 2022.19 3.56657 -5.64227 0
M  V30 21829 H 2021.46 0.663614 -0.329694 0
M  V30 21830 H 2024.11 1.28517 -1.41971 0
M  V30 21831 H 2022.42 3.82687 -0.840093 0
M  V30 21832 H 2024.11 3.81628 -1.23129 0
M  V30 21833 H 2020.7 3.40397 -2.60438 0
M  V30 21834 H 2024.89 3.4324 -3.58469 0
M  V30 21835 H 2020.14 3.52602 -4.99481 0
M  V30 21836 H 2024.32 3.56669 -5.9813 0
M  V30 21837 H 2021.94 3.60918 -6.69061 0
M  V30 21838 N 2023.52 0.931232 1.27145 0
M  V30 21839 C 2024.48 0.43771 2.24982 0
M  V30 21840 C 2025.48 -0.445689 1.545 0
M  V30 21841 O 2026.67 -0.24627 1.7245 0
M  V30 21842 C 2023.8 -0.370327 3.38883 0
M  V30 21843 H 2025 1.30217 2.70154 0
M  V30 21844 H 2022.55 0.712252 1.39128 0
M  V30 21845 H 2023.28 -1.25346 2.99097 0
M  V30 21846 H 2023.07 0.263109 3.91216 0
M  V30 21847 H 2024.56 -0.705876 4.11591 0
M  V30 21848 N 2025 -1.41343 0.697132 0
M  V30 21849 C 2026.25 -2.00806 0.228308 0
M  V30 21850 C 2026.57 -1.55497 -1.17668 0
M  V30 21851 O 2025.84 -0.786272 -1.79428 0
M  V30 21852 H 2024.42 -0.74255 0.0814173 0
M  V30 21853 H 2027.08 -1.72946 0.898641 0
M  V30 21854 H 2026.17 -3.11121 0.246954 0
M  V30 21855 N 2026.48 -0.441993 -1.51275 0
M  V30 21856 C 2027.42 0.367101 -2.27862 0
M  V30 21857 C 2028.39 1.01278 -1.31651 0
M  V30 21858 O 2029.58 1.0308 -1.60559 0
M  V30 21859 C 2026.72 1.45971 -3.12708 0
M  V30 21860 C 2025.83 0.831707 -4.23918 0
M  V30 21861 C 2024.97 1.89976 -4.96067 0
M  V30 21862 C 2024 1.25043 -5.99192 0
M  V30 21863 N 2023.14 2.26005 -6.6473 0
M  V30 21864 H 2027.98 -0.292361 -2.96562 0
M  V30 21865 H 2025.52 -0.156023 -1.4627 0
M  V30 21866 H 2027.48 2.10453 -3.6023 0
M  V30 21867 H 2026.11 2.08874 -2.46113 0
M  V30 21868 H 2025.16 0.0750644 -3.80326 0
M  V30 21869 H 2026.47 0.317691 -4.97787 0
M  V30 21870 H 2025.62 2.62108 -5.4716 0
M  V30 21871 H 2024.36 2.44751 -4.21839 0
M  V30 21872 H 2023.37 0.514597 -5.47386 0
M  V30 21873 H 2024.59 0.709951 -6.75379 0
M  V30 21874 H 2022.54 2.79852 -5.93312 0
M  V30 21875 H 2022.46 1.79508 -7.34379 0
M  V30 21876 H 2023.72 2.97607 -7.20452 0
M  V30 21877 N 2027.95 1.56642 -0.173515 0
M  V30 21878 C 2029.2 1.96949 0.470873 0
M  V30 21879 C 2029.53 1.05958 1.63105 0
M  V30 21880 O 2028.78 0.0941313 1.95473 0
M  V30 21881 C 2029.08 3.43315 0.993457 0
M  V30 21882 C 2028.75 4.50871 -0.05105 0
M  V30 21883 C 2027.41 4.80011 -0.338111 0
M  V30 21884 C 2029.76 5.1563 -0.759912 0
M  V30 21885 C 2027.09 5.71207 -1.33938 0
M  V30 21886 C 2029.44 6.07907 -1.75018 0
M  V30 21887 C 2028.11 6.35413 -2.04467 0
M  V30 21888 H 2027.38 0.720689 0.172305 0
M  V30 21889 H 2030.02 1.89644 -0.265939 0
M  V30 21890 H 2028.33 3.47583 1.80813 0
M  V30 21891 H 2030.03 3.71845 1.50108 0
M  V30 21892 H 2026.62 4.2821 0.182862 0
M  V30 21893 H 2030.8 4.93228 -0.551351 0
M  V30 21894 H 2026.06 5.908 -1.57369 0
M  V30 21895 H 2030.23 6.57154 -2.30481 0
M  V30 21896 H 2027.86 7.0588 -2.82201 0
M  V30 21897 N 2029.43 -0.1002 1.57281 0
M  V30 21898 C 2030.66 -0.817121 1.89754 0
M  V30 21899 C 2031.07 -1.7305 0.764869 0
M  V30 21900 O 2030.41 -1.81669 -0.272384 0
M  V30 21901 C 2030.47 -1.68753 3.17432 0
M  V30 21902 C 2030.14 -0.9465 4.47091 0
M  V30 21903 C 2031.14 -0.278645 5.19153 0
M  V30 21904 C 2028.82 -0.922095 4.93764 0
M  V30 21905 C 2030.81 0.403703 6.3612 0
M  V30 21906 C 2028.5 -0.235958 6.10644 0
M  V30 21907 C 2029.5 0.425768 6.81672 0
M  V30 21908 O 2029.19 1.10091 7.96326 0
M  V30 21909 H 2028.92 -0.239163 0.632279 0
M  V30 21910 H 2031.47 -0.0834139 2.05231 0
M  V30 21911 H 2029.7 -2.46334 2.98088 0
M  V30 21912 H 2031.39 -2.28055 3.35776 0
M  V30 21913 H 2032.16 -0.288994 4.84138 0
M  V30 21914 H 2028.04 -1.4266 4.38371 0
M  V30 21915 H 2031.58 0.920777 6.91497 0
M  V30 21916 H 2027.48 -0.223438 6.45113 0
M  V30 21917 H 2028.25 1.00729 8.12278 0
M  V30 21918 N 2030.91 -1.53174 -0.370891 0
M  V30 21919 C 2031.86 -1.75617 -1.45406 0
M  V30 21920 C 2032.84 -0.610579 -1.48865 0
M  V30 21921 O 2034.04 -0.86906 -1.54196 0
M  V30 21922 C 2031.16 -1.94473 -2.82905 0
M  V30 21923 C 2030.25 -3.15018 -2.83944 0
M  V30 21924 N 2030.64 -4.37029 -2.54635 0
M  V30 21925 C 2028.94 -3.15632 -3.15107 0
M  V30 21926 C 2029.64 -5.1874 -2.63218 0
M  V30 21927 N 2028.62 -4.54831 -2.97708 0
M  V30 21928 H 2032.42 -2.67564 -1.216 0
M  V30 21929 H 2029.93 -1.51727 -0.579026 0
M  V30 21930 H 2031.93 -2.08678 -3.60914 0
M  V30 21931 H 2030.59 -1.03751 -3.07678 0
M  V30 21932 H 2031.6 -4.64853 -2.28325 0
M  V30 21933 H 2028.28 -2.34783 -3.45229 0
M  V30 21934 H 2029.67 -6.2605 -2.4395 0
M  V30 21935 N 2032.39 0.630389 -1.44443 0
M  V30 21936 C 2033.63 1.40149 -1.48787 0
M  V30 21937 C 2033.99 1.9164 -0.117598 0
M  V30 21938 O 2035.19 2.68776 -0.0357153 0
M  V30 21939 C 2033.46 2.53505 -2.51933 0
M  V30 21940 S 2035.02 3.41671 -2.7533 0
M  V30 21941 H 2031.84 0.478109 -0.526244 0
M  V30 21942 H 2034.44 0.729702 -1.81371 0
M  V30 21943 H 2033.15 2.13989 -3.50196 0
M  V30 21944 H 2032.68 3.25509 -2.20923 0
M  V30 21945 H 2034.69 4.50969 -2.06981 0
M  V30 21946 N 2033.87 1.31354 0.870861 0
M  V30 21947 C 2035.11 1.20348 1.61862 0
M  V30 21948 C 2035.43 -0.237373 1.94154 0
M  V30 21949 O 2036.63 -0.469111 2.67417 0
M  V30 21950 C 2035.09 2.10677 2.91793 0
M  V30 21951 C 2034.7 3.59752 2.66987 0
M  V30 21952 C 2036.44 2.08469 3.69785 0
M  V30 21953 C 2034.35 4.42092 3.92821 0
M  V30 21954 H 2033.28 0.446857 0.607317 0
M  V30 21955 H 2035.93 1.56203 0.962965 0
M  V30 21956 H 2034.31 1.6772 3.58728 0
M  V30 21957 H 2035.49 4.10949 2.08465 0
M  V30 21958 H 2033.8 3.63927 2.02351 0
M  V30 21959 H 2036.4 2.67232 4.63132 0
M  V30 21960 H 2036.74 1.07161 4.02271 0
M  V30 21961 H 2037.27 2.49621 3.09732 0
M  V30 21962 H 2034.01 5.44151 3.65486 0
M  V30 21963 H 2033.53 3.95654 4.50797 0
M  V30 21964 H 2035.21 4.54259 4.60714 0
M  V30 21965 N 2035.34 -1.08505 1.143 0
M  V30 21966 C 2036.29 -2.17492 0.824612 0
M  V30 21967 C 2037.29 -1.6825 -0.197073 0
M  V30 21968 O 2038.49 -1.79921 -0.0532722 0
M  V30 21969 H 2034.87 -0.709601 0.248938 0
M  V30 21970 H 2036.84 -2.41572 1.75173 0
M  V30 21971 C 2035.59 -3.46249 0.317355 0
M  V30 21972 H 2034.91 -3.84516 1.09488 0
M  V30 21973 H 2036.35 -4.23791 0.133114 0
M  V30 21974 C 2034.81 -3.22967 -0.958852 0
M  V30 21975 O 2035.34 -3.46468 -2.03281 0
M  V30 21976 N 2033.54 -2.76517 -0.893693 0
M  V30 21977 H 2033.09 -2.57593 -0.0195774 0
M  V30 21978 H 2033.05 -2.61318 -1.74815 0
M  V30 21979 N 2036.82 -0.937962 -1.26649 0
M  V30 21980 C 2038.05 -0.600464 -1.97995 0
M  V30 21981 C 2038.46 0.823838 -1.69877 0
M  V30 21982 O 2037.82 1.5489 -0.965163 0
M  V30 21983 C 2037.87 -0.829264 -3.5186 0
M  V30 21984 O 2037.59 -2.19754 -3.78998 0
M  V30 21985 C 2039.09 -0.501874 -4.4045 0
M  V30 21986 H 2036.31 -0.226587 -0.631585 0
M  V30 21987 H 2038.86 -1.25779 -1.61245 0
M  V30 21988 H 2037.01 -0.218596 -3.86783 0
M  V30 21989 H 2037.43 -2.25518 -4.73542 0
M  V30 21990 H 2038.9 -0.712605 -5.47381 0
M  V30 21991 H 2039.38 0.56301 -4.35576 0
M  V30 21992 H 2039.98 -1.09113 -4.11065 0
M  V30 21993 N 2038.3 1.40971 -0.704618 0
M  V30 21994 C 2039.53 2.05399 -0.248738 0
M  V30 21995 C 2039.94 1.53056 1.10541 0
M  V30 21996 O 2039.3 0.682534 1.69256 0
M  V30 21997 C 2039.35 3.60902 -0.207794 0
M  V30 21998 O 2039.07 4.11311 -1.50846 0
M  V30 21999 C 2040.57 4.42489 0.267977 0
M  V30 22000 H 2037.79 0.661269 -0.11386 0
M  V30 22001 H 2040.34 1.8058 -0.959745 0
M  V30 22002 H 2038.49 3.84729 0.4541 0
M  V30 22003 H 2038.91 5.05426 -1.4016 0
M  V30 22004 H 2040.38 5.51454 0.245489 0
M  V30 22005 H 2040.86 4.1926 1.30836 0
M  V30 22006 H 2041.46 4.23746 -0.363242 0
M  V30 22007 N 2039.78 0.45001 1.51039 0
M  V30 22008 C 2041.01 -0.110496 2.06605 0
M  V30 22009 C 2041.42 -1.35362 1.31615 0
M  V30 22010 O 2040.78 -1.78515 0.379306 0
M  V30 22011 C 2040.83 -0.419948 3.59052 0
M  V30 22012 O 2040.55 0.773848 4.31211 0
M  V30 22013 C 2042.05 -1.02974 4.31174 0
M  V30 22014 H 2039.27 -0.00230221 0.670996 0
M  V30 22015 H 2041.82 0.632737 1.94465 0
M  V30 22016 H 2039.97 -1.11309 3.71065 0
M  V30 22017 H 2040.38 0.505717 5.22056 0
M  V30 22018 H 2041.86 -1.19617 5.38884 0
M  V30 22019 H 2042.34 -2.01422 3.9029 0
M  V30 22020 H 2042.94 -0.375607 4.23638 0
M  V30 22021 N 2041.26 -1.56548 0.18182 0
M  V30 22022 C 2042.5 -1.96807 -0.459512 0
M  V30 22023 C 2042.83 -1.06933 -1.63065 0
M  V30 22024 O 2042.1 -0.137842 -1.95414 0
M  V30 22025 H 2040.68 -0.72675 -0.172753 0
M  V30 22026 H 2043.34 -1.93084 0.265455 0
M  V30 22027 H 2042.43 -3.01338 -0.812522 0
M  V30 22028 N 2042.73 0.0918577 -1.57332 0
M  V30 22029 C 2044.01 0.826617 -1.77275 0
M  V30 22030 C 2044.39 1.96778 -0.764311 0
M  V30 22031 O 2043.74 2.27564 0.20656 0
M  V30 22032 C 2043.95 1.3182 -3.23148 0
M  V30 22033 C 2045.3 1.75968 -3.8642 0
M  V30 22034 O 2046.32 1.41435 -3.26917 0
M  V30 22035 O 2045.18 2.39831 -4.91063 0
M  V30 22036 H 2042.27 0.394537 -0.726821 0
M  V30 22037 H 2044.82 0.0734883 -1.69541 0
M  V30 22038 H 2043.59 0.500733 -3.88083 0
M  V30 22039 H 2043.22 2.13324 -3.35527 0
M  V30 22040 N 2044.21 1.53368 0.362763 0
M  V30 22041 C 2045.63 1.43203 0.704623 0
M  V30 22042 C 2045.83 0.573363 1.9317 0
M  V30 22043 O 2044.88 0.0568943 2.52436 0
M  V30 22044 C 2046.2 2.86434 0.915198 0
M  V30 22045 C 2047.75 2.96085 1.01503 0
M  V30 22046 C 2048.22 4.40383 1.25806 0
M  V30 22047 N 2049.71 4.43824 1.32569 0
M  V30 22048 C 2050.45 5.52586 1.53089 0
M  V30 22049 N 2049.94 6.71389 1.70906 0
M  V30 22050 N 2051.74 5.40169 1.55481 0
M  V30 22051 H 2043.89 2.07701 -0.444302 0
M  V30 22052 H 2046.15 0.938087 -0.136733 0
M  V30 22053 H 2045.86 3.51596 0.0853212 0
M  V30 22054 H 2045.73 3.3025 1.82249 0
M  V30 22055 H 2048.12 2.31074 1.83545 0
M  V30 22056 H 2048.2 2.55659 0.0850686 0
M  V30 22057 H 2047.84 5.05967 0.442642 0
M  V30 22058 H 2047.77 4.78384 2.20128 0
M  V30 22059 H 2050.26 3.58206 1.20402 0
M  V30 22060 H 2050.58 7.50047 1.86144 0
M  V30 22061 H 2048.92 6.7437 1.68079 0
M  V30 22062 H 2052.11 4.46318 1.41131 0
M  V30 22063 H 2052.28 6.24994 1.71131 0
M  V30 22064 N 2045.69 -0.62272 1.44776 0
M  V30 22065 C 2046.94 -1.3821 1.48 0
M  V30 22066 C 2047.27 -1.94155 0.115835 0
M  V30 22067 O 2046.52 -1.74621 -0.883522 0
M  V30 22068 C 2046.82 -2.55936 2.49463 0
M  V30 22069 C 2046.49 -2.1823 3.94571 0
M  V30 22070 C 2045.15 -2.0766 4.34086 0
M  V30 22071 C 2047.5 -1.88574 4.8589 0
M  V30 22072 C 2044.83 -1.65634 5.62834 0
M  V30 22073 C 2047.18 -1.48038 6.15035 0
M  V30 22074 C 2045.84 -1.36016 6.53495 0
M  V30 22075 H 2045.11 -0.505748 0.541572 0
M  V30 22076 H 2047.76 -0.705341 1.78037 0
M  V30 22077 H 2046.07 -3.28883 2.1294 0
M  V30 22078 H 2047.76 -3.14165 2.49201 0
M  V30 22079 H 2044.35 -2.27378 3.63314 0
M  V30 22080 H 2048.54 -1.95645 4.5611 0
M  V30 22081 H 2043.79 -1.54936 5.91443 0
M  V30 22082 H 2047.97 -1.24132 6.85248 0
M  V30 22083 H 2045.59 -1.03224 7.53159 0
M  V30 22084 N 2047.17 -1.31814 -0.863883 0
M  V30 22085 C 2048.45 -1.12477 -1.60026 0
M  V30 22086 C 2048.83 0.318288 -2.08687 0
M  V30 22087 O 2048.17 1.31341 -1.86981 0
M  V30 22088 C 2048.38 -2.14432 -2.75355 0
M  V30 22089 C 2049.73 -2.47276 -3.45166 0
M  V30 22090 O 2050.76 -2.12906 -2.85569 0
M  V30 22091 O 2049.61 -3.06158 -4.52691 0
M  V30 22092 H 2046.71 -0.433423 -0.704325 0
M  V30 22093 H 2049.25 -1.43313 -0.908815 0
M  V30 22094 H 2048.03 -3.11472 -2.36856 0
M  V30 22095 H 2047.65 -1.84536 -3.52182 0
M  V30 22096 N 2048.65 1.07897 -1.14873 0
M  V30 22097 C 2049.9 1.79765 -0.914736 0
M  V30 22098 C 2050.21 1.87416 0.559879 0
M  V30 22099 O 2051.41 2.55749 0.911294 0
M  V30 22100 C 2049.87 3.23014 -1.58713 0
M  V30 22101 C 2049.48 3.23581 -3.09837 0
M  V30 22102 C 2051.22 3.99529 -1.43446 0
M  V30 22103 C 2049.13 4.6145 -3.69889 0
M  V30 22104 H 2048.06 0.673704 -0.338585 0
M  V30 22105 H 2050.71 1.21148 -1.37824 0
M  V30 22106 H 2049.09 3.8179 -1.05131 0
M  V30 22107 H 2050.27 2.74482 -3.7013 0
M  V30 22108 H 2048.58 2.60562 -3.24802 0
M  V30 22109 H 2051.18 5.01415 -1.85708 0
M  V30 22110 H 2051.52 4.14551 -0.381226 0
M  V30 22111 H 2052.05 3.47235 -1.94094 0
M  V30 22112 H 2048.79 4.51632 -4.75088 0
M  V30 22113 H 2048.31 5.10809 -3.14378 0
M  V30 22114 H 2049.99 5.30422 -3.70488 0
M  V30 22115 N 2050.12 0.944665 1.2615 0
M  V30 22116 C 2051.03 0.463226 2.29981 0
M  V30 22117 C 2052.05 -0.464516 1.67685 0
M  V30 22118 O 2053.23 -0.343195 1.98454 0
M  V30 22119 C 2050.29 -0.260612 3.45719 0
M  V30 22120 C 2049.35 0.704117 4.23486 0
M  V30 22121 C 2048.59 0.0147279 5.33698 0
M  V30 22122 O 2048.81 -1.20155 5.57601 0
M  V30 22123 O 2047.74 0.695202 5.97872 0
M  V30 22124 H 2051.57 1.3258 2.73233 0
M  V30 22125 H 2049.15 0.710696 1.31413 0
M  V30 22126 H 2051.04 -0.668207 4.16068 0
M  V30 22127 H 2049.71 -1.09852 3.0449 0
M  V30 22128 H 2048.62 1.16172 3.55605 0
M  V30 22129 H 2049.95 1.50974 4.68474 0
M  V30 22130 N 2051.6 -1.40596 0.712085 0
M  V30 22131 C 2052.88 -1.94794 0.177392 0
M  V30 22132 C 2053.26 -1.65047 -1.31616 0
M  V30 22133 O 2052.61 -0.966262 -2.07064 0
M  V30 22134 C 2052.82 -3.45594 0.486369 0
M  V30 22135 C 2054.17 -4.22487 0.423115 0
M  V30 22136 O 2055.19 -3.53689 0.422227 0
M  V30 22137 O 2054.05 -5.45052 0.397587 0
M  V30 22138 H 2051.14 -0.826632 0.0246541 0
M  V30 22139 H 2053.69 -1.50223 0.789377 0
M  V30 22140 H 2052.46 -3.60591 1.51953 0
M  V30 22141 H 2052.08 -3.97295 -0.155756 0
M  V30 22142 N 2053.08 -0.458013 -1.50798 0
M  V30 22143 C 2054.33 0.101617 -2.02545 0
M  V30 22144 C 2054.66 1.4054 -1.34023 0
M  V30 22145 O 2053.93 1.88941 -0.461705 0
M  V30 22146 C 2054.22 0.298998 -3.58857 0
M  V30 22147 C 2054.07 -1.02488 -4.37968 0
M  V30 22148 C 2055.39 1.05949 -4.27157 0
M  V30 22149 H 2052.51 0.0354565 -0.736147 0
M  V30 22150 H 2055.15 -0.601052 -1.80243 0
M  V30 22151 H 2053.3 0.89752 -3.77991 0
M  V30 22152 H 2054.97 -1.65898 -4.30437 0
M  V30 22153 H 2053.22 -1.62464 -4.02229 0
M  V30 22154 H 2053.89 -0.840572 -5.45562 0
M  V30 22155 H 2056.36 0.55231 -4.12418 0
M  V30 22156 H 2055.24 1.16639 -5.36364 0
M  V30 22157 H 2055.5 2.09283 -3.89427 0
M  V30 22158 N 2054.56 1.56449 -0.190119 0
M  V30 22159 C 2055.51 2.20194 0.749479 0
M  V30 22160 C 2056.5 1.1716 1.22352 0
M  V30 22161 O 2057.71 1.35317 1.18699 0
M  V30 22162 H 2054.08 0.705613 0.260028 0
M  V30 22163 H 2056.05 2.97807 0.18808 0
M  V30 22164 C 2054.8 2.87151 1.9606 0
M  V30 22165 H 2054.13 3.66174 1.60489 0
M  V30 22166 H 2055.57 3.35198 2.5965 0
M  V30 22167 C 2054.02 1.87921 2.7962 0
M  V30 22168 O 2054.55 1.37638 3.77384 0
M  V30 22169 N 2052.76 1.5626 2.45013 0
M  V30 22170 H 2052.31 1.97343 1.6557 0
M  V30 22171 H 2052.27 0.901217 3.01207 0
M  V30 22172 N 2056.04 -0.0835127 1.57379 0
M  V30 22173 C 2056.99 -1.11925 2.03901 0
M  V30 22174 C 2057.98 -1.40782 0.942168 0
M  V30 22175 O 2059.19 -1.40327 1.12732 0
M  V30 22176 H 2055.56 -0.378223 0.649963 0
M  V30 22177 H 2057.53 -0.70065 2.90058 0
M  V30 22178 C 2056.28 -2.42798 2.48887 0
M  V30 22179 H 2055.6 -2.21441 3.32873 0
M  V30 22180 H 2057.04 -3.13744 2.85203 0
M  V30 22181 C 2055.5 -3.07924 1.36692 0
M  V30 22182 O 2056.03 -3.9551 0.702482 0
M  V30 22183 N 2054.24 -2.68359 1.11498 0
M  V30 22184 H 2053.79 -1.97225 1.6571 0
M  V30 22185 H 2053.74 -3.12259 0.366326 0
M  V30 22186 N 2057.52 -1.53558 -0.354624 0
M  V30 22187 C 2058.47 -1.77149 -1.43535 0
M  V30 22188 C 2059.45 -0.626333 -1.48209 0
M  V30 22189 O 2060.64 -0.885366 -1.53265 0
M  V30 22190 C 2057.77 -1.97463 -2.80826 0
M  V30 22191 C 2056.86 -3.18012 -2.80587 0
M  V30 22192 N 2057.25 -4.39705 -2.49986 0
M  V30 22193 C 2055.55 -3.18957 -3.11741 0
M  V30 22194 C 2056.25 -5.21502 -2.57702 0
M  V30 22195 N 2055.22 -4.57963 -2.92867 0
M  V30 22196 H 2059.02 -2.68839 -1.18755 0
M  V30 22197 H 2056.54 -1.52332 -0.562901 0
M  V30 22198 H 2058.54 -2.12494 -3.58681 0
M  V30 22199 H 2057.2 -1.07008 -3.06561 0
M  V30 22200 H 2058.21 -4.67248 -2.23382 0
M  V30 22201 H 2054.88 -2.38432 -3.42719 0
M  V30 22202 H 2056.27 -6.28602 -2.37296 0
M  V30 22203 N 2058.99 0.615033 -1.45104 0
M  V30 22204 C 2060.22 1.40105 -1.52244 0
M  V30 22205 C 2060.64 1.88183 -0.152561 0
M  V30 22206 O 2059.99 1.61783 0.844537 0
M  V30 22207 C 2060.04 2.61056 -2.50064 0
M  V30 22208 O 2059.77 2.14979 -3.81727 0
M  V30 22209 C 2061.27 3.54003 -2.66828 0
M  V30 22210 H 2058.49 0.429133 -0.515835 0
M  V30 22211 H 2061.03 0.750744 -1.90221 0
M  V30 22212 H 2059.19 3.22145 -2.15178 0
M  V30 22213 H 2059.6 2.9351 -4.34686 0
M  V30 22214 H 2061.07 4.35434 -3.39266 0
M  V30 22215 H 2061.55 4.03861 -1.72606 0
M  V30 22216 H 2062.16 2.98773 -3.0268 0
M  V30 22217 N 2060.47 1.3227 0.85688 0
M  V30 22218 C 2061.75 1.13324 1.59427 0
M  V30 22219 C 2062.13 -0.307216 2.08853 0
M  V30 22220 O 2061.48 -1.30347 1.87675 0
M  V30 22221 C 2061.69 2.15889 2.74213 0
M  V30 22222 C 2063.03 2.49103 3.4385 0
M  V30 22223 O 2064.06 2.14417 2.84436 0
M  V30 22224 O 2062.92 3.08555 4.51061 0
M  V30 22225 H 2060.01 0.437152 0.702016 0
M  V30 22226 H 2062.56 1.43793 0.901202 0
M  V30 22227 H 2061.33 3.12724 2.35201 0
M  V30 22228 H 2060.95 1.86401 3.51198 0
M  V30 22229 N 2061.95 -1.07287 1.15444 0
M  V30 22230 C 2063.19 -1.8149 0.940261 0
M  V30 22231 C 2063.55 -1.84734 -0.523206 0
M  V30 22232 O 2064.75 -2.54815 -0.855738 0
M  V30 22233 C 2063.03 -3.22592 1.53848 0
M  V30 22234 S 2064.58 -4.13533 1.4675 0
M  V30 22235 H 2061.4 -0.625317 0.338377 0
M  V30 22236 H 2064 -1.28879 1.47005 0
M  V30 22237 H 2062.71 -3.1782 2.59651 0
M  V30 22238 H 2062.24 -3.80278 1.00758 0
M  V30 22239 H 2064.25 -4.94055 0.460833 0
M  V30 22240 N 2063.43 -0.951342 -1.25647 0
M  V30 22241 C 2064.36 -0.486897 -2.28367 0
M  V30 22242 C 2065.34 0.465072 -1.63619 0
M  V30 22243 O 2066.52 0.364737 -1.90744 0
M  V30 22244 C 2063.65 0.239229 -3.46475 0
M  V30 22245 C 2062.61 -0.627163 -4.2338 0
M  V30 22246 C 2061.93 0.229514 -5.34207 0
M  V30 22247 C 2063.23 -1.90362 -4.86374 0
M  V30 22248 H 2064.93 -1.34542 -2.67467 0
M  V30 22249 H 2062.47 -0.648383 -1.28577 0
M  V30 22250 H 2064.43 0.575251 -4.17455 0
M  V30 22251 H 2063.15 1.13197 -3.06356 0
M  V30 22252 H 2061.81 -0.946222 -3.54178 0
M  V30 22253 H 2061.46 1.12192 -4.90328 0
M  V30 22254 H 2061.16 -0.346852 -5.86575 0
M  V30 22255 H 2062.68 0.560578 -6.08021 0
M  V30 22256 H 2064.1 -1.63422 -5.49515 0
M  V30 22257 H 2062.49 -2.42538 -5.48904 0
M  V30 22258 H 2063.56 -2.60876 -4.08744 0
M  V30 22259 N 2064.91 1.40216 -0.719531 0
M  V30 22260 C 2065.85 2.30695 -0.0695046 0
M  V30 22261 C 2066.82 1.48398 0.746138 0
M  V30 22262 O 2068.01 1.77127 0.709277 0
M  V30 22263 C 2065.15 3.34636 0.843357 0
M  V30 22264 C 2064.26 4.31997 0.0167651 0
M  V30 22265 C 2063.4 5.23005 0.929469 0
M  V30 22266 C 2062.43 6.12023 0.0972024 0
M  V30 22267 N 2061.57 6.95437 0.964997 0
M  V30 22268 H 2066.41 2.85716 -0.846765 0
M  V30 22269 H 2063.95 1.40698 -0.429253 0
M  V30 22270 H 2065.91 3.93473 1.38691 0
M  V30 22271 H 2064.54 2.81108 1.58676 0
M  V30 22272 H 2063.59 3.74909 -0.644016 0
M  V30 22273 H 2064.9 4.94838 -0.627416 0
M  V30 22274 H 2064.05 5.86792 1.54141 0
M  V30 22275 H 2062.79 4.60447 1.60746 0
M  V30 22276 H 2061.8 5.47262 -0.52765 0
M  V30 22277 H 2063.02 6.76641 -0.577347 0
M  V30 22278 H 2060.97 6.35463 1.62857 0
M  V30 22279 H 2060.89 7.5506 0.376943 0
M  V30 22280 H 2062.15 7.63669 1.56299 0
M  V30 22281 N 2066.38 0.466004 1.50553 0
M  V30 22282 C 2067.31 -0.320802 2.31286 0
M  V30 22283 C 2068.29 -0.995008 1.37962 0
M  V30 22284 O 2069.48 -0.993158 1.66883 0
M  V30 22285 C 2066.61 -1.40607 3.17564 0
M  V30 22286 C 2065.56 -0.853763 4.19398 0
M  V30 22287 C 2064.89 -2.03694 4.94381 0
M  V30 22288 C 2066.19 0.131478 5.22134 0
M  V30 22289 H 2067.88 0.352995 2.97312 0
M  V30 22290 H 2065.43 0.171207 1.42979 0
M  V30 22291 H 2067.38 -1.96395 3.72836 0
M  V30 22292 H 2066.11 -2.10857 2.49413 0
M  V30 22293 H 2064.77 -0.317899 3.65219 0
M  V30 22294 H 2064.41 -2.7263 4.22708 0
M  V30 22295 H 2064.11 -1.67364 5.63261 0
M  V30 22296 H 2065.64 -2.59982 5.52487 0
M  V30 22297 H 2067.05 -0.337046 5.72308 0
M  V30 22298 H 2065.45 0.408804 5.98706 0
M  V30 22299 H 2066.52 1.05903 4.73194 0
M  V30 22300 N 2067.86 -1.56346 0.198413 0
M  V30 22301 C 2069.11 -1.96849 -0.439713 0
M  V30 22302 C 2069.42 -1.08829 -1.62529 0
M  V30 22303 O 2070.63 -1.39128 -2.33143 0
M  V30 22304 C 2069.09 -3.50111 -0.83369 0
M  V30 22305 C 2068.69 -4.46799 0.327785 0
M  V30 22306 C 2070.44 -3.99376 -1.43871 0
M  V30 22307 C 2068.34 -5.91336 -0.0873357 0
M  V30 22308 H 2067.27 -0.735034 -0.168052 0
M  V30 22309 H 2069.93 -1.81179 0.290957 0
M  V30 22310 H 2068.31 -3.61297 -1.62112 0
M  V30 22311 H 2069.48 -4.47347 1.10532 0
M  V30 22312 H 2067.8 -4.07746 0.844522 0
M  V30 22313 H 2070.39 -5.04841 -1.76181 0
M  V30 22314 H 2070.74 -3.43877 -2.34637 0
M  V30 22315 H 2071.27 -3.91318 -0.715186 0
M  V30 22316 H 2068.01 -6.50768 0.786222 0
M  V30 22317 H 2067.53 -5.94034 -0.829663 0
M  V30 22318 H 2069.21 -6.44891 -0.522002 0
M  V30 22319 N 2069.34 0.0751653 -1.57421 0
M  V30 22320 C 2070.25 1.10763 -2.06806 0
M  V30 22321 C 2071.27 1.4261 -0.99691 0
M  V30 22322 O 2072.44 1.52854 -1.31139 0
M  V30 22323 C 2069.51 2.40281 -2.49932 0
M  V30 22324 C 2068.57 2.15435 -3.7133 0
M  V30 22325 C 2067.8 3.38777 -4.1239 0
M  V30 22326 O 2068.02 4.4777 -3.53353 0
M  V30 22327 O 2066.96 3.27189 -5.05204 0
M  V30 22328 H 2070.78 0.718102 -2.95088 0
M  V30 22329 H 2068.37 0.289065 -1.46577 0
M  V30 22330 H 2070.25 3.16509 -2.78208 0
M  V30 22331 H 2068.93 2.7862 -1.64781 0
M  V30 22332 H 2067.83 1.36922 -3.48142 0
M  V30 22333 H 2069.17 1.81978 -4.57324 0
M  V30 22334 N 2070.82 1.53744 0.346476 0
M  V30 22335 C 2072.23 1.43943 0.689395 0
M  V30 22336 C 2072.43 0.593819 1.92551 0
M  V30 22337 O 2071.49 0.0836653 2.52361 0
M  V30 22338 C 2072.8 2.87389 0.884766 0
M  V30 22339 C 2074.35 2.97145 0.98357 0
M  V30 22340 C 2074.83 4.41692 1.21128 0
M  V30 22341 N 2076.32 4.45205 1.27855 0
M  V30 22342 C 2077.05 5.54179 1.47219 0
M  V30 22343 N 2076.55 6.73164 1.63775 0
M  V30 22344 N 2078.34 5.41787 1.49743 0
M  V30 22345 H 2070.49 2.07218 -0.466306 0
M  V30 22346 H 2072.76 0.936584 -0.146675 0
M  V30 22347 H 2072.46 3.51667 0.0480249 0
M  V30 22348 H 2072.34 3.32165 1.78736 0
M  V30 22349 H 2074.72 2.33008 1.81084 0
M  V30 22350 H 2074.8 2.55734 0.0579478 0
M  V30 22351 H 2074.45 5.06409 0.388952 0
M  V30 22352 H 2074.38 4.80692 2.15042 0
M  V30 22353 H 2076.87 3.59463 1.16596 0
M  V30 22354 H 2077.18 7.51979 1.78179 0
M  V30 22355 H 2075.53 6.76114 1.60917 0
M  V30 22356 H 2078.72 4.4779 1.36389 0
M  V30 22357 H 2078.89 6.26774 1.64493 0
M  V30 22358 N 2072.3 -0.607329 1.45428 0
M  V30 22359 C 2073.24 -1.73916 1.54454 0
M  V30 22360 C 2074.24 -1.64251 0.4145 0
M  V30 22361 O 2075.44 -1.70041 0.59042 0
M  V30 22362 H 2071.82 -0.574581 0.48514 0
M  V30 22363 H 2073.79 -1.6343 2.49666 0
M  V30 22364 C 2072.54 -3.12295 1.52863 0
M  V30 22365 H 2071.86 -3.20392 2.39142 0
M  V30 22366 H 2073.3 -3.91318 1.63236 0
M  V30 22367 C 2071.76 -3.35948 0.2531 0
M  V30 22368 O 2072.29 -3.96125 -0.666944 0
M  V30 22369 N 2070.5 -2.90219 0.148714 0
M  V30 22370 H 2070.04 -2.4143 0.898284 0
M  V30 22371 H 2070 -3.06419 -0.703907 0
M  V30 22372 N 2073.77 -1.32722 -0.849853 0
M  V30 22373 C 2074.68 -1.2407 -1.99108 0
M  V30 22374 C 2075.7 -0.153362 -1.73323 0
M  V30 22375 O 2076.88 -0.374928 -1.97879 0
M  V30 22376 C 2073.94 -0.96896 -3.32884 0
M  V30 22377 C 2073 -2.14522 -3.71859 0
M  V30 22378 C 2072.24 -1.88635 -4.99252 0
M  V30 22379 O 2072.46 -0.831259 -5.6431 0
M  V30 22380 O 2071.39 -2.74872 -5.35471 0
M  V30 22381 H 2075.22 -2.20019 -2.09345 0
M  V30 22382 H 2072.8 -1.1266 -0.981232 0
M  V30 22383 H 2074.69 -0.834109 -4.13062 0
M  V30 22384 H 2073.36 -0.0396635 -3.23676 0
M  V30 22385 H 2072.27 -2.33556 -2.92237 0
M  V30 22386 H 2073.6 -3.05747 -3.8572 0
M  V30 22387 N 2075.25 1.06673 -1.16011 0
M  V30 22388 C 2076.48 1.83106 -0.963322 0
M  V30 22389 C 2076.9 1.82372 0.488451 0
M  V30 22390 O 2076.25 1.24012 1.33893 0
M  V30 22391 C 2076.3 3.29888 -1.47838 0
M  V30 22392 O 2076.02 3.30717 -2.87328 0
M  V30 22393 C 2077.53 4.23065 -1.32405 0
M  V30 22394 H 2074.75 0.577476 -0.341705 0
M  V30 22395 H 2077.29 1.34611 -1.53948 0
M  V30 22396 H 2075.44 3.75708 -0.944585 0
M  V30 22397 H 2075.86 4.22475 -3.1083 0
M  V30 22398 H 2077.33 5.24098 -1.73279 0
M  V30 22399 H 2077.81 4.38375 -0.269104 0
M  V30 22400 H 2078.42 3.83088 -1.84726 0
M  V30 22401 N 2076.73 0.957992 1.25141 0
M  V30 22402 C 2077.69 0.485333 2.24003 0
M  V30 22403 C 2078.69 -0.412817 1.55411 0
M  V30 22404 O 2079.88 -0.209635 1.72934 0
M  V30 22405 C 2077.02 -0.298362 3.39592 0
M  V30 22406 H 2078.21 1.35918 2.67332 0
M  V30 22407 H 2075.76 0.741602 1.37586 0
M  V30 22408 H 2076.5 -1.18973 3.01688 0
M  V30 22409 H 2076.28 0.346033 3.9057 0
M  V30 22410 H 2077.77 -0.618412 4.12996 0
M  V30 22411 N 2078.21 -1.39832 0.726957 0
M  V30 22412 C 2079.62 -1.54462 0.401692 0
M  V30 22413 C 2079.82 -1.6958 -1.08834 0
M  V30 22414 O 2078.88 -1.69177 -1.87444 0
M  V30 22415 C 2080.19 -2.76679 1.17769 0
M  V30 22416 C 2081.74 -2.90507 1.16511 0
M  V30 22417 C 2082.22 -4.1565 1.9235 0
M  V30 22418 N 2083.71 -4.22674 1.89476 0
M  V30 22419 C 2084.44 -5.18437 2.44971 0
M  V30 22420 N 2083.94 -6.20038 3.0907 0
M  V30 22421 N 2085.73 -5.10596 2.3505 0
M  V30 22422 H 2077.88 -1.28266 1.69297 0
M  V30 22423 H 2080.15 -0.621077 0.716217 0
M  V30 22424 H 2079.85 -2.71823 2.2317 0
M  V30 22425 H 2079.73 -3.69115 0.776799 0
M  V30 22426 H 2082.11 -2.94859 0.119254 0
M  V30 22427 H 2082.19 -1.99157 1.60531 0
M  V30 22428 H 2081.84 -4.1206 2.96933 0
M  V30 22429 H 2081.77 -5.0603 1.45743 0
M  V30 22430 H 2084.26 -3.49892 1.42772 0
M  V30 22431 H 2084.57 -6.89555 3.48903 0
M  V30 22432 H 2082.92 -6.20449 3.13158 0
M  V30 22433 H 2086.11 -4.30154 1.84622 0
M  V30 22434 H 2086.28 -5.85053 2.78599 0
M  V30 22435 N 2079.69 -0.473982 -1.50304 0
M  V30 22436 C 2080.93 0.072235 -2.03272 0
M  V30 22437 C 2081.29 1.37148 -1.34938 0
M  V30 22438 O 2080.58 1.85819 -0.467108 0
M  V30 22439 C 2080.77 0.308841 -3.56063 0
M  V30 22440 C 2080.6 -0.965919 -4.39204 0
M  V30 22441 C 2079.37 -1.51005 -4.82209 0
M  V30 22442 C 2081.57 -1.86208 -4.79407 0
M  V30 22443 N 2079.55 -2.73353 -5.49683 0
M  V30 22444 C 2080.92 -2.93143 -5.46321 0
M  V30 22445 C 2082.98 -1.87212 -4.61363 0
M  V30 22446 C 2081.68 -4.01074 -5.97103 0
M  V30 22447 C 2083.71 -2.94101 -5.13088 0
M  V30 22448 C 2083.07 -3.99754 -5.79979 0
M  V30 22449 H 2079.17 -0.0136677 -0.781881 0
M  V30 22450 H 2081.75 -0.642832 -1.83782 0
M  V30 22451 H 2079.92 0.992949 -3.75493 0
M  V30 22452 H 2081.66 0.849657 -3.9568 0
M  V30 22453 H 2078.41 -1.05884 -4.61612 0
M  V30 22454 H 2078.84 -3.35494 -5.88025 0
M  V30 22455 H 2083.48 -1.06845 -4.09077 0
M  V30 22456 H 2081.2 -4.82256 -6.48425 0
M  V30 22457 H 2084.78 -2.95864 -5.00955 0
M  V30 22458 H 2083.66 -4.81103 -6.19282 0
M  V30 22459 N 2081.16 1.56239 -0.206702 0
M  V30 22460 C 2082.11 2.19624 0.709491 0
M  V30 22461 C 2083.08 1.1471 1.20128 0
M  V30 22462 O 2084.27 1.43008 1.26307 0
M  V30 22463 C 2081.41 2.8686 1.91847 0
M  V30 22464 C 2080.52 4.0633 1.46696 0
M  V30 22465 C 2079.65 4.6139 2.63235 0
M  V30 22466 C 2078.69 5.73193 2.14747 0
M  V30 22467 N 2077.83 6.22608 3.24505 0
M  V30 22468 H 2082.67 2.97558 0.162225 0
M  V30 22469 H 2080.21 1.46941 0.0683253 0
M  V30 22470 H 2082.17 3.24019 2.62807 0
M  V30 22471 H 2080.8 2.1147 2.43886 0
M  V30 22472 H 2079.85 3.74757 0.652809 0
M  V30 22473 H 2081.16 4.87159 1.07131 0
M  V30 22474 H 2080.31 5.00914 3.42301 0
M  V30 22475 H 2079.05 3.79693 3.0608 0
M  V30 22476 H 2078.06 5.33186 1.34139 0
M  V30 22477 H 2079.28 6.56716 1.72919 0
M  V30 22478 H 2077.23 5.43829 3.66859 0
M  V30 22479 H 2077.15 6.98521 2.89145 0
M  V30 22480 H 2078.41 6.66788 4.0375 0
M  V30 22481 N 2082.64 -0.0668159 1.57458 0
M  V30 22482 C 2083.59 -1.09757 2.05076 0
M  V30 22483 C 2084.58 -1.39775 0.957046 0
M  V30 22484 O 2085.79 -1.39123 1.14214 0
M  V30 22485 H 2082.17 -0.371308 0.653938 0
M  V30 22486 H 2084.14 -0.669846 2.90784 0
M  V30 22487 C 2082.89 -2.40144 2.51448 0
M  V30 22488 H 2082.21 -2.17898 3.35202 0
M  V30 22489 H 2083.65 -3.10702 2.88514 0
M  V30 22490 C 2082.11 -3.06457 1.3995 0
M  V30 22491 O 2082.64 -3.94743 0.744392 0
M  V30 22492 N 2080.84 -2.67161 1.14338 0
M  V30 22493 H 2080.39 -1.95457 1.67793 0
M  V30 22494 H 2080.35 -3.11852 0.399425 0
M  V30 22495 N 2084.12 -1.53926 -0.338317 0
M  V30 22496 C 2085.37 -1.71678 -1.07957 0
M  V30 22497 C 2085.7 -0.481294 -1.88141 0
M  V30 22498 O 2084.98 0.521709 -1.87372 0
M  V30 22499 C 2085.26 -2.98347 -2.01646 0
M  V30 22500 C 2085.11 -4.32114 -1.24889 0
M  V30 22501 C 2086.43 -3.20708 -3.01388 0
M  V30 22502 H 2083.55 -0.62468 -0.39108 0
M  V30 22503 H 2086.19 -1.86604 -0.357623 0
M  V30 22504 H 2084.34 -2.85752 -2.63207 0
M  V30 22505 H 2086.01 -4.56568 -0.659021 0
M  V30 22506 H 2084.26 -4.30287 -0.550962 0
M  V30 22507 H 2084.93 -5.16935 -1.93604 0
M  V30 22508 H 2087.4 -3.32667 -2.49943 0
M  V30 22509 H 2086.28 -4.10723 -3.6414 0
M  V30 22510 H 2086.54 -2.37246 -3.7305 0
M  V30 22511 N 2085.6 0.599608 -1.45748 0
M  V30 22512 C 2086.55 1.70982 -1.55028 0
M  V30 22513 C 2087.52 1.61319 -0.395631 0
M  V30 22514 O 2088.7 1.80781 -0.610146 0
M  V30 22515 C 2085.84 3.09304 -1.53052 0
M  V30 22516 C 2084.95 3.29715 -2.79127 0
M  V30 22517 C 2084.09 4.58189 -2.68769 0
M  V30 22518 C 2083.13 4.71885 -3.89861 0
M  V30 22519 N 2082.27 5.91666 -3.77989 0
M  V30 22520 H 2087.11 1.62387 -2.49869 0
M  V30 22521 H 2084.64 0.791687 -1.23979 0
M  V30 22522 H 2086.6 3.89343 -1.49893 0
M  V30 22523 H 2085.23 3.16838 -0.617561 0
M  V30 22524 H 2084.28 2.43397 -2.92339 0
M  V30 22525 H 2085.59 3.35707 -3.68921 0
M  V30 22526 H 2084.75 5.46433 -2.63621 0
M  V30 22527 H 2083.49 4.54608 -1.76587 0
M  V30 22528 H 2082.49 3.82062 -3.95359 0
M  V30 22529 H 2083.72 4.77257 -4.83118 0
M  V30 22530 H 2081.66 5.89115 -2.88582 0
M  V30 22531 H 2081.58 5.98853 -4.61423 0
M  V30 22532 H 2082.85 6.82387 -3.76787 0
M  V30 22533 N 2087.08 1.33171 0.842803 0
M  V30 22534 C 2088.32 1.24589 1.60017 0
M  V30 22535 C 2088.66 -0.188935 1.93279 0
M  V30 22536 O 2087.93 -1.12923 1.58362 0
M  V30 22537 C 2088.21 2.11731 2.91277 0
M  V30 22538 C 2088.07 3.63652 2.64721 0
M  V30 22539 C 2089.39 1.98749 3.92666 0
M  V30 22540 H 2086.51 0.453935 0.580613 0
M  V30 22541 H 2089.15 1.63234 0.972356 0
M  V30 22542 H 2087.3 1.78904 3.44856 0
M  V30 22543 H 2088.97 4.06751 2.17604 0
M  V30 22544 H 2087.21 3.85728 1.98486 0
M  V30 22545 H 2087.88 4.19966 3.58236 0
M  V30 22546 H 2090.36 2.2753 3.48381 0
M  V30 22547 H 2089.24 2.61979 4.82347 0
M  V30 22548 H 2089.5 0.958565 4.31583 0
M  V30 22549 N 2088.56 -1.06056 1.16576 0
M  V30 22550 C 2089.5 -2.15694 0.87056 0
M  V30 22551 C 2090.5 -1.6863 -0.161341 0
M  V30 22552 O 2091.7 -1.79994 -0.0150963 0
M  V30 22553 H 2088.08 -0.704161 0.263934 0
M  V30 22554 H 2090.05 -2.37802 1.80258 0
M  V30 22555 C 2088.8 -3.45498 0.390729 0
M  V30 22556 H 2088.12 -3.82107 1.17619 0
M  V30 22557 H 2089.56 -4.23413 0.222977 0
M  V30 22558 C 2088.02 -3.24928 -0.890131 0
M  V30 22559 O 2088.55 -3.50702 -1.95886 0
M  V30 22560 N 2086.76 -2.7835 -0.834838 0
M  V30 22561 H 2086.3 -2.57576 0.0350662 0
M  V30 22562 H 2086.26 -2.64967 -1.69233 0
M  V30 22563 N 2090.03 -0.964615 -1.24631 0
M  V30 22564 C 2091.28 -0.624816 -1.9262 0
M  V30 22565 C 2091.61 0.839576 -1.75446 0
M  V30 22566 O 2090.86 1.61908 -1.09929 0
M  V30 22567 C 2091.16 -0.941821 -3.44767 0
M  V30 22568 C 2090.83 -2.39386 -3.82106 0
M  V30 22569 C 2089.49 -2.79073 -3.9201 0
M  V30 22570 C 2091.84 -3.33637 -4.0042 0
M  V30 22571 C 2089.17 -4.12059 -4.17642 0
M  V30 22572 C 2091.52 -4.66247 -4.27547 0
M  V30 22573 C 2090.19 -5.05716 -4.35669 0
M  V30 22574 H 2089.46 -0.228636 -0.704845 0
M  V30 22575 H 2092.1 -1.21552 -1.47977 0
M  V30 22576 H 2090.41 -0.268835 -3.90877 0
M  V30 22577 H 2092.11 -0.657344 -3.95576 0
M  V30 22578 H 2088.7 -2.07611 -3.74961 0
M  V30 22579 H 2092.88 -3.0416 -3.92174 0
M  V30 22580 H 2088.14 -4.42268 -4.22148 0
M  V30 22581 H 2092.31 -5.39249 -4.40662 0
M  V30 22582 H 2089.94 -6.08786 -4.55284 0
M  V30 22583 N 2091.51 1.39445 -0.734362 0
M  V30 22584 C 2092.79 1.94487 -0.208359 0
M  V30 22585 C 2093.17 1.6712 1.28974 0
M  V30 22586 O 2092.52 0.999082 2.05501 0
M  V30 22587 C 2092.73 3.44777 -0.541289 0
M  V30 22588 C 2094.07 4.2176 -0.490275 0
M  V30 22589 O 2095.1 3.52972 -0.478443 0
M  V30 22590 O 2093.96 5.4435 -0.48425 0
M  V30 22591 H 2091.05 0.826136 -0.037802 0
M  V30 22592 H 2093.6 1.48948 -0.813177 0
M  V30 22593 H 2092.37 3.58128 -1.5767 0
M  V30 22594 H 2091.99 3.97492 0.0925302 0
M  V30 22595 N 2092.99 0.481946 1.5005 0
M  V30 22596 C 2093.94 -0.320472 2.30382 0
M  V30 22597 C 2094.93 -0.980434 1.38144 0
M  V30 22598 O 2096.14 -0.910298 1.55285 0
M  V30 22599 H 2092.51 -0.122196 0.742006 0
M  V30 22600 H 2094.48 0.377305 2.96005 0
M  V30 22601 C 2093.23 -1.38347 3.18991 0
M  V30 22602 H 2092.56 -0.885033 3.89881 0
M  V30 22603 H 2094 -1.91728 3.78175 0
M  V30 22604 C 2092.45 -2.39133 2.37313 0
M  V30 22605 O 2092.98 -3.44629 2.06383 0
M  V30 22606 N 2091.19 -2.11122 1.9969 0
M  V30 22607 H 2090.74 -1.25354 2.25043 0
M  V30 22608 H 2090.7 -2.78787 1.45345 0
M  V30 22609 N 2094.47 -1.56127 0.214985 0
M  V30 22610 C 2095.71 -1.98422 -0.41911 0
M  V30 22611 C 2096.05 -1.10235 -1.59881 0
M  V30 22612 O 2095.32 -0.158603 -1.93852 0
M  V30 22613 C 2095.6 -3.49679 -0.86003 0
M  V30 22614 C 2095.46 -4.4864 0.322851 0
M  V30 22615 C 2096.78 -4.0516 -1.71854 0
M  V30 22616 H 2093.9 -0.721393 -0.150867 0
M  V30 22617 H 2096.54 -1.87456 0.309902 0
M  V30 22618 H 2094.69 -3.59155 -1.48121 0
M  V30 22619 H 2096.36 -4.51181 0.960896 0
M  V30 22620 H 2094.6 -4.22784 0.97138 0
M  V30 22621 H 2095.27 -5.51993 -0.028492 0
M  V30 22622 H 2097.75 -3.98587 -1.19448 0
M  V30 22623 H 2096.63 -5.11324 -1.99596 0
M  V30 22624 H 2096.89 -3.51638 -2.67962 0
M  V30 22625 N 2095.95 0.0584645 -1.57492 0
M  V30 22626 C 2097.19 0.75358 -1.87525 0
M  V30 22627 C 2097.51 1.77436 -0.808803 0
M  V30 22628 O 2096.78 1.95237 0.161061 0
M  V30 22629 H 2095.36 0.281308 -0.692008 0
M  V30 22630 H 2098.03 0.0313879 -1.94875 0
M  V30 22631 H 2097.12 1.26151 -2.85469 0
M  V30 22632 N 2097.42 1.54103 0.330149 0
M  V30 22633 C 2098.67 1.71993 1.06886 0
M  V30 22634 C 2099 0.490142 1.88223 0
M  V30 22635 O 2098.25 -0.528125 1.88439 0
M  V30 22636 C 2098.55 2.94358 2.02702 0
M  V30 22637 C 2098.22 4.294 1.37572 0
M  V30 22638 C 2096.88 4.66116 1.1954 0
M  V30 22639 C 2099.23 5.13235 0.907703 0
M  V30 22640 C 2096.56 5.8427 0.533447 0
M  V30 22641 C 2098.91 6.32067 0.259603 0
M  V30 22642 C 2097.58 6.67466 0.0670758 0
M  V30 22643 H 2096.85 0.629366 0.391125 0
M  V30 22644 H 2099.49 1.88335 0.346701 0
M  V30 22645 H 2097.8 2.72675 2.81346 0
M  V30 22646 H 2099.5 3.05394 2.59877 0
M  V30 22647 H 2096.09 4.00511 1.52608 0
M  V30 22648 H 2100.27 4.85392 1.03482 0
M  V30 22649 H 2095.53 6.10261 0.373022 0
M  V30 22650 H 2099.7 6.96311 -0.111078 0
M  V30 22651 H 2097.33 7.58879 -0.447886 0
M  V30 22652 N 2098.9 -0.59187 1.46064 0
M  V30 22653 C 2100.15 -1.34773 1.50601 0
M  V30 22654 C 2100.47 -1.94379 0.155452 0
M  V30 22655 O 2099.74 -1.7805 -0.816999 0
M  V30 22656 H 2098.32 -0.50037 0.554652 0
M  V30 22657 H 2100.98 -0.69386 1.82131 0
M  V30 22658 H 2100.08 -2.15914 2.25361 0
M  V30 22659 N 2100.38 -1.33616 -0.835729 0
M  V30 22660 C 2101.61 -1.28111 -1.62084 0
M  V30 22661 C 2102.02 0.149577 -1.88608 0
M  V30 22662 O 2101.36 1.10314 -1.4689 0
M  V30 22663 C 2101.42 -1.99073 -2.9935 0
M  V30 22664 C 2101.09 -3.48371 -2.95781 0
M  V30 22665 C 2102.08 -4.43516 -2.71273 0
M  V30 22666 C 2099.77 -3.90595 -3.15818 0
M  V30 22667 C 2101.76 -5.78859 -2.66835 0
M  V30 22668 C 2099.45 -5.26041 -3.11004 0
M  V30 22669 C 2100.45 -6.19985 -2.86544 0
M  V30 22670 O 2100.14 -7.5295 -2.8164 0
M  V30 22671 H 2099.87 -0.442615 -0.510948 0
M  V30 22672 H 2102.42 -1.76601 -1.04887 0
M  V30 22673 H 2100.65 -1.45179 -3.58413 0
M  V30 22674 H 2102.34 -1.87026 -3.60245 0
M  V30 22675 H 2103.11 -4.12218 -2.55541 0
M  V30 22676 H 2098.99 -3.1788 -3.33876 0
M  V30 22677 H 2102.53 -6.52157 -2.47663 0
M  V30 22678 H 2098.43 -5.56963 -3.26286 0
M  V30 22679 H 2099.2 -7.62535 -2.97459 0
M  V30 22680 N 2101.86 1.05436 -1.17136 0
M  V30 22681 C 2102.79 2.15075 -0.909112 0
M  V30 22682 C 2103.77 1.69455 0.147942 0
M  V30 22683 O 2104.95 1.942 -0.00177952 0
M  V30 22684 C 2102.08 3.44764 -0.41892 0
M  V30 22685 C 2101.04 4.03937 -1.41488 0
M  V30 22686 C 2100.36 5.2894 -0.782739 0
M  V30 22687 C 2101.66 4.4171 -2.78728 0
M  V30 22688 H 2103.36 2.37271 -1.826 0
M  V30 22689 H 2100.9 1.14031 -0.879376 0
M  V30 22690 H 2102.86 4.2081 -0.222885 0
M  V30 22691 H 2101.58 3.22213 0.533496 0
M  V30 22692 H 2100.24 3.29958 -1.59761 0
M  V30 22693 H 2099.89 5.0269 0.176435 0
M  V30 22694 H 2099.59 5.6949 -1.44758 0
M  V30 22695 H 2101.11 6.07675 -0.596922 0
M  V30 22696 H 2102.53 5.08801 -2.64187 0
M  V30 22697 H 2100.92 4.93271 -3.41766 0
M  V30 22698 H 2101.99 3.52168 -3.33325 0
M  V30 22699 N 2103.34 0.971211 1.24118 0
M  V30 22700 C 2104.56 0.652357 1.96873 0
M  V30 22701 C 2104.99 -0.772193 1.71519 0
M  V30 22702 O 2104.34 -1.52463 0.981051 0
M  V30 22703 C 2104.39 0.937388 3.48203 0
M  V30 22704 O 2103.5 0.0246311 4.12393 0
M  V30 22705 H 2102.84 0.246274 0.61664 0
M  V30 22706 H 2105.37 1.30231 1.578 0
M  V30 22707 H 2105.38 0.870349 3.98609 0
M  V30 22708 H 2104.05 1.97556 3.65984 0
M  V30 22709 H 2102.63 0.145292 3.72617 0
M  V30 22710 N 2104.81 -1.39054 0.741747 0
M  V30 22711 C 2105.74 -2.33184 0.121433 0
M  V30 22712 C 2106.73 -1.54261 -0.716774 0
M  V30 22713 O 2107.91 -1.82627 -0.660379 0
M  V30 22714 C 2105.04 -3.38393 -0.78152 0
M  V30 22715 C 2103.99 -4.27974 -0.046955 0
M  V30 22716 C 2103.32 -5.23938 -1.06737 0
M  V30 22717 C 2104.62 -5.10272 1.11446 0
M  V30 22718 H 2106.31 -2.85308 0.907724 0
M  V30 22719 H 2103.86 -1.37179 0.437953 0
M  V30 22720 H 2105.81 -4.032 -1.22506 0
M  V30 22721 H 2104.54 -2.84724 -1.6 0
M  V30 22722 H 2103.2 -3.64656 0.377036 0
M  V30 22723 H 2102.84 -4.66562 -1.8796 0
M  V30 22724 H 2102.54 -5.84725 -0.580605 0
M  V30 22725 H 2104.07 -5.91622 -1.51048 0
M  V30 22726 H 2105.48 -5.68386 0.749042 0
M  V30 22727 H 2103.88 -5.80234 1.53131 0
M  V30 22728 H 2104.95 -4.44706 1.93299 0
M  V30 22729 N 2106.29 -0.489897 -1.49792 0
M  V30 22730 C 2107.22 0.283966 -2.31767 0
M  V30 22731 C 2108.2 0.972934 -1.39528 0
M  V30 22732 O 2109.39 0.966482 -1.68442 0
M  V30 22733 C 2106.52 1.35538 -3.19761 0
M  V30 22734 C 2105.47 0.786932 -4.20703 0
M  V30 22735 C 2104.8 1.95803 -4.97559 0
M  V30 22736 C 2106.1 -0.214528 -5.21859 0
M  V30 22737 H 2107.79 -0.40025 -2.96713 0
M  V30 22738 H 2105.34 -0.193932 -1.42688 0
M  V30 22739 H 2107.29 1.90438 -3.75914 0
M  V30 22740 H 2106.02 2.06862 -2.52736 0
M  V30 22741 H 2104.67 0.259755 -3.65679 0
M  V30 22742 H 2104.32 2.65871 -4.26992 0
M  V30 22743 H 2104.02 1.58381 -5.65853 0
M  V30 22744 H 2105.55 2.51159 -5.56553 0
M  V30 22745 H 2106.96 0.245954 -5.72772 0
M  V30 22746 H 2105.36 -0.504002 -5.9798 0
M  V30 22747 H 2106.43 -1.13417 -4.71449 0
M  V30 22748 N 2107.77 1.56011 -0.223262 0
M  V30 22749 C 2108.7 2.17647 0.718502 0
M  V30 22750 C 2109.72 1.14602 1.15629 0
M  V30 22751 O 2110.9 1.41574 1.08715 0
M  V30 22752 C 2108 2.74665 1.98525 0
M  V30 22753 C 2107.18 4.02896 1.70275 0
M  V30 22754 C 2106.24 4.44462 2.81673 0
M  V30 22755 O 2105.26 5.11326 2.5007 0
M  V30 22756 N 2106.46 4.10287 4.10664 0
M  V30 22757 H 2109.23 2.99089 0.191253 0
M  V30 22758 H 2106.79 1.61845 -0.0423185 0
M  V30 22759 H 2108.78 2.99442 2.72244 0
M  V30 22760 H 2107.35 1.97516 2.42293 0
M  V30 22761 H 2106.57 3.85957 0.801915 0
M  V30 22762 H 2107.86 4.86545 1.48833 0
M  V30 22763 H 2107.26 3.5656 4.39183 0
M  V30 22764 H 2105.82 4.39952 4.80921 0
M  V30 22765 N 2109.25 -0.0501116 1.5752 0
M  V30 22766 C 2110.49 -0.7462 1.88573 0
M  V30 22767 C 2110.83 -1.76115 0.818369 0
M  V30 22768 O 2110.1 -1.93764 -0.169013 0
M  V30 22769 C 2110.39 -1.43474 3.30284 0
M  V30 22770 C 2110.24 -0.434736 4.47694 0
M  V30 22771 C 2111.56 -2.37419 3.70568 0
M  V30 22772 H 2108.68 -0.269807 0.685838 0
M  V30 22773 H 2111.32 -0.00912382 1.89998 0
M  V30 22774 H 2109.47 -2.06301 3.29199 0
M  V30 22775 H 2111.14 0.189992 4.60909 0
M  V30 22776 H 2109.38 0.24799 4.33091 0
M  V30 22777 H 2110.05 -0.954564 5.43684 0
M  V30 22778 H 2112.53 -1.84653 3.72884 0
M  V30 22779 H 2111.41 -2.82587 4.7057 0
M  V30 22780 H 2111.67 -3.2318 3.01674 0
M  V30 22781 N 2110.73 -1.54276 -0.321972 0
M  V30 22782 C 2111.69 -1.83051 -1.37931 0
M  V30 22783 C 2112.69 -0.702392 -1.44648 0
M  V30 22784 O 2113.88 -0.970701 -1.44648 0
M  V30 22785 C 2111.01 -1.99197 -2.76647 0
M  V30 22786 H 2112.2 -2.77523 -1.1367 0
M  V30 22787 H 2109.76 -1.46018 -0.55754 0
M  V30 22788 H 2110.49 -1.06942 -3.0616 0
M  V30 22789 H 2110.28 -2.81289 -2.73164 0
M  V30 22790 H 2111.77 -2.22902 -3.53135 0
M  V30 22791 N 2112.2 0.584116 -1.46376 0
M  V30 22792 C 2113.43 1.36845 -1.55181 0
M  V30 22793 C 2113.85 1.87817 -0.192443 0
M  V30 22794 O 2113.2 1.63538 0.81003 0
M  V30 22795 C 2113.26 2.55694 -2.55545 0
M  V30 22796 O 2112.98 2.06834 -3.86201 0
M  V30 22797 C 2114.48 3.48263 -2.74277 0
M  V30 22798 H 2111.7 0.418095 -0.524822 0
M  V30 22799 H 2114.24 0.710227 -1.91771 0
M  V30 22800 H 2112.4 3.17508 -2.21963 0
M  V30 22801 H 2112.81 2.84224 -4.40814 0
M  V30 22802 H 2114.28 4.2814 -3.48426 0
M  V30 22803 H 2114.76 4.00109 -1.81134 0
M  V30 22804 H 2115.37 2.92285 -3.08949 0
M  V30 22805 N 2113.68 1.34058 0.828631 0
M  V30 22806 C 2114.93 1.26093 1.58451 0
M  V30 22807 C 2115.26 -0.170623 1.9375 0
M  V30 22808 O 2114.51 -1.13044 1.59748 0
M  V30 22809 C 2114.81 2.09161 2.89804 0
M  V30 22810 C 2114.48 3.58234 2.73823 0
M  V30 22811 C 2113.14 3.98873 2.69172 0
M  V30 22812 C 2115.49 4.52919 2.57903 0
M  V30 22813 C 2112.82 5.32398 2.46514 0
M  V30 22814 C 2115.17 5.86617 2.36777 0
M  V30 22815 C 2113.84 6.26426 2.30534 0
M  V30 22816 H 2113.11 0.461406 0.579815 0
M  V30 22817 H 2115.75 1.65745 0.959215 0
M  V30 22818 H 2114.06 1.62319 3.56595 0
M  V30 22819 H 2115.76 2.00349 3.47363 0
M  V30 22820 H 2112.35 3.25973 2.7828 0
M  V30 22821 H 2116.53 4.22423 2.60523 0
M  V30 22822 H 2111.79 5.62268 2.40135 0
M  V30 22823 H 2115.96 6.5958 2.23444 0
M  V30 22824 H 2113.59 7.29826 2.12738 0
M  V30 22825 N 2115.16 -1.04814 1.17694 0
M  V30 22826 C 2116.11 -2.12651 0.897118 0
M  V30 22827 C 2117.08 -1.65323 -0.160501 0
M  V30 22828 O 2118.26 -1.90787 -0.0224765 0
M  V30 22829 C 2115.4 -3.42526 0.420731 0
M  V30 22830 C 2114.52 -4.03508 1.54291 0
M  V30 22831 C 2113.65 -5.21315 1.02001 0
M  V30 22832 C 2112.69 -5.74311 2.11738 0
M  V30 22833 N 2111.83 -6.83415 1.60897 0
M  V30 22834 H 2116.67 -2.35925 1.82054 0
M  V30 22835 H 2114.2 -1.15736 0.907948 0
M  V30 22836 H 2116.16 -4.1701 0.126057 0
M  V30 22837 H 2114.79 -3.19423 -0.46572 0
M  V30 22838 H 2113.84 -3.26425 1.95323 0
M  V30 22839 H 2115.16 -4.38876 2.37042 0
M  V30 22840 H 2114.31 -6.02884 0.679408 0
M  V30 22841 H 2113.05 -4.87431 0.161982 0
M  V30 22842 H 2112.05 -4.91369 2.46651 0
M  V30 22843 H 2113.28 -6.10242 2.97963 0
M  V30 22844 H 2111.23 -6.51421 0.773715 0
M  V30 22845 H 2111.14 -7.17807 2.37252 0
M  V30 22846 H 2112.41 -7.68627 1.29741 0
M  V30 22847 N 2116.64 -0.977779 -1.23601 0
M  V30 22848 C 2117.89 -0.643936 -1.91567 0
M  V30 22849 C 2118.21 0.824798 -1.76698 0
M  V30 22850 O 2117.48 1.58974 -1.14473 0
M  V30 22851 H 2116.06 -0.235177 -0.709014 0
M  V30 22852 H 2118.72 -1.24103 -1.50282 0
M  V30 22853 H 2117.82 -0.893282 -2.99043 0
M  V30 22854 N 2118.12 1.38658 -0.749111 0
M  V30 22855 C 2119.36 2.00982 -0.312667 0
M  V30 22856 C 2119.72 1.58395 1.09219 0
M  V30 22857 O 2119.01 0.809383 1.73665 0
M  V30 22858 C 2119.21 3.55494 -0.368653 0
M  V30 22859 C 2119.03 4.13084 -1.77741 0
M  V30 22860 C 2117.8 4.45048 -2.39292 0
M  V30 22861 C 2120 4.35653 -2.73334 0
M  V30 22862 N 2117.98 4.8822 -3.72175 0
M  V30 22863 C 2119.36 4.81185 -3.90975 0
M  V30 22864 C 2121.41 4.17744 -2.70914 0
M  V30 22865 C 2120.11 5.10686 -5.0655 0
M  V30 22866 C 2122.14 4.48367 -3.85643 0
M  V30 22867 C 2121.5 4.94119 -5.02022 0
M  V30 22868 H 2117.6 0.765252 -0.160975 0
M  V30 22869 H 2120.18 1.68348 -0.978105 0
M  V30 22870 H 2118.36 3.87485 0.266496 0
M  V30 22871 H 2120.09 4.04605 0.0876825 0
M  V30 22872 H 2116.84 4.33336 -1.91095 0
M  V30 22873 H 2117.27 5.14146 -4.40435 0
M  V30 22874 H 2121.91 3.81563 -1.82124 0
M  V30 22875 H 2119.63 5.45765 -5.95958 0
M  V30 22876 H 2123.21 4.3612 -3.85085 0
M  V30 22877 H 2122.09 5.17363 -5.89326 0
M  V30 22878 N 2119.6 0.497834 1.49531 0
M  V30 22879 C 2120.53 -0.328854 2.25818 0
M  V30 22880 C 2121.51 -0.97314 1.30264 0
M  V30 22881 O 2122.69 -1.00386 1.59546 0
M  V30 22882 C 2119.82 -1.46289 3.05479 0
M  V30 22883 C 2118.86 -0.933294 4.16163 0
M  V30 22884 S 2119.7 0.173411 5.35219 0
M  V30 22885 C 2120.85 -0.963862 6.18434 0
M  V30 22886 H 2121.09 0.318653 2.95587 0
M  V30 22887 H 2118.62 0.283085 1.51783 0
M  V30 22888 H 2120.58 -2.11268 3.5196 0
M  V30 22889 H 2119.24 -2.08199 2.35185 0
M  V30 22890 H 2118.43 -1.78306 4.71405 0
M  V30 22891 H 2118.03 -0.360765 3.72256 0
M  V30 22892 H 2120.32 -1.86978 6.51188 0
M  V30 22893 H 2121.27 -0.450129 7.06668 0
M  V30 22894 H 2121.68 -1.22977 5.50942 0
M  V30 22895 N 2121.07 -1.5589 0.231532 0
M  V30 22896 C 2122.35 -1.90424 -0.446981 0
M  V30 22897 C 2122.73 -1.15023 -1.77011 0
M  V30 22898 O 2122.08 -0.262744 -2.26984 0
M  V30 22899 C 2122.29 -3.43264 -0.630152 0
M  V30 22900 C 2123.64 -4.14221 -0.933046 0
M  V30 22901 O 2124.66 -3.48918 -0.716578 0
M  V30 22902 O 2123.52 -5.29705 -1.34441 0
M  V30 22903 H 2120.61 -0.792099 -0.237715 0
M  V30 22904 H 2123.16 -1.67466 0.274458 0
M  V30 22905 H 2121.93 -3.90127 0.302739 0
M  V30 22906 H 2121.55 -3.72035 -1.40271 0
M  V30 22907 N 2122.55 0.0417572 -1.57545 0
M  V30 22908 C 2123.8 0.734075 -1.87868 0
M  V30 22909 C 2124.11 1.77194 -0.828352 0
M  V30 22910 O 2125.32 2.51595 -1.02039 0
M  V30 22911 C 2123.78 1.35664 -3.33352 0
M  V30 22912 C 2123.38 0.355779 -4.46585 0
M  V30 22913 C 2125.13 2.02957 -3.72839 0
M  V30 22914 C 2123.03 0.985962 -5.83123 0
M  V30 22915 H 2121.96 0.277922 -0.70091 0
M  V30 22916 H 2124.62 -0.0119297 -1.83496 0
M  V30 22917 H 2123 2.15192 -3.32428 0
M  V30 22918 H 2124.17 -0.411871 -4.58956 0
M  V30 22919 H 2122.49 -0.214356 -4.15848 0
M  V30 22920 H 2125.08 2.50935 -4.72161 0
M  V30 22921 H 2125.43 2.84222 -3.04176 0
M  V30 22922 H 2125.96 1.3022 -3.75882 0
M  V30 22923 H 2122.7 0.212992 -6.55154 0
M  V30 22924 H 2122.22 1.72375 -5.74497 0
M  V30 22925 H 2123.9 1.49705 -6.29442 0
M  V30 22926 N 2124.03 1.54445 0.313786 0
M  V30 22927 C 2124.96 1.79371 1.41072 0
M  V30 22928 C 2125.94 0.644191 1.49295 0
M  V30 22929 O 2127.12 0.882726 1.66554 0
M  V30 22930 C 2124.25 1.91902 2.7909 0
M  V30 22931 C 2123.3 3.14253 2.88352 0
M  V30 22932 S 2124.13 4.7263 2.51757 0
M  V30 22933 C 2125.29 4.8808 3.91828 0
M  V30 22934 H 2125.52 2.72131 1.19717 0
M  V30 22935 H 2123.05 1.45693 0.51118 0
M  V30 22936 H 2125.01 1.99807 3.58591 0
M  V30 22937 H 2123.67 1.00103 2.97722 0
M  V30 22938 H 2122.86 3.19785 3.89556 0
M  V30 22939 H 2122.47 3.04729 2.16833 0
M  V30 22940 H 2124.76 4.71317 4.86689 0
M  V30 22941 H 2125.7 5.90178 3.91274 0
M  V30 22942 H 2126.11 4.16316 3.81236 0
M  V30 22943 N 2125.51 -0.576345 1.46683 0
M  V30 22944 C 2126.74 -1.35822 1.55679 0
M  V30 22945 C 2127.15 -1.8815 0.199067 0
M  V30 22946 O 2126.49 -1.64638 -0.814857 0
M  V30 22947 C 2126.55 -2.57736 2.50624 0
M  V30 22948 C 2126.21 -2.26831 3.96733 0
M  V30 22949 C 2127.21 -1.8528 4.85765 0
M  V30 22950 C 2124.9 -2.38779 4.41916 0
M  V30 22951 C 2126.89 -1.5608 6.17995 0
M  V30 22952 C 2124.58 -2.09192 5.74179 0
M  V30 22953 C 2125.58 -1.67909 6.62039 0
M  V30 22954 O 2125.26 -1.38688 7.91847 0
M  V30 22955 H 2125 -0.42105 0.52886 0
M  V30 22956 H 2127.55 -0.706986 1.92849 0
M  V30 22957 H 2125.78 -3.25686 2.08484 0
M  V30 22958 H 2127.47 -3.19807 2.49956 0
M  V30 22959 H 2128.23 -1.75558 4.52111 0
M  V30 22960 H 2124.11 -2.69874 3.7375 0
M  V30 22961 H 2127.66 -1.23783 6.8653 0
M  V30 22962 H 2123.55 -2.1854 6.0738 0
M  V30 22963 H 2124.32 -1.5248 8.04172 0
M  V30 22964 N 2126.99 -1.34495 -0.82151 0
M  V30 22965 C 2127.95 -1.2608 -1.91407 0
M  V30 22966 C 2128.95 -0.175671 -1.59838 0
M  V30 22967 O 2130.14 -0.428389 -1.6885 0
M  V30 22968 C 2127.27 -0.9469 -3.27485 0
M  V30 22969 H 2128.46 -2.23212 -2.00291 0
M  V30 22970 H 2126.02 -1.18804 -1.01565 0
M  V30 22971 H 2126.75 0.0211878 -3.24293 0
M  V30 22972 H 2126.54 -1.73181 -3.51782 0
M  V30 22973 H 2128.03 -0.913228 -4.07492 0
M  V30 22974 N 2128.46 1.04188 -1.18248 0
M  V30 22975 C 2129.43 2.10339 -0.910507 0
M  V30 22976 C 2130.43 1.60466 0.103607 0
M  V30 22977 O 2131.62 1.73717 -0.129699 0
M  V30 22978 C 2128.75 3.38931 -0.36584 0
M  V30 22979 H 2129.94 2.359 -1.85179 0
M  V30 22980 H 2127.5 1.20593 -0.994332 0
M  V30 22981 H 2128.23 3.19033 0.582115 0
M  V30 22982 H 2128.02 3.76446 -1.09686 0
M  V30 22983 H 2129.51 4.17148 -0.194209 0
M  V30 22984 N 2129.94 0.98432 1.23081 0
M  V30 22985 C 2131.19 0.656352 1.91885 0
M  V30 22986 C 2131.52 -0.808541 1.76568 0
M  V30 22987 O 2130.8 -1.5837 1.12912 0
M  V30 22988 C 2131.08 1.05239 3.44379 0
M  V30 22989 C 2130.93 2.57521 3.68786 0
M  V30 22990 C 2132.25 0.599218 4.36002 0
M  V30 22991 H 2129.37 0.23992 0.696855 0
M  V30 22992 H 2132.01 1.22631 1.45127 0
M  V30 22993 H 2130.16 0.567423 3.84334 0
M  V30 22994 H 2131.83 3.13622 3.38288 0
M  V30 22995 H 2130.08 2.99978 3.13362 0
M  V30 22996 H 2130.75 2.80282 4.75548 0
M  V30 22997 H 2133.22 1.01565 4.03514 0
M  V30 22998 H 2132.1 0.904717 5.41393 0
M  V30 22999 H 2132.36 -0.500359 4.39259 0
M  V30 23000 N 2131.42 -1.38259 0.756453 0
M  V30 23001 C 2132.7 -1.94131 0.239274 0
M  V30 23002 C 2133.08 -1.6915 -1.26299 0
M  V30 23003 O 2132.43 -1.03165 -2.03885 0
M  V30 23004 C 2132.64 -3.43872 0.596071 0
M  V30 23005 C 2133.98 -4.20927 0.557312 0
M  V30 23006 O 2135.01 -3.52166 0.534537 0
M  V30 23007 O 2133.87 -5.43511 0.57079 0
M  V30 23008 H 2130.96 -0.82543 0.0509403 0
M  V30 23009 H 2133.51 -1.47636 0.83677 0
M  V30 23010 H 2132.28 -3.55575 1.63348 0
M  V30 23011 H 2131.9 -3.97589 -0.0292809 0
M  V30 23012 N 2132.9 -0.505757 -1.49264 0
M  V30 23013 C 2134.12 0.0358953 -2.07369 0
M  V30 23014 C 2134.55 1.29628 -1.36302 0
M  V30 23015 O 2133.91 1.76338 -0.421242 0
M  V30 23016 C 2133.95 0.267709 -3.59605 0
M  V30 23017 O 2133.06 1.34146 -3.89973 0
M  V30 23018 H 2132.4 -0.0283388 -0.663395 0
M  V30 23019 H 2134.93 -0.70674 -1.92006 0
M  V30 23020 H 2134.94 0.497774 -4.04952 0
M  V30 23021 H 2133.61 -0.653126 -4.1074 0
M  V30 23022 H 2132.19 1.09597 -3.56431 0
M  V30 23023 N 2134.38 1.55765 -0.239796 0
M  V30 23024 C 2135.79 1.59184 0.115214 0
M  V30 23025 C 2135.99 1.25688 1.57496 0
M  V30 23026 O 2135.05 1.0008 2.31819 0
M  V30 23027 C 2136.36 2.99838 -0.227557 0
M  V30 23028 C 2137.91 3.12531 -0.171276 0
M  V30 23029 C 2138.38 4.55393 -0.487979 0
M  V30 23030 N 2139.88 4.61122 -0.438217 0
M  V30 23031 C 2140.61 5.69629 -0.656523 0
M  V30 23032 N 2140.11 6.86426 -0.937578 0
M  V30 23033 N 2141.9 5.59019 -0.587713 0
M  V30 23034 H 2134.05 1.7581 -1.19184 0
M  V30 23035 H 2136.31 0.818062 -0.47904 0
M  V30 23036 H 2136.02 3.29062 -1.24141 0
M  V30 23037 H 2135.89 3.74521 0.448752 0
M  V30 23038 H 2138.28 2.83092 0.83324 0
M  V30 23039 H 2138.36 2.40138 -0.881332 0
M  V30 23040 H 2138.01 4.85552 -1.49002 0
M  V30 23041 H 2137.94 5.26037 0.243475 0
M  V30 23042 H 2140.43 3.77203 -0.229426 0
M  V30 23043 H 2140.74 7.65049 -1.09177 0
M  V30 23044 H 2139.08 6.88127 -0.974973 0
M  V30 23045 H 2142.28 4.66649 -0.368239 0
M  V30 23046 H 2142.45 6.43513 -0.761246 0
M  V30 23047 N 2135.85 -0.0334016 1.57565 0
M  V30 23048 C 2136.8 -1.05382 2.07358 0
M  V30 23049 C 2137.8 -1.37713 0.986479 0
M  V30 23050 O 2139 -1.36669 1.17139 0
M  V30 23051 H 2135.38 -0.357353 0.661667 0
M  V30 23052 H 2137.35 -0.608016 2.9214 0
M  V30 23053 C 2136.1 -2.34757 2.56485 0
M  V30 23054 H 2135.42 -2.10738 3.39749 0
M  V30 23055 H 2136.86 -3.04512 2.9504 0
M  V30 23056 C 2135.32 -3.03419 1.46419 0
M  V30 23057 O 2135.85 -3.93075 0.827955 0
M  V30 23058 N 2134.06 -2.64676 1.19979 0
M  V30 23059 H 2133.6 -1.91854 1.71901 0
M  V30 23060 H 2133.56 -3.10935 0.465483 0
M  V30 23061 N 2137.33 -1.54609 -0.305591 0
M  V30 23062 C 2138.58 -1.73929 -1.04291 0
M  V30 23063 C 2138.91 -0.521093 -1.87078 0
M  V30 23064 O 2138.19 0.481847 -1.88437 0
M  V30 23065 C 2138.47 -3.02557 -1.95272 0
M  V30 23066 C 2138.32 -4.34666 -1.15695 0
M  V30 23067 C 2139.64 -3.27028 -2.94517 0
M  V30 23068 H 2136.76 -0.632835 -0.377741 0
M  V30 23069 H 2139.4 -1.87321 -0.317961 0
M  V30 23070 H 2137.55 -2.91271 -2.57087 0
M  V30 23071 H 2139.22 -4.57863 -0.562028 0
M  V30 23072 H 2137.47 -4.31359 -0.459568 0
M  V30 23073 H 2138.14 -5.20925 -1.82595 0
M  V30 23074 H 2140.61 -3.37894 -2.42831 0
M  V30 23075 H 2139.49 -4.18355 -3.55346 0
M  V30 23076 H 2139.75 -2.45106 -3.67934 0
M  V30 23077 N 2138.81 0.568558 -1.46987 0
M  V30 23078 C 2139.72 1.70416 -1.61232 0
M  V30 23079 C 2140.74 1.66798 -0.495411 0
M  V30 23080 O 2141.91 1.86451 -0.761438 0
M  V30 23081 C 2138.98 3.06924 -1.6124 0
M  V30 23082 C 2138.04 3.21697 -2.8427 0
M  V30 23083 C 2137.27 4.51694 -2.84268 0
M  V30 23084 O 2137.49 5.36458 -1.93827 0
M  V30 23085 O 2136.43 4.70015 -3.75991 0
M  V30 23086 H 2140.25 1.61343 -2.57298 0
M  V30 23087 H 2137.84 0.737255 -1.29942 0
M  V30 23088 H 2139.72 3.88182 -1.6399 0
M  V30 23089 H 2138.4 3.16404 -0.683373 0
M  V30 23090 H 2137.3 2.39879 -2.87069 0
M  V30 23091 H 2138.64 3.17115 -3.76429 0
M  V30 23092 N 2140.29 1.34929 0.814366 0
M  V30 23093 C 2141.22 1.29866 1.94055 0
M  V30 23094 C 2142.2 0.174504 1.69203 0
M  V30 23095 O 2143.38 0.368232 1.90677 0
M  V30 23096 C 2140.51 1.06201 3.30664 0
M  V30 23097 C 2139.47 2.15174 3.69978 0
M  V30 23098 C 2138.79 1.76686 5.04664 0
M  V30 23099 C 2140.09 3.57077 3.81174 0
M  V30 23100 H 2141.79 2.24095 1.98549 0
M  V30 23101 H 2139.33 1.07877 0.953865 0
M  V30 23102 H 2141.29 1.01301 4.09043 0
M  V30 23103 H 2140.01 0.0841549 3.26492 0
M  V30 23104 H 2138.67 2.19158 2.9388 0
M  V30 23105 H 2138.32 0.775388 4.96988 0
M  V30 23106 H 2138.02 2.49628 5.3194 0
M  V30 23107 H 2139.54 1.73297 5.85492 0
M  V30 23108 H 2140.96 3.55458 4.49803 0
M  V30 23109 H 2139.35 4.28713 4.19911 0
M  V30 23110 H 2140.42 3.93795 2.82937 0
M  V30 23111 N 2141.77 -1.0356 1.18799 0
M  V30 23112 C 2142.7 -2.11742 0.877379 0
M  V30 23113 C 2143.71 -1.62303 -0.127137 0
M  V30 23114 O 2144.9 -1.78212 0.10138 0
M  V30 23115 C 2142 -3.37653 0.290508 0
M  V30 23116 C 2141.17 -4.16306 1.34193 0
M  V30 23117 C 2140.23 -5.20538 0.769826 0
M  V30 23118 O 2139.26 -5.50531 1.44584 0
M  V30 23119 N 2140.46 -5.78904 -0.430185 0
M  V30 23120 H 2143.23 -2.3898 1.80855 0
M  V30 23121 H 2140.79 -1.19795 1.08907 0
M  V30 23122 H 2142.78 -4.04561 -0.105914 0
M  V30 23123 H 2141.35 -3.07816 -0.544797 0
M  V30 23124 H 2140.57 -3.44645 1.91347 0
M  V30 23125 H 2141.86 -4.65647 2.05062 0
M  V30 23126 H 2141.25 -5.56844 -0.997037 0
M  V30 23127 H 2139.81 -6.47254 -0.768466 0
M  V30 23128 N 2143.25 -0.990834 -1.22557 0
M  V30 23129 C 2144.66 -0.700966 -1.73042 0
M  V30 23130 C 2145.01 0.782283 -1.7993 0
M  V30 23131 O 2144.13 1.61158 -1.4442 0
M  V30 23132 C 2144.73 -1.26574 -3.14268 0
M  V30 23133 C 2143.29 -1.0253 -3.62167 0
M  V30 23134 C 2142.43 -1.38718 -2.4011 0
M  V30 23135 H 2145.38 -1.16344 -1.07934 0
M  V30 23136 H 2145.41 -0.643298 -3.75023 0
M  V30 23137 H 2144.92 -2.34527 -3.09222 0
M  V30 23138 H 2143.02 0.0376973 -3.72581 0
M  V30 23139 H 2143.13 -1.68722 -4.48408 0
M  V30 23140 H 2141.5 -0.805751 -2.41619 0
M  V30 23141 H 2142.28 -2.47671 -2.37727 0
M  V30 23142 N 2144.72 1.37856 -0.763775 0
M  V30 23143 C 2145.67 2.30357 -0.142863 0
M  V30 23144 C 2146.64 1.50697 0.698548 0
M  V30 23145 O 2147.83 1.79294 0.652566 0
M  V30 23146 C 2144.97 3.3715 0.736468 0
M  V30 23147 C 2144.08 4.31831 -0.12068 0
M  V30 23148 C 2143.21 5.25697 0.762609 0
M  V30 23149 C 2142.25 6.12022 -0.0975572 0
M  V30 23150 N 2141.39 6.98155 0.74326 0
M  V30 23151 H 2146.23 2.82878 -0.937235 0
M  V30 23152 H 2143.77 1.39261 -0.473798 0
M  V30 23153 H 2145.72 3.97686 1.26102 0
M  V30 23154 H 2144.35 2.86014 1.49652 0
M  V30 23155 H 2143.41 3.7267 -0.762965 0
M  V30 23156 H 2144.72 4.92592 -0.784528 0
M  V30 23157 H 2143.87 5.91399 1.35395 0
M  V30 23158 H 2142.61 4.65328 1.46016 0
M  V30 23159 H 2141.62 5.45306 -0.70149 0
M  V30 23160 H 2142.84 6.74462 -0.792323 0
M  V30 23161 H 2140.79 6.40323 1.42558 0
M  V30 23162 H 2140.7 7.55877 0.136535 0
M  V30 23163 H 2141.97 7.68255 1.31925 0
M  V30 23164 N 2146.2 0.513665 1.48994 0
M  V30 23165 C 2147.43 -0.0227356 2.06587 0
M  V30 23166 C 2147.84 -1.30207 1.37269 0
M  V30 23167 O 2147.18 -1.78134 0.448768 0
M  V30 23168 C 2147.24 -0.333871 3.57946 0
M  V30 23169 C 2146.91 0.849596 4.49033 0
M  V30 23170 C 2147.91 1.74357 4.89791 0
M  V30 23171 C 2145.59 1.05198 4.9116 0
M  V30 23172 C 2147.58 2.82398 5.71428 0
M  V30 23173 C 2145.27 2.13555 5.72571 0
M  V30 23174 C 2146.27 3.01989 6.12611 0
M  V30 23175 O 2145.96 4.08474 6.9239 0
M  V30 23176 H 2145.69 0.0229763 0.675609 0
M  V30 23177 H 2148.24 0.713941 1.92593 0
M  V30 23178 H 2146.47 -1.12431 3.69995 0
M  V30 23179 H 2148.16 -0.810396 3.97728 0
M  V30 23180 H 2148.93 1.59909 4.5788 0
M  V30 23181 H 2144.81 0.372979 4.59489 0
M  V30 23182 H 2148.35 3.51453 6.026 0
M  V30 23183 H 2144.25 2.27994 6.03895 0
M  V30 23184 H 2145.02 4.05982 7.10718 0
M  V30 23185 N 2147.68 -1.55636 0.248053 0
M  V30 23186 C 2148.59 -2.25074 -0.661731 0
M  V30 23187 C 2149.61 -1.26725 -1.19234 0
M  V30 23188 O 2150.78 -1.59603 -1.22836 0
M  V30 23189 C 2147.85 -2.93753 -1.84147 0
M  V30 23190 C 2146.91 -4.07514 -1.35022 0
M  V30 23191 C 2146.14 -4.72908 -2.47374 0
M  V30 23192 O 2146.36 -4.37385 -3.66129 0
M  V30 23193 O 2145.3 -5.61396 -2.17066 0
M  V30 23194 H 2149.12 -3.03535 -0.100047 0
M  V30 23195 H 2146.71 -1.49391 0.0165105 0
M  V30 23196 H 2148.59 -3.37007 -2.52991 0
M  V30 23197 H 2147.27 -2.18231 -2.39075 0
M  V30 23198 H 2146.17 -3.68774 -0.629034 0
M  V30 23199 H 2147.51 -4.84857 -0.847015 0
M  V30 23200 N 2149.16 0.0250451 -1.5758 0
M  V30 23201 C 2150.07 1.04128 -2.10225 0
M  V30 23202 C 2151.08 1.39367 -1.04178 0
M  V30 23203 O 2152.26 1.48605 -1.35936 0
M  V30 23204 C 2149.32 2.32208 -2.5745 0
M  V30 23205 C 2148.39 2.03512 -3.77996 0
M  V30 23206 C 2147.62 3.25486 -4.22959 0
M  V30 23207 O 2147.84 4.36301 -3.6742 0
M  V30 23208 O 2146.78 3.1095 -5.15358 0
M  V30 23209 H 2150.6 0.623859 -2.97223 0
M  V30 23210 H 2148.19 0.242286 -1.47422 0
M  V30 23211 H 2150.07 3.07498 -2.88137 0
M  V30 23212 H 2148.74 2.73237 -1.73561 0
M  V30 23213 H 2147.65 1.25777 -3.52322 0
M  V30 23214 H 2148.98 1.67337 -4.62882 0
M  V30 23215 N 2150.64 1.54769 0.297388 0
M  V30 23216 C 2151.86 1.78543 1.05533 0
M  V30 23217 C 2152.29 0.54501 1.80031 0
M  V30 23218 O 2151.64 -0.504585 1.74137 0
M  V30 23219 C 2151.69 2.99469 2.00874 0
M  V30 23220 O 2150.8 2.72847 3.09238 0
M  V30 23221 H 2150.14 0.590843 0.302985 0
M  V30 23222 H 2152.67 2.0186 0.333711 0
M  V30 23223 H 2152.68 3.27538 2.43275 0
M  V30 23224 H 2151.35 3.8941 1.46058 0
M  V30 23225 H 2149.93 2.55805 2.71327 0
M  V30 23226 N 2152.11 -0.560755 1.47286 0
M  V30 23227 C 2153.04 -1.67792 1.62383 0
M  V30 23228 C 2154.02 -1.6338 0.473377 0
M  V30 23229 O 2155.21 -1.81057 0.702288 0
M  V30 23230 C 2152.34 -3.06431 1.63454 0
M  V30 23231 C 2151.29 -3.25688 2.7769 0
M  V30 23232 C 2150.62 -4.65078 2.63831 0
M  V30 23233 C 2151.92 -3.11404 4.19315 0
M  V30 23234 H 2153.61 -1.55414 2.55904 0
M  V30 23235 H 2151.16 -0.746251 1.23155 0
M  V30 23236 H 2153.11 -3.84428 1.72606 0
M  V30 23237 H 2151.84 -3.1976 0.664904 0
M  V30 23238 H 2150.5 -2.50098 2.68042 0
M  V30 23239 H 2150.14 -4.75201 1.64904 0
M  V30 23240 H 2149.84 -4.78911 3.40467 0
M  V30 23241 H 2151.37 -5.45214 2.74907 0
M  V30 23242 H 2152.78 -3.79222 4.29958 0
M  V30 23243 H 2151.18 -3.36749 4.9671 0
M  V30 23244 H 2152.25 -2.08195 4.3793 0
M  V30 23245 N 2153.59 -1.35359 -0.807199 0
M  V30 23246 C 2154.82 -1.3152 -1.5933 0
M  V30 23247 C 2155.23 0.109536 -1.88883 0
M  V30 23248 O 2154.57 1.07173 -1.49196 0
M  V30 23249 C 2154.63 -2.05378 -2.9506 0
M  V30 23250 C 2154.3 -3.54567 -2.88325 0
M  V30 23251 C 2155.3 -4.49171 -2.61805 0
M  V30 23252 C 2152.98 -3.97206 -3.07462 0
M  V30 23253 C 2154.97 -5.84389 -2.54496 0
M  V30 23254 C 2152.66 -5.3252 -2.99776 0
M  V30 23255 C 2153.66 -6.25923 -2.73329 0
M  V30 23256 O 2153.35 -7.58755 -2.65605 0
M  V30 23257 H 2153.08 -0.453354 -0.501444 0
M  V30 23258 H 2155.63 -1.78786 -1.01117 0
M  V30 23259 H 2153.86 -1.52748 -3.55253 0
M  V30 23260 H 2155.55 -1.94625 -3.56197 0
M  V30 23261 H 2156.32 -4.17546 -2.4674 0
M  V30 23262 H 2152.2 -3.24891 -3.27058 0
M  V30 23263 H 2155.74 -6.57264 -2.33774 0
M  V30 23264 H 2151.64 -5.63758 -3.14399 0
M  V30 23265 H 2152.41 -7.68673 -2.81218 0
M  V30 23266 N 2155.07 1.02928 -1.19346 0
M  V30 23267 C 2156 2.10792 -0.874191 0
M  V30 23268 C 2156.98 1.61724 0.16859 0
M  V30 23269 O 2158.16 1.88446 0.0449918 0
M  V30 23270 C 2155.29 3.37295 -0.308228 0
M  V30 23271 C 2154.34 4.05232 -1.33 0
M  V30 23272 S 2155.17 4.50801 -2.89031 0
M  V30 23273 C 2156.33 5.80522 -2.33977 0
M  V30 23274 H 2156.56 2.37549 -1.78767 0
M  V30 23275 H 2154.09 1.15862 -1.02056 0
M  V30 23276 H 2156.05 4.10498 0.0117838 0
M  V30 23277 H 2154.71 3.08632 0.58355 0
M  V30 23278 H 2153.9 4.96203 -0.88311 0
M  V30 23279 H 2153.51 3.38197 -1.59683 0
M  V30 23280 H 2155.8 6.55054 -1.72947 0
M  V30 23281 H 2156.74 6.2999 -3.23293 0
M  V30 23282 H 2157.15 5.36175 -1.7657 0
M  V30 23283 N 2156.55 0.997319 1.2203 0
M  V30 23284 C 2157.78 0.69324 1.94622 0
M  V30 23285 C 2158.19 -0.746899 1.73833 0
M  V30 23286 O 2157.53 -1.51616 1.03722 0
M  V30 23287 C 2157.59 0.92485 3.474 0
M  V30 23288 C 2157.25 2.35033 3.91929 0
M  V30 23289 C 2158.25 3.33011 3.99249 0
M  V30 23290 C 2155.94 2.68594 4.24456 0
M  V30 23291 C 2157.93 4.6262 4.38476 0
M  V30 23292 C 2155.62 3.98422 4.63361 0
M  V30 23293 C 2156.62 4.95246 4.70341 0
M  V30 23294 O 2156.3 6.22753 5.08363 0
M  V30 23295 H 2156.04 0.255247 0.625959 0
M  V30 23296 H 2158.59 1.33604 1.5601 0
M  V30 23297 H 2156.82 0.224877 3.86046 0
M  V30 23298 H 2158.51 0.61534 4.01209 0
M  V30 23299 H 2159.27 3.08416 3.74306 0
M  V30 23300 H 2155.15 1.9393 4.18225 0
M  V30 23301 H 2158.7 5.38194 4.43839 0
M  V30 23302 H 2154.59 4.22804 4.87757 0
M  V30 23303 H 2155.36 6.26755 5.26422 0
M  V30 23304 N 2158.03 -1.37449 0.771075 0
M  V30 23305 C 2158.96 -2.32874 0.170867 0
M  V30 23306 C 2159.94 -1.55746 -0.683892 0
M  V30 23307 O 2161.12 -1.83987 -0.621492 0
M  V30 23308 C 2158.25 -3.39974 -0.709566 0
M  V30 23309 C 2157.21 -4.27978 0.0438353 0
M  V30 23310 C 2156.53 -5.26084 -0.955998 0
M  V30 23311 C 2157.83 -5.07793 1.22245 0
M  V30 23312 H 2159.53 -2.83319 0.968038 0
M  V30 23313 H 2157.07 -1.36219 0.466952 0
M  V30 23314 H 2159.03 -4.05708 -1.13926 0
M  V30 23315 H 2157.75 -2.88053 -1.53925 0
M  V30 23316 H 2156.41 -3.63774 0.454301 0
M  V30 23317 H 2156.06 -4.70444 -1.78021 0
M  V30 23318 H 2155.76 -5.85824 -0.456445 0
M  V30 23319 H 2157.28 -5.94693 -1.38465 0
M  V30 23320 H 2158.69 -5.66669 0.869436 0
M  V30 23321 H 2157.09 -5.76855 1.65404 0
M  V30 23322 H 2158.16 -4.40506 2.02688 0
M  V30 23323 N 2159.5 -0.52156 -1.4872 0
M  V30 23324 C 2160.73 0.0117795 -2.06597 0
M  V30 23325 C 2161.14 1.29478 -1.37957 0
M  V30 23326 O 2160.49 1.77894 -0.458208 0
M  V30 23327 C 2160.55 0.314883 -3.58118 0
M  V30 23328 C 2160.21 -0.873397 -4.48576 0
M  V30 23329 C 2161.21 -1.76953 -4.8886 0
M  V30 23330 C 2158.89 -1.07801 -4.90596 0
M  V30 23331 C 2160.89 -2.85425 -5.69922 0
M  V30 23332 C 2158.57 -2.16589 -5.7143 0
M  V30 23333 C 2159.57 -3.05234 -6.11 0
M  V30 23334 O 2159.26 -4.1214 -6.90214 0
M  V30 23335 H 2158.99 -0.0265589 -0.675478 0
M  V30 23336 H 2161.55 -0.724145 -1.92212 0
M  V30 23337 H 2159.78 1.10467 -3.70586 0
M  V30 23338 H 2161.47 0.789292 -3.98152 0
M  V30 23339 H 2162.23 -1.62335 -4.57026 0
M  V30 23340 H 2158.11 -0.397342 -4.59284 0
M  V30 23341 H 2161.65 -3.54643 -6.00728 0
M  V30 23342 H 2157.55 -2.31193 -6.02677 0
M  V30 23343 H 2158.32 -4.09746 -7.08555 0
M  V30 23344 N 2160.98 1.55502 -0.256304 0
M  V30 23345 C 2162.23 1.99168 0.365812 0
M  V30 23346 C 2162.56 1.14455 1.57259 0
M  V30 23347 O 2161.81 0.197615 1.947 0
M  V30 23348 C 2162.11 3.48098 0.810077 0
M  V30 23349 C 2161.78 4.49967 -0.289975 0
M  V30 23350 C 2160.44 4.77544 -0.592079 0
M  V30 23351 C 2162.79 5.10877 -1.03217 0
M  V30 23352 C 2160.12 5.63304 -1.64029 0
M  V30 23353 C 2162.47 5.97775 -2.06996 0
M  V30 23354 C 2161.14 6.23681 -2.37861 0
M  V30 23355 H 2160.41 0.728809 0.13386 0
M  V30 23356 H 2163.05 1.87968 -0.366092 0
M  V30 23357 H 2161.36 3.56679 1.62134 0
M  V30 23358 H 2163.05 3.79279 1.30186 0
M  V30 23359 H 2159.64 4.28577 -0.0443795 0
M  V30 23360 H 2163.83 4.89612 -0.812025 0
M  V30 23361 H 2159.08 5.81628 -1.88465 0
M  V30 23362 H 2163.26 6.44013 -2.64992 0
M  V30 23363 H 2160.89 6.89929 -3.19221 0
M  V30 23364 N 2162.46 -0.0166879 1.57591 0
M  V30 23365 C 2163.71 -0.706033 1.90113 0
M  V30 23366 C 2164.04 -1.74339 0.855541 0
M  V30 23367 O 2163.31 -1.94079 -0.127874 0
M  V30 23368 C 2163.6 -1.36436 3.33253 0
M  V30 23369 C 2163.45 -0.339675 4.48516 0
M  V30 23370 C 2164.77 -2.29505 3.7552 0
M  V30 23371 H 2161.89 -0.255199 0.691406 0
M  V30 23372 H 2164.53 0.0311796 1.89974 0
M  V30 23373 H 2162.68 -1.99271 3.33501 0
M  V30 23374 H 2164.35 0.287715 4.60402 0
M  V30 23375 H 2162.6 0.339799 4.32467 0
M  V30 23376 H 2163.27 -0.839026 5.45586 0
M  V30 23377 H 2165.74 -1.76702 3.76717 0
M  V30 23378 H 2164.62 -2.72542 4.76458 0
M  V30 23379 H 2164.88 -3.16708 3.08461 0
M  V30 23380 N 2163.94 -1.54924 -0.289176 0
M  V30 23381 C 2165.19 -1.73974 -1.02059 0
M  V30 23382 C 2165.5 -0.539167 -1.88022 0
M  V30 23383 O 2166.71 -0.611723 -2.64519 0
M  V30 23384 C 2165.16 -3.07847 -1.86435 0
M  V30 23385 C 2164.77 -4.35421 -1.05417 0
M  V30 23386 C 2166.51 -3.36252 -2.59104 0
M  V30 23387 C 2164.42 -5.6034 -1.89138 0
M  V30 23388 H 2163.35 -0.648438 -0.384766 0
M  V30 23389 H 2166 -1.81397 -0.276999 0
M  V30 23390 H 2164.38 -2.94419 -2.64827 0
M  V30 23391 H 2165.56 -4.59718 -0.315551 0
M  V30 23392 H 2163.87 -4.14039 -0.442763 0
M  V30 23393 H 2166.47 -4.26785 -3.22115 0
M  V30 23394 H 2166.81 -2.55656 -3.28551 0
M  V30 23395 H 2167.35 -3.50705 -1.87753 0
M  V30 23396 H 2164.09 -6.43638 -1.2414 0
M  V30 23397 H 2163.61 -5.4021 -2.6064 0
M  V30 23398 H 2165.28 -5.98038 -2.46899 0
M  V30 23399 N 2165.42 0.552936 -1.47582 0
M  V30 23400 C 2166.66 1.30992 -1.54426 0
M  V30 23401 C 2166.99 1.93381 -0.208337 0
M  V30 23402 O 2166.25 1.78637 0.799202 0
M  V30 23403 C 2166.55 2.43742 -2.6139 0
M  V30 23404 C 2166.21 1.99156 -4.04534 0
M  V30 23405 C 2164.87 1.86713 -4.435 0
M  V30 23406 C 2167.23 1.65177 -4.94334 0
M  V30 23407 C 2164.55 1.38592 -5.70096 0
M  V30 23408 C 2166.91 1.18525 -6.21397 0
M  V30 23409 C 2165.57 1.04682 -6.5924 0
M  V30 23410 H 2164.84 0.479333 -0.565085 0
M  V30 23411 H 2167.49 0.619594 -1.812 0
M  V30 23412 H 2165.79 3.18349 -2.28389 0
M  V30 23413 H 2167.49 3.01918 -2.63906 0
M  V30 23414 H 2164.08 2.09785 -3.73749 0
M  V30 23415 H 2168.26 1.73661 -4.64925 0
M  V30 23416 H 2163.52 1.26541 -5.98162 0
M  V30 23417 H 2167.69 0.912965 -6.9039 0
M  V30 23418 H 2165.32 0.67172 -7.57226 0
M  V30 23419 N 2166.89 1.35785 0.800009 0
M  V30 23420 C 2168.14 1.28759 1.55255 0
M  V30 23421 C 2168.46 -0.134123 1.9514 0
M  V30 23422 O 2169.66 -0.3267 2.69527 0
M  V30 23423 C 2168.12 2.25848 2.80215 0
M  V30 23424 C 2167.73 3.73399 2.47542 0
M  V30 23425 C 2169.47 2.27777 3.58215 0
M  V30 23426 C 2167.38 4.62293 3.68834 0
M  V30 23427 H 2166.31 0.478422 0.582777 0
M  V30 23428 H 2168.96 1.61087 0.878812 0
M  V30 23429 H 2167.34 1.86499 3.49334 0
M  V30 23430 H 2168.51 4.21421 1.86389 0
M  V30 23431 H 2166.83 3.74142 1.82775 0
M  V30 23432 H 2169.43 2.91406 4.48315 0
M  V30 23433 H 2169.77 1.28334 3.96025 0
M  V30 23434 H 2170.3 2.65688 2.96065 0
M  V30 23435 H 2167.04 5.6276 3.36127 0
M  V30 23436 H 2166.56 4.18993 4.29191 0
M  V30 23437 H 2168.24 4.78042 4.35987 0
M  V30 23438 N 2168.37 -1.02294 1.19891 0
M  V30 23439 C 2169.62 -1.75196 0.999463 0
M  V30 23440 C 2169.93 -1.89874 -0.469823 0
M  V30 23441 O 2171.14 -2.59806 -0.788235 0
M  V30 23442 C 2169.6 -3.15074 1.73944 0
M  V30 23443 C 2169.2 -3.0843 3.24923 0
M  V30 23444 C 2170.95 -3.9223 1.62345 0
M  V30 23445 C 2168.86 -4.43277 3.91484 0
M  V30 23446 H 2167.79 -0.656782 0.370342 0
M  V30 23447 H 2170.44 -1.14434 1.43447 0
M  V30 23448 H 2168.82 -3.76339 1.23227 0
M  V30 23449 H 2169.99 -2.5651 3.82804 0
M  V30 23450 H 2168.31 -2.44769 3.36864 0
M  V30 23451 H 2170.9 -4.91983 2.09419 0
M  V30 23452 H 2171.25 -4.1226 0.578579 0
M  V30 23453 H 2171.78 -3.37579 2.1044 0
M  V30 23454 H 2168.52 -4.28451 4.96095 0
M  V30 23455 H 2168.04 -4.95228 3.38392 0
M  V30 23456 H 2169.72 -5.12142 3.95373 0
M  V30 23457 N 2169.85 -1.00378 -1.21499 0
M  V30 23458 C 2171.1 -0.68578 -1.90534 0
M  V30 23459 C 2171.43 0.783334 -1.78028 0
M  V30 23460 O 2170.68 1.58328 -1.15024 0
M  V30 23461 C 2170.98 -1.05103 -3.41596 0
M  V30 23462 C 2170.65 -2.51421 -3.74297 0
M  V30 23463 C 2169.31 -2.91403 -3.82933 0
M  V30 23464 C 2171.66 -3.46207 -3.89603 0
M  V30 23465 C 2168.99 -4.25137 -4.04321 0
M  V30 23466 C 2171.34 -4.79613 -4.12497 0
M  V30 23467 C 2170 -5.1932 -4.1936 0
M  V30 23468 H 2169.27 -0.250945 -0.697214 0
M  V30 23469 H 2171.92 -1.26199 -1.44035 0
M  V30 23470 H 2170.23 -0.393054 -3.89823 0
M  V30 23471 H 2171.92 -0.782861 -3.93284 0
M  V30 23472 H 2168.51 -2.19435 -3.68166 0
M  V30 23473 H 2172.7 -3.16483 -3.82299 0
M  V30 23474 H 2167.95 -4.55474 -4.07864 0
M  V30 23475 H 2172.13 -5.52996 -4.23283 0
M  V30 23476 H 2169.75 -6.22963 -4.35685 0
M  V30 23477 N 2171.33 1.37038 -0.778354 0
M  V30 23478 C 2172.58 1.99134 -0.344995 0
M  V30 23479 C 2172.9 1.62093 1.08402 0
M  V30 23480 O 2172.17 0.889547 1.74539 0
M  V30 23481 H 2170.75 0.73654 -0.124572 0
M  V30 23482 H 2173.41 1.67413 -0.997945 0
M  V30 23483 H 2172.51 3.09152 -0.427927 0
M  V30 23484 N 2172.81 0.529439 1.48441 0
M  V30 23485 C 2174.03 -0.00290016 2.074 0
M  V30 23486 C 2174.46 -1.27443 1.38347 0
M  V30 23487 O 2173.82 -1.75646 0.449242 0
M  V30 23488 C 2173.86 -0.210465 3.59985 0
M  V30 23489 O 2172.97 -1.27924 3.92057 0
M  V30 23490 H 2172.31 0.0388892 0.66286 0
M  V30 23491 H 2174.84 0.737197 1.90857 0
M  V30 23492 H 2174.85 -0.433287 4.05693 0
M  V30 23493 H 2173.52 0.718388 4.09649 0
M  V30 23494 H 2172.1 -1.03912 3.58129 0
M  V30 23495 N 2174.29 -1.55364 0.264547 0
M  V30 23496 C 2175.53 -1.9936 -0.355245 0
M  V30 23497 C 2175.86 -1.15288 -1.56649 0
M  V30 23498 O 2175.12 -0.207938 -1.94592 0
M  V30 23499 C 2175.41 -3.48523 -0.791605 0
M  V30 23500 C 2175.08 -4.49807 0.313834 0
M  V30 23501 C 2173.74 -4.77223 0.617396 0
M  V30 23502 C 2176.09 -5.10323 1.05925 0
M  V30 23503 C 2173.42 -5.62426 1.67014 0
M  V30 23504 C 2175.77 -5.96669 2.10163 0
M  V30 23505 C 2174.44 -6.22411 2.41165 0
M  V30 23506 H 2173.71 -0.729509 -0.129993 0
M  V30 23507 H 2176.36 -1.87771 0.376055 0
M  V30 23508 H 2174.66 -3.57534 -1.60241 0
M  V30 23509 H 2176.36 -3.79964 -1.28173 0
M  V30 23510 H 2172.95 -4.28547 0.0671074 0
M  V30 23511 H 2177.13 -4.89174 0.837979 0
M  V30 23512 H 2172.39 -5.8062 1.91547 0
M  V30 23513 H 2176.56 -6.42598 2.68403 0
M  V30 23514 H 2174.19 -6.88226 3.22876 0
M  V30 23515 N 2175.76 0.00833021 -1.57598 0
M  V30 23516 C 2177.01 0.694911 -1.90203 0
M  V30 23517 C 2177.34 1.74238 -0.864369 0
M  V30 23518 O 2176.59 1.95254 0.131976 0
M  V30 23519 C 2176.89 1.38284 -3.29564 0
M  V30 23520 C 2176.56 0.469372 -4.4845 0
M  V30 23521 C 2175.22 0.21784 -4.80707 0
M  V30 23522 C 2177.57 -0.160058 -5.20954 0
M  V30 23523 C 2174.9 -0.671554 -5.82844 0
M  V30 23524 C 2177.25 -1.03728 -6.24038 0
M  V30 23525 C 2175.92 -1.29807 -6.54757 0
M  V30 23526 H 2175.19 0.254286 -0.696003 0
M  V30 23527 H 2177.83 -0.0454086 -1.91446 0
M  V30 23528 H 2176.14 2.197 -3.24406 0
M  V30 23529 H 2177.84 1.91998 -3.52048 0
M  V30 23530 H 2174.43 0.675583 -4.23242 0
M  V30 23531 H 2178.61 0.0212698 -4.96295 0
M  V30 23532 H 2173.87 -0.881698 -6.05009 0
M  V30 23533 H 2178.04 -1.5314 -6.79353 0
M  V30 23534 H 2175.67 -1.98894 -7.3372 0
M  V30 23535 N 2177.24 1.55075 0.280956 0
M  V30 23536 C 2178.47 1.79322 1.03205 0
M  V30 23537 C 2178.88 0.56257 1.80224 0
M  V30 23538 O 2178.24 -0.468172 1.76393 0
M  V30 23539 C 2178.29 3.01341 1.99689 0
M  V30 23540 O 2178.01 4.19652 1.25792 0
M  V30 23541 C 2179.51 3.38131 2.86675 0
M  V30 23542 H 2176.73 0.597563 0.30522 0
M  V30 23543 H 2179.28 2.02073 0.31415 0
M  V30 23544 H 2177.43 2.8074 2.66953 0
M  V30 23545 H 2177.85 4.88582 1.90757 0
M  V30 23546 H 2179.32 4.267 3.50188 0
M  V30 23547 H 2179.8 2.57177 3.56029 0
M  V30 23548 H 2180.4 3.60962 2.24914 0
M  V30 23549 N 2178.72 -0.545102 1.47873 0
M  V30 23550 C 2179.65 -1.6606 1.64153 0
M  V30 23551 C 2180.63 -1.62869 0.490679 0
M  V30 23552 O 2181.82 -1.80302 0.721451 0
M  V30 23553 C 2178.95 -3.04681 1.66694 0
M  V30 23554 C 2177.9 -3.22724 2.81128 0
M  V30 23555 C 2177.23 -4.62253 2.68749 0
M  V30 23556 C 2178.53 -3.06939 4.22594 0
M  V30 23557 H 2180.22 -1.52691 2.57538 0
M  V30 23558 H 2177.77 -0.733146 1.23939 0
M  V30 23559 H 2179.72 -3.82576 1.76674 0
M  V30 23560 H 2178.44 -3.19037 0.698781 0
M  V30 23561 H 2177.1 -2.47241 2.7068 0
M  V30 23562 H 2176.75 -4.73425 1.69935 0
M  V30 23563 H 2176.45 -4.75273 3.45527 0
M  V30 23564 H 2177.97 -5.42268 2.80674 0
M  V30 23565 H 2179.39 -3.7464 4.33956 0
M  V30 23566 H 2177.78 -3.31461 5.00253 0
M  V30 23567 H 2178.85 -2.03538 4.40114 0
M  V30 23568 N 2180.2 -1.36208 -0.792797 0
M  V30 23569 C 2181.15 -1.30313 -1.92669 0
M  V30 23570 C 2182.14 -0.195525 -1.68268 0
M  V30 23571 O 2183.35 -0.362331 -1.76316 0
M  V30 23572 H 2179.72 -0.4056 -0.63324 0
M  V30 23573 H 2181.69 -2.26078 -1.9476 0
M  V30 23574 C 2180.44 -1.10589 -3.29644 0
M  V30 23575 H 2179.76 -1.95061 -3.48986 0
M  V30 23576 H 2181.2 -1.10509 -4.09345 0
M  V30 23577 C 2179.66 0.189643 -3.36366 0
M  V30 23578 O 2180.19 1.18066 -3.83958 0
M  V30 23579 N 2178.4 0.23316 -2.89663 0
M  V30 23580 H 2177.95 -0.573917 -2.51125 0
M  V30 23581 H 2177.9 1.09966 -2.94542 0
M  V30 23582 N 2181.68 1.01656 -1.20431 0
M  V30 23583 C 2182.61 2.12074 -0.977076 0
M  V30 23584 C 2183.59 1.6984 0.0939563 0
M  V30 23585 O 2184.77 1.94096 -0.0635618 0
M  V30 23586 C 2181.9 3.43257 -0.528392 0
M  V30 23587 C 2180.86 3.99231 -1.54267 0
M  V30 23588 C 2180.18 5.26182 -0.950621 0
M  V30 23589 C 2181.48 4.32619 -2.92639 0
M  V30 23590 H 2183.18 2.31342 -1.90056 0
M  V30 23591 H 2180.72 1.11175 -0.915209 0
M  V30 23592 H 2182.67 4.19888 -0.35665 0
M  V30 23593 H 2181.4 3.23747 0.430716 0
M  V30 23594 H 2180.06 3.24708 -1.70177 0
M  V30 23595 H 2179.71 5.02997 0.0164182 0
M  V30 23596 H 2179.41 5.64597 -1.62802 0
M  V30 23597 H 2180.93 6.05469 -0.789947 0
M  V30 23598 H 2182.34 5.00138 -2.8024 0
M  V30 23599 H 2180.74 4.82148 -3.57286 0
M  V30 23600 H 2181.81 3.41386 -3.4436 0
M  V30 23601 N 2183.15 1.01021 1.20965 0
M  V30 23602 C 2184.4 0.695875 1.90168 0
M  V30 23603 C 2184.73 -0.773882 1.78441 0
M  V30 23604 O 2183.98 -1.57716 1.15862 0
M  V30 23605 C 2184.28 1.06913 3.41034 0
M  V30 23606 C 2183.95 2.53402 3.72959 0
M  V30 23607 C 2182.61 2.9343 3.81382 0
M  V30 23608 C 2184.96 3.48268 3.87761 0
M  V30 23609 C 2182.29 4.27275 4.02061 0
M  V30 23610 C 2184.64 4.81794 4.09948 0
M  V30 23611 C 2183.31 5.21537 4.166 0
M  V30 23612 H 2182.58 0.254639 0.695874 0
M  V30 23613 H 2185.22 1.26961 1.43364 0
M  V30 23614 H 2183.53 0.413721 3.8961 0
M  V30 23615 H 2185.23 0.803706 3.92863 0
M  V30 23616 H 2181.82 2.21384 3.66997 0
M  V30 23617 H 2186 3.18506 3.80615 0
M  V30 23618 H 2181.26 4.57631 4.05443 0
M  V30 23619 H 2185.43 5.55233 4.20344 0
M  V30 23620 H 2183.06 6.25264 4.32375 0
M  V30 23621 N 2184.63 -1.36623 0.78561 0
M  V30 23622 C 2185.88 -1.98589 0.352861 0
M  V30 23623 C 2186.19 -1.63058 -1.08035 0
M  V30 23624 O 2187.4 -2.1823 -1.61518 0
M  V30 23625 C 2185.86 -3.55196 0.579953 0
M  V30 23626 C 2185.46 -3.99656 2.02433 0
M  V30 23627 C 2187.21 -4.23973 0.21152 0
M  V30 23628 C 2185.11 -5.49026 2.19828 0
M  V30 23629 H 2184.04 -0.743022 0.128194 0
M  V30 23630 H 2186.7 -1.55971 0.966705 0
M  V30 23631 H 2185.08 -3.95865 -0.103548 0
M  V30 23632 H 2186.25 -3.70197 2.74392 0
M  V30 23633 H 2184.57 -3.43705 2.35065 0
M  V30 23634 H 2187.16 -5.33743 0.319819 0
M  V30 23635 H 2187.51 -4.07739 -0.839914 0
M  V30 23636 H 2188.04 -3.88654 0.848108 0
M  V30 23637 H 2184.78 -5.70203 3.23341 0
M  V30 23638 H 2184.3 -5.80124 1.52369 0
M  V30 23639 H 2185.98 -6.15196 2.00358 0
M  V30 23640 N 2186.11 -0.537304 -1.48158 0
M  V30 23641 C 2187.36 -0.00587084 -2.02099 0
M  V30 23642 C 2187.68 1.3407 -1.41599 0
M  V30 23643 O 2186.95 1.86993 -0.583977 0
M  V30 23644 H 2185.53 0.000818022 -0.747 0
M  V30 23645 H 2188.19 -0.702798 -1.81788 0
M  V30 23646 H 2187.29 0.0970321 -3.11949 0
M  V30 23647 N 2187.59 1.55221 -0.272782 0
M  V30 23648 C 2188.83 1.99841 0.345178 0
M  V30 23649 C 2189.17 1.16093 1.55679 0
M  V30 23650 O 2188.44 0.230441 1.9313 0
M  V30 23651 C 2188.73 3.5263 0.729656 0
M  V30 23652 C 2188.58 4.47133 -0.489138 0
M  V30 23653 C 2189.9 4.11259 1.56698 0
M  V30 23654 H 2187.02 0.726495 0.123989 0
M  V30 23655 H 2189.66 1.86176 -0.379262 0
M  V30 23656 H 2187.81 3.64405 1.34689 0
M  V30 23657 H 2189.48 4.47304 -1.12769 0
M  V30 23658 H 2187.72 4.18888 -1.12762 0
M  V30 23659 H 2188.39 5.51718 -0.176396 0
M  V30 23660 H 2190.87 4.02745 1.04572 0
M  V30 23661 H 2189.75 5.1838 1.80481 0
M  V30 23662 H 2190.01 3.61341 2.54726 0
M  V30 23663 N 2189.07 2.77022e-05 1.576 0
M  V30 23664 C 2190.32 -0.684007 1.89748 0
M  V30 23665 C 2190.63 -1.74935 0.875041 0
M  V30 23666 O 2191.83 -2.48802 1.08674 0
M  V30 23667 C 2190.29 -1.26778 3.36831 0
M  V30 23668 C 2189.9 -0.23725 4.47371 0
M  V30 23669 C 2191.64 -1.93 3.78089 0
M  V30 23670 C 2189.55 -0.831011 5.85532 0
M  V30 23671 H 2188.48 -0.259241 0.708033 0
M  V30 23672 H 2191.13 0.0605762 1.834 0
M  V30 23673 H 2189.51 -2.06303 3.38017 0
M  V30 23674 H 2190.69 0.53341 4.57702 0
M  V30 23675 H 2189 0.324536 4.15133 0
M  V30 23676 H 2191.6 -2.38328 4.78648 0
M  V30 23677 H 2191.94 -2.76058 3.11605 0
M  V30 23678 H 2192.47 -1.20209 3.79203 0
M  V30 23679 H 2189.21 -0.0392145 6.55488 0
M  V30 23680 H 2188.73 -1.57083 5.78865 0
M  V30 23681 H 2190.41 -1.32963 6.3319 0
M  V30 23682 N 2190.54 -1.55222 -0.272728 0
M  V30 23683 C 2191.79 -1.75047 -1.00208 0
M  V30 23684 C 2192.11 -0.559079 -1.8744 0
M  V30 23685 O 2193.31 -0.639745 -2.63855 0
M  V30 23686 C 2191.77 -3.09808 -1.83159 0
M  V30 23687 C 2191.38 -4.36514 -1.00793 0
M  V30 23688 C 2193.12 -3.38981 -2.55523 0
M  V30 23689 C 2191.03 -5.62315 -1.83184 0
M  V30 23690 H 2189.96 -0.652482 -0.377866 0
M  V30 23691 H 2192.61 -1.81681 -0.257744 0
M  V30 23692 H 2190.99 -2.97212 -2.61689 0
M  V30 23693 H 2192.16 -4.60027 -0.266774 0
M  V30 23694 H 2190.48 -4.14486 -0.398824 0
M  V30 23695 H 2193.08 -4.30178 -3.17571 0
M  V30 23696 H 2193.42 -2.59126 -3.25821 0
M  V30 23697 H 2193.95 -3.52676 -1.84022 0
M  V30 23698 H 2190.69 -6.44918 -1.17306 0
M  V30 23699 H 2190.21 -5.42944 -2.54896 0
M  V30 23700 H 2191.89 -6.00624 -2.40542 0
M  V30 23701 N 2192.02 0.537252 -1.4816 0
M  V30 23702 C 2193.3 1.29837 -1.46294 0
M  V30 23703 C 2193.68 2.10409 -0.17065 0
M  V30 23704 O 2193.03 2.12194 0.847709 0
M  V30 23705 C 2193.24 2.18598 -2.72058 0
M  V30 23706 C 2194.59 2.78974 -3.20092 0
M  V30 23707 O 2195.61 2.28889 -2.72925 0
M  V30 23708 O 2194.47 3.70057 -4.02144 0
M  V30 23709 H 2191.56 0.585637 -0.583916 0
M  V30 23710 H 2194.11 0.554506 -1.60385 0
M  V30 23711 H 2192.88 1.58795 -3.57631 0
M  V30 23712 H 2192.5 3.00244 -2.60651 0
M  V30 23713 N 2193.5 1.36626 0.785562 0
M  V30 23714 C 2194.45 1.31333 1.91975 0
M  V30 23715 C 2195.44 0.204445 1.68162 0
M  V30 23716 O 2196.65 0.371676 1.76121 0
M  V30 23717 H 2193.02 0.408953 0.63108 0
M  V30 23718 H 2194.99 2.27108 1.93558 0
M  V30 23719 C 2193.74 1.12335 3.29053 0
M  V30 23720 H 2193.07 1.96909 3.47946 0
M  V30 23721 H 2194.51 1.12678 4.08754 0
M  V30 23722 C 2192.97 -0.171802 3.36462 0
M  V30 23723 O 2193.5 -1.16028 3.84578 0
M  V30 23724 N 2191.7 -0.217795 2.89783 0
M  V30 23725 H 2191.25 0.587227 2.50817 0
M  V30 23726 H 2191.21 -1.08403 2.95121 0
M  V30 23727 N 2194.98 -1.01016 1.20969 0
M  V30 23728 C 2196.23 -1.74714 1.02377 0
M  V30 23729 C 2196.55 -1.8938 -0.443342 0
M  V30 23730 O 2195.81 -1.42125 -1.34532 0
M  V30 23731 C 2196.11 -3.16509 1.66003 0
M  V30 23732 C 2195.77 -3.21804 3.15837 0
M  V30 23733 C 2194.44 -3.22957 3.56725 0
M  V30 23734 C 2196.79 -3.19456 4.11822 0
M  V30 23735 C 2194.12 -3.19441 4.92112 0
M  V30 23736 C 2196.47 -3.17482 5.47164 0
M  V30 23737 C 2195.13 -3.16941 5.87456 0
M  V30 23738 H 2194.4 -0.639325 0.374625 0
M  V30 23739 H 2197.05 -1.18431 1.50487 0
M  V30 23740 H 2195.35 -3.75991 1.10172 0
M  V30 23741 H 2197.05 -3.7224 1.49126 0
M  V30 23742 H 2193.64 -3.21647 2.83269 0
M  V30 23743 H 2197.82 -3.17731 3.81262 0
M  V30 23744 H 2193.08 -3.17357 5.22585 0
M  V30 23745 H 2197.25 -3.14618 6.2128 0
M  V30 23746 H 2194.88 -3.13971 6.92334 0
M  V30 23747 N 2196.46 -1.01661 -1.20428 0
M  V30 23748 C 2197.4 -0.580183 -2.25248 0
M  V30 23749 C 2198.4 0.381086 -1.65058 0
M  V30 23750 O 2199.6 0.251007 -1.78241 0
M  V30 23751 H 2195.98 -0.169312 -0.732692 0
M  V30 23752 H 2197.95 -1.47516 -2.59387 0
M  V30 23753 C 2196.7 0.0657269 -3.47638 0
M  V30 23754 H 2196.02 -0.664944 -3.94232 0
M  V30 23755 H 2197.46 0.334208 -4.22681 0
M  V30 23756 C 2195.92 1.30855 -3.10449 0
M  V30 23757 O 2196.45 2.40185 -3.21985 0
M  V30 23758 N 2194.66 1.19265 -2.64998 0
M  V30 23759 H 2194.2 0.303019 -2.55812 0
M  V30 23760 H 2194.16 2.02519 -2.40486 0
M  V30 23761 N 2197.93 1.36205 -0.792844 0
M  V30 23762 C 2198.87 2.28699 -0.15151 0
M  V30 23763 C 2199.88 1.4964 0.641235 0
M  V30 23764 O 2201.07 1.7204 0.475854 0
M  V30 23765 C 2198.17 3.29118 0.808366 0
M  V30 23766 C 2197.34 4.37352 0.0649434 0
M  V30 23767 C 2196.4 5.17713 0.941267 0
M  V30 23768 O 2195.43 5.67812 0.397252 0
M  V30 23769 N 2196.63 5.34484 2.26511 0
M  V30 23770 H 2199.39 2.84377 -0.946032 0
M  V30 23771 H 2196.95 1.48407 -0.647058 0
M  V30 23772 H 2198.95 3.79767 1.39853 0
M  V30 23773 H 2197.52 2.74055 1.50375 0
M  V30 23774 H 2196.74 3.8782 -0.706324 0
M  V30 23775 H 2198.02 5.06824 -0.447936 0
M  V30 23776 H 2197.42 4.95401 2.73119 0
M  V30 23777 H 2195.98 5.88364 2.80483 0
M  V30 23778 N 2199.41 0.545154 1.47871 0
M  V30 23779 C 2200.34 -0.246581 2.2787 0
M  V30 23780 C 2201.36 -0.890537 1.36284 0
M  V30 23781 O 2202.55 -0.76642 1.61209 0
M  V30 23782 C 2199.65 -1.36576 3.10161 0
M  V30 23783 C 2198.82 -0.820879 4.29628 0
M  V30 23784 C 2197.88 -1.82306 4.9361 0
M  V30 23785 O 2196.9 -1.37396 5.52369 0
M  V30 23786 N 2198.11 -3.15595 4.87217 0
M  V30 23787 H 2200.87 0.439591 2.96459 0
M  V30 23788 H 2198.43 0.380449 1.57366 0
M  V30 23789 H 2200.42 -2.03468 3.49833 0
M  V30 23790 H 2198.99 -1.95536 2.43894 0
M  V30 23791 H 2198.21 0.0244725 3.94192 0
M  V30 23792 H 2199.5 -0.435973 5.06929 0
M  V30 23793 H 2198.9 -3.54736 4.40657 0
M  V30 23794 H 2197.46 -3.78078 5.30943 0
M  V30 23795 N 2200.89 -1.55074 0.28101 0
M  V30 23796 C 2201.84 -2.22759 -0.603897 0
M  V30 23797 C 2202.81 -1.20311 -1.14518 0
M  V30 23798 O 2203.99 -1.48871 -1.1934 0
M  V30 23799 C 2201.13 -2.95687 -1.77942 0
M  V30 23800 C 2200.25 -4.12866 -1.27143 0
M  V30 23801 C 2199.38 -4.73424 -2.40921 0
M  V30 23802 C 2198.42 -5.82786 -1.87155 0
M  V30 23803 N 2197.56 -6.37382 -2.9443 0
M  V30 23804 H 2202.4 -2.97993 -0.0200716 0
M  V30 23805 H 2199.93 -1.471 0.00186011 0
M  V30 23806 H 2201.89 -3.36189 -2.47049 0
M  V30 23807 H 2200.52 -2.22866 -2.33518 0
M  V30 23808 H 2199.57 -3.77445 -0.473264 0
M  V30 23809 H 2200.89 -4.91716 -0.837664 0
M  V30 23810 H 2200.04 -5.16676 -3.18012 0
M  V30 23811 H 2198.78 -3.93864 -2.87616 0
M  V30 23812 H 2197.78 -5.38978 -1.08547 0
M  V30 23813 H 2199.01 -6.64218 -1.41389 0
M  V30 23814 H 2196.95 -5.60713 -3.40495 0
M  V30 23815 H 2196.87 -7.11521 -2.55488 0
M  V30 23816 H 2198.14 -6.85292 -3.71477 0
M  V30 23817 N 2202.37 -0.00838561 -1.57598 0
M  V30 23818 C 2203.32 0.980309 -2.08946 0
M  V30 23819 C 2204.29 1.33612 -0.986761 0
M  V30 23820 O 2205.47 1.43304 -1.25971 0
M  V30 23821 C 2202.61 2.2643 -2.60429 0
M  V30 23822 C 2201.72 1.96678 -3.84632 0
M  V30 23823 C 2200.86 3.1922 -4.24584 0
M  V30 23824 C 2199.9 2.85192 -5.41601 0
M  V30 23825 N 2199.04 4.00297 -5.76807 0
M  V30 23826 H 2203.88 0.535499 -2.93149 0
M  V30 23827 H 2201.41 0.252751 -1.44912 0
M  V30 23828 H 2203.37 3.01504 -2.88359 0
M  V30 23829 H 2202 2.68565 -1.79088 0
M  V30 23830 H 2201.05 1.11936 -3.63558 0
M  V30 23831 H 2202.36 1.67603 -4.69799 0
M  V30 23832 H 2201.52 4.02633 -4.53841 0
M  V30 23833 H 2200.26 3.51441 -3.38143 0
M  V30 23834 H 2199.26 2.00189 -5.12059 0
M  V30 23835 H 2200.49 2.54211 -6.29725 0
M  V30 23836 H 2198.43 4.32398 -4.93323 0
M  V30 23837 H 2198.35 3.74774 -6.56567 0
M  V30 23838 H 2199.62 4.84473 -6.1066 0
M  V30 23839 N 2203.85 1.55365 0.264492 0
M  V30 23840 C 2204.79 1.88827 1.32714 0
M  V30 23841 C 2205.76 0.740631 1.48674 0
M  V30 23842 O 2206.95 0.992686 1.62943 0
M  V30 23843 C 2204.09 2.17311 2.68086 0
M  V30 23844 C 2203.2 3.44789 2.60278 0
M  V30 23845 C 2202.34 3.6293 3.87885 0
M  V30 23846 C 2201.38 4.84071 3.74623 0
M  V30 23847 N 2200.51 4.98825 4.94083 0
M  V30 23848 H 2205.35 2.79458 1.03477 0
M  V30 23849 H 2202.89 1.38351 0.499733 0
M  V30 23850 H 2204.85 2.31827 3.4686 0
M  V30 23851 H 2203.48 1.29906 2.95507 0
M  V30 23852 H 2202.53 3.387 1.73167 0
M  V30 23853 H 2203.84 4.33703 2.46381 0
M  V30 23854 H 2203 3.7731 4.75102 0
M  V30 23855 H 2201.74 2.72217 4.04659 0
M  V30 23856 H 2200.74 4.69686 2.85789 0
M  V30 23857 H 2201.97 5.76227 3.5936 0
M  V30 23858 H 2199.91 4.11045 5.11252 0
M  V30 23859 H 2199.83 5.81798 4.8275 0
M  V30 23860 H 2201.1 5.17598 5.82848 0
M  V30 23861 N 2205.33 -0.529387 1.48443 0
M  V30 23862 C 2206.57 -1.28518 1.56491 0
M  V30 23863 C 2206.9 -1.93025 0.239076 0
M  V30 23864 O 2206.16 -1.79886 -0.770681 0
M  V30 23865 C 2206.45 -2.39553 2.65234 0
M  V30 23866 C 2206.12 -1.92695 4.07651 0
M  V30 23867 C 2204.78 -1.79633 4.46414 0
M  V30 23868 C 2207.13 -1.57291 4.96899 0
M  V30 23869 C 2204.46 -1.29504 5.72229 0
M  V30 23870 C 2206.81 -1.08625 6.23204 0
M  V30 23871 C 2205.48 -0.941803 6.60822 0
M  V30 23872 H 2204.75 -0.470282 0.572639 0
M  V30 23873 H 2207.4 -0.590688 1.82162 0
M  V30 23874 H 2205.7 -3.14675 2.33425 0
M  V30 23875 H 2207.4 -2.97681 2.68676 0
M  V30 23876 H 2203.99 -2.03812 3.77039 0
M  V30 23877 H 2208.17 -1.66242 4.67629 0
M  V30 23878 H 2203.43 -1.17009 6.00099 0
M  V30 23879 H 2207.6 -0.803015 6.91755 0
M  V30 23880 H 2205.23 -0.551167 7.58199 0
M  V30 23881 N 2206.8 -1.37041 -0.778305 0
M  V30 23882 C 2208.05 -1.31626 -1.53359 0
M  V30 23883 C 2208.37 0.100797 -1.94739 0
M  V30 23884 O 2207.64 1.04344 -1.65799 0
M  V30 23885 H 2206.22 -0.484244 -0.568785 0
M  V30 23886 H 2208.88 -1.71459 -0.926712 0
M  V30 23887 H 2207.98 -1.951 -2.43603 0
M  V30 23888 N 2208.28 1.00373 -1.21503 0
M  V30 23889 C 2209.53 1.73825 -1.03098 0
M  V30 23890 C 2209.85 1.90056 0.436307 0
M  V30 23891 O 2209.12 1.45238 1.31464 0
M  V30 23892 H 2207.7 0.644009 -0.378498 0
M  V30 23893 H 2210.36 1.20947 -1.52833 0
M  V30 23894 H 2209.46 2.73692 -1.49996 0
M  V30 23895 N 2209.76 1.02298 1.19887 0
M  V30 23896 C 2210.69 0.556826 2.22333 0
M  V30 23897 C 2211.7 -0.364171 1.58675 0
M  V30 23898 O 2212.89 -0.161502 1.77768 0
M  V30 23899 C 2209.99 -0.208634 3.38257 0
M  V30 23900 C 2209.17 0.715846 4.31503 0
M  V30 23901 C 2208.23 -0.00316348 5.262 0
M  V30 23902 O 2207.25 0.621457 5.65797 0
M  V30 23903 N 2208.45 -1.27589 5.66305 0
M  V30 23904 H 2211.22 1.43789 2.62954 0
M  V30 23905 H 2208.78 0.901285 1.34493 0
M  V30 23906 H 2210.77 -0.69904 3.98617 0
M  V30 23907 H 2209.34 -0.99105 2.96474 0
M  V30 23908 H 2208.56 1.38645 3.69014 0
M  V30 23909 H 2209.85 1.34437 4.90718 0
M  V30 23910 H 2209.25 -1.80419 5.36158 0
M  V30 23911 H 2207.8 -1.71091 6.28945 0
M  V30 23912 N 2211.24 -1.35782 0.800057 0
M  V30 23913 C 2212.51 -1.93271 0.300914 0
M  V30 23914 C 2212.89 -1.73083 -1.20854 0
M  V30 23915 O 2212.24 -1.09599 -2.005 0
M  V30 23916 C 2212.45 -3.41802 0.70517 0
M  V30 23917 C 2213.8 -4.1894 0.690944 0
M  V30 23918 O 2214.82 -3.50288 0.646305 0
M  V30 23919 O 2213.68 -5.4142 0.743415 0
M  V30 23920 H 2210.78 -0.823391 0.0771749 0
M  V30 23921 H 2213.32 -1.44899 0.883316 0
M  V30 23922 H 2212.1 -3.50198 1.74577 0
M  V30 23923 H 2211.72 -3.97481 0.0972239 0
M  V30 23924 N 2212.72 -0.552988 -1.4758 0
M  V30 23925 C 2213.96 -0.025235 -2.01684 0
M  V30 23926 C 2214.28 1.33112 -1.4332 0
M  V30 23927 O 2215.48 1.94855 -1.89061 0
M  V30 23928 C 2213.94 0.00535725 -3.599 0
M  V30 23929 C 2213.55 -1.3475 -4.27255 0
M  V30 23930 C 2215.29 0.480725 -4.21769 0
M  V30 23931 C 2213.2 -1.27624 -5.77465 0
M  V30 23932 H 2212.13 -0.00566359 -0.753979 0
M  V30 23933 H 2214.78 -0.70021 -1.69615 0
M  V30 23934 H 2213.16 0.745892 -3.88912 0
M  V30 23935 H 2214.34 -2.10541 -4.09889 0
M  V30 23936 H 2212.65 -1.76046 -3.77355 0
M  V30 23937 H 2215.25 0.552366 -5.31839 0
M  V30 23938 H 2215.59 1.49177 -3.88654 0
M  V30 23939 H 2216.12 -0.204822 -3.97272 0
M  V30 23940 H 2212.86 -2.26315 -6.15192 0
M  V30 23941 H 2212.38 -0.560065 -5.97179 0
M  V30 23942 H 2214.06 -0.976533 -6.39588 0
M  V30 23943 N 2214.19 1.54923 -0.28923 0
M  V30 23944 C 2215.44 1.999 0.323483 0
M  V30 23945 C 2215.77 1.17765 1.54795 0
M  V30 23946 O 2215.02 0.238869 1.94237 0
M  V30 23947 C 2215.32 3.49738 0.736058 0
M  V30 23948 C 2214.99 4.4925 -0.385354 0
M  V30 23949 C 2213.65 4.7618 -0.69324 0
M  V30 23950 C 2216 5.08573 -1.1403 0
M  V30 23951 C 2213.33 5.59698 -1.7594 0
M  V30 23952 C 2215.68 5.9325 -2.19629 0
M  V30 23953 C 2214.35 6.18496 -2.51037 0
M  V30 23954 H 2213.62 0.731484 0.118371 0
M  V30 23955 H 2216.26 1.87149 -0.40588 0
M  V30 23956 H 2214.57 3.60038 1.54532 0
M  V30 23957 H 2216.27 3.81955 1.22112 0
M  V30 23958 H 2212.86 4.28386 -0.135277 0
M  V30 23959 H 2217.04 4.87779 -0.915696 0
M  V30 23960 H 2212.3 5.77499 -2.0076 0
M  V30 23961 H 2216.47 6.38247 -2.78593 0
M  V30 23962 H 2214.1 6.83002 -3.33784 0
M  V30 23963 N 2215.67 0.0167433 1.57591 0
M  V30 23964 C 2216.6 -1.00362 2.04945 0
M  V30 23965 C 2217.58 -1.32486 0.942672 0
M  V30 23966 O 2218.77 -1.44364 1.21207 0
M  V30 23967 C 2215.89 -2.32693 2.46113 0
M  V30 23968 C 2214.94 -2.16116 3.6769 0
M  V30 23969 S 2215.77 -1.47152 5.14885 0
M  V30 23970 C 2216.93 -2.80878 5.59337 0
M  V30 23971 H 2217.16 -0.600477 2.91173 0
M  V30 23972 H 2214.69 -0.194605 1.53169 0
M  V30 23973 H 2216.65 -3.08773 2.70499 0
M  V30 23974 H 2215.31 -2.70143 1.60255 0
M  V30 23975 H 2214.51 -3.13915 3.94301 0
M  V30 23976 H 2214.11 -1.48179 3.43393 0
M  V30 23977 H 2216.4 -3.77146 5.62821 0
M  V30 23978 H 2217.34 -2.58946 6.59054 0
M  V30 23979 H 2217.75 -2.85557 4.86947 0
M  V30 23980 N 2217.15 -1.55503 -0.256249 0
M  V30 23981 C 2218.38 -1.80941 -1.00339 0
M  V30 23982 C 2218.79 -0.591171 -1.79306 0
M  V30 23983 O 2218.15 0.44005 -1.77115 0
M  V30 23984 C 2218.2 -3.0448 -1.9487 0
M  V30 23985 O 2217.92 -4.216 -1.19099 0
M  V30 23986 C 2219.42 -3.42648 -2.81259 0
M  V30 23987 H 2216.64 -0.602344 -0.295674 0
M  V30 23988 H 2219.19 -2.02547 -0.281962 0
M  V30 23989 H 2217.34 -2.84952 -2.62452 0
M  V30 23990 H 2217.76 -4.91555 -1.8296 0
M  V30 23991 H 2219.23 -4.32217 -3.43355 0
M  V30 23992 H 2219.71 -2.62808 -3.51893 0
M  V30 23993 H 2220.31 -3.64495 -2.19143 0
M  V30 23994 N 2218.63 0.521507 -1.48721 0
M  V30 23995 C 2219.54 1.652 -1.66572 0
M  V30 23996 C 2220.55 1.65138 -0.548226 0
M  V30 23997 O 2221.73 1.83934 -0.820371 0
M  V30 23998 C 2218.8 3.01639 -1.70923 0
M  V30 23999 C 2217.86 3.1249 -2.94361 0
M  V30 24000 C 2217.09 4.42421 -2.98495 0
M  V30 24001 O 2217.31 5.3002 -2.10796 0
M  V30 24002 O 2216.25 4.57815 -3.90754 0
M  V30 24003 H 2220.07 1.53075 -2.62301 0
M  V30 24004 H 2217.66 0.695541 -1.32222 0
M  V30 24005 H 2219.54 3.82768 -1.76256 0
M  V30 24006 H 2218.21 3.1407 -0.783688 0
M  V30 24007 H 2217.12 2.30625 -2.94556 0
M  V30 24008 H 2218.45 3.04979 -3.86327 0
M  V30 24009 N 2220.11 1.37452 0.771027 0
M  V30 24010 C 2221.02 1.35467 1.91535 0
M  V30 24011 C 2222.03 0.254153 1.72134 0
M  V30 24012 O 2223.21 0.48966 1.95357 0
M  V30 24013 C 2220.27 1.16139 3.26669 0
M  V30 24014 C 2219.33 2.35837 3.58719 0
M  V30 24015 C 2218.57 2.17422 4.87405 0
M  V30 24016 O 2218.79 1.15885 5.58504 0
M  V30 24017 O 2217.72 3.05624 5.18534 0
M  V30 24018 H 2221.55 2.3185 1.96161 0
M  V30 24019 H 2219.14 1.18189 0.913879 0
M  V30 24020 H 2221.02 1.07352 4.07497 0
M  V30 24021 H 2219.69 0.228308 3.22894 0
M  V30 24022 H 2218.6 2.50197 2.78123 0
M  V30 24023 H 2219.93 3.27716 3.67237 0
M  V30 24024 N 2221.58 -0.997276 1.22033 0
M  V30 24025 C 2222.52 -2.08844 0.944299 0
M  V30 24026 C 2223.53 -1.62625 -0.0754377 0
M  V30 24027 O 2224.72 -1.77799 0.158026 0
M  V30 24028 C 2221.82 -3.36557 0.397782 0
M  V30 24029 C 2220.99 -4.11826 1.4737 0
M  V30 24030 C 2220.05 -5.17826 0.935042 0
M  V30 24031 O 2219.08 -5.45652 1.62025 0
M  V30 24032 N 2220.28 -5.79979 -0.245793 0
M  V30 24033 H 2223.04 -2.33105 1.88367 0
M  V30 24034 H 2220.6 -1.1627 1.12663 0
M  V30 24035 H 2222.6 -4.04694 0.0228482 0
M  V30 24036 H 2221.17 -3.09393 -0.446592 0
M  V30 24037 H 2220.39 -3.38383 2.02214 0
M  V30 24038 H 2221.67 -4.58887 2.19772 0
M  V30 24039 H 2221.07 -5.59734 -0.819377 0
M  V30 24040 H 2219.63 -6.49371 -0.562158 0
M  V30 24041 N 2223.06 -1.02932 -1.19343 0
M  V30 24042 C 2224.01 -0.610503 -2.22579 0
M  V30 24043 C 2224.98 0.375917 -1.6179 0
M  V30 24044 O 2226.16 0.272478 -1.88844 0
M  V30 24045 C 2223.3 0.0320867 -3.45085 0
M  V30 24046 C 2222.42 -1.00043 -4.20256 0
M  V30 24047 C 2221.55 -0.327553 -5.30189 0
M  V30 24048 C 2220.59 -1.34595 -5.97119 0
M  V30 24049 N 2219.73 -0.698849 -6.98613 0
M  V30 24050 H 2224.57 -1.49542 -2.57762 0
M  V30 24051 H 2222.11 -0.748333 -1.26643 0
M  V30 24052 H 2224.06 0.421893 -4.15061 0
M  V30 24053 H 2222.69 0.880585 -3.10557 0
M  V30 24054 H 2221.75 -1.50829 -3.4922 0
M  V30 24055 H 2223.06 -1.77441 -4.66172 0
M  V30 24056 H 2222.21 0.117073 -6.06587 0
M  V30 24057 H 2220.95 0.478627 -4.85346 0
M  V30 24058 H 2219.96 -1.80083 -5.19471 0
M  V30 24059 H 2221.18 -2.15363 -6.44046 0
M  V30 24060 H 2219.13 0.0872318 -6.55942 0
M  V30 24061 H 2219.04 -1.41071 -7.42721 0
M  V30 24062 H 2220.31 -0.278239 -7.79003 0
M  V30 24063 N 2224.54 1.35356 -0.807246 0
M  V30 24064 C 2225.49 2.29786 -0.216077 0
M  V30 24065 C 2226.46 1.52843 0.650252 0
M  V30 24066 O 2227.64 1.81279 0.595195 0
M  V30 24067 C 2224.78 3.39322 0.628834 0
M  V30 24068 C 2223.9 4.31229 -0.258003 0
M  V30 24069 C 2223.03 5.27857 0.594976 0
M  V30 24070 C 2222.07 6.11402 -0.292218 0
M  V30 24071 N 2221.21 7.00166 0.520772 0
M  V30 24072 H 2226.05 2.79753 -1.02676 0
M  V30 24073 H 2223.58 1.37683 -0.517863 0
M  V30 24074 H 2225.54 4.01496 1.13386 0
M  V30 24075 H 2224.17 2.9063 1.40477 0
M  V30 24076 H 2223.22 3.70054 -0.881141 0
M  V30 24077 H 2224.54 4.89846 -0.940845 0
M  V30 24078 H 2223.69 5.95407 1.16511 0
M  V30 24079 H 2222.43 4.69738 1.31138 0
M  V30 24080 H 2221.43 5.42799 -0.87462 0
M  V30 24081 H 2222.66 6.716 -1.0065 0
M  V30 24082 H 2220.6 6.44534 1.22114 0
M  V30 24083 H 2220.52 7.55928 -0.10401 0
M  V30 24084 H 2221.79 7.72063 1.07416 0
M  V30 24085 N 2226.02 0.560807 1.47284 0
M  V30 24086 C 2227.25 0.0430001 2.06555 0
M  V30 24087 C 2227.66 -1.25774 1.41342 0
M  V30 24088 O 2227 -1.76616 0.505213 0
M  V30 24089 C 2227.06 -0.219824 3.58827 0
M  V30 24090 C 2226.73 0.992023 4.46103 0
M  V30 24091 C 2227.72 1.89852 4.83996 0
M  V30 24092 C 2225.41 1.20771 4.87565 0
M  V30 24093 C 2227.4 3.00435 5.62154 0
M  V30 24094 C 2225.09 2.31663 5.65487 0
M  V30 24095 C 2226.09 3.21326 6.02693 0
M  V30 24096 O 2225.77 4.30295 6.79045 0
M  V30 24097 H 2225.51 0.0444586 0.674536 0
M  V30 24098 H 2228.06 0.774852 1.90224 0
M  V30 24099 H 2226.29 -1.00603 3.73384 0
M  V30 24100 H 2227.98 -0.683452 4.00105 0
M  V30 24101 H 2228.75 1.74395 4.52561 0
M  V30 24102 H 2224.62 0.518973 4.58069 0
M  V30 24103 H 2228.17 3.70446 5.91114 0
M  V30 24104 H 2224.07 2.47091 5.96336 0
M  V30 24105 H 2224.83 4.28388 6.97443 0
M  V30 24106 N 2227.5 -1.54768 0.297442 0
M  V30 24107 C 2228.73 -2.04183 -0.315129 0
M  V30 24108 C 2229.13 -1.17441 -1.48338 0
M  V30 24109 O 2228.48 -0.191923 -1.82695 0
M  V30 24110 C 2228.54 -3.49608 -0.837521 0
M  V30 24111 C 2228.2 -4.5654 0.204992 0
M  V30 24112 C 2229.2 -5.0955 1.03222 0
M  V30 24113 C 2226.89 -5.01109 0.345666 0
M  V30 24114 C 2228.88 -6.05667 1.98611 0
M  V30 24115 C 2226.57 -5.97047 1.303 0
M  V30 24116 C 2227.56 -6.49209 2.1217 0
M  V30 24117 O 2227.25 -7.43268 3.06281 0
M  V30 24118 H 2226.98 -0.672052 -0.0729528 0
M  V30 24119 H 2229.54 -2.00764 0.433942 0
M  V30 24120 H 2227.77 -3.50339 -1.63706 0
M  V30 24121 H 2229.46 -3.82239 -1.36559 0
M  V30 24122 H 2230.22 -4.75914 0.934395 0
M  V30 24123 H 2226.1 -4.60139 -0.281629 0
M  V30 24124 H 2229.65 -6.46306 2.62553 0
M  V30 24125 H 2225.54 -6.301 1.40156 0
M  V30 24126 H 2226.31 -7.61058 3.01219 0
M  V30 24127 N 2228.97 -0.0251005 -1.5758 0
M  V30 24128 C 2229.92 0.976133 -2.11127 0
M  V30 24129 C 2230.92 1.33957 -1.03691 0
M  V30 24130 O 2232.12 1.32227 -1.22131 0
M  V30 24131 H 2228.5 0.33255 -0.674474 0
M  V30 24132 H 2230.47 0.499171 -2.94195 0
M  V30 24133 C 2229.22 2.25076 -2.65021 0
M  V30 24134 H 2228.54 1.97984 -3.47336 0
M  V30 24135 H 2229.98 2.93352 -3.06138 0
M  V30 24136 C 2228.44 2.97776 -1.57579 0
M  V30 24137 O 2228.97 3.89731 -0.973272 0
M  V30 24138 N 2227.18 2.60041 -1.2972 0
M  V30 24139 H 2226.72 1.85342 -1.78903 0
M  V30 24140 H 2226.68 3.08993 -0.580564 0
M  V30 24141 N 2230.45 1.55637 0.247999 0
M  V30 24142 C 2231.42 1.89423 1.29041 0
M  V30 24143 C 2232.42 0.770606 1.41132 0
M  V30 24144 O 2233.61 1.03861 1.39852 0
M  V30 24145 C 2230.74 2.12169 2.66828 0
M  V30 24146 H 2231.93 2.8263 1.003 0
M  V30 24147 H 2229.48 1.48512 0.487239 0
M  V30 24148 H 2230.22 1.21427 3.00709 0
M  V30 24149 H 2230 2.94002 2.59433 0
M  V30 24150 H 2231.49 2.39496 3.42098 0
M  V30 24151 N 2231.93 -0.513613 1.48996 0
M  V30 24152 C 2232.86 -1.63376 1.59322 0
M  V30 24153 C 2233.84 -1.56453 0.442844 0
M  V30 24154 O 2235.03 -1.76692 0.656686 0
M  V30 24155 C 2232.15 -3.01846 1.53645 0
M  V30 24156 C 2231.2 -3.27073 2.73725 0
M  V30 24157 S 2232.03 -3.11563 4.35533 0
M  V30 24158 C 2233.19 -4.5245 4.32481 0
M  V30 24159 H 2233.42 -1.5437 2.54081 0
M  V30 24160 H 2230.95 -0.697824 1.37731 0
M  V30 24161 H 2232.91 -3.81697 1.51056 0
M  V30 24162 H 2231.57 -3.08278 0.601952 0
M  V30 24163 H 2230.77 -4.28128 2.65938 0
M  V30 24164 H 2230.37 -2.54922 2.73662 0
M  V30 24165 H 2232.66 -5.44294 4.03423 0
M  V30 24166 H 2233.6 -4.6529 5.33771 0
M  V30 24167 H 2234.01 -4.32539 3.62726 0
M  V30 24168 N 2233.41 -1.37859 -0.763727 0
M  V30 24169 C 2234.36 -1.34271 -1.87723 0
M  V30 24170 C 2235.33 -0.206908 -1.64806 0
M  V30 24171 O 2236.51 -0.397541 -1.86613 0
M  V30 24172 C 2233.65 -1.16352 -3.24894 0
M  V30 24173 C 2232.76 -2.39231 -3.59711 0
M  V30 24174 C 2231.9 -2.14122 -4.86133 0
M  V30 24175 C 2230.94 -3.32826 -5.13705 0
M  V30 24176 N 2230.08 -3.07217 -6.31318 0
M  V30 24177 H 2234.92 -2.2947 -1.90125 0
M  V30 24178 H 2232.45 -1.14019 -0.929412 0
M  V30 24179 H 2234.41 -1.03982 -4.04034 0
M  V30 24180 H 2233.04 -0.247965 -3.21846 0
M  V30 24181 H 2232.09 -2.62312 -2.75494 0
M  V30 24182 H 2233.4 -3.27734 -3.76021 0
M  V30 24183 H 2232.56 -1.9883 -5.73194 0
M  V30 24184 H 2231.3 -1.22969 -4.71943 0
M  V30 24185 H 2230.3 -3.48649 -4.25116 0
M  V30 24186 H 2231.53 -4.24841 -5.29799 0
M  V30 24187 H 2229.47 -2.18701 -6.18471 0
M  V30 24188 H 2229.39 -3.89265 -6.48081 0
M  V30 24189 H 2230.66 -2.95558 -7.21294 0
M  V30 24190 N 2234.89 0.990791 -1.22561 0
M  V30 24191 C 2235.83 2.08129 -0.997555 0
M  V30 24192 C 2236.8 1.659 0.081441 0
M  V30 24193 O 2237.99 1.90677 -0.0685759 0
M  V30 24194 C 2235.13 3.40128 -0.583675 0
M  V30 24195 C 2234.24 3.95687 -1.73367 0
M  V30 24196 C 2233.38 5.15855 -1.26757 0
M  V30 24197 C 2232.42 5.63555 -2.38898 0
M  V30 24198 N 2231.55 6.74961 -1.9332 0
M  V30 24199 H 2236.39 2.2697 -1.93103 0
M  V30 24200 H 2233.93 1.11272 -0.962133 0
M  V30 24201 H 2235.89 4.15933 -0.324874 0
M  V30 24202 H 2234.52 3.21281 0.312789 0
M  V30 24203 H 2233.57 3.16734 -2.10674 0
M  V30 24204 H 2234.88 4.27067 -2.57712 0
M  V30 24205 H 2234.04 5.98956 -0.966278 0
M  V30 24206 H 2232.78 4.86103 -0.394357 0
M  V30 24207 H 2231.78 4.79041 -2.69814 0
M  V30 24208 H 2233.01 5.95331 -3.26739 0
M  V30 24209 H 2230.95 6.46988 -1.08364 0
M  V30 24210 H 2230.87 7.0567 -2.7123 0
M  V30 24211 H 2232.14 7.61562 -1.66265 0
M  V30 24212 N 2236.37 1.03564 1.18795 0
M  V30 24213 C 2237.3 0.643058 2.24471 0
M  V30 24214 C 2238.28 -0.351253 1.66434 0
M  V30 24215 O 2239.46 -0.232471 1.92804 0
M  V30 24216 C 2236.59 1.85533e-05 3.473 0
M  V30 24217 C 2235.55 0.91733 4.18054 0
M  V30 24218 C 2234.87 0.139035 5.34519 0
M  V30 24219 C 2236.17 2.23415 4.72105 0
M  V30 24220 H 2237.87 1.52648 2.57564 0
M  V30 24221 H 2235.41 0.735416 1.23805 0
M  V30 24222 H 2237.36 -0.286309 4.20426 0
M  V30 24223 H 2236.09 -0.918243 3.13426 0
M  V30 24224 H 2234.75 1.18796 3.46818 0
M  V30 24225 H 2234.4 -0.781475 4.96892 0
M  V30 24226 H 2234.1 0.750107 5.82793 0
M  V30 24227 H 2235.62 -0.140393 6.10439 0
M  V30 24228 H 2237.03 2.00888 5.36951 0
M  V30 24229 H 2235.43 2.79774 5.30892 0
M  V30 24230 H 2236.5 2.88414 3.89802 0
M  V30 24231 N 2237.84 -1.34926 0.814413 0
M  V30 24232 C 2239.09 -1.98149 0.397671 0
M  V30 24233 C 2239.41 -1.6491 -1.04066 0
M  V30 24234 O 2238.68 -0.93551 -1.72119 0
M  V30 24235 H 2237.26 -0.732978 0.144056 0
M  V30 24236 H 2239.92 -1.64708 1.04198 0
M  V30 24237 H 2239.02 -3.07909 0.509743 0
M  V30 24238 N 2239.32 -0.56861 -1.46985 0
M  V30 24239 C 2240.55 -0.0520892 -2.07335 0
M  V30 24240 C 2240.97 1.2373 -1.41677 0
M  V30 24241 O 2240.33 1.74393 -0.495654 0
M  V30 24242 C 2240.38 0.114947 -3.60417 0
M  V30 24243 O 2239.48 1.17485 -3.95311 0
M  V30 24244 H 2238.82 -0.0564501 -0.661596 0
M  V30 24245 H 2241.35 -0.78754 -1.88836 0
M  V30 24246 H 2241.36 0.325572 -4.06699 0
M  V30 24247 H 2240.04 -0.826747 -4.076 0
M  V30 24248 H 2238.61 0.943805 -3.60759 0
M  V30 24249 N 2240.8 1.54608 -0.305646 0
M  V30 24250 C 2241.75 2.23692 0.568382 0
M  V30 24251 C 2242.72 1.22118 1.1259 0
M  V30 24252 O 2243.9 1.50751 1.16956 0
M  V30 24253 C 2241.04 2.9848 1.73215 0
M  V30 24254 C 2240.15 4.14837 1.20558 0
M  V30 24255 C 2239.29 4.77197 2.33359 0
M  V30 24256 C 2238.33 5.8569 1.7786 0
M  V30 24257 N 2237.47 6.41985 2.84252 0
M  V30 24258 H 2242.31 2.97987 -0.0273391 0
M  V30 24259 H 2239.84 1.47078 -0.0252622 0
M  V30 24260 H 2241.8 3.40076 2.41669 0
M  V30 24261 H 2240.43 2.26552 2.29943 0
M  V30 24262 H 2239.48 3.7815 0.413156 0
M  V30 24263 H 2240.79 4.92986 0.759331 0
M  V30 24264 H 2239.95 5.21669 3.09751 0
M  V30 24265 H 2238.69 3.98389 2.81313 0
M  V30 24266 H 2237.69 5.40637 0.999585 0
M  V30 24267 H 2238.92 6.66384 1.30804 0
M  V30 24268 H 2236.86 5.66059 3.31531 0
M  V30 24269 H 2236.78 7.15495 2.44136 0
M  V30 24270 H 2238.05 6.91115 3.60528 0
M  V30 24271 N 2242.28 0.033457 1.57564 0
M  V30 24272 C 2243.22 -0.946944 2.10479 0
M  V30 24273 C 2244.19 -1.32025 1.00789 0
M  V30 24274 O 2245.38 -1.41282 1.28235 0
M  V30 24275 C 2242.52 -2.22259 2.63998 0
M  V30 24276 C 2241.63 -1.90534 3.87712 0
M  V30 24277 C 2240.77 -3.12425 4.29609 0
M  V30 24278 C 2239.81 -2.7654 5.4607 0
M  V30 24279 N 2238.94 -3.9107 5.83103 0
M  V30 24280 H 2243.78 -0.488794 2.93964 0
M  V30 24281 H 2241.32 -0.229664 1.45296 0
M  V30 24282 H 2243.28 -2.96878 2.93119 0
M  V30 24283 H 2241.91 -2.65682 1.83338 0
M  V30 24284 H 2240.96 -1.06138 3.65293 0
M  V30 24285 H 2242.27 -1.60107 4.72406 0
M  V30 24286 H 2241.43 -3.95361 4.60189 0
M  V30 24287 H 2240.17 -3.46017 3.43691 0
M  V30 24288 H 2239.17 -1.92017 5.15179 0
M  V30 24289 H 2240.4 -2.4416 6.3369 0
M  V30 24290 H 2238.34 -4.24495 5.0014 0
M  V30 24291 H 2238.26 -3.64282 6.62446 0
M  V30 24292 H 2239.53 -4.74697 6.1829 0
M  V30 24293 N 2243.76 -1.55766 -0.239741 0
M  V30 24294 C 2245.17 -1.68299 -0.808234 0
M  V30 24295 C 2245.52 -0.632214 -1.85735 0
M  V30 24296 O 2244.64 0.220166 -2.15277 0
M  V30 24297 C 2245.24 -3.05114 -1.47279 0
M  V30 24298 C 2243.8 -3.19562 -1.98889 0
M  V30 24299 C 2242.94 -2.64191 -0.842528 0
M  V30 24300 H 2245.89 -1.58693 -0.0154143 0
M  V30 24301 H 2245.92 -2.99958 -2.34106 0
M  V30 24302 H 2245.43 -3.81569 -0.708986 0
M  V30 24303 H 2243.53 -2.47943 -2.78128 0
M  V30 24304 H 2243.64 -4.2656 -2.18136 0
M  V30 24305 H 2242.01 -2.22199 -1.24497 0
M  V30 24306 H 2242.79 -3.43178 -0.0916949 0
M  V30 24307 N 2245.23 0.505704 -1.49266 0
M  V30 24308 C 2246.17 1.62434 -1.61702 0
M  V30 24309 C 2247.18 1.54933 -0.499952 0
M  V30 24310 O 2248.37 1.60951 -0.771813 0
M  V30 24311 C 2245.47 3.01204 -1.55335 0
M  V30 24312 C 2244.64 3.33938 -2.82496 0
M  V30 24313 C 2243.7 4.52098 -2.69246 0
M  V30 24314 O 2242.73 4.54114 -3.43175 0
M  V30 24315 N 2243.93 5.51732 -1.80477 0
M  V30 24316 H 2246.69 1.52195 -2.5818 0
M  V30 24317 H 2244.25 0.693485 -1.46296 0
M  V30 24318 H 2246.25 3.78164 -1.44132 0
M  V30 24319 H 2244.82 3.05394 -0.66735 0
M  V30 24320 H 2244.04 2.45921 -3.08085 0
M  V30 24321 H 2245.32 3.52604 -3.66808 0
M  V30 24322 H 2244.72 5.52899 -1.19662 0
M  V30 24323 H 2243.28 6.27812 -1.75199 0
M  V30 24324 N 2246.71 1.38262 0.756405 0
M  V30 24325 C 2247.66 1.35264 1.87009 0
M  V30 24326 C 2248.63 0.215645 1.64694 0
M  V30 24327 O 2249.81 0.407432 1.86399 0
M  V30 24328 C 2246.95 1.18073 3.24273 0
M  V30 24329 C 2246.07 2.41136 3.58438 0
M  V30 24330 C 2245.2 2.16697 4.8499 0
M  V30 24331 C 2244.24 3.35546 5.11933 0
M  V30 24332 N 2243.38 3.10561 6.2968 0
M  V30 24333 H 2248.22 2.30475 1.88906 0
M  V30 24334 H 2245.76 1.1451 0.923353 0
M  V30 24335 H 2247.71 1.06123 4.03477 0
M  V30 24336 H 2246.34 0.26503 3.2171 0
M  V30 24337 H 2245.4 2.63769 2.74099 0
M  V30 24338 H 2246.71 3.29724 3.74278 0
M  V30 24339 H 2245.86 2.01867 5.72132 0
M  V30 24340 H 2244.6 1.25471 4.71284 0
M  V30 24341 H 2243.61 3.50898 4.23262 0
M  V30 24342 H 2244.83 4.27645 5.27539 0
M  V30 24343 H 2242.78 2.21978 6.17302 0
M  V30 24344 H 2242.69 3.92697 6.46007 0
M  V30 24345 H 2243.96 2.99379 7.19717 0
M  V30 24346 N 2248.19 -0.984277 1.23084 0
M  V30 24347 C 2249.6 -1.53958 1.05612 0
M  V30 24348 C 2249.95 -1.92529 -0.377759 0
M  V30 24349 O 2249.08 -1.75651 -1.26395 0
M  V30 24350 C 2249.67 -2.79767 1.91092 0
M  V30 24351 C 2248.23 -3.3171 1.77891 0
M  V30 24352 C 2247.38 -2.0473 1.87032 0
M  V30 24353 H 2250.33 -0.804395 1.36803 0
M  V30 24354 H 2250.35 -3.52468 1.43342 0
M  V30 24355 H 2249.86 -2.51663 2.95445 0
M  V30 24356 H 2247.96 -3.64703 0.763059 0
M  V30 24357 H 2248.08 -4.0173 2.61055 0
M  V30 24358 H 2246.44 -2.18687 1.30568 0
M  V30 24359 H 2247.22 -1.79012 2.92933 0
M  V30 24360 N 2249.67 -1.04192 -1.18244 0
M  V30 24361 C 2250.92 -0.741227 -1.87587 0
M  V30 24362 C 2251.23 0.734034 -1.81304 0
M  V30 24363 O 2252.44 1.14829 -2.46021 0
M  V30 24364 C 2250.89 -1.27561 -3.36536 0
M  V30 24365 C 2250.5 -2.77959 -3.51344 0
M  V30 24366 C 2252.24 -1.0515 -4.11271 0
M  V30 24367 C 2250.15 -3.24748 -4.94259 0
M  V30 24368 H 2249.08 -0.273578 -0.702617 0
M  V30 24369 H 2251.73 -1.25792 -1.33599 0
M  V30 24370 H 2250.11 -0.686772 -3.89999 0
M  V30 24371 H 2251.29 -3.42611 -3.08147 0
M  V30 24372 H 2249.6 -2.98797 -2.90016 0
M  V30 24373 H 2252.2 -1.3762 -5.16686 0
M  V30 24374 H 2252.54 0.0112042 -4.16298 0
M  V30 24375 H 2253.08 -1.60501 -3.63984 0
M  V30 24376 H 2249.82 -4.30405 -4.94401 0
M  V30 24377 H 2249.34 -2.64833 -5.38167 0
M  V30 24378 H 2251.01 -3.18844 -5.62981 0
M  V30 24379 N 2251.15 1.34492 -0.821557 0
M  V30 24380 C 2252.56 1.80739 -0.467988 0
M  V30 24381 C 2252.91 1.68117 1.01148 0
M  V30 24382 O 2252.03 1.22039 1.78705 0
M  V30 24383 C 2252.63 3.28153 -0.842684 0
M  V30 24384 C 2251.19 3.72484 -0.541504 0
M  V30 24385 C 2250.33 2.56227 -1.06033 0
M  V30 24386 H 2253.29 1.22259 -1.01185 0
M  V30 24387 H 2253.31 3.8022 -0.145943 0
M  V30 24388 H 2252.82 3.37308 -1.91951 0
M  V30 24389 H 2250.92 3.68869 0.52597 0
M  V30 24390 H 2251.03 4.66662 -1.08461 0
M  V30 24391 H 2249.4 2.50099 -0.481936 0
M  V30 24392 H 2250.18 2.68153 -2.14357 0
M  V30 24393 N 2252.62 0.576397 1.46681 0
M  V30 24394 C 2254.04 0.23759 1.57822 0
M  V30 24395 C 2254.24 -1.26008 1.5724 0
M  V30 24396 O 2253.3 -2.04143 1.48599 0
M  V30 24397 C 2254.61 0.881218 2.87498 0
M  V30 24398 C 2256.16 0.854222 3.01118 0
M  V30 24399 C 2256.63 1.47727 4.33521 0
M  V30 24400 N 2258.12 1.44133 4.40204 0
M  V30 24401 C 2258.86 1.89286 5.41256 0
M  V30 24402 N 2258.35 2.42383 6.49017 0
M  V30 24403 N 2260.15 1.8024 5.32419 0
M  V30 24404 H 2252.3 1.54921 1.45304 0
M  V30 24405 H 2254.56 0.647179 0.692722 0
M  V30 24406 H 2254.27 1.93452 2.93716 0
M  V30 24407 H 2254.14 0.385658 3.75223 0
M  V30 24408 H 2256.53 -0.190439 2.94485 0
M  V30 24409 H 2256.61 1.38774 2.14885 0
M  V30 24410 H 2256.25 2.5211 4.40911 0
M  V30 24411 H 2256.18 0.919038 5.18518 0
M  V30 24412 H 2258.67 1.05314 3.62929 0
M  V30 24413 H 2258.99 2.7471 7.22325 0
M  V30 24414 H 2257.33 2.46405 6.49854 0
M  V30 24415 H 2260.52 1.38521 4.47135 0
M  V30 24416 H 2260.7 2.15746 6.1103 0
M  V30 24417 N 2254.1 -1.54444 0.313841 0
M  V30 24418 C 2255.51 -1.85867 -0.176211 0
M  V30 24419 C 2255.86 -1.23563 -1.52402 0
M  V30 24420 O 2254.99 -0.538053 -2.09604 0
M  V30 24421 C 2255.58 -3.37223 -0.32651 0
M  V30 24422 C 2254.14 -3.68631 -0.760781 0
M  V30 24423 C 2253.29 -2.77026 0.123296 0
M  V30 24424 H 2256.24 -1.4943 0.534444 0
M  V30 24425 H 2256.26 -3.62418 -1.15902 0
M  V30 24426 H 2255.77 -3.8254 0.654598 0
M  V30 24427 H 2253.88 -3.28841 -1.75198 0
M  V30 24428 H 2253.99 -4.75682 -0.571269 0
M  V30 24429 H 2252.35 -2.51547 -0.399552 0
M  V30 24430 H 2253.14 -3.25166 1.10099 0
M  V30 24431 N 2255.58 -0.0418125 -1.57545 0
M  V30 24432 C 2256.83 0.632796 -1.91938 0
M  V30 24433 C 2257.15 1.71933 -0.920008 0
M  V30 24434 O 2256.42 1.95866 0.0365719 0
M  V30 24435 H 2255 0.236729 -0.708497 0
M  V30 24436 H 2257.66 -0.0926087 -1.9468 0
M  V30 24437 H 2256.76 1.07741 -2.92913 0
M  V30 24438 N 2257.06 1.55891 0.231477 0
M  V30 24439 C 2258.01 1.92443 1.30646 0
M  V30 24440 C 2259 0.80528 1.49036 0
M  V30 24441 O 2260.21 0.990034 1.50327 0
M  V30 24442 H 2256.58 0.61142 0.437801 0
M  V30 24443 H 2258.55 2.82162 0.970923 0
M  V30 24444 C 2257.3 2.24894 2.65176 0
M  V30 24445 H 2256.62 3.10519 2.51829 0
M  V30 24446 H 2258.06 2.54361 3.39229 0
M  V30 24447 C 2256.52 1.0706 3.19437 0
M  V30 24448 O 2257.05 0.326569 4.0037 0
M  V30 24449 N 2255.26 0.857079 2.77673 0
M  V30 24450 H 2254.81 1.46383 2.11966 0
M  V30 24451 H 2254.76 0.0703775 3.14321 0
M  V30 24452 N 2258.54 -0.497781 1.49532 0
M  V30 24453 C 2259.48 -1.59896 1.66439 0
M  V30 24454 C 2260.45 -1.58211 0.505821 0
M  V30 24455 O 2261.64 -1.76149 0.733233 0
M  V30 24456 C 2258.78 -2.98026 1.73996 0
M  V30 24457 C 2257.89 -3.09703 3.01178 0
M  V30 24458 C 2257.03 -4.38585 2.99694 0
M  V30 24459 C 2256.07 -4.43907 4.21442 0
M  V30 24460 N 2255.2 -5.64222 4.1785 0
M  V30 24461 H 2260.04 -1.44788 2.60462 0
M  V30 24462 H 2257.58 -0.7044 1.29138 0
M  V30 24463 H 2259.54 -3.78092 1.76358 0
M  V30 24464 H 2258.17 -3.11831 0.834356 0
M  V30 24465 H 2257.22 -2.2268 3.08412 0
M  V30 24466 H 2258.53 -3.09495 3.9117 0
M  V30 24467 H 2257.69 -5.26975 3.00637 0
M  V30 24468 H 2256.42 -4.41363 2.07485 0
M  V30 24469 H 2255.43 -3.53919 4.20739 0
M  V30 24470 H 2256.65 -4.42842 5.14847 0
M  V30 24471 H 2254.6 -5.67836 3.28479 0
M  V30 24472 H 2254.52 -5.65643 5.01581 0
M  V30 24473 H 2255.79 -6.5481 4.229 0
M  V30 24474 N 2260.01 -1.38661 -0.749062 0
M  V30 24475 C 2261.26 -1.35116 -1.5083 0
M  V30 24476 C 2261.59 0.0573707 -1.94415 0
M  V30 24477 O 2260.84 1.03538 -1.66067 0
M  V30 24478 C 2261.14 -2.25702 -2.77116 0
M  V30 24479 C 2260.81 -3.7359 -2.52471 0
M  V30 24480 C 2259.47 -4.13888 -2.45458 0
M  V30 24481 C 2261.82 -4.67185 -2.31057 0
M  V30 24482 C 2259.15 -5.45865 -2.15054 0
M  V30 24483 C 2261.5 -5.99424 -2.02173 0
M  V30 24484 C 2260.17 -6.38802 -1.9362 0
M  V30 24485 H 2259.44 -0.494426 -0.551927 0
M  V30 24486 H 2262.08 -1.71055 -0.860949 0
M  V30 24487 H 2260.39 -1.82833 -3.46524 0
M  V30 24488 H 2262.09 -2.2026 -3.35092 0
M  V30 24489 H 2258.68 -3.41643 -2.58801 0
M  V30 24490 H 2262.86 -4.36894 -2.35451 0
M  V30 24491 H 2258.12 -5.75312 -2.06944 0
M  V30 24492 H 2262.29 -6.71485 -1.84609 0
M  V30 24493 H 2259.92 -7.40988 -1.69826 0
M  V30 24494 N 2261.49 0.977736 -1.23605 0
M  V30 24495 C 2262.43 2.07315 -0.977405 0
M  V30 24496 C 2263.44 1.62725 0.0495559 0
M  V30 24497 O 2264.63 1.77525 -0.186292 0
M  V30 24498 C 2261.73 3.35882 -0.451275 0
M  V30 24499 C 2260.9 4.0943 -1.53903 0
M  V30 24500 C 2259.96 5.16273 -1.01731 0
M  V30 24501 O 2258.99 5.43006 -1.70686 0
M  V30 24502 N 2260.19 5.80297 0.153492 0
M  V30 24503 H 2262.95 2.30079 -1.92051 0
M  V30 24504 H 2260.51 1.14463 -1.14499 0
M  V30 24505 H 2262.51 4.04606 -0.0872286 0
M  V30 24506 H 2261.08 3.10065 0.397314 0
M  V30 24507 H 2260.3 3.35123 -2.07572 0
M  V30 24508 H 2261.58 4.55333 -2.27045 0
M  V30 24509 H 2260.98 5.60967 0.730224 0
M  V30 24510 H 2259.54 6.50183 0.458777 0
M  V30 24511 N 2262.97 1.04818 1.1769 0
M  V30 24512 C 2264.22 0.75453 1.87487 0
M  V30 24513 C 2264.54 -0.720375 1.81206 0
M  V30 24514 O 2263.81 -1.52029 1.23547 0
M  V30 24515 H 2262.39 0.276114 0.694096 0
M  V30 24516 H 2265.05 1.32653 1.4279 0
M  V30 24517 H 2264.15 1.06611 2.93326 0
M  V30 24518 N 2264.45 -1.34055 0.828678 0
M  V30 24519 C 2265.38 -2.27324 0.199803 0
M  V30 24520 C 2266.36 -1.49167 -0.647142 0
M  V30 24521 O 2267.54 -1.7837 -0.609629 0
M  V30 24522 C 2264.67 -3.3095 -0.720396 0
M  V30 24523 C 2263.72 -4.26471 0.0497638 0
M  V30 24524 S 2264.55 -5.16854 1.40081 0
M  V30 24525 C 2265.71 -6.24013 0.485637 0
M  V30 24526 H 2265.94 -2.80314 0.990527 0
M  V30 24527 H 2263.47 -1.4119 0.624881 0
M  V30 24528 H 2265.43 -3.91141 -1.24574 0
M  V30 24529 H 2264.09 -2.76795 -1.48469 0
M  V30 24530 H 2263.28 -4.99791 -0.650017 0
M  V30 24531 H 2262.89 -3.70563 0.505844 0
M  V30 24532 H 2265.18 -6.76741 -0.320553 0
M  V30 24533 H 2266.12 -6.98052 1.18868 0
M  V30 24534 H 2266.53 -5.64455 0.0715101 0
M  V30 24535 N 2265.93 -0.584167 -1.46374 0
M  V30 24536 C 2267.17 -0.0704072 -2.02678 0
M  V30 24537 C 2267.51 1.28676 -1.45452 0
M  V30 24538 O 2266.78 1.84348 -0.620172 0
M  V30 24539 C 2267.06 -0.00621004 -3.60099 0
M  V30 24540 C 2266.92 -1.39238 -4.27707 0
M  V30 24541 C 2268.24 0.693666 -4.34599 0
M  V30 24542 H 2265.36 -0.0270599 -0.736503 0
M  V30 24543 H 2268 -0.751646 -1.745 0
M  V30 24544 H 2266.15 0.573942 -3.84237 0
M  V30 24545 H 2267.82 -2.01781 -4.14828 0
M  V30 24546 H 2266.06 -1.95969 -3.87013 0
M  V30 24547 H 2266.73 -1.29991 -5.36476 0
M  V30 24548 H 2269.21 0.200796 -4.15615 0
M  V30 24549 H 2268.09 0.707618 -5.4432 0
M  V30 24550 H 2268.35 1.75526 -4.05762 0
M  V30 24551 N 2267.41 1.54275 -0.322027 0
M  V30 24552 C 2268.65 2.00541 0.281009 0
M  V30 24553 C 2268.98 1.21022 1.52263 0
M  V30 24554 O 2268.24 0.280016 1.93686 0
M  V30 24555 C 2268.53 3.51221 0.661707 0
M  V30 24556 C 2268.2 4.48332 -0.48056 0
M  V30 24557 C 2266.86 4.74603 -0.794088 0
M  V30 24558 C 2269.21 5.0604 -1.24792 0
M  V30 24559 C 2266.54 5.5584 -1.87773 0
M  V30 24560 C 2268.89 5.88458 -2.32164 0
M  V30 24561 C 2267.56 6.13031 -2.641 0
M  V30 24562 H 2266.83 0.733831 0.102828 0
M  V30 24563 H 2269.48 1.86246 -0.445486 0
M  V30 24564 H 2267.78 3.63234 1.4686 0
M  V30 24565 H 2269.48 3.84459 1.13982 0
M  V30 24566 H 2266.07 4.28003 -0.226114 0
M  V30 24567 H 2270.25 4.85727 -1.01896 0
M  V30 24568 H 2265.51 5.73111 -2.12964 0
M  V30 24569 H 2269.68 6.32194 -2.92068 0
M  V30 24570 H 2267.31 6.75769 -3.48196 0
M  V30 24571 N 2268.88 0.0501669 1.5752 0
M  V30 24572 C 2270.16 -0.663653 1.83997 0
M  V30 24573 C 2270.54 -1.89097 0.938373 0
M  V30 24574 O 2269.89 -2.285 -0.000837425 0
M  V30 24575 C 2270.1 -1.0219 3.33704 0
M  V30 24576 C 2271.45 -1.40462 4.00694 0
M  V30 24577 O 2272.47 -1.11427 3.38323 0
M  V30 24578 O 2271.33 -1.94645 5.10662 0
M  V30 24579 H 2268.42 -0.327497 0.759391 0
M  V30 24580 H 2270.97 0.0794536 1.69514 0
M  V30 24581 H 2269.74 -0.149295 3.91015 0
M  V30 24582 H 2269.36 -1.82249 3.53371 0
M  V30 24583 N 2270.36 -1.56011 -0.223207 0
M  V30 24584 C 2271.61 -1.78947 -0.947844 0
M  V30 24585 C 2271.94 -0.61864 -1.84399 0
M  V30 24586 O 2271.19 0.397059 -1.9163 0
M  V30 24587 C 2271.49 -3.07623 -1.81942 0
M  V30 24588 C 2271.16 -4.37857 -1.07665 0
M  V30 24589 C 2269.82 -4.73243 -0.871461 0
M  V30 24590 C 2272.17 -5.18269 -0.55199 0
M  V30 24591 C 2269.5 -5.86557 -0.129688 0
M  V30 24592 C 2271.85 -6.32354 0.176431 0
M  V30 24593 C 2270.51 -6.66343 0.392887 0
M  V30 24594 H 2269.78 -0.654815 -0.346841 0
M  V30 24595 H 2272.43 -1.90276 -0.216137 0
M  V30 24596 H 2270.74 -2.91408 -2.61894 0
M  V30 24597 H 2272.43 -3.2257 -2.38221 0
M  V30 24598 H 2269.02 -4.10072 -1.24655 0
M  V30 24599 H 2273.21 -4.91367 -0.69799 0
M  V30 24600 H 2268.46 -6.11381 0.0482604 0
M  V30 24601 H 2272.64 -6.93892 0.590489 0
M  V30 24602 H 2270.26 -7.53991 0.969598 0
M  V30 24603 N 2271.84 0.489844 -1.49794 0
M  V30 24604 C 2273.09 1.24508 -1.6008 0
M  V30 24605 C 2273.42 1.91998 -0.291642 0
M  V30 24606 O 2272.69 1.81249 0.705615 0
M  V30 24607 C 2272.98 2.3034 -2.76795 0
M  V30 24608 C 2272.83 1.67279 -4.17538 0
M  V30 24609 C 2274.15 3.31812 -2.89117 0
M  V30 24610 H 2271.27 0.451314 -0.582653 0
M  V30 24611 H 2273.91 0.54158 -1.82118 0
M  V30 24612 H 2272.06 2.90342 -2.58135 0
M  V30 24613 H 2273.73 1.11018 -4.47742 0
M  V30 24614 H 2271.97 0.976503 -4.22666 0
M  V30 24615 H 2272.65 2.44094 -4.95098 0
M  V30 24616 H 2275.12 2.81813 -3.06138 0
M  V30 24617 H 2274 4.03212 -3.7244 0
M  V30 24618 H 2274.26 3.94812 -1.98937 0
M  V30 24619 N 2273.32 1.39056 0.741698 0
M  V30 24620 C 2274.55 1.39174 1.53095 0
M  V30 24621 C 2274.96 -0.0154767 1.88794 0
M  V30 24622 O 2274.32 -0.985132 1.53627 0
M  V30 24623 C 2274.37 2.25845 2.8227 0
M  V30 24624 O 2274.09 3.61086 2.4809 0
M  V30 24625 C 2275.59 2.34273 3.76339 0
M  V30 24626 H 2272.81 0.475608 0.473327 0
M  V30 24627 H 2275.35 1.82787 0.917013 0
M  V30 24628 H 2273.51 1.85662 3.40012 0
M  V30 24629 H 2273.92 4.06848 3.31021 0
M  V30 24630 H 2275.4 2.99178 4.63893 0
M  V30 24631 H 2275.87 1.35989 4.17617 0
M  V30 24632 H 2276.48 2.74896 3.24518 0
M  V30 24633 N 2274.8 -0.971167 1.24121 0
M  V30 24634 C 2276.21 -1.23914 1.00586 0
M  V30 24635 C 2276.41 -1.99439 -0.287446 0
M  V30 24636 O 2275.47 -2.31659 -1.0045 0
M  V30 24637 C 2276.78 -2.02966 2.21867 0
M  V30 24638 C 2278.33 -2.16072 2.26455 0
M  V30 24639 C 2278.8 -2.98518 3.47348 0
M  V30 24640 N 2280.29 -3.06101 3.47644 0
M  V30 24641 C 2281.03 -3.70243 4.37844 0
M  V30 24642 N 2280.53 -4.36133 5.38294 0
M  V30 24643 N 2282.32 -3.67221 4.25565 0
M  V30 24644 H 2274.47 -0.465463 2.07237 0
M  V30 24645 H 2276.73 -0.268299 0.909241 0
M  V30 24646 H 2276.44 -1.54855 3.15773 0
M  V30 24647 H 2276.31 -3.03705 2.23704 0
M  V30 24648 H 2278.7 -2.63387 1.33083 0
M  V30 24649 H 2278.78 -1.14692 2.28647 0
M  V30 24650 H 2278.42 -2.51897 4.41033 0
M  V30 24651 H 2278.35 -4.00087 3.424 0
M  V30 24652 H 2280.85 -2.59228 2.74971 0
M  V30 24653 H 2281.16 -4.82883 6.03361 0
M  V30 24654 H 2279.5 -4.34812 5.42184 0
M  V30 24655 H 2282.69 -3.14921 3.46327 0
M  V30 24656 H 2282.87 -4.16926 4.96061 0
M  V30 24657 N 2276.27 -1.05441 -1.17133 0
M  V30 24658 C 2277.21 -0.615578 -2.20779 0
M  V30 24659 C 2278.22 0.321973 -1.59584 0
M  V30 24660 O 2279.41 0.114313 -1.78134 0
M  V30 24661 C 2276.51 0.118878 -3.38691 0
M  V30 24662 C 2275.68 -0.829999 -4.29453 0
M  V30 24663 C 2274.74 -0.13635 -5.26023 0
M  V30 24664 O 2273.77 -0.771249 -5.63951 0
M  V30 24665 N 2274.97 1.1253 -5.69489 0
M  V30 24666 H 2277.73 -1.5071 -2.59049 0
M  V30 24667 H 2275.29 -0.936627 -1.32056 0
M  V30 24668 H 2277.29 0.593108 -4.0033 0
M  V30 24669 H 2275.86 0.912097 -2.98998 0
M  V30 24670 H 2275.08 -1.4838 -3.65208 0
M  V30 24671 H 2276.36 -1.474 -4.86981 0
M  V30 24672 H 2275.76 1.6614 -5.40753 0
M  V30 24673 H 2274.32 1.54355 -6.3326 0
M  V30 24674 N 2277.75 1.33613 -0.835776 0
M  V30 24675 C 2279 1.98175 -0.430631 0
M  V30 24676 C 2279.33 1.66063 1.00682 0
M  V30 24677 O 2278.61 0.938907 1.70337 0
M  V30 24678 C 2278.89 3.54219 -0.648127 0
M  V30 24679 C 2278.74 3.96029 -2.13262 0
M  V30 24680 C 2280.06 4.40003 -0.0922887 0
M  V30 24681 H 2277.18 0.719879 -0.157936 0
M  V30 24682 H 2279.82 1.58303 -1.05072 0
M  V30 24683 H 2277.97 3.88314 -0.120305 0
M  V30 24684 H 2279.64 3.72207 -2.72507 0
M  V30 24685 H 2277.89 3.45873 -2.61829 0
M  V30 24686 H 2278.56 5.04704 -2.23556 0
M  V30 24687 H 2281.03 4.12536 -0.543416 0
M  V30 24688 H 2279.91 5.48215 -0.274179 0
M  V30 24689 H 2280.17 4.30556 1.00371 0
M  V30 24690 N 2279.23 0.591922 1.46062 0
M  V30 24691 C 2280.48 0.0810347 2.02338 0
M  V30 24692 C 2280.81 -1.28246 1.4623 0
M  V30 24693 O 2280.06 -1.85591 0.620851 0
M  V30 24694 C 2280.36 -0.0249184 3.57391 0
M  V30 24695 C 2280.03 1.27219 4.32581 0
M  V30 24696 C 2278.69 1.62753 4.52841 0
M  V30 24697 C 2281.04 2.13014 4.75683 0
M  V30 24698 C 2278.37 2.83864 5.13457 0
M  V30 24699 C 2280.72 3.33359 5.37638 0
M  V30 24700 C 2279.38 3.69165 5.56124 0
M  V30 24701 H 2278.65 0.0296527 0.740406 0
M  V30 24702 H 2281.3 0.770405 1.7532 0
M  V30 24703 H 2279.61 -0.797469 3.83598 0
M  V30 24704 H 2281.3 -0.436114 3.98621 0
M  V30 24705 H 2277.89 0.985572 4.17114 0
M  V30 24706 H 2282.08 1.86863 4.59778 0
M  V30 24707 H 2277.33 3.11731 5.2596 0
M  V30 24708 H 2281.51 4.00102 5.69993 0
M  V30 24709 H 2279.13 4.631 6.02862 0
M  V30 24710 N 2280.71 -1.54102 0.330204 0
M  V30 24711 C 2281.99 -1.92882 -0.324974 0
M  V30 24712 C 2282.37 -1.26048 -1.69337 0
M  V30 24713 O 2281.71 -0.406565 -2.24854 0
M  V30 24714 C 2281.92 -3.46577 -0.410573 0
M  V30 24715 C 2283.27 -4.19317 -0.667727 0
M  V30 24716 O 2284.3 -3.52769 -0.493228 0
M  V30 24717 O 2283.15 -5.37183 -1.00482 0
M  V30 24718 H 2280.25 -0.805613 -0.186859 0
M  V30 24719 H 2282.79 -1.65381 0.380405 0
M  V30 24720 H 2281.57 -3.87412 0.550233 0
M  V30 24721 H 2281.19 -3.80202 -1.16327 0
M  V30 24722 N 2282.19 -0.0585199 -1.57491 0
M  V30 24723 C 2283.44 0.613112 -1.92156 0
M  V30 24724 C 2283.75 1.71567 -0.939364 0
M  V30 24725 O 2284.95 2.44597 -1.17833 0
M  V30 24726 C 2283.41 1.14189 -3.41305 0
M  V30 24727 C 2283.02 0.0710478 -4.47944 0
M  V30 24728 C 2284.76 1.78835 -3.84991 0
M  V30 24729 C 2282.67 0.613122 -5.88213 0
M  V30 24730 H 2281.6 0.232784 -0.717166 0
M  V30 24731 H 2284.25 -0.128602 -1.83049 0
M  V30 24732 H 2282.63 1.93615 -3.45441 0
M  V30 24733 H 2283.81 -0.702916 -4.55407 0
M  V30 24734 H 2282.12 -0.478386 -4.13643 0
M  V30 24735 H 2284.72 2.204 -4.87163 0
M  V30 24736 H 2285.06 2.64303 -3.21636 0
M  V30 24737 H 2285.59 1.06052 -3.83403 0
M  V30 24738 H 2282.33 -0.204093 -6.55182 0
M  V30 24739 H 2281.85 1.35491 -5.84296 0
M  V30 24740 H 2283.53 1.09371 -6.37689 0
M  V30 24741 N 2283.66 1.56128 0.21493 0
M  V30 24742 C 2284.89 1.83886 0.959207 0
M  V30 24743 C 2285.31 0.639675 1.76889 0
M  V30 24744 O 2284.67 -0.41157 1.76567 0
M  V30 24745 C 2284.72 3.09696 1.84718 0
M  V30 24746 O 2283.82 2.88855 2.94341 0
M  V30 24747 H 2283.17 0.606073 0.27124 0
M  V30 24748 H 2285.7 2.03345 0.22624 0
M  V30 24749 H 2285.71 3.39973 2.2557 0
M  V30 24750 H 2284.38 3.96605 1.25211 0
M  V30 24751 H 2282.96 2.69828 2.57386 0
M  V30 24752 N 2285.14 -0.481893 1.50052 0
M  V30 24753 C 2286.39 -1.23147 1.59743 0
M  V30 24754 C 2286.7 -1.93314 0.298197 0
M  V30 24755 O 2287.91 -2.70115 0.273883 0
M  V30 24756 C 2286.37 -2.23703 2.8193 0
M  V30 24757 C 2285.97 -1.59389 4.18688 0
M  V30 24758 C 2287.72 -2.9937 3.00962 0
M  V30 24759 C 2285.63 -2.58168 5.32074 0
M  V30 24760 H 2284.56 -0.46333 0.594846 0
M  V30 24761 H 2287.21 -0.503138 1.76467 0
M  V30 24762 H 2285.59 -2.99782 2.58741 0
M  V30 24763 H 2286.76 -0.891732 4.52089 0
M  V30 24764 H 2285.08 -0.960432 4.05172 0
M  V30 24765 H 2287.67 -3.73277 3.82843 0
M  V30 24766 H 2288.02 -3.58119 2.12265 0
M  V30 24767 H 2288.55 -2.30406 3.24281 0
M  V30 24768 H 2285.29 -2.04173 6.22891 0
M  V30 24769 H 2284.81 -3.26568 5.03104 0
M  V30 24770 H 2286.49 -3.20216 5.62202 0
M  V30 24771 N 2286.62 -1.39448 -0.734313 0
M  V30 24772 C 2287.55 -1.32612 -1.85713 0
M  V30 24773 C 2288.53 -0.199665 -1.61369 0
M  V30 24774 O 2289.72 -0.380228 -1.84625 0
M  V30 24775 C 2286.84 -1.05934 -3.21707 0
M  V30 24776 C 2285.89 -2.20779 -3.64909 0
M  V30 24777 S 2286.72 -3.83063 -3.74197 0
M  V30 24778 C 2287.88 -3.58612 -5.1298 0
M  V30 24779 H 2288.11 -2.27638 -1.91228 0
M  V30 24780 H 2285.64 -1.25511 -0.899241 0
M  V30 24781 H 2287.6 -0.912273 -4.00235 0
M  V30 24782 H 2286.26 -0.125938 -3.13847 0
M  V30 24783 H 2285.46 -1.97708 -4.63603 0
M  V30 24784 H 2285.06 -2.31693 -2.93589 0
M  V30 24785 H 2287.35 -3.1592 -5.99334 0
M  V30 24786 H 2288.29 -4.56769 -5.4108 0
M  V30 24787 H 2288.7 -2.92698 -4.82688 0
M  V30 24788 N 2288.1 0.964571 -1.24635 0
M  V30 24789 C 2289.35 1.70228 -1.08191 0
M  V30 24790 C 2289.66 1.91899 0.378696 0
M  V30 24791 O 2290.87 2.63271 0.66338 0
M  V30 24792 C 2289.32 3.06416 -1.88778 0
M  V30 24793 C 2288.93 2.92576 -3.39268 0
M  V30 24794 C 2290.67 3.84038 -1.80874 0
M  V30 24795 C 2288.58 4.24094 -4.12187 0
M  V30 24796 H 2287.51 0.638364 -0.401256 0
M  V30 24797 H 2290.16 1.0746 -1.48744 0
M  V30 24798 H 2288.54 3.70031 -1.41042 0
M  V30 24799 H 2289.72 2.37954 -3.94607 0
M  V30 24800 H 2288.03 2.28418 -3.48158 0
M  V30 24801 H 2290.63 4.81431 -2.32654 0
M  V30 24802 H 2290.97 4.0903 -0.774615 0
M  V30 24803 H 2291.51 3.27155 -2.26307 0
M  V30 24804 H 2288.25 4.04294 -5.15972 0
M  V30 24805 H 2287.77 4.78519 -3.61634 0
M  V30 24806 H 2289.44 4.92695 -4.19358 0
M  V30 24807 N 2289.58 1.0606 1.16572 0
M  V30 24808 C 2290.51 0.690527 2.23056 0
M  V30 24809 C 2291.49 -0.315871 1.67141 0
M  V30 24810 O 2292.67 -0.191522 1.93253 0
M  V30 24811 C 2289.8 0.073686 3.47222 0
M  V30 24812 C 2288.76 1.0058 4.16014 0
M  V30 24813 C 2288.08 0.252383 5.34104 0
M  V30 24814 C 2289.38 2.33379 4.6726 0
M  V30 24815 H 2291.08 1.58077 2.54268 0
M  V30 24816 H 2288.62 0.761512 1.22217 0
M  V30 24817 H 2290.58 -0.197066 4.20939 0
M  V30 24818 H 2289.3 -0.851555 3.15303 0
M  V30 24819 H 2287.96 1.26126 3.44221 0
M  V30 24820 H 2287.61 -0.675901 4.98438 0
M  V30 24821 H 2287.31 0.873557 5.8107 0
M  V30 24822 H 2288.83 -0.0108784 6.10599 0
M  V30 24823 H 2290.24 2.12233 5.32569 0
M  V30 24824 H 2288.64 2.90973 5.24838 0
M  V30 24825 H 2289.71 2.96617 3.83596 0
M  V30 24826 N 2291.06 -1.33168 0.84285 0
M  V30 24827 C 2292.3 -1.96914 0.436773 0
M  V30 24828 C 2292.62 -1.67493 -1.01022 0
M  V30 24829 O 2293.82 -2.24884 -1.52116 0
M  V30 24830 C 2292.28 -3.52417 0.730082 0
M  V30 24831 C 2291.89 -3.9071 2.19202 0
M  V30 24832 C 2293.63 -4.22694 0.391151 0
M  V30 24833 C 2291.54 -5.39208 2.42917 0
M  V30 24834 H 2290.47 -0.736917 0.159593 0
M  V30 24835 H 2293.12 -1.51731 1.03199 0
M  V30 24836 H 2291.5 -3.95948 0.0644451 0
M  V30 24837 H 2292.68 -3.58226 2.89846 0
M  V30 24838 H 2290.99 -3.33426 2.49431 0
M  V30 24839 H 2293.59 -5.31906 0.54591 0
M  V30 24840 H 2293.93 -4.10935 -0.666222 0
M  V30 24841 H 2294.46 -3.84707 1.01219 0
M  V30 24842 H 2291.2 -5.55976 3.47234 0
M  V30 24843 H 2290.72 -5.73139 1.76837 0
M  V30 24844 H 2292.4 -6.06144 2.2627 0
M  V30 24845 N 2292.53 -0.599659 -1.45746 0
M  V30 24846 C 2293.77 -0.0946668 -2.04181 0
M  V30 24847 C 2294.14 1.24812 -1.45897 0
M  V30 24848 O 2295.34 1.84337 -1.95636 0
M  V30 24849 C 2293.61 -0.0476438 -3.57368 0
M  V30 24850 S 2295.17 0.39731 -4.36998 0
M  V30 24851 H 2291.99 -0.0457078 -0.709529 0
M  V30 24852 H 2294.59 -0.795977 -1.78562 0
M  V30 24853 H 2293.29 -1.02859 -3.97301 0
M  V30 24854 H 2292.82 0.675909 -3.8755 0
M  V30 24855 H 2294.84 1.64853 -4.68015 0
M  V30 24856 N 2294.01 1.53925 -0.338371 0
M  V30 24857 C 2294.94 2.2779 0.51324 0
M  V30 24858 C 2295.92 1.29151 1.10698 0
M  V30 24859 O 2297.11 1.57986 1.12934 0
M  V30 24860 C 2294.24 3.04682 1.66691 0
M  V30 24861 C 2293.19 4.10782 1.20176 0
M  V30 24862 C 2292.52 4.756 2.44355 0
M  V30 24863 C 2293.82 5.21403 0.305958 0
M  V30 24864 H 2295.51 2.99223 -0.102936 0
M  V30 24865 H 2293.06 1.4391 -0.0509472 0
M  V30 24866 H 2295.01 3.55092 2.26909 0
M  V30 24867 H 2293.73 2.30892 2.30991 0
M  V30 24868 H 2292.39 3.61277 0.622436 0
M  V30 24869 H 2292.04 3.98408 3.0705 0
M  V30 24870 H 2291.74 5.47279 2.13916 0
M  V30 24871 H 2293.27 5.28791 3.05307 0
M  V30 24872 H 2294.68 5.6748 0.814829 0
M  V30 24873 H 2293.08 6.00027 0.0936874 0
M  V30 24874 H 2294.15 4.80397 -0.659294 0
M  V30 24875 N 2295.49 0.0668712 1.57458 0
M  V30 24876 C 2296.44 -0.919814 2.1364 0
M  V30 24877 C 2297.43 -1.31161 1.07206 0
M  V30 24878 O 2298.64 -1.28943 1.25593 0
M  V30 24879 H 2295.01 -0.31455 0.683054 0
M  V30 24880 H 2296.98 -0.420995 2.95415 0
M  V30 24881 C 2295.73 -2.1797 2.70896 0
M  V30 24882 H 2295.06 -1.88705 3.52463 0
M  V30 24883 H 2296.5 -2.85132 3.13808 0
M  V30 24884 C 2294.95 -2.93493 1.65419 0
M  V30 24885 O 2295.48 -3.87014 1.07626 0
M  V30 24886 N 2293.69 -2.5651 1.36569 0
M  V30 24887 H 2293.24 -1.80533 1.83754 0
M  V30 24888 H 2293.2 -3.07345 0.662284 0
M  V30 24889 N 2296.97 -1.56239 -0.206647 0
M  V30 24890 C 2297.9 -1.88663 -1.2838 0
M  V30 24891 C 2298.88 -0.745506 -1.44502 0
M  V30 24892 O 2300.06 -0.995364 -1.60077 0
M  V30 24893 C 2297.19 -2.10672 -2.65208 0
M  V30 24894 C 2296.24 -3.33371 -2.66019 0
M  V30 24895 S 2297.07 -4.8885 -2.186 0
M  V30 24896 C 2298.22 -5.13913 -3.57274 0
M  V30 24897 H 2298.46 -2.79731 -1.00686 0
M  V30 24898 H 2295.99 -1.48868 -0.409601 0
M  V30 24899 H 2297.95 -2.24035 -3.43975 0
M  V30 24900 H 2296.61 -1.20374 -2.90119 0
M  V30 24901 H 2295.8 -3.45861 -3.66601 0
M  V30 24902 H 2295.4 -3.18942 -1.95326 0
M  V30 24903 H 2297.7 -5.03725 -4.53065 0
M  V30 24904 H 2298.64 -6.1573 -3.49688 0
M  V30 24905 H 2299.05 -4.4159 -3.51652 0
M  V30 24906 N 2298.45 0.473929 -1.50305 0
M  V30 24907 C 2299.69 1.22803 -1.61391 0
M  V30 24908 C 2300.02 1.91678 -0.311989 0
M  V30 24909 O 2299.3 1.81988 0.686352 0
M  V30 24910 C 2299.58 2.27391 -2.79223 0
M  V30 24911 C 2299.44 1.62841 -4.19289 0
M  V30 24912 C 2300.75 3.28727 -2.9262 0
M  V30 24913 H 2297.87 0.445109 -0.587407 0
M  V30 24914 H 2300.52 0.522233 -1.82682 0
M  V30 24915 H 2298.67 2.87588 -2.612 0
M  V30 24916 H 2300.34 1.06263 -4.48894 0
M  V30 24917 H 2298.58 0.931618 -4.23678 0
M  V30 24918 H 2299.25 2.3883 -4.97659 0
M  V30 24919 H 2301.73 2.78551 -3.0911 0
M  V30 24920 H 2300.6 3.99239 -3.76695 0
M  V30 24921 H 2300.86 3.9268 -2.03114 0
M  V30 24922 N 2299.92 1.39835 0.726907 0
M  V30 24923 C 2301.15 1.4079 1.51611 0
M  V30 24924 C 2301.57 0.00454824 1.88799 0
M  V30 24925 O 2300.92 -0.968782 1.54664 0
M  V30 24926 C 2300.97 2.28826 2.79859 0
M  V30 24927 O 2300.7 3.63697 2.44247 0
M  V30 24928 C 2302.2 2.38251 3.73833 0
M  V30 24929 H 2299.42 0.480602 0.468255 0
M  V30 24930 H 2301.96 1.83749 0.897575 0
M  V30 24931 H 2300.12 1.89258 3.38024 0
M  V30 24932 H 2300.53 4.10336 3.26688 0
M  V30 24933 H 2302 3.04081 4.60693 0
M  V30 24934 H 2302.48 1.40411 4.16151 0
M  V30 24935 H 2303.09 2.78323 3.21584 0
M  V30 24936 N 2301.4 -0.957948 1.25144 0
M  V30 24937 C 2302.33 -2.05336 0.995601 0
M  V30 24938 C 2303.31 -1.62431 -0.0740137 0
M  V30 24939 O 2304.5 -1.88388 0.0649543 0
M  V30 24940 C 2301.62 -3.34924 0.504356 0
M  V30 24941 C 2300.67 -3.96789 1.564 0
M  V30 24942 S 2301.5 -4.33182 3.14823 0
M  V30 24943 C 2302.66 -5.65893 2.67425 0
M  V30 24944 H 2302.89 -2.26723 1.92313 0
M  V30 24945 H 2300.42 -1.09715 1.08637 0
M  V30 24946 H 2302.38 -4.09869 0.227569 0
M  V30 24947 H 2301.04 -3.11509 -0.402617 0
M  V30 24948 H 2300.24 -4.9021 1.17091 0
M  V30 24949 H 2299.84 -3.28312 1.7913 0
M  V30 24950 H 2302.13 -6.43856 2.10844 0
M  V30 24951 H 2303.07 -6.10069 3.59473 0
M  V30 24952 H 2303.48 -5.24968 2.0753 0
M  V30 24953 N 2302.88 -1.06677 -1.16008 0
M  V30 24954 C 2303.81 -0.625206 -2.19468 0
M  V30 24955 C 2304.79 0.354014 -1.58699 0
M  V30 24956 O 2305.97 0.262065 -1.86669 0
M  V30 24957 C 2303.1 0.0828998 -3.38599 0
M  V30 24958 C 2302.15 -0.853684 -4.17869 0
M  V30 24959 S 2302.98 -2.35102 -4.81131 0
M  V30 24960 C 2304.14 -1.65452 -6.03636 0
M  V30 24961 H 2304.37 -1.50172 -2.56584 0
M  V30 24962 H 2301.9 -0.8801 -1.26861 0
M  V30 24963 H 2303.86 0.485216 -4.07622 0
M  V30 24964 H 2302.52 0.935663 -2.9984 0
M  V30 24965 H 2301.71 -0.304843 -5.03077 0
M  V30 24966 H 2301.32 -1.19606 -3.54359 0
M  V30 24967 H 2303.61 -0.962319 -6.70631 0
M  V30 24968 H 2304.55 -2.48465 -6.63077 0
M  V30 24969 H 2304.96 -1.13544 -5.52963 0
M  V30 24970 N 2304.36 1.32719 -0.8499 0
M  V30 24971 C 2305.6 1.97707 -0.451625 0
M  V30 24972 C 2305.94 1.67121 0.989145 0
M  V30 24973 O 2305.21 0.956921 1.69332 0
M  V30 24974 C 2305.49 3.53512 -0.68566 0
M  V30 24975 C 2305.35 3.93745 -2.1745 0
M  V30 24976 C 2306.67 4.39881 -0.138952 0
M  V30 24977 H 2303.79 0.718163 -0.165563 0
M  V30 24978 H 2306.43 1.5718 -1.06745 0
M  V30 24979 H 2304.58 3.88164 -0.161484 0
M  V30 24980 H 2306.25 3.69295 -2.76439 0
M  V30 24981 H 2304.49 3.43076 -2.65483 0
M  V30 24982 H 2305.16 5.02305 -2.28897 0
M  V30 24983 H 2307.64 4.11937 -0.58714 0
M  V30 24984 H 2306.52 5.47893 -0.332309 0
M  V30 24985 H 2306.78 4.31596 0.957984 0
M  V30 24986 N 2305.84 0.60738 1.45426 0
M  V30 24987 C 2306.75 -0.113422 2.34326 0
M  V30 24988 C 2307.76 -0.860591 1.51228 0
M  V30 24989 O 2308.94 -0.818223 1.8403 0
M  V30 24990 C 2306 -1.09838 3.28841 0
M  V30 24991 C 2305.06 -0.353196 4.27845 0
M  V30 24992 C 2304.3 -1.29124 5.17844 0
M  V30 24993 O 2304.52 -2.52904 5.11269 0
M  V30 24994 O 2303.45 -0.788418 5.96714 0
M  V30 24995 H 2307.28 0.617146 2.97363 0
M  V30 24996 H 2304.87 0.367644 1.44806 0
M  V30 24997 H 2306.75 -1.66568 3.87083 0
M  V30 24998 H 2305.42 -1.80998 2.68368 0
M  V30 24999 H 2304.33 0.25656 3.73219 0
M  V30 25000 H 2305.66 0.317909 4.91172 0
M  V30 25001 N 2307.31 -1.53743 0.34653 0
M  V30 25002 C 2308.54 -2.0538 -0.250374 0
M  V30 25003 C 2308.96 -1.22131 -1.43977 0
M  V30 25004 O 2308.31 -0.257353 -1.80676 0
M  V30 25005 C 2308.37 -3.55377 -0.662512 0
M  V30 25006 O 2308.09 -4.35467 0.479592 0
M  V30 25007 C 2309.59 -4.23197 -1.31982 0
M  V30 25008 H 2306.81 -0.669295 -0.047808 0
M  V30 25009 H 2309.35 -1.98309 0.499381 0
M  V30 25010 H 2307.51 -3.62661 -1.36221 0
M  V30 25011 H 2307.92 -5.24284 0.150462 0
M  V30 25012 H 2309.39 -5.2953 -1.55892 0
M  V30 25013 H 2309.87 -3.75729 -2.2743 0
M  V30 25014 H 2310.48 -4.20115 -0.66208 0
M  V30 25015 N 2308.79 -0.0752207 -1.5742 0
M  V30 25016 C 2310.07 0.634296 -1.8503 0
M  V30 25017 C 2310.45 1.8758 -0.968338 0
M  V30 25018 O 2309.8 2.28472 -0.035515 0
M  V30 25019 C 2310.01 0.968683 -3.35287 0
M  V30 25020 C 2311.36 1.3407 -4.02878 0
M  V30 25021 O 2312.38 1.06031 -3.40053 0
M  V30 25022 O 2311.24 1.86497 -5.13694 0
M  V30 25023 H 2308.33 0.315374 -0.764505 0
M  V30 25024 H 2310.88 -0.106412 -1.69366 0
M  V30 25025 H 2309.65 0.0870688 -3.91203 0
M  V30 25026 H 2309.27 1.76604 -3.56226 0
M  V30 25027 N 2310.27 1.56347 0.198358 0
M  V30 25028 C 2311.55 1.7126 0.944952 0
M  V30 25029 C 2311.93 0.629084 2.01509 0
M  V30 25030 O 2311.28 -0.360433 2.25639 0
M  V30 25031 C 2311.49 3.13463 1.53434 0
M  V30 25032 C 2312.83 3.73595 2.01772 0
M  V30 25033 O 2313.86 3.16571 1.63283 0
M  V30 25034 O 2312.72 4.73666 2.72586 0
M  V30 25035 H 2309.81 0.698388 0.442926 0
M  V30 25036 H 2312.36 1.68652 0.188312 0
M  V30 25037 H 2311.13 3.83793 0.762802 0
M  V30 25038 H 2310.75 3.20286 2.3559 0
M  V30 25039 N 2311.75 -0.465951 1.50554 0
M  V30 25040 C 2312.68 -1.5809 1.65952 0
M  V30 25041 C 2313.69 -1.53553 0.540854 0
M  V30 25042 O 2314.88 -1.58848 0.814215 0
M  V30 25043 C 2311.98 -2.9698 1.63267 0
M  V30 25044 C 2311.16 -3.26331 2.9125 0
M  V30 25045 C 2310.21 -4.44801 2.81138 0
M  V30 25046 O 2309.24 -4.44856 3.55094 0
M  V30 25047 N 2310.44 -5.46753 1.95042 0
M  V30 25048 H 2313.21 -1.45296 2.62124 0
M  V30 25049 H 2310.77 -0.654454 1.48083 0
M  V30 25050 H 2312.76 -3.7421 1.54108 0
M  V30 25051 H 2311.33 -3.03517 0.748086 0
M  V30 25052 H 2310.55 -2.37666 3.14497 0
M  V30 25053 H 2311.84 -3.42755 3.76028 0
M  V30 25054 H 2311.24 -5.49532 1.34279 0
M  V30 25055 H 2309.79 -6.22947 1.91783 0
M  V30 25056 N 2313.23 -1.40218 -0.719481 0
M  V30 25057 C 2314.45 -1.41783 -1.51368 0
M  V30 25058 C 2314.88 -0.0182685 -1.88091 0
M  V30 25059 O 2314.23 0.97268 -1.52999 0
M  V30 25060 C 2314.28 -2.3112 -2.76796 0
M  V30 25061 O 2313.39 -1.75177 -3.73345 0
M  V30 25062 H 2312.73 -0.482167 -0.456521 0
M  V30 25063 H 2315.26 -1.84402 -0.886408 0
M  V30 25064 H 2315.27 -2.46172 -3.25366 0
M  V30 25065 H 2313.94 -3.32824 -2.49401 0
M  V30 25066 H 2312.52 -1.6945 -3.32176 0
M  V30 25067 N 2314.7 0.951297 -1.25651 0
M  V30 25068 C 2315.61 2.08222 -1.08077 0
M  V30 25069 C 2316.63 1.73992 -0.0169971 0
M  V30 25070 O 2317.81 2.0021 -0.218628 0
M  V30 25071 C 2314.87 3.39457 -0.704982 0
M  V30 25072 C 2313.93 3.87534 -1.84706 0
M  V30 25073 C 2313.17 5.12505 -1.48911 0
M  V30 25074 O 2313.39 5.69091 -0.386256 0
M  V30 25075 O 2312.32 5.55373 -2.32043 0
M  V30 25076 H 2316.15 2.25951 -2.02928 0
M  V30 25077 H 2313.73 1.06654 -1.0462 0
M  V30 25078 H 2315.62 4.18331 -0.507683 0
M  V30 25079 H 2314.29 3.2299 0.214234 0
M  V30 25080 H 2313.2 3.09649 -2.09924 0
M  V30 25081 H 2314.53 4.08504 -2.74564 0
M  V30 25082 N 2316.18 1.07291 1.1544 0
M  V30 25083 C 2317.41 0.815609 1.89819 0
M  V30 25084 C 2317.82 -0.634836 1.78232 0
M  V30 25085 O 2317.16 -1.44713 1.13154 0
M  V30 25086 C 2317.23 1.14391 3.40815 0
M  V30 25087 C 2316.89 2.59482 3.76189 0
M  V30 25088 C 2317.89 3.57727 3.77263 0
M  V30 25089 C 2315.57 2.95044 4.06515 0
M  V30 25090 C 2317.57 4.89569 4.08168 0
M  V30 25091 C 2315.25 4.27083 4.37085 0
M  V30 25092 C 2316.25 5.24156 4.37893 0
M  V30 25093 O 2315.94 6.53823 4.67729 0
M  V30 25094 H 2315.67 0.294539 0.608459 0
M  V30 25095 H 2318.22 1.43255 1.47198 0
M  V30 25096 H 2316.45 0.469933 3.83834 0
M  V30 25097 H 2318.14 0.869248 3.96483 0
M  V30 25098 H 2318.91 3.31596 3.53934 0
M  V30 25099 H 2314.79 2.20135 4.05045 0
M  V30 25100 H 2318.33 5.65331 4.08713 0
M  V30 25101 H 2314.23 4.52968 4.59881 0
M  V30 25102 H 2315 6.58965 4.85497 0
M  V30 25103 N 2317.66 -1.32267 0.856927 0
M  V30 25104 C 2318.91 -1.97465 0.462104 0
M  V30 25105 C 2319.24 -1.67644 -0.980269 0
M  V30 25106 O 2318.51 -0.965888 -1.68822 0
M  V30 25107 C 2318.8 -3.53143 0.704398 0
M  V30 25108 C 2318.65 -3.92587 2.19536 0
M  V30 25109 C 2319.97 -4.39801 0.162278 0
M  V30 25110 H 2317.09 -0.717275 0.169369 0
M  V30 25111 H 2319.73 -1.56612 1.07577 0
M  V30 25112 H 2317.88 -3.88073 0.182067 0
M  V30 25113 H 2319.55 -3.67824 2.78394 0
M  V30 25114 H 2317.8 -3.41664 2.67298 0
M  V30 25115 H 2318.47 -5.01084 2.31557 0
M  V30 25116 H 2320.94 -4.1162 0.608978 0
M  V30 25117 H 2319.82 -5.47709 0.361361 0
M  V30 25118 H 2320.08 -4.32098 -0.935082 0
M  V30 25119 N 2319.14 -0.615084 -1.45102 0
M  V30 25120 C 2320.37 -0.119806 -2.06553 0
M  V30 25121 C 2320.78 1.19896 -1.45844 0
M  V30 25122 O 2320.14 1.73193 -0.575355 0
M  V30 25123 C 2320.19 0.0183005 -3.61495 0
M  V30 25124 O 2319.91 -1.2483 -4.19939 0
M  V30 25125 C 2321.41 0.54416 -4.39947 0
M  V30 25126 H 2318.63 -0.0722856 -0.667095 0
M  V30 25127 H 2321.18 -0.844942 -1.86228 0
M  V30 25128 H 2319.33 0.693798 -3.81137 0
M  V30 25129 H 2319.74 -1.08279 -5.13202 0
M  V30 25130 H 2321.22 0.589856 -5.48839 0
M  V30 25131 H 2321.7 1.56798 -4.10257 0
M  V30 25132 H 2322.3 -0.0975451 -4.25188 0
M  V30 25133 N 2320.62 1.53557 -0.354678 0
M  V30 25134 C 2321.85 2.05509 0.239479 0
M  V30 25135 C 2322.26 1.22893 1.43327 0
M  V30 25136 O 2321.62 0.266931 1.80537 0
M  V30 25137 C 2321.67 3.55724 0.643657 0
M  V30 25138 O 2321.39 4.35207 -0.502679 0
M  V30 25139 C 2322.89 4.23891 1.29736 0
M  V30 25140 H 2320.11 0.669539 0.0442579 0
M  V30 25141 H 2322.65 1.98041 -0.509891 0
M  V30 25142 H 2320.81 3.63378 1.34295 0
M  V30 25143 H 2321.22 5.24197 -0.178264 0
M  V30 25144 H 2322.7 5.30349 1.53082 0
M  V30 25145 H 2323.17 3.7693 2.25434 0
M  V30 25146 H 2323.78 4.2046 0.639791 0
M  V30 25147 N 2322.1 0.083568 1.57378 0
M  V30 25148 C 2323.34 -0.582464 1.93107 0
M  V30 25149 C 2323.66 -1.70051 0.96654 0
M  V30 25150 O 2324.86 -2.42691 1.2171 0
M  V30 25151 C 2323.32 -1.08745 3.43078 0
M  V30 25152 C 2322.93 0.000225151 4.48 0
M  V30 25153 C 2324.67 -1.72687 3.87788 0
M  V30 25154 C 2322.58 -0.519464 5.89114 0
M  V30 25155 H 2321.51 -0.221345 0.720779 0
M  V30 25156 H 2324.16 0.157707 1.82821 0
M  V30 25157 H 2322.54 -1.88095 3.48477 0
M  V30 25158 H 2323.72 0.775279 4.54231 0
M  V30 25159 H 2322.03 0.544133 4.12829 0
M  V30 25160 H 2324.63 -2.12621 4.90608 0
M  V30 25161 H 2324.97 -2.59152 3.258 0
M  V30 25162 H 2325.5 -0.999389 3.85042 0
M  V30 25163 H 2322.24 0.308301 6.54775 0
M  V30 25164 H 2321.76 -1.26178 5.86378 0
M  V30 25165 H 2323.44 -0.992125 6.39348 0
M  V30 25166 N 2323.57 -1.5645 -0.190064 0
M  V30 25167 C 2324.5 -1.97971 -1.23813 0
M  V30 25168 C 2325.48 -0.85242 -1.472 0
M  V30 25169 O 2326.67 -1.11712 -1.58852 0
M  V30 25170 C 2323.8 -2.32354 -2.58126 0
M  V30 25171 C 2322.75 -3.47868 -2.49342 0
M  V30 25172 C 2322.08 -3.67941 -3.87974 0
M  V30 25173 C 2323.38 -4.81901 -2.01416 0
M  V30 25174 H 2325.07 -2.85771 -0.89306 0
M  V30 25175 H 2322.62 -1.37488 -0.428153 0
M  V30 25176 H 2324.57 -2.59997 -3.31632 0
M  V30 25177 H 2323.3 -1.41443 -2.94383 0
M  V30 25178 H 2321.96 -3.20324 -1.78291 0
M  V30 25179 H 2321.6 -2.74352 -4.21592 0
M  V30 25180 H 2321.3 -4.45654 -3.8297 0
M  V30 25181 H 2322.83 -3.97965 -4.63094 0
M  V30 25182 H 2324.24 -5.08542 -2.64684 0
M  V30 25183 H 2322.64 -5.6312 -2.07403 0
M  V30 25184 H 2323.71 -4.75148 -0.967593 0
M  V30 25185 N 2325.05 0.45796 -1.50799 0
M  V30 25186 C 2326.28 1.23665 -1.66499 0
M  V30 25187 C 2326.7 1.84752 -0.353321 0
M  V30 25188 O 2326.06 1.67889 0.684316 0
M  V30 25189 C 2326.11 2.31155 -2.76767 0
M  V30 25190 O 2325.21 3.36132 -2.38933 0
M  V30 25191 H 2324.55 0.363242 -0.555834 0
M  V30 25192 H 2327.08 0.543439 -1.97251 0
M  V30 25193 H 2327.09 2.76264 -3.00237 0
M  V30 25194 H 2325.77 1.86067 -3.71957 0
M  V30 25195 H 2324.34 2.96643 -2.25959 0
M  V30 25196 N 2326.53 1.40598 0.712035 0
M  V30 25197 C 2327.95 1.22706 1.02056 0
M  V30 25198 C 2328.15 0.104764 2.01227 0
M  V30 25199 O 2327.2 -0.536197 2.46741 0
M  V30 25200 C 2328.51 2.57015 1.56089 0
M  V30 25201 C 2330.06 2.64057 1.68056 0
M  V30 25202 C 2330.54 3.98644 2.25494 0
M  V30 25203 N 2332.03 4.00404 2.32875 0
M  V30 25204 C 2332.76 5.0133 2.78308 0
M  V30 25205 N 2332.26 6.1265 3.23468 0
M  V30 25206 N 2334.05 4.88698 2.77725 0
M  V30 25207 H 2326.2 2.12329 0.0547523 0
M  V30 25208 H 2328.47 0.94401 0.0868861 0
M  V30 25209 H 2328.17 3.39809 0.906806 0
M  V30 25210 H 2328.05 2.78352 2.54559 0
M  V30 25211 H 2330.43 1.81633 2.3258 0
M  V30 25212 H 2330.51 2.46548 0.681759 0
M  V30 25213 H 2330.16 4.81509 1.6159 0
M  V30 25214 H 2330.09 4.13485 3.26094 0
M  V30 25215 H 2332.58 3.20021 2.00985 0
M  V30 25216 H 2332.89 6.85548 3.56713 0
M  V30 25217 H 2331.24 6.16211 3.21418 0
M  V30 25218 H 2334.43 4.00823 2.41783 0
M  V30 25219 H 2334.6 5.67495 3.12816 0
M  V30 25220 N 2328.01 -0.94462 1.26153 0
M  V30 25221 C 2329.26 -1.68485 1.10886 0
M  V30 25222 C 2329.57 -1.92477 -0.348119 0
M  V30 25223 O 2330.78 -2.64293 -0.621412 0
M  V30 25224 C 2329.23 -3.03374 1.93629 0
M  V30 25225 C 2328.84 -2.87142 3.4388 0
M  V30 25226 C 2330.58 -3.81112 1.8696 0
M  V30 25227 C 2328.49 -4.17482 4.18882 0
M  V30 25228 H 2327.42 -0.6319 0.411362 0
M  V30 25229 H 2330.07 -1.0508 1.50434 0
M  V30 25230 H 2328.45 -3.67741 1.46911 0
M  V30 25231 H 2329.63 -2.31646 3.98342 0
M  V30 25232 H 2327.94 -2.2285 3.51748 0
M  V30 25233 H 2330.54 -4.77669 2.40284 0
M  V30 25234 H 2330.88 -4.07746 0.83959 0
M  V30 25235 H 2331.42 -3.23513 2.31483 0
M  V30 25236 H 2328.15 -3.96034 5.22339 0
M  V30 25237 H 2327.67 -4.72705 3.69201 0
M  V30 25238 H 2329.35 -4.85961 4.27143 0
M  V30 25239 N 2329.49 -1.07901 -1.1487 0
M  V30 25240 C 2330.43 -0.698766 -2.21856 0
M  V30 25241 C 2331.43 0.293057 -1.66846 0
M  V30 25242 O 2332.63 0.156173 -1.79321 0
M  V30 25243 H 2329.01 -0.207912 -0.722687 0
M  V30 25244 H 2330.98 -1.61058 -2.51203 0
M  V30 25245 C 2329.73 -0.118641 -3.47498 0
M  V30 25246 H 2329.05 -0.872982 -3.90153 0
M  V30 25247 H 2330.49 0.109684 -4.23858 0
M  V30 25248 C 2328.95 1.14215 -3.16949 0
M  V30 25249 O 2329.48 2.22779 -3.34264 0
M  V30 25250 N 2327.69 1.05051 -2.70948 0
M  V30 25251 H 2327.23 0.166993 -2.57058 0
M  V30 25252 H 2327.19 1.89487 -2.50883 0
M  V30 25253 N 2330.96 1.31811 -0.863929 0
M  V30 25254 C 2331.89 2.31144 -0.330883 0
M  V30 25255 C 2332.87 1.60088 0.574977 0
M  V30 25256 O 2334.06 1.87831 0.493271 0
M  V30 25257 C 2331.19 3.44055 0.473679 0
M  V30 25258 C 2330.14 4.26659 -0.338556 0
M  V30 25259 C 2329.47 5.3142 0.591318 0
M  V30 25260 C 2330.77 4.98165 -1.56935 0
M  V30 25261 H 2332.46 2.75977 -1.16091 0
M  V30 25262 H 2330.01 1.32678 -0.559681 0
M  V30 25263 H 2331.96 4.12592 0.857071 0
M  V30 25264 H 2330.69 2.97973 1.33716 0
M  V30 25265 H 2329.35 3.5978 -0.703818 0
M  V30 25266 H 2328.99 4.8159 1.4519 0
M  V30 25267 H 2328.69 5.87577 0.0517989 0
M  V30 25268 H 2330.22 6.02819 0.971685 0
M  V30 25269 H 2331.63 5.59333 -1.25774 0
M  V30 25270 H 2330.03 5.6409 -2.04749 0
M  V30 25271 H 2331.1 4.25497 -2.32552 0
M  V30 25272 N 2332.44 0.62277 1.44773 0
M  V30 25273 C 2333.69 0.124119 2.0242 0
M  V30 25274 C 2334.02 -1.24774 1.48812 0
M  V30 25275 O 2333.3 -1.82639 0.668831 0
M  V30 25276 C 2333.58 0.101682 3.59956 0
M  V30 25277 C 2333.43 1.50529 4.23865 0
M  V30 25278 C 2334.75 -0.578196 4.36285 0
M  V30 25279 H 2331.87 0.0465775 0.735527 0
M  V30 25280 H 2334.51 0.797647 1.72446 0
M  V30 25281 H 2332.66 -0.471866 3.85624 0
M  V30 25282 H 2334.33 2.12708 4.09332 0
M  V30 25283 H 2332.58 2.06161 3.81681 0
M  V30 25284 H 2333.25 1.44169 5.32841 0
M  V30 25285 H 2335.72 -0.0905326 4.16002 0
M  V30 25286 H 2334.6 -0.563053 5.46005 0
M  V30 25287 H 2334.86 -1.64706 4.10274 0
M  V30 25288 N 2333.92 -1.53367 0.362817 0
M  V30 25289 C 2335.17 -2.01215 -0.22774 0
M  V30 25290 C 2335.49 -1.25017 -1.49 0
M  V30 25291 O 2334.75 -0.33127 -1.92876 0
M  V30 25292 C 2335.05 -3.52852 -0.568355 0
M  V30 25293 C 2334.71 -4.469 0.599259 0
M  V30 25294 C 2333.38 -4.7233 0.919642 0
M  V30 25295 C 2335.73 -5.02553 1.38165 0
M  V30 25296 C 2333.06 -5.50666 2.02444 0
M  V30 25297 C 2335.41 -5.82096 2.47684 0
M  V30 25298 C 2334.07 -6.05814 2.8026 0
M  V30 25299 H 2333.34 -0.736299 -0.0833361 0
M  V30 25300 H 2335.99 -1.85 0.494709 0
M  V30 25301 H 2334.29 -3.67 -1.37178 0
M  V30 25302 H 2335.99 -3.87346 -1.03749 0
M  V30 25303 H 2332.58 -4.27253 0.339512 0
M  V30 25304 H 2336.77 -4.82855 1.14738 0
M  V30 25305 H 2332.02 -5.67263 2.28084 0
M  V30 25306 H 2336.2 -6.24228 3.08727 0
M  V30 25307 H 2333.82 -6.66299 3.65991 0
M  V30 25308 N 2335.4 -0.091913 -1.57332 0
M  V30 25309 C 2336.65 0.572215 -1.93413 0
M  V30 25310 C 2336.96 1.69536 -0.975545 0
M  V30 25311 O 2338.17 2.42042 -1.22995 0
M  V30 25312 C 2336.62 1.06924 -3.4365 0
M  V30 25313 C 2336.23 -0.0239837 -4.47994 0
M  V30 25314 C 2337.97 1.70628 -3.88698 0
M  V30 25315 C 2335.88 0.488215 -5.89381 0
M  V30 25316 H 2334.81 0.217519 -0.721943 0
M  V30 25317 H 2337.46 -0.167401 -1.82735 0
M  V30 25318 H 2335.84 1.86244 -3.4947 0
M  V30 25319 H 2337.02 -0.799357 -4.53814 0
M  V30 25320 H 2335.33 -0.566018 -4.12535 0
M  V30 25321 H 2337.93 2.10016 -4.91729 0
M  V30 25322 H 2338.27 2.57421 -3.2717 0
M  V30 25323 H 2338.81 0.978955 -3.85566 0
M  V30 25324 H 2335.55 -0.343021 -6.54602 0
M  V30 25325 H 2335.07 1.23066 -5.87039 0
M  V30 25326 H 2336.74 0.958205 -6.39865 0
M  V30 25327 N 2336.88 1.56548 0.181765 0
M  V30 25328 C 2338.12 1.81666 0.901399 0
M  V30 25329 C 2338.46 0.668107 1.82346 0
M  V30 25330 O 2337.73 -0.330581 1.9167 0
M  V30 25331 C 2338.01 3.17118 1.70612 0
M  V30 25332 C 2337.87 4.42485 0.807886 0
M  V30 25333 C 2339.19 3.49398 2.67599 0
M  V30 25334 H 2336.3 0.660851 0.326258 0
M  V30 25335 H 2338.95 1.89255 0.168101 0
M  V30 25336 H 2337.1 3.10779 2.33128 0
M  V30 25337 H 2338.77 4.60882 0.196409 0
M  V30 25338 H 2337.01 4.33647 0.115334 0
M  V30 25339 H 2337.68 5.33788 1.40623 0
M  V30 25340 H 2340.16 3.56122 2.15212 0
M  V30 25341 H 2339.03 4.45269 3.20977 0
M  V30 25342 H 2339.3 2.73569 3.47293 0
M  V30 25343 N 2338.35 -0.449957 1.5104 0
M  V30 25344 C 2339.28 -1.55284 1.74382 0
M  V30 25345 C 2340.27 -1.59419 0.593264 0
M  V30 25346 O 2341.45 -1.75349 0.834656 0
M  V30 25347 C 2338.58 -2.93463 1.85734 0
M  V30 25348 C 2337.53 -3.04192 3.01083 0
M  V30 25349 C 2336.86 -4.44226 2.97603 0
M  V30 25350 C 2338.16 -2.79442 4.41259 0
M  V30 25351 H 2339.85 -1.36003 2.66727 0
M  V30 25352 H 2337.4 -0.652842 1.28351 0
M  V30 25353 H 2339.35 -3.70566 2.00646 0
M  V30 25354 H 2338.08 -3.13947 0.900262 0
M  V30 25355 H 2336.74 -2.29526 2.85855 0
M  V30 25356 H 2336.38 -4.61659 1.99699 0
M  V30 25357 H 2336.08 -4.52337 3.75054 0
M  V30 25358 H 2337.61 -5.2332 3.14592 0
M  V30 25359 H 2339.02 -3.46284 4.56903 0
M  V30 25360 H 2337.42 -2.98976 5.2032 0
M  V30 25361 H 2338.49 -1.75137 4.52167 0
M  V30 25362 N 2339.83 -1.40974 -0.704569 0
M  V30 25363 C 2341.08 -1.39847 -1.46455 0
M  V30 25364 C 2341.41 -0.00451012 -1.94499 0
M  V30 25365 O 2340.66 0.982027 -1.69277 0
M  V30 25366 C 2340.96 -2.34404 -2.69796 0
M  V30 25367 C 2340.63 -3.81433 -2.40458 0
M  V30 25368 C 2339.29 -4.21488 -2.32167 0
M  V30 25369 C 2341.64 -4.743 -2.16077 0
M  V30 25370 C 2338.97 -5.5243 -1.97579 0
M  V30 25371 C 2341.32 -6.05552 -1.83 0
M  V30 25372 C 2339.99 -6.44638 -1.73199 0
M  V30 25373 H 2339.26 -0.511735 -0.535918 0
M  V30 25374 H 2341.9 -1.73708 -0.806093 0
M  V30 25375 H 2340.21 -1.93765 -3.40532 0
M  V30 25376 H 2341.9 -2.30809 -3.27915 0
M  V30 25377 H 2338.49 -3.49703 -2.47801 0
M  V30 25378 H 2342.68 -4.44164 -2.21433 0
M  V30 25379 H 2337.93 -5.81605 -1.88537 0
M  V30 25380 H 2342.11 -6.77019 -1.63152 0
M  V30 25381 H 2339.74 -7.46016 -1.46166 0
M  V30 25382 N 2341.31 0.937917 -1.26653 0
M  V30 25383 C 2342.54 1.71878 -1.15176 0
M  V30 25384 C 2342.95 1.86518 0.292635 0
M  V30 25385 O 2342.31 1.3749 1.20011 0
M  V30 25386 C 2342.36 3.12383 -1.81931 0
M  V30 25387 O 2342.08 2.9844 -3.20726 0
M  V30 25388 C 2343.58 4.0667 -1.76449 0
M  V30 25389 H 2340.8 0.538056 -0.40092 0
M  V30 25390 H 2343.35 1.17557 -1.67334 0
M  V30 25391 H 2341.5 3.63596 -1.33703 0
M  V30 25392 H 2341.92 3.87194 -3.53809 0
M  V30 25393 H 2343.39 5.02808 -2.2779 0
M  V30 25394 H 2343.87 4.33062 -0.731684 0
M  V30 25395 H 2344.47 3.61379 -2.24245 0
M  V30 25396 N 2342.79 1.08509 1.14296 0
M  V30 25397 C 2344.04 0.813795 1.84991 0
M  V30 25398 C 2344.36 -0.662361 1.83406 0
M  V30 25399 O 2343.63 -1.48022 1.28321 0
M  V30 25400 H 2342.21 0.298057 0.684961 0
M  V30 25401 H 2344.87 1.37129 1.38498 0
M  V30 25402 H 2343.97 1.15889 2.89786 0
M  V30 25403 N 2344.27 -1.31351 0.870907 0
M  V30 25404 C 2345.18 -2.32256 0.330824 0
M  V30 25405 C 2346.19 -1.64751 -0.559738 0
M  V30 25406 O 2347.37 -1.96165 -0.456229 0
M  V30 25407 C 2344.43 -3.43661 -0.458076 0
M  V30 25408 C 2343.49 -4.26822 0.460557 0
M  V30 25409 C 2342.73 -5.32907 -0.290787 0
M  V30 25410 O 2342.95 -5.49809 -1.51875 0
M  V30 25411 O 2341.88 -6.00871 0.351837 0
M  V30 25412 H 2345.71 -2.80374 1.16723 0
M  V30 25413 H 2343.3 -1.35266 0.634309 0
M  V30 25414 H 2345.18 -4.11561 -0.905271 0
M  V30 25415 H 2343.85 -2.97703 -1.27101 0
M  V30 25416 H 2342.76 -3.61672 0.95627 0
M  V30 25417 H 2344.09 -4.76347 1.23911 0
M  V30 25418 N 2345.74 -0.630439 -1.44441 0
M  V30 25419 C 2346.98 -0.137955 -2.03934 0
M  V30 25420 C 2347.35 1.2169 -1.48511 0
M  V30 25421 O 2348.55 1.80145 -1.99502 0
M  V30 25422 C 2346.82 -0.123436 -3.57187 0
M  V30 25423 S 2348.38 0.304527 -4.37742 0
M  V30 25424 H 2345.2 -0.0607477 -0.7084 0
M  V30 25425 H 2347.8 -0.833674 -1.76834 0
M  V30 25426 H 2346.5 -1.11263 -3.9503 0
M  V30 25427 H 2346.03 0.593552 -3.88897 0
M  V30 25428 H 2348.05 1.54889 -4.71406 0
M  V30 25429 N 2347.22 1.53172 -0.370945 0
M  V30 25430 C 2348.47 2.01632 0.217388 0
M  V30 25431 C 2348.8 1.25759 1.47981 0
M  V30 25432 O 2348.08 0.352798 1.91274 0
M  V30 25433 C 2348.36 3.56557 0.503919 0
M  V30 25434 C 2348.21 4.43117 -0.772508 0
M  V30 25435 C 2349.53 4.20392 1.30226 0
M  V30 25436 H 2346.65 0.73291 0.0775357 0
M  V30 25437 H 2349.29 1.83387 -0.496895 0
M  V30 25438 H 2347.44 3.72233 1.11241 0
M  V30 25439 H 2349.11 4.39227 -1.40987 0
M  V30 25440 H 2347.36 4.10869 -1.39174 0
M  V30 25441 H 2348.03 5.49479 -0.526911 0
M  V30 25442 H 2350.5 4.08581 0.787474 0
M  V30 25443 H 2349.38 5.28808 1.47149 0
M  V30 25444 H 2349.64 3.76809 2.31231 0
M  V30 25445 N 2348.7 0.100255 1.57281 0
M  V30 25446 C 2349.63 -0.853819 2.1733 0
M  V30 25447 C 2350.61 -1.29058 1.10806 0
M  V30 25448 O 2351.8 -1.35655 1.38966 0
M  V30 25449 C 2348.93 -2.11104 2.75776 0
M  V30 25450 C 2347.88 -1.81273 3.87717 0
M  V30 25451 C 2347.21 -3.13867 4.32888 0
M  V30 25452 C 2348.51 -1.09565 5.10679 0
M  V30 25453 H 2350.2 -0.353493 2.97306 0
M  V30 25454 H 2347.75 -0.168587 1.4301 0
M  V30 25455 H 2349.7 -2.7829 3.16437 0
M  V30 25456 H 2348.42 -2.63429 1.93061 0
M  V30 25457 H 2347.08 -1.16483 3.47602 0
M  V30 25458 H 2346.73 -3.64089 3.47057 0
M  V30 25459 H 2346.43 -2.94687 5.08363 0
M  V30 25460 H 2347.95 -3.82202 4.76187 0
M  V30 25461 H 2349.37 -1.66869 5.48477 0
M  V30 25462 H 2347.77 -1.00546 5.91617 0
M  V30 25463 H 2348.84 -0.0792447 4.84835 0
M  V30 25464 N 2350.18 -1.56643 -0.17346 0
M  V30 25465 C 2351.13 -1.96244 -1.21479 0
M  V30 25466 C 2352.1 -0.826052 -1.44103 0
M  V30 25467 O 2353.28 -1.086 -1.56878 0
M  V30 25468 C 2350.42 -2.32572 -2.5496 0
M  V30 25469 C 2349.53 -3.59378 -2.39733 0
M  V30 25470 C 2348.67 -3.84928 -3.66066 0
M  V30 25471 C 2347.71 -5.05089 -3.45763 0
M  V30 25472 N 2346.85 -5.26783 -4.6416 0
M  V30 25473 H 2351.69 -2.85015 -0.870073 0
M  V30 25474 H 2349.22 -1.4103 -0.41822 0
M  V30 25475 H 2351.18 -2.51656 -3.32754 0
M  V30 25476 H 2349.81 -1.46913 -2.8743 0
M  V30 25477 H 2348.86 -3.4822 -1.53125 0
M  V30 25478 H 2350.17 -4.4733 -2.20675 0
M  V30 25479 H 2349.33 -4.04368 -4.52296 0
M  V30 25480 H 2348.07 -2.95347 -3.881 0
M  V30 25481 H 2347.07 -4.85549 -2.57919 0
M  V30 25482 H 2348.3 -5.96198 -3.25153 0
M  V30 25483 H 2346.24 -4.40153 -4.86417 0
M  V30 25484 H 2346.16 -6.08954 -4.48008 0
M  V30 25485 H 2347.43 -5.507 -5.51679 0
M  V30 25486 N 2351.66 0.44194 -1.51277 0
M  V30 25487 C 2352.59 1.54358 -1.75203 0
M  V30 25488 C 2353.57 1.59102 -0.60171 0
M  V30 25489 O 2354.75 1.74903 -0.843944 0
M  V30 25490 C 2351.88 2.92474 -1.87287 0
M  V30 25491 C 2350.84 3.02591 -3.02692 0
M  V30 25492 C 2350.16 4.42641 -2.99955 0
M  V30 25493 C 2351.46 2.77098 -4.42735 0
M  V30 25494 H 2353.16 1.34587 -2.67445 0
M  V30 25495 H 2350.7 0.646026 -1.28695 0
M  V30 25496 H 2352.66 3.69497 -2.02609 0
M  V30 25497 H 2351.38 3.13465 -0.916899 0
M  V30 25498 H 2350.04 2.28007 -2.87069 0
M  V30 25499 H 2349.69 4.60594 -2.02144 0
M  V30 25500 H 2349.39 4.50341 -3.77447 0
M  V30 25501 H 2350.91 5.21644 -3.17363 0
M  V30 25502 H 2352.33 3.43856 -4.58733 0
M  V30 25503 H 2350.72 2.96213 -5.21899 0
M  V30 25504 H 2351.79 1.72736 -4.5309 0
M  V30 25505 N 2353.14 1.41345 0.697083 0
M  V30 25506 C 2354.38 1.39921 1.45276 0
M  V30 25507 C 2354.7 0.0109968 1.95597 0
M  V30 25508 O 2355.9 -0.125871 2.71208 0
M  V30 25509 C 2354.36 2.46011 2.62691 0
M  V30 25510 C 2353.97 3.90732 2.19162 0
M  V30 25511 C 2355.71 2.53721 3.40332 0
M  V30 25512 C 2353.62 4.88379 3.33526 0
M  V30 25513 H 2352.55 0.520333 0.545683 0
M  V30 25514 H 2355.2 1.67162 0.7569 0
M  V30 25515 H 2353.58 2.11898 3.34537 0
M  V30 25516 H 2354.76 4.34086 1.54615 0
M  V30 25517 H 2353.07 3.86669 1.54519 0
M  V30 25518 H 2355.67 3.23858 4.25465 0
M  V30 25519 H 2356.01 1.57356 3.85415 0
M  V30 25520 H 2356.54 2.86918 2.75541 0
M  V30 25521 H 2353.28 5.86143 2.93457 0
M  V30 25522 H 2352.8 4.49675 3.96928 0
M  V30 25523 H 2354.48 5.09066 3.99326 0
M  V30 25524 N 2354.61 -0.931187 1.27148 0
M  V30 25525 C 2355.84 -1.71795 1.16194 0
M  V30 25526 C 2356.26 -1.86035 -0.277971 0
M  V30 25527 O 2355.62 -1.35784 -1.20134 0
M  V30 25528 C 2355.67 -3.09719 1.84679 0
M  V30 25529 O 2354.77 -3.96262 1.14238 0
M  V30 25530 H 2354.11 -0.526714 0.404312 0
M  V30 25531 H 2356.64 -1.16557 1.68154 0
M  V30 25532 H 2356.65 -3.60054 1.919 0
M  V30 25533 H 2355.33 -2.98672 2.89427 0
M  V30 25534 H 2353.91 -3.54704 1.15062 0
M  V30 25535 N 2356.09 -1.09114 -1.13719 0
M  V30 25536 C 2357.02 -0.749423 -2.21147 0
M  V30 25537 C 2358 0.271446 -1.6792 0
M  V30 25538 O 2359.19 0.140217 -1.93693 0
M  V30 25539 C 2356.32 -0.16572 -3.46904 0
M  V30 25540 C 2355.27 -1.11574 -4.13201 0
M  V30 25541 C 2354.6 -0.393903 -5.33247 0
M  V30 25542 C 2355.9 -2.45686 -4.60908 0
M  V30 25543 H 2357.59 -1.64763 -2.49987 0
M  V30 25544 H 2355.14 -0.793647 -1.20155 0
M  V30 25545 H 2357.09 0.0853919 -4.21313 0
M  V30 25546 H 2355.81 0.767658 -3.1745 0
M  V30 25547 H 2354.47 -1.35208 -3.40756 0
M  V30 25548 H 2354.12 0.543511 -5.00055 0
M  V30 25549 H 2353.82 -1.02731 -5.7855 0
M  V30 25550 H 2355.35 -0.151015 -6.10413 0
M  V30 25551 H 2356.76 -2.26278 -5.26755 0
M  V30 25552 H 2355.16 -3.04785 -5.16939 0
M  V30 25553 H 2356.23 -3.06684 -3.75597 0
M  V30 25554 N 2357.57 1.30887 -0.877861 0
M  V30 25555 C 2358.99 1.49041 -0.57087 0
M  V30 25556 C 2359.19 1.80625 0.893127 0
M  V30 25557 O 2358.24 1.88961 1.67481 0
M  V30 25558 C 2359.55 2.61876 -1.47789 0
M  V30 25559 C 2361.1 2.75758 -1.48076 0
M  V30 25560 C 2361.58 3.91698 -2.37354 0
M  V30 25561 N 2363.07 3.98997 -2.35278 0
M  V30 25562 C 2363.8 4.87999 -3.01072 0
M  V30 25563 N 2363.3 5.81847 -3.76066 0
M  V30 25564 N 2365.09 4.8131 -2.9034 0
M  V30 25565 H 2357.24 1.08656 -1.82504 0
M  V30 25566 H 2359.51 0.53763 -0.780806 0
M  V30 25567 H 2359.21 2.45337 -2.51998 0
M  V30 25568 H 2359.09 3.58195 -1.18222 0
M  V30 25569 H 2361.47 2.91707 -0.446217 0
M  V30 25570 H 2361.55 1.80082 -1.81671 0
M  V30 25571 H 2361.2 3.76506 -3.40889 0
M  V30 25572 H 2361.13 4.86698 -2.01079 0
M  V30 25573 H 2363.62 3.31857 -1.80774 0
M  V30 25574 H 2363.93 6.46507 -4.23378 0
M  V30 25575 H 2362.28 5.81802 -3.80174 0
M  V30 25576 H 2365.47 4.0697 -2.31285 0
M  V30 25577 H 2365.64 5.50465 -3.41895 0
M  V30 25578 N 2359.05 0.638091 1.44105 0
M  V30 25579 C 2360 -0.0846884 2.27843 0
M  V30 25580 C 2360.98 -0.809447 1.39057 0
M  V30 25581 O 2362.17 -0.694407 1.6281 0
M  V30 25582 C 2359.3 -1.06083 3.26498 0
M  V30 25583 C 2358.39 -0.335336 4.22772 0
M  V30 25584 N 2358.78 0.639875 5.01736 0
M  V30 25585 C 2357.08 -0.578843 4.42228 0
M  V30 25586 C 2357.78 1.06914 5.7179 0
M  V30 25587 N 2356.75 0.406491 5.42078 0
M  V30 25588 H 2360.56 0.663865 2.86304 0
M  V30 25589 H 2358.07 0.464149 1.55626 0
M  V30 25590 H 2360.07 -1.5933 3.85253 0
M  V30 25591 H 2358.73 -1.80961 2.69598 0
M  V30 25592 H 2359.74 1.01798 5.07797 0
M  V30 25593 H 2356.42 -1.30996 3.96417 0
M  V30 25594 H 2357.81 1.87521 6.45202 0
M  V30 25595 N 2360.53 -1.52973 0.379063 0
M  V30 25596 C 2361.76 -2.05566 -0.206454 0
M  V30 25597 C 2362.16 -1.25139 -1.41904 0
M  V30 25598 O 2361.51 -0.288496 -1.8142 0
M  V30 25599 C 2361.57 -3.53556 -0.651024 0
M  V30 25600 C 2361.23 -4.54812 0.446706 0
M  V30 25601 C 2362.23 -5.03362 1.30087 0
M  V30 25602 C 2359.91 -4.98572 0.610807 0
M  V30 25603 C 2361.91 -5.94288 2.30436 0
M  V30 25604 C 2359.6 -5.89301 1.61765 0
M  V30 25605 C 2360.59 -6.3705 2.46285 0
M  V30 25606 O 2360.28 -7.25988 3.45249 0
M  V30 25607 H 2360.01 -0.674974 -0.0372262 0
M  V30 25608 H 2362.57 -1.98181 0.539753 0
M  V30 25609 H 2360.8 -3.58524 -1.44905 0
M  V30 25610 H 2362.49 -3.8894 -1.16105 0
M  V30 25611 H 2363.25 -4.70292 1.18535 0
M  V30 25612 H 2359.13 -4.60985 -0.0373234 0
M  V30 25613 H 2362.68 -6.3148 2.96443 0
M  V30 25614 H 2358.57 -6.21785 1.73359 0
M  V30 25615 H 2359.34 -7.44021 3.41137 0
M  V30 25616 N 2362 -0.108595 -1.57225 0
M  V30 25617 C 2363.23 0.559107 -1.98891 0
M  V30 25618 C 2363.64 1.6142 -0.986918 0
M  V30 25619 O 2362.98 1.83676 0.0298382 0
M  V30 25620 C 2363.05 1.25309 -3.36954 0
M  V30 25621 C 2362.71 0.347168 -4.55679 0
M  V30 25622 C 2363.71 -0.410087 -5.1828 0
M  V30 25623 C 2361.39 0.261279 -5.0162 0
M  V30 25624 C 2363.39 -1.24107 -6.25201 0
M  V30 25625 C 2361.07 -0.573345 -6.08404 0
M  V30 25626 C 2362.07 -1.32316 -6.70061 0
M  V30 25627 O 2361.76 -2.14394 -7.74784 0
M  V30 25628 H 2361.49 0.153481 -0.658346 0
M  V30 25629 H 2364.05 -0.18862 -2.04532 0
M  V30 25630 H 2362.28 2.04767 -3.28036 0
M  V30 25631 H 2363.96 1.81666 -3.62977 0
M  V30 25632 H 2364.73 -0.353542 -4.8371 0
M  V30 25633 H 2360.61 0.834577 -4.53383 0
M  V30 25634 H 2364.15 -1.82681 -6.73256 0
M  V30 25635 H 2360.05 -0.631321 -6.42405 0
M  V30 25636 H 2360.82 -2.07223 -7.91834 0
M  V30 25637 N 2363.48 1.56732 0.16515 0
M  V30 25638 C 2364.73 1.82342 0.880775 0
M  V30 25639 C 2365.06 0.686653 1.81976 0
M  V30 25640 O 2364.31 -0.325663 1.92971 0
M  V30 25641 C 2364.61 3.14163 1.704 0
M  V30 25642 C 2364.28 4.41552 0.913397 0
M  V30 25643 C 2362.94 4.76151 0.69522 0
M  V30 25644 C 2365.29 5.1996 0.359257 0
M  V30 25645 C 2362.62 5.86634 -0.0880978 0
M  V30 25646 C 2364.97 6.31263 -0.411004 0
M  V30 25647 C 2363.63 6.64425 -0.639925 0
M  V30 25648 H 2362.9 0.667237 0.322299 0
M  V30 25649 H 2365.55 1.90947 0.145369 0
M  V30 25650 H 2363.86 3.00928 2.50898 0
M  V30 25651 H 2365.55 3.3119 2.26085 0
M  V30 25652 H 2362.14 4.14416 1.09349 0
M  V30 25653 H 2366.33 4.93619 0.515141 0
M  V30 25654 H 2361.58 6.10781 -0.275137 0
M  V30 25655 H 2365.76 6.91222 -0.847615 0
M  V30 25656 H 2363.38 7.49873 -1.24877 0
M  V30 25657 N 2364.96 -0.433911 1.51509 0
M  V30 25658 C 2366.19 -1.2054 1.68159 0
M  V30 25659 C 2366.6 -1.84928 0.380395 0
M  V30 25660 O 2365.96 -1.70857 -0.641416 0
M  V30 25661 C 2366.01 -2.28691 2.79969 0
M  V30 25662 O 2365.73 -1.66936 4.05048 0
M  V30 25663 C 2367.23 -3.18907 3.07918 0
M  V30 25664 H 2364.45 -0.363181 0.564217 0
M  V30 25665 H 2367 -0.513719 1.97942 0
M  V30 25666 H 2365.15 -2.9357 2.52776 0
M  V30 25667 H 2365.57 -2.3844 4.67169 0
M  V30 25668 H 2367.04 -3.90919 3.89726 0
M  V30 25669 H 2367.52 -3.79859 2.20463 0
M  V30 25670 H 2368.12 -2.59725 3.36783 0
M  V30 25671 N 2366.44 -1.41713 -0.689577 0
M  V30 25672 C 2367.69 -1.40689 -1.44532 0
M  V30 25673 C 2368 -0.0213696 -1.95588 0
M  V30 25674 O 2369.21 0.111486 -2.71271 0
M  V30 25675 C 2367.66 -2.47401 -2.61382 0
M  V30 25676 C 2367.27 -3.91889 -2.17087 0
M  V30 25677 C 2369.01 -2.55523 -3.38982 0
M  V30 25678 C 2366.92 -4.90141 -3.30932 0
M  V30 25679 H 2365.85 -0.523219 -0.542916 0
M  V30 25680 H 2368.5 -1.67561 -0.748024 0
M  V30 25681 H 2366.88 -2.13669 -3.33409 0
M  V30 25682 H 2368.06 -4.349 -1.52311 0
M  V30 25683 H 2366.37 -3.87483 -1.52466 0
M  V30 25684 H 2368.97 -3.2611 -4.23741 0
M  V30 25685 H 2369.31 -1.59398 -3.84575 0
M  V30 25686 H 2369.85 -2.88375 -2.74016 0
M  V30 25687 H 2366.59 -5.87691 -2.90345 0
M  V30 25688 H 2366.11 -4.51774 -3.94538 0
M  V30 25689 H 2367.78 -5.11176 -3.96621 0
M  V30 25690 N 2367.92 0.924431 -1.2764 0
M  V30 25691 C 2369.16 1.66916 -1.13944 0
M  V30 25692 C 2369.49 1.92446 0.314555 0
M  V30 25693 O 2368.76 1.53305 1.21961 0
M  V30 25694 H 2367.34 0.618635 -0.418689 0
M  V30 25695 H 2370 1.10982 -1.60215 0
M  V30 25696 H 2369.09 2.63599 -1.67098 0
M  V30 25697 N 2369.39 1.09715 1.13139 0
M  V30 25698 C 2370.64 0.846136 1.84965 0
M  V30 25699 C 2371 -0.621569 1.82083 0
M  V30 25700 O 2370.29 -1.45198 1.25013 0
M  V30 25701 C 2370.48 1.31916 3.32164 0
M  V30 25702 C 2370.31 2.83131 3.49381 0
M  V30 25703 C 2369.08 3.51045 3.6345 0
M  V30 25704 C 2371.28 3.81262 3.45172 0
M  V30 25705 N 2369.26 4.90657 3.68957 0
M  V30 25706 C 2370.63 5.06843 3.57085 0
M  V30 25707 C 2372.69 3.74075 3.28591 0
M  V30 25708 C 2371.39 6.26087 3.54129 0
M  V30 25709 C 2373.42 4.9281 3.26945 0
M  V30 25710 C 2372.78 6.17235 3.39411 0
M  V30 25711 H 2368.88 0.362524 0.692893 0
M  V30 25712 H 2371.46 1.3981 1.35504 0
M  V30 25713 H 2369.63 0.794602 3.80185 0
M  V30 25714 H 2371.36 1.01315 3.91813 0
M  V30 25715 H 2368.12 3.01478 3.65251 0
M  V30 25716 H 2368.54 5.6339 3.75394 0
M  V30 25717 H 2373.19 2.788 3.17853 0
M  V30 25718 H 2370.9 7.21659 3.6364 0
M  V30 25719 H 2374.49 4.8895 3.15308 0
M  V30 25720 H 2373.37 7.07571 3.38102 0
M  V30 25721 N 2370.87 -1.30419 0.88479 0
M  V30 25722 C 2371.82 -2.30088 0.340909 0
M  V30 25723 C 2372.81 -1.60155 -0.551982 0
M  V30 25724 O 2374.02 -1.74629 -0.436437 0
M  V30 25725 H 2370.4 -0.746402 0.091587 0
M  V30 25726 H 2372.37 -2.73419 1.19518 0
M  V30 25727 C 2371.12 -3.45034 -0.429718 0
M  V30 25728 H 2370.44 -3.99029 0.248094 0
M  V30 25729 H 2371.88 -4.1685 -0.775372 0
M  V30 25730 C 2370.34 -2.95024 -1.62672 0
M  V30 25731 O 2370.87 -2.95038 -2.72609 0
M  V30 25732 N 2369.07 -2.51039 -1.46383 0
M  V30 25733 H 2368.62 -2.51227 -0.569462 0
M  V30 25734 H 2368.58 -2.17936 -2.26609 0
M  V30 25735 N 2372.35 -0.645724 -1.43764 0
M  V30 25736 C 2373.6 -0.153448 -2.01115 0
M  V30 25737 C 2373.91 1.23728 -1.51495 0
M  V30 25738 O 2375.12 1.82437 -2.0107 0
M  V30 25739 C 2373.57 -0.223536 -3.59205 0
M  V30 25740 C 2373.18 -1.61649 -4.1782 0
M  V30 25741 C 2374.93 0.211523 -4.23973 0
M  V30 25742 C 2372.83 -1.64091 -5.6818 0
M  V30 25743 H 2371.76 -0.0536024 -0.752092 0
M  V30 25744 H 2374.41 -0.806662 -1.64819 0
M  V30 25745 H 2372.8 0.497049 -3.92868 0
M  V30 25746 H 2373.97 -2.36183 -3.9567 0
M  V30 25747 H 2372.29 -1.99688 -3.65395 0
M  V30 25748 H 2374.88 0.213018 -5.34276 0
M  V30 25749 H 2375.23 1.24158 -3.97354 0
M  V30 25750 H 2375.76 -0.457058 -3.95166 0
M  V30 25751 H 2372.5 -2.64981 -5.99554 0
M  V30 25752 H 2372.02 -0.938715 -5.92409 0
M  V30 25753 H 2373.7 -1.38131 -6.32083 0
M  V30 25754 N 2373.83 1.5277 -0.38717 0
M  V30 25755 C 2375.08 2.01552 0.1957 0
M  V30 25756 C 2375.4 1.27371 1.46993 0
M  V30 25757 O 2374.66 0.361913 1.92324 0
M  V30 25758 C 2374.96 3.53711 0.512147 0
M  V30 25759 C 2374.62 4.4589 -0.670281 0
M  V30 25760 C 2373.29 4.70808 -0.994669 0
M  V30 25761 C 2375.64 5.00292 -1.46143 0
M  V30 25762 C 2372.97 5.47376 -2.11179 0
M  V30 25763 C 2375.32 5.78082 -2.56913 0
M  V30 25764 C 2373.98 6.01278 -2.89863 0
M  V30 25765 H 2373.25 0.737532 0.0716117 0
M  V30 25766 H 2375.9 1.84189 -0.524079 0
M  V30 25767 H 2374.2 3.69136 1.31322 0
M  V30 25768 H 2375.9 3.88948 0.975736 0
M  V30 25769 H 2372.49 4.26659 -0.407441 0
M  V30 25770 H 2376.67 4.80968 -1.22405 0
M  V30 25771 H 2371.93 5.63563 -2.3708 0
M  V30 25772 H 2376.1 6.19238 -3.18619 0
M  V30 25773 H 2373.73 6.60392 -3.76545 0
M  V30 25774 N 2375.31 0.116931 1.57166 0
M  V30 25775 C 2376.58 -0.585016 1.86647 0
M  V30 25776 C 2376.96 -1.84947 1.01773 0
M  V30 25777 O 2376.31 -2.28298 0.096078 0
M  V30 25778 C 2376.52 -0.879447 3.37738 0
M  V30 25779 C 2377.87 -1.23341 4.06291 0
M  V30 25780 O 2378.89 -0.969775 3.42745 0
M  V30 25781 O 2377.75 -1.72811 5.18458 0
M  V30 25782 H 2374.85 -0.294994 0.772598 0
M  V30 25783 H 2377.39 0.151279 1.69024 0
M  V30 25784 H 2376.16 0.0166824 3.91296 0
M  V30 25785 H 2375.79 -1.67097 3.60783 0
M  V30 25786 N 2376.78 -1.56818 -0.156836 0
M  V30 25787 C 2378.03 -1.82807 -0.871093 0
M  V30 25788 C 2378.36 -0.696294 -1.81609 0
M  V30 25789 O 2377.61 0.315425 -1.93141 0
M  V30 25790 C 2377.91 -3.15063 -1.68731 0
M  V30 25791 C 2377.58 -4.4203 -0.889968 0
M  V30 25792 C 2376.24 -4.76513 -0.669958 0
M  V30 25793 C 2378.59 -5.20144 -0.331678 0
M  V30 25794 C 2375.92 -5.86579 0.119207 0
M  V30 25795 C 2378.27 -6.31037 0.444476 0
M  V30 25796 C 2376.94 -6.64077 0.675152 0
M  V30 25797 H 2376.21 -0.668936 -0.318755 0
M  V30 25798 H 2378.85 -1.91022 -0.13524 0
M  V30 25799 H 2377.16 -3.02254 -2.49299 0
M  V30 25800 H 2378.86 -3.32384 -2.24326 0
M  V30 25801 H 2375.45 -4.1499 -1.0715 0
M  V30 25802 H 2379.63 -4.93886 -0.488956 0
M  V30 25803 H 2374.89 -6.10626 0.307525 0
M  V30 25804 H 2379.06 -6.90763 0.884261 0
M  V30 25805 H 2376.69 -7.492 1.28852 0
M  V30 25806 N 2378.26 0.425871 -1.51737 0
M  V30 25807 C 2379.51 1.17607 -1.65217 0
M  V30 25808 C 2379.84 1.90588 -0.372812 0
M  V30 25809 O 2379.12 1.84079 0.628106 0
M  V30 25810 C 2379.4 2.18393 -2.86315 0
M  V30 25811 C 2379.25 1.49419 -4.24257 0
M  V30 25812 C 2380.57 3.19251 -3.0293 0
M  V30 25813 H 2377.69 0.426195 -0.601271 0
M  V30 25814 H 2380.33 0.46385 -1.84251 0
M  V30 25815 H 2378.48 2.79132 -2.70218 0
M  V30 25816 H 2380.15 0.919283 -4.52047 0
M  V30 25817 H 2378.4 0.796357 -4.26428 0
M  V30 25818 H 2379.07 2.22876 -5.05005 0
M  V30 25819 H 2381.54 2.68575 -3.17815 0
M  V30 25820 H 2380.42 3.87053 -3.89206 0
M  V30 25821 H 2380.68 3.86019 -2.15504 0
M  V30 25822 N 2379.74 1.42077 0.682052 0
M  V30 25823 C 2380.99 1.42369 1.44426 0
M  V30 25824 C 2381.32 0.0373397 1.94164 0
M  V30 25825 O 2380.59 -0.93721 1.70431 0
M  V30 25826 C 2380.88 2.44198 2.64649 0
M  V30 25827 C 2380.73 3.91995 2.20589 0
M  V30 25828 C 2382.05 2.43107 3.66861 0
M  V30 25829 H 2379.17 0.518437 0.523825 0
M  V30 25830 H 2381.81 1.73443 0.77573 0
M  V30 25831 H 2379.96 2.17831 3.21686 0
M  V30 25832 H 2381.63 4.29316 1.68776 0
M  V30 25833 H 2379.88 4.06211 1.52235 0
M  V30 25834 H 2380.55 4.58812 3.06913 0
M  V30 25835 H 2383.02 2.66537 3.19526 0
M  V30 25836 H 2381.9 3.16347 4.48571 0
M  V30 25837 H 2382.16 1.45444 4.17491 0
M  V30 25838 N 2381.22 -0.917649 1.28129 0
M  V30 25839 C 2382.47 -1.66886 1.15226 0
M  V30 25840 C 2382.8 -1.9188 -0.299259 0
M  V30 25841 O 2382.07 -1.51639 -1.21803 0
M  V30 25842 C 2382.36 -3.02919 1.94711 0
M  V30 25843 C 2382.21 -2.85102 3.47903 0
M  V30 25844 C 2383.53 -4.03399 1.75946 0
M  V30 25845 H 2380.65 -0.605645 0.419956 0
M  V30 25846 H 2383.29 -1.0642 1.574 0
M  V30 25847 H 2381.44 -3.54531 1.58871 0
M  V30 25848 H 2383.11 -2.4053 3.93628 0
M  V30 25849 H 2381.35 -2.2024 3.73734 0
M  V30 25850 H 2382.03 -3.81687 3.98772 0
M  V30 25851 H 2384.5 -3.60834 2.07216 0
M  V30 25852 H 2383.38 -4.96552 2.3394 0
M  V30 25853 H 2383.64 -4.36362 0.709953 0
M  V30 25854 N 2382.7 -1.10314 -1.12555 0
M  V30 25855 C 2383.95 -0.839621 -1.83394 0
M  V30 25856 C 2384.26 0.636897 -1.8494 0
M  V30 25857 O 2385.47 1.01627 -2.51762 0
M  V30 25858 C 2383.92 -1.4522 -3.29301 0
M  V30 25859 C 2383.53 -2.96192 -3.36116 0
M  V30 25860 C 2385.27 -1.26803 -4.05119 0
M  V30 25861 C 2383.18 -3.50491 -4.7635 0
M  V30 25862 H 2382.11 -0.310437 -0.687128 0
M  V30 25863 H 2384.76 -1.32697 -1.26743 0
M  V30 25864 H 2383.14 -0.892537 -3.85811 0
M  V30 25865 H 2384.32 -3.58463 -2.89553 0
M  V30 25866 H 2382.63 -3.1375 -2.7377 0
M  V30 25867 H 2385.23 -1.64815 -5.08665 0
M  V30 25868 H 2385.57 -0.209482 -4.15773 0
M  V30 25869 H 2386.11 -1.7957 -3.54964 0
M  V30 25870 H 2382.84 -4.56007 -4.70891 0
M  V30 25871 H 2382.36 -2.92987 -5.23372 0
M  V30 25872 H 2384.04 -3.48238 -5.45288 0
M  V30 25873 N 2384.18 1.29948 -0.891694 0
M  V30 25874 C 2385.11 2.3039 -0.379838 0
M  V30 25875 C 2386.09 1.61271 0.540891 0
M  V30 25876 O 2387.27 1.88835 0.453319 0
M  V30 25877 C 2384.4 3.44982 0.400593 0
M  V30 25878 C 2383.36 4.25845 -0.42898 0
M  V30 25879 C 2382.68 5.32555 0.478463 0
M  V30 25880 C 2383.98 4.94724 -1.67467 0
M  V30 25881 H 2385.68 2.73452 -1.21919 0
M  V30 25882 H 2383.22 1.31461 -0.587698 0
M  V30 25883 H 2385.17 4.14317 0.769361 0
M  V30 25884 H 2383.9 3.00742 1.27365 0
M  V30 25885 H 2382.56 3.58207 -0.779974 0
M  V30 25886 H 2382.21 4.84561 1.34943 0
M  V30 25887 H 2381.91 5.87555 -0.0728465 0
M  V30 25888 H 2383.43 6.04744 0.843599 0
M  V30 25889 H 2384.84 5.5654 -1.3761 0
M  V30 25890 H 2383.24 5.5962 -2.16668 0
M  V30 25891 H 2384.31 4.20468 -2.41525 0
M  V30 25892 N 2385.65 0.653339 1.4342 0
M  V30 25893 C 2386.88 0.172883 2.06678 0
M  V30 25894 C 2387.3 -1.1526 1.4865 0
M  V30 25895 O 2386.66 -1.71207 0.596487 0
M  V30 25896 C 2386.71 0.0953818 3.60474 0
M  V30 25897 O 2385.81 -0.942372 4.01489 0
M  V30 25898 H 2385.15 0.0949271 0.657179 0
M  V30 25899 H 2387.68 0.896297 1.83923 0
M  V30 25900 H 2387.69 -0.0879011 4.07905 0
M  V30 25901 H 2386.37 1.06298 4.02086 0
M  V30 25902 H 2384.95 -0.731867 3.65648 0
M  V30 25903 N 2387.13 -1.52563 0.395266 0
M  V30 25904 C 2388.38 -2.00838 -0.186286 0
M  V30 25905 C 2388.69 -1.28579 -1.474 0
M  V30 25906 O 2389.9 -1.67597 -2.13597 0
M  V30 25907 C 2388.36 -3.57861 -0.382533 0
M  V30 25908 C 2387.96 -4.39024 0.892279 0
M  V30 25909 C 2389.71 -4.14408 -0.920127 0
M  V30 25910 C 2387.61 -5.87661 0.663983 0
M  V30 25911 H 2386.54 -0.75042 -0.0733909 0
M  V30 25912 H 2389.2 -1.7602 0.518583 0
M  V30 25913 H 2387.58 -3.78952 -1.1494 0
M  V30 25914 H 2388.75 -4.29698 1.66422 0
M  V30 25915 H 2387.07 -3.93728 1.35526 0
M  V30 25916 H 2389.66 -5.23121 -1.10674 0
M  V30 25917 H 2390.01 -3.70879 -1.89089 0
M  V30 25918 H 2390.54 -3.97231 -0.212681 0
M  V30 25919 H 2387.28 -6.35524 1.60592 0
M  V30 25920 H 2386.8 -5.9976 -0.0689139 0
M  V30 25921 H 2388.48 -6.463 0.300813 0
M  V30 25922 N 2388.61 -0.125265 -1.57101 0
M  V30 25923 C 2389.86 0.532 -1.95698 0
M  V30 25924 C 2390.19 1.65928 -1.00903 0
M  V30 25925 O 2389.46 1.94442 -0.0473812 0
M  V30 25926 C 2389.75 1.05878 -3.44183 0
M  V30 25927 C 2389.6 -0.0655182 -4.49752 0
M  V30 25928 C 2390.92 1.94764 -3.94658 0
M  V30 25929 H 2388.04 0.191913 -0.711575 0
M  V30 25930 H 2390.68 -0.202094 -1.88922 0
M  V30 25931 H 2388.83 1.68436 -3.50088 0
M  V30 25932 H 2390.5 -0.701063 -4.55942 0
M  V30 25933 H 2388.74 -0.727784 -4.27651 0
M  V30 25934 H 2389.42 0.344409 -5.50925 0
M  V30 25935 H 2391.89 1.42067 -3.91096 0
M  V30 25936 H 2390.77 2.28538 -4.99061 0
M  V30 25937 H 2391.03 2.8765 -3.35723 0
M  V30 25938 N 2390.09 1.56899 0.148518 0
M  V30 25939 C 2391.34 1.82904 0.859684 0
M  V30 25940 C 2391.66 0.705912 1.81774 0
M  V30 25941 O 2390.93 -0.272552 1.93995 0
M  V30 25942 H 2389.51 0.674771 0.320457 0
M  V30 25943 H 2392.17 1.94376 0.142884 0
M  V30 25944 H 2391.26 2.7778 1.42285 0
M  V30 25945 N 2391.57 -0.417818 1.51961 0
M  V30 25946 C 2392.5 -1.52913 1.6939 0
M  V30 25947 C 2393.48 -1.5332 0.541446 0
M  V30 25948 O 2394.66 -1.72158 0.767726 0
M  V30 25949 C 2391.79 -2.91464 1.7253 0
M  V30 25950 C 2390.83 -3.09003 2.93972 0
M  V30 25951 S 2391.67 -2.83234 4.54466 0
M  V30 25952 C 2392.82 -4.2403 4.6038 0
M  V30 25953 H 2393.06 -1.37899 2.63384 0
M  V30 25954 H 2390.59 -0.60882 1.4189 0
M  V30 25955 H 2392.55 -3.71317 1.75025 0
M  V30 25956 H 2391.21 -3.03826 0.796787 0
M  V30 25957 H 2390.4 -4.10348 2.92627 0
M  V30 25958 H 2390 -2.37002 2.8932 0
M  V30 25959 H 2392.29 -5.17536 4.37222 0
M  V30 25960 H 2393.24 -4.30402 5.62281 0
M  V30 25961 H 2393.65 -4.08596 3.89499 0
M  V30 25962 N 2393.04 -1.42436 -0.674508 0
M  V30 25963 C 2394.29 -1.42922 -1.43456 0
M  V30 25964 C 2394.62 -0.0457653 -1.94446 0
M  V30 25965 O 2393.87 0.9459 -1.71322 0
M  V30 25966 C 2394.17 -2.40074 -2.64763 0
M  V30 25967 C 2393.84 -3.86447 -2.32313 0
M  V30 25968 C 2392.5 -4.26318 -2.23174 0
M  V30 25969 C 2394.85 -4.78776 -2.05968 0
M  V30 25970 C 2392.18 -5.56497 -1.85817 0
M  V30 25971 C 2394.53 -6.09298 -1.70114 0
M  V30 25972 C 2393.2 -6.48167 -1.59486 0
M  V30 25973 H 2392.47 -0.522987 -0.524943 0
M  V30 25974 H 2395.11 -1.75379 -0.769066 0
M  V30 25975 H 2393.42 -2.00945 -3.36346 0
M  V30 25976 H 2395.12 -2.37713 -3.22945 0
M  V30 25977 H 2391.71 -3.54881 -2.40328 0
M  V30 25978 H 2395.89 -4.48761 -2.11961 0
M  V30 25979 H 2391.15 -5.85473 -1.76157 0
M  V30 25980 H 2395.32 -6.80327 -1.48755 0
M  V30 25981 H 2392.95 -7.48948 -1.30309 0
M  V30 25982 N 2394.52 0.910841 -1.28614 0
M  V30 25983 C 2395.45 2.0303 -1.15329 0
M  V30 25984 C 2396.43 1.70026 -0.0503222 0
M  V30 25985 O 2397.62 1.92859 -0.22783 0
M  V30 25986 C 2394.75 3.37544 -0.817403 0
M  V30 25987 C 2393.7 3.84721 -1.87547 0
M  V30 25988 C 2393.03 5.16232 -1.39314 0
M  V30 25989 C 2394.33 4.06261 -3.28251 0
M  V30 25990 H 2396.02 2.14402 -2.08979 0
M  V30 25991 H 2393.57 1.03019 -1.00614 0
M  V30 25992 H 2395.52 4.15355 -0.711224 0
M  V30 25993 H 2394.24 3.26233 0.154789 0
M  V30 25994 H 2392.9 3.09117 -1.97084 0
M  V30 25995 H 2392.55 5.01327 -0.409934 0
M  V30 25996 H 2392.25 5.48768 -2.10066 0
M  V30 25997 H 2393.78 5.96595 -1.30024 0
M  V30 25998 H 2395.19 4.74588 -3.21619 0
M  V30 25999 H 2393.59 4.50133 -3.96863 0
M  V30 26000 H 2394.66 3.10973 -3.72054 0
M  V30 26001 N 2396 1.10909 1.11969 0
M  V30 26002 C 2396.96 0.765745 2.1603 0
M  V30 26003 C 2397.96 -0.212207 1.59394 0
M  V30 26004 O 2399.15 0.0115747 1.74196 0
M  V30 26005 C 2396.29 0.135113 3.40632 0
M  V30 26006 H 2397.48 1.68753 2.47916 0
M  V30 26007 H 2395.03 0.910249 1.2706 0
M  V30 26008 H 2395.77 -0.797162 3.1435 0
M  V30 26009 H 2395.55 0.839004 3.83018 0
M  V30 26010 H 2397.04 -0.0891735 4.17505 0
M  V30 26011 N 2397.48 -1.29474 0.898573 0
M  V30 26012 C 2398.39 -2.31502 0.380014 0
M  V30 26013 C 2399.4 -1.65901 -0.524666 0
M  V30 26014 O 2400.58 -1.97088 -0.414517 0
M  V30 26015 C 2397.65 -3.44555 -0.385078 0
M  V30 26016 C 2396.71 -4.25749 0.550989 0
M  V30 26017 C 2395.94 -5.33404 -0.177685 0
M  V30 26018 O 2396.16 -5.52907 -1.40179 0
M  V30 26019 O 2395.1 -5.99989 0.479212 0
M  V30 26020 H 2398.92 -2.77835 1.22644 0
M  V30 26021 H 2396.51 -1.3389 0.662858 0
M  V30 26022 H 2398.39 -4.13389 -0.817769 0
M  V30 26023 H 2397.06 -3.00332 -1.20758 0
M  V30 26024 H 2395.97 -3.59562 1.03277 0
M  V30 26025 H 2397.3 -4.73612 1.33987 0
M  V30 26026 N 2398.96 -0.660936 -1.43071 0
M  V30 26027 C 2399.89 0.0122419 -2.33497 0
M  V30 26028 C 2400.87 0.803899 -1.49905 0
M  V30 26029 O 2402.05 0.763833 -1.78548 0
M  V30 26030 C 2399.18 0.973936 -3.33364 0
M  V30 26031 C 2398.14 0.291852 -4.27004 0
M  V30 26032 C 2397.46 1.36553 -5.16969 0
M  V30 26033 C 2398.76 -0.820552 -5.15814 0
M  V30 26034 H 2400.46 -0.742924 -2.90036 0
M  V30 26035 H 2398 -0.358713 -1.39461 0
M  V30 26036 H 2399.96 1.45385 -3.95527 0
M  V30 26037 H 2398.68 1.76036 -2.75098 0
M  V30 26038 H 2397.34 -0.167687 -3.66216 0
M  V30 26039 H 2396.99 2.14358 -4.55038 0
M  V30 26040 H 2396.69 0.914352 -5.80442 0
M  V30 26041 H 2398.21 1.84665 -5.82006 0
M  V30 26042 H 2399.62 -0.422467 -5.71741 0
M  V30 26043 H 2398.02 -1.19667 -5.88048 0
M  V30 26044 H 2399.09 -1.67526 -4.55042 0
M  V30 26045 N 2400.43 1.52351 -0.403352 0
M  V30 26046 C 2401.68 2.00934 0.175632 0
M  V30 26047 C 2402 1.29359 1.46716 0
M  V30 26048 O 2403.2 1.68727 2.12705 0
M  V30 26049 C 2401.66 3.58059 0.363549 0
M  V30 26050 C 2401.27 4.38545 -0.915549 0
M  V30 26051 C 2403.01 4.1489 0.898137 0
M  V30 26052 C 2400.92 5.873 -0.695139 0
M  V30 26053 H 2399.85 0.750798 0.0694102 0
M  V30 26054 H 2402.5 1.75742 -0.52791 0
M  V30 26055 H 2400.88 3.79557 1.12928 0
M  V30 26056 H 2402.05 4.28809 -1.68698 0
M  V30 26057 H 2400.37 3.93004 -1.37612 0
M  V30 26058 H 2402.97 5.237 1.07898 0
M  V30 26059 H 2403.31 3.71876 1.8712 0
M  V30 26060 H 2403.84 3.97338 0.191612 0
M  V30 26061 H 2400.58 6.34663 -1.6396 0
M  V30 26062 H 2400.1 5.99789 0.0371062 0
M  V30 26063 H 2401.78 6.46132 -0.335084 0
M  V30 26064 N 2401.91 0.133594 1.57033 0
M  V30 26065 C 2402.82 -0.824525 2.19633 0
M  V30 26066 C 2403.84 -1.2818 1.17668 0
M  V30 26067 O 2405.01 -1.34177 1.50195 0
M  V30 26068 C 2402.08 -2.05132 2.79502 0
M  V30 26069 C 2401.14 -1.64457 3.96551 0
M  V30 26070 C 2400.37 -2.81289 4.53555 0
M  V30 26071 O 2400.6 -3.97129 4.09445 0
M  V30 26072 O 2399.53 -2.57532 5.44023 0
M  V30 26073 H 2403.36 -0.321712 3.01991 0
M  V30 26074 H 2400.94 -0.0927627 1.49112 0
M  V30 26075 H 2402.82 -2.76954 3.17607 0
M  V30 26076 H 2401.5 -2.54392 2.00166 0
M  V30 26077 H 2400.41 -0.896984 3.63187 0
M  V30 26078 H 2401.74 -1.19926 4.77366 0
M  V30 26079 N 2403.39 -1.56975 -0.140195 0
M  V30 26080 C 2404.34 -1.98776 -1.17289 0
M  V30 26081 C 2405.31 -0.856433 -1.42318 0
M  V30 26082 O 2406.49 -1.11903 -1.54539 0
M  V30 26083 C 2403.63 -2.37927 -2.49969 0
M  V30 26084 C 2402.75 -3.64382 -2.32056 0
M  V30 26085 C 2401.88 -3.92606 -3.57818 0
M  V30 26086 C 2400.92 -5.12309 -3.34971 0
M  V30 26087 N 2400.06 -5.3651 -4.52882 0
M  V30 26088 H 2404.9 -2.86797 -0.809422 0
M  V30 26089 H 2402.43 -1.41885 -0.388212 0
M  V30 26090 H 2404.39 -2.58657 -3.27341 0
M  V30 26091 H 2403.02 -1.52977 -2.8425 0
M  V30 26092 H 2402.07 -3.51389 -1.45704 0
M  V30 26093 H 2403.39 -4.5191 -2.11137 0
M  V30 26094 H 2402.54 -4.13871 -4.43617 0
M  V30 26095 H 2401.28 -3.03513 -3.81748 0
M  V30 26096 H 2400.28 -4.90911 -2.47561 0
M  V30 26097 H 2401.51 -6.02961 -3.12433 0
M  V30 26098 H 2399.45 -4.50372 -4.76971 0
M  V30 26099 H 2399.37 -6.1832 -4.3499 0
M  V30 26100 H 2400.64 -5.62278 -5.39874 0
M  V30 26101 N 2404.87 0.409753 -1.5218 0
M  V30 26102 C 2406.1 1.17679 -1.69809 0
M  V30 26103 C 2406.51 1.84772 -0.406941 0
M  V30 26104 O 2405.85 1.72675 0.626833 0
M  V30 26105 C 2405.91 2.28285 -2.77716 0
M  V30 26106 C 2405.58 1.81333 -4.19485 0
M  V30 26107 C 2406.57 1.30145 -5.03347 0
M  V30 26108 C 2404.26 1.88186 -4.65716 0
M  V30 26109 C 2406.25 0.864305 -6.31513 0
M  V30 26110 C 2403.94 1.44083 -5.93871 0
M  V30 26111 C 2404.94 0.932904 -6.76599 0
M  V30 26112 O 2404.62 0.498239 -8.02355 0
M  V30 26113 H 2404.36 0.359664 -0.572379 0
M  V30 26114 H 2406.91 0.488276 -1.99512 0
M  V30 26115 H 2405.14 3.00498 -2.43388 0
M  V30 26116 H 2406.83 2.90046 -2.83951 0
M  V30 26117 H 2407.6 1.24224 -4.68821 0
M  V30 26118 H 2403.47 2.26664 -4.01428 0
M  V30 26119 H 2407.02 0.467164 -6.96034 0
M  V30 26120 H 2402.92 1.49683 -6.27905 0
M  V30 26121 H 2403.68 0.621604 -8.16136 0
M  V30 26122 N 2406.35 1.42792 0.666944 0
M  V30 26123 C 2407.59 1.4368 1.42696 0
M  V30 26124 C 2407.92 0.0560766 1.94419 0
M  V30 26125 O 2407.18 -0.936801 1.71821 0
M  V30 26126 C 2407.48 2.41474 2.63486 0
M  V30 26127 C 2407.14 3.87674 2.3026 0
M  V30 26128 C 2405.8 4.27495 2.2091 0
M  V30 26129 C 2408.16 4.79862 2.03426 0
M  V30 26130 C 2405.48 5.57475 1.82863 0
M  V30 26131 C 2407.84 6.10191 1.66881 0
M  V30 26132 C 2406.5 6.49004 1.56047 0
M  V30 26133 H 2405.77 0.525764 0.522162 0
M  V30 26134 H 2408.42 1.75784 0.759754 0
M  V30 26135 H 2406.72 2.02726 3.35275 0
M  V30 26136 H 2408.42 2.39422 3.2168 0
M  V30 26137 H 2405.01 3.5615 2.38442 0
M  V30 26138 H 2409.19 4.49878 2.09578 0
M  V30 26139 H 2404.45 5.86399 1.7305 0
M  V30 26140 H 2408.62 6.81106 1.45145 0
M  V30 26141 H 2406.25 7.49629 1.26335 0
M  V30 26142 N 2407.82 -0.904008 1.29095 0
M  V30 26143 C 2409.07 -1.65654 1.16989 0
M  V30 26144 C 2409.4 -1.92187 -0.278891 0
M  V30 26145 O 2408.68 -1.52922 -1.20188 0
M  V30 26146 C 2408.96 -3.00836 1.97913 0
M  V30 26147 C 2408.81 -2.81396 3.50908 0
M  V30 26148 C 2410.13 -4.0151 1.80215 0
M  V30 26149 H 2407.25 -0.601157 0.426356 0
M  V30 26150 H 2409.89 -1.04744 1.5852 0
M  V30 26151 H 2408.04 -3.52826 1.62622 0
M  V30 26152 H 2409.72 -2.36341 3.96157 0
M  V30 26153 H 2407.96 -2.16263 3.76049 0
M  V30 26154 H 2408.63 -3.77436 4.02798 0
M  V30 26155 H 2411.11 -3.58615 2.11031 0
M  V30 26156 H 2409.98 -4.94042 2.39193 0
M  V30 26157 H 2410.24 -4.35585 0.756196 0
M  V30 26158 N 2409.3 -1.11501 -1.11379 0
M  V30 26159 C 2410.53 -0.887052 -1.87473 0
M  V30 26160 C 2410.95 0.557764 -1.7964 0
M  V30 26161 O 2410.31 1.39394 -1.15927 0
M  V30 26162 C 2410.36 -1.35409 -3.34211 0
M  V30 26163 O 2409.46 -0.526218 -4.09029 0
M  V30 26164 H 2408.8 -0.319473 -0.582094 0
M  V30 26165 H 2411.33 -1.48464 -1.40782 0
M  V30 26166 H 2411.34 -1.34888 -3.85057 0
M  V30 26167 H 2410.02 -2.40618 -3.39228 0
M  V30 26168 H 2408.6 -0.597587 -3.68081 0
M  V30 26169 N 2410.78 1.28995 -0.905426 0
M  V30 26170 C 2412.19 1.77397 -0.581984 0
M  V30 26171 C 2412.54 1.7421 0.902521 0
M  V30 26172 O 2411.67 1.33157 1.70582 0
M  V30 26173 C 2412.26 3.22129 -1.04967 0
M  V30 26174 C 2410.82 3.68287 -0.777294 0
M  V30 26175 C 2409.97 2.48965 -1.22113 0
M  V30 26176 H 2412.92 1.15576 -1.08756 0
M  V30 26177 H 2412.94 3.78522 -0.387453 0
M  V30 26178 H 2412.45 3.24417 -2.13014 0
M  V30 26179 H 2410.55 3.71467 0.290318 0
M  V30 26180 H 2410.67 4.58819 -1.3792 0
M  V30 26181 H 2409.03 2.46528 -0.640014 0
M  V30 26182 H 2409.81 2.53978 -2.30977 0
M  V30 26183 N 2412.26 0.668514 1.42719 0
M  V30 26184 C 2413.49 0.196384 2.05966 0
M  V30 26185 C 2413.9 -1.144 1.50193 0
M  V30 26186 O 2413.26 -1.70939 0.639238 0
M  V30 26187 C 2413.31 0.115879 3.61314 0
M  V30 26188 O 2413.03 1.40329 4.15017 0
M  V30 26189 C 2414.53 -0.380501 4.41664 0
M  V30 26190 H 2411.75 0.0969946 0.663953 0
M  V30 26191 H 2414.3 0.913478 1.82964 0
M  V30 26192 H 2412.45 -0.551864 3.83449 0
M  V30 26193 H 2412.87 1.27252 5.08829 0
M  V30 26194 H 2414.34 -0.385751 5.5065 0
M  V30 26195 H 2414.82 -1.41463 4.15794 0
M  V30 26196 H 2415.42 0.255284 4.24533 0
M  V30 26197 N 2413.74 -1.52135 0.411426 0
M  V30 26198 C 2414.67 -2.29979 -0.403974 0
M  V30 26199 C 2415.65 -1.34286 -1.0441 0
M  V30 26200 O 2416.83 -1.63194 -1.05268 0
M  V30 26201 C 2413.96 -3.12288 -1.51965 0
M  V30 26202 C 2412.92 -4.16048 -1.0044 0
M  V30 26203 C 2412.24 -4.86716 -2.21385 0
M  V30 26204 C 2413.54 -5.22269 -0.0568418 0
M  V30 26205 H 2415.24 -2.98391 0.245581 0
M  V30 26206 H 2412.78 -1.43503 0.11955 0
M  V30 26207 H 2414.74 -3.65514 -2.09708 0
M  V30 26208 H 2413.46 -2.41649 -2.19711 0
M  V30 26209 H 2412.12 -3.63836 -0.449357 0
M  V30 26210 H 2411.77 -4.12605 -2.87692 0
M  V30 26211 H 2411.47 -5.56861 -1.87561 0
M  V30 26212 H 2412.99 -5.42755 -2.7973 0
M  V30 26213 H 2414.41 -5.70721 -0.54315 0
M  V30 26214 H 2412.8 -5.99791 0.1927 0
M  V30 26215 H 2413.87 -4.76704 0.887747 0
M  V30 26216 N 2415.22 -0.14192 -1.5696 0
M  V30 26217 C 2416.46 0.510458 -1.95961 0
M  V30 26218 C 2416.79 1.65206 -1.02651 0
M  V30 26219 O 2416.05 1.95623 -0.0547291 0
M  V30 26220 C 2416.34 1.06243 -3.41244 0
M  V30 26221 C 2416.01 0.0397998 -4.50882 0
M  V30 26222 C 2414.67 -0.241332 -4.80594 0
M  V30 26223 C 2417.02 -0.655871 -5.17057 0
M  V30 26224 C 2414.35 -1.22403 -5.7379 0
M  V30 26225 C 2416.7 -1.62735 -6.1131 0
M  V30 26226 C 2415.37 -1.91623 -6.39403 0
M  V30 26227 H 2414.64 0.18679 -0.717071 0
M  V30 26228 H 2417.29 -0.227677 -1.90142 0
M  V30 26229 H 2415.59 1.87779 -3.43869 0
M  V30 26230 H 2417.29 1.57569 -3.68745 0
M  V30 26231 H 2413.88 0.269099 -4.27754 0
M  V30 26232 H 2418.06 -0.451866 -4.94239 0
M  V30 26233 H 2413.32 -1.45434 -5.93851 0
M  V30 26234 H 2417.49 -2.17195 -6.61664 0
M  V30 26235 H 2415.12 -2.67922 -7.11422 0
M  V30 26236 N 2416.69 1.57047 0.131868 0
M  V30 26237 C 2418.11 1.52052 0.485005 0
M  V30 26238 C 2418.31 0.852842 1.82562 0
M  V30 26239 O 2417.37 0.429738 2.48816 0
M  V30 26240 C 2418.68 2.96822 0.481357 0
M  V30 26241 C 2420.23 3.07843 0.565814 0
M  V30 26242 C 2420.7 4.54149 0.592682 0
M  V30 26243 N 2422.19 4.58553 0.654484 0
M  V30 26244 C 2422.93 5.69154 0.696508 0
M  V30 26245 N 2422.42 6.89285 0.696957 0
M  V30 26246 N 2424.22 5.57227 0.738541 0
M  V30 26247 H 2416.37 1.98842 -0.746699 0
M  V30 26248 H 2418.63 0.907535 -0.274015 0
M  V30 26249 H 2418.34 3.4899 -0.435792 0
M  V30 26250 H 2418.21 3.53579 1.31384 0
M  V30 26251 H 2420.6 2.55686 1.47338 0
M  V30 26252 H 2420.68 2.54104 -0.294105 0
M  V30 26253 H 2420.32 5.06948 -0.31079 0
M  V30 26254 H 2420.25 5.05687 1.4693 0
M  V30 26255 H 2422.74 3.72077 0.660822 0
M  V30 26256 H 2423.06 7.69332 0.731291 0
M  V30 26257 H 2421.4 6.91815 0.664588 0
M  V30 26258 H 2424.59 4.62286 0.735464 0
M  V30 26259 H 2424.77 6.43435 0.767825 0
M  V30 26260 N 2418.17 -0.401677 1.52395 0
M  V30 26261 C 2419.42 -1.14963 1.67067 0
M  V30 26262 C 2419.75 -1.89971 0.403086 0
M  V30 26263 O 2419.03 -1.85055 -0.598741 0
M  V30 26264 C 2419.31 -2.1381 2.89754 0
M  V30 26265 C 2419.16 -1.4265 4.2658 0
M  V30 26266 C 2420.48 -3.14391 3.07971 0
M  V30 26267 H 2417.6 -0.416576 0.607975 0
M  V30 26268 H 2420.24 -0.434478 1.84966 0
M  V30 26269 H 2418.39 -2.74798 2.74624 0
M  V30 26270 H 2420.06 -0.847249 4.53453 0
M  V30 26271 H 2418.31 -0.728415 4.27641 0
M  V30 26272 H 2418.98 -2.14814 5.08487 0
M  V30 26273 H 2421.45 -2.63485 3.22048 0
M  V30 26274 H 2420.33 -3.80812 3.95315 0
M  V30 26275 H 2420.59 -3.82542 2.21618 0
M  V30 26276 N 2419.65 -1.43144 -0.659362 0
M  V30 26277 C 2420.9 -1.43723 -1.41515 0
M  V30 26278 C 2421.21 -0.062852 -1.95499 0
M  V30 26279 O 2422.42 0.0539206 -2.71446 0
M  V30 26280 C 2420.87 -2.5289 -2.56076 0
M  V30 26281 C 2420.48 -3.96406 -2.08726 0
M  V30 26282 C 2422.23 -2.62655 -3.33485 0
M  V30 26283 C 2420.13 -4.9705 -3.20461 0
M  V30 26284 H 2419.06 -0.534618 -0.531696 0
M  V30 26285 H 2421.71 -1.6911 -0.712314 0
M  V30 26286 H 2420.1 -2.20693 -3.28801 0
M  V30 26287 H 2421.27 -4.38033 -1.43052 0
M  V30 26288 H 2419.58 -3.9063 -1.44212 0
M  V30 26289 H 2422.18 -3.35025 -4.16729 0
M  V30 26290 H 2422.52 -1.6752 -3.81107 0
M  V30 26291 H 2423.06 -2.94123 -2.67837 0
M  V30 26292 H 2419.8 -5.93717 -2.77814 0
M  V30 26293 H 2419.32 -4.60041 -3.84866 0
M  V30 26294 H 2421 -5.19474 -3.85689 0
M  V30 26295 N 2421.13 0.897149 -1.29572 0
M  V30 26296 C 2422.54 1.17839 -1.07639 0
M  V30 26297 C 2422.74 2.00776 0.170678 0
M  V30 26298 O 2421.8 2.37122 0.867727 0
M  V30 26299 C 2423.11 1.89686 -2.33323 0
M  V30 26300 C 2424.66 2.02501 -2.38668 0
M  V30 26301 C 2425.14 2.77759 -3.64162 0
M  V30 26302 N 2426.63 2.85312 -3.64899 0
M  V30 26303 C 2427.36 3.44086 -4.58685 0
M  V30 26304 N 2426.86 4.04007 -5.62806 0
M  V30 26305 N 2428.65 3.41785 -4.46251 0
M  V30 26306 H 2420.8 0.343846 -2.09598 0
M  V30 26307 H 2423.06 0.214832 -0.923337 0
M  V30 26308 H 2422.77 1.36181 -3.24265 0
M  V30 26309 H 2422.64 2.90145 -2.4103 0
M  V30 26310 H 2425.03 2.5518 -1.48213 0
M  V30 26311 H 2425.11 1.01166 -2.34945 0
M  V30 26312 H 2424.76 2.25755 -4.54969 0
M  V30 26313 H 2424.69 3.79444 -3.65144 0
M  V30 26314 H 2427.18 2.42756 -2.89617 0
M  V30 26315 H 2427.49 4.46884 -6.30488 0
M  V30 26316 H 2425.84 4.02462 -5.66612 0
M  V30 26317 H 2429.03 2.94193 -3.64099 0
M  V30 26318 H 2429.2 3.87295 -5.19525 0
M  V30 26319 N 2422.61 1.1209 1.10786 0
M  V30 26320 C 2423.54 0.807793 2.19082 0
M  V30 26321 C 2424.52 -0.226829 1.68581 0
M  V30 26322 O 2425.7 -0.0888134 1.93997 0
M  V30 26323 C 2422.83 0.257637 3.46343 0
M  V30 26324 C 2421.79 1.22491 4.10098 0
M  V30 26325 C 2421.11 0.535145 5.32015 0
M  V30 26326 C 2422.41 2.57819 4.54232 0
M  V30 26327 H 2424.11 1.71333 2.45531 0
M  V30 26328 H 2421.65 0.825225 1.18009 0
M  V30 26329 H 2423.6 0.0263419 4.21392 0
M  V30 26330 H 2422.33 -0.683222 3.19374 0
M  V30 26331 H 2420.99 1.44195 3.37051 0
M  V30 26332 H 2420.64 -0.410739 5.0132 0
M  V30 26333 H 2420.34 1.18034 5.75623 0
M  V30 26334 H 2421.86 0.312802 6.09798 0
M  V30 26335 H 2423.27 2.40164 5.20571 0
M  V30 26336 H 2421.67 3.18384 5.08676 0
M  V30 26337 H 2422.74 3.16534 3.67334 0
M  V30 26338 N 2424.08 -1.28513 0.912254 0
M  V30 26339 C 2425.05 -2.25607 0.404263 0
M  V30 26340 C 2426.05 -1.53821 -0.468575 0
M  V30 26341 O 2427.24 -1.72066 -0.271843 0
M  V30 26342 C 2424.37 -3.38295 -0.420594 0
M  V30 26343 H 2425.56 -2.72058 1.26193 0
M  V30 26344 H 2423.11 -1.4017 0.691519 0
M  V30 26345 H 2423.85 -2.97203 -1.29772 0
M  V30 26346 H 2423.63 -3.91564 0.205004 0
M  V30 26347 H 2425.12 -4.10498 -0.766899 0
M  V30 26348 N 2425.56 -0.676073 -1.42362 0
M  V30 26349 C 2426.98 -0.345745 -1.5581 0
M  V30 26350 C 2427.18 1.14877 -1.65546 0
M  V30 26351 O 2426.23 1.93422 -1.62309 0
M  V30 26352 C 2427.55 -1.07718 -2.80744 0
M  V30 26353 C 2429.1 -1.05963 -2.94518 0
M  V30 26354 C 2429.57 -1.77241 -4.22315 0
M  V30 26355 N 2431.06 -1.74115 -4.2923 0
M  V30 26356 C 2431.8 -2.26122 -5.26931 0
M  V30 26357 N 2431.29 -2.86516 -6.30777 0
M  V30 26358 N 2433.09 -2.16489 -5.18738 0
M  V30 26359 H 2425.24 -1.64563 -1.34286 0
M  V30 26360 H 2427.5 -0.693361 -0.646494 0
M  V30 26361 H 2427.21 -2.13226 -2.79692 0
M  V30 26362 H 2427.08 -0.643225 -3.71675 0
M  V30 26363 H 2429.47 -0.0128774 -2.95097 0
M  V30 26364 H 2429.55 -1.53247 -2.04814 0
M  V30 26365 H 2429.19 -2.81885 -4.22497 0
M  V30 26366 H 2429.12 -1.27405 -5.10955 0
M  V30 26367 H 2431.61 -1.30065 -3.54812 0
M  V30 26368 H 2431.93 -3.23817 -7.01685 0
M  V30 26369 H 2430.27 -2.90586 -6.31335 0
M  V30 26370 H 2433.46 -1.68994 -4.3653 0
M  V30 26371 H 2433.63 -2.57326 -5.94716 0
M  V30 26372 N 2427.04 1.51915 -0.419488 0
M  V30 26373 C 2428.29 2.01109 0.154311 0
M  V30 26374 C 2428.6 1.30908 1.45336 0
M  V30 26375 O 2429.81 1.70974 2.10903 0
M  V30 26376 C 2428.26 3.58425 0.325552 0
M  V30 26377 C 2427.87 4.37549 -0.962011 0
M  V30 26378 C 2429.62 4.15819 0.854082 0
M  V30 26379 C 2427.52 5.8653 -0.757391 0
M  V30 26380 H 2426.45 0.751492 0.0614431 0
M  V30 26381 H 2429.1 1.75172 -0.54652 0
M  V30 26382 H 2427.49 3.80733 1.08896 0
M  V30 26383 H 2428.66 4.26996 -1.73237 0
M  V30 26384 H 2426.98 3.91522 -1.41773 0
M  V30 26385 H 2429.57 5.24815 1.02337 0
M  V30 26386 H 2429.92 3.7384 1.83165 0
M  V30 26387 H 2430.45 3.97519 0.149458 0
M  V30 26388 H 2427.19 6.32889 -1.70682 0
M  V30 26389 H 2426.71 5.99794 -0.0265115 0
M  V30 26390 H 2428.39 6.4574 -0.403596 0
M  V30 26391 N 2428.52 0.150242 1.56882 0
M  V30 26392 C 2429.77 -0.49907 1.95841 0
M  V30 26393 C 2430.09 -1.65186 1.03626 0
M  V30 26394 O 2429.36 -1.95652 0.0984428 0
M  V30 26395 H 2427.94 -0.18736 0.723122 0
M  V30 26396 H 2430.6 0.2265 1.93579 0
M  V30 26397 H 2429.7 -0.873069 2.9964 0
M  V30 26398 N 2430 -1.57115 -0.123538 0
M  V30 26399 C 2431.41 -1.52307 -0.476934 0
M  V30 26400 C 2431.61 -0.862512 -1.82107 0
M  V30 26401 O 2430.67 -0.442927 -2.48585 0
M  V30 26402 C 2431.98 -2.97073 -0.465609 0
M  V30 26403 C 2433.53 -3.08139 -0.54948 0
M  V30 26404 C 2434 -4.54457 -0.568589 0
M  V30 26405 N 2435.5 -4.58894 -0.630156 0
M  V30 26406 C 2436.23 -5.69515 -0.666315 0
M  V30 26407 N 2435.73 -6.89645 -0.660393 0
M  V30 26408 N 2437.52 -5.57611 -0.708979 0
M  V30 26409 H 2429.67 -1.98443 0.757233 0
M  V30 26410 H 2431.93 -0.906069 0.278824 0
M  V30 26411 H 2431.64 -3.48754 0.454294 0
M  V30 26412 H 2431.51 -3.54271 -1.29507 0
M  V30 26413 H 2433.9 -2.56464 -1.4598 0
M  V30 26414 H 2433.98 -2.53944 0.307577 0
M  V30 26415 H 2433.63 -5.06776 0.33767 0
M  V30 26416 H 2433.56 -5.06459 -1.44247 0
M  V30 26417 H 2436.05 -3.72423 -0.64108 0
M  V30 26418 H 2436.36 -7.69709 -0.690481 0
M  V30 26419 H 2434.7 -6.92158 -0.62789 0
M  V30 26420 H 2437.9 -4.6267 -0.710937 0
M  V30 26421 H 2438.07 -6.43833 -0.733691 0
M  V30 26422 N 2431.47 0.393589 -1.52606 0
M  V30 26423 C 2432.72 1.13624 -1.66651 0
M  V30 26424 C 2433.04 1.91246 -0.410397 0
M  V30 26425 O 2434.24 2.68059 -0.430901 0
M  V30 26426 C 2432.7 2.06886 -2.94493 0
M  V30 26427 C 2432.31 1.34707 -4.27268 0
M  V30 26428 C 2434.05 2.81314 -3.17904 0
M  V30 26429 C 2431.96 2.26708 -5.46221 0
M  V30 26430 H 2430.89 0.427861 -0.620847 0
M  V30 26431 H 2433.54 0.399396 -1.79101 0
M  V30 26432 H 2431.92 2.84186 -2.75779 0
M  V30 26433 H 2433.09 0.626634 -4.56519 0
M  V30 26434 H 2431.41 0.722571 -4.10083 0
M  V30 26435 H 2434.01 3.50321 -4.03955 0
M  V30 26436 H 2434.35 3.45135 -2.32783 0
M  V30 26437 H 2434.88 2.11107 -3.37162 0
M  V30 26438 H 2431.62 1.67509 -6.33736 0
M  V30 26439 H 2431.14 2.9668 -5.21288 0
M  V30 26440 H 2432.82 2.86893 -5.79915 0
M  V30 26441 N 2432.95 1.43492 0.651762 0
M  V30 26442 C 2433.88 1.51572 1.77618 0
M  V30 26443 C 2434.86 0.370282 1.66021 0
M  V30 26444 O 2436.05 0.587691 1.85094 0
M  V30 26445 C 2433.18 1.43971 3.16053 0
M  V30 26446 C 2432.13 2.5678 3.42415 0
M  V30 26447 C 2431.46 2.34232 4.80666 0
M  V30 26448 C 2432.76 3.99021 3.37016 0
M  V30 26449 H 2434.45 2.45684 1.71113 0
M  V30 26450 H 2432 1.18247 0.821804 0
M  V30 26451 H 2433.95 1.48228 3.9447 0
M  V30 26452 H 2432.68 0.463643 3.23292 0
M  V30 26453 H 2431.33 2.51878 2.6637 0
M  V30 26454 H 2430.98 1.34865 4.84583 0
M  V30 26455 H 2430.68 3.09852 4.99265 0
M  V30 26456 H 2432.21 2.40275 5.61338 0
M  V30 26457 H 2433.62 4.05402 4.05367 0
M  V30 26458 H 2432.02 4.74679 3.67151 0
M  V30 26459 H 2433.09 4.24054 2.35173 0
M  V30 26460 N 2434.43 -0.890264 1.30046 0
M  V30 26461 C 2435.85 -1.17266 1.08263 0
M  V30 26462 C 2436.05 -2.00864 -0.160028 0
M  V30 26463 O 2435.1 -2.37579 -0.855139 0
M  V30 26464 C 2436.42 -1.88446 2.34326 0
M  V30 26465 C 2437.96 -2.01232 2.39738 0
M  V30 26466 C 2438.44 -2.75824 3.6563 0
M  V30 26467 N 2439.93 -2.83373 3.66407 0
M  V30 26468 C 2440.66 -3.41649 4.60504 0
M  V30 26469 N 2440.16 -4.01016 5.6494 0
M  V30 26470 N 2441.95 -3.39413 4.48057 0
M  V30 26471 H 2434.1 -0.332726 2.09778 0
M  V30 26472 H 2436.37 -0.209932 0.924463 0
M  V30 26473 H 2436.07 -1.3446 3.24982 0
M  V30 26474 H 2435.95 -2.88863 2.42565 0
M  V30 26475 H 2438.33 -2.54391 1.49564 0
M  V30 26476 H 2438.42 -0.99919 2.35478 0
M  V30 26477 H 2438.06 -2.23339 4.5616 0
M  V30 26478 H 2437.99 -3.77502 3.67151 0
M  V30 26479 H 2440.48 -2.41217 2.909 0
M  V30 26480 H 2440.79 -4.43534 6.32849 0
M  V30 26481 H 2439.14 -3.99451 5.68739 0
M  V30 26482 H 2442.33 -2.92258 3.65654 0
M  V30 26483 H 2442.5 -3.84535 5.21572 0
M  V30 26484 N 2435.91 -1.12676 -1.1019 0
M  V30 26485 C 2436.84 -0.8194 -2.18651 0
M  V30 26486 C 2437.82 0.217886 -1.68699 0
M  V30 26487 O 2439 0.078524 -1.94041 0
M  V30 26488 C 2436.13 -0.276001 -3.46202 0
M  V30 26489 C 2435.09 -1.24664 -4.09442 0
M  V30 26490 C 2434.41 -0.563352 -5.31724 0
M  V30 26491 C 2435.71 -2.60225 -4.52858 0
M  V30 26492 H 2437.41 -1.72632 -2.44619 0
M  V30 26493 H 2434.95 -0.831472 -1.17569 0
M  V30 26494 H 2436.91 -0.048689 -4.21372 0
M  V30 26495 H 2435.63 0.666275 -3.19732 0
M  V30 26496 H 2434.29 -1.4598 -3.36282 0
M  V30 26497 H 2433.94 0.384147 -5.01531 0
M  V30 26498 H 2433.64 -1.21085 -5.74989 0
M  V30 26499 H 2435.16 -0.345137 -6.09624 0
M  V30 26500 H 2436.58 -2.42922 -5.1929 0
M  V30 26501 H 2434.97 -3.21077 -5.06981 0
M  V30 26502 H 2436.04 -3.18478 -3.6565 0
M  V30 26503 N 2437.39 1.28028 -0.919057 0
M  V30 26504 C 2438.64 1.94033 -0.550836 0
M  V30 26505 C 2438.95 1.73098 0.910847 0
M  V30 26506 O 2440.15 2.3337 1.38746 0
M  V30 26507 C 2438.61 3.47561 -0.93431 0
M  V30 26508 C 2438.22 3.77266 -2.41608 0
M  V30 26509 C 2439.96 4.19695 -0.636928 0
M  V30 26510 C 2437.87 5.24128 -2.73941 0
M  V30 26511 H 2436.8 0.726358 -0.202286 0
M  V30 26512 H 2439.45 1.45456 -1.1187 0
M  V30 26513 H 2437.83 3.94898 -0.295184 0
M  V30 26514 H 2439.01 3.40718 -3.10239 0
M  V30 26515 H 2437.32 3.18316 -2.68447 0
M  V30 26516 H 2439.92 5.27818 -0.855098 0
M  V30 26517 H 2440.26 4.1412 0.425502 0
M  V30 26518 H 2440.79 3.78151 -1.23476 0
M  V30 26519 H 2437.53 5.34785 -3.79058 0
M  V30 26520 H 2437.05 5.61854 -2.09952 0
M  V30 26521 H 2438.73 5.91921 -2.61225 0
M  V30 26522 N 2438.86 0.683613 1.42002 0
M  V30 26523 C 2439.81 0.0107714 2.30797 0
M  V30 26524 C 2440.78 -0.783662 1.46451 0
M  V30 26525 O 2441.97 -0.754125 1.75264 0
M  V30 26526 C 2439.11 -0.928247 3.32382 0
M  V30 26527 C 2438.22 -0.1267 4.31814 0
M  V30 26528 C 2437.35 -1.06227 5.2047 0
M  V30 26529 C 2436.39 -0.252927 6.11577 0
M  V30 26530 N 2435.53 -1.14167 6.92756 0
M  V30 26531 H 2440.37 0.773778 2.87779 0
M  V30 26532 H 2437.91 0.393307 1.41744 0
M  V30 26533 H 2439.87 -1.48659 3.89816 0
M  V30 26534 H 2438.5 -1.65778 2.76979 0
M  V30 26535 H 2437.55 0.548396 3.76426 0
M  V30 26536 H 2438.86 0.501279 4.96275 0
M  V30 26537 H 2438.01 -1.69025 5.8268 0
M  V30 26538 H 2436.75 -1.72412 4.56207 0
M  V30 26539 H 2435.76 0.388204 5.48428 0
M  V30 26540 H 2436.98 0.404958 6.77892 0
M  V30 26541 H 2434.93 -1.78976 6.31113 0
M  V30 26542 H 2434.85 -0.568979 7.53856 0
M  V30 26543 H 2436.11 -1.75684 7.59444 0
M  V30 26544 N 2440.34 -1.5169 0.427538 0
M  V30 26545 C 2441.59 -2.01601 -0.141912 0
M  V30 26546 C 2441.91 -1.31417 -1.44065 0
M  V30 26547 O 2441.18 -0.445692 -1.90763 0
M  V30 26548 H 2439.76 -0.74494 -0.0554337 0
M  V30 26549 H 2442.42 -1.8644 0.568001 0
M  V30 26550 H 2441.52 -3.10405 -0.324858 0
M  V30 26551 N 2441.82 -0.15856 -1.568 0
M  V30 26552 C 2442.78 0.762667 -2.16139 0
M  V30 26553 C 2443.78 1.16711 -1.10612 0
M  V30 26554 O 2444.97 1.08615 -1.36193 0
M  V30 26555 C 2442.11 2.03644 -2.7339 0
M  V30 26556 H 2443.3 0.246301 -2.98887 0
M  V30 26557 H 2440.85 0.090947 -1.56035 0
M  V30 26558 H 2441.59 2.5962 -1.9434 0
M  V30 26559 H 2441.37 1.75553 -3.50604 0
M  V30 26560 H 2442.86 2.69415 -3.1907 0
M  V30 26561 N 2443.3 1.57178 0.115204 0
M  V30 26562 C 2444.25 2.00617 1.14111 0
M  V30 26563 C 2445.22 0.878966 1.40938 0
M  V30 26564 O 2446.4 1.14347 1.52739 0
M  V30 26565 C 2443.54 2.41874 2.46152 0
M  V30 26566 C 2442.65 3.68028 2.26229 0
M  V30 26567 C 2441.79 3.98249 3.51527 0
M  V30 26568 C 2440.83 5.17574 3.26778 0
M  V30 26569 N 2439.97 5.43647 4.44289 0
M  V30 26570 H 2444.81 2.88048 0.763692 0
M  V30 26571 H 2442.34 1.42485 0.36559 0
M  V30 26572 H 2444.3 2.63832 3.23185 0
M  V30 26573 H 2442.93 1.5748 2.8178 0
M  V30 26574 H 2441.98 3.53663 1.40096 0
M  V30 26575 H 2443.29 4.55212 2.03921 0
M  V30 26576 H 2442.45 4.20876 4.36976 0
M  V30 26577 H 2441.19 3.09548 3.76871 0
M  V30 26578 H 2440.19 4.94787 2.3972 0
M  V30 26579 H 2441.42 6.07855 3.02801 0
M  V30 26580 H 2439.36 4.57903 4.69746 0
M  V30 26581 H 2439.28 6.25162 4.25098 0
M  V30 26582 H 2440.55 5.70795 5.3086 0
M  V30 26583 N 2444.78 -0.38549 1.52813 0
M  V30 26584 C 2446.03 -1.12794 1.67696 0
M  V30 26585 C 2446.35 -1.90398 0.421148 0
M  V30 26586 O 2445.62 -1.8759 -0.564518 0
M  V30 26587 H 2444.2 -0.419385 0.618163 0
M  V30 26588 H 2446.86 -0.436938 1.89939 0
M  V30 26589 H 2445.95 -1.82889 2.52899 0
M  V30 26590 N 2446.26 -1.43835 -0.644143 0
M  V30 26591 C 2447.5 -1.45216 -1.39983 0
M  V30 26592 C 2447.82 -0.0835837 -1.95421 0
M  V30 26593 O 2449.02 0.025127 -2.71488 0
M  V30 26594 C 2447.48 -2.55592 -2.53379 0
M  V30 26595 C 2447.09 -3.98597 -2.0451 0
M  V30 26596 C 2448.83 -2.66178 -3.30681 0
M  V30 26597 C 2446.74 -5.00421 -3.15171 0
M  V30 26598 H 2445.67 -0.540227 -0.525995 0
M  V30 26599 H 2448.32 -1.69856 -0.694337 0
M  V30 26600 H 2446.7 -2.24168 -3.26442 0
M  V30 26601 H 2447.88 -4.39526 -1.38398 0
M  V30 26602 H 2446.19 -3.92137 -1.40061 0
M  V30 26603 H 2448.79 -3.39426 -4.13152 0
M  V30 26604 H 2449.13 -1.71552 -3.79309 0
M  V30 26605 H 2449.66 -2.96947 -2.64703 0
M  V30 26606 H 2446.4 -5.9663 -2.71501 0
M  V30 26607 H 2445.92 -4.64097 -3.79965 0
M  V30 26608 H 2447.6 -5.23536 -3.80157 0
M  V30 26609 N 2447.73 0.883355 -1.30517 0
M  V30 26610 C 2449.15 1.1669 -1.08883 0
M  V30 26611 C 2449.35 2.00946 0.149373 0
M  V30 26612 O 2448.41 2.38029 0.842528 0
M  V30 26613 C 2449.72 1.872 -2.35322 0
M  V30 26614 C 2451.27 1.99958 -2.40802 0
M  V30 26615 C 2451.74 2.73881 -3.67088 0
M  V30 26616 N 2453.23 2.81425 -3.67905 0
M  V30 26617 C 2453.97 3.39202 -4.62309 0
M  V30 26618 N 2453.46 3.98015 -5.67059 0
M  V30 26619 N 2455.26 3.37032 -4.49851 0
M  V30 26620 H 2447.41 0.321596 -2.09951 0
M  V30 26621 H 2449.67 0.205026 -0.925564 0
M  V30 26622 H 2449.38 1.32734 -3.25691 0
M  V30 26623 H 2449.25 2.87573 -2.44094 0
M  V30 26624 H 2451.64 2.53594 -1.50911 0
M  V30 26625 H 2451.72 0.986688 -2.36004 0
M  V30 26626 H 2451.36 2.20917 -4.57338 0
M  V30 26627 H 2451.29 3.7555 -3.69148 0
M  V30 26628 H 2453.78 2.39671 -2.92175 0
M  V30 26629 H 2454.1 4.40172 -6.35192 0
M  V30 26630 H 2452.44 3.96429 -5.70849 0
M  V30 26631 H 2455.63 2.90315 -3.67199 0
M  V30 26632 H 2455.81 3.81763 -5.23604 0
M  V30 26633 N 2449.21 1.13259 1.09591 0
M  V30 26634 C 2450.44 0.91641 1.85498 0
M  V30 26635 C 2450.85 -0.534706 1.8107 0
M  V30 26636 O 2450.21 -1.37005 1.20564 0
M  V30 26637 C 2450.26 1.39394 3.33544 0
M  V30 26638 O 2449.98 2.78819 3.37923 0
M  V30 26639 C 2451.48 1.21595 4.26297 0
M  V30 26640 H 2448.7 0.326898 0.585985 0
M  V30 26641 H 2451.25 1.50473 1.38486 0
M  V30 26642 H 2449.4 0.848664 3.7799 0
M  V30 26643 H 2449.82 2.99978 4.30248 0
M  V30 26644 H 2451.29 1.59885 5.28338 0
M  V30 26645 H 2451.77 0.157453 4.38918 0
M  V30 26646 H 2452.37 1.74917 3.87665 0
M  V30 26647 N 2450.69 -1.27539 0.925834 0
M  V30 26648 C 2451.62 -2.29302 0.440788 0
M  V30 26649 C 2452.6 -1.62649 -0.497942 0
M  V30 26650 O 2453.79 -1.89971 -0.403093 0
M  V30 26651 C 2450.92 -3.45923 -0.308987 0
M  V30 26652 C 2449.87 -4.24558 0.541735 0
M  V30 26653 C 2449.2 -5.33636 -0.337097 0
M  V30 26654 C 2450.5 -4.9011 1.80524 0
M  V30 26655 H 2452.19 -2.70124 1.29126 0
M  V30 26656 H 2449.74 -1.29857 0.622346 0
M  V30 26657 H 2451.69 -4.16211 -0.659242 0
M  V30 26658 H 2450.41 -3.04013 -1.19347 0
M  V30 26659 H 2449.07 -3.56013 0.874672 0
M  V30 26660 H 2448.72 -4.87969 -1.22048 0
M  V30 26661 H 2448.42 -5.87155 0.228601 0
M  V30 26662 H 2449.94 -6.06768 -0.682965 0
M  V30 26663 H 2451.36 -5.52696 1.52317 0
M  V30 26664 H 2449.75 -5.53679 2.3143 0
M  V30 26665 H 2450.82 -4.13917 2.52588 0
M  V30 26666 N 2452.17 -0.691135 -1.41637 0
M  V30 26667 C 2453.1 -0.037289 -2.3347 0
M  V30 26668 C 2454.08 0.771921 -1.51576 0
M  V30 26669 O 2455.26 0.725788 -1.80128 0
M  V30 26670 C 2452.39 0.903005 -3.35355 0
M  V30 26671 C 2451.35 0.201213 -4.27527 0
M  V30 26672 C 2450.67 1.25556 -5.1975 0
M  V30 26673 C 2451.97 -0.92978 -5.13958 0
M  V30 26674 H 2453.67 -0.804278 -2.88395 0
M  V30 26675 H 2451.21 -0.388214 -1.38668 0
M  V30 26676 H 2453.17 1.36962 -3.98521 0
M  V30 26677 H 2451.89 1.70161 -2.7877 0
M  V30 26678 H 2450.55 -0.24533 -3.65778 0
M  V30 26679 H 2450.2 2.04658 -4.59483 0
M  V30 26680 H 2449.9 0.791026 -5.82251 0
M  V30 26681 H 2451.42 1.72278 -5.85792 0
M  V30 26682 H 2452.84 -0.543647 -5.70717 0
M  V30 26683 H 2451.23 -1.32113 -5.85377 0
M  V30 26684 H 2452.3 -1.77141 -4.51386 0
M  V30 26685 N 2453.65 1.51461 -0.435577 0
M  V30 26686 C 2454.89 2.02073 0.131479 0
M  V30 26687 C 2455.22 1.31983 1.42866 0
M  V30 26688 O 2454.48 0.422917 1.91076 0
M  V30 26689 C 2454.77 3.55162 0.399357 0
M  V30 26690 C 2454.44 4.43532 -0.811798 0
M  V30 26691 C 2453.1 4.67405 -1.14395 0
M  V30 26692 C 2455.45 4.95389 -1.61985 0
M  V30 26693 C 2452.78 5.4038 -2.28486 0
M  V30 26694 C 2455.13 5.69616 -2.75174 0
M  V30 26695 C 2453.8 5.91752 -3.08845 0
M  V30 26696 H 2453.07 0.739436 0.0481114 0
M  V30 26697 H 2455.72 1.82429 -0.582412 0
M  V30 26698 H 2454.02 3.73127 1.19512 0
M  V30 26699 H 2455.72 3.91855 0.851501 0
M  V30 26700 H 2452.31 4.25147 -0.542973 0
M  V30 26701 H 2456.49 4.76831 -1.37645 0
M  V30 26702 H 2451.75 5.55735 -2.5489 0
M  V30 26703 H 2455.92 6.08787 -3.38158 0
M  V30 26704 H 2453.55 6.48079 -3.97364 0
M  V30 26705 N 2455.12 0.166873 1.56714 0
M  V30 26706 C 2456.09 -0.751194 2.1654 0
M  V30 26707 C 2457.09 -1.16123 1.1123 0
M  V30 26708 O 2458.28 -1.07891 1.36767 0
M  V30 26709 C 2455.41 -2.02191 2.74466 0
M  V30 26710 H 2456.6 -0.230447 2.99013 0
M  V30 26711 H 2454.16 -0.0826708 1.56081 0
M  V30 26712 H 2454.89 -2.58586 1.95714 0
M  V30 26713 H 2454.68 -1.73691 3.5153 0
M  V30 26714 H 2456.17 -2.67719 3.20494 0
M  V30 26715 N 2456.6 -1.57237 -0.106866 0
M  V30 26716 C 2457.53 -2.04256 -1.13145 0
M  V30 26717 C 2458.51 -0.929249 -1.42474 0
M  V30 26718 O 2459.7 -1.19976 -1.52707 0
M  V30 26719 C 2456.83 -2.4571 -2.45446 0
M  V30 26720 C 2455.78 -3.60597 -2.30552 0
M  V30 26721 C 2455.11 -3.87989 -3.67925 0
M  V30 26722 C 2456.41 -4.919 -1.75588 0
M  V30 26723 H 2458.1 -2.90103 -0.740323 0
M  V30 26724 H 2455.65 -1.39564 -0.354672 0
M  V30 26725 H 2457.6 -2.7721 -3.17384 0
M  V30 26726 H 2456.33 -1.56848 -2.86472 0
M  V30 26727 H 2454.98 -3.29325 -1.61061 0
M  V30 26728 H 2454.63 -2.96314 -4.06457 0
M  V30 26729 H 2454.33 -4.65328 -3.58808 0
M  V30 26730 H 2455.86 -4.21953 -4.41348 0
M  V30 26731 H 2457.27 -5.21858 -2.37355 0
M  V30 26732 H 2455.67 -5.73322 -1.77262 0
M  V30 26733 H 2456.74 -4.79609 -0.714367 0
M  V30 26734 N 2458.08 0.377381 -1.53015 0
M  V30 26735 C 2459.01 1.48368 -1.73384 0
M  V30 26736 C 2459.99 1.51831 -0.581906 0
M  V30 26737 O 2461.18 1.70062 -0.8131 0
M  V30 26738 C 2458.3 2.86787 -1.80197 0
M  V30 26739 C 2457.35 3.011 -3.02061 0
M  V30 26740 S 2458.18 2.71085 -4.61815 0
M  V30 26741 C 2459.34 4.11675 -4.7146 0
M  V30 26742 H 2459.57 1.30867 -2.66948 0
M  V30 26743 H 2457.1 0.570986 -1.43454 0
M  V30 26744 H 2459.06 3.66546 -1.84808 0
M  V30 26745 H 2457.72 3.01606 -0.877061 0
M  V30 26746 H 2456.92 4.02446 -3.03403 0
M  V30 26747 H 2456.52 2.29248 -2.95502 0
M  V30 26748 H 2458.81 5.05762 -4.50789 0
M  V30 26749 H 2459.75 4.15343 -5.73494 0
M  V30 26750 H 2460.16 3.98125 -4.00196 0
M  V30 26751 N 2459.56 1.44175 0.636506 0
M  V30 26752 C 2460.49 1.4509 1.76137 0
M  V30 26753 C 2461.47 0.310354 1.59611 0
M  V30 26754 O 2462.65 0.506509 1.81567 0
M  V30 26755 C 2459.78 1.27845 3.13645 0
M  V30 26756 C 2458.83 2.45392 3.48833 0
M  V30 26757 S 2459.66 4.0793 3.46919 0
M  V30 26758 C 2460.82 3.93098 4.87057 0
M  V30 26759 H 2461.05 2.40271 1.75092 0
M  V30 26760 H 2458.58 1.31408 0.810643 0
M  V30 26761 H 2460.54 1.18582 3.92999 0
M  V30 26762 H 2459.2 0.341842 3.12234 0
M  V30 26763 H 2458.39 2.29175 4.48882 0
M  V30 26764 H 2458 2.51367 2.7693 0
M  V30 26765 H 2460.29 3.56456 5.76147 0
M  V30 26766 H 2461.23 4.92958 5.08329 0
M  V30 26767 H 2461.64 3.25254 4.61378 0
M  V30 26768 N 2461.04 -0.876421 1.30983 0
M  V30 26769 C 2462.26 -1.66713 1.23376 0
M  V30 26770 C 2462.69 -1.87046 -0.198817 0
M  V30 26771 O 2462.04 -1.40758 -1.14267 0
M  V30 26772 C 2462.09 -3.01608 1.97649 0
M  V30 26773 O 2461.2 -3.9106 1.30942 0
M  V30 26774 H 2460.54 -0.509092 0.426288 0
M  V30 26775 H 2463.07 -1.0932 1.72946 0
M  V30 26776 H 2463.08 -3.5159 2.06998 0
M  V30 26777 H 2461.75 -2.86128 3.01834 0
M  V30 26778 H 2460.33 -3.49505 1.30003 0
M  V30 26779 N 2462.51 -1.13839 -1.08989 0
M  V30 26780 C 2463.44 -0.842545 -2.17769 0
M  V30 26781 C 2464.43 0.199981 -1.6892 0
M  V30 26782 O 2465.61 0.0579389 -1.94114 0
M  V30 26783 C 2462.74 -0.312705 -3.45889 0
M  V30 26784 C 2461.69 -1.28999 -4.08097 0
M  V30 26785 C 2461.02 -0.619716 -5.31097 0
M  V30 26786 C 2462.32 -2.65013 -4.50073 0
M  V30 26787 H 2464.01 -1.75217 -2.42774 0
M  V30 26788 H 2461.56 -0.843895 -1.16681 0
M  V30 26789 H 2463.51 -0.0933784 -4.21297 0
M  V30 26790 H 2462.24 0.632326 -3.2042 0
M  V30 26791 H 2460.9 -1.49539 -3.34714 0
M  V30 26792 H 2460.54 0.330931 -5.0191 0
M  V30 26793 H 2460.24 -1.27177 -5.73672 0
M  V30 26794 H 2461.77 -0.409776 -6.09223 0
M  V30 26795 H 2463.18 -2.48416 -5.16684 0
M  V30 26796 H 2461.58 -3.26436 -5.03547 0
M  V30 26797 H 2462.65 -3.22338 -3.62252 0
M  V30 26798 N 2463.99 1.27046 -0.932584 0
M  V30 26799 C 2465.4 1.76123 -0.619482 0
M  V30 26800 C 2465.75 1.76085 0.865366 0
M  V30 26801 O 2464.88 1.36745 1.67719 0
M  V30 26802 C 2465.47 3.1983 -1.11776 0
M  V30 26803 C 2464.03 3.66555 -0.855238 0
M  V30 26804 C 2463.18 2.46319 -1.27366 0
M  V30 26805 H 2466.13 1.13243 -1.11183 0
M  V30 26806 H 2466.15 3.77615 -0.467656 0
M  V30 26807 H 2465.66 3.19826 -2.19847 0
M  V30 26808 H 2463.77 3.71999 0.211459 0
M  V30 26809 H 2463.88 4.5579 -1.47621 0
M  V30 26810 H 2462.24 2.45115 -0.692163 0
M  V30 26811 H 2463.03 2.49021 -2.36312 0
M  V30 26812 N 2465.47 0.698636 1.41269 0
M  V30 26813 C 2466.43 0.0441722 2.29157 0
M  V30 26814 C 2467.43 -0.704815 1.4453 0
M  V30 26815 O 2468.62 -0.539247 1.65643 0
M  V30 26816 C 2465.76 -0.947751 3.27461 0
M  V30 26817 H 2466.95 0.818044 2.88527 0
M  V30 26818 H 2464.5 0.462307 1.49306 0
M  V30 26819 H 2465.24 -1.74928 2.73076 0
M  V30 26820 H 2465.02 -0.413782 3.89911 0
M  V30 26821 H 2466.51 -1.40337 3.93313 0
M  V30 26822 N 2466.95 -1.51228 0.443603 0
M  V30 26823 C 2467.88 -2.30784 -0.355102 0
M  V30 26824 C 2468.86 -1.3647 -1.01538 0
M  V30 26825 O 2470.04 -1.65391 -1.01782 0
M  V30 26826 C 2467.17 -3.15442 -1.45306 0
M  V30 26827 C 2466.13 -4.18085 -0.915929 0
M  V30 26828 C 2465.45 -4.91303 -2.11011 0
M  V30 26829 C 2466.75 -5.22272 0.053952 0
M  V30 26830 H 2468.45 -2.97803 0.308819 0
M  V30 26831 H 2465.99 -1.43217 0.149963 0
M  V30 26832 H 2467.95 -3.6988 -2.01908 0
M  V30 26833 H 2466.67 -2.46255 -2.14536 0
M  V30 26834 H 2465.33 -3.64707 -0.372081 0
M  V30 26835 H 2464.98 -4.18614 -2.78875 0
M  V30 26836 H 2464.68 -5.60715 -1.75707 0
M  V30 26837 H 2466.2 -5.48567 -2.68155 0
M  V30 26838 H 2467.62 -5.71745 -0.421969 0
M  V30 26839 H 2466.01 -5.99247 0.319881 0
M  V30 26840 H 2467.08 -4.74714 0.988663 0
M  V30 26841 N 2468.43 -0.175182 -1.56623 0
M  V30 26842 C 2469.67 0.468777 -1.96999 0
M  V30 26843 C 2470 1.62992 -1.06132 0
M  V30 26844 O 2469.26 1.95463 -0.0962114 0
M  V30 26845 C 2469.56 0.989803 -3.43421 0
M  V30 26846 C 2469.22 -0.055848 -4.50865 0
M  V30 26847 C 2467.88 -0.343219 -4.79974 0
M  V30 26848 C 2470.24 -0.765399 -5.15549 0
M  V30 26849 C 2467.56 -1.34546 -5.71064 0
M  V30 26850 C 2469.92 -1.75665 -6.07721 0
M  V30 26851 C 2468.58 -2.05143 -6.35195 0
M  V30 26852 H 2467.85 0.171538 -0.720872 0
M  V30 26853 H 2470.5 -0.267957 -1.89616 0
M  V30 26854 H 2468.8 1.80443 -3.47775 0
M  V30 26855 H 2470.5 1.49712 -3.72004 0
M  V30 26856 H 2467.09 0.178305 -4.28229 0
M  V30 26857 H 2471.27 -0.556599 -4.93169 0
M  V30 26858 H 2466.53 -1.57998 -5.90632 0
M  V30 26859 H 2470.7 -2.31181 -6.56908 0
M  V30 26860 H 2468.33 -2.82952 -7.05579 0
M  V30 26861 N 2469.91 1.57292 0.0985263 0
M  V30 26862 C 2470.85 2.02823 1.13866 0
M  V30 26863 C 2471.85 0.928691 1.41675 0
M  V30 26864 O 2473.05 1.11387 1.41396 0
M  V30 26865 H 2469.43 0.646324 0.384408 0
M  V30 26866 H 2471.4 2.89376 0.728296 0
M  V30 26867 C 2470.15 2.46558 2.45162 0
M  V30 26868 H 2469.47 3.30744 2.24607 0
M  V30 26869 H 2470.91 2.82196 3.16451 0
M  V30 26870 C 2469.37 1.33747 3.09214 0
M  V30 26871 O 2469.9 0.66471 3.96162 0
M  V30 26872 N 2468.11 1.08932 2.69411 0
M  V30 26873 H 2467.65 1.63821 1.98798 0
M  V30 26874 H 2467.61 0.336513 3.12594 0
M  V30 26875 N 2471.38 -0.369261 1.53213 0
M  V30 26876 C 2472.63 -1.10958 1.68438 0
M  V30 26877 C 2472.95 -1.90569 0.440771 0
M  V30 26878 O 2474.15 -2.67339 0.473493 0
M  V30 26879 C 2472.61 -2.02174 2.97747 0
M  V30 26880 C 2472.22 -1.27892 4.29357 0
M  V30 26881 C 2473.96 -2.76221 3.22339 0
M  V30 26882 C 2471.87 -2.17989 5.49759 0
M  V30 26883 H 2470.8 -0.417929 0.627576 0
M  V30 26884 H 2473.45 -0.370853 1.79713 0
M  V30 26885 H 2471.83 -2.79763 2.80265 0
M  V30 26886 H 2473 -0.553926 4.57459 0
M  V30 26887 H 2471.32 -0.657239 4.1118 0
M  V30 26888 H 2473.92 -3.4385 4.09477 0
M  V30 26889 H 2474.26 -3.41387 2.38244 0
M  V30 26890 H 2474.79 -2.05717 3.40478 0
M  V30 26891 H 2471.53 -1.57406 6.3632 0
M  V30 26892 H 2471.05 -2.88349 5.25942 0
M  V30 26893 H 2472.73 -2.77631 5.84406 0
M  V30 26894 N 2472.86 -1.4451 -0.628851 0
M  V30 26895 C 2474.11 -1.47122 -1.38562 0
M  V30 26896 C 2474.43 -0.105933 -1.94712 0
M  V30 26897 O 2473.7 0.862048 -1.75913 0
M  V30 26898 H 2472.28 -0.541738 -0.514324 0
M  V30 26899 H 2474.94 -1.80306 -0.739986 0
M  V30 26900 H 2474.04 -2.19793 -2.21579 0
M  V30 26901 N 2474.34 0.869463 -1.31446 0
M  V30 26902 C 2475.27 1.99259 -1.2173 0
M  V30 26903 C 2476.25 1.69779 -0.104389 0
M  V30 26904 O 2477.44 1.92036 -0.289072 0
M  V30 26905 C 2474.57 3.34772 -0.924376 0
M  V30 26906 C 2473.52 3.78559 -1.99692 0
M  V30 26907 C 2472.85 5.11539 -1.55667 0
M  V30 26908 C 2474.15 3.95613 -3.4101 0
M  V30 26909 H 2475.84 2.07645 -2.15694 0
M  V30 26910 H 2473.39 0.997657 -1.0384 0
M  V30 26911 H 2475.34 4.12882 -0.843006 0
M  V30 26912 H 2474.06 3.2656 0.0509219 0
M  V30 26913 H 2472.72 3.02691 -2.06819 0
M  V30 26914 H 2472.37 4.99769 -0.569219 0
M  V30 26915 H 2472.07 5.41807 -2.27419 0
M  V30 26916 H 2473.59 5.92157 -1.48939 0
M  V30 26917 H 2475.01 4.64116 -3.36555 0
M  V30 26918 H 2473.4 4.37279 -4.10983 0
M  V30 26919 H 2474.47 2.98979 -3.81759 0
M  V30 26920 N 2475.82 1.14415 1.08383 0
M  V30 26921 C 2476.75 0.854082 2.17319 0
M  V30 26922 C 2477.73 -0.19102 1.69024 0
M  V30 26923 O 2478.91 -0.0476438 1.94142 0
M  V30 26924 C 2476.04 0.331044 3.45719 0
M  V30 26925 C 2475 1.31162 4.07407 0
M  V30 26926 C 2474.32 0.647873 5.3076 0
M  V30 26927 C 2475.62 2.67396 4.48661 0
M  V30 26928 H 2477.32 1.76502 2.41842 0
M  V30 26929 H 2474.86 0.850071 1.16232 0
M  V30 26930 H 2476.82 0.115719 4.21241 0
M  V30 26931 H 2475.54 -0.615324 3.20751 0
M  V30 26932 H 2474.2 1.51312 3.33917 0
M  V30 26933 H 2473.85 -0.304309 5.02079 0
M  V30 26934 H 2473.55 1.30217 5.7299 0
M  V30 26935 H 2475.07 0.442079 6.08998 0
M  V30 26936 H 2476.49 2.51153 5.15359 0
M  V30 26937 H 2474.88 3.29102 5.01809 0
M  V30 26938 H 2475.95 3.24254 3.60537 0
M  V30 26939 N 2477.3 -1.26549 0.939309 0
M  V30 26940 C 2478.23 -2.28821 0.465084 0
M  V30 26941 C 2479.21 -1.63168 -0.480663 0
M  V30 26942 O 2480.39 -1.90387 -0.382921 0
M  V30 26943 C 2477.52 -3.46231 -0.27228 0
M  V30 26944 C 2476.48 -4.23959 0.586734 0
M  V30 26945 C 2475.8 -5.33964 -0.280479 0
M  V30 26946 C 2477.1 -4.88168 1.85713 0
M  V30 26947 H 2478.8 -2.68739 1.31984 0
M  V30 26948 H 2476.34 -1.2919 0.636084 0
M  V30 26949 H 2478.29 -4.16887 -0.61506 0
M  V30 26950 H 2477.02 -3.05262 -1.16116 0
M  V30 26951 H 2475.68 -3.55065 0.912383 0
M  V30 26952 H 2475.33 -4.89236 -1.16865 0
M  V30 26953 H 2475.03 -5.8688 0.290863 0
M  V30 26954 H 2476.55 -6.07459 -0.618571 0
M  V30 26955 H 2477.96 -5.51049 1.5817 0
M  V30 26956 H 2476.36 -5.51193 2.37289 0
M  V30 26957 H 2477.43 -4.11215 2.56964 0
M  V30 26958 N 2478.77 -0.706118 -1.40896 0
M  V30 26959 C 2480.02 -0.241566 -2.01054 0
M  V30 26960 C 2480.35 1.16221 -1.55958 0
M  V30 26961 O 2479.6 1.8007 -0.766367 0
M  V30 26962 C 2479.9 -0.259162 -3.56459 0
M  V30 26963 C 2479.57 -1.61191 -4.21103 0
M  V30 26964 C 2478.23 -1.98223 -4.38476 0
M  V30 26965 C 2480.58 -2.5014 -4.57252 0
M  V30 26966 C 2477.91 -3.23768 -4.89276 0
M  V30 26967 C 2480.26 -3.75029 -5.09447 0
M  V30 26968 C 2478.93 -4.1219 -5.25029 0
M  V30 26969 H 2478.2 -0.0883954 -0.735709 0
M  V30 26970 H 2480.84 -0.907286 -1.68643 0
M  V30 26971 H 2479.15 0.490121 -3.88722 0
M  V30 26972 H 2480.85 0.11797 -4.00826 0
M  V30 26973 H 2477.44 -1.31392 -4.07963 0
M  V30 26974 H 2481.62 -2.22808 -4.43475 0
M  V30 26975 H 2476.88 -3.52541 -4.99525 0
M  V30 26976 H 2481.05 -4.44131 -5.36396 0
M  V30 26977 H 2478.68 -5.09542 -5.64155 0
M  V30 26978 N 2480.25 1.50991 -0.451617 0
M  V30 26979 C 2481.18 2.30969 0.342857 0
M  V30 26980 C 2482.16 1.37007 1.00813 0
M  V30 26981 O 2483.35 1.65928 1.00904 0
M  V30 26982 C 2480.48 3.16208 1.43631 0
M  V30 26983 C 2479.43 4.18564 0.893744 0
M  V30 26984 C 2478.76 4.92415 2.08403 0
M  V30 26985 C 2480.06 5.22236 -0.0816486 0
M  V30 26986 H 2481.75 2.97635 -0.324608 0
M  V30 26987 H 2479.3 1.43135 -0.157556 0
M  V30 26988 H 2481.25 3.70945 1.99944 0
M  V30 26989 H 2479.97 2.4739 2.13227 0
M  V30 26990 H 2478.63 3.64899 0.352734 0
M  V30 26991 H 2478.28 4.20087 2.76651 0
M  V30 26992 H 2477.98 5.61639 1.72731 0
M  V30 26993 H 2479.51 5.49981 2.65242 0
M  V30 26994 H 2480.92 5.71961 0.391642 0
M  V30 26995 H 2479.32 5.99069 -0.351656 0
M  V30 26996 H 2480.39 4.74183 -1.01382 0
M  V30 26997 N 2481.73 0.183486 1.56528 0
M  V30 26998 C 2482.98 -0.459002 1.97537 0
M  V30 26999 C 2483.31 -1.62069 1.06992 0
M  V30 27000 O 2482.58 -1.94132 0.119515 0
M  V30 27001 C 2482.87 -0.930307 3.47875 0
M  V30 27002 C 2482.72 0.232396 4.49199 0
M  V30 27003 C 2484.04 -1.79982 4.01615 0
M  V30 27004 H 2481.16 -0.165371 0.718207 0
M  V30 27005 H 2483.8 0.272072 1.88042 0
M  V30 27006 H 2481.95 -1.55327 3.56098 0
M  V30 27007 H 2483.62 0.869799 4.53026 0
M  V30 27008 H 2481.86 0.886002 4.24656 0
M  V30 27009 H 2482.54 -0.139699 5.51823 0
M  V30 27010 H 2485.01 -1.27454 3.96099 0
M  V30 27011 H 2483.89 -2.09858 5.07199 0
M  V30 27012 H 2484.15 -2.74992 3.46167 0
M  V30 27013 N 2483.21 -1.57342 -0.0901833 0
M  V30 27014 C 2484.14 -1.97666 -1.14032 0
M  V30 27015 C 2485.12 -0.850641 -1.38574 0
M  V30 27016 O 2486.3 -1.11136 -1.52253 0
M  V30 27017 C 2483.43 -2.29764 -2.4885 0
M  V30 27018 C 2482.48 -3.52185 -2.40557 0
M  V30 27019 S 2483.31 -5.03718 -1.81736 0
M  V30 27020 C 2484.46 -5.38998 -3.18169 0
M  V30 27021 H 2484.7 -2.86429 -0.796586 0
M  V30 27022 H 2482.23 -1.51496 -0.298046 0
M  V30 27023 H 2484.19 -2.48933 -3.26409 0
M  V30 27024 H 2482.85 -1.41563 -2.8039 0
M  V30 27025 H 2482.04 -3.72102 -3.39936 0
M  V30 27026 H 2481.64 -3.32552 -1.71129 0
M  V30 27027 H 2483.94 -5.35944 -4.14452 0
M  V30 27028 H 2484.88 -6.39973 -3.03051 0
M  V30 27029 H 2485.29 -4.66458 -3.17927 0
M  V30 27030 N 2484.69 0.36113 -1.53407 0
M  V30 27031 C 2485.93 1.1033 -1.69804 0
M  V30 27032 C 2486.26 1.89172 -0.45212 0
M  V30 27033 O 2485.52 1.87337 0.565984 0
M  V30 27034 C 2485.82 2.08591 -2.90215 0
M  V30 27035 C 2485.48 1.46195 -4.26542 0
M  V30 27036 C 2484.14 1.28907 -4.63612 0
M  V30 27037 C 2486.5 1.01092 -5.11302 0
M  V30 27038 C 2483.82 0.651054 -5.83076 0
M  V30 27039 C 2486.18 0.386896 -6.31416 0
M  V30 27040 C 2484.84 0.20154 -6.67196 0
M  V30 27041 H 2484.11 0.403726 -0.621358 0
M  V30 27042 H 2486.76 0.384576 -1.87599 0
M  V30 27043 H 2485.06 2.86783 -2.66951 0
M  V30 27044 H 2486.76 2.65977 -3.00096 0
M  V30 27045 H 2483.35 1.60646 -3.97355 0
M  V30 27046 H 2487.53 1.13241 -4.83208 0
M  V30 27047 H 2482.79 0.495898 -6.09386 0
M  V30 27048 H 2486.96 0.0292339 -6.96394 0
M  V30 27049 H 2484.59 -0.2949 -7.59628 0
M  V30 27050 N 2486.16 1.44842 0.621179 0
M  V30 27051 C 2487.41 1.47425 1.37655 0
M  V30 27052 C 2487.73 0.114663 1.95264 0
M  V30 27053 O 2488.93 0.0180676 2.71494 0
M  V30 27054 C 2487.39 2.5959 2.49281 0
M  V30 27055 C 2487 4.018 1.98142 0
M  V30 27056 C 2488.74 2.71405 3.26404 0
M  V30 27057 C 2486.65 5.05372 3.0717 0
M  V30 27058 H 2485.58 0.548527 0.517334 0
M  V30 27059 H 2488.23 1.7094 0.667227 0
M  V30 27060 H 2486.61 2.29333 3.22835 0
M  V30 27061 H 2487.78 4.41672 1.31388 0
M  V30 27062 H 2486.1 3.94316 1.33805 0
M  V30 27063 H 2488.7 3.45956 4.07699 0
M  V30 27064 H 2489.04 1.77565 3.76532 0
M  V30 27065 H 2489.57 3.0112 2.59945 0
M  V30 27066 H 2486.31 6.00874 2.61975 0
M  V30 27067 H 2485.83 4.70084 3.72534 0
M  V30 27068 H 2487.51 5.29517 3.7178 0
M  V30 27069 N 2487.64 -0.862479 1.31905 0
M  V30 27070 C 2488.87 -1.64632 1.24819 0
M  V30 27071 C 2489.28 -1.88268 -0.187546 0
M  V30 27072 O 2488.62 -1.44637 -1.13251 0
M  V30 27073 C 2488.69 -3.033 1.93001 0
M  V30 27074 C 2488.35 -3.0274 3.42341 0
M  V30 27075 C 2489.35 -2.80154 4.37961 0
M  V30 27076 C 2487.03 -3.23623 3.84153 0
M  V30 27077 C 2489.03 -2.78443 5.73366 0
M  V30 27078 C 2486.71 -3.2154 5.19669 0
M  V30 27079 C 2487.71 -2.98977 6.14086 0
M  V30 27080 O 2487.4 -2.96753 7.47123 0
M  V30 27081 H 2487.13 -0.519762 0.432231 0
M  V30 27082 H 2489.68 -1.08424 1.74452 0
M  V30 27083 H 2487.91 -3.61266 1.37928 0
M  V30 27084 H 2489.6 -3.6394 1.7973 0
M  V30 27085 H 2490.37 -2.63795 4.06986 0
M  V30 27086 H 2486.25 -3.40213 3.11089 0
M  V30 27087 H 2489.79 -2.60752 6.47035 0
M  V30 27088 H 2485.69 -3.37442 5.50276 0
M  V30 27089 H 2486.46 -3.12762 7.56388 0
M  V30 27090 N 2489.12 -1.14988 -1.07775 0
M  V30 27091 C 2490.08 -0.845396 -2.13039 0
M  V30 27092 C 2491.08 0.152903 -1.60071 0
M  V30 27093 O 2492.27 -0.0762185 -1.74033 0
M  V30 27094 C 2489.41 -0.261443 -3.39896 0
M  V30 27095 H 2490.6 -1.77838 -2.41482 0
M  V30 27096 H 2488.15 -0.956779 -1.23594 0
M  V30 27097 H 2488.89 0.679944 -3.17092 0
M  V30 27098 H 2488.67 -0.980581 -3.79641 0
M  V30 27099 H 2490.16 -0.0658421 -4.17548 0
M  V30 27100 N 2490.6 1.26049 -0.946007 0
M  V30 27101 C 2491.85 1.92821 -0.591869 0
M  V30 27102 C 2492.16 1.74991 0.873925 0
M  V30 27103 O 2493.37 2.36261 1.33765 0
M  V30 27104 C 2491.82 3.45501 -1.00782 0
M  V30 27105 C 2491.43 3.72056 -2.49556 0
M  V30 27106 C 2493.17 4.18249 -0.725808 0
M  V30 27107 C 2491.08 5.182 -2.84997 0
M  V30 27108 H 2490.01 0.721904 -0.217647 0
M  V30 27109 H 2492.66 1.4305 -1.1493 0
M  V30 27110 H 2491.04 3.94183 -0.378882 0
M  V30 27111 H 2492.22 3.3406 -3.17396 0
M  V30 27112 H 2490.53 3.12551 -2.75138 0
M  V30 27113 H 2493.13 5.25886 -0.966864 0
M  V30 27114 H 2493.47 4.14929 0.337566 0
M  V30 27115 H 2494.01 3.75447 -1.31469 0
M  V30 27116 H 2490.75 5.26624 -3.90316 0
M  V30 27117 H 2490.27 5.57274 -2.21823 0
M  V30 27118 H 2491.94 5.86247 -2.73722 0
M  V30 27119 N 2492.08 0.71358 1.4052 0
M  V30 27120 C 2493.32 0.252225 2.00923 0
M  V30 27121 C 2493.65 -1.15392 1.56573 0
M  V30 27122 O 2492.91 -1.79661 0.775906 0
M  V30 27123 C 2493.21 0.278062 3.56317 0
M  V30 27124 C 2492.87 1.63422 4.20243 0
M  V30 27125 C 2491.53 2.00546 4.37418 0
M  V30 27126 C 2493.89 2.52562 4.55919 0
M  V30 27127 C 2491.21 3.26359 4.87552 0
M  V30 27128 C 2493.57 3.77725 5.07451 0
M  V30 27129 C 2492.23 4.14968 5.22836 0
M  V30 27130 H 2491.5 0.0922958 0.73523 0
M  V30 27131 H 2494.15 0.916217 1.6816 0
M  V30 27132 H 2492.45 -0.469499 3.88977 0
M  V30 27133 H 2494.15 -0.0967115 4.00883 0
M  V30 27134 H 2490.74 1.33553 4.07261 0
M  V30 27135 H 2494.92 2.25157 4.42287 0
M  V30 27136 H 2490.18 3.55185 4.97648 0
M  V30 27137 H 2494.35 4.46969 5.34033 0
M  V30 27138 H 2491.98 5.12526 5.61445 0
M  V30 27139 N 2493.55 -1.50749 0.459618 0
M  V30 27140 C 2494.8 -2.01857 -0.0991177 0
M  V30 27141 C 2495.12 -1.34443 -1.41245 0
M  V30 27142 O 2494.39 -0.486055 -1.89774 0
M  V30 27143 H 2492.97 -0.745949 -0.0396199 0
M  V30 27144 H 2495.64 -1.85193 0.60742 0
M  V30 27145 H 2494.73 -3.11024 -0.258943 0
M  V30 27146 N 2495.03 -0.191784 -1.56429 0
M  V30 27147 C 2495.97 0.769632 -2.1483 0
M  V30 27148 C 2496.94 1.21188 -1.08407 0
M  V30 27149 O 2498.13 1.29999 -1.36501 0
M  V30 27150 C 2495.25 2.03898 -2.7045 0
M  V30 27151 C 2494.3 1.73913 -3.89431 0
M  V30 27152 S 2495.13 0.890172 -5.28049 0
M  V30 27153 C 2496.29 2.16974 -5.87089 0
M  V30 27154 H 2496.52 0.273152 -2.96043 0
M  V30 27155 H 2494.06 0.0231703 -1.54383 0
M  V30 27156 H 2496.01 2.76797 -3.03139 0
M  V30 27157 H 2494.67 2.50659 -1.89285 0
M  V30 27158 H 2493.87 2.68148 -4.26747 0
M  V30 27159 H 2493.47 1.09097 -3.57734 0
M  V30 27160 H 2495.76 3.12259 -6.01249 0
M  V30 27161 H 2496.7 1.84096 -6.8375 0
M  V30 27162 H 2497.11 2.29669 -5.15667 0
M  V30 27163 N 2496.51 1.57387 0.0818378 0
M  V30 27164 C 2497.74 1.91354 0.799912 0
M  V30 27165 C 2498.16 0.787288 1.70831 0
M  V30 27166 O 2497.52 -0.260448 1.7942 0
M  V30 27167 C 2497.57 3.24237 1.57806 0
M  V30 27168 O 2496.67 3.12762 2.68801 0
M  V30 27169 H 2496.01 0.626881 0.218899 0
M  V30 27170 H 2498.54 2.04531 0.0530896 0
M  V30 27171 H 2498.55 3.57868 1.95946 0
M  V30 27172 H 2497.23 4.05789 0.911476 0
M  V30 27173 H 2495.8 2.9067 2.33592 0
M  V30 27174 N 2497.99 -0.35299 1.53596 0
M  V30 27175 C 2498.94 -1.45332 1.81608 0
M  V30 27176 C 2499.93 -1.54891 0.685951 0
M  V30 27177 O 2501.14 -1.57627 0.869123 0
M  V30 27178 H 2497.51 -0.484391 0.575212 0
M  V30 27179 H 2499.48 -1.18916 2.73681 0
M  V30 27180 C 2498.23 -2.81992 2.03411 0
M  V30 27181 H 2497.55 -2.754 2.89818 0
M  V30 27182 H 2498.99 -3.58128 2.26981 0
M  V30 27183 C 2497.45 -3.26847 0.816851 0
M  V30 27184 O 2497.98 -4.01698 0.0116562 0
M  V30 27185 N 2496.19 -2.83538 0.636732 0
M  V30 27186 H 2495.74 -2.22791 1.29313 0
M  V30 27187 H 2495.69 -3.13905 -0.17628 0
M  V30 27188 N 2499.47 -1.45169 -0.613489 0
M  V30 27189 C 2500.71 -1.48878 -1.37265 0
M  V30 27190 C 2501.04 -0.128195 -1.94077 0
M  V30 27191 O 2500.3 0.872385 -1.7518 0
M  V30 27192 C 2500.6 -2.51087 -2.54342 0
M  V30 27193 C 2500.26 -3.95953 -2.15713 0
M  V30 27194 C 2498.92 -4.354 -2.04892 0
M  V30 27195 C 2501.28 -4.87081 -1.85476 0
M  V30 27196 C 2498.6 -5.63877 -1.62047 0
M  V30 27197 C 2500.96 -6.15965 -1.44119 0
M  V30 27198 C 2499.62 -6.54348 -1.31852 0
M  V30 27199 H 2498.89 -0.544781 -0.502289 0
M  V30 27200 H 2501.54 -1.78483 -0.69399 0
M  V30 27201 H 2499.84 -2.1503 -3.2752 0
M  V30 27202 H 2501.54 -2.51196 -3.12572 0
M  V30 27203 H 2498.13 -3.64755 -2.2506 0
M  V30 27204 H 2502.31 -4.57347 -1.92737 0
M  V30 27205 H 2497.57 -5.92418 -1.51167 0
M  V30 27206 H 2501.74 -6.86024 -1.19766 0
M  V30 27207 H 2499.37 -7.53801 -0.98426 0
M  V30 27208 N 2500.95 0.855472 -1.32361 0
M  V30 27209 C 2501.91 1.94553 -1.21168 0
M  V30 27210 C 2502.91 1.60233 -0.134936 0
M  V30 27211 O 2504.1 1.69886 -0.385279 0
M  V30 27212 C 2501.23 3.29789 -0.86325 0
M  V30 27213 H 2502.42 2.05907 -2.18042 0
M  V30 27214 H 2499.98 1.04555 -1.1618 0
M  V30 27215 H 2500.71 3.24134 0.103712 0
M  V30 27216 H 2500.5 3.56075 -1.64173 0
M  V30 27217 H 2501.99 4.09684 -0.809228 0
M  V30 27218 N 2502.42 1.15558 1.07164 0
M  V30 27219 C 2503.65 0.954165 1.83246 0
M  V30 27220 C 2504.06 -0.500879 1.8245 0
M  V30 27221 O 2503.4 -1.35921 1.23577 0
M  V30 27222 C 2503.47 1.39357 3.31391 0
M  V30 27223 C 2503.13 2.86672 3.55904 0
M  V30 27224 C 2504.13 3.84726 3.49688 0
M  V30 27225 C 2501.81 3.24385 3.83509 0
M  V30 27226 C 2503.81 5.18497 3.70728 0
M  V30 27227 C 2501.49 4.58328 4.04201 0
M  V30 27228 C 2502.49 5.55193 3.97806 0
M  V30 27229 O 2502.18 6.86717 4.17942 0
M  V30 27230 H 2501.91 0.338861 0.584935 0
M  V30 27231 H 2504.47 1.53779 1.36166 0
M  V30 27232 H 2502.7 0.753357 3.79291 0
M  V30 27233 H 2504.38 1.16096 3.88943 0
M  V30 27234 H 2505.15 3.56936 3.28362 0
M  V30 27235 H 2501.03 2.49574 3.876 0
M  V30 27236 H 2504.57 5.94091 3.65652 0
M  V30 27237 H 2500.47 4.85833 4.25014 0
M  V30 27238 H 2501.24 6.93163 4.35279 0
M  V30 27239 N 2503.9 -1.25546 0.952678 0
M  V30 27240 C 2505.15 -1.93493 0.607306 0
M  V30 27241 C 2505.48 -1.74453 -0.853214 0
M  V30 27242 O 2504.76 -1.08845 -1.61192 0
M  V30 27243 C 2505.04 -3.46945 0.964411 0
M  V30 27244 C 2504.89 -3.7522 2.48052 0
M  V30 27245 C 2506.21 -4.37385 0.488064 0
M  V30 27246 H 2503.33 -0.702735 0.222108 0
M  V30 27247 H 2505.97 -1.482 1.18898 0
M  V30 27248 H 2504.12 -3.85653 0.469429 0
M  V30 27249 H 2505.79 -3.4616 3.04911 0
M  V30 27250 H 2504.04 -3.20895 2.91906 0
M  V30 27251 H 2504.71 -4.82527 2.68089 0
M  V30 27252 H 2507.18 -4.05968 0.912629 0
M  V30 27253 H 2506.06 -5.4352 0.766643 0
M  V30 27254 H 2506.32 -4.37844 -0.611986 0
M  V30 27255 N 2505.38 -0.721022 -1.40139 0
M  V30 27256 C 2506.33 -0.0719595 -2.30688 0
M  V30 27257 C 2507.3 0.744558 -1.48477 0
M  V30 27258 O 2508.48 0.707391 -1.77202 0
M  V30 27259 C 2505.62 0.839796 -3.34726 0
M  V30 27260 C 2504.73 0.0121679 -4.31998 0
M  V30 27261 C 2503.87 0.923903 -5.23104 0
M  V30 27262 C 2502.91 0.0906894 -6.12033 0
M  V30 27263 N 2502.05 0.957596 -6.95539 0
M  V30 27264 H 2506.89 -0.849805 -2.85626 0
M  V30 27265 H 2504.42 -0.43075 -1.40652 0
M  V30 27266 H 2506.38 1.38272 -3.9362 0
M  V30 27267 H 2505.01 1.58376 -2.81277 0
M  V30 27268 H 2504.06 -0.648006 -3.7484 0
M  V30 27269 H 2505.37 -0.632682 -4.94771 0
M  V30 27270 H 2504.53 1.53517 -5.86956 0
M  V30 27271 H 2503.27 1.60256 -4.60618 0
M  V30 27272 H 2502.27 -0.533473 -5.47206 0
M  V30 27273 H 2503.5 -0.584547 -6.7658 0
M  V30 27274 H 2501.44 1.6218 -6.35636 0
M  V30 27275 H 2501.36 0.368907 -7.55099 0
M  V30 27276 H 2502.63 1.55487 -7.63835 0
M  V30 27277 N 2506.86 1.50503 -0.467606 0
M  V30 27278 C 2508.27 1.59136 -0.121561 0
M  V30 27279 C 2508.47 1.47605 1.37167 0
M  V30 27280 O 2507.53 1.33275 2.14462 0
M  V30 27281 C 2508.84 2.93172 -0.668652 0
M  V30 27282 C 2510.39 3.06558 -0.63177 0
M  V30 27283 C 2510.87 4.43162 -1.15635 0
M  V30 27284 N 2512.36 4.49565 -1.11561 0
M  V30 27285 C 2513.09 5.53648 -1.49204 0
M  V30 27286 N 2512.59 6.65002 -1.9428 0
M  V30 27287 N 2514.38 5.44172 -1.40829 0
M  V30 27288 H 2506.53 1.56242 -1.43882 0
M  V30 27289 H 2508.79 0.738187 -0.594797 0
M  V30 27290 H 2508.5 3.07075 -1.71459 0
M  V30 27291 H 2508.37 3.77039 -0.110276 0
M  V30 27292 H 2510.76 2.92304 0.405246 0
M  V30 27293 H 2510.84 2.24456 -1.22691 0
M  V30 27294 H 2510.49 4.58165 -2.19198 0
M  V30 27295 H 2510.42 5.2385 -0.537457 0
M  V30 27296 H 2512.91 3.69658 -0.78496 0
M  V30 27297 H 2513.22 7.40478 -2.21161 0
M  V30 27298 H 2511.57 6.6613 -1.9823 0
M  V30 27299 H 2514.76 4.56066 -1.05458 0
M  V30 27300 H 2514.93 6.25169 -1.70492 0
M  V30 27301 N 2508.34 0.200077 1.56325 0
M  V30 27302 C 2509.25 -0.730629 2.22933 0
M  V30 27303 C 2510.26 -1.23074 1.22999 0
M  V30 27304 O 2511.44 -1.27686 1.55751 0
M  V30 27305 C 2508.5 -1.93093 2.87951 0
M  V30 27306 C 2507.56 -1.4749 4.03169 0
M  V30 27307 C 2506.8 -2.61799 4.65078 0
M  V30 27308 O 2507.02 -3.79406 4.2592 0
M  V30 27309 O 2505.95 -2.34227 5.54456 0
M  V30 27310 H 2509.78 -0.193338 3.03084 0
M  V30 27311 H 2507.36 -0.0294359 1.49371 0
M  V30 27312 H 2509.25 -2.63234 3.29068 0
M  V30 27313 H 2507.92 -2.45673 2.10776 0
M  V30 27314 H 2506.83 -0.742137 3.66665 0
M  V30 27315 H 2508.16 -0.995711 4.82023 0
M  V30 27316 N 2509.81 -1.57429 -0.0734901 0
M  V30 27317 C 2511.06 -1.87444 -0.774112 0
M  V30 27318 C 2511.39 -0.792134 -1.7731 0
M  V30 27319 O 2510.67 0.197759 -1.93492 0
M  V30 27320 C 2510.95 -3.28117 -1.48361 0
M  V30 27321 C 2510.8 -4.46999 -0.501149 0
M  V30 27322 C 2512.12 -3.67002 -2.42894 0
M  V30 27323 H 2509.24 -0.681757 -0.279959 0
M  V30 27324 H 2511.88 -1.89963 -0.0373282 0
M  V30 27325 H 2510.03 -3.26101 -2.11165 0
M  V30 27326 H 2511.71 -4.6114 0.121549 0
M  V30 27327 H 2509.95 -4.33411 0.18367 0
M  V30 27328 H 2510.62 -5.42207 -1.03517 0
M  V30 27329 H 2513.1 -3.70102 -1.90168 0
M  V30 27330 H 2511.97 -4.66323 -2.89541 0
M  V30 27331 H 2512.23 -2.96843 -3.27623 0
M  V30 27332 N 2511.29 0.344839 -1.53781 0
M  V30 27333 C 2512.54 1.08308 -1.70627 0
M  V30 27334 C 2512.86 1.89214 -0.471481 0
M  V30 27335 O 2512.13 1.89021 0.514583 0
M  V30 27336 H 2510.71 0.402848 -0.629065 0
M  V30 27337 H 2513.37 0.386426 -1.91031 0
M  V30 27338 H 2512.47 1.7612 -2.57659 0
M  V30 27339 N 2512.77 1.45492 0.605781 0
M  V30 27340 C 2514.02 1.48876 1.36084 0
M  V30 27341 C 2514.33 0.135367 1.95131 0
M  V30 27342 O 2515.54 0.0468621 2.7146 0
M  V30 27343 C 2513.99 2.6222 2.46513 0
M  V30 27344 C 2513.6 4.03879 1.9387 0
M  V30 27345 C 2515.35 2.74851 3.23507 0
M  V30 27346 C 2513.25 5.08601 3.01792 0
M  V30 27347 H 2512.18 0.553983 0.511487 0
M  V30 27348 H 2514.83 1.71638 0.649059 0
M  V30 27349 H 2513.22 2.32745 3.20384 0
M  V30 27350 H 2514.39 4.4304 1.26696 0
M  V30 27351 H 2512.7 3.95713 1.29615 0
M  V30 27352 H 2515.3 3.5026 4.04007 0
M  V30 27353 H 2515.64 1.81549 3.74627 0
M  V30 27354 H 2516.18 3.0386 2.56737 0
M  V30 27355 H 2512.92 6.03619 2.55587 0
M  V30 27356 H 2512.44 4.74008 3.67527 0
M  V30 27357 H 2514.12 5.33431 3.66143 0
M  V30 27358 N 2514.25 -0.848441 1.32813 0
M  V30 27359 C 2515.53 -1.58702 1.14337 0
M  V30 27360 C 2515.91 -2.09044 -0.293912 0
M  V30 27361 O 2515.25 -1.88501 -1.29149 0
M  V30 27362 C 2515.46 -2.72833 2.1763 0
M  V30 27363 C 2516.81 -3.42257 2.51288 0
M  V30 27364 O 2517.84 -2.83065 2.16224 0
M  V30 27365 O 2516.69 -4.49087 3.1142 0
M  V30 27366 H 2513.79 -0.699219 0.441613 0
M  V30 27367 H 2516.33 -0.892028 1.44364 0
M  V30 27368 H 2515.11 -2.33205 3.14215 0
M  V30 27369 H 2514.73 -3.50004 1.88634 0
M  V30 27370 N 2515.73 -1.16125 -1.06549 0
M  V30 27371 C 2517 -0.851451 -1.76096 0
M  V30 27372 C 2517.38 0.651264 -2.00803 0
M  V30 27373 O 2516.73 1.59824 -1.63305 0
M  V30 27374 C 2516.94 -1.67128 -3.06381 0
M  V30 27375 C 2518.29 -1.88262 -3.80582 0
M  V30 27376 O 2519.31 -1.63972 -3.16215 0
M  V30 27377 O 2518.17 -2.28999 -4.96208 0
M  V30 27378 H 2515.27 -0.313937 -0.765096 0
M  V30 27379 H 2517.81 -1.26747 -1.12841 0
M  V30 27380 H 2516.58 -2.69113 -2.84066 0
M  V30 27381 H 2516.21 -1.25213 -3.77369 0
M  V30 27382 N 2517.2 1.25039 -0.959323 0
M  V30 27383 C 2518.14 2.24161 -0.427458 0
M  V30 27384 C 2519.12 1.5492 0.49381 0
M  V30 27385 O 2520.3 1.83597 0.427112 0
M  V30 27386 C 2517.43 3.36518 0.383834 0
M  V30 27387 C 2516.47 4.23807 -0.478506 0
M  V30 27388 S 2517.31 5.00141 -1.91362 0
M  V30 27389 C 2518.46 6.15963 -1.11088 0
M  V30 27390 H 2518.69 2.68928 -1.26748 0
M  V30 27391 H 2516.23 1.34188 -0.763737 0
M  V30 27392 H 2518.19 4.01688 0.845968 0
M  V30 27393 H 2516.85 2.90326 1.19873 0
M  V30 27394 H 2516.04 5.03794 0.143972 0
M  V30 27395 H 2515.64 3.63595 -0.876034 0
M  V30 27396 H 2517.93 6.76533 -0.361818 0
M  V30 27397 H 2518.88 6.82554 -1.88484 0
M  V30 27398 H 2519.28 5.60872 -0.638942 0
M  V30 27399 N 2518.68 0.728444 1.39755 0
M  V30 27400 C 2519.93 0.273522 2.00644 0
M  V30 27401 C 2520.26 -1.13725 1.57788 0
M  V30 27402 O 2519.51 -1.78828 0.794918 0
M  V30 27403 C 2519.81 0.315839 3.56002 0
M  V30 27404 C 2519.48 1.6787 4.18486 0
M  V30 27405 C 2518.14 2.05174 4.35267 0
M  V30 27406 C 2520.49 2.57383 4.53214 0
M  V30 27407 C 2517.82 3.31511 4.84063 0
M  V30 27408 C 2520.17 3.83086 5.03416 0
M  V30 27409 C 2518.84 4.2049 5.18405 0
M  V30 27410 H 2518.11 0.100089 0.734209 0
M  V30 27411 H 2520.75 0.934001 1.67179 0
M  V30 27412 H 2519.06 -0.428216 3.89453 0
M  V30 27413 H 2520.75 -0.054187 4.00963 0
M  V30 27414 H 2517.34 1.37865 4.05822 0
M  V30 27415 H 2521.53 2.29835 4.39874 0
M  V30 27416 H 2516.78 3.60443 4.93853 0
M  V30 27417 H 2520.96 4.52608 5.29262 0
M  V30 27418 H 2518.59 5.18452 5.55978 0
M  V30 27419 N 2520.16 -1.50253 0.475581 0
M  V30 27420 C 2521.11 -2.30244 -0.330235 0
M  V30 27421 C 2522.1 -1.37727 -0.986281 0
M  V30 27422 O 2523.31 -1.54898 -0.916873 0
M  V30 27423 H 2519.68 -0.741481 -0.12534 0
M  V30 27424 H 2521.65 -2.96162 0.364754 0
M  V30 27425 C 2520.4 -3.18402 -1.39698 0
M  V30 27426 H 2519.73 -3.89502 -0.901552 0
M  V30 27427 H 2521.17 -3.77359 -1.93329 0
M  V30 27428 C 2519.63 -2.36297 -2.40136 0
M  V30 27429 O 2520.16 -2.0492 -3.455 0
M  V30 27430 N 2518.36 -1.98793 -2.11966 0
M  V30 27431 H 2517.91 -2.24509 -1.26306 0
M  V30 27432 H 2517.87 -1.44162 -2.79401 0
M  V30 27433 N 2521.64 -0.208365 -1.56217 0
M  V30 27434 C 2522.89 0.426885 -1.97949 0
M  V30 27435 C 2523.21 1.60704 -1.09565 0
M  V30 27436 O 2522.47 1.95215 -0.13765 0
M  V30 27437 C 2522.77 0.916736 -3.45443 0
M  V30 27438 C 2522.43 -0.151471 -4.50646 0
M  V30 27439 C 2521.1 -0.444951 -4.79138 0
M  V30 27440 C 2523.45 -0.874582 -5.1381 0
M  V30 27441 C 2520.78 -1.46629 -5.68082 0
M  V30 27442 C 2523.13 -1.88516 -6.03858 0
M  V30 27443 C 2521.79 -2.1857 -6.30701 0
M  V30 27444 H 2521.06 0.156208 -0.724348 0
M  V30 27445 H 2523.71 -0.308117 -1.89005 0
M  V30 27446 H 2522.01 1.73026 -3.51524 0
M  V30 27447 H 2523.71 1.41788 -3.75096 0
M  V30 27448 H 2520.3 0.0874314 -4.28511 0
M  V30 27449 H 2524.48 -0.661083 -4.91877 0
M  V30 27450 H 2519.74 -1.70491 -5.87148 0
M  V30 27451 H 2523.91 -2.45063 -6.51857 0
M  V30 27452 H 2521.54 -2.97855 -6.99419 0
M  V30 27453 N 2523.12 1.57465 0.0651402 0
M  V30 27454 C 2524.03 2.07507 1.09444 0
M  V30 27455 C 2525.04 1.00597 1.41973 0
M  V30 27456 O 2526.22 1.3211 1.52016 0
M  V30 27457 C 2523.28 2.51457 2.38684 0
M  V30 27458 C 2522.34 3.72695 2.13066 0
M  V30 27459 C 2521.58 4.14539 3.36144 0
M  V30 27460 O 2521.8 3.56197 4.45511 0
M  V30 27461 O 2520.73 5.07277 3.23965 0
M  V30 27462 H 2524.56 2.95539 0.699298 0
M  V30 27463 H 2522.15 1.46758 0.279726 0
M  V30 27464 H 2524.03 2.80218 3.14732 0
M  V30 27465 H 2522.7 1.66551 2.77565 0
M  V30 27466 H 2521.61 3.49007 1.34703 0
M  V30 27467 H 2522.94 4.58473 1.79062 0
M  V30 27468 N 2524.59 -0.336679 1.53962 0
M  V30 27469 C 2525.82 -1.09602 1.75485 0
M  V30 27470 C 2526.24 -1.82135 0.497232 0
M  V30 27471 O 2525.59 -1.7459 -0.531459 0
M  V30 27472 C 2525.65 -2.10423 2.93946 0
M  V30 27473 O 2525.37 -1.40839 4.14845 0
M  V30 27474 C 2526.87 -2.98679 3.27576 0
M  V30 27475 H 2524.09 -0.326564 0.586171 0
M  V30 27476 H 2526.63 -0.386795 2.00809 0
M  V30 27477 H 2524.79 -2.769 2.70934 0
M  V30 27478 H 2525.2 -2.08247 4.81387 0
M  V30 27479 H 2526.67 -3.65343 4.13798 0
M  V30 27480 H 2527.15 -3.65069 2.44174 0
M  V30 27481 H 2527.76 -2.37781 3.52619 0
M  V30 27482 N 2526.07 -1.45812 -0.598057 0
M  V30 27483 C 2527.32 -1.50325 -1.35678 0
M  V30 27484 C 2527.65 -0.148773 -1.9393 0
M  V30 27485 O 2526.9 0.853756 -1.76095 0
M  V30 27486 C 2527.2 -2.53771 -2.51665 0
M  V30 27487 C 2526.87 -3.98218 -2.11501 0
M  V30 27488 C 2525.53 -4.37548 -2.00262 0
M  V30 27489 C 2527.88 -4.89021 -1.803 0
M  V30 27490 C 2525.21 -5.65564 -1.56057 0
M  V30 27491 C 2527.56 -6.17459 -1.37578 0
M  V30 27492 C 2526.23 -6.5571 -1.24904 0
M  V30 27493 H 2525.5 -0.550078 -0.496483 0
M  V30 27494 H 2528.14 -1.79209 -0.67502 0
M  V30 27495 H 2526.45 -2.18491 -3.25221 0
M  V30 27496 H 2528.14 -2.54497 -3.0989 0
M  V30 27497 H 2524.73 -3.67121 -2.21179 0
M  V30 27498 H 2528.92 -4.59365 -1.87876 0
M  V30 27499 H 2524.17 -5.93988 -1.44875 0
M  V30 27500 H 2528.35 -6.87256 -1.12483 0
M  V30 27501 H 2525.98 -7.54803 -0.904254 0
M  V30 27502 N 2527.55 0.841385 -1.33261 0
M  V30 27503 C 2528.8 1.59332 -1.24329 0
M  V30 27504 C 2529.12 1.94057 0.19153 0
M  V30 27505 O 2528.39 1.60751 1.11964 0
M  V30 27506 H 2526.97 0.590755 -0.457184 0
M  V30 27507 H 2529.63 1.00569 -1.66949 0
M  V30 27508 H 2528.73 2.52439 -1.83524 0
M  V30 27509 N 2529.03 1.16688 1.05932 0
M  V30 27510 C 2529.98 0.872855 2.15601 0
M  V30 27511 C 2530.97 -0.159546 1.68647 0
M  V30 27512 O 2532.18 -0.0131809 1.79995 0
M  V30 27513 H 2528.55 0.264683 0.70388 0
M  V30 27514 H 2530.52 1.80511 2.3761 0
M  V30 27515 C 2529.27 0.394405 3.45456 0
M  V30 27516 H 2528.6 1.18026 3.81982 0
M  V30 27517 H 2530.04 0.227482 4.23389 0
M  V30 27518 C 2528.49 -0.886672 3.25023 0
M  V30 27519 O 2529.02 -1.95513 3.5091 0
M  V30 27520 N 2527.23 -0.831876 2.78439 0
M  V30 27521 H 2526.78 0.0378072 2.57572 0
M  V30 27522 H 2526.74 -1.68951 2.65147 0
M  V30 27523 N 2530.51 -1.24529 0.96594 0
M  V30 27524 C 2531.73 -1.97148 0.644006 0
M  V30 27525 C 2532.16 -1.7119 -0.779457 0
M  V30 27526 O 2531.52 -0.97458 -1.52878 0
M  V30 27527 C 2531.56 -3.48597 0.922618 0
M  V30 27528 O 2530.67 -4.12399 0.00714921 0
M  V30 27529 H 2530.01 -0.617678 0.243658 0
M  V30 27530 H 2532.54 -1.58351 1.29561 0
M  V30 27531 H 2532.55 -3.98974 0.853443 0
M  V30 27532 H 2531.22 -3.66819 1.96002 0
M  V30 27533 H 2529.8 -3.72675 0.129495 0
M  V30 27534 N 2531.99 -0.735845 -1.39367 0
M  V30 27535 C 2532.92 -0.0451576 -2.28155 0
M  V30 27536 C 2533.9 0.746826 -1.44434 0
M  V30 27537 O 2535.08 0.729207 -1.73824 0
M  V30 27538 C 2532.21 0.943208 -3.25302 0
M  V30 27539 C 2531.25 0.23961 -4.25826 0
M  V30 27540 S 2532.09 -1.04702 -5.25164 0
M  V30 27541 C 2533.24 -0.0612739 -6.2587 0
M  V30 27542 H 2533.48 -0.79812 -2.86387 0
M  V30 27543 H 2531.01 -0.527679 -1.45103 0
M  V30 27544 H 2532.97 1.50817 -3.81791 0
M  V30 27545 H 2531.63 1.66901 -2.66088 0
M  V30 27546 H 2530.82 0.987509 -4.94231 0
M  V30 27547 H 2530.42 -0.25334 -3.73141 0
M  V30 27548 H 2532.71 0.778823 -6.73009 0
M  V30 27549 H 2533.66 -0.712485 -7.04506 0
M  V30 27550 H 2534.07 0.311503 -5.6364 0
M  V30 27551 N 2533.46 1.49999 -0.483543 0
M  V30 27552 C 2534.71 2.01582 0.0688748 0
M  V30 27553 C 2535.03 1.36954 1.39653 0
M  V30 27554 O 2536.23 1.79765 2.03462 0
M  V30 27555 C 2534.69 3.59483 0.173238 0
M  V30 27556 C 2534.3 4.33075 -1.14672 0
M  V30 27557 C 2536.04 4.19068 0.67695 0
M  V30 27558 C 2533.95 5.8279 -1.00548 0
M  V30 27559 H 2532.88 0.753422 0.0295144 0
M  V30 27560 H 2535.53 1.72697 -0.620325 0
M  V30 27561 H 2533.91 3.85009 0.926501 0
M  V30 27562 H 2535.08 4.19264 -1.91192 0
M  V30 27563 H 2533.4 3.85156 -1.58251 0
M  V30 27564 H 2536 5.28684 0.799859 0
M  V30 27565 H 2536.34 3.81272 1.67144 0
M  V30 27566 H 2536.87 3.97795 -0.0192782 0
M  V30 27567 H 2533.61 6.2508 -1.97371 0
M  V30 27568 H 2533.13 5.99142 -0.280881 0
M  V30 27569 H 2534.81 6.43447 -0.677113 0
M  V30 27570 N 2534.94 0.216646 1.56104 0
M  V30 27571 C 2536.18 -0.418287 2.00074 0
M  V30 27572 C 2536.55 -1.57296 1.10101 0
M  V30 27573 O 2537.75 -2.27356 1.43397 0
M  V30 27574 C 2536.02 -0.846416 3.47233 0
M  V30 27575 S 2537.58 -1.47615 4.13225 0
M  V30 27576 H 2534.39 -0.13295 0.698459 0
M  V30 27577 H 2537 0.324782 1.92783 0
M  V30 27578 H 2535.7 0.00370404 4.104 0
M  V30 27579 H 2535.23 -1.62242 3.58387 0
M  V30 27580 H 2537.25 -2.76519 4.1201 0
M  V30 27581 N 2536.42 -1.57498 -0.0567885 0
M  V30 27582 C 2537.35 -2.07752 -1.06589 0
M  V30 27583 C 2538.33 -0.974106 -1.39446 0
M  V30 27584 O 2539.52 -1.24773 -1.48813 0
M  V30 27585 C 2536.65 -2.53394 -2.37505 0
M  V30 27586 C 2535.6 -3.67749 -2.18963 0
M  V30 27587 C 2534.93 -3.99498 -3.55395 0
M  V30 27588 C 2536.23 -4.97238 -1.5985 0
M  V30 27589 H 2537.92 -2.92311 -0.647655 0
M  V30 27590 H 2535.47 -1.40622 -0.310091 0
M  V30 27591 H 2537.42 -2.87167 -3.08404 0
M  V30 27592 H 2536.14 -1.65883 -2.81337 0
M  V30 27593 H 2534.8 -3.34282 -1.50502 0
M  V30 27594 H 2534.45 -3.09095 -3.96824 0
M  V30 27595 H 2534.15 -4.76508 -3.43823 0
M  V30 27596 H 2535.67 -4.3578 -4.27701 0
M  V30 27597 H 2537.09 -5.29145 -2.20632 0
M  V30 27598 H 2535.48 -5.78671 -1.58932 0
M  V30 27599 H 2536.55 -4.81639 -0.561421 0
M  V30 27600 N 2537.9 0.328509 -1.54138 0
M  V30 27601 C 2539.14 1.06703 -1.72106 0
M  V30 27602 C 2539.47 1.88171 -0.492145 0
M  V30 27603 O 2538.73 1.88495 0.52612 0
M  V30 27604 C 2539.03 2.02388 -2.94574 0
M  V30 27605 C 2538.69 1.37115 -4.29547 0
M  V30 27606 C 2537.35 1.19044 -4.66242 0
M  V30 27607 C 2539.71 0.902241 -5.13331 0
M  V30 27608 C 2537.03 0.527229 -5.84326 0
M  V30 27609 C 2539.39 0.252876 -6.32094 0
M  V30 27610 C 2538.05 0.0599727 -6.67473 0
M  V30 27611 H 2537.32 0.390455 -0.629782 0
M  V30 27612 H 2539.97 0.344697 -1.88372 0
M  V30 27613 H 2538.27 2.81056 -2.72974 0
M  V30 27614 H 2539.97 2.59551 -3.0567 0
M  V30 27615 H 2536.56 1.52181 -4.00673 0
M  V30 27616 H 2540.74 1.02966 -4.85502 0
M  V30 27617 H 2536 0.366527 -6.103 0
M  V30 27618 H 2540.17 -0.118488 -6.96299 0
M  V30 27619 H 2537.8 -0.455962 -7.58831 0
M  V30 27620 N 2539.38 1.46127 0.590316 0
M  V30 27621 C 2540.31 1.52139 1.71424 0
M  V30 27622 C 2541.32 0.410447 1.57541 0
M  V30 27623 O 2542.51 0.678418 1.65105 0
M  V30 27624 C 2539.61 1.3784 3.09602 0
M  V30 27625 C 2538.78 2.62918 3.49561 0
M  V30 27626 C 2537.84 2.42927 4.66769 0
M  V30 27627 O 2536.87 3.16618 4.73013 0
M  V30 27628 N 2538.07 1.486 5.61158 0
M  V30 27629 H 2540.83 2.49045 1.66724 0
M  V30 27630 H 2538.4 1.42086 0.776088 0
M  V30 27631 H 2540.39 1.22249 3.85794 0
M  V30 27632 H 2538.96 0.491448 3.08713 0
M  V30 27633 H 2538.18 2.93504 2.63153 0
M  V30 27634 H 2539.47 3.46023 3.73022 0
M  V30 27635 H 2538.86 0.878178 5.58842 0
M  V30 27636 H 2537.42 1.38976 6.36812 0
M  V30 27637 N 2540.85 -0.834306 1.33705 0
M  V30 27638 C 2542.1 -1.58481 1.24766 0
M  V30 27639 C 2542.42 -1.94735 -0.183741 0
M  V30 27640 O 2543.62 -2.68608 -0.395187 0
M  V30 27641 C 2542.08 -2.85872 2.18643 0
M  V30 27642 C 2541.69 -2.56965 3.66978 0
M  V30 27643 C 2543.43 -3.63895 2.18587 0
M  V30 27644 C 2541.34 -3.8048 4.52757 0
M  V30 27645 H 2540.27 -0.594764 0.463435 0
M  V30 27646 H 2542.92 -0.919523 1.58799 0
M  V30 27647 H 2541.3 -3.53967 1.77549 0
M  V30 27648 H 2542.47 -1.97053 4.16541 0
M  V30 27649 H 2540.79 -1.92238 3.69369 0
M  V30 27650 H 2543.39 -4.55586 2.79902 0
M  V30 27651 H 2543.73 -3.99163 1.18214 0
M  V30 27652 H 2544.26 -3.02731 2.58068 0
M  V30 27653 H 2541 -3.5034 5.54023 0
M  V30 27654 H 2540.52 -4.39715 4.07935 0
M  V30 27655 H 2542.2 -4.48012 4.66792 0
M  V30 27656 N 2542.33 -1.17248 -1.05312 0
M  V30 27657 C 2543.56 -0.984625 -1.81969 0
M  V30 27658 C 2543.97 0.467134 -1.8293 0
M  V30 27659 O 2543.33 1.32436 -1.25566 0
M  V30 27660 C 2543.38 -1.51677 -3.28141 0
M  V30 27661 O 2543.1 -2.91169 -3.27342 0
M  V30 27662 C 2544.6 -1.37333 -4.21491 0
M  V30 27663 H 2541.82 -0.348421 -0.573449 0
M  V30 27664 H 2544.37 -1.55509 -1.32806 0
M  V30 27665 H 2542.52 -0.988367 -3.7458 0
M  V30 27666 H 2542.94 -3.15739 -4.18818 0
M  V30 27667 H 2544.41 -1.79384 -5.2204 0
M  V30 27668 H 2544.89 -0.320246 -4.38031 0
M  V30 27669 H 2545.49 -1.89185 -3.80906 0
M  V30 27670 N 2543.81 1.24015 -0.972531 0
M  V30 27671 C 2545.04 1.96264 -0.654837 0
M  V30 27672 C 2545.45 1.72085 0.776678 0
M  V30 27673 O 2544.81 1.00751 1.52169 0
M  V30 27674 C 2544.86 3.49439 -0.925981 0
M  V30 27675 O 2544.58 3.72794 -2.30122 0
M  V30 27676 C 2546.08 4.38898 -0.623146 0
M  V30 27677 H 2543.3 0.625096 -0.243918 0
M  V30 27678 H 2545.85 1.57715 -1.30178 0
M  V30 27679 H 2544 3.86033 -0.325176 0
M  V30 27680 H 2544.42 4.67143 -2.38491 0
M  V30 27681 H 2545.89 5.45208 -0.863285 0
M  V30 27682 H 2546.37 4.36963 0.442677 0
M  V30 27683 H 2546.97 4.079 -1.20407 0
M  V30 27684 N 2545.29 0.743226 1.38974 0
M  V30 27685 C 2546.51 0.303972 2.0516 0
M  V30 27686 C 2546.94 -1.05573 1.55679 0
M  V30 27687 O 2546.3 -1.67067 0.704161 0
M  V30 27688 C 2546.34 0.324437 3.59138 0
M  V30 27689 O 2545.45 -0.685132 4.06669 0
M  V30 27690 H 2544.79 0.136529 0.649812 0
M  V30 27691 H 2547.32 1.01145 1.77851 0
M  V30 27692 H 2547.33 0.171689 4.07639 0
M  V30 27693 H 2546 1.31654 3.94512 0
M  V30 27694 H 2544.58 -0.497848 3.69562 0
M  V30 27695 N 2546.77 -1.4974 0.491491 0
M  V30 27696 C 2547.73 -2.27473 -0.280866 0
M  V30 27697 C 2548.73 -1.3309 -0.90243 0
M  V30 27698 O 2549.92 -1.56335 -0.768438 0
M  V30 27699 C 2547.05 -3.10734 -1.40203 0
M  V30 27700 H 2548.24 -2.97206 0.401109 0
M  V30 27701 H 2545.8 -1.54349 0.246159 0
M  V30 27702 H 2546.53 -2.45545 -2.11844 0
M  V30 27703 H 2546.32 -3.80118 -0.961903 0
M  V30 27704 H 2547.81 -3.69469 -1.94633 0
M  V30 27705 N 2548.24 -0.224922 -1.55987 0
M  V30 27706 C 2549.49 0.405064 -1.97999 0
M  V30 27707 C 2549.81 1.60054 -1.1139 0
M  V30 27708 O 2549.08 1.9496 -0.191679 0
M  V30 27709 H 2547.66 0.152645 -0.731238 0
M  V30 27710 H 2550.33 -0.318601 -1.92278 0
M  V30 27711 H 2549.42 0.729113 -3.03464 0
M  V30 27712 N 2549.72 1.57526 0.0484352 0
M  V30 27713 C 2550.97 1.89507 0.73882 0
M  V30 27714 C 2551.32 0.82135 1.73987 0
M  V30 27715 O 2550.62 -0.172096 1.90826 0
M  V30 27716 C 2550.81 3.25938 1.46627 0
M  V30 27717 C 2550.64 4.4648 0.537175 0
M  V30 27718 C 2549.41 5.05029 0.165395 0
M  V30 27719 C 2551.61 5.13998 -0.176176 0
M  V30 27720 N 2549.59 6.0909 -0.766975 0
M  V30 27721 C 2550.96 6.12446 -0.964887 0
M  V30 27722 C 2553.02 4.97296 -0.245177 0
M  V30 27723 C 2551.72 6.95993 -1.81623 0
M  V30 27724 C 2553.74 5.81389 -1.08357 0
M  V30 27725 C 2553.11 6.79392 -1.86026 0
M  V30 27726 H 2549.21 0.742612 0.245054 0
M  V30 27727 H 2551.79 1.947 -0.000510384 0
M  V30 27728 H 2549.96 3.2171 2.17617 0
M  V30 27729 H 2551.69 3.45494 2.10751 0
M  V30 27730 H 2548.45 4.70699 0.523383 0
M  V30 27731 H 2548.87 6.65786 -1.22709 0
M  V30 27732 H 2553.51 4.21423 0.340989 0
M  V30 27733 H 2551.23 7.71224 -2.41327 0
M  V30 27734 H 2554.82 5.70517 -1.14024 0
M  V30 27735 H 2553.7 7.43332 -2.49854 0
M  V30 27736 N 2551.2 -0.32033 1.5431 0
M  V30 27737 C 2552.48 -1.07632 1.63324 0
M  V30 27738 C 2552.86 -2.05821 0.469156 0
M  V30 27739 O 2552.21 -2.22119 -0.536235 0
M  V30 27740 C 2552.42 -1.77539 3.00468 0
M  V30 27741 C 2553.76 -2.30442 3.56625 0
M  V30 27742 O 2554.79 -1.87601 3.02794 0
M  V30 27743 O 2553.65 -3.08884 4.50836 0
M  V30 27744 H 2550.74 -0.496319 0.66151 0
M  V30 27745 H 2553.29 -0.319963 1.66656 0
M  V30 27746 H 2552.06 -1.06136 3.76631 0
M  V30 27747 H 2551.68 -2.59977 3.00829 0
M  V30 27748 N 2552.68 -1.46438 -0.582558 0
M  V30 27749 C 2553.93 -1.51456 -1.33812 0
M  V30 27750 C 2554.25 -0.167826 -1.94276 0
M  V30 27751 O 2553.52 0.805646 -1.78567 0
M  V30 27752 H 2552.1 -0.557827 -0.496828 0
M  V30 27753 H 2554.76 -1.82569 -0.682249 0
M  V30 27754 H 2553.86 -2.26731 -2.14475 0
M  V30 27755 N 2554.16 0.827204 -1.34146 0
M  V30 27756 C 2555.09 1.95285 -1.28008 0
M  V30 27757 C 2556.07 1.69361 -0.15835 0
M  V30 27758 O 2557.25 1.9102 -0.35002 0
M  V30 27759 C 2554.38 3.31662 -1.03041 0
M  V30 27760 C 2553.34 3.72015 -2.11634 0
M  V30 27761 C 2552.66 5.06327 -1.71863 0
M  V30 27762 C 2553.96 3.84563 -3.53424 0
M  V30 27763 H 2555.66 2.00678 -2.22191 0
M  V30 27764 H 2553.2 0.964116 -1.06962 0
M  V30 27765 H 2555.16 4.09991 -0.973935 0
M  V30 27766 H 2553.88 3.26557 -0.0529965 0
M  V30 27767 H 2552.54 2.95958 -2.16344 0
M  V30 27768 H 2552.19 4.97705 -0.727929 0
M  V30 27769 H 2551.89 5.34297 -2.44541 0
M  V30 27770 H 2553.41 5.87119 -1.67702 0
M  V30 27771 H 2554.82 4.53174 -3.5115 0
M  V30 27772 H 2553.22 4.23983 -4.24687 0
M  V30 27773 H 2554.29 2.86682 -3.91077 0
M  V30 27774 N 2555.63 1.17805 1.04688 0
M  V30 27775 C 2556.56 0.922788 2.14492 0
M  V30 27776 C 2557.55 -0.137149 1.69546 0
M  V30 27777 O 2558.73 0.014145 1.94195 0
M  V30 27778 C 2555.86 0.440864 3.4449 0
M  V30 27779 C 2554.81 1.44057 4.03028 0
M  V30 27780 C 2554.14 0.816403 5.28431 0
M  V30 27781 C 2555.44 2.81535 4.39927 0
M  V30 27782 H 2557.13 1.84107 2.36104 0
M  V30 27783 H 2554.68 0.886619 1.13468 0
M  V30 27784 H 2556.63 0.249676 4.2066 0
M  V30 27785 H 2555.36 -0.512968 3.22546 0
M  V30 27786 H 2554.02 1.61859 3.28934 0
M  V30 27787 H 2553.66 -0.144423 5.02793 0
M  V30 27788 H 2553.36 1.48381 5.68557 0
M  V30 27789 H 2554.89 0.635603 6.07283 0
M  V30 27790 H 2556.3 2.67421 5.07108 0
M  V30 27791 H 2554.7 3.449 4.91084 0
M  V30 27792 H 2555.77 3.35561 3.50039 0
M  V30 27793 N 2557.11 -1.23497 0.979094 0
M  V30 27794 C 2558.08 -2.23147 0.523283 0
M  V30 27795 C 2559.08 -1.56089 -0.386379 0
M  V30 27796 O 2560.27 -1.73265 -0.180252 0
M  V30 27797 C 2557.4 -3.40049 -0.240679 0
M  V30 27798 H 2558.59 -2.64986 1.40436 0
M  V30 27799 H 2556.14 -1.36308 0.764848 0
M  V30 27800 H 2556.88 -3.03664 -1.13836 0
M  V30 27801 H 2556.66 -3.89927 0.412275 0
M  V30 27802 H 2558.15 -4.13986 -0.548225 0
M  V30 27803 N 2558.59 -0.750586 -1.38578 0
M  V30 27804 C 2560 -0.37347 -1.82926 0
M  V30 27805 C 2560.35 1.09745 -1.62636 0
M  V30 27806 O 2559.48 1.84803 -1.12591 0
M  V30 27807 C 2560.07 -0.671087 -3.32087 0
M  V30 27808 C 2558.63 -0.347286 -3.74794 0
M  V30 27809 C 2557.78 -0.925796 -2.61389 0
M  V30 27810 H 2560.73 -0.946981 -1.2735 0
M  V30 27811 H 2560.75 0.05176 -3.80465 0
M  V30 27812 H 2560.26 -1.7417 -3.46823 0
M  V30 27813 H 2558.36 0.716869 -3.65639 0
M  V30 27814 H 2558.48 -0.840739 -4.71666 0
M  V30 27815 H 2556.84 -0.351372 -2.52265 0
M  V30 27816 H 2557.62 -2.00138 -2.78926 0
M  V30 27817 N 2560.07 1.49477 -0.499425 0
M  V30 27818 C 2561.32 2.01644 0.0474904 0
M  V30 27819 C 2561.63 1.38428 1.38192 0
M  V30 27820 O 2562.84 1.81913 2.01544 0
M  V30 27821 C 2561.29 3.59646 0.135101 0
M  V30 27822 C 2560.9 4.31835 -1.19259 0
M  V30 27823 C 2562.65 4.19762 0.632464 0
M  V30 27824 C 2560.55 5.81691 -1.06723 0
M  V30 27825 H 2559.48 0.753693 0.0215217 0
M  V30 27826 H 2562.13 1.72029 -0.638607 0
M  V30 27827 H 2560.52 3.8597 0.885614 0
M  V30 27828 H 2561.69 4.17213 -1.95628 0
M  V30 27829 H 2560 3.83456 -1.62327 0
M  V30 27830 H 2562.6 5.29502 0.74374 0
M  V30 27831 H 2562.94 3.83024 1.63091 0
M  V30 27832 H 2563.48 3.97753 -0.0614686 0
M  V30 27833 H 2560.22 6.22951 -2.0399 0
M  V30 27834 H 2559.74 5.9881 -0.344412 0
M  V30 27835 H 2561.42 6.42693 -0.745321 0
M  V30 27836 N 2561.55 0.233191 1.55865 0
M  V30 27837 C 2562.48 -0.666559 2.23784 0
M  V30 27838 C 2563.46 -1.19203 1.21345 0
M  V30 27839 O 2564.64 -1.23389 1.49962 0
M  V30 27840 C 2561.77 -1.86973 2.92675 0
M  V30 27841 C 2560.73 -1.47761 4.01685 0
M  V30 27842 C 2560.05 -2.7605 4.57931 0
M  V30 27843 C 2561.35 -0.658902 5.18127 0
M  V30 27844 H 2563.05 -0.100253 2.99232 0
M  V30 27845 H 2560.59 -0.0467787 1.43924 0
M  V30 27846 H 2562.55 -2.50471 3.38884 0
M  V30 27847 H 2561.27 -2.46119 2.14693 0
M  V30 27848 H 2559.93 -0.866043 3.56224 0
M  V30 27849 H 2559.58 -3.33365 3.76665 0
M  V30 27850 H 2559.28 -2.50543 5.31509 0
M  V30 27851 H 2560.8 -3.4047 5.06865 0
M  V30 27852 H 2562.22 -1.19785 5.60646 0
M  V30 27853 H 2560.61 -0.500447 5.9801 0
M  V30 27854 H 2561.68 0.331941 4.83763 0
M  V30 27855 N 2563.03 -1.57549 -0.0400806 0
M  V30 27856 C 2563.97 -2.0691 -1.0626 0
M  V30 27857 C 2564.97 -0.980633 -1.3813 0
M  V30 27858 O 2566.17 -1.16559 -1.37165 0
M  V30 27859 H 2562.55 -0.660146 -0.360155 0
M  V30 27860 H 2564.52 -2.9188 -0.620394 0
M  V30 27861 C 2563.27 -2.55488 -2.35842 0
M  V30 27862 H 2562.59 -3.38853 -2.12177 0
M  V30 27863 H 2564.03 -2.93746 -3.0576 0
M  V30 27864 C 2562.49 -1.45131 -3.04037 0
M  V30 27865 O 2563.02 -0.811285 -3.93422 0
M  V30 27866 N 2561.23 -1.18856 -2.65182 0
M  V30 27867 H 2560.77 -1.71086 -1.92581 0
M  V30 27868 H 2560.73 -0.452298 -3.1113 0
M  V30 27869 N 2564.5 0.312142 -1.54478 0
M  V30 27870 C 2565.73 1.07232 -1.77528 0
M  V30 27871 C 2566.15 1.80543 -0.527807 0
M  V30 27872 O 2565.51 1.73647 0.521179 0
M  V30 27873 C 2565.56 2.03723 -2.97539 0
M  V30 27874 O 2564.66 3.11828 -2.69884 0
M  V30 27875 H 2564 0.308609 -0.587925 0
M  V30 27876 H 2566.53 0.352957 -2.01533 0
M  V30 27877 H 2566.54 2.46389 -3.25202 0
M  V30 27878 H 2565.22 1.49767 -3.87998 0
M  V30 27879 H 2563.8 2.73755 -2.53204 0
M  V30 27880 N 2565.98 1.46745 0.574784 0
M  V30 27881 C 2566.93 1.57908 1.68326 0
M  V30 27882 C 2567.9 0.422955 1.60625 0
M  V30 27883 O 2569.08 0.640742 1.7972 0
M  V30 27884 C 2566.22 1.5828 3.06662 0
M  V30 27885 C 2565.34 2.84683 3.2493 0
M  V30 27886 C 2564.47 2.76507 4.53561 0
M  V30 27887 C 2563.51 3.97814 4.652 0
M  V30 27888 N 2562.65 3.87977 5.85165 0
M  V30 27889 H 2567.49 2.52589 1.58122 0
M  V30 27890 H 2565.02 1.25305 0.77053 0
M  V30 27891 H 2566.98 1.5648 3.86743 0
M  V30 27892 H 2565.61 0.671249 3.15744 0
M  V30 27893 H 2564.66 2.96428 2.384 0
M  V30 27894 H 2565.98 3.74566 3.29397 0
M  V30 27895 H 2565.13 2.72857 5.4188 0
M  V30 27896 H 2563.87 1.84278 4.51545 0
M  V30 27897 H 2562.87 4.01787 3.75296 0
M  V30 27898 H 2564.1 4.91148 4.68988 0
M  V30 27899 H 2562.05 2.9854 5.84132 0
M  V30 27900 H 2561.96 4.71521 5.90935 0
M  V30 27901 H 2563.23 3.88315 6.75893 0
M  V30 27902 N 2567.46 -0.820078 1.34583 0
M  V30 27903 C 2568.87 -1.39307 1.243 0
M  V30 27904 C 2569.22 -1.95767 -0.130317 0
M  V30 27905 O 2568.35 -1.90274 -1.03077 0
M  V30 27906 C 2568.94 -2.53247 2.25058 0
M  V30 27907 C 2567.5 -3.06446 2.18558 0
M  V30 27908 C 2566.65 -1.79333 2.11506 0
M  V30 27909 H 2569.6 -0.624236 1.45907 0
M  V30 27910 H 2569.62 -3.31421 1.86923 0
M  V30 27911 H 2569.13 -2.12125 3.25 0
M  V30 27912 H 2567.23 -3.52067 1.21982 0
M  V30 27913 H 2567.35 -3.65344 3.09937 0
M  V30 27914 H 2565.71 -2.00344 1.57271 0
M  V30 27915 H 2566.49 -1.40381 3.13286 0
M  V30 27916 N 2568.94 -1.18359 -1.04062 0
M  V30 27917 C 2570.35 -0.983148 -1.58717 0
M  V30 27918 C 2570.7 0.46716 -1.90557 0
M  V30 27919 O 2569.82 1.34451 -1.69564 0
M  V30 27920 C 2570.42 -1.77833 -2.88376 0
M  V30 27921 C 2568.98 -1.62224 -3.39647 0
M  V30 27922 C 2568.13 -1.77278 -2.13232 0
M  V30 27923 H 2571.08 -1.32902 -0.867335 0
M  V30 27924 H 2571.1 -1.26744 -3.58771 0
M  V30 27925 H 2570.61 -2.83383 -2.65171 0
M  V30 27926 H 2568.71 -0.592101 -3.67865 0
M  V30 27927 H 2568.82 -2.4203 -4.13471 0
M  V30 27928 H 2567.19 -1.20225 -2.2454 0
M  V30 27929 H 2567.97 -2.84263 -1.92482 0
M  V30 27930 N 2570.42 1.22976 -0.98563 0
M  V30 27931 C 2571.69 1.87 -0.573632 0
M  V30 27932 C 2572.07 1.88557 0.949179 0
M  V30 27933 O 2571.42 1.37089 1.82808 0
M  V30 27934 C 2571.63 3.28241 -1.1857 0
M  V30 27935 C 2572.98 4.04793 -1.2817 0
M  V30 27936 O 2574 3.3748 -1.13955 0
M  V30 27937 O 2572.86 5.25271 -1.50841 0
M  V30 27938 H 2569.96 0.803952 -0.193883 0
M  V30 27939 H 2572.5 1.30811 -1.08105 0
M  V30 27940 H 2571.27 3.21702 -2.22764 0
M  V30 27941 H 2570.9 3.92026 -0.663432 0
M  V30 27942 N 2571.89 0.757924 1.38178 0
M  V30 27943 C 2573.13 0.321004 2.01864 0
M  V30 27944 C 2573.5 -1.07824 1.58864 0
M  V30 27945 O 2574.7 -1.61452 2.14911 0
M  V30 27946 C 2572.97 0.444523 3.54625 0
M  V30 27947 S 2574.53 0.0908238 4.38706 0
M  V30 27948 H 2571.35 0.124281 0.700054 0
M  V30 27949 H 2573.95 0.989498 1.6861 0
M  V30 27950 H 2572.65 1.46377 3.83408 0
M  V30 27951 H 2572.18 -0.241004 3.92661 0
M  V30 27952 H 2574.2 -1.11818 4.83437 0
M  V30 27953 N 2573.37 -1.4921 0.507345 0
M  V30 27954 C 2574.65 -1.95353 -0.0982359 0
M  V30 27955 C 2575.03 -1.44903 -1.53513 0
M  V30 27956 O 2574.38 -0.665548 -2.18593 0
M  V30 27957 C 2574.59 -3.49 -0.00434148 0
M  V30 27958 C 2575.94 -4.24239 -0.175072 0
M  V30 27959 O 2576.96 -3.56112 -0.0792265 0
M  V30 27960 O 2575.82 -5.45228 -0.372664 0
M  V30 27961 H 2572.91 -0.821888 -0.0918091 0
M  V30 27962 H 2575.46 -1.59829 0.570335 0
M  V30 27963 H 2574.23 -3.78373 0.997468 0
M  V30 27964 H 2573.85 -3.91159 -0.712776 0
M  V30 27965 N 2574.85 -0.241454 -1.55739 0
M  V30 27966 C 2576.26 0.262722 -1.84842 0
M  V30 27967 C 2576.61 1.58001 -1.1632 0
M  V30 27968 O 2575.74 2.11886 -0.43969 0
M  V30 27969 C 2576.33 0.483464 -3.35333 0
M  V30 27970 C 2574.89 0.931913 -3.64681 0
M  V30 27971 C 2574.04 0.00606635 -2.77299 0
M  V30 27972 H 2576.99 -0.464155 -1.51761 0
M  V30 27973 H 2577.01 1.32682 -3.56617 0
M  V30 27974 H 2576.52 -0.475437 -3.85177 0
M  V30 27975 H 2574.62 1.90347 -3.2031 0
M  V30 27976 H 2574.74 0.792545 -4.72499 0
M  V30 27977 H 2573.1 0.51646 -2.49409 0
M  V30 27978 H 2573.88 -0.94811 -3.29948 0
M  V30 27979 N 2576.33 1.57568 0.0317248 0
M  V30 27980 C 2577.28 2.0747 1.05161 0
M  V30 27981 C 2578.27 0.987944 1.37608 0
M  V30 27982 O 2579.48 1.17284 1.36544 0
M  V30 27983 H 2575.85 0.662047 0.356649 0
M  V30 27984 H 2577.82 2.92204 0.604906 0
M  V30 27985 C 2576.57 2.56735 2.34484 0
M  V30 27986 H 2575.89 3.39973 2.10377 0
M  V30 27987 H 2577.33 2.95364 3.04198 0
M  V30 27988 C 2575.79 1.46742 3.03263 0
M  V30 27989 O 2576.32 0.832138 3.92986 0
M  V30 27990 N 2574.53 1.20261 2.64548 0
M  V30 27991 H 2574.08 1.72105 1.91671 0
M  V30 27992 H 2574.03 0.468792 3.10885 0
M  V30 27993 N 2577.81 -0.303946 1.54641 0
M  V30 27994 C 2578.75 -1.37476 1.85389 0
M  V30 27995 C 2579.72 -1.5051 0.702554 0
M  V30 27996 O 2580.91 -1.65416 0.950896 0
M  V30 27997 C 2578.05 -2.73529 2.10418 0
M  V30 27998 C 2577.16 -2.68968 3.38054 0
M  V30 27999 C 2576.3 -3.96996 3.52941 0
M  V30 28000 C 2575.34 -3.86821 4.7438 0
M  V30 28001 N 2574.47 -5.06618 4.86089 0
M  V30 28002 H 2579.31 -1.10555 2.76734 0
M  V30 28003 H 2576.85 -0.534781 1.37035 0
M  V30 28004 H 2578.81 -3.52648 2.22925 0
M  V30 28005 H 2577.44 -2.98717 1.22343 0
M  V30 28006 H 2576.49 -1.81731 3.34183 0
M  V30 28007 H 2577.8 -2.57338 4.27292 0
M  V30 28008 H 2576.96 -4.84551 3.65097 0
M  V30 28009 H 2575.69 -4.11456 2.61831 0
M  V30 28010 H 2574.7 -2.9765 4.62261 0
M  V30 28011 H 2575.92 -3.73908 5.66895 0
M  V30 28012 H 2573.87 -5.21547 3.97901 0
M  V30 28013 H 2573.79 -4.974 5.69324 0
M  V30 28014 H 2575.06 -5.95832 5.02598 0
M  V30 28015 N 2579.28 -1.47047 -0.566994 0
M  V30 28016 C 2580.53 -1.53396 -1.32656 0
M  V30 28017 C 2580.86 -0.191514 -1.93253 0
M  V30 28018 O 2580.14 0.798813 -1.77339 0
M  V30 28019 C 2580.42 -2.64456 -2.44407 0
M  V30 28020 C 2580.27 -4.08285 -1.88742 0
M  V30 28021 C 2581.59 -2.71491 -3.46382 0
M  V30 28022 H 2578.71 -0.558423 -0.480971 0
M  V30 28023 H 2581.35 -1.79059 -0.63545 0
M  V30 28024 H 2579.5 -2.42705 -3.03359 0
M  V30 28025 H 2581.18 -4.4137 -1.34127 0
M  V30 28026 H 2579.42 -4.17023 -1.19474 0
M  V30 28027 H 2580.09 -4.8175 -2.69483 0
M  V30 28028 H 2582.57 -2.91086 -2.97335 0
M  V30 28029 H 2581.44 -3.50992 -4.22014 0
M  V30 28030 H 2581.7 -1.7816 -4.04613 0
M  V30 28031 N 2580.76 0.812929 -1.35016 0
M  V30 28032 C 2581.71 1.94582 -1.27438 0
M  V30 28033 C 2582.7 1.6854 -0.170523 0
M  V30 28034 O 2583.91 1.76834 -0.336117 0
M  V30 28035 H 2580.29 0.639191 -0.396155 0
M  V30 28036 H 2582.26 1.98094 -2.23162 0
M  V30 28037 C 2581.01 3.3125 -1.05683 0
M  V30 28038 H 2580.33 3.51843 -1.89859 0
M  V30 28039 H 2581.77 4.10941 -1.0442 0
M  V30 28040 C 2580.23 3.36047 0.239556 0
M  V30 28041 O 2580.76 3.82163 1.23753 0
M  V30 28042 N 2578.96 2.89285 0.276135 0
M  V30 28043 H 2578.51 2.5195 -0.536574 0
M  V30 28044 H 2578.47 2.92877 1.14327 0
M  V30 28045 N 2582.24 1.18909 1.03433 0
M  V30 28046 C 2583.65 0.991551 1.58193 0
M  V30 28047 C 2584 -0.457047 1.90802 0
M  V30 28048 O 2583.13 -1.3355 1.70274 0
M  V30 28049 C 2583.72 1.7936 2.87429 0
M  V30 28050 C 2582.28 1.64023 3.38782 0
M  V30 28051 C 2581.43 1.78406 2.12289 0
M  V30 28052 H 2584.38 1.3336 0.860275 0
M  V30 28053 H 2584.4 1.28645 3.58093 0
M  V30 28054 H 2583.91 2.84786 2.63664 0
M  V30 28055 H 2582.01 0.611601 3.67546 0
M  V30 28056 H 2582.13 2.4422 4.12181 0
M  V30 28057 H 2580.49 1.21414 2.23899 0
M  V30 28058 H 2581.27 2.8528 1.90972 0
M  V30 28059 N 2583.72 -1.22452 0.992137 0
M  V30 28060 C 2584.97 -1.90802 0.666249 0
M  V30 28061 C 2585.29 -1.77648 -0.80412 0
M  V30 28062 O 2584.56 -1.16321 -1.57627 0
M  V30 28063 H 2583.14 -0.706221 0.243435 0
M  V30 28064 H 2585.8 -1.48823 1.25848 0
M  V30 28065 H 2584.9 -2.9798 0.928121 0
M  V30 28066 N 2585.2 -0.765242 -1.37774 0
M  V30 28067 C 2586.42 -0.336573 -2.04651 0
M  V30 28068 C 2586.85 1.03083 -1.57339 0
M  V30 28069 O 2586.2 1.65925 -0.73065 0
M  V30 28070 C 2586.25 -0.381531 -3.58576 0
M  V30 28071 O 2585.36 0.620348 -4.07708 0
M  V30 28072 H 2584.7 -0.14685 -0.647558 0
M  V30 28073 H 2587.23 -1.03962 -1.76219 0
M  V30 28074 H 2587.24 -0.236519 -4.07314 0
M  V30 28075 H 2585.91 -1.37914 -3.92368 0
M  V30 28076 H 2584.49 0.438991 -3.70307 0
M  V30 28077 N 2586.67 1.48939 -0.515251 0
M  V30 28078 C 2587.9 2.07388 0.0226906 0
M  V30 28079 C 2588.32 1.37124 1.28758 0
M  V30 28080 O 2587.68 0.432461 1.76067 0
M  V30 28081 C 2587.73 3.59768 0.244806 0
M  V30 28082 O 2586.83 3.90819 1.3166 0
M  V30 28083 H 2586.18 0.663201 -0.0325623 0
M  V30 28084 H 2588.71 1.91552 -0.718951 0
M  V30 28085 H 2588.72 4.05261 0.471979 0
M  V30 28086 H 2587.39 4.10315 -0.679266 0
M  V30 28087 H 2585.97 3.57122 1.07325 0
M  V30 28088 N 2588.15 0.249709 1.55609 0
M  V30 28089 C 2589.4 -0.374806 1.99306 0
M  V30 28090 C 2589.73 -1.57385 1.13769 0
M  V30 28091 O 2589.01 -1.93451 0.201745 0
M  V30 28092 C 2589.29 -0.781924 3.51508 0
M  V30 28093 C 2589.14 0.422707 4.47809 0
M  V30 28094 C 2590.46 -1.62786 4.08887 0
M  V30 28095 H 2587.58 -0.13476 0.724575 0
M  V30 28096 H 2590.22 0.351582 1.86719 0
M  V30 28097 H 2588.37 -1.40083 3.62366 0
M  V30 28098 H 2590.05 1.06116 4.48929 0
M  V30 28099 H 2588.29 1.06532 4.20516 0
M  V30 28100 H 2588.96 0.0944736 5.51919 0
M  V30 28101 H 2591.44 -1.10539 4.01149 0
M  V30 28102 H 2590.31 -1.88157 5.15643 0
M  V30 28103 H 2590.57 -2.60062 3.57519 0
M  V30 28104 N 2589.63 -1.57583 -0.0233682 0
M  V30 28105 C 2590.58 -2.06929 -1.02221 0
M  V30 28106 C 2591.55 -0.959641 -1.35573 0
M  V30 28107 O 2592.73 -1.23058 -1.45813 0
M  V30 28108 C 2589.87 -2.55814 -2.31632 0
M  V30 28109 C 2588.99 -3.80591 -2.04388 0
M  V30 28110 C 2588.12 -4.18067 -3.2771 0
M  V30 28111 C 2587.16 -5.35745 -2.96046 0
M  V30 28112 N 2586.3 -5.68625 -4.11837 0
M  V30 28113 H 2591.14 -2.92011 -0.594453 0
M  V30 28114 H 2588.67 -1.44374 -0.281896 0
M  V30 28115 H 2590.63 -2.82226 -3.07253 0
M  V30 28116 H 2589.26 -1.73641 -2.72119 0
M  V30 28117 H 2588.31 -3.61229 -1.19238 0
M  V30 28118 H 2589.63 -4.66327 -1.77034 0
M  V30 28119 H 2588.78 -4.45637 -4.11695 0
M  V30 28120 H 2587.52 -3.30994 -3.58182 0
M  V30 28121 H 2586.52 -5.07922 -2.10465 0
M  V30 28122 H 2587.75 -6.24476 -2.66846 0
M  V30 28123 H 2585.7 -4.84511 -4.4225 0
M  V30 28124 H 2585.61 -6.48883 -3.87927 0
M  V30 28125 H 2586.88 -6.00775 -4.96678 0
M  V30 28126 N 2591.11 0.29574 -1.548 0
M  V30 28127 C 2592.36 1.02825 -1.73987 0
M  V30 28128 C 2592.68 1.87619 -0.531439 0
M  V30 28129 O 2591.95 1.90562 0.454187 0
M  V30 28130 H 2590.53 0.382631 -0.641563 0
M  V30 28131 H 2593.19 0.325455 -1.92163 0
M  V30 28132 H 2592.29 1.67833 -2.63132 0
M  V30 28133 N 2592.59 1.47346 0.559187 0
M  V30 28134 C 2593.86 1.4435 1.31994 0
M  V30 28135 C 2594.24 0.139395 2.10639 0
M  V30 28136 O 2593.59 -0.879116 2.10912 0
M  V30 28137 C 2593.8 2.68783 2.22613 0
M  V30 28138 C 2595.15 3.15915 2.83695 0
M  V30 28139 O 2596.17 2.69497 2.32916 0
M  V30 28140 O 2595.03 3.96606 3.75986 0
M  V30 28141 H 2592.13 0.575158 0.594241 0
M  V30 28142 H 2594.67 1.59544 0.578254 0
M  V30 28143 H 2593.45 3.55234 1.64087 0
M  V30 28144 H 2593.07 2.56166 3.04081 0
M  V30 28145 N 2594.07 -0.805758 1.35445 0
M  V30 28146 C 2595.31 -1.57625 1.3013 0
M  V30 28147 C 2595.67 -1.91609 -0.122533 0
M  V30 28148 O 2596.87 -2.6712 -0.30006 0
M  V30 28149 C 2595.14 -2.82969 2.18319 0
M  V30 28150 S 2596.7 -3.73366 2.30528 0
M  V30 28151 H 2593.52 -0.540058 0.462449 0
M  V30 28152 H 2596.12 -0.95039 1.70844 0
M  V30 28153 H 2594.82 -2.56028 3.20746 0
M  V30 28154 H 2594.36 -3.5054 1.78564 0
M  V30 28155 H 2596.37 -4.73278 1.4907 0
M  V30 28156 N 2595.54 -1.19456 -1.02801 0
M  V30 28157 C 2596.79 -0.995753 -1.75867 0
M  V30 28158 C 2597.11 0.47451 -1.89139 0
M  V30 28159 O 2596.38 1.34363 -1.4256 0
M  V30 28160 H 2594.96 -0.365446 -0.651504 0
M  V30 28161 H 2597.62 -1.50365 -1.24001 0
M  V30 28162 H 2596.72 -1.44452 -2.76659 0
M  V30 28163 N 2597.02 1.21924 -0.998617 0
M  V30 28164 C 2597.97 2.26084 -0.546681 0
M  V30 28165 C 2598.96 1.64474 0.405547 0
M  V30 28166 O 2600.17 1.77849 0.27744 0
M  V30 28167 H 2596.54 0.735125 -0.158416 0
M  V30 28168 H 2598.52 2.61548 -1.43649 0
M  V30 28169 C 2597.26 3.47502 0.117327 0
M  V30 28170 H 2596.59 3.95175 -0.606346 0
M  V30 28171 H 2598.03 4.22138 0.396918 0
M  V30 28172 C 2596.49 3.08472 1.35449 0
M  V30 28173 O 2597.02 3.18384 2.44938 0
M  V30 28174 N 2595.22 2.63199 1.23186 0
M  V30 28175 H 2594.77 2.55334 0.340961 0
M  V30 28176 H 2594.73 2.37453 2.06067 0
M  V30 28177 N 2598.5 0.772537 1.37367 0
M  V30 28178 C 2599.91 0.402525 1.82309 0
M  V30 28179 C 2600.26 -1.07144 1.64362 0
M  V30 28180 O 2599.39 -1.82988 1.15517 0
M  V30 28181 C 2599.98 0.723835 3.30977 0
M  V30 28182 C 2598.54 0.406868 3.74195 0
M  V30 28183 C 2597.69 0.967264 2.59883 0
M  V30 28184 H 2600.64 0.967121 1.25827 0
M  V30 28185 H 2600.66 0.0087752 3.80499 0
M  V30 28186 H 2600.17 1.79666 3.44008 0
M  V30 28187 H 2598.27 -0.658608 3.66733 0
M  V30 28188 H 2598.39 0.915671 4.70268 0
M  V30 28189 H 2596.75 0.39146 2.51674 0
M  V30 28190 H 2597.53 2.04551 2.75706 0
M  V30 28191 N 2599.98 -1.48664 0.523142 0
M  V30 28192 C 2601.2 -2.07397 -0.011692 0
M  V30 28193 C 2601.63 -1.37805 -1.28029 0
M  V30 28194 O 2600.99 -0.441793 -1.75835 0
M  V30 28195 C 2601.03 -3.59893 -0.225723 0
M  V30 28196 O 2600.14 -3.91512 -1.29585 0
M  V30 28197 H 2599.48 -0.663019 0.036079 0
M  V30 28198 H 2602.01 -1.91168 0.7291 0
M  V30 28199 H 2602.02 -4.05505 -0.45048 0
M  V30 28200 H 2600.69 -4.09949 0.701016 0
M  V30 28201 H 2599.27 -3.57686 -1.05429 0
M  V30 28202 N 2601.46 -0.257958 -1.55475 0
M  V30 28203 C 2602.7 0.364231 -1.99502 0
M  V30 28204 C 2603.03 1.5678 -1.14603 0
M  V30 28205 O 2602.31 1.93341 -0.212002 0
M  V30 28206 C 2602.59 0.763272 -3.51918 0
M  V30 28207 C 2602.45 -0.44645 -4.47579 0
M  V30 28208 C 2603.76 1.60615 -4.09745 0
M  V30 28209 H 2600.88 0.130916 -0.725279 0
M  V30 28210 H 2603.53 -0.361479 -1.8653 0
M  V30 28211 H 2601.68 1.3816 -3.63103 0
M  V30 28212 H 2603.35 -1.08495 -4.4836 0
M  V30 28213 H 2601.59 -1.0876 -4.19945 0
M  V30 28214 H 2602.26 -0.123742 -5.51861 0
M  V30 28215 H 2604.74 1.08411 -4.01729 0
M  V30 28216 H 2603.61 1.8542 -5.16634 0
M  V30 28217 H 2603.87 2.58163 -3.58893 0
M  V30 28218 N 2602.93 1.57593 0.0150108 0
M  V30 28219 C 2604.18 1.89532 0.70158 0
M  V30 28220 C 2604.5 0.857427 1.75138 0
M  V30 28221 O 2603.77 -0.10716 1.95607 0
M  V30 28222 H 2602.35 0.699502 0.262117 0
M  V30 28223 H 2605.02 1.94887 -0.0223647 0
M  V30 28224 H 2604.11 2.88839 1.18231 0
M  V30 28225 N 2604.41 -0.287527 1.54955 0
M  V30 28226 C 2605.66 -1.01874 1.74082 0
M  V30 28227 C 2605.97 -1.87965 0.541168 0
M  V30 28228 O 2607.18 -2.64454 0.614538 0
M  V30 28229 C 2605.64 -1.86107 3.08046 0
M  V30 28230 C 2605.24 -1.04953 4.35533 0
M  V30 28231 C 2606.99 -2.58746 3.36528 0
M  V30 28232 C 2604.9 -1.88541 5.60541 0
M  V30 28233 H 2603.83 -0.384075 0.648847 0
M  V30 28234 H 2606.48 -0.275069 1.81427 0
M  V30 28235 H 2604.86 -2.64513 2.94701 0
M  V30 28236 H 2606.03 -0.310659 4.59752 0
M  V30 28237 H 2604.35 -0.438357 4.14086 0
M  V30 28238 H 2606.94 -3.21661 4.27128 0
M  V30 28239 H 2607.29 -3.28279 2.56005 0
M  V30 28240 H 2607.82 -1.87379 3.50904 0
M  V30 28241 H 2604.56 -1.23455 6.43769 0
M  V30 28242 H 2604.08 -2.60065 5.40487 0
M  V30 28243 H 2605.76 -2.46262 5.98301 0
M  V30 28244 N 2605.89 -1.47641 -0.551365 0
M  V30 28245 C 2607.14 -1.54565 -1.30827 0
M  V30 28246 C 2607.47 -0.210395 -1.93359 0
M  V30 28247 O 2606.72 0.797301 -1.78722 0
M  V30 28248 C 2607.02 -2.61649 -2.43464 0
M  V30 28249 C 2606.69 -4.04746 -1.98725 0
M  V30 28250 C 2605.35 -4.43698 -1.86241 0
M  V30 28251 C 2607.7 -4.94509 -1.64651 0
M  V30 28252 C 2605.03 -5.70243 -1.37985 0
M  V30 28253 C 2607.38 -6.21523 -1.17864 0
M  V30 28254 C 2606.04 -6.59352 -1.0398 0
M  V30 28255 H 2605.31 -0.565595 -0.478731 0
M  V30 28256 H 2607.96 -1.81265 -0.617665 0
M  V30 28257 H 2606.27 -2.28727 -3.18105 0
M  V30 28258 H 2607.96 -2.64228 -3.01637 0
M  V30 28259 H 2604.55 -3.73972 -2.09387 0
M  V30 28260 H 2608.74 -4.6511 -1.73166 0
M  V30 28261 H 2603.99 -5.98296 -1.25904 0
M  V30 28262 H 2608.17 -6.90486 -0.905618 0
M  V30 28263 H 2605.79 -7.57298 -0.663661 0
M  V30 28264 N 2607.37 0.798563 -1.3587 0
M  V30 28265 C 2608.62 1.55603 -1.29591 0
M  V30 28266 C 2608.94 1.94082 0.127422 0
M  V30 28267 O 2608.2 1.62227 1.09458 0
M  V30 28268 C 2608.5 2.85073 -2.15565 0
M  V30 28269 C 2608.16 2.65775 -3.64245 0
M  V30 28270 C 2606.83 2.6022 -4.0477 0
M  V30 28271 C 2609.18 2.4775 -4.58552 0
M  V30 28272 C 2606.51 2.34593 -5.37757 0
M  V30 28273 C 2608.86 2.23651 -5.91746 0
M  V30 28274 C 2607.52 2.16523 -6.31406 0
M  V30 28275 H 2606.79 0.569393 -0.474207 0
M  V30 28276 H 2609.44 0.922056 -1.6784 0
M  V30 28277 H 2607.74 3.5289 -1.70222 0
M  V30 28278 H 2609.44 3.42814 -2.08037 0
M  V30 28279 H 2606.03 2.7095 -3.32091 0
M  V30 28280 H 2610.21 2.51049 -4.28122 0
M  V30 28281 H 2605.47 2.2755 -5.67478 0
M  V30 28282 H 2609.64 2.08696 -6.64394 0
M  V30 28283 H 2607.27 1.96429 -7.34384 0
M  V30 28284 N 2608.85 1.19999 1.02166 0
M  V30 28285 C 2610.09 1.00706 1.75683 0
M  V30 28286 C 2610.42 -0.461393 1.88948 0
M  V30 28287 O 2609.68 -1.35882 1.40835 0
M  V30 28288 C 2609.98 1.62975 3.18079 0
M  V30 28289 C 2609.64 3.12751 3.24804 0
M  V30 28290 C 2608.3 3.53627 3.26346 0
M  V30 28291 C 2610.66 4.08754 3.23372 0
M  V30 28292 C 2607.98 4.89042 3.24122 0
M  V30 28293 C 2610.34 5.44109 3.22688 0
M  V30 28294 C 2609 5.84405 3.22532 0
M  V30 28295 H 2608.27 0.368508 0.642871 0
M  V30 28296 H 2610.92 1.4935 1.19862 0
M  V30 28297 H 2609.22 1.06579 3.77025 0
M  V30 28298 H 2610.92 1.45567 3.73646 0
M  V30 28299 H 2607.51 2.80187 3.24335 0
M  V30 28300 H 2611.69 3.78213 3.21354 0
M  V30 28301 H 2606.95 5.19533 3.22329 0
M  V30 28302 H 2611.12 6.18249 3.20532 0
M  V30 28303 H 2608.75 6.89307 3.20563 0
M  V30 28304 N 2610.32 -1.21392 1.00507 0
M  V30 28305 C 2611.57 -1.90743 0.688826 0
M  V30 28306 C 2611.9 -1.77915 -0.778455 0
M  V30 28307 O 2611.18 -1.15584 -1.56431 0
M  V30 28308 C 2611.46 -3.42543 1.11069 0
M  V30 28309 C 2611.31 -3.64362 2.63743 0
M  V30 28310 C 2612.63 -4.34922 0.673135 0
M  V30 28311 H 2609.75 -0.692683 0.251714 0
M  V30 28312 H 2612.39 -1.43024 1.25076 0
M  V30 28313 H 2610.54 -3.83315 0.632575 0
M  V30 28314 H 2612.22 -3.32916 3.19319 0
M  V30 28315 H 2610.46 -3.08225 3.05253 0
M  V30 28316 H 2611.13 -4.70722 2.88313 0
M  V30 28317 H 2613.61 -4.01732 1.08399 0
M  V30 28318 H 2612.48 -5.39779 0.996478 0
M  V30 28319 H 2612.74 -4.40045 -0.425731 0
M  V30 28320 N 2611.8 -0.779811 -1.36955 0
M  V30 28321 C 2613.03 -0.35826 -2.04282 0
M  V30 28322 C 2613.45 1.01408 -1.58423 0
M  V30 28323 O 2612.81 1.65141 -0.748208 0
M  V30 28324 C 2612.86 -0.419542 -3.58151 0
M  V30 28325 O 2611.96 0.57707 -4.08343 0
M  V30 28326 H 2611.3 -0.15371 -0.645964 0
M  V30 28327 H 2613.83 -1.05825 -1.75106 0
M  V30 28328 H 2613.84 -0.279707 -4.0704 0
M  V30 28329 H 2612.52 -1.42068 -3.90883 0
M  V30 28330 H 2611.1 0.39969 -3.70752 0
M  V30 28331 N 2613.28 1.48384 -0.531019 0
M  V30 28332 C 2614.51 2.066 -0.00137559 0
M  V30 28333 C 2614.92 1.38779 1.28597 0
M  V30 28334 O 2614.26 0.469526 1.77598 0
M  V30 28335 C 2614.32 3.58312 0.292074 0
M  V30 28336 C 2613.99 4.48011 -0.901942 0
M  V30 28337 C 2614.98 4.87723 -1.80062 0
M  V30 28338 C 2612.67 4.89899 -1.10923 0
M  V30 28339 C 2614.66 5.68093 -2.89048 0
M  V30 28340 C 2612.35 5.7004 -2.20223 0
M  V30 28341 C 2613.35 6.09044 -3.09118 0
M  V30 28342 O 2613.04 6.87576 -4.16527 0
M  V30 28343 H 2612.77 0.675295 -0.0308594 0
M  V30 28344 H 2615.32 1.91747 -0.736369 0
M  V30 28345 H 2613.55 3.71282 1.08105 0
M  V30 28346 H 2615.24 3.98646 0.763924 0
M  V30 28347 H 2616.01 4.55983 -1.65242 0
M  V30 28348 H 2611.89 4.59022 -0.426578 0
M  V30 28349 H 2615.43 5.98457 -3.58461 0
M  V30 28350 H 2611.33 6.01193 -2.35026 0
M  V30 28351 H 2612.1 7.05932 -4.14249 0
M  V30 28352 N 2614.76 0.2662 1.55336 0
M  V30 28353 C 2616.01 -0.353714 1.98574 0
M  V30 28354 C 2616.32 -1.57644 1.15792 0
M  V30 28355 O 2617.53 -2.26873 1.49133 0
M  V30 28356 C 2615.98 -0.680685 3.53404 0
M  V30 28357 C 2615.59 0.521729 4.44952 0
M  V30 28358 C 2617.33 -1.26372 4.05254 0
M  V30 28359 C 2615.24 0.169839 5.91156 0
M  V30 28360 H 2614.17 -0.135936 0.741645 0
M  V30 28361 H 2616.82 0.369452 1.79742 0
M  V30 28362 H 2615.2 -1.46251 3.68004 0
M  V30 28363 H 2616.38 1.29877 4.42118 0
M  V30 28364 H 2614.69 1.021 4.03689 0
M  V30 28365 H 2617.29 -1.54065 5.12023 0
M  V30 28366 H 2617.63 -2.19465 3.53753 0
M  V30 28367 H 2618.17 -0.544378 3.94058 0
M  V30 28368 H 2614.91 1.06841 6.46734 0
M  V30 28369 H 2614.43 -0.570612 5.9708 0
M  V30 28370 H 2616.1 -0.241132 6.46551 0
M  V30 28371 N 2616.24 -1.57599 -0.0066531 0
M  V30 28372 C 2617.49 -1.89456 -0.692045 0
M  V30 28373 C 2617.8 -0.867617 -1.75305 0
M  V30 28374 O 2619 -1.07618 -2.4926 0
M  V30 28375 C 2617.46 -3.36291 -1.28204 0
M  V30 28376 C 2617.07 -4.47267 -0.256213 0
M  V30 28377 C 2618.81 -3.77267 -1.94601 0
M  V30 28378 C 2616.72 -5.85175 -0.855825 0
M  V30 28379 H 2615.65 -0.706927 -0.26224 0
M  V30 28380 H 2618.3 -1.83424 0.0528012 0
M  V30 28381 H 2616.68 -3.37139 -2.07734 0
M  V30 28382 H 2617.86 -4.57924 0.514003 0
M  V30 28383 H 2616.17 -4.15267 0.306935 0
M  V30 28384 H 2618.77 -4.77633 -2.40355 0
M  V30 28385 H 2619.11 -3.10432 -2.77376 0
M  V30 28386 H 2619.64 -3.7869 -1.21815 0
M  V30 28387 H 2616.38 -6.55466 -0.0670009 0
M  V30 28388 H 2615.9 -5.78194 -1.59535 0
M  V30 28389 H 2617.58 -6.32621 -1.35646 0
M  V30 28390 N 2617.72 0.279305 -1.55105 0
M  V30 28391 C 2618.96 1.00949 -1.7462 0
M  V30 28392 C 2619.28 1.87675 -0.551129 0
M  V30 28393 O 2620.48 2.64124 -0.628554 0
M  V30 28394 C 2618.94 1.84471 -3.09028 0
M  V30 28395 C 2618.55 1.02642 -4.36083 0
M  V30 28396 C 2620.29 2.56957 -3.37895 0
M  V30 28397 C 2618.2 1.85566 -5.61533 0
M  V30 28398 H 2617.13 0.380629 -0.650875 0
M  V30 28399 H 2619.78 0.265444 -1.8157 0
M  V30 28400 H 2618.16 2.62947 -2.961 0
M  V30 28401 H 2619.34 0.286273 -4.5991 0
M  V30 28402 H 2617.65 0.416391 -4.14313 0
M  V30 28403 H 2620.25 3.19391 -4.28828 0
M  V30 28404 H 2620.59 3.26916 -2.57743 0
M  V30 28405 H 2621.12 1.85516 -3.51893 0
M  V30 28406 H 2617.86 1.20039 -6.44415 0
M  V30 28407 H 2617.38 2.57195 -5.41859 0
M  V30 28408 H 2619.06 2.43086 -5.99598 0
M  V30 28409 N 2619.19 1.47931 0.543528 0
M  V30 28410 C 2620.42 1.59147 1.32992 0
M  V30 28411 C 2620.84 0.246989 1.86471 0
M  V30 28412 O 2620.2 -0.779295 1.63697 0
M  V30 28413 C 2620.25 2.63082 2.46618 0
M  V30 28414 O 2619.35 2.19301 3.49257 0
M  V30 28415 H 2618.69 0.534131 0.394462 0
M  V30 28416 H 2621.22 1.93817 0.655455 0
M  V30 28417 H 2621.23 2.83932 2.92996 0
M  V30 28418 H 2619.91 3.60697 2.07053 0
M  V30 28419 H 2618.49 2.08608 3.09091 0
M  V30 28420 N 2620.67 -0.791347 1.36292 0
M  V30 28421 C 2621.92 -1.54914 1.30414 0
M  V30 28422 C 2622.25 -1.94147 -0.117127 0
M  V30 28423 O 2621.5 -1.62805 -1.08596 0
M  V30 28424 C 2621.8 -2.83926 2.17073 0
M  V30 28425 C 2621.47 -2.6384 3.65649 0
M  V30 28426 C 2620.13 -2.5807 4.06145 0
M  V30 28427 C 2622.48 -2.45314 4.59859 0
M  V30 28428 C 2619.81 -2.31738 5.38994 0
M  V30 28429 C 2622.16 -2.2051 5.92923 0
M  V30 28430 C 2620.82 -2.13172 6.32546 0
M  V30 28431 H 2620.09 -0.56687 0.47722 0
M  V30 28432 H 2622.74 -0.913143 1.68327 0
M  V30 28433 H 2621.05 -3.51983 1.72091 0
M  V30 28434 H 2622.74 -3.41706 2.09852 0
M  V30 28435 H 2619.33 -2.69185 3.33523 0
M  V30 28436 H 2623.52 -2.48775 4.29447 0
M  V30 28437 H 2618.77 -2.24538 5.68676 0
M  V30 28438 H 2622.95 -2.0517 6.65491 0
M  V30 28439 H 2620.57 -1.92531 7.35415 0
M  V30 28440 N 2622.15 -1.2054 -1.01528 0
M  V30 28441 C 2623.08 -0.979333 -2.1197 0
M  V30 28442 C 2624.06 0.0921489 -1.6985 0
M  V30 28443 O 2625.25 -0.0656273 -1.94089 0
M  V30 28444 C 2622.38 -0.532044 -3.432 0
M  V30 28445 C 2621.33 -1.54692 -3.99067 0
M  V30 28446 C 2620.66 -0.95622 -5.2608 0
M  V30 28447 C 2621.96 -2.931 -4.32308 0
M  V30 28448 H 2623.65 -1.90302 -2.3114 0
M  V30 28449 H 2621.2 -0.916392 -1.11078 0
M  V30 28450 H 2623.15 -0.361118 -4.1985 0
M  V30 28451 H 2621.87 0.427271 -3.23793 0
M  V30 28452 H 2620.53 -1.70523 -3.24527 0
M  V30 28453 H 2620.18 0.0110654 -5.02999 0
M  V30 28454 H 2619.88 -1.63403 -5.64423 0
M  V30 28455 H 2621.4 -0.79639 -6.05384 0
M  V30 28456 H 2622.82 -2.80772 -4.9984 0
M  V30 28457 H 2621.21 -3.57799 -4.81767 0
M  V30 28458 H 2622.28 -3.44723 -3.41019 0
M  V30 28459 N 2623.63 1.20858 -1.01149 0
M  V30 28460 C 2624.87 1.90375 -0.698932 0
M  V30 28461 C 2625.21 1.78325 0.769009 0
M  V30 28462 O 2624.48 1.16412 1.55815 0
M  V30 28463 C 2624.76 3.41949 -1.12884 0
M  V30 28464 C 2624.62 3.62958 -2.65672 0
M  V30 28465 C 2625.94 4.34559 -0.69619 0
M  V30 28466 H 2623.06 0.691338 -0.255384 0
M  V30 28467 H 2625.7 1.42359 -1.25833 0
M  V30 28468 H 2623.85 3.82975 -0.652894 0
M  V30 28469 H 2625.52 3.31218 -3.2108 0
M  V30 28470 H 2623.76 3.06602 -3.06883 0
M  V30 28471 H 2624.43 4.69187 -2.90805 0
M  V30 28472 H 2626.91 4.01152 -1.10528 0
M  V30 28473 H 2625.79 5.39243 -1.02509 0
M  V30 28474 H 2626.05 4.40265 0.402388 0
M  V30 28475 N 2625.11 0.787064 1.3654 0
M  V30 28476 C 2626.35 0.358907 1.99599 0
M  V30 28477 C 2626.68 -1.06603 1.62325 0
M  V30 28478 O 2625.96 -1.73611 0.876889 0
M  V30 28479 C 2626.24 0.520006 3.56326 0
M  V30 28480 C 2626.1 1.98846 4.0346 0
M  V30 28481 C 2627.41 -0.0663964 4.4005 0
M  V30 28482 H 2624.53 0.131882 0.725104 0
M  V30 28483 H 2627.18 0.992964 1.61988 0
M  V30 28484 H 2625.33 -0.0197638 3.88495 0
M  V30 28485 H 2627 2.58911 3.81789 0
M  V30 28486 H 2625.24 2.4919 3.55087 0
M  V30 28487 H 2625.91 2.05216 5.12436 0
M  V30 28488 H 2628.39 0.394339 4.14227 0
M  V30 28489 H 2627.26 0.0763647 5.48847 0
M  V30 28490 H 2627.52 -1.15827 4.26657 0
M  V30 28491 N 2626.58 -1.48101 0.53888 0
M  V30 28492 C 2627.83 -2.02798 0.0080493 0
M  V30 28493 C 2628.16 -1.41426 -1.33087 0
M  V30 28494 O 2627.44 -0.563191 -1.86168 0
M  V30 28495 C 2627.72 -3.59948 -0.104526 0
M  V30 28496 C 2627.57 -4.31786 1.2602 0
M  V30 28497 C 2628.89 -4.3226 -0.826979 0
M  V30 28498 H 2626.01 -0.736987 0.0043992 0
M  V30 28499 H 2628.65 -1.76729 0.697631 0
M  V30 28500 H 2626.8 -3.8229 -0.691825 0
M  V30 28501 H 2628.48 -4.20837 1.88929 0
M  V30 28502 H 2626.72 -3.92856 1.83975 0
M  V30 28503 H 2627.39 -5.40219 1.13433 0
M  V30 28504 H 2629.87 -4.14801 -0.328505 0
M  V30 28505 H 2628.74 -5.41886 -0.874665 0
M  V30 28506 H 2629 -4.00173 -1.8792 0
M  V30 28507 N 2628.06 -0.274434 -1.55192 0
M  V30 28508 C 2629.01 0.629322 -2.23925 0
M  V30 28509 C 2630 1.15838 -1.23604 0
M  V30 28510 O 2631.21 1.11209 -1.41537 0
M  V30 28511 H 2627.58 0.221494 -0.718641 0
M  V30 28512 H 2629.56 0.0267798 -2.98388 0
M  V30 28513 C 2628.3 1.80246 -2.97332 0
M  V30 28514 H 2627.63 1.40455 -3.74316 0
M  V30 28515 H 2629.07 2.41146 -3.48747 0
M  V30 28516 C 2627.53 2.6905 -2.02765 0
M  V30 28517 O 2628.06 3.6939 -1.57842 0
M  V30 28518 N 2626.26 2.36205 -1.69279 0
M  V30 28519 H 2625.81 1.54658 -2.06007 0
M  V30 28520 H 2625.77 2.95893 -1.06276 0
M  V30 28521 N 2629.54 1.576 -0.00170483 0
M  V30 28522 C 2630.47 2.03978 1.02313 0
M  V30 28523 C 2631.45 0.929987 1.33379 0
M  V30 28524 O 2632.63 1.19824 1.45514 0
M  V30 28525 C 2629.76 2.43882 2.35031 0
M  V30 28526 C 2628.81 3.65611 2.19615 0
M  V30 28527 S 2629.64 5.13457 1.52059 0
M  V30 28528 C 2630.8 5.56632 2.86203 0
M  V30 28529 H 2631.03 2.90586 0.628234 0
M  V30 28530 H 2628.56 1.52976 0.209212 0
M  V30 28531 H 2630.52 2.6754 3.1134 0
M  V30 28532 H 2629.18 1.5767 2.7166 0
M  V30 28533 H 2628.37 3.91288 3.17663 0
M  V30 28534 H 2627.98 3.41964 1.51449 0
M  V30 28535 H 2630.27 5.59196 3.825 0
M  V30 28536 H 2631.21 6.56553 2.65223 0
M  V30 28537 H 2631.62 4.842 2.9019 0
M  V30 28538 N 2631.02 -0.271076 1.55251 0
M  V30 28539 C 2632.25 -1.01913 1.79715 0
M  V30 28540 C 2632.66 -1.80358 0.571645 0
M  V30 28541 O 2632 -1.77617 -0.468822 0
M  V30 28542 C 2632.06 -2.02354 2.97141 0
M  V30 28543 C 2631.72 -1.42829 4.34107 0
M  V30 28544 C 2632.72 -0.842981 5.1302 0
M  V30 28545 C 2630.41 -1.45492 4.80768 0
M  V30 28546 C 2632.4 -0.292221 6.3673 0
M  V30 28547 C 2630.09 -0.900295 6.04432 0
M  V30 28548 C 2631.09 -0.31995 6.8225 0
M  V30 28549 O 2630.77 0.226172 8.03582 0
M  V30 28550 H 2630.51 -0.30667 0.602436 0
M  V30 28551 H 2633.06 -0.306666 2.03098 0
M  V30 28552 H 2631.29 -2.77364 2.69455 0
M  V30 28553 H 2632.98 -2.63303 3.08911 0
M  V30 28554 H 2633.74 -0.815094 4.78102 0
M  V30 28555 H 2629.62 -1.89602 4.20205 0
M  V30 28556 H 2633.17 0.161397 6.97413 0
M  V30 28557 H 2629.06 -0.925429 6.38832 0
M  V30 28558 H 2629.83 0.115716 8.18418 0
M  V30 28559 N 2632.5 -1.48217 -0.535675 0
M  V30 28560 C 2633.75 -1.55199 -1.28825 0
M  V30 28561 C 2634.06 -0.228312 -1.94263 0
M  V30 28562 O 2635.26 -0.176326 -2.70927 0
M  V30 28563 C 2633.72 -2.73682 -2.33722 0
M  V30 28564 C 2633.33 -4.12669 -1.74379 0
M  V30 28565 C 2635.07 -2.89973 -3.10025 0
M  V30 28566 C 2632.98 -5.22421 -2.77182 0
M  V30 28567 H 2631.91 -0.577756 -0.484473 0
M  V30 28568 H 2634.56 -1.74539 -0.566429 0
M  V30 28569 H 2632.94 -2.47766 -3.08915 0
M  V30 28570 H 2634.12 -4.48581 -1.05413 0
M  V30 28571 H 2632.43 -4.01447 -1.10588 0
M  V30 28572 H 2635.03 -3.69137 -3.86836 0
M  V30 28573 H 2635.37 -1.99216 -3.65539 0
M  V30 28574 H 2635.9 -3.15764 -2.41947 0
M  V30 28575 H 2632.64 -6.15126 -2.26496 0
M  V30 28576 H 2632.16 -4.91004 -3.44493 0
M  V30 28577 H 2633.84 -5.50292 -3.40275 0
M  V30 28578 N 2633.97 0.784108 -1.3671 0
M  V30 28579 C 2634.94 1.87857 -1.3131 0
M  V30 28580 C 2635.94 1.59292 -0.219682 0
M  V30 28581 O 2637.13 1.67605 -0.47479 0
M  V30 28582 C 2634.26 3.24749 -1.03685 0
M  V30 28583 H 2635.45 1.9406 -2.2865 0
M  V30 28584 H 2633.01 0.982499 -1.21559 0
M  V30 28585 H 2633.74 3.24228 -0.0682506 0
M  V30 28586 H 2633.53 3.46872 -1.82817 0
M  V30 28587 H 2635.02 4.04819 -1.02526 0
M  V30 28588 N 2635.45 1.21076 1.00888 0
M  V30 28589 C 2636.7 1.02715 1.74864 0
M  V30 28590 C 2637.03 -0.438754 1.89179 0
M  V30 28591 O 2636.31 -1.32564 1.42327 0
M  V30 28592 C 2636.59 1.72041 3.16344 0
M  V30 28593 C 2636.44 3.26126 3.09777 0
M  V30 28594 C 2637.76 1.4598 4.15184 0
M  V30 28595 H 2634.88 0.37455 0.634729 0
M  V30 28596 H 2637.52 1.49198 1.17643 0
M  V30 28597 H 2635.67 1.32523 3.65198 0
M  V30 28598 H 2637.34 3.74988 2.68667 0
M  V30 28599 H 2635.59 3.5663 2.46976 0
M  V30 28600 H 2636.26 3.69797 4.09822 0
M  V30 28601 H 2638.73 1.80278 3.75019 0
M  V30 28602 H 2637.61 1.97008 5.12327 0
M  V30 28603 H 2637.87 0.389001 4.40385 0
M  V30 28604 N 2636.93 -1.2032 1.01789 0
M  V30 28605 C 2638.18 -1.89042 0.703283 0
M  V30 28606 C 2638.49 -1.79789 -0.770414 0
M  V30 28607 O 2639.7 -2.43658 -1.19763 0
M  V30 28608 C 2638.15 -3.39037 1.20755 0
M  V30 28609 C 2637.76 -3.56873 2.70824 0
M  V30 28610 C 2639.51 -4.13306 0.968425 0
M  V30 28611 C 2637.41 -5.00702 3.14724 0
M  V30 28612 H 2636.34 -0.707987 0.259366 0
M  V30 28613 H 2638.99 -1.36106 1.23074 0
M  V30 28614 H 2637.38 -3.91304 0.608057 0
M  V30 28615 H 2638.55 -3.14987 3.36333 0
M  V30 28616 H 2636.87 -2.95978 2.92893 0
M  V30 28617 H 2639.46 -5.19354 1.27183 0
M  V30 28618 H 2639.81 -4.16191 -0.0950759 0
M  V30 28619 H 2640.34 -3.67144 1.53135 0
M  V30 28620 H 2637.08 -5.02972 4.20356 0
M  V30 28621 H 2636.6 -5.43393 2.53936 0
M  V30 28622 H 2638.28 -5.69291 3.07436 0
M  V30 28623 N 2638.41 -0.794293 -1.3612 0
M  V30 28624 C 2639.34 -0.210369 -2.3255 0
M  V30 28625 C 2640.32 0.657359 -1.56885 0
M  V30 28626 O 2641.5 0.590174 -1.85015 0
M  V30 28627 C 2638.63 0.651759 -3.4113 0
M  V30 28628 C 2637.59 -0.11647 -4.27841 0
M  V30 28629 C 2636.91 0.866567 -5.27631 0
M  V30 28630 C 2638.21 -1.30846 -5.05645 0
M  V30 28631 H 2639.91 -1.01599 -2.81635 0
M  V30 28632 H 2637.45 -0.490005 -1.35407 0
M  V30 28633 H 2639.41 1.07023 -4.07583 0
M  V30 28634 H 2638.13 1.49013 -2.90624 0
M  V30 28635 H 2636.79 -0.515979 -3.62951 0
M  V30 28636 H 2636.44 1.70011 -4.73398 0
M  V30 28637 H 2636.14 0.356947 -5.86515 0
M  V30 28638 H 2637.66 1.28351 -5.96958 0
M  V30 28639 H 2639.08 -0.965492 -5.65112 0
M  V30 28640 H 2637.47 -1.75171 -5.73964 0
M  V30 28641 H 2638.54 -2.10136 -4.37002 0
M  V30 28642 N 2639.89 1.47813 -0.546727 0
M  V30 28643 C 2640.8 2.33656 0.210219 0
M  V30 28644 C 2641.81 1.4754 0.922387 0
M  V30 28645 O 2642.99 1.80489 0.89362 0
M  V30 28646 C 2640.05 3.24018 1.23342 0
M  V30 28647 C 2639.11 4.26018 0.529809 0
M  V30 28648 C 2638.35 5.12062 1.50426 0
M  V30 28649 O 2638.57 5.00374 2.73828 0
M  V30 28650 O 2637.5 5.92944 1.03449 0
M  V30 28651 H 2641.33 2.99661 -0.493658 0
M  V30 28652 H 2638.92 1.46202 -0.307452 0
M  V30 28653 H 2640.8 3.79864 1.82432 0
M  V30 28654 H 2639.47 2.60654 1.91941 0
M  V30 28655 H 2638.38 3.73961 -0.102013 0
M  V30 28656 H 2639.71 4.92067 -0.114536 0
M  V30 28657 N 2641.36 0.28266 1.55044 0
M  V30 28658 C 2642.31 -0.617438 2.24255 0
M  V30 28659 C 2643.31 -1.15181 1.24217 0
M  V30 28660 O 2644.51 -1.10456 1.42124 0
M  V30 28661 H 2640.89 -0.21768 0.719805 0
M  V30 28662 H 2642.86 -0.0109552 2.98398 0
M  V30 28663 C 2641.61 -1.78667 2.98284 0
M  V30 28664 H 2640.93 -1.38468 3.75055 0
M  V30 28665 H 2642.37 -2.39293 3.50021 0
M  V30 28666 C 2640.83 -2.67971 2.04189 0
M  V30 28667 O 2641.36 -3.68547 1.59799 0
M  V30 28668 N 2639.57 -2.35304 1.7053 0
M  V30 28669 H 2639.11 -1.53563 2.06824 0
M  V30 28670 H 2639.07 -2.95325 1.07844 0
M  V30 28671 N 2642.84 -1.57597 0.0100627 0
M  V30 28672 C 2644.09 -1.91001 -0.672667 0
M  V30 28673 C 2644.42 -0.884644 -1.73217 0
M  V30 28674 O 2643.67 0.10918 -1.95395 0
M  V30 28675 C 2643.97 -3.31155 -1.34429 0
M  V30 28676 C 2643.64 -4.48968 -0.417004 0
M  V30 28677 C 2642.3 -4.80928 -0.161725 0
M  V30 28678 C 2644.65 -5.20732 0.220845 0
M  V30 28679 C 2641.98 -5.82021 0.739528 0
M  V30 28680 C 2644.33 -6.22785 1.11003 0
M  V30 28681 C 2643 -6.53197 1.37439 0
M  V30 28682 H 2642.27 -0.698923 -0.246146 0
M  V30 28683 H 2644.91 -1.9138 0.0677482 0
M  V30 28684 H 2643.22 -3.26948 -2.15899 0
M  V30 28685 H 2644.91 -3.54265 -1.87877 0
M  V30 28686 H 2641.5 -4.24002 -0.626143 0
M  V30 28687 H 2645.69 -4.96286 0.0366515 0
M  V30 28688 H 2640.94 -6.03939 0.952245 0
M  V30 28689 H 2645.12 -6.7752 1.61058 0
M  V30 28690 H 2642.75 -7.31349 2.07443 0
M  V30 28691 N 2644.32 0.262839 -1.55393 0
M  V30 28692 C 2645.55 1.0153 -1.80849 0
M  V30 28693 C 2645.97 1.78773 -0.584978 0
M  V30 28694 O 2645.33 1.75218 0.465671 0
M  V30 28695 C 2645.38 1.94154 -3.0387 0
M  V30 28696 O 2644.48 3.03084 -2.79668 0
M  V30 28697 H 2643.82 0.289749 -0.597446 0
M  V30 28698 H 2646.35 0.288663 -2.02553 0
M  V30 28699 H 2646.36 2.35918 -3.32876 0
M  V30 28700 H 2645.04 1.37347 -3.92567 0
M  V30 28701 H 2643.61 2.65561 -2.61785 0
M  V30 28702 N 2645.8 1.48499 0.527807 0
M  V30 28703 C 2647.04 1.56859 1.28542 0
M  V30 28704 C 2647.38 0.242685 1.92678 0
M  V30 28705 O 2646.65 -0.751514 1.79395 0
M  V30 28706 C 2646.94 2.70843 2.3731 0
M  V30 28707 C 2646.79 4.13146 1.77851 0
M  V30 28708 C 2648.11 2.80579 3.39063 0
M  V30 28709 H 2645.23 0.570979 0.465996 0
M  V30 28710 H 2647.87 1.80681 0.587752 0
M  V30 28711 H 2646.02 2.50663 2.96817 0
M  V30 28712 H 2647.69 4.44771 1.22377 0
M  V30 28713 H 2645.93 4.20044 1.08375 0
M  V30 28714 H 2646.6 4.88725 2.56615 0
M  V30 28715 H 2649.08 2.98867 2.89513 0
M  V30 28716 H 2647.96 3.62058 4.1256 0
M  V30 28717 H 2648.22 1.88825 3.99747 0
M  V30 28718 N 2647.28 -0.776847 1.37123 0
M  V30 28719 C 2648.24 -1.87158 1.32304 0
M  V30 28720 C 2649.24 -1.59174 0.228127 0
M  V30 28721 O 2650.43 -1.67351 0.483672 0
M  V30 28722 C 2647.56 -3.24195 1.05406 0
M  V30 28723 H 2648.76 -1.92844 2.29676 0
M  V30 28724 H 2646.31 -0.976038 1.22079 0
M  V30 28725 H 2647.04 -3.24187 0.0854442 0
M  V30 28726 H 2646.83 -3.45898 1.84654 0
M  V30 28727 H 2648.32 -4.04269 1.04671 0
M  V30 28728 N 2648.76 -1.2161 -1.00244 0
M  V30 28729 C 2649.98 -1.06092 -1.77629 0
M  V30 28730 C 2650.4 0.389127 -1.84746 0
M  V30 28731 O 2649.76 1.26991 -1.3107 0
M  V30 28732 C 2649.81 -1.65459 -3.21412 0
M  V30 28733 O 2649.53 -3.0479 -3.14698 0
M  V30 28734 C 2651.03 -1.55087 -4.15287 0
M  V30 28735 H 2648.25 -0.372429 -0.558155 0
M  V30 28736 H 2650.79 -1.61001 -1.2609 0
M  V30 28737 H 2648.95 -1.14635 -3.70051 0
M  V30 28738 H 2649.36 -3.33219 -4.0505 0
M  V30 28739 H 2650.84 -2.01364 -5.13962 0
M  V30 28740 H 2651.31 -0.505742 -4.36278 0
M  V30 28741 H 2651.92 -2.0517 -3.72539 0
M  V30 28742 N 2650.23 1.19778 -1.02425 0
M  V30 28743 C 2651.14 2.26505 -0.610958 0
M  V30 28744 C 2652.16 1.70338 0.355122 0
M  V30 28745 O 2653.34 2.00258 0.21416 0
M  V30 28746 C 2650.4 3.46681 0.0365312 0
M  V30 28747 C 2649.46 4.18047 -0.976463 0
M  V30 28748 C 2648.69 5.32486 -0.359777 0
M  V30 28749 O 2648.92 5.64203 0.838501 0
M  V30 28750 O 2647.85 5.92126 -1.08032 0
M  V30 28751 H 2651.68 2.64089 -1.49969 0
M  V30 28752 H 2649.26 1.26543 -0.794178 0
M  V30 28753 H 2651.14 4.19518 0.397786 0
M  V30 28754 H 2649.82 3.10956 0.899344 0
M  V30 28755 H 2648.73 3.47349 -1.38922 0
M  V30 28756 H 2650.06 4.57732 -1.80949 0
M  V30 28757 N 2651.71 0.801501 1.35697 0
M  V30 28758 C 2652.62 0.209732 2.33661 0
M  V30 28759 C 2653.64 -0.644562 1.61621 0
M  V30 28760 O 2654.81 -0.557511 1.9353 0
M  V30 28761 C 2651.88 -0.635973 3.40817 0
M  V30 28762 C 2650.94 0.238222 4.28639 0
M  V30 28763 C 2650.17 -0.567214 5.30677 0
M  V30 28764 O 2650.4 -1.8023 5.41178 0
M  V30 28765 O 2649.33 0.0392394 6.01887 0
M  V30 28766 H 2653.16 1.02001 2.86059 0
M  V30 28767 H 2650.74 0.563188 1.38378 0
M  V30 28768 H 2652.62 -1.11783 4.06303 0
M  V30 28769 H 2651.3 -1.42394 2.90699 0
M  V30 28770 H 2650.2 0.767109 3.66151 0
M  V30 28771 H 2651.54 0.99 4.82141 0
M  V30 28772 N 2653.19 -1.47521 0.554558 0
M  V30 28773 C 2654.41 -2.07375 0.0323025 0
M  V30 28774 C 2654.84 -1.4049 -1.25077 0
M  V30 28775 O 2654.2 -0.47899 -1.74858 0
M  V30 28776 C 2654.25 -3.60291 -0.149334 0
M  V30 28777 O 2653.35 -3.94172 -1.21252 0
M  V30 28778 H 2652.69 -0.662105 0.0501345 0
M  V30 28779 H 2655.22 -1.89579 0.769485 0
M  V30 28780 H 2655.23 -4.0637 -0.364365 0
M  V30 28781 H 2653.91 -4.0837 0.787815 0
M  V30 28782 H 2652.48 -3.59842 -0.978187 0
M  V30 28783 N 2654.67 -0.290879 -1.54892 0
M  V30 28784 C 2655.63 0.576745 -2.21825 0
M  V30 28785 C 2656.63 1.06917 -1.20106 0
M  V30 28786 O 2657.82 0.966817 -1.44908 0
M  V30 28787 C 2654.95 1.79742 -2.89665 0
M  V30 28788 H 2656.15 -0.00789323 -2.99899 0
M  V30 28789 H 2653.7 -0.0416208 -1.56245 0
M  V30 28790 H 2654.43 2.42215 -2.15644 0
M  V30 28791 H 2654.22 1.45208 -3.64221 0
M  V30 28792 H 2655.71 2.41404 -3.40755 0
M  V30 28793 N 2656.15 1.57589 -0.0184203 0
M  V30 28794 C 2657.06 2.13017 0.982906 0
M  V30 28795 C 2658.07 1.07981 1.36441 0
M  V30 28796 O 2659.25 1.39982 1.448 0
M  V30 28797 C 2656.31 2.63756 2.25019 0
M  V30 28798 C 2655.37 3.83465 1.93011 0
M  V30 28799 C 2654.61 4.31775 3.13698 0
M  V30 28800 O 2654.83 3.79312 4.26003 0
M  V30 28801 O 2653.76 5.23737 2.9662 0
M  V30 28802 H 2657.59 2.98831 0.541656 0
M  V30 28803 H 2655.17 1.48034 0.201539 0
M  V30 28804 H 2657.06 2.96507 2.99435 0
M  V30 28805 H 2655.73 1.8103 2.68346 0
M  V30 28806 H 2654.64 3.55657 1.16013 0
M  V30 28807 H 2655.97 4.6732 1.54508 0
M  V30 28808 N 2657.62 -0.254594 1.5553 0
M  V30 28809 C 2659.03 -0.824256 1.6752 0
M  V30 28810 C 2659.39 -1.8633 0.614462 0
M  V30 28811 O 2658.51 -2.15057 -0.240698 0
M  V30 28812 C 2659.11 -1.50184 3.03694 0
M  V30 28813 C 2657.66 -2.01929 3.1765 0
M  V30 28814 C 2656.81 -0.8677 2.63375 0
M  V30 28815 H 2659.76 -0.0305564 1.58671 0
M  V30 28816 H 2659.78 -2.36957 2.9771 0
M  V30 28817 H 2659.3 -0.745364 3.80875 0
M  V30 28818 H 2657.4 -2.80481 2.45278 0
M  V30 28819 H 2657.51 -2.22196 4.24459 0
M  V30 28820 H 2655.87 -1.26612 2.21001 0
M  V30 28821 H 2656.66 -0.124437 3.43074 0
M  V30 28822 N 2659.1 -1.48777 -0.519925 0
M  V30 28823 C 2660.03 -1.66948 -1.6325 0
M  V30 28824 C 2661.01 -0.518252 -1.62013 0
M  V30 28825 O 2662.2 -0.75195 -1.79051 0
M  V30 28826 C 2659.33 -1.71842 -3.01807 0
M  V30 28827 C 2658.28 -2.86566 -3.17906 0
M  V30 28828 C 2657.61 -2.76556 -4.57625 0
M  V30 28829 C 2658.91 -4.27743 -2.99722 0
M  V30 28830 H 2660.6 -2.60093 -1.48298 0
M  V30 28831 H 2658.15 -1.25166 -0.712004 0
M  V30 28832 H 2660.1 -1.83142 -3.79522 0
M  V30 28833 H 2658.82 -0.752831 -3.17805 0
M  V30 28834 H 2657.48 -2.74837 -2.42611 0
M  V30 28835 H 2657.13 -1.77946 -4.70472 0
M  V30 28836 H 2656.83 -3.53545 -4.6934 0
M  V30 28837 H 2658.36 -2.89838 -5.37426 0
M  V30 28838 H 2659.77 -4.40252 -3.67221 0
M  V30 28839 H 2658.17 -5.05807 -3.22923 0
M  V30 28840 H 2659.24 -4.43505 -1.96039 0
M  V30 28841 N 2660.58 0.769564 -1.37534 0
M  V30 28842 C 2661.8 1.56381 -1.36234 0
M  V30 28843 C 2662.23 1.88035 0.0495519 0
M  V30 28844 O 2661.59 1.49393 1.0272 0
M  V30 28845 C 2661.64 2.84948 -2.20991 0
M  V30 28846 O 2660.74 3.79418 -1.61604 0
M  V30 28847 H 2660.08 0.473607 -0.465395 0
M  V30 28848 H 2662.61 0.95231 -1.81086 0
M  V30 28849 H 2662.62 3.34029 -2.34283 0
M  V30 28850 H 2661.3 2.61238 -3.23617 0
M  V30 28851 H 2659.87 3.38069 -1.57365 0
M  V30 28852 N 2662.06 1.22139 0.995977 0
M  V30 28853 C 2662.97 1.005 2.11983 0
M  V30 28854 C 2663.98 -0.0457395 1.7394 0
M  V30 28855 O 2665.16 0.146309 2.00868 0
M  V30 28856 C 2662.23 0.582146 3.41778 0
M  V30 28857 C 2661.29 1.70615 3.9394 0
M  V30 28858 C 2660.52 1.30337 5.1754 0
M  V30 28859 O 2660.74 0.180843 5.70113 0
M  V30 28860 O 2659.68 2.1187 5.63378 0
M  V30 28861 H 2663.5 1.94651 2.3312 0
M  V30 28862 H 2661.09 1.00707 1.10356 0
M  V30 28863 H 2662.97 0.356541 4.19889 0
M  V30 28864 H 2661.64 -0.330536 3.22008 0
M  V30 28865 H 2660.55 1.98625 3.17016 0
M  V30 28866 H 2661.88 2.59658 4.18137 0
M  V30 28867 N 2663.54 -1.19233 1.03059 0
M  V30 28868 C 2664.81 -1.84742 0.642641 0
M  V30 28869 C 2665.19 -1.9195 -0.878544 0
M  V30 28870 O 2664.54 -1.43779 -1.77595 0
M  V30 28871 C 2664.75 -3.23614 1.30671 0
M  V30 28872 C 2666.1 -3.99757 1.43105 0
M  V30 28873 O 2667.12 -3.33018 1.26402 0
M  V30 28874 O 2665.98 -5.1931 1.70232 0
M  V30 28875 H 2663.08 -0.796202 0.223587 0
M  V30 28876 H 2665.62 -1.26709 1.12885 0
M  V30 28877 H 2664.39 -3.13212 2.3455 0
M  V30 28878 H 2664.02 -3.89294 0.808473 0
M  V30 28879 N 2665.01 -0.808686 -1.3527 0
M  V30 28880 C 2666.29 -0.313215 -1.93076 0
M  V30 28881 C 2666.67 1.19749 -1.73849 0
M  V30 28882 O 2666.02 1.99798 -1.10874 0
M  V30 28883 C 2666.23 -0.726919 -3.41346 0
M  V30 28884 C 2667.58 -0.717606 -4.18492 0
M  V30 28885 O 2668.6 -0.668596 -3.49869 0
M  V30 28886 O 2667.46 -0.777874 -5.40936 0
M  V30 28887 H 2664.55 -0.0824162 -0.822883 0
M  V30 28888 H 2667.1 -0.892524 -1.44333 0
M  V30 28889 H 2665.87 -1.76804 -3.49079 0
M  V30 28890 H 2665.5 -0.122531 -3.97411 0
M  V30 28891 N 2666.49 1.47225 -0.562374 0
M  V30 28892 C 2667.74 2.0246 -0.0402521 0
M  V30 28893 C 2668.07 1.43616 1.31166 0
M  V30 28894 O 2667.32 0.583333 1.86804 0
M  V30 28895 C 2667.62 3.57269 0.0969189 0
M  V30 28896 C 2667.29 4.35056 -1.18477 0
M  V30 28897 C 2665.95 4.56028 -1.53596 0
M  V30 28898 C 2668.3 4.79878 -2.03387 0
M  V30 28899 C 2665.63 5.19072 -2.73462 0
M  V30 28900 C 2667.98 5.44245 -3.2246 0
M  V30 28901 C 2666.65 5.63449 -3.57885 0
M  V30 28902 H 2665.92 0.740854 -0.0147293 0
M  V30 28903 H 2668.56 1.76836 -0.734926 0
M  V30 28904 H 2666.87 3.81914 0.874593 0
M  V30 28905 H 2668.56 3.97662 0.516338 0
M  V30 28906 H 2665.15 4.19015 -0.901334 0
M  V30 28907 H 2669.34 4.6345 -1.77561 0
M  V30 28908 H 2664.59 5.32133 -3.01071 0
M  V30 28909 H 2668.77 5.77938 -3.88536 0
M  V30 28910 H 2666.4 6.1207 -4.50859 0
M  V30 28911 N 2667.97 0.299089 1.54736 0
M  V30 28912 C 2668.88 -0.587373 2.27128 0
M  V30 28913 C 2669.9 -1.15003 1.30577 0
M  V30 28914 O 2671.07 -1.17522 1.63556 0
M  V30 28915 C 2668.14 -1.7439 2.99648 0
M  V30 28916 C 2667.2 -1.21551 4.11733 0
M  V30 28917 C 2666.43 -2.31692 4.80786 0
M  V30 28918 O 2666.65 -3.51551 4.49186 0
M  V30 28919 O 2665.59 -1.98491 5.6823 0
M  V30 28920 H 2669.41 -0.000196726 3.037 0
M  V30 28921 H 2667 0.0656181 1.49256 0
M  V30 28922 H 2668.88 -2.41774 3.45142 0
M  V30 28923 H 2667.56 -2.31771 2.25973 0
M  V30 28924 H 2666.46 -0.507449 3.70642 0
M  V30 28925 H 2667.8 -0.687147 4.8738 0
M  V30 28926 N 2669.45 -1.57577 0.0267774 0
M  V30 28927 C 2670.38 -2.0558 -0.990553 0
M  V30 28928 C 2671.36 -0.951088 -1.31883 0
M  V30 28929 O 2672.54 -1.22124 -1.4359 0
M  V30 28930 C 2669.67 -2.4759 -2.31121 0
M  V30 28931 C 2668.72 -3.69059 -2.1377 0
M  V30 28932 S 2669.55 -5.15811 -1.43871 0
M  V30 28933 C 2670.71 -5.61115 -2.77311 0
M  V30 28934 H 2670.94 -2.91549 -0.581925 0
M  V30 28935 H 2668.47 -1.53289 -0.184849 0
M  V30 28936 H 2670.43 -2.72459 -3.07044 0
M  V30 28937 H 2669.09 -1.61972 -2.69117 0
M  V30 28938 H 2668.28 -3.96292 -3.11398 0
M  V30 28939 H 2667.89 -3.4433 -1.4599 0
M  V30 28940 H 2670.18 -5.65211 -3.73555 0
M  V30 28941 H 2671.12 -6.6069 -2.54745 0
M  V30 28942 H 2671.53 -4.88756 -2.8245 0
M  V30 28943 N 2670.93 0.246342 -1.55663 0
M  V30 28944 C 2672.17 0.974304 -1.77521 0
M  V30 28945 C 2672.5 1.85297 -0.591198 0
M  V30 28946 O 2671.76 1.91019 0.425463 0
M  V30 28947 C 2672.06 1.86489 -3.04888 0
M  V30 28948 C 2671.72 1.14153 -4.36211 0
M  V30 28949 C 2670.38 0.941618 -4.71897 0
M  V30 28950 C 2672.74 0.628867 -5.17392 0
M  V30 28951 C 2670.06 0.216749 -5.86299 0
M  V30 28952 C 2672.42 -0.0825385 -6.32546 0
M  V30 28953 C 2671.08 -0.293925 -6.66853 0
M  V30 28954 H 2670.35 0.356523 -0.649594 0
M  V30 28955 H 2673 0.24436 -1.89935 0
M  V30 28956 H 2671.3 2.66191 -2.87488 0
M  V30 28957 H 2673 2.42984 -3.18998 0
M  V30 28958 H 2669.59 1.30729 -4.08176 0
M  V30 28959 H 2673.77 0.770857 -4.90277 0
M  V30 28960 H 2669.03 0.0425049 -6.11385 0
M  V30 28961 H 2673.2 -0.487415 -6.94692 0
M  V30 28962 H 2670.83 -0.857561 -7.55348 0
M  V30 28963 N 2672.4 1.4905 0.512027 0
M  V30 28964 C 2673.63 1.61437 1.28926 0
M  V30 28965 C 2674.04 0.28068 1.87106 0
M  V30 28966 O 2673.39 -0.742508 1.68025 0
M  V30 28967 C 2673.45 2.61593 2.46596 0
M  V30 28968 C 2673.11 4.06219 2.09368 0
M  V30 28969 C 2674.11 4.93361 1.63985 0
M  V30 28970 C 2671.79 4.5188 2.1934 0
M  V30 28971 C 2673.79 6.24196 1.29065 0
M  V30 28972 C 2671.47 5.82731 1.84031 0
M  V30 28973 C 2672.47 6.68713 1.38967 0
M  V30 28974 O 2672.16 7.97127 1.0413 0
M  V30 28975 H 2671.89 0.546666 0.397658 0
M  V30 28976 H 2674.45 1.95741 0.622473 0
M  V30 28977 H 2672.68 2.22446 3.16314 0
M  V30 28978 H 2674.37 2.63624 3.08638 0
M  V30 28979 H 2675.13 4.59316 1.55736 0
M  V30 28980 H 2671.01 3.8513 2.5337 0
M  V30 28981 H 2674.55 6.91263 0.938182 0
M  V30 28982 H 2670.45 6.16307 1.91927 0
M  V30 28983 H 2671.22 8.10041 1.17373 0
M  V30 28984 N 2673.88 -0.762259 1.3794 0
M  V30 28985 C 2674.79 -1.90669 1.36684 0
M  V30 28986 C 2675.81 -1.71969 0.265108 0
M  V30 28987 O 2676.98 -1.95041 0.502089 0
M  V30 28988 C 2674.05 -3.25923 1.18217 0
M  V30 28989 C 2673.11 -3.5721 2.38116 0
M  V30 28990 C 2672.34 -4.86011 2.20521 0
M  V30 28991 O 2672.57 -5.57755 1.19439 0
M  V30 28992 O 2671.5 -5.16577 3.0892 0
M  V30 28993 H 2675.33 -1.94681 2.33095 0
M  V30 28994 H 2672.91 -0.906335 1.18768 0
M  V30 28995 H 2674.79 -4.06805 1.09944 0
M  V30 28996 H 2673.47 -3.22742 0.248864 0
M  V30 28997 H 2672.38 -2.76524 2.51963 0
M  V30 28998 H 2673.71 -3.65143 3.30047 0
M  V30 28999 N 2675.36 -1.22666 -0.989486 0
M  V30 29000 C 2676.61 -1.05484 -1.73208 0
M  V30 29001 C 2676.94 0.408602 -1.89853 0
M  V30 29002 O 2676.21 1.30283 -1.44418 0
M  V30 29003 C 2676.5 -1.77052 -3.13567 0
M  V30 29004 C 2676.35 -3.31013 -3.04549 0
M  V30 29005 C 2677.67 -1.52567 -4.12809 0
M  V30 29006 H 2674.79 -0.3846 -0.62869 0
M  V30 29007 H 2677.43 -1.51051 -1.15255 0
M  V30 29008 H 2675.58 -1.38317 -3.63044 0
M  V30 29009 H 2677.25 -3.79215 -2.62667 0
M  V30 29010 H 2675.5 -3.60514 -2.41271 0
M  V30 29011 H 2676.17 -3.7627 -4.03887 0
M  V30 29012 H 2678.64 -1.86222 -3.72103 0
M  V30 29013 H 2677.52 -2.05133 -5.09128 0
M  V30 29014 H 2677.78 -0.459014 -4.39711 0
M  V30 29015 N 2676.84 1.18685 -1.0369 0
M  V30 29016 C 2678.09 1.89111 -0.748914 0
M  V30 29017 C 2678.44 1.78609 0.715313 0
M  V30 29018 O 2677.73 1.17301 1.51496 0
M  V30 29019 C 2677.93 3.38568 -1.14483 0
M  V30 29020 C 2677.76 3.63616 -2.646 0
M  V30 29021 C 2676.53 3.81194 -3.31691 0
M  V30 29022 C 2678.72 3.64511 -3.62817 0
M  V30 29023 N 2676.71 3.93946 -4.70829 0
M  V30 29024 C 2678.08 3.82931 -4.8761 0
M  V30 29025 C 2680.13 3.47579 -3.56501 0
M  V30 29026 C 2678.84 3.86173 -6.06847 0
M  V30 29027 C 2680.86 3.52102 -4.75161 0
M  V30 29028 C 2680.22 3.71015 -5.98771 0
M  V30 29029 H 2676.32 0.710789 -0.326042 0
M  V30 29030 H 2678.91 1.42583 -1.32582 0
M  V30 29031 H 2677.08 3.83799 -0.596041 0
M  V30 29032 H 2678.81 3.96547 -0.808256 0
M  V30 29033 H 2675.56 3.80418 -2.82098 0
M  V30 29034 H 2675.99 4.04153 -5.43129 0
M  V30 29035 H 2680.63 3.31906 -2.61913 0
M  V30 29036 H 2678.35 4.00636 -7.01795 0
M  V30 29037 H 2681.93 3.40281 -4.71911 0
M  V30 29038 H 2680.81 3.744 -6.89053 0
M  V30 29039 N 2678.32 0.815849 1.34839 0
M  V30 29040 C 2679.23 0.234503 2.33425 0
M  V30 29041 C 2680.24 -0.627384 1.62296 0
M  V30 29042 O 2681.42 -0.536953 1.9411 0
M  V30 29043 C 2678.48 -0.599789 3.41472 0
M  V30 29044 C 2677.55 0.283671 4.28362 0
M  V30 29045 C 2676.78 -0.510897 5.31249 0
M  V30 29046 O 2677 -1.7448 5.43059 0
M  V30 29047 O 2675.94 0.103075 6.01812 0
M  V30 29048 H 2679.76 1.05029 2.84961 0
M  V30 29049 H 2677.35 0.577834 1.37773 0
M  V30 29050 H 2679.23 -1.07468 4.07466 0
M  V30 29051 H 2677.9 -1.39302 2.92193 0
M  V30 29052 H 2676.81 0.805901 3.65316 0
M  V30 29053 H 2678.14 1.04108 4.81064 0
M  V30 29054 N 2679.8 -1.46924 0.570174 0
M  V30 29055 C 2680.74 -2.30171 -0.170217 0
M  V30 29056 C 2681.71 -1.39856 -0.896074 0
M  V30 29057 O 2682.9 -1.68812 -0.889218 0
M  V30 29058 C 2680.04 -3.24081 -1.18599 0
M  V30 29059 C 2679.15 -4.29491 -0.464871 0
M  V30 29060 C 2678.29 -5.10539 -1.46707 0
M  V30 29061 C 2677.32 -6.07712 -0.731651 0
M  V30 29062 N 2676.46 -6.81672 -1.6813 0
M  V30 29063 H 2681.3 -2.9296 0.545765 0
M  V30 29064 H 2678.84 -1.44392 0.280963 0
M  V30 29065 H 2680.8 -3.7696 -1.78765 0
M  V30 29066 H 2679.43 -2.63129 -1.86984 0
M  V30 29067 H 2678.48 -3.79567 0.251573 0
M  V30 29068 H 2679.79 -4.98677 0.110636 0
M  V30 29069 H 2678.94 -5.67634 -2.14189 0
M  V30 29070 H 2677.68 -4.41285 -2.0765 0
M  V30 29071 H 2676.69 -5.49783 -0.042982 0
M  V30 29072 H 2677.91 -6.7898 -0.127784 0
M  V30 29073 H 2675.86 -6.15138 -2.27907 0
M  V30 29074 H 2675.78 -7.47074 -1.15828 0
M  V30 29075 H 2677.04 -7.43332 -2.34687 0
M  V30 29076 N 2681.27 -0.307291 -1.54575 0
M  V30 29077 C 2682.52 0.300132 -2.00263 0
M  V30 29078 C 2682.85 1.53411 -1.19564 0
M  V30 29079 O 2682.1 1.93945 -0.261521 0
M  V30 29080 C 2682.4 0.695191 -3.50574 0
M  V30 29081 C 2682.07 -0.437758 -4.4877 0
M  V30 29082 C 2680.73 -0.748765 -4.75339 0
M  V30 29083 C 2683.08 -1.19958 -5.07208 0
M  V30 29084 C 2680.41 -1.8246 -5.57607 0
M  V30 29085 C 2682.76 -2.26538 -5.90647 0
M  V30 29086 C 2681.43 -2.58238 -6.15524 0
M  V30 29087 H 2680.7 0.109826 -0.732816 0
M  V30 29088 H 2683.34 -0.427694 -1.86663 0
M  V30 29089 H 2681.65 1.5032 -3.61817 0
M  V30 29090 H 2683.35 1.17646 -3.83354 0
M  V30 29091 H 2679.94 -0.185262 -4.28199 0
M  V30 29092 H 2684.12 -0.97256 -4.86677 0
M  V30 29093 H 2679.38 -2.07486 -5.75117 0
M  V30 29094 H 2683.55 -2.86022 -6.34952 0
M  V30 29095 H 2681.18 -3.41732 -6.7906 0
M  V30 29096 N 2682.75 1.57561 -0.0351337 0
M  V30 29097 C 2684.03 1.83356 0.68118 0
M  V30 29098 C 2684.41 0.920286 1.89984 0
M  V30 29099 O 2683.76 -0.0226414 2.28489 0
M  V30 29100 C 2683.97 3.32713 1.0537 0
M  V30 29101 C 2685.31 3.99335 1.44279 0
M  V30 29102 O 2686.34 3.37244 1.14651 0
M  V30 29103 O 2685.2 5.08781 1.99509 0
M  V30 29104 H 2682.29 0.756232 0.334728 0
M  V30 29105 H 2684.84 1.69582 -0.0632746 0
M  V30 29106 H 2683.61 3.90855 0.1866 0
M  V30 29107 H 2683.23 3.51616 1.85612 0
M  V30 29108 N 2684.23 -0.238084 1.55791 0
M  V30 29109 C 2685.64 -0.806442 1.68385 0
M  V30 29110 C 2685.99 -1.85668 0.63419 0
M  V30 29111 O 2685.12 -2.153 -0.217875 0
M  V30 29112 C 2685.71 -1.46954 3.0527 0
M  V30 29113 C 2684.27 -1.98549 3.19774 0
M  V30 29114 C 2683.42 -0.839716 2.6428 0
M  V30 29115 H 2686.37 -0.0137256 1.58694 0
M  V30 29116 H 2686.39 -2.33786 3.00207 0
M  V30 29117 H 2685.9 -0.704925 3.81644 0
M  V30 29118 H 2684 -2.77864 2.48239 0
M  V30 29119 H 2684.12 -2.17682 4.26792 0
M  V30 29120 H 2682.48 -1.24261 2.22332 0
M  V30 29121 H 2683.26 -0.0880429 3.43187 0
M  V30 29122 N 2685.71 -1.4932 -0.504115 0
M  V30 29123 C 2686.98 -1.49149 -1.26546 0
M  V30 29124 C 2687.36 -0.217477 -2.09977 0
M  V30 29125 O 2686.71 0.800232 -2.14029 0
M  V30 29126 C 2686.92 -2.7686 -2.12484 0
M  V30 29127 C 2688.27 -3.26226 -2.71775 0
M  V30 29128 O 2689.29 -2.77956 -2.22753 0
M  V30 29129 O 2688.15 -4.10287 -3.61008 0
M  V30 29130 H 2685.25 -0.596817 -0.572485 0
M  V30 29131 H 2687.79 -1.6158 -0.518642 0
M  V30 29132 H 2686.57 -3.61079 -1.50789 0
M  V30 29133 H 2686.19 -2.67275 -2.94364 0
M  V30 29134 N 2687.19 0.754933 -1.38342 0
M  V30 29135 C 2688.15 1.8503 -1.35265 0
M  V30 29136 C 2689.15 1.5879 -0.253421 0
M  V30 29137 O 2690.34 1.6656 -0.510235 0
M  V30 29138 C 2687.47 3.22477 -1.1055 0
M  V30 29139 H 2688.66 1.89166 -2.32715 0
M  V30 29140 H 2686.22 0.956493 -1.23616 0
M  V30 29141 H 2686.95 3.2401 -0.137009 0
M  V30 29142 H 2686.74 3.42917 -1.90133 0
M  V30 29143 H 2688.23 4.02553 -1.11089 0
M  V30 29144 N 2688.66 1.23189 0.982967 0
M  V30 29145 C 2689.89 1.08904 1.75919 0
M  V30 29146 C 2690.31 -0.359686 1.85342 0
M  V30 29147 O 2689.66 -1.2489 1.33074 0
M  V30 29148 C 2689.71 1.70551 3.18739 0
M  V30 29149 O 2689.44 3.09758 3.09809 0
M  V30 29150 C 2690.94 1.61674 4.12767 0
M  V30 29151 H 2688.16 0.381262 0.55216 0
M  V30 29152 H 2690.7 1.62987 1.23513 0
M  V30 29153 H 2688.86 1.20508 3.6818 0
M  V30 29154 H 2689.27 3.39621 3.99697 0
M  V30 29155 H 2690.74 2.09515 5.10693 0
M  V30 29156 H 2691.22 0.575086 4.35419 0
M  V30 29157 H 2691.83 2.11071 3.69228 0
M  V30 29158 N 2690.14 -1.18133 1.04318 0
M  V30 29159 C 2691.07 -2.21356 0.594483 0
M  V30 29160 C 2692.09 -1.5927 -0.337187 0
M  V30 29161 O 2693.28 -1.78016 -0.131306 0
M  V30 29162 C 2690.38 -3.38563 -0.151191 0
M  V30 29163 C 2689.55 -4.30225 0.788982 0
M  V30 29164 C 2688.61 -5.26129 0.0861497 0
M  V30 29165 O 2687.63 -5.64661 0.717401 0
M  V30 29166 N 2688.84 -5.68389 -1.17959 0
M  V30 29167 H 2691.6 -2.60476 1.48231 0
M  V30 29168 H 2689.16 -1.32944 0.923983 0
M  V30 29169 H 2691.15 -3.99746 -0.631282 0
M  V30 29170 H 2689.72 -2.98114 -0.940586 0
M  V30 29171 H 2688.94 -3.66608 1.44888 0
M  V30 29172 H 2690.23 -4.88365 1.42747 0
M  V30 29173 H 2689.63 -5.39143 -1.71293 0
M  V30 29174 H 2688.19 -6.31758 -1.60391 0
M  V30 29175 N 2691.62 -0.822988 -1.34405 0
M  V30 29176 C 2692.87 -0.411092 -1.98283 0
M  V30 29177 C 2693.2 1.02585 -1.65247 0
M  V30 29178 O 2692.45 1.72927 -0.91622 0
M  V30 29179 C 2692.75 -0.56033 -3.5298 0
M  V30 29180 C 2692.42 -1.963 -4.05927 0
M  V30 29181 C 2691.08 -2.34671 -4.20099 0
M  V30 29182 C 2693.43 -2.87993 -4.34407 0
M  V30 29183 C 2690.76 -3.6407 -4.60076 0
M  V30 29184 C 2693.11 -4.16855 -4.7583 0
M  V30 29185 C 2691.77 -4.55203 -4.88207 0
M  V30 29186 H 2691.04 -0.150429 -0.72557 0
M  V30 29187 H 2693.69 -1.04695 -1.60347 0
M  V30 29188 H 2692 0.158913 -3.91478 0
M  V30 29189 H 2693.69 -0.222157 -4.00384 0
M  V30 29190 H 2690.28 -1.65494 -3.9536 0
M  V30 29191 H 2694.47 -2.59591 -4.22997 0
M  V30 29192 H 2689.72 -3.93608 -4.67849 0
M  V30 29193 H 2693.9 -4.87993 -4.96826 0
M  V30 29194 H 2691.52 -5.55521 -5.18942 0
M  V30 29195 N 2693.1 1.4662 -0.577957 0
M  V30 29196 C 2694.03 2.27266 0.206272 0
M  V30 29197 C 2695.01 1.35335 0.901282 0
M  V30 29198 O 2696.19 1.64741 0.916122 0
M  V30 29199 C 2693.32 3.12942 1.29557 0
M  V30 29200 C 2692.37 4.20601 0.706907 0
M  V30 29201 S 2693.2 5.33499 -0.462552 0
M  V30 29202 C 2694.36 6.22741 0.628062 0
M  V30 29203 H 2694.59 2.93432 -0.478012 0
M  V30 29204 H 2692.12 1.5003 -0.364741 0
M  V30 29205 H 2694.08 3.62869 1.91928 0
M  V30 29206 H 2692.74 2.46098 1.95178 0
M  V30 29207 H 2691.93 4.80357 1.52556 0
M  V30 29208 H 2691.54 3.73662 0.158957 0
M  V30 29209 H 2693.83 6.60345 1.51494 0
M  V30 29210 H 2694.77 7.08068 0.0673716 0
M  V30 29211 H 2695.18 5.56785 0.93007 0
M  V30 29212 N 2694.58 0.315484 1.5441 0
M  V30 29213 C 2695.49 -0.56325 2.27738 0
M  V30 29214 C 2696.5 -1.13611 1.31789 0
M  V30 29215 O 2697.68 -1.15781 1.64793 0
M  V30 29216 C 2694.74 -1.71202 3.01481 0
M  V30 29217 C 2693.8 -1.17177 4.12999 0
M  V30 29218 C 2693.04 -2.26579 4.83216 0
M  V30 29219 O 2693.26 -3.46767 4.5289 0
M  V30 29220 O 2692.19 -1.92453 5.70303 0
M  V30 29221 H 2696.02 0.0320147 3.03683 0
M  V30 29222 H 2693.61 0.081445 1.49178 0
M  V30 29223 H 2695.49 -2.381 3.47687 0
M  V30 29224 H 2694.16 -2.29362 2.28418 0
M  V30 29225 H 2693.07 -0.468109 3.7116 0
M  V30 29226 H 2694.4 -0.635415 4.88081 0
M  V30 29227 N 2696.05 -1.5754 0.0434891 0
M  V30 29228 C 2697.3 -1.92385 -0.632001 0
M  V30 29229 C 2697.63 -0.921187 -1.71302 0
M  V30 29230 O 2696.88 0.0677096 -1.95583 0
M  V30 29231 C 2697.18 -3.33932 -1.27374 0
M  V30 29232 C 2696.85 -4.49751 -0.321678 0
M  V30 29233 C 2695.51 -4.81163 -0.0596765 0
M  V30 29234 C 2697.86 -5.20146 0.33125 0
M  V30 29235 C 2695.19 -5.80321 0.862817 0
M  V30 29236 C 2697.54 -6.2029 1.24189 0
M  V30 29237 C 2696.21 -6.50135 1.51264 0
M  V30 29238 H 2695.48 -0.703987 -0.231266 0
M  V30 29239 H 2698.12 -1.91193 0.108327 0
M  V30 29240 H 2696.43 -3.31454 -2.08915 0
M  V30 29241 H 2698.13 -3.5817 -1.8032 0
M  V30 29242 H 2694.72 -4.25234 -0.536065 0
M  V30 29243 H 2698.9 -4.96097 0.141913 0
M  V30 29244 H 2694.16 -6.01783 1.08014 0
M  V30 29245 H 2698.33 -6.73951 1.75393 0
M  V30 29246 H 2695.96 -7.26784 2.22909 0
M  V30 29247 N 2697.53 0.229818 -1.55915 0
M  V30 29248 C 2698.44 1.3059 -1.94894 0
M  V30 29249 C 2699.46 1.51734 -0.851631 0
M  V30 29250 O 2700.63 1.65025 -1.1545 0
M  V30 29251 C 2697.7 2.63725 -2.25056 0
M  V30 29252 C 2696.76 2.50954 -3.48311 0
M  V30 29253 C 2695.99 3.7774 -3.77025 0
M  V30 29254 O 2696.22 4.80389 -3.07542 0
M  V30 29255 O 2695.15 3.75348 -4.70529 0
M  V30 29256 H 2698.98 1.0052 -2.86582 0
M  V30 29257 H 2696.56 0.432 -1.43018 0
M  V30 29258 H 2698.44 3.42367 -2.45688 0
M  V30 29259 H 2697.12 2.93492 -1.36543 0
M  V30 29260 H 2696.03 1.7054 -3.32967 0
M  V30 29261 H 2697.36 2.26128 -4.37181 0
M  V30 29262 N 2699.01 1.49585 0.49619 0
M  V30 29263 C 2699.96 1.66609 1.59719 0
M  V30 29264 C 2700.93 0.507504 1.58157 0
M  V30 29265 O 2702.11 0.735107 1.7607 0
M  V30 29266 C 2699.25 1.74313 2.97841 0
M  V30 29267 C 2698.37 3.01507 3.09382 0
M  V30 29268 C 2697.5 3.0016 4.38266 0
M  V30 29269 C 2696.54 4.21914 4.43458 0
M  V30 29270 N 2695.68 4.1845 5.63777 0
M  V30 29271 H 2700.52 2.60616 1.44511 0
M  V30 29272 H 2698.05 1.29213 0.703026 0
M  V30 29273 H 2700.01 1.7676 3.77904 0
M  V30 29274 H 2698.64 0.837674 3.11742 0
M  V30 29275 H 2697.69 3.08648 2.22352 0
M  V30 29276 H 2699.01 3.915 3.09079 0
M  V30 29277 H 2698.16 3.01198 5.26654 0
M  V30 29278 H 2696.9 2.07954 4.41142 0
M  V30 29279 H 2695.9 4.21116 3.53471 0
M  V30 29280 H 2697.13 5.15318 4.42294 0
M  V30 29281 H 2695.07 3.29084 5.67486 0
M  V30 29282 H 2694.99 5.02183 5.65109 0
M  V30 29283 H 2696.26 4.23597 6.54359 0
M  V30 29284 N 2700.49 -0.747586 1.3874 0
M  V30 29285 C 2701.42 -1.87489 1.39176 0
M  V30 29286 C 2702.4 -1.6815 0.256823 0
M  V30 29287 O 2703.58 -1.88654 0.460795 0
M  V30 29288 C 2700.71 -3.2509 1.22203 0
M  V30 29289 C 2699.67 -3.59043 2.32964 0
M  V30 29290 C 2698.99 -4.95446 2.01091 0
M  V30 29291 C 2700.29 -3.63304 3.75244 0
M  V30 29292 H 2701.99 -1.87382 2.33513 0
M  V30 29293 H 2699.53 -0.900114 1.12401 0
M  V30 29294 H 2701.49 -4.03615 1.21131 0
M  V30 29295 H 2700.21 -3.25693 0.243298 0
M  V30 29296 H 2698.87 -2.82841 2.33231 0
M  V30 29297 H 2698.52 -4.92614 1.01687 0
M  V30 29298 H 2698.22 -5.19131 2.75276 0
M  V30 29299 H 2699.74 -5.76342 2.01648 0
M  V30 29300 H 2701.16 -4.3193 3.76974 0
M  V30 29301 H 2699.55 -3.98501 4.48684 0
M  V30 29302 H 2700.62 -2.63393 4.07127 0
M  V30 29303 N 2701.97 -1.23709 -0.97642 0
M  V30 29304 C 2703.19 -1.09925 -1.75873 0
M  V30 29305 C 2703.62 0.344858 -1.84912 0
M  V30 29306 O 2702.97 1.24951 -1.31365 0
M  V30 29307 C 2703.02 -1.73393 -3.16176 0
M  V30 29308 O 2702.13 -0.998781 -4.00123 0
M  V30 29309 H 2701.47 -0.385061 -0.540947 0
M  V30 29310 H 2704 -1.63842 -1.22543 0
M  V30 29311 H 2704.01 -1.78795 -3.66738 0
M  V30 29312 H 2702.68 -2.78471 -3.08912 0
M  V30 29313 H 2701.26 -1.022 -3.58622 0
M  V30 29314 N 2703.44 1.17579 -1.04943 0
M  V30 29315 C 2704.38 2.21038 -0.606213 0
M  V30 29316 C 2705.39 1.59446 0.328735 0
M  V30 29317 O 2706.58 1.78084 0.121863 0
M  V30 29318 C 2703.68 3.38638 0.133235 0
M  V30 29319 C 2702.85 4.29801 -0.811787 0
M  V30 29320 C 2701.91 5.26076 -0.11405 0
M  V30 29321 O 2700.94 5.64273 -0.747336 0
M  V30 29322 N 2702.14 5.69006 1.14943 0
M  V30 29323 H 2704.9 2.59686 -1.4961 0
M  V30 29324 H 2702.46 1.32452 -0.93102 0
M  V30 29325 H 2704.46 4.00075 0.610073 0
M  V30 29326 H 2703.03 2.98608 0.924764 0
M  V30 29327 H 2702.25 3.65834 -1.4683 0
M  V30 29328 H 2703.53 4.87602 -1.45335 0
M  V30 29329 H 2702.93 5.40044 1.68431 0
M  V30 29330 H 2701.49 6.326 1.57038 0
M  V30 29331 N 2704.92 0.830104 1.33967 0
M  V30 29332 C 2706.17 0.421601 1.98063 0
M  V30 29333 C 2706.5 -1.01707 1.65789 0
M  V30 29334 O 2705.75 -1.72439 0.925378 0
M  V30 29335 C 2706.05 0.579042 3.52678 0
M  V30 29336 C 2705.72 1.9845 4.04881 0
M  V30 29337 C 2704.38 2.36896 4.18848 0
M  V30 29338 C 2706.73 2.90292 4.32874 0
M  V30 29339 C 2704.06 3.66505 4.58139 0
M  V30 29340 C 2706.41 4.19373 4.73613 0
M  V30 29341 C 2705.08 4.57786 4.85786 0
M  V30 29342 H 2704.35 0.154275 0.724762 0
M  V30 29343 H 2706.99 1.05544 1.5979 0
M  V30 29344 H 2705.3 -0.13815 3.91556 0
M  V30 29345 H 2706.99 0.243387 4.00261 0
M  V30 29346 H 2703.58 1.67588 3.94477 0
M  V30 29347 H 2707.77 2.61831 4.21614 0
M  V30 29348 H 2703.02 3.96083 4.65755 0
M  V30 29349 H 2707.2 4.90621 4.94231 0
M  V30 29350 H 2704.83 5.58265 5.15988 0
M  V30 29351 N 2706.4 -1.46311 0.585725 0
M  V30 29352 C 2707.36 -2.28798 -0.135633 0
M  V30 29353 C 2708.36 -1.38559 -0.815964 0
M  V30 29354 O 2709.55 -1.60906 -0.667459 0
M  V30 29355 C 2706.69 -3.19022 -1.20158 0
M  V30 29356 H 2707.88 -2.94053 0.589308 0
M  V30 29357 H 2705.43 -1.52472 0.343821 0
M  V30 29358 H 2706.17 -2.58521 -1.958 0
M  V30 29359 H 2705.95 -3.85466 -0.718214 0
M  V30 29360 H 2707.44 -3.81099 -1.70743 0
M  V30 29361 N 2707.88 -0.323668 -1.54241 0
M  V30 29362 C 2708.84 0.529563 -2.22998 0
M  V30 29363 C 2709.84 1.04345 -1.22347 0
M  V30 29364 O 2711.03 0.935863 -1.46926 0
M  V30 29365 C 2708.16 1.73557 -2.93412 0
M  V30 29366 H 2709.36 -0.0715045 -2.99815 0
M  V30 29367 H 2706.91 -0.0747533 -1.56121 0
M  V30 29368 H 2707.65 2.37587 -2.20733 0
M  V30 29369 H 2707.43 1.37449 -3.67219 0
M  V30 29370 H 2708.92 2.34122 -3.45799 0
M  V30 29371 N 2709.36 1.57515 -0.0518432 0
M  V30 29372 C 2710.32 2.10468 0.90751 0
M  V30 29373 C 2711.32 1.02442 1.23945 0
M  V30 29374 O 2712.51 1.28512 1.17602 0
M  V30 29375 C 2709.64 2.58948 2.21718 0
M  V30 29376 H 2710.84 2.96528 0.448457 0
M  V30 29377 H 2708.39 1.55059 0.19657 0
M  V30 29378 H 2709.12 1.76283 2.72203 0
M  V30 29379 H 2708.91 3.3789 1.98929 0
M  V30 29380 H 2710.4 3.00061 2.90436 0
M  V30 29381 N 2710.84 -0.221546 1.56035 0
M  V30 29382 C 2711.77 -1.27776 1.95436 0
M  V30 29383 C 2712.75 -1.48887 0.82259 0
M  V30 29384 O 2713.93 -1.61071 1.08489 0
M  V30 29385 C 2711.06 -2.62755 2.27106 0
M  V30 29386 C 2710.02 -2.563 3.42774 0
M  V30 29387 C 2709.34 -3.95308 3.60049 0
M  V30 29388 C 2710.64 -2.11084 4.77745 0
M  V30 29389 H 2712.34 -0.950454 2.83913 0
M  V30 29390 H 2709.88 -0.455767 1.36597 0
M  V30 29391 H 2711.83 -3.36803 2.53262 0
M  V30 29392 H 2710.56 -2.97173 1.35483 0
M  V30 29393 H 2709.22 -1.84709 3.16667 0
M  V30 29394 H 2708.87 -4.27034 2.65802 0
M  V30 29395 H 2708.57 -3.91871 4.37848 0
M  V30 29396 H 2710.09 -4.71018 3.88554 0
M  V30 29397 H 2711.5 -2.74876 5.03106 0
M  V30 29398 H 2709.9 -2.18707 5.58827 0
M  V30 29399 H 2710.97 -1.06313 4.73102 0
M  V30 29400 N 2712.31 -1.49846 -0.48825 0
M  V30 29401 C 2713.22 -1.7021 -1.61448 0
M  V30 29402 C 2714.24 -0.584875 -1.63876 0
M  V30 29403 O 2715.42 -0.861139 -1.82061 0
M  V30 29404 C 2712.48 -1.77599 -2.97757 0
M  V30 29405 C 2711.54 -3.01249 -3.05856 0
M  V30 29406 C 2710.77 -3.08276 -4.35662 0
M  V30 29407 O 2711 -2.2255 -5.25193 0
M  V30 29408 O 2709.93 -4.00855 -4.48998 0
M  V30 29409 H 2713.76 -2.65645 -1.47194 0
M  V30 29410 H 2711.34 -1.33738 -0.665916 0
M  V30 29411 H 2713.22 -1.84739 -3.78747 0
M  V30 29412 H 2711.9 -0.853454 -3.12246 0
M  V30 29413 H 2710.81 -2.9962 -2.24006 0
M  V30 29414 H 2712.14 -3.93025 -2.96298 0
M  V30 29415 N 2713.79 0.740218 -1.39135 0
M  V30 29416 C 2715.2 1.31823 -1.32211 0
M  V30 29417 C 2715.55 1.96194 0.0159574 0
M  V30 29418 O 2714.68 1.9596 0.918077 0
M  V30 29419 C 2715.27 2.39695 -2.3944 0
M  V30 29420 C 2713.83 2.93183 -2.36053 0
M  V30 29421 C 2712.98 1.66697 -2.21602 0
M  V30 29422 H 2715.93 0.538106 -1.49299 0
M  V30 29423 H 2715.95 3.19959 -2.05928 0
M  V30 29424 H 2715.46 1.92815 -3.36814 0
M  V30 29425 H 2713.56 3.44356 -1.42301 0
M  V30 29426 H 2713.68 3.46652 -3.3071 0
M  V30 29427 H 2712.04 1.90834 -1.68684 0
M  V30 29428 H 2712.82 1.21877 -3.20938 0
M  V30 29429 N 2715.27 1.24225 0.969846 0
M  V30 29430 C 2716.68 1.07401 1.52715 0
M  V30 29431 C 2717.03 -0.355265 1.92957 0
M  V30 29432 O 2716.16 -1.24337 1.77114 0
M  V30 29433 C 2716.75 1.94344 2.77517 0
M  V30 29434 C 2715.31 1.8175 3.29612 0
M  V30 29435 C 2714.46 1.89408 2.02533 0
M  V30 29436 H 2717.41 1.37733 0.788374 0
M  V30 29437 H 2717.43 1.47445 3.50771 0
M  V30 29438 H 2716.94 2.98361 2.48198 0
M  V30 29439 H 2715.04 0.805569 3.63787 0
M  V30 29440 H 2715.16 2.65725 3.98656 0
M  V30 29441 H 2713.52 1.33112 2.17148 0
M  V30 29442 H 2714.3 2.95002 1.75581 0
M  V30 29443 N 2716.75 -1.1702 1.05565 0
M  V30 29444 C 2717.68 -2.23347 0.681065 0
M  V30 29445 C 2718.66 -1.67006 -0.322954 0
M  V30 29446 O 2719.84 -1.9317 -0.199712 0
M  V30 29447 C 2716.97 -3.4725 0.0589663 0
M  V30 29448 C 2715.93 -4.16437 0.988155 0
M  V30 29449 C 2715.25 -5.34206 0.22974 0
M  V30 29450 C 2716.55 -4.68245 2.31396 0
M  V30 29451 H 2718.25 -2.54936 1.56997 0
M  V30 29452 H 2715.79 -1.22539 0.756324 0
M  V30 29453 H 2717.75 -4.20852 -0.214908 0
M  V30 29454 H 2716.47 -3.14939 -0.864913 0
M  V30 29455 H 2715.13 -3.44752 1.24666 0
M  V30 29456 H 2714.78 -4.98147 -0.697024 0
M  V30 29457 H 2714.48 -5.81435 0.848917 0
M  V30 29458 H 2716 -6.10589 -0.0367621 0
M  V30 29459 H 2717.42 -5.33464 2.09973 0
M  V30 29460 H 2715.81 -5.26067 2.88745 0
M  V30 29461 H 2716.88 -3.8485 2.94989 0
M  V30 29462 N 2718.23 -0.837197 -1.33524 0
M  V30 29463 C 2719.17 -0.257739 -2.31168 0
M  V30 29464 C 2720.17 0.60936 -1.58061 0
M  V30 29465 O 2721.37 0.499108 -1.72942 0
M  V30 29466 H 2717.75 -0.064619 -0.749219 0
M  V30 29467 H 2719.72 -1.09583 -2.7755 0
M  V30 29468 C 2718.47 0.553827 -3.43261 0
M  V30 29469 H 2717.79 -0.104079 -3.99665 0
M  V30 29470 H 2719.23 0.925146 -4.13784 0
M  V30 29471 C 2717.69 1.73202 -2.88968 0
M  V30 29472 O 2718.22 2.83068 -2.85018 0
M  V30 29473 N 2716.43 1.55338 -2.45598 0
M  V30 29474 H 2715.97 0.659661 -2.49011 0
M  V30 29475 H 2715.93 2.34318 -2.09624 0
M  V30 29476 N 2719.7 1.45999 -0.593476 0
M  V30 29477 C 2720.63 2.33185 0.121151 0
M  V30 29478 C 2721.61 1.45992 0.872952 0
M  V30 29479 O 2722.8 1.7479 0.846291 0
M  V30 29480 C 2719.93 3.28458 1.12838 0
M  V30 29481 C 2718.88 4.25177 0.490725 0
M  V30 29482 C 2718.21 5.10037 1.6052 0
M  V30 29483 C 2719.51 5.1908 -0.579041 0
M  V30 29484 H 2721.2 2.93186 -0.606818 0
M  V30 29485 H 2718.75 1.40982 -0.293266 0
M  V30 29486 H 2720.7 3.88314 1.63677 0
M  V30 29487 H 2719.43 2.66587 1.88677 0
M  V30 29488 H 2718.09 3.666 0.00332884 0
M  V30 29489 H 2717.73 4.44543 2.35351 0
M  V30 29490 H 2717.43 5.75545 1.18412 0
M  V30 29491 H 2718.96 5.72758 2.11613 0
M  V30 29492 H 2720.37 5.7309 -0.155299 0
M  V30 29493 H 2718.77 5.9299 -0.921051 0
M  V30 29494 H 2719.84 4.62361 -1.46117 0
M  V30 29495 N 2721.18 0.331843 1.54067 0
M  V30 29496 C 2722.59 -0.154507 1.8606 0
M  V30 29497 C 2722.94 -1.5095 1.25334 0
M  V30 29498 O 2722.07 -2.08962 0.562478 0
M  V30 29499 C 2722.66 -0.287133 3.37581 0
M  V30 29500 C 2721.22 -0.717708 3.69494 0
M  V30 29501 C 2720.37 0.155617 2.76863 0
M  V30 29502 H 2723.32 0.551847 1.48796 0
M  V30 29503 H 2723.34 -1.11664 3.63746 0
M  V30 29504 H 2722.85 0.699198 3.8175 0
M  V30 29505 H 2720.96 -1.71349 3.30863 0
M  V30 29506 H 2721.07 -0.515716 4.76316 0
M  V30 29507 H 2719.43 -0.370169 2.51996 0
M  V30 29508 H 2720.22 1.13887 3.23859 0
M  V30 29509 N 2722.66 -1.57485 0.0601958 0
M  V30 29510 C 2723.59 -2.09018 -0.940433 0
M  V30 29511 C 2724.61 -1.01987 -1.26895 0
M  V30 29512 O 2725.79 -1.29531 -1.22817 0
M  V30 29513 C 2722.89 -2.52586 -2.2595 0
M  V30 29514 C 2722.07 -3.83056 -2.11156 0
M  V30 29515 C 2721.13 -4.1284 -3.26266 0
M  V30 29516 O 2720.15 -4.82621 -3.0177 0
M  V30 29517 N 2721.35 -3.65466 -4.51015 0
M  V30 29518 H 2724.12 -2.95491 -0.500526 0
M  V30 29519 H 2721.68 -1.6141 -0.125824 0
M  V30 29520 H 2723.67 -2.69581 -3.01842 0
M  V30 29521 H 2722.24 -1.71313 -2.61478 0
M  V30 29522 H 2721.46 -3.75554 -1.19802 0
M  V30 29523 H 2722.75 -4.68478 -1.98509 0
M  V30 29524 H 2722.15 -3.09071 -4.73806 0
M  V30 29525 H 2720.71 -3.87682 -5.23971 0
M  V30 29526 N 2724.14 0.213268 -1.5615 0
M  V30 29527 C 2725.55 0.779552 -1.69646 0
M  V30 29528 C 2725.9 1.84635 -0.663648 0
M  V30 29529 O 2725.03 2.1562 0.183595 0
M  V30 29530 C 2725.62 1.42079 -3.0757 0
M  V30 29531 C 2724.18 1.93437 -3.22892 0
M  V30 29532 C 2723.33 0.797565 -2.65583 0
M  V30 29533 H 2726.28 -0.011523 -1.58696 0
M  V30 29534 H 2726.3 2.28981 -3.03888 0
M  V30 29535 H 2725.81 0.64412 -3.82718 0
M  V30 29536 H 2723.91 2.73879 -2.52628 0
M  V30 29537 H 2724.02 2.10864 -4.30201 0
M  V30 29538 H 2722.39 1.20708 -2.2428 0
M  V30 29539 H 2723.17 0.0334336 -3.43284 0
M  V30 29540 N 2725.62 1.50103 0.480296 0
M  V30 29541 C 2726.56 1.68808 1.60021 0
M  V30 29542 C 2727.56 0.553916 1.60088 0
M  V30 29543 O 2728.76 0.734156 1.64348 0
M  V30 29544 H 2725.14 0.532656 0.530831 0
M  V30 29545 H 2727.11 2.62769 1.41403 0
M  V30 29546 C 2725.86 1.79097 2.98026 0
M  V30 29547 H 2725.18 2.65753 2.98689 0
M  V30 29548 H 2726.62 1.96213 3.75868 0
M  V30 29549 C 2725.08 0.540447 3.32537 0
M  V30 29550 O 2725.61 -0.324566 4.00387 0
M  V30 29551 N 2723.82 0.397205 2.87873 0
M  V30 29552 H 2723.36 1.10214 2.32832 0
M  V30 29553 H 2723.32 -0.43837 3.11329 0
M  V30 29554 N 2727.09 -0.732829 1.39526 0
M  V30 29555 C 2728.04 -1.84686 1.38419 0
M  V30 29556 C 2729.01 -1.64304 0.243568 0
M  V30 29557 O 2730.2 -1.85681 0.439011 0
M  V30 29558 C 2727.34 -3.22222 1.2356 0
M  V30 29559 C 2726.45 -3.54293 2.47185 0
M  V30 29560 C 2725.58 -4.81242 2.24898 0
M  V30 29561 C 2724.62 -5.06164 3.44187 0
M  V30 29562 N 2723.76 -6.24318 3.21203 0
M  V30 29563 H 2728.6 -1.84967 2.33648 0
M  V30 29564 H 2726.14 -0.903784 1.16061 0
M  V30 29565 H 2728.1 -4.01618 1.12956 0
M  V30 29566 H 2726.73 -3.21214 0.319596 0
M  V30 29567 H 2725.78 -2.69582 2.68383 0
M  V30 29568 H 2727.09 -3.68627 3.36029 0
M  V30 29569 H 2726.24 -5.68623 2.11548 0
M  V30 29570 H 2724.98 -4.69086 1.33452 0
M  V30 29571 H 2723.99 -4.17245 3.58032 0
M  V30 29572 H 2725.21 -5.20204 4.36537 0
M  V30 29573 H 2723.16 -6.13445 2.32424 0
M  V30 29574 H 2723.08 -6.39249 4.03605 0
M  V30 29575 H 2724.34 -7.14532 3.11552 0
M  V30 29576 N 2728.57 -1.24737 -0.963244 0
M  V30 29577 C 2729.5 -1.06836 -2.07626 0
M  V30 29578 C 2730.48 0.0200267 -1.70088 0
M  V30 29579 O 2731.67 -0.147888 -1.93636 0
M  V30 29580 C 2728.8 -0.677129 -3.40635 0
M  V30 29581 C 2727.75 -1.71478 -3.92147 0
M  V30 29582 C 2727.08 -1.17849 -5.21551 0
M  V30 29583 C 2728.38 -3.11172 -4.19487 0
M  V30 29584 H 2730.07 -1.99934 -2.2286 0
M  V30 29585 H 2727.62 -0.962679 -1.07091 0
M  V30 29586 H 2729.57 -0.538866 -4.1794 0
M  V30 29587 H 2728.3 0.289554 -3.25314 0
M  V30 29588 H 2726.95 -1.84134 -3.17002 0
M  V30 29589 H 2726.6 -0.202284 -5.02593 0
M  V30 29590 H 2726.3 -1.87195 -5.56985 0
M  V30 29591 H 2727.83 -1.05244 -6.01462 0
M  V30 29592 H 2729.24 -3.01719 -4.87482 0
M  V30 29593 H 2727.64 -3.77911 -4.66158 0
M  V30 29594 H 2728.71 -3.58877 -3.26091 0
M  V30 29595 N 2730.05 1.16459 -1.06184 0
M  V30 29596 C 2730.98 2.20382 -0.629623 0
M  V30 29597 C 2732 1.59786 0.311805 0
M  V30 29598 O 2733.18 1.78203 0.102968 0
M  V30 29599 C 2730.28 3.3876 0.0973099 0
M  V30 29600 C 2729.46 4.28916 -0.857327 0
M  V30 29601 C 2728.52 5.25926 -0.169841 0
M  V30 29602 O 2727.54 5.63448 -0.807143 0
M  V30 29603 N 2728.74 5.70194 1.08901 0
M  V30 29604 H 2731.51 2.58085 -1.52356 0
M  V30 29605 H 2729.07 1.31457 -0.945016 0
M  V30 29606 H 2731.06 4.007 0.567606 0
M  V30 29607 H 2729.63 2.99572 0.89304 0
M  V30 29608 H 2728.85 3.64256 -1.50702 0
M  V30 29609 H 2730.14 4.86033 -1.50498 0
M  V30 29610 H 2729.54 5.418 1.62694 0
M  V30 29611 H 2728.1 6.3423 1.5032 0
M  V30 29612 N 2731.53 0.844266 1.33079 0
M  V30 29613 C 2732.46 0.296533 2.31609 0
M  V30 29614 C 2733.44 -0.598679 1.59216 0
M  V30 29615 O 2734.62 -0.521101 1.87078 0
M  V30 29616 C 2731.75 -0.524702 3.43314 0
M  V30 29617 C 2730.71 0.275181 4.27114 0
M  V30 29618 C 2730.03 -0.670143 5.30484 0
M  V30 29619 C 2731.33 1.49522 5.0044 0
M  V30 29620 H 2733.03 1.11981 2.7767 0
M  V30 29621 H 2730.57 0.539923 1.33495 0
M  V30 29622 H 2732.53 -0.918226 4.11274 0
M  V30 29623 H 2731.25 -1.38124 2.95955 0
M  V30 29624 H 2729.91 0.65033 3.60786 0
M  V30 29625 H 2729.56 -1.52324 4.79381 0
M  V30 29626 H 2729.26 -0.13902 5.87436 0
M  V30 29627 H 2730.78 -1.06107 6.0131 0
M  V30 29628 H 2732.2 1.17456 5.61139 0
M  V30 29629 H 2730.59 1.96353 5.67068 0
M  V30 29630 H 2731.66 2.2621 4.28902 0
M  V30 29631 N 2733.01 -1.45682 0.60121 0
M  V30 29632 C 2734.26 -2.01492 0.0915307 0
M  V30 29633 C 2734.57 -1.47619 -1.28328 0
M  V30 29634 O 2735.77 -1.95365 -1.88533 0
M  V30 29635 C 2734.23 -3.59723 0.112973 0
M  V30 29636 C 2733.84 -4.22593 1.48724 0
M  V30 29637 C 2735.58 -4.23122 -0.341797 0
M  V30 29638 C 2733.49 -5.72957 1.46541 0
M  V30 29639 H 2732.42 -0.753385 0.0304497 0
M  V30 29640 H 2735.07 -1.67221 0.755597 0
M  V30 29641 H 2733.45 -3.91154 -0.617623 0
M  V30 29642 H 2734.63 -4.02745 2.23904 0
M  V30 29643 H 2732.94 -3.71363 1.88357 0
M  V30 29644 H 2735.54 -5.33368 -0.37721 0
M  V30 29645 H 2735.88 -3.93349 -1.36318 0
M  V30 29646 H 2736.41 -3.96384 0.335326 0
M  V30 29647 H 2733.15 -6.07419 2.46419 0
M  V30 29648 H 2732.67 -5.95015 0.756102 0
M  V30 29649 H 2734.35 -6.36032 1.18629 0
M  V30 29650 N 2734.48 -0.340009 -1.53889 0
M  V30 29651 C 2735.45 0.505881 -2.23548 0
M  V30 29652 C 2736.45 1.03042 -1.23447 0
M  V30 29653 O 2737.64 0.920227 -1.4791 0
M  V30 29654 C 2734.77 1.70435 -2.95237 0
M  V30 29655 H 2735.96 -0.1033 -2.99722 0
M  V30 29656 H 2733.52 -0.0913078 -1.56033 0
M  V30 29657 H 2734.25 2.35232 -2.2324 0
M  V30 29658 H 2734.04 1.33547 -3.68657 0
M  V30 29659 H 2735.53 2.30441 -3.48262 0
M  V30 29660 N 2735.96 1.57451 -0.0685468 0
M  V30 29661 C 2736.9 2.08134 0.935699 0
M  V30 29662 C 2737.87 0.98572 1.29315 0
M  V30 29663 O 2739.06 1.25888 1.40301 0
M  V30 29664 C 2736.19 2.53631 2.24475 0
M  V30 29665 C 2735.23 3.74597 2.0391 0
M  V30 29666 S 2736.06 5.19445 1.30145 0
M  V30 29667 C 2737.22 5.6827 2.62336 0
M  V30 29668 H 2737.45 2.9299 0.504421 0
M  V30 29669 H 2734.99 1.53726 0.144142 0
M  V30 29670 H 2736.94 2.80504 2.99713 0
M  V30 29671 H 2735.61 1.6905 2.64728 0
M  V30 29672 H 2734.8 4.04409 3.00781 0
M  V30 29673 H 2734.4 3.48079 1.36809 0
M  V30 29674 H 2736.69 5.74916 3.58438 0
M  V30 29675 H 2737.64 6.67211 2.37138 0
M  V30 29676 H 2738.04 4.96073 2.69392 0
M  V30 29677 N 2737.44 -0.204984 1.56261 0
M  V30 29678 C 2738.72 -0.952203 1.70858 0
M  V30 29679 C 2739.1 -2.01774 0.620536 0
M  V30 29680 O 2738.45 -2.25485 -0.369995 0
M  V30 29681 C 2738.66 -1.54761 3.1281 0
M  V30 29682 C 2740 -2.03354 3.72736 0
M  V30 29683 O 2741.03 -1.64623 3.15876 0
M  V30 29684 O 2739.89 -2.74592 4.72506 0
M  V30 29685 H 2736.98 -0.445883 0.696504 0
M  V30 29686 H 2739.53 -0.19546 1.68571 0
M  V30 29687 H 2738.3 -0.779064 3.83466 0
M  V30 29688 H 2737.92 -2.36946 3.19284 0
M  V30 29689 N 2738.92 -1.50356 -0.472329 0
M  V30 29690 C 2739.85 -1.72057 -1.57856 0
M  V30 29691 C 2740.83 -0.569533 -1.60282 0
M  V30 29692 O 2742.02 -0.808534 -1.76568 0
M  V30 29693 C 2739.15 -1.81357 -2.96188 0
M  V30 29694 C 2738.1 -2.96535 -3.08628 0
M  V30 29695 C 2737.43 -2.90975 -4.48595 0
M  V30 29696 C 2738.73 -4.37062 -2.85962 0
M  V30 29697 H 2740.42 -2.64679 -1.39948 0
M  V30 29698 H 2737.97 -1.27368 -0.671823 0
M  V30 29699 H 2739.92 -1.95123 -3.73504 0
M  V30 29700 H 2738.64 -0.853558 -3.15249 0
M  V30 29701 H 2737.3 -2.82417 -2.33744 0
M  V30 29702 H 2736.95 -1.92823 -4.64573 0
M  V30 29703 H 2736.65 -3.68297 -4.57855 0
M  V30 29704 H 2738.17 -3.06789 -5.27933 0
M  V30 29705 H 2739.59 -4.51712 -3.53028 0
M  V30 29706 H 2737.98 -5.15825 -3.06667 0
M  V30 29707 H 2739.05 -4.49517 -1.8183 0
M  V30 29708 N 2740.4 0.725419 -1.39912 0
M  V30 29709 C 2741.81 1.30413 -1.33601 0
M  V30 29710 C 2742.16 1.96199 -0.00485241 0
M  V30 29711 O 2741.28 1.96923 0.897241 0
M  V30 29712 C 2741.88 2.37142 -2.41969 0
M  V30 29713 C 2740.44 2.90662 -2.39149 0
M  V30 29714 C 2739.59 1.64337 -2.23358 0
M  V30 29715 H 2742.54 0.522241 -1.49861 0
M  V30 29716 H 2742.56 3.17757 -2.0931 0
M  V30 29717 H 2742.07 1.89232 -3.3884 0
M  V30 29718 H 2740.17 3.42827 -1.45946 0
M  V30 29719 H 2740.28 3.43125 -3.34368 0
M  V30 29720 H 2738.65 1.89034 -1.70699 0
M  V30 29721 H 2739.43 1.18466 -3.22212 0
M  V30 29722 N 2741.88 1.25246 0.956615 0
M  V30 29723 C 2742.81 0.997786 2.0523 0
M  V30 29724 C 2743.79 -0.0722852 1.62439 0
M  V30 29725 O 2744.97 0.0669591 1.88381 0
M  V30 29726 C 2742.1 0.50792 3.3487 0
M  V30 29727 C 2741.14 1.56822 3.96622 0
M  V30 29728 S 2741.98 3.15283 4.32847 0
M  V30 29729 C 2743.13 2.68027 5.65608 0
M  V30 29730 H 2743.37 1.92554 2.26518 0
M  V30 29731 H 2740.9 1.08754 1.09599 0
M  V30 29732 H 2742.86 0.23193 4.09844 0
M  V30 29733 H 2741.52 -0.399301 3.11552 0
M  V30 29734 H 2740.71 1.17612 4.90085 0
M  V30 29735 H 2740.31 1.79479 3.28121 0
M  V30 29736 H 2742.6 2.11529 6.43632 0
M  V30 29737 H 2743.55 3.60122 6.09686 0
M  V30 29738 H 2743.96 2.08089 5.24747 0
M  V30 29739 N 2743.35 -1.15894 1.068 0
M  V30 29740 C 2744.6 -1.86824 0.788967 0
M  V30 29741 C 2744.93 -1.81791 -0.683052 0
M  V30 29742 O 2744.21 -1.23714 -1.50084 0
M  V30 29743 C 2744.49 -3.36174 1.29071 0
M  V30 29744 C 2744.34 -3.49869 2.82686 0
M  V30 29745 C 2745.66 -4.30742 0.902731 0
M  V30 29746 H 2742.78 -0.678366 0.288077 0
M  V30 29747 H 2745.42 -1.36193 1.32482 0
M  V30 29748 H 2743.57 -3.79423 0.834873 0
M  V30 29749 H 2745.25 -3.15522 3.36517 0
M  V30 29750 H 2743.49 -2.91611 3.21162 0
M  V30 29751 H 2744.16 -4.54778 3.1286 0
M  V30 29752 H 2746.64 -3.95421 1.29542 0
M  V30 29753 H 2745.51 -5.33738 1.2812 0
M  V30 29754 H 2745.77 -4.41683 -0.191874 0
M  V30 29755 N 2744.83 -0.851312 -1.32629 0
M  V30 29756 C 2746.06 -0.466042 -2.02096 0
M  V30 29757 C 2746.48 0.92868 -1.63576 0
M  V30 29758 O 2745.84 1.60943 -0.834694 0
M  V30 29759 C 2745.89 -0.6088 -3.55424 0
M  V30 29760 O 2744.99 0.359806 -4.10827 0
M  V30 29761 H 2744.33 -0.187735 -0.636908 0
M  V30 29762 H 2746.86 -1.14958 -1.69251 0
M  V30 29763 H 2746.87 -0.495077 -4.04985 0
M  V30 29764 H 2745.55 -1.62588 -3.82803 0
M  V30 29765 H 2744.12 0.202601 -3.72349 0
M  V30 29766 N 2746.31 1.45361 -0.608928 0
M  V30 29767 C 2747.56 2.0183 -0.104436 0
M  V30 29768 C 2747.88 1.47969 1.27004 0
M  V30 29769 O 2747.15 0.674487 1.83922 0
M  V30 29770 H 2745.73 0.74615 -0.0356173 0
M  V30 29771 H 2748.39 1.78143 -0.790627 0
M  V30 29772 H 2747.49 3.12051 -0.0552341 0
M  V30 29773 N 2747.79 0.348166 1.53706 0
M  V30 29774 C 2749.06 -0.302441 1.93248 0
M  V30 29775 C 2749.44 -1.67855 1.28015 0
M  V30 29776 O 2748.79 -2.24364 0.432779 0
M  V30 29777 C 2749 -0.370098 3.47032 0
M  V30 29778 C 2750.35 -0.618746 4.20067 0
M  V30 29779 O 2751.37 -0.452025 3.5332 0
M  V30 29780 O 2750.23 -0.942056 5.38319 0
M  V30 29781 H 2747.33 -0.177444 0.807739 0
M  V30 29782 H 2749.87 0.399679 1.64926 0
M  V30 29783 H 2748.65 0.595408 3.86744 0
M  V30 29784 H 2748.27 -1.11882 3.81534 0
M  V30 29785 N 2749.27 -1.57412 0.0768958 0
M  V30 29786 C 2750.68 -1.57129 -0.279745 0
M  V30 29787 C 2750.88 -1.08669 -1.69686 0
M  V30 29788 O 2749.94 -0.754886 -2.40952 0
M  V30 29789 C 2751.25 -3.00581 -0.0847526 0
M  V30 29790 C 2752.8 -3.12621 -0.153899 0
M  V30 29791 C 2753.27 -4.57998 0.0128751 0
M  V30 29792 N 2754.76 -4.6318 -0.0425621 0
M  V30 29793 C 2755.5 -5.73366 0.06199 0
M  V30 29794 N 2755 -6.92449 0.220351 0
M  V30 29795 N 2756.79 -5.621 0.00455952 0
M  V30 29796 H 2748.94 -1.87226 1.003 0
M  V30 29797 H 2751.2 -0.863347 0.391581 0
M  V30 29798 H 2750.91 -3.40166 0.89331 0
M  V30 29799 H 2750.78 -3.67844 -0.834896 0
M  V30 29800 H 2753.17 -2.72919 -1.12245 0
M  V30 29801 H 2753.25 -2.47986 0.627433 0
M  V30 29802 H 2752.89 -4.98391 0.978216 0
M  V30 29803 H 2752.82 -5.20672 -0.787924 0
M  V30 29804 H 2755.32 -3.77548 -0.16316 0
M  V30 29805 H 2755.63 -7.72248 0.292135 0
M  V30 29806 H 2753.97 -6.94529 0.25578 0
M  V30 29807 H 2757.16 -4.67952 -0.117897 0
M  V30 29808 H 2757.34 -6.47938 0.0894935 0
M  V30 29809 N 2750.74 0.196695 -1.56368 0
M  V30 29810 C 2751.99 0.915508 -1.79726 0
M  V30 29811 C 2752.31 1.8449 -0.649836 0
M  V30 29812 O 2753.51 2.60421 -0.767676 0
M  V30 29813 C 2751.97 1.67831 -3.18372 0
M  V30 29814 C 2751.58 0.79382 -4.40911 0
M  V30 29815 C 2753.32 2.38685 -3.51041 0
M  V30 29816 C 2751.23 1.55539 -5.7058 0
M  V30 29817 H 2750.16 0.345592 -0.670136 0
M  V30 29818 H 2752.81 0.168824 -1.82722 0
M  V30 29819 H 2751.19 2.46882 -3.09622 0
M  V30 29820 H 2752.36 0.042082 -4.60781 0
M  V30 29821 H 2750.68 0.196187 -4.15938 0
M  V30 29822 H 2753.28 2.96211 -4.45155 0
M  V30 29823 H 2753.62 3.12794 -2.7471 0
M  V30 29824 H 2754.15 1.66602 -3.61232 0
M  V30 29825 H 2750.89 0.857112 -6.49872 0
M  V30 29826 H 2750.41 2.28111 -5.5473 0
M  V30 29827 H 2752.09 2.10961 -6.11641 0
M  V30 29828 N 2752.22 1.50604 0.464349 0
M  V30 29829 C 2753.17 1.66346 1.55926 0
M  V30 29830 C 2754.16 0.517914 1.52337 0
M  V30 29831 O 2755.35 0.772629 1.59246 0
M  V30 29832 C 2752.48 1.76715 2.94324 0
M  V30 29833 C 2751.56 2.96968 3.02772 0
M  V30 29834 N 2751.95 4.2055 2.81019 0
M  V30 29835 C 2750.25 2.95665 3.33914 0
M  V30 29836 C 2750.95 5.01578 2.94609 0
M  V30 29837 N 2749.93 4.3567 3.25104 0
M  V30 29838 H 2753.73 2.59583 1.37818 0
M  V30 29839 H 2751.25 1.47881 0.671201 0
M  V30 29840 H 2753.24 1.86097 3.73059 0
M  V30 29841 H 2751.9 0.846408 3.13474 0
M  V30 29842 H 2752.91 4.49938 2.56469 0
M  V30 29843 H 2749.59 2.13117 3.59009 0
M  V30 29844 H 2750.98 6.0987 2.81973 0
M  V30 29845 N 2753.7 -0.717989 1.40295 0
M  V30 29846 C 2754.94 -1.4903 1.39891 0
M  V30 29847 C 2755.3 -1.92 -0.000429187 0
M  V30 29848 O 2756.51 -2.68488 -0.129575 0
M  V30 29849 C 2754.78 -2.68512 2.35873 0
M  V30 29850 S 2756.34 -3.5795 2.53806 0
M  V30 29851 H 2753.15 -0.509554 0.495858 0
M  V30 29852 H 2755.76 -0.839815 1.76543 0
M  V30 29853 H 2754.46 -2.35111 3.36379 0
M  V30 29854 H 2753.99 -3.38475 2.00496 0
M  V30 29855 H 2756.01 -4.6284 1.78867 0
M  V30 29856 N 2755.18 -1.25752 -0.94996 0
M  V30 29857 C 2756.11 -1.09032 -2.06481 0
M  V30 29858 C 2757.09 0.00198542 -1.701 0
M  V30 29859 O 2758.27 -0.168417 -1.93468 0
M  V30 29860 C 2755.4 -0.71322 -3.39898 0
M  V30 29861 C 2754.36 -1.75628 -3.90306 0
M  V30 29862 C 2753.68 -1.23374 -5.20272 0
M  V30 29863 C 2754.98 -3.15603 -4.16163 0
M  V30 29864 H 2756.68 -2.02287 -2.20727 0
M  V30 29865 H 2754.22 -0.973983 -1.06064 0
M  V30 29866 H 2756.18 -0.583164 -4.17345 0
M  V30 29867 H 2754.9 0.255034 -3.25603 0
M  V30 29868 H 2753.56 -1.87485 -3.15031 0
M  V30 29869 H 2753.21 -0.255579 -5.0235 0
M  V30 29870 H 2752.91 -1.93092 -5.54968 0
M  V30 29871 H 2754.43 -1.11617 -6.00312 0
M  V30 29872 H 2755.85 -3.06873 -4.84254 0
M  V30 29873 H 2754.24 -3.82834 -4.62124 0
M  V30 29874 H 2755.31 -3.62315 -3.22266 0
M  V30 29875 N 2756.66 1.15326 -1.07413 0
M  V30 29876 C 2757.93 1.82229 -0.710764 0
M  V30 29877 C 2758.31 1.95078 0.806697 0
M  V30 29878 O 2757.66 1.50271 1.72136 0
M  V30 29879 C 2757.87 3.18541 -1.42592 0
M  V30 29880 C 2759.22 3.94171 -1.57843 0
M  V30 29881 O 2760.24 3.28097 -1.38674 0
M  V30 29882 O 2759.1 5.12635 -1.89389 0
M  V30 29883 H 2756.2 0.787355 -0.252984 0
M  V30 29884 H 2758.74 1.22432 -1.1751 0
M  V30 29885 H 2757.51 3.04291 -2.46013 0
M  V30 29886 H 2757.14 3.86025 -0.9524 0
M  V30 29887 N 2758.13 0.858334 1.32176 0
M  V30 29888 C 2759.38 0.459724 1.96391 0
M  V30 29889 C 2759.7 -0.990602 1.68661 0
M  V30 29890 O 2760.9 -1.49481 2.26644 0
M  V30 29891 C 2759.36 0.771161 3.51541 0
M  V30 29892 C 2758.97 2.23746 3.88126 0
M  V30 29893 C 2760.71 0.440454 4.22209 0
M  V30 29894 C 2758.62 2.49193 5.36337 0
M  V30 29895 H 2757.55 0.168182 0.735004 0
M  V30 29896 H 2760.2 1.04963 1.50516 0
M  V30 29897 H 2758.58 0.11065 3.95845 0
M  V30 29898 H 2759.75 2.94007 3.54819 0
M  V30 29899 H 2758.07 2.53306 3.30492 0
M  V30 29900 H 2760.67 0.607949 5.31233 0
M  V30 29901 H 2761.01 -0.618219 4.11684 0
M  V30 29902 H 2761.54 1.05701 3.835 0
M  V30 29903 H 2758.28 3.53699 5.51885 0
M  V30 29904 H 2757.8 1.83514 5.71036 0
M  V30 29905 H 2759.48 2.33329 6.03462 0
M  V30 29906 N 2759.61 -1.45036 0.616628 0
M  V30 29907 C 2760.54 -2.33349 -0.0840377 0
M  V30 29908 C 2761.52 -1.47362 -0.849615 0
M  V30 29909 O 2762.71 -1.76114 -0.818376 0
M  V30 29910 C 2759.84 -3.30212 -1.07599 0
M  V30 29911 C 2758.79 -4.25904 -0.423021 0
M  V30 29912 C 2758.12 -5.12526 -1.52385 0
M  V30 29913 C 2759.42 -5.18093 0.661549 0
M  V30 29914 H 2761.11 -2.92184 0.653385 0
M  V30 29915 H 2758.66 -1.40498 0.315658 0
M  V30 29916 H 2760.61 -3.90869 -1.57479 0
M  V30 29917 H 2759.34 -2.69555 -1.84412 0
M  V30 29918 H 2757.99 -3.66559 0.0549944 0
M  V30 29919 H 2757.64 -4.48231 -2.28249 0
M  V30 29920 H 2757.34 -5.77356 -1.09241 0
M  V30 29921 H 2758.87 -5.76052 -2.02474 0
M  V30 29922 H 2760.28 -5.7277 0.246453 0
M  V30 29923 H 2758.68 -5.91449 1.01527 0
M  V30 29924 H 2759.75 -4.59978 1.53454 0
M  V30 29925 N 2761.09 -0.356312 -1.53519 0
M  V30 29926 C 2762.34 0.236268 -2.01117 0
M  V30 29927 C 2762.67 1.49529 -1.24384 0
M  V30 29928 O 2761.92 1.93015 -0.323091 0
M  V30 29929 C 2762.22 0.583307 -3.52608 0
M  V30 29930 C 2761.89 -0.580309 -4.4715 0
M  V30 29931 C 2760.55 -0.899611 -4.72716 0
M  V30 29932 C 2762.9 -1.36033 -5.03135 0
M  V30 29933 C 2760.23 -2.00108 -5.5152 0
M  V30 29934 C 2762.58 -2.45214 -5.8314 0
M  V30 29935 C 2761.24 -2.7769 -6.06996 0
M  V30 29936 H 2760.51 0.0864566 -0.735939 0
M  V30 29937 H 2763.16 -0.486863 -1.85208 0
M  V30 29938 H 2761.47 1.38733 -3.66416 0
M  V30 29939 H 2763.16 1.0539 -3.86903 0
M  V30 29940 H 2759.75 -0.321397 -4.27393 0
M  V30 29941 H 2763.94 -1.1269 -4.83337 0
M  V30 29942 H 2759.19 -2.25678 -5.68225 0
M  V30 29943 H 2763.37 -3.06078 -6.25531 0
M  V30 29944 H 2760.99 -3.63163 -6.67845 0
M  V30 29945 N 2762.57 1.57369 -0.0852427 0
M  V30 29946 C 2763.53 2.12346 0.862662 0
M  V30 29947 C 2764.53 1.05048 1.21744 0
M  V30 29948 O 2765.72 1.30978 1.1485 0
M  V30 29949 C 2762.85 2.63592 2.16176 0
M  V30 29950 H 2764.05 2.97413 0.385459 0
M  V30 29951 H 2761.6 1.55441 0.163636 0
M  V30 29952 H 2762.33 1.82018 2.68403 0
M  V30 29953 H 2762.12 3.42033 1.91717 0
M  V30 29954 H 2763.61 3.06154 2.84006 0
M  V30 29955 N 2764.05 -0.188399 1.5647 0
M  V30 29956 C 2765.29 -0.907747 1.81014 0
M  V30 29957 C 2765.62 -1.82975 0.659562 0
M  V30 29958 O 2764.88 -1.92467 -0.354274 0
M  V30 29959 C 2765.18 -1.75045 3.11599 0
M  V30 29960 C 2764.84 -0.978845 4.40147 0
M  V30 29961 C 2763.5 -0.765828 4.75067 0
M  V30 29962 C 2765.86 -0.436406 5.1937 0
M  V30 29963 C 2763.18 0.00100181 5.867 0
M  V30 29964 C 2765.54 0.317247 6.31804 0
M  V30 29965 C 2764.2 0.54122 6.65302 0
M  V30 29966 H 2763.47 -0.332168 0.662379 0
M  V30 29967 H 2766.12 -0.173699 1.90711 0
M  V30 29968 H 2764.42 -2.55338 2.9717 0
M  V30 29969 H 2766.12 -2.30977 3.27797 0
M  V30 29970 H 2762.71 -1.15489 4.12747 0
M  V30 29971 H 2766.89 -0.588363 4.928 0
M  V30 29972 H 2762.15 0.184436 6.11122 0
M  V30 29973 H 2766.32 0.744909 6.92405 0
M  V30 29974 H 2763.95 1.13731 7.51644 0
M  V30 29975 N 2765.53 -1.50848 -0.456355 0
M  V30 29976 C 2766.75 -1.66351 -1.23024 0
M  V30 29977 C 2767.17 -0.3529 -1.85473 0
M  V30 29978 O 2766.53 0.666709 -1.69886 0
M  V30 29979 C 2766.58 -2.76543 -2.32822 0
M  V30 29980 O 2766.3 -4.02525 -1.72931 0
M  V30 29981 C 2767.8 -3.0315 -3.23443 0
M  V30 29982 H 2765.02 -0.558763 -0.371517 0
M  V30 29983 H 2767.56 -1.97158 -0.543047 0
M  V30 29984 H 2765.72 -2.4839 -2.9729 0
M  V30 29985 H 2766.13 -4.63578 -2.45349 0
M  V30 29986 H 2767.61 -3.83879 -3.96662 0
M  V30 29987 H 2768.08 -2.148 -3.8309 0
M  V30 29988 H 2768.69 -3.32891 -2.64696 0
M  V30 29989 N 2767 0.710538 -1.40674 0
M  V30 29990 C 2767.95 1.8246 -1.4134 0
M  V30 29991 C 2768.92 1.63896 -0.269676 0
M  V30 29992 O 2770.11 1.84959 -0.468496 0
M  V30 29993 C 2767.25 3.20215 -1.28671 0
M  V30 29994 C 2766.36 3.50316 -2.5279 0
M  V30 29995 C 2765.49 4.77604 -2.32526 0
M  V30 29996 C 2764.53 5.00624 -3.52196 0
M  V30 29997 N 2763.67 6.19129 -3.31095 0
M  V30 29998 H 2768.51 1.81226 -2.36561 0
M  V30 29999 H 2766.05 0.885205 -1.17484 0
M  V30 30000 H 2768 3.9977 -1.19331 0
M  V30 30001 H 2766.63 3.20665 -0.370658 0
M  V30 30002 H 2765.69 2.65278 -2.72638 0
M  V30 30003 H 2767 3.63235 -3.41851 0
M  V30 30004 H 2766.15 5.65186 -2.20568 0
M  V30 30005 H 2764.89 4.66904 -1.40898 0
M  V30 30006 H 2763.9 4.11496 -3.64625 0
M  V30 30007 H 2765.12 5.13193 -4.44758 0
M  V30 30008 H 2763.07 6.0967 -2.42154 0
M  V30 30009 H 2762.98 6.32747 -4.13724 0
M  V30 30010 H 2764.25 7.09485 -3.2288 0
M  V30 30011 N 2768.48 1.26254 0.943277 0
M  V30 30012 C 2769.9 1.03321 1.21643 0
M  V30 30013 C 2770.1 -0.242948 2.0003 0
M  V30 30014 O 2769.15 -0.952647 2.33839 0
M  V30 30015 C 2770.47 2.26333 1.97974 0
M  V30 30016 C 2772.01 2.31212 2.10974 0
M  V30 30017 C 2772.49 3.53912 2.90707 0
M  V30 30018 N 2773.98 3.54376 2.98281 0
M  V30 30019 C 2774.72 4.45983 3.60398 0
M  V30 30020 N 2774.21 5.47875 4.24034 0
M  V30 30021 N 2776 4.33639 3.5765 0
M  V30 30022 H 2768.16 2.08222 0.419184 0
M  V30 30023 H 2770.42 0.914992 0.247979 0
M  V30 30024 H 2770.12 3.19144 1.47783 0
M  V30 30025 H 2770 2.30413 2.98646 0
M  V30 30026 H 2772.39 1.38917 2.60358 0
M  V30 30027 H 2772.47 2.31145 1.09571 0
M  V30 30028 H 2772.11 4.46535 2.4201 0
M  V30 30029 H 2772.04 3.51227 3.92361 0
M  V30 30030 H 2774.53 2.80677 2.53039 0
M  V30 30031 H 2774.84 6.13967 4.69323 0
M  V30 30032 H 2773.19 5.51735 4.22627 0
M  V30 30033 H 2776.38 3.53256 3.07128 0
M  V30 30034 H 2776.55 5.05225 4.05773 0
M  V30 30035 N 2769.96 -1.14755 1.08024 0
M  V30 30036 C 2771.21 -1.85977 0.808738 0
M  V30 30037 C 2771.54 -1.82505 -0.663732 0
M  V30 30038 O 2770.81 -1.25299 -1.48763 0
M  V30 30039 C 2771.1 -3.34786 1.32629 0
M  V30 30040 C 2770.95 -3.46851 2.86381 0
M  V30 30041 C 2772.27 -4.2976 0.948366 0
M  V30 30042 H 2769.39 -0.675272 0.295256 0
M  V30 30043 H 2772.03 -1.3478 1.33919 0
M  V30 30044 H 2770.18 -3.78517 0.875069 0
M  V30 30045 H 2771.85 -3.11935 3.39844 0
M  V30 30046 H 2770.09 -2.88189 3.24237 0
M  V30 30047 H 2770.77 -4.51434 3.17666 0
M  V30 30048 H 2773.24 -3.94025 1.33729 0
M  V30 30049 H 2772.12 -5.32349 1.33774 0
M  V30 30050 H 2772.38 -4.41862 -0.145016 0
M  V30 30051 N 2771.44 -0.865331 -1.31719 0
M  V30 30052 C 2772.37 -0.333343 -2.31108 0
M  V30 30053 C 2773.35 0.573273 -1.60149 0
M  V30 30054 O 2774.53 0.491272 -1.87883 0
M  V30 30055 C 2771.66 0.470017 -3.44105 0
M  V30 30056 C 2770.62 -0.343096 -4.26623 0
M  V30 30057 C 2769.94 0.585663 -5.31483 0
M  V30 30058 C 2771.24 -1.57465 -4.97998 0
M  V30 30059 H 2772.94 -1.16385 -2.75853 0
M  V30 30060 H 2770.48 -0.561092 -1.32619 0
M  V30 30061 H 2772.44 0.852679 -4.12683 0
M  V30 30062 H 2771.16 1.33399 -2.98115 0
M  V30 30063 H 2769.82 -0.707646 -3.59705 0
M  V30 30064 H 2769.47 1.44678 -4.81744 0
M  V30 30065 H 2769.17 0.0455461 -5.87582 0
M  V30 30066 H 2770.69 0.965269 -6.02922 0
M  V30 30067 H 2772.11 -1.26369 -5.59199 0
M  V30 30068 H 2770.5 -2.05349 -5.63872 0
M  V30 30069 H 2771.57 -2.33005 -4.25249 0
M  V30 30070 N 2772.92 1.44707 -0.624311 0
M  V30 30071 C 2774.16 2.01708 -0.125837 0
M  V30 30072 C 2774.48 1.49308 1.25428 0
M  V30 30073 O 2773.75 0.693956 1.83197 0
M  V30 30074 H 2772.33 0.745731 -0.0435292 0
M  V30 30075 H 2775 1.77295 -0.809477 0
M  V30 30076 H 2774.09 3.11975 -0.0883282 0
M  V30 30077 N 2774.39 0.364449 1.53328 0
M  V30 30078 C 2775.3 -0.490512 2.29415 0
M  V30 30079 C 2776.32 -1.09361 1.35337 0
M  V30 30080 O 2777.5 -1.1048 1.68393 0
M  V30 30081 C 2774.56 -1.61524 3.06775 0
M  V30 30082 C 2773.62 -1.03979 4.16518 0
M  V30 30083 C 2772.85 -2.11091 4.9018 0
M  V30 30084 O 2773.08 -3.32183 4.63693 0
M  V30 30085 O 2772.01 -1.74212 5.76137 0
M  V30 30086 H 2775.84 0.128613 3.03428 0
M  V30 30087 H 2773.42 0.128864 1.48843 0
M  V30 30088 H 2775.3 -2.26918 3.55086 0
M  V30 30089 H 2773.98 -2.21978 2.356 0
M  V30 30090 H 2772.89 -0.34979 3.72461 0
M  V30 30091 H 2774.22 -0.479814 4.89856 0
M  V30 30092 N 2775.87 -1.57322 0.0935872 0
M  V30 30093 C 2777.1 -1.99058 -0.582289 0
M  V30 30094 C 2777.52 -0.97227 -1.61023 0
M  V30 30095 O 2776.88 0.0594303 -1.81203 0
M  V30 30096 C 2776.93 -3.39767 -1.20793 0
M  V30 30097 O 2776.03 -3.40698 -2.32376 0
M  V30 30098 H 2775.37 -0.647325 -0.147872 0
M  V30 30099 H 2777.9 -2.03854 0.174552 0
M  V30 30100 H 2777.91 -3.77428 -1.54959 0
M  V30 30101 H 2776.59 -4.13405 -0.454841 0
M  V30 30102 H 2775.16 -3.14831 -1.9984 0
M  V30 30103 N 2777.35 0.180099 -1.56568 0
M  V30 30104 C 2778.6 0.896361 -1.81135 0
M  V30 30105 C 2778.92 1.8316 -0.669146 0
M  V30 30106 O 2778.19 1.93406 0.311582 0
M  V30 30107 H 2776.77 0.333987 -0.668178 0
M  V30 30108 H 2779.43 0.182017 -1.94048 0
M  V30 30109 H 2778.53 1.47852 -2.74856 0
M  V30 30110 N 2778.83 1.51088 0.448349 0
M  V30 30111 C 2779.74 1.74431 1.56879 0
M  V30 30112 C 2780.75 0.628118 1.62267 0
M  V30 30113 O 2781.93 0.909107 1.79714 0
M  V30 30114 C 2778.99 1.85431 2.92944 0
M  V30 30115 C 2778.06 3.09252 2.97761 0
M  V30 30116 C 2777.29 3.19718 4.27336 0
M  V30 30117 O 2777.51 2.36396 5.19108 0
M  V30 30118 O 2776.45 4.12618 4.38212 0
M  V30 30119 H 2780.27 2.69455 1.40099 0
M  V30 30120 H 2777.86 1.35457 0.630223 0
M  V30 30121 H 2779.74 1.94716 3.73716 0
M  V30 30122 H 2778.41 0.935941 3.09874 0
M  V30 30123 H 2777.32 3.05454 2.15984 0
M  V30 30124 H 2778.65 4.00743 2.85773 0
M  V30 30125 N 2780.31 -0.703068 1.41049 0
M  V30 30126 C 2781.24 -1.82713 1.36716 0
M  V30 30127 C 2782.22 -1.60885 0.235561 0
M  V30 30128 O 2783.4 -1.83733 0.421259 0
M  V30 30129 C 2780.53 -3.19268 1.13074 0
M  V30 30130 C 2779.57 -3.59901 2.28853 0
M  V30 30131 S 2780.41 -3.65571 3.91303 0
M  V30 30132 C 2781.56 -5.04864 3.6995 0
M  V30 30133 H 2781.8 -1.8611 2.31841 0
M  V30 30134 H 2779.33 -0.87106 1.27483 0
M  V30 30135 H 2781.29 -3.98103 1.0012 0
M  V30 30136 H 2779.95 -3.13489 0.195818 0
M  V30 30137 H 2779.14 -4.59084 2.07986 0
M  V30 30138 H 2778.74 -2.88355 2.38175 0
M  V30 30139 H 2781.04 -5.92148 3.29192 0
M  V30 30140 H 2781.98 -5.30771 4.68709 0
M  V30 30141 H 2782.39 -4.76049 3.03378 0
M  V30 30142 N 2781.78 -1.26752 -0.936569 0
M  V30 30143 C 2783.06 -1.03309 -1.66092 0
M  V30 30144 C 2783.44 0.435021 -2.06569 0
M  V30 30145 O 2782.79 1.41637 -1.79307 0
M  V30 30146 C 2783 -1.98624 -2.86966 0
M  V30 30147 C 2784.35 -2.27495 -3.58512 0
M  V30 30148 O 2785.37 -1.96527 -2.97078 0
M  V30 30149 O 2784.23 -2.80243 -4.69176 0
M  V30 30150 H 2781.32 -0.393171 -0.727561 0
M  V30 30151 H 2783.87 -1.37981 -0.98789 0
M  V30 30152 H 2782.64 -2.97674 -2.5398 0
M  V30 30153 H 2782.27 -1.6446 -3.61993 0
M  V30 30154 N 2783.26 1.1418 -1.08631 0
M  V30 30155 C 2784.23 2.17529 -0.722065 0
M  V30 30156 C 2785.23 1.58934 0.244278 0
M  V30 30157 O 2786.42 1.74184 0.0235239 0
M  V30 30158 C 2783.55 3.40835 -0.0664565 0
M  V30 30159 H 2784.74 2.51266 -1.63724 0
M  V30 30160 H 2782.29 1.28868 -0.884465 0
M  V30 30161 H 2783.03 3.1268 0.860334 0
M  V30 30162 H 2782.81 3.84631 -0.761665 0
M  V30 30163 H 2784.3 4.1724 0.173272 0
M  V30 30164 N 2784.74 0.872304 1.31258 0
M  V30 30165 C 2785.67 0.345595 2.30928 0
M  V30 30166 C 2786.65 -0.564772 1.6045 0
M  V30 30167 O 2787.84 -0.481301 1.88141 0
M  V30 30168 C 2784.97 -0.451762 3.44349 0
M  V30 30169 C 2783.92 0.365716 4.26435 0
M  V30 30170 C 2783.25 -0.557469 5.31786 0
M  V30 30171 C 2784.55 1.60104 4.97156 0
M  V30 30172 H 2786.24 1.17846 2.75232 0
M  V30 30173 H 2783.79 0.568117 1.32319 0
M  V30 30174 H 2785.74 -0.830782 4.13129 0
M  V30 30175 H 2784.46 -1.31816 2.98818 0
M  V30 30176 H 2783.12 0.726712 3.59325 0
M  V30 30177 H 2782.77 -1.42121 4.82505 0
M  V30 30178 H 2782.47 -0.0143845 5.87598 0
M  V30 30179 H 2783.99 -0.933281 6.03425 0
M  V30 30180 H 2785.41 1.29333 5.58521 0
M  V30 30181 H 2783.81 2.08337 5.62775 0
M  V30 30182 H 2784.88 2.35257 4.24007 0
M  V30 30183 N 2786.22 -1.44374 0.631976 0
M  V30 30184 C 2787.63 -1.568 0.297669 0
M  V30 30185 C 2787.83 -1.61936 -1.19913 0
M  V30 30186 O 2786.89 -1.56285 -1.98321 0
M  V30 30187 C 2788.2 -2.83924 0.990336 0
M  V30 30188 C 2789.75 -2.97637 0.96856 0
M  V30 30189 C 2790.23 -4.27565 1.64171 0
M  V30 30190 N 2791.72 -4.34381 1.60834 0
M  V30 30191 C 2792.45 -5.33635 2.09812 0
M  V30 30192 N 2791.95 -6.3929 2.66984 0
M  V30 30193 N 2793.74 -5.2515 2.00436 0
M  V30 30194 H 2785.89 -1.39283 1.60356 0
M  V30 30195 H 2788.16 -0.667509 0.673153 0
M  V30 30196 H 2787.86 -2.86117 2.04524 0
M  V30 30197 H 2787.74 -3.73477 0.528629 0
M  V30 30198 H 2790.12 -2.94997 -0.0778728 0
M  V30 30199 H 2790.2 -2.0943 1.46877 0
M  V30 30200 H 2789.85 -4.30965 2.6876 0
M  V30 30201 H 2789.78 -5.14632 1.11633 0
M  V30 30202 H 2792.27 -3.58644 1.19093 0
M  V30 30203 H 2792.58 -7.11311 3.02087 0
M  V30 30204 H 2790.93 -6.39973 2.71035 0
M  V30 30205 H 2794.12 -4.4152 1.55491 0
M  V30 30206 H 2794.29 -6.02348 2.38917 0
M  V30 30207 N 2787.7 -0.372575 -1.53133 0
M  V30 30208 C 2788.95 0.21608 -2.00539 0
M  V30 30209 C 2789.26 1.49293 -1.26377 0
M  V30 30210 O 2790.46 2.16061 -1.64408 0
M  V30 30211 C 2788.92 0.435615 -3.57254 0
M  V30 30212 C 2788.53 -0.827007 -4.40301 0
M  V30 30213 C 2790.27 0.981545 -4.12996 0
M  V30 30214 C 2788.18 -0.576671 -5.88582 0
M  V30 30215 H 2787.11 0.0845228 -0.749248 0
M  V30 30216 H 2789.76 -0.492395 -1.7677 0
M  V30 30217 H 2788.14 1.20553 -3.77204 0
M  V30 30218 H 2789.32 -1.60025 -4.32121 0
M  V30 30219 H 2787.63 -1.29666 -3.95696 0
M  V30 30220 H 2790.23 1.18427 -5.2142 0
M  V30 30221 H 2790.57 1.94574 -3.68031 0
M  V30 30222 H 2791.1 0.271627 -3.96872 0
M  V30 30223 H 2787.84 -1.51139 -6.37838 0
M  V30 30224 H 2787.36 0.157941 -5.99592 0
M  V30 30225 H 2789.04 -0.204836 -6.46676 0
M  V30 30226 N 2789.17 1.5727 -0.101929 0
M  V30 30227 C 2790.11 2.11438 0.884685 0
M  V30 30228 C 2791.12 1.05316 1.24147 0
M  V30 30229 O 2792.31 1.32742 1.19339 0
M  V30 30230 C 2789.41 2.58488 2.19174 0
M  V30 30231 C 2788.58 3.8852 2.00926 0
M  V30 30232 C 2787.64 4.21346 3.15205 0
M  V30 30233 O 2786.67 4.90453 2.88868 0
M  V30 30234 N 2787.87 3.77295 4.41167 0
M  V30 30235 H 2790.63 2.96714 0.422006 0
M  V30 30236 H 2788.19 1.61687 0.0829844 0
M  V30 30237 H 2790.19 2.77489 2.94588 0
M  V30 30238 H 2788.76 1.78185 2.56844 0
M  V30 30239 H 2787.98 3.78599 1.09803 0
M  V30 30240 H 2789.26 4.73577 1.86018 0
M  V30 30241 H 2788.66 3.21524 4.65445 0
M  V30 30242 H 2787.22 4.01438 5.13508 0
M  V30 30243 N 2790.65 -0.171793 1.56661 0
M  V30 30244 C 2791.59 -1.24146 1.91476 0
M  V30 30245 C 2792.56 -1.42806 0.77751 0
M  V30 30246 O 2793.75 -1.5782 1.03078 0
M  V30 30247 C 2790.87 -2.60449 2.16527 0
M  V30 30248 C 2789.92 -2.58527 3.39214 0
M  V30 30249 S 2790.75 -2.07657 4.93598 0
M  V30 30250 C 2791.91 -3.45738 5.21743 0
M  V30 30251 H 2792.14 -0.944296 2.81905 0
M  V30 30252 H 2789.68 -0.376338 1.49743 0
M  V30 30253 H 2791.63 -3.38899 2.31641 0
M  V30 30254 H 2790.29 -2.87365 1.26807 0
M  V30 30255 H 2789.49 -3.58806 3.53941 0
M  V30 30256 H 2789.09 -1.88173 3.23214 0
M  V30 30257 H 2791.38 -4.41732 5.13692 0
M  V30 30258 H 2792.32 -3.35885 6.23367 0
M  V30 30259 H 2792.73 -3.41728 4.49313 0
M  V30 30260 N 2792.13 -1.51324 -0.44033 0
M  V30 30261 C 2793.04 -1.75261 -1.55952 0
M  V30 30262 C 2794.06 -0.636715 -1.61932 0
M  V30 30263 O 2795.23 -0.918625 -1.7923 0
M  V30 30264 C 2792.3 -1.86982 -2.91956 0
M  V30 30265 C 2791.36 -3.10827 -2.96117 0
M  V30 30266 C 2790.59 -3.2198 -4.25634 0
M  V30 30267 O 2790.81 -2.39146 -5.17847 0
M  V30 30268 O 2789.75 -4.14937 -4.36017 0
M  V30 30269 H 2793.57 -2.70194 -1.38668 0
M  V30 30270 H 2791.16 -1.35789 -0.623031 0
M  V30 30271 H 2793.04 -1.96695 -3.72678 0
M  V30 30272 H 2791.72 -0.952361 -3.09373 0
M  V30 30273 H 2790.62 -3.06595 -2.14361 0
M  V30 30274 H 2791.96 -4.02252 -2.83644 0
M  V30 30275 N 2793.61 0.695578 -1.41419 0
M  V30 30276 C 2794.52 1.8393 -1.45626 0
M  V30 30277 C 2795.53 1.70508 -0.346855 0
M  V30 30278 O 2796.71 1.92423 -0.594574 0
M  V30 30279 C 2793.78 3.19911 -1.33633 0
M  V30 30280 C 2792.84 3.45442 -2.54888 0
M  V30 30281 C 2792.07 4.74936 -2.43458 0
M  V30 30282 O 2792.29 5.51421 -1.45914 0
M  V30 30283 O 2791.23 5.0125 -3.33215 0
M  V30 30284 H 2795.05 1.83338 -2.42118 0
M  V30 30285 H 2792.64 0.848637 -1.22957 0
M  V30 30286 H 2794.52 4.01096 -1.29228 0
M  V30 30287 H 2793.19 3.21187 -0.402564 0
M  V30 30288 H 2792.1 2.64188 -2.64869 0
M  V30 30289 H 2793.43 3.48981 -3.47093 0
M  V30 30290 N 2795.09 1.27247 0.929833 0
M  V30 30291 C 2796.5 1.04606 1.2054 0
M  V30 30292 C 2796.7 -0.221719 2.00276 0
M  V30 30293 O 2795.76 -0.927792 2.34837 0
M  V30 30294 C 2797.07 2.2842 1.95562 0
M  V30 30295 C 2798.62 2.33437 2.08509 0
M  V30 30296 C 2799.1 3.56975 2.86937 0
M  V30 30297 N 2800.59 3.5752 2.94506 0
M  V30 30298 C 2801.32 4.4978 3.55648 0
M  V30 30299 N 2800.82 5.52342 4.18199 0
M  V30 30300 N 2802.61 4.37408 3.53031 0
M  V30 30301 H 2794.76 2.08655 0.397076 0
M  V30 30302 H 2797.02 0.917571 0.23826 0
M  V30 30303 H 2796.73 3.20694 1.44389 0
M  V30 30304 H 2796.6 2.33568 2.96186 0
M  V30 30305 H 2798.99 1.41671 2.58869 0
M  V30 30306 H 2799.07 2.32294 1.07113 0
M  V30 30307 H 2798.72 4.49077 2.37261 0
M  V30 30308 H 2798.65 3.55369 3.88614 0
M  V30 30309 H 2801.14 2.83345 2.50048 0
M  V30 30310 H 2801.45 6.1891 4.62785 0
M  V30 30311 H 2799.8 5.56187 4.16751 0
M  V30 30312 H 2802.99 3.56494 3.03364 0
M  V30 30313 H 2803.16 5.095 4.00391 0
M  V30 30314 N 2796.57 -1.13603 1.09235 0
M  V30 30315 C 2797.81 -1.84834 0.827192 0
M  V30 30316 C 2798.14 -1.83418 -0.647167 0
M  V30 30317 O 2797.4 -1.26611 -1.49225 0
M  V30 30318 C 2797.69 -3.3272 1.30506 0
M  V30 30319 C 2797.36 -3.5432 2.7887 0
M  V30 30320 C 2796.02 -3.59923 3.19388 0
M  V30 30321 C 2798.37 -3.6245 3.74539 0
M  V30 30322 C 2795.7 -3.71188 4.54353 0
M  V30 30323 C 2798.05 -3.75243 5.09289 0
M  V30 30324 C 2796.72 -3.79098 5.49401 0
M  V30 30325 H 2795.99 -0.676357 0.302691 0
M  V30 30326 H 2798.64 -1.34132 1.36678 0
M  V30 30327 H 2796.94 -3.85761 0.685238 0
M  V30 30328 H 2798.64 -3.86279 1.07654 0
M  V30 30329 H 2795.23 -3.50613 2.46513 0
M  V30 30330 H 2799.41 -3.57403 3.4435 0
M  V30 30331 H 2794.67 -3.72439 4.8487 0
M  V30 30332 H 2798.84 -3.80477 5.83276 0
M  V30 30333 H 2796.47 -3.87579 6.53977 0
M  V30 30334 N 2798.04 -0.879253 -1.30793 0
M  V30 30335 C 2798.98 -0.286444 -2.26395 0
M  V30 30336 C 2799.95 0.589722 -1.51529 0
M  V30 30337 O 2801.14 0.541087 -1.80567 0
M  V30 30338 C 2798.27 0.593522 -3.33459 0
M  V30 30339 C 2797.31 -0.212545 -4.2597 0
M  V30 30340 S 2798.14 -1.59711 -5.11129 0
M  V30 30341 C 2799.3 -0.723517 -6.21704 0
M  V30 30342 H 2799.53 -1.09682 -2.76328 0
M  V30 30343 H 2797.07 -0.678329 -1.38701 0
M  V30 30344 H 2799.02 1.09551 -3.95612 0
M  V30 30345 H 2797.69 1.37794 -2.82262 0
M  V30 30346 H 2796.88 0.458734 -5.01908 0
M  V30 30347 H 2796.48 -0.646948 -3.68362 0
M  V30 30348 H 2798.77 0.0619548 -6.77472 0
M  V30 30349 H 2799.72 -1.45432 -6.93004 0
M  V30 30350 H 2800.12 -0.286954 -5.6377 0
M  V30 30351 N 2799.52 1.44037 -0.639624 0
M  V30 30352 C 2800.48 2.29144 0.0506226 0
M  V30 30353 C 2801.48 1.41492 0.763976 0
M  V30 30354 O 2802.67 1.63272 0.60728 0
M  V30 30355 C 2799.81 3.23262 1.08235 0
M  V30 30356 H 2801 2.91663 -0.698038 0
M  V30 30357 H 2798.55 1.5109 -0.400173 0
M  V30 30358 H 2799.29 2.65609 1.8607 0
M  V30 30359 H 2799.07 3.87866 0.574656 0
M  V30 30360 H 2800.56 3.87174 1.56481 0
M  V30 30361 N 2801 0.380691 1.52933 0
M  V30 30362 C 2802.22 -0.207121 2.06363 0
M  V30 30363 C 2802.65 -1.40447 1.25124 0
M  V30 30364 O 2802.01 -1.79216 0.274094 0
M  V30 30365 C 2802.06 -0.563933 3.56163 0
M  V30 30366 O 2801.16 -1.6591 3.77555 0
M  V30 30367 H 2800.5 -0.0265742 0.663468 0
M  V30 30368 H 2803.03 0.545669 1.97189 0
M  V30 30369 H 2803.04 -0.830682 3.99454 0
M  V30 30370 H 2801.72 0.3115 4.14732 0
M  V30 30371 H 2800.29 -1.38674 3.46156 0
M  V30 30372 N 2802.48 -1.57214 0.110268 0
M  V30 30373 C 2803.43 -2.16096 -0.860548 0
M  V30 30374 C 2804.42 -1.10783 -1.28155 0
M  V30 30375 O 2805.63 -1.29102 -1.2543 0
M  V30 30376 H 2802 -0.691468 -0.295594 0
M  V30 30377 H 2803.97 -2.96464 -0.339368 0
M  V30 30378 C 2802.72 -2.76803 -2.10417 0
M  V30 30379 H 2802.04 -3.57533 -1.78913 0
M  V30 30380 H 2803.48 -3.21552 -2.7637 0
M  V30 30381 C 2801.94 -1.73449 -2.8882 0
M  V30 30382 O 2802.47 -1.18258 -3.83898 0
M  V30 30383 N 2800.68 -1.43591 -2.52646 0
M  V30 30384 H 2800.23 -1.88663 -1.75397 0
M  V30 30385 H 2800.18 -0.746789 -3.05402 0
M  V30 30386 N 2803.96 0.163482 -1.5675 0
M  V30 30387 C 2805.37 0.725185 -1.72041 0
M  V30 30388 C 2805.72 1.8243 -0.722052 0
M  V30 30389 O 2804.84 2.16095 0.114904 0
M  V30 30390 C 2805.44 1.32222 -3.11934 0
M  V30 30391 C 2804 1.83066 -3.28883 0
M  V30 30392 C 2803.14 0.712668 -2.67986 0
M  V30 30393 H 2806.09 -0.0620051 -1.58579 0
M  V30 30394 H 2806.12 2.19197 -3.11019 0
M  V30 30395 H 2805.63 0.522035 -3.84573 0
M  V30 30396 H 2803.73 2.65703 -2.61213 0
M  V30 30397 H 2803.84 1.97071 -4.36692 0
M  V30 30398 H 2802.21 1.13511 -2.28007 0
M  V30 30399 H 2802.99 -0.0757964 -3.43216 0
M  V30 30400 N 2805.43 1.51555 0.432299 0
M  V30 30401 C 2806.66 1.68574 1.20821 0
M  V30 30402 C 2807.08 0.384628 1.84126 0
M  V30 30403 O 2806.44 -0.655722 1.69027 0
M  V30 30404 C 2806.49 2.8065 2.26424 0
M  V30 30405 O 2805.59 2.44604 3.32028 0
M  V30 30406 H 2804.93 0.561919 0.353755 0
M  V30 30407 H 2807.46 1.98145 0.509881 0
M  V30 30408 H 2807.47 3.04883 2.71128 0
M  V30 30409 H 2806.15 3.75062 1.79727 0
M  V30 30410 H 2804.73 2.30961 2.92765 0
M  V30 30411 N 2806.91 -0.688069 1.41786 0
M  V30 30412 C 2807.86 -1.80189 1.44224 0
M  V30 30413 C 2808.83 -1.63446 0.295717 0
M  V30 30414 O 2810.01 -1.8419 0.497862 0
M  V30 30415 C 2807.15 -3.18128 1.33749 0
M  V30 30416 C 2806.27 -3.4625 2.58331 0
M  V30 30417 C 2805.4 -4.73844 2.40095 0
M  V30 30418 C 2804.44 -4.94958 3.60116 0
M  V30 30419 N 2803.58 -6.13783 3.40903 0
M  V30 30420 H 2808.42 -1.7744 2.39414 0
M  V30 30421 H 2805.95 -0.866402 1.18878 0
M  V30 30422 H 2807.91 -3.97821 1.25676 0
M  V30 30423 H 2806.54 -3.20035 0.421626 0
M  V30 30424 H 2805.59 -2.60907 2.76824 0
M  V30 30425 H 2806.91 -3.5775 3.47586 0
M  V30 30426 H 2806.06 -5.61605 2.29532 0
M  V30 30427 H 2804.8 -4.64603 1.48308 0
M  V30 30428 H 2803.8 -4.05643 3.71125 0
M  V30 30429 H 2805.03 -5.06053 4.52866 0
M  V30 30430 H 2802.98 -6.05741 2.51822 0
M  V30 30431 H 2802.89 -6.26085 4.23738 0
M  V30 30432 H 2804.16 -7.04258 3.34127 0
M  V30 30433 N 2808.39 -1.27739 -0.923072 0
M  V30 30434 C 2809.64 -1.14517 -1.67373 0
M  V30 30435 C 2809.97 0.307391 -1.91752 0
M  V30 30436 O 2809.24 1.22444 -1.51121 0
M  V30 30437 C 2809.53 -1.93425 -3.03741 0
M  V30 30438 C 2809.38 -3.46691 -2.86575 0
M  V30 30439 C 2810.7 -1.74235 -4.04141 0
M  V30 30440 H 2807.82 -0.417385 -0.60742 0
M  V30 30441 H 2810.46 -1.56948 -1.07086 0
M  V30 30442 H 2808.61 -1.57366 -3.55201 0
M  V30 30443 H 2810.28 -3.92605 -2.42196 0
M  V30 30444 H 2808.52 -3.72797 -2.21822 0
M  V30 30445 H 2809.2 -3.9715 -3.83374 0
M  V30 30446 H 2811.67 -2.05684 -3.61709 0
M  V30 30447 H 2810.55 -2.31833 -4.97539 0
M  V30 30448 H 2810.81 -0.691449 -4.36659 0
M  V30 30449 N 2809.87 1.13022 -1.09836 0
M  V30 30450 C 2811.09 1.88769 -0.859123 0
M  V30 30451 C 2811.52 1.78792 0.58437 0
M  V30 30452 O 2810.88 1.13845 1.41099 0
M  V30 30453 C 2810.92 3.36184 -1.30433 0
M  V30 30454 O 2810.03 4.09765 -0.46544 0
M  V30 30455 H 2809.37 0.586772 -0.310797 0
M  V30 30456 H 2811.9 1.42971 -1.46357 0
M  V30 30457 H 2811.91 3.87017 -1.29157 0
M  V30 30458 H 2810.58 3.42763 -2.35556 0
M  V30 30459 H 2809.16 3.68927 -0.542879 0
M  V30 30460 N 2811.35 0.886177 1.30325 0
M  V30 30461 C 2812.58 0.519457 1.99963 0
M  V30 30462 C 2812.98 -0.89683 1.66594 0
M  V30 30463 O 2812.33 -1.60148 0.899914 0
M  V30 30464 C 2812.39 0.615857 3.54186 0
M  V30 30465 C 2812.05 1.99667 4.11074 0
M  V30 30466 C 2813.05 2.96622 4.2698 0
M  V30 30467 C 2810.74 2.30238 4.46425 0
M  V30 30468 C 2812.73 4.22281 4.77449 0
M  V30 30469 C 2810.42 3.56143 4.96594 0
M  V30 30470 C 2811.41 4.51979 5.12058 0
M  V30 30471 O 2811.1 5.7565 5.61144 0
M  V30 30472 H 2810.83 0.199228 0.645975 0
M  V30 30473 H 2813.39 1.19371 1.67152 0
M  V30 30474 H 2811.62 -0.11538 3.86528 0
M  V30 30475 H 2813.31 0.260241 4.05065 0
M  V30 30476 H 2814.07 2.74315 3.9997 0
M  V30 30477 H 2809.95 1.56411 4.33655 0
M  V30 30478 H 2813.5 4.97091 4.89435 0
M  V30 30479 H 2809.39 3.78286 5.23039 0
M  V30 30480 H 2810.16 5.78049 5.79484 0
M  V30 30481 N 2812.82 -1.43695 0.647253 0
M  V30 30482 C 2813.76 -2.29036 -0.086583 0
M  V30 30483 C 2814.77 -1.42179 -0.793026 0
M  V30 30484 O 2815.96 -1.66175 -0.651778 0
M  V30 30485 C 2813.06 -3.18955 -1.14546 0
M  V30 30486 C 2812.23 -4.34318 -0.518345 0
M  V30 30487 C 2811.29 -5.05153 -1.47331 0
M  V30 30488 O 2810.32 -5.60626 -0.984214 0
M  V30 30489 N 2811.52 -5.08099 -2.80741 0
M  V30 30490 H 2814.28 -2.92657 0.645886 0
M  V30 30491 H 2811.84 -1.5432 0.489594 0
M  V30 30492 H 2813.84 -3.63208 -1.78499 0
M  V30 30493 H 2812.41 -2.56974 -1.77997 0
M  V30 30494 H 2811.63 -3.93056 0.300148 0
M  V30 30495 H 2812.91 -5.08737 -0.0803115 0
M  V30 30496 H 2812.31 -4.64392 -3.23043 0
M  V30 30497 H 2810.87 -5.56089 -3.40012 0
M  V30 30498 N 2814.3 -0.388796 -1.52729 0
M  V30 30499 C 2815.71 0.085346 -1.86505 0
M  V30 30500 C 2816.06 1.46194 -1.3085 0
M  V30 30501 O 2815.19 2.0673 -0.639645 0
M  V30 30502 C 2815.78 0.161644 -3.38414 0
M  V30 30503 C 2814.34 0.580078 -3.71903 0
M  V30 30504 C 2813.49 -0.258266 -2.76095 0
M  V30 30505 H 2816.44 -0.606691 -1.46646 0
M  V30 30506 H 2816.46 0.980871 -3.6764 0
M  V30 30507 H 2815.97 -0.8404 -3.78892 0
M  V30 30508 H 2814.08 1.58951 -3.36995 0
M  V30 30509 H 2814.19 0.338579 -4.77902 0
M  V30 30510 H 2812.55 0.276387 -2.53196 0
M  V30 30511 H 2813.34 -1.25828 -3.19409 0
M  V30 30512 N 2815.78 1.57153 -0.118604 0
M  V30 30513 C 2817.03 1.94356 0.539304 0
M  V30 30514 C 2817.34 1.00418 1.67856 0
M  V30 30515 O 2818.55 1.27085 2.3992 0
M  V30 30516 C 2817 3.45415 1.01075 0
M  V30 30517 C 2816.61 4.47888 -0.100019 0
M  V30 30518 C 2818.36 3.91538 1.64006 0
M  V30 30519 C 2816.26 5.90125 0.388108 0
M  V30 30520 H 2815.19 0.725531 0.205234 0
M  V30 30521 H 2817.84 1.82424 -0.198392 0
M  V30 30522 H 2816.23 3.5258 1.80286 0
M  V30 30523 H 2817.4 4.52392 -0.876268 0
M  V30 30524 H 2815.72 4.11515 -0.635957 0
M  V30 30525 H 2818.31 4.95223 2.0164 0
M  V30 30526 H 2818.66 3.31492 2.51831 0
M  V30 30527 H 2819.19 3.87172 0.913371 0
M  V30 30528 H 2815.93 6.53925 -0.454078 0
M  V30 30529 H 2815.45 5.89043 1.13085 0
M  V30 30530 H 2817.13 6.41399 0.849462 0
M  V30 30531 N 2817.26 -0.155167 1.56834 0
M  V30 30532 C 2818.49 -0.884293 1.8705 0
M  V30 30533 C 2818.9 -1.75108 0.70587 0
M  V30 30534 O 2818.26 -1.7959 -0.32461 0
M  V30 30535 C 2818.31 -1.74775 3.16443 0
M  V30 30536 O 2818.03 -0.915903 4.28419 0
M  V30 30537 C 2819.53 -2.58516 3.60117 0
M  V30 30538 H 2816.75 -0.256109 0.620201 0
M  V30 30539 H 2819.3 -0.150409 2.03946 0
M  V30 30540 H 2817.45 -2.43479 3.01325 0
M  V30 30541 H 2817.86 -1.50794 5.02356 0
M  V30 30542 H 2819.34 -3.1469 4.53513 0
M  V30 30543 H 2819.82 -3.34164 2.85011 0
M  V30 30544 H 2820.42 -1.95117 3.77901 0
M  V30 30545 N 2818.74 -1.51782 -0.424256 0
M  V30 30546 C 2819.96 -1.68924 -1.19467 0
M  V30 30547 C 2820.38 -0.392162 -1.84682 0
M  V30 30548 O 2819.74 0.630524 -1.71262 0
M  V30 30549 C 2819.79 -2.8142 -2.26904 0
M  V30 30550 O 2819.51 -4.06103 -1.64354 0
M  V30 30551 C 2821.01 -3.09942 -3.1694 0
M  V30 30552 H 2818.23 -0.566518 -0.359581 0
M  V30 30553 H 2820.77 -1.98265 -0.501105 0
M  V30 30554 H 2818.93 -2.5464 -2.91954 0
M  V30 30555 H 2819.34 -4.68678 -2.3546 0
M  V30 30556 H 2820.82 -3.92207 -3.8843 0
M  V30 30557 H 2821.29 -2.22877 -3.78447 0
M  V30 30558 H 2821.9 -3.3843 -2.57575 0
M  V30 30559 N 2820.21 0.68054 -1.42149 0
M  V30 30560 C 2821.44 1.469 -1.45699 0
M  V30 30561 C 2821.86 1.88682 -0.066619 0
M  V30 30562 O 2821.21 1.57765 0.917408 0
M  V30 30563 C 2821.27 2.72184 -2.37903 0
M  V30 30564 O 2820.99 2.32157 -3.7153 0
M  V30 30565 C 2822.49 3.65798 -2.50413 0
M  V30 30566 H 2819.71 0.452201 -0.495737 0
M  V30 30567 H 2822.25 0.836677 -1.86601 0
M  V30 30568 H 2820.41 3.31619 -2.00269 0
M  V30 30569 H 2820.82 3.1302 -4.20855 0
M  V30 30570 H 2822.29 4.50447 -3.19064 0
M  V30 30571 H 2822.77 4.11309 -1.54017 0
M  V30 30572 H 2823.38 3.1226 -2.88745 0
M  V30 30573 N 2821.69 1.28226 0.916285 0
M  V30 30574 C 2822.62 1.14468 2.03518 0
M  V30 30575 C 2823.6 0.0431143 1.70045 0
M  V30 30576 O 2824.79 0.219653 1.92954 0
M  V30 30577 C 2821.92 0.803087 3.37887 0
M  V30 30578 C 2820.87 1.85914 3.85512 0
M  V30 30579 C 2820.2 1.37125 5.16818 0
M  V30 30580 C 2821.5 3.26526 4.07649 0
M  V30 30581 H 2823.19 2.08068 2.15286 0
M  V30 30582 H 2820.74 1.00176 1.03444 0
M  V30 30583 H 2822.69 0.693611 4.15653 0
M  V30 30584 H 2821.42 -0.168617 3.26164 0
M  V30 30585 H 2820.07 1.95772 3.0995 0
M  V30 30586 H 2819.72 0.388678 5.01496 0
M  V30 30587 H 2819.42 2.07738 5.49653 0
M  V30 30588 H 2820.95 1.27494 5.97141 0
M  V30 30589 H 2822.36 3.19604 4.75948 0
M  V30 30590 H 2820.76 3.94951 4.51811 0
M  V30 30591 H 2821.83 3.70732 3.12547 0
M  V30 30592 N 2823.17 -1.12438 1.10433 0
M  V30 30593 C 2824.12 -2.18166 0.753141 0
M  V30 30594 C 2825.09 -1.63882 -0.27052 0
M  V30 30595 O 2826.27 -1.90211 -0.149804 0
M  V30 30596 C 2823.41 -3.4457 0.191106 0
M  V30 30597 C 2822.53 -4.12908 1.27006 0
M  V30 30598 C 2821.66 -5.26962 0.669679 0
M  V30 30599 C 2820.7 -5.87166 1.72922 0
M  V30 30600 N 2819.84 -6.92633 1.1491 0
M  V30 30601 H 2824.68 -2.47553 1.65896 0
M  V30 30602 H 2822.21 -1.21539 0.828652 0
M  V30 30603 H 2824.17 -4.16921 -0.152638 0
M  V30 30604 H 2822.8 -3.15601 -0.677942 0
M  V30 30605 H 2821.85 -3.38737 1.73093 0
M  V30 30606 H 2823.17 -4.53723 2.07212 0
M  V30 30607 H 2822.32 -6.06075 0.27538 0
M  V30 30608 H 2821.06 -4.87425 -0.16381 0
M  V30 30609 H 2820.06 -5.0674 2.13294 0
M  V30 30610 H 2821.29 -6.28774 2.56555 0
M  V30 30611 H 2819.23 -6.55133 0.337071 0
M  V30 30612 H 2819.15 -7.32046 1.88799 0
M  V30 30613 H 2820.42 -7.75574 0.781346 0
M  V30 30614 N 2824.65 -0.893076 -1.29853 0
M  V30 30615 C 2826.07 -0.588225 -1.48365 0
M  V30 30616 C 2826.27 0.871986 -1.81655 0
M  V30 30617 O 2825.32 1.65265 -1.90903 0
M  V30 30618 C 2826.63 -1.50835 -2.60133 0
M  V30 30619 C 2828.18 -1.51284 -2.74011 0
M  V30 30620 C 2828.66 -2.41909 -3.88901 0
M  V30 30621 N 2830.15 -2.39918 -3.96224 0
M  V30 30622 C 2830.88 -3.06747 -4.84452 0
M  V30 30623 N 2830.38 -3.8283 -5.77419 0
M  V30 30624 N 2832.17 -2.95938 -4.77888 0
M  V30 30625 H 2824.32 -1.83759 -1.06519 0
M  V30 30626 H 2826.59 -0.787027 -0.528481 0
M  V30 30627 H 2826.29 -2.54844 -2.42379 0
M  V30 30628 H 2826.17 -1.22394 -3.56791 0
M  V30 30629 H 2828.55 -0.48023 -2.91166 0
M  V30 30630 H 2828.63 -1.8376 -1.77949 0
M  V30 30631 H 2828.28 -3.4526 -3.72502 0
M  V30 30632 H 2828.21 -2.06746 -4.84318 0
M  V30 30633 H 2830.7 -1.84634 -3.29725 0
M  V30 30634 H 2831.01 -4.30894 -6.41522 0
M  V30 30635 H 2829.36 -3.86938 -5.77325 0
M  V30 30636 H 2832.55 -2.36019 -4.04244 0
M  V30 30637 H 2832.72 -3.48296 -5.46438 0
M  V30 30638 N 2826.13 1.4335 -0.654865 0
M  V30 30639 C 2827.07 2.30772 0.0357308 0
M  V30 30640 C 2828.04 1.44843 0.81301 0
M  V30 30641 O 2829.23 1.73709 0.789283 0
M  V30 30642 C 2826.37 3.30444 0.995025 0
M  V30 30643 C 2825.48 4.31471 0.213675 0
M  V30 30644 C 2824.62 5.18224 1.16692 0
M  V30 30645 C 2823.66 6.10943 0.376094 0
M  V30 30646 N 2822.79 6.90315 1.28101 0
M  V30 30647 H 2827.63 2.89279 -0.71564 0
M  V30 30648 H 2825.17 1.42508 -0.36467 0
M  V30 30649 H 2827.13 3.86741 1.56483 0
M  V30 30650 H 2825.76 2.73583 1.71325 0
M  V30 30651 H 2824.81 3.77455 -0.472444 0
M  V30 30652 H 2826.12 4.97184 -0.401191 0
M  V30 30653 H 2825.28 5.79156 1.8073 0
M  V30 30654 H 2824.02 4.52641 1.81569 0
M  V30 30655 H 2823.02 5.49099 -0.27763 0
M  V30 30656 H 2824.25 6.7857 -0.268298 0
M  V30 30657 H 2822.19 6.27379 1.91655 0
M  V30 30658 H 2822.11 7.52556 0.720747 0
M  V30 30659 H 2823.38 7.5575 1.90949 0
M  V30 30660 N 2827.61 0.39689 1.52521 0
M  V30 30661 C 2828.54 -0.469774 2.24334 0
M  V30 30662 C 2829.55 -1.02041 1.26852 0
M  V30 30663 O 2830.74 -0.921444 1.52878 0
M  V30 30664 C 2827.84 -1.66455 2.95205 0
M  V30 30665 C 2827.01 -1.23996 4.19456 0
M  V30 30666 C 2826.07 -2.30027 4.73259 0
M  V30 30667 O 2825.1 -1.91122 5.36154 0
M  V30 30668 N 2826.3 -3.62039 4.53771 0
M  V30 30669 H 2829.06 0.14552 2.99347 0
M  V30 30670 H 2826.63 0.223635 1.60348 0
M  V30 30671 H 2828.62 -2.36929 3.28096 0
M  V30 30672 H 2827.19 -2.18603 2.23454 0
M  V30 30673 H 2826.41 -0.363823 3.92517 0
M  V30 30674 H 2827.7 -0.933047 5.00172 0
M  V30 30675 H 2827.09 -3.96405 4.03583 0
M  V30 30676 H 2825.65 -4.28524 4.91132 0
M  V30 30677 N 2829.08 -1.57088 0.126936 0
M  V30 30678 C 2829.99 -2.19282 -0.833828 0
M  V30 30679 C 2831.01 -1.17124 -1.28678 0
M  V30 30680 O 2832.19 -1.49625 -1.34812 0
M  V30 30681 C 2829.25 -2.7863 -2.06315 0
M  V30 30682 C 2828.31 -3.9585 -1.66136 0
M  V30 30683 C 2827.54 -4.52359 -2.83209 0
M  V30 30684 O 2827.77 -4.07757 -3.98861 0
M  V30 30685 O 2826.7 -5.42926 -2.59836 0
M  V30 30686 H 2830.53 -3.01852 -0.334511 0
M  V30 30687 H 2828.11 -1.49071 -0.0990829 0
M  V30 30688 H 2829.99 -3.1643 -2.78298 0
M  V30 30689 H 2828.67 -1.99086 -2.55238 0
M  V30 30690 H 2827.58 -3.62804 -0.912372 0
M  V30 30691 H 2828.91 -4.76854 -1.21948 0
M  V30 30692 N 2830.56 0.146848 -1.56914 0
M  V30 30693 C 2831.47 1.20075 -2.01542 0
M  V30 30694 C 2832.49 1.47007 -0.930864 0
M  V30 30695 O 2833.66 1.58673 -1.24035 0
M  V30 30696 C 2830.73 2.51424 -2.38719 0
M  V30 30697 C 2829.79 2.32138 -3.61124 0
M  V30 30698 C 2829.02 3.57224 -3.96518 0
M  V30 30699 O 2829.25 4.63412 -3.32574 0
M  V30 30700 O 2828.18 3.49878 -4.89764 0
M  V30 30701 H 2832.01 0.851872 -2.91508 0
M  V30 30702 H 2829.59 0.355582 -1.45107 0
M  V30 30703 H 2831.47 3.28863 -2.63491 0
M  V30 30704 H 2830.15 2.85842 -1.51908 0
M  V30 30705 H 2829.05 1.5265 -3.41539 0
M  V30 30706 H 2830.39 2.02636 -4.48553 0
M  V30 30707 N 2832.04 1.52005 0.4162 0
M  V30 30708 C 2833.29 1.65962 1.16552 0
M  V30 30709 C 2833.62 0.38494 1.90347 0
M  V30 30710 O 2832.89 -0.616372 1.84475 0
M  V30 30711 C 2833.18 2.877 2.16565 0
M  V30 30712 C 2833.03 4.252 1.46714 0
M  V30 30713 C 2834.35 3.04957 3.17316 0
M  V30 30714 H 2831.47 0.603972 0.422358 0
M  V30 30715 H 2834.11 1.84543 0.452109 0
M  V30 30716 H 2832.26 2.71989 2.77406 0
M  V30 30717 H 2833.93 4.52624 0.89048 0
M  V30 30718 H 2832.17 4.26926 0.769188 0
M  V30 30719 H 2832.85 5.06414 2.19656 0
M  V30 30720 H 2835.32 3.19519 2.66546 0
M  V30 30721 H 2834.2 3.91663 3.84567 0
M  V30 30722 H 2834.46 2.17957 3.84639 0
M  V30 30723 N 2833.52 -0.672992 1.42508 0
M  V30 30724 C 2834.74 -1.46625 1.46683 0
M  V30 30725 C 2835.17 -1.87929 0.080099 0
M  V30 30726 O 2834.53 -1.56114 -0.921851 0
M  V30 30727 C 2834.57 -2.69047 2.40096 0
M  V30 30728 O 2833.68 -3.67384 1.87357 0
M  V30 30729 H 2833.02 -0.440421 0.496915 0
M  V30 30730 H 2835.55 -0.825302 1.87216 0
M  V30 30731 H 2835.56 -3.17097 2.56737 0
M  V30 30732 H 2834.23 -2.38324 3.40844 0
M  V30 30733 H 2832.81 -3.26425 1.8028 0
M  V30 30734 N 2835 -1.2871 -0.909472 0
M  V30 30735 C 2835.96 -1.13019 -1.99397 0
M  V30 30736 C 2836.96 -0.0685643 -1.60654 0
M  V30 30737 O 2838.15 -0.314701 -1.71334 0
M  V30 30738 C 2835.28 -0.726144 -3.33077 0
M  V30 30739 H 2836.47 -2.09341 -2.14747 0
M  V30 30740 H 2834.03 -1.11758 -1.0927 0
M  V30 30741 H 2834.76 0.237653 -3.23428 0
M  V30 30742 H 2834.55 -1.49308 -3.6256 0
M  V30 30743 H 2836.04 -0.639131 -4.1268 0
M  V30 30744 N 2836.47 1.1185 -1.11028 0
M  V30 30745 C 2837.72 1.83767 -0.857762 0
M  V30 30746 C 2838.05 1.84201 0.61511 0
M  V30 30747 O 2837.33 1.29199 1.45389 0
M  V30 30748 C 2837.61 3.31152 -1.41459 0
M  V30 30749 C 2837.46 3.39137 -2.95477 0
M  V30 30750 C 2838.78 4.27095 -1.06198 0
M  V30 30751 H 2835.9 0.667207 -0.313056 0
M  V30 30752 H 2838.54 1.31182 -1.37445 0
M  V30 30753 H 2836.69 3.76063 -0.975118 0
M  V30 30754 H 2838.37 3.02815 -3.47995 0
M  V30 30755 H 2836.61 2.79491 -3.31764 0
M  V30 30756 H 2837.28 4.42853 -3.29523 0
M  V30 30757 H 2839.76 3.90341 -1.44128 0
M  V30 30758 H 2838.63 5.28615 -1.47841 0
M  V30 30759 H 2838.89 4.42091 0.0278135 0
M  V30 30760 N 2837.95 0.89995 1.29378 0
M  V30 30761 C 2839.2 0.521971 1.94829 0
M  V30 30762 C 2839.51 -0.936443 1.71727 0
M  V30 30763 O 2840.72 -1.42195 2.31285 0
M  V30 30764 C 2839.18 0.882611 3.4891 0
M  V30 30765 C 2838.78 2.35981 3.80811 0
M  V30 30766 C 2840.53 0.574554 4.20594 0
M  V30 30767 C 2838.43 2.6613 5.28137 0
M  V30 30768 H 2837.36 0.191481 0.729281 0
M  V30 30769 H 2840.02 1.09698 1.47101 0
M  V30 30770 H 2838.4 0.236529 3.95293 0
M  V30 30771 H 2839.57 3.05147 3.45286 0
M  V30 30772 H 2837.89 2.63692 3.22266 0
M  V30 30773 H 2840.48 0.776649 5.2903 0
M  V30 30774 H 2840.83 -0.486932 4.13442 0
M  V30 30775 H 2841.36 1.17849 3.79943 0
M  V30 30776 H 2838.1 3.71077 5.40353 0
M  V30 30777 H 2837.62 2.01588 5.64909 0
M  V30 30778 H 2839.3 2.5241 5.95734 0
M  V30 30779 N 2839.43 -1.43001 0.662458 0
M  V30 30780 C 2840.68 -2.00923 0.176908 0
M  V30 30781 C 2840.99 -1.52929 -1.21952 0
M  V30 30782 O 2842.2 -2.03185 -1.80078 0
M  V30 30783 C 2840.65 -3.5892 0.265442 0
M  V30 30784 C 2840.26 -4.15905 1.66514 0
M  V30 30785 C 2842.01 -4.24191 -0.162029 0
M  V30 30786 C 2839.91 -5.66226 1.7071 0
M  V30 30787 H 2838.84 -0.751415 0.062376 0
M  V30 30788 H 2841.49 -1.63866 0.825842 0
M  V30 30789 H 2839.88 -3.93422 -0.451166 0
M  V30 30790 H 2841.05 -3.92886 2.40784 0
M  V30 30791 H 2839.37 -3.6304 2.03939 0
M  V30 30792 H 2841.96 -5.34488 -0.150651 0
M  V30 30793 H 2842.31 -3.98776 -1.19512 0
M  V30 30794 H 2842.84 -3.94605 0.503144 0
M  V30 30795 H 2839.58 -5.96421 2.7196 0
M  V30 30796 H 2839.1 -5.91273 1.00779 0
M  V30 30797 H 2840.78 -6.30428 1.45498 0
M  V30 30798 N 2840.91 -0.404973 -1.52308 0
M  V30 30799 C 2841.84 0.457871 -2.2458 0
M  V30 30800 C 2842.85 1.01367 -1.27391 0
M  V30 30801 O 2844.04 0.913323 -1.53364 0
M  V30 30802 C 2841.14 1.64888 -2.96083 0
M  V30 30803 C 2840.32 1.2177 -4.20108 0
M  V30 30804 C 2839.37 2.27514 -4.74472 0
M  V30 30805 O 2838.4 1.88276 -5.3716 0
M  V30 30806 N 2839.6 3.59627 -4.55685 0
M  V30 30807 H 2842.37 -0.161393 -2.99265 0
M  V30 30808 H 2839.93 -0.232135 -1.60227 0
M  V30 30809 H 2841.92 2.35185 -3.29348 0
M  V30 30810 H 2840.49 2.17415 -2.2461 0
M  V30 30811 H 2839.71 0.343002 -3.92705 0
M  V30 30812 H 2841 0.906508 -5.00659 0
M  V30 30813 H 2840.4 3.94259 -4.0568 0
M  V30 30814 H 2838.95 4.25913 -4.93397 0
M  V30 30815 N 2842.39 1.57018 -0.135265 0
M  V30 30816 C 2843.8 1.58059 0.221235 0
M  V30 30817 C 2844 1.14892 1.65536 0
M  V30 30818 O 2843.06 0.843793 2.37984 0
M  V30 30819 C 2844.37 3.00688 -0.0268643 0
M  V30 30820 C 2845.92 3.12977 0.0377656 0
M  V30 30821 C 2846.39 4.57635 -0.182849 0
M  V30 30822 N 2847.89 4.63019 -0.129374 0
M  V30 30823 C 2848.62 5.72741 -0.274749 0
M  V30 30824 N 2848.12 6.91155 -0.477197 0
M  V30 30825 N 2849.91 5.61696 -0.213176 0
M  V30 30826 H 2842.06 1.83375 -1.0718 0
M  V30 30827 H 2844.32 0.848219 -0.423353 0
M  V30 30828 H 2844.03 3.36616 -1.01894 0
M  V30 30829 H 2843.9 3.70689 0.697798 0
M  V30 30830 H 2846.29 2.76897 1.02039 0
M  V30 30831 H 2846.37 2.45486 -0.719039 0
M  V30 30832 H 2846.02 4.94417 -1.16252 0
M  V30 30833 H 2845.95 5.23238 0.594138 0
M  V30 30834 H 2848.44 3.77893 0.0229231 0
M  V30 30835 H 2848.75 7.70631 -0.578548 0
M  V30 30836 H 2847.09 6.93101 -0.513374 0
M  V30 30837 H 2850.29 4.68067 -0.0558619 0
M  V30 30838 H 2850.46 6.4716 -0.32991 0
M  V30 30839 N 2843.86 -0.138524 1.5699 0
M  V30 30840 C 2844.83 -1.15474 1.97986 0
M  V30 30841 C 2845.83 -1.35396 0.86744 0
M  V30 30842 O 2847.02 -1.32244 1.13389 0
M  V30 30843 C 2844.15 -2.51333 2.30314 0
M  V30 30844 H 2845.34 -0.802845 2.88954 0
M  V30 30845 H 2842.9 -0.382162 1.51556 0
M  V30 30846 H 2843.63 -2.91479 1.42164 0
M  V30 30847 H 2843.42 -2.38232 3.11429 0
M  V30 30848 H 2844.91 -3.24508 2.62839 0
M  V30 30849 N 2845.34 -1.52224 -0.408133 0
M  V30 30850 C 2846.57 -1.69934 -1.17498 0
M  V30 30851 C 2846.98 -0.408907 -1.84728 0
M  V30 30852 O 2846.32 0.624995 -1.72741 0
M  V30 30853 C 2846.39 -2.77959 -2.27989 0
M  V30 30854 C 2846.05 -4.19677 -1.80887 0
M  V30 30855 C 2847.05 -5.03485 -1.29609 0
M  V30 30856 C 2844.73 -4.65916 -1.8769 0
M  V30 30857 C 2846.73 -6.31605 -0.857584 0
M  V30 30858 C 2844.41 -5.94024 -1.43451 0
M  V30 30859 C 2845.41 -6.76698 -0.925703 0
M  V30 30860 O 2845.1 -8.02407 -0.4897 0
M  V30 30861 H 2844.83 -0.572761 -0.359055 0
M  V30 30862 H 2847.38 -1.99564 -0.486153 0
M  V30 30863 H 2845.61 -2.43708 -3.00239 0
M  V30 30864 H 2847.3 -2.84259 -2.89744 0
M  V30 30865 H 2848.07 -4.68953 -1.23725 0
M  V30 30866 H 2843.95 -4.01669 -2.26237 0
M  V30 30867 H 2847.49 -6.96083 -0.459757 0
M  V30 30868 H 2843.39 -6.28064 -1.49015 0
M  V30 30869 H 2844.16 -8.16202 -0.612919 0
M  V30 30870 N 2846.82 0.665425 -1.42863 0
M  V30 30871 C 2848.24 0.979665 -1.25995 0
M  V30 30872 C 2848.44 2.00774 -0.170867 0
M  V30 30873 O 2847.49 2.48371 0.454784 0
M  V30 30874 C 2848.81 1.47555 -2.62008 0
M  V30 30875 C 2850.35 1.59283 -2.6944 0
M  V30 30876 C 2850.83 2.12265 -4.05842 0
M  V30 30877 N 2852.32 2.19585 -4.07844 0
M  V30 30878 C 2853.05 2.61675 -5.10209 0
M  V30 30879 N 2852.55 3.0315 -6.22954 0
M  V30 30880 N 2854.34 2.61507 -4.97565 0
M  V30 30881 H 2846.49 -0.0150867 -2.12395 0
M  V30 30882 H 2848.76 0.0558021 -0.946356 0
M  V30 30883 H 2848.46 0.794594 -3.42606 0
M  V30 30884 H 2848.34 2.4527 -2.86571 0
M  V30 30885 H 2850.72 2.26483 -1.89182 0
M  V30 30886 H 2850.81 0.60033 -2.48656 0
M  V30 30887 H 2850.45 1.45672 -4.86562 0
M  V30 30888 H 2850.38 3.12324 -4.23983 0
M  V30 30889 H 2852.87 1.90355 -3.26456 0
M  V30 30890 H 2853.18 3.3398 -6.96905 0
M  V30 30891 H 2851.53 3.00984 -6.26445 0
M  V30 30892 H 2854.72 2.28474 -4.08555 0
M  V30 30893 H 2854.89 2.93988 -5.77473 0
M  V30 30894 N 2848.3 1.29191 0.902633 0
M  V30 30895 C 2849.71 1.07139 1.18294 0
M  V30 30896 C 2849.91 -0.179187 2.00702 0
M  V30 30897 O 2848.97 -0.877771 2.36752 0
M  V30 30898 C 2850.28 2.32517 1.90673 0
M  V30 30899 C 2851.83 2.37807 2.03511 0
M  V30 30900 C 2852.31 3.62981 2.793 0
M  V30 30901 N 2853.8 3.63686 2.86856 0
M  V30 30902 C 2854.53 4.57223 3.46027 0
M  V30 30903 N 2854.03 5.61088 4.06389 0
M  V30 30904 N 2855.82 4.44798 3.43673 0
M  V30 30905 H 2847.97 2.09451 0.352728 0
M  V30 30906 H 2850.24 0.922418 0.218744 0
M  V30 30907 H 2849.94 3.23685 1.37554 0
M  V30 30908 H 2849.82 2.39798 2.91165 0
M  V30 30909 H 2852.2 1.4713 2.55806 0
M  V30 30910 H 2852.28 2.34514 1.02161 0
M  V30 30911 H 2851.93 4.54008 2.27682 0
M  V30 30912 H 2851.86 3.63532 3.80988 0
M  V30 30913 H 2854.35 2.88585 2.43981 0
M  V30 30914 H 2854.66 6.28588 4.49553 0
M  V30 30915 H 2853.01 5.64901 4.0486 0
M  V30 30916 H 2856.2 3.62849 2.95734 0
M  V30 30917 H 2856.37 5.17879 3.89494 0
M  V30 30918 N 2849.78 -1.1126 1.1162 0
M  V30 30919 C 2850.73 -2.15474 0.745312 0
M  V30 30920 C 2851.71 -1.58921 -0.251557 0
M  V30 30921 O 2852.9 -1.76904 -0.0583782 0
M  V30 30922 C 2850.03 -3.42762 0.192189 0
M  V30 30923 C 2849.12 -4.06268 1.21684 0
M  V30 30924 N 2849.51 -4.44604 2.41166 0
M  V30 30925 C 2847.81 -4.33215 1.06021 0
M  V30 30926 C 2848.51 -4.94383 3.06529 0
M  V30 30927 N 2847.48 -4.90656 2.34003 0
M  V30 30928 H 2851.29 -2.42896 1.65466 0
M  V30 30929 H 2848.8 -1.28294 0.995717 0
M  V30 30930 H 2850.8 -4.16799 -0.0916606 0
M  V30 30931 H 2849.46 -3.16804 -0.711722 0
M  V30 30932 H 2850.47 -4.36575 2.78608 0
M  V30 30933 H 2847.14 -4.16957 0.212883 0
M  V30 30934 H 2848.53 -5.33662 4.08234 0
M  V30 30935 N 2851.25 -0.906798 -1.28899 0
M  V30 30936 C 2852.18 -0.4067 -2.29931 0
M  V30 30937 C 2853.17 0.522033 -1.61891 0
M  V30 30938 O 2854.35 0.43125 -1.89351 0
M  V30 30939 C 2851.48 0.360305 -3.45426 0
M  V30 30940 C 2850.43 -0.478649 -4.25315 0
M  V30 30941 C 2849.76 0.416279 -5.33077 0
M  V30 30942 C 2851.06 -1.73229 -4.92736 0
M  V30 30943 H 2852.75 -1.25102 -2.72011 0
M  V30 30944 H 2850.3 -0.603 -1.30767 0
M  V30 30945 H 2852.25 0.720956 -4.15187 0
M  V30 30946 H 2850.98 1.23847 -3.02208 0
M  V30 30947 H 2849.64 -0.821725 -3.57272 0
M  V30 30948 H 2849.28 1.29278 -4.86103 0
M  V30 30949 H 2848.98 -0.141412 -5.8743 0
M  V30 30950 H 2850.51 0.772965 -6.05688 0
M  V30 30951 H 2851.92 -1.44095 -5.54896 0
M  V30 30952 H 2850.32 -2.23185 -5.57054 0
M  V30 30953 H 2851.39 -2.46416 -4.17621 0
M  V30 30954 N 2852.73 1.42648 -0.670032 0
M  V30 30955 C 2853.66 2.335 -0.00262605 0
M  V30 30956 C 2854.64 1.50414 0.794337 0
M  V30 30957 O 2855.83 1.7903 0.752448 0
M  V30 30958 C 2852.96 3.33978 0.952689 0
M  V30 30959 C 2851.91 4.27181 0.264658 0
M  V30 30960 C 2851.24 5.17828 1.33258 0
M  V30 30961 C 2852.54 5.15281 -0.85338 0
M  V30 30962 H 2854.23 2.89557 -0.761377 0
M  V30 30963 H 2851.78 1.39229 -0.367586 0
M  V30 30964 H 2853.73 3.96444 1.42863 0
M  V30 30965 H 2852.46 2.76214 1.7428 0
M  V30 30966 H 2851.11 3.66102 -0.191002 0
M  V30 30967 H 2850.76 4.56394 2.11456 0
M  V30 30968 H 2850.46 5.81013 0.877374 0
M  V30 30969 H 2851.99 5.8317 1.80955 0
M  V30 30970 H 2853.4 5.71461 -0.458863 0
M  V30 30971 H 2851.8 5.87274 -1.23409 0
M  V30 30972 H 2852.87 4.53966 -1.7042 0
M  V30 30973 N 2854.21 0.413044 1.52091 0
M  V30 30974 C 2855.16 -0.410518 2.2712 0
M  V30 30975 C 2856.13 -1.03772 1.29694 0
M  V30 30976 O 2857.31 -1.06125 1.58563 0
M  V30 30977 C 2854.45 -1.51912 3.09866 0
M  V30 30978 C 2853.57 -0.912454 4.22254 0
M  V30 30979 C 2852.7 -1.99408 4.92351 0
M  V30 30980 C 2851.74 -1.36455 5.96696 0
M  V30 30981 N 2850.88 -2.38649 6.60296 0
M  V30 30982 H 2855.72 0.235713 2.97066 0
M  V30 30983 H 2853.25 0.128081 1.46541 0
M  V30 30984 H 2855.21 -2.17289 3.56148 0
M  V30 30985 H 2853.84 -2.13533 2.42082 0
M  V30 30986 H 2852.89 -0.14763 3.80113 0
M  V30 30987 H 2854.21 -0.412629 4.9709 0
M  V30 30988 H 2853.36 -2.72502 5.42059 0
M  V30 30989 H 2852.1 -2.52757 4.17091 0
M  V30 30990 H 2851.1 -0.618964 5.46305 0
M  V30 30991 H 2852.33 -0.838708 6.73901 0
M  V30 30992 H 2850.28 -2.91124 5.87863 0
M  V30 30993 H 2850.19 -1.9349 7.3082 0
M  V30 30994 H 2851.46 -3.11301 7.14641 0
M  V30 30995 N 2855.69 -1.56945 0.143591 0
M  V30 30996 C 2857.11 -1.58174 -0.212849 0
M  V30 30997 C 2857.31 -1.15768 -1.64924 0
M  V30 30998 O 2856.36 -0.856402 -2.37533 0
M  V30 30999 C 2857.67 -3.0067 0.0428101 0
M  V30 31000 C 2859.22 -3.12993 -0.0211671 0
M  V30 31001 C 2859.7 -4.57531 0.207116 0
M  V30 31002 N 2861.19 -4.62944 0.153927 0
M  V30 31003 C 2861.92 -5.72588 0.305119 0
M  V30 31004 N 2861.42 -6.90892 0.513844 0
M  V30 31005 N 2863.21 -5.61575 0.242961 0
M  V30 31006 H 2855.36 -1.82804 1.08151 0
M  V30 31007 H 2857.63 -0.845962 0.427846 0
M  V30 31008 H 2857.33 -3.36071 1.03678 0
M  V30 31009 H 2857.21 -3.71054 -0.67813 0
M  V30 31010 H 2859.59 -2.77435 -1.00569 0
M  V30 31011 H 2859.67 -2.45101 0.732047 0
M  V30 31012 H 2859.32 -4.93793 1.18872 0
M  V30 31013 H 2859.25 -5.23545 -0.566381 0
M  V30 31014 H 2861.74 -3.779 -0.00288224 0
M  V30 31015 H 2862.05 -7.70314 0.619409 0
M  V30 31016 H 2860.4 -6.92819 0.550123 0
M  V30 31017 H 2863.59 -4.6803 0.0806838 0
M  V30 31018 H 2863.76 -6.46976 0.364226 0
M  V30 31019 N 2857.17 0.130197 -1.57061 0
M  V30 31020 C 2858.4 0.854423 -1.88434 0
M  V30 31021 C 2858.81 1.73963 -0.733639 0
M  V30 31022 O 2858.17 1.80084 0.295997 0
M  V30 31023 C 2858.22 1.69718 -3.19183 0
M  V30 31024 O 2857.94 0.847629 -4.29822 0
M  V30 31025 C 2859.44 2.52754 -3.64184 0
M  V30 31026 H 2856.66 0.24621 -0.624197 0
M  V30 31027 H 2859.2 0.117944 -2.0416 0
M  V30 31028 H 2857.36 2.38654 -3.05161 0
M  V30 31029 H 2857.77 1.42783 -5.04691 0
M  V30 31030 H 2859.25 3.07435 -4.58462 0
M  V30 31031 H 2859.72 3.29587 -2.90291 0
M  V30 31032 H 2860.33 1.8908 -3.80958 0
M  V30 31033 N 2858.65 1.52438 0.400055 0
M  V30 31034 C 2859.89 1.67189 1.14786 0
M  V30 31035 C 2860.22 0.405107 1.89928 0
M  V30 31036 O 2859.5 -0.596772 1.85119 0
M  V30 31037 C 2859.78 2.89981 2.13502 0
M  V30 31038 C 2859.64 4.26732 1.42196 0
M  V30 31039 C 2860.95 3.08305 3.14063 0
M  V30 31040 H 2858.07 0.608418 0.415929 0
M  V30 31041 H 2860.72 1.85012 0.43251 0
M  V30 31042 H 2858.87 2.74916 2.74505 0
M  V30 31043 H 2860.54 4.53543 0.842424 0
M  V30 31044 H 2858.78 4.27718 0.723864 0
M  V30 31045 H 2859.45 5.08715 2.14272 0
M  V30 31046 H 2861.93 3.22328 2.63142 0
M  V30 31047 H 2860.8 3.9572 3.80391 0
M  V30 31048 H 2861.06 2.22025 3.82305 0
M  V30 31049 N 2860.12 -0.657839 1.43214 0
M  V30 31050 C 2861.07 -1.77089 1.48014 0
M  V30 31051 C 2862.04 -1.62782 0.33032 0
M  V30 31052 O 2863.23 -1.83093 0.536819 0
M  V30 31053 C 2860.37 -3.15219 1.40467 0
M  V30 31054 C 2859.48 -3.40692 2.65618 0
M  V30 31055 C 2858.61 -4.68645 2.50091 0
M  V30 31056 C 2857.65 -4.87208 3.70533 0
M  V30 31057 N 2856.79 -6.06414 3.53846 0
M  V30 31058 H 2861.63 -1.72321 2.43124 0
M  V30 31059 H 2859.17 -0.840992 1.20689 0
M  V30 31060 H 2861.12 -3.95066 1.34086 0
M  V30 31061 H 2859.75 -3.19068 0.489415 0
M  V30 31062 H 2858.81 -2.54977 2.82296 0
M  V30 31063 H 2860.12 -3.50297 3.55097 0
M  V30 31064 H 2859.27 -5.5661 2.41393 0
M  V30 31065 H 2858.01 -4.61353 1.58129 0
M  V30 31066 H 2857.02 -3.9768 3.79646 0
M  V30 31067 H 2858.24 -4.96333 4.63498 0
M  V30 31068 H 2856.19 -6.00263 2.64614 0
M  V30 31069 H 2856.1 -6.16956 4.36923 0
M  V30 31070 H 2857.37 -6.97012 3.4899 0
M  V30 31071 N 2861.6 -1.29668 -0.895769 0
M  V30 31072 C 2862.53 -1.10941 -2.00561 0
M  V30 31073 C 2863.55 -0.0557626 -1.62704 0
M  V30 31074 O 2864.74 -0.300687 -1.75949 0
M  V30 31075 C 2861.84 -0.667506 -3.32261 0
M  V30 31076 C 2861.01 -1.80054 -3.98622 0
M  V30 31077 C 2860.07 -1.34899 -5.08615 0
M  V30 31078 O 2859.09 -2.05438 -5.30833 0
M  V30 31079 N 2860.3 -0.222039 -5.80075 0
M  V30 31080 H 2863.06 -2.06526 -2.1718 0
M  V30 31081 H 2860.62 -1.2166 -1.0682 0
M  V30 31082 H 2862.61 -0.348657 -4.03195 0
M  V30 31083 H 2861.18 0.196 -3.11985 0
M  V30 31084 H 2860.4 -2.28806 -3.21001 0
M  V30 31085 H 2861.69 -2.56011 -4.397 0
M  V30 31086 H 2861.09 0.365984 -5.64515 0
M  V30 31087 H 2859.65 0.0374201 -6.51789 0
M  V30 31088 N 2863.08 1.10667 -1.12208 0
M  V30 31089 C 2864.04 2.15122 -0.790905 0
M  V30 31090 C 2865.04 1.5963 0.19359 0
M  V30 31091 O 2866.23 1.74171 -0.0319034 0
M  V30 31092 C 2863.36 3.40451 -0.174857 0
M  V30 31093 H 2864.56 2.4593 -1.71635 0
M  V30 31094 H 2862.11 1.25989 -0.925015 0
M  V30 31095 H 2862.85 3.15259 0.760422 0
M  V30 31096 H 2862.63 3.82013 -0.883647 0
M  V30 31097 H 2864.12 4.1758 0.0404428 0
M  V30 31098 N 2864.56 0.913621 1.28416 0
M  V30 31099 C 2865.78 0.561934 1.99642 0
M  V30 31100 C 2866.21 -0.849578 1.67821 0
M  V30 31101 O 2865.57 -1.56777 0.910531 0
M  V30 31102 C 2865.61 0.777684 3.52114 0
M  V30 31103 O 2864.72 -0.163385 4.12076 0
M  V30 31104 H 2864.06 0.217909 0.627226 0
M  V30 31105 H 2866.59 1.22902 1.63573 0
M  V30 31106 H 2866.6 0.687737 4.02162 0
M  V30 31107 H 2865.27 1.80667 3.7461 0
M  V30 31108 H 2863.85 -0.0247172 3.72892 0
M  V30 31109 N 2866.04 -1.4229 0.677588 0
M  V30 31110 C 2867.28 -2.015 0.20101 0
M  V30 31111 C 2867.61 -1.53585 -1.19339 0
M  V30 31112 O 2866.87 -0.729932 -1.81578 0
M  V30 31113 C 2867.16 -3.56909 0.187292 0
M  V30 31114 C 2866.83 -4.24266 1.52674 0
M  V30 31115 C 2865.49 -4.4238 1.89349 0
M  V30 31116 C 2867.84 -4.62199 2.40877 0
M  V30 31117 C 2865.17 -4.957 3.13845 0
M  V30 31118 C 2867.52 -5.169 3.64688 0
M  V30 31119 C 2866.19 -5.33227 4.01528 0
M  V30 31120 H 2865.46 -0.73734 0.0735548 0
M  V30 31121 H 2868.11 -1.70437 0.873125 0
M  V30 31122 H 2866.41 -3.87656 -0.568339 0
M  V30 31123 H 2868.11 -4.00507 -0.198703 0
M  V30 31124 H 2864.7 -4.10528 1.23145 0
M  V30 31125 H 2868.88 -4.47874 2.13828 0
M  V30 31126 H 2864.14 -5.06526 3.42405 0
M  V30 31127 H 2868.31 -5.45235 4.33234 0
M  V30 31128 H 2865.94 -5.74307 4.98072 0
M  V30 31129 N 2867.51 -0.421104 -1.5187 0
M  V30 31130 C 2868.74 0.149904 -2.06356 0
M  V30 31131 C 2869.16 1.37849 -1.29008 0
M  V30 31132 O 2868.51 1.79206 -0.34517 0
M  V30 31133 C 2868.56 0.488391 -3.58186 0
M  V30 31134 O 2868.29 -0.691417 -4.3261 0
M  V30 31135 C 2869.79 1.11184 -4.29131 0
M  V30 31136 H 2867.01 0.0151068 -0.67083 0
M  V30 31137 H 2869.55 -0.59551 -1.95637 0
M  V30 31138 H 2867.71 1.1837 -3.68873 0
M  V30 31139 H 2868.12 -0.405998 -5.22926 0
M  V30 31140 H 2869.59 1.29879 -5.36503 0
M  V30 31141 H 2870.07 2.08833 -3.86375 0
M  V30 31142 H 2870.68 0.456384 -4.22844 0
M  V30 31143 N 2868.99 1.56866 -0.151912 0
M  V30 31144 C 2870.22 2.00357 0.504046 0
M  V30 31145 C 2870.63 1.03106 1.58637 0
M  V30 31146 O 2869.97 0.0208254 1.83688 0
M  V30 31147 C 2870.04 3.40281 1.15969 0
M  V30 31148 C 2869.7 4.56464 0.221373 0
M  V30 31149 C 2870.7 5.16952 -0.552857 0
M  V30 31150 C 2868.38 5.0215 0.122847 0
M  V30 31151 C 2870.38 6.21541 -1.41301 0
M  V30 31152 C 2868.06 6.06592 -0.740907 0
M  V30 31153 C 2869.06 6.66157 -1.50744 0
M  V30 31154 O 2868.75 7.68577 -2.35679 0
M  V30 31155 H 2868.48 0.662328 0.135267 0
M  V30 31156 H 2871.03 2.03934 -0.244952 0
M  V30 31157 H 2869.26 3.33558 1.95643 0
M  V30 31158 H 2870.95 3.67849 1.71588 0
M  V30 31159 H 2871.72 4.82551 -0.486801 0
M  V30 31160 H 2867.6 4.55512 0.70923 0
M  V30 31161 H 2871.14 6.67962 -2.01178 0
M  V30 31162 H 2867.04 6.4042 -0.808237 0
M  V30 31163 H 2867.81 7.85818 -2.28981 0
M  V30 31164 N 2870.47 -0.121866 1.57128 0
M  V30 31165 C 2871.42 -1.16864 2.01111 0
M  V30 31166 C 2872.41 -1.43038 0.907557 0
M  V30 31167 O 2873.62 -1.43034 1.09276 0
M  V30 31168 H 2869.99 -0.39396 0.640546 0
M  V30 31169 H 2871.96 -0.771174 2.88263 0
M  V30 31170 C 2870.71 -2.48795 2.42892 0
M  V30 31171 H 2870.04 -2.29492 3.27374 0
M  V30 31172 H 2871.48 -3.20606 2.77467 0
M  V30 31173 C 2869.94 -3.11165 1.29142 0
M  V30 31174 O 2870.47 -3.97105 0.605826 0
M  V30 31175 N 2868.67 -2.70998 1.04921 0
M  V30 31176 H 2868.22 -2.01208 1.60851 0
M  V30 31177 H 2868.18 -3.13059 0.290071 0
M  V30 31178 N 2871.95 -1.52648 -0.391965 0
M  V30 31179 C 2872.9 -1.77216 -1.47862 0
M  V30 31180 C 2873.87 -0.61525 -1.54285 0
M  V30 31181 O 2875.05 -0.854652 -1.70588 0
M  V30 31182 C 2872.19 -1.94416 -2.85125 0
M  V30 31183 C 2871.3 -3.22103 -2.87877 0
M  V30 31184 C 2870.44 -3.29639 -4.16548 0
M  V30 31185 C 2869.48 -4.5146 -4.1334 0
M  V30 31186 N 2868.61 -4.56293 -5.33611 0
M  V30 31187 H 2873.45 -2.69952 -1.26214 0
M  V30 31188 H 2870.99 -1.33749 -0.612343 0
M  V30 31189 H 2872.95 -2.02374 -3.6483 0
M  V30 31190 H 2871.58 -1.05044 -3.05231 0
M  V30 31191 H 2870.63 -3.23233 -2.00561 0
M  V30 31192 H 2871.94 -4.11861 -2.81375 0
M  V30 31193 H 2871.1 -3.36762 -5.04654 0
M  V30 31194 H 2869.84 -2.3785 -4.25768 0
M  V30 31195 H 2868.84 -4.44465 -3.23622 0
M  V30 31196 H 2870.07 -5.44563 -4.05744 0
M  V30 31197 H 2868.01 -3.67395 -5.43468 0
M  V30 31198 H 2867.93 -5.39919 -5.29173 0
M  V30 31199 H 2869.2 -4.67668 -6.23624 0
M  V30 31200 N 2873.43 0.650235 -1.43561 0
M  V30 31201 C 2874.37 1.78425 -1.49223 0
M  V30 31202 C 2875.37 1.65409 -0.365557 0
M  V30 31203 O 2876.57 1.71719 -0.539679 0
M  V30 31204 H 2872.95 0.58873 -0.467869 0
M  V30 31205 H 2874.92 1.7077 -2.44704 0
M  V30 31206 C 2873.67 3.16696 -1.43524 0
M  V30 31207 H 2872.99 3.2735 -2.29526 0
M  V30 31208 H 2874.43 3.95992 -1.51547 0
M  V30 31209 C 2872.89 3.36551 -0.153256 0
M  V30 31210 O 2873.42 3.9397 0.784247 0
M  V30 31211 N 2871.63 2.90533 -0.0624913 0
M  V30 31212 H 2871.17 2.43991 -0.826215 0
M  V30 31213 H 2871.13 3.04194 0.794563 0
M  V30 31214 N 2874.9 1.30141 0.88888 0
M  V30 31215 C 2875.85 1.16191 1.9942 0
M  V30 31216 C 2876.82 0.0524161 1.66017 0
M  V30 31217 O 2878.01 0.221897 1.89505 0
M  V30 31218 C 2875.15 0.855671 3.34324 0
M  V30 31219 C 2874.26 2.04667 3.80441 0
M  V30 31220 C 2873.39 1.67885 5.03972 0
M  V30 31221 C 2872.43 2.83503 5.42487 0
M  V30 31222 N 2871.57 2.47044 6.57201 0
M  V30 31223 H 2876.41 2.10752 2.10683 0
M  V30 31224 H 2873.95 1.04861 1.03163 0
M  V30 31225 H 2875.91 0.658753 4.11966 0
M  V30 31226 H 2874.54 -0.0530588 3.22756 0
M  V30 31227 H 2873.59 2.35496 2.98741 0
M  V30 31228 H 2874.9 2.91265 4.04928 0
M  V30 31229 H 2874.05 1.44545 5.8923 0
M  V30 31230 H 2872.79 0.784515 4.81349 0
M  V30 31231 H 2871.8 3.07513 4.55759 0
M  V30 31232 H 2873.02 3.73617 5.67086 0
M  V30 31233 H 2870.97 1.60111 6.36161 0
M  V30 31234 H 2870.89 3.27173 6.81538 0
M  V30 31235 H 2872.15 2.27051 7.457 0
M  V30 31236 N 2876.38 -1.1007 1.12794 0
M  V30 31237 C 2877.63 -1.81478 0.880264 0
M  V30 31238 C 2877.94 -1.86313 -0.595542 0
M  V30 31239 O 2879.15 -2.53964 -0.959934 0
M  V30 31240 C 2877.61 -3.25984 1.5252 0
M  V30 31241 C 2877.21 -3.29435 3.03606 0
M  V30 31242 C 2878.96 -4.02194 1.35795 0
M  V30 31243 C 2876.87 -4.68425 3.61015 0
M  V30 31244 H 2875.8 -0.680042 0.325666 0
M  V30 31245 H 2878.45 -1.23756 1.35487 0
M  V30 31246 H 2876.83 -3.83727 0.978256 0
M  V30 31247 H 2878 -2.81496 3.64824 0
M  V30 31248 H 2876.32 -2.66713 3.1977 0
M  V30 31249 H 2878.91 -5.04867 1.76105 0
M  V30 31250 H 2879.26 -4.15203 0.302045 0
M  V30 31251 H 2879.79 -3.50876 1.87432 0
M  V30 31252 H 2876.53 -4.60616 4.66383 0
M  V30 31253 H 2876.05 -5.16716 3.04573 0
M  V30 31254 H 2877.73 -5.37396 3.60298 0
M  V30 31255 N 2877.86 -0.920419 -1.2793 0
M  V30 31256 C 2878.81 -0.412462 -2.27085 0
M  V30 31257 C 2879.78 0.516697 -1.57859 0
M  V30 31258 O 2880.96 0.437443 -1.85718 0
M  V30 31259 C 2878.1 0.335339 -3.43467 0
M  V30 31260 C 2877.22 -0.627092 -4.27424 0
M  V30 31261 C 2876.35 0.139823 -5.31016 0
M  V30 31262 C 2875.39 -0.815789 -6.06639 0
M  V30 31263 N 2874.53 -0.0819673 -7.02052 0
M  V30 31264 H 2879.37 -1.26303 -2.6991 0
M  V30 31265 H 2876.9 -0.634099 -1.32731 0
M  V30 31266 H 2878.86 0.785154 -4.09745 0
M  V30 31267 H 2877.49 1.1502 -3.01613 0
M  V30 31268 H 2876.54 -1.19544 -3.61128 0
M  V30 31269 H 2877.86 -1.35772 -4.79966 0
M  V30 31270 H 2877.01 0.649892 -6.03209 0
M  V30 31271 H 2875.75 0.903459 -4.79259 0
M  V30 31272 H 2874.75 -1.33717 -5.33291 0
M  V30 31273 H 2875.98 -1.57909 -6.60486 0
M  V30 31274 H 2873.92 0.663556 -6.52635 0
M  V30 31275 H 2873.84 -0.752295 -7.52248 0
M  V30 31276 H 2875.11 0.407688 -7.78433 0
M  V30 31277 N 2879.34 1.41929 -0.685124 0
M  V30 31278 C 2880.59 2.00993 -0.211275 0
M  V30 31279 C 2880.91 1.54494 1.18982 0
M  V30 31280 O 2880.18 0.771032 1.80089 0
M  V30 31281 H 2878.76 0.743213 -0.075119 0
M  V30 31282 H 2881.42 1.73702 -0.883946 0
M  V30 31283 H 2880.52 3.1132 -0.220568 0
M  V30 31284 N 2880.82 0.429152 1.51644 0
M  V30 31285 C 2882.06 -0.139767 2.01616 0
M  V30 31286 C 2882.39 -1.43925 1.3157 0
M  V30 31287 O 2881.66 -1.90715 0.447722 0
M  V30 31288 H 2880.24 -0.0546409 0.744999 0
M  V30 31289 H 2882.9 0.569984 1.86379 0
M  V30 31290 H 2881.99 -0.321555 3.10439 0
M  V30 31291 N 2882.29 -1.56783 0.160229 0
M  V30 31292 C 2883.26 -2.1622 -0.760367 0
M  V30 31293 C 2884.26 -1.10737 -1.16593 0
M  V30 31294 O 2885.45 -1.36308 -1.0847 0
M  V30 31295 C 2882.58 -2.73606 -2.03353 0
M  V30 31296 H 2883.77 -2.98913 -0.24312 0
M  V30 31297 H 2881.33 -1.56045 -0.0892864 0
M  V30 31298 H 2882.06 -1.94616 -2.59413 0
M  V30 31299 H 2881.85 -3.50791 -1.7518 0
M  V30 31300 H 2883.34 -3.19356 -2.69075 0
M  V30 31301 N 2883.77 0.113531 -1.57191 0
M  V30 31302 C 2884.72 1.15796 -2.01728 0
M  V30 31303 C 2885.72 1.42554 -0.91513 0
M  V30 31304 O 2886.92 1.42452 -1.10033 0
M  V30 31305 H 2883.3 0.390557 -0.642627 0
M  V30 31306 H 2885.27 0.755876 -2.88668 0
M  V30 31307 C 2884.02 2.47503 -2.44208 0
M  V30 31308 H 2883.34 2.27753 -3.28586 0
M  V30 31309 H 2884.78 3.1913 -2.79163 0
M  V30 31310 C 2883.24 3.10476 -1.3079 0
M  V30 31311 O 2883.77 3.96778 -0.626877 0
M  V30 31312 N 2881.97 2.70438 -1.06357 0
M  V30 31313 H 2881.52 2.00352 -1.61916 0
M  V30 31314 H 2881.48 3.12901 -0.306669 0
M  V30 31315 N 2885.25 1.52854 0.383864 0
M  V30 31316 C 2886.18 1.80968 1.47556 0
M  V30 31317 C 2887.16 0.662013 1.56689 0
M  V30 31318 O 2888.35 0.910103 1.71554 0
M  V30 31319 C 2885.48 1.98317 2.8511 0
M  V30 31320 C 2884.43 3.14024 2.90814 0
M  V30 31321 C 2883.76 3.16635 4.30867 0
M  V30 31322 C 2885.06 4.52991 2.59993 0
M  V30 31323 H 2886.75 2.72388 1.24278 0
M  V30 31324 H 2884.3 1.31068 0.596422 0
M  V30 31325 H 2886.25 2.16568 3.61492 0
M  V30 31326 H 2884.97 1.0359 3.09736 0
M  V30 31327 H 2883.63 2.95564 2.16881 0
M  V30 31328 H 2883.28 2.19581 4.52541 0
M  V30 31329 H 2882.98 3.94365 4.35603 0
M  V30 31330 H 2884.51 3.37047 5.09148 0
M  V30 31331 H 2885.92 4.71526 3.26092 0
M  V30 31332 H 2884.32 5.32827 2.76072 0
M  V30 31333 H 2885.39 4.59354 1.55312 0
M  V30 31334 N 2886.73 -0.642612 1.43904 0
M  V30 31335 C 2887.66 -1.76649 1.527 0
M  V30 31336 C 2888.64 -1.65782 0.380845 0
M  V30 31337 O 2889.83 -1.84716 0.599464 0
M  V30 31338 C 2886.96 -3.1513 1.45981 0
M  V30 31339 C 2885.91 -3.40773 2.58955 0
M  V30 31340 C 2885.24 -4.79165 2.37288 0
M  V30 31341 C 2886.54 -3.34468 4.01159 0
M  V30 31342 H 2888.23 -1.69545 2.46769 0
M  V30 31343 H 2885.78 -0.814258 1.18768 0
M  V30 31344 H 2887.73 -3.93518 1.50737 0
M  V30 31345 H 2886.45 -3.22991 0.484219 0
M  V30 31346 H 2885.11 -2.64761 2.53569 0
M  V30 31347 H 2884.76 -4.83714 1.37947 0
M  V30 31348 H 2884.46 -4.97282 3.13025 0
M  V30 31349 H 2885.98 -5.59797 2.43844 0
M  V30 31350 H 2887.4 -4.02777 4.07975 0
M  V30 31351 H 2885.79 -3.64121 4.77007 0
M  V30 31352 H 2886.86 -2.32468 4.25543 0
M  V30 31353 N 2888.21 -1.30611 -0.881966 0
M  V30 31354 C 2889.46 -1.18972 -1.62876 0
M  V30 31355 C 2889.77 0.253825 -1.93946 0
M  V30 31356 O 2890.98 0.491766 -2.67009 0
M  V30 31357 C 2889.43 -2.08195 -2.93569 0
M  V30 31358 C 2889.04 -3.57476 -2.70028 0
M  V30 31359 C 2890.78 -2.05326 -3.71539 0
M  V30 31360 C 2888.69 -4.38746 -3.96555 0
M  V30 31361 H 2887.62 -0.441692 -0.611084 0
M  V30 31362 H 2890.27 -1.55381 -0.976173 0
M  V30 31363 H 2888.65 -1.64672 -3.60137 0
M  V30 31364 H 2889.83 -4.09167 -2.11942 0
M  V30 31365 H 2888.14 -3.62199 -2.05429 0
M  V30 31366 H 2890.74 -2.63296 -4.65381 0
M  V30 31367 H 2891.08 -1.03747 -4.03165 0
M  V30 31368 H 2891.62 -2.46986 -3.11837 0
M  V30 31369 H 2888.35 -5.41033 -3.70086 0
M  V30 31370 H 2887.87 -3.91818 -4.54135 0
M  V30 31371 H 2889.55 -4.50337 -4.64549 0
M  V30 31372 N 2889.69 1.0947 -1.13376 0
M  V30 31373 C 2890.63 2.16093 -0.810719 0
M  V30 31374 C 2891.6 1.64542 0.226975 0
M  V30 31375 O 2892.79 1.90541 0.0993203 0
M  V30 31376 C 2889.93 3.43943 -0.282396 0
M  V30 31377 C 2889.04 4.09396 -1.37909 0
M  V30 31378 C 2888.18 5.25001 -0.809158 0
M  V30 31379 C 2887.21 5.82375 -1.88429 0
M  V30 31380 N 2886.35 6.89343 -1.33233 0
M  V30 31381 H 2891.19 2.43068 -1.72401 0
M  V30 31382 H 2888.73 1.19299 -0.860585 0
M  V30 31383 H 2890.69 4.17179 0.0420455 0
M  V30 31384 H 2889.32 3.17287 0.594028 0
M  V30 31385 H 2888.37 3.34029 -1.82013 0
M  V30 31386 H 2889.68 4.4807 -2.19169 0
M  V30 31387 H 2888.83 6.05132 -0.435973 0
M  V30 31388 H 2887.57 4.87688 0.0345201 0
M  V30 31389 H 2886.58 5.00907 -2.26655 0
M  V30 31390 H 2887.8 6.2175 -2.73136 0
M  V30 31391 H 2885.75 6.54009 -0.51065 0
M  V30 31392 H 2885.67 7.26783 -2.08141 0
M  V30 31393 H 2886.93 7.7323 -0.986701 0
M  V30 31394 N 2891.16 0.92719 1.2744 0
M  V30 31395 C 2892.07 0.431488 2.30598 0
M  V30 31396 C 2893.09 -0.48758 1.67029 0
M  V30 31397 O 2894.27 -0.370512 1.97963 0
M  V30 31398 C 2891.33 -0.308231 3.45327 0
M  V30 31399 C 2890.39 0.64569 4.24416 0
M  V30 31400 C 2889.62 -0.0588226 5.33668 0
M  V30 31401 O 2889.85 -1.27828 5.55892 0
M  V30 31402 O 2888.78 0.612743 5.98773 0
M  V30 31403 H 2892.61 1.28802 2.75034 0
M  V30 31404 H 2890.19 0.692518 1.3238 0
M  V30 31405 H 2892.07 -0.725482 4.15108 0
M  V30 31406 H 2890.75 -1.14038 3.02947 0
M  V30 31407 H 2889.66 1.11261 3.57172 0
M  V30 31408 H 2890.99 1.44504 4.7051 0
M  V30 31409 N 2892.64 -1.41564 0.692641 0
M  V30 31410 C 2893.92 -1.9502 0.15053 0
M  V30 31411 C 2894.3 -1.63217 -1.33878 0
M  V30 31412 O 2893.65 -0.937635 -2.08376 0
M  V30 31413 C 2893.86 -3.46232 0.438697 0
M  V30 31414 C 2895.2 -4.2303 0.364852 0
M  V30 31415 O 2896.23 -3.54237 0.373445 0
M  V30 31416 O 2895.09 -5.45548 0.322436 0
M  V30 31417 H 2892.18 -0.826894 0.0132599 0
M  V30 31418 H 2894.73 -1.51296 0.7686 0
M  V30 31419 H 2893.5 -3.62651 1.46969 0
M  V30 31420 H 2893.12 -3.97042 -0.210493 0
M  V30 31421 N 2894.12 -0.437188 -1.51415 0
M  V30 31422 C 2895.05 0.419562 -2.2431 0
M  V30 31423 C 2896.03 1.02483 -1.26238 0
M  V30 31424 O 2897.21 1.06732 -1.55372 0
M  V30 31425 C 2894.34 1.58477 -2.99337 0
M  V30 31426 C 2893.39 1.1002 -4.12065 0
M  V30 31427 S 2894.22 0.0423534 -5.35483 0
M  V30 31428 C 2895.38 1.21223 -6.14049 0
M  V30 31429 H 2895.61 -0.199311 -2.96631 0
M  V30 31430 H 2893.14 -0.221707 -1.528 0
M  V30 31431 H 2895.1 2.25276 -3.43163 0
M  V30 31432 H 2893.76 2.17505 -2.26606 0
M  V30 31433 H 2892.95 1.97153 -4.63839 0
M  V30 31434 H 2892.56 0.510442 -3.705 0
M  V30 31435 H 2894.85 2.1306 -6.43126 0
M  V30 31436 H 2895.79 0.734458 -7.04281 0
M  V30 31437 H 2896.2 1.45072 -5.4554 0
M  V30 31438 N 2895.6 1.56696 -0.168541 0
M  V30 31439 C 2896.85 1.95974 0.477198 0
M  V30 31440 C 2897.16 1.05707 1.64576 0
M  V30 31441 O 2898.37 1.34654 2.35755 0
M  V30 31442 C 2896.82 3.48456 0.900352 0
M  V30 31443 C 2896.43 4.47343 -0.242461 0
M  V30 31444 C 2898.17 3.96558 1.51467 0
M  V30 31445 C 2896.08 5.91061 0.200168 0
M  V30 31446 H 2895.01 0.731693 0.182048 0
M  V30 31447 H 2897.66 1.81701 -0.256329 0
M  V30 31448 H 2896.04 3.58138 1.68978 0
M  V30 31449 H 2897.22 4.49375 -1.01975 0
M  V30 31450 H 2895.53 4.09283 -0.766555 0
M  V30 31451 H 2898.13 5.01387 1.85783 0
M  V30 31452 H 2898.47 3.39336 2.41157 0
M  V30 31453 H 2899.01 3.89882 0.789733 0
M  V30 31454 H 2895.74 6.5215 -0.661889 0
M  V30 31455 H 2895.26 5.92343 0.942875 0
M  V30 31456 H 2896.94 6.43777 0.644975 0
M  V30 31457 N 2897.08 -0.105193 1.57249 0
M  V30 31458 C 2898.32 -0.809165 1.84758 0
M  V30 31459 C 2898.64 -1.80387 0.756294 0
M  V30 31460 O 2899.84 -2.55502 0.918203 0
M  V30 31461 C 2898.3 -1.48983 3.27616 0
M  V30 31462 C 2897.91 -0.535406 4.44789 0
M  V30 31463 C 2899.65 -2.17812 3.6436 0
M  V30 31464 C 2897.56 -1.22008 5.78678 0
M  V30 31465 H 2896.49 -0.305934 0.689145 0
M  V30 31466 H 2899.14 -0.0620049 1.83395 0
M  V30 31467 H 2897.52 -2.2841 3.23489 0
M  V30 31468 H 2898.7 0.226638 4.60242 0
M  V30 31469 H 2897.01 0.0466501 4.16374 0
M  V30 31470 H 2899.61 -2.69753 4.61668 0
M  V30 31471 H 2899.95 -2.96246 2.92479 0
M  V30 31472 H 2900.48 -1.45258 3.70331 0
M  V30 31473 H 2897.22 -0.47676 6.53764 0
M  V30 31474 H 2896.74 -1.9538 5.67086 0
M  V30 31475 H 2898.42 -1.74941 6.229 0
M  V30 31476 N 2898.55 -1.53055 -0.375752 0
M  V30 31477 C 2899.83 -1.59338 -1.1345 0
M  V30 31478 C 2900.21 -0.394651 -2.07378 0
M  V30 31479 O 2899.56 0.615962 -2.20041 0
M  V30 31480 C 2899.77 -2.93872 -1.88255 0
M  V30 31481 C 2901.12 -3.48086 -2.43149 0
M  V30 31482 O 2902.14 -2.95834 -1.98395 0
M  V30 31483 O 2901 -4.39407 -3.24937 0
M  V30 31484 H 2898.09 -0.643188 -0.519845 0
M  V30 31485 H 2900.64 -1.65394 -0.379836 0
M  V30 31486 H 2899.41 -3.7256 -1.19645 0
M  V30 31487 H 2899.04 -2.91261 -2.70653 0
M  V30 31488 N 2900.03 0.634971 -1.44242 0
M  V30 31489 C 2901.45 0.952719 -1.28045 0
M  V30 31490 C 2901.65 2.00367 -0.213415 0
M  V30 31491 O 2900.7 2.49279 0.401998 0
M  V30 31492 C 2902.02 1.41964 -2.65079 0
M  V30 31493 C 2903.57 1.53532 -2.72758 0
M  V30 31494 C 2904.04 2.03609 -4.10253 0
M  V30 31495 N 2905.53 2.10885 -4.1241 0
M  V30 31496 C 2906.27 2.50794 -5.15645 0
M  V30 31497 N 2905.76 2.89868 -6.29244 0
M  V30 31498 N 2907.56 2.50894 -5.03 0
M  V30 31499 H 2899.71 -0.0601353 -2.12315 0
M  V30 31500 H 2901.97 0.0357159 -0.947327 0
M  V30 31501 H 2901.68 0.721743 -3.44215 0
M  V30 31502 H 2901.55 2.39136 -2.91709 0
M  V30 31503 H 2903.94 2.22419 -1.93943 0
M  V30 31504 H 2904.02 0.547452 -2.49873 0
M  V30 31505 H 2903.66 1.35318 -4.89542 0
M  V30 31506 H 2903.59 3.0326 -4.30512 0
M  V30 31507 H 2906.08 1.83387 -3.3042 0
M  V30 31508 H 2906.4 3.19123 -7.03833 0
M  V30 31509 H 2904.74 2.87629 -6.32688 0
M  V30 31510 H 2907.93 2.19756 -4.1331 0
M  V30 31511 H 2908.1 2.81673 -5.83579 0
M  V30 31512 N 2901.51 1.31076 0.875027 0
M  V30 31513 C 2902.76 1.19834 1.62243 0
M  V30 31514 C 2903.07 -0.243536 1.94078 0
M  V30 31515 O 2904.28 -0.477599 2.67266 0
M  V30 31516 C 2902.73 2.09749 2.92461 0
M  V30 31517 C 2902.34 3.58903 2.68128 0
M  V30 31518 C 2904.09 2.07294 3.70445 0
M  V30 31519 C 2901.99 4.40843 3.94223 0
M  V30 31520 H 2900.92 0.444927 0.608733 0
M  V30 31521 H 2903.57 1.55896 0.96792 0
M  V30 31522 H 2901.96 1.6658 3.59259 0
M  V30 31523 H 2903.13 4.10285 2.09769 0
M  V30 31524 H 2901.45 3.63283 2.03505 0
M  V30 31525 H 2904.04 2.6576 4.63978 0
M  V30 31526 H 2904.39 1.05883 4.0261 0
M  V30 31527 H 2904.92 2.48637 3.10523 0
M  V30 31528 H 2901.66 5.42988 3.67211 0
M  V30 31529 H 2901.18 3.94221 4.52051 0
M  V30 31530 H 2902.86 4.52794 4.62154 0
M  V30 31531 N 2902.99 -1.08867 1.13955 0
M  V30 31532 C 2903.94 -2.17753 0.817703 0
M  V30 31533 C 2904.93 -1.68186 -0.202414 0
M  V30 31534 O 2906.14 -1.79903 -0.0589843 0
M  V30 31535 H 2902.51 -0.710388 0.246684 0
M  V30 31536 H 2904.48 -2.42127 1.74405 0
M  V30 31537 C 2903.23 -3.46348 0.306361 0
M  V30 31538 H 2902.55 -3.84862 1.08266 0
M  V30 31539 H 2903.99 -4.23831 0.119658 0
M  V30 31540 C 2902.45 -3.22661 -0.969102 0
M  V30 31541 O 2902.98 -3.45821 -2.0438 0
M  V30 31542 N 2901.19 -2.76232 -0.902468 0
M  V30 31543 H 2900.74 -2.57585 -0.0277557 0
M  V30 31544 H 2900.69 -2.60761 -1.75644 0
M  V30 31545 N 2904.47 -0.933936 -1.26946 0
M  V30 31546 C 2905.38 -0.443711 -2.30366 0
M  V30 31547 C 2906.39 0.478716 -1.67285 0
M  V30 31548 O 2907.57 0.360008 -1.98156 0
M  V30 31549 C 2904.63 0.289913 -3.45486 0
M  V30 31550 C 2903.69 -0.668188 -4.24068 0
M  V30 31551 C 2902.93 0.03052 -5.33691 0
M  V30 31552 O 2903.15 1.24878 -5.56562 0
M  V30 31553 O 2902.08 -0.644489 -5.9844 0
M  V30 31554 H 2905.91 -1.30259 -2.74347 0
M  V30 31555 H 2903.5 -0.699529 -1.32011 0
M  V30 31556 H 2905.38 0.703457 -4.15487 0
M  V30 31557 H 2904.05 1.1243 -3.03548 0
M  V30 31558 H 2902.96 -1.13153 -3.56577 0
M  V30 31559 H 2904.29 -1.46997 -4.69737 0
M  V30 31560 N 2905.94 1.41194 -0.700139 0
M  V30 31561 C 2906.89 2.32585 -0.026371 0
M  V30 31562 C 2907.89 1.51211 0.763657 0
M  V30 31563 O 2909.09 1.67115 0.668764 0
M  V30 31564 H 2905.47 0.75193 0.0102737 0
M  V30 31565 H 2907.44 2.87079 -0.814137 0
M  V30 31566 C 2906.19 3.36044 0.892734 0
M  V30 31567 H 2905.51 3.98716 0.294236 0
M  V30 31568 H 2906.95 4.02521 1.3324 0
M  V30 31569 C 2905.41 2.70294 2.01104 0
M  V30 31570 O 2905.94 2.55429 3.10031 0
M  V30 31571 N 2904.15 2.28918 1.79011 0
M  V30 31572 H 2903.69 2.41208 0.904233 0
M  V30 31573 H 2903.65 1.85261 2.54019 0
M  V30 31574 N 2907.42 0.445212 1.51181 0
M  V30 31575 C 2908.65 -0.119409 2.07056 0
M  V30 31576 C 2909.07 -1.35014 1.30969 0
M  V30 31577 O 2908.43 -1.77892 0.349859 0
M  V30 31578 C 2908.48 -0.412365 3.58234 0
M  V30 31579 O 2907.58 -1.49747 3.84252 0
M  V30 31580 H 2906.92 0.00158965 0.663998 0
M  V30 31581 H 2909.45 0.628813 1.94697 0
M  V30 31582 H 2909.46 -0.660513 4.02618 0
M  V30 31583 H 2908.14 0.487121 4.13037 0
M  V30 31584 H 2906.72 -1.23867 3.51726 0
M  V30 31585 N 2908.9 -1.56605 0.176849 0
M  V30 31586 C 2910.15 -1.96224 -0.466799 0
M  V30 31587 C 2910.46 -1.06579 -1.64013 0
M  V30 31588 O 2911.67 -1.35902 -2.35038 0
M  V30 31589 C 2910.12 -3.48929 -0.881859 0
M  V30 31590 C 2909.73 -4.47209 0.266181 0
M  V30 31591 C 2911.48 -3.97356 -1.49361 0
M  V30 31592 C 2909.38 -5.91159 -0.16882 0
M  V30 31593 H 2908.31 -0.732648 -0.178165 0
M  V30 31594 H 2910.96 -1.81562 0.265961 0
M  V30 31595 H 2909.35 -3.59029 -1.67076 0
M  V30 31596 H 2910.52 -4.48828 1.04357 0
M  V30 31597 H 2908.84 -4.08871 0.78825 0
M  V30 31598 H 2911.43 -5.02365 -1.83121 0
M  V30 31599 H 2911.78 -3.4061 -2.39354 0
M  V30 31600 H 2912.31 -3.90295 -0.769046 0
M  V30 31601 H 2909.05 -6.5179 0.696465 0
M  V30 31602 H 2908.57 -5.92834 -0.911448 0
M  V30 31603 H 2910.25 -6.4411 -0.610825 0
M  V30 31604 N 2910.38 0.0968524 -1.57302 0
M  V30 31605 C 2911.61 0.814261 -1.90204 0
M  V30 31606 C 2912.02 1.72368 -0.770374 0
M  V30 31607 O 2911.38 1.80671 0.257732 0
M  V30 31608 C 2911.43 1.6291 -3.22711 0
M  V30 31609 O 2911.15 0.756267 -4.31523 0
M  V30 31610 C 2912.65 2.44972 -3.69464 0
M  V30 31611 H 2909.87 0.232914 -0.629279 0
M  V30 31612 H 2912.42 0.0746122 -2.04364 0
M  V30 31613 H 2910.57 2.32128 -3.10154 0
M  V30 31614 H 2910.98 1.32046 -5.07606 0
M  V30 31615 H 2912.46 2.97641 -4.6488 0
M  V30 31616 H 2912.94 3.23355 -2.97217 0
M  V30 31617 H 2913.54 1.80957 -3.84883 0
M  V30 31618 N 2911.86 1.53252 0.36763 0
M  V30 31619 C 2912.77 1.82502 1.47412 0
M  V30 31620 C 2913.78 0.71325 1.5871 0
M  V30 31621 O 2914.96 1.00309 1.74643 0
M  V30 31622 C 2912.02 2.00699 2.82703 0
M  V30 31623 C 2911.08 3.24601 2.8095 0
M  V30 31624 C 2910.32 3.41921 4.09787 0
M  V30 31625 O 2910.54 2.63581 5.05847 0
M  V30 31626 O 2909.47 4.35267 4.15724 0
M  V30 31627 H 2913.3 2.76502 1.25619 0
M  V30 31628 H 2910.89 1.38607 0.557535 0
M  V30 31629 H 2912.77 2.14252 3.62869 0
M  V30 31630 H 2911.44 1.09888 3.04477 0
M  V30 31631 H 2910.35 3.16473 1.99489 0
M  V30 31632 H 2911.68 4.15327 2.64129 0
M  V30 31633 N 2913.34 -0.627313 1.44577 0
M  V30 31634 C 2914.28 -1.73909 1.51737 0
M  V30 31635 C 2915.25 -1.62045 0.364774 0
M  V30 31636 O 2916.44 -1.81913 0.575535 0
M  V30 31637 C 2913.58 -3.12169 1.47121 0
M  V30 31638 C 2912.69 -3.34982 2.72784 0
M  V30 31639 C 2911.83 -4.63234 2.59976 0
M  V30 31640 C 2910.86 -4.79239 3.80784 0
M  V30 31641 N 2910 -5.98772 3.66629 0
M  V30 31642 H 2914.84 -1.67126 2.46725 0
M  V30 31643 H 2912.38 -0.815203 1.22445 0
M  V30 31644 H 2914.34 -3.92132 1.42436 0
M  V30 31645 H 2912.97 -3.17958 0.556984 0
M  V30 31646 H 2912.02 -2.48931 2.87641 0
M  V30 31647 H 2913.33 -3.42686 3.62447 0
M  V30 31648 H 2912.48 -5.51364 2.53145 0
M  V30 31649 H 2911.22 -4.57895 1.6788 0
M  V30 31650 H 2910.23 -3.89537 3.87996 0
M  V30 31651 H 2911.45 -4.8639 4.73922 0
M  V30 31652 H 2909.4 -5.94515 2.77287 0
M  V30 31653 H 2909.32 -6.07549 4.49911 0
M  V30 31654 H 2910.58 -6.89453 3.63696 0
M  V30 31655 N 2914.81 -1.31539 -0.868063 0
M  V30 31656 C 2916.04 -1.24301 -1.65399 0
M  V30 31657 C 2916.46 0.191356 -1.87828 0
M  V30 31658 O 2915.81 1.12402 -1.43778 0
M  V30 31659 C 2915.86 -1.98556 -3.02089 0
M  V30 31660 O 2915.59 -3.36393 -2.80662 0
M  V30 31661 C 2917.09 -1.9818 -3.96534 0
M  V30 31662 H 2914.31 -0.429426 -0.515591 0
M  V30 31663 H 2916.85 -1.73445 -1.08337 0
M  V30 31664 H 2915.01 -1.53167 -3.55835 0
M  V30 31665 H 2915.42 -3.74227 -3.67497 0
M  V30 31666 H 2916.89 -2.54644 -4.89756 0
M  V30 31667 H 2917.37 -0.964773 -4.28473 0
M  V30 31668 H 2917.98 -2.43456 -3.48725 0
M  V30 31669 N 2916.29 1.08262 -1.1453 0
M  V30 31670 C 2917.57 1.7734 -0.825216 0
M  V30 31671 C 2917.95 1.99814 0.681002 0
M  V30 31672 O 2917.3 1.60914 1.62231 0
M  V30 31673 C 2917.51 3.08828 -1.62561 0
M  V30 31674 C 2918.85 3.83335 -1.82592 0
M  V30 31675 O 2919.88 3.18614 -1.59259 0
M  V30 31676 O 2918.74 4.99552 -2.21607 0
M  V30 31677 H 2915.83 0.769673 -0.302544 0
M  V30 31678 H 2918.38 1.14711 -1.25058 0
M  V30 31679 H 2917.15 2.8803 -2.64867 0
M  V30 31680 H 2916.77 3.79186 -1.19597 0
M  V30 31681 N 2917.77 0.940655 1.26449 0
M  V30 31682 C 2918.7 0.467519 2.28772 0
M  V30 31683 C 2919.68 -0.478927 1.63219 0
M  V30 31684 O 2920.87 -0.380895 1.90428 0
M  V30 31685 C 2918 -0.268595 3.4626 0
M  V30 31686 C 2916.95 0.591246 4.23897 0
M  V30 31687 C 2916.28 -0.274797 5.33993 0
M  V30 31688 C 2917.58 1.86232 4.8797 0
M  V30 31689 H 2919.27 1.3227 2.68598 0
M  V30 31690 H 2916.82 0.637458 1.29122 0
M  V30 31691 H 2918.77 -0.610623 4.16952 0
M  V30 31692 H 2917.49 -1.15791 3.05385 0
M  V30 31693 H 2916.15 0.916161 3.54968 0
M  V30 31694 H 2915.8 -1.16345 4.8936 0
M  V30 31695 H 2915.5 0.297109 5.86848 0
M  V30 31696 H 2917.02 -0.612106 6.07524 0
M  V30 31697 H 2918.44 1.58757 5.5088 0
M  V30 31698 H 2916.83 2.37875 5.5094 0
M  V30 31699 H 2917.9 2.57402 4.10941 0
M  V30 31700 N 2919.25 -1.40821 0.707617 0
M  V30 31701 C 2920.48 -2.05346 0.253109 0
M  V30 31702 C 2920.89 -1.53291 -1.10215 0
M  V30 31703 O 2920.25 -0.686135 -1.69111 0
M  V30 31704 C 2920.3 -3.60857 0.215474 0
M  V30 31705 O 2920.02 -4.10989 1.51721 0
M  V30 31706 C 2921.52 -4.42545 -0.258559 0
M  V30 31707 H 2918.74 -0.661025 0.115268 0
M  V30 31708 H 2921.28 -1.80375 0.963586 0
M  V30 31709 H 2919.44 -3.84825 -0.44591 0
M  V30 31710 H 2919.85 -5.05127 1.41235 0
M  V30 31711 H 2921.33 -5.51505 -0.233752 0
M  V30 31712 H 2921.8 -4.19537 -1.29943 0
M  V30 31713 H 2922.41 -4.23668 0.37226 0
M  V30 31714 N 2920.73 -0.453223 -1.50943 0
M  V30 31715 C 2921.66 0.395748 -2.24742 0
M  V30 31716 C 2922.64 1.01138 -1.27318 0
M  V30 31717 O 2923.82 1.05078 -1.56496 0
M  V30 31718 C 2920.95 1.55293 -3.01001 0
M  V30 31719 C 2919.99 1.05643 -4.13209 0
M  V30 31720 S 2920.83 -0.0144441 -5.35498 0
M  V30 31721 C 2921.98 1.14703 -6.153 0
M  V30 31722 H 2922.22 -0.230762 -2.96403 0
M  V30 31723 H 2919.75 -0.237901 -1.52556 0
M  V30 31724 H 2921.71 2.21624 -3.45533 0
M  V30 31725 H 2920.37 2.1509 -2.289 0
M  V30 31726 H 2919.56 1.92222 -4.65904 0
M  V30 31727 H 2919.16 0.471117 -3.71021 0
M  V30 31728 H 2921.45 2.06227 -6.4535 0
M  V30 31729 H 2922.4 0.659718 -7.0502 0
M  V30 31730 H 2922.81 1.39278 -5.47048 0
M  V30 31731 N 2922.2 1.56509 -0.185151 0
M  V30 31732 C 2923.43 2.02114 0.465242 0
M  V30 31733 C 2923.85 1.0645 1.55081 0
M  V30 31734 O 2923.21 0.0463171 1.81241 0
M  V30 31735 C 2923.26 3.46231 1.00778 0
M  V30 31736 O 2922.36 3.53667 2.12117 0
M  V30 31737 H 2921.7 0.654845 0.10988 0
M  V30 31738 H 2924.23 2.0249 -0.293108 0
M  V30 31739 H 2924.24 3.8582 1.32691 0
M  V30 31740 H 2922.92 4.15354 0.21304 0
M  V30 31741 H 2921.5 3.25946 1.81144 0
M  V30 31742 N 2923.68 -0.0885089 1.57351 0
M  V30 31743 C 2924.91 -0.804163 1.90633 0
M  V30 31744 C 2925.32 -1.71957 0.779504 0
M  V30 31745 O 2924.68 -1.80805 -0.248147 0
M  V30 31746 C 2924.73 -1.61196 3.23571 0
M  V30 31747 O 2924.45 -0.733371 4.31918 0
M  V30 31748 C 2925.95 -2.43009 3.70758 0
M  V30 31749 H 2923.17 -0.229574 0.630505 0
M  V30 31750 H 2925.72 -0.0637733 2.04401 0
M  V30 31751 H 2923.87 -2.30479 3.11381 0
M  V30 31752 H 2924.29 -1.29352 5.083 0
M  V30 31753 H 2925.76 -2.95172 4.66452 0
M  V30 31754 H 2926.24 -3.21775 2.98928 0
M  V30 31755 H 2926.84 -1.78913 3.85837 0
M  V30 31756 N 2925.16 -1.53445 -0.359498 0
M  V30 31757 C 2926.12 -1.79633 -1.42354 0
M  V30 31758 C 2927.12 -0.66691 -1.46318 0
M  V30 31759 O 2928.31 -0.935139 -1.46972 0
M  V30 31760 C 2925.44 -1.92392 -2.81422 0
M  V30 31761 H 2926.64 -2.74669 -1.20404 0
M  V30 31762 H 2924.19 -1.44615 -0.592982 0
M  V30 31763 H 2924.93 -0.994439 -3.08677 0
M  V30 31764 H 2924.71 -2.74544 -2.79943 0
M  V30 31765 H 2926.2 -2.14224 -3.58466 0
M  V30 31766 N 2926.64 0.619637 -1.44908 0
M  V30 31767 C 2927.6 1.71295 -1.52285 0
M  V30 31768 C 2928.6 1.55652 -0.403617 0
M  V30 31769 O 2929.79 1.60938 -0.666667 0
M  V30 31770 C 2926.92 3.10472 -1.40783 0
M  V30 31771 H 2928.12 1.66124 -2.49686 0
M  V30 31772 H 2925.67 0.834315 -1.3217 0
M  V30 31773 H 2926.4 3.21229 -0.445212 0
M  V30 31774 H 2926.19 3.23233 -2.21952 0
M  V30 31775 H 2927.68 3.90132 -1.48952 0
M  V30 31776 N 2928.12 1.31997 0.861075 0
M  V30 31777 C 2929.36 1.23501 1.62871 0
M  V30 31778 C 2929.72 -0.201659 1.90938 0
M  V30 31779 O 2930.92 -0.410258 2.65651 0
M  V30 31780 C 2929.19 2.06431 2.91755 0
M  V30 31781 S 2930.75 2.14892 3.82579 0
M  V30 31782 H 2927.57 0.439722 0.558718 0
M  V30 31783 H 2930.17 1.66768 1.02022 0
M  V30 31784 H 2928.88 3.09885 2.69072 0
M  V30 31785 H 2928.41 1.63917 3.57624 0
M  V30 31786 H 2930.42 1.29373 4.79038 0
M  V30 31787 N 2929.59 -1.07653 1.15103 0
M  V30 31788 C 2931.01 -1.61665 0.933876 0
M  V30 31789 C 2931.36 -1.89031 -0.525536 0
M  V30 31790 O 2930.48 -1.65349 -1.39602 0
M  V30 31791 C 2931.08 -2.93708 1.68881 0
M  V30 31792 C 2929.64 -3.44475 1.51703 0
M  V30 31793 C 2928.78 -2.18583 1.70637 0
M  V30 31794 H 2931.73 -0.907794 1.30172 0
M  V30 31795 H 2931.75 -3.62498 1.15651 0
M  V30 31796 H 2931.27 -2.7376 2.75095 0
M  V30 31797 H 2929.37 -3.69512 0.4787 0
M  V30 31798 H 2929.48 -4.20718 2.29201 0
M  V30 31799 H 2927.84 -2.2813 1.13263 0
M  V30 31800 H 2928.63 -2.01132 2.7821 0
M  V30 31801 N 2931.07 -0.947348 -1.25949 0
M  V30 31802 C 2932.48 -0.639994 -1.75388 0
M  V30 31803 C 2932.83 0.844757 -1.77083 0
M  V30 31804 O 2931.96 1.66112 -1.38693 0
M  V30 31805 C 2932.55 -1.15501 -3.18504 0
M  V30 31806 C 2931.11 -0.897959 -3.65532 0
M  V30 31807 C 2930.26 -1.30232 -2.44816 0
M  V30 31808 H 2933.21 -1.12497 -1.11938 0
M  V30 31809 H 2933.23 -0.511694 -3.77044 0
M  V30 31810 H 2932.74 -2.23565 -3.17239 0
M  V30 31811 H 2930.85 0.168031 -3.72221 0
M  V30 31812 H 2930.96 -1.5293 -4.54037 0
M  V30 31813 H 2929.32 -0.720721 -2.4429 0
M  V30 31814 H 2930.11 -2.39202 -2.46246 0
M  V30 31815 N 2932.55 1.40444 -0.715075 0
M  V30 31816 C 2933.78 2.05731 -0.262576 0
M  V30 31817 C 2934.2 1.5352 1.08688 0
M  V30 31818 O 2933.56 0.670358 1.68451 0
M  V30 31819 C 2933.61 3.59718 -0.252013 0
M  V30 31820 O 2932.71 4.05206 0.766927 0
M  V30 31821 H 2932.05 0.652431 -0.123409 0
M  V30 31822 H 2934.58 1.79852 -0.975413 0
M  V30 31823 H 2934.59 4.07902 -0.0895254 0
M  V30 31824 H 2933.27 3.97085 -1.23679 0
M  V30 31825 H 2931.84 3.68484 0.572204 0
M  V30 31826 N 2934.03 0.461222 1.507 0
M  V30 31827 C 2935.26 -0.0950013 2.06381 0
M  V30 31828 C 2935.67 -1.3493 1.32629 0
M  V30 31829 O 2935.01 -1.79595 0.386169 0
M  V30 31830 C 2935.07 -0.458902 3.56559 0
M  V30 31831 C 2934.74 0.691971 4.51731 0
M  V30 31832 C 2935.73 1.57114 4.95592 0
M  V30 31833 C 2933.42 0.879494 4.9454 0
M  V30 31834 C 2935.41 2.62233 5.80958 0
M  V30 31835 C 2933.1 1.93392 5.79692 0
M  V30 31836 C 2934.1 2.8037 6.22801 0
M  V30 31837 O 2933.78 3.83999 7.06258 0
M  V30 31838 H 2933.52 -0.000675606 0.676 0
M  V30 31839 H 2936.07 0.646121 1.94973 0
M  V30 31840 H 2934.3 -1.25307 3.65835 0
M  V30 31841 H 2935.99 -0.949054 3.94649 0
M  V30 31842 H 2936.76 1.43791 4.63195 0
M  V30 31843 H 2932.63 0.211988 4.60512 0
M  V30 31844 H 2936.18 3.30154 6.14528 0
M  V30 31845 H 2932.08 2.06726 6.11502 0
M  V30 31846 H 2932.84 3.80868 7.24487 0
M  V30 31847 N 2935.51 -1.56408 0.193449 0
M  V30 31848 C 2936.78 -1.89278 -0.493284 0
M  V30 31849 C 2937.16 -1.10673 -1.79763 0
M  V30 31850 O 2936.51 -0.207314 -2.27558 0
M  V30 31851 C 2936.72 -3.41625 -0.713672 0
M  V30 31852 C 2938.07 -4.11823 -1.03378 0
M  V30 31853 O 2939.09 -3.47067 -0.80145 0
M  V30 31854 O 2937.95 -5.2627 -1.47318 0
M  V30 31855 H 2935.05 -0.786067 -0.25696 0
M  V30 31856 H 2937.59 -1.68085 0.233539 0
M  V30 31857 H 2936.36 -3.90749 0.207514 0
M  V30 31858 H 2935.99 -3.68504 -1.49301 0
M  V30 31859 N 2936.98 0.0801629 -1.57396 0
M  V30 31860 C 2938.4 0.434751 -1.53565 0
M  V30 31861 C 2938.6 1.79659 -0.912403 0
M  V30 31862 O 2937.66 2.47269 -0.511311 0
M  V30 31863 C 2938.97 0.383508 -2.98244 0
M  V30 31864 C 2940.52 0.464296 -3.09537 0
M  V30 31865 C 2940.99 0.443047 -4.55852 0
M  V30 31866 N 2942.48 0.503367 -4.60457 0
M  V30 31867 C 2943.22 0.509006 -5.71136 0
M  V30 31868 N 2942.71 0.469958 -6.91204 0
M  V30 31869 N 2944.51 0.554937 -5.59354 0
M  V30 31870 H 2936.66 -0.81167 -1.9628 0
M  V30 31871 H 2938.92 -0.303705 -0.898035 0
M  V30 31872 H 2938.63 -0.550297 -3.47368 0
M  V30 31873 H 2938.5 1.19688 -3.57708 0
M  V30 31874 H 2940.89 1.38852 -2.60392 0
M  V30 31875 H 2940.97 -0.37749 -2.52999 0
M  V30 31876 H 2940.61 -0.477296 -5.05652 0
M  V30 31877 H 2940.54 1.30225 -5.10244 0
M  V30 31878 H 2943.03 0.538134 -3.74049 0
M  V30 31879 H 2943.35 0.477956 -7.71321 0
M  V30 31880 H 2941.69 0.436775 -6.93626 0
M  V30 31881 H 2944.88 0.583077 -4.64454 0
M  V30 31882 H 2945.06 0.555862 -6.45611 0
M  V30 31883 N 2938.46 1.53634 0.351355 0
M  V30 31884 C 2939.71 1.70756 1.09408 0
M  V30 31885 C 2940.04 0.465326 1.88543 0
M  V30 31886 O 2939.32 -0.537575 1.86923 0
M  V30 31887 C 2939.6 2.96627 2.04168 0
M  V30 31888 C 2939.45 4.3104 1.28548 0
M  V30 31889 C 2940.77 3.18141 3.04096 0
M  V30 31890 H 2937.89 0.621342 0.396362 0
M  V30 31891 H 2940.53 1.86294 0.373431 0
M  V30 31892 H 2938.68 2.8351 2.6562 0
M  V30 31893 H 2940.35 4.55993 0.697706 0
M  V30 31894 H 2938.6 4.29804 0.587422 0
M  V30 31895 H 2939.27 5.15275 1.9798 0
M  V30 31896 H 2941.74 3.30536 2.52755 0
M  V30 31897 H 2940.62 4.07621 3.67609 0
M  V30 31898 H 2940.88 2.34075 3.75048 0
M  V30 31899 N 2939.94 -0.611943 1.45234 0
M  V30 31900 C 2941.17 -1.39781 1.52541 0
M  V30 31901 C 2941.58 -1.8815 0.156566 0
M  V30 31902 O 2940.94 -1.61963 -0.841092 0
M  V30 31903 C 2940.99 -2.60524 2.50619 0
M  V30 31904 O 2940.71 -2.14166 3.82184 0
M  V30 31905 C 2942.21 -3.53434 2.67581 0
M  V30 31906 H 2939.43 -0.428034 0.516748 0
M  V30 31907 H 2941.98 -0.746694 1.9038 0
M  V30 31908 H 2940.13 -3.21686 2.15863 0
M  V30 31909 H 2940.55 -2.92584 4.3531 0
M  V30 31910 H 2942.02 -4.34711 3.40192 0
M  V30 31911 H 2942.5 -4.03493 1.73466 0
M  V30 31912 H 2943.1 -2.98128 3.03315 0
M  V30 31913 N 2941.42 -1.32452 -0.854063 0
M  V30 31914 C 2942.37 -1.21438 -1.96269 0
M  V30 31915 C 2943.34 -0.0964142 -1.6582 0
M  V30 31916 O 2944.52 -0.272063 -1.8885 0
M  V30 31917 C 2941.66 -0.94401 -3.31937 0
M  V30 31918 C 2940.77 -2.14682 -3.74881 0
M  V30 31919 C 2939.91 -1.81188 -4.99344 0
M  V30 31920 C 2938.95 -2.97786 -5.3478 0
M  V30 31921 N 2938.08 -2.64382 -6.5042 0
M  V30 31922 H 2942.92 -2.16264 -2.05021 0
M  V30 31923 H 2940.46 -1.07559 -1.00346 0
M  V30 31924 H 2942.42 -0.767747 -4.10075 0
M  V30 31925 H 2941.05 -0.032533 -3.22784 0
M  V30 31926 H 2940.1 -2.43333 -2.92392 0
M  V30 31927 H 2941.41 -3.01898 -3.97063 0
M  V30 31928 H 2940.57 -1.60117 -5.8519 0
M  V30 31929 H 2939.31 -0.911861 -4.791 0
M  V30 31930 H 2938.31 -3.19488 -4.47445 0
M  V30 31931 H 2939.54 -3.88521 -5.56981 0
M  V30 31932 H 2937.48 -1.76921 -6.31692 0
M  V30 31933 H 2937.4 -3.45128 -6.72624 0
M  V30 31934 H 2938.67 -2.46742 -7.39418 0
M  V30 31935 N 2942.9 1.07041 -1.15672 0
M  V30 31936 C 2944.31 1.61168 -0.942437 0
M  V30 31937 C 2944.66 1.89307 0.515504 0
M  V30 31938 O 2943.78 1.66087 1.38723 0
M  V30 31939 C 2944.38 2.92809 -1.70436 0
M  V30 31940 C 2942.94 3.43666 -1.53527 0
M  V30 31941 C 2942.09 2.17675 -1.71794 0
M  V30 31942 H 2945.04 0.900877 -1.30652 0
M  V30 31943 H 2945.06 3.6188 -1.17572 0
M  V30 31944 H 2944.57 2.72297 -2.76543 0
M  V30 31945 H 2942.67 3.69253 -0.498289 0
M  V30 31946 H 2942.78 4.19496 -2.31429 0
M  V30 31947 H 2941.15 2.27527 -1.14472 0
M  V30 31948 H 2941.93 1.99654 -2.79272 0
M  V30 31949 N 2944.38 0.954014 1.25445 0
M  V30 31950 C 2945.62 0.604135 1.9244 0
M  V30 31951 C 2945.94 -0.862765 1.75544 0
M  V30 31952 O 2947.14 -1.32258 2.37108 0
M  V30 31953 C 2945.6 1.0298 3.44852 0
M  V30 31954 C 2945.21 2.5192 3.70459 0
M  V30 31955 C 2946.95 0.752425 4.17778 0
M  V30 31956 C 2944.86 2.8829 5.16374 0
M  V30 31957 H 2943.79 0.22224 0.720504 0
M  V30 31958 H 2946.44 1.15838 1.42316 0
M  V30 31959 H 2944.82 0.403973 3.93934 0
M  V30 31960 H 2946 3.19517 3.32033 0
M  V30 31961 H 2944.31 2.77123 3.10792 0
M  V30 31962 H 2946.91 1.00033 5.25259 0
M  V30 31963 H 2947.25 -0.311139 4.15136 0
M  V30 31964 H 2947.78 1.33857 3.74603 0
M  V30 31965 H 2944.52 3.93662 5.24128 0
M  V30 31966 H 2944.04 2.25367 5.55851 0
M  V30 31967 H 2945.72 2.77449 5.84492 0
M  V30 31968 N 2945.85 -1.40063 0.722513 0
M  V30 31969 C 2947.1 -2.01056 0.265406 0
M  V30 31970 C 2947.43 -1.57176 -1.14059 0
M  V30 31971 O 2946.71 -0.794947 -1.77513 0
M  V30 31972 C 2946.99 -3.58363 0.35322 0
M  V30 31973 C 2946.84 -4.12297 1.79809 0
M  V30 31974 C 2948.16 -4.39261 -0.2716 0
M  V30 31975 H 2945.28 -0.730467 0.0979131 0
M  V30 31976 H 2947.92 -1.66444 0.916319 0
M  V30 31977 H 2946.07 -3.8798 -0.200969 0
M  V30 31978 H 2947.75 -3.93451 2.4082 0
M  V30 31979 H 2945.99 -3.66325 2.32354 0
M  V30 31980 H 2946.66 -5.21451 1.81088 0
M  V30 31981 H 2949.14 -4.15616 0.20068 0
M  V30 31982 H 2948.01 -5.48606 -0.179746 0
M  V30 31983 H 2948.27 -4.2079 -1.35604 0
M  V30 31984 N 2947.33 -0.469207 -1.50453 0
M  V30 31985 C 2948.24 0.331308 -2.32249 0
M  V30 31986 C 2949.26 0.997782 -1.42549 0
M  V30 31987 O 2950.43 0.986169 -1.75604 0
M  V30 31988 C 2947.5 1.40007 -3.17173 0
M  V30 31989 C 2946.56 0.750389 -4.22691 0
M  V30 31990 C 2945.79 1.76822 -5.03557 0
M  V30 31991 O 2946.02 2.99451 -4.85474 0
M  V30 31992 O 2944.95 1.34109 -5.86769 0
M  V30 31993 H 2948.78 -0.337332 -3.01821 0
M  V30 31994 H 2946.36 -0.231092 -1.47602 0
M  V30 31995 H 2948.24 2.01918 -3.69875 0
M  V30 31996 H 2946.92 2.05221 -2.50332 0
M  V30 31997 H 2945.82 0.0923789 -3.73986 0
M  V30 31998 H 2947.16 0.141223 -4.91997 0
M  V30 31999 N 2948.81 1.56303 -0.201741 0
M  V30 32000 C 2949.76 2.19398 0.71646 0
M  V30 32001 C 2950.73 1.14328 1.20492 0
M  V30 32002 O 2951.91 1.42606 1.2676 0
M  V30 32003 C 2949.05 2.8625 1.92757 0
M  V30 32004 C 2948.16 4.05862 1.47986 0
M  V30 32005 C 2947.3 4.60552 2.64698 0
M  V30 32006 C 2946.34 5.72508 2.16566 0
M  V30 32007 N 2945.48 6.21575 3.2648 0
M  V30 32008 H 2950.32 2.97505 0.171672 0
M  V30 32009 H 2947.85 1.46919 0.0729902 0
M  V30 32010 H 2949.81 3.23183 2.63835 0
M  V30 32011 H 2948.44 2.10695 2.44556 0
M  V30 32012 H 2947.49 3.74548 0.664704 0
M  V30 32013 H 2948.8 4.86817 1.08678 0
M  V30 32014 H 2947.96 4.99825 3.43889 0
M  V30 32015 H 2946.7 3.78719 3.07284 0
M  V30 32016 H 2945.7 5.32757 1.35831 0
M  V30 32017 H 2946.93 6.56164 1.75003 0
M  V30 32018 H 2944.87 5.42662 3.68584 0
M  V30 32019 H 2944.79 6.97599 2.91361 0
M  V30 32020 H 2946.06 6.65503 4.05865 0
M  V30 32021 N 2950.29 -0.0718147 1.57436 0
M  V30 32022 C 2951.24 -1.09226 2.00134 0
M  V30 32023 C 2952.22 -1.3448 0.883402 0
M  V30 32024 O 2953.41 -1.34781 1.14731 0
M  V30 32025 C 2950.54 -2.40601 2.4488 0
M  V30 32026 C 2949.63 -2.18621 3.63409 0
M  V30 32027 N 2950.02 -1.6657 4.77586 0
M  V30 32028 C 2948.32 -2.49094 3.69957 0
M  V30 32029 C 2949.02 -1.59405 5.59433 0
M  V30 32030 N 2947.99 -2.05455 5.03279 0
M  V30 32031 H 2951.8 -0.683135 2.8585 0
M  V30 32032 H 2949.31 -0.278886 1.59987 0
M  V30 32033 H 2951.31 -3.14467 2.73708 0
M  V30 32034 H 2949.97 -2.82229 1.60551 0
M  V30 32035 H 2950.98 -1.35435 4.99878 0
M  V30 32036 H 2947.66 -2.94089 2.96341 0
M  V30 32037 H 2949.05 -1.20015 6.61095 0
M  V30 32038 N 2951.77 -1.53818 -0.343203 0
M  V30 32039 C 2952.68 -1.84824 -1.4449 0
M  V30 32040 C 2953.69 -0.738409 -1.57555 0
M  V30 32041 O 2954.87 -1.03075 -1.73025 0
M  V30 32042 C 2951.93 -2.05171 -2.79474 0
M  V30 32043 C 2950.99 -3.2903 -2.7575 0
M  V30 32044 C 2950.23 -3.48397 -4.04296 0
M  V30 32045 O 2950.45 -2.71595 -5.0159 0
M  V30 32046 O 2949.38 -4.41826 -4.08746 0
M  V30 32047 H 2953.21 -2.78466 -1.21204 0
M  V30 32048 H 2950.79 -1.39476 -0.535413 0
M  V30 32049 H 2952.68 -2.19998 -3.59415 0
M  V30 32050 H 2951.35 -1.14718 -3.0269 0
M  V30 32051 H 2950.26 -3.19607 -1.94429 0
M  V30 32052 H 2951.59 -4.19477 -2.57488 0
M  V30 32053 N 2953.24 0.604233 -1.45557 0
M  V30 32054 C 2954.18 1.72868 -1.50497 0
M  V30 32055 C 2955.19 1.57925 -0.395396 0
M  V30 32056 O 2956.38 1.65745 -0.662633 0
M  V30 32057 C 2953.48 3.10903 -1.34879 0
M  V30 32058 C 2952.65 3.52054 -2.5957 0
M  V30 32059 C 2951.71 4.69066 -2.38461 0
M  V30 32060 O 2950.74 4.76013 -3.1209 0
M  V30 32061 N 2951.94 5.6255 -1.43239 0
M  V30 32062 H 2954.7 1.69092 -2.47443 0
M  V30 32063 H 2952.26 0.789611 -1.41339 0
M  V30 32064 H 2954.26 3.86943 -1.18563 0
M  V30 32065 H 2952.83 3.09168 -0.461967 0
M  V30 32066 H 2952.05 2.65941 -2.90979 0
M  V30 32067 H 2953.33 3.76307 -3.42448 0
M  V30 32068 H 2952.73 5.59655 -0.824813 0
M  V30 32069 H 2951.29 6.38109 -1.32893 0
M  V30 32070 N 2954.72 1.32903 0.847027 0
M  V30 32071 C 2955.63 1.24493 1.98843 0
M  V30 32072 C 2956.65 0.15705 1.7329 0
M  V30 32073 O 2957.82 0.379139 1.97799 0
M  V30 32074 C 2954.89 0.976043 3.32677 0
M  V30 32075 C 2953.95 2.15313 3.71401 0
M  V30 32076 C 2953.18 1.89697 4.98849 0
M  V30 32077 O 2953.41 0.843267 5.64132 0
M  V30 32078 O 2952.34 2.76011 5.34884 0
M  V30 32079 H 2956.17 2.20464 2.08876 0
M  V30 32080 H 2953.75 1.12868 0.978832 0
M  V30 32081 H 2955.63 0.842899 4.12884 0
M  V30 32082 H 2954.31 0.0465523 3.23667 0
M  V30 32083 H 2953.21 2.34177 2.91739 0
M  V30 32084 H 2954.55 3.06567 3.85068 0
M  V30 32085 N 2956.2 -1.06426 1.16238 0
M  V30 32086 C 2957.45 -1.78846 0.941202 0
M  V30 32087 C 2957.77 -1.8759 -0.532447 0
M  V30 32088 O 2957.04 -1.38361 -1.38683 0
M  V30 32089 H 2955.62 -0.662434 0.345239 0
M  V30 32090 H 2958.28 -1.28567 1.46481 0
M  V30 32091 H 2957.38 -2.8097 1.35876 0
M  V30 32092 N 2957.68 -0.960653 -1.24937 0
M  V30 32093 C 2958.63 -0.484498 -2.25657 0
M  V30 32094 C 2959.6 0.466214 -1.59423 0
M  V30 32095 O 2960.78 0.378136 -1.87015 0
M  V30 32096 C 2957.92 0.225898 -3.4436 0
M  V30 32097 C 2957.03 -0.762756 -4.25213 0
M  V30 32098 C 2956.17 -0.0291865 -5.31192 0
M  V30 32099 C 2955.21 -1.00837 -6.03737 0
M  V30 32100 N 2954.34 -0.305278 -7.01436 0
M  V30 32101 H 2959.18 -1.34826 -2.65756 0
M  V30 32102 H 2956.72 -0.676006 -1.30647 0
M  V30 32103 H 2958.68 0.6544 -4.12036 0
M  V30 32104 H 2957.31 1.05366 -3.05119 0
M  V30 32105 H 2956.36 -1.30972 -3.57142 0
M  V30 32106 H 2957.67 -1.50973 -4.75404 0
M  V30 32107 H 2956.83 0.457657 -6.04971 0
M  V30 32108 H 2955.57 0.750529 -4.8189 0
M  V30 32109 H 2954.57 -1.50616 -5.28767 0
M  V30 32110 H 2955.8 -1.78842 -6.55128 0
M  V30 32111 H 2953.74 0.455589 -6.54416 0
M  V30 32112 H 2953.66 -0.991236 -7.49473 0
M  V30 32113 H 2954.93 0.159829 -7.79336 0
M  V30 32114 N 2959.16 1.39677 -0.729931 0
M  V30 32115 C 2960.43 1.94552 -0.202184 0
M  V30 32116 C 2960.81 1.66709 1.29504 0
M  V30 32117 O 2960.16 0.992553 2.05817 0
M  V30 32118 C 2960.37 3.44947 -0.53034 0
M  V30 32119 C 2961.72 4.21913 -0.476882 0
M  V30 32120 O 2962.74 3.53122 -0.467234 0
M  V30 32121 O 2961.6 5.44501 -0.466965 0
M  V30 32122 H 2958.7 0.826251 -0.0351789 0
M  V30 32123 H 2961.24 1.49205 -0.808444 0
M  V30 32124 H 2960.01 3.58627 -1.56532 0
M  V30 32125 H 2959.64 3.97461 0.10515 0
M  V30 32126 N 2960.63 0.47718 1.50202 0
M  V30 32127 C 2961.54 -0.318987 2.32421 0
M  V30 32128 C 2962.56 -0.990208 1.43076 0
M  V30 32129 O 2963.74 -0.976842 1.76124 0
M  V30 32130 C 2960.8 -1.38323 3.17911 0
M  V30 32131 C 2959.86 -0.727962 4.23083 0
M  V30 32132 C 2959.1 -1.74149 5.04488 0
M  V30 32133 O 2959.32 -2.96872 4.87056 0
M  V30 32134 O 2958.25 -1.30996 5.87472 0
M  V30 32135 H 2962.08 0.353334 3.01638 0
M  V30 32136 H 2959.66 0.238917 1.47477 0
M  V30 32137 H 2961.55 -1.99953 3.7094 0
M  V30 32138 H 2960.22 -2.03891 2.51417 0
M  V30 32139 H 2959.13 -0.0725442 3.7403 0
M  V30 32140 H 2960.46 -0.115129 4.92065 0
M  V30 32141 N 2962.11 -1.56194 0.210027 0
M  V30 32142 C 2963.06 -2.19775 -0.704815 0
M  V30 32143 C 2964.03 -1.14966 -1.19884 0
M  V30 32144 O 2965.21 -1.43276 -1.26002 0
M  V30 32145 C 2962.35 -2.87268 -1.91236 0
M  V30 32146 C 2961.47 -4.06641 -1.45831 0
M  V30 32147 C 2960.6 -4.61949 -2.62252 0
M  V30 32148 C 2959.64 -5.73649 -2.13527 0
M  V30 32149 N 2958.78 -6.23298 -3.23179 0
M  V30 32150 H 2963.62 -2.97592 -0.155892 0
M  V30 32151 H 2961.16 -1.46955 -0.0651977 0
M  V30 32152 H 2963.11 -3.24577 -2.62117 0
M  V30 32153 H 2961.74 -2.11989 -2.43435 0
M  V30 32154 H 2960.8 -3.74895 -0.644831 0
M  V30 32155 H 2962.11 -4.87386 -1.06094 0
M  V30 32156 H 2961.26 -5.01642 -3.41234 0
M  V30 32157 H 2960 -3.80343 -3.05271 0
M  V30 32158 H 2959.01 -5.3347 -1.33004 0
M  V30 32159 H 2960.23 -6.57082 -1.71521 0
M  V30 32160 H 2958.18 -5.44609 -3.65701 0
M  V30 32161 H 2958.09 -6.99134 -2.87658 0
M  V30 32162 H 2959.36 -6.67646 -4.0233 0
M  V30 32163 N 2963.59 0.0634645 -1.57472 0
M  V30 32164 C 2964.55 1.05897 -2.0327 0
M  V30 32165 C 2965.55 1.31103 -0.931051 0
M  V30 32166 O 2966.74 1.26684 -1.19569 0
M  V30 32167 C 2963.88 2.40058 -2.42043 0
M  V30 32168 H 2965.07 0.664067 -2.92455 0
M  V30 32169 H 2962.62 0.309418 -1.53207 0
M  V30 32170 H 2963.36 2.84364 -1.55909 0
M  V30 32171 H 2963.14 2.23102 -3.22441 0
M  V30 32172 H 2964.63 3.11598 -2.78023 0
M  V30 32173 N 2965.07 1.53998 0.33504 0
M  V30 32174 C 2966.02 1.82581 1.41183 0
M  V30 32175 C 2966.99 0.672088 1.51895 0
M  V30 32176 O 2968.17 0.917376 1.67299 0
M  V30 32177 C 2965.31 2.04865 2.77713 0
M  V30 32178 C 2964.42 3.32566 2.75724 0
M  V30 32179 C 2963.56 3.44871 4.04026 0
M  V30 32180 C 2962.6 4.6649 3.963 0
M  V30 32181 N 2961.73 4.75783 5.16309 0
M  V30 32182 H 2966.57 2.7445 1.16108 0
M  V30 32183 H 2964.11 1.35929 0.562281 0
M  V30 32184 H 2966.07 2.15775 3.57068 0
M  V30 32185 H 2964.7 1.163 3.01122 0
M  V30 32186 H 2963.75 3.30454 1.88427 0
M  V30 32187 H 2965.06 4.22021 2.65895 0
M  V30 32188 H 2964.22 3.5526 4.91808 0
M  V30 32189 H 2962.96 2.53488 4.16648 0
M  V30 32190 H 2961.96 4.5617 3.06903 0
M  V30 32191 H 2963.19 5.59246 3.85254 0
M  V30 32192 H 2961.13 3.87312 5.29458 0
M  V30 32193 H 2961.05 5.59187 5.08769 0
M  V30 32194 H 2962.32 4.90491 6.05837 0
M  V30 32195 N 2966.55 -0.596505 1.45875 0
M  V30 32196 C 2967.79 -1.35251 1.50172 0
M  V30 32197 C 2968.12 -1.94428 0.14928 0
M  V30 32198 O 2967.39 -1.7779 -0.822648 0
M  V30 32199 H 2965.97 -0.502129 0.55306 0
M  V30 32200 H 2968.63 -0.699639 1.81909 0
M  V30 32201 H 2967.72 -2.16628 2.24674 0
M  V30 32202 N 2968.02 -1.3335 -0.839967 0
M  V30 32203 C 2968.97 -1.23513 -1.9497 0
M  V30 32204 C 2969.94 -0.113996 -1.65708 0
M  V30 32205 O 2971.13 -0.292078 -1.88551 0
M  V30 32206 C 2968.27 -0.979163 -3.30918 0
M  V30 32207 C 2967.38 -2.18646 -3.72583 0
M  V30 32208 C 2966.51 -1.86474 -4.97394 0
M  V30 32209 C 2965.55 -3.03442 -5.31592 0
M  V30 32210 N 2964.69 -2.71265 -6.4758 0
M  V30 32211 H 2969.53 -2.18427 -2.02716 0
M  V30 32212 H 2967.07 -1.08618 -0.991998 0
M  V30 32213 H 2969.03 -0.811198 -4.09238 0
M  V30 32214 H 2967.66 -0.0667667 -3.22731 0
M  V30 32215 H 2966.71 -2.46421 -2.89795 0
M  V30 32216 H 2968.02 -3.06093 -3.93839 0
M  V30 32217 H 2967.17 -1.66315 -5.83459 0
M  V30 32218 H 2965.91 -0.962624 -4.78105 0
M  V30 32219 H 2964.92 -3.24216 -4.44032 0
M  V30 32220 H 2966.14 -3.94407 -5.52829 0
M  V30 32221 H 2964.09 -1.83611 -6.2978 0
M  V30 32222 H 2964.01 -3.52243 -6.68925 0
M  V30 32223 H 2965.27 -2.54571 -7.36759 0
M  V30 32224 O 2969.54 0.977781 -1.28537 0
M  V30 32225 H 2970.23 1.60251 -1.08808 0
M  V30 END ATOM
M  V30 BEGIN BOND
M  V30 END BOND
M  V30 END CTAB
M  END
$$$$
