drugbank_target|Q72K87 Phosphopantetheine adenylyltransferase (DB03912)
 OpenBabel12092120023D

  0  0  0     0  0            999 V3000
M  V30 BEGIN CTAB
M  V30 COUNTS 2535 2558 0 0 0
M  V30 BEGIN ATOM
M  V30 1 H -0.908 1.98254 -0.117106 0
M  V30 2 N 0 1.576 0 0
M  V30 3 C 0.933 2.03868 1.02534 0
M  V30 4 C 1.911 0.928543 1.3348 0
M  V30 5 O 3.095 1.19667 1.45644 0
M  V30 6 C 0.222 2.43627 2.35294 0
M  V30 7 C -0.732 3.65373 2.2001 0
M  V30 8 S 0.101 5.13292 1.52614 0
M  V30 9 C 1.257 5.56322 2.86805 0
M  V30 10 H 1.49 2.90518 0.631377 0
M  V30 11 H -0.977 1.52953 0.210867 0
M  V30 12 H 0.981 2.67203 3.11629 0
M  V30 13 H -0.358 1.57376 2.7183 0
M  V30 14 H -1.165 3.90944 3.18086 0
M  V30 15 H -1.563 3.418 1.51819 0
M  V30 16 H 0.729 5.58782 3.83104 0
M  V30 17 H 1.672 6.56266 2.65933 0
M  V30 18 H 2.08 4.83886 2.90714 0
M  V30 19 N 1.4781 -0.272755 1.55222 0
M  V30 20 C 2.4281 -1.33946 1.84506 0
M  V30 21 C 3.4121 -1.44682 0.70399 0
M  V30 22 O 4.6041 -1.48358 0.965338 0
M  V30 23 C 1.7331 -2.69968 2.12067 0
M  V30 24 C 0.8191 -2.63341 3.32434 0
M  V30 25 N 1.2101 -2.26335 4.52334 0
M  V30 26 C -0.4919 -2.94402 3.35028 0
M  V30 27 C 0.2091 -2.29705 5.34425 0
M  V30 28 N -0.8149 -2.68188 4.72838 0
M  V30 29 H 2.9871 -1.04343 2.74754 0
M  V30 30 H 0.5011 -0.481389 1.55101 0
M  V30 31 H 2.4981 -3.46916 2.31202 0
M  V30 32 H 1.1581 -3.00459 1.23103 0
M  V30 33 H 2.1691 -1.98309 4.78429 0
M  V30 34 H -1.1539 -3.29603 2.56257 0
M  V30 35 H 0.2361 -2.03653 6.40293 0
M  V30 36 N 2.9562 -1.48159 -0.537278 0
M  V30 37 C 4.2022 -1.56035 -1.29541 0
M  V30 38 C 4.5352 -0.230377 -1.92829 0
M  V30 39 O 3.8102 0.762952 -1.78911 0
M  V30 40 C 4.0932 -2.69323 -2.39034 0
M  V30 41 C 3.9462 -4.12002 -1.80485 0
M  V30 42 C 5.2652 -2.78408 -3.40847 0
M  V30 43 H 2.3842 -0.567992 -0.469632 0
M  V30 44 H 5.0262 -1.80302 -0.599277 0
M  V30 45 H 3.1762 -2.48763 -2.98412 0
M  V30 46 H 4.8482 -4.43981 -1.25215 0
M  V30 47 H 3.0912 -4.19344 -1.11055 0
M  V30 48 H 3.7622 -4.87077 -2.59731 0
M  V30 49 H 6.2382 -2.97012 -2.91416 0
M  V30 50 H 5.1142 -3.59416 -4.14863 0
M  V30 51 H 5.3752 -1.86269 -4.00944 0
M  V30 52 N 4.4343 0.785586 -1.36625 0
M  V30 53 C 5.6803 1.54591 -1.31261 0
M  V30 54 C 6.0133 1.93906 0.106823 0
M  V30 55 O 5.2883 1.63007 1.06108 0
M  V30 56 C 5.5713 2.82038 -2.23889 0
M  V30 57 C 5.4243 2.49066 -3.74548 0
M  V30 58 C 6.7433 3.83887 -2.15217 0
M  V30 59 H 3.8623 0.560846 -0.478143 0
M  V30 60 H 6.5043 0.902278 -1.67209 0
M  V30 61 H 4.6543 3.36961 -1.93363 0
M  V30 62 H 6.3263 2.00164 -4.15611 0
M  V30 63 H 4.5693 1.81954 -3.93796 0
M  V30 64 H 5.2403 3.40109 -4.34776 0
M  V30 65 H 7.7163 3.38421 -2.42096 0
M  V30 66 H 6.5923 4.70806 -2.82193 0
M  V30 67 H 6.8533 4.27131 -1.14068 0
M  V30 68 N 5.9124 1.20967 1.01018 0
M  V30 69 C 7.1424 1.04803 1.78044 0
M  V30 70 C 7.5504 -0.405462 1.84804 0
M  V30 71 O 6.8934 -1.2932 1.30468 0
M  V30 72 C 6.9554 1.56377 3.23707 0
M  V30 73 C 6.6194 3.04767 3.40538 0
M  V30 74 C 7.6164 4.02366 3.29239 0
M  V30 75 C 5.3014 3.43862 3.66147 0
M  V30 76 C 7.2954 5.37049 3.43304 0
M  V30 77 C 4.9824 4.78699 3.79855 0
M  V30 78 C 5.9804 5.75101 3.68439 0
M  V30 79 O 5.6684 7.07493 3.81719 0
M  V30 80 H 5.4004 0.368778 0.56655 0
M  V30 81 H 7.9544 1.60642 1.27997 0
M  V30 82 H 6.1844 0.949297 3.74867 0
M  V30 83 H 7.8734 1.36136 3.8239 0
M  V30 84 H 8.6394 3.73506 3.09384 0
M  V30 85 H 4.5184 2.69364 3.74118 0
M  V30 86 H 8.0624 6.12277 3.34309 0
M  V30 87 H 3.9594 5.07247 3.99213 0
M  V30 88 H 4.7274 7.1483 3.98697 0
M  V30 89 N 7.3905 -1.2043 1.01659 0
M  V30 90 C 8.8015 -1.71517 0.737482 0
M  V30 91 C 9.1525 -1.81547 -0.743973 0
M  V30 92 O 8.2775 -1.47803 -1.58061 0
M  V30 93 C 8.8725 -3.11515 1.33206 0
M  V30 94 C 7.4315 -3.59912 1.10183 0
M  V30 95 C 6.5785 -2.37116 1.43776 0
M  V30 96 H 9.5295 -1.05444 1.18606 0
M  V30 97 H 9.5505 -3.73575 0.722636 0
M  V30 98 H 9.0625 -3.04182 2.41028 0
M  V30 99 H 7.1635 -3.72577 0.0412756 0
M  V30 100 H 7.2765 -4.44731 1.78188 0
M  V30 101 H 5.6405 -2.39857 0.856778 0
M  V30 102 H 6.4235 -2.32424 2.52654 0
M  V30 103 N 8.8686 -0.792821 -1.36206 0
M  V30 104 C 10.1166 -0.366062 -1.98757 0
M  V30 105 C 10.4376 1.0668 -1.63231 0
M  V30 106 O 9.7076 1.73587 -0.907978 0
M  V30 107 H 8.2876 -0.132364 -0.735179 0
M  V30 108 H 10.9496 -1.01562 -1.66347 0
M  V30 109 H 10.0456 -0.460638 -3.08682 0
M  V30 110 N 10.3467 1.47872 -0.545128 0
M  V30 111 C 11.5717 2.07391 -0.0190611 0
M  V30 112 C 11.9967 1.39688 1.25971 0
M  V30 113 O 11.3547 0.467816 1.7516 0
M  V30 114 C 11.4027 3.60188 0.172335 0
M  V30 115 O 10.5067 3.9339 1.23766 0
M  V30 116 H 9.8477 0.662411 -0.0459059 0
M  V30 117 H 12.3777 1.90066 -0.757365 0
M  V30 118 H 12.3877 4.06129 0.390305 0
M  V30 119 H 11.0627 4.08865 -0.761725 0
M  V30 120 H 9.6397 3.5921 1.00114 0
M  V30 121 N 11.8248 0.280983 1.55075 0
M  V30 122 C 13.0718 -0.334115 1.99725 0
M  V30 123 C 13.3998 -1.5542 1.1694 0
M  V30 124 O 12.6548 -1.94361 0.228531 0
M  V30 125 C 12.9538 -0.754656 3.49342 0
M  V30 126 C 12.6198 0.361445 4.49449 0
M  V30 127 C 11.2818 0.667893 4.76542 0
M  V30 128 C 13.6338 1.11322 5.09173 0
M  V30 129 C 10.9618 1.7296 5.60626 0
M  V30 130 C 13.3138 2.1647 5.9441 0
M  V30 131 C 11.9778 2.47742 6.19822 0
M  V30 132 H 11.2478 -0.122261 0.730844 0
M  V30 133 H 13.8948 0.395917 1.87363 0
M  V30 134 H 12.1998 -1.56446 3.5921 0
M  V30 135 H 13.8968 -1.24142 3.813 0
M  V30 136 H 10.4868 0.112481 4.28452 0
M  V30 137 H 14.6708 0.88973 4.8826 0
M  V30 138 H 9.9268 1.97684 5.78559 0
M  V30 139 H 14.1008 2.75193 6.3972 0
M  V30 140 H 11.7278 3.30145 6.84769 0
M  V30 141 N 13.3029 -1.57598 0.00835791 0
M  V30 142 C 14.5799 -1.82172 -0.712235 0
M  V30 143 C 14.9599 -0.887873 -1.9152 0
M  V30 144 O 14.3079 0.06146 -2.28417 0
M  V30 145 C 14.5179 -3.30875 -1.11008 0
M  V30 146 C 15.8659 -3.96826 -1.51044 0
M  V30 147 O 16.8899 -3.35248 -1.20364 0
M  V30 148 O 15.7489 -5.05318 -2.08125 0
M  V30 149 H 12.8429 -0.750435 -0.347529 0
M  V30 150 H 15.3889 -1.69665 0.0344523 0
M  V30 151 H 14.1609 -3.90481 -0.252982 0
M  V30 152 H 13.7839 -3.48412 -1.9156 0
M  V30 153 N 14.781 0.264519 -1.55364 0
M  V30 154 C 16.192 0.834936 -1.6699 0
M  V30 155 C 16.543 1.86718 -0.602552 0
M  V30 156 O 15.668 2.14899 0.254425 0
M  V30 157 C 16.263 1.5212 -3.02729 0
M  V30 158 C 14.822 2.03954 -3.16354 0
M  V30 159 C 13.969 0.884498 -2.62815 0
M  V30 160 H 16.92 0.0406869 -1.58648 0
M  V30 161 H 16.941 2.38853 -2.96191 0
M  V30 162 H 16.453 0.769668 -3.80392 0
M  V30 163 H 14.554 2.82041 -2.43482 0
M  V30 164 H 14.667 2.24902 -4.23032 0
M  V30 165 H 13.031 1.2802 -2.20188 0
M  V30 166 H 13.814 0.14634 -3.42988 0
M  V30 167 N 16.2591 1.48442 0.529413 0
M  V30 168 C 17.1891 1.65902 1.64313 0
M  V30 169 C 18.1701 0.507897 1.6234 0
M  V30 170 O 19.3551 0.740503 1.79528 0
M  V30 171 C 16.4851 1.69911 3.02898 0
M  V30 172 C 15.4391 2.8453 3.19729 0
M  V30 173 C 14.7651 2.73629 4.59381 0
M  V30 174 C 16.0651 4.25821 3.02447 0
M  V30 175 H 17.7591 2.5914 1.49955 0
M  V30 176 H 15.3051 1.24709 0.719982 0
M  V30 177 H 17.2581 1.80715 3.80684 0
M  V30 178 H 15.9821 0.732524 3.18279 0
M  V30 179 H 14.6411 2.73283 2.44361 0
M  V30 180 H 14.2891 1.74938 4.71599 0
M  V30 181 H 13.9891 3.50541 4.71588 0
M  V30 182 H 15.5131 2.86401 5.39265 0
M  V30 183 H 16.9271 4.37898 3.70024 0
M  V30 184 H 15.3241 5.03735 3.26146 0
M  V30 185 H 16.3941 4.42244 1.98867 0
M  V30 186 N 17.7372 -0.778329 1.37039 0
M  V30 187 C 18.9652 -1.56734 1.35063 0
M  V30 188 C 19.3802 -1.88686 -0.0655597 0
M  V30 189 O 18.7372 -1.5096 -1.02554 0
M  V30 190 C 18.7882 -2.88163 2.18276 0
M  V30 191 O 18.5092 -2.57583 3.54376 0
M  V30 192 C 20.0102 -3.82422 2.24206 0
M  V30 193 H 17.2302 -0.485778 0.462883 0
M  V30 194 H 19.7742 -0.965185 1.8029 0
M  V30 195 H 17.9292 -3.44818 1.76576 0
M  V30 196 H 18.3432 -3.41699 3.97922 0
M  V30 197 H 19.8172 -4.71667 2.86765 0
M  V30 198 H 20.2942 -4.21078 1.24861 0
M  V30 199 H 20.9002 -3.31697 2.6619 0
M  V30 200 N 19.2153 -1.21501 -1.00376 0
M  V30 201 C 20.1633 -0.972442 -2.11297 0
M  V30 202 C 21.1573 0.080731 -1.69208 0
M  V30 203 O 22.3633 -0.0707666 -1.79861 0
M  V30 204 H 18.7383 -0.297218 -0.690772 0
M  V30 205 H 20.7093 -1.91394 -2.28934 0
M  V30 206 C 19.4583 -0.555065 -3.43241 0
M  V30 207 H 18.7813 -1.35709 -3.76062 0
M  V30 208 H 20.2213 -0.424664 -4.21868 0
M  V30 209 C 18.6803 0.734147 -3.28804 0
M  V30 210 O 19.2103 1.78937 -3.59645 0
M  V30 211 N 17.4163 0.701133 -2.82015 0
M  V30 212 H 16.9633 -0.157874 -2.57116 0
M  V30 213 H 16.9213 1.56403 -2.72737 0
M  V30 214 N 20.6934 1.19889 -1.02296 0
M  V30 215 C 21.9414 1.89046 -0.714558 0
M  V30 216 C 22.2624 1.79636 0.758681 0
M  V30 217 O 21.5324 1.20292 1.54618 0
M  V30 218 H 20.1124 0.699802 -0.261317 0
M  V30 219 H 22.7744 1.45574 -1.29592 0
M  V30 220 H 21.8704 2.95524 -1.0036 0
M  V30 221 N 22.1715 0.800033 1.35784 0
M  V30 222 C 23.1215 0.178654 2.27299 0
M  V30 223 C 24.1055 -0.643667 1.47464 0
M  V30 224 O 25.2975 -0.502 1.69732 0
M  V30 225 C 22.4265 -0.677194 3.36555 0
M  V30 226 C 21.5125 0.154497 4.23818 0
M  V30 227 N 21.9035 1.21427 4.91008 0
M  V30 228 C 20.2015 -0.0649462 4.45953 0
M  V30 229 C 20.9025 1.72147 5.55644 0
M  V30 230 N 19.8785 1.02897 5.33773 0
M  V30 231 H 23.6805 0.989637 2.76737 0
M  V30 232 H 21.1945 0.64054 1.49234 0
M  V30 233 H 23.1915 -1.13835 4.01058 0
M  V30 234 H 21.8515 -1.4866 2.8867 0
M  V30 235 H 22.8625 1.59684 4.92668 0
M  V30 236 H 19.5395 -0.844016 4.0888 0
M  V30 237 H 20.9295 2.60683 6.19269 0
M  V30 238 N 23.6496 -1.47581 0.552962 0
M  V30 239 C 24.5796 -2.32762 -0.185451 0
M  V30 240 C 25.5606 -1.43527 -0.912905 0
M  V30 241 O 26.7456 -1.72388 -0.894201 0
M  V30 242 C 23.8756 -3.25219 -1.21859 0
M  V30 243 C 22.8296 -4.23661 -0.607864 0
M  V30 244 C 22.1556 -5.05413 -1.74533 0
M  V30 245 C 23.4556 -5.20481 0.435582 0
M  V30 246 H 25.1496 -2.94749 0.525684 0
M  V30 247 H 22.6956 -1.41738 0.254251 0
M  V30 248 H 24.6486 -3.8365 -1.7433 0
M  V30 249 H 23.3726 -2.61279 -1.95961 0
M  V30 250 H 22.0316 -3.66451 -0.104489 0
M  V30 251 H 21.6796 -4.3788 -2.47529 0
M  V30 252 H 21.3796 -5.72059 -1.34249 0
M  V30 253 H 22.9036 -5.66701 -2.27338 0
M  V30 254 H 24.3176 -5.733 -0.00290157 0
M  V30 255 H 22.7146 -5.95305 0.757067 0
M  V30 256 H 23.7846 -4.66217 1.33303 0
M  V30 257 N 25.1277 -0.289203 -1.54924 0
M  V30 258 C 26.4047 0.376032 -1.91951 0
M  V30 259 C 26.7847 1.72622 -1.21511 0
M  V30 260 O 26.1327 2.25853 -0.346767 0
M  V30 261 C 26.3427 0.502378 -3.45365 0
M  V30 262 C 27.6907 0.778741 -4.17398 0
M  V30 263 O 28.7147 0.586647 -3.51336 0
M  V30 264 O 27.5737 1.14698 -5.34328 0
M  V30 265 H 24.6677 0.208167 -0.800372 0
M  V30 266 H 27.2137 -0.336394 -1.66332 0
M  V30 267 H 25.9857 -0.447255 -3.88736 0
M  V30 268 H 25.6087 1.26373 -3.76982 0
M  V30 269 N 26.6058 1.57591 -0.0167156 0
M  V30 270 C 27.8518 1.91567 0.665582 0
M  V30 271 C 28.1848 0.892298 1.72487 0
M  V30 272 O 27.4598 -0.0867127 1.94307 0
M  V30 273 C 27.7428 3.36069 1.29342 0
M  V30 274 C 27.5958 4.49135 0.244541 0
M  V30 275 C 28.9148 3.803 2.21495 0
M  V30 276 H 26.0338 0.69666 0.240488 0
M  V30 277 H 28.6758 1.89866 -0.0714356 0
M  V30 278 H 26.8258 3.3765 1.92158 0
M  V30 279 H 28.4978 4.59689 -0.385228 0
M  V30 280 H 26.7408 4.3165 -0.431379 0
M  V30 281 H 27.4118 5.47242 0.723207 0
M  V30 282 H 29.8878 3.80377 1.68678 0
M  V30 283 H 28.7638 4.82127 2.62382 0
M  V30 284 H 29.0248 3.15104 3.101 0
M  V30 285 N 28.0839 -0.256276 1.55502 0
M  V30 286 C 29.3329 -0.983486 1.76098 0
M  V30 287 C 29.6459 -1.86837 0.578896 0
M  V30 288 O 30.8519 -2.63163 0.667648 0
M  V30 289 C 29.3079 -1.79868 3.1173 0
M  V30 290 C 28.9159 -0.961648 4.37557 0
M  V30 291 C 30.6599 -2.51919 3.41668 0
M  V30 292 C 28.5669 -1.77219 5.64223 0
M  V30 293 H 27.4969 -0.370936 0.656447 0
M  V30 294 H 30.1479 -0.238492 1.81944 0
M  V30 295 H 28.5299 -2.58527 2.99966 0
M  V30 296 H 29.7039 -0.218048 4.60284 0
M  V30 297 H 28.0189 -0.354913 4.14885 0
M  V30 298 H 30.6159 -3.12998 4.33516 0
M  V30 299 H 30.9589 -3.23059 2.62562 0
M  V30 300 H 31.4919 -1.80278 3.54605 0
M  V30 301 H 28.2309 -1.10471 6.46124 0
M  V30 302 H 27.7509 -2.49132 5.45613 0
M  V30 303 H 29.4299 -2.34169 6.03137 0
M  V30 304 N 29.562 -1.4872 -0.521534 0
M  V30 305 C 30.494 -1.59968 -1.64143 0
M  V30 306 C 31.507 -0.483463 -1.55456 0
M  V30 307 O 32.696 -0.75467 -1.61762 0
M  V30 308 C 29.796 -1.52127 -3.02838 0
M  V30 309 C 28.969 -2.78932 -3.36921 0
M  V30 310 C 28.028 -2.64428 -4.54933 0
M  V30 311 O 27.054 -3.38331 -4.57735 0
M  V30 312 N 28.256 -1.74606 -5.53618 0
M  V30 313 H 31.021 -2.56548 -1.54929 0
M  V30 314 H 28.582 -1.45551 -0.708988 0
M  V30 315 H 30.574 -1.40106 -3.79674 0
M  V30 316 H 29.144 -0.634868 -3.06085 0
M  V30 317 H 28.364 -3.05455 -2.4918 0
M  V30 318 H 29.652 -3.63041 -3.56481 0
M  V30 319 H 29.05 -1.13782 -5.54139 0
M  V30 320 H 27.607 -1.6852 -6.29638 0
M  V30 321 N 31.0401 0.771051 -1.3745 0
M  V30 322 C 32.4561 1.07171 -1.18265 0
M  V30 323 C 32.6561 2.01491 -0.019287 0
M  V30 324 O 31.7121 2.44244 0.640408 0
M  V30 325 C 33.0251 1.66854 -2.50161 0
M  V30 326 C 34.5731 1.79109 -2.56689 0
M  V30 327 C 35.0481 2.42205 -3.88717 0
M  V30 328 N 36.5391 2.49655 -3.90162 0
M  V30 329 C 37.2741 2.9933 -4.8907 0
M  V30 330 N 36.7701 3.49172 -5.98374 0
M  V30 331 N 38.5631 2.9821 -4.76474 0
M  V30 332 H 30.7141 0.144796 -2.11906 0
M  V30 333 H 32.9771 0.126863 -0.939473 0
M  V30 334 H 32.6831 1.05017 -3.35655 0
M  V30 335 H 32.5571 2.6614 -2.673 0
M  V30 336 H 34.9441 2.40077 -1.71601 0
M  V30 337 H 35.0251 0.785757 -2.43433 0
M  V30 338 H 34.6691 1.81875 -4.74219 0
M  V30 339 H 34.5991 3.43345 -3.99276 0
M  V30 340 H 37.0901 2.14383 -3.11205 0
M  V30 341 H 37.4031 3.8548 -6.69795 0
M  V30 342 H 35.7481 3.47275 -6.02018 0
M  V30 343 H 38.9391 2.58572 -3.90203 0
M  V30 344 H 39.1121 3.36613 -5.53711 0
M  V30 345 N 32.5182 1.22032 0.997298 0
M  V30 346 C 33.4812 0.987909 2.06816 0
M  V30 347 C 34.4812 -0.0440084 1.6074 0
M  V30 348 O 35.6712 0.194053 1.73116 0
M  V30 349 C 32.8032 0.49132 3.37341 0
M  V30 350 H 33.9962 1.93803 2.28868 0
M  V30 351 H 31.5492 1.03838 1.16822 0
M  V30 352 H 32.2842 -0.463364 3.20973 0
M  V30 353 H 32.0692 1.23575 3.72118 0
M  V30 354 H 33.5592 0.348824 4.16141 0
M  V30 355 N 33.9963 -1.19345 1.0293 0
M  V30 356 C 35.2213 -1.93538 0.745511 0
M  V30 357 C 35.6463 -1.75007 -0.689511 0
M  V30 358 O 35.0043 -1.05265 -1.47611 0
M  V30 359 C 35.0523 -3.43336 1.10239 0
M  V30 360 O 34.1563 -4.11806 0.221289 0
M  V30 361 H 33.4973 -0.604193 0.275404 0
M  V30 362 H 36.0273 -1.5141 1.37609 0
M  V30 363 H 36.0373 -3.94004 1.05947 0
M  V30 364 H 34.7123 -3.56146 2.14786 0
M  V30 365 H 33.2893 -3.715 0.322842 0
M  V30 366 N 35.4744 -0.807222 -1.35358 0
M  V30 367 C 36.8904 -0.491038 -1.51858 0
M  V30 368 C 37.0904 0.987648 -1.75635 0
M  V30 369 O 36.1464 1.77265 -1.79815 0
M  V30 370 C 37.4594 -1.33695 -2.69344 0
M  V30 371 C 39.0074 -1.33246 -2.83222 0
M  V30 372 C 39.4824 -2.1625 -4.03733 0
M  V30 373 N 40.9734 -2.1379 -4.10911 0
M  V30 374 C 41.7084 -2.74772 -5.03277 0
M  V30 375 N 41.2044 -3.44684 -6.0097 0
M  V30 376 N 42.9974 -2.6441 -4.96028 0
M  V30 377 H 35.1484 -1.76485 -1.18181 0
M  V30 378 H 37.4114 -0.751199 -0.578276 0
M  V30 379 H 37.1174 -2.38634 -2.58354 0
M  V30 380 H 36.9914 -0.990618 -3.6396 0
M  V30 381 H 39.3784 -0.290911 -2.93663 0
M  V30 382 H 39.4594 -1.71866 -1.89461 0
M  V30 383 H 39.1034 -3.20445 -3.94052 0
M  V30 384 H 39.0334 -1.74989 -4.96675 0
M  V30 385 H 41.5244 -1.62923 -3.40976 0
M  V30 386 H 41.8374 -3.88501 -6.68047 0
M  V30 387 H 40.1824 -3.48788 -6.01142 0
M  V30 388 H 43.3734 -2.0938 -4.18662 0
M  V30 389 H 43.5464 -3.12225 -5.6782 0
M  V30 390 N 36.9525 1.47285 -0.560781 0
M  V30 391 C 37.8825 2.32857 0.173105 0
M  V30 392 C 38.8635 1.44009 0.905281 0
M  V30 393 O 40.0485 1.7286 0.885046 0
M  V30 394 C 37.1785 3.25861 1.20133 0
M  V30 395 C 36.1325 4.23978 0.585388 0
M  V30 396 C 35.4585 5.06332 1.7185 0
M  V30 397 C 36.7585 5.20242 -0.463178 0
M  V30 398 H 38.4525 2.94466 -0.541307 0
M  V30 399 H 35.9985 1.41601 -0.261764 0
M  V30 400 H 37.9515 3.84569 1.72293 0
M  V30 401 H 36.6755 2.62315 1.94573 0
M  V30 402 H 35.3345 3.66501 0.085054 0
M  V30 403 H 34.9825 4.39186 2.45203 0
M  V30 404 H 34.6825 5.72762 1.31213 0
M  V30 405 H 36.2065 5.67899 2.24329 0
M  V30 406 H 37.6205 5.73293 -0.027502 0
M  V30 407 H 36.0175 5.94896 -0.788627 0
M  V30 408 H 37.0875 4.65504 -1.35773 0
M  V30 409 N 38.4306 0.297415 1.54768 0
M  V30 410 C 39.6776 -0.312913 2.00068 0
M  V30 411 C 40.0056 -1.54171 1.18582 0
M  V30 412 O 39.2606 -1.94108 0.249133 0
M  V30 413 C 39.5596 -0.717561 3.50123 0
M  V30 414 C 39.2256 0.409095 4.4904 0
M  V30 415 C 37.8876 0.718399 4.75807 0
M  V30 416 C 40.2396 1.16717 5.07963 0
M  V30 417 C 37.5676 1.78896 5.5876 0
M  V30 418 C 39.9196 2.22762 5.92081 0
M  V30 419 C 38.5836 2.54303 6.1716 0
M  V30 420 H 37.8536 -0.114503 0.7321 0
M  V30 421 H 40.5006 0.415767 1.86932 0
M  V30 422 H 38.8056 -1.52627 3.60849 0
M  V30 423 H 40.5026 -1.20091 3.82595 0
M  V30 424 H 37.0926 0.157918 4.28309 0
M  V30 425 H 41.2766 0.941466 4.87289 0
M  V30 426 H 36.5326 2.0381 5.7643 0
M  V30 427 H 40.7066 2.81962 6.36765 0
M  V30 428 H 38.3336 3.3739 6.81229 0
M  V30 429 N 39.9087 -1.5758 0.0250728 0
M  V30 430 C 40.8187 -2.1343 -0.973905 0
M  V30 431 C 41.8347 -1.08556 -1.35984 0
M  V30 432 O 43.0107 -1.40592 -1.44207 0
M  V30 433 C 40.0757 -2.64703 -2.23904 0
M  V30 434 C 39.1367 -3.84276 -1.91391 0
M  V30 435 C 38.3697 -4.33095 -3.11873 0
M  V30 436 O 38.5927 -3.81107 -4.24398 0
M  V30 437 O 37.5267 -5.24984 -2.94406 0
M  V30 438 H 41.3527 -2.99057 -0.529036 0
M  V30 439 H 38.9377 -1.48118 -0.195288 0
M  V30 440 H 40.8197 -2.97769 -2.98181 0
M  V30 441 H 39.4947 -1.82161 -2.6758 0
M  V30 442 H 38.4017 -3.56143 -1.14511 0
M  V30 443 H 39.7347 -4.67968 -1.52534 0
M  V30 444 N 41.3868 0.248026 -1.55636 0
M  V30 445 C 42.3338 1.30707 -1.90222 0
M  V30 446 C 43.3038 1.47881 -0.756332 0
M  V30 447 O 44.4888 1.61883 -1.00988 0
M  V30 448 C 41.6288 2.65769 -2.20138 0
M  V30 449 C 40.7418 2.56612 -3.47526 0
M  V30 450 C 39.8768 3.8402 -3.67017 0
M  V30 451 C 38.9158 3.69476 -4.8801 0
M  V30 452 N 38.0528 4.88774 -5.04029 0
M  V30 453 H 42.8928 1.00512 -2.80538 0
M  V30 454 H 40.4298 0.485055 -1.38873 0
M  V30 455 H 42.3878 3.44386 -2.35487 0
M  V30 456 H 41.0178 2.94115 -1.33027 0
M  V30 457 H 40.0698 1.69571 -3.40514 0
M  V30 458 H 41.3818 2.41774 -4.36287 0
M  V30 459 H 40.5358 4.7108 -3.8232 0
M  V30 460 H 39.2748 4.01754 -2.76487 0
M  V30 461 H 38.2798 2.80799 -4.72686 0
M  V30 462 H 39.5048 3.53238 -5.8 0
M  V30 463 H 37.4508 5.0687 -4.16435 0
M  V30 464 H 37.3678 4.76562 -5.86877 0
M  V30 465 H 38.6358 5.77335 -5.23741 0
M  V30 466 N 42.8649 1.48995 0.513639 0
M  V30 467 C 44.1109 1.58076 1.27042 0
M  V30 468 C 44.4439 0.261026 1.92438 0
M  V30 469 O 43.7189 -0.734393 1.80103 0
M  V30 470 C 44.0019 2.73091 2.34719 0
M  V30 471 C 43.8549 4.14821 1.73907 0
M  V30 472 C 45.1739 2.83796 3.36375 0
M  V30 473 H 42.2929 0.575391 0.460536 0
M  V30 474 H 44.9349 1.81232 0.570516 0
M  V30 475 H 43.0849 2.53479 2.94416 0
M  V30 476 H 44.7569 4.45917 1.18135 0
M  V30 477 H 42.9999 4.21058 1.0437 0
M  V30 478 H 43.6709 4.91147 2.51949 0
M  V30 479 H 46.1469 3.01611 2.86653 0
M  V30 480 H 45.0229 3.65971 4.09093 0
M  V30 481 H 45.2839 1.92624 3.9793 0
M  V30 482 N 44.343 -0.763751 1.37857 0
M  V30 483 C 45.571 -1.55293 1.36718 0
M  V30 484 C 45.986 -1.88745 -0.0455434 0
M  V30 485 O 45.343 -1.52039 -1.00947 0
M  V30 486 C 45.394 -2.85831 2.2132 0
M  V30 487 O 45.115 -2.5381 3.57089 0
M  V30 488 C 46.616 -3.80023 2.28249 0
M  V30 489 H 43.836 -0.480841 0.468009 0
M  V30 490 H 46.38 -0.946009 1.81303 0
M  V30 491 H 44.535 -3.42926 1.80223 0
M  V30 492 H 44.949 -3.37459 4.01524 0
M  V30 493 H 46.423 -4.68599 2.91752 0
M  V30 494 H 46.9 -4.1973 1.2932 0
M  V30 495 H 47.506 -3.28855 2.69693 0
M  V30 496 N 45.8211 -1.22559 -0.990812 0
M  V30 497 C 47.0671 -1.05297 -1.73322 0
M  V30 498 C 47.4001 0.410655 -1.89808 0
M  V30 499 O 46.6751 1.30439 -1.44277 0
M  V30 500 C 46.9581 -1.76713 -3.13759 0
M  V30 501 C 46.8111 -3.30684 -3.04907 0
M  V30 502 C 48.1301 -1.52121 -4.12974 0
M  V30 503 H 45.2491 -0.38392 -0.629106 0
M  V30 504 H 47.8911 -1.50926 -1.15418 0
M  V30 505 H 46.0411 -1.37924 -3.63193 0
M  V30 506 H 47.7131 -3.7893 -2.63077 0
M  V30 507 H 45.9561 -3.60253 -2.41661 0
M  V30 508 H 46.6271 -3.75833 -4.04294 0
M  V30 509 H 49.1031 -1.85819 -3.72304 0
M  V30 510 H 47.9791 -2.04582 -5.0935 0
M  V30 511 H 48.2401 -0.454257 -4.3976 0
M  V30 512 N 47.2992 1.18797 -1.03562 0
M  V30 513 C 48.2622 2.20464 -0.626769 0
M  V30 514 C 49.2622 1.57721 0.313173 0
M  V30 515 O 50.4522 1.73917 0.0992615 0
M  V30 516 C 47.5842 3.40802 0.0818498 0
M  V30 517 H 48.7772 2.58149 -1.5264 0
M  V30 518 H 46.3302 1.32593 -0.827578 0
M  V30 519 H 47.0652 3.08642 0.995518 0
M  V30 520 H 46.8502 3.8758 -0.593652 0
M  V30 521 H 48.3402 4.16092 0.354584 0
M  V30 522 N 48.7773 0.814389 1.34928 0
M  V30 523 C 50.0233 0.399013 1.98836 0
M  V30 524 C 50.3563 -1.03314 1.64438 0
M  V30 525 O 49.6313 -1.71811 0.911659 0
M  V30 526 C 49.9143 0.591629 3.55207 0
M  V30 527 C 49.7673 2.06928 3.99376 0
M  V30 528 C 51.0863 0.022199 4.40094 0
M  V30 529 H 48.2053 0.146451 0.722303 0
M  V30 530 H 50.8473 1.02537 1.59957 0
M  V30 531 H 48.9973 0.0584441 3.88456 0
M  V30 532 H 50.6693 2.66544 3.76499 0
M  V30 533 H 48.9123 2.56287 3.49999 0
M  V30 534 H 49.5833 2.1549 5.08201 0
M  V30 535 H 52.0593 0.477643 4.13349 0
M  V30 536 H 50.9353 0.186832 5.48582 0
M  V30 537 H 51.1963 -1.07215 4.28902 0
M  V30 538 N 50.2554 -1.46986 0.568584 0
M  V30 539 C 51.1854 -2.32946 -0.160753 0
M  V30 540 C 52.1664 -1.44487 -0.897631 0
M  V30 541 O 53.3514 -1.73327 -0.875867 0
M  V30 542 C 50.4814 -3.26494 -1.18403 0
M  V30 543 C 49.4354 -4.24282 -0.562895 0
M  V30 544 C 48.7614 -5.07236 -1.69163 0
M  V30 545 C 50.0614 -5.19989 0.490761 0
M  V30 546 H 51.7554 -2.94175 0.556916 0
M  V30 547 H 49.3014 -1.4146 0.26927 0
M  V30 548 H 51.2544 -3.85477 -1.70251 0
M  V30 549 H 49.9784 -2.63343 -1.93179 0
M  V30 550 H 48.6374 -3.66541 -0.0656164 0
M  V30 551 H 48.2854 -4.4048 -2.42871 0
M  V30 552 H 47.9854 -5.7345 -1.28174 0
M  V30 553 H 49.5094 -5.6908 -2.21314 0
M  V30 554 H 50.9234 -5.73271 0.0579047 0
M  V30 555 H 49.3204 -5.94469 0.820165 0
M  V30 556 H 50.3904 -4.64777 1.3824 0
M  V30 557 N 51.7335 -0.305618 -1.54608 0
M  V30 558 C 52.6435 0.57778 -2.27374 0
M  V30 559 C 53.6595 1.14451 -1.31061 0
M  V30 560 O 54.8355 1.16831 -1.6405 0
M  V30 561 C 51.9005 1.73123 -3.00382 0
M  V30 562 C 50.9615 1.19812 -4.12242 0
M  V30 563 C 50.1945 2.2966 -4.81759 0
M  V30 564 O 50.4175 3.49651 -4.50666 0
M  V30 565 O 49.3515 1.96091 -5.69062 0
M  V30 566 H 53.1775 -0.012624 -3.03697 0
M  V30 567 H 50.7625 -0.0719184 -1.49227 0
M  V30 568 H 52.6445 2.40315 -3.4616 0
M  V30 569 H 51.3195 2.30815 -2.26949 0
M  V30 570 H 50.2265 0.491798 -3.70853 0
M  V30 571 H 51.5595 0.666566 -4.87666 0
M  V30 572 N 53.2116 1.57565 -0.0334293 0
M  V30 573 C 54.1596 2.1164 0.96496 0
M  V30 574 C 55.1536 1.04398 1.33407 0
M  V30 575 O 56.3596 1.22828 1.3158 0
M  V30 576 H 52.7346 0.676222 0.32898 0
M  V30 577 H 54.7056 2.94455 0.483614 0
M  V30 578 C 53.4546 2.66207 2.23672 0
M  V30 579 H 52.7776 3.48378 1.96145 0
M  V30 580 H 54.2176 3.07685 2.9173 0
M  V30 581 C 52.6766 1.59151 2.96939 0
M  V30 582 O 53.2066 0.993858 3.89211 0
M  V30 583 N 51.4126 1.31093 2.59351 0
M  V30 584 H 50.9596 1.7988 1.84393 0
M  V30 585 H 50.9176 0.596889 3.08682 0
M  V30 586 N 54.6897 -0.239769 1.55765 0
M  V30 587 C 56.1007 -0.808263 1.68297 0
M  V30 588 C 56.4517 -1.85736 0.632181 0
M  V30 589 O 55.5767 -2.15277 -0.220204 0
M  V30 590 C 56.1717 -1.47284 3.05111 0
M  V30 591 C 54.7307 -1.98895 3.19559 0
M  V30 592 C 53.8777 -0.842575 2.64189 0
M  V30 593 H 56.8287 -0.0154422 1.58692 0
M  V30 594 H 56.8497 -2.34111 2.99954 0
M  V30 595 H 56.3617 -0.709053 3.81568 0
M  V30 596 H 54.4627 -2.78132 2.47938 0
M  V30 597 H 54.5757 -2.18143 4.26556 0
M  V30 598 H 52.9397 -1.24501 2.22197 0
M  V30 599 H 53.7227 -0.0917552 3.43177 0
M  V30 600 N 56.1678 -1.49265 -0.50573 0
M  V30 601 C 57.3928 -1.62478 -1.28902 0
M  V30 602 C 57.8178 -0.294332 -1.85783 0
M  V30 603 O 57.1758 0.737412 -1.65626 0
M  V30 604 C 57.2238 -2.69268 -2.39848 0
M  V30 605 O 56.3278 -2.28113 -3.43567 0
M  V30 606 H 55.6688 -0.54399 -0.380751 0
M  V30 607 H 58.1988 -1.95421 -0.605952 0
M  V30 608 H 58.2088 -2.91291 -2.85681 0
M  V30 609 H 56.8838 -3.65846 -1.97812 0
M  V30 610 H 55.4608 -2.16401 -3.03685 0
M  V30 611 N 57.6459 0.756429 -1.3826 0
M  V30 612 C 58.5929 1.87011 -1.35261 0
M  V30 613 C 59.5629 1.64695 -0.215616 0
M  V30 614 O 60.7479 1.864 -0.407399 0
M  V30 615 C 57.8879 3.24275 -1.18068 0
M  V30 616 C 57.0009 3.58442 -2.41129 0
M  V30 617 C 56.1359 4.84994 -2.16689 0
M  V30 618 C 55.1749 5.11939 -3.35537 0
M  V30 619 N 54.3119 6.29685 -3.10549 0
M  V30 620 H 59.1519 1.8891 -2.30472 0
M  V30 621 H 56.6889 0.923373 -1.14509 0
M  V30 622 H 58.6469 4.03479 -1.06116 0
M  V30 623 H 57.2769 3.21711 -0.264973 0
M  V30 624 H 56.3289 2.74103 -2.63764 0
M  V30 625 H 57.6409 3.74283 -3.29717 0
M  V30 626 H 56.7949 5.72135 -2.01857 0
M  V30 627 H 55.5339 4.71286 -1.25462 0
M  V30 628 H 54.5389 4.23268 -3.50891 0
M  V30 629 H 55.7639 5.27546 -4.27635 0
M  V30 630 H 53.7099 6.17306 -2.21967 0
M  V30 631 H 53.6269 6.46014 -3.92686 0
M  V30 632 H 54.8949 7.19722 -2.99367 0
M  V30 633 N 59.124 1.23083 0.984299 0
M  V30 634 C 60.54 0.992637 1.24975 0
M  V30 635 C 60.74 -0.308618 1.99123 0
M  V30 636 O 59.796 -1.02905 2.30579 0
M  V30 637 C 61.109 2.19698 2.05312 0
M  V30 638 C 62.657 2.24147 2.18465 0
M  V30 639 C 63.132 3.44157 3.02192 0
M  V30 640 N 64.623 3.44372 3.09777 0
M  V30 641 C 65.358 4.33886 3.74874 0
M  V30 642 N 64.854 5.3363 4.41827 0
M  V30 643 N 66.647 4.21639 3.71721 0
M  V30 644 H 58.798 2.06731 0.487453 0
M  V30 645 H 61.061 0.906339 0.277944 0
M  V30 646 H 60.767 3.1411 1.58201 0
M  V30 647 H 60.641 2.20465 3.06064 0
M  V30 648 H 63.028 1.30277 2.64786 0
M  V30 649 H 63.109 2.27415 1.17115 0
M  V30 650 H 62.753 4.38332 2.56568 0
M  V30 651 H 62.683 3.3813 4.03702 0
M  V30 652 H 65.174 2.72201 2.62135 0
M  V30 653 H 65.487 5.98196 4.89266 0
M  V30 654 H 63.832 5.37534 4.40548 0
M  V30 655 H 67.023 3.42962 3.18582 0
M  V30 656 H 67.196 4.91604 4.22173 0
M  V30 657 N 60.6021 -1.18246 1.0419 0
M  V30 658 C 61.8501 -1.87886 0.744543 0
M  V30 659 C 62.1711 -1.8082 -0.730006 0
M  V30 660 O 61.4411 -1.22736 -1.52685 0
M  V30 661 H 60.0211 -0.695556 0.272417 0
M  V30 662 H 62.6831 -1.43494 1.31892 0
M  V30 663 H 61.7791 -2.9389 1.05049 0
M  V30 664 N 62.0802 -0.821533 -1.34494 0
M  V30 665 C 63.0122 -0.199946 -2.28326 0
M  V30 666 C 64.0252 0.609377 -1.50965 0
M  V30 667 O 65.2142 0.439285 -1.7301 0
M  V30 668 C 62.3142 0.738431 -3.30757 0
M  V30 669 C 61.4872 -0.0277632 -4.37391 0
M  V30 670 C 60.5462 0.831332 -5.19591 0
M  V30 671 O 59.5722 0.276822 -5.68526 0
M  V30 672 N 60.7742 2.15132 -5.39165 0
M  V30 673 H 63.5392 -1.00609 -2.82308 0
M  V30 674 H 61.1002 -0.678366 -1.47003 0
M  V30 675 H 63.0922 1.31773 -3.82646 0
M  V30 676 H 61.6622 1.44533 -2.7718 0
M  V30 677 H 60.8822 -0.788359 -3.86236 0
M  V30 678 H 62.1702 -0.555251 -5.05761 0
M  V30 679 H 61.5682 2.62559 -5.01078 0
M  V30 680 H 60.1252 2.6795 -5.94177 0
M  V30 681 N 63.5583 1.46682 -0.576371 0
M  V30 682 C 64.7883 2.06498 -0.0648694 0
M  V30 683 C 65.1963 1.42665 1.24271 0
M  V30 684 O 64.5393 0.523886 1.76071 0
M  V30 685 C 64.6013 3.5904 0.181816 0
M  V30 686 C 64.2653 4.45028 -1.0392 0
M  V30 687 C 65.2623 4.81959 -1.94966 0
M  V30 688 C 62.9473 4.86259 -1.25927 0
M  V30 689 C 64.9413 5.58942 -3.06371 0
M  V30 690 C 62.6283 5.63002 -2.37638 0
M  V30 691 C 63.6263 5.99257 -3.2769 0
M  V30 692 O 63.3143 6.7445 -4.37461 0
M  V30 693 H 63.0463 0.674028 -0.0515987 0
M  V30 694 H 65.6003 1.89393 -0.794951 0
M  V30 695 H 63.8303 3.74429 0.966436 0
M  V30 696 H 65.5193 4.00806 0.641047 0
M  V30 697 H 66.2853 4.50689 -1.79177 0
M  V30 698 H 62.1643 4.57494 -0.567448 0
M  V30 699 H 65.7083 5.87158 -3.76684 0
M  V30 700 H 61.6053 5.93686 -2.53392 0
M  V30 701 H 62.3733 6.92867 -4.35749 0
M  V30 702 N 65.0364 0.313813 1.54444 0
M  V30 703 C 65.9664 -0.549454 2.26943 0
M  V30 704 C 66.9474 -1.12741 1.27372 0
M  V30 705 O 68.1324 -1.15436 1.56167 0
M  V30 706 C 65.2624 -1.71523 3.01989 0
M  V30 707 C 64.2164 -1.26703 4.08816 0
M  V30 708 C 63.5424 -2.51898 4.71647 0
M  V30 709 C 64.8424 -0.388962 5.2085 0
M  V30 710 H 66.5364 0.0552661 2.99349 0
M  V30 711 H 64.0824 0.0280207 1.43973 0
M  V30 712 H 66.0354 -2.32535 3.51433 0
M  V30 713 H 64.7594 -2.34639 2.27183 0
M  V30 714 H 63.4184 -0.679896 3.6024 0
M  V30 715 H 63.0664 -3.13356 3.93468 0
M  V30 716 H 62.7664 -2.22605 5.43802 0
M  V30 717 H 64.2904 -3.1369 5.23861 0
M  V30 718 H 65.7044 -0.905107 5.6611 0
M  V30 719 H 64.1014 -0.18924 5.99802 0
M  V30 720 H 65.1714 0.582699 4.81386 0
M  V30 721 N 66.5145 -1.57545 0.0417849 0
M  V30 722 C 67.7615 -1.92317 -0.634082 0
M  V30 723 C 68.0895 -0.919334 -1.71402 0
M  V30 724 O 67.3445 0.0698253 -1.95575 0
M  V30 725 C 67.6435 -3.33794 -1.27735 0
M  V30 726 C 67.3095 -4.49716 -0.326543 0
M  V30 727 C 65.9715 -4.81156 -0.0648814 0
M  V30 728 C 68.3235 -5.20182 0.325623 0
M  V30 729 C 65.6515 -5.80414 0.856539 0
M  V30 730 C 68.0035 -6.20424 1.23518 0
M  V30 731 C 66.6675 -6.50298 1.5056 0
M  V30 732 H 65.9375 -0.703736 -0.232027 0
M  V30 733 H 68.5845 -1.91205 0.106259 0
M  V30 734 H 66.8895 -3.31228 -2.09274 0
M  V30 735 H 68.5865 -3.57975 -1.80707 0
M  V30 736 H 65.1765 -4.25176 -0.540665 0
M  V30 737 H 69.3605 -4.96112 0.136546 0
M  V30 738 H 64.6165 -6.019 1.07363 0
M  V30 739 H 68.7905 -6.74141 1.74664 0
M  V30 740 H 66.4175 -7.27025 2.22123 0
M  V30 741 N 67.9926 0.231505 -1.5589 0
M  V30 742 C 69.2176 0.978689 -1.82856 0
M  V30 743 C 69.6426 1.77559 -0.620846 0
M  V30 744 O 69.0006 1.76119 0.430305 0
M  V30 745 C 69.0486 1.87997 -3.07716 0
M  V30 746 O 68.1526 2.97393 -2.85712 0
M  V30 747 H 67.4936 0.277663 -0.603158 0
M  V30 748 H 70.0236 0.24783 -2.03093 0
M  V30 749 H 70.0336 2.2917 -3.37558 0
M  V30 750 H 68.7086 1.29417 -3.95252 0
M  V30 751 H 67.2856 2.60238 -2.67078 0
M  V30 752 N 69.4707 1.49531 0.497807 0
M  V30 753 C 70.4337 1.65916 1.58128 0
M  V30 754 C 71.4337 0.530825 1.51786 0
M  V30 755 O 72.6237 0.797342 1.54881 0
M  V30 756 C 69.7557 1.65951 2.9778 0
M  V30 757 H 70.9487 2.62556 1.44929 0
M  V30 758 H 68.5017 1.38611 0.722275 0
M  V30 759 H 69.2367 0.709065 3.16453 0
M  V30 760 H 69.0217 2.47897 3.03792 0
M  V30 761 H 70.5117 1.80673 3.76493 0
M  V30 762 N 70.9488 -0.749086 1.3866 0
M  V30 763 C 71.8588 -1.89358 1.38494 0
M  V30 764 C 72.8748 -1.71708 0.281476 0
M  V30 765 O 74.0508 -1.94554 0.520643 0
M  V30 766 C 71.1158 -3.24782 1.21316 0
M  V30 767 C 70.1768 -3.54926 2.41508 0
M  V30 768 C 69.4098 -4.83888 2.2514 0
M  V30 769 O 69.6328 -5.56592 1.24746 0
M  V30 770 O 68.5668 -5.13612 3.13826 0
M  V30 771 H 72.3928 -1.92452 2.34938 0
M  V30 772 H 69.9778 -0.894981 1.19626 0
M  V30 773 H 71.8598 -4.05739 1.13814 0
M  V30 774 H 70.5348 -3.2249 0.279592 0
M  V30 775 H 69.4418 -2.74112 2.54585 0
M  V30 776 H 70.7748 -3.61983 3.3351 0
M  V30 777 N 72.4269 -1.23603 -0.977757 0
M  V30 778 C 73.3369 -1.03632 -2.1047 0
M  V30 779 C 74.3529 0.0199435 -1.73989 0
M  V30 780 O 75.5289 -0.176076 -2.00629 0
M  V30 781 C 72.5939 -0.63276 -3.40877 0
M  V30 782 C 71.6549 -1.76437 -3.91367 0
M  V30 783 C 70.8879 -1.37997 -5.15551 0
M  V30 784 O 71.1109 -0.265357 -5.69782 0
M  V30 785 O 70.0449 -2.20201 -5.60174 0
M  V30 786 H 73.8709 -1.98086 -2.30208 0
M  V30 787 H 71.4559 -1.02332 -1.08851 0
M  V30 788 H 73.3379 -0.418761 -4.19314 0
M  V30 789 H 72.0129 0.282754 -3.22463 0
M  V30 790 H 70.9199 -2.03304 -3.14036 0
M  V30 791 H 72.2529 -2.6583 -4.14241 0
M  V30 792 N 73.905 1.17692 -1.04816 0
M  V30 793 C 75.321 1.39863 -0.768794 0
M  V30 794 C 75.521 1.91118 0.638451 0
M  V30 795 O 74.577 2.10036 1.40146 0
M  V30 796 C 75.89 2.39274 -1.82122 0
M  V30 797 C 77.438 2.52987 -1.843 0
M  V30 798 C 77.913 3.55669 -2.88555 0
M  V30 799 N 79.404 3.63183 -2.87493 0
M  V30 800 C 80.139 4.42381 -3.64811 0
M  V30 801 N 79.635 5.25125 -4.51903 0
M  V30 802 N 81.428 4.37217 -3.53267 0
M  V30 803 H 73.579 0.82752 -1.95617 0
M  V30 804 H 75.842 0.426123 -0.846831 0
M  V30 805 H 75.548 2.08678 -2.83102 0
M  V30 806 H 75.422 3.38725 -1.65967 0
M  V30 807 H 77.809 2.82896 -0.839869 0
M  V30 808 H 77.89 1.53623 -2.04532 0
M  V30 809 H 77.534 3.26499 -3.89051 0
M  V30 810 H 77.464 4.54728 -2.65575 0
M  V30 811 H 79.955 3.04103 -2.24343 0
M  V30 812 H 80.268 5.82728 -5.07591 0
M  V30 813 H 78.613 5.24519 -4.55966 0
M  V30 814 H 81.804 3.71626 -2.84625 0
M  V30 815 H 81.977 4.98696 -4.13771 0
M  V30 816 N 75.3831 0.828654 1.34056 0
M  V30 817 C 76.3131 0.269443 2.3194 0
M  V30 818 C 77.2941 -0.617247 1.58506 0
M  V30 819 O 78.4791 -0.542931 1.86456 0
M  V30 820 C 75.6091 -0.564793 3.42677 0
M  V30 821 C 74.5631 0.225241 4.27407 0
M  V30 822 C 73.8891 -0.7321 5.29664 0
M  V30 823 C 75.1891 1.43663 5.02154 0
M  V30 824 H 76.8831 1.08728 2.7896 0
M  V30 825 H 74.4291 0.524283 1.34117 0
M  V30 826 H 76.3821 -0.966233 4.10173 0
M  V30 827 H 75.1061 -1.41574 2.9432 0
M  V30 828 H 73.7651 0.608117 3.61521 0
M  V30 829 H 73.4131 -1.57916 4.77568 0
M  V30 830 H 73.1131 -0.20767 5.87233 0
M  V30 831 H 74.6371 -1.13128 6.00029 0
M  V30 832 H 76.0511 1.1089 5.62473 0
M  V30 833 H 74.4481 1.89711 5.69324 0
M  V30 834 H 75.5181 2.21181 4.31517 0
M  V30 835 N 76.8612 -1.46375 0.584142 0
M  V30 836 C 77.8242 -2.28784 -0.138108 0
M  V30 837 C 78.8242 -1.38471 -0.817462 0
M  V30 838 O 80.0142 -1.60833 -0.669199 0
M  V30 839 C 77.1462 -3.18892 -1.20503 0
M  V30 840 H 78.3392 -2.94117 0.586127 0
M  V30 841 H 75.8922 -1.52509 0.342171 0
M  V30 842 H 76.6272 -2.58309 -1.96079 0
M  V30 843 H 76.4122 -3.85388 -0.722384 0
M  V30 844 H 77.9022 -3.80914 -1.71155 0
M  V30 845 N 78.3393 -0.321999 -1.54275 0
M  V30 846 C 79.5883 0.281931 -1.9972 0
M  V30 847 C 79.9013 1.53369 -1.21397 0
M  V30 848 O 81.1073 2.21352 -1.57211 0
M  V30 849 C 79.5633 0.5529 -3.55628 0
M  V30 850 C 79.1713 -0.681721 -4.42783 0
M  V30 851 C 80.9153 1.11687 -4.09544 0
M  V30 852 C 78.8223 -0.382742 -5.9016 0
M  V30 853 H 77.7523 0.109124 -0.746062 0
M  V30 854 H 80.4033 -0.43398 -1.78294 0
M  V30 855 H 78.7853 1.32896 -3.73035 0
M  V30 856 H 79.9593 -1.45723 -4.37151 0
M  V30 857 H 78.2743 -1.1658 -3.99748 0
M  V30 858 H 80.8713 1.35515 -5.17242 0
M  V30 859 H 81.2143 2.06575 -3.61431 0
M  V30 860 H 81.7473 0.402032 -3.95763 0
M  V30 861 H 78.4863 -1.30076 -6.42464 0
M  V30 862 H 78.0063 0.355094 -5.98748 0
M  V30 863 H 79.6853 0.00800157 -6.47 0
M  V30 864 N 79.8174 1.5752 -0.0501392 0
M  V30 865 C 81.0664 1.91827 0.623328 0
M  V30 866 C 81.3794 0.930222 1.72065 0
M  V30 867 O 82.5854 1.1653 2.4522 0
M  V30 868 C 81.0414 3.40692 1.16003 0
M  V30 869 C 80.6494 4.479 0.0948811 0
M  V30 870 C 82.3934 3.84034 1.80881 0
M  V30 871 C 80.3004 5.87879 0.644411 0
M  V30 872 H 79.2304 0.715918 0.236596 0
M  V30 873 H 81.8814 1.83115 -0.118861 0
M  V30 874 H 80.2634 3.44405 1.9545 0
M  V30 875 H 81.4374 4.55775 -0.678675 0
M  V30 876 H 79.7524 4.13892 -0.45637 0
M  V30 877 H 82.3494 4.85984 2.22988 0
M  V30 878 H 82.6924 3.20225 2.6601 0
M  V30 879 H 83.2254 3.82833 1.0809 0
M  V30 880 H 79.9644 6.55282 -0.169229 0
M  V30 881 H 79.4844 5.83567 1.38598 0
M  V30 882 H 81.1634 6.37098 1.12763 0
M  V30 883 N 81.2955 -0.223234 1.56011 0
M  V30 884 C 82.7115 -0.572856 1.48965 0
M  V30 885 C 82.9115 -1.87225 0.74492 0
M  V30 886 O 81.9675 -2.50899 0.283896 0
M  V30 887 C 83.2805 -0.653646 2.9351 0
M  V30 888 C 84.8285 -0.744386 3.0402 0
M  V30 889 C 85.3035 -0.856535 4.49919 0
M  V30 890 N 86.7945 -0.9208 4.53955 0
M  V30 891 C 87.5295 -1.02726 5.64123 0
M  V30 892 N 87.0255 -1.09777 6.84047 0
M  V30 893 N 88.8185 -1.06226 5.51971 0
M  V30 894 H 80.9695 0.629462 2.02858 0
M  V30 895 H 83.2325 0.220621 0.921971 0
M  V30 896 H 82.9385 0.231518 3.50937 0
M  V30 897 H 82.8125 -1.51781 3.45315 0
M  V30 898 H 85.1995 -1.61999 2.46658 0
M  V30 899 H 85.2805 0.14541 2.55386 0
M  V30 900 H 84.9245 0.0146069 5.07898 0
M  V30 901 H 84.8545 -1.76172 4.96257 0
M  V30 902 H 87.3455 -0.876694 3.6759 0
M  V30 903 H 87.6585 -1.17872 7.63758 0
M  V30 904 H 86.0035 -1.06693 6.86762 0
M  V30 905 H 89.1945 -1.00382 4.5721 0
M  V30 906 H 89.3675 -1.14177 6.37862 0
M  V30 907 N 82.7736 -1.49793 -0.48987 0
M  V30 908 C 83.6836 -1.70036 -1.61632 0
M  V30 909 C 84.6996 -0.583102 -1.63939 0
M  V30 910 O 85.8756 -0.859169 -1.82154 0
M  V30 911 C 82.9406 -1.77277 -2.97949 0
M  V30 912 C 82.0016 -3.00918 -3.06181 0
M  V30 913 C 81.2346 -3.07804 -4.35996 0
M  V30 914 O 81.4576 -2.21982 -5.25433 0
M  V30 915 O 80.3916 -4.00369 -4.49431 0
M  V30 916 H 84.2176 -2.65486 -1.47482 0
M  V30 917 H 81.8026 -1.33666 -0.667362 0
M  V30 918 H 83.6846 -1.84329 -3.78947 0
M  V30 919 H 82.3596 -0.850076 -3.12339 0
M  V30 920 H 81.2666 -2.99377 -2.2433 0
M  V30 921 H 82.5996 -3.92704 -2.96723 0
M  V30 922 N 84.2517 0.741722 -1.39055 0
M  V30 923 C 85.2147 1.83733 -1.37021 0
M  V30 924 C 86.2147 1.58542 -0.268534 0
M  V30 925 O 87.4047 1.66067 -0.526076 0
M  V30 926 C 84.5367 3.2141 -1.13617 0
M  V30 927 H 85.7297 1.86941 -2.34506 0
M  V30 928 H 83.2827 0.944676 -1.24521 0
M  V30 929 H 84.0177 3.23865 -0.167863 0
M  V30 930 H 83.8027 3.4109 -1.93391 0
M  V30 931 H 85.2927 4.01477 -1.14918 0
M  V30 932 N 85.7298 1.2412 0.971189 0
M  V30 933 C 86.9578 1.10575 1.74874 0
M  V30 934 C 87.3728 -0.342017 1.85676 0
M  V30 935 O 86.7298 -1.23617 1.34258 0
M  V30 936 C 86.7808 1.73579 3.171 0
M  V30 937 O 86.5018 3.12695 3.06844 0
M  V30 938 C 88.0028 1.65598 4.11208 0
M  V30 939 H 85.2228 0.386504 0.548503 0
M  V30 940 H 87.7668 1.64156 1.21955 0
M  V30 941 H 85.9218 1.24009 3.67016 0
M  V30 942 H 86.3358 3.43412 3.96445 0
M  V30 943 H 87.8098 2.1437 5.08674 0
M  V30 944 H 88.2868 0.616532 4.34851 0
M  V30 945 H 88.8928 2.14578 3.67201 0
M  V30 946 N 87.2079 -1.17134 1.05439 0
M  V30 947 C 88.1709 -2.19439 0.661764 0
M  V30 948 C 89.1709 -1.58199 -0.288042 0
M  V30 949 O 90.3609 -1.74053 -0.0715803 0
M  V30 950 C 87.4929 -3.40889 -0.0276209 0
M  V30 951 H 88.6859 -2.55688 1.56728 0
M  V30 952 H 86.2389 -1.31259 0.848567 0
M  V30 953 H 86.9739 -3.10187 -0.94629 0
M  V30 954 H 86.7589 -3.86586 0.655238 0
M  V30 955 H 88.2489 -4.16603 -0.288342 0
M  V30 956 N 88.686 -0.835752 -1.33615 0
M  V30 957 C 89.636 -0.238856 -2.26745 0
M  V30 958 C 90.62 0.604343 -1.49119 0
M  V30 959 O 91.812 0.456822 -1.71003 0
M  V30 960 C 88.941 0.587725 -3.38232 0
M  V30 961 C 88.027 -0.266811 -4.2326 0
M  V30 962 N 88.418 -1.34403 -4.87616 0
M  V30 963 C 86.716 -0.0533131 -4.45968 0
M  V30 964 C 87.417 -1.86819 -5.50884 0
M  V30 965 N 86.393 -1.17013 -5.30857 0
M  V30 966 H 90.195 -1.06266 -2.74016 0
M  V30 967 H 87.709 -0.679881 -1.47483 0
M  V30 968 H 89.706 1.03161 -4.03935 0
M  V30 969 H 88.366 1.40954 -2.9251 0
M  V30 970 H 89.377 -1.7269 -4.88261 0
M  V30 971 H 86.054 0.735312 -4.10974 0
M  V30 972 H 87.444 -2.7701 -6.1214 0
M  V30 973 N 90.1641 1.46063 -0.591896 0
M  V30 974 C 91.0941 2.33172 0.123673 0
M  V30 975 C 92.0751 1.45897 0.87453 0
M  V30 976 O 93.2601 1.74698 0.848181 0
M  V30 977 C 90.3901 3.28336 1.13194 0
M  V30 978 C 89.3441 4.25124 0.495324 0
M  V30 979 C 88.6701 5.09863 1.61071 0
M  V30 980 C 89.9701 5.19143 -0.573425 0
M  V30 981 H 91.6641 2.93252 -0.603646 0
M  V30 982 H 89.2101 1.41014 -0.291741 0
M  V30 983 H 91.1631 3.88137 1.64097 0
M  V30 984 H 89.8871 2.66383 1.88965 0
M  V30 985 H 88.5461 3.66599 0.00729452 0
M  V30 986 H 88.1941 4.44288 2.35832 0
M  V30 987 H 87.8941 5.75417 1.19035 0
M  V30 988 H 89.4181 5.72529 2.12233 0
M  V30 989 H 90.8321 5.73106 -0.1491 0
M  V30 990 H 89.2291 5.93089 -0.914636 0
M  V30 991 H 90.2991 4.62519 -1.45617 0
M  V30 992 N 91.6422 0.330177 1.54103 0
M  V30 993 C 92.6052 -0.520144 2.2322 0
M  V30 994 C 93.6052 -1.03828 1.22786 0
M  V30 995 O 94.7952 -0.929652 1.4732 0
M  V30 996 C 91.9272 -1.72317 2.94142 0
M  V30 997 H 93.1202 0.0841605 2.99782 0
M  V30 998 H 90.6732 0.0813433 1.56088 0
M  V30 999 H 91.4082 -2.36653 2.21734 0
M  V30 1000 H 91.1932 -1.35898 3.67796 0
M  V30 1001 H 92.6832 -2.3266 3.46784 0
M  V30 1002 N 93.1203 -1.57491 0.0584922 0
M  V30 1003 C 94.0683 -2.13148 -0.931168 0
M  V30 1004 C 95.0623 -1.06507 -1.31729 0
M  V30 1005 O 96.2683 -1.24906 -1.29609 0
M  V30 1006 H 92.6433 -0.68137 -0.31818 0
M  V30 1007 H 94.6143 -2.95187 -0.436707 0
M  V30 1008 C 93.3633 -2.69732 -2.19408 0
M  V30 1009 H 92.6863 -3.51454 -1.90578 0
M  V30 1010 H 94.1263 -3.12287 -2.86798 0
M  V30 1011 C 92.5853 -1.63855 -2.94369 0
M  V30 1012 O 93.1153 -1.05565 -3.87581 0
M  V30 1013 N 91.3213 -1.35202 -2.57233 0
M  V30 1014 H 90.8683 -1.82791 -1.81508 0
M  V30 1015 H 90.8263 -0.645922 -3.07693 0
M  V30 1016 N 94.5984 0.214957 -1.56127 0
M  V30 1017 C 95.8444 0.939762 -1.79712 0
M  V30 1018 C 96.1774 1.83723 -0.629247 0
M  V30 1019 O 95.4524 1.90925 0.371197 0
M  V30 1020 C 95.7354 1.77306 -3.13424 0
M  V30 1021 C 95.5884 0.90164 -4.40671 0
M  V30 1022 C 96.9074 2.74956 -3.43638 0
M  V30 1023 H 94.0264 0.340214 -0.653776 0
M  V30 1024 H 96.6684 0.20824 -1.88855 0
M  V30 1025 H 94.8184 2.39673 -3.0576 0
M  V30 1026 H 96.4904 0.294206 -4.60361 0
M  V30 1027 H 94.7334 0.207368 -4.33304 0
M  V30 1028 H 95.4044 1.51923 -5.30682 0
M  V30 1029 H 97.8804 2.22724 -3.51473 0
M  V30 1030 H 96.7564 3.30358 -4.38355 0
M  V30 1031 H 97.0174 3.53023 -2.66134 0
M  V30 1032 N 96.0765 1.50051 0.48192 0
M  V30 1033 C 96.9865 1.7089 1.60728 0
M  V30 1034 C 98.0025 0.591788 1.63627 0
M  V30 1035 O 99.1785 0.868817 1.81696 0
M  V30 1036 C 96.2435 1.78855 2.97005 0
M  V30 1037 C 95.3045 3.02537 3.04581 0
M  V30 1038 C 94.5375 3.10112 4.34357 0
M  V30 1039 O 94.7605 2.24765 5.24249 0
M  V30 1040 O 93.6945 4.02747 4.47301 0
M  V30 1041 H 97.5205 2.66264 1.46072 0
M  V30 1042 H 95.1055 1.34018 0.660264 0
M  V30 1043 H 96.9875 1.86336 3.77964 0
M  V30 1044 H 95.6625 0.866628 3.11883 0
M  V30 1045 H 94.5695 3.00563 2.22739 0
M  V30 1046 H 95.9025 3.94272 2.94636 0
M  V30 1047 N 97.5546 -0.734337 1.39446 0
M  V30 1048 C 98.5176 -1.83004 1.37994 0
M  V30 1049 C 99.5176 -1.58397 0.276938 0
M  V30 1050 O 100.708 -1.65785 0.534875 0
M  V30 1051 C 97.8396 -3.20802 1.1532 0
M  V30 1052 H 99.0326 -1.85694 2.35494 0
M  V30 1053 H 96.5856 -0.938059 1.25021 0
M  V30 1054 H 97.3206 -3.23772 0.185036 0
M  V30 1055 H 97.1056 -3.4006 1.95197 0
M  V30 1056 H 98.5956 -4.00862 1.17046 0
M  V30 1057 N 99.0327 -1.24633 -0.964593 0
M  V30 1058 C 99.9957 -1.0424 -2.04124 0
M  V30 1059 C 100.996 0.00137563 -1.608 0
M  V30 1060 O 102.186 -0.239883 -1.7254 0
M  V30 1061 C 99.3177 -0.580588 -3.3592 0
M  V30 1062 H 100.511 -1.99803 -2.23649 0
M  V30 1063 H 98.0637 -1.06899 -1.14027 0
M  V30 1064 H 98.7987 0.3781 -3.22088 0
M  V30 1065 H 98.5837 -1.33398 -3.6871 0
M  V30 1066 H 100.074 -0.459034 -4.15069 0
M  V30 1067 N 100.511 1.16574 -1.06058 0
M  V30 1068 C 101.739 1.90952 -0.796552 0
M  V30 1069 C 102.154 1.77302 0.648808 0
M  V30 1070 O 101.511 1.11605 1.44397 0
M  V30 1071 C 101.562 3.41736 -1.17894 0
M  V30 1072 O 101.283 3.54975 -2.56758 0
M  V30 1073 C 102.784 4.33169 -0.942308 0
M  V30 1074 H 100.004 0.605594 -0.288959 0
M  V30 1075 H 102.548 1.47777 -1.41358 0
M  V30 1076 H 100.703 3.82623 -0.606491 0
M  V30 1077 H 101.117 4.4846 -2.72 0
M  V30 1078 H 102.591 5.37439 -1.25952 0
M  V30 1079 H 103.068 4.3903 0.122078 0
M  V30 1080 H 103.674 3.98007 -1.49902 0
M  V30 1081 N 101.989 0.842826 1.3317 0
M  V30 1082 C 103.236 0.440447 1.97652 0
M  V30 1083 C 103.564 -1.00123 1.6675 0
M  V30 1084 O 102.819 -1.7155 0.941761 0
M  V30 1085 C 103.118 0.612607 3.52111 0
M  V30 1086 C 102.784 2.02297 4.02972 0
M  V30 1087 C 101.446 2.40874 4.16573 0
M  V30 1088 C 103.798 2.94402 4.30089 0
M  V30 1089 C 101.126 3.70852 4.54627 0
M  V30 1090 C 103.478 4.23865 4.69597 0
M  V30 1091 C 102.142 4.62392 4.81404 0
M  V30 1092 H 101.412 0.161171 0.72326 0
M  V30 1093 H 104.059 1.07061 1.58777 0
M  V30 1094 H 102.364 -0.100849 3.9167 0
M  V30 1095 H 104.061 0.2815 4.00011 0
M  V30 1096 H 100.651 1.71338 3.92863 0
M  V30 1097 H 104.835 2.65835 4.19101 0
M  V30 1098 H 100.091 4.00501 4.61962 0
M  V30 1099 H 104.265 4.95306 4.89536 0
M  V30 1100 H 101.892 5.63154 5.10648 0
M  V30 1101 N 103.467 -1.45747 0.599634 0
M  V30 1102 C 104.692 -2.07178 0.0960198 0
M  V30 1103 C 105.117 -1.44268 -1.207 0
M  V30 1104 O 104.475 -0.532503 -1.73303 0
M  V30 1105 C 104.523 -3.60579 -0.0385348 0
M  V30 1106 O 103.627 -3.97713 -1.0908 0
M  V30 1107 H 102.968 -0.660251 0.0704593 0
M  V30 1108 H 105.498 -1.87124 0.827385 0
M  V30 1109 H 105.508 -4.07298 -0.239304 0
M  V30 1110 H 104.183 -4.05756 0.912947 0
M  V30 1111 H 102.76 -3.62678 -0.867135 0
M  V30 1112 N 104.945 -0.338344 -1.53925 0
M  V30 1113 C 106.193 0.259245 -2.0043 0
M  V30 1114 C 106.514 1.51484 -1.22791 0
M  V30 1115 O 105.784 1.93037 -0.33368 0
M  V30 1116 H 104.364 0.0987845 -0.740439 0
M  V30 1117 H 107.026 -0.458302 -1.89435 0
M  V30 1118 H 106.122 0.505334 -3.07982 0
M  V30 1119 N 106.423 1.57458 -0.0668435 0
M  V30 1120 C 107.353 2.15468 0.899764 0
M  V30 1121 C 108.334 1.08042 1.31381 0
M  V30 1122 O 109.519 1.36054 1.38574 0
M  V30 1123 C 106.649 2.71232 2.16911 0
M  V30 1124 C 105.603 3.83781 1.89463 0
M  V30 1125 C 104.929 4.26127 3.22986 0
M  V30 1126 C 106.229 5.08238 1.20381 0
M  V30 1127 H 107.923 2.96488 0.416529 0
M  V30 1128 H 105.469 1.4262 0.198908 0
M  V30 1129 H 107.422 3.10458 2.84945 0
M  V30 1130 H 106.146 1.87426 2.67468 0
M  V30 1131 H 104.805 3.45051 1.23836 0
M  V30 1132 H 104.453 3.39249 3.71374 0
M  V30 1133 H 104.153 5.01993 3.05413 0
M  V30 1134 H 105.677 4.67966 3.92225 0
M  V30 1135 H 107.091 5.44811 1.78475 0
M  V30 1136 H 105.488 5.89349 1.13083 0
M  V30 1137 H 106.558 4.84558 0.182153 0
M  V30 1138 N 107.901 -0.206675 1.56239 0
M  V30 1139 C 108.831 -1.25909 1.96645 0
M  V30 1140 C 109.812 -1.48097 0.836734 0
M  V30 1141 O 110.997 -1.6003 1.10019 0
M  V30 1142 C 108.127 -2.6058 2.29599 0
M  V30 1143 C 107.081 -2.53024 3.452 0
M  V30 1144 C 106.407 -3.91861 3.63798 0
M  V30 1145 C 107.707 -2.06524 4.79734 0
M  V30 1146 H 109.401 -0.923369 2.84806 0
M  V30 1147 H 106.947 -0.442735 1.37025 0
M  V30 1148 H 108.9 -3.34375 2.56459 0
M  V30 1149 H 107.624 -2.95869 1.38307 0
M  V30 1150 H 106.283 -1.81684 3.18412 0
M  V30 1151 H 105.931 -4.24483 2.69857 0
M  V30 1152 H 105.631 -3.87683 4.4156 0
M  V30 1153 H 107.155 -4.67296 3.93022 0
M  V30 1154 H 108.569 -2.70072 5.05702 0
M  V30 1155 H 106.966 -2.13374 5.60885 0
M  V30 1156 H 108.036 -1.01802 4.74093 0
M  V30 1157 N 109.379 -1.50304 -0.473955 0
M  V30 1158 C 110.625 -1.61389 -1.22806 0
M  V30 1159 C 110.958 -0.311955 -1.91678 0
M  V30 1160 O 110.233 0.686384 -1.81986 0
M  V30 1161 C 110.516 -2.79219 -2.27396 0
M  V30 1162 C 110.369 -4.19286 -1.62848 0
M  V30 1163 C 111.688 -2.92614 -3.28732 0
M  V30 1164 H 108.807 -0.587399 -0.445119 0
M  V30 1165 H 111.449 -1.82681 -0.522265 0
M  V30 1166 H 109.599 -2.61195 -2.87592 0
M  V30 1167 H 111.271 -4.48892 -1.06271 0
M  V30 1168 H 109.514 -4.23677 -0.931693 0
M  V30 1169 H 110.185 -4.97655 -2.38838 0
M  V30 1170 H 112.661 -3.09105 -2.78556 0
M  V30 1171 H 111.537 -3.76688 -3.99246 0
M  V30 1172 H 111.798 -2.03107 -3.92683 0
M  V30 1173 N 110.857 0.726932 -1.39834 0
M  V30 1174 C 112.134 1.47902 -1.28001 0
M  V30 1175 C 112.514 2.1083 0.106789 0
M  V30 1176 O 111.862 1.99242 1.11869 0
M  V30 1177 C 112.072 2.52392 -2.41038 0
M  V30 1178 C 113.42 3.18546 -2.80737 0
M  V30 1179 O 114.444 2.62708 -2.40547 0
M  V30 1180 O 113.303 4.19604 -3.50135 0
M  V30 1181 H 110.397 0.657163 -0.502062 0
M  V30 1182 H 112.943 0.760071 -1.51727 0
M  V30 1183 H 111.715 2.04329 -3.33715 0
M  V30 1184 H 111.338 3.31837 -2.19021 0
M  V30 1185 N 112.336 1.25143 0.95797 0
M  V30 1186 C 113.583 1.09692 1.70217 0
M  V30 1187 C 113.911 -0.362654 1.91089 0
M  V30 1188 O 113.166 -1.28386 1.47701 0
M  V30 1189 C 113.465 1.79272 3.09187 0
M  V30 1190 C 113.131 3.29196 3.08125 0
M  V30 1191 C 111.793 3.70096 3.07543 0
M  V30 1192 C 114.145 4.24995 3.0171 0
M  V30 1193 C 111.473 5.05213 2.9829 0
M  V30 1194 C 113.825 5.60132 2.93999 0
M  V30 1195 C 112.489 6.00365 2.9175 0
M  V30 1196 H 111.759 0.401393 0.622868 0
M  V30 1197 H 114.406 1.55372 1.11945 0
M  V30 1198 H 112.711 1.26014 3.70982 0
M  V30 1199 H 114.408 1.64773 3.65583 0
M  V30 1200 H 110.998 2.96651 3.09348 0
M  V30 1201 H 115.182 3.9439 3.01281 0
M  V30 1202 H 110.438 5.35569 2.94916 0
M  V30 1203 H 114.612 6.3406 2.87996 0
M  V30 1204 H 112.239 7.05023 2.84336 0
M  V30 1205 N 113.814 -1.1601 1.06675 0
M  V30 1206 C 115.06 -1.86909 0.786945 0
M  V30 1207 C 115.393 -1.81717 -0.685018 0
M  V30 1208 O 114.668 -1.23551 -1.50218 0
M  V30 1209 C 114.951 -3.36313 1.28707 0
M  V30 1210 C 114.804 -3.50175 2.82308 0
M  V30 1211 C 116.123 -4.3084 0.898071 0
M  V30 1212 H 113.242 -0.678677 0.287343 0
M  V30 1213 H 115.884 -1.36336 1.32334 0
M  V30 1214 H 114.034 -3.79513 0.830768 0
M  V30 1215 H 115.706 -3.15886 3.36175 0
M  V30 1216 H 113.949 -2.91959 3.20847 0
M  V30 1217 H 114.62 -4.55116 3.12368 0
M  V30 1218 H 117.096 -3.95561 1.29114 0
M  V30 1219 H 115.972 -5.33876 1.27543 0
M  V30 1220 H 116.233 -4.41662 -0.196651 0
M  V30 1221 N 115.292 -0.849877 -1.32721 0
M  V30 1222 C 116.708 -0.539102 -1.50219 0
M  V30 1223 C 116.908 0.931271 -1.78689 0
M  V30 1224 O 115.964 1.71455 -1.85363 0
M  V30 1225 C 117.277 -1.42196 -2.64954 0
M  V30 1226 C 118.825 -1.42189 -2.78839 0
M  V30 1227 C 119.3 -2.28985 -3.96648 0
M  V30 1228 N 120.791 -2.26754 -4.03902 0
M  V30 1229 C 121.526 -2.90644 -4.94281 0
M  V30 1230 N 121.022 -3.63629 -5.897 0
M  V30 1231 N 122.815 -2.80057 -4.87365 0
M  V30 1232 H 114.966 -1.80156 -1.12506 0
M  V30 1233 H 117.229 -0.769217 -0.554085 0
M  V30 1234 H 116.935 -2.46733 -2.50631 0
M  V30 1235 H 116.809 -1.10591 -3.60624 0
M  V30 1236 H 119.196 -0.38419 -2.92588 0
M  V30 1237 H 119.277 -1.77807 -1.83898 0
M  V30 1238 H 118.921 -3.32819 -3.83658 0
M  V30 1239 H 118.851 -1.90702 -4.90857 0
M  V30 1240 H 121.342 -1.73688 -3.3562 0
M  V30 1241 H 121.655 -4.09558 -6.55349 0
M  V30 1242 H 120 -3.67737 -5.89741 0
M  V30 1243 H 123.191 -2.22593 -4.11789 0
M  V30 1244 H 123.364 -3.30132 -5.57599 0
M  V30 1245 N 116.77 1.45427 -0.607355 0
M  V30 1246 C 118.186 1.57283 -0.270985 0
M  V30 1247 C 118.386 1.59875 1.22647 0
M  V30 1248 O 117.442 1.52893 2.00948 0
M  V30 1249 C 118.755 2.85566 -0.941952 0
M  V30 1250 C 120.303 2.9924 -0.917849 0
M  V30 1251 C 120.778 4.30293 -1.56882 0
M  V30 1252 N 122.269 4.37051 -1.5343 0
M  V30 1253 C 123.004 5.37123 -2.00715 0
M  V30 1254 N 122.5 6.43734 -2.56084 0
M  V30 1255 N 124.293 5.28479 -1.91484 0
M  V30 1256 H 116.444 1.41988 -1.57966 0
M  V30 1257 H 118.707 0.67885 -0.661715 0
M  V30 1258 H 118.413 2.8955 -1.99633 0
M  V30 1259 H 118.287 3.74322 -0.465096 0
M  V30 1260 H 120.674 2.94822 0.127984 0
M  V30 1261 H 120.755 2.11895 -1.43297 0
M  V30 1262 H 120.399 4.35469 -2.61398 0
M  V30 1263 H 120.329 5.16454 -1.02873 0
M  V30 1264 H 122.82 3.60615 -1.12982 0
M  V30 1265 H 123.133 7.16341 -2.89958 0
M  V30 1266 H 121.478 6.44485 -2.60122 0
M  V30 1267 H 124.669 4.44098 -1.47967 0
M  V30 1268 H 124.842 6.0632 -2.28648 0
M  V30 1269 N 118.248 0.346503 1.53744 0
M  V30 1270 C 119.494 -0.249473 2.0126 0
M  V30 1271 C 119.827 -1.49965 1.23386 0
M  V30 1272 O 119.102 -1.91811 0.32229 0
M  V30 1273 C 119.385 -0.560643 3.55709 0
M  V30 1274 C 119.238 0.701836 4.44291 0
M  V30 1275 C 120.557 -1.36905 4.18264 0
M  V30 1276 H 117.676 -0.0891987 0.731582 0
M  V30 1277 H 120.318 0.467624 1.84156 0
M  V30 1278 H 118.468 -1.17156 3.70414 0
M  V30 1279 H 120.14 1.33974 4.41417 0
M  V30 1280 H 118.383 1.32612 4.13033 0
M  V30 1281 H 119.054 0.43933 5.50249 0
M  V30 1282 H 121.53 -0.852448 4.07275 0
M  V30 1283 H 120.406 -1.55553 5.26398 0
M  V30 1284 H 120.667 -2.37203 3.73078 0
M  V30 1285 N 119.726 -1.57421 0.075193 0
M  V30 1286 C 120.974 -1.93236 -0.591974 0
M  V30 1287 C 121.295 -0.956241 -1.69944 0
M  V30 1288 O 120.565 -0.00494792 -1.95899 0
M  V30 1289 H 119.145 -0.713355 -0.22166 0
M  V30 1290 H 121.807 -1.9444 0.133848 0
M  V30 1291 H 120.903 -2.95131 -1.01509 0
M  V30 1292 N 121.204 0.198386 -1.56346 0
M  V30 1293 C 122.167 1.22952 -1.93431 0
M  V30 1294 C 123.167 1.38611 -0.815092 0
M  V30 1295 O 124.357 1.36479 -1.08255 0
M  V30 1296 C 121.489 2.59946 -2.20546 0
M  V30 1297 H 122.682 0.912626 -2.85677 0
M  V30 1298 H 120.235 0.43977 -1.49986 0
M  V30 1299 H 120.97 2.96696 -1.30927 0
M  V30 1300 H 120.755 2.49953 -3.02102 0
M  V30 1301 H 122.245 3.3431 -2.50253 0
M  V30 1302 N 122.682 1.50554 0.465978 0
M  V30 1303 C 123.614 1.65949 1.58093 0
M  V30 1304 C 124.627 0.540827 1.53554 0
M  V30 1305 O 125.816 0.814187 1.5885 0
M  V30 1306 C 122.916 1.63261 2.96983 0
M  V30 1307 C 122.089 2.91245 3.26336 0
M  V30 1308 C 121.148 2.8113 4.44806 0
M  V30 1309 O 120.174 3.55086 4.44862 0
M  V30 1310 N 121.376 1.95032 5.46756 0
M  V30 1311 H 124.141 2.62122 1.45301 0
M  V30 1312 H 121.702 1.48082 0.65448 0
M  V30 1313 H 123.694 1.54101 3.74212 0
M  V30 1314 H 122.264 0.748032 3.03518 0
M  V30 1315 H 121.484 3.14493 2.37672 0
M  V30 1316 H 122.772 3.76022 3.42761 0
M  V30 1317 H 122.17 1.3427 5.49534 0
M  V30 1318 H 120.727 1.91772 6.2295 0
M  V30 1319 N 124.16 -0.719506 1.40217 0
M  V30 1320 C 125.123 -1.8153 1.39927 0
M  V30 1321 C 126.123 -1.58095 0.293723 0
M  V30 1322 O 127.313 -1.65209 0.552429 0
M  V30 1323 C 124.445 -3.19561 1.18716 0
M  V30 1324 H 125.638 -1.83186 2.37451 0
M  V30 1325 H 123.191 -0.924746 1.26008 0
M  V30 1326 H 123.926 -3.23557 0.219366 0
M  V30 1327 H 123.711 -3.3797 1.98793 0
M  V30 1328 H 125.201 -3.99598 1.21291 0
M  V30 1329 N 125.638 -1.25649 -0.95132 0
M  V30 1330 C 126.887 -1.09988 -1.69073 0
M  V30 1331 C 127.2 0.358355 -1.92289 0
M  V30 1332 O 128.406 0.635466 -2.63958 0
M  V30 1333 C 126.862 -1.92012 -3.044 0
M  V30 1334 C 126.47 -3.42347 -2.88968 0
M  V30 1335 C 128.214 -1.8493 -3.82101 0
M  V30 1336 C 126.121 -4.16655 -4.19705 0
M  V30 1337 H 125.051 -0.407993 -0.63408 0
M  V30 1338 H 127.702 -1.49873 -1.05879 0
M  V30 1339 H 126.084 -1.44952 -3.68517 0
M  V30 1340 H 127.258 -3.97104 -2.33762 0
M  V30 1341 H 125.573 -3.50557 -2.24719 0
M  V30 1342 H 128.17 -2.37739 -4.78941 0
M  V30 1343 H 128.513 -0.817883 -4.08187 0
M  V30 1344 H 129.046 -2.29758 -3.2474 0
M  V30 1345 H 125.785 -5.20224 -3.98807 0
M  V30 1346 H 125.305 -3.66681 -4.74663 0
M  V30 1347 H 126.984 -4.24551 -4.88227 0
M  V30 1348 N 127.117 1.15442 -1.07289 0
M  V30 1349 C 128.363 1.86489 -0.796846 0
M  V30 1350 C 128.696 1.82078 0.675371 0
M  V30 1351 O 127.971 1.24346 1.4956 0
M  V30 1352 C 128.254 3.35626 -1.30489 0
M  V30 1353 C 128.107 3.48673 -2.84161 0
M  V30 1354 C 129.426 4.30357 -0.920907 0
M  V30 1355 H 126.545 0.677144 -0.290939 0
M  V30 1356 H 129.187 1.35633 -1.33056 0
M  V30 1357 H 127.337 3.79068 -0.850883 0
M  V30 1358 H 129.009 3.14099 -3.37846 0
M  V30 1359 H 127.252 2.90253 -3.22391 0
M  V30 1360 H 127.923 4.53453 -3.14777 0
M  V30 1361 H 130.399 3.94871 -1.3121 0
M  V30 1362 H 129.275 5.33193 -1.30372 0
M  V30 1363 H 129.536 4.4176 0.173226 0
M  V30 1364 N 128.595 0.856903 1.32268 0
M  V30 1365 C 129.542 0.301172 2.28827 0
M  V30 1366 C 130.512 -0.593104 1.5515 0
M  V30 1367 O 131.697 -0.527537 1.83362 0
M  V30 1368 C 128.837 -0.502523 3.41422 0
M  V30 1369 C 127.95 0.417797 4.29975 0
M  V30 1370 C 127.085 -0.398749 5.29701 0
M  V30 1371 C 126.124 0.518827 6.09897 0
M  V30 1372 N 125.261 -0.260674 7.01616 0
M  V30 1373 H 130.101 1.12983 2.75751 0
M  V30 1374 H 127.638 0.568582 1.35667 0
M  V30 1375 H 129.596 -0.984141 4.05426 0
M  V30 1376 H 128.226 -1.29599 2.95642 0
M  V30 1377 H 127.278 1.01781 3.66531 0
M  V30 1378 H 128.59 1.12191 4.86019 0
M  V30 1379 H 127.744 -0.943435 5.9932 0
M  V30 1380 H 126.483 -1.13622 4.7428 0
M  V30 1381 H 125.488 1.07538 5.39181 0
M  V30 1382 H 126.713 1.25495 6.67404 0
M  V30 1383 H 124.659 -0.981198 6.4862 0
M  V30 1384 H 124.576 0.384364 7.55022 0
M  V30 1385 H 125.844 -0.787014 7.75517 0
M  V30 1386 N 130.073 -1.45103 0.615059 0
M  V30 1387 C 131.321 -2.01784 0.112955 0
M  V30 1388 C 131.642 -1.48504 -1.26378 0
M  V30 1389 O 130.912 -0.682245 -1.83636 0
M  V30 1390 H 129.492 -0.745993 0.0387668 0
M  V30 1391 H 132.154 -1.77808 0.798141 0
M  V30 1392 H 131.25 -3.12025 0.0684069 0
M  V30 1393 N 131.551 -0.354651 -1.53558 0
M  V30 1394 C 132.481 0.489091 -2.2832 0
M  V30 1395 C 133.462 1.09324 -1.30316 0
M  V30 1396 O 134.647 1.11255 -1.59173 0
M  V30 1397 C 131.777 1.63456 -3.0643 0
M  V30 1398 C 130.731 1.1582 -4.12031 0
M  V30 1399 C 130.057 2.39305 -4.7816 0
M  V30 1400 C 131.357 0.250731 -5.21698 0
M  V30 1401 H 133.051 -0.134614 -2.99097 0
M  V30 1402 H 130.597 -0.0661826 -1.43848 0
M  V30 1403 H 132.55 2.23136 -3.57475 0
M  V30 1404 H 131.274 2.28533 -2.33325 0
M  V30 1405 H 129.933 0.584146 -3.61916 0
M  V30 1406 H 129.581 3.02814 -4.01637 0
M  V30 1407 H 129.281 2.08109 -5.49513 0
M  V30 1408 H 130.805 2.99691 -5.31994 0
M  V30 1409 H 132.219 0.754695 -5.68311 0
M  V30 1410 H 130.616 0.0301468 -6.00092 0
M  V30 1411 H 131.686 -0.710125 -4.79672 0
M  V30 1412 N 133.029 1.57378 -0.0835403 0
M  V30 1413 C 134.445 1.57246 0.273109 0
M  V30 1414 C 134.645 1.09385 1.69225 0
M  V30 1415 O 133.701 0.765051 2.40631 0
M  V30 1416 C 135.014 3.00614 0.0720628 0
M  V30 1417 C 136.562 3.12684 0.1407 0
M  V30 1418 C 137.037 4.57989 -0.0322094 0
M  V30 1419 N 138.528 4.63194 0.0230085 0
M  V30 1420 C 139.263 5.73335 -0.0861941 0
M  V30 1421 N 138.759 6.9235 -0.24958 0
M  V30 1422 N 140.552 5.62093 -0.0282886 0
M  V30 1423 H 132.703 1.86801 -1.0109 0
M  V30 1424 H 134.966 0.861687 -0.395222 0
M  V30 1425 H 134.672 3.39786 -0.907662 0
M  V30 1426 H 134.546 3.68193 0.81936 0
M  V30 1427 H 136.933 2.73391 1.11092 0
M  V30 1428 H 137.014 2.47719 -0.637896 0
M  V30 1429 H 136.658 4.97973 -0.999247 0
M  V30 1430 H 136.588 5.21 0.765937 0
M  V30 1431 H 139.079 3.77613 0.14722 0
M  V30 1432 H 139.392 7.72117 -0.324733 0
M  V30 1433 H 137.737 6.94415 -0.285097 0
M  V30 1434 H 140.928 4.67997 0.0981408 0
M  V30 1435 H 141.101 6.47895 -0.116845 0
M  V30 1436 N 134.507 -0.190092 1.56449 0
M  V30 1437 C 135.47 -1.21925 1.9408 0
M  V30 1438 C 136.47 -1.38176 0.822431 0
M  V30 1439 O 137.66 -1.35903 1.08977 0
M  V30 1440 C 134.792 -2.58773 2.21922 0
M  V30 1441 H 135.985 -0.897464 2.86157 0
M  V30 1442 H 133.538 -0.43181 1.50217 0
M  V30 1443 H 134.273 -2.95998 1.32499 0
M  V30 1444 H 134.058 -2.48348 3.03424 0
M  V30 1445 H 135.548 -3.32978 2.52022 0
M  V30 1446 N 135.985 -1.50799 -0.457987 0
M  V30 1447 C 137.231 -1.62683 -1.21088 0
M  V30 1448 C 137.564 -0.332268 -1.91336 0
M  V30 1449 O 136.839 0.667043 -1.82704 0
M  V30 1450 C 137.122 -2.81615 -2.24422 0
M  V30 1451 C 136.975 -4.20989 -1.58392 0
M  V30 1452 C 138.294 -2.96085 -3.2561 0
M  V30 1453 H 135.413 -0.592087 -0.438864 0
M  V30 1454 H 138.055 -1.83225 -0.50286 0
M  V30 1455 H 136.205 -2.64231 -2.84806 0
M  V30 1456 H 137.877 -4.49994 -1.01504 0
M  V30 1457 H 136.12 -4.24641 -0.886704 0
M  V30 1458 H 136.791 -5.0016 -2.33547 0
M  V30 1459 H 139.267 -3.12042 -2.75262 0
M  V30 1460 H 138.143 -3.80902 -3.95228 0
M  V30 1461 H 138.404 -2.0726 -3.90507 0
M  V30 1462 N 137.463 0.71206 -1.40597 0
M  V30 1463 C 138.688 1.50617 -1.42581 0
M  V30 1464 C 139.113 1.88079 -0.0282102 0
M  V30 1465 O 138.471 1.53511 0.964579 0
M  V30 1466 C 138.519 2.7557 -2.3258 0
M  V30 1467 O 137.623 3.72414 -1.77148 0
M  V30 1468 H 136.964 0.453966 -0.484573 0
M  V30 1469 H 139.494 0.876649 -1.84868 0
M  V30 1470 H 139.504 3.2406 -2.47889 0
M  V30 1471 H 138.179 2.47639 -3.34138 0
M  V30 1472 H 136.756 3.31276 -1.71204 0
M  V30 1473 N 138.941 1.26152 0.944643 0
M  V30 1474 C 140.218 1.02247 1.66748 0
M  V30 1475 C 140.598 -0.448202 2.06287 0
M  V30 1476 O 139.946 -1.42779 1.78399 0
M  V30 1477 C 140.156 1.96788 2.88228 0
M  V30 1478 C 141.504 2.25201 3.59958 0
M  V30 1479 O 142.528 1.94626 2.98327 0
M  V30 1480 O 141.387 2.77242 4.70956 0
M  V30 1481 H 138.481 0.388517 0.730057 0
M  V30 1482 H 141.027 1.37348 0.99668 0
M  V30 1483 H 139.799 2.96047 2.55875 0
M  V30 1484 H 139.422 1.62145 3.63035 0
M  V30 1485 N 140.419 -1.14872 1.07899 0
M  V30 1486 C 141.649 -1.89386 0.825631 0
M  V30 1487 C 142.057 -1.78565 -0.625406 0
M  V30 1488 O 141.4 -1.13918 -1.44113 0
M  V30 1489 C 141.462 -3.40206 1.16191 0
M  V30 1490 C 141.126 -3.74812 2.61467 0
M  V30 1491 C 142.123 -3.75367 3.59716 0
M  V30 1492 C 139.808 -4.0495 2.97189 0
M  V30 1493 C 141.802 -4.05574 4.9172 0
M  V30 1494 C 139.489 -4.34821 4.29388 0
M  V30 1495 C 140.487 -4.35116 5.26463 0
M  V30 1496 O 140.175 -4.64267 6.56286 0
M  V30 1497 H 139.907 -0.606894 0.297751 0
M  V30 1498 H 142.461 -1.46438 1.44031 0
M  V30 1499 H 140.691 -3.8358 0.490214 0
M  V30 1500 H 142.38 -3.96018 0.890193 0
M  V30 1501 H 143.146 -3.52176 3.33462 0
M  V30 1502 H 139.025 -4.03876 2.22273 0
M  V30 1503 H 142.569 -4.05719 5.67484 0
M  V30 1504 H 138.466 -4.5748 4.55392 0
M  V30 1505 H 139.234 -4.82007 6.61522 0
M  V30 1506 N 141.898 -0.863906 -1.31812 0
M  V30 1507 C 142.808 -0.318461 -2.32428 0
M  V30 1508 C 143.824 0.568496 -1.64451 0
M  V30 1509 O 145 0.46666 -1.95919 0
M  V30 1510 C 142.065 0.476355 -3.43412 0
M  V30 1511 C 141.126 -0.43784 -4.27061 0
M  V30 1512 C 140.359 0.319138 -5.32745 0
M  V30 1513 O 140.582 1.54799 -5.48993 0
M  V30 1514 O 139.516 -0.319861 -6.01049 0
M  V30 1515 H 143.342 -1.15229 -2.80991 0
M  V30 1516 H 140.927 -0.627103 -1.35602 0
M  V30 1517 H 142.809 0.927156 -4.11074 0
M  V30 1518 H 141.484 1.28683 -2.97022 0
M  V30 1519 H 140.391 -0.937013 -3.62175 0
M  V30 1520 H 141.724 -1.21375 -4.77 0
M  V30 1521 N 143.376 1.44774 -0.622745 0
M  V30 1522 C 144.606 2.06187 -0.130532 0
M  V30 1523 C 145.014 1.46547 1.19669 0
M  V30 1524 O 144.357 0.579636 1.74316 0
M  V30 1525 C 144.419 3.59437 0.0674983 0
M  V30 1526 C 144.083 4.41496 -1.18026 0
M  V30 1527 C 145.08 4.75512 -2.102 0
M  V30 1528 C 142.765 4.82007 -1.41333 0
M  V30 1529 C 144.759 5.48912 -3.23998 0
M  V30 1530 C 142.446 5.55157 -2.55429 0
M  V30 1531 C 143.444 5.88528 -3.46589 0
M  V30 1532 O 143.132 6.60191 -4.58697 0
M  V30 1533 H 142.864 0.672045 -0.0730162 0
M  V30 1534 H 145.418 1.86768 -0.854802 0
M  V30 1535 H 143.648 3.77314 0.846825 0
M  V30 1536 H 145.337 4.02642 0.513209 0
M  V30 1537 H 146.103 4.4476 -1.93425 0
M  V30 1538 H 141.982 4.55457 -0.712709 0
M  V30 1539 H 145.526 5.74877 -3.95174 0
M  V30 1540 H 141.423 5.85324 -2.72151 0
M  V30 1541 H 142.191 6.78654 -4.57571 0
M  V30 1542 N 144.854 0.36279 1.53368 0
M  V30 1543 C 145.764 -0.492994 2.29362 0
M  V30 1544 C 146.78 -1.09507 1.35219 0
M  V30 1545 O 147.956 -1.10662 1.68273 0
M  V30 1546 C 145.021 -1.61855 3.066 0
M  V30 1547 C 144.082 -1.04429 4.16405 0
M  V30 1548 C 143.315 -2.11621 4.89951 0
M  V30 1549 O 143.538 -3.32684 4.63333 0
M  V30 1550 O 142.472 -1.74835 5.75948 0
M  V30 1551 H 146.298 0.125331 3.03441 0
M  V30 1552 H 143.883 0.127253 1.48857 0
M  V30 1553 H 145.765 -2.27302 3.54841 0
M  V30 1554 H 144.44 -2.22233 2.3536 0
M  V30 1555 H 143.347 -0.353819 3.72423 0
M  V30 1556 H 144.68 -0.485113 4.89804 0
M  V30 1557 N 146.332 -1.57332 0.0918853 0
M  V30 1558 C 147.262 -2.16872 -0.865371 0
M  V30 1559 C 148.243 -1.10118 -1.29646 0
M  V30 1560 O 149.428 -1.38242 -1.36392 0
M  V30 1561 C 146.558 -2.74649 -2.12569 0
M  V30 1562 C 145.512 -3.86747 -1.83333 0
M  V30 1563 C 144.838 -4.31212 -3.16166 0
M  V30 1564 C 146.138 -5.10089 -1.1228 0
M  V30 1565 H 147.832 -2.97114 -0.369307 0
M  V30 1566 H 145.378 -1.42918 -0.176194 0
M  V30 1567 H 147.331 -3.14952 -2.7997 0
M  V30 1568 H 146.055 -1.91657 -2.64452 0
M  V30 1569 H 144.714 -3.46978 -1.18331 0
M  V30 1570 H 144.362 -3.45115 -3.6593 0
M  V30 1571 H 144.062 -5.06788 -2.97388 0
M  V30 1572 H 145.586 -4.74146 -3.84731 0
M  V30 1573 H 147 -5.47582 -1.69785 0
M  V30 1574 H 145.397 -5.91073 -1.03693 0
M  V30 1575 H 146.467 -4.84786 -0.105041 0
M  V30 1576 N 147.81 0.181792 -1.56548 0
M  V30 1577 C 148.742 1.24956 -1.92142 0
M  V30 1578 C 149.755 1.41022 -0.813422 0
M  V30 1579 O 150.944 1.41212 -1.09186 0
M  V30 1580 C 148.044 2.61981 -2.14987 0
M  V30 1581 C 147.217 2.6735 -3.46183 0
M  V30 1582 C 146.276 3.85664 -3.5798 0
M  V30 1583 O 145.302 3.72148 -4.30691 0
M  V30 1584 N 146.504 5.01683 -2.92053 0
M  V30 1585 H 149.269 0.947329 -2.84334 0
M  V30 1586 H 146.83 0.371629 -1.57577 0
M  V30 1587 H 148.822 3.3958 -2.20154 0
M  V30 1588 H 147.392 2.84637 -1.2923 0
M  V30 1589 H 146.612 1.75925 -3.52766 0
M  V30 1590 H 147.9 2.67939 -4.32534 0
M  V30 1591 H 147.298 5.15564 -2.32832 0
M  V30 1592 H 145.855 5.77181 -3.0283 0
M  V30 1593 N 149.288 1.51039 0.449983 0
M  V30 1594 C 150.221 1.66105 1.56474 0
M  V30 1595 C 151.199 0.508776 1.54435 0
M  V30 1596 O 152.383 0.731005 1.73749 0
M  V30 1597 C 149.51 1.66304 2.9506 0
M  V30 1598 C 148.556 2.87346 3.15174 0
M  V30 1599 S 149.389 4.4835 2.92818 0
M  V30 1600 C 150.545 4.51274 4.33708 0
M  V30 1601 H 150.778 2.60397 1.43459 0
M  V30 1602 H 148.311 1.40565 0.638805 0
M  V30 1603 H 150.269 1.67103 3.74949 0
M  V30 1604 H 148.93 0.732108 3.05449 0
M  V30 1605 H 148.123 2.83849 4.16468 0
M  V30 1606 H 147.725 2.84223 2.43091 0
M  V30 1607 H 150.017 4.26136 5.26701 0
M  V30 1608 H 150.96 5.53017 4.42242 0
M  V30 1609 H 151.368 3.80738 4.16772 0
M  V30 1610 N 150.766 -0.704594 1.40972 0
M  V30 1611 C 151.729 -1.80035 1.41845 0
M  V30 1612 C 152.729 -1.57774 0.310474 0
M  V30 1613 O 153.919 -1.64613 0.56992 0
M  V30 1614 C 151.051 -3.18284 1.22098 0
M  V30 1615 H 152.244 -1.80658 2.3938 0
M  V30 1616 H 149.797 -0.911329 1.26982 0
M  V30 1617 H 150.532 -3.23306 0.253672 0
M  V30 1618 H 150.317 -3.35843 2.02366 0
M  V30 1619 H 151.807 -3.98289 1.25522 0
M  V30 1620 N 152.244 -1.26651 -0.937939 0
M  V30 1621 C 153.194 -1.05156 -2.02302 0
M  V30 1622 C 154.178 0.0171233 -1.60891 0
M  V30 1623 O 155.37 -0.200213 -1.75864 0
M  V30 1624 C 152.499 -0.689962 -3.36295 0
M  V30 1625 C 151.585 -1.79626 -3.84181 0
M  V30 1626 N 151.976 -3.03422 -4.04684 0
M  V30 1627 C 150.274 -1.6806 -4.13124 0
M  V30 1628 C 150.975 -3.75345 -4.444 0
M  V30 1629 N 149.951 -3.03051 -4.51288 0
M  V30 1630 H 153.753 -1.99117 -2.1617 0
M  V30 1631 H 151.267 -1.17216 -1.12402 0
M  V30 1632 H 153.264 -0.517112 -4.13681 0
M  V30 1633 H 151.924 0.242139 -3.23796 0
M  V30 1634 H 152.935 -3.39293 -3.91281 0
M  V30 1635 H 149.612 -0.818629 -4.09396 0
M  V30 1636 H 151.002 -4.81691 -4.68427 0
M  V30 1637 N 153.722 1.14298 -1.08507 0
M  V30 1638 C 154.652 2.21542 -0.737646 0
M  V30 1639 C 155.633 1.67773 0.280377 0
M  V30 1640 O 156.818 1.93616 0.150521 0
M  V30 1641 C 153.948 3.46988 -0.147259 0
M  V30 1642 C 152.902 4.13789 -1.09374 0
M  V30 1643 C 152.228 5.33449 -0.365524 0
M  V30 1644 C 153.528 4.62208 -2.4323 0
M  V30 1645 H 155.222 2.5086 -1.6343 0
M  V30 1646 H 152.768 1.20576 -0.787243 0
M  V30 1647 H 154.721 4.21262 0.107808 0
M  V30 1648 H 153.445 3.17037 0.784538 0
M  V30 1649 H 152.104 3.4147 -1.33393 0
M  V30 1650 H 151.752 4.99759 0.57011 0
M  V30 1651 H 151.452 5.79088 -0.996512 0
M  V30 1652 H 152.976 6.10485 -0.118534 0
M  V30 1653 H 154.39 5.27952 -2.23472 0
M  V30 1654 H 152.787 5.18553 -3.02031 0
M  V30 1655 H 153.857 3.77224 -3.04681 0
M  V30 1656 N 155.201 0.870884 1.31352 0
M  V30 1657 C 156.149 0.316445 2.30437 0
M  V30 1658 C 157.143 -0.568965 1.59559 0
M  V30 1659 O 158.349 -0.454964 1.74155 0
M  V30 1660 H 154.724 0.0836521 0.747333 0
M  V30 1661 H 156.695 1.16606 2.74673 0
M  V30 1662 C 155.444 -0.46635 3.44558 0
M  V30 1663 H 154.767 0.205687 3.99271 0
M  V30 1664 H 156.207 -0.819614 4.16003 0
M  V30 1665 C 154.666 -1.65797 2.9328 0
M  V30 1666 O 155.196 -2.75728 2.92125 0
M  V30 1667 N 153.402 -1.49041 2.4947 0
M  V30 1668 H 152.949 -0.59612 2.50608 0
M  V30 1669 H 152.907 -2.28911 2.15516 0
M  V30 1670 N 156.679 -1.44442 0.630414 0
M  V30 1671 C 158.095 -1.56832 0.295973 0
M  V30 1672 C 158.295 -1.61806 -1.20088 0
M  V30 1673 O 157.351 -1.5607 -1.9849 0
M  V30 1674 C 158.664 -2.84031 0.987264 0
M  V30 1675 C 160.212 -2.97742 0.96534 0
M  V30 1676 C 160.687 -4.27743 1.63708 0
M  V30 1677 N 162.178 -4.34555 1.60364 0
M  V30 1678 C 162.913 -5.33862 2.09234 0
M  V30 1679 N 162.409 -6.39578 2.66292 0
M  V30 1680 N 164.202 -5.25366 1.99867 0
M  V30 1681 H 156.353 -1.39457 1.60205 0
M  V30 1682 H 158.616 -0.668237 0.672431 0
M  V30 1683 H 158.322 -2.86338 2.04215 0
M  V30 1684 H 158.196 -3.73534 0.524588 0
M  V30 1685 H 160.583 -2.94989 -0.0810639 0
M  V30 1686 H 160.664 -2.09589 1.4665 0
M  V30 1687 H 160.308 -4.31255 2.68293 0
M  V30 1688 H 160.238 -5.14752 1.11076 0
M  V30 1689 H 162.729 -3.58772 1.18705 0
M  V30 1690 H 163.042 -7.11637 3.01317 0
M  V30 1691 H 161.387 -6.40265 2.70343 0
M  V30 1692 H 164.578 -4.41688 1.55013 0
M  V30 1693 H 164.751 -6.02606 2.38265 0
M  V30 1694 N 158.157 -0.370918 -1.53173 0
M  V30 1695 C 159.089 0.507823 -2.23503 0
M  V30 1696 C 160.102 1.04182 -1.251 0
M  V30 1697 O 161.291 0.947286 -1.5129 0
M  V30 1698 C 158.391 1.71447 -2.92334 0
M  V30 1699 C 157.564 1.31105 -4.17289 0
M  V30 1700 C 156.623 2.38035 -4.69282 0
M  V30 1701 O 155.649 2.00204 -5.32829 0
M  V30 1702 N 156.851 3.69697 -4.47554 0
M  V30 1703 H 159.616 -0.0946382 -2.99551 0
M  V30 1704 H 157.177 -0.196358 -1.60705 0
M  V30 1705 H 159.169 2.42469 -3.24023 0
M  V30 1706 H 157.739 2.22368 -2.19707 0
M  V30 1707 H 156.959 0.430462 -3.91843 0
M  V30 1708 H 158.247 1.0179 -4.98514 0
M  V30 1709 H 157.645 4.03205 -3.9679 0
M  V30 1710 H 156.202 4.36807 -4.8378 0
M  V30 1711 N 159.635 1.57281 -0.100228 0
M  V30 1712 C 160.565 2.17328 0.853857 0
M  V30 1713 C 161.546 1.10804 1.2906 0
M  V30 1714 O 162.731 1.38963 1.35657 0
M  V30 1715 C 159.861 2.75772 2.11109 0
M  V30 1716 C 158.815 3.87713 1.81279 0
M  V30 1717 C 158.141 4.32882 3.13874 0
M  V30 1718 C 159.441 5.10677 1.09574 0
M  V30 1719 H 161.135 2.97305 0.353545 0
M  V30 1720 H 158.681 1.43009 0.168612 0
M  V30 1721 H 160.634 3.16433 2.78296 0
M  V30 1722 H 159.358 1.93057 2.63432 0
M  V30 1723 H 158.017 3.476 1.16489 0
M  V30 1724 H 157.665 3.47051 3.64095 0
M  V30 1725 H 157.365 5.08358 2.94696 0
M  V30 1726 H 158.889 4.7618 3.82211 0
M  V30 1727 H 160.303 5.48474 1.66879 0
M  V30 1728 H 158.7 5.91615 1.00557 0
M  V30 1729 H 159.77 4.84835 0.0793299 0
M  V30 1730 N 161.113 -0.173488 1.56642 0
M  V30 1731 C 162.343 -0.904781 1.85734 0
M  V30 1732 C 162.751 -1.76431 0.68328 0
M  V30 1733 O 162.094 -1.802 -0.356865 0
M  V30 1734 C 162.156 -1.83382 3.09211 0
M  V30 1735 C 161.82 -1.15411 4.42187 0
M  V30 1736 C 162.817 -0.520609 5.17287 0
M  V30 1737 C 160.502 -1.15151 4.88923 0
M  V30 1738 C 162.496 0.106412 6.37311 0
M  V30 1739 C 160.183 -0.520664 6.08878 0
M  V30 1740 C 161.181 0.107196 6.82916 0
M  V30 1741 O 160.869 0.728102 8.00596 0
M  V30 1742 H 160.601 -0.268408 0.62043 0
M  V30 1743 H 163.155 -0.179096 2.04618 0
M  V30 1744 H 161.385 -2.59976 2.86268 0
M  V30 1745 H 163.074 -2.43476 3.24768 0
M  V30 1746 H 163.84 -0.514606 4.82262 0
M  V30 1747 H 159.719 -1.62961 4.31236 0
M  V30 1748 H 163.263 0.597081 6.9504 0
M  V30 1749 H 159.16 -0.524242 6.43368 0
M  V30 1750 H 159.928 0.627138 8.16094 0
M  V30 1751 N 162.591 -1.51276 -0.441967 0
M  V30 1752 C 164.002 -1.56244 -1.02199 0
M  V30 1753 C 164.353 -0.383149 -1.92422 0
M  V30 1754 O 163.478 0.500613 -2.1053 0
M  V30 1755 C 164.073 -2.83162 -1.86024 0
M  V30 1756 C 162.632 -2.90716 -2.39084 0
M  V30 1757 C 161.779 -2.50858 -1.18175 0
M  V30 1758 H 164.73 -1.5712 -0.223416 0
M  V30 1759 H 164.751 -2.66663 -2.71425 0
M  V30 1760 H 164.263 -3.68974 -1.20331 0
M  V30 1761 H 162.364 -2.09323 -3.08244 0
M  V30 1762 H 162.477 -3.94266 -2.72198 0
M  V30 1763 H 160.841 -2.03951 -1.52565 0
M  V30 1764 H 161.624 -3.3901 -0.541001 0
M  V30 1765 N 164.069 0.697108 -1.41344 0
M  V30 1766 C 165.317 1.45426 -1.40341 0
M  V30 1767 C 165.638 1.94996 -0.0128787 0
M  V30 1768 O 164.908 1.71599 0.945027 0
M  V30 1769 H 163.488 0.539594 -0.516573 0
M  V30 1770 H 166.15 0.825201 -1.76569 0
M  V30 1771 H 165.246 2.31817 -2.08967 0
M  V30 1772 N 165.547 1.27147 0.931209 0
M  V30 1773 C 166.477 1.12081 2.04842 0
M  V30 1774 C 167.458 0.0232364 1.70084 0
M  V30 1775 O 168.643 0.197085 1.93197 0
M  V30 1776 C 165.773 0.76354 3.38803 0
M  V30 1777 C 164.727 1.81396 3.87659 0
M  V30 1778 C 164.053 1.31075 5.18385 0
M  V30 1779 C 165.353 3.21739 4.11438 0
M  V30 1780 H 167.047 2.05537 2.17703 0
M  V30 1781 H 164.593 0.989603 1.04608 0
M  V30 1782 H 166.546 0.644982 4.16435 0
M  V30 1783 H 165.27 -0.206727 3.25945 0
M  V30 1784 H 163.929 1.92136 3.12217 0
M  V30 1785 H 163.577 0.330037 5.01916 0
M  V30 1786 H 163.277 2.013 5.52044 0
M  V30 1787 H 164.801 1.20506 5.98591 0
M  V30 1788 H 166.215 3.14019 4.79651 0
M  V30 1789 H 164.612 3.89644 4.56397 0
M  V30 1790 H 165.682 3.67054 3.16859 0
M  V30 1791 N 167.025 -1.13721 1.09112 0
M  V30 1792 C 167.935 -2.22638 0.73957 0
M  V30 1793 C 168.951 -1.72091 -0.257068 0
M  V30 1794 O 170.127 -2.01155 -0.0992154 0
M  V30 1795 C 167.192 -3.46322 0.16191 0
M  V30 1796 C 166.253 -4.11775 1.21408 0
M  V30 1797 C 165.486 -5.29555 0.663891 0
M  V30 1798 O 165.709 -5.68077 -0.514274 0
M  V30 1799 O 164.643 -5.84973 1.41738 0
M  V30 1800 H 168.469 -2.55074 1.64836 0
M  V30 1801 H 166.054 -1.21791 0.865289 0
M  V30 1802 H 167.936 -4.21107 -0.157073 0
M  V30 1803 H 166.611 -3.15593 -0.719932 0
M  V30 1804 H 165.518 -3.3883 1.58571 0
M  V30 1805 H 166.851 -4.46627 2.06845 0
M  V30 1806 N 168.503 -0.877838 -1.30888 0
M  V30 1807 C 169.731 -0.507414 -2.00581 0
M  V30 1808 C 170.146 0.902216 -1.65848 0
M  V30 1809 O 169.503 1.59225 -0.891831 0
M  V30 1810 C 169.554 -0.664162 -3.55347 0
M  V30 1811 O 169.275 -2.01829 -3.8884 0
M  V30 1812 C 170.776 -0.295787 -4.42312 0
M  V30 1813 H 167.996 -0.196866 -0.641471 0
M  V30 1814 H 170.54 -1.18117 -1.66939 0
M  V30 1815 H 168.695 -0.0378619 -3.87381 0
M  V30 1816 H 169.109 -2.03174 -4.8355 0
M  V30 1817 H 170.583 -0.456388 -5.5011 0
M  V30 1818 H 171.06 0.765663 -4.32475 0
M  V30 1819 H 171.666 -0.898113 -4.15709 0
M  V30 1820 N 169.982 1.44106 -0.638065 0
M  V30 1821 C 170.912 2.33448 0.0494287 0
M  V30 1822 C 171.893 1.48606 0.827672 0
M  V30 1823 O 173.078 1.77308 0.792173 0
M  V30 1824 C 170.208 3.31771 1.02691 0
M  V30 1825 C 169.162 4.26485 0.359823 0
M  V30 1826 C 168.488 5.14729 1.44769 0
M  V30 1827 C 169.788 5.17056 -0.738296 0
M  V30 1828 H 171.482 2.91183 -0.696636 0
M  V30 1829 H 169.028 1.40014 -0.336456 0
M  V30 1830 H 170.981 3.93161 1.51666 0
M  V30 1831 H 169.705 2.7226 1.80395 0
M  V30 1832 H 168.364 3.66437 -0.10934 0
M  V30 1833 H 168.012 4.51566 2.21578 0
M  V30 1834 H 167.712 5.78913 1.00668 0
M  V30 1835 H 169.236 5.78991 1.93911 0
M  V30 1836 H 170.65 5.72342 -0.331354 0
M  V30 1837 H 169.047 5.89879 -1.10286 0
M  V30 1838 H 170.117 4.57652 -1.60258 0
M  V30 1839 N 171.46 0.379036 1.52974 0
M  V30 1840 C 172.707 -0.206421 2.01445 0
M  V30 1841 C 173.035 -1.47668 1.26587 0
M  V30 1842 O 172.29 -1.92514 0.351675 0
M  V30 1843 C 172.589 -0.53096 3.53434 0
M  V30 1844 C 172.255 0.646546 4.46241 0
M  V30 1845 C 170.917 0.969604 4.7133 0
M  V30 1846 C 173.269 1.43479 5.01062 0
M  V30 1847 C 170.597 2.08263 5.48492 0
M  V30 1848 C 172.949 2.53834 5.7944 0
M  V30 1849 C 171.613 2.86659 6.02812 0
M  V30 1850 H 170.883 -0.0755349 0.73714 0
M  V30 1851 H 173.53 0.514271 1.84465 0
M  V30 1852 H 171.835 -1.33285 3.68432 0
M  V30 1853 H 173.532 -0.996417 3.88423 0
M  V30 1854 H 170.122 0.384734 4.2687 0
M  V30 1855 H 174.306 1.19844 4.81613 0
M  V30 1856 H 169.562 2.34078 5.64816 0
M  V30 1857 H 173.736 3.15319 6.20924 0
M  V30 1858 H 171.363 3.73026 6.62387 0
M  V30 1859 N 172.938 -1.57226 0.108567 0
M  V30 1860 C 174.187 -1.94008 -0.551703 0
M  V30 1861 C 174.5 -0.993442 -1.68494 0
M  V30 1862 O 175.706 -1.25551 -2.40726 0
M  V30 1863 C 174.162 -3.44763 -1.03279 0
M  V30 1864 C 173.77 -4.47943 0.0714193 0
M  V30 1865 C 175.514 -3.90483 -1.66503 0
M  V30 1866 C 173.421 -5.89865 -0.425779 0
M  V30 1867 H 172.351 -0.724206 -0.209863 0
M  V30 1868 H 175.002 -1.82547 0.186741 0
M  V30 1869 H 173.384 -3.51422 -1.82533 0
M  V30 1870 H 174.558 -4.52942 0.847365 0
M  V30 1871 H 172.873 -4.11913 0.609669 0
M  V30 1872 H 175.47 -4.93925 -2.04798 0
M  V30 1873 H 175.813 -3.29877 -2.53942 0
M  V30 1874 H 176.346 -3.86581 -0.938074 0
M  V30 1875 H 173.085 -6.54202 0.412316 0
M  V30 1876 H 172.605 -5.88309 -1.16843 0
M  V30 1877 H 174.284 -6.40844 -0.890397 0
M  V30 1878 N 174.416 0.165178 -1.56732 0
M  V30 1879 C 175.346 1.20651 -1.99914 0
M  V30 1880 C 176.327 1.45827 -0.875705 0
M  V30 1881 O 177.512 1.57057 -1.14223 0
M  V30 1882 C 174.642 2.54401 -2.36427 0
M  V30 1883 C 173.596 2.43782 -3.51787 0
M  V30 1884 C 172.922 3.82078 -3.7406 0
M  V30 1885 C 174.222 1.93732 -4.85041 0
M  V30 1886 H 175.916 0.847534 -2.87154 0
M  V30 1887 H 173.462 0.40625 -1.38151 0
M  V30 1888 H 175.415 3.27458 -2.65234 0
M  V30 1889 H 174.139 2.92098 -1.46103 0
M  V30 1890 H 172.798 1.73178 -3.23117 0
M  V30 1891 H 172.446 4.17179 -2.81017 0
M  V30 1892 H 172.146 3.7584 -4.51684 0
M  V30 1893 H 173.67 4.56712 -4.05274 0
M  V30 1894 H 175.084 2.56569 -5.12684 0
M  V30 1895 H 173.481 1.98428 -5.66345 0
M  V30 1896 H 174.551 0.891962 -4.76626 0
M  V30 1897 N 175.894 1.51508 0.433938 0
M  V30 1898 C 176.857 1.72473 1.50949 0
M  V30 1899 C 177.857 0.594725 1.49398 0
M  V30 1900 O 179.047 0.862315 1.5136 0
M  V30 1901 C 176.179 1.78431 2.90474 0
M  V30 1902 H 177.372 2.68467 1.33662 0
M  V30 1903 H 174.925 1.41549 0.662836 0
M  V30 1904 H 175.66 0.842645 3.13161 0
M  V30 1905 H 175.445 2.60558 2.93005 0
M  V30 1906 H 176.935 1.96479 3.68491 0
M  V30 1907 N 177.372 -0.689602 1.41712 0
M  V30 1908 C 178.335 -1.78521 1.43746 0
M  V30 1909 C 179.335 -1.57436 0.327191 0
M  V30 1910 O 180.525 -1.64 0.587348 0
M  V30 1911 C 177.657 -3.16971 1.25467 0
M  V30 1912 H 178.85 -1.78108 2.41283 0
M  V30 1913 H 176.403 -0.89781 1.27942 0
M  V30 1914 H 177.138 -3.23019 0.287948 0
M  V30 1915 H 176.923 -3.33678 2.05917 0
M  V30 1916 H 178.413 -3.96935 1.2974 0
M  V30 1917 N 178.85 -1.27639 -0.924453 0
M  V30 1918 C 180.078 -1.16989 -1.70649 0
M  V30 1919 C 180.493 0.272869 -1.86818 0
M  V30 1920 O 179.85 1.18549 -1.38753 0
M  V30 1921 C 179.901 -1.85229 -3.10439 0
M  V30 1922 O 179.622 -3.23868 -2.95028 0
M  V30 1923 C 181.123 -1.80746 -4.04779 0
M  V30 1924 H 178.343 -0.406595 -0.53378 0
M  V30 1925 H 180.887 -1.68569 -1.15778 0
M  V30 1926 H 179.042 -1.37545 -3.6216 0
M  V30 1927 H 179.456 -3.57889 -3.83426 0
M  V30 1928 H 180.93 -2.33101 -5.00368 0
M  V30 1929 H 181.407 -0.777499 -4.32263 0
M  V30 1930 H 182.013 -2.28059 -3.58984 0
M  V30 1931 N 180.328 1.1314 -1.09713 0
M  V30 1932 C 181.744 1.36477 -0.827423 0
M  V30 1933 C 181.944 1.93654 0.556817 0
M  V30 1934 O 181 2.15791 1.31112 0
M  V30 1935 C 182.313 2.31334 -1.92106 0
M  V30 1936 C 183.861 2.44943 -1.94864 0
M  V30 1937 C 184.336 3.4311 -3.0338 0
M  V30 1938 N 185.827 3.50662 -3.02639 0
M  V30 1939 C 186.562 4.2651 -3.83246 0
M  V30 1940 N 186.058 5.05485 -4.73768 0
M  V30 1941 N 187.851 4.2184 -3.71493 0
M  V30 1942 H 180.002 0.743807 -1.9895 0
M  V30 1943 H 182.265 0.389823 -0.864143 0
M  V30 1944 H 181.971 1.96483 -2.91698 0
M  V30 1945 H 181.845 3.31381 -1.80184 0
M  V30 1946 H 184.232 2.79079 -0.959099 0
M  V30 1947 H 184.313 1.4481 -2.10864 0
M  V30 1948 H 183.957 3.09704 -4.02549 0
M  V30 1949 H 183.887 4.43055 -2.84622 0
M  V30 1950 H 186.378 2.94315 -2.37039 0
M  V30 1951 H 186.691 5.60675 -5.3185 0
M  V30 1952 H 185.036 5.04708 -4.77802 0
M  V30 1953 H 188.227 3.5922 -3.00131 0
M  V30 1954 H 188.4 4.80697 -4.3455 0
M  V30 1955 N 181.806 0.884767 1.30421 0
M  V30 1956 C 183.036 0.517293 2.00019 0
M  V30 1957 C 183.444 -0.898632 1.66497 0
M  V30 1958 O 182.787 -1.60245 0.898181 0
M  V30 1959 C 182.849 0.612025 3.54252 0
M  V30 1960 C 182.513 1.99222 4.1129 0
M  V30 1961 C 183.51 2.9616 4.273 0
M  V30 1962 C 181.195 2.29755 4.46674 0
M  V30 1963 C 183.189 4.21764 4.77906 0
M  V30 1964 C 180.876 3.55606 4.96979 0
M  V30 1965 C 181.874 4.51425 5.12547 0
M  V30 1966 O 181.562 5.75043 5.61766 0
M  V30 1967 H 181.294 0.198529 0.64619 0
M  V30 1968 H 183.848 1.1919 1.67281 0
M  V30 1969 H 182.078 -0.119561 3.86515 0
M  V30 1970 H 183.767 0.255859 4.05093 0
M  V30 1971 H 184.533 2.73882 4.00267 0
M  V30 1972 H 180.412 1.55942 4.33824 0
M  V30 1973 H 183.956 4.96561 4.89972 0
M  V30 1974 H 179.853 3.7772 5.23448 0
M  V30 1975 H 180.621 5.77422 5.80109 0
M  V30 1976 N 183.284 -1.43765 0.645699 0
M  V30 1977 C 184.509 -2.06767 0.161883 0
M  V30 1978 C 184.934 -1.48034 -1.16049 0
M  V30 1979 O 184.292 -0.587369 -1.71522 0
M  V30 1980 C 184.34 -3.60519 0.0762003 0
M  V30 1981 O 183.444 -4.00982 -0.963721 0
M  V30 1982 H 182.785 -0.657675 0.091429 0
M  V30 1983 H 185.315 -1.84397 0.886499 0
M  V30 1984 H 185.325 -4.07853 -0.109604 0
M  V30 1985 H 184 -4.02646 1.04157 0
M  V30 1986 H 182.577 -3.65253 -0.751312 0
M  V30 1987 N 184.763 -0.387143 -1.52771 0
M  V30 1988 C 186.01 0.195735 -2.01552 0
M  V30 1989 C 186.338 1.46995 -1.27369 0
M  V30 1990 O 185.593 1.92325 -0.361879 0
M  V30 1991 C 185.892 0.512209 -3.53711 0
M  V30 1992 C 185.558 -0.670202 -4.45891 0
M  V30 1993 C 184.22 -0.994586 -4.70809 0
M  V30 1994 C 186.572 -1.46134 -5.00294 0
M  V30 1995 C 183.9 -2.11169 -5.4738 0
M  V30 1996 C 186.252 -2.56903 -5.78086 0
M  V30 1997 C 184.916 -2.89852 -6.01284 0
M  V30 1998 H 184.186 0.0716246 -0.73753 0
M  V30 1999 H 186.833 -0.524046 -1.8419 0
M  V30 2000 H 185.138 1.31329 -3.69134 0
M  V30 2001 H 186.835 0.975804 -3.88946 0
M  V30 2002 H 183.425 -0.407366 -4.2666 0
M  V30 2003 H 187.609 -1.22397 -4.80971 0
M  V30 2004 H 182.865 -2.3707 -5.63567 0
M  V30 2005 H 187.039 -3.18608 -6.19243 0
M  V30 2006 H 184.666 -3.76533 -6.60399 0
M  V30 2007 N 186.241 1.57166 -0.116904 0
M  V30 2008 C 187.487 1.95412 0.542405 0
M  V30 2009 C 187.82 1.00019 1.66463 0
M  V30 2010 O 187.095 0.0370346 1.94465 0
M  V30 2011 C 187.378 3.43615 1.07708 0
M  V30 2012 C 187.231 4.49781 -0.0415868 0
M  V30 2013 C 188.55 3.93616 1.96861 0
M  V30 2014 H 185.669 0.710543 0.195696 0
M  V30 2015 H 188.311 1.89027 -0.192038 0
M  V30 2016 H 186.461 3.49187 1.70296 0
M  V30 2017 H 188.133 4.56308 -0.676793 0
M  V30 2018 H 186.376 4.28033 -0.705019 0
M  V30 2019 H 187.047 5.50733 0.373717 0
M  V30 2020 H 189.523 3.90335 1.44146 0
M  V30 2021 H 188.399 4.97838 2.3119 0
M  V30 2022 H 188.66 3.34188 2.89432 0
M  V30 2023 N 187.719 -0.156864 1.56817 0
M  V30 2024 C 188.944 -0.890331 1.87318 0
M  V30 2025 C 189.369 -1.74394 0.704855 0
M  V30 2026 O 188.727 -1.77972 -0.345786 0
M  V30 2027 C 188.775 -1.73102 3.16336 0
M  V30 2028 O 187.879 -2.83422 2.99576 0
M  V30 2029 H 187.22 -0.24857 0.615718 0
M  V30 2030 H 189.75 -0.150649 2.04045 0
M  V30 2031 H 189.76 -2.12803 3.48107 0
M  V30 2032 H 188.435 -1.10412 4.00976 0
M  V30 2033 H 187.012 -2.47199 2.7919 0
M  V30 2034 N 189.197 -1.51736 -0.425897 0
M  V30 2035 C 190.422 -1.69082 -1.20108 0
M  V30 2036 C 190.847 -0.392398 -1.83962 0
M  V30 2037 O 190.205 0.64858 -1.69302 0
M  V30 2038 C 190.253 -2.81604 -2.25237 0
M  V30 2039 O 189.357 -2.46004 -3.30992 0
M  V30 2040 H 188.698 -0.563408 -0.35138 0
M  V30 2041 H 191.228 -1.98358 -0.501512 0
M  V30 2042 H 191.238 -3.06025 -2.69838 0
M  V30 2043 H 189.913 -3.75817 -1.78142 0
M  V30 2044 H 188.49 -2.32195 -2.91787 0
M  V30 2045 N 190.675 0.682077 -1.42076 0
M  V30 2046 C 191.903 1.47057 -1.4554 0
M  V30 2047 C 192.318 1.8869 -0.0645779 0
M  V30 2048 O 191.675 1.57666 0.919115 0
M  V30 2049 C 191.726 2.72442 -2.37609 0
M  V30 2050 O 191.447 2.32559 -3.71279 0
M  V30 2051 C 192.948 3.66069 -2.50017 0
M  V30 2052 H 190.168 0.452737 -0.495248 0
M  V30 2053 H 192.712 0.838695 -1.8651 0
M  V30 2054 H 190.867 3.31835 -1.9991 0
M  V30 2055 H 191.281 3.13475 -4.20516 0
M  V30 2056 H 192.755 4.50792 -3.18576 0
M  V30 2057 H 193.232 4.11476 -1.53572 0
M  V30 2058 H 193.838 3.12572 -2.88407 0
M  V30 2059 N 192.153 1.28127 0.917671 0
M  V30 2060 C 193.086 1.06039 2.02067 0
M  V30 2061 C 194.064 -0.0223285 1.62585 0
M  V30 2062 O 195.248 0.124823 1.88086 0
M  V30 2063 C 192.375 0.610596 3.33151 0
M  V30 2064 C 191.421 1.68937 3.91615 0
M  V30 2065 S 192.254 3.28437 4.22953 0
M  V30 2066 C 193.41 2.85283 5.57103 0
M  V30 2067 H 193.643 1.99425 2.20493 0
M  V30 2068 H 191.176 1.12071 1.06205 0
M  V30 2069 H 193.134 0.357778 4.08938 0
M  V30 2070 H 191.795 -0.303364 3.12632 0
M  V30 2071 H 190.988 1.32619 4.86239 0
M  V30 2072 H 190.59 1.89478 3.2245 0
M  V30 2073 H 192.882 2.3121 6.36827 0
M  V30 2074 H 193.825 3.7869 5.98331 0
M  V30 2075 H 194.233 2.24118 5.18104 0
M  V30 2076 N 193.631 -1.12557 1.10312 0
M  V30 2077 C 194.877 -1.84311 0.846011 0
M  V30 2078 C 195.21 -1.83805 -0.626859 0
M  V30 2079 O 194.485 -1.28268 -1.46211 0
M  V30 2080 C 194.768 -3.32048 1.39341 0
M  V30 2081 C 194.621 -3.41016 2.93305 0
M  V30 2082 C 195.94 -4.27764 1.03468 0
M  V30 2083 H 193.059 -0.669192 0.30879 0
M  V30 2084 H 195.701 -1.32057 1.36605 0
M  V30 2085 H 193.851 -3.76678 0.951087 0
M  V30 2086 H 195.523 -3.05031 3.46055 0
M  V30 2087 H 193.766 -2.81603 3.29973 0
M  V30 2088 H 194.437 -4.44948 3.26689 0
M  V30 2089 H 196.913 -3.91253 1.41633 0
M  V30 2090 H 195.789 -5.29549 1.44463 0
M  V30 2091 H 196.05 -4.42064 -0.0560404 0
M  V30 2092 N 195.109 -0.891671 -1.2995 0
M  V30 2093 C 196.056 -0.361736 -2.27948 0
M  V30 2094 C 197.026 0.551761 -1.56668 0
M  V30 2095 O 198.211 0.478736 -1.84696 0
M  V30 2096 C 195.351 0.411825 -3.42634 0
M  V30 2097 C 194.464 -0.531651 -4.28716 0
M  V30 2098 C 193.599 0.258167 -5.30572 0
M  V30 2099 C 192.638 -0.680349 -6.08307 0
M  V30 2100 N 191.775 0.0745613 -7.0206 0
M  V30 2101 H 196.615 -1.20254 -2.72659 0
M  V30 2102 H 194.152 -0.604352 -1.34112 0
M  V30 2103 H 196.11 0.876304 -4.07893 0
M  V30 2104 H 194.74 1.21715 -2.98974 0
M  V30 2105 H 193.792 -1.11463 -3.63703 0
M  V30 2106 H 195.104 -1.25038 -4.82874 0
M  V30 2107 H 194.258 0.784204 -6.0161 0
M  V30 2108 H 192.997 1.01008 -4.77126 0
M  V30 2109 H 192.002 -1.21796 -5.3614 0
M  V30 2110 H 193.227 -1.43145 -6.63842 0
M  V30 2111 H 191.173 0.808883 -6.50994 0
M  V30 2112 H 191.09 -0.584409 -7.53738 0
M  V30 2113 H 192.358 0.581123 -7.77331 0
M  V30 2114 N 196.587 1.43421 -0.653314 0
M  V30 2115 C 197.497 2.34568 0.0388565 0
M  V30 2116 C 198.513 1.53888 0.81207 0
M  V30 2117 O 199.689 1.86539 0.759294 0
M  V30 2118 C 196.754 3.32167 0.993269 0
M  V30 2119 C 195.815 4.28751 0.216977 0
M  V30 2120 C 195.048 5.21688 1.12593 0
M  V30 2121 O 195.271 5.19052 2.36519 0
M  V30 2122 O 194.205 5.98919 0.598284 0
M  V30 2123 H 198.031 2.95251 -0.711386 0
M  V30 2124 H 195.616 1.43564 -0.413502 0
M  V30 2125 H 197.498 3.92183 1.54176 0
M  V30 2126 H 196.173 2.73987 1.72374 0
M  V30 2127 H 195.08 3.72215 -0.375101 0
M  V30 2128 H 196.413 4.89913 -0.473924 0
M  V30 2129 N 198.065 0.39524 1.52563 0
M  V30 2130 C 199.314 -0.186321 2.00838 0
M  V30 2131 C 199.627 -1.47402 1.28577 0
M  V30 2132 O 200.833 -2.13599 1.67593 0
M  V30 2133 C 199.289 -0.382595 3.57861 0
M  V30 2134 C 198.897 0.892202 4.39026 0
M  V30 2135 C 200.641 -0.9202 4.14406 0
M  V30 2136 C 198.548 0.66388 5.87662 0
M  V30 2137 H 197.478 -0.0734041 0.750418 0
M  V30 2138 H 200.129 0.518552 1.76021 0
M  V30 2139 H 198.511 -1.14946 3.7895 0
M  V30 2140 H 199.685 1.66414 4.29701 0
M  V30 2141 H 198 1.35519 3.9373 0
M  V30 2142 H 200.597 -1.10683 5.23119 0
M  V30 2143 H 200.94 -1.89096 3.70875 0
M  V30 2144 H 201.473 -0.212751 3.97231 0
M  V30 2145 H 198.212 1.6058 6.35527 0
M  V30 2146 H 197.732 -0.0690193 5.9976 0
M  V30 2147 H 199.411 0.300699 6.46301 0
M  V30 2148 N 199.544 -1.57102 0.125237 0
M  V30 2149 C 200.507 -2.14471 -0.80838 0
M  V30 2150 C 201.507 -1.0811 -1.19033 0
M  V30 2151 O 202.697 -1.33856 -1.11482 0
M  V30 2152 C 199.829 -2.69005 -2.09402 0
M  V30 2153 H 201.022 -2.98297 -0.309696 0
M  V30 2154 H 198.575 -1.55807 -0.124051 0
M  V30 2155 H 199.31 -1.88785 -2.63687 0
M  V30 2156 H 199.095 -3.46799 -1.82957 0
M  V30 2157 H 200.585 -3.13278 -2.76128 0
M  V30 2158 N 201.022 0.148545 -1.56898 0
M  V30 2159 C 202.438 0.501131 -1.51528 0
M  V30 2160 C 202.638 1.83458 -0.833399 0
M  V30 2161 O 201.694 2.49259 -0.40328 0
M  V30 2162 C 203.007 0.512864 -2.96294 0
M  V30 2163 C 204.555 0.598487 -3.07225 0
M  V30 2164 C 205.03 0.640897 -4.53494 0
M  V30 2165 N 206.521 0.703163 -4.57832 0
M  V30 2166 C 207.256 0.756935 -5.68382 0
M  V30 2167 N 206.752 0.770147 -6.88506 0
M  V30 2168 N 208.545 0.797698 -5.56411 0
M  V30 2169 H 200.696 -0.725532 -1.99624 0
M  V30 2170 H 202.959 -0.264358 -0.910395 0
M  V30 2171 H 202.665 -0.398691 -3.49433 0
M  V30 2172 H 202.539 1.35133 -3.52163 0
M  V30 2173 H 204.926 1.50046 -2.54106 0
M  V30 2174 H 205.007 -0.267093 -2.54402 0
M  V30 2175 H 204.651 -0.256915 -5.0725 0
M  V30 2176 H 204.581 1.52295 -5.04097 0
M  V30 2177 H 207.072 0.700314 -3.71354 0
M  V30 2178 H 207.385 0.812983 -7.68512 0
M  V30 2179 H 205.73 0.738049 -6.9107 0
M  V30 2180 H 208.921 0.784535 -4.61479 0
M  V30 2181 H 209.094 0.83614 -6.42583 0
M  V30 2182 N 202.5 1.5196 0.417844 0
M  V30 2183 C 203.73 1.69181 1.18581 0
M  V30 2184 C 204.138 0.397104 1.84986 0
M  V30 2185 O 203.481 -0.636011 1.72339 0
M  V30 2186 C 203.543 2.76497 2.29759 0
M  V30 2187 C 203.207 4.18514 1.83563 0
M  V30 2188 C 204.204 5.02648 1.32821 0
M  V30 2189 C 201.889 4.64708 1.90661 0
M  V30 2190 C 203.883 6.31044 0.897894 0
M  V30 2191 C 201.57 5.93096 1.47241 0
M  V30 2192 C 202.568 6.76093 0.968891 0
M  V30 2193 O 202.256 8.02078 0.540924 0
M  V30 2194 H 201.988 0.570457 0.362705 0
M  V30 2195 H 204.542 1.99249 0.498885 0
M  V30 2196 H 202.772 2.41786 3.01789 0
M  V30 2197 H 204.461 2.82403 2.91553 0
M  V30 2198 H 205.227 4.68154 1.26716 0
M  V30 2199 H 201.106 4.00216 2.28797 0
M  V30 2200 H 204.65 6.95776 0.504192 0
M  V30 2201 H 200.547 6.271 1.53022 0
M  V30 2202 H 201.315 8.15794 0.66502 0
M  V30 2203 N 203.978 -0.674533 1.42435 0
M  V30 2204 C 205.226 -1.43175 1.42637 0
M  V30 2205 C 205.547 -1.94951 0.0438992 0
M  V30 2206 O 204.817 -1.7308 -0.917607 0
M  V30 2207 H 203.397 -0.531307 0.525092 0
M  V30 2208 H 206.059 -0.797006 1.77859 0
M  V30 2209 H 205.155 -2.28463 2.12629 0
M  V30 2210 N 205.456 -1.28612 -0.910864 0
M  V30 2211 C 206.704 -1.15705 -1.65701 0
M  V30 2212 C 207.025 0.29416 -1.92769 0
M  V30 2213 O 206.295 1.20331 -1.54588 0
M  V30 2214 H 204.875 -0.425216 -0.614167 0
M  V30 2215 H 207.537 -1.61381 -1.0928 0
M  V30 2216 H 206.633 -1.6988 -2.61815 0
M  V30 2217 N 206.934 1.1197 -1.10907 0
M  V30 2218 C 208.211 1.79959 -0.766432 0
M  V30 2219 C 208.591 1.97466 0.746363 0
M  V30 2220 O 207.939 1.55491 1.67436 0
M  V30 2221 C 208.149 3.14009 -1.52314 0
M  V30 2222 C 209.497 3.89134 -1.69883 0
M  V30 2223 O 210.521 3.2368 -1.48692 0
M  V30 2224 O 209.38 5.06572 -2.05054 0
M  V30 2225 H 206.474 0.779208 -0.277062 0
M  V30 2226 H 209.02 1.18762 -1.21217 0
M  V30 2227 H 207.792 2.96587 -2.55249 0
M  V30 2228 H 207.415 3.82915 -1.07059 0
M  V30 2229 N 208.412 0.89855 1.29475 0
M  V30 2230 C 209.658 0.524658 1.95896 0
M  V30 2231 C 209.991 -0.926468 1.70676 0
M  V30 2232 O 209.266 -1.65665 1.01908 0
M  V30 2233 C 209.549 0.81633 3.50725 0
M  V30 2234 C 209.402 2.31907 3.85408 0
M  V30 2235 C 210.721 0.302038 4.39062 0
M  V30 2236 H 207.84 0.19209 0.711527 0
M  V30 2237 H 210.482 1.12502 1.53112 0
M  V30 2238 H 208.632 0.305369 3.87298 0
M  V30 2239 H 210.304 2.89949 3.58786 0
M  V30 2240 H 208.547 2.78027 3.32992 0
M  V30 2241 H 209.218 2.47373 4.93468 0
M  V30 2242 H 211.694 0.739551 4.09475 0
M  V30 2243 H 210.57 0.535331 5.46283 0
M  V30 2244 H 210.831 -0.797216 4.34853 0
M  V30 2245 N 209.89 -1.43072 0.660911 0
M  V30 2246 C 211.115 -2.06584 0.183805 0
M  V30 2247 C 211.54 -1.49257 -1.14472 0
M  V30 2248 O 210.898 -0.605528 -1.70889 0
M  V30 2249 C 210.946 -3.60418 0.114434 0
M  V30 2250 O 210.05 -4.01981 -0.921137 0
M  V30 2251 H 209.391 -0.656669 0.0983994 0
M  V30 2252 H 211.921 -1.83447 0.906006 0
M  V30 2253 H 211.931 -4.07946 -0.0663394 0
M  V30 2254 H 210.606 -4.01519 1.08422 0
M  V30 2255 H 209.183 -3.66029 -0.71253 0
M  V30 2256 N 211.368 -0.403325 -1.52352 0
M  V30 2257 C 212.315 0.425011 -2.26853 0
M  V30 2258 C 213.285 1.04598 -1.29029 0
M  V30 2259 O 214.47 1.07135 -1.57882 0
M  V30 2260 C 211.61 1.53888 -3.08889 0
M  V30 2261 C 210.723 0.939396 -4.21663 0
M  V30 2262 C 209.858 2.02547 -4.91068 0
M  V30 2263 C 208.897 1.40263 -5.95813 0
M  V30 2264 N 208.034 2.4286 -6.58759 0
M  V30 2265 H 212.874 -0.21674 -2.97211 0
M  V30 2266 H 210.411 -0.118722 -1.4662 0
M  V30 2267 H 212.369 2.19558 -3.54753 0
M  V30 2268 H 210.999 2.15074 -2.40714 0
M  V30 2269 H 210.051 0.171898 -3.80011 0
M  V30 2270 H 211.363 0.44436 -4.96817 0
M  V30 2271 H 210.517 2.75958 -5.40308 0
M  V30 2272 H 209.256 2.55415 -4.15469 0
M  V30 2273 H 208.261 0.653833 -5.45898 0
M  V30 2274 H 209.486 0.881719 -6.73352 0
M  V30 2275 H 207.432 2.94871 -5.85992 0
M  V30 2276 H 207.349 1.98152 -7.2957 0
M  V30 2277 H 208.617 3.15858 -7.12639 0
M  V30 2278 N 212.846 1.57033 -0.133567 0
M  V30 2279 C 213.776 2.1909 0.807567 0
M  V30 2280 C 214.757 1.13517 1.26681 0
M  V30 2281 O 215.942 1.41809 1.32679 0
M  V30 2282 C 213.072 2.80188 2.05212 0
M  V30 2283 C 212.026 3.91471 1.73015 0
M  V30 2284 C 211.352 4.39443 3.04622 0
M  V30 2285 C 212.652 5.12886 0.987168 0
M  V30 2286 H 214.346 2.97988 0.290403 0
M  V30 2287 H 211.892 1.43335 0.138239 0
M  V30 2288 H 213.845 3.22264 2.71521 0
M  V30 2289 H 212.569 1.98601 2.59278 0
M  V30 2290 H 211.228 3.49993 1.0909 0
M  V30 2291 H 210.876 3.54695 3.56651 0
M  V30 2292 H 210.576 5.14495 2.83847 0
M  V30 2293 H 212.1 4.8418 3.72024 0
M  V30 2294 H 213.514 5.51891 1.55208 0
M  V30 2295 H 211.911 5.93615 0.87985 0
M  V30 2296 H 212.981 4.84894 -0.0235286 0
M  V30 2297 N 214.325 -0.140222 1.56975 0
M  V30 2298 C 215.571 -0.852949 1.83991 0
M  V30 2299 C 215.904 -1.80512 0.716187 0
M  V30 2300 O 215.179 -1.92479 -0.279681 0
M  V30 2301 C 215.462 -1.6215 3.21527 0
M  V30 2302 C 215.315 -0.690363 4.4447 0
M  V30 2303 C 216.634 -2.58247 3.56366 0
M  V30 2304 H 213.753 -0.308634 0.669264 0
M  V30 2305 H 216.395 -0.117898 1.89634 0
M  V30 2306 H 214.545 -2.24812 3.16847 0
M  V30 2307 H 216.217 -0.0742264 4.6124 0
M  V30 2308 H 214.46 -0.000396433 4.338 0
M  V30 2309 H 215.131 -1.2643 5.37326 0
M  V30 2310 H 217.607 -2.05701 3.61699 0
M  V30 2311 H 216.483 -3.09067 4.53617 0
M  V30 2312 H 216.744 -3.39923 2.82674 0
M  V30 2313 N 215.803 -1.52179 -0.40978 0
M  V30 2314 C 217.214 -1.58377 -0.988615 0
M  V30 2315 C 217.565 -0.423879 -1.91566 0
M  V30 2316 O 216.69 0.455844 -2.11544 0
M  V30 2317 C 217.285 -2.87044 -1.79976 0
M  V30 2318 C 215.844 -2.95722 -2.32863 0
M  V30 2319 C 214.991 -2.53309 -1.12828 0
M  V30 2320 H 217.942 -1.57558 -0.190039 0
M  V30 2321 H 217.963 -2.7236 -2.65707 0
M  V30 2322 H 217.475 -3.71444 -1.12478 0
M  V30 2323 H 215.576 -2.15814 -3.03735 0
M  V30 2324 H 215.689 -3.99951 -2.63773 0
M  V30 2325 H 214.053 -2.07142 -1.48204 0
M  V30 2326 H 214.836 -3.40082 -0.46897 0
M  V30 2327 N 217.281 0.66697 -1.42791 0
M  V30 2328 C 218.692 1.2478 -1.38877 0
M  V30 2329 C 219.043 1.96012 -0.0859426 0
M  V30 2330 O 218.168 2.00463 0.815081 0
M  V30 2331 C 218.763 2.26938 -2.51564 0
M  V30 2332 C 217.322 2.80529 -2.50959 0
M  V30 2333 C 216.469 1.54965 -2.29959 0
M  V30 2334 H 219.42 0.459853 -1.51892 0
M  V30 2335 H 219.441 3.08834 -2.22265 0
M  V30 2336 H 218.953 1.75065 -3.46372 0
M  V30 2337 H 217.054 3.36502 -1.59991 0
M  V30 2338 H 217.167 3.29012 -3.48265 0
M  V30 2339 H 215.531 1.81817 -1.78366 0
M  V30 2340 H 216.314 1.05047 -3.26833 0
M  V30 2341 N 218.759 1.29093 0.90403 0
M  V30 2342 C 219.722 1.1386 1.98919 0
M  V30 2343 C 220.722 0.0753457 1.60623 0
M  V30 2344 O 221.912 0.321931 1.71199 0
M  V30 2345 C 219.044 0.740198 3.32767 0
M  V30 2346 H 220.237 2.10246 2.13861 0
M  V30 2347 H 217.79 1.12218 1.08797 0
M  V30 2348 H 218.525 -0.223997 3.23525 0
M  V30 2349 H 218.31 1.50838 3.61926 0
M  V30 2350 H 219.8 0.656546 4.12407 0
M  V30 2351 N 220.237 -1.11381 1.11499 0
M  V30 2352 C 221.465 -1.86934 0.88675 0
M  V30 2353 C 221.88 -1.80195 -0.563476 0
M  V30 2354 O 221.237 -1.18367 -1.38908 0
M  V30 2355 C 221.288 -3.35722 1.34064 0
M  V30 2356 O 221.009 -3.4232 2.73401 0
M  V30 2357 C 222.51 -4.2818 1.14791 0
M  V30 2358 H 219.73 -0.591117 0.317523 0
M  V30 2359 H 222.274 -1.40865 1.48248 0
M  V30 2360 H 220.429 -3.79294 0.788355 0
M  V30 2361 H 220.843 -4.34971 2.93087 0
M  V30 2362 H 222.317 -5.30817 1.5145 0
M  V30 2363 H 222.794 -4.39113 0.0875279 0
M  V30 2364 H 223.4 -3.90402 1.68721 0
M  V30 2365 N 221.715 -0.905404 -1.28997 0
M  V30 2366 C 222.645 -0.404212 -2.29975 0
M  V30 2367 C 223.626 0.523784 -1.61835 0
M  V30 2368 O 224.811 0.433298 -1.89304 0
M  V30 2369 C 221.941 0.364042 -3.45387 0
M  V30 2370 C 220.895 -0.474048 -4.25367 0
M  V30 2371 C 220.221 0.422045 -5.33032 0
M  V30 2372 C 221.521 -1.72696 -4.92923 0
M  V30 2373 H 223.215 -1.24807 -2.72146 0
M  V30 2374 H 220.761 -0.601585 -1.30832 0
M  V30 2375 H 222.714 0.725447 -4.15109 0
M  V30 2376 H 221.438 1.24174 -3.02074 0
M  V30 2377 H 220.097 -0.81786 -3.57361 0
M  V30 2378 H 219.745 1.29804 -4.85963 0
M  V30 2379 H 219.445 -0.135057 -5.87445 0
M  V30 2380 H 220.969 0.779517 -6.05604 0
M  V30 2381 H 222.383 -1.43495 -5.55051 0
M  V30 2382 H 220.78 -2.22582 -5.57295 0
M  V30 2383 H 221.85 -2.45964 -4.17887 0
M  V30 2384 N 223.193 1.4272 -0.668489 0
M  V30 2385 C 224.609 1.55992 -0.33745 0
M  V30 2386 C 224.809 1.64933 1.15756 0
M  V30 2387 O 223.865 1.61278 1.94282 0
M  V30 2388 C 225.178 2.81314 -1.06222 0
M  V30 2389 C 226.726 2.95078 -1.04394 0
M  V30 2390 C 227.201 4.23252 -1.74991 0
M  V30 2391 N 228.692 4.3015 -1.71829 0
M  V30 2392 C 229.427 5.28127 -2.23315 0
M  V30 2393 N 228.923 6.32293 -2.83156 0
M  V30 2394 N 230.716 5.19882 -2.13726 0
M  V30 2395 H 222.867 1.3516 -1.63846 0
M  V30 2396 H 225.13 0.650174 -0.689912 0
M  V30 2397 H 224.836 2.80823 -2.11734 0
M  V30 2398 H 224.71 3.72012 -0.62344 0
M  V30 2399 H 227.097 2.951 0.0028244 0
M  V30 2400 H 227.178 2.05627 -1.52155 0
M  V30 2401 H 226.822 4.2399 -2.79633 0
M  V30 2402 H 226.752 5.11626 -1.24685 0
M  V30 2403 H 229.243 3.55499 -1.28175 0
M  V30 2404 H 229.556 7.03398 -3.20079 0
M  V30 2405 H 227.901 6.32873 -2.87223 0
M  V30 2406 H 231.092 4.37423 -1.66669 0
M  V30 2407 H 231.265 5.96077 -2.54158 0
M  V30 2408 N 224.671 0.411399 1.52136 0
M  V30 2409 C 225.634 -0.401089 2.25663 0
M  V30 2410 C 226.634 -0.971732 1.28117 0
M  V30 2411 O 227.824 -0.850254 1.52041 0
M  V30 2412 C 224.956 -1.56483 3.02863 0
M  V30 2413 H 226.149 0.24295 2.98914 0
M  V30 2414 H 223.702 0.163968 1.55438 0
M  V30 2415 H 224.437 -2.24567 2.33967 0
M  V30 2416 H 224.222 -1.16211 3.74483 0
M  V30 2417 H 225.712 -2.13951 3.58629 0
M  V30 2418 N 226.149 -1.5696 0.141893 0
M  V30 2419 C 227.079 -2.19516 -0.795936 0
M  V30 2420 C 228.06 -1.14187 -1.26077 0
M  V30 2421 O 229.245 -1.42511 -1.31925 0
M  V30 2422 C 226.375 -2.81272 -2.03723 0
M  V30 2423 C 225.329 -3.92384 -1.70936 0
M  V30 2424 C 224.655 -4.41052 -3.02287 0
M  V30 2425 C 225.955 -5.13403 -0.959954 0
M  V30 2426 H 227.649 -2.98138 -0.274596 0
M  V30 2427 H 225.195 -1.43406 -0.130636 0
M  V30 2428 H 227.148 -3.237 -2.69808 0
M  V30 2429 H 225.872 -1.99973 -2.58221 0
M  V30 2430 H 224.531 -3.50566 -1.07232 0
M  V30 2431 H 224.179 -3.56582 -3.54765 0
M  V30 2432 H 223.879 -5.15993 -2.81114 0
M  V30 2433 H 225.403 -4.86146 -3.69451 0
M  V30 2434 H 226.817 -5.52706 -1.52279 0
M  V30 2435 H 225.214 -5.94073 -0.848357 0
M  V30 2436 H 226.284 -4.84875 0.0492434 0
M  V30 2437 N 227.627 0.131896 -1.57047 0
M  V30 2438 C 228.574 1.16236 -1.99393 0
M  V30 2439 C 229.544 1.41863 -0.863943 0
M  V30 2440 O 230.729 1.53946 -1.12718 0
M  V30 2441 C 227.869 2.48708 -2.39245 0
M  V30 2442 C 226.982 2.30127 -3.65603 0
M  V30 2443 C 226.117 3.55738 -3.94492 0
M  V30 2444 C 225.156 3.32259 -5.14073 0
M  V30 2445 N 224.293 4.50039 -5.38896 0
M  V30 2446 H 229.133 0.794251 -2.87221 0
M  V30 2447 H 226.67 0.380707 -1.42088 0
M  V30 2448 H 228.628 3.25969 -2.60384 0
M  V30 2449 H 227.258 2.83437 -1.54478 0
M  V30 2450 H 226.31 1.43845 -3.52154 0
M  V30 2451 H 227.622 2.08746 -4.5302 0
M  V30 2452 H 226.776 4.41423 -4.1621 0
M  V30 2453 H 225.515 3.80138 -3.05526 0
M  V30 2454 H 224.52 2.44963 -4.92212 0
M  V30 2455 H 225.745 3.09242 -6.04604 0
M  V30 2456 H 223.691 4.74584 -4.52886 0
M  V30 2457 H 223.608 4.31716 -6.2061 0
M  V30 2458 H 224.876 5.36895 -5.65123 0
M  V30 2459 N 229.106 1.52395 0.401703 0
M  V30 2460 C 230.069 1.75636 1.47257 0
M  V30 2461 C 231.069 0.62628 1.48103 0
M  V30 2462 O 232.259 0.894227 1.49497 0
M  V30 2463 C 229.391 1.84553 2.86624 0
M  V30 2464 H 230.584 2.71241 1.27938 0
M  V30 2465 H 228.137 1.42923 0.632662 0
M  V30 2466 H 228.872 0.908882 3.11303 0
M  V30 2467 H 228.657 2.66715 2.87412 0
M  V30 2468 H 230.147 2.04251 3.64241 0
M  V30 2469 N 230.584 -0.659388 1.43143 0
M  V30 2470 C 231.531 -1.77249 1.47822 0
M  V30 2471 C 232.501 -1.62818 0.328558 0
M  V30 2472 O 233.686 -1.83151 0.534838 0
M  V30 2473 C 230.826 -3.15371 1.40126 0
M  V30 2474 C 229.939 -3.4098 2.65249 0
M  V30 2475 C 229.074 -4.68915 2.49584 0
M  V30 2476 C 228.113 -4.87608 3.70006 0
M  V30 2477 N 227.25 -6.06796 3.53189 0
M  V30 2478 H 232.09 -1.72584 2.42938 0
M  V30 2479 H 229.627 -0.842297 1.20598 0
M  V30 2480 H 231.585 -3.9521 1.33659 0
M  V30 2481 H 230.215 -3.19121 0.485964 0
M  V30 2482 H 229.267 -2.55282 2.8202 0
M  V30 2483 H 230.579 -3.50681 3.54717 0
M  V30 2484 H 229.733 -5.56871 2.4079 0
M  V30 2485 H 228.472 -4.61524 1.5763 0
M  V30 2486 H 227.477 -3.9809 3.79215 0
M  V30 2487 H 228.702 -4.96834 4.62961 0
M  V30 2488 H 226.648 -6.00549 2.63965 0
M  V30 2489 H 226.565 -6.17428 4.36255 0
M  V30 2490 H 227.833 -6.9739 3.48236 0
M  V30 2491 N 232.062 -1.29571 -0.897171 0
M  V30 2492 C 232.992 -1.17473 -2.01798 0
M  V30 2493 C 233.973 -0.068323 -1.69963 0
M  V30 2494 O 235.158 -0.248239 -1.92607 0
M  V30 2495 C 232.288 -0.853099 -3.36659 0
M  V30 2496 C 231.242 -1.9161 -3.82713 0
M  V30 2497 C 230.568 -1.44773 -5.14728 0
M  V30 2498 C 231.868 -3.32535 -4.02763 0
M  V30 2499 H 233.562 -2.11237 -2.12177 0
M  V30 2500 H 231.108 -1.01699 -1.01948 0
M  V30 2501 H 233.061 -0.755165 -4.14578 0
M  V30 2502 H 231.785 0.120236 -3.26379 0
M  V30 2503 H 230.444 -2.00346 -3.07013 0
M  V30 2504 H 230.092 -0.462995 -5.00865 0
M  V30 2505 H 229.792 -2.15865 -5.46513 0
M  V30 2506 H 231.316 -1.36334 -5.95185 0
M  V30 2507 H 232.73 -3.26626 -4.71156 0
M  V30 2508 H 231.127 -4.01607 -4.45905 0
M  V30 2509 H 232.197 -3.75326 -3.07016 0
M  V30 2510 N 233.54 1.10788 -1.12088 0
M  V30 2511 C 234.788 1.8231 -0.872205 0
M  V30 2512 C 235.109 1.85419 0.603709 0
M  V30 2513 O 234.379 1.32963 1.43867 0
M  V30 2514 H 232.959 0.675137 -0.319686 0
M  V30 2515 H 235.621 1.34068 -1.41463 0
M  V30 2516 H 234.717 2.85955 -1.25045 0
M  V30 2517 N 235.018 0.912232 1.28515 0
M  V30 2518 C 235.95 0.35676 2.26406 0
M  V30 2519 C 236.963 -0.503933 1.54804 0
M  V30 2520 O 238.152 -0.319059 1.75625 0
M  V30 2521 C 235.252 -0.508825 3.35058 0
M  V30 2522 C 234.425 0.329007 4.36161 0
M  V30 2523 C 233.484 -0.471422 5.24084 0
M  V30 2524 O 232.51 0.115482 5.69083 0
M  V30 2525 N 233.712 -1.77479 5.52704 0
M  V30 2526 H 236.477 1.19818 2.74707 0
M  V30 2527 H 234.038 0.778022 1.4198 0
M  V30 2528 H 236.03 -1.051 3.90815 0
M  V30 2529 H 234.6 -1.25095 2.86478 0
M  V30 2530 H 233.82 1.05256 3.79888 0
M  V30 2531 H 235.108 0.90234 5.00735 0
M  V30 2532 H 234.506 -2.27417 5.17975 0
M  V30 2533 H 233.063 -2.26382 6.11224 0
M  V30 2534 O 236.535 -1.39418 0.815163 0
M  V30 2535 H 237.226 -1.89641 0.394473 0
M  V30 END ATOM
M  V30 BEGIN BOND
M  V30 END BOND
M  V30 END CTAB
M  END
$$$$
