drugbank_target|P43115 Prostaglandin E2 receptor EP3 subtype (DB00905; DB00917; DB00929; DB08964; DB09211; DB11113)
 OpenBabel12092120103D

  0  0  0     0  0            999 V3000
M  V30 BEGIN CTAB
M  V30 COUNTS 6137 6210 0 0 0
M  V30 BEGIN ATOM
M  V30 1 H -0.908 1.98254 -0.117106 0
M  V30 2 N 0 1.576 0 0
M  V30 3 C 0.933 2.03868 1.02534 0
M  V30 4 C 1.911 0.928543 1.3348 0
M  V30 5 O 3.095 1.19667 1.45644 0
M  V30 6 C 0.222 2.43627 2.35294 0
M  V30 7 C -0.732 3.65373 2.2001 0
M  V30 8 S 0.101 5.13292 1.52614 0
M  V30 9 C 1.257 5.56322 2.86805 0
M  V30 10 H 1.49 2.90518 0.631377 0
M  V30 11 H -0.977 1.52953 0.210867 0
M  V30 12 H 0.981 2.67203 3.11629 0
M  V30 13 H -0.358 1.57376 2.7183 0
M  V30 14 H -1.165 3.90944 3.18086 0
M  V30 15 H -1.563 3.418 1.51819 0
M  V30 16 H 0.729 5.58782 3.83104 0
M  V30 17 H 1.672 6.56266 2.65933 0
M  V30 18 H 2.08 4.83886 2.90714 0
M  V30 19 N 1.4781 -0.272755 1.55222 0
M  V30 20 C 2.4251 -1.33716 1.88119 0
M  V30 21 C 3.3951 -1.49066 0.73271 0
M  V30 22 O 4.5801 -1.63469 0.984002 0
M  V30 23 C 1.7201 -2.69238 2.15882 0
M  V30 24 C 0.8331 -2.62108 3.43399 0
M  V30 25 C -0.0319 -3.89811 3.60861 0
M  V30 26 C -0.9929 -3.77193 4.8207 0
M  V30 27 N -1.8559 -4.9673 4.96189 0
M  V30 28 H 2.9841 -1.04962 2.78903 0
M  V30 29 H 0.5211 -0.507088 1.38083 0
M  V30 30 H 2.4791 -3.48089 2.29978 0
M  V30 31 H 1.1091 -2.96194 1.28331 0
M  V30 32 H 0.1611 -1.74967 3.37773 0
M  V30 33 H 1.4731 -2.48685 4.32386 0
M  V30 34 H 0.6271 -4.77103 3.74777 0
M  V30 35 H -0.6339 -4.06102 2.7006 0
M  V30 36 H -1.6289 -2.88284 4.68159 0
M  V30 37 H -0.4039 -3.62421 5.74307 0
M  V30 38 H -2.4579 -5.13431 4.08319 0
M  V30 39 H -2.5409 -4.85839 5.79221 0
M  V30 40 H -1.2729 -5.85594 5.1449 0
M  V30 41 N 2.9562 -1.48159 -0.537278 0
M  V30 42 C 3.8662 -1.64807 -1.6696 0
M  V30 43 C 4.8822 -0.530651 -1.65711 0
M  V30 44 O 6.0582 -0.800784 -1.84796 0
M  V30 45 C 3.1232 -1.67708 -3.03438 0
M  V30 46 C 2.1842 -2.91025 -3.156 0
M  V30 47 C 1.4172 -2.93778 -4.45567 0
M  V30 48 O 1.6402 -2.05153 -5.3223 0
M  V30 49 O 0.5742 -3.85868 -4.61941 0
M  V30 50 H 4.4002 -2.6066 -1.55853 0
M  V30 51 H 1.9852 -1.31475 -0.709549 0
M  V30 52 H 3.8672 -1.7218 -3.84619 0
M  V30 53 H 2.5422 -0.750278 -3.14885 0
M  V30 54 H 1.4492 -2.92089 -2.33741 0
M  V30 55 H 2.7822 -3.83065 -3.09066 0
M  V30 56 N 4.4343 0.785586 -1.36625 0
M  V30 57 C 5.6623 1.57448 -1.3423 0
M  V30 58 C 6.0773 1.88649 0.0755653 0
M  V30 59 O 5.4343 1.50414 1.03354 0
M  V30 60 C 5.4853 2.89316 -2.16745 0
M  V30 61 O 5.2063 2.59459 -3.53005 0
M  V30 62 C 6.7073 3.83606 -2.22174 0
M  V30 63 H 3.9273 0.488226 -0.4603 0
M  V30 64 H 6.4713 0.974733 -1.79775 0
M  V30 65 H 4.6263 3.4575 -1.74745 0
M  V30 66 H 5.0403 3.43804 -3.96105 0
M  V30 67 H 6.5143 4.73181 -2.8426 0
M  V30 68 H 6.9913 4.21734 -1.22627 0
M  V30 69 H 7.5973 3.33104 -2.64427 0
M  V30 70 N 5.9124 1.20967 1.01018 0
M  V30 71 C 7.3284 0.965905 1.27053 0
M  V30 72 C 7.5284 -0.350785 1.98423 0
M  V30 73 O 6.5844 -1.07773 2.28344 0
M  V30 74 C 7.8974 2.15294 2.09926 0
M  V30 75 C 9.4454 2.19463 2.23171 0
M  V30 76 C 9.9204 3.3767 3.09424 0
M  V30 77 N 11.4114 3.37724 3.17012 0
M  V30 78 C 12.1464 4.25837 3.83993 0
M  V30 79 N 11.6424 5.24138 4.53047 0
M  V30 80 N 13.4354 4.1366 3.80581 0
M  V30 81 H 5.5864 2.0565 0.531194 0
M  V30 82 H 7.8494 0.90024 0.297106 0
M  V30 83 H 7.5554 3.10684 1.64828 0
M  V30 84 H 7.4294 2.13923 3.10672 0
M  V30 85 H 9.8164 1.24632 2.6749 0
M  V30 86 H 9.8974 2.2488 1.21912 0
M  V30 87 H 9.5414 4.32791 2.65808 0
M  V30 88 H 9.4714 3.29491 4.10784 0
M  V30 89 H 11.9624 2.6658 2.6785 0
M  V30 90 H 12.2754 5.87684 5.01844 0
M  V30 91 H 10.6204 5.28068 4.5185 0
M  V30 92 H 13.8114 3.36127 3.25785 0
M  V30 93 H 13.9844 4.82538 4.32505 0
M  V30 94 N 7.3905 -1.2043 1.01659 0
M  V30 95 C 8.6385 -1.89423 0.704522 0
M  V30 96 C 8.9595 -1.79231 -0.768197 0
M  V30 97 O 8.2295 -1.1947 -1.55254 0
M  V30 98 H 6.8095 -0.701178 0.257602 0
M  V30 99 H 9.4715 -1.4626 1.28818 0
M  V30 100 H 8.5675 -2.96052 0.987916 0
M  V30 101 N 8.8686 -0.792821 -1.36206 0
M  V30 102 C 10.0986 -0.378275 -2.03107 0
M  V30 103 C 10.5066 1.01119 -1.59911 0
M  V30 104 O 9.8496 1.66052 -0.785658 0
M  V30 105 C 9.9116 -0.366535 -3.57627 0
M  V30 106 C 9.5756 -1.70416 -4.24037 0
M  V30 107 C 10.5726 -2.6602 -4.46687 0
M  V30 108 C 8.2576 -1.98439 -4.6144 0
M  V30 109 C 10.2516 -3.8784 -5.05825 0
M  V30 110 C 7.9386 -3.20525 -5.20295 0
M  V30 111 C 8.9366 -4.15044 -5.42427 0
M  V30 112 O 8.6246 -5.34978 -6.00045 0
M  V30 113 H 8.3566 -0.153543 -0.658332 0
M  V30 114 H 10.9106 -1.07383 -1.75094 0
M  V30 115 H 9.1406 0.385539 -3.84773 0
M  V30 116 H 10.8296 0.0238088 -4.05893 0
M  V30 117 H 11.5956 -2.45658 -4.18183 0
M  V30 118 H 7.4746 -1.25686 -4.43536 0
M  V30 119 H 11.0186 -4.61628 -5.23015 0
M  V30 120 H 6.9156 -3.40764 -5.48225 0
M  V30 121 H 7.6836 -5.36088 -6.18508 0
M  V30 122 N 10.3467 1.47872 -0.545128 0
M  V30 123 C 11.5947 2.02093 -0.016553 0
M  V30 124 C 11.9157 1.42305 1.3332 0
M  V30 125 O 11.1857 0.593853 1.86682 0
M  V30 126 H 9.7657 0.746993 -0.00313038 0
M  V30 127 H 12.4277 1.81414 -0.712397 0
M  V30 128 H 11.5237 3.11996 0.0805422 0
M  V30 129 N 11.8248 0.280983 1.55075 0
M  V30 130 C 13.0728 -0.333455 1.9933 0
M  V30 131 C 13.3938 -1.55937 1.17085 0
M  V30 132 O 12.6638 -1.94143 0.261805 0
M  V30 133 H 11.2438 -0.126197 0.736263 0
M  V30 134 H 13.9058 0.387678 1.91005 0
M  V30 135 H 13.0018 -0.619292 3.05894 0
M  V30 136 N 13.3029 -1.57598 0.00835791 0
M  V30 137 C 14.5799 -1.82172 -0.712235 0
M  V30 138 C 14.9599 -0.887873 -1.9152 0
M  V30 139 O 14.3079 0.06146 -2.28417 0
M  V30 140 C 14.5179 -3.30875 -1.11008 0
M  V30 141 C 15.8659 -3.96826 -1.51044 0
M  V30 142 O 16.8899 -3.35248 -1.20364 0
M  V30 143 O 15.7489 -5.05318 -2.08125 0
M  V30 144 H 12.8429 -0.750435 -0.347529 0
M  V30 145 H 15.3889 -1.69665 0.0344523 0
M  V30 146 H 14.1609 -3.90481 -0.252982 0
M  V30 147 H 13.7839 -3.48412 -1.9156 0
M  V30 148 N 14.781 0.264519 -1.55364 0
M  V30 149 C 15.744 1.31046 -1.88042 0
M  V30 150 C 16.744 1.41943 -0.755569 0
M  V30 151 O 17.934 1.40947 -1.02369 0
M  V30 152 C 15.066 2.69067 -2.09323 0
M  V30 153 H 16.259 1.03297 -2.81549 0
M  V30 154 H 13.812 0.502989 -1.47986 0
M  V30 155 H 14.547 3.01982 -1.18226 0
M  V30 156 H 14.332 2.62542 -2.91229 0
M  V30 157 H 15.822 3.44623 -2.35848 0
M  V30 158 N 16.2591 1.48442 0.529413 0
M  V30 159 C 17.6701 1.5002 1.11134 0
M  V30 160 C 18.0211 0.27031 1.94329 0
M  V30 161 O 17.1461 -0.622507 2.07253 0
M  V30 162 C 17.7411 2.71834 2.02217 0
M  V30 163 C 16.3001 2.76283 2.55627 0
M  V30 164 C 15.4471 2.43542 1.326 0
M  V30 165 H 18.3981 1.5555 0.314641 0
M  V30 166 H 18.4191 2.50384 2.8651 0
M  V30 167 H 17.9311 3.61331 1.41639 0
M  V30 168 H 16.0321 1.90995 3.19924 0
M  V30 169 H 16.1451 3.77725 2.94721 0
M  V30 170 H 14.5091 1.94709 1.64196 0
M  V30 171 H 15.2921 3.3528 0.737734 0
M  V30 172 N 17.7372 -0.778329 1.37039 0
M  V30 173 C 18.9842 -1.53665 1.31884 0
M  V30 174 C 19.3122 -1.9425 -0.0986303 0
M  V30 175 O 18.5672 -1.63832 -1.07041 0
M  V30 176 C 18.8662 -2.81845 2.19768 0
M  V30 177 C 18.5322 -2.60345 3.68146 0
M  V30 178 C 17.1942 -2.5419 4.08584 0
M  V30 179 C 19.5462 -2.40923 4.62175 0
M  V30 180 C 16.8742 -2.26594 5.41177 0
M  V30 181 C 19.2262 -2.14852 5.94997 0
M  V30 182 C 17.8902 -2.07137 6.34547 0
M  V30 183 H 17.1602 -0.562299 0.482598 0
M  V30 184 H 19.8072 -0.897069 1.69189 0
M  V30 185 H 18.1122 -3.50328 1.75436 0
M  V30 186 H 19.8092 -3.39692 2.13097 0
M  V30 187 H 16.3992 -2.65996 3.36072 0
M  V30 188 H 20.5832 -2.44673 4.31797 0
M  V30 189 H 15.8392 -2.19111 5.70789 0
M  V30 190 H 20.0132 -1.98822 6.67415 0
M  V30 191 H 17.6402 -1.85518 7.37216 0
M  V30 192 N 19.2153 -1.21501 -1.00376 0
M  V30 193 C 20.4553 -1.04444 -1.75701 0
M  V30 194 C 20.8193 0.414644 -1.87469 0
M  V30 195 O 22.0203 0.705763 -2.59369 0
M  V30 196 C 20.2913 -1.72389 -3.13077 0
M  V30 197 S 21.8503 -1.70604 -4.04277 0
M  V30 198 H 18.6683 -0.374249 -0.604532 0
M  V30 199 H 21.2703 -1.54267 -1.20091 0
M  V30 200 H 19.9743 -2.77734 -3.02146 0
M  V30 201 H 19.5053 -1.22751 -3.73759 0
M  V30 202 H 21.5203 -0.748012 -4.9053 0
M  V30 203 N 20.6934 1.19889 -1.02296 0
M  V30 204 C 21.9214 1.9339 -0.735399 0
M  V30 205 C 22.3364 1.75148 0.704887 0
M  V30 206 O 21.6934 1.06954 1.47875 0
M  V30 207 C 21.7444 3.45313 -1.06962 0
M  V30 208 O 21.4654 3.62964 -2.45334 0
M  V30 209 C 22.9664 4.35948 -0.804021 0
M  V30 210 H 20.1864 0.61448 -0.269546 0
M  V30 211 H 22.7304 1.522 -1.36585 0
M  V30 212 H 20.8854 3.84359 -0.484455 0
M  V30 213 H 21.2994 4.56886 -2.57595 0
M  V30 214 H 22.7734 5.41174 -1.0879 0
M  V30 215 H 23.2504 4.3842 0.261691 0
M  V30 216 H 23.8564 4.02574 -1.37164 0
M  V30 217 N 22.1715 0.800033 1.35784 0
M  V30 218 C 23.5875 0.482977 1.52117 0
M  V30 219 C 23.7875 -0.996948 1.75109 0
M  V30 220 O 22.8435 -1.78216 1.78872 0
M  V30 221 C 24.1565 1.32264 2.70049 0
M  V30 222 C 25.7045 1.31742 2.83924 0
M  V30 223 C 26.1795 2.14106 4.04874 0
M  V30 224 N 27.6705 2.11607 4.12039 0
M  V30 225 C 28.4055 2.72099 5.04727 0
M  V30 226 N 27.9015 3.41492 6.02789 0
M  V30 227 N 29.6945 2.61776 4.97423 0
M  V30 228 H 21.8455 1.75856 1.19115 0
M  V30 229 H 24.1085 0.748122 0.582252 0
M  V30 230 H 23.8145 2.37261 2.59616 0
M  V30 231 H 23.6885 0.971303 3.6448 0
M  V30 232 H 26.0755 0.275333 2.93813 0
M  V30 233 H 26.1565 1.70859 1.9037 0
M  V30 234 H 25.8005 3.18351 3.95746 0
M  V30 235 H 25.7305 1.72353 4.97596 0
M  V30 236 H 28.2215 1.61112 3.41835 0
M  V30 237 H 28.5345 3.84953 6.70098 0
M  V30 238 H 26.8795 3.45596 6.02983 0
M  V30 239 H 30.0705 2.07157 4.19766 0
M  V30 240 H 30.2435 3.0921 5.69468 0
M  V30 241 N 23.6496 -1.47581 0.552962 0
M  V30 242 C 24.5796 -2.32762 -0.185451 0
M  V30 243 C 25.5606 -1.43527 -0.912905 0
M  V30 244 O 26.7456 -1.72388 -0.894201 0
M  V30 245 C 23.8756 -3.25219 -1.21859 0
M  V30 246 C 22.8296 -4.23661 -0.607864 0
M  V30 247 C 22.1556 -5.05413 -1.74533 0
M  V30 248 C 23.4556 -5.20481 0.435582 0
M  V30 249 H 25.1496 -2.94749 0.525684 0
M  V30 250 H 22.6956 -1.41738 0.254251 0
M  V30 251 H 24.6486 -3.8365 -1.7433 0
M  V30 252 H 23.3726 -2.61279 -1.95961 0
M  V30 253 H 22.0316 -3.66451 -0.104489 0
M  V30 254 H 21.6796 -4.3788 -2.47529 0
M  V30 255 H 21.3796 -5.72059 -1.34249 0
M  V30 256 H 22.9036 -5.66701 -2.27338 0
M  V30 257 H 24.3176 -5.733 -0.00290157 0
M  V30 258 H 22.7146 -5.95305 0.757067 0
M  V30 259 H 23.7846 -4.66217 1.33303 0
M  V30 260 N 25.1277 -0.289203 -1.54924 0
M  V30 261 C 26.0757 0.607966 -2.24514 0
M  V30 262 C 27.0697 1.14655 -1.24702 0
M  V30 263 O 28.2757 1.09856 -1.4259 0
M  V30 264 H 24.6507 0.21464 -0.720718 0
M  V30 265 H 26.6217 -0.00164182 -2.984 0
M  V30 266 C 25.3707 1.77406 -2.99036 0
M  V30 267 H 24.6937 1.36884 -3.75637 0
M  V30 268 H 26.1337 2.37814 -3.51028 0
M  V30 269 C 24.5927 2.67107 -2.05318 0
M  V30 270 O 25.1227 3.6787 -1.61353 0
M  V30 271 N 23.3287 2.34582 -1.71521 0
M  V30 272 H 22.8757 1.52688 -2.07471 0
M  V30 273 H 22.8337 2.94867 -1.0909 0
M  V30 274 N 26.6058 1.57591 -0.0167156 0
M  V30 275 C 27.5558 2.05953 0.978137 0
M  V30 276 C 28.5398 0.957532 1.29306 0
M  V30 277 O 29.7318 1.22119 1.28125 0
M  V30 278 C 26.8608 2.58006 2.26468 0
M  V30 279 C 25.9468 3.75113 1.97867 0
M  V30 280 N 26.3378 4.86187 1.39486 0
M  V30 281 C 24.6358 3.83363 2.27924 0
M  V30 282 C 25.3368 5.67502 1.27735 0
M  V30 283 N 24.3128 5.14023 1.76866 0
M  V30 284 H 28.1148 2.89236 0.521522 0
M  V30 285 H 25.6288 1.61301 0.188596 0
M  V30 286 H 27.6258 2.90937 2.98599 0
M  V30 287 H 26.2858 1.76148 2.72767 0
M  V30 288 H 27.2968 5.06695 1.07147 0
M  V30 289 H 23.9738 3.1239 2.76982 0
M  V30 290 H 25.3638 6.66791 0.826978 0
M  V30 291 N 28.0839 -0.256276 1.55502 0
M  V30 292 C 29.3089 -1.00766 1.81276 0
M  V30 293 C 29.7339 -1.78524 0.59252 0
M  V30 294 O 29.0919 -1.75413 -0.45827 0
M  V30 295 C 29.1399 -1.92869 3.04687 0
M  V30 296 O 28.2439 -3.019 2.80945 0
M  V30 297 H 27.5849 -0.287224 0.598664 0
M  V30 298 H 30.1149 -0.280109 2.02674 0
M  V30 299 H 30.1249 -2.34511 3.33869 0
M  V30 300 H 28.7999 -1.35689 3.93143 0
M  V30 301 H 27.3769 -2.64454 2.62904 0
M  V30 302 N 29.562 -1.4872 -0.521534 0
M  V30 303 C 30.792 -1.6061 -1.29954 0
M  V30 304 C 31.2 -0.268728 -1.87282 0
M  V30 305 O 30.543 0.753221 -1.67548 0
M  V30 306 C 30.605 -2.60013 -2.48261 0
M  V30 307 C 30.269 -4.04874 -2.11957 0
M  V30 308 C 31.266 -4.92304 -1.67132 0
M  V30 309 C 28.951 -4.5047 -2.22221 0
M  V30 310 C 30.945 -6.2336 -1.33047 0
M  V30 311 C 28.632 -5.81544 -1.87748 0
M  V30 312 C 29.63 -6.67812 -1.43234 0
M  V30 313 O 29.318 -7.96446 -1.09217 0
M  V30 314 H 29.05 -0.544116 -0.401141 0
M  V30 315 H 31.604 -1.95339 -0.634958 0
M  V30 316 H 29.834 -2.20422 -3.17728 0
M  V30 317 H 31.523 -2.61648 -3.10315 0
M  V30 318 H 32.289 -4.58312 -1.58665 0
M  V30 319 H 28.168 -3.83504 -2.55823 0
M  V30 320 H 31.712 -6.90649 -0.982299 0
M  V30 321 H 27.609 -6.15069 -1.95858 0
M  V30 322 H 28.377 -8.09275 -1.22542 0
M  V30 323 N 31.0401 0.771051 -1.3745 0
M  V30 324 C 32.2681 1.56015 -1.35893 0
M  V30 325 C 32.6831 1.88718 0.0555523 0
M  V30 326 O 32.0401 1.51502 1.01752 0
M  V30 327 C 32.0911 2.87001 -2.19801 0
M  V30 328 O 31.8121 2.557 -3.55738 0
M  V30 329 C 33.3131 3.81228 -2.26231 0
M  V30 330 H 30.5331 0.483317 -0.465453 0
M  V30 331 H 33.0771 0.955611 -1.80799 0
M  V30 332 H 31.2321 3.43877 -1.78402 0
M  V30 333 H 31.6461 3.39584 -3.99729 0
M  V30 334 H 33.1201 4.70139 -2.89263 0
M  V30 335 H 33.5971 4.20409 -1.27093 0
M  V30 336 H 34.2031 3.30281 -2.67945 0
M  V30 337 N 32.5182 1.22032 0.997298 0
M  V30 338 C 33.7662 1.04016 1.73278 0
M  V30 339 C 34.0872 -0.426255 1.90284 0
M  V30 340 O 33.3572 -1.30694 1.45931 0
M  V30 341 H 31.9372 0.381897 0.642 0
M  V30 342 H 34.5992 1.5347 1.20137 0
M  V30 343 H 33.6952 1.51441 2.72896 0
M  V30 344 N 33.9963 -1.19345 1.0293 0
M  V30 345 C 34.9293 -2.21347 0.555029 0
M  V30 346 C 35.9073 -1.57492 -0.404351 0
M  V30 347 O 37.0913 -1.85741 -0.321352 0
M  V30 348 C 34.2183 -3.38163 -0.19064 0
M  V30 349 C 33.2643 -4.20375 0.720236 0
M  V30 350 S 34.0973 -4.88371 2.19668 0
M  V30 351 C 35.2533 -6.08597 1.46153 0
M  V30 352 H 35.4863 -2.61235 1.41929 0
M  V30 353 H 33.0193 -1.29598 0.839272 0
M  V30 354 H 34.9773 -4.05871 -0.614724 0
M  V30 355 H 33.6383 -2.9671 -1.03063 0
M  V30 356 H 32.8313 -5.03793 0.14455 0
M  V30 357 H 32.4333 -3.57987 1.08266 0
M  V30 358 H 34.7253 -6.73354 0.748357 0
M  V30 359 H 35.6683 -6.7065 2.27233 0
M  V30 360 H 36.0763 -5.56297 0.958842 0
M  V30 361 N 35.4744 -0.807222 -1.35358 0
M  V30 362 C 36.7204 -0.397594 -1.99476 0
M  V30 363 C 37.0754 1.02405 -1.62883 0
M  V30 364 O 36.3684 1.70077 -0.882282 0
M  V30 365 C 36.5624 -0.519036 -3.53611 0
M  V30 366 C 36.3914 -1.95094 -4.05177 0
M  V30 367 C 35.1614 -2.57945 -4.34503 0
M  V30 368 C 37.3594 -2.91558 -4.23673 0
M  V30 369 N 35.3414 -3.92539 -4.72003 0
M  V30 370 C 36.7124 -4.11024 -4.64176 0
M  V30 371 C 38.7674 -2.88381 -4.05883 0
M  V30 372 C 37.4704 -5.27745 -4.88751 0
M  V30 373 C 39.4964 -4.04306 -4.31614 0
M  V30 374 C 38.8584 -5.22519 -4.72391 0
M  V30 375 H 34.9574 -0.193274 -0.75774 0
M  V30 376 H 37.5414 -1.0486 -1.6405 0
M  V30 377 H 35.7124 0.101979 -3.88266 0
M  V30 378 H 37.4444 -0.0839321 -4.04613 0
M  V30 379 H 34.1994 -2.09295 -4.24844 0
M  V30 380 H 34.6234 -4.61836 -4.95011 0
M  V30 381 H 39.2654 -1.98137 -3.73499 0
M  V30 382 H 36.9834 -6.1856 -5.20008 0
M  V30 383 H 40.5694 -4.03229 -4.19402 0
M  V30 384 H 39.4494 -6.1073 -4.91913 0
M  V30 385 N 36.9525 1.47285 -0.560781 0
M  V30 386 C 37.9155 2.28535 0.174488 0
M  V30 387 C 38.9155 1.37153 0.839388 0
M  V30 388 O 40.1055 1.59748 0.694702 0
M  V30 389 C 37.2375 3.16934 1.25561 0
M  V30 390 H 38.4305 2.95012 -0.539262 0
M  V30 391 H 35.9835 1.53034 -0.317865 0
M  V30 392 H 36.7185 2.55157 2.00164 0
M  V30 393 H 36.5035 3.8419 0.783604 0
M  V30 394 H 37.9935 3.78143 1.77193 0
M  V30 395 N 38.4306 0.297415 1.54768 0
M  V30 396 C 39.8416 -0.195947 1.85669 0
M  V30 397 C 40.1926 -1.53707 1.21937 0
M  V30 398 O 39.3176 -2.10164 0.515754 0
M  V30 399 C 39.9126 -0.362318 3.36857 0
M  V30 400 C 38.4716 -0.799901 3.67802 0
M  V30 401 C 37.6186 0.0938578 2.77141 0
M  V30 402 H 40.5696 0.518538 1.4999 0
M  V30 403 H 40.5906 -1.19745 3.61167 0
M  V30 404 H 40.1026 0.613921 3.83214 0
M  V30 405 H 38.2036 -1.78682 3.26961 0
M  V30 406 H 38.3166 -0.621773 4.75048 0
M  V30 407 H 36.6806 -0.426254 2.51108 0
M  V30 408 H 37.4636 1.06639 3.26318 0
M  V30 409 N 39.9087 -1.5758 0.0250728 0
M  V30 410 C 40.8187 -2.1343 -0.973905 0
M  V30 411 C 41.8347 -1.08556 -1.35984 0
M  V30 412 O 43.0107 -1.40592 -1.44207 0
M  V30 413 C 40.0757 -2.64703 -2.23904 0
M  V30 414 C 39.1367 -3.84276 -1.91391 0
M  V30 415 C 38.3697 -4.33095 -3.11873 0
M  V30 416 O 38.5927 -3.81107 -4.24398 0
M  V30 417 O 37.5267 -5.24984 -2.94406 0
M  V30 418 H 41.3527 -2.99057 -0.529036 0
M  V30 419 H 38.9377 -1.48118 -0.195288 0
M  V30 420 H 40.8197 -2.97769 -2.98181 0
M  V30 421 H 39.4947 -1.82161 -2.6758 0
M  V30 422 H 38.4017 -3.56143 -1.14511 0
M  V30 423 H 39.7347 -4.67968 -1.52534 0
M  V30 424 N 41.3868 0.248026 -1.55636 0
M  V30 425 C 42.8028 0.596483 -1.48035 0
M  V30 426 C 43.0028 1.88386 -0.715039 0
M  V30 427 O 42.0588 2.51319 -0.243944 0
M  V30 428 C 43.3718 0.700258 -2.92433 0
M  V30 429 C 44.9198 0.792659 -3.02797 0
M  V30 430 C 45.3948 0.928005 -4.485 0
M  V30 431 N 46.8858 0.992903 -4.52433 0
M  V30 432 C 47.6208 1.11687 -5.62418 0
M  V30 433 N 47.1168 1.20645 -6.82214 0
M  V30 434 N 48.9098 1.14994 -5.50212 0
M  V30 435 H 41.0608 -0.597109 -2.03834 0
M  V30 436 H 43.3238 -0.205925 -0.925364 0
M  V30 437 H 43.0298 -0.175658 -3.51261 0
M  V30 438 H 42.9038 1.57255 -3.42857 0
M  V30 439 H 45.2908 1.65903 -2.4405 0
M  V30 440 H 45.3718 -0.104762 -2.55585 0
M  V30 441 H 45.0158 0.0661971 -5.07857 0
M  V30 442 H 44.9458 1.84045 -4.93391 0
M  V30 443 H 47.4368 0.935064 -3.66149 0
M  V30 444 H 47.7498 1.30008 -7.61786 0
M  V30 445 H 46.0948 1.17605 -6.84977 0
M  V30 446 H 49.2858 1.07643 -4.55555 0
M  V30 447 H 49.4588 1.24311 -6.35965 0
M  V30 448 N 42.8649 1.48995 0.513639 0
M  V30 449 C 44.0899 1.61792 1.29762 0
M  V30 450 C 44.5149 0.284475 1.85936 0
M  V30 451 O 43.8729 -0.746185 1.65232 0
M  V30 452 C 43.9209 2.67993 2.41272 0
M  V30 453 O 43.0249 2.26287 3.44772 0
M  V30 454 H 42.3659 0.541963 0.38363 0
M  V30 455 H 44.8959 1.95097 0.616307 0
M  V30 456 H 44.9059 2.89772 2.87221 0
M  V30 457 H 43.5809 3.64791 1.9975 0
M  V30 458 H 42.1579 2.14788 3.04829 0
M  V30 459 N 44.343 -0.763751 1.37857 0
M  V30 460 C 45.306 -1.85889 1.34081 0
M  V30 461 C 46.306 -1.58949 0.243277 0
M  V30 462 O 47.496 -1.66882 0.499589 0
M  V30 463 C 44.628 -3.23176 1.08489 0
M  V30 464 H 45.821 -1.90648 2.31502 0
M  V30 465 H 43.374 -0.964367 1.23003 0
M  V30 466 H 44.109 -3.24091 0.116318 0
M  V30 467 H 43.894 -3.44124 1.8794 0
M  V30 468 H 45.384 -4.03254 1.08517 0
M  V30 469 N 45.8211 -1.22559 -0.990812 0
M  V30 470 C 46.7311 -1.01394 -2.11557 0
M  V30 471 C 47.7471 0.0383962 -1.73958 0
M  V30 472 O 48.9231 -0.154787 -2.00804 0
M  V30 473 C 45.9881 -0.596569 -3.41529 0
M  V30 474 C 45.0491 -1.72276 -3.93217 0
M  V30 475 C 44.2821 -1.32521 -5.16985 0
M  V30 476 O 44.5051 -0.204909 -5.70032 0
M  V30 477 O 43.4391 -2.14247 -5.62478 0
M  V30 478 H 47.2651 -1.95633 -2.32296 0
M  V30 479 H 44.8501 -1.01172 -1.0993 0
M  V30 480 H 46.7321 -0.374263 -4.19735 0
M  V30 481 H 45.4071 0.316939 -3.22145 0
M  V30 482 H 44.3141 -1.99961 -3.16174 0
M  V30 483 H 45.6471 -2.61421 -4.17037 0
M  V30 484 N 47.2992 1.18797 -1.03562 0
M  V30 485 C 48.2622 2.20464 -0.626769 0
M  V30 486 C 49.2622 1.57721 0.313173 0
M  V30 487 O 50.4522 1.73917 0.0992615 0
M  V30 488 C 47.5842 3.40802 0.0818498 0
M  V30 489 H 48.7772 2.58149 -1.5264 0
M  V30 490 H 46.3302 1.32593 -0.827578 0
M  V30 491 H 47.0652 3.08642 0.995518 0
M  V30 492 H 46.8502 3.8758 -0.593652 0
M  V30 493 H 48.3402 4.16092 0.354584 0
M  V30 494 N 48.7773 0.814389 1.34928 0
M  V30 495 C 50.1933 0.499084 1.51596 0
M  V30 496 C 50.3933 -0.978319 1.76157 0
M  V30 497 O 49.4493 -1.76309 1.80752 0
M  V30 498 C 50.7623 1.35121 2.68631 0
M  V30 499 C 52.3103 1.34746 2.82511 0
M  V30 500 C 52.7853 2.18388 4.0258 0
M  V30 501 N 54.2763 2.15966 4.09772 0
M  V30 502 C 55.0113 2.77437 5.01813 0
M  V30 503 N 54.5073 3.47866 5.99134 0
M  V30 504 N 56.3003 2.67037 4.94619 0
M  V30 505 H 48.4513 1.7711 1.17243 0
M  V30 506 H 50.7143 0.754256 0.574284 0
M  V30 507 H 50.4203 2.40001 2.57085 0
M  V30 508 H 50.2943 1.00991 3.63429 0
M  V30 509 H 52.6813 0.30648 2.93504 0
M  V30 510 H 52.7623 1.72869 1.88547 0
M  V30 511 H 52.4063 3.2253 3.92347 0
M  V30 512 H 52.3363 1.77621 4.9574 0
M  V30 513 H 54.8273 1.64729 3.40107 0
M  V30 514 H 55.1403 3.92038 6.65977 0
M  V30 515 H 53.4853 3.51972 5.99284 0
M  V30 516 H 56.6763 2.11597 4.17546 0
M  V30 517 H 56.8493 3.15232 5.66156 0
M  V30 518 N 50.2554 -1.46986 0.568584 0
M  V30 519 C 51.5034 -2.02041 0.0487022 0
M  V30 520 C 51.8244 -1.44408 -1.31039 0
M  V30 521 O 51.0944 -0.623477 -1.85714 0
M  V30 522 H 49.6744 -0.746849 0.015014 0
M  V30 523 H 52.3364 -1.80257 0.741168 0
M  V30 524 H 51.4324 -3.12085 -0.0308961 0
M  V30 525 N 51.7335 -0.305618 -1.54608 0
M  V30 526 C 52.6815 0.584119 -2.25146 0
M  V30 527 C 53.6755 1.13326 -1.25911 0
M  V30 528 O 54.8815 1.08337 -1.43747 0
M  V30 529 H 51.2565 0.206983 -0.722954 0
M  V30 530 H 53.2275 -0.033291 -2.98381 0
M  V30 531 C 51.9765 1.74225 -3.009 0
M  V30 532 H 51.2995 1.32892 -3.77067 0
M  V30 533 H 52.7395 2.34077 -3.53531 0
M  V30 534 C 51.1985 2.64914 -2.0814 0
M  V30 535 O 51.7285 3.66137 -1.65246 0
M  V30 536 N 49.9345 2.3275 -1.74 0
M  V30 537 H 49.4815 1.50479 -2.09078 0
M  V30 538 H 49.4395 2.93694 -1.12211 0
M  V30 539 N 53.2116 1.57565 -0.0334293 0
M  V30 540 C 54.1416 2.13511 0.945265 0
M  V30 541 C 55.1226 1.05231 1.33643 0
M  V30 542 O 56.3076 1.33084 1.41429 0
M  V30 543 C 53.4376 2.6657 2.22616 0
M  V30 544 C 52.3916 3.79676 1.97561 0
M  V30 545 C 51.7176 4.1918 3.31952 0
M  V30 546 C 53.0176 5.0557 1.31135 0
M  V30 547 H 54.7116 2.95538 0.479325 0
M  V30 548 H 52.2576 1.42166 0.229115 0
M  V30 549 H 54.2106 3.04344 2.91466 0
M  V30 550 H 52.9346 1.8171 2.71384 0
M  V30 551 H 51.5936 3.42347 1.31127 0
M  V30 552 H 51.2416 3.31296 3.78487 0
M  V30 553 H 50.9416 4.95402 3.15992 0
M  V30 554 H 52.4656 4.59541 4.02063 0
M  V30 555 H 53.8796 5.40903 1.89992 0
M  V30 556 H 52.2766 5.86818 1.25559 0
M  V30 557 H 53.3466 4.84062 0.284894 0
M  V30 558 N 54.6897 -0.239769 1.55765 0
M  V30 559 C 55.9177 -0.98417 1.81994 0
M  V30 560 C 56.3327 -1.7867 0.610124 0
M  V30 561 O 55.6897 -1.77571 -0.421271 0
M  V30 562 C 55.7407 -1.91635 3.06526 0
M  V30 563 O 55.4617 -1.14629 4.22838 0
M  V30 564 C 56.9627 -2.77616 3.45607 0
M  V30 565 H 54.1827 -0.28928 0.605441 0
M  V30 566 H 56.7267 -0.260499 2.02834 0
M  V30 567 H 54.8817 -2.5942 2.87715 0
M  V30 568 H 55.2957 -1.77745 4.93464 0
M  V30 569 H 56.7697 -3.38759 4.35828 0
M  V30 570 H 57.2467 -3.4909 2.6652 0
M  V30 571 H 57.8527 -2.15271 3.66795 0
M  V30 572 N 56.1678 -1.49265 -0.50573 0
M  V30 573 C 57.5838 -1.35923 -0.836486 0
M  V30 574 C 57.7838 -0.388704 -1.97715 0
M  V30 575 O 56.8398 0.181336 -2.51848 0
M  V30 576 C 58.1528 -2.76531 -1.18115 0
M  V30 577 C 59.7008 -2.85197 -1.28964 0
M  V30 578 C 60.1758 -4.26561 -1.66761 0
M  V30 579 N 61.6668 -4.2935 -1.73819 0
M  V30 580 C 62.4018 -5.35693 -2.045 0
M  V30 581 N 61.8978 -6.52287 -2.33438 0
M  V30 582 N 63.6908 -5.23105 -2.05711 0
M  V30 583 H 55.8418 -2.10965 0.246519 0
M  V30 584 H 58.1048 -0.9468 0.0476887 0
M  V30 585 H 57.8108 -3.49226 -0.416398 0
M  V30 586 H 57.6848 -3.11599 -2.1257 0
M  V30 587 H 60.0718 -2.12742 -2.04511 0
M  V30 588 H 60.1528 -2.53718 -0.325704 0
M  V30 589 H 59.7968 -4.99541 -0.917656 0
M  V30 590 H 59.7268 -4.55502 -2.64246 0
M  V30 591 H 62.2178 -3.4526 -1.53635 0
M  V30 592 H 62.5308 -7.29158 -2.56024 0
M  V30 593 H 60.8758 -6.55521 -2.30905 0
M  V30 594 H 64.0668 -4.31026 -1.82577 0
M  V30 595 H 64.2398 -6.06078 -2.29289 0
M  V30 596 N 57.6459 0.756429 -1.3826 0
M  V30 597 C 59.0569 1.33359 -1.30661 0
M  V30 598 C 59.4079 1.96161 0.0388875 0
M  V30 599 O 58.5329 1.94874 0.940918 0
M  V30 600 C 59.1279 2.42477 -2.36622 0
M  V30 601 C 57.6869 2.95922 -2.3261 0
M  V30 602 C 56.8339 1.69275 -2.19639 0
M  V30 603 H 59.7849 0.55552 -1.4866 0
M  V30 604 H 59.8059 3.22345 -2.02174 0
M  V30 605 H 59.3179 1.96739 -3.34538 0
M  V30 606 H 57.4189 3.45996 -1.38267 0
M  V30 607 H 57.5319 3.50494 -3.26636 0
M  V30 608 H 55.8959 1.92793 -1.66442 0
M  V30 609 H 56.6789 1.25619 -3.19491 0
M  V30 610 N 59.124 1.23083 0.984299 0
M  V30 611 C 60.535 1.05609 1.5396 0
M  V30 612 C 60.886 -0.377793 1.92528 0
M  V30 613 O 60.011 -1.26398 1.75649 0
M  V30 614 C 60.606 1.91087 2.7977 0
M  V30 615 C 59.165 1.77885 3.31713 0
M  V30 616 C 58.312 1.87028 2.04733 0
M  V30 617 H 61.263 1.36802 0.804419 0
M  V30 618 H 61.284 1.43336 3.5247 0
M  V30 619 H 60.796 2.9544 2.51668 0
M  V30 620 H 58.897 0.762995 3.64704 0
M  V30 621 H 59.01 2.61047 4.01735 0
M  V30 622 H 57.374 1.30565 2.18689 0
M  V30 623 H 58.157 2.92929 1.79017 0
M  V30 624 N 60.6021 -1.18246 1.0419 0
M  V30 625 C 61.8501 -1.87886 0.744543 0
M  V30 626 C 62.1711 -1.8082 -0.730006 0
M  V30 627 O 61.4411 -1.22736 -1.52685 0
M  V30 628 H 60.0211 -0.695556 0.272417 0
M  V30 629 H 62.6831 -1.43494 1.31892 0
M  V30 630 H 61.7791 -2.9389 1.05049 0
M  V30 631 N 62.0802 -0.821533 -1.34494 0
M  V30 632 C 63.3052 -0.420873 -2.03085 0
M  V30 633 C 63.7302 0.964915 -1.61465 0
M  V30 634 O 63.0882 1.62763 -0.798607 0
M  V30 635 C 63.1362 -0.529414 -3.56693 0
M  V30 636 O 62.2402 0.451302 -4.09923 0
M  V30 637 H 61.5812 -0.173489 -0.640935 0
M  V30 638 H 64.1112 -1.11157 -1.71771 0
M  V30 639 H 64.1212 -0.404671 -4.05988 0
M  V30 640 H 62.7962 -1.54014 -3.86332 0
M  V30 641 H 61.3732 0.285558 -3.71805 0
M  V30 642 N 63.5583 1.46682 -0.576371 0
M  V30 643 C 64.8063 2.02013 -0.0594163 0
M  V30 644 C 65.1273 1.45101 1.30271 0
M  V30 645 O 64.3973 0.633317 1.8538 0
M  V30 646 H 62.9773 0.746759 -0.0189745 0
M  V30 647 H 65.6393 1.79862 -0.750717 0
M  V30 648 H 64.7353 3.12097 0.014345 0
M  V30 649 N 65.0364 0.313813 1.54444 0
M  V30 650 C 65.9464 -0.565714 2.27677 0
M  V30 651 C 66.9624 -1.13754 1.31666 0
M  V30 652 O 68.1384 -1.15959 1.64668 0
M  V30 653 C 65.2034 -1.71528 3.01296 0
M  V30 654 C 64.2644 -1.17624 4.12872 0
M  V30 655 C 63.4974 -2.27102 4.8297 0
M  V30 656 O 63.7204 -3.47256 4.52514 0
M  V30 657 O 62.6544 -1.9307 5.70094 0
M  V30 658 H 66.4804 0.0287296 3.03686 0
M  V30 659 H 64.0654 0.0798312 1.49187 0
M  V30 660 H 65.9474 -2.38476 3.4743 0
M  V30 661 H 64.6224 -2.29608 2.2817 0
M  V30 662 H 63.5294 -0.472124 3.71109 0
M  V30 663 H 64.8624 -0.640695 4.88012 0
M  V30 664 N 66.5145 -1.57545 0.0417849 0
M  V30 665 C 67.7915 -1.83642 -0.673433 0
M  V30 666 C 68.1715 -0.928298 -1.89594 0
M  V30 667 O 67.5195 0.0129955 -2.28496 0
M  V30 668 C 67.7295 -3.33155 -1.03964 0
M  V30 669 C 69.0775 -3.99941 -1.42592 0
M  V30 670 O 70.1015 -3.37725 -1.13226 0
M  V30 671 O 68.9605 -5.09619 -1.9736 0
M  V30 672 H 66.0545 -0.757638 -0.331533 0
M  V30 673 H 68.6005 -1.69554 0.070433 0
M  V30 674 H 67.3725 -3.9093 -0.170098 0
M  V30 675 H 66.9955 -3.52396 -1.84126 0
M  V30 676 N 67.9926 0.231505 -1.5589 0
M  V30 677 C 69.2326 0.964533 -1.80211 0
M  V30 678 C 69.5966 1.81926 -0.613744 0
M  V30 679 O 70.7976 2.58526 -0.736045 0
M  V30 680 C 69.0686 1.78956 -3.09369 0
M  V30 681 S 70.6276 2.57959 -3.54969 0
M  V30 682 H 67.4456 0.324173 -0.632798 0
M  V30 683 H 70.0476 0.230985 -1.94131 0
M  V30 684 H 68.7516 1.15161 -3.93911 0
M  V30 685 H 68.2826 2.56559 -2.9823 0
M  V30 686 H 70.2976 3.81309 -3.17519 0
M  V30 687 N 69.4707 1.49531 0.497807 0
M  V30 688 C 70.7187 1.58865 1.24926 0
M  V30 689 C 71.0397 0.278721 1.92998 0
M  V30 690 O 70.3097 -0.702144 1.82885 0
M  V30 691 H 68.8897 0.585343 0.464094 0
M  V30 692 H 71.5517 1.86174 0.57666 0
M  V30 693 H 70.6477 2.38633 2.01149 0
M  V30 694 N 70.9488 -0.749086 1.3866 0
M  V30 695 C 72.1738 -1.54344 1.38538 0
M  V30 696 C 72.5988 -1.88088 -0.0216655 0
M  V30 697 O 71.9568 -1.50899 -1.00494 0
M  V30 698 C 72.0048 -2.8164 2.25192 0
M  V30 699 O 71.1088 -3.7698 1.67212 0
M  V30 700 H 70.4498 -0.466654 0.472367 0
M  V30 701 H 72.9798 -0.925355 1.82478 0
M  V30 702 H 72.9898 -3.30519 2.3921 0
M  V30 703 H 71.6648 -2.56411 3.27454 0
M  V30 704 H 70.2418 -3.35699 1.6236 0
M  V30 705 N 72.4269 -1.23603 -0.977757 0
M  V30 706 C 73.6729 -1.07129 -1.72195 0
M  V30 707 C 74.0059 0.390501 -1.90233 0
M  V30 708 O 73.2809 1.28902 -1.45653 0
M  V30 709 C 73.5639 -1.80031 -3.11867 0
M  V30 710 C 73.4169 -3.33899 -3.01383 0
M  V30 711 C 74.7359 -1.56492 -4.11337 0
M  V30 712 H 71.8549 -0.390571 -0.624999 0
M  V30 713 H 74.4969 -1.52142 -1.13811 0
M  V30 714 H 72.6469 -1.41768 -3.6171 0
M  V30 715 H 74.3189 -3.81699 -2.59043 0
M  V30 716 H 72.5619 -3.62796 -2.37827 0
M  V30 717 H 73.2329 -3.801 -4.00285 0
M  V30 718 H 75.7089 -1.89757 -3.70313 0
M  V30 719 H 74.5849 -2.09973 -5.07151 0
M  V30 720 H 74.8459 -0.500874 -4.39254 0
M  V30 721 N 73.905 1.17692 -1.04816 0
M  V30 722 C 75.13 1.92327 -0.776207 0
M  V30 723 C 75.555 1.76082 0.661581 0
M  V30 724 O 74.913 1.076 1.45917 0
M  V30 725 C 74.961 3.41539 -1.15687 0
M  V30 726 O 74.065 4.11402 -0.286775 0
M  V30 727 H 73.406 0.599735 -0.284981 0
M  V30 728 H 75.936 1.49201 -1.4 0
M  V30 729 H 75.946 3.92269 -1.12202 0
M  V30 730 H 74.621 3.52684 -2.20425 0
M  V30 731 H 73.198 3.70939 -0.381903 0
M  V30 732 N 75.3831 0.828654 1.34056 0
M  V30 733 C 76.6291 0.42008 1.98402 0
M  V30 734 C 76.9621 -1.01564 1.65525 0
M  V30 735 O 76.2371 -1.70834 0.929831 0
M  V30 736 C 76.5201 0.62927 3.54559 0
M  V30 737 C 76.3731 2.11152 3.97159 0
M  V30 738 C 77.6921 0.0688756 4.40046 0
M  V30 739 H 74.8111 0.154104 0.720709 0
M  V30 740 H 77.4531 1.04228 1.5886 0
M  V30 741 H 75.6031 0.0996418 3.88372 0
M  V30 742 H 77.2751 2.70522 3.73651 0
M  V30 743 H 75.5181 2.59985 3.47261 0
M  V30 744 H 76.1891 2.20868 5.05887 0
M  V30 745 H 78.6651 0.521458 4.1282 0
M  V30 746 H 77.5411 0.245006 5.48353 0
M  V30 747 H 77.8021 -1.0266 4.30015 0
M  V30 748 N 76.8612 -1.46375 0.584142 0
M  V30 749 C 77.8242 -2.28784 -0.138108 0
M  V30 750 C 78.8242 -1.38471 -0.817462 0
M  V30 751 O 80.0142 -1.60833 -0.669199 0
M  V30 752 C 77.1462 -3.18892 -1.20503 0
M  V30 753 H 78.3392 -2.94117 0.586127 0
M  V30 754 H 75.8922 -1.52509 0.342171 0
M  V30 755 H 76.6272 -2.58309 -1.96079 0
M  V30 756 H 76.4122 -3.85388 -0.722384 0
M  V30 757 H 77.9022 -3.80914 -1.71155 0
M  V30 758 N 78.3393 -0.321999 -1.54275 0
M  V30 759 C 79.5863 0.281044 -2.0054 0
M  V30 760 C 79.9143 1.52265 -1.21019 0
M  V30 761 O 79.1693 1.93687 -0.279982 0
M  V30 762 C 79.4683 0.661769 -3.5122 0
M  V30 763 C 79.1343 -0.480482 -4.48333 0
M  V30 764 C 77.7963 -0.794005 -4.74604 0
M  V30 765 C 80.1483 -1.24783 -5.06042 0
M  V30 766 C 77.4763 -1.87763 -5.55844 0
M  V30 767 C 79.8283 -2.32153 -5.88462 0
M  V30 768 C 78.4923 -2.64089 -6.13036 0
M  V30 769 H 77.7623 0.102841 -0.733829 0
M  V30 770 H 80.4093 -0.445453 -1.86247 0
M  V30 771 H 78.7143 1.46867 -3.63232 0
M  V30 772 H 80.4113 1.13989 -3.84457 0
M  V30 773 H 77.0013 -0.226039 -4.28004 0
M  V30 774 H 81.1853 -1.01887 -4.85729 0
M  V30 775 H 76.4413 -2.12954 -5.73115 0
M  V30 776 H 80.6153 -2.92057 -6.32199 0
M  V30 777 H 78.2423 -3.48185 -6.75775 0
M  V30 778 N 79.8174 1.5752 -0.0501392 0
M  V30 779 C 81.2284 1.80271 0.485705 0
M  V30 780 C 81.5794 0.96228 1.70981 0
M  V30 781 O 80.7044 0.178578 2.15662 0
M  V30 782 C 81.2994 3.26957 0.887938 0
M  V30 783 C 79.8584 3.5063 1.36877 0
M  V30 784 C 79.0054 2.75165 0.343468 0
M  V30 785 H 81.9564 1.56281 -0.276028 0
M  V30 786 H 81.9774 3.37821 1.75093 0
M  V30 787 H 81.4894 3.881 -0.0031809 0
M  V30 788 H 79.5904 2.94766 2.27911 0
M  V30 789 H 79.7034 4.59343 1.36164 0
M  V30 790 H 78.0674 2.4127 0.816128 0
M  V30 791 H 78.8504 3.39034 -0.539548 0
M  V30 792 N 81.2955 -0.223234 1.56011 0
M  V30 793 C 82.5445 -0.945912 1.78144 0
M  V30 794 C 82.8575 -1.85567 0.618396 0
M  V30 795 O 84.0635 -2.61688 0.723318 0
M  V30 796 C 82.5195 -1.73216 3.15475 0
M  V30 797 C 82.1275 -0.868619 4.39499 0
M  V30 798 C 83.8715 -2.44615 3.46935 0
M  V30 799 C 81.7785 -1.65212 5.67855 0
M  V30 800 H 80.7085 -0.356929 0.664167 0
M  V30 801 H 83.3595 -0.199845 1.82409 0
M  V30 802 H 81.7415 -2.52107 3.05382 0
M  V30 803 H 82.9155 -0.120366 4.60643 0
M  V30 804 H 81.2305 -0.26683 4.15544 0
M  V30 805 H 83.8275 -3.03732 4.40058 0
M  V30 806 H 84.1705 -3.17417 2.69355 0
M  V30 807 H 84.7035 -1.72715 3.58349 0
M  V30 808 H 81.4425 -0.967407 6.48322 0
M  V30 809 H 80.9625 -2.37503 5.50774 0
M  V30 810 H 82.6415 -2.21322 6.07968 0
M  V30 811 N 82.7736 -1.49793 -0.48987 0
M  V30 812 C 84.0016 -1.63568 -1.26701 0
M  V30 813 C 84.4166 -0.311465 -1.86213 0
M  V30 814 O 83.7736 0.704416 -1.68357 0
M  V30 815 C 83.8246 -2.71284 -2.38929 0
M  V30 816 O 83.5456 -3.9857 -1.81861 0
M  V30 817 C 85.0466 -2.95864 -3.3012 0
M  V30 818 H 82.2666 -0.550342 -0.383881 0
M  V30 819 H 84.8106 -1.95898 -0.586864 0
M  V30 820 H 82.9656 -2.417 -3.02753 0
M  V30 821 H 83.3796 -4.57993 -2.55622 0
M  V30 822 H 84.8536 -3.74941 -4.05121 0
M  V30 823 H 85.3306 -2.06206 -3.87783 0
M  V30 824 H 85.9366 -3.26907 -2.72051 0
M  V30 825 N 84.2517 0.741722 -1.39055 0
M  V30 826 C 85.1847 1.86416 -1.31622 0
M  V30 827 C 86.1627 1.61473 -0.191076 0
M  V30 828 O 87.3467 1.84825 -0.370399 0
M  V30 829 C 84.4737 3.22266 -1.04221 0
M  V30 830 C 83.5197 3.66079 -2.18834 0
M  V30 831 S 84.3527 3.7623 -3.81066 0
M  V30 832 C 85.5087 5.14881 -3.55877 0
M  V30 833 H 85.7417 1.92437 -2.26617 0
M  V30 834 H 83.2747 0.905907 -1.25031 0
M  V30 835 H 85.2327 4.00714 -0.890964 0
M  V30 836 H 83.8937 3.1391 -0.109237 0
M  V30 837 H 83.0867 4.64648 -1.95238 0
M  V30 838 H 82.6887 2.94817 -2.30128 0
M  V30 839 H 84.9807 6.01006 -3.12726 0
M  V30 840 H 85.9237 5.43503 -4.53884 0
M  V30 841 H 86.3317 4.84239 -2.90126 0
M  V30 842 N 85.7298 1.2412 0.971189 0
M  V30 843 C 86.6598 1.05508 2.08304 0
M  V30 844 C 87.6408 -0.0308864 1.70072 0
M  V30 845 O 88.8258 0.135521 1.93727 0
M  V30 846 C 85.9558 0.655365 3.4106 0
M  V30 847 C 84.9098 1.68971 3.93234 0
M  V30 848 C 84.2358 1.14516 5.22293 0
M  V30 849 C 85.5358 3.08487 4.21465 0
M  V30 850 H 87.2298 1.98507 2.24132 0
M  V30 851 H 84.7758 0.955821 1.07704 0
M  V30 852 H 86.7288 0.51217 4.18276 0
M  V30 853 H 85.4528 -0.31032 3.25122 0
M  V30 854 H 84.1118 1.82106 3.18171 0
M  V30 855 H 83.7598 0.170189 5.02712 0
M  V30 856 H 83.4598 1.83635 5.58168 0
M  V30 857 H 84.9838 1.01401 6.02121 0
M  V30 858 H 86.3978 2.98601 4.89398 0
M  V30 859 H 84.7948 3.74926 4.68562 0
M  V30 860 H 85.8648 3.56787 3.28376 0
M  V30 861 N 87.2079 -1.17134 1.05439 0
M  V30 862 C 88.1379 -2.2342 0.678649 0
M  V30 863 C 89.1189 -1.66971 -0.32476 0
M  V30 864 O 90.3039 -1.93149 -0.201802 0
M  V30 865 C 87.4339 -3.47256 0.0552099 0
M  V30 866 C 86.3879 -4.16543 0.98365 0
M  V30 867 C 85.7139 -5.34231 0.223961 0
M  V30 868 C 87.0139 -4.68495 2.3089 0
M  V30 869 H 88.7079 -2.55105 1.56722 0
M  V30 870 H 86.2539 -1.2262 0.754998 0
M  V30 871 H 88.2069 -4.20828 -0.21946 0
M  V30 872 H 86.9309 -3.14846 -0.868319 0
M  V30 873 H 85.5899 -3.44887 1.24293 0
M  V30 874 H 85.2379 -4.98071 -0.702412 0
M  V30 875 H 84.9379 -5.81527 0.842627 0
M  V30 876 H 86.4619 -6.10585 -0.0433671 0
M  V30 877 H 87.8759 -5.33691 2.09396 0
M  V30 878 H 86.2729 -5.26379 2.88176 0
M  V30 879 H 87.3429 -3.85169 2.94572 0
M  V30 880 N 88.686 -0.835752 -1.33615 0
M  V30 881 C 89.914 -0.443344 -2.02094 0
M  V30 882 C 90.329 0.954522 -1.62894 0
M  V30 883 O 89.686 1.61982 -0.840723 0
M  V30 884 C 89.737 -0.550775 -3.5728 0
M  V30 885 O 89.458 -1.89356 -3.95065 0
M  V30 886 C 90.959 -0.154919 -4.43029 0
M  V30 887 H 88.179 -0.176359 -0.647409 0
M  V30 888 H 90.723 -1.12746 -1.70612 0
M  V30 889 H 88.878 0.0853997 -3.87306 0
M  V30 890 H 89.292 -1.87687 -4.89769 0
M  V30 891 H 90.766 -0.281144 -5.51284 0
M  V30 892 H 91.243 0.902863 -4.2982 0
M  V30 893 H 91.849 -0.765404 -4.18356 0
M  V30 894 N 90.1641 1.46063 -0.591896 0
M  V30 895 C 91.4121 2.01938 -0.0808391 0
M  V30 896 C 91.7331 1.46475 1.28725 0
M  V30 897 O 91.0031 0.652944 1.84698 0
M  V30 898 H 89.5831 0.746516 -0.0268938 0
M  V30 899 H 92.2451 1.79055 -0.769752 0
M  V30 900 H 91.3411 3.12094 -0.0187578 0
M  V30 901 N 91.6422 0.330177 1.54103 0
M  V30 902 C 92.8892 -0.270405 2.00686 0
M  V30 903 C 93.2172 -1.51621 1.21825 0
M  V30 904 O 92.4722 -1.93536 0.29025 0
M  V30 905 C 92.7712 -0.643134 3.51566 0
M  V30 906 C 92.4372 0.504251 4.48072 0
M  V30 907 C 91.0992 0.819163 4.74176 0
M  V30 908 C 93.4512 1.27465 5.05373 0
M  V30 909 C 90.7792 1.90708 5.5484 0
M  V30 910 C 93.1312 2.35271 5.87223 0
M  V30 911 C 91.7952 2.67336 6.11627 0
M  V30 912 H 91.0652 -0.0989482 0.734364 0
M  V30 913 H 93.7122 0.455324 1.86008 0
M  V30 914 H 92.0172 -1.44938 3.64006 0
M  V30 915 H 93.7142 -1.11949 3.85056 0
M  V30 916 H 90.3042 0.248733 4.27878 0
M  V30 917 H 94.4882 1.04462 4.85182 0
M  V30 918 H 89.7442 2.15991 5.71977 0
M  V30 919 H 93.9182 2.95405 6.30641 0
M  V30 920 H 91.5452 3.51763 6.73919 0
M  V30 921 N 93.1203 -1.57491 0.0584922 0
M  V30 922 C 94.3663 -1.93264 -0.614558 0
M  V30 923 C 94.6993 -0.937717 -1.7006 0
M  V30 924 O 93.9743 0.0351652 -1.94468 0
M  V30 925 C 94.2573 -3.3938 -1.20386 0
M  V30 926 C 94.1103 -4.49625 -0.125375 0
M  V30 927 C 95.4293 -3.86039 -2.11334 0
M  V30 928 H 92.5483 -0.702791 -0.221933 0
M  V30 929 H 95.1903 -1.8961 0.12175 0
M  V30 930 H 93.3403 -3.42626 -1.83139 0
M  V30 931 H 95.0123 -4.58506 0.506971 0
M  V30 932 H 93.2553 -4.30354 0.545672 0
M  V30 933 H 93.9263 -5.48967 -0.577861 0
M  V30 934 H 96.4023 -3.84716 -1.58534 0
M  V30 935 H 95.2783 -4.88914 -2.49507 0
M  V30 936 H 95.5393 -3.23215 -3.01636 0
M  V30 937 N 94.5984 0.214957 -1.56127 0
M  V30 938 C 95.8464 0.936518 -1.79091 0
M  V30 939 C 96.1674 1.84606 -0.628148 0
M  V30 940 O 95.4374 1.92664 0.35462 0
M  V30 941 H 94.0174 0.3488 -0.660566 0
M  V30 942 H 96.6794 0.22523 -1.93594 0
M  V30 943 H 95.7754 1.53943 -2.71492 0
M  V30 944 N 96.0765 1.50051 0.48192 0
M  V30 945 C 97.0245 1.68635 1.60203 0
M  V30 946 C 98.0185 0.552184 1.60148 0
M  V30 947 O 99.2245 0.732377 1.64427 0
M  V30 948 H 95.5995 0.532081 0.531407 0
M  V30 949 H 97.5705 2.62616 1.41688 0
M  V30 950 C 96.3195 1.78775 2.9822 0
M  V30 951 H 95.6425 2.6543 2.98976 0
M  V30 952 H 97.0825 1.95806 3.7608 0
M  V30 953 C 95.5415 0.536849 3.32595 0
M  V30 954 O 96.0715 -0.328897 4.00351 0
M  V30 955 N 94.2775 0.394091 2.87915 0
M  V30 956 H 93.8245 1.09962 2.32951 0
M  V30 957 H 93.7825 -0.441737 3.11281 0
M  V30 958 N 97.5546 -0.734337 1.39446 0
M  V30 959 C 98.5176 -1.83004 1.37994 0
M  V30 960 C 99.5176 -1.58397 0.276938 0
M  V30 961 O 100.708 -1.65785 0.534875 0
M  V30 962 C 97.8396 -3.20802 1.1532 0
M  V30 963 H 99.0326 -1.85694 2.35494 0
M  V30 964 H 96.5856 -0.938059 1.25021 0
M  V30 965 H 97.3206 -3.23772 0.185036 0
M  V30 966 H 97.1056 -3.4006 1.95197 0
M  V30 967 H 98.5956 -4.00862 1.17046 0
M  V30 968 N 99.0327 -1.24633 -0.964593 0
M  V30 969 C 99.9627 -1.06611 -2.07741 0
M  V30 970 C 100.944 0.0218666 -1.70086 0
M  V30 971 O 102.129 -0.145793 -1.93652 0
M  V30 972 C 99.2587 -0.673444 -3.40708 0
M  V30 973 C 98.2127 -1.71054 -3.92332 0
M  V30 974 C 97.5387 -1.17285 -5.21678 0
M  V30 975 C 98.8387 -3.10718 -4.19824 0
M  V30 976 H 100.533 -1.99693 -2.23076 0
M  V30 977 H 98.0787 -0.96152 -1.07195 0
M  V30 978 H 100.032 -0.534345 -4.17998 0
M  V30 979 H 98.7557 0.293073 -3.25282 0
M  V30 980 H 97.4147 -1.83791 -3.17201 0
M  V30 981 H 97.0627 -0.196847 -5.02615 0
M  V30 982 H 96.7627 -1.86592 -5.57187 0
M  V30 983 H 98.2867 -1.04593 -6.01575 0
M  V30 984 H 99.7007 -3.01192 -4.87808 0
M  V30 985 H 98.0977 -3.77406 -4.66567 0
M  V30 986 H 99.1677 -3.58524 -3.26479 0
M  V30 987 N 100.511 1.16574 -1.06058 0
M  V30 988 C 101.474 2.19085 -0.673392 0
M  V30 989 C 102.474 1.5835 0.279648 0
M  V30 990 O 103.664 1.74088 0.0623488 0
M  V30 991 C 100.796 3.40899 0.00954234 0
M  V30 992 H 101.989 2.54853 -1.58081 0
M  V30 993 H 99.5418 1.30808 -0.855516 0
M  V30 994 H 100.277 3.10684 0.929826 0
M  V30 995 H 100.062 3.86233 -0.67573 0
M  V30 996 H 101.552 4.1675 0.266245 0
M  V30 997 N 101.989 0.842826 1.3317 0
M  V30 998 C 102.922 0.223862 2.27099 0
M  V30 999 C 103.9 -0.631311 1.49844 0
M  V30 1000 O 105.084 -0.590708 1.79005 0
M  V30 1001 C 102.211 -0.685313 3.31694 0
M  V30 1002 C 101.257 0.094919 4.26394 0
M  V30 1003 S 102.09 1.45546 5.15341 0
M  V30 1004 C 103.246 0.551685 6.23464 0
M  V30 1005 H 103.479 1.02015 2.79249 0
M  V30 1006 H 101.012 0.639797 1.4052 0
M  V30 1007 H 102.97 -1.20426 3.92438 0
M  V30 1008 H 101.631 -1.4553 2.78352 0
M  V30 1009 H 100.824 -0.597059 5.00451 0
M  V30 1010 H 100.426 0.545054 3.70007 0
M  V30 1011 H 102.718 -0.248877 6.77043 0
M  V30 1012 H 103.661 1.26253 6.96754 0
M  V30 1013 H 104.069 0.131275 5.64347 0
M  V30 1014 N 103.467 -1.45747 0.599634 0
M  V30 1015 C 104.397 -2.33235 -0.111306 0
M  V30 1016 C 105.378 -1.46359 -0.866781 0
M  V30 1017 O 106.563 -1.75146 -0.838904 0
M  V30 1018 C 103.693 -3.28932 -1.11451 0
M  V30 1019 C 102.647 -4.25381 -0.472772 0
M  V30 1020 C 101.973 -5.1071 -1.58365 0
M  V30 1021 C 103.273 -5.18831 0.600948 0
M  V30 1022 H 104.967 -2.92927 0.61919 0
M  V30 1023 H 102.513 -1.40857 0.299215 0
M  V30 1024 H 104.466 -3.89002 -1.62036 0
M  V30 1025 H 103.19 -2.67381 -1.8755 0
M  V30 1026 H 101.849 -3.66598 0.0121472 0
M  V30 1027 H 101.497 -4.45533 -2.33473 0
M  V30 1028 H 101.197 -5.7604 -1.15982 0
M  V30 1029 H 102.721 -5.73647 -2.09194 0
M  V30 1030 H 104.135 -5.73019 0.179491 0
M  V30 1031 H 102.532 -5.92595 0.946076 0
M  V30 1032 H 103.602 -4.6174 1.48068 0
M  V30 1033 N 104.945 -0.338344 -1.53925 0
M  V30 1034 C 105.875 0.51328 -2.27789 0
M  V30 1035 C 106.856 1.107 -1.29149 0
M  V30 1036 O 108.041 1.12937 -1.57984 0
M  V30 1037 C 105.171 1.66697 -3.04679 0
M  V30 1038 C 104.125 1.20183 -4.1078 0
M  V30 1039 C 103.451 2.44363 -4.75595 0
M  V30 1040 C 104.751 0.30605 -5.21403 0
M  V30 1041 H 106.445 -0.102883 -2.99223 0
M  V30 1042 H 103.991 -0.0509219 -1.4391 0
M  V30 1043 H 105.944 2.26915 -3.55088 0
M  V30 1044 H 104.668 2.30995 -2.30887 0
M  V30 1045 H 103.327 0.622499 -3.61276 0
M  V30 1046 H 102.975 3.07057 -3.98403 0
M  V30 1047 H 102.675 2.13925 -5.47275 0
M  V30 1048 H 104.199 3.05317 -5.28786 0
M  V30 1049 H 105.613 0.814929 -5.67478 0
M  V30 1050 H 104.01 0.0937929 -6.00027 0
M  V30 1051 H 105.08 -0.65921 -4.80398 0
M  V30 1052 N 106.423 1.57458 -0.0668435 0
M  V30 1053 C 107.669 1.93587 0.6043 0
M  V30 1054 C 108.002 0.946722 1.69561 0
M  V30 1055 O 107.277 -0.0248516 1.94484 0
M  V30 1056 C 107.56 3.40014 1.18585 0
M  V30 1057 C 107.413 4.49685 0.101529 0
M  V30 1058 C 108.732 3.87154 2.09284 0
M  V30 1059 H 105.851 0.703958 0.218202 0
M  V30 1060 H 108.493 1.89542 -0.131804 0
M  V30 1061 H 106.643 3.43592 1.81319 0
M  V30 1062 H 108.315 4.5823 -0.531279 0
M  V30 1063 H 106.558 4.30059 -0.568487 0
M  V30 1064 H 107.229 5.49266 0.54874 0
M  V30 1065 H 109.705 3.85551 1.56491 0
M  V30 1066 H 108.581 4.90231 2.46911 0
M  V30 1067 H 108.842 3.2481 2.99918 0
M  V30 1068 N 107.901 -0.206675 1.56239 0
M  V30 1069 C 109.126 -0.949474 1.8439 0
M  V30 1070 C 109.551 -1.76549 0.649016 0
M  V30 1071 O 108.909 -1.76782 -0.402231 0
M  V30 1072 C 108.957 -1.83078 3.10668 0
M  V30 1073 O 108.061 -2.9281 2.90407 0
M  V30 1074 H 107.402 -0.268033 0.607499 0
M  V30 1075 H 109.932 -0.215488 2.03462 0
M  V30 1076 H 109.942 -2.2377 3.41161 0
M  V30 1077 H 108.617 -1.23112 3.97261 0
M  V30 1078 H 107.194 -2.55956 2.71184 0
M  V30 1079 N 109.379 -1.50304 -0.473955 0
M  V30 1080 C 110.795 -1.37667 -0.807466 0
M  V30 1081 C 110.995 -0.430555 -1.96846 0
M  V30 1082 O 110.051 0.127874 -2.52176 0
M  V30 1083 C 111.364 -2.78974 -1.12223 0
M  V30 1084 C 112.912 -2.87868 -1.22885 0
M  V30 1085 C 113.387 -4.30003 -1.57676 0
M  V30 1086 N 114.878 -4.3294 -1.64673 0
M  V30 1087 C 115.613 -5.3991 -1.93091 0
M  V30 1088 N 115.109 -6.57092 -2.1955 0
M  V30 1089 N 116.902 -5.27351 -1.94569 0
M  V30 1090 H 109.053 -2.10394 0.291212 0
M  V30 1091 H 111.316 -0.945575 0.0677609 0
M  V30 1092 H 111.022 -3.50031 -0.342229 0
M  V30 1093 H 110.896 -3.16038 -2.05913 0
M  V30 1094 H 113.283 -2.17032 -1.99953 0
M  V30 1095 H 113.364 -2.54352 -0.271814 0
M  V30 1096 H 113.008 -5.01375 -0.81149 0
M  V30 1097 H 112.938 -4.61004 -2.54525 0
M  V30 1098 H 115.429 -3.48441 -1.46277 0
M  V30 1099 H 115.742 -7.34425 -2.405 0
M  V30 1100 H 114.087 -6.60272 -2.16948 0
M  V30 1101 H 117.278 -4.34801 -1.73394 0
M  V30 1102 H 117.451 -6.10805 -2.16381 0
M  V30 1103 N 110.857 0.726932 -1.39834 0
M  V30 1104 C 112.082 1.52121 -1.40976 0
M  V30 1105 C 112.507 1.88098 -0.00826029 0
M  V30 1106 O 111.865 1.52479 0.980807 0
M  V30 1107 C 111.913 2.78021 -2.29644 0
M  V30 1108 O 111.017 3.74272 -1.73188 0
M  V30 1109 H 110.358 0.45908 -0.479731 0
M  V30 1110 H 112.888 0.896207 -1.83927 0
M  V30 1111 H 112.898 3.26671 -2.44438 0
M  V30 1112 H 111.573 2.51169 -3.31492 0
M  V30 1113 H 110.15 3.33073 -1.6768 0
M  V30 1114 N 112.336 1.25143 0.95797 0
M  V30 1115 C 113.566 1.12261 1.73439 0
M  V30 1116 C 113.974 -0.326715 1.86358 0
M  V30 1117 O 113.317 -1.2367 1.35836 0
M  V30 1118 C 113.379 1.69966 3.16784 0
M  V30 1119 C 113.043 3.18936 3.27305 0
M  V30 1120 C 114.04 4.15968 3.11877 0
M  V30 1121 C 111.725 3.59083 3.51234 0
M  V30 1122 C 113.719 5.51126 3.20217 0
M  V30 1123 C 111.406 4.9438 3.5921 0
M  V30 1124 C 112.404 5.90211 3.43716 0
M  V30 1125 O 112.092 7.23046 3.51368 0
M  V30 1126 H 111.824 0.392476 0.550399 0
M  V30 1127 H 114.378 1.65927 1.21068 0
M  V30 1128 H 112.608 1.10744 3.70503 0
M  V30 1129 H 114.297 1.52232 3.76272 0
M  V30 1130 H 115.063 3.86292 2.93264 0
M  V30 1131 H 110.942 2.84989 3.62356 0
M  V30 1132 H 114.486 6.25905 3.0804 0
M  V30 1133 H 110.383 5.23723 3.77339 0
M  V30 1134 H 111.151 7.31097 3.6802 0
M  V30 1135 N 113.814 -1.1601 1.06675 0
M  V30 1136 C 115.23 -1.38622 0.790948 0
M  V30 1137 C 115.43 -1.92109 -0.607965 0
M  V30 1138 O 114.486 -2.12239 -1.36787 0
M  V30 1139 C 115.799 -2.36347 1.85905 0
M  V30 1140 C 117.347 -2.50023 1.88301 0
M  V30 1141 C 117.822 -3.51033 2.94176 0
M  V30 1142 N 119.313 -3.58563 2.93235 0
M  V30 1143 C 120.048 -4.36521 3.71803 0
M  V30 1144 N 119.544 -5.17869 4.602 0
M  V30 1145 N 121.337 -4.31541 3.60178 0
M  V30 1146 H 113.488 -0.796294 1.96908 0
M  V30 1147 H 115.751 -0.412597 0.853503 0
M  V30 1148 H 115.457 -2.04147 2.86386 0
M  V30 1149 H 115.331 -3.36042 1.71334 0
M  V30 1150 H 117.718 -2.81524 0.884769 0
M  V30 1151 H 117.799 -1.5035 2.06951 0
M  V30 1152 H 117.443 -3.20268 3.94196 0
M  V30 1153 H 117.373 -4.50445 2.72776 0
M  V30 1154 H 119.864 -3.00496 2.29152 0
M  V30 1155 H 120.177 -5.74578 5.16797 0
M  V30 1156 H 118.522 -5.17199 4.64253 0
M  V30 1157 H 121.713 -3.67051 2.90502 0
M  V30 1158 H 121.886 -4.9205 4.21653 0
M  V30 1159 N 115.292 -0.849877 -1.32721 0
M  V30 1160 C 116.708 -0.539102 -1.50219 0
M  V30 1161 C 116.908 0.931271 -1.78689 0
M  V30 1162 O 115.964 1.71455 -1.85363 0
M  V30 1163 C 117.277 -1.42196 -2.64954 0
M  V30 1164 C 118.825 -1.42189 -2.78839 0
M  V30 1165 C 119.3 -2.28985 -3.96648 0
M  V30 1166 N 120.791 -2.26754 -4.03902 0
M  V30 1167 C 121.526 -2.90644 -4.94281 0
M  V30 1168 N 121.022 -3.63629 -5.897 0
M  V30 1169 N 122.815 -2.80057 -4.87365 0
M  V30 1170 H 114.966 -1.80156 -1.12506 0
M  V30 1171 H 117.229 -0.769217 -0.554085 0
M  V30 1172 H 116.935 -2.46733 -2.50631 0
M  V30 1173 H 116.809 -1.10591 -3.60624 0
M  V30 1174 H 119.196 -0.38419 -2.92588 0
M  V30 1175 H 119.277 -1.77807 -1.83898 0
M  V30 1176 H 118.921 -3.32819 -3.83658 0
M  V30 1177 H 118.851 -1.90702 -4.90857 0
M  V30 1178 H 121.342 -1.73688 -3.3562 0
M  V30 1179 H 121.655 -4.09558 -6.55349 0
M  V30 1180 H 120 -3.67737 -5.89741 0
M  V30 1181 H 123.191 -2.22593 -4.11789 0
M  V30 1182 H 123.364 -3.30132 -5.57599 0
M  V30 1183 N 116.77 1.45427 -0.607355 0
M  V30 1184 C 118.186 1.57283 -0.270985 0
M  V30 1185 C 118.386 1.59875 1.22647 0
M  V30 1186 O 117.442 1.52893 2.00948 0
M  V30 1187 C 118.755 2.85566 -0.941952 0
M  V30 1188 C 120.303 2.9924 -0.917849 0
M  V30 1189 C 120.778 4.30293 -1.56882 0
M  V30 1190 N 122.269 4.37051 -1.5343 0
M  V30 1191 C 123.004 5.37123 -2.00715 0
M  V30 1192 N 122.5 6.43734 -2.56084 0
M  V30 1193 N 124.293 5.28479 -1.91484 0
M  V30 1194 H 116.444 1.41988 -1.57966 0
M  V30 1195 H 118.707 0.67885 -0.661715 0
M  V30 1196 H 118.413 2.8955 -1.99633 0
M  V30 1197 H 118.287 3.74322 -0.465096 0
M  V30 1198 H 120.674 2.94822 0.127984 0
M  V30 1199 H 120.755 2.11895 -1.43297 0
M  V30 1200 H 120.399 4.35469 -2.61398 0
M  V30 1201 H 120.329 5.16454 -1.02873 0
M  V30 1202 H 122.82 3.60615 -1.12982 0
M  V30 1203 H 123.133 7.16341 -2.89958 0
M  V30 1204 H 121.478 6.44485 -2.60122 0
M  V30 1205 H 124.669 4.44098 -1.47967 0
M  V30 1206 H 124.842 6.0632 -2.28648 0
M  V30 1207 N 118.248 0.346503 1.53744 0
M  V30 1208 C 119.158 -0.517293 2.28826 0
M  V30 1209 C 120.174 -1.10935 1.3405 0
M  V30 1210 O 121.35 -1.1244 1.6709 0
M  V30 1211 C 118.415 -1.65098 3.04866 0
M  V30 1212 C 117.476 -1.0884 4.15274 0
M  V30 1213 C 116.709 -2.16806 4.87679 0
M  V30 1214 O 116.932 -3.3758 4.59778 0
M  V30 1215 O 115.866 -1.80934 5.74061 0
M  V30 1216 H 119.692 0.0931396 3.03557 0
M  V30 1217 H 117.277 0.111458 1.48984 0
M  V30 1218 H 119.159 -2.31053 3.5241 0
M  V30 1219 H 117.834 -2.24717 2.32989 0
M  V30 1220 H 116.741 -0.3933 3.72027 0
M  V30 1221 H 118.074 -0.537036 4.89261 0
M  V30 1222 N 119.726 -1.57421 0.075193 0
M  V30 1223 C 120.951 -1.98364 -0.605515 0
M  V30 1224 C 121.376 -0.953383 -1.62149 0
M  V30 1225 O 120.734 0.0806053 -1.81121 0
M  V30 1226 C 120.782 -3.38332 -1.24756 0
M  V30 1227 O 119.886 -3.37959 -2.36342 0
M  V30 1228 H 119.227 -0.645553 -0.155428 0
M  V30 1229 H 121.757 -2.04044 0.150714 0
M  V30 1230 H 121.767 -3.75591 -1.5936 0
M  V30 1231 H 120.442 -4.12846 -0.503129 0
M  V30 1232 H 119.019 -3.12474 -2.03506 0
M  V30 1233 N 121.204 0.198386 -1.56346 0
M  V30 1234 C 122.151 1.24589 -1.94284 0
M  V30 1235 C 123.121 1.454 -0.802997 0
M  V30 1236 O 124.306 1.58588 -1.06087 0
M  V30 1237 C 121.446 2.58631 -2.28482 0
M  V30 1238 C 120.559 2.45426 -3.55514 0
M  V30 1239 C 119.694 3.7215 -3.79049 0
M  V30 1240 C 118.733 3.53763 -4.99518 0
M  V30 1241 N 117.87 4.72491 -5.19323 0
M  V30 1242 H 122.71 0.915356 -2.83593 0
M  V30 1243 H 120.247 0.440629 -1.40346 0
M  V30 1244 H 122.205 3.3672 -2.46324 0
M  V30 1245 H 120.835 2.89734 -1.42317 0
M  V30 1246 H 119.887 1.58652 -3.45737 0
M  V30 1247 H 121.199 2.27772 -4.43758 0
M  V30 1248 H 120.353 4.58679 -3.97113 0
M  V30 1249 H 119.092 3.92754 -2.89129 0
M  V30 1250 H 118.097 2.65619 -4.8138 0
M  V30 1251 H 119.322 3.34607 -5.90944 0
M  V30 1252 H 117.268 4.93365 -4.3235 0
M  V30 1253 H 117.185 4.5765 -6.01741 0
M  V30 1254 H 118.453 5.6038 -5.41843 0
M  V30 1255 N 122.682 1.50554 0.465978 0
M  V30 1256 C 124.098 1.38093 0.800154 0
M  V30 1257 C 124.298 0.440988 1.96615 0
M  V30 1258 O 123.354 -0.114499 2.5224 0
M  V30 1259 C 124.667 2.79565 1.10742 0
M  V30 1260 C 126.215 2.88516 1.21357 0
M  V30 1261 C 126.69 4.30833 1.55393 0
M  V30 1262 N 128.181 4.33807 1.62375 0
M  V30 1263 C 128.916 5.40927 1.90225 0
M  V30 1264 N 128.412 6.58247 2.16062 0
M  V30 1265 N 130.205 5.28376 1.9177 0
M  V30 1266 H 122.356 2.10237 -0.302366 0
M  V30 1267 H 124.619 0.945203 -0.0727746 0
M  V30 1268 H 124.325 3.50208 0.323661 0
M  V30 1269 H 124.199 3.17125 2.04234 0
M  V30 1270 H 126.586 2.1809 1.98799 0
M  V30 1271 H 126.667 2.54492 0.258321 0
M  V30 1272 H 126.311 5.01799 0.784889 0
M  V30 1273 H 126.241 4.62347 2.52076 0
M  V30 1274 H 128.732 3.49212 1.44427 0
M  V30 1275 H 129.045 7.3569 2.36601 0
M  V30 1276 H 127.39 6.61413 2.13444 0
M  V30 1277 H 130.581 4.35715 1.71085 0
M  V30 1278 H 130.754 6.11944 2.13139 0
M  V30 1279 N 124.16 -0.719506 1.40217 0
M  V30 1280 C 125.107 -1.83359 1.40172 0
M  V30 1281 C 126.077 -1.64065 0.259206 0
M  V30 1282 O 127.262 -1.85254 0.456677 0
M  V30 1283 C 124.402 -3.2103 1.26624 0
M  V30 1284 C 123.515 -3.51923 2.50548 0
M  V30 1285 C 122.65 -4.79079 2.29471 0
M  V30 1286 C 121.689 -5.02863 3.48992 0
M  V30 1287 N 120.826 -6.2123 3.27135 0
M  V30 1288 H 125.666 -1.82733 2.35399 0
M  V30 1289 H 123.203 -0.892688 1.16917 0
M  V30 1290 H 125.161 -4.00524 1.16776 0
M  V30 1291 H 123.791 -3.20895 0.350176 0
M  V30 1292 H 122.843 -2.67014 2.70939 0
M  V30 1293 H 124.155 -3.6541 3.39525 0
M  V30 1294 H 123.309 -5.66582 2.16955 0
M  V30 1295 H 122.048 -4.67794 1.37913 0
M  V30 1296 H 121.053 -4.13816 3.6199 0
M  V30 1297 H 122.278 -5.16023 4.41472 0
M  V30 1298 H 120.224 -6.11204 2.38256 0
M  V30 1299 H 120.141 -6.35375 4.09675 0
M  V30 1300 H 121.409 -7.11532 3.18344 0
M  V30 1301 N 125.638 -1.25649 -0.95132 0
M  V30 1302 C 126.585 -1.06323 -2.04851 0
M  V30 1303 C 127.555 0.0286491 -1.66075 0
M  V30 1304 O 128.74 -0.12917 -1.90362 0
M  V30 1305 C 125.88 -0.691529 -3.381 0
M  V30 1306 C 124.993 -1.85861 -3.89974 0
M  V30 1307 C 124.128 -1.43096 -5.11563 0
M  V30 1308 C 123.167 -2.56696 -5.55674 0
M  V30 1309 N 122.304 -2.14684 -6.68472 0
M  V30 1310 H 127.144 -2.00222 -2.20715 0
M  V30 1311 H 124.681 -0.997027 -1.08156 0
M  V30 1312 H 126.639 -0.456963 -4.1469 0
M  V30 1313 H 125.269 0.210474 -3.22113 0
M  V30 1314 H 124.321 -2.20639 -3.09875 0
M  V30 1315 H 125.633 -2.71161 -4.18657 0
M  V30 1316 H 124.787 -1.15624 -5.9558 0
M  V30 1317 H 123.526 -0.548722 -4.84603 0
M  V30 1318 H 122.531 -2.84909 -4.7022 0
M  V30 1319 H 123.756 -3.45503 -5.8464 0
M  V30 1320 H 121.702 -1.28881 -6.43215 0
M  V30 1321 H 121.619 -2.9353 -6.96689 0
M  V30 1322 H 122.887 -1.90397 -7.5589 0
M  V30 1323 N 127.117 1.15442 -1.07289 0
M  V30 1324 C 128.342 1.90638 -0.816828 0
M  V30 1325 C 128.767 1.77445 0.624083 0
M  V30 1326 O 128.125 1.10671 1.43602 0
M  V30 1327 C 128.173 3.39008 -1.22906 0
M  V30 1328 O 127.277 4.10701 -0.373975 0
M  V30 1329 H 126.618 0.593555 -0.297638 0
M  V30 1330 H 129.148 1.46198 -1.43134 0
M  V30 1331 H 129.158 3.89801 -1.20497 0
M  V30 1332 H 127.833 3.47929 -2.27856 0
M  V30 1333 H 126.41 3.70046 -0.460499 0
M  V30 1334 N 128.595 0.856903 1.32268 0
M  V30 1335 C 129.842 0.461386 1.97174 0
M  V30 1336 C 130.17 -0.983491 1.67803 0
M  V30 1337 O 129.425 -1.70541 0.959903 0
M  V30 1338 C 129.724 0.649919 3.51441 0
M  V30 1339 C 129.39 2.0656 4.00804 0
M  V30 1340 C 128.052 2.45279 4.13995 0
M  V30 1341 C 130.404 2.98947 4.26943 0
M  V30 1342 C 127.732 3.75653 4.50668 0
M  V30 1343 C 130.084 4.28822 4.65075 0
M  V30 1344 C 128.748 4.67472 4.76472 0
M  V30 1345 H 128.018 0.168833 0.72151 0
M  V30 1346 H 130.665 1.08739 1.57633 0
M  V30 1347 H 128.97 -0.0593018 3.91755 0
M  V30 1348 H 130.667 0.32391 3.9969 0
M  V30 1349 H 127.257 1.75495 3.91024 0
M  V30 1350 H 131.441 2.70265 4.16258 0
M  V30 1351 H 126.697 4.05379 4.57688 0
M  V30 1352 H 130.871 5.0047 4.84255 0
M  V30 1353 H 128.498 5.68539 5.04646 0
M  V30 1354 N 130.073 -1.45103 0.615059 0
M  V30 1355 C 131.003 -2.33339 -0.0865619 0
M  V30 1356 C 131.984 -1.4727 -0.851209 0
M  V30 1357 O 133.169 -1.76026 -0.820281 0
M  V30 1358 C 130.299 -3.30095 -1.07956 0
M  V30 1359 C 129.253 -4.25858 -0.427628 0
M  V30 1360 C 128.579 -5.12361 -1.5294 0
M  V30 1361 C 129.879 -5.18165 0.655944 0
M  V30 1362 H 131.573 -2.92254 0.650224 0
M  V30 1363 H 129.119 -1.40532 0.314138 0
M  V30 1364 H 131.072 -3.90698 -1.57901 0
M  V30 1365 H 129.796 -2.69355 -1.84703 0
M  V30 1366 H 128.455 -3.66564 0.0510292 0
M  V30 1367 H 128.103 -4.47984 -2.28734 0
M  V30 1368 H 127.803 -5.77238 -1.09865 0
M  V30 1369 H 129.327 -5.75833 -2.03098 0
M  V30 1370 H 130.741 -5.72796 0.240257 0
M  V30 1371 H 129.138 -5.91559 1.00888 0
M  V30 1372 H 130.208 -4.60144 1.52957 0
M  V30 1373 N 131.551 -0.354651 -1.53558 0
M  V30 1374 C 132.481 0.489091 -2.2832 0
M  V30 1375 C 133.462 1.09324 -1.30316 0
M  V30 1376 O 134.647 1.11255 -1.59173 0
M  V30 1377 C 131.777 1.63456 -3.0643 0
M  V30 1378 C 130.731 1.1582 -4.12031 0
M  V30 1379 C 130.057 2.39305 -4.7816 0
M  V30 1380 C 131.357 0.250731 -5.21698 0
M  V30 1381 H 133.051 -0.134614 -2.99097 0
M  V30 1382 H 130.597 -0.0661826 -1.43848 0
M  V30 1383 H 132.55 2.23136 -3.57475 0
M  V30 1384 H 131.274 2.28533 -2.33325 0
M  V30 1385 H 129.933 0.584146 -3.61916 0
M  V30 1386 H 129.581 3.02814 -4.01637 0
M  V30 1387 H 129.281 2.08109 -5.49513 0
M  V30 1388 H 130.805 2.99691 -5.31994 0
M  V30 1389 H 132.219 0.754695 -5.68311 0
M  V30 1390 H 130.616 0.0301468 -6.00092 0
M  V30 1391 H 131.686 -0.710125 -4.79672 0
M  V30 1392 N 133.029 1.57378 -0.0835403 0
M  V30 1393 C 134.269 1.95808 0.586381 0
M  V30 1394 C 134.633 0.963706 1.66062 0
M  V30 1395 O 135.834 1.23608 2.38693 0
M  V30 1396 C 134.105 3.38808 1.13771 0
M  V30 1397 S 135.664 3.99225 1.82112 0
M  V30 1398 H 132.482 0.684675 0.191679 0
M  V30 1399 H 135.084 1.94843 -0.160194 0
M  V30 1400 H 133.788 4.08954 0.344197 0
M  V30 1401 H 133.319 3.43344 1.92038 0
M  V30 1402 H 135.334 3.87087 3.10449 0
M  V30 1403 N 134.507 -0.190092 1.56449 0
M  V30 1404 C 135.756 -0.907912 1.80111 0
M  V30 1405 C 136.069 -1.84214 0.657619 0
M  V30 1406 O 137.275 -2.60094 0.778663 0
M  V30 1407 C 135.731 -1.66485 3.19078 0
M  V30 1408 C 135.339 -0.7752 4.41242 0
M  V30 1409 C 137.083 -2.37201 3.52045 0
M  V30 1410 C 134.99 -1.53129 5.71231 0
M  V30 1411 H 133.92 -0.34276 0.671589 0
M  V30 1412 H 136.571 -0.161109 1.82791 0
M  V30 1413 H 134.953 -2.45572 3.10661 0
M  V30 1414 H 136.127 -0.0226298 4.60794 0
M  V30 1415 H 134.442 -0.178627 4.16017 0
M  V30 1416 H 137.039 -2.94329 4.46402 0
M  V30 1417 H 137.382 -3.11632 2.76028 0
M  V30 1418 H 137.915 -1.65075 3.61932 0
M  V30 1419 H 134.654 -0.82967 6.50228 0
M  V30 1420 H 134.174 -2.25767 5.55688 0
M  V30 1421 H 135.853 -2.08377 6.12526 0
M  V30 1422 N 135.985 -1.50799 -0.457987 0
M  V30 1423 C 137.233 -1.62121 -1.2067 0
M  V30 1424 C 137.554 -0.329793 -1.92191 0
M  V30 1425 O 136.824 0.653409 -1.84682 0
M  V30 1426 H 135.404 -0.597441 -0.448411 0
M  V30 1427 H 138.066 -1.87637 -0.527096 0
M  V30 1428 H 137.162 -2.43882 -1.94751 0
M  V30 1429 N 137.463 0.71206 -1.40597 0
M  V30 1430 C 138.709 1.47292 -1.40274 0
M  V30 1431 C 139.064 1.92399 -0.00576812 0
M  V30 1432 O 138.357 1.65507 0.965297 0
M  V30 1433 C 138.551 2.71039 -2.32965 0
M  V30 1434 C 138.38 2.38035 -3.81536 0
M  V30 1435 C 137.15 2.29203 -4.50327 0
M  V30 1436 C 139.348 2.02076 -4.72938 0
M  V30 1437 N 137.33 1.88911 -5.84111 0
M  V30 1438 C 138.701 1.72412 -5.95545 0
M  V30 1439 C 140.756 1.88742 -4.60739 0
M  V30 1440 C 139.459 1.30756 -7.07316 0
M  V30 1441 C 141.485 1.4849 -5.72455 0
M  V30 1442 C 140.847 1.19726 -6.94151 0
M  V30 1443 H 136.946 0.536919 -0.568544 0
M  V30 1444 H 139.53 0.825424 -1.76337 0
M  V30 1445 H 137.701 3.33533 -1.99023 0
M  V30 1446 H 139.433 3.37404 -2.23474 0
M  V30 1447 H 136.188 2.47059 -4.04053 0
M  V30 1448 H 136.612 1.71293 -6.54972 0
M  V30 1449 H 141.254 2.0964 -3.67166 0
M  V30 1450 H 138.972 1.08601 -8.00769 0
M  V30 1451 H 142.558 1.38747 -5.65014 0
M  V30 1452 H 141.438 0.890482 -7.79128 0
M  V30 1453 N 138.941 1.26152 0.944643 0
M  V30 1454 C 139.871 1.09902 2.06019 0
M  V30 1455 C 140.852 0.00519538 1.70099 0
M  V30 1456 O 142.037 0.176583 1.93396 0
M  V30 1457 C 139.167 0.727562 3.39594 0
M  V30 1458 C 138.121 1.77274 3.89561 0
M  V30 1459 C 137.447 1.25569 5.19747 0
M  V30 1460 C 138.747 3.17357 4.14827 0
M  V30 1461 H 140.441 2.03217 2.19871 0
M  V30 1462 H 137.987 0.978452 1.05652 0
M  V30 1463 H 139.94 0.600777 4.17095 0
M  V30 1464 H 138.664 -0.241287 3.25707 0
M  V30 1465 H 137.323 1.88814 3.14237 0
M  V30 1466 H 136.971 0.276783 5.02238 0
M  V30 1467 H 136.671 1.95433 5.54148 0
M  V30 1468 H 138.195 1.1415 5.99835 0
M  V30 1469 H 139.609 3.08914 4.82954 0
M  V30 1470 H 138.006 3.84781 4.60504 0
M  V30 1471 H 139.076 3.63673 3.20734 0
M  V30 1472 N 140.419 -1.14872 1.07899 0
M  V30 1473 C 141.382 -2.17986 0.708161 0
M  V30 1474 C 142.382 -1.58775 -0.25442 0
M  V30 1475 O 143.572 -1.74166 -0.034645 0
M  V30 1476 C 140.704 -3.40871 0.0446929 0
M  V30 1477 H 141.897 -2.52306 1.62116 0
M  V30 1478 H 139.45 -1.2943 0.876218 0
M  V30 1479 H 140.185 -3.12124 -0.880281 0
M  V30 1480 H 139.97 -3.8511 0.737091 0
M  V30 1481 H 141.46 -4.17121 -0.19991 0
M  V30 1482 N 141.898 -0.863906 -1.31812 0
M  V30 1483 C 142.828 -0.330843 -2.31144 0
M  V30 1484 C 143.809 0.575005 -1.60087 0
M  V30 1485 O 144.994 0.493304 -1.8783 0
M  V30 1486 C 142.124 0.47374 -3.44054 0
M  V30 1487 C 141.078 -0.338481 -4.26659 0
M  V30 1488 C 140.404 0.591412 -5.31419 0
M  V30 1489 C 141.704 -1.56926 -4.98168 0
M  V30 1490 H 143.398 -1.16086 -2.75979 0
M  V30 1491 H 140.944 -0.559657 -1.32679 0
M  V30 1492 H 142.897 0.857143 -4.12591 0
M  V30 1493 H 141.621 1.33721 -2.9797 0
M  V30 1494 H 140.28 -0.703754 -3.59782 0
M  V30 1495 H 139.928 1.45199 -4.81587 0
M  V30 1496 H 139.628 0.0519022 -5.87577 0
M  V30 1497 H 141.152 0.97179 -6.02817 0
M  V30 1498 H 142.566 -1.25764 -5.59336 0
M  V30 1499 H 140.963 -2.04739 -5.64094 0
M  V30 1500 H 142.033 -2.32544 -4.25501 0
M  V30 1501 N 143.376 1.44774 -0.622745 0
M  V30 1502 C 144.604 2.06487 -0.130722 0
M  V30 1503 C 145.019 1.46476 1.19123 0
M  V30 1504 O 144.376 0.584502 1.72887 0
M  V30 1505 C 144.427 3.615 -0.000807207 0
M  V30 1506 O 144.148 4.19274 -1.27048 0
M  V30 1507 C 145.649 4.40229 0.520898 0
M  V30 1508 H 142.869 0.666704 -0.0758106 0
M  V30 1509 H 145.413 1.85779 -0.854774 0
M  V30 1510 H 143.568 3.81498 0.673643 0
M  V30 1511 H 143.982 5.12622 -1.1099 0
M  V30 1512 H 145.456 5.49144 0.560838 0
M  V30 1513 H 145.933 4.1108 1.54627 0
M  V30 1514 H 146.539 4.25131 -0.120018 0
M  V30 1515 N 144.854 0.36279 1.53368 0
M  V30 1516 C 146.131 -0.284021 1.93527 0
M  V30 1517 C 146.511 -1.66628 1.29608 0
M  V30 1518 O 145.859 -2.23942 0.45413 0
M  V30 1519 C 146.069 -0.337028 3.47369 0
M  V30 1520 C 147.417 -0.578708 4.20638 0
M  V30 1521 O 148.441 -0.418352 3.53735 0
M  V30 1522 O 147.3 -0.89074 5.39192 0
M  V30 1523 H 144.394 -0.169743 0.809393 0
M  V30 1524 H 146.94 0.41537 1.64538 0
M  V30 1525 H 145.712 0.632217 3.86159 0
M  V30 1526 H 145.335 -1.08243 3.82582 0
M  V30 1527 N 146.332 -1.57332 0.0918853 0
M  V30 1528 C 147.262 -2.16872 -0.865371 0
M  V30 1529 C 148.243 -1.10118 -1.29646 0
M  V30 1530 O 149.428 -1.38242 -1.36392 0
M  V30 1531 C 146.558 -2.74649 -2.12569 0
M  V30 1532 C 145.512 -3.86747 -1.83333 0
M  V30 1533 C 144.838 -4.31212 -3.16166 0
M  V30 1534 C 146.138 -5.10089 -1.1228 0
M  V30 1535 H 147.832 -2.97114 -0.369307 0
M  V30 1536 H 145.378 -1.42918 -0.176194 0
M  V30 1537 H 147.331 -3.14952 -2.7997 0
M  V30 1538 H 146.055 -1.91657 -2.64452 0
M  V30 1539 H 144.714 -3.46978 -1.18331 0
M  V30 1540 H 144.362 -3.45115 -3.6593 0
M  V30 1541 H 144.062 -5.06788 -2.97388 0
M  V30 1542 H 145.586 -4.74146 -3.84731 0
M  V30 1543 H 147 -5.47582 -1.69785 0
M  V30 1544 H 145.397 -5.91073 -1.03693 0
M  V30 1545 H 146.467 -4.84786 -0.105041 0
M  V30 1546 N 147.81 0.181792 -1.56548 0
M  V30 1547 C 149.056 0.901431 -1.81665 0
M  V30 1548 C 149.389 1.82347 -0.668075 0
M  V30 1549 O 148.664 1.91669 0.330615 0
M  V30 1550 C 148.947 1.70618 -3.17115 0
M  V30 1551 C 148.8 0.807964 -4.42484 0
M  V30 1552 C 150.119 2.67605 -3.49393 0
M  V30 1553 H 147.238 0.32627 -0.660846 0
M  V30 1554 H 149.88 0.168134 -1.89255 0
M  V30 1555 H 148.03 2.33133 -3.10775 0
M  V30 1556 H 149.702 0.19649 -4.60881 0
M  V30 1557 H 147.945 0.115411 -4.33646 0
M  V30 1558 H 148.616 1.40632 -5.33785 0
M  V30 1559 H 151.092 2.15218 -3.56118 0
M  V30 1560 H 149.968 3.20985 -4.45264 0
M  V30 1561 H 150.229 3.47298 -2.73563 0
M  V30 1562 N 149.288 1.51039 0.449983 0
M  V30 1563 C 150.536 1.62759 1.19808 0
M  V30 1564 C 150.857 0.339981 1.92013 0
M  V30 1565 O 150.127 -0.643606 1.85026 0
M  V30 1566 H 148.707 0.599811 0.445237 0
M  V30 1567 H 151.369 1.87914 0.517138 0
M  V30 1568 H 150.465 2.44911 1.93455 0
M  V30 1569 N 150.766 -0.704594 1.40972 0
M  V30 1570 C 151.698 -1.82974 1.38033 0
M  V30 1571 C 152.711 -1.60305 0.283931 0
M  V30 1572 O 153.9 -1.69975 0.545042 0
M  V30 1573 C 151 -3.19578 1.12795 0
M  V30 1574 C 150.173 -3.69352 2.34302 0
M  V30 1575 C 149.232 -4.84601 2.05058 0
M  V30 1576 O 148.258 -4.96682 2.7802 0
M  V30 1577 N 149.46 -5.71194 1.03528 0
M  V30 1578 H 152.225 -1.85991 2.35005 0
M  V30 1579 H 149.786 -0.886567 1.35468 0
M  V30 1580 H 151.778 -3.9429 0.911987 0
M  V30 1581 H 150.348 -3.11642 0.24452 0
M  V30 1582 H 149.568 -2.85649 2.71659 0
M  V30 1583 H 150.856 -3.99345 3.1528 0
M  V30 1584 H 150.254 -5.64054 0.431217 0
M  V30 1585 H 148.811 -6.45843 0.879205 0
M  V30 1586 N 152.244 -1.26651 -0.937939 0
M  V30 1587 C 153.174 -1.10993 -2.05433 0
M  V30 1588 C 154.155 -0.0142161 -1.70094 0
M  V30 1589 O 155.34 -0.186837 -1.93299 0
M  V30 1590 C 152.47 -0.745561 -3.39203 0
M  V30 1591 C 151.424 -1.79337 -3.88616 0
M  V30 1592 C 150.75 -1.28324 -5.19073 0
M  V30 1593 C 152.05 -3.19553 -4.13138 0
M  V30 1594 H 153.744 -2.0438 -2.1879 0
M  V30 1595 H 151.29 -0.984041 -1.05131 0
M  V30 1596 H 153.243 -0.622888 -4.16771 0
M  V30 1597 H 151.967 0.22401 -3.25831 0
M  V30 1598 H 150.626 -1.90477 -3.13231 0
M  V30 1599 H 150.274 -0.303414 -5.02084 0
M  V30 1600 H 149.974 -1.98369 -5.53103 0
M  V30 1601 H 151.498 -1.1733 -5.99221 0
M  V30 1602 H 152.912 -3.11471 -4.81309 0
M  V30 1603 H 151.309 -3.87218 -4.58457 0
M  V30 1604 H 152.379 -3.65368 -3.18801 0
M  V30 1605 N 153.722 1.14298 -1.08507 0
M  V30 1606 C 154.652 2.21542 -0.737646 0
M  V30 1607 C 155.633 1.67773 0.280377 0
M  V30 1608 O 156.818 1.93616 0.150521 0
M  V30 1609 C 153.948 3.46988 -0.147259 0
M  V30 1610 C 152.902 4.13789 -1.09374 0
M  V30 1611 C 152.228 5.33449 -0.365524 0
M  V30 1612 C 153.528 4.62208 -2.4323 0
M  V30 1613 H 155.222 2.5086 -1.6343 0
M  V30 1614 H 152.768 1.20576 -0.787243 0
M  V30 1615 H 154.721 4.21262 0.107808 0
M  V30 1616 H 153.445 3.17037 0.784538 0
M  V30 1617 H 152.104 3.4147 -1.33393 0
M  V30 1618 H 151.752 4.99759 0.57011 0
M  V30 1619 H 151.452 5.79088 -0.996512 0
M  V30 1620 H 152.976 6.10485 -0.118534 0
M  V30 1621 H 154.39 5.27952 -2.23472 0
M  V30 1622 H 152.787 5.18553 -3.02031 0
M  V30 1623 H 153.857 3.77224 -3.04681 0
M  V30 1624 N 155.201 0.870884 1.31352 0
M  V30 1625 C 156.429 0.49677 2.00848 0
M  V30 1626 C 156.844 -0.910998 1.65367 0
M  V30 1627 O 156.201 -1.59696 0.883374 0
M  V30 1628 C 156.252 0.645308 3.55694 0
M  V30 1629 O 155.973 1.99764 3.89905 0
M  V30 1630 C 157.474 0.272326 4.42463 0
M  V30 1631 H 154.694 0.193462 0.642506 0
M  V30 1632 H 157.238 1.1723 1.67563 0
M  V30 1633 H 155.393 0.0173176 3.87396 0
M  V30 1634 H 155.807 2.00607 4.84621 0
M  V30 1635 H 157.281 0.427208 5.50344 0
M  V30 1636 H 157.758 -0.788587 4.32062 0
M  V30 1637 H 158.364 0.876054 4.1618 0
M  V30 1638 N 156.679 -1.44442 0.630414 0
M  V30 1639 C 157.907 -2.06414 0.141671 0
M  V30 1640 C 158.322 -1.47105 -1.18345 0
M  V30 1641 O 157.679 -0.593662 -1.72574 0
M  V30 1642 C 157.73 -3.61494 0.0199784 0
M  V30 1643 O 157.451 -4.18594 1.29269 0
M  V30 1644 C 158.952 -4.40499 -0.497544 0
M  V30 1645 H 156.172 -0.666292 0.0793452 0
M  V30 1646 H 158.716 -1.85323 0.864614 0
M  V30 1647 H 156.871 -3.8185 -0.653402 0
M  V30 1648 H 157.285 -5.12026 1.13707 0
M  V30 1649 H 158.759 -5.49433 -0.531708 0
M  V30 1650 H 159.236 -4.11895 -1.52445 0
M  V30 1651 H 159.842 -4.25061 0.142562 0
M  V30 1652 N 158.157 -0.370918 -1.53173 0
M  V30 1653 C 159.568 0.107139 -1.86392 0
M  V30 1654 C 159.919 1.47714 -1.29132 0
M  V30 1655 O 159.044 2.07464 -0.615439 0
M  V30 1656 C 159.639 0.201187 -3.38202 0
M  V30 1657 C 158.198 0.623507 -3.712 0
M  V30 1658 C 157.345 -0.225978 -2.76378 0
M  V30 1659 H 160.296 -0.58951 -1.47345 0
M  V30 1660 H 160.317 1.02377 -3.66468 0
M  V30 1661 H 159.829 -0.796058 -3.79848 0
M  V30 1662 H 157.93 1.62879 -3.35114 0
M  V30 1663 H 158.043 0.394414 -4.77474 0
M  V30 1664 H 156.407 0.305962 -2.52856 0
M  V30 1665 H 157.19 -1.22086 -3.20858 0
M  V30 1666 N 159.635 1.57281 -0.100228 0
M  V30 1667 C 160.881 1.94826 0.563101 0
M  V30 1668 C 161.214 0.982475 1.67514 0
M  V30 1669 O 160.489 0.0164069 1.94493 0
M  V30 1670 C 160.772 3.42453 1.11346 0
M  V30 1671 C 160.625 4.498 0.00612081 0
M  V30 1672 C 161.944 3.91506 2.01024 0
M  V30 1673 H 159.063 0.708428 0.203221 0
M  V30 1674 H 161.705 1.8922 -0.171979 0
M  V30 1675 H 159.855 3.47361 1.7399 0
M  V30 1676 H 161.527 4.57 -0.628357 0
M  V30 1677 H 159.77 4.28756 -0.659581 0
M  V30 1678 H 160.441 5.50306 0.432109 0
M  V30 1679 H 162.917 3.88784 1.48278 0
M  V30 1680 H 161.793 4.95358 2.36457 0
M  V30 1681 H 162.054 3.31099 2.92961 0
M  V30 1682 N 161.113 -0.173488 1.56642 0
M  V30 1683 C 162.359 -0.891784 1.8214 0
M  V30 1684 C 162.692 -1.8199 0.677736 0
M  V30 1685 O 161.967 -1.91842 -0.320446 0
M  V30 1686 C 162.25 -1.68933 3.18015 0
M  V30 1687 C 162.103 -0.784487 4.42906 0
M  V30 1688 C 163.422 -2.65748 3.50808 0
M  V30 1689 H 160.541 -0.322761 0.662567 0
M  V30 1690 H 163.183 -0.158095 1.89341 0
M  V30 1691 H 161.333 -2.31482 3.12007 0
M  V30 1692 H 163.005 -0.172046 4.60979 0
M  V30 1693 H 161.248 -0.0924117 4.33702 0
M  V30 1694 H 161.919 -1.37799 5.34524 0
M  V30 1695 H 164.395 -2.13327 3.57255 0
M  V30 1696 H 163.271 -3.18619 4.4696 0
M  V30 1697 H 163.532 -3.45842 2.75401 0
M  V30 1698 N 162.591 -1.51276 -0.441967 0
M  V30 1699 C 163.84 -1.6295 -1.18871 0
M  V30 1700 C 164.153 -0.349312 -1.92456 0
M  V30 1701 O 165.359 -0.345355 -2.69295 0
M  V30 1702 C 163.815 -2.87759 -2.16155 0
M  V30 1703 C 163.423 -4.22764 -1.48239 0
M  V30 1704 C 165.167 -3.08788 -2.91291 0
M  V30 1705 C 163.074 -5.38728 -2.4398 0
M  V30 1706 H 162.004 -0.606913 -0.447406 0
M  V30 1707 H 164.655 -1.77739 -0.456205 0
M  V30 1708 H 163.037 -2.66593 -2.92821 0
M  V30 1709 H 164.211 -4.54293 -0.771635 0
M  V30 1710 H 162.526 -4.07575 -0.852741 0
M  V30 1711 H 165.123 -3.92599 -3.63002 0
M  V30 1712 H 165.466 -2.21679 -3.5237 0
M  V30 1713 H 165.999 -3.30272 -2.21733 0
M  V30 1714 H 162.738 -6.28082 -1.87598 0
M  V30 1715 H 162.258 -5.1158 -3.13123 0
M  V30 1716 H 163.937 -5.70489 -3.05207 0
M  V30 1717 N 164.069 0.697108 -1.41344 0
M  V30 1718 C 165.315 1.4593 -1.40827 0
M  V30 1719 C 165.648 1.94193 -0.0167098 0
M  V30 1720 O 164.923 1.69425 0.955263 0
M  V30 1721 C 165.206 2.67229 -2.41373 0
M  V30 1722 C 165.059 2.24741 -3.8963 0
M  V30 1723 C 166.378 3.69423 -2.39196 0
M  V30 1724 H 163.497 0.529303 -0.512842 0
M  V30 1725 H 166.139 0.794112 -1.72609 0
M  V30 1726 H 164.289 3.23982 -2.14401 0
M  V30 1727 H 165.961 1.73327 -4.27499 0
M  V30 1728 H 164.204 1.56542 -4.0457 0
M  V30 1729 H 164.875 3.1177 -4.55525 0
M  V30 1730 H 167.351 3.2234 -2.63128 0
M  V30 1731 H 166.227 4.51907 -3.11563 0
M  V30 1732 H 166.488 4.19012 -1.41001 0
M  V30 1733 N 165.547 1.27147 0.931209 0
M  V30 1734 C 166.793 1.13446 1.68101 0
M  V30 1735 C 167.126 -0.319628 1.91552 0
M  V30 1736 O 166.401 -1.23407 1.50336 0
M  V30 1737 C 166.684 1.91482 3.0497 0
M  V30 1738 C 166.537 3.44855 2.88782 0
M  V30 1739 C 167.856 1.71651 4.05246 0
M  V30 1740 H 164.975 0.413498 0.610072 0
M  V30 1741 H 167.617 1.56261 1.08086 0
M  V30 1742 H 165.767 1.55095 3.56199 0
M  V30 1743 H 167.439 3.9105 2.44698 0
M  V30 1744 H 165.682 3.71373 2.24198 0
M  V30 1745 H 166.353 3.94694 3.85902 0
M  V30 1746 H 168.829 2.0337 3.63015 0
M  V30 1747 H 167.705 2.28651 4.99009 0
M  V30 1748 H 167.966 0.663555 4.37092 0
M  V30 1749 N 167.025 -1.13721 1.09112 0
M  V30 1750 C 168.255 -1.88499 0.845671 0
M  V30 1751 C 168.663 -1.79218 -0.606432 0
M  V30 1752 O 168.006 -1.1544 -1.42896 0
M  V30 1753 C 168.068 -3.38954 1.19793 0
M  V30 1754 C 167.732 -3.72018 2.65428 0
M  V30 1755 C 168.729 -3.7153 3.63677 0
M  V30 1756 C 166.414 -4.01775 3.01467 0
M  V30 1757 C 168.408 -4.00336 4.95994 0
M  V30 1758 C 166.095 -4.30243 4.33975 0
M  V30 1759 C 167.093 -4.29508 5.31048 0
M  V30 1760 O 166.781 -4.5728 6.61173 0
M  V30 1761 H 166.513 -0.603702 0.304171 0
M  V30 1762 H 169.067 -1.44903 1.45576 0
M  V30 1763 H 167.297 -3.83039 0.530871 0
M  V30 1764 H 168.986 -3.95052 0.932146 0
M  V30 1765 H 169.752 -3.4862 3.37179 0
M  V30 1766 H 165.631 -4.01496 2.26544 0
M  V30 1767 H 169.175 -3.99678 5.71755 0
M  V30 1768 H 165.072 -4.52625 4.60219 0
M  V30 1769 H 165.84 -4.74964 6.66597 0
M  V30 1770 N 168.503 -0.877838 -1.30888 0
M  V30 1771 C 169.433 -0.35534 -2.3078 0
M  V30 1772 C 170.414 0.557994 -1.60687 0
M  V30 1773 O 171.599 0.473355 -1.88343 0
M  V30 1774 C 168.729 0.437221 -3.44537 0
M  V30 1775 C 167.683 -0.383715 -4.26276 0
M  V30 1776 C 167.009 0.535014 -5.32017 0
M  V30 1777 C 168.309 -1.62201 -4.96476 0
M  V30 1778 H 170.003 -1.19007 -2.74732 0
M  V30 1779 H 167.549 -0.573698 -1.32078 0
M  V30 1780 H 169.502 0.813334 -4.13477 0
M  V30 1781 H 168.226 1.30553 -2.99372 0
M  V30 1782 H 166.885 -0.741874 -3.59015 0
M  V30 1783 H 166.533 1.40083 -4.831 0
M  V30 1784 H 166.233 -0.0104211 -5.87599 0
M  V30 1785 H 167.757 0.907799 -6.03814 0
M  V30 1786 H 169.171 -1.31689 -5.5797 0
M  V30 1787 H 167.568 -2.10711 -5.61891 0
M  V30 1788 H 168.638 -2.37044 -4.23011 0
M  V30 1789 N 169.982 1.44106 -0.638065 0
M  V30 1790 C 171.207 2.0685 -0.150916 0
M  V30 1791 C 171.632 1.47417 1.16833 0
M  V30 1792 O 170.99 0.578264 1.71831 0
M  V30 1793 C 171.038 3.60555 -0.05708 0
M  V30 1794 O 170.142 4.00465 0.984972 0
M  V30 1795 H 169.483 0.658151 -0.0879399 0
M  V30 1796 H 172.013 1.84865 -0.876707 0
M  V30 1797 H 172.023 4.07789 0.131232 0
M  V30 1798 H 170.698 4.03193 -1.02021 0
M  V30 1799 H 169.275 3.64849 0.770672 0
M  V30 1800 N 171.46 0.379036 1.52974 0
M  V30 1801 C 172.407 -0.461048 2.26148 0
M  V30 1802 C 173.377 -1.06637 1.27349 0
M  V30 1803 O 174.562 -1.09633 1.56157 0
M  V30 1804 C 171.702 -1.58782 3.06402 0
M  V30 1805 C 170.815 -1.00636 4.20115 0
M  V30 1806 C 169.95 -2.10334 4.87784 0
M  V30 1807 C 168.989 -1.49724 5.93506 0
M  V30 1808 N 168.126 -2.5331 6.54812 0
M  V30 1809 H 172.966 0.169429 2.97518 0
M  V30 1810 H 170.503 0.0953806 1.4679 0
M  V30 1811 H 172.461 -2.25174 3.51215 0
M  V30 1812 H 171.091 -2.18876 2.37261 0
M  V30 1813 H 170.143 -0.232332 3.7969 0
M  V30 1814 H 171.455 -0.523343 4.96047 0
M  V30 1815 H 170.609 -2.84519 5.35849 0
M  V30 1816 H 169.348 -2.61992 4.11353 0
M  V30 1817 H 168.353 -0.740598 5.44789 0
M  V30 1818 H 169.578 -0.988732 6.71864 0
M  V30 1819 H 167.524 -3.04156 5.81227 0
M  V30 1820 H 167.441 -2.09734 7.26325 0
M  V30 1821 H 168.709 -3.27155 7.07524 0
M  V30 1822 N 172.938 -1.57226 0.108567 0
M  V30 1823 C 173.87 -2.11809 -0.875752 0
M  V30 1824 C 174.883 -1.05839 -1.23701 0
M  V30 1825 O 176.072 -1.33245 -1.18778 0
M  V30 1826 C 173.172 -2.59411 -2.18081 0
M  V30 1827 C 172.345 -3.89364 -1.99284 0
M  V30 1828 C 171.404 -4.22672 -3.13424 0
M  V30 1829 O 170.43 -4.91668 -2.86795 0
M  V30 1830 N 171.632 -3.79154 -4.3957 0
M  V30 1831 H 174.397 -2.9689 -0.409477 0
M  V30 1832 H 171.958 -1.61721 -0.076158 0
M  V30 1833 H 173.95 -2.7873 -2.93414 0
M  V30 1834 H 172.52 -1.79268 -2.5609 0
M  V30 1835 H 171.74 -3.79059 -1.08203 0
M  V30 1836 H 173.028 -4.74358 -1.84017 0
M  V30 1837 H 172.426 -3.23486 -4.64083 0
M  V30 1838 H 170.983 -4.03602 -5.11809 0
M  V30 1839 N 174.416 0.165178 -1.56732 0
M  V30 1840 C 175.832 0.517174 -1.50988 0
M  V30 1841 C 176.032 1.84331 -0.813894 0
M  V30 1842 O 175.088 2.49672 -0.37682 0
M  V30 1843 C 176.401 0.544261 -2.95733 0
M  V30 1844 C 177.949 0.631039 -3.06573 0
M  V30 1845 C 178.424 0.68896 -4.52788 0
M  V30 1846 N 179.915 0.751683 -4.5706 0
M  V30 1847 C 180.65 0.817177 -5.67547 0
M  V30 1848 N 180.146 0.843129 -6.8765 0
M  V30 1849 N 181.939 0.856668 -5.55534 0
M  V30 1850 H 174.09 -0.704318 -2.00382 0
M  V30 1851 H 176.353 -0.254687 -0.913148 0
M  V30 1852 H 176.059 -0.361607 -3.49836 0
M  V30 1853 H 175.933 1.3886 -3.5071 0
M  V30 1854 H 178.32 1.52733 -2.52501 0
M  V30 1855 H 178.401 -0.240095 -2.54671 0
M  V30 1856 H 178.045 -0.2031 -5.07494 0
M  V30 1857 H 177.975 1.57633 -5.02454 0
M  V30 1858 H 180.466 0.739661 -3.70591 0
M  V30 1859 H 180.779 0.894448 -7.67606 0
M  V30 1860 H 179.124 0.811304 -6.90248 0
M  V30 1861 H 182.315 0.833437 -4.60621 0
M  V30 1862 H 182.488 0.904247 -6.4166 0
M  V30 1863 N 175.894 1.51508 0.433938 0
M  V30 1864 C 177.14 1.65549 1.18173 0
M  V30 1865 C 177.495 0.368751 1.88833 0
M  V30 1866 O 176.788 -0.635616 1.8075 0
M  V30 1867 C 176.982 2.79928 2.22205 0
M  V30 1868 C 176.811 4.19601 1.61756 0
M  V30 1869 C 175.581 4.85489 1.40101 0
M  V30 1870 C 177.779 5.02574 1.09194 0
M  V30 1871 N 175.761 6.09266 0.752859 0
M  V30 1872 C 177.132 6.17381 0.569255 0
M  V30 1873 C 179.187 4.88079 0.984025 0
M  V30 1874 C 177.89 7.19282 -0.0507472 0
M  V30 1875 C 179.916 5.90191 0.377912 0
M  V30 1876 C 179.278 7.04272 -0.134216 0
M  V30 1877 H 175.377 0.659653 0.419979 0
M  V30 1878 H 177.961 1.88746 0.477818 0
M  V30 1879 H 176.132 2.5839 2.89982 0
M  V30 1880 H 177.864 2.83132 2.89168 0
M  V30 1881 H 174.619 4.43417 1.66369 0
M  V30 1882 H 175.043 6.75528 0.446123 0
M  V30 1883 H 179.685 4.00131 1.36583 0
M  V30 1884 H 177.403 8.06876 -0.444676 0
M  V30 1885 H 180.989 5.81045 0.296269 0
M  V30 1886 H 179.869 7.81933 -0.59585 0
M  V30 1887 N 177.372 -0.689602 1.41712 0
M  V30 1888 C 178.282 -1.83314 1.46401 0
M  V30 1889 C 179.298 -1.7036 0.35405 0
M  V30 1890 O 180.474 -1.92171 0.602692 0
M  V30 1891 C 177.539 -3.19344 1.34982 0
M  V30 1892 C 176.6 -3.44363 2.56344 0
M  V30 1893 C 175.833 -4.73904 2.45461 0
M  V30 1894 O 176.056 -5.508 1.48241 0
M  V30 1895 O 174.99 -4.99839 3.35328 0
M  V30 1896 H 178.816 -1.82314 2.42889 0
M  V30 1897 H 176.401 -0.843438 1.23315 0
M  V30 1898 H 178.283 -4.00547 1.3092 0
M  V30 1899 H 176.958 -3.21014 0.41612 0
M  V30 1900 H 175.865 -2.63067 2.65982 0
M  V30 1901 H 177.198 -3.47512 3.48563 0
M  V30 1902 N 178.85 -1.27639 -0.924453 0
M  V30 1903 C 179.8 -1.07295 -2.01176 0
M  V30 1904 C 180.784 5.77352e-05 -1.609 0
M  V30 1905 O 181.976 -0.218855 -1.75642 0
M  V30 1906 C 179.105 -0.725592 -3.35544 0
M  V30 1907 C 178.191 -1.83691 -3.82254 0
M  V30 1908 N 178.582 -3.07697 -4.01443 0
M  V30 1909 C 176.88 -1.72433 -4.11319 0
M  V30 1910 C 177.581 -3.80037 -4.40394 0
M  V30 1911 N 176.557 -3.0782 -4.48049 0
M  V30 1912 H 180.359 -2.01399 -2.14046 0
M  V30 1913 H 177.873 -1.18401 -1.11153 0
M  V30 1914 H 179.87 -0.560959 -4.13109 0
M  V30 1915 H 178.53 0.207782 -3.24034 0
M  V30 1916 H 179.541 -3.43424 -3.8766 0
M  V30 1917 H 176.218 -0.862005 -4.08504 0
M  V30 1918 H 177.608 -4.86632 -4.63291 0
M  V30 1919 N 180.328 1.1314 -1.09713 0
M  V30 1920 C 181.577 1.83838 -0.829851 0
M  V30 1921 C 181.89 1.84599 0.646728 0
M  V30 1922 O 183.096 2.51218 1.02965 0
M  V30 1923 C 181.552 3.30069 -1.43466 0
M  V30 1924 C 181.16 3.37688 -2.94399 0
M  V30 1925 C 182.904 4.05788 -1.24645 0
M  V30 1926 C 180.811 4.78209 -3.47952 0
M  V30 1927 H 179.741 0.68877 -0.306777 0
M  V30 1928 H 182.392 1.27448 -1.3202 0
M  V30 1929 H 180.774 3.8628 -0.871996 0
M  V30 1930 H 181.948 2.91456 -3.56918 0
M  V30 1931 H 180.263 2.75436 -3.12289 0
M  V30 1932 H 182.86 5.09535 -1.62107 0
M  V30 1933 H 183.203 4.15878 -0.187357 0
M  V30 1934 H 183.736 3.55915 -1.77678 0
M  V30 1935 H 180.475 4.73311 -4.53495 0
M  V30 1936 H 179.995 5.24924 -2.90198 0
M  V30 1937 H 181.674 5.47133 -3.45332 0
M  V30 1938 N 181.806 0.884767 1.30421 0
M  V30 1939 C 183.083 0.423185 1.90967 0
M  V30 1940 C 183.463 -1.09605 1.80416 0
M  V30 1941 O 182.811 -1.93126 1.22125 0
M  V30 1942 C 183.021 0.921056 3.36627 0
M  V30 1943 C 184.369 0.955903 4.137 0
M  V30 1944 O 185.393 0.867706 3.4547 0
M  V30 1945 O 184.252 1.08614 5.35598 0
M  V30 1946 H 181.346 0.129369 0.816819 0
M  V30 1947 H 183.892 0.973653 1.3899 0
M  V30 1948 H 182.664 1.96489 3.3839 0
M  V30 1949 H 182.287 0.349741 3.96059 0
M  V30 1950 N 183.284 -1.43765 0.645699 0
M  V30 1951 C 184.695 -1.85193 0.236719 0
M  V30 1952 C 185.046 -1.54045 -1.21509 0
M  V30 1953 O 184.171 -0.985694 -1.92647 0
M  V30 1954 C 184.766 -3.36151 0.422845 0
M  V30 1955 C 183.325 -3.76338 0.0682492 0
M  V30 1956 C 182.472 -2.67538 0.729306 0
M  V30 1957 H 185.423 -1.34025 0.849883 0
M  V30 1958 H 185.444 -3.79032 -0.333904 0
M  V30 1959 H 184.956 -3.5879 1.47958 0
M  V30 1960 H 183.057 -3.59312 -0.986179 0
M  V30 1961 H 183.17 -4.76603 0.488469 0
M  V30 1962 H 181.534 -2.54176 0.163235 0
M  V30 1963 H 182.317 -2.93006 1.78892 0
M  V30 1964 N 184.763 -0.387143 -1.52771 0
M  V30 1965 C 185.988 0.198407 -2.06449 0
M  V30 1966 C 186.413 1.39918 -1.25716 0
M  V30 1967 O 185.771 1.79099 -0.281657 0
M  V30 1968 C 185.819 0.548893 -3.56398 0
M  V30 1969 O 184.923 1.64315 -3.78252 0
M  V30 1970 H 184.264 0.0237731 -0.663574 0
M  V30 1971 H 186.794 -0.553989 -1.96957 0
M  V30 1972 H 186.804 0.813812 -3.99801 0
M  V30 1973 H 185.479 -0.329005 -4.14597 0
M  V30 1974 H 184.056 1.37211 -3.46738 0
M  V30 1975 N 186.241 1.57166 -0.116904 0
M  V30 1976 C 187.489 1.94737 0.540533 0
M  V30 1977 C 187.81 1.00096 1.67349 0
M  V30 1978 O 187.08 0.0568854 1.95817 0
M  V30 1979 H 185.66 0.718981 0.202669 0
M  V30 1980 H 188.322 1.94017 -0.185353 0
M  V30 1981 H 187.418 2.97719 0.936483 0
M  V30 1982 N 187.719 -0.156864 1.56817 0
M  V30 1983 C 189.135 -0.50916 1.5126 0
M  V30 1984 C 189.335 -1.83897 0.823658 0
M  V30 1985 O 188.391 -2.49469 0.390055 0
M  V30 1986 C 189.704 -0.52857 2.96018 0
M  V30 1987 C 191.252 -0.614771 3.06903 0
M  V30 1988 C 191.727 -0.664938 4.53147 0
M  V30 1989 N 193.218 -0.727433 4.57452 0
M  V30 1990 C 193.953 -0.787067 5.67973 0
M  V30 1991 N 193.449 -0.806649 6.88088 0
M  V30 1992 N 195.242 -0.827195 5.5598 0
M  V30 1993 H 187.393 0.714935 2.00006 0
M  V30 1994 H 189.656 0.259526 0.911784 0
M  V30 1995 H 189.362 0.380154 3.49639 0
M  V30 1996 H 189.236 -1.36998 3.51442 0
M  V30 1997 H 191.623 -1.51392 2.53307 0
M  V30 1998 H 191.704 0.253597 2.5454 0
M  V30 1999 H 191.348 0.230011 5.07379 0
M  V30 2000 H 191.278 -1.54966 5.03282 0
M  V30 2001 H 193.769 -0.719998 3.70978 0
M  V30 2002 H 194.082 -0.853727 7.6807 0
M  V30 2003 H 192.427 -0.774687 6.90669 0
M  V30 2004 H 195.618 -0.808998 4.61056 0
M  V30 2005 H 195.791 -0.870206 6.4213 0
M  V30 2006 N 189.197 -1.51736 -0.425897 0
M  V30 2007 C 190.127 -1.76827 -1.52494 0
M  V30 2008 C 191.108 -0.618524 -1.58456 0
M  V30 2009 O 192.293 -0.862416 -1.74 0
M  V30 2010 C 189.423 -1.90374 -2.90474 0
M  V30 2011 C 188.377 -3.0588 -2.99369 0
M  V30 2012 C 187.703 -3.04625 -4.3944 0
M  V30 2013 C 189.003 -4.45644 -2.72394 0
M  V30 2014 H 190.697 -2.68855 -1.31748 0
M  V30 2015 H 188.243 -1.29372 -0.632362 0
M  V30 2016 H 190.196 -2.0651 -3.6733 0
M  V30 2017 H 188.92 -0.95004 -3.12477 0
M  V30 2018 H 187.579 -2.89467 -2.24954 0
M  V30 2019 H 187.227 -2.0701 -4.58428 0
M  V30 2020 H 186.927 -3.82195 -4.46319 0
M  V30 2021 H 188.451 -3.22869 -5.18255 0
M  V30 2022 H 189.865 -4.62348 -3.38979 0
M  V30 2023 H 188.262 -5.25006 -2.9067 0
M  V30 2024 H 189.332 -4.54893 -1.67929 0
M  V30 2025 N 190.675 0.682077 -1.42076 0
M  V30 2026 C 191.915 1.45424 -1.43636 0
M  V30 2027 C 192.279 1.91939 -0.0484001 0
M  V30 2028 O 193.48 2.6873 0.0612514 0
M  V30 2029 C 191.751 2.62427 -2.42625 0
M  V30 2030 S 193.31 3.51379 -2.62827 0
M  V30 2031 H 190.128 0.496779 -0.508657 0
M  V30 2032 H 192.73 0.794645 -1.78621 0
M  V30 2033 H 191.434 2.26481 -3.42249 0
M  V30 2034 H 190.965 3.33266 -2.09039 0
M  V30 2035 H 192.98 4.58141 -1.9058 0
M  V30 2036 N 192.153 1.28127 0.917671 0
M  V30 2037 C 193.381 1.17892 1.70026 0
M  V30 2038 C 193.796 -0.262958 1.8696 0
M  V30 2039 O 193.153 -1.17811 1.3938 0
M  V30 2040 C 193.204 1.86872 3.09453 0
M  V30 2041 O 192.925 3.25428 2.93306 0
M  V30 2042 C 194.426 1.8289 4.03815 0
M  V30 2043 H 191.646 0.40942 0.531617 0
M  V30 2044 H 194.19 1.69181 1.14883 0
M  V30 2045 H 192.345 1.39464 3.61426 0
M  V30 2046 H 192.759 3.59918 3.81523 0
M  V30 2047 H 194.233 2.35751 4.99125 0
M  V30 2048 H 194.71 0.800412 4.31845 0
M  V30 2049 H 195.316 2.29959 3.57769 0
M  V30 2050 N 193.631 -1.12557 1.10312 0
M  V30 2051 C 194.878 -1.84038 0.844759 0
M  V30 2052 C 195.206 -1.84026 -0.629668 0
M  V30 2053 O 194.461 -1.28026 -1.48013 0
M  V30 2054 C 194.76 -3.31462 1.33669 0
M  V30 2055 C 194.426 -3.51647 2.82232 0
M  V30 2056 C 193.088 -3.56864 3.22802 0
M  V30 2057 C 195.44 -3.58867 3.77974 0
M  V30 2058 C 192.768 -3.66844 4.57867 0
M  V30 2059 C 195.12 -3.70375 5.1284 0
M  V30 2060 C 193.784 -3.73848 5.52986 0
M  V30 2061 H 193.054 -0.673444 0.309119 0
M  V30 2062 H 195.701 -1.32824 1.37949 0
M  V30 2063 H 194.006 -3.85091 0.721949 0
M  V30 2064 H 195.703 -3.85236 1.11329 0
M  V30 2065 H 192.293 -3.48249 2.49842 0
M  V30 2066 H 196.477 -3.54107 3.47738 0
M  V30 2067 H 191.733 -3.67804 4.88396 0
M  V30 2068 H 195.907 -3.74904 5.86873 0
M  V30 2069 H 193.534 -3.81333 6.57639 0
M  V30 2070 N 195.109 -0.891671 -1.2995 0
M  V30 2071 C 196.356 -0.513501 -1.95881 0
M  V30 2072 C 196.684 0.938655 -1.70351 0
M  V30 2073 O 195.939 1.67936 -1.00478 0
M  V30 2074 C 196.238 -0.742868 -3.49594 0
M  V30 2075 C 195.904 -2.17114 -3.95186 0
M  V30 2076 C 194.566 -2.56169 -4.07346 0
M  V30 2077 C 196.918 -3.10162 -4.18866 0
M  V30 2078 C 194.246 -3.87469 -4.4055 0
M  V30 2079 C 196.598 -4.41001 -4.53542 0
M  V30 2080 C 195.262 -4.79941 -4.63911 0
M  V30 2081 H 194.532 -0.187903 -0.71678 0
M  V30 2082 H 197.179 -1.1288 -1.54694 0
M  V30 2083 H 195.484 -0.044586 -3.91775 0
M  V30 2084 H 197.181 -0.429767 -3.9869 0
M  V30 2085 H 193.771 -1.85801 -3.86233 0
M  V30 2086 H 197.955 -2.81206 -4.08946 0
M  V30 2087 H 193.211 -4.17371 -4.46779 0
M  V30 2088 H 197.385 -5.13133 -4.70815 0
M  V30 2089 H 195.012 -5.81719 -4.89395 0
M  V30 2090 N 196.587 1.43421 -0.653314 0
M  V30 2091 C 197.835 2.01414 -0.166415 0
M  V30 2092 C 198.156 1.51803 1.22397 0
M  V30 2093 O 197.426 0.730693 1.81763 0
M  V30 2094 H 196.006 0.744703 -0.0585319 0
M  V30 2095 H 198.668 1.75629 -0.845003 0
M  V30 2096 H 197.764 3.11734 -0.151111 0
M  V30 2097 N 198.065 0.39524 1.52563 0
M  V30 2098 C 198.995 -0.428384 2.29537 0
M  V30 2099 C 199.976 -1.05831 1.33169 0
M  V30 2100 O 201.161 -1.06995 1.62067 0
M  V30 2101 C 198.291 -1.55274 3.10656 0
M  V30 2102 C 197.245 -1.04855 4.14957 0
M  V30 2103 C 196.571 -2.26543 4.84337 0
M  V30 2104 C 197.871 -0.112324 5.22179 0
M  V30 2105 H 199.565 0.213867 2.98635 0
M  V30 2106 H 197.111 0.104298 1.43622 0
M  V30 2107 H 199.064 -2.1358 3.63265 0
M  V30 2108 H 197.788 -2.22266 2.39302 0
M  V30 2109 H 196.447 -0.487985 3.63338 0
M  V30 2110 H 196.095 -2.92059 4.09525 0
M  V30 2111 H 195.795 -1.93466 5.54837 0
M  V30 2112 H 197.319 -2.85481 5.39753 0
M  V30 2113 H 198.733 -0.603752 5.70112 0
M  V30 2114 H 197.13 0.128968 5.99961 0
M  V30 2115 H 198.2 0.837052 4.77621 0
M  V30 2116 N 199.544 -1.57102 0.125237 0
M  V30 2117 C 200.772 -1.99761 -0.538797 0
M  V30 2118 C 201.187 -1.00503 -1.59827 0
M  V30 2119 O 200.544 0.00119474 -1.825 0
M  V30 2120 C 200.595 -3.42408 -1.15927 0
M  V30 2121 O 200.316 -4.37869 -0.142143 0
M  V30 2122 C 201.817 -4.00232 -1.90602 0
M  V30 2123 H 199.037 -0.655772 -0.14214 0
M  V30 2124 H 201.581 -2.03383 0.213413 0
M  V30 2125 H 199.736 -3.39706 -1.86223 0
M  V30 2126 H 200.15 -5.21128 -0.593775 0
M  V30 2127 H 201.624 -5.02105 -2.29335 0
M  V30 2128 H 202.101 -3.39721 -2.78363 0
M  V30 2129 H 202.707 -4.06499 -1.25055 0
M  V30 2130 N 201.022 0.148545 -1.56898 0
M  V30 2131 C 201.955 1.21293 -1.93296 0
M  V30 2132 C 202.933 1.41637 -0.798599 0
M  V30 2133 O 204.117 1.56275 -1.05406 0
M  V30 2134 C 201.244 2.5721 -2.20365 0
M  V30 2135 C 200.29 2.53469 -3.4301 0
M  V30 2136 S 201.123 2.00315 -4.96623 0
M  V30 2137 C 202.279 3.37964 -5.26812 0
M  V30 2138 H 202.512 0.902393 -2.83274 0
M  V30 2139 H 200.045 0.354094 -1.50285 0
M  V30 2140 H 202.003 3.35427 -2.36641 0
M  V30 2141 H 200.664 2.85454 -1.31054 0
M  V30 2142 H 199.857 3.53518 -3.59223 0
M  V30 2143 H 199.459 1.83359 -3.25968 0
M  V30 2144 H 201.751 4.34066 -5.20185 0
M  V30 2145 H 202.694 3.26606 -6.28279 0
M  V30 2146 H 203.102 3.35028 -4.54331 0
M  V30 2147 N 202.5 1.5196 0.417844 0
M  V30 2148 C 203.728 1.69426 1.18753 0
M  V30 2149 C 204.143 0.399955 1.84515 0
M  V30 2150 O 203.5 -0.623288 1.71527 0
M  V30 2151 C 203.551 2.82375 2.25714 0
M  V30 2152 O 203.272 4.06793 1.62638 0
M  V30 2153 C 204.773 3.11277 3.15628 0
M  V30 2154 H 201.993 0.568031 0.357186 0
M  V30 2155 H 204.537 1.98475 0.49273 0
M  V30 2156 H 202.692 2.5587 2.90877 0
M  V30 2157 H 203.106 4.69667 2.3348 0
M  V30 2158 H 204.58 3.93843 3.86771 0
M  V30 2159 H 205.057 2.24473 3.77503 0
M  V30 2160 H 205.663 3.39515 2.56144 0
M  V30 2161 N 203.978 -0.674533 1.42435 0
M  V30 2162 C 205.224 -1.43671 1.43131 0
M  V30 2163 C 205.557 -1.94142 0.0476021 0
M  V30 2164 O 204.832 -1.70924 -0.928188 0
M  V30 2165 C 205.115 -2.63355 2.45594 0
M  V30 2166 C 204.968 -2.18514 3.93156 0
M  V30 2167 C 206.287 -3.65571 2.45043 0
M  V30 2168 H 203.406 -0.521077 0.521198 0
M  V30 2169 H 206.048 -0.766551 1.7385 0
M  V30 2170 H 204.198 -3.2053 2.19528 0
M  V30 2171 H 205.87 -1.66504 4.30202 0
M  V30 2172 H 204.113 -1.50086 4.07009 0
M  V30 2173 H 204.784 -3.04484 4.60428 0
M  V30 2174 H 207.26 -3.18113 2.68223 0
M  V30 2175 H 206.136 -4.46893 3.18713 0
M  V30 2176 H 206.397 -4.16716 1.47649 0
M  V30 2177 N 205.456 -1.28612 -0.910864 0
M  V30 2178 C 206.703 -1.15934 -1.66029 0
M  V30 2179 C 207.031 0.291483 -1.92303 0
M  V30 2180 O 206.286 1.22816 -1.52364 0
M  V30 2181 C 206.585 -1.90624 -3.0232 0
M  V30 2182 C 206.251 -3.40405 -2.95695 0
M  V30 2183 C 204.913 -3.81255 -2.93595 0
M  V30 2184 C 207.265 -4.359 -2.85728 0
M  V30 2185 C 204.593 -5.15936 -2.79334 0
M  V30 2186 C 206.945 -5.70657 -2.73007 0
M  V30 2187 C 205.609 -6.10779 -2.69267 0
M  V30 2188 H 204.879 -0.424234 -0.607541 0
M  V30 2189 H 207.526 -1.5942 -1.06101 0
M  V30 2190 H 205.831 -1.39696 -3.6605 0
M  V30 2191 H 207.528 -1.78228 -3.59215 0
M  V30 2192 H 204.118 -3.07927 -2.98125 0
M  V30 2193 H 208.302 -4.053 -2.86436 0
M  V30 2194 H 203.558 -5.46146 -2.74835 0
M  V30 2195 H 207.732 -6.44311 -2.64264 0
M  V30 2196 H 205.359 -7.1509 -2.57974 0
M  V30 2197 N 206.934 1.1197 -1.10907 0
M  V30 2198 C 208.182 1.83225 -0.852819 0
M  V30 2199 C 208.503 1.84769 0.623341 0
M  V30 2200 O 207.773 1.3143 1.45269 0
M  V30 2201 H 206.353 0.67849 -0.312507 0
M  V30 2202 H 209.015 1.3556 -1.40033 0
M  V30 2203 H 208.111 2.87265 -1.22005 0
M  V30 2204 N 208.412 0.89855 1.29475 0
M  V30 2205 C 209.342 0.39201 2.30186 0
M  V30 2206 C 210.323 -0.532359 1.61555 0
M  V30 2207 O 211.508 -0.443331 1.89072 0
M  V30 2208 C 208.638 -0.382353 3.45189 0
M  V30 2209 C 207.592 0.451483 4.25612 0
M  V30 2210 C 206.918 -0.450307 5.328 0
M  V30 2211 C 208.218 1.70079 4.93832 0
M  V30 2212 H 209.912 1.23362 2.72804 0
M  V30 2213 H 207.458 0.594638 1.31149 0
M  V30 2214 H 209.411 -0.747451 4.14718 0
M  V30 2215 H 208.135 -1.25774 3.01411 0
M  V30 2216 H 206.794 0.798897 3.57789 0
M  V30 2217 H 206.442 -1.32379 4.85268 0
M  V30 2218 H 206.142 0.103902 5.87508 0
M  V30 2219 H 207.666 -0.811623 6.05182 0
M  V30 2220 H 209.08 1.40549 5.55805 0
M  V30 2221 H 207.477 2.19623 5.58467 0
M  V30 2222 H 208.547 2.43744 4.19186 0
M  V30 2223 N 209.89 -1.43072 0.660911 0
M  V30 2224 C 211.115 -2.06584 0.183805 0
M  V30 2225 C 211.54 -1.49257 -1.14472 0
M  V30 2226 O 210.898 -0.605528 -1.70889 0
M  V30 2227 C 210.946 -3.60418 0.114434 0
M  V30 2228 O 210.05 -4.01981 -0.921137 0
M  V30 2229 H 209.391 -0.656669 0.0983994 0
M  V30 2230 H 211.921 -1.83447 0.906006 0
M  V30 2231 H 211.931 -4.07946 -0.0663394 0
M  V30 2232 H 210.606 -4.01519 1.08422 0
M  V30 2233 H 209.183 -3.66029 -0.71253 0
M  V30 2234 N 211.368 -0.403325 -1.52352 0
M  V30 2235 C 212.593 0.176499 -2.06648 0
M  V30 2236 C 213.018 1.38577 -1.27193 0
M  V30 2237 O 212.376 1.7879 -0.300637 0
M  V30 2238 C 212.424 0.511061 -3.5696 0
M  V30 2239 O 211.528 1.60294 -3.79973 0
M  V30 2240 H 210.869 0.0167337 -0.663789 0
M  V30 2241 H 213.399 -0.574848 -1.96359 0
M  V30 2242 H 213.409 0.771362 -4.00642 0
M  V30 2243 H 212.084 -0.37296 -4.14224 0
M  V30 2244 H 210.661 1.33526 -3.48174 0
M  V30 2245 N 212.846 1.57033 -0.133567 0
M  V30 2246 C 213.776 2.1909 0.807567 0
M  V30 2247 C 214.757 1.13517 1.26681 0
M  V30 2248 O 215.942 1.41809 1.32679 0
M  V30 2249 C 213.072 2.80188 2.05212 0
M  V30 2250 C 212.026 3.91471 1.73015 0
M  V30 2251 C 211.352 4.39443 3.04622 0
M  V30 2252 C 212.652 5.12886 0.987168 0
M  V30 2253 H 214.346 2.97988 0.290403 0
M  V30 2254 H 211.892 1.43335 0.138239 0
M  V30 2255 H 213.845 3.22264 2.71521 0
M  V30 2256 H 212.569 1.98601 2.59278 0
M  V30 2257 H 211.228 3.49993 1.0909 0
M  V30 2258 H 210.876 3.54695 3.56651 0
M  V30 2259 H 210.576 5.14495 2.83847 0
M  V30 2260 H 212.1 4.8418 3.72024 0
M  V30 2261 H 213.514 5.51891 1.55208 0
M  V30 2262 H 211.911 5.93615 0.87985 0
M  V30 2263 H 212.981 4.84894 -0.0235286 0
M  V30 2264 N 214.325 -0.140222 1.56975 0
M  V30 2265 C 215.572 -0.851687 1.83719 0
M  V30 2266 C 215.9 -1.80862 0.715485 0
M  V30 2267 O 215.155 -1.93464 -0.294956 0
M  V30 2268 C 215.454 -1.65386 3.16832 0
M  V30 2269 C 215.12 -0.843112 4.42947 0
M  V30 2270 C 213.782 -0.619464 4.77196 0
M  V30 2271 C 216.134 -0.276582 5.20466 0
M  V30 2272 C 213.462 0.181312 5.8642 0
M  V30 2273 C 215.814 0.51127 6.30531 0
M  V30 2274 C 214.478 0.745432 6.63325 0
M  V30 2275 H 213.748 -0.311654 0.672274 0
M  V30 2276 H 216.395 -0.115006 1.91154 0
M  V30 2277 H 214.7 -2.46084 3.04877 0
M  V30 2278 H 216.397 -2.20793 3.34741 0
M  V30 2279 H 212.987 -1.0275 4.16101 0
M  V30 2280 H 217.171 -0.436632 4.94376 0
M  V30 2281 H 212.427 0.372165 6.10266 0
M  V30 2282 H 216.601 0.957354 6.89788 0
M  V30 2283 H 214.228 1.36778 7.47794 0
M  V30 2284 N 215.803 -1.52179 -0.40978 0
M  V30 2285 C 217.052 -1.65434 -1.15388 0
M  V30 2286 C 217.365 -0.390056 -1.91671 0
M  V30 2287 O 218.571 -0.402399 -2.68501 0
M  V30 2288 C 217.027 -2.92279 -2.10003 0
M  V30 2289 C 216.635 -4.25813 -1.39239 0
M  V30 2290 C 218.379 -3.14897 -2.84675 0
M  V30 2291 C 216.286 -5.43782 -2.32498 0
M  V30 2292 H 215.216 -0.616267 -0.434432 0
M  V30 2293 H 217.867 -1.78666 -0.418401 0
M  V30 2294 H 216.249 -2.72744 -2.871 0
M  V30 2295 H 217.423 -4.55828 -0.675099 0
M  V30 2296 H 215.738 -4.09292 -0.766097 0
M  V30 2297 H 218.335 -4.0021 -3.54593 0
M  V30 2298 H 218.678 -2.29103 -3.47588 0
M  V30 2299 H 219.211 -3.34901 -2.14677 0
M  V30 2300 H 215.95 -6.3192 -1.74233 0
M  V30 2301 H 215.47 -5.18106 -3.02201 0
M  V30 2302 H 217.149 -5.76834 -2.93038 0
M  V30 2303 N 217.281 0.66697 -1.42791 0
M  V30 2304 C 218.244 1.76211 -1.46568 0
M  V30 2305 C 219.244 1.56896 -0.352196 0
M  V30 2306 O 220.434 1.63044 -0.613364 0
M  V30 2307 C 217.566 3.14935 -1.30494 0
M  V30 2308 H 218.759 1.74247 -2.44086 0
M  V30 2309 H 216.312 0.877342 -1.29354 0
M  V30 2310 H 217.047 3.2252 -0.339301 0
M  V30 2311 H 216.832 3.30359 -2.11199 0
M  V30 2312 H 218.322 3.94821 -1.36038 0
M  V30 2313 N 218.759 1.29093 0.90403 0
M  V30 2314 C 219.984 1.19809 1.69294 0
M  V30 2315 C 220.409 -0.238481 1.86582 0
M  V30 2316 O 219.767 -1.1723 1.383 0
M  V30 2317 C 219.815 1.91202 3.05736 0
M  V30 2318 O 218.919 1.22611 3.93752 0
M  V30 2319 H 218.26 0.415385 0.518027 0
M  V30 2320 H 220.79 1.70586 1.12967 0
M  V30 2321 H 220.8 1.99487 3.55906 0
M  V30 2322 H 219.475 2.95692 2.92471 0
M  V30 2323 H 218.052 1.22554 3.52186 0
M  V30 2324 N 220.237 -1.11381 1.11499 0
M  V30 2325 C 221.2 -2.15622 0.777153 0
M  V30 2326 C 222.2 -1.59504 -0.203779 0
M  V30 2327 O 223.39 -1.74188 0.020782 0
M  V30 2328 C 220.522 -3.40556 0.153116 0
M  V30 2329 H 221.715 -2.47021 1.70061 0
M  V30 2330 H 219.268 -1.26577 0.916952 0
M  V30 2331 H 220.003 -3.14767 -0.780536 0
M  V30 2332 H 219.788 -3.8257 0.859238 0
M  V30 2333 H 221.278 -4.17546 -0.0671044 0
M  V30 2334 N 221.715 -0.905404 -1.28997 0
M  V30 2335 C 222.648 -0.331959 -2.25773 0
M  V30 2336 C 223.626 0.559099 -1.52685 0
M  V30 2337 O 224.81 0.50463 -1.8162 0
M  V30 2338 C 221.937 0.526276 -3.34586 0
M  V30 2339 C 220.983 -0.298249 -4.25456 0
M  V30 2340 S 221.816 -1.69968 -5.0781 0
M  V30 2341 C 222.972 -0.848519 -6.20122 0
M  V30 2342 H 223.205 -1.15222 -2.74064 0
M  V30 2343 H 220.738 -0.706112 -1.37308 0
M  V30 2344 H 222.696 1.01565 -3.97737 0
M  V30 2345 H 221.357 1.32084 -2.84978 0
M  V30 2346 H 220.55 0.357607 -5.0273 0
M  V30 2347 H 220.152 -0.720968 -3.66985 0
M  V30 2348 H 222.444 -0.0744325 -6.77459 0
M  V30 2349 H 223.387 -1.59353 -6.89937 0
M  V30 2350 H 223.795 -0.400383 -5.63078 0
M  V30 2351 N 223.193 1.4272 -0.668489 0
M  V30 2352 C 224.156 2.292 0.00448567 0
M  V30 2353 C 225.156 1.43001 0.735339 0
M  V30 2354 O 226.346 1.64461 0.57429 0
M  V30 2355 C 223.478 3.25375 1.01705 0
M  V30 2356 H 224.671 2.90199 -0.756608 0
M  V30 2357 H 222.224 1.50254 -0.430506 0
M  V30 2358 H 222.959 2.69301 1.80686 0
M  V30 2359 H 222.744 3.88944 0.496463 0
M  V30 2360 H 224.234 3.90245 1.48655 0
M  V30 2361 N 224.671 0.411399 1.52136 0
M  V30 2362 C 225.917 -0.163888 2.02137 0
M  V30 2363 C 226.25 -1.44597 1.29636 0
M  V30 2364 O 225.525 -1.90272 0.403353 0
M  V30 2365 C 225.808 -0.40927 3.57767 0
M  V30 2366 C 225.661 0.889643 4.40914 0
M  V30 2367 C 226.98 -1.19042 4.23694 0
M  V30 2368 H 224.099 -0.0580896 0.734707 0
M  V30 2369 H 226.741 0.54531 1.82007 0
M  V30 2370 H 224.891 -1.0134 3.7505 0
M  V30 2371 H 226.563 1.52575 4.35337 0
M  V30 2372 H 224.806 1.50011 4.07037 0
M  V30 2373 H 225.477 0.672314 5.4789 0
M  V30 2374 H 227.953 -0.678942 4.10524 0
M  V30 2375 H 226.829 -1.33086 5.32522 0
M  V30 2376 H 227.09 -2.21166 3.82803 0
M  V30 2377 N 226.149 -1.5696 0.141893 0
M  V30 2378 C 227.059 -2.20066 -0.812905 0
M  V30 2379 C 228.075 -1.18344 -1.27557 0
M  V30 2380 O 229.251 -1.50902 -1.33381 0
M  V30 2381 C 226.316 -2.80583 -2.03652 0
M  V30 2382 C 225.377 -3.97414 -1.62359 0
M  V30 2383 C 224.61 -4.55036 -2.78887 0
M  V30 2384 O 224.833 -4.11538 -3.94959 0
M  V30 2385 O 223.767 -5.45376 -2.54653 0
M  V30 2386 H 227.593 -3.02157 -0.305746 0
M  V30 2387 H 225.178 -1.49159 -0.0848799 0
M  V30 2388 H 227.06 -3.19067 -2.75272 0
M  V30 2389 H 225.735 -2.01508 -2.5333 0
M  V30 2390 H 224.642 -3.63656 -0.877775 0
M  V30 2391 H 225.975 -4.77994 -1.17401 0
M  V30 2392 N 227.627 0.131896 -1.57047 0
M  V30 2393 C 229.043 0.485031 -1.52051 0
M  V30 2394 C 229.243 1.82563 -0.85281 0
M  V30 2395 O 228.299 2.48817 -0.429694 0
M  V30 2396 C 229.612 0.481409 -2.96821 0
M  V30 2397 C 231.16 0.565868 -3.07842 0
M  V30 2398 C 231.635 0.592762 -4.54148 0
M  V30 2399 N 233.126 0.654564 -4.58552 0
M  V30 2400 C 233.861 0.696608 -5.69153 0
M  V30 2401 N 233.357 0.697078 -6.89284 0
M  V30 2402 N 235.15 0.738639 -5.57226 0
M  V30 2403 H 227.301 -0.746664 -1.98843 0
M  V30 2404 H 229.564 -0.273999 -0.90754 0
M  V30 2405 H 229.27 -0.435731 -3.4899 0
M  V30 2406 H 229.144 1.3139 -3.53577 0
M  V30 2407 H 231.531 1.47343 -2.55684 0
M  V30 2408 H 231.612 -0.29406 -2.54104 0
M  V30 2409 H 231.256 -0.310701 -5.06949 0
M  V30 2410 H 231.186 1.46939 -5.05684 0
M  V30 2411 H 233.677 0.660887 -3.72076 0
M  V30 2412 H 233.99 0.731426 -7.69331 0
M  V30 2413 H 232.335 0.66471 -6.91814 0
M  V30 2414 H 235.526 0.735545 -4.62285 0
M  V30 2415 H 235.699 0.767938 -6.43434 0
M  V30 2416 N 229.106 1.52395 0.401703 0
M  V30 2417 C 230.069 1.75636 1.47257 0
M  V30 2418 C 231.069 0.62628 1.48103 0
M  V30 2419 O 232.259 0.894227 1.49497 0
M  V30 2420 C 229.391 1.84553 2.86624 0
M  V30 2421 H 230.584 2.71241 1.27938 0
M  V30 2422 H 228.137 1.42923 0.632662 0
M  V30 2423 H 228.872 0.908882 3.11303 0
M  V30 2424 H 228.657 2.66715 2.87412 0
M  V30 2425 H 230.147 2.04251 3.64241 0
M  V30 2426 N 230.584 -0.659388 1.43143 0
M  V30 2427 C 231.514 -1.78422 1.50625 0
M  V30 2428 C 232.495 -1.66216 0.361443 0
M  V30 2429 O 233.68 -1.85404 0.577834 0
M  V30 2430 C 230.81 -3.16815 1.42287 0
M  V30 2431 C 229.764 -3.43777 2.54954 0
M  V30 2432 C 229.09 -4.81905 2.31671 0
M  V30 2433 C 230.39 -3.39134 3.97222 0
M  V30 2434 H 232.084 -1.72417 2.44771 0
M  V30 2435 H 229.63 -0.828084 1.17808 0
M  V30 2436 H 231.583 -3.95253 1.46127 0
M  V30 2437 H 230.307 -3.23534 0.446435 0
M  V30 2438 H 228.966 -2.67707 2.50457 0
M  V30 2439 H 228.614 -4.85294 1.32284 0
M  V30 2440 H 228.314 -5.00906 3.07192 0
M  V30 2441 H 229.838 -5.62609 2.37284 0
M  V30 2442 H 231.252 -4.07518 4.03239 0
M  V30 2443 H 229.649 -3.69671 4.72719 0
M  V30 2444 H 230.719 -2.37426 4.22797 0
M  V30 2445 N 232.062 -1.29571 -0.897171 0
M  V30 2446 C 233.025 -1.14913 -1.98312 0
M  V30 2447 C 234.025 -0.0838629 -1.60581 0
M  V30 2448 O 235.215 -0.331006 -1.71026 0
M  V30 2449 C 232.347 -0.757835 -3.3237 0
M  V30 2450 H 233.54 -2.11377 -2.12743 0
M  V30 2451 H 231.093 -1.12793 -1.08201 0
M  V30 2452 H 231.828 0.206837 -3.2364 0
M  V30 2453 H 231.613 -1.52755 -3.61121 0
M  V30 2454 H 233.103 -0.678408 -4.12053 0
M  V30 2455 N 233.54 1.10788 -1.12088 0
M  V30 2456 C 234.789 1.82036 -0.868659 0
M  V30 2457 C 235.102 1.85929 0.607426 0
M  V30 2458 O 236.308 2.53346 0.97613 0
M  V30 2459 C 234.764 3.26951 -1.50435 0
M  V30 2460 C 234.372 3.31367 -3.01496 0
M  V30 2461 C 236.116 4.03053 -1.33225 0
M  V30 2462 C 234.023 4.7072 -3.58017 0
M  V30 2463 H 232.953 0.682108 -0.321318 0
M  V30 2464 H 235.604 1.24618 -1.34694 0
M  V30 2465 H 233.986 3.84343 -0.953735 0
M  V30 2466 H 235.16 2.83819 -3.6302 0
M  V30 2467 H 233.475 2.6875 -3.18061 0
M  V30 2468 H 236.072 5.05981 -1.72878 0
M  V30 2469 H 236.415 4.15387 -0.275529 0
M  V30 2470 H 236.948 3.52066 -1.85188 0
M  V30 2471 H 233.687 4.63585 -4.63432 0
M  V30 2472 H 233.207 5.1865 -3.01268 0
M  V30 2473 H 234.886 5.39685 -3.56859 0
M  V30 2474 N 235.018 0.912232 1.28515 0
M  V30 2475 C 236.434 0.610159 1.47476 0
M  V30 2476 C 236.634 -0.844955 1.82928 0
M  V30 2477 O 235.69 -1.62416 1.93332 0
M  V30 2478 C 237.003 1.54675 2.57868 0
M  V30 2479 C 238.551 1.55331 2.71738 0
M  V30 2480 C 239.026 2.47649 3.85272 0
M  V30 2481 N 240.517 2.45767 3.92623 0
M  V30 2482 C 241.252 3.13896 4.79851 0
M  V30 2483 N 240.748 3.9135 5.71679 0
M  V30 2484 N 242.541 3.02991 4.73448 0
M  V30 2485 H 234.692 1.85318 1.03783 0
M  V30 2486 H 236.955 0.794777 0.516753 0
M  V30 2487 H 236.661 2.5841 2.38574 0
M  V30 2488 H 236.535 1.27671 3.54937 0
M  V30 2489 H 238.922 0.52335 2.90422 0
M  V30 2490 H 239.003 1.86378 1.75205 0
M  V30 2491 H 238.647 3.50745 3.67342 0
M  V30 2492 H 238.577 2.13904 4.81199 0
M  V30 2493 H 241.068 1.89503 3.26951 0
M  V30 2494 H 241.381 4.40359 6.35062 0
M  V30 2495 H 239.726 3.95455 5.71524 0
M  V30 2496 H 242.917 2.41987 4.007 0
M  V30 2497 H 243.09 3.5636 5.41213 0
M  V30 2498 N 236.496 -1.42363 0.676048 0
M  V30 2499 C 237.459 -2.29199 0.00766941 0
M  V30 2500 C 238.459 -1.43389 -0.727745 0
M  V30 2501 O 239.649 -1.64764 -0.56556 0
M  V30 2502 C 236.781 -3.2591 -0.999785 0
M  V30 2503 H 237.974 -2.89794 0.771988 0
M  V30 2504 H 235.527 -1.50024 0.438468 0
M  V30 2505 H 236.262 -2.70256 -1.79255 0
M  V30 2506 H 236.047 -3.89202 -0.475829 0
M  V30 2507 H 237.537 -3.91028 -1.46583 0
M  V30 2508 N 237.974 -0.419461 -1.51915 0
M  V30 2509 C 239.385 0.0477853 -1.86639 0
M  V30 2510 C 239.736 1.43531 -1.33766 0
M  V30 2511 O 238.861 2.05401 -0.68113 0
M  V30 2512 C 239.456 0.0934885 -3.38671 0
M  V30 2513 C 238.015 0.505097 -3.72996 0
M  V30 2514 C 237.162 -0.313792 -2.75519 0
M  V30 2515 H 240.113 -0.636088 -1.45395 0
M  V30 2516 H 240.134 0.906667 -3.6954 0
M  V30 2517 H 239.646 -0.916501 -3.77123 0
M  V30 2518 H 237.747 1.52135 -3.40126 0
M  V30 2519 H 237.86 0.242309 -4.78487 0
M  V30 2520 H 236.224 0.225363 -2.53701 0
M  V30 2521 H 237.007 -1.32232 -3.16812 0
M  V30 2522 N 239.452 1.56882 -0.150215 0
M  V30 2523 C 240.402 2.13501 0.800071 0
M  V30 2524 C 241.386 1.06368 1.20726 0
M  V30 2525 O 242.578 1.32538 1.17314 0
M  V30 2526 C 239.707 2.76271 2.03787 0
M  V30 2527 C 238.793 3.90533 1.65364 0
M  V30 2528 N 239.184 4.96259 0.977794 0
M  V30 2529 C 237.482 4.013 1.94613 0
M  V30 2530 C 238.183 5.76286 0.791794 0
M  V30 2531 N 237.159 5.27163 1.32666 0
M  V30 2532 H 240.961 2.92615 0.274517 0
M  V30 2533 H 238.475 1.62319 0.0512144 0
M  V30 2534 H 240.472 3.15197 2.72867 0
M  V30 2535 H 239.132 1.98631 2.56857 0
M  V30 2536 H 240.143 5.13953 0.638193 0
M  V30 2537 H 236.82 3.3474 2.4951 0
M  V30 2538 H 238.21 6.71401 0.258894 0
M  V30 2539 N 240.93 -0.123565 1.57115 0
M  V30 2540 C 242.176 -0.828428 1.85765 0
M  V30 2541 C 242.531 -1.77709 0.737371 0
M  V30 2542 O 241.824 -1.89787 -0.262978 0
M  V30 2543 C 242.018 -1.62016 3.18568 0
M  V30 2544 C 241.847 -0.749663 4.43407 0
M  V30 2545 C 240.617 -0.406251 5.03664 0
M  V30 2546 C 242.815 -0.0693505 5.14253 0
M  V30 2547 N 240.797 0.475389 6.12057 0
M  V30 2548 C 242.168 0.671474 6.16353 0
M  V30 2549 C 244.223 0.00754393 4.97899 0
M  V30 2550 C 242.926 1.48197 7.03868 0
M  V30 2551 C 244.952 0.804845 5.85898 0
M  V30 2552 C 244.314 1.53388 6.87497 0
M  V30 2553 H 240.413 -0.280219 0.73007 0
M  V30 2554 H 242.997 -0.0924183 1.94481 0
M  V30 2555 H 241.168 -2.32724 3.10957 0
M  V30 2556 H 242.9 -2.27 3.35042 0
M  V30 2557 H 239.655 -0.747446 4.67665 0
M  V30 2558 H 240.079 0.907924 6.70884 0
M  V30 2559 H 244.721 -0.541741 4.19315 0
M  V30 2560 H 242.439 2.04242 7.81864 0
M  V30 2561 H 246.025 0.866642 5.75309 0
M  V30 2562 H 244.905 2.1409 7.5441 0
M  V30 2563 N 242.408 -1.52605 -0.393616 0
M  V30 2564 C 243.638 -1.71046 -1.15874 0
M  V30 2565 C 244.046 -0.426483 -1.84331 0
M  V30 2566 O 243.389 0.608513 -1.73329 0
M  V30 2567 C 243.451 -2.80118 -2.25332 0
M  V30 2568 C 243.115 -4.21381 -1.76881 0
M  V30 2569 C 244.112 -5.04697 -1.24808 0
M  V30 2570 C 241.797 -4.67683 -1.83244 0
M  V30 2571 C 243.791 -6.32393 -0.797387 0
M  V30 2572 C 241.478 -5.95364 -1.37787 0
M  V30 2573 C 242.476 -6.77549 -0.861208 0
M  V30 2574 O 242.164 -8.02837 -0.413252 0
M  V30 2575 H 241.896 -0.576155 -0.353583 0
M  V30 2576 H 244.45 -2.00018 -0.467123 0
M  V30 2577 H 242.68 -2.46557 -2.97904 0
M  V30 2578 H 244.369 -2.87006 -2.87023 0
M  V30 2579 H 245.135 -4.70111 -1.19252 0
M  V30 2580 H 241.014 -4.03805 -2.22401 0
M  V30 2581 H 244.558 -6.9649 -0.393437 0
M  V30 2582 H 240.455 -6.29455 -1.43026 0
M  V30 2583 H 241.223 -8.16749 -0.53515 0
M  V30 2584 N 243.887 0.651787 -1.4349 0
M  V30 2585 C 244.85 1.74647 -1.48429 0
M  V30 2586 C 245.85 1.56513 -0.368817 0
M  V30 2587 O 247.04 1.62385 -0.630623 0
M  V30 2588 C 244.172 3.13533 -1.33827 0
M  V30 2589 H 245.365 1.71649 -2.4592 0
M  V30 2590 H 242.918 0.863573 -1.30277 0
M  V30 2591 H 243.653 3.22142 -0.37349 0
M  V30 2592 H 243.438 3.28101 -2.14691 0
M  V30 2593 H 244.928 3.93356 -1.40218 0
M  V30 2594 N 245.365 1.30045 0.890287 0
M  V30 2595 C 246.59 1.21598 1.68014 0
M  V30 2596 C 247.015 -0.218678 1.86825 0
M  V30 2597 O 246.373 -1.15756 1.39536 0
M  V30 2598 C 246.421 1.94434 3.03691 0
M  V30 2599 O 245.525 1.2678 3.92429 0
M  V30 2600 H 244.866 0.420856 0.513592 0
M  V30 2601 H 247.396 1.71775 1.11151 0
M  V30 2602 H 247.406 2.03251 3.5377 0
M  V30 2603 H 246.081 2.98777 2.89318 0
M  V30 2604 H 244.658 1.26282 3.50866 0
M  V30 2605 N 246.843 -1.10192 1.12674 0
M  V30 2606 C 247.793 -2.14754 0.765801 0
M  V30 2607 C 248.777 -1.59154 -0.236409 0
M  V30 2608 O 249.969 -1.76951 -0.0415261 0
M  V30 2609 C 247.098 -3.42563 0.224827 0
M  V30 2610 C 246.184 -4.05091 1.25548 0
M  V30 2611 N 246.575 -4.42287 2.4539 0
M  V30 2612 C 244.873 -4.32186 1.10142 0
M  V30 2613 C 245.574 -4.91441 3.11224 0
M  V30 2614 N 244.55 -4.88405 2.38666 0
M  V30 2615 H 248.352 -2.41309 1.67772 0
M  V30 2616 H 245.866 -1.27339 1.00789 0
M  V30 2617 H 247.863 -4.16868 -0.0519578 0
M  V30 2618 H 246.523 -3.17467 -0.681515 0
M  V30 2619 H 247.534 -4.33902 2.82754 0
M  V30 2620 H 244.211 -4.16735 0.252587 0
M  V30 2621 H 245.601 -5.29749 4.13298 0
M  V30 2622 N 248.321 -0.919034 -1.28029 0
M  V30 2623 C 249.254 -0.355887 -2.25408 0
M  V30 2624 C 250.232 0.542874 -1.5327 0
M  V30 2625 O 251.416 0.485338 -1.82145 0
M  V30 2626 C 248.543 0.490759 -3.35126 0
M  V30 2627 C 247.589 -0.343358 -4.25116 0
M  V30 2628 S 248.422 -1.75344 -5.05979 0
M  V30 2629 C 249.578 -0.914244 -6.19187 0
M  V30 2630 H 249.811 -1.18123 -2.72826 0
M  V30 2631 H 247.344 -0.720636 -1.36551 0
M  V30 2632 H 249.302 0.973404 -3.98792 0
M  V30 2633 H 247.963 1.29054 -2.86363 0
M  V30 2634 H 247.156 0.304266 -5.03081 0
M  V30 2635 H 246.758 -0.759851 -3.662 0
M  V30 2636 H 249.05 -0.146282 -6.77342 0
M  V30 2637 H 249.993 -1.66661 -6.88208 0
M  V30 2638 H 250.401 -0.460082 -5.62622 0
M  V30 2639 N 249.799 1.42003 -0.683588 0
M  V30 2640 C 250.746 2.30798 -0.0107309 0
M  V30 2641 C 251.716 1.4645 0.783688 0
M  V30 2642 O 252.901 1.75263 0.754156 0
M  V30 2643 C 250.041 3.3238 0.928306 0
M  V30 2644 C 249.154 4.31814 0.126776 0
M  V30 2645 C 248.289 5.20468 1.06236 0
M  V30 2646 C 247.328 6.11577 0.253035 0
M  V30 2647 N 246.465 6.92754 1.14179 0
M  V30 2648 H 251.305 2.8778 -0.773727 0
M  V30 2649 H 248.842 1.41745 -0.393283 0
M  V30 2650 H 250.8 3.89813 1.48666 0
M  V30 2651 H 249.43 2.76976 1.65783 0
M  V30 2652 H 248.482 3.76427 -0.54833 0
M  V30 2653 H 249.794 4.96276 -0.501192 0
M  V30 2654 H 248.948 5.82677 1.69035 0
M  V30 2655 H 247.687 4.56204 1.7242 0
M  V30 2656 H 246.692 5.48428 -0.388108 0
M  V30 2657 H 247.917 6.77892 -0.404839 0
M  V30 2658 H 245.863 6.3111 1.78987 0
M  V30 2659 H 245.78 7.53855 0.569111 0
M  V30 2660 H 247.048 7.59441 1.75697 0
M  V30 2661 N 251.277 0.427512 1.51691 0
M  V30 2662 C 252.505 -0.141191 2.06418 0
M  V30 2663 C 252.92 -1.37303 1.29589 0
M  V30 2664 O 252.277 -1.79059 0.352732 0
M  V30 2665 C 252.328 -0.473266 3.58389 0
M  V30 2666 O 252.049 0.709673 4.32314 0
M  V30 2667 C 253.55 -1.09371 4.29596 0
M  V30 2668 H 250.77 -0.0122747 0.670888 0
M  V30 2669 H 253.314 0.603764 1.95384 0
M  V30 2670 H 251.469 -1.16812 3.69369 0
M  V30 2671 H 251.883 0.42807 5.2275 0
M  V30 2672 H 253.357 -1.27613 5.37046 0
M  V30 2673 H 253.834 -2.072 3.87253 0
M  V30 2674 H 254.44 -0.43853 4.23033 0
M  V30 2675 N 252.755 -1.56801 0.158532 0
M  V30 2676 C 254.171 -1.5837 -0.197774 0
M  V30 2677 C 254.371 -1.17334 -1.63814 0
M  V30 2678 O 253.427 -0.878988 -2.36707 0
M  V30 2679 C 254.74 -3.00615 0.0714459 0
M  V30 2680 C 256.288 -3.12999 0.00864533 0
M  V30 2681 C 256.763 -4.57313 0.250685 0
M  V30 2682 N 258.254 -4.62777 0.198014 0
M  V30 2683 C 258.989 -5.72271 0.359642 0
M  V30 2684 N 258.485 -6.90371 0.579625 0
M  V30 2685 N 260.278 -5.61318 0.296438 0
M  V30 2686 H 252.429 -1.81765 1.09887 0
M  V30 2687 H 254.692 -0.841849 0.435884 0
M  V30 2688 H 254.398 -3.35068 1.06874 0
M  V30 2689 H 254.272 -3.71683 -0.642757 0
M  V30 2690 H 256.659 -2.7838 -0.979217 0
M  V30 2691 H 256.74 -2.44393 0.755359 0
M  V30 2692 H 256.384 -4.92639 1.2357 0
M  V30 2693 H 256.314 -5.24061 -0.516489 0
M  V30 2694 H 258.805 -3.77885 0.0331115 0
M  V30 2695 H 259.118 -7.69689 0.69275 0
M  V30 2696 H 257.463 -6.92264 0.616087 0
M  V30 2697 H 260.654 -4.67932 0.125258 0
M  V30 2698 H 260.827 -6.46599 0.425831 0
M  V30 2699 N 254.233 0.115231 -1.57178 0
M  V30 2700 C 255.196 1.12526 -1.99676 0
M  V30 2701 C 256.196 1.34095 -0.88742 0
M  V30 2702 O 257.386 1.30548 -1.15337 0
M  V30 2703 C 254.518 2.4789 -2.34015 0
M  V30 2704 H 255.711 0.759912 -2.90113 0
M  V30 2705 H 253.264 0.359648 -1.52106 0
M  V30 2706 H 253.999 2.89339 -1.4647 0
M  V30 2707 H 253.784 2.33588 -3.14927 0
M  V30 2708 H 255.274 3.20575 -2.67622 0
M  V30 2709 N 255.711 1.52812 0.385517 0
M  V30 2710 C 256.939 1.71907 1.15133 0
M  V30 2711 C 257.354 0.439004 1.83625 0
M  V30 2712 O 256.711 -0.586765 1.7281 0
M  V30 2713 C 256.762 2.87099 2.19673 0
M  V30 2714 O 256.483 4.10151 1.53973 0
M  V30 2715 C 257.984 3.17902 3.08955 0
M  V30 2716 H 255.204 0.575479 0.345057 0
M  V30 2717 H 257.748 1.99476 0.45052 0
M  V30 2718 H 255.903 2.61982 2.85384 0
M  V30 2719 H 256.317 4.74514 2.23465 0
M  V30 2720 H 257.791 4.01959 3.7833 0
M  V30 2721 H 258.268 2.3243 3.72657 0
M  V30 2722 H 258.874 3.44871 2.48885 0
M  V30 2723 N 257.189 -0.644168 1.43834 0
M  V30 2724 C 258.605 -0.960875 1.27434 0
M  V30 2725 C 258.805 -2.00499 0.200618 0
M  V30 2726 O 257.861 -2.49018 -0.417906 0
M  V30 2727 C 259.174 -1.43653 2.64167 0
M  V30 2728 C 260.722 -1.55271 2.71772 0
M  V30 2729 C 261.197 -2.06224 4.08944 0
M  V30 2730 N 262.688 -2.13513 4.11055 0
M  V30 2731 C 263.423 -2.54081 5.14033 0
M  V30 2732 N 262.919 -2.9388 6.27381 0
M  V30 2733 N 264.712 -2.54101 5.01387 0
M  V30 2734 H 256.863 0.0465779 2.12349 0
M  V30 2735 H 259.126 -0.0417638 0.94708 0
M  V30 2736 H 258.832 -0.743706 3.43747 0
M  V30 2737 H 258.706 -2.40993 2.90176 0
M  V30 2738 H 261.093 -2.23653 1.92519 0
M  V30 2739 H 261.174 -0.563395 2.49519 0
M  V30 2740 H 260.818 -1.38441 4.88668 0
M  V30 2741 H 260.748 -3.06003 4.28567 0
M  V30 2742 H 263.239 -1.85493 3.29242 0
M  V30 2743 H 263.552 -3.2361 7.01781 0
M  V30 2744 H 261.897 -2.91663 6.30839 0
M  V30 2745 H 265.088 -2.22391 4.11898 0
M  V30 2746 H 265.261 -2.85394 5.81768 0
M  V30 2747 N 258.668 -1.30515 -0.883378 0
M  V30 2748 C 259.631 -1.1701 -1.97082 0
M  V30 2749 C 260.631 -0.10089 -1.60483 0
M  V30 2750 O 261.821 -0.349127 -1.70666 0
M  V30 2751 C 258.953 -0.793045 -3.31547 0
M  V30 2752 H 260.146 -2.13622 -2.10489 0
M  V30 2753 H 257.699 -1.13935 -1.06998 0
M  V30 2754 H 258.434 0.172499 -3.23841 0
M  V30 2755 H 258.219 -1.56576 -3.5948 0
M  V30 2756 H 259.709 -0.722073 -4.1131 0
M  V30 2757 N 260.146 1.09593 -1.13257 0
M  V30 2758 C 261.392 1.82003 -0.89458 0
M  V30 2759 C 261.725 1.85402 0.577906 0
M  V30 2760 O 261 1.32099 1.42759 0
M  V30 2761 C 261.283 3.28237 -1.48096 0
M  V30 2762 C 261.136 3.3312 -3.02244 0
M  V30 2763 C 262.455 4.24871 -1.14774 0
M  V30 2764 H 259.574 0.66077 -0.326424 0
M  V30 2765 H 262.216 1.28389 -1.40058 0
M  V30 2766 H 260.366 3.74024 -1.05062 0
M  V30 2767 H 262.038 2.95748 -3.54021 0
M  V30 2768 H 260.281 2.72756 -3.37323 0
M  V30 2769 H 260.952 4.3613 -3.38371 0
M  V30 2770 H 263.428 3.87361 -1.51957 0
M  V30 2771 H 262.304 5.25532 -1.58452 0
M  V30 2772 H 262.565 4.42058 -0.0611849 0
M  V30 2773 N 261.624 0.925811 1.2754 0
M  V30 2774 C 262.554 0.440748 2.29303 0
M  V30 2775 C 263.535 -0.497971 1.62648 0
M  V30 2776 O 264.72 -0.403126 1.8997 0
M  V30 2777 C 261.85 -0.309048 3.45922 0
M  V30 2778 C 260.804 0.54166 4.24559 0
M  V30 2779 C 260.13 -0.337191 5.33636 0
M  V30 2780 C 261.43 1.80516 4.90114 0
M  V30 2781 H 263.124 1.29121 2.70126 0
M  V30 2782 H 260.67 0.622323 1.29858 0
M  V30 2783 H 262.623 -0.659315 4.1621 0
M  V30 2784 H 261.347 -1.19352 3.04011 0
M  V30 2785 H 260.006 0.874609 3.56014 0
M  V30 2786 H 259.654 -1.22056 4.87966 0
M  V30 2787 H 259.354 0.228497 5.87156 0
M  V30 2788 H 260.878 -0.683072 6.06767 0
M  V30 2789 H 262.292 1.52307 5.52698 0
M  V30 2790 H 260.689 2.3142 5.53683 0
M  V30 2791 H 261.759 2.52581 4.13921 0
M  V30 2792 N 263.102 -1.41638 0.69111 0
M  V30 2793 C 264.032 -2.3347 0.037248 0
M  V30 2794 C 265.013 -1.51575 -0.771947 0
M  V30 2795 O 266.198 -1.80126 -0.72582 0
M  V30 2796 C 263.328 -3.35354 -0.903064 0
M  V30 2797 C 262.282 -4.27526 -0.201288 0
M  V30 2798 C 261.608 -5.19747 -1.25565 0
M  V30 2799 C 262.908 -5.13959 0.929689 0
M  V30 2800 H 264.602 -2.88397 0.804227 0
M  V30 2801 H 262.148 -1.38669 0.388189 0
M  V30 2802 H 264.101 -3.98519 -1.36969 0
M  V30 2803 H 262.825 -2.78767 -1.70166 0
M  V30 2804 H 261.484 -3.65779 0.245265 0
M  V30 2805 H 261.132 -4.59479 -2.04666 0
M  V30 2806 H 260.832 -5.8225 -0.791128 0
M  V30 2807 H 262.356 -5.85789 -1.72288 0
M  V30 2808 H 263.77 -5.70718 0.543546 0
M  V30 2809 H 262.167 -5.85379 1.32103 0
M  V30 2810 H 263.237 -4.51389 1.77133 0
M  V30 2811 N 264.58 -0.43555 -1.51462 0
M  V30 2812 C 265.828 0.131254 -2.01673 0
M  V30 2813 C 266.149 1.43368 -1.32177 0
M  V30 2814 O 265.419 1.90524 -0.455769 0
M  V30 2815 H 263.999 0.0514954 -0.745223 0
M  V30 2816 H 266.661 -0.577847 -1.86137 0
M  V30 2817 H 265.757 0.308446 -3.10572 0
M  V30 2818 N 266.058 1.56714 -0.166846 0
M  V30 2819 C 267.304 1.97039 0.479962 0
M  V30 2820 C 267.637 1.05264 1.63197 0
M  V30 2821 O 266.912 0.0988833 1.94248 0
M  V30 2822 C 267.195 3.46867 0.967212 0
M  V30 2823 C 267.048 4.49421 -0.18466 0
M  V30 2824 C 268.367 3.9968 1.84238 0
M  V30 2825 H 265.486 0.71641 0.172992 0
M  V30 2826 H 268.128 1.8832 -0.252079 0
M  V30 2827 H 266.278 3.54428 1.59101 0
M  V30 2828 H 267.95 4.53924 -0.821621 0
M  V30 2829 H 266.193 4.25573 -0.840837 0
M  V30 2830 H 266.864 5.51644 0.198317 0
M  V30 2831 H 269.34 3.94723 1.31655 0
M  V30 2832 H 268.216 5.04941 2.15234 0
M  V30 2833 H 268.477 3.43226 2.78654 0
M  V30 2834 N 267.536 -0.106894 1.57237 0
M  V30 2835 C 268.782 -0.808678 1.86633 0
M  V30 2836 C 269.137 -1.76917 0.756178 0
M  V30 2837 O 268.43 -1.90055 -0.242834 0
M  V30 2838 C 268.624 -1.58628 3.20268 0
M  V30 2839 C 268.453 -0.702592 4.44178 0
M  V30 2840 C 267.223 -0.352808 5.04067 0
M  V30 2841 C 269.421 -0.0148031 5.14298 0
M  V30 2842 N 267.403 0.540279 6.11518 0
M  V30 2843 C 268.774 0.736809 6.15606 0
M  V30 2844 C 270.829 0.0603524 4.97863 0
M  V30 2845 C 269.532 1.55654 7.02257 0
M  V30 2846 C 271.558 0.866942 5.85011 0
M  V30 2847 C 270.92 1.60671 6.85831 0
M  V30 2848 H 267.019 -0.27246 0.733001 0
M  V30 2849 H 269.603 -0.0717858 1.94568 0
M  V30 2850 H 267.774 -2.29413 3.13408 0
M  V30 2851 H 269.506 -2.23434 3.3743 0
M  V30 2852 H 266.261 -0.697802 4.68431 0
M  V30 2853 H 266.685 0.979029 6.69884 0
M  V30 2854 H 271.327 -0.497236 4.19866 0
M  V30 2855 H 269.045 2.12524 7.79653 0
M  V30 2856 H 272.631 0.927612 5.74358 0
M  V30 2857 H 271.511 2.2208 7.52097 0
M  V30 2858 N 269.014 -1.53014 -0.377408 0
M  V30 2859 C 269.944 -1.81589 -1.46791 0
M  V30 2860 C 270.925 -0.668622 -1.56408 0
M  V30 2861 O 272.11 -0.917337 -1.71168 0
M  V30 2862 C 269.24 -1.99519 -2.8427 0
M  V30 2863 C 268.194 -3.15249 -2.89486 0
M  V30 2864 C 267.52 -3.18451 -4.29527 0
M  V30 2865 C 268.82 -4.54084 -2.58079 0
M  V30 2866 H 270.514 -2.7291 -1.23127 0
M  V30 2867 H 268.06 -1.31319 -0.590883 0
M  V30 2868 H 270.013 -2.18092 -3.60575 0
M  V30 2869 H 268.737 -1.04897 -3.09296 0
M  V30 2870 H 267.396 -2.96477 -2.15631 0
M  V30 2871 H 267.044 -2.2149 -4.5161 0
M  V30 2872 H 266.744 -3.962 -4.33934 0
M  V30 2873 H 268.268 -3.39193 -5.07721 0
M  V30 2874 H 269.682 -4.72899 -3.24098 0
M  V30 2875 H 268.079 -5.33987 -2.7382 0
M  V30 2876 H 269.149 -4.60006 -1.53372 0
M  V30 2877 N 270.492 0.636531 -1.44174 0
M  V30 2878 C 271.455 1.73063 -1.50273 0
M  V30 2879 C 272.455 1.56113 -0.385397 0
M  V30 2880 O 273.645 1.61707 -0.64781 0
M  V30 2881 C 270.777 3.12096 -1.37145 0
M  V30 2882 H 271.97 1.69031 -2.47727 0
M  V30 2883 H 269.523 0.849706 -1.31186 0
M  V30 2884 H 270.258 3.21728 -0.407636 0
M  V30 2885 H 270.043 3.25805 -2.18159 0
M  V30 2886 H 271.533 3.91846 -1.44382 0
M  V30 2887 N 271.97 1.30982 0.876444 0
M  V30 2888 C 273.216 1.20474 1.63138 0
M  V30 2889 C 273.549 -0.238096 1.92735 0
M  V30 2890 O 272.824 -1.1692 1.55435 0
M  V30 2891 C 273.107 2.04244 2.96574 0
M  V30 2892 C 272.96 3.56793 2.73896 0
M  V30 2893 C 274.279 1.88684 3.97601 0
M  V30 2894 H 271.398 0.439001 0.591985 0
M  V30 2895 H 274.04 1.60704 1.01361 0
M  V30 2896 H 272.19 1.70063 3.493 0
M  V30 2897 H 273.862 4.01077 2.27892 0
M  V30 2898 H 272.105 3.80548 2.08245 0
M  V30 2899 H 272.776 4.10706 3.68815 0
M  V30 2900 H 275.252 2.18584 3.54062 0
M  V30 2901 H 274.128 2.4961 4.88862 0
M  V30 2902 H 274.389 0.848343 4.33884 0
M  V30 2903 N 273.449 -1.08991 1.13837 0
M  V30 2904 C 274.379 -2.17771 0.842507 0
M  V30 2905 C 275.36 -1.6892 -0.20001 0
M  V30 2906 O 276.545 -1.94113 -0.0579731 0
M  V30 2907 C 273.675 -3.4589 0.312644 0
M  V30 2908 C 272.629 -4.08099 1.28992 0
M  V30 2909 C 271.955 -5.31098 0.619623 0
M  V30 2910 C 273.255 -4.50077 2.65005 0
M  V30 2911 H 274.949 -2.42777 1.75213 0
M  V30 2912 H 272.495 -1.16682 0.843875 0
M  V30 2913 H 274.448 -4.21297 0.0933043 0
M  V30 2914 H 273.172 -3.20419 -0.632382 0
M  V30 2915 H 271.831 -3.34717 1.49533 0
M  V30 2916 H 271.479 -5.0191 -0.33102 0
M  V30 2917 H 271.179 -5.73674 1.27167 0
M  V30 2918 H 272.703 -6.09224 0.409669 0
M  V30 2919 H 274.117 -5.16688 2.48407 0
M  V30 2920 H 272.514 -5.03553 3.26427 0
M  V30 2921 H 273.584 -3.62257 3.22332 0
M  V30 2922 N 274.927 -0.932562 -1.27047 0
M  V30 2923 C 275.89 -0.440064 -2.24936 0
M  V30 2924 C 276.89 0.444071 -1.54547 0
M  V30 2925 O 278.08 0.244465 -1.72476 0
M  V30 2926 C 275.212 0.36678 -3.38921 0
M  V30 2927 H 276.405 -1.305 -2.70018 0
M  V30 2928 H 273.958 -0.713707 -1.39054 0
M  V30 2929 H 274.693 1.25033 -2.99228 0
M  V30 2930 H 274.478 -0.267204 -3.91188 0
M  V30 2931 H 275.968 0.701567 -4.11665 0
M  V30 2932 N 276.405 1.4127 -0.698611 0
M  V30 2933 C 277.652 2.0118 -0.230865 0
M  V30 2934 C 277.98 1.55338 1.17049 0
M  V30 2935 O 277.235 0.756775 1.80475 0
M  V30 2936 C 277.534 3.56592 -0.240192 0
M  V30 2937 C 277.2 4.21955 -1.58948 0
M  V30 2938 C 275.862 4.39524 -1.95887 0
M  V30 2939 C 278.214 4.58576 -2.47704 0
M  V30 2940 C 275.542 4.90992 -3.2116 0
M  V30 2941 C 277.894 5.11435 -3.72313 0
M  V30 2942 C 276.558 5.27215 -4.0939 0
M  V30 2943 H 275.828 0.736169 -0.0844796 0
M  V30 2944 H 278.475 1.69124 -0.8983 0
M  V30 2945 H 276.78 3.88456 0.510797 0
M  V30 2946 H 278.477 4.00758 0.139296 0
M  V30 2947 H 275.067 4.08657 -1.29219 0
M  V30 2948 H 279.251 4.44654 -2.20445 0
M  V30 2949 H 274.507 5.01393 -3.49878 0
M  V30 2950 H 278.681 5.38752 -4.4127 0
M  V30 2951 H 276.308 5.66859 -5.06533 0
M  V30 2952 N 277.883 0.443576 1.51229 0
M  V30 2953 C 278.846 -0.353132 2.26463 0
M  V30 2954 C 279.846 -0.944338 1.3015 0
M  V30 2955 O 281.036 -0.817813 1.5381 0
M  V30 2956 C 278.168 -1.50023 3.06114 0
M  V30 2957 H 279.361 0.3063 2.98332 0
M  V30 2958 H 276.914 0.196902 1.55055 0
M  V30 2959 H 277.649 -2.19553 2.38677 0
M  V30 2960 H 277.434 -1.08241 3.76864 0
M  V30 2961 H 278.924 -2.06296 3.63087 0
M  V30 2962 N 279.361 -1.56624 0.175154 0
M  V30 2963 C 280.291 -2.21155 -0.749195 0
M  V30 2964 C 281.272 -1.16836 -1.23626 0
M  V30 2965 O 282.457 -1.45277 -1.28873 0
M  V30 2966 C 279.587 -2.8553 -1.97711 0
M  V30 2967 C 278.541 -3.95921 -1.62575 0
M  V30 2968 C 277.867 -4.47365 -2.92864 0
M  V30 2969 C 279.167 -5.15323 -0.850838 0
M  V30 2970 H 280.861 -2.98653 -0.211295 0
M  V30 2971 H 278.407 -1.43651 -0.100188 0
M  V30 2972 H 280.36 -3.2935 -2.62881 0
M  V30 2973 H 279.084 -2.05406 -2.53921 0
M  V30 2974 H 277.743 -3.52762 -0.997719 0
M  V30 2975 H 277.391 -3.64027 -3.47122 0
M  V30 2976 H 277.091 -5.21839 -2.70106 0
M  V30 2977 H 278.615 -4.93873 -3.59056 0
M  V30 2978 H 280.029 -5.55812 -1.40521 0
M  V30 2979 H 278.426 -5.95739 -0.722154 0
M  V30 2980 H 279.496 -4.84661 0.152082 0
M  V30 2981 N 280.839 0.0985539 -1.57292 0
M  V30 2982 C 281.769 1.12064 -2.04851 0
M  V30 2983 C 282.75 1.41981 -0.936767 0
M  V30 2984 O 283.935 1.52071 -1.20781 0
M  V30 2985 C 281.065 2.44144 -2.47004 0
M  V30 2986 C 280.019 2.28643 -3.6181 0
M  V30 2987 C 279.345 3.65869 -3.89929 0
M  V30 2988 C 280.645 1.72986 -4.92822 0
M  V30 2989 H 282.339 0.724979 -2.9049 0
M  V30 2990 H 279.885 0.34729 -1.39749 0
M  V30 2991 H 281.838 3.15914 -2.78884 0
M  V30 2992 H 280.562 2.85639 -1.5836 0
M  V30 2993 H 279.221 1.59318 -3.30172 0
M  V30 2994 H 278.869 4.04885 -2.98458 0
M  V30 2995 H 278.569 3.56344 -4.67218 0
M  V30 2996 H 280.093 4.39112 -4.2428 0
M  V30 2997 H 281.507 2.34593 -5.23105 0
M  V30 2998 H 279.904 1.74229 -5.74251 0
M  V30 2999 H 280.974 0.689007 -4.7998 0
M  V30 3000 N 282.317 1.53212 0.369288 0
M  V30 3001 C 283.728 1.60943 0.946276 0
M  V30 3002 C 284.079 0.47452 1.90375 0
M  V30 3003 O 283.204 -0.399597 2.12679 0
M  V30 3004 C 283.799 2.91715 1.72302 0
M  V30 3005 C 282.358 3.01792 2.24941 0
M  V30 3006 C 281.505 2.56211 1.06072 0
M  V30 3007 H 284.456 1.58007 0.148198 0
M  V30 3008 H 284.477 2.79309 2.58393 0
M  V30 3009 H 283.989 3.74295 1.0259 0
M  V30 3010 H 282.09 2.23791 2.97906 0
M  V30 3011 H 282.203 4.06803 2.53077 0
M  V30 3012 H 280.567 2.10998 1.4266 0
M  V30 3013 H 281.35 3.41206 0.378639 0
M  V30 3014 N 283.795 -0.628877 1.44509 0
M  V30 3015 C 285.041 -1.39045 1.47629 0
M  V30 3016 C 285.374 -1.93892 0.109343 0
M  V30 3017 O 284.649 -1.7379 -0.87334 0
M  V30 3018 C 284.932 -2.55408 2.53848 0
M  V30 3019 C 284.785 -2.05896 3.99909 0
M  V30 3020 C 286.104 -3.5759 2.56549 0
M  V30 3021 H 283.223 -0.504232 0.537512 0
M  V30 3022 H 285.865 -0.710854 1.76201 0
M  V30 3023 H 284.015 -3.13384 2.29615 0
M  V30 3024 H 285.687 -1.52734 4.35282 0
M  V30 3025 H 283.93 -1.37061 4.11578 0
M  V30 3026 H 284.601 -2.89681 4.69882 0
M  V30 3027 H 287.077 -3.09419 2.78207 0
M  V30 3028 H 285.953 -4.36527 3.32769 0
M  V30 3029 H 286.214 -4.11808 1.60832 0
M  V30 3030 N 285.273 -1.31445 -0.869486 0
M  V30 3031 C 286.203 -1.21727 -1.99261 0
M  V30 3032 C 287.184 -0.104359 -1.6978 0
M  V30 3033 O 288.369 -0.289038 -1.92037 0
M  V30 3034 C 285.499 -0.924317 -3.34774 0
M  V30 3035 C 284.453 -1.99685 -3.78563 0
M  V30 3036 C 283.779 -1.55658 -5.11541 0
M  V30 3037 C 285.079 -3.41003 -3.95619 0
M  V30 3038 H 286.773 -2.1569 -2.07649 0
M  V30 3039 H 284.319 -1.03839 -0.997675 0
M  V30 3040 H 286.272 -0.842934 -4.12883 0
M  V30 3041 H 284.996 0.0509793 -3.2656 0
M  V30 3042 H 283.655 -2.06813 -3.02694 0
M  V30 3043 H 283.303 -0.569132 -4.9977 0
M  V30 3044 H 283.003 -2.27409 -5.41811 0
M  V30 3045 H 284.527 -1.48928 -5.92159 0
M  V30 3046 H 285.941 -3.36547 -4.64122 0
M  V30 3047 H 284.338 -4.10975 -4.37286 0
M  V30 3048 H 285.408 -3.81754 -2.98985 0
M  V30 3049 N 286.751 1.08385 -1.14413 0
M  V30 3050 C 287.999 1.80419 -0.910679 0
M  V30 3051 C 288.32 1.86658 0.564243 0
M  V30 3052 O 287.59 1.35985 1.41014 0
M  V30 3053 H 286.17 0.668204 -0.333934 0
M  V30 3054 H 288.832 1.31037 -1.44275 0
M  V30 3055 H 287.928 2.83238 -1.31082 0
M  V30 3056 N 288.23 0.939286 1.26551 0
M  V30 3057 C 289.476 0.586715 1.94128 0
M  V30 3058 C 289.809 -0.8717 1.73537 0
M  V30 3059 O 289.084 -1.62339 1.07127 0
M  V30 3060 C 289.367 0.927497 3.4795 0
M  V30 3061 C 289.22 2.44052 3.77834 0
M  V30 3062 C 290.539 0.441569 4.37879 0
M  V30 3063 H 287.658 0.21463 0.705055 0
M  V30 3064 H 290.3 1.17316 1.49455 0
M  V30 3065 H 288.45 0.428431 3.8613 0
M  V30 3066 H 290.122 3.01216 3.4938 0
M  V30 3067 H 288.365 2.8848 3.23978 0
M  V30 3068 H 289.036 2.62947 4.85348 0
M  V30 3069 H 291.512 0.869448 4.06915 0
M  V30 3070 H 290.388 0.708856 5.44304 0
M  V30 3071 H 290.649 -0.658467 4.37169 0
M  V30 3072 N 289.708 -1.40897 0.706093 0
M  V30 3073 C 290.956 -2.00657 0.241054 0
M  V30 3074 C 291.277 -1.56241 -1.16678 0
M  V30 3075 O 290.547 -0.79765 -1.78926 0
M  V30 3076 H 289.127 -0.742018 0.0861308 0
M  V30 3077 H 291.789 -1.72372 0.909604 0
M  V30 3078 H 290.885 -3.10958 0.266705 0
M  V30 3079 N 291.186 -0.45159 -1.50991 0
M  V30 3080 C 292.118 0.388634 -2.25881 0
M  V30 3081 C 293.131 0.974041 -1.30446 0
M  V30 3082 O 294.32 0.865758 -1.56099 0
M  V30 3083 C 291.42 1.5571 -3.01011 0
M  V30 3084 C 290.593 1.08801 -4.23652 0
M  V30 3085 C 289.652 2.12825 -4.8124 0
M  V30 3086 O 288.678 1.71678 -5.42693 0
M  V30 3087 N 289.88 3.45453 -4.66522 0
M  V30 3088 H 292.645 -0.25329 -2.98628 0
M  V30 3089 H 290.206 -0.281268 -1.59438 0
M  V30 3090 H 292.198 2.24952 -3.3642 0
M  V30 3091 H 290.768 2.10409 -2.31186 0
M  V30 3092 H 289.988 0.22215 -3.93574 0
M  V30 3093 H 291.276 0.752213 -5.03209 0
M  V30 3094 H 290.674 3.81605 -4.17605 0
M  V30 3095 H 289.231 4.10549 -5.06254 0
M  V30 3096 N 292.664 1.56529 -0.183458 0
M  V30 3097 C 293.894 2.01331 0.463612 0
M  V30 3098 C 294.302 1.06278 1.5653 0
M  V30 3099 O 293.645 0.0577976 1.83609 0
M  V30 3100 C 293.707 3.42547 1.09096 0
M  V30 3101 C 293.371 4.56817 0.129442 0
M  V30 3102 C 294.368 5.15734 -0.656807 0
M  V30 3103 C 292.053 5.02295 0.02174 0
M  V30 3104 C 294.047 6.1857 -1.53784 0
M  V30 3105 C 291.734 6.04978 -0.862864 0
M  V30 3106 C 292.732 6.62988 -1.64123 0
M  V30 3107 O 292.42 7.63677 -2.51103 0
M  V30 3108 H 292.152 0.664917 0.121907 0
M  V30 3109 H 294.706 2.034 -0.285954 0
M  V30 3110 H 292.936 3.37428 1.88889 0
M  V30 3111 H 294.625 3.71228 1.64148 0
M  V30 3112 H 295.391 4.81473 -0.583839 0
M  V30 3113 H 291.27 4.56847 0.617392 0
M  V30 3114 H 294.814 6.63777 -2.14583 0
M  V30 3115 H 290.711 6.38663 -0.93699 0
M  V30 3116 H 291.479 7.81049 -2.44753 0
M  V30 3117 N 294.142 -0.090211 1.57342 0
M  V30 3118 C 295.37 -0.806224 1.90546 0
M  V30 3119 C 295.785 -1.72041 0.777644 0
M  V30 3120 O 295.142 -1.80778 -0.250103 0
M  V30 3121 C 295.193 -1.61546 3.23396 0
M  V30 3122 O 294.914 -0.738043 4.31839 0
M  V30 3123 C 296.415 -2.4341 3.70495 0
M  V30 3124 H 293.635 -0.230256 0.630257 0
M  V30 3125 H 296.179 -0.0659843 2.04394 0
M  V30 3126 H 294.334 -2.30816 3.11131 0
M  V30 3127 H 294.748 -1.29901 5.08159 0
M  V30 3128 H 296.222 -2.95676 4.66133 0
M  V30 3129 H 296.699 -3.22098 2.98579 0
M  V30 3130 H 297.305 -1.79331 3.85643 0
M  V30 3131 N 295.62 -1.53406 -0.361157 0
M  V30 3132 C 296.866 -1.70054 -1.10496 0
M  V30 3133 C 297.199 -0.453278 -1.88836 0
M  V30 3134 O 296.474 0.5495 -1.86576 0
M  V30 3135 C 296.757 -2.95317 -2.06058 0
M  V30 3136 C 296.61 -4.3021 -1.31298 0
M  V30 3137 C 297.929 -3.16193 -3.06121 0
M  V30 3138 H 295.048 -0.618799 -0.400321 0
M  V30 3139 H 297.69 -1.86052 -0.385318 0
M  V30 3140 H 295.84 -2.81809 -2.67425 0
M  V30 3141 H 297.512 -4.55538 -0.726807 0
M  V30 3142 H 295.755 -4.29421 -0.614853 0
M  V30 3143 H 296.426 -5.14 -2.01265 0
M  V30 3144 H 298.902 -3.28916 -2.5486 0
M  V30 3145 H 297.778 -4.05266 -3.70204 0
M  V30 3146 H 298.039 -2.31676 -3.76535 0
M  V30 3147 N 297.098 0.621204 -1.44841 0
M  V30 3148 C 298.03 1.74615 -1.48466 0
M  V30 3149 C 299.043 1.58377 -0.37691 0
M  V30 3150 O 300.232 1.66508 -0.643215 0
M  V30 3151 C 297.332 3.12459 -1.31236 0
M  V30 3152 C 296.505 3.55064 -2.55438 0
M  V30 3153 C 295.564 4.71821 -2.32963 0
M  V30 3154 O 294.59 4.79628 -3.06505 0
M  V30 3155 N 295.792 5.64186 -1.36654 0
M  V30 3156 H 298.557 1.71973 -2.45449 0
M  V30 3157 H 296.118 0.806077 -1.40407 0
M  V30 3158 H 298.11 3.88302 -1.14032 0
M  V30 3159 H 296.68 3.09686 -0.4258 0
M  V30 3160 H 295.9 2.69324 -2.87851 0
M  V30 3161 H 297.188 3.80284 -3.38026 0
M  V30 3162 H 296.586 5.6058 -0.759344 0
M  V30 3163 H 295.143 6.39618 -1.25425 0
M  V30 3164 N 298.576 1.31904 0.862503 0
M  V30 3165 C 299.822 1.23207 1.61838 0
M  V30 3166 C 300.177 -0.206062 1.91293 0
M  V30 3167 O 299.47 -1.14162 1.53875 0
M  V30 3168 C 299.664 2.01713 2.95037 0
M  V30 3169 C 299.493 3.53014 2.78588 0
M  V30 3170 C 298.263 4.22359 2.77382 0
M  V30 3171 C 300.461 4.47819 2.52909 0
M  V30 3172 N 298.443 5.59766 2.52062 0
M  V30 3173 C 299.814 5.72947 2.36922 0
M  V30 3174 C 301.869 4.37162 2.38314 0
M  V30 3175 C 300.572 6.88623 2.07823 0
M  V30 3176 C 302.598 5.5263 2.10604 0
M  V30 3177 C 301.96 6.76752 1.95411 0
M  V30 3178 H 298.059 0.505984 0.596242 0
M  V30 3179 H 300.643 1.66179 1.01452 0
M  V30 3180 H 298.814 1.61098 3.53415 0
M  V30 3181 H 300.546 1.84975 3.59953 0
M  V30 3182 H 297.301 3.74401 2.90036 0
M  V30 3183 H 297.725 6.32135 2.42352 0
M  V30 3184 H 302.367 3.41857 2.48784 0
M  V30 3185 H 300.085 7.83948 1.9609 0
M  V30 3186 H 303.671 5.46307 2.00101 0
M  V30 3187 H 302.551 7.6459 1.74274 0
M  V30 3188 N 300.054 -1.07777 1.14986 0
M  V30 3189 C 301.465 -1.61766 0.932127 0
M  V30 3190 C 301.816 -1.88974 -0.527581 0
M  V30 3191 O 300.941 -1.65198 -1.39781 0
M  V30 3192 C 301.536 -2.93891 1.68563 0
M  V30 3193 C 300.095 -3.44639 1.5133 0
M  V30 3194 C 299.242 -2.18767 1.704 0
M  V30 3195 H 302.193 -0.909201 1.30074 0
M  V30 3196 H 302.214 -3.62623 1.15259 0
M  V30 3197 H 301.726 -2.74057 2.74799 0
M  V30 3198 H 299.827 -3.69564 0.474702 0
M  V30 3199 H 299.94 -4.20966 2.28746 0
M  V30 3200 H 298.304 -2.28253 1.13016 0
M  V30 3201 H 299.087 -2.01433 2.77992 0
M  V30 3202 N 301.532 -0.945985 -1.26051 0
M  V30 3203 C 302.78 -0.594941 -1.93145 0
M  V30 3204 C 303.101 0.86953 -1.7454 0
M  V30 3205 O 302.371 1.61838 -1.10387 0
M  V30 3206 H 300.951 -0.217044 -0.714773 0
M  V30 3207 H 303.613 -1.20235 -1.53393 0
M  V30 3208 H 302.709 -0.816835 -3.01221 0
M  V30 3209 N 303.011 1.40521 -0.713556 0
M  V30 3210 C 304.239 2.05237 -0.261775 0
M  V30 3211 C 304.654 1.53755 1.09567 0
M  V30 3212 O 304.011 0.693268 1.6882 0
M  V30 3213 C 304.062 3.60763 -0.230706 0
M  V30 3214 O 303.783 4.10345 -1.53455 0
M  V30 3215 C 305.284 4.42651 0.239874 0
M  V30 3216 H 302.504 0.660533 -0.118057 0
M  V30 3217 H 305.048 1.79967 -0.971192 0
M  V30 3218 H 303.203 3.8501 0.429661 0
M  V30 3219 H 303.617 5.04526 -1.43366 0
M  V30 3220 H 305.091 5.51599 0.210468 0
M  V30 3221 H 305.568 4.20082 1.28171 0
M  V30 3222 H 306.174 4.23507 -0.390142 0
M  V30 3223 N 304.489 0.459591 1.5075 0
M  V30 3224 C 305.735 -0.091664 2.03193 0
M  V30 3225 C 306.09 -1.38432 1.3362 0
M  V30 3226 O 305.383 -1.86257 0.449322 0
M  V30 3227 C 305.577 -0.342866 3.55752 0
M  V30 3228 C 305.406 0.923888 4.40107 0
M  V30 3229 C 304.176 1.46388 4.83631 0
M  V30 3230 C 306.374 1.81617 4.81165 0
M  V30 3231 N 304.356 2.68086 5.52271 0
M  V30 3232 C 305.727 2.87907 5.49099 0
M  V30 3233 C 307.782 1.82793 4.63132 0
M  V30 3234 C 306.485 3.95347 6.0091 0
M  V30 3235 C 308.511 2.89182 5.15876 0
M  V30 3236 C 307.873 3.94191 5.83774 0
M  V30 3237 H 303.972 0.00619247 0.781975 0
M  V30 3238 H 306.556 0.625233 1.84388 0
M  V30 3239 H 304.727 -1.0288 3.74527 0
M  V30 3240 H 306.459 -0.887445 3.9485 0
M  V30 3241 H 303.214 1.01466 4.62603 0
M  V30 3242 H 303.638 3.29857 5.91205 0
M  V30 3243 H 308.28 1.0293 4.1008 0
M  V30 3244 H 305.998 4.76035 6.53006 0
M  V30 3245 H 309.584 2.91061 5.0376 0
M  V30 3246 H 308.464 4.75161 6.23853 0
M  V30 3247 N 305.967 -1.56429 0.191757 0
M  V30 3248 C 307.207 -1.99383 -0.450099 0
M  V30 3249 C 307.571 -1.07581 -1.59029 0
M  V30 3250 O 308.772 -1.39758 -2.29611 0
M  V30 3251 C 307.043 -3.45841 -0.901611 0
M  V30 3252 S 308.602 -4.10822 -1.54177 0
M  V30 3253 H 305.42 -0.696253 -0.144057 0
M  V30 3254 H 308.022 -1.93276 0.294036 0
M  V30 3255 H 306.726 -4.10354 -0.0616596 0
M  V30 3256 H 306.257 -3.55757 -1.67929 0
M  V30 3257 H 308.272 -4.07553 -2.83046 0
M  V30 3258 N 307.445 0.0818655 -1.57387 0
M  V30 3259 C 308.692 0.782914 -1.86753 0
M  V30 3260 C 309.02 1.78082 -0.782118 0
M  V30 3261 O 308.275 1.94426 0.22295 0
M  V30 3262 C 308.574 1.53513 -3.22752 0
M  V30 3263 C 308.24 0.678134 -4.45771 0
M  V30 3264 C 306.902 0.441929 -4.79166 0
M  V30 3265 C 309.254 0.0832243 -5.21134 0
M  V30 3266 C 306.582 -0.398833 -5.85343 0
M  V30 3267 C 308.934 -0.744935 -6.28199 0
M  V30 3268 C 307.598 -0.991107 -6.60101 0
M  V30 3269 H 306.868 0.286489 -0.683378 0
M  V30 3270 H 309.515 0.0439808 -1.91449 0
M  V30 3271 H 307.82 2.34599 -3.138 0
M  V30 3272 H 309.517 2.08218 -3.42705 0
M  V30 3273 H 306.107 0.872357 -4.19628 0
M  V30 3274 H 310.291 0.252847 -4.95655 0
M  V30 3275 H 305.547 -0.598405 -6.08465 0
M  V30 3276 H 309.721 -1.21271 -6.8576 0
M  V30 3277 H 307.348 -1.64437 -7.42202 0
M  V30 3278 N 308.923 1.53595 0.353017 0
M  V30 3279 C 310.172 1.69603 1.09168 0
M  V30 3280 C 310.485 0.460925 1.90092 0
M  V30 3281 O 311.691 0.501774 2.66823 0
M  V30 3282 C 310.147 2.99872 1.9901 0
M  V30 3283 C 309.755 4.30687 1.23339 0
M  V30 3284 C 311.499 3.25246 2.72792 0
M  V30 3285 C 309.406 5.52036 2.12156 0
M  V30 3286 H 308.336 0.631966 0.411261 0
M  V30 3287 H 310.987 1.80096 0.351802 0
M  V30 3288 H 309.369 2.83212 2.7678 0
M  V30 3289 H 310.543 4.58019 0.505456 0
M  V30 3290 H 308.858 4.11853 0.613663 0
M  V30 3291 H 311.455 4.13095 3.39495 0
M  V30 3292 H 311.798 2.41846 3.38846 0
M  V30 3293 H 312.331 3.42638 2.021 0
M  V30 3294 H 309.07 6.37951 1.50659 0
M  V30 3295 H 308.59 5.28966 2.82764 0
M  V30 3296 H 310.269 5.87313 2.71427 0
M  V30 3297 N 310.401 -0.613514 1.45168 0
M  V30 3298 C 311.626 -1.40437 1.52618 0
M  V30 3299 C 312.051 -1.87438 0.157707 0
M  V30 3300 O 311.409 -1.59791 -0.856537 0
M  V30 3301 C 311.457 -2.58894 2.51011 0
M  V30 3302 O 310.561 -3.59326 2.02382 0
M  V30 3303 H 309.902 -0.419506 0.514695 0
M  V30 3304 H 312.432 -0.747215 1.90467 0
M  V30 3305 H 312.442 -3.06214 2.69624 0
M  V30 3306 H 311.117 -2.24032 3.50403 0
M  V30 3307 H 309.694 -3.18695 1.93618 0
M  V30 3308 N 311.879 -1.3236 -0.855495 0
M  V30 3309 C 313.107 -1.2587 -1.64208 0
M  V30 3310 C 313.522 0.173457 -1.88002 0
M  V30 3311 O 312.879 1.11027 -1.44842 0
M  V30 3312 C 312.93 -2.01424 -3.00184 0
M  V30 3313 O 312.651 -3.39051 -2.77445 0
M  V30 3314 C 314.152 -2.01948 -3.94629 0
M  V30 3315 H 311.372 -0.434318 -0.511477 0
M  V30 3316 H 313.916 -1.74469 -1.0668 0
M  V30 3317 H 312.071 -1.56549 -3.5436 0
M  V30 3318 H 312.485 -3.77711 -3.63916 0
M  V30 3319 H 313.959 -2.59297 -4.87308 0
M  V30 3320 H 314.436 -1.00554 -4.27534 0
M  V30 3321 H 315.042 -2.46767 -3.4639 0
M  V30 3322 N 313.357 1.07166 -1.15556 0
M  V30 3323 C 314.605 1.79443 -0.929764 0
M  V30 3324 C 314.926 1.87246 0.544414 0
M  V30 3325 O 314.196 1.37473 1.39564 0
M  V30 3326 H 312.776 0.664625 -0.341003 0
M  V30 3327 H 315.438 1.29499 -1.45657 0
M  V30 3328 H 314.534 2.81832 -1.34079 0
M  V30 3329 N 314.835 0.952656 1.25548 0
M  V30 3330 C 316.251 0.656769 1.4546 0
M  V30 3331 C 316.451 -0.78633 1.85524 0
M  V30 3332 O 315.507 -1.56183 1.98402 0
M  V30 3333 C 316.82 1.62801 2.52817 0
M  V30 3334 C 318.368 1.63897 2.66659 0
M  V30 3335 C 318.843 2.5978 3.77198 0
M  V30 3336 N 320.334 2.58133 3.84606 0
M  V30 3337 C 321.069 3.29003 4.69621 0
M  V30 3338 N 320.565 4.09339 5.58939 0
M  V30 3339 N 322.358 3.179 4.63569 0
M  V30 3340 H 314.509 1.88526 0.978344 0
M  V30 3341 H 316.772 0.810815 0.491206 0
M  V30 3342 H 316.478 2.65869 2.30232 0
M  V30 3343 H 316.352 1.38898 3.50695 0
M  V30 3344 H 318.739 0.615481 2.8861 0
M  V30 3345 H 318.82 1.91858 1.69187 0
M  V30 3346 H 318.464 3.62254 3.55997 0
M  V30 3347 H 318.394 2.29105 4.7415 0
M  V30 3348 H 320.885 1.99809 3.20757 0
M  V30 3349 H 321.198 4.6034 6.20731 0
M  V30 3350 H 319.543 4.13438 5.58654 0
M  V30 3351 H 322.734 2.54612 3.92798 0
M  V30 3352 H 322.907 3.73398 5.29602 0
M  V30 3353 N 316.313 -1.40141 0.720998 0
M  V30 3354 C 317.561 -2.0039 0.262323 0
M  V30 3355 C 317.882 -1.57469 -1.15015 0
M  V30 3356 O 317.152 -0.816582 -1.78069 0
M  V30 3357 H 315.732 -0.741063 0.093996 0
M  V30 3358 H 318.394 -1.71398 0.927835 0
M  V30 3359 H 317.49 -3.10658 0.299671 0
M  V30 3360 N 317.792 -0.46758 -1.50504 0
M  V30 3361 C 319.04 0.0884469 -2.01906 0
M  V30 3362 C 319.361 1.40532 -1.35188 0
M  V30 3363 O 318.631 1.89515 -0.496079 0
M  V30 3364 H 317.211 0.0356765 -0.746148 0
M  V30 3365 H 319.873 -0.6172 -1.84869 0
M  V30 3366 H 318.969 0.2425 -3.11156 0
M  V30 3367 N 319.27 1.56325 -0.20005 0
M  V30 3368 C 320.218 2.20666 0.735482 0
M  V30 3369 C 321.212 1.17934 1.21605 0
M  V30 3370 O 322.418 1.36068 1.17837 0
M  V30 3371 H 318.793 0.70725 0.255542 0
M  V30 3372 H 320.764 2.9792 0.169166 0
M  V30 3373 C 319.513 2.88391 1.94232 0
M  V30 3374 H 318.836 3.67185 1.58161 0
M  V30 3375 H 320.276 3.3684 2.57517 0
M  V30 3376 C 318.735 1.89692 2.78421 0
M  V30 3377 O 319.265 1.40032 3.76502 0
M  V30 3378 N 317.471 1.57813 2.44015 0
M  V30 3379 H 317.018 1.9839 1.64314 0
M  V30 3380 H 316.976 0.920325 3.00628 0
M  V30 3381 N 320.748 -0.0735177 1.57428 0
M  V30 3382 C 321.996 -0.771472 1.86796 0
M  V30 3383 C 322.317 -1.78201 0.791804 0
M  V30 3384 O 321.587 -1.95074 -0.179718 0
M  V30 3385 H 320.167 -0.28791 0.689287 0
M  V30 3386 H 322.829 -0.0500161 1.94836 0
M  V30 3387 H 321.925 -1.28874 2.8425 0
M  V30 3388 N 322.226 -1.5378 -0.344866 0
M  V30 3389 C 323.454 -1.74899 -1.10534 0
M  V30 3390 C 323.869 -0.487534 -1.82397 0
M  V30 3391 O 323.226 0.540741 -1.74305 0
M  V30 3392 C 323.277 -2.92822 -2.11984 0
M  V30 3393 O 322.998 -4.14089 -1.43044 0
M  V30 3394 C 324.499 -3.25982 -3.00417 0
M  V30 3395 H 321.719 -0.584426 -0.329678 0
M  V30 3396 H 324.263 -2.006 -0.397474 0
M  V30 3397 H 322.418 -2.69457 -2.78338 0
M  V30 3398 H 322.832 -4.80272 -2.10805 0
M  V30 3399 H 324.306 -4.11848 -3.67539 0
M  V30 3400 H 324.783 -2.42228 -3.66363 0
M  V30 3401 H 325.389 -3.51349 -2.39654 0
M  V30 3402 N 323.704 0.605807 -1.45491 0
M  V30 3403 C 324.929 1.39625 -1.53361 0
M  V30 3404 C 325.354 1.87351 -0.167645 0
M  V30 3405 O 324.712 1.60243 0.848051 0
M  V30 3406 C 324.76 2.57559 -2.5238 0
M  V30 3407 O 323.864 3.58248 -2.04285 0
M  V30 3408 H 323.205 0.416771 -0.516912 0
M  V30 3409 H 325.735 0.737103 -1.90861 0
M  V30 3410 H 325.745 3.0478 -2.71244 0
M  V30 3411 H 324.42 2.22171 -3.51586 0
M  V30 3412 H 322.997 3.17664 -1.95305 0
M  V30 3413 N 325.182 1.32811 0.848464 0
M  V30 3414 C 326.407 1.26882 1.6406 0
M  V30 3415 C 326.832 -0.15913 1.87426 0
M  V30 3416 O 326.19 -1.11258 1.43148 0
M  V30 3417 C 326.238 2.03997 2.97351 0
M  V30 3418 O 325.342 1.39201 3.88197 0
M  V30 3419 H 324.683 0.436982 0.499943 0
M  V30 3420 H 327.213 1.75224 1.0563 0
M  V30 3421 H 327.223 2.14403 3.47124 0
M  V30 3422 H 325.898 3.0783 2.79666 0
M  V30 3423 H 324.475 1.37381 3.46671 0
M  V30 3424 N 326.66 -1.06551 1.16123 0
M  V30 3425 C 327.885 -1.83544 0.965735 0
M  V30 3426 C 328.31 -1.81843 -0.481102 0
M  V30 3427 O 327.668 -1.21732 -1.34354 0
M  V30 3428 C 327.716 -3.28169 1.49457 0
M  V30 3429 O 326.82 -4.0643 0.699157 0
M  V30 3430 H 326.161 -0.568026 0.343864 0
M  V30 3431 H 328.691 -1.34362 1.54299 0
M  V30 3432 H 328.701 -3.78992 1.51092 0
M  V30 3433 H 327.376 -3.28722 2.54784 0
M  V30 3434 H 325.953 -3.65216 0.7531 0
M  V30 3435 N 328.138 -0.959301 -1.25041 0
M  V30 3436 C 329.088 -0.453888 -2.23436 0
M  V30 3437 C 330.072 0.459461 -1.542 0
M  V30 3438 O 331.264 0.291752 -1.74579 0
M  V30 3439 C 328.393 0.262667 -3.42294 0
M  V30 3440 C 327.479 -0.669022 -4.1879 0
M  V30 3441 N 327.87 -1.80267 -4.72586 0
M  V30 3442 C 326.168 -0.47814 -4.4343 0
M  V30 3443 C 326.869 -2.38475 -5.3057 0
M  V30 3444 N 325.845 -1.67078 -5.17287 0
M  V30 3445 H 329.647 -1.319 -2.6264 0
M  V30 3446 H 327.161 -0.817358 -1.40332 0
M  V30 3447 H 329.158 0.641911 -4.11929 0
M  V30 3448 H 327.818 1.12432 -3.04613 0
M  V30 3449 H 328.829 -2.18442 -4.69578 0
M  V30 3450 H 325.506 0.340249 -4.16111 0
M  V30 3451 H 326.896 -3.34094 -5.8295 0
M  V30 3452 N 329.616 1.39756 -0.72842 0
M  V30 3453 C 330.564 2.32485 -0.0731849 0
M  V30 3454 C 331.558 1.52717 0.733063 0
M  V30 3455 O 332.764 1.68428 0.634988 0
M  V30 3456 H 329.139 0.751984 -0.00486469 0
M  V30 3457 H 331.11 2.85382 -0.871761 0
M  V30 3458 C 329.859 3.37773 0.824908 0
M  V30 3459 H 329.182 3.99227 0.213915 0
M  V30 3460 H 330.622 4.05121 1.25111 0
M  V30 3461 C 329.081 2.74287 1.95622 0
M  V30 3462 O 329.611 2.61618 3.04826 0
M  V30 3463 N 327.817 2.32475 1.74367 0
M  V30 3464 H 327.364 2.4298 0.855494 0
M  V30 3465 H 327.322 1.90337 2.50238 0
M  V30 3466 N 331.094 0.475555 1.50254 0
M  V30 3467 C 332.34 -0.0701075 2.03279 0
M  V30 3468 C 332.695 -1.37007 1.35081 0
M  V30 3469 O 331.988 -1.8577 0.469052 0
M  V30 3470 C 332.182 -0.305114 3.56095 0
M  V30 3471 C 332.011 0.970515 4.39103 0
M  V30 3472 C 330.781 1.51509 4.82051 0
M  V30 3473 C 332.979 1.8671 4.79212 0
M  V30 3474 N 330.961 2.73928 5.49397 0
M  V30 3475 C 332.332 2.93715 5.46014 0
M  V30 3476 C 334.387 1.87695 4.61167 0
M  V30 3477 C 333.09 4.01699 5.96683 0
M  V30 3478 C 335.116 2.94637 5.12779 0
M  V30 3479 C 334.478 4.00361 5.79561 0
M  V30 3480 H 330.577 0.014486 0.781866 0
M  V30 3481 H 333.161 0.644755 1.83714 0
M  V30 3482 H 331.332 -0.989019 3.75597 0
M  V30 3483 H 333.064 -0.845516 3.95769 0
M  V30 3484 H 329.819 1.06367 4.61501 0
M  V30 3485 H 330.243 3.36109 5.87673 0
M  V30 3486 H 334.885 1.07273 4.08965 0
M  V30 3487 H 332.603 4.82934 6.4792 0
M  V30 3488 H 336.189 2.96388 5.00645 0
M  V30 3489 H 335.069 4.81751 6.18778 0
M  V30 3490 N 332.573 -1.56217 0.208337 0
M  V30 3491 C 333.821 -1.97558 -0.426076 0
M  V30 3492 C 334.142 -1.09683 -1.61229 0
M  V30 3493 O 333.412 -0.170956 -1.95153 0
M  V30 3494 H 331.992 -0.729575 -0.160405 0
M  V30 3495 H 334.654 -1.92606 0.298155 0
M  V30 3496 H 333.75 -3.02672 -0.761312 0
M  V30 3497 N 334.051 0.0651679 -1.57465 0
M  V30 3498 C 334.999 1.09542 -2.05191 0
M  V30 3499 C 335.993 1.39675 -0.958509 0
M  V30 3500 O 337.199 1.39003 -1.14359 0
M  V30 3501 H 333.574 0.370623 -0.654326 0
M  V30 3502 H 335.545 0.666802 -2.90854 0
M  V30 3503 C 334.294 2.39881 -2.51699 0
M  V30 3504 H 333.617 2.17547 -3.3543 0
M  V30 3505 H 335.057 3.104 -2.88839 0
M  V30 3506 C 333.516 3.0631 -1.40271 0
M  V30 3507 O 334.046 3.94664 -0.748523 0
M  V30 3508 N 332.252 2.67041 -1.14618 0
M  V30 3509 H 331.799 1.95281 -1.67997 0
M  V30 3510 H 331.757 3.1181 -0.402688 0
M  V30 3511 N 335.529 1.53961 0.336706 0
M  V30 3512 C 336.459 1.85417 1.41925 0
M  V30 3513 C 337.44 0.709856 1.5458 0
M  V30 3514 O 338.625 0.962396 1.68676 0
M  V30 3515 C 335.755 2.06985 2.78881 0
M  V30 3516 C 334.709 3.22813 2.81026 0
M  V30 3517 C 334.035 3.29727 4.20932 0
M  V30 3518 C 335.335 4.60767 2.45949 0
M  V30 3519 H 337.029 2.76079 1.15848 0
M  V30 3520 H 334.575 1.32839 0.555859 0
M  V30 3521 H 336.528 2.27575 3.54665 0
M  V30 3522 H 335.252 1.13061 3.06406 0
M  V30 3523 H 333.911 3.0209 2.07695 0
M  V30 3524 H 333.559 2.33385 4.45579 0
M  V30 3525 H 333.259 4.07566 4.23277 0
M  V30 3526 H 334.783 3.52536 4.98549 0
M  V30 3527 H 336.197 4.81325 3.11446 0
M  V30 3528 H 334.594 5.4106 2.59566 0
M  V30 3529 H 335.664 4.6391 1.41122 0
M  V30 3530 N 337.007 -0.598083 1.45811 0
M  V30 3531 C 338.254 -1.35681 1.50323 0
M  V30 3532 C 338.582 -1.9393 0.148739 0
M  V30 3533 O 337.837 -1.76094 -0.853787 0
M  V30 3534 C 338.136 -2.51669 2.53766 0
M  V30 3535 C 337.802 -2.11508 3.98215 0
M  V30 3536 C 336.464 -2.0027 4.37545 0
M  V30 3537 C 338.816 -1.80308 4.89018 0
M  V30 3538 C 336.144 -1.56067 5.65562 0
M  V30 3539 C 338.496 -1.37589 6.17456 0
M  V30 3540 C 337.16 -1.24916 6.55708 0
M  V30 3541 H 336.43 -0.496492 0.550069 0
M  V30 3542 H 339.077 -0.675052 1.79207 0
M  V30 3543 H 337.382 -3.25225 2.18486 0
M  V30 3544 H 339.079 -3.09895 2.54492 0
M  V30 3545 H 335.669 -2.21185 3.67117 0
M  V30 3546 H 339.853 -1.87884 4.59362 0
M  V30 3547 H 335.109 -1.44886 5.93985 0
M  V30 3548 H 339.283 -1.12495 6.87254 0
M  V30 3549 H 336.91 -0.904386 7.54801 0
M  V30 3550 N 338.485 -1.33259 -0.841409 0
M  V30 3551 C 339.732 -1.24572 -1.5965 0
M  V30 3552 C 340.06 0.189137 -1.93578 0
M  V30 3553 O 339.315 1.14566 -1.5866 0
M  V30 3554 C 339.614 -2.06381 -2.9179 0
M  V30 3555 C 339.28 -3.556 -2.77235 0
M  V30 3556 C 337.942 -3.96282 -2.72973 0
M  V30 3557 C 340.294 -4.50433 -2.62221 0
M  V30 3558 C 337.622 -5.30017 -2.51592 0
M  V30 3559 C 339.974 -5.84327 -2.42374 0
M  V30 3560 C 338.638 -6.24194 -2.36512 0
M  V30 3561 H 337.908 -0.455842 -0.5842 0
M  V30 3562 H 340.555 -1.6482 -0.975016 0
M  V30 3563 H 338.86 -1.58903 -3.5813 0
M  V30 3564 H 340.557 -1.97019 -3.49263 0
M  V30 3565 H 337.147 -3.23298 -2.81384 0
M  V30 3566 H 341.331 -4.19914 -2.64549 0
M  V30 3567 H 336.587 -5.59947 -2.45499 0
M  V30 3568 H 340.761 -6.57414 -2.29739 0
M  V30 3569 H 338.388 -7.27759 -2.19706 0
M  V30 3570 N 339.963 1.05934 -1.16686 0
M  V30 3571 C 340.926 2.11669 -0.879144 0
M  V30 3572 C 341.926 1.60294 0.127445 0
M  V30 3573 O 343.116 1.7389 -0.103865 0
M  V30 3574 C 340.248 3.39438 -0.315425 0
M  V30 3575 H 341.441 2.38626 -1.81653 0
M  V30 3576 H 338.994 1.22058 -0.976299 0
M  V30 3577 H 339.729 3.18132 0.629468 0
M  V30 3578 H 339.514 3.78034 -1.04079 0
M  V30 3579 H 341.004 4.17391 -0.132189 0
M  V30 3580 N 341.441 0.965919 1.2453 0
M  V30 3581 C 342.666 0.643971 1.97149 0
M  V30 3582 C 343.091 -0.779487 1.71189 0
M  V30 3583 O 342.449 -1.5288 0.974553 0
M  V30 3584 C 342.497 0.922557 3.48599 0
M  V30 3585 O 341.601 0.00707672 4.12399 0
M  V30 3586 H 340.942 0.243647 0.617683 0
M  V30 3587 H 343.472 1.29558 1.58353 0
M  V30 3588 H 343.482 0.853373 3.98976 0
M  V30 3589 H 342.157 1.95996 3.66822 0
M  V30 3590 H 340.734 0.12943 3.72675 0
M  V30 3591 N 342.919 -1.39368 0.735821 0
M  V30 3592 C 343.882 -2.2896 0.104874 0
M  V30 3593 C 344.882 -1.46347 -0.666274 0
M  V30 3594 O 346.072 -1.67014 -0.49517 0
M  V30 3595 C 343.204 -3.29857 -0.860656 0
M  V30 3596 H 344.397 -2.86259 0.894205 0
M  V30 3597 H 341.95 -1.48029 0.501704 0
M  V30 3598 H 342.685 -2.77615 -1.67631 0
M  V30 3599 H 342.47 -3.9087 -0.310327 0
M  V30 3600 H 343.96 -3.96893 -1.29867 0
M  V30 3601 N 344.397 -0.483516 -1.5 0
M  V30 3602 C 345.644 0.0671597 -2.02389 0
M  V30 3603 C 345.972 1.38597 -1.36459 0
M  V30 3604 O 345.227 1.89634 -0.483458 0
M  V30 3605 C 345.526 0.286226 -3.56252 0
M  V30 3606 C 345.192 -0.952416 -4.40726 0
M  V30 3607 C 343.854 -1.29199 -4.63531 0
M  V30 3608 C 346.206 -1.77655 -4.89988 0
M  V30 3609 C 343.534 -2.45553 -5.32842 0
M  V30 3610 C 345.886 -2.93147 -5.60578 0
M  V30 3611 C 344.55 -3.27505 -5.81633 0
M  V30 3612 H 343.82 0.0245755 -0.740592 0
M  V30 3613 H 346.467 -0.640124 -1.80485 0
M  V30 3614 H 344.772 1.07587 -3.76739 0
M  V30 3615 H 346.469 0.726473 -3.94365 0
M  V30 3616 H 343.059 -0.677881 -4.23205 0
M  V30 3617 H 347.243 -1.52737 -4.72213 0
M  V30 3618 H 342.499 -2.72431 -5.47349 0
M  V30 3619 H 346.673 -3.57344 -5.97727 0
M  V30 3620 H 344.3 -4.1777 -6.35116 0
M  V30 3621 N 345.875 1.56104 -0.216619 0
M  V30 3622 C 346.838 2.18819 0.681962 0
M  V30 3623 C 347.838 1.14866 1.12528 0
M  V30 3624 O 349.028 1.40128 1.03488 0
M  V30 3625 C 346.16 2.80756 1.93362 0
M  V30 3626 H 347.353 2.99595 0.135254 0
M  V30 3627 H 344.906 1.56265 0.0330003 0
M  V30 3628 H 345.641 2.03837 2.52232 0
M  V30 3629 H 345.426 3.56876 1.62426 0
M  V30 3630 H 346.916 3.28844 2.57393 0
M  V30 3631 N 347.353 -0.0568162 1.57498 0
M  V30 3632 C 348.6 -0.753104 1.87975 0
M  V30 3633 C 348.928 -1.76815 0.81035 0
M  V30 3634 O 348.183 -1.94756 -0.19199 0
M  V30 3635 C 348.482 -1.48359 3.25153 0
M  V30 3636 C 348.148 -0.60713 4.46794 0
M  V30 3637 C 346.81 -0.365642 4.79809 0
M  V30 3638 C 349.162 -0.000305978 5.212 0
M  V30 3639 C 346.49 0.491905 5.84634 0
M  V30 3640 C 348.842 0.844781 6.26934 0
M  V30 3641 C 347.506 1.096 6.58441 0
M  V30 3642 H 346.776 -0.27558 0.687849 0
M  V30 3643 H 349.423 -0.0135173 1.91495 0
M  V30 3644 H 347.728 -2.29577 3.17492 0
M  V30 3645 H 349.425 -2.02739 3.45974 0
M  V30 3646 H 346.015 -0.805487 4.20963 0
M  V30 3647 H 350.199 -0.173961 4.95995 0
M  V30 3648 H 345.455 0.695131 6.07436 0
M  V30 3649 H 349.629 1.32165 6.83744 0
M  V30 3650 H 347.256 1.76224 7.39492 0
M  V30 3651 N 348.832 -1.54138 -0.328536 0
M  V30 3652 C 349.762 -1.86167 -1.40939 0
M  V30 3653 C 350.743 -0.718044 -1.54202 0
M  V30 3654 O 351.928 -0.971328 -1.68163 0
M  V30 3655 C 349.058 -2.08461 -2.77779 0
M  V30 3656 C 348.012 -3.24299 -2.7931 0
M  V30 3657 C 347.338 -3.31955 -4.19178 0
M  V30 3658 C 348.638 -4.62065 -2.43502 0
M  V30 3659 H 350.332 -2.76689 -1.14383 0
M  V30 3660 H 347.878 -1.33132 -0.548806 0
M  V30 3661 H 349.831 -2.29453 -3.53454 0
M  V30 3662 H 348.555 -1.14684 -3.05802 0
M  V30 3663 H 347.214 -3.03187 -2.0609 0
M  V30 3664 H 346.862 -2.35745 -4.44335 0
M  V30 3665 H 346.562 -4.09805 -4.2111 0
M  V30 3666 H 348.086 -3.55175 -4.96672 0
M  V30 3667 H 349.5 -4.8297 -3.08889 0
M  V30 3668 H 347.897 -5.42429 -2.56693 0
M  V30 3669 H 348.967 -4.64652 -1.38659 0
M  V30 3670 N 350.31 0.590341 -1.46126 0
M  V30 3671 C 351.558 1.34616 -1.50742 0
M  V30 3672 C 351.879 1.94363 -0.157486 0
M  V30 3673 O 351.149 1.78136 0.815136 0
M  V30 3674 H 349.729 0.499789 -0.555175 0
M  V30 3675 H 352.391 0.691953 -1.82203 0
M  V30 3676 H 351.487 2.15678 -2.25587 0
M  V30 3677 N 351.788 1.33704 0.83433 0
M  V30 3678 C 352.718 1.26967 1.95963 0
M  V30 3679 C 353.699 0.149337 1.69443 0
M  V30 3680 O 354.884 0.339852 1.91203 0
M  V30 3681 C 352.014 1.01275 3.32206 0
M  V30 3682 C 350.968 2.09652 3.73136 0
M  V30 3683 C 350.294 1.69166 5.07235 0
M  V30 3684 C 351.594 3.51372 3.86439 0
M  V30 3685 H 353.288 2.2112 2.01857 0
M  V30 3686 H 350.834 1.06447 0.969793 0
M  V30 3687 H 352.787 0.952106 4.10503 0
M  V30 3688 H 351.511 0.0356203 3.26581 0
M  V30 3689 H 350.17 2.14766 2.97104 0
M  V30 3690 H 349.818 0.701437 4.98085 0
M  V30 3691 H 349.518 2.41694 5.35591 0
M  V30 3692 H 351.042 1.64576 5.88003 0
M  V30 3693 H 352.456 3.48734 4.55036 0
M  V30 3694 H 350.853 4.22425 4.26236 0
M  V30 3695 H 351.923 3.89546 2.88759 0
M  V30 3696 N 353.266 -1.05314 1.17247 0
M  V30 3697 C 354.196 -2.1498 0.911362 0
M  V30 3698 C 355.177 -1.69471 -0.146169 0
M  V30 3699 O 356.362 -1.942 0.003812 0
M  V30 3700 C 353.492 -3.4472 0.422528 0
M  V30 3701 C 352.446 -4.03789 1.4191 0
M  V30 3702 C 351.772 -5.28858 0.788274 0
M  V30 3703 C 353.072 -4.41418 2.7919 0
M  V30 3704 H 354.766 -2.3708 1.82848 0
M  V30 3705 H 352.312 -1.13938 0.880569 0
M  V30 3706 H 354.265 -4.20787 0.227289 0
M  V30 3707 H 352.989 -3.22269 -0.530123 0
M  V30 3708 H 351.648 -3.2979 1.60106 0
M  V30 3709 H 351.296 -5.02709 -0.171173 0
M  V30 3710 H 350.996 -5.69338 1.45353 0
M  V30 3711 H 352.52 -6.07612 0.603282 0
M  V30 3712 H 353.934 -5.08524 2.64719 0
M  V30 3713 H 352.331 -4.92913 3.42282 0
M  V30 3714 H 353.401 -3.51819 3.33693 0
M  V30 3715 N 354.744 -0.972509 -1.24016 0
M  V30 3716 C 355.707 -0.511403 -2.23422 0
M  V30 3717 C 356.707 0.394679 -1.55881 0
M  V30 3718 O 357.897 0.189469 -1.73167 0
M  V30 3719 C 355.029 0.258769 -3.39916 0
M  V30 3720 H 356.222 -1.39024 -2.6573 0
M  V30 3721 H 353.775 -0.757585 -1.36713 0
M  V30 3722 H 354.51 1.1545 -3.03054 0
M  V30 3723 H 354.295 -0.391522 -3.9014 0
M  V30 3724 H 355.785 0.570244 -4.13688 0
M  V30 3725 N 356.222 1.38976 -0.743202 0
M  V30 3726 C 357.152 2.33171 -0.123873 0
M  V30 3727 C 358.133 1.54336 0.71516 0
M  V30 3728 O 359.318 1.82696 0.658467 0
M  V30 3729 C 356.448 3.38474 0.777978 0
M  V30 3730 C 355.402 4.27979 0.0424758 0
M  V30 3731 C 354.728 5.2405 1.06189 0
M  V30 3732 C 356.028 5.10155 -1.1198 0
M  V30 3733 H 357.722 2.85213 -0.910709 0
M  V30 3734 H 355.268 1.37133 -0.439388 0
M  V30 3735 H 357.221 4.03328 1.22084 0
M  V30 3736 H 355.945 2.84891 1.59702 0
M  V30 3737 H 354.604 3.64616 -0.380853 0
M  V30 3738 H 354.252 4.66758 1.87472 0
M  V30 3739 H 353.952 5.84785 0.574485 0
M  V30 3740 H 355.476 5.9178 1.50428 0
M  V30 3741 H 356.89 5.68307 -0.75499 0
M  V30 3742 H 355.287 5.80073 -1.53738 0
M  V30 3743 H 356.357 4.44504 -1.93764 0
M  V30 3744 N 357.7 0.491464 1.49741 0
M  V30 3745 C 358.928 -0.0535151 2.06831 0
M  V30 3746 C 359.343 -1.31683 1.35296 0
M  V30 3747 O 358.7 -1.77402 0.42836 0
M  V30 3748 C 358.751 -0.320835 3.60073 0
M  V30 3749 O 358.472 0.892394 4.28915 0
M  V30 3750 C 359.973 -0.910519 4.33848 0
M  V30 3751 H 357.193 0.0161909 0.670805 0
M  V30 3752 H 359.737 0.68609 1.92647 0
M  V30 3753 H 357.892 -1.0104 3.73991 0
M  V30 3754 H 358.306 0.649401 5.20464 0
M  V30 3755 H 359.78 -1.04721 5.41976 0
M  V30 3756 H 360.257 -1.90589 3.95692 0
M  V30 3757 H 360.863 -0.258712 4.24512 0
M  V30 3758 N 359.178 -1.55987 0.224894 0
M  V30 3759 C 360.424 -1.98684 -0.406502 0
M  V30 3760 C 360.757 -1.11248 -1.59177 0
M  V30 3761 O 360.032 -0.170909 -1.93748 0
M  V30 3762 C 360.315 -3.50218 -0.837808 0
M  V30 3763 C 360.168 -4.48426 0.351332 0
M  V30 3764 C 361.487 -4.06243 -1.69278 0
M  V30 3765 H 358.606 -0.722337 -0.146283 0
M  V30 3766 H 361.248 -1.87255 0.321799 0
M  V30 3767 H 359.398 -3.60089 -1.45837 0
M  V30 3768 H 361.07 -4.50562 0.989526 0
M  V30 3769 H 359.313 -4.22159 0.998207 0
M  V30 3770 H 359.984 -5.52 0.00655905 0
M  V30 3771 H 362.46 -3.99337 -1.16914 0
M  V30 3772 H 361.336 -5.12581 -1.96346 0
M  V30 3773 H 361.597 -3.53332 -2.65723 0
M  V30 3774 N 360.656 0.0484629 -1.57525 0
M  V30 3775 C 361.884 0.755421 -1.92616 0
M  V30 3776 C 362.299 1.69919 -0.822984 0
M  V30 3777 O 361.656 1.81378 0.202085 0
M  V30 3778 C 361.707 1.52915 -3.27566 0
M  V30 3779 O 361.428 0.62329 -4.33644 0
M  V30 3780 C 362.929 2.33502 -3.76818 0
M  V30 3781 H 360.149 0.213465 -0.63614 0
M  V30 3782 H 362.693 0.0117698 -2.04497 0
M  V30 3783 H 360.848 2.22486 -3.17142 0
M  V30 3784 H 361.262 1.16383 -5.11425 0
M  V30 3785 H 362.736 2.83214 -4.73808 0
M  V30 3786 H 363.213 3.14068 -3.07014 0
M  V30 3787 H 363.819 1.69043 -3.90262 0
M  V30 3788 N 362.134 1.5431 0.320358 0
M  V30 3789 C 363.381 1.72668 1.05792 0
M  V30 3790 C 363.709 0.502084 1.87908 0
M  V30 3791 O 362.964 -0.516149 1.88771 0
M  V30 3792 C 363.263 2.95639 2.00828 0
M  V30 3793 C 362.929 4.30265 1.34843 0
M  V30 3794 C 361.591 4.66865 1.16578 0
M  V30 3795 C 363.943 5.13801 0.875095 0
M  V30 3796 C 361.271 5.84597 0.496336 0
M  V30 3797 C 363.623 6.32219 0.219463 0
M  V30 3798 C 362.287 6.67495 0.0246915 0
M  V30 3799 H 361.557 0.631837 0.387121 0
M  V30 3800 H 364.204 1.88552 0.334735 0
M  V30 3801 H 362.509 2.74456 2.79609 0
M  V30 3802 H 364.206 3.07038 2.57932 0
M  V30 3803 H 360.796 4.01472 1.50061 0
M  V30 3804 H 364.98 4.86039 1.00398 0
M  V30 3805 H 360.236 6.10486 0.334264 0
M  V30 3806 H 364.41 6.96227 -0.155291 0
M  V30 3807 H 362.037 7.5858 -0.496065 0
M  V30 3808 N 363.613 -0.582584 1.46437 0
M  V30 3809 C 364.838 -1.37168 1.55563 0
M  V30 3810 C 365.263 -1.87061 0.19743 0
M  V30 3811 O 364.621 -1.61572 -0.822451 0
M  V30 3812 C 364.669 -2.53511 2.56446 0
M  V30 3813 O 363.773 -3.54953 2.09958 0
M  V30 3814 H 363.114 -0.408494 0.523477 0
M  V30 3815 H 365.644 -0.706646 1.9201 0
M  V30 3816 H 365.654 -3.00426 2.76058 0
M  V30 3817 H 364.329 -2.16549 3.55076 0
M  V30 3818 H 362.906 -3.14516 2.00334 0
M  V30 3819 N 365.091 -1.34144 -0.827227 0
M  V30 3820 C 366.331 -1.27603 -1.59677 0
M  V30 3821 C 366.695 0.153035 -1.91389 0
M  V30 3822 O 367.896 0.342566 -2.66608 0
M  V30 3823 C 366.167 -2.13784 -2.86411 0
M  V30 3824 S 367.726 -2.24552 -3.76991 0
M  V30 3825 H 364.544 -0.453789 -0.547354 0
M  V30 3826 H 367.146 -1.69309 -0.977479 0
M  V30 3827 H 365.85 -3.16627 -2.61104 0
M  V30 3828 H 365.381 -1.72959 -3.5334 0
M  V30 3829 H 367.396 -1.41514 -4.75593 0
M  V30 3830 N 366.569 1.04691 -1.17803 0
M  V30 3831 C 367.517 2.14665 -0.895635 0
M  V30 3832 C 368.511 1.68806 0.141679 0
M  V30 3833 O 369.717 1.79999 -0.00587914 0
M  V30 3834 H 366.092 0.701038 -0.272121 0
M  V30 3835 H 368.063 2.35685 -1.83017 0
M  V30 3836 C 366.812 3.45019 -0.430962 0
M  V30 3837 H 366.135 3.8071 -1.22064 0
M  V30 3838 H 367.575 4.23125 -0.272301 0
M  V30 3839 C 366.034 3.25943 0.852207 0
M  V30 3840 O 366.564 3.5296 1.91786 0
M  V30 3841 N 364.77 2.79304 0.802346 0
M  V30 3842 H 364.317 2.57518 -0.0650788 0
M  V30 3843 H 364.275 2.66921 1.66134 0
M  V30 3844 N 368.047 0.979072 1.23499 0
M  V30 3845 C 368.977 0.537606 2.27227 0
M  V30 3846 C 369.958 -0.428539 1.64613 0
M  V30 3847 O 371.143 -0.322191 1.91509 0
M  V30 3848 C 368.273 -0.162052 3.46922 0
M  V30 3849 C 367.227 0.721242 4.21879 0
M  V30 3850 C 366.553 -0.110555 5.34586 0
M  V30 3851 C 367.853 2.01141 4.82016 0
M  V30 3852 H 369.547 1.40462 2.64406 0
M  V30 3853 H 367.093 0.67684 1.27102 0
M  V30 3854 H 369.046 -0.482192 4.18632 0
M  V30 3855 H 367.77 -1.06351 3.08799 0
M  V30 3856 H 366.429 1.02482 3.51984 0
M  V30 3857 H 366.077 -1.0125 4.92704 0
M  V30 3858 H 365.777 0.477325 5.85658 0
M  V30 3859 H 367.301 -0.425107 6.09118 0
M  V30 3860 H 368.715 1.75612 5.45741 0
M  V30 3861 H 367.112 2.54695 5.43369 0
M  V30 3862 H 368.182 2.69909 4.02836 0
M  V30 3863 N 369.525 -1.3858 0.750561 0
M  V30 3864 C 370.488 -2.28836 0.129152 0
M  V30 3865 C 371.488 -1.47045 -0.650714 0
M  V30 3866 O 372.678 -1.6753 -0.477428 0
M  V30 3867 C 369.81 -3.30751 -0.825622 0
M  V30 3868 H 371.003 -2.85294 0.924516 0
M  V30 3869 H 368.556 -1.47489 0.517376 0
M  V30 3870 H 369.291 -2.79378 -1.64677 0
M  V30 3871 H 369.076 -3.91177 -0.268852 0
M  V30 3872 H 370.566 -3.98249 -1.2565 0
M  V30 3873 N 371.003 -0.499398 -1.49478 0
M  V30 3874 C 372.231 0.0425456 -2.06856 0
M  V30 3875 C 372.646 1.30964 -1.35992 0
M  V30 3876 O 372.003 1.77172 -0.437762 0
M  V30 3877 C 372.054 0.301735 -3.60239 0
M  V30 3878 O 371.775 -0.915127 -4.28436 0
M  V30 3879 C 373.276 0.887499 -4.34325 0
M  V30 3880 H 370.496 -0.0197482 -0.670709 0
M  V30 3881 H 373.04 -0.696297 -1.92281 0
M  V30 3882 H 371.195 0.990556 -3.74522 0
M  V30 3883 H 371.609 -0.676993 -5.20113 0
M  V30 3884 H 373.083 1.01845 -5.42523 0
M  V30 3885 H 373.56 1.88488 -3.96698 0
M  V30 3886 H 374.166 0.236196 -4.24644 0
M  V30 3887 N 372.481 1.55866 -0.233164 0
M  V30 3888 C 373.73 1.97779 0.39579 0
M  V30 3889 C 374.043 1.12419 1.60066 0
M  V30 3890 O 375.249 1.44283 2.29988 0
M  V30 3891 C 373.705 3.5188 0.755556 0
M  V30 3892 C 373.313 4.45959 -0.427152 0
M  V30 3893 C 375.057 4.02479 1.34946 0
M  V30 3894 C 372.964 5.91383 -0.0443043 0
M  V30 3895 H 371.894 0.738592 0.15165 0
M  V30 3896 H 374.545 1.80486 -0.331212 0
M  V30 3897 H 372.927 3.64816 1.5403 0
M  V30 3898 H 374.101 4.44776 -1.20462 0
M  V30 3899 H 372.416 4.05765 -0.935068 0
M  V30 3900 H 375.013 5.08637 1.649 0
M  V30 3901 H 375.356 3.49014 2.26925 0
M  V30 3902 H 375.889 3.92813 0.62791 0
M  V30 3903 H 372.628 6.48857 -0.930874 0
M  V30 3904 H 372.148 5.95734 0.697238 0
M  V30 3905 H 373.827 6.45893 0.378334 0
M  V30 3906 N 373.959 -0.0401083 1.57549 0
M  V30 3907 C 374.906 -1.04413 2.05831 0
M  V30 3908 C 375.876 -1.36585 0.945184 0
M  V30 3909 O 377.061 -1.47112 1.21502 0
M  V30 3910 C 374.201 -2.34336 2.53339 0
M  V30 3911 C 373.314 -2.08419 3.78398 0
M  V30 3912 C 372.449 -3.32133 4.14561 0
M  V30 3913 C 371.488 -3.01721 5.3257 0
M  V30 3914 N 370.625 -4.17855 5.64218 0
M  V30 3915 H 375.465 -0.625442 2.91363 0
M  V30 3916 H 373.002 -0.297218 1.44066 0
M  V30 3917 H 374.96 -3.10234 2.78946 0
M  V30 3918 H 373.59 -2.73948 1.7074 0
M  V30 3919 H 372.642 -1.23069 3.59942 0
M  V30 3920 H 373.954 -1.81978 4.64419 0
M  V30 3921 H 373.108 -4.16406 4.41238 0
M  V30 3922 H 371.847 -3.61678 3.2717 0
M  V30 3923 H 370.852 -2.15849 5.05657 0
M  V30 3924 H 372.077 -2.73466 6.21605 0
M  V30 3925 H 370.023 -4.47372 4.79786 0
M  V30 3926 H 369.94 -3.94798 6.44725 0
M  V30 3927 H 371.208 -5.03033 5.95465 0
M  V30 3928 N 375.437 -1.54477 -0.31217 0
M  V30 3929 C 376.4 -1.83923 -1.36766 0
M  V30 3930 C 377.4 -0.711563 -1.44199 0
M  V30 3931 O 378.59 -0.979866 -1.44029 0
M  V30 3932 C 375.722 -2.0095 -2.75376 0
M  V30 3933 H 376.915 -2.78239 -1.11906 0
M  V30 3934 H 374.468 -1.46369 -0.548257 0
M  V30 3935 H 375.203 -1.08883 -3.05475 0
M  V30 3936 H 374.988 -2.83018 -2.71373 0
M  V30 3937 H 376.478 -2.2514 -3.51713 0
M  V30 3938 N 376.915 0.57481 -1.46744 0
M  V30 3939 C 377.845 1.69337 -1.60771 0
M  V30 3940 C 378.826 1.63825 -0.457736 0
M  V30 3941 O 380.011 1.8172 -0.684947 0
M  V30 3942 C 377.141 3.0798 -1.60517 0
M  V30 3943 C 376.095 3.28327 -2.74564 0
M  V30 3944 C 375.421 4.67578 -2.59373 0
M  V30 3945 C 376.721 3.15398 -4.16319 0
M  V30 3946 H 378.415 1.57853 -2.54407 0
M  V30 3947 H 375.961 0.75799 -1.22436 0
M  V30 3948 H 377.914 3.86061 -1.68923 0
M  V30 3949 H 376.638 3.20381 -0.634305 0
M  V30 3950 H 375.297 2.52649 -2.65639 0
M  V30 3951 H 374.945 4.76755 -1.60353 0
M  V30 3952 H 374.645 4.82144 -3.35873 0
M  V30 3953 H 376.169 5.47817 -2.69682 0
M  V30 3954 H 377.583 3.83315 -4.26313 0
M  V30 3955 H 375.98 3.41482 -4.93468 0
M  V30 3956 H 377.05 2.12372 -4.3592 0
M  V30 3957 N 378.394 1.34581 0.820102 0
M  V30 3958 C 379.64 1.27285 1.57881 0
M  V30 3959 C 379.973 -0.156137 1.93571 0
M  V30 3960 O 379.248 -1.10222 1.60254 0
M  V30 3961 C 379.531 2.16639 2.87645 0
M  V30 3962 C 379.384 3.68088 2.58517 0
M  V30 3963 C 380.703 2.05378 3.8924 0
M  V30 3964 H 377.822 0.463714 0.572833 0
M  V30 3965 H 380.464 1.64859 0.944539 0
M  V30 3966 H 378.614 1.84725 3.41773 0
M  V30 3967 H 380.286 4.10382 2.10676 0
M  V30 3968 H 378.529 3.89038 1.91917 0
M  V30 3969 H 379.2 4.2598 3.51063 0
M  V30 3970 H 381.676 2.33404 3.44473 0
M  V30 3971 H 380.552 2.7012 4.77835 0
M  V30 3972 H 380.813 1.0316 4.29896 0
M  V30 3973 N 379.872 -1.04064 1.18357 0
M  V30 3974 C 381.097 -1.81454 1.00445 0
M  V30 3975 C 381.522 -1.82823 -0.442423 0
M  V30 3976 O 380.88 -1.24555 -1.31741 0
M  V30 3977 C 380.928 -3.24925 1.56384 0
M  V30 3978 O 380.032 -4.04856 0.785209 0
M  V30 3979 H 379.373 -0.560604 0.355835 0
M  V30 3980 H 381.903 -1.31059 1.57114 0
M  V30 3981 H 381.913 -3.75702 1.59097 0
M  V30 3982 H 380.588 -3.23244 2.61699 0
M  V30 3983 H 379.165 -3.63537 0.830399 0
M  V30 3984 N 381.35 -0.985608 -1.22978 0
M  V30 3985 C 382.766 -0.695104 -1.43668 0
M  V30 3986 C 382.966 0.736866 -1.87543 0
M  V30 3987 O 382.022 1.50868 -2.02473 0
M  V30 3988 C 383.335 -1.69447 -2.48412 0
M  V30 3989 C 384.883 -1.70909 -2.62219 0
M  V30 3990 C 385.358 -2.6969 -3.70178 0
M  V30 3991 N 386.849 -2.6824 -3.77626 0
M  V30 3992 C 387.584 -3.41339 -4.60733 0
M  V30 3993 N 387.08 -4.24015 -5.4789 0
M  V30 3994 N 388.873 -3.30079 -4.54977 0
M  V30 3995 H 381.024 -1.91054 -0.928016 0
M  V30 3996 H 383.287 -0.823553 -0.469536 0
M  V30 3997 H 382.993 -2.7188 -2.23102 0
M  V30 3998 H 382.867 -1.48147 -3.46889 0
M  V30 3999 H 385.254 -0.691785 -2.86877 0
M  V30 4000 H 385.335 -1.96276 -1.6404 0
M  V30 4001 H 384.979 -3.71566 -3.46268 0
M  V30 4002 H 384.909 -2.41595 -4.67909 0
M  V30 4003 H 387.4 -2.08243 -3.15346 0
M  V30 4004 H 387.713 -4.76636 -6.08308 0
M  V30 4005 H 386.058 -4.28104 -5.47496 0
M  V30 4006 H 389.249 -2.64937 -3.85909 0
M  V30 4007 H 389.422 -3.87308 -5.19516 0
M  V30 4008 N 382.828 1.3818 -0.7579 0
M  V30 4009 C 384.068 2.01864 -0.320968 0
M  V30 4010 C 384.432 1.58863 1.07827 0
M  V30 4011 O 385.633 2.14908 1.61456 0
M  V30 4012 C 383.904 3.54626 -0.44446 0
M  V30 4013 S 385.463 4.38706 -0.0907467 0
M  V30 4014 H 382.281 0.700056 -0.124268 0
M  V30 4015 H 384.883 1.68611 -0.989468 0
M  V30 4016 H 383.587 3.83411 -1.4637 0
M  V30 4017 H 383.118 3.92661 0.241073 0
M  V30 4018 H 385.133 4.83435 1.11826 0
M  V30 4019 N 384.306 0.507319 1.49211 0
M  V30 4020 C 385.722 0.163682 1.58758 0
M  V30 4021 C 385.922 -1.33208 1.51188 0
M  V30 4022 O 384.978 -2.10855 1.38911 0
M  V30 4023 C 386.291 0.746095 2.91297 0
M  V30 4024 C 387.839 0.712773 3.04776 0
M  V30 4025 C 388.314 1.27336 4.39943 0
M  V30 4026 N 389.805 1.23433 4.46451 0
M  V30 4027 C 390.54 1.63821 5.495 0
M  V30 4028 N 390.036 2.11832 6.5962 0
M  V30 4029 N 391.829 1.55198 5.4025 0
M  V30 4030 H 383.98 1.47972 1.52375 0
M  V30 4031 H 386.243 0.614147 0.722168 0
M  V30 4032 H 385.949 1.79534 3.02424 0
M  V30 4033 H 385.823 0.210137 3.76614 0
M  V30 4034 H 388.21 -0.327656 2.93275 0
M  V30 4035 H 388.291 1.28595 2.21127 0
M  V30 4036 H 387.935 2.3126 4.52196 0
M  V30 4037 H 387.865 0.676066 5.22242 0
M  V30 4038 H 390.356 0.882627 3.67448 0
M  V30 4039 H 390.669 2.40703 7.34358 0
M  V30 4040 H 389.014 2.1581 6.60644 0
M  V30 4041 H 392.205 1.17505 4.53112 0
M  V30 4042 H 392.378 1.86997 6.20432 0
M  V30 4043 N 385.784 -1.5574 0.241426 0
M  V30 4044 C 386.747 -2.19877 -0.647063 0
M  V30 4045 C 387.747 -1.16642 -1.10686 0
M  V30 4046 O 388.937 -1.41757 -1.01245 0
M  V30 4047 C 386.069 -2.83797 -1.88871 0
M  V30 4048 H 387.262 -2.99772 -0.087574 0
M  V30 4049 H 384.815 -1.56298 -0.00813574 0
M  V30 4050 H 385.55 -2.07824 -2.48957 0
M  V30 4051 H 385.335 -3.59414 -1.56728 0
M  V30 4052 H 386.825 -3.32898 -2.52129 0
M  V30 4053 N 387.262 0.0317525 -1.57568 0
M  V30 4054 C 388.209 1.0332 -2.06382 0
M  V30 4055 C 389.179 1.36082 -0.952414 0
M  V30 4056 O 390.364 1.46466 -1.2228 0
M  V30 4057 C 387.504 2.32989 -2.54578 0
M  V30 4058 C 386.617 2.0641 -3.79498 0
M  V30 4059 C 385.752 3.2993 -4.16317 0
M  V30 4060 C 384.791 2.98893 -5.34162 0
M  V30 4061 N 383.928 4.14857 -5.66426 0
M  V30 4062 H 388.768 0.609982 -2.9169 0
M  V30 4063 H 386.305 0.289573 -1.44222 0
M  V30 4064 H 388.263 3.0875 -2.80587 0
M  V30 4065 H 386.893 2.73039 -1.7219 0
M  V30 4066 H 385.945 1.21158 -3.6059 0
M  V30 4067 H 387.257 1.79513 -4.65378 0
M  V30 4068 H 386.411 4.1406 -4.4344 0
M  V30 4069 H 385.15 3.59938 -3.29083 0
M  V30 4070 H 384.155 2.13164 -5.06795 0
M  V30 4071 H 385.38 2.70165 -6.23047 0
M  V30 4072 H 383.326 4.44821 -4.82151 0
M  V30 4073 H 383.243 3.91374 -6.4681 0
M  V30 4074 H 384.511 4.99868 -5.98124 0
M  V30 4075 N 388.74 1.54641 0.303973 0
M  V30 4076 C 389.703 1.84646 1.35789 0
M  V30 4077 C 390.703 0.7192 1.4382 0
M  V30 4078 O 391.893 0.987491 1.43507 0
M  V30 4079 C 389.025 2.02407 2.74307 0
M  V30 4080 H 390.218 2.78829 1.10429 0
M  V30 4081 H 387.771 1.46658 0.540487 0
M  V30 4082 H 388.506 1.10502 3.04893 0
M  V30 4083 H 388.291 2.84453 2.69868 0
M  V30 4084 H 389.781 2.27002 3.50514 0
M  V30 4085 N 390.218 -0.567019 1.47046 0
M  V30 4086 C 391.446 -1.35027 1.56765 0
M  V30 4087 C 391.861 -1.8758 0.214316 0
M  V30 4088 O 391.218 -1.64471 -0.790919 0
M  V30 4089 C 391.269 -2.52698 2.58507 0
M  V30 4090 O 390.99 -2.0232 3.88585 0
M  V30 4091 C 392.491 -3.45043 2.78316 0
M  V30 4092 H 389.711 -0.41195 0.529658 0
M  V30 4093 H 392.255 -0.687832 1.92585 0
M  V30 4094 H 390.41 -3.149 2.25648 0
M  V30 4095 H 390.824 -2.79068 4.44096 0
M  V30 4096 H 392.298 -4.2405 3.53391 0
M  V30 4097 H 392.775 -3.97971 1.85784 0
M  V30 4098 H 393.381 -2.88665 3.12334 0
M  V30 4099 N 391.696 -1.35014 -0.812953 0
M  V30 4100 C 392.659 -1.27292 -1.90602 0
M  V30 4101 C 393.659 -0.185817 -1.59723 0
M  V30 4102 O 394.849 -0.439102 -1.68575 0
M  V30 4103 C 391.981 -0.967676 -3.26877 0
M  V30 4104 H 393.174 -2.24479 -1.9887 0
M  V30 4105 H 390.727 -1.19446 -1.00808 0
M  V30 4106 H 391.462 0.0005954 -3.243 0
M  V30 4107 H 391.247 -1.75412 -3.50675 0
M  V30 4108 H 392.737 -0.939085 -4.06904 0
M  V30 4109 N 393.175 1.03435 -1.18907 0
M  V30 4110 C 394.4 1.80919 -1.01406 0
M  V30 4111 C 394.825 1.83055 0.432721 0
M  V30 4112 O 394.183 1.25252 1.31079 0
M  V30 4113 C 394.231 3.24091 -1.58105 0
M  V30 4114 O 393.335 4.04434 -0.806669 0
M  V30 4115 H 392.676 0.558709 -0.358803 0
M  V30 4116 H 395.206 1.30223 -1.57807 0
M  V30 4117 H 395.216 3.74853 -1.61087 0
M  V30 4118 H 393.891 3.21851 -2.6341 0
M  V30 4119 H 392.468 3.63091 -0.849666 0
M  V30 4120 N 394.653 0.992116 1.22453 0
M  V30 4121 C 395.585 0.500024 2.23679 0
M  V30 4122 C 396.598 -0.404463 1.57696 0
M  V30 4123 O 397.787 -0.206722 1.77299 0
M  V30 4124 C 394.887 -0.294711 3.37616 0
M  V30 4125 C 394.06 0.605723 4.33186 0
M  V30 4126 C 393.119 -0.13717 5.26021 0
M  V30 4127 O 392.145 0.477164 5.67196 0
M  V30 4128 N 393.347 -1.4197 5.62872 0
M  V30 4129 H 396.112 1.37045 2.66531 0
M  V30 4130 H 393.673 0.866741 1.36745 0
M  V30 4131 H 395.665 -0.800329 3.96707 0
M  V30 4132 H 394.235 -1.06623 2.93854 0
M  V30 4133 H 393.455 1.29202 3.72425 0
M  V30 4134 H 394.743 1.21896 4.93983 0
M  V30 4135 H 394.141 -1.94015 5.31389 0
M  V30 4136 H 392.698 -1.87052 6.24383 0
M  V30 4137 N 396.131 -1.37776 0.765217 0
M  V30 4138 C 397.356 -2.04651 0.336537 0
M  V30 4139 C 397.781 -1.57337 -1.03086 0
M  V30 4140 O 397.139 -0.730621 -1.65927 0
M  V30 4141 C 397.187 -3.58577 0.381468 0
M  V30 4142 O 396.291 -4.07706 -0.62042 0
M  V30 4143 H 395.632 -0.64756 0.146838 0
M  V30 4144 H 398.162 -1.76221 1.03959 0
M  V30 4145 H 398.172 -4.07314 0.236448 0
M  V30 4146 H 396.847 -3.9237 1.37907 0
M  V30 4147 H 395.424 -3.70306 -0.439056 0
M  V30 4148 N 397.609 -0.515225 -1.4894 0
M  V30 4149 C 398.834 0.022727 -2.07388 0
M  V30 4150 C 399.259 1.2876 -1.37122 0
M  V30 4151 O 398.617 1.76067 -0.432431 0
M  V30 4152 C 398.665 0.244869 -3.59768 0
M  V30 4153 O 397.769 1.31667 -3.90817 0
M  V30 4154 H 397.11 -0.0325506 -0.663202 0
M  V30 4155 H 399.64 -0.718918 -1.91553 0
M  V30 4156 H 399.65 0.47205 -4.0526 0
M  V30 4157 H 398.325 -0.679194 -4.10317 0
M  V30 4158 H 396.902 1.07331 -3.5712 0
M  V30 4159 N 399.087 1.5561 -0.249682 0
M  V30 4160 C 400.05 2.20217 0.635394 0
M  V30 4161 C 401.05 1.17227 1.10066 0
M  V30 4162 O 402.24 1.42292 1.00492 0
M  V30 4163 C 399.372 2.84794 1.87363 0
M  V30 4164 H 400.565 2.99814 0.0716752 0
M  V30 4165 H 398.118 1.563 -0.000153234 0
M  V30 4166 H 398.853 2.09142 2.47851 0
M  V30 4167 H 398.638 3.60241 1.5482 0
M  V30 4168 H 400.128 3.3423 2.5036 0
M  V30 4169 N 400.565 -0.0233959 1.57583 0
M  V30 4170 C 401.497 -1.04994 2.03737 0
M  V30 4171 C 402.51 -1.32125 0.951152 0
M  V30 4172 O 403.699 -1.29512 1.22837 0
M  V30 4173 C 400.799 -2.39026 2.40249 0
M  V30 4174 C 399.972 -2.31171 3.7132 0
M  V30 4175 C 399.031 -3.47698 3.94959 0
M  V30 4176 O 398.057 -3.26937 4.65941 0
M  V30 4177 N 399.259 -4.6976 3.41037 0
M  V30 4178 H 402.024 -0.656507 2.92421 0
M  V30 4179 H 399.585 -0.211235 1.60516 0
M  V30 4180 H 401.577 -3.15712 2.53196 0
M  V30 4181 H 400.147 -2.70194 1.57207 0
M  V30 4182 H 399.367 -1.39547 3.68674 0
M  V30 4183 H 400.655 -2.23071 4.57293 0
M  V30 4184 H 400.053 -4.89528 2.83512 0
M  V30 4185 H 398.61 -5.43791 3.59353 0
M  V30 4186 N 402.043 -1.548 -0.295768 0
M  V30 4187 C 403.289 -1.75517 -1.02789 0
M  V30 4188 C 403.644 -0.537266 -1.84746 0
M  V30 4189 O 402.937 0.470299 -1.85738 0
M  V30 4190 C 403.131 -2.98797 -1.961 0
M  V30 4191 C 402.96 -4.3246 -1.23321 0
M  V30 4192 C 401.73 -4.96131 -0.95822 0
M  V30 4193 C 403.928 -5.10365 -0.635024 0
M  V30 4194 N 401.91 -6.1357 -0.201257 0
M  V30 4195 C 403.281 -6.19999 -0.0110937 0
M  V30 4196 C 405.336 -4.94957 -0.540594 0
M  V30 4197 C 404.039 -7.15904 0.698136 0
M  V30 4198 C 406.065 -5.91197 0.154992 0
M  V30 4199 C 405.427 -7.00203 0.767752 0
M  V30 4200 H 401.526 -0.694786 -0.358882 0
M  V30 4201 H 404.11 -1.92281 -0.305943 0
M  V30 4202 H 402.281 -2.83448 -2.6554 0
M  V30 4203 H 404.013 -3.08017 -2.62502 0
M  V30 4204 H 400.768 -4.56595 -1.25771 0
M  V30 4205 H 401.192 -6.76802 0.16389 0
M  V30 4206 H 405.834 -4.10803 -1.00003 0
M  V30 4207 H 403.552 -7.99595 1.16933 0
M  V30 4208 H 407.138 -5.81353 0.228069 0
M  V30 4209 H 406.018 -7.73393 1.29743 0
M  V30 4210 N 403.521 0.559213 -1.47345 0
M  V30 4211 C 404.769 1.31388 -1.53563 0
M  V30 4212 C 405.09 1.93985 -0.198678 0
M  V30 4213 O 404.36 1.79825 0.777167 0
M  V30 4214 H 402.94 0.487901 -0.565652 0
M  V30 4215 H 405.602 0.65315 -1.8363 0
M  V30 4216 H 404.698 2.10844 -2.30111 0
M  V30 4217 N 404.999 1.35443 0.805782 0
M  V30 4218 C 406.415 1.15499 1.10146 0
M  V30 4219 C 406.615 -0.0319975 2.01475 0
M  V30 4220 O 405.671 -0.70236 2.42535 0
M  V30 4221 C 406.984 2.45833 1.73166 0
M  V30 4222 C 408.532 2.52047 1.85583 0
M  V30 4223 C 409.007 3.82427 2.52019 0
M  V30 4224 N 410.498 3.83682 2.59504 0
M  V30 4225 C 411.233 4.81294 3.11679 0
M  V30 4226 N 410.729 5.89294 3.64287 0
M  V30 4227 N 412.522 4.6873 3.1024 0
M  V30 4228 H 404.673 2.11469 0.198678 0
M  V30 4229 H 406.936 0.93594 0.150731 0
M  V30 4230 H 406.642 3.32874 1.13526 0
M  V30 4231 H 406.516 2.6044 2.72857 0
M  V30 4232 H 408.903 1.65435 2.44367 0
M  V30 4233 H 408.984 2.41354 0.847455 0
M  V30 4234 H 408.628 4.69437 1.93885 0
M  V30 4235 H 408.558 3.90409 3.53395 0
M  V30 4236 H 411.049 3.05648 2.22234 0
M  V30 4237 H 411.362 6.59768 4.02401 0
M  V30 4238 H 409.707 5.92985 3.62483 0
M  V30 4239 H 412.898 3.83496 2.68419 0
M  V30 4240 H 413.071 5.44965 3.50596 0
M  V30 4241 N 406.477 -1.02803 1.19454 0
M  V30 4242 C 407.726 -1.7562 0.991996 0
M  V30 4243 C 408.039 -1.89672 -0.477901 0
M  V30 4244 O 409.245 -2.59468 -0.799287 0
M  V30 4245 C 407.701 -3.15812 1.72601 0
M  V30 4246 C 407.309 -3.0981 3.23607 0
M  V30 4247 C 409.053 -3.92918 1.60674 0
M  V30 4248 C 406.96 -4.44939 3.89594 0
M  V30 4249 H 405.89 -0.658352 0.367543 0
M  V30 4250 H 408.541 -1.15044 1.42959 0
M  V30 4251 H 406.923 -3.7686 1.21624 0
M  V30 4252 H 408.097 -2.58138 3.81709 0
M  V30 4253 H 406.412 -2.46201 3.35819 0
M  V30 4254 H 409.009 -4.9287 2.07323 0
M  V30 4255 H 409.352 -4.12502 0.561025 0
M  V30 4256 H 409.885 -3.38472 2.09001 0
M  V30 4257 H 406.624 -4.30559 4.94267 0
M  V30 4258 H 406.144 -4.96664 3.36281 0
M  V30 4259 H 407.823 -5.1382 3.93189 0
M  V30 4260 N 407.956 -0.998596 -1.21925 0
M  V30 4261 C 409.184 -0.696286 -1.94832 0
M  V30 4262 C 409.599 0.740032 -1.73692 0
M  V30 4263 O 408.956 1.5 -1.03953 0
M  V30 4264 C 409.007 -0.999833 -3.47398 0
M  V30 4265 O 408.728 -2.37972 -3.67833 0
M  V30 4266 C 410.229 -0.716025 -4.37479 0
M  V30 4267 H 407.449 -0.257111 -0.619786 0
M  V30 4268 H 409.993 -1.33491 -1.54921 0
M  V30 4269 H 408.148 -0.406918 -3.85257 0
M  V30 4270 H 408.562 -2.48338 -4.61983 0
M  V30 4271 H 410.036 -0.978642 -5.43256 0
M  V30 4272 H 410.513 0.349968 -4.37803 0
M  V30 4273 H 411.119 -1.29025 -4.05256 0
M  V30 4274 N 409.434 1.37368 -0.772513 0
M  V30 4275 C 410.662 2.03942 -0.348588 0
M  V30 4276 C 411.077 1.58264 1.02947 0
M  V30 4277 O 410.434 0.764246 1.65727 0
M  V30 4278 C 410.485 3.5946 -0.38351 0
M  V30 4279 O 410.206 4.03468 -1.70721 0
M  V30 4280 C 411.707 4.4327 0.0519152 0
M  V30 4281 H 408.927 0.654931 -0.145966 0
M  V30 4282 H 411.471 1.75686 -1.04665 0
M  V30 4283 H 409.626 3.86486 0.265978 0
M  V30 4284 H 410.04 4.97991 -1.64636 0
M  V30 4285 H 411.514 5.51995 -0.0236733 0
M  V30 4286 H 411.991 4.2514 1.10238 0
M  V30 4287 H 412.597 4.21471 -0.569415 0
M  V30 4288 N 410.912 0.523116 1.48665 0
M  V30 4289 C 411.822 -0.247406 2.33292 0
M  V30 4290 C 412.838 -0.945769 1.46052 0
M  V30 4291 O 414.014 -0.922253 1.79043 0
M  V30 4292 C 411.079 -1.28487 3.22012 0
M  V30 4293 C 410.14 -0.597592 4.2512 0
M  V30 4294 C 409.373 -1.58563 5.09601 0
M  V30 4295 O 409.596 -2.81763 4.95949 0
M  V30 4296 O 408.53 -1.12879 5.91221 0
M  V30 4297 H 412.356 0.445869 3.00409 0
M  V30 4298 H 409.941 0.284128 1.46673 0
M  V30 4299 H 411.823 -1.88459 3.7691 0
M  V30 4300 H 410.498 -1.96068 2.57564 0
M  V30 4301 H 409.405 0.0424407 3.74076 0
M  V30 4302 H 410.738 0.0361517 4.92187 0
M  V30 4303 N 412.39 -1.55475 0.257931 0
M  V30 4304 C 413.618 -2.03609 -0.367559 0
M  V30 4305 C 414.033 -1.13687 -1.50734 0
M  V30 4306 O 413.39 -0.153479 -1.81853 0
M  V30 4307 C 413.441 -3.51001 -0.864908 0
M  V30 4308 O 413.162 -4.37499 0.229465 0
M  V30 4309 C 414.663 -4.14946 -1.55997 0
M  V30 4310 H 411.883 -0.665459 -0.0860521 0
M  V30 4311 H 414.427 -2.00843 0.385014 0
M  V30 4312 H 412.582 -3.54266 -1.56762 0
M  V30 4313 H 412.996 -5.24286 -0.14998 0
M  V30 4314 H 414.47 -5.19735 -1.85956 0
M  V30 4315 H 414.947 -3.6209 -2.4857 0
M  V30 4316 H 415.553 -4.15635 -0.901543 0
M  V30 4317 N 413.868 0.0150385 -1.57593 0
M  V30 4318 C 414.831 0.995996 -2.06428 0
M  V30 4319 C 415.831 1.2818 -0.970903 0
M  V30 4320 O 417.021 1.22949 -1.23406 0
M  V30 4321 C 414.153 2.32506 -2.49307 0
M  V30 4322 H 415.346 0.573873 -2.94358 0
M  V30 4323 H 412.899 0.262186 -1.54085 0
M  V30 4324 H 413.634 2.79438 -1.64575 0
M  V30 4325 H 413.419 2.13087 -3.29145 0
M  V30 4326 H 414.909 3.02906 -2.87468 0
M  V30 4327 N 415.346 1.54954 0.287554 0
M  V30 4328 C 416.595 1.74081 1.01877 0
M  V30 4329 C 416.908 0.541135 1.87966 0
M  V30 4330 O 418.114 0.614491 2.64455 0
M  V30 4331 C 416.57 3.08042 1.86113 0
M  V30 4332 C 416.178 4.35531 1.04961 0
M  V30 4333 C 417.922 3.36523 2.58752 0
M  V30 4334 C 415.829 5.60538 1.88551 0
M  V30 4335 H 414.759 0.64884 0.384087 0
M  V30 4336 H 417.41 1.81426 0.275101 0
M  V30 4337 H 415.792 2.94696 2.64519 0
M  V30 4338 H 416.966 4.59751 0.31074 0
M  V30 4339 H 415.281 4.14085 0.43843 0
M  V30 4340 H 417.878 4.27122 3.21668 0
M  V30 4341 H 418.221 2.56 3.28283 0
M  V30 4342 H 418.754 3.50901 1.87386 0
M  V30 4343 H 415.493 6.43767 1.23466 0
M  V30 4344 H 415.013 5.40483 2.60074 0
M  V30 4345 H 416.692 5.98297 2.46273 0
M  V30 4346 N 416.824 -0.551391 1.4764 0
M  V30 4347 C 417.756 -1.67333 1.56628 0
M  V30 4348 C 418.769 -1.56398 0.452045 0
M  V30 4349 O 419.958 -1.6325 0.721926 0
M  V30 4350 C 417.058 -3.05841 1.45994 0
M  V30 4351 C 416.231 -3.42472 2.72088 0
M  V30 4352 C 415.29 -4.60168 2.55209 0
M  V30 4353 O 414.316 -4.64458 3.2904 0
M  V30 4354 N 415.518 -5.57024 1.63416 0
M  V30 4355 H 418.283 -1.60066 2.53375 0
M  V30 4356 H 415.844 -0.738169 1.44093 0
M  V30 4357 H 417.836 -3.8242 1.32428 0
M  V30 4358 H 416.406 -3.07302 0.573071 0
M  V30 4359 H 415.626 -2.55284 3.00373 0
M  V30 4360 H 416.914 -3.63723 3.55785 0
M  V30 4361 H 416.312 -5.56319 1.02594 0
M  V30 4362 H 414.869 -6.32906 1.558 0
M  V30 4363 N 418.302 -1.35869 -0.798587 0
M  V30 4364 C 419.232 -1.32118 -1.92528 0
M  V30 4365 C 420.213 -0.194209 -1.68988 0
M  V30 4366 O 421.398 -0.390426 -1.90235 0
M  V30 4367 C 418.528 -1.10047 -3.29404 0
M  V30 4368 C 417.482 -2.19471 -3.67446 0
M  V30 4369 C 416.808 -1.82555 -5.02571 0
M  V30 4370 C 418.108 -3.61495 -3.76987 0
M  V30 4371 H 419.802 -2.26394 -1.95924 0
M  V30 4372 H 417.348 -1.08981 -0.94123 0
M  V30 4373 H 419.301 -1.06061 -4.07835 0
M  V30 4374 H 418.025 -0.122195 -3.26371 0
M  V30 4375 H 416.684 -2.22568 -2.91306 0
M  V30 4376 H 416.332 -0.833249 -4.9605 0
M  V30 4377 H 416.032 -2.5581 -5.28995 0
M  V30 4378 H 417.556 -1.80108 -5.83432 0
M  V30 4379 H 418.97 -3.60676 -4.4563 0
M  V30 4380 H 417.367 -4.33577 -4.14887 0
M  V30 4381 H 418.437 -3.97065 -2.78329 0
M  V30 4382 N 419.78 1.02168 -1.19998 0
M  V30 4383 C 420.713 2.10232 -0.887558 0
M  V30 4384 C 421.691 1.61827 0.158317 0
M  V30 4385 O 422.875 1.88471 0.0330249 0
M  V30 4386 C 420.002 3.37092 -0.32964 0
M  V30 4387 C 419.048 4.0438 -1.3557 0
M  V30 4388 S 419.881 4.48956 -2.91888 0
M  V30 4389 C 421.037 5.79024 -2.37658 0
M  V30 4390 H 421.27 2.36409 -1.80272 0
M  V30 4391 H 418.803 1.15211 -1.0279 0
M  V30 4392 H 420.761 4.10498 -0.0142824 0
M  V30 4393 H 419.422 3.08996 0.563941 0
M  V30 4394 H 418.615 4.95632 -0.9146 0
M  V30 4395 H 418.217 3.37176 -1.61828 0
M  V30 4396 H 420.509 6.53942 -1.77103 0
M  V30 4397 H 421.452 6.27924 -3.27287 0
M  V30 4398 H 421.86 5.35043 -1.79971 0
M  V30 4399 N 421.258 1.00505 1.21394 0
M  V30 4400 C 422.506 0.686415 1.90086 0
M  V30 4401 C 422.827 -0.785264 1.7849 0
M  V30 4402 O 422.097 -1.56387 1.17983 0
M  V30 4403 H 420.677 0.2509 0.703604 0
M  V30 4404 H 423.339 1.27417 1.47482 0
M  V30 4405 H 422.435 0.959621 2.96981 0
M  V30 4406 N 422.737 -1.36956 0.779787 0
M  V30 4407 C 423.986 -1.98738 0.344405 0
M  V30 4408 C 424.299 -1.62596 -1.08728 0
M  V30 4409 O 425.505 -2.1754 -1.62445 0
M  V30 4410 C 423.961 -3.5544 0.564829 0
M  V30 4411 C 423.569 -4.00514 2.0073 0
M  V30 4412 C 425.313 -4.24059 0.193471 0
M  V30 4413 C 423.22 -5.49957 2.17489 0
M  V30 4414 H 422.15 -0.743561 0.12503 0
M  V30 4415 H 424.801 -1.56381 0.960057 0
M  V30 4416 H 423.183 -3.95817 -0.120397 0
M  V30 4417 H 424.357 -3.71362 2.72814 0
M  V30 4418 H 422.672 -3.44703 2.336 0
M  V30 4419 H 425.269 -5.33874 0.297097 0
M  V30 4420 H 425.612 -4.07378 -0.857263 0
M  V30 4421 H 426.145 -3.89012 0.831556 0
M  V30 4422 H 422.884 -5.71574 3.2091 0
M  V30 4423 H 422.404 -5.80767 1.49899 0
M  V30 4424 H 424.083 -6.16043 1.97738 0
M  V30 4425 N 424.215 -0.530993 -1.48385 0
M  V30 4426 C 425.148 0.278511 -2.26494 0
M  V30 4427 C 426.126 0.943905 -1.32398 0
M  V30 4428 O 427.31 0.968098 -1.61741 0
M  V30 4429 C 424.437 1.39453 -3.08659 0
M  V30 4430 C 423.483 0.840434 -4.18137 0
M  V30 4431 S 424.316 -0.292496 -5.34701 0
M  V30 4432 C 425.472 0.825973 -6.20426 0
M  V30 4433 H 425.705 -0.384365 -2.94805 0
M  V30 4434 H 423.238 -0.316799 -1.51115 0
M  V30 4435 H 425.196 2.03382 -3.56575 0
M  V30 4436 H 423.857 2.02913 -2.3976 0
M  V30 4437 H 423.05 1.67769 -4.75257 0
M  V30 4438 H 422.652 0.277819 -3.72967 0
M  V30 4439 H 424.944 1.72438 -6.55188 0
M  V30 4440 H 425.887 0.292728 -7.07495 0
M  V30 4441 H 426.295 1.10683 -5.53543 0
M  V30 4442 N 425.693 1.55336 -0.266172 0
M  V30 4443 C 426.933 2.01303 0.354459 0
M  V30 4444 C 427.297 1.15046 1.53715 0
M  V30 4445 O 428.498 1.50554 2.22681 0
M  V30 4446 C 426.769 3.49748 0.735579 0
M  V30 4447 S 428.328 4.1771 1.34401 0
M  V30 4448 H 425.146 0.702333 0.110674 0
M  V30 4449 H 427.748 1.91653 -0.385916 0
M  V30 4450 H 426.452 4.10181 -0.134196 0
M  V30 4451 H 425.983 3.63364 1.50764 0
M  V30 4452 H 427.998 4.20594 2.63278 0
M  V30 4453 N 427.171 -0.0066808 1.57599 0
M  V30 4454 C 428.417 -0.693947 1.90558 0
M  V30 4455 C 428.75 -1.73792 0.866594 0
M  V30 4456 O 428.025 -1.94156 -0.115548 0
M  V30 4457 C 428.308 -1.34317 3.34112 0
M  V30 4458 C 428.161 -0.311189 4.48722 0
M  V30 4459 C 429.48 -2.27116 3.7697 0
M  V30 4460 H 426.599 -0.250803 0.693013 0
M  V30 4461 H 429.241 0.043242 1.89951 0
M  V30 4462 H 427.391 -1.9715 3.3476 0
M  V30 4463 H 429.063 0.316944 4.6021 0
M  V30 4464 H 427.306 0.367253 4.32243 0
M  V30 4465 H 427.977 -0.804366 5.46108 0
M  V30 4466 H 430.453 -1.74306 3.77831 0
M  V30 4467 H 429.329 -2.69511 4.78179 0
M  V30 4468 H 429.59 -3.14743 3.10466 0
M  V30 4469 N 428.649 -1.55105 -0.279332 0
M  V30 4470 C 429.579 -1.90557 -1.34945 0
M  V30 4471 C 430.56 -0.766738 -1.51839 0
M  V30 4472 O 431.745 -1.02434 -1.64988 0
M  V30 4473 C 428.875 -2.17193 -2.71006 0
M  V30 4474 C 427.829 -3.33021 -2.68851 0
M  V30 4475 C 427.155 -3.45123 -4.08405 0
M  V30 4476 C 428.455 -4.69578 -2.28678 0
M  V30 4477 H 430.149 -2.80188 -1.05522 0
M  V30 4478 H 427.695 -1.34811 -0.506173 0
M  V30 4479 H 429.648 -2.40581 -3.45975 0
M  V30 4480 H 428.372 -1.24355 -3.01999 0
M  V30 4481 H 427.031 -3.0959 -1.9634 0
M  V30 4482 H 426.679 -2.49762 -4.3661 0
M  V30 4483 H 426.379 -4.22995 -4.07859 0
M  V30 4484 H 427.903 -3.70796 -4.85121 0
M  V30 4485 H 429.317 -4.92553 -2.93368 0
M  V30 4486 H 427.714 -5.5032 -2.39306 0
M  V30 4487 H 428.784 -4.68828 -1.23807 0
M  V30 4488 N 430.127 0.543554 -1.4793 0
M  V30 4489 C 431.352 1.32995 -1.59145 0
M  V30 4490 C 431.777 1.86472 -0.246956 0
M  V30 4491 O 431.135 1.63696 0.779324 0
M  V30 4492 C 431.183 2.46623 -2.63077 0
M  V30 4493 O 430.287 3.49261 -2.19295 0
M  V30 4494 H 429.628 0.394472 -0.534124 0
M  V30 4495 H 432.158 0.655489 -1.93816 0
M  V30 4496 H 432.168 2.93001 -2.83926 0
M  V30 4497 H 430.843 2.07059 -3.60693 0
M  V30 4498 H 429.42 3.09094 -2.08603 0
M  V30 4499 N 431.605 1.3629 0.791371 0
M  V30 4500 C 432.851 1.30605 1.55146 0
M  V30 4501 C 433.184 -0.115042 1.93859 0
M  V30 4502 O 432.459 -1.06798 1.62556 0
M  V30 4503 C 432.742 2.22692 2.82985 0
M  V30 4504 C 432.595 3.73489 2.50651 0
M  V30 4505 C 433.914 2.13588 3.84796 0
M  V30 4506 H 431.033 0.475761 0.562868 0
M  V30 4507 H 433.675 1.66825 0.909358 0
M  V30 4508 H 431.825 1.91933 3.37778 0
M  V30 4509 H 433.497 4.14758 2.01924 0
M  V30 4510 H 431.74 3.93021 1.83622 0
M  V30 4511 H 432.411 4.3333 3.41949 0
M  V30 4512 H 434.887 2.40659 3.39445 0
M  V30 4513 H 433.763 2.80195 4.71998 0
M  V30 4514 H 434.024 1.12256 4.27611 0
M  V30 4515 N 433.083 -1.0153 1.20538 0
M  V30 4516 C 434.323 -1.76689 1.02763 0
M  V30 4517 C 434.687 -1.87065 -0.432513 0
M  V30 4518 O 435.888 -2.58684 -0.730481 0
M  V30 4519 C 434.159 -3.14707 1.69393 0
M  V30 4520 S 435.718 -4.05886 1.66738 0
M  V30 4521 H 432.536 -0.608076 0.368463 0
M  V30 4522 H 435.138 -1.21558 1.53114 0
M  V30 4523 H 433.842 -3.04782 2.74838 0
M  V30 4524 H 433.373 -3.74913 1.19179 0
M  V30 4525 H 435.388 -4.91221 0.70117 0
M  V30 4526 N 434.561 -1.01147 -1.20859 0
M  V30 4527 C 435.807 -0.708598 -1.90658 0
M  V30 4528 C 436.162 0.753069 -1.7705 0
M  V30 4529 O 435.455 1.53952 -1.14059 0
M  V30 4530 C 435.649 -1.0727 -3.40922 0
M  V30 4531 C 435.478 -2.56821 -3.69152 0
M  V30 4532 C 434.248 -3.23524 -3.8815 0
M  V30 4533 C 436.446 -3.54997 -3.72131 0
M  V30 4534 N 434.428 -4.62359 -4.03853 0
M  V30 4535 C 435.799 -4.79371 -3.93196 0
M  V30 4536 C 437.854 -3.49042 -3.55069 0
M  V30 4537 C 436.557 -5.98512 -3.98969 0
M  V30 4538 C 438.583 -4.67579 -3.6211 0
M  V30 4539 C 437.945 -5.9076 -3.83643 0
M  V30 4540 H 434.044 -0.31088 -0.71755 0
M  V30 4541 H 436.628 -1.29526 -1.45366 0
M  V30 4542 H 434.799 -0.51443 -3.84978 0
M  V30 4543 H 436.531 -0.723891 -3.98173 0
M  V30 4544 H 433.286 -2.73958 -3.86321 0
M  V30 4545 H 433.71 -5.34427 -4.15592 0
M  V30 4546 H 438.352 -2.54808 -3.37391 0
M  V30 4547 H 436.07 -6.93132 -4.15444 0
M  V30 4548 H 439.656 -4.64581 -3.50222 0
M  V30 4549 H 438.536 -6.8095 -3.88944 0
M  V30 4550 N 436.039 1.36541 -0.78704 0
M  V30 4551 C 437.264 2.0409 -0.369053 0
M  V30 4552 C 437.689 1.58957 1.00569 0
M  V30 4553 O 437.047 0.756926 1.64743 0
M  V30 4554 C 437.095 3.57924 -0.438466 0
M  V30 4555 O 436.199 4.08642 0.555479 0
M  V30 4556 H 435.54 0.645142 -0.157122 0
M  V30 4557 H 438.07 1.74545 -1.06749 0
M  V30 4558 H 438.08 4.06887 -0.301218 0
M  V30 4559 H 436.755 3.90127 -1.44132 0
M  V30 4560 H 435.332 3.70958 0.380088 0
M  V30 4561 N 437.518 0.538854 1.48102 0
M  V30 4562 C 438.929 0.100679 1.86428 0
M  V30 4563 C 439.28 -1.32447 1.44749 0
M  V30 4564 O 438.405 -1.99339 0.842199 0
M  V30 4565 C 439 0.175933 3.38343 0
M  V30 4566 C 437.559 -0.207098 3.7583 0
M  V30 4567 C 436.706 0.531741 2.72154 0
M  V30 4568 H 439.657 0.749614 1.3988 0
M  V30 4569 H 439.678 -0.610144 3.75576 0
M  V30 4570 H 439.19 1.21328 3.68648 0
M  V30 4571 H 437.291 -1.24626 3.5114 0
M  V30 4572 H 437.404 0.138687 4.78899 0
M  V30 4573 H 435.768 -0.0230462 2.5469 0
M  V30 4574 H 436.551 1.56989 3.05302 0
M  V30 4575 N 438.996 -1.55193 0.274407 0
M  V30 4576 C 439.926 -2.25471 -0.607032 0
M  V30 4577 C 440.907 -1.24461 -1.15946 0
M  V30 4578 O 442.092 -1.53179 -1.19373 0
M  V30 4579 C 439.222 -2.97526 -1.79153 0
M  V30 4580 C 438.176 -4.05459 -1.37067 0
M  V30 4581 C 437.502 -4.65084 -2.6382 0
M  V30 4582 C 438.802 -5.19691 -0.521389 0
M  V30 4583 H 440.496 -2.99393 -0.0209343 0
M  V30 4584 H 438.042 -1.43997 -0.00862866 0
M  V30 4585 H 439.995 -3.45402 -2.41404 0
M  V30 4586 H 438.719 -2.21138 -2.40344 0
M  V30 4587 H 437.378 -3.58393 -0.771355 0
M  V30 4588 H 437.026 -3.85365 -3.23268 0
M  V30 4589 H 436.726 -5.37961 -2.36372 0
M  V30 4590 H 438.25 -5.15708 -3.26921 0
M  V30 4591 H 439.664 -5.63623 -1.04889 0
M  V30 4592 H 438.061 -5.99126 -0.341825 0
M  V30 4593 H 439.131 -4.82713 0.46 0
M  V30 4594 N 440.474 -0.00167713 -1.576 0
M  V30 4595 C 441.404 0.988091 -2.11563 0
M  V30 4596 C 442.385 1.35736 -1.02517 0
M  V30 4597 O 443.57 1.44082 -1.30208 0
M  V30 4598 C 440.7 2.27941 -2.62031 0
M  V30 4599 C 439.654 2.0517 -3.75619 0
M  V30 4600 C 438.98 3.4033 -4.12407 0
M  V30 4601 C 440.28 1.41294 -5.02825 0
M  V30 4602 H 441.974 0.538771 -2.94513 0
M  V30 4603 H 439.52 0.257712 -1.41675 0
M  V30 4604 H 441.473 2.97539 -2.9841 0
M  V30 4605 H 440.197 2.74989 -1.76205 0
M  V30 4606 H 438.856 1.37998 -3.39635 0
M  V30 4607 H 438.504 3.85085 -3.23603 0
M  V30 4608 H 438.204 3.25909 -4.88935 0
M  V30 4609 H 439.728 4.1124 -4.51347 0
M  V30 4610 H 441.142 2.00851 -5.36965 0
M  V30 4611 H 439.539 1.37356 -5.84169 0
M  V30 4612 H 440.609 0.382362 -4.8339 0
M  V30 4613 N 441.952 1.55251 0.271103 0
M  V30 4614 C 443.201 1.75151 1.00025 0
M  V30 4615 C 443.514 0.561041 1.87381 0
M  V30 4616 O 444.72 0.642506 2.63788 0
M  V30 4617 C 443.176 3.09999 1.82835 0
M  V30 4618 C 442.784 4.3662 1.00336 0
M  V30 4619 C 444.528 3.39249 2.55168 0
M  V30 4620 C 442.435 5.62506 1.82595 0
M  V30 4621 H 441.365 0.652877 0.377183 0
M  V30 4622 H 444.016 1.81708 0.255843 0
M  V30 4623 H 442.398 2.97485 2.61378 0
M  V30 4624 H 443.572 4.60055 0.261959 0
M  V30 4625 H 441.887 4.14527 0.394486 0
M  V30 4626 H 444.484 4.3051 3.1712 0
M  V30 4627 H 444.827 2.59467 3.2555 0
M  V30 4628 H 445.36 3.52869 1.83653 0
M  V30 4629 H 442.099 6.45041 1.16631 0
M  V30 4630 H 441.619 5.43211 2.54327 0
M  V30 4631 H 443.298 6.00875 2.39913 0
M  V30 4632 N 443.43 -0.535701 1.48216 0
M  V30 4633 C 444.363 -1.65726 1.56876 0
M  V30 4634 C 445.341 -1.57094 0.419542 0
M  V30 4635 O 446.525 -1.77648 0.630352 0
M  V30 4636 C 443.652 -3.04096 1.49142 0
M  V30 4637 C 442.698 -3.31105 2.68834 0
M  V30 4638 S 443.531 -3.18001 4.30854 0
M  V30 4639 C 444.687 -4.58828 4.25709 0
M  V30 4640 H 444.92 -1.58129 2.51759 0
M  V30 4641 H 442.453 -0.718218 1.36678 0
M  V30 4642 H 444.411 -3.839 1.45366 0
M  V30 4643 H 443.072 -3.09139 0.556067 0
M  V30 4644 H 442.265 -4.32033 2.59545 0
M  V30 4645 H 441.867 -2.58961 2.69843 0
M  V30 4646 H 444.159 -5.5023 3.95289 0
M  V30 4647 H 445.102 -4.73172 5.26796 0
M  V30 4648 H 445.51 -4.37883 3.56257 0
M  V30 4649 N 444.908 -1.36708 -0.784132 0
M  V30 4650 C 445.841 -1.25827 -1.90375 0
M  V30 4651 C 446.819 -0.141331 -1.61985 0
M  V30 4652 O 448.003 -0.313389 -1.85877 0
M  V30 4653 C 445.13 -0.942621 -3.25319 0
M  V30 4654 C 444.176 -2.07474 -3.72635 0
M  V30 4655 S 445.009 -3.69317 -3.8777 0
M  V30 4656 C 446.165 -3.39876 -5.25581 0
M  V30 4657 H 446.398 -2.20593 -1.99314 0
M  V30 4658 H 443.931 -1.22186 -0.943926 0
M  V30 4659 H 445.889 -0.767321 -4.03265 0
M  V30 4660 H 444.55 -0.0126566 -3.14097 0
M  V30 4661 H 443.743 -1.80858 -4.70432 0
M  V30 4662 H 443.345 -2.20953 -3.01754 0
M  V30 4663 H 445.637 -2.94097 -6.10339 0
M  V30 4664 H 446.58 -4.36956 -5.57203 0
M  V30 4665 H 446.988 -2.75098 -4.92931 0
M  V30 4666 N 446.386 1.0089 -1.21074 0
M  V30 4667 C 447.316 2.1145 -0.990523 0
M  V30 4668 C 448.297 1.69897 0.0831699 0
M  V30 4669 O 449.482 1.94052 -0.0758853 0
M  V30 4670 C 446.612 3.42914 -0.550177 0
M  V30 4671 C 445.566 3.98244 -1.56799 0
M  V30 4672 C 444.892 5.25568 -0.984013 0
M  V30 4673 C 446.192 4.30752 -2.95381 0
M  V30 4674 H 447.886 2.3013 -1.91521 0
M  V30 4675 H 445.432 1.10592 -0.92225 0
M  V30 4676 H 447.385 4.19653 -0.383305 0
M  V30 4677 H 446.109 3.24014 0.41015 0
M  V30 4678 H 444.768 3.23621 -1.72236 0
M  V30 4679 H 444.416 5.02998 -0.0155216 0
M  V30 4680 H 444.116 5.63551 -1.66384 0
M  V30 4681 H 445.64 6.04955 -0.828378 0
M  V30 4682 H 447.054 4.98349 -2.8341 0
M  V30 4683 H 445.451 4.79869 -3.60341 0
M  V30 4684 H 446.521 3.39192 -3.46521 0
M  V30 4685 N 447.864 1.01787 1.20321 0
M  V30 4686 C 448.811 0.589197 2.23153 0
M  V30 4687 C 449.781 -0.391367 1.61423 0
M  V30 4688 O 450.966 -0.290518 1.88575 0
M  V30 4689 C 448.106 -0.0650747 3.45039 0
M  V30 4690 C 447.219 0.960207 4.21194 0
M  V30 4691 C 446.354 0.276854 5.30478 0
M  V30 4692 C 445.393 1.2888 5.98378 0
M  V30 4693 N 444.53 0.632031 6.99249 0
M  V30 4694 H 449.37 1.47071 2.59179 0
M  V30 4695 H 446.907 0.736192 1.27352 0
M  V30 4696 H 448.865 -0.461552 4.14639 0
M  V30 4697 H 447.495 -0.910233 3.09701 0
M  V30 4698 H 446.547 1.47484 3.50646 0
M  V30 4699 H 447.859 1.72977 4.67847 0
M  V30 4700 H 447.013 -0.175056 6.06447 0
M  V30 4701 H 445.752 -0.525004 4.84866 0
M  V30 4702 H 444.757 1.75109 5.21169 0
M  V30 4703 H 445.982 2.09196 6.46076 0
M  V30 4704 H 443.928 -0.149935 6.55829 0
M  V30 4705 H 443.845 1.33964 7.44036 0
M  V30 4706 H 445.113 0.203755 7.79234 0
M  V30 4707 N 449.342 -1.36122 0.79427 0
M  V30 4708 C 450.275 -2.27759 0.141845 0
M  V30 4709 C 451.253 -1.47471 -0.684921 0
M  V30 4710 O 452.437 -1.76759 -0.654857 0
M  V30 4711 C 449.564 -3.29008 -0.804446 0
M  V30 4712 C 448.61 -4.26459 -0.0588617 0
M  V30 4713 S 449.443 -5.20253 1.26873 0
M  V30 4714 C 450.599 -6.25048 0.326562 0
M  V30 4715 H 450.832 -2.82746 0.918818 0
M  V30 4716 H 448.365 -1.42736 0.588722 0
M  V30 4717 H 450.323 -3.87842 -1.34495 0
M  V30 4718 H 448.984 -2.72924 -1.5547 0
M  V30 4719 H 448.177 -4.97973 -0.777087 0
M  V30 4720 H 447.779 -3.71731 0.411309 0
M  V30 4721 H 450.071 -6.75705 -0.492795 0
M  V30 4722 H 451.014 -7.00852 1.01053 0
M  V30 4723 H 451.422 -5.64454 -0.0722627 0
M  V30 4724 N 450.82 -0.546701 -1.47814 0
M  V30 4725 C 452.069 -0.0166497 -2.01693 0
M  V30 4726 C 452.382 1.33721 -1.42752 0
M  V30 4727 O 453.588 1.95658 -1.8823 0
M  V30 4728 C 452.044 0.0206769 -3.59894 0
M  V30 4729 C 451.652 -1.3293 -4.27824 0
M  V30 4730 C 453.396 0.498674 -4.21561 0
M  V30 4731 C 451.303 -1.25165 -5.78003 0
M  V30 4732 H 450.233 -0.0024541 -0.753996 0
M  V30 4733 H 452.884 -0.692984 -1.69912 0
M  V30 4734 H 451.266 0.76244 -3.88591 0
M  V30 4735 H 452.44 -2.08795 -4.10781 0
M  V30 4736 H 450.755 -1.74438 -3.78101 0
M  V30 4737 H 453.352 0.575 -5.31599 0
M  V30 4738 H 453.695 1.5083 -3.88016 0
M  V30 4739 H 454.228 -0.18791 -3.97356 0
M  V30 4740 H 450.967 -2.23695 -6.1615 0
M  V30 4741 H 450.487 -0.53464 -5.97412 0
M  V30 4742 H 452.166 -0.949299 -6.39998 0
M  V30 4743 N 452.299 1.55045 -0.282633 0
M  V30 4744 C 453.546 1.9976 0.33199 0
M  V30 4745 C 453.874 1.17105 1.55295 0
M  V30 4746 O 453.129 0.230599 1.94337 0
M  V30 4747 C 453.428 3.49422 0.750938 0
M  V30 4748 C 453.094 4.4941 -0.366228 0
M  V30 4749 C 451.756 4.76471 -0.672964 0
M  V30 4750 C 454.108 5.09054 -1.11864 0
M  V30 4751 C 451.436 5.60442 -1.73556 0
M  V30 4752 C 453.788 5.9418 -2.17102 0
M  V30 4753 C 452.452 6.19558 -2.48402 0
M  V30 4754 H 451.722 0.730974 0.121484 0
M  V30 4755 H 454.369 1.8732 -0.39791 0
M  V30 4756 H 452.674 3.59377 1.56063 0
M  V30 4757 H 454.371 3.81432 1.23736 0
M  V30 4758 H 450.961 4.2844 -0.117041 0
M  V30 4759 H 455.145 4.88165 -0.894925 0
M  V30 4760 H 450.401 5.78349 -1.983 0
M  V30 4761 H 454.575 6.39427 -2.75873 0
M  V30 4762 H 452.202 6.84417 -3.30874 0
M  V30 4763 N 453.777 0.010035 1.57597 0
M  V30 4764 C 454.725 -0.996272 2.10184 0
M  V30 4765 C 455.719 -1.34942 1.02406 0
M  V30 4766 O 456.925 -1.33389 1.20861 0
M  V30 4767 H 453.3 -0.338982 0.671264 0
M  V30 4768 H 455.271 -0.527272 2.93705 0
M  V30 4769 C 454.02 -2.27599 2.62857 0
M  V30 4770 H 453.343 -2.01295 3.45428 0
M  V30 4771 H 454.783 -2.96265 3.0332 0
M  V30 4772 C 453.242 -2.99269 1.54725 0
M  V30 4773 O 453.772 -3.90644 0.93597 0
M  V30 4774 N 451.978 -2.61269 1.27228 0
M  V30 4775 H 451.525 -1.87043 1.77123 0
M  V30 4776 H 451.483 -3.09534 0.550999 0
M  V30 4777 N 455.255 -1.55392 -0.262866 0
M  V30 4778 C 456.187 -1.85392 -1.34768 0
M  V30 4779 C 457.2 -0.739069 -1.45057 0
M  V30 4780 O 458.389 -1.01703 -1.46693 0
M  V30 4781 C 455.489 -2.01088 -2.72795 0
M  V30 4782 C 454.662 -3.31828 -2.84972 0
M  V30 4783 C 453.721 -3.37464 -4.03738 0
M  V30 4784 O 452.747 -4.10778 -3.94018 0
M  V30 4785 N 453.949 -2.65599 -5.16176 0
M  V30 4786 H 456.714 -2.79029 -1.09375 0
M  V30 4787 H 454.275 -1.55434 -0.452981 0
M  V30 4788 H 456.267 -2.02217 -3.50557 0
M  V30 4789 H 454.837 -1.1427 -2.90966 0
M  V30 4790 H 454.057 -3.43152 -1.94012 0
M  V30 4791 H 455.345 -4.18032 -2.90045 0
M  V30 4792 H 454.743 -2.05736 -5.26962 0
M  V30 4793 H 453.3 -2.72439 -5.92132 0
M  V30 4794 N 456.733 0.527833 -1.48498 0
M  V30 4795 C 457.961 1.30823 -1.6029 0
M  V30 4796 C 458.376 1.86945 -0.263974 0
M  V30 4797 O 457.733 1.6651 0.747034 0
M  V30 4798 C 457.784 2.45756 -2.65116 0
M  V30 4799 O 457.505 1.91946 -3.93813 0
M  V30 4800 C 459.006 3.37543 -2.87367 0
M  V30 4801 H 456.226 0.397763 -0.540394 0
M  V30 4802 H 458.77 0.636529 -1.94341 0
M  V30 4803 H 456.925 3.08806 -2.33917 0
M  V30 4804 H 457.339 2.67195 -4.51339 0
M  V30 4805 H 458.813 4.14532 -3.6451 0
M  V30 4806 H 459.29 3.92905 -1.9627 0
M  V30 4807 H 459.896 2.80283 -3.19878 0
M  V30 4808 N 458.211 1.37122 0.776871 0
M  V30 4809 C 459.436 1.354 1.57104 0
M  V30 4810 C 459.861 -0.0595562 1.88006 0
M  V30 4811 O 459.219 -1.03514 1.48844 0
M  V30 4812 C 459.267 2.19472 2.8612 0
M  V30 4813 O 458.371 1.59582 3.80273 0
M  V30 4814 H 457.712 0.462869 0.476076 0
M  V30 4815 H 460.242 1.80577 0.961932 0
M  V30 4816 H 460.252 2.32502 3.35271 0
M  V30 4817 H 458.927 3.22222 2.62956 0
M  V30 4818 H 457.504 1.55564 3.38902 0
M  V30 4819 N 459.689 -1.00246 1.21608 0
M  V30 4820 C 460.935 -1.74319 1.03638 0
M  V30 4821 C 461.268 -1.89408 -0.428749 0
M  V30 4822 O 460.543 -1.43026 -1.3181 0
M  V30 4823 C 460.826 -3.15431 1.73711 0
M  V30 4824 C 460.679 -3.08049 3.27759 0
M  V30 4825 C 461.998 -4.14407 1.48173 0
M  V30 4826 H 459.117 -0.632741 0.377899 0
M  V30 4827 H 461.759 -1.16853 1.49818 0
M  V30 4828 H 459.909 -3.64493 1.34452 0
M  V30 4829 H 461.581 -2.66681 3.76403 0
M  V30 4830 H 459.824 -2.45088 3.57931 0
M  V30 4831 H 460.495 -4.07862 3.71958 0
M  V30 4832 H 462.971 -3.74061 1.82258 0
M  V30 4833 H 461.847 -5.11279 1.99713 0
M  V30 4834 H 462.108 -4.40174 0.412273 0
M  V30 4835 N 461.167 -1.02423 -1.1978 0
M  V30 4836 C 462.077 -0.610919 -2.26506 0
M  V30 4837 C 463.093 0.355152 -1.70337 0
M  V30 4838 O 464.269 0.214195 -2.00258 0
M  V30 4839 C 461.334 0.0365921 -3.46681 0
M  V30 4840 C 460.395 -0.976389 -4.18049 0
M  V30 4841 C 459.628 -0.359683 -5.32487 0
M  V30 4842 O 459.851 0.838601 -5.64202 0
M  V30 4843 O 458.785 -1.08022 -5.92127 0
M  V30 4844 H 462.611 -1.49965 -2.64091 0
M  V30 4845 H 460.196 -0.794156 -1.26545 0
M  V30 4846 H 462.078 0.39786 -4.19518 0
M  V30 4847 H 460.753 0.899398 -3.10954 0
M  V30 4848 H 459.66 -1.38916 -3.47352 0
M  V30 4849 H 460.993 -1.80941 -4.57735 0
M  V30 4850 N 462.645 1.35699 -0.801477 0
M  V30 4851 C 463.595 2.2728 -0.181073 0
M  V30 4852 C 464.579 1.47533 0.642098 0
M  V30 4853 O 465.771 1.69785 0.500193 0
M  V30 4854 C 462.9 3.36626 0.673612 0
M  V30 4855 C 461.986 4.23802 -0.159008 0
M  V30 4856 N 462.377 4.90879 -1.2195 0
M  V30 4857 C 460.675 4.45959 0.0602005 0
M  V30 4858 C 461.376 5.5546 -1.72738 0
M  V30 4859 N 460.352 5.33663 -1.03465 0
M  V30 4860 H 464.154 2.76632 -0.992582 0
M  V30 4861 H 461.668 1.49166 -0.642127 0
M  V30 4862 H 463.665 4.01179 1.13408 0
M  V30 4863 H 462.325 2.88828 1.48353 0
M  V30 4864 H 463.336 4.92497 -1.60209 0
M  V30 4865 H 460.013 4.08969 0.839664 0
M  V30 4866 H 461.403 6.18991 -2.61342 0
M  V30 4867 N 464.123 0.554532 1.47522 0
M  V30 4868 C 465.363 0.0317994 2.04375 0
M  V30 4869 C 465.727 -1.29242 1.41988 0
M  V30 4870 O 466.928 -1.90269 1.89872 0
M  V30 4871 C 465.199 -0.0623344 3.57346 0
M  V30 4872 S 466.758 -0.531578 4.35568 0
M  V30 4873 H 463.576 0.0238553 0.7106 0
M  V30 4874 H 466.178 0.74066 1.80927 0
M  V30 4875 H 464.882 0.905857 4.00278 0
M  V30 4876 H 464.413 -0.794831 3.85287 0
M  V30 4877 H 466.428 -1.79175 4.62721 0
M  V30 4878 N 465.601 -1.54893 0.290851 0
M  V30 4879 C 466.548 -2.23138 -0.58974 0
M  V30 4880 C 467.518 -1.21036 -1.13752 0
M  V30 4881 O 468.703 -1.49626 -1.18392 0
M  V30 4882 C 465.843 -2.96811 -1.76061 0
M  V30 4883 C 464.956 -4.13665 -1.24519 0
M  V30 4884 C 464.091 -4.74944 -2.3791 0
M  V30 4885 C 463.13 -5.83963 -1.83451 0
M  V30 4886 N 462.267 -6.39239 -2.90376 0
M  V30 4887 H 467.107 -2.98 -0.00114915 0
M  V30 4888 H 464.644 -1.47096 0.0112006 0
M  V30 4889 H 466.602 -3.37751 -2.44909 0
M  V30 4890 H 465.232 -2.24344 -2.32098 0
M  V30 4891 H 464.284 -3.77737 -0.449288 0
M  V30 4892 H 465.596 -4.92238 -0.806424 0
M  V30 4893 H 464.75 -5.18684 -3.14724 0
M  V30 4894 H 463.489 -3.95682 -2.85109 0
M  V30 4895 H 462.494 -5.39657 -1.05122 0
M  V30 4896 H 463.719 -6.65103 -1.37169 0
M  V30 4897 H 461.665 -5.62864 -3.36927 0
M  V30 4898 H 461.582 -7.13129 -2.50965 0
M  V30 4899 H 462.85 -6.87637 -3.67118 0
M  V30 4900 N 467.08 -0.0183926 -1.57589 0
M  V30 4901 C 468.308 0.673046 -1.95647 0
M  V30 4902 C 468.723 1.66275 -0.894312 0
M  V30 4903 O 468.08 1.82072 0.124975 0
M  V30 4904 C 468.131 1.38884 -3.33756 0
M  V30 4905 O 467.852 0.438806 -4.35897 0
M  V30 4906 C 469.353 2.1731 -3.86383 0
M  V30 4907 H 466.573 0.186292 -0.644621 0
M  V30 4908 H 469.117 -0.0749748 -2.04363 0
M  V30 4909 H 467.272 2.08835 -3.26293 0
M  V30 4910 H 467.686 0.945869 -5.15901 0
M  V30 4911 H 469.16 2.62863 -4.85394 0
M  V30 4912 H 469.637 3.00764 -3.20059 0
M  V30 4913 H 470.243 1.52339 -3.97081 0
M  V30 4914 N 468.558 1.5553 0.254621 0
M  V30 4915 C 469.508 1.86057 1.31783 0
M  V30 4916 C 470.492 0.720827 1.4385 0
M  V30 4917 O 471.684 0.982586 1.47222 0
M  V30 4918 C 468.813 2.15203 2.67475 0
M  V30 4919 C 467.899 3.35484 2.59444 0
M  V30 4920 N 468.29 4.54945 2.2104 0
M  V30 4921 C 466.588 3.38441 2.90472 0
M  V30 4922 C 467.289 5.3707 2.23453 0
M  V30 4923 N 466.265 4.75936 2.62652 0
M  V30 4924 H 470.067 2.75953 1.01129 0
M  V30 4925 H 467.581 1.55653 0.463255 0
M  V30 4926 H 469.578 2.35235 3.44195 0
M  V30 4927 H 468.238 1.26601 2.99002 0
M  V30 4928 H 469.249 4.8071 1.92712 0
M  V30 4929 H 465.926 2.60087 3.2659 0
M  V30 4930 H 467.316 6.42626 1.96166 0
M  V30 4931 N 470.036 -0.519951 1.48776 0
M  V30 4932 C 471.264 -1.29971 1.60982 0
M  V30 4933 C 471.679 -1.86803 0.273885 0
M  V30 4934 O 471.036 -1.66904 -0.738193 0
M  V30 4935 C 471.087 -2.44346 2.66415 0
M  V30 4936 O 470.808 -1.89855 3.94825 0
M  V30 4937 C 472.309 -3.36014 2.89153 0
M  V30 4938 H 469.529 -0.394891 0.542496 0
M  V30 4939 H 472.073 -0.626214 1.94676 0
M  V30 4940 H 470.228 -3.07562 2.35552 0
M  V30 4941 H 470.642 -2.64798 4.5275 0
M  V30 4942 H 472.116 -4.12593 3.66703 0
M  V30 4943 H 472.593 -3.91859 1.98351 0
M  V30 4944 H 473.199 -2.78582 3.21359 0
M  V30 4945 N 471.514 -1.37532 -0.769588 0
M  V30 4946 C 472.424 -1.35668 -1.91393 0
M  V30 4947 C 473.44 -0.255954 -1.72107 0
M  V30 4948 O 474.616 -0.491704 -1.95305 0
M  V30 4949 C 471.681 -1.16481 -3.26547 0
M  V30 4950 C 470.742 -2.36212 -3.58472 0
M  V30 4951 C 469.975 -2.17932 -4.87177 0
M  V30 4952 O 470.198 -1.1647 -5.58382 0
M  V30 4953 O 469.132 -3.06167 -5.18214 0
M  V30 4954 H 472.958 -2.32055 -1.95918 0
M  V30 4955 H 470.543 -1.18284 -0.912641 0
M  V30 4956 H 472.425 -1.07778 -4.07384 0
M  V30 4957 H 471.1 -0.231687 -3.2287 0
M  V30 4958 H 470.007 -2.50488 -2.77861 0
M  V30 4959 H 471.34 -3.281 -3.66894 0
M  V30 4960 N 472.992 0.995999 -1.22138 0
M  V30 4961 C 473.939 2.08551 -0.988687 0
M  V30 4962 C 474.909 1.65864 0.0885021 0
M  V30 4963 O 476.094 1.90704 -0.0604589 0
M  V30 4964 C 473.234 3.40374 -0.569191 0
M  V30 4965 C 472.347 3.96421 -1.71681 0
M  V30 4966 C 471.482 5.1639 -1.2456 0
M  V30 4967 C 470.521 5.64567 -2.36497 0
M  V30 4968 N 469.658 6.75777 -1.90445 0
M  V30 4969 H 474.498 2.2779 -1.92135 0
M  V30 4970 H 472.035 1.1168 -0.957388 0
M  V30 4971 H 473.993 4.16068 -0.307166 0
M  V30 4972 H 472.623 3.21145 0.326462 0
M  V30 4973 H 471.675 3.17628 -2.09324 0
M  V30 4974 H 472.987 4.2816 -2.55891 0
M  V30 4975 H 472.141 5.99362 -0.940774 0
M  V30 4976 H 470.88 4.86266 -0.373662 0
M  V30 4977 H 469.885 4.80185 -2.67772 0
M  V30 4978 H 471.11 5.96716 -3.24202 0
M  V30 4979 H 469.056 6.47443 -1.05609 0
M  V30 4980 H 468.973 7.06818 -2.68223 0
M  V30 4981 H 470.241 7.62262 -1.63022 0
M  V30 4982 N 474.47 1.03057 1.19235 0
M  V30 4983 C 475.402 0.570932 2.21975 0
M  V30 4984 C 476.415 -0.354088 1.58903 0
M  V30 4985 O 477.604 -0.150211 1.77867 0
M  V30 4986 C 474.704 -0.187152 3.38383 0
M  V30 4987 C 473.877 0.743231 4.31039 0
M  V30 4988 C 472.936 0.0302493 5.26191 0
M  V30 4989 O 471.962 0.657371 5.65391 0
M  V30 4990 N 473.164 -1.23991 5.67104 0
M  V30 4991 H 475.929 1.45456 2.62036 0
M  V30 4992 H 473.49 0.909807 1.33918 0
M  V30 4993 H 475.482 -0.673715 3.99053 0
M  V30 4994 H 474.052 -0.972205 2.97098 0
M  V30 4995 H 473.272 1.40985 3.68126 0
M  V30 4996 H 474.56 1.3755 4.89854 0
M  V30 4997 H 473.958 -1.77011 5.37293 0
M  V30 4998 H 472.515 -1.67093 6.30018 0
M  V30 4999 N 475.948 -1.35272 0.808662 0
M  V30 5000 C 476.895 -2.29764 0.218482 0
M  V30 5001 C 477.865 -1.52911 -0.648652 0
M  V30 5002 O 479.05 -1.81341 -0.593297 0
M  V30 5003 C 476.19 -3.39388 -0.625282 0
M  V30 5004 C 475.303 -4.31202 0.262516 0
M  V30 5005 C 474.438 -5.27919 -0.589451 0
M  V30 5006 C 473.477 -6.11371 0.298617 0
M  V30 5007 N 472.614 -7.0022 -0.513443 0
M  V30 5008 H 477.454 -2.79645 1.02968 0
M  V30 5009 H 474.991 -1.37629 0.519303 0
M  V30 5010 H 476.949 -4.01615 -1.12966 0
M  V30 5011 H 475.579 -2.90777 -1.40173 0
M  V30 5012 H 474.631 -3.69962 0.885013 0
M  V30 5013 H 475.943 -4.89748 0.945971 0
M  V30 5014 H 475.097 -5.95529 -1.15888 0
M  V30 5015 H 473.836 -4.69875 -1.30647 0
M  V30 5016 H 472.841 -5.42707 0.880301 0
M  V30 5017 H 474.066 -6.71494 1.01352 0
M  V30 5018 H 472.012 -6.44662 -1.21439 0
M  V30 5019 H 471.929 -7.55917 0.111922 0
M  V30 5020 H 473.197 -7.72175 -1.06608 0
M  V30 5021 N 477.426 -0.562348 -1.47226 0
M  V30 5022 C 478.336 0.185466 -2.33866 0
M  V30 5023 C 479.352 0.906713 -1.48508 0
M  V30 5024 O 480.528 0.874458 -1.81425 0
M  V30 5025 C 477.593 1.19904 -3.25306 0
M  V30 5026 C 476.654 0.484669 -4.26555 0
M  V30 5027 C 475.887 1.44996 -5.13626 0
M  V30 5028 O 476.11 2.68515 -5.03245 0
M  V30 5029 O 475.044 0.971642 -5.94006 0
M  V30 5030 H 478.87 -0.525361 -2.99121 0
M  V30 5031 H 476.455 -0.322916 -1.45868 0
M  V30 5032 H 478.337 1.78399 -3.81774 0
M  V30 5033 H 477.012 1.8917 -2.62672 0
M  V30 5034 H 475.919 -0.141605 -3.73832 0
M  V30 5035 H 477.252 -0.166634 -4.91918 0
M  V30 5036 N 478.904 1.54736 -0.299062 0
M  V30 5037 C 480.144 2.0201 0.31168 0
M  V30 5038 C 480.508 1.18281 1.5124 0
M  V30 5039 O 481.709 1.55243 2.19438 0
M  V30 5040 C 479.98 3.5123 0.661227 0
M  V30 5041 S 481.539 4.20467 1.2551 0
M  V30 5042 H 478.357 0.704523 0.0957517 0
M  V30 5043 H 480.959 1.90791 -0.426482 0
M  V30 5044 H 479.663 4.09804 -0.221171 0
M  V30 5045 H 479.194 3.66481 1.43023 0
M  V30 5046 H 481.209 4.26083 2.54298 0
M  V30 5047 N 480.382 0.0267497 1.57577 0
M  V30 5048 C 481.33 -0.973923 2.11229 0
M  V30 5049 C 482.324 -1.33849 1.03831 0
M  V30 5050 O 483.53 -1.321 1.22269 0
M  V30 5051 H 479.905 -0.331844 0.674821 0
M  V30 5052 H 481.876 -0.496092 2.94247 0
M  V30 5053 C 480.625 -2.24798 2.65257 0
M  V30 5054 H 479.948 -1.9762 3.47543 0
M  V30 5055 H 481.388 -2.93031 3.06445 0
M  V30 5056 C 479.847 -2.97611 1.57891 0
M  V30 5057 O 480.377 -3.89629 0.97735 0
M  V30 5058 N 478.583 -2.59905 1.29992 0
M  V30 5059 H 478.13 -1.85154 1.79097 0
M  V30 5060 H 478.088 -3.08932 0.583798 0
M  V30 5061 N 481.861 -1.55662 -0.24637 0
M  V30 5062 C 483.108 -1.77519 -0.974335 0
M  V30 5063 C 483.436 -0.591165 -1.85298 0
M  V30 5064 O 482.691 0.425497 -1.91018 0
M  V30 5065 C 482.99 -3.04885 -1.86494 0
M  V30 5066 C 482.656 -4.36209 -1.14161 0
M  V30 5067 C 481.318 -4.71896 -0.941701 0
M  V30 5068 C 483.67 -5.17391 -0.628957 0
M  V30 5069 C 480.998 -5.86299 -0.216852 0
M  V30 5070 C 483.35 -6.32546 0.0824273 0
M  V30 5071 C 482.014 -6.66853 0.293807 0
M  V30 5072 H 481.284 -0.649588 -0.356535 0
M  V30 5073 H 483.931 -1.89934 -0.244394 0
M  V30 5074 H 482.236 -2.87484 -2.66196 0
M  V30 5075 H 483.933 -3.18994 -2.42989 0
M  V30 5076 H 480.523 -4.08174 -1.30736 0
M  V30 5077 H 484.707 -4.90276 -0.770943 0
M  V30 5078 H 479.963 -6.11385 -0.0426124 0
M  V30 5079 H 484.137 -6.94693 0.487292 0
M  V30 5080 H 481.764 -7.55349 0.857428 0
M  V30 5081 N 483.339 0.512053 -1.4905 0
M  V30 5082 C 484.586 1.26686 -1.57978 0
M  V30 5083 C 484.914 1.92733 -0.261553 0
M  V30 5084 O 484.169 1.80772 0.749667 0
M  V30 5085 C 484.468 2.36446 -2.68008 0
M  V30 5086 C 484.134 1.87932 -4.09869 0
M  V30 5087 C 482.796 1.74419 -4.48477 0
M  V30 5088 C 485.148 1.5149 -4.98698 0
M  V30 5089 C 482.476 1.22827 -5.73699 0
M  V30 5090 C 484.828 1.01355 -6.24428 0
M  V30 5091 C 483.492 0.864735 -6.61875 0
M  V30 5092 H 482.762 0.463577 -0.578081 0
M  V30 5093 H 485.409 0.569421 -1.82838 0
M  V30 5094 H 483.714 3.11933 -2.37076 0
M  V30 5095 H 485.411 2.9453 -2.72127 0
M  V30 5096 H 482.001 1.99405 -3.79389 0
M  V30 5097 H 486.185 1.60782 -4.69535 0
M  V30 5098 H 481.441 1.10008 -6.01422 0
M  V30 5099 H 485.615 0.722351 -6.92644 0
M  V30 5100 H 483.242 0.462777 -7.5879 0
M  V30 5101 N 484.817 1.37938 0.762283 0
M  V30 5102 C 485.747 1.37176 1.88958 0
M  V30 5103 C 486.728 0.238945 1.68413 0
M  V30 5104 O 487.913 0.440726 1.89133 0
M  V30 5105 C 485.043 1.18742 3.2637 0
M  V30 5106 C 483.997 2.29136 3.61498 0
M  V30 5107 C 483.323 1.95816 4.97554 0
M  V30 5108 C 484.623 3.71363 3.6727 0
M  V30 5109 H 486.317 2.31509 1.89853 0
M  V30 5110 H 483.863 1.11438 0.912005 0
M  V30 5111 H 485.816 1.16837 4.04879 0
M  V30 5112 H 484.54 0.208683 3.25933 0
M  V30 5113 H 483.199 2.30213 2.85303 0
M  V30 5114 H 482.847 0.964475 4.93667 0
M  V30 5115 H 482.547 2.69745 5.22026 0
M  V30 5116 H 484.071 1.95513 5.78452 0
M  V30 5117 H 485.485 3.72364 4.35911 0
M  V30 5118 H 483.882 4.44425 4.03245 0
M  V30 5119 H 484.952 4.04305 2.67704 0
M  V30 5120 N 486.295 -0.989507 1.22664 0
M  V30 5121 C 487.544 -1.72375 1.04737 0
M  V30 5122 C 487.857 -1.91096 -0.417316 0
M  V30 5123 O 489.063 -2.6188 -0.716334 0
M  V30 5124 C 487.519 -3.10161 1.82561 0
M  V30 5125 C 487.127 -2.99358 3.333 0
M  V30 5126 C 488.871 -3.87607 1.73093 0
M  V30 5127 C 486.778 -4.32319 4.03552 0
M  V30 5128 H 485.708 -0.646326 0.388302 0
M  V30 5129 H 488.359 -1.10437 1.46546 0
M  V30 5130 H 486.741 -3.728 1.33552 0
M  V30 5131 H 487.915 -2.45863 3.89728 0
M  V30 5132 H 486.23 -2.35392 3.43481 0
M  V30 5133 H 488.827 -4.86025 2.22899 0
M  V30 5134 H 489.17 -4.10509 0.691976 0
M  V30 5135 H 489.703 -3.31652 2.19663 0
M  V30 5136 H 486.442 -4.14616 5.07714 0
M  V30 5137 H 485.962 -4.85714 3.51911 0
M  V30 5138 H 487.641 -5.01051 4.09337 0
M  V30 5139 N 487.773 -1.03688 -1.18687 0
M  V30 5140 C 488.736 -0.629115 -2.20397 0
M  V30 5141 C 489.736 0.311495 -1.57754 0
M  V30 5142 O 490.926 0.0974107 -1.73927 0
M  V30 5143 C 488.058 0.0782231 -3.4081 0
M  V30 5144 H 489.251 -1.52915 -2.57987 0
M  V30 5145 H 486.804 -0.828988 -1.32505 0
M  V30 5146 H 487.539 0.992233 -3.08748 0
M  V30 5147 H 487.324 -0.597776 -3.87517 0
M  V30 5148 H 488.814 0.350156 -4.16129 0
M  V30 5149 N 489.251 1.34841 -0.815825 0
M  V30 5150 C 490.497 1.98793 -0.401129 0
M  V30 5151 C 490.83 1.64548 1.03139 0
M  V30 5152 O 490.105 0.913487 1.71714 0
M  V30 5153 C 490.388 3.55143 -0.595409 0
M  V30 5154 C 490.241 3.99155 -2.07352 0
M  V30 5155 C 491.56 4.40092 -0.0268823 0
M  V30 5156 H 488.679 0.722146 -0.14722 0
M  V30 5157 H 491.321 1.59847 -1.02707 0
M  V30 5158 H 489.471 3.8845 -0.0625779 0
M  V30 5159 H 491.143 3.76216 -2.66945 0
M  V30 5160 H 489.386 3.49726 -2.56659 0
M  V30 5161 H 490.057 5.07971 -2.1603 0
M  V30 5162 H 492.533 4.13298 -0.482042 0
M  V30 5163 H 491.409 5.48562 -0.19267 0
M  V30 5164 H 491.67 4.29016 1.06759 0
M  V30 5165 N 490.729 0.570148 1.46925 0
M  V30 5166 C 492.145 0.23087 1.57921 0
M  V30 5167 C 492.345 -1.26676 1.56702 0
M  V30 5168 O 491.401 -2.04774 1.47729 0
M  V30 5169 C 492.714 0.868973 2.8787 0
M  V30 5170 C 494.262 0.841397 3.01479 0
M  V30 5171 C 494.737 1.45881 4.34146 0
M  V30 5172 N 496.228 1.42258 4.40814 0
M  V30 5173 C 496.963 1.8698 5.42057 0
M  V30 5174 N 496.459 2.39618 6.50042 0
M  V30 5175 N 498.252 1.77972 5.33181 0
M  V30 5176 H 490.403 1.54301 1.45962 0
M  V30 5177 H 492.666 0.644224 0.69547 0
M  V30 5178 H 492.372 1.922 2.94537 0
M  V30 5179 H 492.246 0.369682 3.75384 0
M  V30 5180 H 494.633 -0.202973 2.94401 0
M  V30 5181 H 494.714 1.37858 2.15474 0
M  V30 5182 H 494.358 2.50231 4.4198 0
M  V30 5183 H 494.288 0.896958 5.18905 0
M  V30 5184 H 496.779 1.03768 3.63374 0
M  V30 5185 H 497.092 2.71633 7.23488 0
M  V30 5186 H 495.437 2.43636 6.50897 0
M  V30 5187 H 498.628 1.36617 4.4772 0
M  V30 5188 H 498.801 2.13143 6.11943 0
M  V30 5189 N 492.207 -1.54576 0.307264 0
M  V30 5190 C 493.137 -2.26708 -0.55907 0
M  V30 5191 C 494.118 -1.26893 -1.1328 0
M  V30 5192 O 495.303 -1.55677 -1.16097 0
M  V30 5193 C 492.433 -3.01259 -1.72801 0
M  V30 5194 C 491.387 -4.08275 -1.28435 0
M  V30 5195 C 490.713 -4.70575 -2.53895 0
M  V30 5196 C 492.013 -5.2068 -0.411038 0
M  V30 5197 H 493.707 -2.9937 0.042576 0
M  V30 5198 H 491.253 -1.43983 0.0219173 0
M  V30 5199 H 493.206 -3.50444 -2.34023 0
M  V30 5200 H 491.93 -2.26187 -2.356 0
M  V30 5201 H 490.589 -3.59949 -0.695161 0
M  V30 5202 H 490.237 -3.92136 -3.15021 0
M  V30 5203 H 489.937 -5.42854 -2.24908 0
M  V30 5204 H 491.461 -5.22527 -3.15908 0
M  V30 5205 H 492.875 -5.65721 -0.929097 0
M  V30 5206 H 491.272 -5.99716 -0.214664 0
M  V30 5207 H 492.342 -4.81629 0.562287 0
M  V30 5208 N 493.685 -0.035106 -1.57561 0
M  V30 5209 C 494.648 0.929819 -2.09492 0
M  V30 5210 C 495.648 1.25026 -1.01119 0
M  V30 5211 O 496.838 1.18961 -1.27255 0
M  V30 5212 C 493.97 2.24457 -2.56577 0
M  V30 5213 H 495.163 0.479935 -2.96035 0
M  V30 5214 H 492.716 0.213033 -1.54841 0
M  V30 5215 H 493.451 2.74061 -1.73382 0
M  V30 5216 H 493.236 2.02508 -3.35757 0
M  V30 5217 H 494.726 2.93607 -2.96959 0
M  V30 5218 N 495.163 1.55791 0.238111 0
M  V30 5219 C 496.388 1.8244 0.986432 0
M  V30 5220 C 496.813 0.613314 1.7782 0
M  V30 5221 O 496.171 -0.437767 1.75935 0
M  V30 5222 C 496.219 3.06917 1.893 0
M  V30 5223 O 495.323 2.84449 2.98601 0
M  V30 5224 H 494.664 0.601975 0.280218 0
M  V30 5225 H 497.194 2.02987 0.256437 0
M  V30 5226 H 497.204 3.36583 2.30598 0
M  V30 5227 H 495.879 3.947 1.31091 0
M  V30 5228 H 494.456 2.65972 2.61368 0
M  V30 5229 N 496.642 -0.504142 1.49319 0
M  V30 5230 C 497.572 -1.61473 1.68667 0
M  V30 5231 C 498.553 -1.61455 0.535378 0
M  V30 5232 O 499.738 -1.78245 0.770868 0
M  V30 5233 C 496.868 -2.99971 1.75028 0
M  V30 5234 C 495.822 -3.14854 2.89916 0
M  V30 5235 C 495.148 -4.54671 2.81387 0
M  V30 5236 C 496.448 -2.95176 4.30893 0
M  V30 5237 H 498.142 -1.45535 2.61648 0
M  V30 5238 H 495.688 -0.698711 1.25913 0
M  V30 5239 H 497.641 -3.77562 1.8715 0
M  V30 5240 H 496.365 -3.1699 0.786441 0
M  V30 5241 H 495.024 -2.39687 2.77391 0
M  V30 5242 H 494.672 -4.68562 1.82917 0
M  V30 5243 H 494.372 -4.6557 3.58494 0
M  V30 5244 H 495.896 -5.34327 2.95512 0
M  V30 5245 H 497.31 -3.62538 4.44116 0
M  V30 5246 H 495.707 -3.17549 5.09198 0
M  V30 5247 H 496.777 -1.91332 4.45556 0
M  V30 5248 N 498.12 -1.38341 -0.754957 0
M  V30 5249 C 499.068 -1.35573 -1.89005 0
M  V30 5250 C 500.062 -0.241824 -1.67665 0
M  V30 5251 O 501.268 -0.410785 -1.7525 0
M  V30 5252 H 497.643 -0.422898 -0.621821 0
M  V30 5253 H 499.614 -2.31359 -1.88455 0
M  V30 5254 C 498.363 -1.19631 -3.26471 0
M  V30 5255 H 497.686 -2.04605 -3.43477 0
M  V30 5256 H 499.126 -1.21748 -4.06144 0
M  V30 5257 C 497.585 0.0968705 -3.36761 0
M  V30 5258 O 498.115 1.07439 -3.87066 0
M  V30 5259 N 496.321 0.153242 -2.90196 0
M  V30 5260 H 495.868 -0.642908 -2.49448 0
M  V30 5261 H 495.826 1.01807 -2.9746 0
M  V30 5262 N 499.598 0.982988 -1.23187 0
M  V30 5263 C 500.53 2.07729 -0.968572 0
M  V30 5264 C 501.543 1.62702 0.0564821 0
M  V30 5265 O 502.732 1.77603 -0.178733 0
M  V30 5266 C 499.832 3.36071 -0.436974 0
M  V30 5267 C 499.005 4.10081 -1.52159 0
M  V30 5268 C 498.064 5.16701 -0.99532 0
M  V30 5269 O 497.09 5.43727 -1.68373 0
M  V30 5270 N 498.292 5.80226 0.178192 0
M  V30 5271 H 501.057 2.30894 -1.9107 0
M  V30 5272 H 498.618 1.14949 -1.1401 0
M  V30 5273 H 500.61 4.04639 -0.0700051 0
M  V30 5274 H 499.18 3.09893 0.410509 0
M  V30 5275 H 498.4 3.36004 -2.06144 0
M  V30 5276 H 499.688 4.56295 -2.25105 0
M  V30 5277 H 499.086 5.60651 0.754096 0
M  V30 5278 H 497.643 6.49982 0.486449 0
M  V30 5279 N 501.076 1.04316 1.18135 0
M  V30 5280 C 502.325 0.74319 1.87509 0
M  V30 5281 C 502.638 -0.732136 1.81381 0
M  V30 5282 O 503.844 -1.14572 2.46141 0
M  V30 5283 C 502.3 1.27913 3.36402 0
M  V30 5284 C 501.908 2.78326 3.51053 0
M  V30 5285 C 503.652 1.0558 4.11161 0
M  V30 5286 C 501.559 3.25266 4.93919 0
M  V30 5287 H 500.489 0.274313 0.702331 0
M  V30 5288 H 503.14 1.25931 1.33467 0
M  V30 5289 H 501.522 0.690853 3.89927 0
M  V30 5290 H 502.696 3.42933 3.07788 0
M  V30 5291 H 501.011 2.991 2.89704 0
M  V30 5292 H 503.608 1.38161 5.16542 0
M  V30 5293 H 503.951 -0.00684729 4.16299 0
M  V30 5294 H 504.484 1.60882 3.63816 0
M  V30 5295 H 501.223 4.30922 4.9395 0
M  V30 5296 H 500.743 2.65396 5.3789 0
M  V30 5297 H 502.422 3.19433 5.62647 0
M  V30 5298 N 502.554 -1.34406 0.822964 0
M  V30 5299 C 503.484 -2.32052 0.259608 0
M  V30 5300 C 504.465 -1.58243 -0.623961 0
M  V30 5301 O 505.65 -1.86224 -0.55083 0
M  V30 5302 C 502.78 -3.42434 -0.579314 0
M  V30 5303 C 501.734 -4.27499 0.20712 0
M  V30 5304 C 501.06 -5.29349 -0.754547 0
M  V30 5305 C 502.36 -5.02758 1.41533 0
M  V30 5306 H 504.054 -2.79418 1.07545 0
M  V30 5307 H 501.6 -1.34338 0.518593 0
M  V30 5308 H 503.553 -4.0976 -0.983612 0
M  V30 5309 H 502.277 -2.93717 -1.4282 0
M  V30 5310 H 500.936 -3.61776 0.592787 0
M  V30 5311 H 500.584 -4.76895 -1.59939 0
M  V30 5312 H 500.284 -5.8714 -0.232561 0
M  V30 5313 H 501.808 -5.99544 -1.1567 0
M  V30 5314 H 503.222 -5.62938 1.08504 0
M  V30 5315 H 501.619 -5.70123 1.87296 0
M  V30 5316 H 502.689 -4.32451 2.1935 0
M  V30 5317 N 504.032 -0.577932 -1.46621 0
M  V30 5318 C 505.309 0.00495287 -1.95599 0
M  V30 5319 C 505.689 1.46428 -1.5206 0
M  V30 5320 O 505.037 2.1517 -0.769046 0
M  V30 5321 C 505.247 -0.162114 -3.48623 0
M  V30 5322 C 506.595 -0.0274623 -4.24591 0
M  V30 5323 O 507.619 -0.0907067 -3.56084 0
M  V30 5324 O 506.478 0.1122 -5.46385 0
M  V30 5325 H 503.572 0.0525057 -0.825332 0
M  V30 5326 H 506.118 -0.645914 -1.56927 0
M  V30 5327 H 504.89 -1.17679 -3.73185 0
M  V30 5328 H 504.513 0.525407 -3.94113 0
M  V30 5329 N 505.51 1.54411 -0.315457 0
M  V30 5330 C 506.921 1.85885 0.174265 0
M  V30 5331 C 507.272 1.23723 1.52273 0
M  V30 5332 O 506.397 0.540246 2.09548 0
M  V30 5333 C 506.992 3.37257 0.322981 0
M  V30 5334 C 505.551 3.68711 0.756922 0
M  V30 5335 C 504.698 2.77013 -0.126195 0
M  V30 5336 H 507.649 1.49374 -0.536007 0
M  V30 5337 H 507.67 3.62539 1.15522 0
M  V30 5338 H 507.182 3.82471 -0.658602 0
M  V30 5339 H 505.283 3.29024 1.74854 0
M  V30 5340 H 505.396 4.75741 0.566291 0
M  V30 5341 H 503.76 2.51588 0.39692 0
M  V30 5342 H 504.543 3.25051 -1.1044 0
M  V30 5343 N 506.988 0.0434614 1.5754 0
M  V30 5344 C 508.234 -0.627109 1.93491 0
M  V30 5345 C 508.589 -1.68904 0.921362 0
M  V30 5346 O 507.882 -1.91504 -0.0605799 0
M  V30 5347 C 508.076 -1.2738 3.3393 0
M  V30 5348 C 507.905 -0.27603 4.48852 0
M  V30 5349 C 506.675 0.129244 5.05135 0
M  V30 5350 C 508.873 0.475462 5.12098 0
M  V30 5351 N 506.855 1.12068 6.03584 0
M  V30 5352 C 508.226 1.32021 6.05781 0
M  V30 5353 C 510.281 0.534611 4.95022 0
M  V30 5354 C 508.984 2.2188 6.84223 0
M  V30 5355 C 511.01 1.42059 5.74085 0
M  V30 5356 C 510.372 2.25309 6.67394 0
M  V30 5357 H 506.471 -0.201354 0.755633 0
M  V30 5358 H 509.055 0.113991 1.94366 0
M  V30 5359 H 507.226 -1.98496 3.33847 0
M  V30 5360 H 508.958 -1.90255 3.57191 0
M  V30 5361 H 505.713 -0.248145 4.72949 0
M  V30 5362 H 506.137 1.61306 6.57502 0
M  V30 5363 H 510.779 -0.0947817 4.22694 0
M  V30 5364 H 508.497 2.85868 7.55847 0
M  V30 5365 H 512.083 1.47083 5.62901 0
M  V30 5366 H 510.963 2.92754 7.27506 0
M  V30 5367 N 508.466 -1.55915 -0.229846 0
M  V30 5368 C 509.712 -1.78807 -0.956868 0
M  V30 5369 C 510.045 -0.611687 -1.84315 0
M  V30 5370 O 509.32 0.389398 -1.90562 0
M  V30 5371 C 509.603 -3.11718 -1.80288 0
M  V30 5372 C 509.456 -4.3979 -0.943649 0
M  V30 5373 C 510.775 -3.40999 -2.78222 0
M  V30 5374 H 507.894 -0.6505 -0.346437 0
M  V30 5375 H 510.536 -1.88648 -0.226252 0
M  V30 5376 H 508.686 -3.03459 -2.42579 0
M  V30 5377 H 510.358 -4.60059 -0.338121 0
M  V30 5378 H 508.601 -4.33086 -0.248705 0
M  V30 5379 H 509.272 -5.29208 -1.5698 0
M  V30 5380 H 511.748 -3.49332 -2.26067 0
M  V30 5381 H 510.624 -4.35183 -3.34526 0
M  V30 5382 H 510.885 -2.62754 -3.55546 0
M  V30 5383 N 509.944 0.496216 -1.49584 0
M  V30 5384 C 511.174 1.27209 -1.62793 0
M  V30 5385 C 511.582 1.86799 -0.300476 0
M  V30 5386 O 510.925 1.68802 0.724674 0
M  V30 5387 C 510.987 2.43812 -2.64189 0
M  V30 5388 C 510.651 2.05055 -4.08414 0
M  V30 5389 C 511.648 1.58752 -4.9507 0
M  V30 5390 C 509.333 2.14543 -4.54177 0
M  V30 5391 C 511.327 1.22448 -6.25528 0
M  V30 5392 C 509.014 1.77851 -5.84647 0
M  V30 5393 C 510.012 1.31878 -6.70147 0
M  V30 5394 O 509.7 0.956834 -7.98185 0
M  V30 5395 H 509.432 0.391848 -0.550846 0
M  V30 5396 H 511.986 0.601712 -1.96389 0
M  V30 5397 H 510.216 3.13941 -2.25783 0
M  V30 5398 H 511.905 3.05829 -2.66877 0
M  V30 5399 H 512.671 1.50863 -4.60939 0
M  V30 5400 H 508.55 2.49277 -3.87791 0
M  V30 5401 H 512.094 0.864933 -6.92217 0
M  V30 5402 H 507.991 1.8539 -6.18305 0
M  V30 5403 H 508.759 1.08789 -8.11238 0
M  V30 5404 N 511.423 1.38739 0.74761 0
M  V30 5405 C 512.353 1.39173 1.87492 0
M  V30 5406 C 513.334 0.256794 1.6815 0
M  V30 5407 O 514.519 0.460762 1.88655 0
M  V30 5408 C 511.649 1.22197 3.25093 0
M  V30 5409 C 510.603 2.32957 3.59047 0
M  V30 5410 C 509.929 2.01082 4.95449 0
M  V30 5411 C 511.229 3.75237 3.6331 0
M  V30 5412 H 512.923 2.3351 1.87386 0
M  V30 5413 H 510.469 1.12399 0.900134 0
M  V30 5414 H 512.422 1.21124 4.03617 0
M  V30 5415 H 511.146 0.243241 3.25693 0
M  V30 5416 H 509.805 2.33226 2.82845 0
M  V30 5417 H 509.453 1.01678 4.92616 0
M  V30 5418 H 509.153 2.75267 5.19136 0
M  V30 5419 H 510.677 2.01638 5.76346 0
M  V30 5420 H 512.091 3.76966 4.31937 0
M  V30 5421 H 510.488 4.48677 3.98509 0
M  V30 5422 H 511.558 4.07122 2.634 0
M  V30 5423 N 512.901 -0.976442 1.23707 0
M  V30 5424 C 513.831 -2.08749 1.04624 0
M  V30 5425 C 514.812 -1.70057 -0.0380956 0
M  V30 5426 O 515.997 -1.93782 0.127308 0
M  V30 5427 C 513.127 -3.41335 0.640902 0
M  V30 5428 C 512.081 -3.93947 1.67302 0
M  V30 5429 C 511.407 -5.22774 1.12301 0
M  V30 5430 C 512.707 -4.22769 3.06697 0
M  V30 5431 H 514.401 -2.24972 1.97555 0
M  V30 5432 H 511.947 -1.08108 0.951247 0
M  V30 5433 H 513.9 -4.18489 0.494434 0
M  V30 5434 H 512.624 -3.24988 -0.324099 0
M  V30 5435 H 511.283 -3.18941 1.80755 0
M  V30 5436 H 510.931 -5.0278 0.148877 0
M  V30 5437 H 510.631 -5.58942 1.81267 0
M  V30 5438 H 512.155 -6.02546 0.988479 0
M  V30 5439 H 513.569 -4.90659 2.96524 0
M  V30 5440 H 511.966 -4.70147 3.72937 0
M  V30 5441 H 513.036 -3.29885 3.55392 0
M  V30 5442 N 514.379 -1.04941 -1.1758 0
M  V30 5443 C 515.309 -0.669172 -2.23706 0
M  V30 5444 C 516.29 0.331835 -1.66832 0
M  V30 5445 O 517.475 0.209988 -1.93061 0
M  V30 5446 C 514.605 -0.0404889 -3.47276 0
M  V30 5447 C 513.559 -0.965983 -4.16957 0
M  V30 5448 C 512.885 -0.201312 -5.34321 0
M  V30 5449 C 514.185 -2.28902 -4.69469 0
M  V30 5450 H 515.879 -1.55639 -2.55767 0
M  V30 5451 H 513.425 -0.749793 -1.22939 0
M  V30 5452 H 515.378 0.237298 -4.20731 0
M  V30 5453 H 514.102 0.881658 -3.14475 0
M  V30 5454 H 512.761 -1.22829 -3.45411 0
M  V30 5455 H 512.409 0.723519 -4.97769 0
M  V30 5456 H 512.109 -0.817968 -5.81879 0
M  V30 5457 H 513.633 0.0692499 -6.10561 0
M  V30 5458 H 515.047 -2.07132 -5.34574 0
M  V30 5459 H 513.444 -2.85942 -5.27596 0
M  V30 5460 H 514.514 -2.92937 -3.86414 0
M  V30 5461 N 515.857 1.33968 -0.830081 0
M  V30 5462 C 517.273 1.51003 -0.516742 0
M  V30 5463 C 517.473 1.77286 0.957694 0
M  V30 5464 O 516.529 1.82797 1.74188 0
M  V30 5465 C 517.842 2.67036 -1.38247 0
M  V30 5466 C 519.39 2.80919 -1.38034 0
M  V30 5467 C 519.865 4.00004 -2.23071 0
M  V30 5468 N 521.356 4.07224 -2.20733 0
M  V30 5469 C 522.091 4.98541 -2.83275 0
M  V30 5470 N 521.587 5.95033 -3.54835 0
M  V30 5471 N 523.38 4.91469 -2.72791 0
M  V30 5472 H 515.531 1.15168 -1.78466 0
M  V30 5473 H 517.794 0.565443 -0.760906 0
M  V30 5474 H 517.5 2.54266 -2.42985 0
M  V30 5475 H 517.374 3.62226 -1.05225 0
M  V30 5476 H 519.761 2.93127 -0.340713 0
M  V30 5477 H 519.842 1.86517 -1.75057 0
M  V30 5478 H 519.486 3.88557 -3.27087 0
M  V30 5479 H 519.416 4.93634 -1.83394 0
M  V30 5480 H 521.907 3.38162 -1.68687 0
M  V30 5481 H 522.22 6.61357 -3.99784 0
M  V30 5482 H 520.565 5.95135 -3.58942 0
M  V30 5483 H 523.756 4.15048 -2.16456 0
M  V30 5484 H 523.929 5.62439 -3.21818 0
M  V30 5485 N 517.335 0.585699 1.46312 0
M  V30 5486 C 518.282 -0.145835 2.30339 0
M  V30 5487 C 519.252 -0.881215 1.40797 0
M  V30 5488 O 520.437 -0.871293 1.69744 0
M  V30 5489 C 517.577 -1.15161 3.25318 0
M  V30 5490 C 516.69 -0.419367 4.2996 0
M  V30 5491 C 515.825 -1.41293 5.12064 0
M  V30 5492 C 514.864 -0.667261 6.08452 0
M  V30 5493 N 514.001 -1.60903 6.83414 0
M  V30 5494 H 518.841 0.576755 2.92365 0
M  V30 5495 H 516.378 0.296237 1.44086 0
M  V30 5496 H 518.336 -1.74763 3.78832 0
M  V30 5497 H 516.966 -1.84188 2.65094 0
M  V30 5498 H 516.018 0.291751 3.7928 0
M  V30 5499 H 517.33 0.163433 4.98532 0
M  V30 5500 H 516.484 -2.08167 5.6987 0
M  V30 5501 H 515.223 -2.02966 4.43459 0
M  V30 5502 H 514.228 0.0152356 5.49798 0
M  V30 5503 H 515.453 -0.0558817 6.79077 0
M  V30 5504 H 513.399 -2.21381 6.17516 0
M  V30 5505 H 513.316 -1.07911 7.48259 0
M  V30 5506 H 514.584 -2.26802 7.45775 0
M  V30 5507 N 518.813 -1.54241 0.323641 0
M  V30 5508 C 520.062 -1.9975 -0.279806 0
M  V30 5509 C 520.375 -1.2156 -1.5324 0
M  V30 5510 O 521.581 -1.57447 -2.21185 0
M  V30 5511 C 520.037 -3.55686 -0.549115 0
M  V30 5512 C 519.645 -4.4271 0.686432 0
M  V30 5513 C 521.389 -4.09663 -1.11251 0
M  V30 5514 C 519.296 -5.90119 0.389022 0
M  V30 5515 H 518.226 -0.746177 -0.10833 0
M  V30 5516 H 520.877 -1.78248 0.435877 0
M  V30 5517 H 519.259 -3.73176 -1.32499 0
M  V30 5518 H 520.433 -4.36996 1.46188 0
M  V30 5519 H 518.748 -3.99623 1.17005 0
M  V30 5520 H 521.345 -5.17386 -1.34965 0
M  V30 5521 H 521.688 -3.61651 -2.06191 0
M  V30 5522 H 522.221 -3.95806 -0.39782 0
M  V30 5523 H 518.96 -6.42326 1.30759 0
M  V30 5524 H 518.48 -5.98785 -0.348722 0
M  V30 5525 H 520.159 -6.47 -0.0011164 0
M  V30 5526 N 520.291 -0.0518155 -1.57515 0
M  V30 5527 C 521.221 0.920283 -2.146 0
M  V30 5528 C 522.202 1.32406 -1.06783 0
M  V30 5529 O 523.387 1.39866 -1.34726 0
M  V30 5530 C 520.517 2.1949 -2.6915 0
M  V30 5531 C 519.471 1.93116 -3.81956 0
M  V30 5532 C 518.797 3.27037 -4.23026 0
M  V30 5533 C 520.097 1.25225 -5.07066 0
M  V30 5534 H 521.791 0.444801 -2.96077 0
M  V30 5535 H 519.337 0.212508 -1.42423 0
M  V30 5536 H 521.29 2.87894 -3.07725 0
M  V30 5537 H 520.014 2.69244 -1.84865 0
M  V30 5538 H 518.673 1.27123 -3.43854 0
M  V30 5539 H 518.321 3.74595 -3.3569 0
M  V30 5540 H 518.021 3.10189 -4.99056 0
M  V30 5541 H 519.545 3.96673 -4.64202 0
M  V30 5542 H 520.959 1.83666 -5.43083 0
M  V30 5543 H 519.356 1.18702 -5.88243 0
M  V30 5544 H 520.426 0.228382 -4.84362 0
M  V30 5545 N 521.769 1.56035 0.221574 0
M  V30 5546 C 522.699 1.95434 1.2778 0
M  V30 5547 C 523.68 0.822564 1.48889 0
M  V30 5548 O 524.865 1.08486 1.61072 0
M  V30 5549 C 521.995 2.27102 2.62759 0
M  V30 5550 C 520.949 3.4277 2.56306 0
M  V30 5551 C 520.275 3.60043 3.95314 0
M  V30 5552 C 521.575 4.77742 2.11093 0
M  V30 5553 H 523.269 2.83912 0.950504 0
M  V30 5554 H 520.815 1.36596 0.455791 0
M  V30 5555 H 522.768 2.53256 3.36807 0
M  V30 5556 H 521.492 1.35478 2.97176 0
M  V30 5557 H 520.151 3.16664 1.84715 0
M  V30 5558 H 519.799 2.65794 4.27039 0
M  V30 5559 H 519.499 4.37841 3.91879 0
M  V30 5560 H 521.023 3.88545 4.71025 0
M  V30 5561 H 522.437 5.03102 2.74885 0
M  V30 5562 H 520.834 5.58823 2.18716 0
M  V30 5563 H 521.904 4.731 1.06321 0
M  V30 5564 N 523.247 -0.488276 1.49845 0
M  V30 5565 C 524.663 -0.820566 1.3689 0
M  V30 5566 C 524.863 -1.97248 0.411752 0
M  V30 5567 O 523.919 -2.52042 -0.151931 0
M  V30 5568 C 525.232 -1.1488 2.77891 0
M  V30 5569 C 526.78 -1.25626 2.86683 0
M  V30 5570 C 527.255 -1.61772 4.28479 0
M  V30 5571 N 528.746 -1.68797 4.31349 0
M  V30 5572 C 529.481 -1.98235 5.38043 0
M  V30 5573 N 528.977 -2.2581 6.54967 0
M  V30 5574 N 530.77 -1.99593 5.2547 0
M  V30 5575 H 522.921 0.271123 2.10662 0
M  V30 5576 H 525.184 0.058735 0.946179 0
M  V30 5577 H 524.89 -0.375614 3.49688 0
M  V30 5578 H 524.764 -2.08919 3.14058 0
M  V30 5579 H 527.151 -2.02014 2.15114 0
M  V30 5580 H 527.232 -0.296072 2.54081 0
M  V30 5581 H 526.876 -0.859295 5.00578 0
M  V30 5582 H 526.806 -2.58912 4.58554 0
M  V30 5583 H 529.297 -1.49595 3.4703 0
M  V30 5584 H 529.61 -2.47497 7.32096 0
M  V30 5585 H 527.955 -2.23239 6.58171 0
M  V30 5586 H 531.146 -1.77535 4.33127 0
M  V30 5587 H 531.319 -2.222 6.08713 0
M  V30 5588 N 524.725 -1.39134 -0.740242 0
M  V30 5589 C 525.672 -1.37434 -1.8542 0
M  V30 5590 C 526.642 -0.234822 -1.64432 0
M  V30 5591 O 527.827 -0.429125 -1.85912 0
M  V30 5592 C 524.967 -1.21844 -3.22875 0
M  V30 5593 C 524.08 -2.45296 -3.55603 0
M  V30 5594 C 523.215 -2.22334 -4.82432 0
M  V30 5595 C 522.254 -3.41488 -5.07988 0
M  V30 5596 N 521.391 -3.17877 -6.26018 0
M  V30 5597 H 526.231 -2.3266 -1.86207 0
M  V30 5598 H 523.768 -1.15578 -0.909946 0
M  V30 5599 H 525.726 -1.10818 -4.02213 0
M  V30 5600 H 524.356 -0.3025 -3.21379 0
M  V30 5601 H 523.408 -2.66945 -2.71006 0
M  V30 5602 H 524.72 -3.34063 -3.7041 0
M  V30 5603 H 523.874 -2.0852 -5.69741 0
M  V30 5604 H 522.613 -1.30954 -4.6979 0
M  V30 5605 H 521.618 -3.55807 -4.19144 0
M  V30 5606 H 522.843 -4.33763 -5.22519 0
M  V30 5607 H 520.789 -2.29156 -6.14673 0
M  V30 5608 H 520.706 -4.00198 -6.41387 0
M  V30 5609 H 521.974 -3.07746 -7.16179 0
M  V30 5610 N 526.204 0.969867 -1.24223 0
M  V30 5611 C 527.451 1.71256 -1.08063 0
M  V30 5612 C 527.779 1.90734 0.380872 0
M  V30 5613 O 527.034 1.46469 1.29789 0
M  V30 5614 C 527.333 3.10883 -1.76314 0
M  V30 5615 C 526.999 3.11252 -3.26241 0
M  V30 5616 C 525.661 3.1106 -3.67144 0
M  V30 5617 C 528.013 3.05751 -4.22097 0
M  V30 5618 C 525.341 3.03097 -5.02344 0
M  V30 5619 C 527.693 2.9933 -5.57301 0
M  V30 5620 C 526.357 2.97466 -5.97554 0
M  V30 5621 H 525.627 0.62667 -0.395431 0
M  V30 5622 H 528.274 1.13422 -1.54297 0
M  V30 5623 H 526.579 3.72168 -1.22468 0
M  V30 5624 H 528.276 3.67138 -1.61277 0
M  V30 5625 H 524.866 3.12165 -2.93685 0
M  V30 5626 H 529.05 3.05031 -3.91497 0
M  V30 5627 H 524.306 3.00013 -5.32731 0
M  V30 5628 H 528.48 2.94033 -6.31283 0
M  V30 5629 H 526.107 2.91051 -7.02277 0
M  V30 5630 N 527.682 1.05563 1.17022 0
M  V30 5631 C 528.922 0.777033 1.89054 0
M  V30 5632 C 529.286 -0.683617 1.79418 0
M  V30 5633 O 530.487 -1.07648 2.46303 0
M  V30 5634 C 528.758 1.24886 3.34871 0
M  V30 5635 S 530.317 1.0982 4.24835 0
M  V30 5636 H 527.135 0.282082 0.652649 0
M  V30 5637 H 529.737 1.35103 1.41306 0
M  V30 5638 H 528.441 2.30699 3.3942 0
M  V30 5639 H 527.972 0.669292 3.87665 0
M  V30 5640 H 529.987 0.02462 4.96194 0
M  V30 5641 N 529.16 -1.33526 0.837174 0
M  V30 5642 C 530.092 -2.28077 0.226579 0
M  V30 5643 C 531.105 -1.51666 -0.591717 0
M  V30 5644 O 532.294 -1.73511 -0.419064 0
M  V30 5645 C 529.394 -3.31597 -0.69978 0
M  V30 5646 C 528.567 -4.37329 0.0788067 0
M  V30 5647 C 527.626 -5.20526 -0.770637 0
M  V30 5648 O 526.652 -5.68811 -0.210453 0
M  V30 5649 N 527.854 -5.41639 -2.08825 0
M  V30 5650 H 530.619 -2.81115 1.03897 0
M  V30 5651 H 528.18 -1.46201 0.695476 0
M  V30 5652 H 530.172 -3.84158 -1.27298 0
M  V30 5653 H 528.742 -2.78848 -1.41288 0
M  V30 5654 H 527.962 -3.8529 0.833381 0
M  V30 5655 H 529.25 -5.05079 0.614238 0
M  V30 5656 H 528.648 -5.04108 -2.56693 0
M  V30 5657 H 527.205 -5.97263 -2.60998 0
M  V30 5658 N 530.638 -0.59345 -1.46 0
M  V30 5659 C 531.887 -0.0808084 -2.01538 0
M  V30 5660 C 532.2 1.29112 -1.46934 0
M  V30 5661 O 533.406 1.8957 -1.94359 0
M  V30 5662 C 531.862 -0.0938311 -3.59778 0
M  V30 5663 C 531.47 -1.46474 -4.23379 0
M  V30 5664 C 533.214 0.364306 -4.22934 0
M  V30 5665 C 531.121 -1.4349 -5.73729 0
M  V30 5666 H 530.051 -0.0264407 -0.753536 0
M  V30 5667 H 532.702 -0.746689 -1.67621 0
M  V30 5668 H 531.084 0.638427 -3.9082 0
M  V30 5669 H 532.258 -2.21758 -4.03931 0
M  V30 5670 H 530.573 -1.86379 -3.7236 0
M  V30 5671 H 533.17 0.405584 -5.3316 0
M  V30 5672 H 533.513 1.38409 -3.92618 0
M  V30 5673 H 534.046 -0.31423 -3.96557 0
M  V30 5674 H 530.785 -2.43184 -6.08722 0
M  V30 5675 H 530.305 -0.724431 -5.95409 0
M  V30 5676 H 531.984 -1.15243 -6.36654 0
M  V30 5677 N 532.116 1.54067 -0.331816 0
M  V30 5678 C 533.532 1.59587 0.0205388 0
M  V30 5679 C 533.732 1.34813 1.49759 0
M  V30 5680 O 532.788 1.13661 2.25471 0
M  V30 5681 C 534.101 2.97959 -0.405103 0
M  V30 5682 C 535.649 3.10964 -0.356454 0
M  V30 5683 C 536.124 4.51694 -0.757384 0
M  V30 5684 N 537.615 4.57709 -0.71111 0
M  V30 5685 C 538.35 5.64729 -0.993427 0
M  V30 5686 N 537.846 6.79652 -1.3433 0
M  V30 5687 N 539.639 5.54546 -0.918442 0
M  V30 5688 H 531.79 1.68426 -1.29407 0
M  V30 5689 H 534.053 0.78819 -0.526745 0
M  V30 5690 H 533.759 3.21115 -1.43451 0
M  V30 5691 H 533.633 3.76524 0.225692 0
M  V30 5692 H 536.02 2.87538 0.663763 0
M  V30 5693 H 536.101 2.34484 -1.02229 0
M  V30 5694 H 535.745 4.75853 -1.77555 0
M  V30 5695 H 535.675 5.26555 -0.0691444 0
M  V30 5696 H 538.166 3.75176 -0.452883 0
M  V30 5697 H 538.479 7.57221 -1.54388 0
M  V30 5698 H 536.824 6.81128 -1.38164 0
M  V30 5699 H 540.015 4.63641 -0.644536 0
M  V30 5700 H 540.188 6.37861 -1.14181 0
M  V30 5701 N 533.594 0.0601682 1.57485 0
M  V30 5702 C 534.824 -0.620037 1.97076 0
M  V30 5703 C 535.232 -1.64381 0.936784 0
M  V30 5704 O 534.575 -1.83497 -0.0863377 0
M  V30 5705 C 534.637 -1.35617 3.32939 0
M  V30 5706 C 534.301 -0.487208 4.54396 0
M  V30 5707 C 535.298 0.250428 5.19297 0
M  V30 5708 C 532.983 -0.415494 5.00579 0
M  V30 5709 C 534.977 1.04812 6.28723 0
M  V30 5710 C 532.664 0.385879 6.0988 0
M  V30 5711 C 533.662 1.11637 6.73815 0
M  V30 5712 O 533.35 1.90454 7.81014 0
M  V30 5713 H 533.082 -0.173664 0.653312 0
M  V30 5714 H 535.636 0.1256 2.05016 0
M  V30 5715 H 533.866 -2.14763 3.2158 0
M  V30 5716 H 535.555 -1.92749 3.57215 0
M  V30 5717 H 536.321 0.204546 4.84568 0
M  V30 5718 H 532.2 -0.973679 4.506 0
M  V30 5719 H 535.744 1.6188 6.78558 0
M  V30 5720 H 531.641 0.433366 6.44044 0
M  V30 5721 H 532.409 1.82762 7.97835 0
M  V30 5722 N 535.072 -1.5615 -0.213296 0
M  V30 5723 C 536.022 -1.89485 -1.26804 0
M  V30 5724 C 537.006 -0.758713 -1.41889 0
M  V30 5725 O 538.198 -1.02127 -1.44565 0
M  V30 5726 C 535.327 -2.22219 -2.61675 0
M  V30 5727 C 534.413 -3.42245 -2.50458 0
M  V30 5728 N 534.804 -4.60645 -2.089 0
M  V30 5729 C 533.102 -3.46023 -2.81397 0
M  V30 5730 C 533.803 -5.42805 -2.09135 0
M  V30 5731 N 532.779 -4.82732 -2.49941 0
M  V30 5732 H 536.581 -2.78537 -0.937771 0
M  V30 5733 H 534.095 -1.56826 -0.421824 0
M  V30 5734 H 536.092 -2.44278 -3.37837 0
M  V30 5735 H 534.752 -1.34484 -2.95541 0
M  V30 5736 H 535.763 -4.85651 -1.79899 0
M  V30 5737 H 532.44 -2.68654 -3.1958 0
M  V30 5738 H 533.83 -6.47601 -1.79059 0
M  V30 5739 N 536.55 0.480323 -1.50102 0
M  V30 5740 C 537.778 1.25657 -1.64371 0
M  V30 5741 C 538.193 1.86011 -0.323316 0
M  V30 5742 O 537.55 1.68803 0.693682 0
M  V30 5743 C 537.601 2.37197 -2.728 0
M  V30 5744 O 537.322 1.7932 -3.9972 0
M  V30 5745 C 538.823 3.2823 -2.9796 0
M  V30 5746 H 536.043 0.380369 -0.552775 0
M  V30 5747 H 538.587 0.574379 -1.96268 0
M  V30 5748 H 536.742 3.01208 -2.43623 0
M  V30 5749 H 537.156 2.52701 -4.59611 0
M  V30 5750 H 538.63 4.02725 -3.77513 0
M  V30 5751 H 539.107 3.86462 -2.08671 0
M  V30 5752 H 539.713 2.69964 -3.28633 0
M  V30 5753 N 538.028 1.39524 0.732853 0
M  V30 5754 C 538.976 1.38563 1.86824 0
M  V30 5755 C 539.97 0.268467 1.67259 0
M  V30 5756 O 541.176 0.438613 1.74574 0
M  V30 5757 H 537.551 0.432737 0.615014 0
M  V30 5758 H 539.522 2.34328 1.84751 0
M  V30 5759 C 538.271 1.2481 3.24527 0
M  V30 5760 H 537.594 2.10044 3.40179 0
M  V30 5761 H 539.034 1.28194 4.04156 0
M  V30 5762 C 537.493 -0.0432825 3.36872 0
M  V30 5763 O 538.023 -1.01268 3.88726 0
M  V30 5764 N 536.229 -0.107055 2.90403 0
M  V30 5765 H 535.776 0.682512 2.48394 0
M  V30 5766 H 535.734 -0.970618 2.99042 0
M  V30 5767 N 539.506 -0.963266 1.24736 0
M  V30 5768 C 540.454 -2.07985 1.04139 0
M  V30 5769 C 541.448 -1.69381 -0.0250556 0
M  V30 5770 O 542.654 -1.79531 0.129863 0
M  V30 5771 H 539.029 -0.680627 0.319768 0
M  V30 5772 H 541 -2.22517 1.98818 0
M  V30 5773 C 539.749 -3.4123 0.667615 0
M  V30 5774 H 539.072 -3.71397 1.48 0
M  V30 5775 H 540.512 -4.20244 0.563136 0
M  V30 5776 C 538.971 -3.3104 -0.625647 0
M  V30 5777 O 539.501 -3.65334 -1.67016 0
M  V30 5778 N 537.707 -2.84168 -0.608033 0
M  V30 5779 H 537.254 -2.56458 0.242323 0
M  V30 5780 H 537.212 -2.77732 -1.47352 0
M  V30 5781 N 540.985 -1.06182 -1.16461 0
M  V30 5782 C 542.215 -0.797425 -1.9059 0
M  V30 5783 C 542.623 0.651845 -1.77616 0
M  V30 5784 O 541.966 1.45788 -1.11766 0
M  V30 5785 C 542.028 -1.11128 -3.41893 0
M  V30 5786 C 541.692 -2.55874 -3.78652 0
M  V30 5787 C 542.689 -3.54104 -3.80665 0
M  V30 5788 C 540.374 -2.91144 -4.09317 0
M  V30 5789 C 542.368 -4.85645 -4.12829 0
M  V30 5790 C 540.055 -4.22885 -4.41148 0
M  V30 5791 C 541.053 -5.19945 -4.42883 0
M  V30 5792 O 540.741 -6.49322 -4.73959 0
M  V30 5793 H 540.473 -0.288709 -0.611247 0
M  V30 5794 H 543.027 -1.41841 -1.4856 0
M  V30 5795 H 541.257 -0.433217 -3.84266 0
M  V30 5796 H 542.946 -0.831306 -3.97296 0
M  V30 5797 H 543.712 -3.28197 -3.57088 0
M  V30 5798 H 539.591 -2.16252 -4.07131 0
M  V30 5799 H 543.135 -5.61398 -4.14099 0
M  V30 5800 H 539.032 -4.48551 -4.6419 0
M  V30 5801 H 539.8 -6.54294 -4.91774 0
M  V30 5802 N 542.463 1.3308 -0.844243 0
M  V30 5803 C 543.426 2.27403 -0.286485 0
M  V30 5804 C 544.426 1.51179 0.547872 0
M  V30 5805 O 545.616 1.70421 0.360886 0
M  V30 5806 C 542.748 3.35653 0.595813 0
M  V30 5807 H 543.941 2.78248 -1.11885 0
M  V30 5808 H 541.494 1.43574 -0.617749 0
M  V30 5809 H 542.229 2.90058 1.4504 0
M  V30 5810 H 542.014 3.921 -0.00125994 0
M  V30 5811 H 543.504 4.05958 0.979168 0
M  V30 5812 N 543.941 0.601185 1.45683 0
M  V30 5813 C 545.166 0.0982245 2.07167 0
M  V30 5814 C 545.591 -1.20546 1.44396 0
M  V30 5815 O 544.949 -1.73247 0.534347 0
M  V30 5816 C 544.997 -0.0346976 3.60583 0
M  V30 5817 O 544.101 -1.08657 3.97828 0
M  V30 5818 H 543.442 0.0711618 0.660176 0
M  V30 5819 H 545.972 0.829376 1.87036 0
M  V30 5820 H 545.982 -0.234969 4.07323 0
M  V30 5821 H 544.657 0.917265 4.05659 0
M  V30 5822 H 543.234 -0.863275 3.6277 0
M  V30 5823 N 545.419 -1.53889 0.339982 0
M  V30 5824 C 546.644 -2.05741 -0.261798 0
M  V30 5825 C 547.069 -1.21354 -1.43718 0
M  V30 5826 O 546.427 -0.22645 -1.7988 0
M  V30 5827 C 546.475 -3.54542 -0.658228 0
M  V30 5828 O 545.579 -3.7302 -1.75869 0
M  V30 5829 H 544.92 -0.662529 -0.0441672 0
M  V30 5830 H 547.45 -1.98568 0.493161 0
M  V30 5831 H 547.46 -3.9711 -0.936368 0
M  V30 5832 H 546.135 -4.15412 0.201358 0
M  V30 5833 H 544.712 -3.42355 -1.47809 0
M  V30 5834 N 546.897 -0.0685191 -1.57451 0
M  V30 5835 C 548.122 0.613919 -1.98106 0
M  V30 5836 C 548.547 1.62551 -0.946501 0
M  V30 5837 O 547.905 1.81085 0.0882824 0
M  V30 5838 C 547.953 1.26189 -3.378 0
M  V30 5839 O 547.057 2.37773 -3.36954 0
M  V30 5840 H 546.398 0.158163 -0.644888 0
M  V30 5841 H 548.928 -0.142063 -2.04106 0
M  V30 5842 H 548.938 1.60951 -3.74912 0
M  V30 5843 H 547.613 0.520625 -4.12629 0
M  V30 5844 H 546.19 2.04829 -3.11608 0
M  V30 5845 N 548.375 1.56261 0.205012 0
M  V30 5846 C 549.603 1.84141 0.943386 0
M  V30 5847 C 550.018 0.649772 1.77266 0
M  V30 5848 O 549.375 -0.381612 1.78466 0
M  V30 5849 C 549.426 3.10719 1.84759 0
M  V30 5850 O 549.147 4.25286 1.05181 0
M  V30 5851 C 550.648 3.51706 2.69848 0
M  V30 5852 H 547.868 0.611734 0.275721 0
M  V30 5853 H 550.412 2.03364 0.215253 0
M  V30 5854 H 548.567 2.93422 2.52947 0
M  V30 5855 H 548.981 4.97301 1.66709 0
M  V30 5856 H 550.455 4.43266 3.28967 0
M  V30 5857 H 550.932 2.7423 3.43067 0
M  V30 5858 H 551.538 3.71499 2.07047 0
M  V30 5859 N 549.853 -0.472356 1.50355 0
M  V30 5860 C 551.078 -1.25251 1.65309 0
M  V30 5861 C 551.503 -1.85081 0.335643 0
M  V30 5862 O 550.861 -1.67227 -0.700335 0
M  V30 5863 C 550.909 -2.3379 2.74544 0
M  V30 5864 O 550.013 -3.38401 2.35709 0
M  V30 5865 H 549.354 -0.368539 0.552336 0
M  V30 5866 H 551.884 -0.562271 1.96722 0
M  V30 5867 H 551.894 -2.79121 2.97583 0
M  V30 5868 H 550.569 -1.89614 3.70161 0
M  V30 5869 H 549.146 -2.9879 2.23112 0
M  V30 5870 N 551.331 -1.39911 -0.725443 0
M  V30 5871 C 552.261 -1.42138 -1.85254 0
M  V30 5872 C 553.242 -0.283513 -1.67721 0
M  V30 5873 O 554.427 -0.490717 -1.87898 0
M  V30 5874 C 551.557 -1.27354 -3.23107 0
M  V30 5875 C 550.511 -2.3864 -3.55296 0
M  V30 5876 C 549.837 -2.08939 -4.92188 0
M  V30 5877 C 551.137 -3.8097 -3.57295 0
M  V30 5878 H 552.831 -2.36461 -1.83648 0
M  V30 5879 H 550.377 -1.13817 -0.882138 0
M  V30 5880 H 552.33 -1.2753 -4.01639 0
M  V30 5881 H 551.054 -0.295025 -3.25265 0
M  V30 5882 H 549.713 -2.37696 -2.79099 0
M  V30 5883 H 549.361 -1.09502 -4.90936 0
M  V30 5884 H 549.061 -2.83491 -5.14691 0
M  V30 5885 H 550.585 -2.10781 -5.73065 0
M  V30 5886 H 551.999 -3.8379 -4.25885 0
M  V30 5887 H 550.396 -4.5496 -3.9132 0
M  V30 5888 H 551.466 -4.11261 -2.5689 0
M  V30 5889 N 552.809 0.956637 -1.25245 0
M  V30 5890 C 554.22 1.51569 -1.09012 0
M  V30 5891 C 554.571 1.93322 0.334813 0
M  V30 5892 O 553.696 1.78421 1.22454 0
M  V30 5893 C 554.291 2.75444 -1.97271 0
M  V30 5894 C 552.85 3.27669 -1.8523 0
M  V30 5895 C 551.997 2.00517 -1.91542 0
M  V30 5896 H 554.948 0.773746 -1.3856 0
M  V30 5897 H 554.969 3.4919 -1.51151 0
M  V30 5898 H 554.481 2.45024 -3.00973 0
M  V30 5899 H 552.582 3.62914 -0.844045 0
M  V30 5900 H 552.695 3.9582 -2.69932 0
M  V30 5901 H 551.059 2.15727 -1.35404 0
M  V30 5902 H 551.842 1.72448 -2.96844 0
M  V30 5903 N 554.287 1.06798 1.15896 0
M  V30 5904 C 555.527 0.797041 1.8822 0
M  V30 5905 C 555.891 -0.664549 1.80133 0
M  V30 5906 O 557.092 -1.0503 2.47431 0
M  V30 5907 C 555.363 1.28431 3.33527 0
M  V30 5908 S 556.922 1.14319 4.23647 0
M  V30 5909 H 553.74 0.288988 0.649621 0
M  V30 5910 H 556.342 1.36594 1.39865 0
M  V30 5911 H 555.046 2.34286 3.36954 0
M  V30 5912 H 554.577 0.710371 3.86933 0
M  V30 5913 H 556.592 0.0772467 4.9614 0
M  V30 5914 N 555.766 -1.3263 0.851289 0
M  V30 5915 C 556.698 -2.27824 0.250757 0
M  V30 5916 C 557.711 -1.52285 -0.575598 0
M  V30 5917 O 558.9 -1.73946 -0.400638 0
M  V30 5918 C 556 -3.3232 -0.664571 0
M  V30 5919 C 555.173 -4.37221 0.125187 0
M  V30 5920 C 554.232 -5.21314 -0.715385 0
M  V30 5921 O 553.258 -5.69002 -0.150111 0
M  V30 5922 N 554.46 -5.43823 -2.03069 0
M  V30 5923 H 557.225 -2.79997 1.06873 0
M  V30 5924 H 554.786 -1.45455 0.710943 0
M  V30 5925 H 556.778 -3.85486 -1.23216 0
M  V30 5926 H 555.348 -2.80331 -1.38323 0
M  V30 5927 H 554.568 -3.84384 0.874199 0
M  V30 5928 H 555.856 -5.04399 0.667774 0
M  V30 5929 H 555.254 -5.06803 -2.51332 0
M  V30 5930 H 553.811 -5.99998 -2.54648 0
M  V30 5931 N 557.244 -0.608902 -1.45362 0
M  V30 5932 C 558.484 -0.10763 -2.04116 0
M  V30 5933 C 558.848 1.23883 -1.46686 0
M  V30 5934 O 560.049 1.83091 -1.96803 0
M  V30 5935 C 558.32 -0.0703351 -3.57331 0
M  V30 5936 S 559.879 0.369554 -4.37241 0
M  V30 5937 H 556.697 -0.0502123 -0.709225 0
M  V30 5938 H 559.299 -0.8073 -1.78053 0
M  V30 5939 H 558.003 -1.05379 -3.9664 0
M  V30 5940 H 557.534 0.651287 -3.87971 0
M  V30 5941 H 559.549 1.61878 -4.69052 0
M  V30 5942 N 558.722 1.53707 -0.348139 0
M  V30 5943 C 559.947 2.05877 0.250883 0
M  V30 5944 C 560.372 1.22115 1.43072 0
M  V30 5945 O 559.73 0.235986 1.79758 0
M  V30 5946 C 559.778 3.54886 0.639416 0
M  V30 5947 O 558.882 3.73948 1.73888 0
M  V30 5948 H 558.223 0.662754 0.040653 0
M  V30 5949 H 560.753 1.98303 -0.503685 0
M  V30 5950 H 560.763 3.97601 0.915295 0
M  V30 5951 H 559.438 4.153 -0.223386 0
M  V30 5952 H 558.015 3.43134 1.45991 0
M  V30 5953 N 560.2 0.0768682 1.57412 0
M  V30 5954 C 561.425 -0.603404 1.98428 0
M  V30 5955 C 561.85 -1.62047 0.955108 0
M  V30 5956 O 561.208 -1.81129 -0.0786778 0
M  V30 5957 C 561.256 -1.24396 3.38464 0
M  V30 5958 O 560.36 -2.35982 3.3821 0
M  V30 5959 H 559.701 -0.154741 0.645718 0
M  V30 5960 H 562.231 0.152885 2.04028 0
M  V30 5961 H 562.241 -1.5896 3.7576 0
M  V30 5962 H 560.916 -0.498735 4.12899 0
M  V30 5963 H 559.493 -2.03173 3.1269 0
M  V30 5964 N 561.678 -1.56367 -0.196722 0
M  V30 5965 C 562.906 -1.84639 -0.933608 0
M  V30 5966 C 563.321 -0.659164 -1.76919 0
M  V30 5967 O 562.678 0.372142 -1.78665 0
M  V30 5968 C 562.729 -3.11694 -1.83109 0
M  V30 5969 O 562.45 -4.25838 -1.02924 0
M  V30 5970 C 563.951 -3.53132 -2.67979 0
M  V30 5971 H 561.171 -0.613188 -0.272473 0
M  V30 5972 H 563.715 -2.03475 -0.204465 0
M  V30 5973 H 561.87 -2.94759 -2.51387 0
M  V30 5974 H 562.284 -4.98178 -1.64069 0
M  V30 5975 H 563.758 -4.45005 -3.26611 0
M  V30 5976 H 564.235 -2.76045 -3.41608 0
M  V30 5977 H 564.841 -3.72592 -2.05074 0
M  V30 5978 N 563.156 0.464375 -1.50603 0
M  V30 5979 C 564.086 1.56944 -1.72889 0
M  V30 5980 C 565.067 1.59979 -0.577997 0
M  V30 5981 O 566.252 1.76138 -0.817855 0
M  V30 5982 C 563.382 2.95225 -1.8292 0
M  V30 5983 C 562.336 3.07056 -2.98162 0
M  V30 5984 C 561.662 4.47051 -2.93343 0
M  V30 5985 C 562.962 2.83648 -4.38567 0
M  V30 5986 H 564.656 1.38547 -2.65415 0
M  V30 5987 H 562.202 0.665082 -1.27721 0
M  V30 5988 H 564.155 3.72467 -1.97095 0
M  V30 5989 H 562.879 3.14793 -0.870209 0
M  V30 5990 H 561.538 2.32248 -2.83648 0
M  V30 5991 H 561.186 4.63547 -1.95276 0
M  V30 5992 H 560.886 4.55902 -3.70712 0
M  V30 5993 H 562.41 5.26304 -3.09575 0
M  V30 5994 H 563.824 3.50636 -4.53572 0
M  V30 5995 H 562.221 3.03937 -5.17438 0
M  V30 5996 H 563.291 1.79451 -4.50472 0
M  V30 5997 N 564.634 1.40294 0.718013 0
M  V30 5998 C 565.567 1.34767 1.84155 0
M  V30 5999 C 566.545 0.218455 1.61126 0
M  V30 6000 O 567.729 0.401716 1.8417 0
M  V30 6001 C 564.856 1.09676 3.20451 0
M  V30 6002 C 563.902 2.25016 3.62312 0
M  V30 6003 S 564.735 3.87397 3.69707 0
M  V30 6004 C 565.891 3.64565 5.08766 0
M  V30 6005 H 566.124 2.29851 1.88562 0
M  V30 6006 H 563.657 1.2655 0.884555 0
M  V30 6007 H 565.615 0.95885 3.99144 0
M  V30 6008 H 564.276 0.162502 3.13679 0
M  V30 6009 H 563.469 2.03097 4.61268 0
M  V30 6010 H 563.071 2.35098 2.90869 0
M  V30 6011 H 565.363 3.22882 5.95612 0
M  V30 6012 H 566.306 4.63043 5.35721 0
M  V30 6013 H 566.714 2.98303 4.79245 0
M  V30 6014 N 566.112 -0.949982 1.2575 0
M  V30 6015 C 567.358 -1.69822 1.11947 0
M  V30 6016 C 567.713 -1.89455 -0.335334 0
M  V30 6017 O 567.006 -1.45778 -1.24336 0
M  V30 6018 C 567.2 -3.08039 1.81237 0
M  V30 6019 C 567.029 -3.0189 3.33305 0
M  V30 6020 C 565.799 -3.05391 4.02573 0
M  V30 6021 C 567.997 -2.827 4.29634 0
M  V30 6022 N 565.979 -2.89449 5.4138 0
M  V30 6023 C 567.35 -2.75237 5.55558 0
M  V30 6024 C 569.405 -2.67416 4.19992 0
M  V30 6025 C 568.108 -2.54051 6.72942 0
M  V30 6026 C 570.134 -2.47602 5.37073 0
M  V30 6027 C 569.496 -2.40863 6.6194 0
M  V30 6028 H 565.595 -0.629188 0.464378 0
M  V30 6029 H 568.179 -1.1249 1.58916 0
M  V30 6030 H 566.35 -3.63528 1.36756 0
M  V30 6031 H 568.082 -3.71671 1.60134 0
M  V30 6032 H 564.837 -3.14763 3.53866 0
M  V30 6033 H 565.261 -2.84669 6.14241 0
M  V30 6034 H 569.903 -2.71398 3.24196 0
M  V30 6035 H 567.621 -2.48811 7.68842 0
M  V30 6036 H 571.207 -2.36694 5.31477 0
M  V30 6037 H 570.087 -2.25732 7.51009 0
M  V30 6038 N 567.59 -1.07411 -1.15328 0
M  V30 6039 C 568.815 -0.818856 -1.90551 0
M  V30 6040 C 569.24 0.622194 -1.77512 0
M  V30 6041 O 568.598 1.43484 -1.10824 0
M  V30 6042 C 568.646 -1.23267 -3.38877 0
M  V30 6043 O 567.75 -0.378345 -4.10661 0
M  V30 6044 H 567.091 -0.29827 -0.593238 0
M  V30 6045 H 569.621 -1.43289 -1.46046 0
M  V30 6046 H 569.631 -1.20912 -3.89672 0
M  V30 6047 H 568.306 -2.28226 -3.47686 0
M  V30 6048 H 566.883 -0.464437 -3.69996 0
M  V30 6049 N 569.068 1.32177 -0.85831 0
M  V30 6050 C 570.345 1.91781 -0.384624 0
M  V30 6051 C 570.725 1.78171 1.13217 0
M  V30 6052 O 570.073 1.18209 1.95548 0
M  V30 6053 C 570.283 3.38414 -0.853047 0
M  V30 6054 C 571.631 4.15542 -0.872359 0
M  V30 6055 O 572.655 3.47148 -0.797926 0
M  V30 6056 O 571.514 5.37678 -0.978009 0
M  V30 6057 H 568.608 0.819259 -0.112886 0
M  V30 6058 H 571.154 1.40923 -0.945453 0
M  V30 6059 H 569.926 3.4228 -1.89632 0
M  V30 6060 H 569.549 3.96683 -0.269874 0
M  V30 6061 N 570.547 0.616602 1.45037 0
M  V30 6062 C 571.497 -0.118543 2.27692 0
M  V30 6063 C 572.481 -0.830025 1.37838 0
M  V30 6064 O 573.673 -0.718528 1.6176 0
M  V30 6065 C 570.802 -1.10924 3.24886 0
M  V30 6066 C 569.888 -0.398134 4.22227 0
M  V30 6067 N 570.279 0.565233 5.02632 0
M  V30 6068 C 568.577 -0.644506 4.41319 0
M  V30 6069 C 569.278 0.984043 5.73316 0
M  V30 6070 N 568.254 0.325879 5.42622 0
M  V30 6071 H 572.056 0.621239 2.87259 0
M  V30 6072 H 569.57 0.440968 1.56299 0
M  V30 6073 H 571.567 -1.65038 3.82842 0
M  V30 6074 H 570.227 -1.84948 2.66879 0
M  V30 6075 H 571.238 0.942395 5.09254 0
M  V30 6076 H 567.915 -1.36873 3.94426 0
M  V30 6077 H 569.305 1.77911 6.47918 0
M  V30 6078 N 572.025 -1.5352 0.356285 0
M  V30 6079 C 572.955 -2.28372 -0.486661 0
M  V30 6080 C 573.936 -1.30432 -1.09185 0
M  V30 6081 O 575.121 -1.59291 -1.11085 0
M  V30 6082 C 572.251 -3.06604 -1.63129 0
M  V30 6083 C 571.205 -4.12154 -1.15381 0
M  V30 6084 C 570.531 -4.78415 -2.38796 0
M  V30 6085 C 571.831 -5.21724 -0.245179 0
M  V30 6086 H 573.525 -2.99083 0.137797 0
M  V30 6087 H 571.071 -1.43841 0.0677134 0
M  V30 6088 H 573.024 -3.57712 -2.22755 0
M  V30 6089 H 571.748 -2.33568 -2.28284 0
M  V30 6090 H 570.407 -3.61978 -0.580294 0
M  V30 6091 H 570.055 -4.01959 -3.02387 0
M  V30 6092 H 569.755 -5.49734 -2.07524 0
M  V30 6093 H 571.279 -5.32313 -2.99125 0
M  V30 6094 H 572.693 -5.68391 -0.748646 0
M  V30 6095 H 571.09 -6.00095 -0.0237608 0
M  V30 6096 H 572.16 -4.79596 0.715229 0
M  V30 6097 N 573.503 -0.0852151 -1.57369 0
M  V30 6098 C 574.413 0.891712 -2.16992 0
M  V30 6099 C 575.429 1.3174 -1.13669 0
M  V30 6100 O 576.605 1.38735 -1.45995 0
M  V30 6101 C 573.67 2.13635 -2.73059 0
M  V30 6102 C 572.731 1.7658 -3.91303 0
M  V30 6103 C 571.964 2.95111 -4.44686 0
M  V30 6104 O 572.187 4.09539 -3.97032 0
M  V30 6105 O 571.121 2.74149 -5.35841 0
M  V30 6106 H 574.947 0.414477 -3.00858 0
M  V30 6107 H 572.532 0.138598 -1.48756 0
M  V30 6108 H 574.414 2.86595 -3.08935 0
M  V30 6109 H 573.089 2.6043 -1.92244 0
M  V30 6110 H 571.996 1.00831 -3.60255 0
M  V30 6111 H 573.329 1.34557 -4.7345 0
M  V30 6112 N 574.981 1.5647 0.188427 0
M  V30 6113 C 576.397 1.50204 0.539532 0
M  V30 6114 C 576.597 0.78644 1.85519 0
M  V30 6115 O 575.653 0.339714 2.50204 0
M  V30 6116 C 576.966 2.94893 0.588103 0
M  V30 6117 C 578.514 3.05602 0.67648 0
M  V30 6118 C 578.989 4.51716 0.756101 0
M  V30 6119 N 580.48 4.55894 0.819451 0
M  V30 6120 C 581.215 5.66272 0.90134 0
M  V30 6121 N 580.711 6.86323 0.945118 0
M  V30 6122 N 582.504 5.54201 0.939043 0
M  V30 6123 H 574.655 2.01406 -0.674493 0
M  V30 6124 H 576.918 0.916828 -0.241103 0
M  V30 6125 H 576.624 3.50334 -0.309633 0
M  V30 6126 H 576.498 3.4861 1.44051 0
M  V30 6127 H 578.885 2.50206 1.56465 0
M  V30 6128 H 578.966 2.54999 -0.202262 0
M  V30 6129 H 578.61 5.07739 -0.12774 0
M  V30 6130 H 578.54 5.00058 1.65074 0
M  V30 6131 H 581.031 3.69452 0.794594 0
M  V30 6132 H 581.344 7.66194 1.0083 0
M  V30 6133 H 579.689 6.88968 0.913683 0
M  V30 6134 H 582.88 4.59333 0.901725 0
M  V30 6135 H 583.053 6.40247 0.999402 0
M  V30 6136 O 576.498 -0.333583 1.58017 0
M  V30 6137 H 577.189 -0.982643 1.66925 0
M  V30 END ATOM
M  V30 BEGIN BOND
M  V30 END BOND
M  V30 END CTAB
M  END
$$$$
