drugbank_drug|DB06681  sequence for belatacept
 OpenBabel12092119123D

  0  0  0     0  0            999 V3000
M  V30 BEGIN CTAB
M  V30 COUNTS 5500 5571 0 0 0
M  V30 BEGIN ATOM
M  V30 1 H -0.908 1.98254 -0.117106 0
M  V30 2 N 0 1.576 0 0
M  V30 3 C 0.933 2.03868 1.02534 0
M  V30 4 C 1.911 0.928543 1.3348 0
M  V30 5 O 3.095 1.19667 1.45644 0
M  V30 6 C 0.222 2.43627 2.35294 0
M  V30 7 C -0.732 3.65373 2.2001 0
M  V30 8 S 0.101 5.13292 1.52614 0
M  V30 9 C 1.257 5.56322 2.86805 0
M  V30 10 H 1.49 2.90518 0.631377 0
M  V30 11 H -0.977 1.52953 0.210867 0
M  V30 12 H 0.981 2.67203 3.11629 0
M  V30 13 H -0.358 1.57376 2.7183 0
M  V30 14 H -1.165 3.90944 3.18086 0
M  V30 15 H -1.563 3.418 1.51819 0
M  V30 16 H 0.729 5.58782 3.83104 0
M  V30 17 H 1.672 6.56266 2.65933 0
M  V30 18 H 2.08 4.83886 2.90714 0
M  V30 19 N 1.4781 -0.272755 1.55222 0
M  V30 20 C 2.4281 -1.33946 1.84506 0
M  V30 21 C 3.4121 -1.44682 0.70399 0
M  V30 22 O 4.6041 -1.48358 0.965338 0
M  V30 23 C 1.7331 -2.69968 2.12067 0
M  V30 24 C 0.8191 -2.63341 3.32434 0
M  V30 25 N 1.2101 -2.26335 4.52334 0
M  V30 26 C -0.4919 -2.94402 3.35028 0
M  V30 27 C 0.2091 -2.29705 5.34425 0
M  V30 28 N -0.8149 -2.68188 4.72838 0
M  V30 29 H 2.9871 -1.04343 2.74754 0
M  V30 30 H 0.5011 -0.481389 1.55101 0
M  V30 31 H 2.4981 -3.46916 2.31202 0
M  V30 32 H 1.1581 -3.00459 1.23103 0
M  V30 33 H 2.1691 -1.98309 4.78429 0
M  V30 34 H -1.1539 -3.29603 2.56257 0
M  V30 35 H 0.2361 -2.03653 6.40293 0
M  V30 36 N 2.9562 -1.48159 -0.537278 0
M  V30 37 C 4.2022 -1.56035 -1.29541 0
M  V30 38 C 4.5352 -0.230377 -1.92829 0
M  V30 39 O 3.8102 0.762952 -1.78911 0
M  V30 40 C 4.0932 -2.69323 -2.39034 0
M  V30 41 C 3.9462 -4.12002 -1.80485 0
M  V30 42 C 5.2652 -2.78408 -3.40847 0
M  V30 43 H 2.3842 -0.567992 -0.469632 0
M  V30 44 H 5.0262 -1.80302 -0.599277 0
M  V30 45 H 3.1762 -2.48763 -2.98412 0
M  V30 46 H 4.8482 -4.43981 -1.25215 0
M  V30 47 H 3.0912 -4.19344 -1.11055 0
M  V30 48 H 3.7622 -4.87077 -2.59731 0
M  V30 49 H 6.2382 -2.97012 -2.91416 0
M  V30 50 H 5.1142 -3.59416 -4.14863 0
M  V30 51 H 5.3752 -1.86269 -4.00944 0
M  V30 52 N 4.4343 0.785586 -1.36625 0
M  V30 53 C 5.3973 1.87999 -1.31107 0
M  V30 54 C 6.3973 1.59316 -0.217959 0
M  V30 55 O 7.5873 1.67656 -0.472977 0
M  V30 56 C 4.7193 3.24861 -1.03334 0
M  V30 57 H 5.9123 1.94307 -2.2844 0
M  V30 58 H 3.4653 0.983813 -1.21453 0
M  V30 59 H 4.2003 3.24235 -0.0647432 0
M  V30 60 H 3.9853 3.4707 -1.82441 0
M  V30 61 H 5.4753 4.04929 -1.02088 0
M  V30 62 N 5.9124 1.20967 1.01018 0
M  V30 63 C 6.8444 0.922059 2.09835 0
M  V30 64 C 7.8574 -0.0927106 1.62536 0
M  V30 65 O 9.0464 0.139127 1.77957 0
M  V30 66 C 6.1464 0.362004 3.36961 0
M  V30 67 C 5.3194 1.42986 4.13369 0
M  V30 68 C 4.3784 0.879976 5.1879 0
M  V30 69 O 3.4044 1.56219 5.47343 0
M  V30 70 N 4.6064 -0.307396 5.79686 0
M  V30 71 H 7.3714 1.8588 2.35093 0
M  V30 72 H 4.9324 1.11422 1.1746 0
M  V30 73 H 6.9244 -0.0201474 4.04695 0
M  V30 74 H 5.4944 -0.479437 3.08902 0
M  V30 75 H 4.7144 1.98608 3.40512 0
M  V30 76 H 6.0024 2.14885 4.61196 0
M  V30 77 H 5.4004 -0.878796 5.58832 0
M  V30 78 H 3.9574 -0.631115 6.48737 0
M  V30 79 N 7.3905 -1.2043 1.01659 0
M  V30 80 C 8.8015 -1.71517 0.737482 0
M  V30 81 C 9.1525 -1.81547 -0.743973 0
M  V30 82 O 8.2775 -1.47803 -1.58061 0
M  V30 83 C 8.8725 -3.11515 1.33206 0
M  V30 84 C 7.4315 -3.59912 1.10183 0
M  V30 85 C 6.5785 -2.37116 1.43776 0
M  V30 86 H 9.5295 -1.05444 1.18606 0
M  V30 87 H 9.5505 -3.73575 0.722636 0
M  V30 88 H 9.0625 -3.04182 2.41028 0
M  V30 89 H 7.1635 -3.72577 0.0412756 0
M  V30 90 H 7.2765 -4.44731 1.78188 0
M  V30 91 H 5.6405 -2.39857 0.856778 0
M  V30 92 H 6.4235 -2.32424 2.52654 0
M  V30 93 N 8.8686 -0.792821 -1.36206 0
M  V30 94 C 9.8316 -0.199459 -2.2833 0
M  V30 95 C 10.8316 0.605189 -1.48977 0
M  V30 96 O 12.0216 0.425685 -1.68919 0
M  V30 97 C 9.1536 0.723523 -3.33134 0
M  V30 98 H 10.3466 -1.01181 -2.82316 0
M  V30 99 H 7.8996 -0.562485 -1.45828 0
M  V30 100 H 8.6346 1.56008 -2.84309 0
M  V30 101 H 8.4196 0.148436 -3.91819 0
M  V30 102 H 9.9096 1.13344 -4.01924 0
M  V30 103 N 10.3467 1.47872 -0.545128 0
M  V30 104 C 11.5927 2.02793 -0.0166104 0
M  V30 105 C 11.9257 1.41987 1.32489 0
M  V30 106 O 11.2007 0.571045 1.85928 0
M  V30 107 C 11.4837 3.59989 0.0893294 0
M  V30 108 C 11.3367 4.3125 -1.27841 0
M  V30 109 C 12.6557 4.32606 0.808724 0
M  V30 110 H 9.7747 0.736962 -0.00751035 0
M  V30 111 H 12.4167 1.76433 -0.705085 0
M  V30 112 H 10.5667 3.82579 0.675681 0
M  V30 113 H 12.2387 4.20035 -1.90704 0
M  V30 114 H 10.4817 3.92076 -1.85632 0
M  V30 115 H 11.1527 5.39736 -1.15713 0
M  V30 116 H 13.6287 4.14936 0.310992 0
M  V30 117 H 12.5047 5.42251 0.851782 0
M  V30 118 H 12.7657 4.00963 1.86229 0
M  V30 119 N 11.8248 0.280983 1.55075 0
M  V30 120 C 13.0708 -0.33461 2.00021 0
M  V30 121 C 13.4038 -1.55063 1.16915 0
M  V30 122 O 12.6788 -1.93006 0.240646 0
M  V30 123 C 12.9618 -0.711007 3.53011 0
M  V30 124 C 12.8148 0.512766 4.46868 0
M  V30 125 C 14.1338 -1.54522 4.12081 0
M  V30 126 H 11.2528 -0.120147 0.727141 0
M  V30 127 H 13.8948 0.389097 1.85973 0
M  V30 128 H 12.0448 -1.32761 3.65112 0
M  V30 129 H 13.7168 1.15131 4.46702 0
M  V30 130 H 11.9598 1.14975 4.18286 0
M  V30 131 H 12.6308 0.205556 5.51617 0
M  V30 132 H 15.1068 -1.02442 4.03293 0
M  V30 133 H 13.9828 -1.77739 5.19327 0
M  V30 134 H 14.2438 -2.52813 3.62682 0
M  V30 135 N 13.3029 -1.57598 0.00835791 0
M  V30 136 C 14.2329 -2.1198 -0.979113 0
M  V30 137 C 15.2139 -1.03091 -1.35301 0
M  V30 138 O 16.3989 -1.30818 -1.43528 0
M  V30 139 C 13.5289 -2.62995 -2.26828 0
M  V30 140 C 12.4829 -3.76485 -2.03576 0
M  V30 141 C 11.8089 -4.13846 -3.38579 0
M  V30 142 C 13.1089 -5.0342 -1.39161 0
M  V30 143 H 14.8029 -2.94738 -0.526281 0
M  V30 144 H 12.3489 -1.41783 -0.251704 0
M  V30 145 H 14.3019 -2.99669 -2.96271 0
M  V30 146 H 13.0259 -1.7737 -2.7424 0
M  V30 147 H 11.6849 -3.40217 -1.36557 0
M  V30 148 H 11.3329 -3.25232 -3.83709 0
M  V30 149 H 11.0329 -4.90312 -3.23834 0
M  V30 150 H 12.5569 -4.53086 -4.09323 0
M  V30 151 H 13.9709 -5.37812 -1.98573 0
M  V30 152 H 12.3679 -5.84746 -1.34878 0
M  V30 153 H 13.4379 -4.83548 -0.361868 0
M  V30 154 N 14.781 0.264519 -1.55364 0
M  V30 155 C 15.744 1.31046 -1.88042 0
M  V30 156 C 16.744 1.41943 -0.755569 0
M  V30 157 O 17.934 1.40947 -1.02369 0
M  V30 158 C 15.066 2.69067 -2.09323 0
M  V30 159 H 16.259 1.03297 -2.81549 0
M  V30 160 H 13.812 0.502989 -1.47986 0
M  V30 161 H 14.547 3.01982 -1.18226 0
M  V30 162 H 14.332 2.62542 -2.91229 0
M  V30 163 H 15.822 3.44623 -2.35848 0
M  V30 164 N 16.2591 1.48442 0.529413 0
M  V30 165 C 17.4841 1.60406 1.31471 0
M  V30 166 C 17.9091 0.264738 1.86228 0
M  V30 167 O 17.2671 -0.763668 1.64432 0
M  V30 168 C 17.3151 2.65419 2.44101 0
M  V30 169 O 16.4191 2.22618 3.47153 0
M  V30 170 H 15.7601 0.537863 0.389357 0
M  V30 171 H 18.2901 1.94432 0.636965 0
M  V30 172 H 18.3001 2.86709 2.90279 0
M  V30 173 H 16.9751 3.62652 2.03608 0
M  V30 174 H 15.5521 2.11543 3.0709 0
M  V30 175 N 17.7372 -0.778329 1.37039 0
M  V30 176 C 18.9622 -1.57248 1.35233 0
M  V30 177 C 19.3872 -1.87999 -0.0615568 0
M  V30 178 O 18.7452 -1.48734 -1.03672 0
M  V30 179 C 18.7932 -2.86353 2.19167 0
M  V30 180 O 17.8972 -3.80442 1.59178 0
M  V30 181 H 17.2382 -0.476569 0.462362 0
M  V30 182 H 19.7682 -0.963853 1.80474 0
M  V30 183 H 19.7782 -3.35519 2.32145 0
M  V30 184 H 18.4532 -2.63299 3.21942 0
M  V30 185 H 17.0302 -3.39067 1.55203 0
M  V30 186 N 19.2153 -1.21501 -1.00376 0
M  V30 187 C 20.6313 -0.972629 -1.26539 0
M  V30 188 C 20.8313 0.340257 -1.98606 0
M  V30 189 O 19.8873 1.06561 -2.28913 0
M  V30 190 C 21.2003 -2.16404 -2.08781 0
M  V30 191 C 22.7483 -2.20643 -2.22004 0
M  V30 192 C 23.2233 -3.39306 -3.07629 0
M  V30 193 N 24.7143 -3.39401 -3.15217 0
M  V30 194 C 25.4493 -4.27867 -3.81729 0
M  V30 195 N 24.9453 -5.26533 -4.5026 0
M  V30 196 N 26.7383 -4.15672 -3.78382 0
M  V30 197 H 18.8893 -2.05929 -0.520281 0
M  V30 198 H 21.1523 -0.901803 -0.292328 0
M  V30 199 H 20.8583 -3.11554 -1.63178 0
M  V30 200 H 20.7323 -2.15567 -3.09533 0
M  V30 201 H 23.1193 -1.26048 -2.66825 0
M  V30 202 H 23.2003 -2.25523 -1.20718 0
M  V30 203 H 22.8443 -4.34195 -2.63509 0
M  V30 204 H 22.7743 -3.31665 -4.09031 0
M  V30 205 H 25.2653 -2.67997 -2.66432 0
M  V30 206 H 25.5783 -5.90337 -4.98721 0
M  V30 207 H 23.9233 -5.30457 -4.49044 0
M  V30 208 H 27.1143 -3.3785 -3.23998 0
M  V30 209 H 27.2873 -4.84825 -4.2994 0
M  V30 210 N 20.6934 1.19889 -1.02296 0
M  V30 211 C 21.9414 1.89046 -0.714558 0
M  V30 212 C 22.2624 1.79636 0.758681 0
M  V30 213 O 21.5324 1.20292 1.54618 0
M  V30 214 H 20.1124 0.699802 -0.261317 0
M  V30 215 H 22.7744 1.45574 -1.29592 0
M  V30 216 H 21.8704 2.95524 -1.0036 0
M  V30 217 N 22.1715 0.800033 1.35784 0
M  V30 218 C 23.4205 0.37387 1.98205 0
M  V30 219 C 23.7335 -1.06302 1.64193 0
M  V30 220 O 24.9395 -1.59198 2.19928 0
M  V30 221 C 23.3955 0.617532 3.54562 0
M  V30 222 C 23.0035 2.06654 3.9749 0
M  V30 223 C 24.7475 0.256401 4.23725 0
M  V30 224 C 22.6545 2.2563 5.46667 0
M  V30 225 H 21.5845 0.136055 0.741623 0
M  V30 226 H 24.2355 0.983166 1.54939 0
M  V30 227 H 22.6175 -0.0616248 3.95952 0
M  V30 228 H 23.7915 2.78296 3.67271 0
M  V30 229 H 22.1065 2.38691 3.41197 0
M  V30 230 H 24.7035 0.376318 5.33374 0
M  V30 231 H 25.0465 -0.796692 4.08606 0
M  V30 232 H 25.5795 0.889214 3.87734 0
M  V30 233 H 22.3185 3.2936 5.66747 0
M  V30 234 H 21.8385 1.58504 5.78478 0
M  V30 235 H 23.5175 2.06861 6.1304 0
M  V30 236 N 23.6496 -1.47581 0.552962 0
M  V30 237 C 24.6126 -2.28439 -0.186605 0
M  V30 238 C 25.6126 -1.36706 -0.84665 0
M  V30 239 O 26.8026 -1.59378 -0.703164 0
M  V30 240 C 23.9346 -3.16264 -1.2724 0
M  V30 241 H 25.1276 -2.95294 0.523609 0
M  V30 242 H 22.6806 -1.532 0.309745 0
M  V30 243 H 23.4156 -2.54091 -2.01514 0
M  V30 244 H 23.2006 -3.83769 -0.803968 0
M  V30 245 H 24.6906 -3.77198 -1.79196 0
M  V30 246 N 25.1277 -0.289203 -1.54924 0
M  V30 247 C 26.3527 0.329299 -2.04769 0
M  V30 248 C 26.7777 1.4763 -1.16564 0
M  V30 249 O 26.1357 1.80527 -0.167186 0
M  V30 250 C 26.1837 0.774438 -3.52186 0
M  V30 251 O 25.2877 1.88038 -3.67036 0
M  V30 252 H 24.6287 0.0659259 -0.660719 0
M  V30 253 H 27.1587 -0.42761 -2.00082 0
M  V30 254 H 27.1687 1.06642 -3.93816 0
M  V30 255 H 25.8437 -0.0646707 -4.1585 0
M  V30 256 H 24.4207 1.58985 -3.3731 0
M  V30 257 N 26.6058 1.57591 -0.0167156 0
M  V30 258 C 27.8528 1.91283 0.664597 0
M  V30 259 C 28.1808 0.891949 1.72842 0
M  V30 260 O 27.4358 -0.100931 1.9544 0
M  V30 261 C 27.7348 3.3172 1.33029 0
M  V30 262 C 27.4008 4.4914 0.398047 0
M  V30 263 C 26.0628 4.80992 0.141421 0
M  V30 264 C 28.4148 5.20634 -0.242825 0
M  V30 265 C 25.7428 5.81703 -0.764092 0
M  V30 266 C 28.0948 6.22311 -1.13632 0
M  V30 267 C 26.7588 6.52611 -1.40196 0
M  V30 268 H 26.0288 0.699956 0.243193 0
M  V30 269 H 28.6758 1.9135 -0.0758267 0
M  V30 270 H 26.9808 3.27856 2.14517 0
M  V30 271 H 28.6778 3.55055 1.86379 0
M  V30 272 H 25.2678 4.24262 0.608238 0
M  V30 273 H 29.4518 4.96267 -0.0576019 0
M  V30 274 H 24.7078 6.03532 -0.977732 0
M  V30 275 H 28.8818 6.76834 -1.63917 0
M  V30 276 H 26.5088 7.30467 -2.10529 0
M  V30 277 N 28.0839 -0.256276 1.55502 0
M  V30 278 C 29.3299 -0.987079 1.77157 0
M  V30 279 C 29.6629 -1.85327 0.580315 0
M  V30 280 O 28.9379 -1.89874 -0.421686 0
M  V30 281 C 29.2209 -1.85553 3.08613 0
M  V30 282 C 29.0739 -1.01816 4.38125 0
M  V30 283 C 30.3929 -2.8397 3.36228 0
M  V30 284 H 27.5119 -0.357428 0.644526 0
M  V30 285 H 30.1539 -0.258239 1.88237 0
M  V30 286 H 28.3039 -2.47695 2.99298 0
M  V30 287 H 29.9759 -0.416159 4.59419 0
M  V30 288 H 28.2189 -0.322178 4.32602 0
M  V30 289 H 28.8899 -1.65939 5.26468 0
M  V30 290 H 31.3659 -2.31964 3.45445 0
M  V30 291 H 30.2419 -3.41864 4.29442 0
M  V30 292 H 30.5029 -3.59955 2.56681 0
M  V30 293 N 29.562 -1.4872 -0.521534 0
M  V30 294 C 30.802 -1.58771 -1.28729 0
M  V30 295 C 31.166 -0.259394 -1.9024 0
M  V30 296 O 32.367 -0.234942 -2.67771 0
M  V30 297 C 30.638 -2.70039 -2.34124 0
M  V30 298 S 32.197 -2.9991 -3.20312 0
M  V30 299 H 29.015 -0.560251 -0.437767 0
M  V30 300 H 31.617 -1.86283 -0.593188 0
M  V30 301 H 30.321 -3.65101 -1.87429 0
M  V30 302 H 29.852 -2.44455 -3.08229 0
M  V30 303 H 31.867 -2.39855 -4.34378 0
M  V30 304 N 31.0401 0.771051 -1.3745 0
M  V30 305 C 31.9501 1.91538 -1.35464 0
M  V30 306 C 32.9661 1.72134 -0.254123 0
M  V30 307 O 34.1421 1.95358 -0.489626 0
M  V30 308 C 31.2071 3.26671 -1.16134 0
M  V30 309 C 30.2681 3.58723 -2.35831 0
M  V30 310 C 29.5011 4.87409 -2.17413 0
M  V30 311 O 29.7241 5.58506 -1.15876 0
M  V30 312 O 28.6581 5.18539 -3.05615 0
M  V30 313 H 32.4841 1.96165 -2.31847 0
M  V30 314 H 30.0691 0.9139 -1.18187 0
M  V30 315 H 31.9511 4.07499 -1.07345 0
M  V30 316 H 30.6261 3.22894 -0.228251 0
M  V30 317 H 29.5331 2.78127 -2.50192 0
M  V30 318 H 30.8661 3.67243 -3.27709 0
M  V30 319 N 32.5182 1.22032 0.997298 0
M  V30 320 C 33.7482 1.06686 1.76923 0
M  V30 321 C 34.1562 -0.385838 1.85224 0
M  V30 322 O 33.4992 -1.27929 1.31833 0
M  V30 323 C 33.5612 1.59802 3.22031 0
M  V30 324 C 33.2252 3.08362 3.37286 0
M  V30 325 C 34.2222 4.05835 3.24952 0
M  V30 326 C 31.9072 3.47727 3.6248 0
M  V30 327 C 33.9012 5.4066 3.37588 0
M  V30 328 C 31.5882 4.82701 3.74757 0
M  V30 329 C 32.5862 5.78977 3.62319 0
M  V30 330 O 32.2742 7.11502 3.74193 0
M  V30 331 H 32.0062 0.374767 0.562606 0
M  V30 332 H 34.5602 1.61991 1.26286 0
M  V30 333 H 32.7902 0.989003 3.73839 0
M  V30 334 H 34.4792 1.40184 3.80924 0
M  V30 335 H 35.2452 3.76766 3.05405 0
M  V30 336 H 31.1242 2.73317 3.7124 0
M  V30 337 H 34.6682 6.15788 3.27796 0
M  V30 338 H 30.5652 5.11453 3.9381 0
M  V30 339 H 31.3332 7.19019 3.91093 0
M  V30 340 N 33.9963 -1.19345 1.0293 0
M  V30 341 C 34.9593 -2.20793 0.615069 0
M  V30 342 C 35.9593 -1.57553 -0.321533 0
M  V30 343 O 37.1493 -1.73862 -0.108483 0
M  V30 344 C 34.2813 -3.40754 -0.0999222 0
M  V30 345 H 35.4743 -2.58955 1.51269 0
M  V30 346 H 33.0273 -1.3303 0.820534 0
M  V30 347 H 33.7623 -3.0811 -1.01187 0
M  V30 348 H 33.5473 -3.87889 0.57309 0
M  V30 349 H 35.0373 -4.15898 -0.376645 0
M  V30 350 N 35.4744 -0.807222 -1.35358 0
M  V30 351 C 36.6994 -0.399309 -2.0352 0
M  V30 352 C 37.1244 0.981986 -1.60433 0
M  V30 353 O 36.4824 1.63601 -0.781299 0
M  V30 354 C 36.5304 -0.491552 -3.57234 0
M  V30 355 O 35.6344 0.494754 -4.09421 0
M  V30 356 H 34.9754 -0.166682 -0.642739 0
M  V30 357 H 37.5054 -1.09328 -1.72941 0
M  V30 358 H 37.5154 -0.361588 -4.06395 0
M  V30 359 H 36.1904 -1.49907 -3.87944 0
M  V30 360 H 34.7674 0.324977 -3.71481 0
M  V30 361 N 36.9525 1.47285 -0.560781 0
M  V30 362 C 38.3635 1.86258 -0.128343 0
M  V30 363 C 38.7145 1.46699 1.30284 0
M  V30 364 O 37.8395 0.871698 1.98067 0
M  V30 365 C 38.4345 3.38044 -0.22614 0
M  V30 366 C 36.9935 3.76096 0.151283 0
M  V30 367 C 36.1405 2.71335 -0.572084 0
M  V30 368 H 39.0915 1.38752 -0.770297 0
M  V30 369 H 39.1125 3.76441 0.554322 0
M  V30 370 H 38.6245 3.66806 -1.26788 0
M  V30 371 H 36.7255 3.52951 1.19399 0
M  V30 372 H 36.8385 4.78641 -0.209765 0
M  V30 373 H 35.2025 2.54696 -0.0147653 0
M  V30 374 H 35.9855 3.02938 -1.61504 0
M  V30 375 N 38.4306 0.297415 1.54768 0
M  V30 376 C 39.6786 -0.312295 1.99673 0
M  V30 377 C 39.9996 -1.54686 1.18732 0
M  V30 378 O 39.2696 -1.93854 0.282382 0
M  V30 379 H 37.8496 -0.118381 0.73756 0
M  V30 380 H 40.5116 0.407915 1.90583 0
M  V30 381 H 39.6076 -0.586813 3.06534 0
M  V30 382 N 39.9087 -1.5758 0.0250728 0
M  V30 383 C 40.8557 -2.09973 -0.958129 0
M  V30 384 C 41.8257 -1.00085 -1.3256 0
M  V30 385 O 43.0107 -1.27481 -1.41962 0
M  V30 386 C 40.1507 -2.62812 -2.2366 0
M  V30 387 C 39.2637 -3.86693 -1.92594 0
M  V30 388 C 38.3987 -4.27941 -3.14707 0
M  V30 389 C 37.4377 -5.44591 -2.79442 0
M  V30 390 N 36.5747 -5.81014 -3.94167 0
M  V30 391 H 41.4147 -2.937 -0.504428 0
M  V30 392 H 38.9517 -1.45172 -0.237392 0
M  V30 393 H 40.9097 -2.91536 -2.98434 0
M  V30 394 H 39.5397 -1.81922 -2.66654 0
M  V30 395 H 38.5917 -3.64723 -1.0808 0
M  V30 396 H 39.9037 -4.71547 -1.62619 0
M  V30 397 H 39.0577 -4.58079 -3.97804 0
M  V30 398 H 37.7967 -3.41845 -3.4784 0
M  V30 399 H 36.8017 -5.1415 -1.94755 0
M  V30 400 H 38.0267 -6.32382 -2.47528 0
M  V30 401 H 35.9727 -4.97874 -4.2715 0
M  V30 402 H 35.8897 -6.60498 -3.67801 0
M  V30 403 H 37.1577 -6.15756 -4.7798 0
M  V30 404 N 41.3868 0.248026 -1.55636 0
M  V30 405 C 42.6168 0.992367 -1.81206 0
M  V30 406 C 43.0248 1.7949 -0.598324 0
M  V30 407 O 42.3678 1.78292 0.442434 0
M  V30 408 C 42.4298 1.97926 -3.00109 0
M  V30 409 C 42.0938 1.36377 -4.36177 0
M  V30 410 C 43.0908 0.76682 -5.14214 0
M  V30 411 C 40.7758 1.38347 -4.82872 0
M  V30 412 C 42.7698 0.197778 -6.37093 0
M  V30 413 C 40.4568 0.810574 -6.057 0
M  V30 414 C 41.4548 0.218754 -6.8265 0
M  V30 415 O 41.1428 -0.345298 -8.03158 0
M  V30 416 H 40.8748 0.297704 -0.606917 0
M  V30 417 H 43.4288 0.276517 -2.0353 0
M  V30 418 H 41.6588 2.73339 -2.73538 0
M  V30 419 H 43.3478 2.58694 -3.12781 0
M  V30 420 H 44.1138 0.744114 -4.79258 0
M  V30 421 H 39.9928 1.8335 -4.2297 0
M  V30 422 H 43.5368 -0.264788 -6.97097 0
M  V30 423 H 39.4338 0.830604 -6.40134 0
M  V30 424 H 40.2018 -0.237055 -8.18157 0
M  V30 425 N 42.8649 1.48995 0.513639 0
M  V30 426 C 44.0929 1.61531 1.29288 0
M  V30 427 C 44.5079 0.281801 1.86685 0
M  V30 428 O 43.8649 -0.731111 1.67215 0
M  V30 429 C 43.9159 2.67449 2.43215 0
M  V30 430 O 43.6369 3.95626 1.88179 0
M  V30 431 C 45.1379 2.90575 3.34785 0
M  V30 432 H 42.3579 0.544165 0.392588 0
M  V30 433 H 44.9019 1.9494 0.617956 0
M  V30 434 H 43.0569 2.36853 3.0656 0
M  V30 435 H 43.4709 4.53868 2.62876 0
M  V30 436 H 44.9449 3.68449 4.11035 0
M  V30 437 H 45.4219 2.00011 3.91015 0
M  V30 438 H 46.0279 3.22538 2.77218 0
M  V30 439 N 44.343 -0.763751 1.37857 0
M  V30 440 C 45.253 -1.90817 1.36478 0
M  V30 441 C 46.269 -1.71997 0.263248 0
M  V30 442 O 47.445 -1.95095 0.499979 0
M  V30 443 C 44.51 -3.2605 1.17864 0
M  V30 444 C 43.571 -3.57467 2.3773 0
M  V30 445 C 42.804 -4.86249 2.19995 0
M  V30 446 O 43.027 -5.57884 1.18836 0
M  V30 447 O 41.961 -5.16911 3.08361 0
M  V30 448 H 45.787 -1.94933 2.32884 0
M  V30 449 H 43.372 -0.907619 1.1867 0
M  V30 450 H 45.254 -4.06924 1.09504 0
M  V30 451 H 43.929 -3.22769 0.245372 0
M  V30 452 H 42.836 -2.76796 2.51664 0
M  V30 453 H 44.169 -3.655 3.29652 0
M  V30 454 N 45.8211 -1.22559 -0.990812 0
M  V30 455 C 47.0671 -1.05297 -1.73322 0
M  V30 456 C 47.4001 0.410655 -1.89808 0
M  V30 457 O 46.6751 1.30439 -1.44277 0
M  V30 458 C 46.9581 -1.76713 -3.13759 0
M  V30 459 C 46.8111 -3.30684 -3.04907 0
M  V30 460 C 48.1301 -1.52121 -4.12974 0
M  V30 461 H 45.2491 -0.38392 -0.629106 0
M  V30 462 H 47.8911 -1.50926 -1.15418 0
M  V30 463 H 46.0411 -1.37924 -3.63193 0
M  V30 464 H 47.7131 -3.7893 -2.63077 0
M  V30 465 H 45.9561 -3.60253 -2.41661 0
M  V30 466 H 46.6271 -3.75833 -4.04294 0
M  V30 467 H 49.1031 -1.85819 -3.72304 0
M  V30 468 H 47.9791 -2.04582 -5.0935 0
M  V30 469 H 48.2401 -0.454257 -4.3976 0
M  V30 470 N 47.2992 1.18797 -1.03562 0
M  V30 471 C 48.7152 1.40671 -0.753917 0
M  V30 472 C 48.9152 1.9043 0.658686 0
M  V30 473 O 47.9712 2.08538 1.42366 0
M  V30 474 C 49.2842 2.41192 -1.79574 0
M  V30 475 C 50.8322 2.54928 -1.81606 0
M  V30 476 C 51.3072 3.58709 -2.84766 0
M  V30 477 N 52.7982 3.66212 -2.83625 0
M  V30 478 C 53.5332 4.46225 -3.60098 0
M  V30 479 N 53.0292 5.29888 -4.46308 0
M  V30 480 N 54.8222 4.40939 -3.4861 0
M  V30 481 H 46.9732 0.848221 -1.94728 0
M  V30 482 H 49.2362 0.435081 -0.842264 0
M  V30 483 H 48.9422 2.11669 -2.80872 0
M  V30 484 H 48.8162 3.40467 -1.62365 0
M  V30 485 H 51.2032 2.83771 -0.809817 0
M  V30 486 H 51.2842 1.55784 -2.02891 0
M  V30 487 H 50.9282 3.30607 -3.85566 0
M  V30 488 H 50.8582 4.57519 -2.60737 0
M  V30 489 H 53.3492 3.06466 -2.21105 0
M  V30 490 H 53.6622 5.88078 -5.01382 0
M  V30 491 H 52.0072 5.29326 -4.50377 0
M  V30 492 H 55.1982 3.74624 -2.80668 0
M  V30 493 H 55.3712 5.03056 -4.08459 0
M  V30 494 N 48.7773 0.814389 1.34928 0
M  V30 495 C 50.0233 0.399013 1.98836 0
M  V30 496 C 50.3563 -1.03314 1.64438 0
M  V30 497 O 49.6313 -1.71811 0.911659 0
M  V30 498 C 49.9143 0.591629 3.55207 0
M  V30 499 C 49.7673 2.06928 3.99376 0
M  V30 500 C 51.0863 0.022199 4.40094 0
M  V30 501 H 48.2053 0.146451 0.722303 0
M  V30 502 H 50.8473 1.02537 1.59957 0
M  V30 503 H 48.9973 0.0584441 3.88456 0
M  V30 504 H 50.6693 2.66544 3.76499 0
M  V30 505 H 48.9123 2.56287 3.49999 0
M  V30 506 H 49.5833 2.1549 5.08201 0
M  V30 507 H 52.0593 0.477643 4.13349 0
M  V30 508 H 50.9353 0.186832 5.48582 0
M  V30 509 H 51.1963 -1.07215 4.28902 0
M  V30 510 N 50.2554 -1.46986 0.568584 0
M  V30 511 C 51.4834 -2.0683 0.0539956 0
M  V30 512 C 51.8984 -1.41953 -1.24478 0
M  V30 513 O 51.2554 -0.519933 -1.74937 0
M  V30 514 C 51.3064 -3.61254 -0.133362 0
M  V30 515 O 51.0274 -4.237 1.11399 0
M  V30 516 C 52.5284 -4.37992 -0.683927 0
M  V30 517 H 49.7484 -0.669058 0.0510141 0
M  V30 518 H 52.2924 -1.88824 0.785234 0
M  V30 519 H 50.4474 -3.78735 -0.81477 0
M  V30 520 H 50.8614 -5.16388 0.91888 0
M  V30 521 H 52.3354 -5.46684 -0.764263 0
M  V30 522 H 52.8124 -4.05058 -1.69778 0
M  V30 523 H 53.4184 -4.25283 -0.0378494 0
M  V30 524 N 51.7335 -0.305618 -1.54608 0
M  V30 525 C 52.9795 0.302746 -2.00528 0
M  V30 526 C 53.3125 1.53184 -1.19367 0
M  V30 527 O 52.5875 1.92598 -0.271321 0
M  V30 528 C 52.8705 0.654756 -3.54097 0
M  V30 529 C 52.7235 -0.583793 -4.45995 0
M  V30 530 C 54.0425 1.47947 -4.14487 0
M  V30 531 H 51.1615 0.108564 -0.72896 0
M  V30 532 H 53.8035 -0.418634 -1.85331 0
M  V30 533 H 51.9535 1.26935 -3.67178 0
M  V30 534 H 53.6255 -1.22224 -4.44814 0
M  V30 535 H 51.8685 -1.21615 -4.16404 0
M  V30 536 H 52.5395 -0.293287 -5.5122 0
M  V30 537 H 55.0155 0.96013 -4.04871 0
M  V30 538 H 53.8915 1.69454 -5.22088 0
M  V30 539 H 54.1525 2.47011 -3.66658 0
M  V30 540 N 53.2116 1.57565 -0.0334293 0
M  V30 541 C 54.1416 2.13511 0.945265 0
M  V30 542 C 55.1226 1.05231 1.33643 0
M  V30 543 O 56.3076 1.33084 1.41429 0
M  V30 544 C 53.4376 2.6657 2.22616 0
M  V30 545 C 52.3916 3.79676 1.97561 0
M  V30 546 C 51.7176 4.1918 3.31952 0
M  V30 547 C 53.0176 5.0557 1.31135 0
M  V30 548 H 54.7116 2.95538 0.479325 0
M  V30 549 H 52.2576 1.42166 0.229115 0
M  V30 550 H 54.2106 3.04344 2.91466 0
M  V30 551 H 52.9346 1.8171 2.71384 0
M  V30 552 H 51.5936 3.42347 1.31127 0
M  V30 553 H 51.2416 3.31296 3.78487 0
M  V30 554 H 50.9416 4.95402 3.15992 0
M  V30 555 H 52.4656 4.59541 4.02063 0
M  V30 556 H 53.8796 5.40903 1.89992 0
M  V30 557 H 52.2766 5.86818 1.25559 0
M  V30 558 H 53.3466 4.84062 0.284894 0
M  V30 559 N 54.6897 -0.239769 1.55765 0
M  V30 560 C 56.1057 -0.588624 1.48349 0
M  V30 561 C 56.3057 -1.88005 0.72502 0
M  V30 562 O 55.3617 -2.51186 0.257269 0
M  V30 563 C 56.6747 -0.68474 2.928 0
M  V30 564 C 58.2227 -0.77659 3.03213 0
M  V30 565 C 58.6977 -0.904207 4.48986 0
M  V30 566 N 60.1887 -0.968896 4.52953 0
M  V30 567 C 60.9237 -1.08703 5.63002 0
M  V30 568 N 60.4197 -1.17026 6.82845 0
M  V30 569 N 62.2127 -1.12074 5.50814 0
M  V30 570 H 54.3637 0.607911 2.03515 0
M  V30 571 H 56.6267 0.21083 0.924259 0
M  V30 572 H 56.3327 0.194284 3.51163 0
M  V30 573 H 56.2067 -1.55435 3.43686 0
M  V30 574 H 58.5937 -1.64606 2.44926 0
M  V30 575 H 58.6747 0.118315 2.55526 0
M  V30 576 H 58.3187 -0.0392633 5.07885 0
M  V30 577 H 58.2487 -1.81426 4.9436 0
M  V30 578 H 60.7397 -0.915633 3.6664 0
M  V30 579 H 61.0527 -1.25966 7.62465 0
M  V30 580 H 59.3977 -1.13971 6.85591 0
M  V30 581 H 62.5887 -1.05226 4.5612 0
M  V30 582 H 62.7617 -1.20936 6.36615 0
M  V30 583 N 56.1678 -1.49265 -0.50573 0
M  V30 584 C 57.0998 -1.617 -1.62437 0
M  V30 585 C 58.1128 -0.499924 -1.54934 0
M  V30 586 O 59.3018 -0.771785 -1.60953 0
M  V30 587 C 56.4018 -1.5533 -3.01207 0
M  V30 588 C 55.5748 -2.8249 -3.33943 0
M  V30 589 C 54.6338 -2.69238 -4.52103 0
M  V30 590 O 53.6598 -3.43167 -4.5412 0
M  V30 591 N 54.8618 -1.80468 -5.51735 0
M  V30 592 H 57.6268 -2.58177 -1.52199 0
M  V30 593 H 55.1878 -1.46294 -0.693511 0
M  V30 594 H 57.1798 -1.44125 -3.78167 0
M  V30 595 H 55.7498 -0.667297 -3.05395 0
M  V30 596 H 54.9698 -3.08081 -2.45926 0
M  V30 597 H 56.2578 -3.66802 -3.5261 0
M  V30 598 H 55.6558 -1.19653 -5.52901 0
M  V30 599 H 54.2128 -1.75188 -6.27816 0
M  V30 600 N 57.6459 0.756429 -1.3826 0
M  V30 601 C 58.6089 1.85176 -1.35065 0
M  V30 602 C 59.6089 1.58818 -0.251703 0
M  V30 603 O 60.7989 1.66615 -0.508433 0
M  V30 604 C 57.9309 3.22596 -1.10201 0
M  V30 605 H 59.1239 1.89417 -2.3251 0
M  V30 606 H 56.6769 0.95783 -1.23512 0
M  V30 607 H 57.4119 3.24025 -0.133504 0
M  V30 608 H 57.1969 3.43122 -1.89762 0
M  V30 609 H 58.6869 4.02673 -1.10654 0
M  V30 610 N 59.124 1.23083 0.984299 0
M  V30 611 C 60.401 0.9689 1.69917 0
M  V30 612 C 60.781 -0.513604 2.04757 0
M  V30 613 O 60.129 -1.48383 1.73767 0
M  V30 614 C 60.339 1.87518 2.94343 0
M  V30 615 C 61.687 2.13636 3.6694 0
M  V30 616 O 62.711 1.85036 3.04368 0
M  V30 617 O 61.57 2.62119 4.79537 0
M  V30 618 H 58.664 0.365095 0.742048 0
M  V30 619 H 61.21 1.34107 1.03987 0
M  V30 620 H 59.982 2.87756 2.65164 0
M  V30 621 H 59.605 1.50514 3.6801 0
M  V30 622 N 60.6021 -1.18246 1.0419 0
M  V30 623 C 61.8271 -1.92736 0.765996 0
M  V30 624 C 62.2521 -1.75728 -0.67091 0
M  V30 625 O 61.6101 -1.06825 -1.46486 0
M  V30 626 C 61.6581 -3.42148 1.13875 0
M  V30 627 O 60.7621 -4.11548 0.264954 0
M  V30 628 H 60.1031 -0.601238 0.281797 0
M  V30 629 H 62.6331 -1.49942 1.39207 0
M  V30 630 H 62.6431 -3.92858 1.1012 0
M  V30 631 H 61.3181 -3.53848 2.18551 0
M  V30 632 H 59.8951 -3.71137 0.362226 0
M  V30 633 N 62.0802 -0.821533 -1.34494 0
M  V30 634 C 63.0122 -0.199946 -2.28326 0
M  V30 635 C 64.0252 0.609377 -1.50965 0
M  V30 636 O 65.2142 0.439285 -1.7301 0
M  V30 637 C 62.3142 0.738431 -3.30757 0
M  V30 638 C 61.4872 -0.0277632 -4.37391 0
M  V30 639 C 60.5462 0.831332 -5.19591 0
M  V30 640 O 59.5722 0.276822 -5.68526 0
M  V30 641 N 60.7742 2.15132 -5.39165 0
M  V30 642 H 63.5392 -1.00609 -2.82308 0
M  V30 643 H 61.1002 -0.678366 -1.47003 0
M  V30 644 H 63.0922 1.31773 -3.82646 0
M  V30 645 H 61.6622 1.44533 -2.7718 0
M  V30 646 H 60.8822 -0.788359 -3.86236 0
M  V30 647 H 62.1702 -0.555251 -5.05761 0
M  V30 648 H 61.5682 2.62559 -5.01078 0
M  V30 649 H 60.1252 2.6795 -5.94177 0
M  V30 650 N 63.5583 1.46682 -0.576371 0
M  V30 651 C 64.8043 2.02712 -0.0596221 0
M  V30 652 C 65.1373 1.44765 1.29448 0
M  V30 653 O 64.4123 0.610355 1.84675 0
M  V30 654 C 64.6953 3.60098 0.0129503 0
M  V30 655 C 64.5483 4.28441 -1.3696 0
M  V30 656 C 65.8673 4.34224 0.71678 0
M  V30 657 H 62.9863 0.736637 -0.0231407 0
M  V30 658 H 65.6283 1.74898 -0.742351 0
M  V30 659 H 63.7783 3.83926 0.594378 0
M  V30 660 H 65.4503 4.15896 -1.9957 0
M  V30 661 H 63.6933 3.8805 -1.93907 0
M  V30 662 H 64.3643 5.3716 -1.27135 0
M  V30 663 H 66.8403 4.15503 0.222908 0
M  V30 664 H 65.7163 5.43936 0.73657 0
M  V30 665 H 65.9773 4.04823 1.77682 0
M  V30 666 N 65.0364 0.313813 1.54444 0
M  V30 667 C 66.2644 -0.293918 2.04802 0
M  V30 668 C 66.6794 -1.46537 1.19047 0
M  V30 669 O 66.0364 -1.81182 0.218939 0
M  V30 670 C 66.0874 -0.737806 3.53891 0
M  V30 671 O 65.8084 0.387038 4.36387 0
M  V30 672 C 67.3094 -1.40936 4.203 0
M  V30 673 H 64.5294 -0.0620057 0.668129 0
M  V30 674 H 67.0734 0.457169 1.99324 0
M  V30 675 H 65.2284 -1.43889 3.59687 0
M  V30 676 H 65.6424 0.0391274 5.24485 0
M  V30 677 H 67.1164 -1.67099 5.26101 0
M  V30 678 H 67.5934 -2.35355 3.70816 0
M  V30 679 H 68.1994 -0.751117 4.18615 0
M  V30 680 N 66.5145 -1.57545 0.0417849 0
M  V30 681 C 67.4245 -2.14451 -0.951213 0
M  V30 682 C 68.4405 -1.09992 -1.34825 0
M  V30 683 O 69.6165 -1.42114 -1.42708 0
M  V30 684 C 66.6815 -2.67063 -2.21084 0
M  V30 685 C 65.7425 -3.86284 -1.87304 0
M  V30 686 C 64.9755 -4.36378 -3.07261 0
M  V30 687 O 65.1985 -3.85587 -4.20332 0
M  V30 688 O 64.1325 -5.28077 -2.88822 0
M  V30 689 H 67.9585 -2.99601 -0.497287 0
M  V30 690 H 65.5435 -1.48317 -0.179567 0
M  V30 691 H 67.4255 -3.00914 -2.95006 0
M  V30 692 H 66.1005 -1.84989 -2.65633 0
M  V30 693 H 65.0075 -3.57338 -1.10727 0
M  V30 694 H 66.3405 -4.6956 -1.47562 0
M  V30 695 N 67.9926 0.231505 -1.5589 0
M  V30 696 C 69.2386 0.95877 -1.78705 0
M  V30 697 C 69.5716 1.8438 -0.609725 0
M  V30 698 O 68.8466 1.90521 0.391426 0
M  V30 699 C 69.1296 1.8062 -3.11526 0
M  V30 700 C 68.9826 0.948328 -4.39689 0
M  V30 701 C 70.3016 2.78585 -3.40703 0
M  V30 702 H 67.4206 0.347129 -0.650131 0
M  V30 703 H 70.0626 0.228259 -1.88624 0
M  V30 704 H 68.2126 2.42902 -3.03201 0
M  V30 705 H 69.8846 0.343016 -4.60023 0
M  V30 706 H 68.1276 0.253314 -4.3306 0
M  V30 707 H 68.7986 1.57543 -5.29041 0
M  V30 708 H 71.2746 2.26439 -3.49091 0
M  V30 709 H 70.1506 3.34988 -4.34826 0
M  V30 710 H 70.4116 3.55825 -2.62375 0
M  V30 711 N 69.4707 1.49531 0.497807 0
M  V30 712 C 70.7107 1.60799 1.26187 0
M  V30 713 C 71.0747 0.289627 1.89803 0
M  V30 714 O 72.2757 0.277512 2.67364 0
M  V30 715 C 70.5467 2.73729 2.29798 0
M  V30 716 S 72.1057 3.04968 3.155 0
M  V30 717 H 68.9237 0.567145 0.428798 0
M  V30 718 H 71.5257 1.87204 0.563477 0
M  V30 719 H 70.2297 3.68036 1.81597 0
M  V30 720 H 69.7607 2.49328 3.04301 0
M  V30 721 H 71.7757 2.46735 4.30507 0
M  V30 722 N 70.9488 -0.749086 1.3866 0
M  V30 723 C 71.9118 -1.84457 1.36045 0
M  V30 724 C 72.9118 -1.58682 0.260122 0
M  V30 725 O 74.1018 -1.66343 0.517261 0
M  V30 726 C 71.2338 -3.22008 1.11911 0
M  V30 727 H 72.4268 -1.88182 2.33512 0
M  V30 728 H 69.9798 -0.951266 1.24019 0
M  V30 729 H 70.7148 -3.2395 0.150686 0
M  V30 730 H 70.4998 -3.42111 1.91579 0
M  V30 731 H 71.9898 -4.0208 1.12788 0
M  V30 732 N 72.4269 -1.23603 -0.977757 0
M  V30 733 C 73.3899 -1.02069 -2.05218 0
M  V30 734 C 74.3899 0.0184305 -1.60789 0
M  V30 735 O 75.5799 -0.221569 -1.72785 0
M  V30 736 C 72.7119 -0.544926 -3.36517 0
M  V30 737 H 73.9049 -1.9742 -2.25755 0
M  V30 738 H 71.4579 -1.05684 -1.15155 0
M  V30 739 H 72.1929 0.412241 -3.21669 0
M  V30 740 H 71.9779 -1.2948 -3.70105 0
M  V30 741 H 73.4679 -0.414985 -4.15533 0
M  V30 742 N 73.905 1.17692 -1.04816 0
M  V30 743 C 75.133 1.91786 -0.776254 0
M  V30 744 C 75.548 1.76604 0.667577 0
M  V30 745 O 74.905 1.10067 1.45573 0
M  V30 746 C 74.956 3.42967 -1.14263 0
M  V30 747 O 74.677 3.57678 -2.52978 0
M  V30 748 C 76.178 4.34144 -0.896311 0
M  V30 749 H 73.398 0.608624 -0.282519 0
M  V30 750 H 75.942 1.49268 -1.39783 0
M  V30 751 H 74.097 3.83245 -0.565874 0
M  V30 752 H 74.511 4.51319 -2.67229 0
M  V30 753 H 75.985 5.38744 -1.20244 0
M  V30 754 H 76.462 4.38876 0.168636 0
M  V30 755 H 77.068 3.99574 -1.45672 0
M  V30 756 N 75.3831 0.828654 1.34056 0
M  V30 757 C 76.6131 0.431993 2.02033 0
M  V30 758 C 77.0211 -0.96844 1.62536 0
M  V30 759 O 76.3641 -1.6391 0.829408 0
M  V30 760 C 76.4261 0.461224 3.56529 0
M  V30 761 C 76.0901 1.81599 4.1937 0
M  V30 762 C 77.0871 2.7777 4.39477 0
M  V30 763 C 74.7721 2.10604 4.56017 0
M  V30 764 C 76.7661 4.01115 4.95364 0
M  V30 765 C 74.4531 3.34207 5.11614 0
M  V30 766 C 75.4511 4.2928 5.31232 0
M  V30 767 O 75.1391 5.50699 5.8565 0
M  V30 768 H 74.8711 0.170943 0.654029 0
M  V30 769 H 77.4251 1.11988 1.72185 0
M  V30 770 H 75.6551 -0.283388 3.8566 0
M  V30 771 H 77.3441 0.0838149 4.05813 0
M  V30 772 H 78.1101 2.56659 4.11523 0
M  V30 773 H 73.9891 1.37402 4.40047 0
M  V30 774 H 77.5331 4.75333 5.10592 0
M  V30 775 H 73.4301 3.55179 5.38997 0
M  V30 776 H 74.1981 5.52298 6.04077 0
M  V30 777 N 76.8612 -1.46375 0.584142 0
M  V30 778 C 77.7942 -2.27351 -0.196676 0
M  V30 779 C 78.7722 -1.35715 -0.895561 0
M  V30 780 O 79.9562 -1.65126 -0.90916 0
M  V30 781 C 77.0832 -3.13486 -1.28235 0
M  V30 782 C 76.1292 -4.20896 -0.689145 0
M  V30 783 S 76.9622 -5.33299 0.48507 0
M  V30 784 C 78.1182 -6.23 -0.601767 0
M  V30 785 H 78.3512 -2.93228 0.490395 0
M  V30 786 H 75.8842 -1.49875 0.371071 0
M  V30 787 H 77.8422 -3.63676 -1.90395 0
M  V30 788 H 76.5032 -2.4692 -1.94138 0
M  V30 789 H 75.6962 -4.80997 -1.50527 0
M  V30 790 H 75.2982 -3.73726 -0.143181 0
M  V30 791 H 77.5902 -6.60979 -1.48705 0
M  V30 792 H 78.5332 -7.0809 -0.0374799 0
M  V30 793 H 78.9412 -5.57173 -0.906557 0
M  V30 794 N 78.3393 -0.321999 -1.54275 0
M  V30 795 C 79.2723 0.58718 -2.20516 0
M  V30 796 C 80.2503 1.11693 -1.18167 0
M  V30 797 O 81.4343 1.18122 -1.46899 0
M  V30 798 C 78.5613 1.80554 -2.86562 0
M  V30 799 C 77.6073 1.40718 -4.02617 0
M  V30 800 S 78.4403 0.445218 -5.33646 0
M  V30 801 C 79.5963 1.6709 -6.03185 0
M  V30 802 H 79.8293 0.0244875 -2.9729 0
M  V30 803 H 77.3623 -0.106087 -1.54035 0
M  V30 804 H 79.3203 2.50462 -3.25237 0
M  V30 805 H 77.9813 2.33942 -2.09595 0
M  V30 806 H 77.1743 2.31501 -4.47687 0
M  V30 807 H 76.7763 0.78782 -3.65608 0
M  V30 808 H 79.0683 2.60856 -6.25268 0
M  V30 809 H 80.0113 1.26239 -6.96756 0
M  V30 810 H 80.4193 1.85716 -5.33076 0
M  V30 811 N 79.8174 1.5752 -0.0501392 0
M  V30 812 C 81.0654 1.9227 0.622642 0
M  V30 813 C 81.3864 0.929083 1.71444 0
M  V30 814 O 80.6564 -0.0262186 1.95882 0
M  V30 815 H 79.2364 0.709739 0.232981 0
M  V30 816 H 81.8984 1.94628 -0.102898 0
M  V30 817 H 80.9944 2.93479 1.06191 0
M  V30 818 N 81.2955 -0.223234 1.56011 0
M  V30 819 C 82.2435 -1.29627 1.93131 0
M  V30 820 C 83.2375 -1.48608 0.813146 0
M  V30 821 O 84.4435 -1.49802 0.997966 0
M  V30 822 H 80.8185 -0.434563 0.613726 0
M  V30 823 H 82.7895 -0.955995 2.82672 0
M  V30 824 C 81.5385 -2.63983 2.26292 0
M  V30 825 H 80.8615 -2.50185 3.11846 0
M  V30 826 H 82.3015 -3.3788 2.56151 0
M  V30 827 C 80.7605 -3.18866 1.08747 0
M  V30 828 O 81.2905 -4.00192 0.347727 0
M  V30 829 N 79.4965 -2.77217 0.871743 0
M  V30 830 H 79.0435 -2.1119 1.47501 0
M  V30 831 H 79.0015 -3.1428 0.0869905 0
M  V30 832 N 82.7736 -1.49793 -0.48987 0
M  V30 833 C 83.6836 -1.70036 -1.61632 0
M  V30 834 C 84.6996 -0.583102 -1.63939 0
M  V30 835 O 85.8756 -0.859169 -1.82154 0
M  V30 836 C 82.9406 -1.77277 -2.97949 0
M  V30 837 C 82.0016 -3.00918 -3.06181 0
M  V30 838 C 81.2346 -3.07804 -4.35996 0
M  V30 839 O 81.4576 -2.21982 -5.25433 0
M  V30 840 O 80.3916 -4.00369 -4.49431 0
M  V30 841 H 84.2176 -2.65486 -1.47482 0
M  V30 842 H 81.8026 -1.33666 -0.667362 0
M  V30 843 H 83.6846 -1.84329 -3.78947 0
M  V30 844 H 82.3596 -0.850076 -3.12339 0
M  V30 845 H 81.2666 -2.99377 -2.2433 0
M  V30 846 H 82.5996 -3.92704 -2.96723 0
M  V30 847 N 84.2517 0.741722 -1.39055 0
M  V30 848 C 85.1817 1.869 -1.39966 0
M  V30 849 C 86.1627 1.6804 -0.26392 0
M  V30 850 O 87.3477 1.88458 -0.468755 0
M  V30 851 C 84.4777 3.24572 -1.23574 0
M  V30 852 C 83.4317 3.58056 -2.34477 0
M  V30 853 C 82.7577 4.94593 -2.0318 0
M  V30 854 C 84.0577 3.61716 -3.76774 0
M  V30 855 H 85.7517 1.86395 -2.34302 0
M  V30 856 H 83.2977 0.895361 -1.1278 0
M  V30 857 H 85.2507 4.031 -1.22834 0
M  V30 858 H 83.9747 3.25587 -0.257045 0
M  V30 859 H 82.6337 2.81854 -2.34423 0
M  V30 860 H 82.2817 4.92181 -1.03765 0
M  V30 861 H 81.9817 5.17964 -2.77465 0
M  V30 862 H 83.5057 5.75486 -2.04079 0
M  V30 863 H 84.9197 4.30335 -3.78794 0
M  V30 864 H 83.3167 3.96603 -4.50362 0
M  V30 865 H 84.3867 2.61672 -4.08235 0
M  V30 866 N 85.7298 1.2412 0.971189 0
M  V30 867 C 86.9578 1.10575 1.74874 0
M  V30 868 C 87.3728 -0.342017 1.85676 0
M  V30 869 O 86.7298 -1.23617 1.34258 0
M  V30 870 C 86.7808 1.73579 3.171 0
M  V30 871 O 86.5018 3.12695 3.06844 0
M  V30 872 C 88.0028 1.65598 4.11208 0
M  V30 873 H 85.2228 0.386504 0.548503 0
M  V30 874 H 87.7668 1.64156 1.21955 0
M  V30 875 H 85.9218 1.24009 3.67016 0
M  V30 876 H 86.3358 3.43412 3.96445 0
M  V30 877 H 87.8098 2.1437 5.08674 0
M  V30 878 H 88.2868 0.616532 4.34851 0
M  V30 879 H 88.8928 2.14578 3.67201 0
M  V30 880 N 87.2079 -1.17134 1.05439 0
M  V30 881 C 88.4549 -1.87456 0.765942 0
M  V30 882 C 88.7829 -1.81189 -0.707153 0
M  V30 883 O 88.0379 -1.21633 -1.5331 0
M  V30 884 C 88.3369 -3.36833 1.19491 0
M  V30 885 C 88.0029 -3.63301 2.67063 0
M  V30 886 C 86.6649 -3.70234 3.07376 0
M  V30 887 C 89.0169 -3.74575 3.62413 0
M  V30 888 C 86.3449 -3.85933 4.41896 0
M  V30 889 C 88.6969 -3.91793 4.9667 0
M  V30 890 C 87.3609 -3.96966 5.36633 0
M  V30 891 H 86.6309 -0.685948 0.280278 0
M  V30 892 H 89.2779 -1.38556 1.32192 0
M  V30 893 H 87.5829 -3.87807 0.557969 0
M  V30 894 H 89.2799 -3.89611 0.948893 0
M  V30 895 H 85.8699 -3.58532 2.34846 0
M  V30 896 H 90.0539 -3.68537 3.32406 0
M  V30 897 H 85.3099 -3.88187 4.72357 0
M  V30 898 H 89.4839 -3.99458 5.70444 0
M  V30 899 H 87.1109 -4.08883 6.40874 0
M  V30 900 N 88.686 -0.835752 -1.33615 0
M  V30 901 C 89.616 -0.281739 -2.31794 0
M  V30 902 C 90.597 0.608833 -1.58831 0
M  V30 903 O 91.782 0.533035 -1.86741 0
M  V30 904 C 88.912 0.546612 -3.42971 0
M  V30 905 C 87.866 -0.247904 -4.27281 0
M  V30 906 C 87.192 0.704001 -5.30045 0
M  V30 907 C 88.492 -1.46324 -5.01385 0
M  V30 908 H 90.186 -1.10206 -2.78379 0
M  V30 909 H 87.732 -0.531388 -1.33837 0
M  V30 910 H 89.685 0.944467 -4.1068 0
M  V30 911 H 88.409 1.40011 -2.95067 0
M  V30 912 H 87.068 -0.627281 -3.61194 0
M  V30 913 H 86.716 1.55381 -4.78399 0
M  V30 914 H 86.416 0.176524 -5.87335 0
M  V30 915 H 87.94 1.09944 -6.0062 0
M  V30 916 H 89.354 -1.13871 -5.61877 0
M  V30 917 H 87.751 -1.92728 -5.6831 0
M  V30 918 H 88.821 -2.23467 -4.30338 0
M  V30 919 N 90.1641 1.46063 -0.591896 0
M  V30 920 C 91.4411 1.95595 -0.0137119 0
M  V30 921 C 91.8211 1.5345 1.4497 0
M  V30 922 O 91.1691 0.789543 2.14426 0
M  V30 923 C 91.3791 3.48453 -0.195373 0
M  V30 924 C 92.7271 4.24546 -0.0679765 0
M  V30 925 O 93.7511 3.55982 -0.124681 0
M  V30 926 O 92.6101 5.46467 0.0600579 0
M  V30 927 H 89.7041 0.825795 0.0446279 0
M  V30 928 H 92.2501 1.56303 -0.660859 0
M  V30 929 H 91.0221 3.72045 -1.21235 0
M  V30 930 H 90.6451 3.94597 0.487775 0
M  V30 931 N 91.6422 0.330177 1.54103 0
M  V30 932 C 92.9192 -0.325007 1.92881 0
M  V30 933 C 93.2992 -1.6934 1.26045 0
M  V30 934 O 92.6472 -2.24855 0.406526 0
M  V30 935 C 92.8572 -0.410634 3.46576 0
M  V30 936 C 94.2052 -0.667801 4.19316 0
M  V30 937 O 95.2292 -0.49329 3.52768 0
M  V30 938 O 94.0882 -1.00491 5.37181 0
M  V30 939 H 91.1822 -0.186873 0.80561 0
M  V30 940 H 93.7282 0.380376 1.65382 0
M  V30 941 H 92.5002 0.550164 3.87413 0
M  V30 942 H 92.1232 -1.16333 3.802 0
M  V30 943 N 93.1203 -1.57491 0.0584922 0
M  V30 944 C 94.3453 -1.97711 -0.62652 0
M  V30 945 C 94.7703 -0.936132 -1.63151 0
M  V30 946 O 94.1283 0.099811 -1.81025 0
M  V30 947 C 94.1763 -3.36989 -1.28338 0
M  V30 948 O 93.2803 -3.35433 -2.39913 0
M  V30 949 H 92.6213 -0.643868 -0.162266 0
M  V30 950 H 95.1513 -2.04193 0.129064 0
M  V30 951 H 95.1613 -3.73879 -1.63335 0
M  V30 952 H 93.8363 -4.12289 -0.546889 0
M  V30 953 H 92.4133 -3.10298 -2.06809 0
M  V30 954 N 94.5984 0.214957 -1.56127 0
M  V30 955 C 95.8474 0.936451 -1.78643 0
M  V30 956 C 96.1604 1.85237 -0.628229 0
M  V30 957 O 97.3664 2.613 -0.737186 0
M  V30 958 C 95.8224 1.7154 -3.16389 0
M  V30 959 C 95.4304 0.845299 -4.39953 0
M  V30 960 C 97.1744 2.42772 -3.48227 0
M  V30 961 C 95.0814 1.62198 -5.68723 0
M  V30 962 H 94.0114 0.353401 -0.666051 0
M  V30 963 H 96.6624 0.190169 -1.82512 0
M  V30 964 H 95.0444 2.50484 -3.06715 0
M  V30 965 H 96.2184 0.0959353 -4.607 0
M  V30 966 H 94.5334 0.244789 -4.1568 0
M  V30 967 H 97.1304 3.01394 -4.41663 0
M  V30 968 H 97.4734 3.15984 -2.71035 0
M  V30 969 H 98.0064 1.70813 -3.5926 0
M  V30 970 H 94.7454 0.933011 -6.48826 0
M  V30 971 H 94.2654 2.34579 -5.52026 0
M  V30 972 H 95.9444 2.18095 -6.09133 0
M  V30 973 N 96.0765 1.50051 0.48192 0
M  V30 974 C 97.3165 1.62128 1.24474 0
M  V30 975 C 97.6805 0.309742 1.89485 0
M  V30 976 O 98.8815 0.305854 2.67054 0
M  V30 977 C 97.1525 2.76151 2.26882 0
M  V30 978 S 98.7115 3.08297 3.12247 0
M  V30 979 H 95.5295 0.571661 0.422759 0
M  V30 980 H 98.1315 1.87791 0.54359 0
M  V30 981 H 96.8355 3.69942 1.77683 0
M  V30 982 H 96.3665 2.52541 3.0164 0
M  V30 983 H 98.3815 2.51287 4.27866 0
M  V30 984 N 97.5546 -0.734337 1.39446 0
M  V30 985 C 98.7826 -1.52358 1.39981 0
M  V30 986 C 99.1976 -1.88799 -0.0054975 0
M  V30 987 O 98.5546 -1.54146 -0.976998 0
M  V30 988 C 98.6056 -2.81072 2.27333 0
M  V30 989 O 98.3266 -2.46178 3.62392 0
M  V30 990 C 99.8276 -3.75096 2.36259 0
M  V30 991 H 97.0476 -0.470806 0.478103 0
M  V30 992 H 99.5916 -0.907339 1.83269 0
M  V30 993 H 97.7466 -3.39026 1.87457 0
M  V30 994 H 98.1606 -3.28866 4.08592 0
M  V30 995 H 99.6346 -4.62305 3.01626 0
M  V30 996 H 100.112 -4.16892 1.38194 0
M  V30 997 H 100.718 -3.23061 2.76608 0
M  V30 998 N 99.0327 -1.24633 -0.964593 0
M  V30 999 C 100.281 -1.08573 -1.70459 0
M  V30 1000 C 100.602 0.375655 -1.91347 0
M  V30 1001 O 99.8717 1.26779 -1.49345 0
M  V30 1002 H 98.4517 -0.398784 -0.631649 0
M  V30 1003 H 101.114 -1.56601 -1.16026 0
M  V30 1004 H 100.21 -1.58623 -2.68785 0
M  V30 1005 N 100.511 1.16574 -1.06058 0
M  V30 1006 C 101.739 1.90952 -0.796552 0
M  V30 1007 C 102.154 1.77302 0.648808 0
M  V30 1008 O 101.511 1.11605 1.44397 0
M  V30 1009 C 101.562 3.41736 -1.17894 0
M  V30 1010 O 101.283 3.54975 -2.56758 0
M  V30 1011 C 102.784 4.33169 -0.942308 0
M  V30 1012 H 100.004 0.605594 -0.288959 0
M  V30 1013 H 102.548 1.47777 -1.41358 0
M  V30 1014 H 100.703 3.82623 -0.606491 0
M  V30 1015 H 101.117 4.4846 -2.72 0
M  V30 1016 H 102.591 5.37439 -1.25952 0
M  V30 1017 H 103.068 4.3903 0.122078 0
M  V30 1018 H 103.674 3.98007 -1.49902 0
M  V30 1019 N 101.989 0.842826 1.3317 0
M  V30 1020 C 103.214 0.453129 2.02389 0
M  V30 1021 C 103.639 -0.939105 1.6298 0
M  V30 1022 O 102.997 -1.61472 0.8244 0
M  V30 1023 C 103.045 0.586094 3.55805 0
M  V30 1024 O 102.149 -0.386029 4.10589 0
M  V30 1025 H 101.49 0.183664 0.638094 0
M  V30 1026 H 104.02 1.13875 1.69981 0
M  V30 1027 H 104.03 0.469209 4.05293 0
M  V30 1028 H 102.705 1.6014 3.83833 0
M  V30 1029 H 101.282 -0.226371 3.72212 0
M  V30 1030 N 103.467 -1.45747 0.599634 0
M  V30 1031 C 104.692 -2.07178 0.0960198 0
M  V30 1032 C 105.117 -1.44268 -1.207 0
M  V30 1033 O 104.475 -0.532503 -1.73303 0
M  V30 1034 C 104.523 -3.60579 -0.0385348 0
M  V30 1035 O 103.627 -3.97713 -1.0908 0
M  V30 1036 H 102.968 -0.660251 0.0704593 0
M  V30 1037 H 105.498 -1.87124 0.827385 0
M  V30 1038 H 105.508 -4.07298 -0.239304 0
M  V30 1039 H 104.183 -4.05756 0.912947 0
M  V30 1040 H 102.76 -3.62678 -0.867135 0
M  V30 1041 N 104.945 -0.338344 -1.53925 0
M  V30 1042 C 106.193 0.259245 -2.0043 0
M  V30 1043 C 106.514 1.51484 -1.22791 0
M  V30 1044 O 105.784 1.93037 -0.33368 0
M  V30 1045 H 104.364 0.0987845 -0.740439 0
M  V30 1046 H 107.026 -0.458302 -1.89435 0
M  V30 1047 H 106.122 0.505334 -3.07982 0
M  V30 1048 N 106.423 1.57458 -0.0668435 0
M  V30 1049 C 107.371 2.13639 0.919851 0
M  V30 1050 C 108.365 1.07204 1.31163 0
M  V30 1051 O 109.571 1.25591 1.28945 0
M  V30 1052 H 105.946 0.683048 0.314562 0
M  V30 1053 H 107.917 2.95415 0.421047 0
M  V30 1054 C 106.666 2.70892 2.17975 0
M  V30 1055 H 105.989 3.5246 1.88711 0
M  V30 1056 H 107.429 3.13803 2.85138 0
M  V30 1057 C 105.888 1.65414 2.93496 0
M  V30 1058 O 106.418 1.07619 3.87015 0
M  V30 1059 N 104.624 1.36564 2.56512 0
M  V30 1060 H 104.171 1.83751 1.80536 0
M  V30 1061 H 104.129 0.66223 3.07347 0
M  V30 1062 N 107.901 -0.206675 1.56239 0
M  V30 1063 C 108.833 -1.27997 1.9013 0
M  V30 1064 C 109.846 -1.42299 0.790883 0
M  V30 1065 O 111.035 -1.42931 1.06925 0
M  V30 1066 C 108.135 -2.65368 2.10792 0
M  V30 1067 C 107.308 -2.72824 3.41886 0
M  V30 1068 C 106.367 -3.9131 3.51799 0
M  V30 1069 O 105.393 -3.78953 4.24716 0
M  V30 1070 N 106.595 -5.06265 2.84035 0
M  V30 1071 H 109.36 -0.992444 2.82791 0
M  V30 1072 H 106.921 -0.396652 1.56966 0
M  V30 1073 H 108.913 -3.43039 2.14724 0
M  V30 1074 H 107.483 -2.86657 1.24685 0
M  V30 1075 H 106.703 -1.81515 3.49923 0
M  V30 1076 H 107.991 -2.74786 4.28217 0
M  V30 1077 H 107.389 -5.19203 2.246 0
M  V30 1078 H 105.946 -5.81925 2.93609 0
M  V30 1079 N 109.379 -1.50304 -0.473955 0
M  V30 1080 C 110.625 -1.61389 -1.22806 0
M  V30 1081 C 110.958 -0.311955 -1.91678 0
M  V30 1082 O 110.233 0.686384 -1.81986 0
M  V30 1083 C 110.516 -2.79219 -2.27396 0
M  V30 1084 C 110.369 -4.19286 -1.62848 0
M  V30 1085 C 111.688 -2.92614 -3.28732 0
M  V30 1086 H 108.807 -0.587399 -0.445119 0
M  V30 1087 H 111.449 -1.82681 -0.522265 0
M  V30 1088 H 109.599 -2.61195 -2.87592 0
M  V30 1089 H 111.271 -4.48892 -1.06271 0
M  V30 1090 H 109.514 -4.23677 -0.931693 0
M  V30 1091 H 110.185 -4.97655 -2.38838 0
M  V30 1092 H 112.661 -3.09105 -2.78556 0
M  V30 1093 H 111.537 -3.76688 -3.99246 0
M  V30 1094 H 111.798 -2.03107 -3.92683 0
M  V30 1095 N 110.857 0.726932 -1.39834 0
M  V30 1096 C 111.805 1.86235 -1.39353 0
M  V30 1097 C 112.799 1.67144 -0.275555 0
M  V30 1098 O 114.005 1.74387 -0.44601 0
M  V30 1099 H 110.38 0.613174 -0.43534 0
M  V30 1100 H 112.351 1.83756 -2.35109 0
M  V30 1101 C 111.1 3.23995 -1.26185 0
M  V30 1102 H 110.423 3.39285 -2.11484 0
M  V30 1103 H 111.863 4.03609 -1.29907 0
M  V30 1104 C 110.322 3.36888 0.0290018 0
M  V30 1105 O 110.852 3.89152 0.99619 0
M  V30 1106 N 109.058 2.90446 0.0947437 0
M  V30 1107 H 108.605 2.48102 -0.693035 0
M  V30 1108 H 108.563 2.99451 0.957932 0
M  V30 1109 N 112.336 1.25143 0.95797 0
M  V30 1110 C 113.266 1.07711 2.07173 0
M  V30 1111 C 114.247 -0.0128462 1.70095 0
M  V30 1112 O 115.432 0.156061 1.93572 0
M  V30 1113 C 112.562 0.691503 3.40346 0
M  V30 1114 C 111.516 1.73132 3.9142 0
M  V30 1115 C 110.842 1.20049 5.21049 0
M  V30 1116 C 112.142 3.1294 4.1817 0
M  V30 1117 H 113.836 2.00873 2.22014 0
M  V30 1118 H 111.382 0.967191 1.06684 0
M  V30 1119 H 113.335 0.556505 4.17709 0
M  V30 1120 H 112.059 -0.275819 3.25433 0
M  V30 1121 H 110.718 1.8547 3.16222 0
M  V30 1122 H 110.366 0.223499 5.02503 0
M  V30 1123 H 110.066 1.89545 5.56189 0
M  V30 1124 H 111.59 1.07782 6.01012 0
M  V30 1125 H 113.004 3.03775 4.86203 0
M  V30 1126 H 111.401 3.79875 4.64559 0
M  V30 1127 H 112.471 3.6025 3.24573 0
M  V30 1128 N 113.814 -1.1601 1.06675 0
M  V30 1129 C 115.042 -1.90527 0.806667 0
M  V30 1130 C 115.457 -1.77643 -0.639396 0
M  V30 1131 O 114.814 -1.12369 -1.43803 0
M  V30 1132 C 114.865 -3.41106 1.19705 0
M  V30 1133 O 114.586 -3.53608 2.58636 0
M  V30 1134 C 116.087 -4.32663 0.965266 0
M  V30 1135 H 113.307 -0.604053 0.292166 0
M  V30 1136 H 115.851 -1.47026 1.4214 0
M  V30 1137 H 114.006 -3.82296 0.626774 0
M  V30 1138 H 114.42 -4.47011 2.74375 0
M  V30 1139 H 115.894 -5.36763 1.288 0
M  V30 1140 H 116.371 -4.39089 -0.0987936 0
M  V30 1141 H 116.977 -3.97206 1.52011 0
M  V30 1142 N 115.292 -0.849877 -1.32721 0
M  V30 1143 C 116.541 -0.447175 -1.96681 0
M  V30 1144 C 116.854 1.00135 -1.68025 0
M  V30 1145 O 118.06 1.50926 -2.25685 0
M  V30 1146 C 116.516 -0.7487 -3.52026 0
M  V30 1147 C 116.124 -2.21264 -3.89546 0
M  V30 1148 C 117.868 -0.413487 -4.22481 0
M  V30 1149 C 115.775 -2.45763 -5.37917 0
M  V30 1150 H 114.705 -0.163486 -0.736063 0
M  V30 1151 H 117.356 -1.03999 -1.51183 0
M  V30 1152 H 115.738 -0.0853727 -3.95908 0
M  V30 1153 H 116.912 -2.91736 -3.56689 0
M  V30 1154 H 115.227 -2.5119 -3.32103 0
M  V30 1155 H 117.824 -0.574017 -5.3161 0
M  V30 1156 H 118.167 0.644492 -4.11281 0
M  V30 1157 H 118.7 -1.03251 -3.84167 0
M  V30 1158 H 115.439 -3.50168 -5.54132 0
M  V30 1159 H 114.959 -1.79864 -5.72197 0
M  V30 1160 H 116.638 -2.29471 -6.0494 0
M  V30 1161 N 116.77 1.45427 -0.607355 0
M  V30 1162 C 117.702 2.2871 0.149752 0
M  V30 1163 C 118.715 1.39937 0.831958 0
M  V30 1164 O 119.904 1.64313 0.697385 0
M  V30 1165 C 117.004 3.15673 1.23304 0
M  V30 1166 C 116.177 4.32722 0.637996 0
M  V30 1167 C 115.236 5.00895 1.61215 0
M  V30 1168 O 114.262 5.57697 1.13854 0
M  V30 1169 N 115.464 5.00159 2.94655 0
M  V30 1170 H 118.229 2.94328 -0.564882 0
M  V30 1171 H 115.79 1.55612 -0.446823 0
M  V30 1172 H 117.782 3.58144 1.88454 0
M  V30 1173 H 116.352 2.51965 1.8502 0
M  V30 1174 H 115.572 3.93734 -0.191572 0
M  V30 1175 H 116.86 5.08321 0.220665 0
M  V30 1176 H 116.258 4.553 3.35735 0
M  V30 1177 H 114.815 5.46495 3.55228 0
M  V30 1178 N 118.248 0.346503 1.53744 0
M  V30 1179 C 119.496 -0.248612 2.00565 0
M  V30 1180 C 119.817 -1.5083 1.23593 0
M  V30 1181 O 119.087 -1.92858 0.343912 0
M  V30 1182 H 117.667 -0.0948564 0.740953 0
M  V30 1183 H 120.329 0.468341 1.89189 0
M  V30 1184 H 119.425 -0.488994 3.08245 0
M  V30 1185 N 119.726 -1.57421 0.075193 0
M  V30 1186 C 120.656 -2.15942 -0.888324 0
M  V30 1187 C 121.637 -1.08737 -1.30806 0
M  V30 1188 O 122.822 -1.36787 -1.37851 0
M  V30 1189 C 119.952 -2.72379 -2.1547 0
M  V30 1190 C 118.906 -3.8478 -1.87425 0
M  V30 1191 C 118.232 -4.27834 -3.20721 0
M  V30 1192 C 119.532 -5.08869 -1.17684 0
M  V30 1193 H 121.226 -2.96705 -0.400799 0
M  V30 1194 H 118.772 -1.42723 -0.191342 0
M  V30 1195 H 120.725 -3.11965 -2.83295 0
M  V30 1196 H 119.449 -1.88841 -2.6647 0
M  V30 1197 H 118.108 -3.45703 -1.22004 0
M  V30 1198 H 117.756 -3.41214 -3.6957 0
M  V30 1199 H 117.456 -5.03605 -3.02746 0
M  V30 1200 H 118.98 -4.70039 -3.89738 0
M  V30 1201 H 120.394 -5.4575 -1.75584 0
M  V30 1202 H 118.791 -5.8994 -1.09956 0
M  V30 1203 H 119.861 -4.84648 -0.156453 0
M  V30 1204 N 121.204 0.198386 -1.56346 0
M  V30 1205 C 122.62 0.549085 -1.49857 0
M  V30 1206 C 122.82 1.86016 -0.774611 0
M  V30 1207 O 121.876 2.50416 -0.323776 0
M  V30 1208 C 123.189 0.606868 -2.94512 0
M  V30 1209 C 124.737 0.695925 -3.05165 0
M  V30 1210 C 125.212 0.784848 -4.51225 0
M  V30 1211 N 126.703 0.848463 -4.55363 0
M  V30 1212 C 127.438 0.937378 -5.65686 0
M  V30 1213 N 126.934 0.9888 -6.85707 0
M  V30 1214 N 128.727 0.974312 -5.53592 0
M  V30 1215 H 120.878 -0.661655 -2.01831 0
M  V30 1216 H 123.141 -0.235261 -0.918344 0
M  V30 1217 H 122.847 -0.28732 -3.50524 0
M  V30 1218 H 122.721 1.46268 -3.47686 0
M  V30 1219 H 125.108 1.58055 -2.49204 0
M  V30 1220 H 125.189 -0.186022 -2.55123 0
M  V30 1221 H 124.833 -0.0954072 -5.0781 0
M  V30 1222 H 124.763 1.68255 -4.98997 0
M  V30 1223 H 127.254 0.818103 -3.68938 0
M  V30 1224 H 127.567 1.05707 -7.65536 0
M  V30 1225 H 125.912 0.957534 -6.88372 0
M  V30 1226 H 129.103 0.930954 -4.58749 0
M  V30 1227 H 129.276 1.04015 -6.39597 0
M  V30 1228 N 122.682 1.50554 0.465978 0
M  V30 1229 C 123.645 1.69233 1.54574 0
M  V30 1230 C 124.645 0.562901 1.50626 0
M  V30 1231 O 125.835 0.830016 1.53155 0
M  V30 1232 C 122.967 1.7223 2.94193 0
M  V30 1233 H 124.16 2.65571 1.39327 0
M  V30 1234 H 121.713 1.40111 0.692711 0
M  V30 1235 H 122.448 0.77603 3.14878 0
M  V30 1236 H 122.233 2.54285 2.98466 0
M  V30 1237 H 123.723 1.88618 3.72576 0
M  V30 1238 N 124.16 -0.719506 1.40217 0
M  V30 1239 C 125.093 -1.84298 1.34571 0
M  V30 1240 C 126.071 -1.61149 0.216741 0
M  V30 1241 O 127.255 -1.84212 0.399756 0
M  V30 1242 C 124.382 -3.20568 1.09335 0
M  V30 1243 C 123.428 -3.62551 2.24631 0
M  V30 1244 S 124.261 -3.7012 3.87004 0
M  V30 1245 C 125.417 -5.09154 3.64024 0
M  V30 1246 H 125.65 -1.88807 2.2965 0
M  V30 1247 H 123.183 -0.885901 1.26456 0
M  V30 1248 H 125.141 -3.99246 0.954602 0
M  V30 1249 H 123.802 -3.13696 0.159164 0
M  V30 1250 H 122.995 -4.61483 2.02606 0
M  V30 1251 H 122.597 -2.91119 2.34789 0
M  V30 1252 H 124.889 -5.95955 3.22248 0
M  V30 1253 H 125.832 -5.36213 4.62473 0
M  V30 1254 H 126.24 -4.79562 2.97793 0
M  V30 1255 N 125.638 -1.25649 -0.95132 0
M  V30 1256 C 126.915 -1.01361 -1.67288 0
M  V30 1257 C 127.295 0.459135 -2.06046 0
M  V30 1258 O 126.643 1.43723 -1.7764 0
M  V30 1259 C 126.853 -1.95256 -2.89268 0
M  V30 1260 C 128.201 -2.23289 -3.61147 0
M  V30 1261 O 129.225 -1.93041 -2.99355 0
M  V30 1262 O 128.084 -2.74741 -4.72419 0
M  V30 1263 H 125.178 -0.38464 -0.732107 0
M  V30 1264 H 127.724 -1.36817 -1.00395 0
M  V30 1265 H 126.496 -2.94685 -2.57442 0
M  V30 1266 H 126.119 -1.60218 -3.6389 0
M  V30 1267 N 127.117 1.15442 -1.07289 0
M  V30 1268 C 128.345 1.90096 -0.81676 0
M  V30 1269 C 128.76 1.7798 0.629966 0
M  V30 1270 O 128.117 1.1313 1.43206 0
M  V30 1271 C 128.168 3.40466 -1.21512 0
M  V30 1272 O 127.889 3.52232 -2.60508 0
M  V30 1273 C 129.39 4.32145 -0.988198 0
M  V30 1274 H 126.61 0.602495 -0.295366 0
M  V30 1275 H 129.154 1.4627 -1.42918 0
M  V30 1276 H 127.309 3.81958 -0.647039 0
M  V30 1277 H 127.723 4.45549 -2.76742 0
M  V30 1278 H 129.197 5.36072 -1.31645 0
M  V30 1279 H 129.674 4.39135 0.0755063 0
M  V30 1280 H 130.28 3.96395 -1.54115 0
M  V30 1281 N 128.595 0.856903 1.32268 0
M  V30 1282 C 129.843 0.460474 1.96784 0
M  V30 1283 C 130.164 -0.987701 1.68135 0
M  V30 1284 O 129.434 -1.69058 0.989765 0
M  V30 1285 H 128.014 0.167289 0.728027 0
M  V30 1286 H 130.676 1.09383 1.61312 0
M  V30 1287 H 129.772 0.60739 3.06133 0
M  V30 1288 N 130.073 -1.45103 0.615059 0
M  V30 1289 C 131.003 -2.33339 -0.0865619 0
M  V30 1290 C 131.984 -1.4727 -0.851209 0
M  V30 1291 O 133.169 -1.76026 -0.820281 0
M  V30 1292 C 130.299 -3.30095 -1.07956 0
M  V30 1293 C 129.253 -4.25858 -0.427628 0
M  V30 1294 C 128.579 -5.12361 -1.5294 0
M  V30 1295 C 129.879 -5.18165 0.655944 0
M  V30 1296 H 131.573 -2.92254 0.650224 0
M  V30 1297 H 129.119 -1.40532 0.314138 0
M  V30 1298 H 131.072 -3.90698 -1.57901 0
M  V30 1299 H 129.796 -2.69355 -1.84703 0
M  V30 1300 H 128.455 -3.66564 0.0510292 0
M  V30 1301 H 128.103 -4.47984 -2.28734 0
M  V30 1302 H 127.803 -5.77238 -1.09865 0
M  V30 1303 H 129.327 -5.75833 -2.03098 0
M  V30 1304 H 130.741 -5.72796 0.240257 0
M  V30 1305 H 129.138 -5.91559 1.00888 0
M  V30 1306 H 130.208 -4.60144 1.52957 0
M  V30 1307 N 131.551 -0.354651 -1.53558 0
M  V30 1308 C 132.781 0.239167 -2.05211 0
M  V30 1309 C 133.189 1.43879 -1.22863 0
M  V30 1310 O 132.532 1.81857 -0.259565 0
M  V30 1311 C 132.594 0.707251 -3.52474 0
M  V30 1312 C 132.258 -0.374212 -4.55465 0
M  V30 1313 C 133.255 -1.22054 -5.0537 0
M  V30 1314 C 130.94 -0.531323 -4.99482 0
M  V30 1315 C 132.934 -2.20942 -5.97882 0
M  V30 1316 C 130.621 -1.52358 -5.91802 0
M  V30 1317 C 131.619 -2.36108 -6.40892 0
M  V30 1318 O 131.307 -3.33643 -7.31394 0
M  V30 1319 H 131.039 0.0479716 -0.674296 0
M  V30 1320 H 133.593 -0.508121 -1.99016 0
M  V30 1321 H 131.823 1.50596 -3.56171 0
M  V30 1322 H 133.512 1.22285 -3.87042 0
M  V30 1323 H 134.278 -1.1103 -4.7212 0
M  V30 1324 H 130.157 0.110738 -4.60867 0
M  V30 1325 H 133.701 -2.86348 -6.36121 0
M  V30 1326 H 129.598 -1.63434 -6.24467 0
M  V30 1327 H 130.366 -3.29244 -7.4936 0
M  V30 1328 N 133.029 1.57378 -0.0835403 0
M  V30 1329 C 134.278 1.93106 0.582498 0
M  V30 1330 C 134.591 0.96651 1.70053 0
M  V30 1331 O 135.797 1.21705 2.42693 0
M  V30 1332 C 134.253 3.43076 1.08751 0
M  V30 1333 C 133.861 4.48 -0.000146404 0
M  V30 1334 C 135.605 3.87785 1.72694 0
M  V30 1335 C 133.512 5.89113 0.519568 0
M  V30 1336 H 132.442 0.720775 0.221358 0
M  V30 1337 H 135.093 1.82821 -0.157675 0
M  V30 1338 H 133.475 3.48474 1.88101 0
M  V30 1339 H 134.649 4.54233 -0.775199 0
M  V30 1340 H 132.964 4.1283 -0.54406 0
M  V30 1341 H 135.561 4.90604 2.1263 0
M  V30 1342 H 135.904 3.25796 2.59158 0
M  V30 1343 H 136.437 3.8504 0.999457 0
M  V30 1344 H 133.176 6.54775 -0.308186 0
M  V30 1345 H 132.696 5.86376 1.26188 0
M  V30 1346 H 134.375 6.39346 0.992237 0
M  V30 1347 N 134.507 -0.190092 1.56449 0
M  V30 1348 C 135.747 -0.916414 1.82705 0
M  V30 1349 C 136.111 -1.80235 0.661763 0
M  V30 1350 O 137.312 -2.56484 0.80433 0
M  V30 1351 C 135.583 -1.70691 3.14005 0
M  V30 1352 S 137.142 -2.48457 3.61683 0
M  V30 1353 H 133.96 -0.307281 0.64117 0
M  V30 1354 H 136.562 -0.179433 1.94675 0
M  V30 1355 H 135.266 -1.04677 3.96826 0
M  V30 1356 H 134.797 -2.48562 3.04927 0
M  V30 1357 H 136.812 -3.72756 3.27517 0
M  V30 1358 N 135.985 -1.50799 -0.457987 0
M  V30 1359 C 136.932 -1.70617 -1.5543 0
M  V30 1360 C 137.902 -0.547562 -1.56815 0
M  V30 1361 O 139.087 -0.779647 -1.74144 0
M  V30 1362 C 136.227 -1.81831 -2.93311 0
M  V30 1363 C 135.34 -3.09278 -3.01615 0
M  V30 1364 C 134.475 -3.11209 -4.30491 0
M  V30 1365 C 133.514 -4.33055 -4.32585 0
M  V30 1366 N 132.651 -4.32652 -5.52952 0
M  V30 1367 H 137.491 -2.64207 -1.37836 0
M  V30 1368 H 135.028 -1.30959 -0.669937 0
M  V30 1369 H 136.986 -1.86314 -3.73287 0
M  V30 1370 H 135.616 -0.916685 -3.0951 0
M  V30 1371 H 134.668 -3.14203 -2.1443 0
M  V30 1372 H 135.98 -3.99233 -2.99022 0
M  V30 1373 H 135.134 -3.14494 -5.18824 0
M  V30 1374 H 133.873 -2.19106 -4.35711 0
M  V30 1375 H 132.878 -4.29969 -3.42647 0
M  V30 1376 H 134.103 -5.264 -4.29046 0
M  V30 1377 H 132.049 -3.43409 -5.58933 0
M  V30 1378 H 131.966 -5.16392 -5.52155 0
M  V30 1379 H 133.234 -4.40101 -6.43375 0
M  V30 1380 N 137.463 0.71206 -1.40597 0
M  V30 1381 C 138.709 1.47416 -1.39271 0
M  V30 1382 C 139.042 1.942 0.00388791 0
M  V30 1383 O 138.317 1.68403 0.973179 0
M  V30 1384 C 138.6 2.69774 -2.38525 0
M  V30 1385 C 138.453 2.28861 -3.87224 0
M  V30 1386 C 139.772 3.71939 -2.35264 0
M  V30 1387 H 136.891 0.534713 -0.5072 0
M  V30 1388 H 139.533 0.812375 -1.71757 0
M  V30 1389 H 137.683 3.26238 -2.10953 0
M  V30 1390 H 139.355 1.77852 -4.25636 0
M  V30 1391 H 137.598 1.60824 -4.02887 0
M  V30 1392 H 138.269 3.16584 -4.52193 0
M  V30 1393 H 140.745 3.25113 -2.59694 0
M  V30 1394 H 139.621 4.55186 -3.06753 0
M  V30 1395 H 139.882 4.20484 -1.36549 0
M  V30 1396 N 138.941 1.26152 0.944643 0
M  V30 1397 C 139.851 1.09176 2.07648 0
M  V30 1398 C 140.867 0.0261935 1.7398 0
M  V30 1399 O 142.043 0.229208 2.00091 0
M  V30 1400 C 139.108 0.722915 3.39079 0
M  V30 1401 C 138.169 1.86752 3.86552 0
M  V30 1402 C 137.402 1.51617 5.11711 0
M  V30 1403 O 137.625 0.416331 5.68879 0
M  V30 1404 O 136.559 2.34975 5.54139 0
M  V30 1405 H 140.385 2.0412 2.24875 0
M  V30 1406 H 137.97 1.05182 1.061 0
M  V30 1407 H 139.852 0.529787 4.18056 0
M  V30 1408 H 138.527 -0.197159 3.23099 0
M  V30 1409 H 137.434 2.11558 3.08535 0
M  V30 1410 H 138.767 2.76719 4.07047 0
M  V30 1411 N 140.419 -1.14872 1.07899 0
M  V30 1412 C 141.349 -2.2193 0.725887 0
M  V30 1413 C 142.33 -1.67622 -0.28927 0
M  V30 1414 O 143.515 -1.93533 -0.160787 0
M  V30 1415 C 140.645 -3.47061 0.128856 0
M  V30 1416 C 139.599 -4.14363 1.07178 0
M  V30 1417 C 138.925 -5.33636 0.337229 0
M  V30 1418 C 140.225 -4.63492 2.40775 0
M  V30 1419 H 141.919 -2.51724 1.62097 0
M  V30 1420 H 139.465 -1.20991 0.780838 0
M  V30 1421 H 141.418 -4.21199 -0.130147 0
M  V30 1422 H 140.142 -3.16617 -0.80134 0
M  V30 1423 H 138.801 -3.42173 1.3158 0
M  V30 1424 H 138.449 -4.99449 -0.596606 0
M  V30 1425 H 138.149 -5.79609 0.965788 0
M  V30 1426 H 139.673 -6.10539 0.0861567 0
M  V30 1427 H 141.087 -5.2913 2.20669 0
M  V30 1428 H 139.484 -5.20148 2.99276 0
M  V30 1429 H 140.554 -3.78834 3.02676 0
M  V30 1430 N 141.898 -0.863906 -1.31812 0
M  V30 1431 C 142.831 -0.259963 -2.26714 0
M  V30 1432 C 143.809 0.607392 -1.50829 0
M  V30 1433 O 144.993 0.562155 -1.79922 0
M  V30 1434 C 142.12 0.632456 -3.32743 0
M  V30 1435 C 141.166 -0.162743 -4.26189 0
M  V30 1436 S 141.999 -1.53726 -5.12961 0
M  V30 1437 C 143.155 -0.650803 -6.22507 0
M  V30 1438 H 143.388 -1.06445 -2.77591 0
M  V30 1439 H 140.921 -0.662071 -1.39485 0
M  V30 1440 H 142.879 1.14167 -3.94305 0
M  V30 1441 H 141.54 1.41083 -2.80632 0
M  V30 1442 H 140.733 0.517366 -5.01338 0
M  V30 1443 H 140.335 -0.60385 -3.69093 0
M  V30 1444 H 142.627 0.141134 -6.77353 0
M  V30 1445 H 143.57 -1.37322 -6.94657 0
M  V30 1446 H 143.978 -0.221041 -5.64067 0
M  V30 1447 N 143.376 1.44774 -0.622745 0
M  V30 1448 C 144.606 2.06187 -0.130532 0
M  V30 1449 C 145.014 1.46547 1.19669 0
M  V30 1450 O 144.357 0.579636 1.74316 0
M  V30 1451 C 144.419 3.59437 0.0674983 0
M  V30 1452 C 144.083 4.41496 -1.18026 0
M  V30 1453 C 145.08 4.75512 -2.102 0
M  V30 1454 C 142.765 4.82007 -1.41333 0
M  V30 1455 C 144.759 5.48912 -3.23998 0
M  V30 1456 C 142.446 5.55157 -2.55429 0
M  V30 1457 C 143.444 5.88528 -3.46589 0
M  V30 1458 O 143.132 6.60191 -4.58697 0
M  V30 1459 H 142.864 0.672045 -0.0730162 0
M  V30 1460 H 145.418 1.86768 -0.854802 0
M  V30 1461 H 143.648 3.77314 0.846825 0
M  V30 1462 H 145.337 4.02642 0.513209 0
M  V30 1463 H 146.103 4.4476 -1.93425 0
M  V30 1464 H 141.982 4.55457 -0.712709 0
M  V30 1465 H 145.526 5.74877 -3.95174 0
M  V30 1466 H 141.423 5.85324 -2.72151 0
M  V30 1467 H 142.191 6.78654 -4.57571 0
M  V30 1468 N 144.854 0.36279 1.53368 0
M  V30 1469 C 146.265 -0.117022 1.86333 0
M  V30 1470 C 146.616 -1.48397 1.28347 0
M  V30 1471 O 145.741 -2.07787 0.604428 0
M  V30 1472 C 146.336 -0.21912 3.38091 0
M  V30 1473 C 144.895 -0.643184 3.70864 0
M  V30 1474 C 144.042 0.211318 2.76494 0
M  V30 1475 H 146.993 0.581687 1.47655 0
M  V30 1476 H 147.014 -1.04319 3.6592 0
M  V30 1477 H 146.526 0.775902 3.80265 0
M  V30 1478 H 144.627 -1.64654 3.34245 0
M  V30 1479 H 144.74 -0.41973 4.77258 0
M  V30 1480 H 143.104 -0.319367 2.5269 0
M  V30 1481 H 143.887 1.20383 3.21501 0
M  V30 1482 N 146.332 -1.57332 0.0918853 0
M  V30 1483 C 147.743 -1.81496 -0.437739 0
M  V30 1484 C 148.094 -1.00727 -1.6837 0
M  V30 1485 O 147.219 -0.235694 -2.15113 0
M  V30 1486 C 147.814 -3.29197 -0.800939 0
M  V30 1487 C 146.373 -3.54136 -1.27532 0
M  V30 1488 C 145.52 -2.75979 -0.270392 0
M  V30 1489 H 148.471 -1.55494 0.317366 0
M  V30 1490 H 148.492 -3.42344 -1.66074 0
M  V30 1491 H 148.004 -3.87955 0.106078 0
M  V30 1492 H 146.105 -3.00705 -2.20016 0
M  V30 1493 H 146.218 -4.62792 -1.23938 0
M  V30 1494 H 144.582 -2.43349 -0.751872 0
M  V30 1495 H 145.365 -3.37484 0.629248 0
M  V30 1496 N 147.81 0.181792 -1.56548 0
M  V30 1497 C 149.221 0.745244 -1.71181 0
M  V30 1498 C 149.572 1.83262 -0.70068 0
M  V30 1499 O 148.697 2.15946 0.140154 0
M  V30 1500 C 149.292 1.35859 -3.10367 0
M  V30 1501 C 147.851 1.86898 -3.2672 0
M  V30 1502 C 146.998 0.743942 -2.67134 0
M  V30 1503 H 149.949 -0.0434661 -1.5864 0
M  V30 1504 H 149.97 2.22817 -3.08436 0
M  V30 1505 H 149.482 0.566948 -3.83937 0
M  V30 1506 H 147.583 2.68738 -2.5809 0
M  V30 1507 H 147.696 2.02162 -4.34359 0
M  V30 1508 H 146.06 1.16169 -2.26665 0
M  V30 1509 H 146.843 -0.035676 -3.43281 0
M  V30 1510 N 149.288 1.51039 0.449983 0
M  V30 1511 C 150.518 1.66627 1.22143 0
M  V30 1512 C 150.926 0.357776 1.85786 0
M  V30 1513 O 150.269 -0.672424 1.70951 0
M  V30 1514 C 150.331 2.71562 2.35573 0
M  V30 1515 C 149.995 4.14526 1.92399 0
M  V30 1516 C 150.992 4.99717 1.43453 0
M  V30 1517 C 148.677 4.60559 2.00475 0
M  V30 1518 C 150.671 6.28998 1.03155 0
M  V30 1519 C 148.358 5.8984 1.59788 0
M  V30 1520 C 149.356 6.73886 1.11208 0
M  V30 1521 O 149.044 8.0075 0.710935 0
M  V30 1522 H 148.776 0.562635 0.374724 0
M  V30 1523 H 151.33 1.98146 0.541036 0
M  V30 1524 H 149.56 2.3533 3.06849 0
M  V30 1525 H 151.249 2.76156 2.97478 0
M  V30 1526 H 152.015 4.65361 1.36618 0
M  V30 1527 H 147.894 3.95273 2.37235 0
M  V30 1528 H 151.438 6.9455 0.651663 0
M  V30 1529 H 147.335 6.23713 1.66289 0
M  V30 1530 H 148.103 8.142 0.837913 0
M  V30 1531 N 150.766 -0.704594 1.40972 0
M  V30 1532 C 151.996 -1.49138 1.42974 0
M  V30 1533 C 152.404 -1.89175 0.0308406 0
M  V30 1534 O 151.747 -1.56734 -0.958138 0
M  V30 1535 C 151.809 -2.79016 2.26694 0
M  V30 1536 C 151.473 -2.61236 3.74973 0
M  V30 1537 C 152.47 -2.27773 4.67349 0
M  V30 1538 C 150.155 -2.77158 4.18914 0
M  V30 1539 C 152.149 -2.10457 6.01653 0
M  V30 1540 C 149.836 -2.59459 5.53285 0
M  V30 1541 C 150.834 -2.26158 6.4447 0
M  V30 1542 O 150.522 -2.08605 7.76363 0
M  V30 1543 H 150.254 -0.466443 0.489292 0
M  V30 1544 H 152.808 -0.8758 1.85793 0
M  V30 1545 H 151.038 -3.42947 1.78673 0
M  V30 1546 H 152.727 -3.40782 2.20504 0
M  V30 1547 H 153.493 -2.15095 4.34694 0
M  V30 1548 H 149.372 -3.02064 3.48251 0
M  V30 1549 H 152.916 -1.84387 6.72791 0
M  V30 1550 H 148.813 -2.71725 5.85522 0
M  V30 1551 H 149.581 -2.23439 7.87412 0
M  V30 1552 N 152.244 -1.26651 -0.937939 0
M  V30 1553 C 153.154 -1.10276 -2.07066 0
M  V30 1554 C 154.17 -0.0354197 -1.73964 0
M  V30 1555 O 155.346 -0.239816 -1.99967 0
M  V30 1556 C 152.411 -0.740887 -3.38691 0
M  V30 1557 C 151.472 -1.88799 -3.85556 0
M  V30 1558 C 150.705 -1.54329 -5.10899 0
M  V30 1559 O 150.928 -0.446494 -5.6865 0
M  V30 1560 O 149.862 -2.37911 -5.52885 0
M  V30 1561 H 153.688 -2.05309 -2.23789 0
M  V30 1562 H 151.273 -1.05743 -1.0554 0
M  V30 1563 H 153.155 -0.55195 -4.1777 0
M  V30 1564 H 151.83 0.180022 -3.23199 0
M  V30 1565 H 150.737 -2.13191 -3.07409 0
M  V30 1566 H 152.07 -2.78874 -4.05574 0
M  V30 1567 N 153.722 1.14298 -1.08507 0
M  V30 1568 C 154.97 1.84993 -0.813763 0
M  V30 1569 C 155.291 1.83405 0.662393 0
M  V30 1570 O 154.561 1.28319 1.48024 0
M  V30 1571 H 153.141 0.684966 -0.298045 0
M  V30 1572 H 155.803 1.385 -1.37126 0
M  V30 1573 H 154.899 2.89788 -1.15884 0
M  V30 1574 N 155.201 0.870884 1.31352 0
M  V30 1575 C 156.45 0.478408 1.95944 0
M  V30 1576 C 156.763 -0.974493 1.69597 0
M  V30 1577 O 157.969 -1.47316 2.28058 0
M  V30 1578 C 156.425 0.804609 3.50791 0
M  V30 1579 C 156.033 2.27433 3.85977 0
M  V30 1580 C 157.777 0.480648 4.2177 0
M  V30 1581 C 155.684 2.5429 5.33939 0
M  V30 1582 H 154.614 0.175175 0.733369 0
M  V30 1583 H 157.265 1.06391 1.4951 0
M  V30 1584 H 155.647 0.148347 3.95722 0
M  V30 1585 H 156.821 2.97373 3.52002 0
M  V30 1586 H 155.136 2.56442 3.28065 0
M  V30 1587 H 157.733 0.658519 5.30629 0
M  V30 1588 H 158.076 -0.578979 4.12254 0
M  V30 1589 H 158.609 1.09349 3.82476 0
M  V30 1590 H 155.348 3.58939 5.48491 0
M  V30 1591 H 154.868 1.88945 5.69263 0
M  V30 1592 H 156.547 2.39066 6.01212 0
M  V30 1593 N 156.679 -1.44442 0.630414 0
M  V30 1594 C 157.927 -2.01653 0.134351 0
M  V30 1595 C 158.248 -1.49836 -1.24796 0
M  V30 1596 O 157.518 -0.701684 -1.82902 0
M  V30 1597 H 156.098 -0.74554 0.0466769 0
M  V30 1598 H 158.76 -1.76952 0.816955 0
M  V30 1599 H 157.856 -3.11935 0.101498 0
M  V30 1600 N 158.157 -0.370918 -1.53173 0
M  V30 1601 C 159.105 0.488101 -2.27421 0
M  V30 1602 C 160.099 1.07884 -1.30604 0
M  V30 1603 O 161.305 1.02143 -1.48212 0
M  V30 1604 H 157.68 0.176134 -0.731082 0
M  V30 1605 H 159.651 -0.159815 -2.97972 0
M  V30 1606 C 158.4 1.61306 -3.08019 0
M  V30 1607 H 157.723 1.1678 -3.82364 0
M  V30 1608 H 159.163 2.18872 -3.63141 0
M  V30 1609 C 157.622 2.55848 -2.19188 0
M  V30 1610 O 158.152 3.58799 -1.80626 0
M  V30 1611 N 156.358 2.2516 -1.83715 0
M  V30 1612 H 155.905 1.41476 -2.15273 0
M  V30 1613 H 155.863 2.8867 -1.24567 0
M  V30 1614 N 159.635 1.57281 -0.100228 0
M  V30 1615 C 160.883 1.94153 0.561157 0
M  V30 1616 C 161.204 0.983157 1.68401 0
M  V30 1617 O 160.474 0.0361132 1.95867 0
M  V30 1618 H 159.054 0.716791 0.210283 0
M  V30 1619 H 161.716 1.94202 -0.164765 0
M  V30 1620 H 160.812 2.96709 0.968008 0
M  V30 1621 N 161.113 -0.173488 1.56642 0
M  V30 1622 C 162.341 -0.906095 1.86004 0
M  V30 1623 C 162.756 -1.75921 0.685355 0
M  V30 1624 O 162.113 -1.79198 -0.345578 0
M  V30 1625 C 162.164 -1.78462 3.14378 0
M  V30 1626 O 161.885 -0.965914 4.27319 0
M  V30 1627 C 163.386 -2.62707 3.57071 0
M  V30 1628 H 160.606 -0.263341 0.617165 0
M  V30 1629 H 163.15 -0.174236 2.03756 0
M  V30 1630 H 161.305 -2.46984 2.98459 0
M  V30 1631 H 161.719 -1.56655 5.00559 0
M  V30 1632 H 163.193 -3.19969 4.49804 0
M  V30 1633 H 163.67 -3.37472 2.81086 0
M  V30 1634 H 164.276 -1.99521 3.75595 0
M  V30 1635 N 162.591 -1.51276 -0.441967 0
M  V30 1636 C 163.523 -1.68444 -1.55433 0
M  V30 1637 C 164.536 -0.565187 -1.52674 0
M  V30 1638 O 165.725 -0.839356 -1.57534 0
M  V30 1639 C 162.825 -1.67966 -2.94348 0
M  V30 1640 C 161.998 -2.964 -3.21661 0
M  V30 1641 C 161.057 -2.88171 -4.40277 0
M  V30 1642 O 160.083 -3.62119 -4.39157 0
M  V30 1643 N 161.285 -2.03706 -5.43584 0
M  V30 1644 H 164.05 -2.644 -1.41112 0
M  V30 1645 H 161.611 -1.49104 -0.630838 0
M  V30 1646 H 163.603 -1.60035 -3.71713 0
M  V30 1647 H 162.173 -0.796225 -3.0229 0
M  V30 1648 H 161.393 -3.18234 -2.32638 0
M  V30 1649 H 162.681 -3.81427 -3.36736 0
M  V30 1650 H 162.079 -1.42995 -5.47329 0
M  V30 1651 H 160.636 -2.01658 -6.1982 0
M  V30 1652 N 164.069 0.697108 -1.41344 0
M  V30 1653 C 165.318 1.45279 -1.39918 0
M  V30 1654 C 165.631 1.95597 -0.0109624 0
M  V30 1655 O 166.837 2.71208 0.125919 0
M  V30 1656 C 165.293 2.62695 -2.46007 0
M  V30 1657 C 164.901 2.19169 -3.90729 0
M  V30 1658 C 166.645 3.40336 -2.53715 0
M  V30 1659 C 164.552 3.33535 -4.88373 0
M  V30 1660 H 163.482 0.545692 -0.520323 0
M  V30 1661 H 166.133 0.756929 -1.67161 0
M  V30 1662 H 164.515 3.34541 -2.11892 0
M  V30 1663 H 165.689 1.54623 -4.34083 0
M  V30 1664 H 164.004 1.54525 -3.86666 0
M  V30 1665 H 166.601 4.2547 -3.2385 0
M  V30 1666 H 166.944 3.85418 -1.5735 0
M  V30 1667 H 167.477 2.75546 -2.86913 0
M  V30 1668 H 164.216 2.93468 -5.86137 0
M  V30 1669 H 163.736 3.96936 -4.49668 0
M  V30 1670 H 165.415 3.99335 -5.09059 0
M  V30 1671 N 165.547 1.27147 0.931209 0
M  V30 1672 C 166.777 1.15914 1.71019 0
M  V30 1673 C 167.185 -0.287112 1.87009 0
M  V30 1674 O 166.528 -1.20761 1.38429 0
M  V30 1675 C 166.59 1.76647 3.13107 0
M  V30 1676 C 166.254 3.25807 3.20467 0
M  V30 1677 C 167.251 4.22489 3.02983 0
M  V30 1678 C 164.936 3.66452 3.43538 0
M  V30 1679 C 166.93 5.57794 3.08454 0
M  V30 1680 C 164.617 5.01888 3.48643 0
M  V30 1681 C 165.615 5.97369 3.31119 0
M  V30 1682 O 165.303 7.30337 3.35952 0
M  V30 1683 H 165.035 0.404062 0.54195 0
M  V30 1684 H 167.589 1.68457 1.17521 0
M  V30 1685 H 165.819 1.18578 3.68071 0
M  V30 1686 H 167.508 1.60179 3.72958 0
M  V30 1687 H 168.274 3.92425 2.85004 0
M  V30 1688 H 164.153 2.92611 3.5623 0
M  V30 1689 H 167.697 6.32298 2.94694 0
M  V30 1690 H 163.594 5.31609 3.66145 0
M  V30 1691 H 164.362 7.38739 3.5243 0
M  V30 1692 N 167.025 -1.13721 1.09112 0
M  V30 1693 C 168.271 -1.85198 0.826414 0
M  V30 1694 C 168.604 -1.83129 -0.646319 0
M  V30 1695 O 167.879 -1.2671 -1.47563 0
M  V30 1696 C 168.162 -3.33507 1.35812 0
M  V30 1697 C 168.015 -3.44108 2.89672 0
M  V30 1698 C 169.334 -4.28838 0.989256 0
M  V30 1699 H 166.453 -0.67243 0.301675 0
M  V30 1700 H 169.095 -1.33499 1.35197 0
M  V30 1701 H 167.245 -3.77666 0.911082 0
M  V30 1702 H 168.917 -3.08684 3.428 0
M  V30 1703 H 167.16 -2.85087 3.26967 0
M  V30 1704 H 167.831 -4.48388 3.21951 0
M  V30 1705 H 170.307 -3.92734 1.37475 0
M  V30 1706 H 169.183 -5.31051 1.38838 0
M  V30 1707 H 169.444 -4.4198 -0.102924 0
M  V30 1708 N 168.503 -0.877838 -1.30888 0
M  V30 1709 C 169.752 -0.488793 -1.95688 0
M  V30 1710 C 170.065 0.965485 -1.70111 0
M  V30 1711 O 171.271 1.46104 -2.28836 0
M  V30 1712 C 169.727 -0.823201 -3.50359 0
M  V30 1713 C 169.335 -2.29477 -3.84765 0
M  V30 1714 C 171.079 -0.503009 -4.21509 0
M  V30 1715 C 168.986 -2.57118 -5.32583 0
M  V30 1716 H 167.916 -0.179062 -0.732429 0
M  V30 1717 H 170.567 -1.07183 -1.48943 0
M  V30 1718 H 168.949 -0.169331 -3.95638 0
M  V30 1719 H 170.123 -2.99236 -3.5042 0
M  V30 1720 H 168.438 -2.58178 -3.267 0
M  V30 1721 H 171.035 -0.68665 -5.30273 0
M  V30 1722 H 171.378 0.557109 -4.12555 0
M  V30 1723 H 171.911 -1.11376 -3.8189 0
M  V30 1724 H 168.65 -3.61843 -5.4658 0
M  V30 1725 H 168.17 -1.91961 -5.68253 0
M  V30 1726 H 169.849 -2.42251 -5.99936 0
M  V30 1727 N 169.982 1.44106 -0.638065 0
M  V30 1728 C 171.259 1.95453 -0.0759321 0
M  V30 1729 C 171.639 1.57984 1.40015 0
M  V30 1730 O 170.987 0.857361 2.11806 0
M  V30 1731 C 171.197 3.47655 -0.306132 0
M  V30 1732 C 172.545 4.24114 -0.203008 0
M  V30 1733 O 173.569 3.55405 -0.237871 0
M  V30 1734 O 172.428 5.46381 -0.113827 0
M  V30 1735 H 169.522 0.826797 0.0183332 0
M  V30 1736 H 172.068 1.54122 -0.710251 0
M  V30 1737 H 170.84 3.68 -1.3301 0
M  V30 1738 H 170.463 3.95949 0.361991 0
M  V30 1739 N 171.46 0.379036 1.52974 0
M  V30 1740 C 172.871 -0.0972525 1.86447 0
M  V30 1741 C 173.222 -1.47027 1.29914 0
M  V30 1742 O 172.347 -2.07135 0.626433 0
M  V30 1743 C 172.942 -0.183248 3.38304 0
M  V30 1744 C 171.501 -0.603812 3.71525 0
M  V30 1745 C 170.648 0.240632 2.76254 0
M  V30 1746 H 173.599 0.597316 1.4703 0
M  V30 1747 H 173.62 -1.00432 3.67006 0
M  V30 1748 H 173.132 0.816191 3.79421 0
M  V30 1749 H 171.233 -1.61099 3.35973 0
M  V30 1750 H 171.346 -0.369086 4.77676 0
M  V30 1751 H 169.71 -0.292548 2.53014 0
M  V30 1752 H 170.493 1.23786 3.20206 0
M  V30 1753 N 172.938 -1.57226 0.108567 0
M  V30 1754 C 173.848 -2.18292 -0.859401 0
M  V30 1755 C 174.864 -1.15612 -1.30038 0
M  V30 1756 O 176.04 -1.48039 -1.36552 0
M  V30 1757 C 173.105 -2.762 -2.09558 0
M  V30 1758 C 172.166 -3.93881 -1.70752 0
M  V30 1759 C 171.399 -4.49018 -2.88477 0
M  V30 1760 O 171.622 -4.03068 -4.036 0
M  V30 1761 O 170.556 -5.39852 -2.66164 0
M  V30 1762 H 174.382 -3.01441 -0.369769 0
M  V30 1763 H 171.967 -1.48945 -0.1165 0
M  V30 1764 H 173.849 -3.13156 -2.81978 0
M  V30 1765 H 172.524 -1.96089 -2.57548 0
M  V30 1766 H 171.431 -3.61713 -0.954714 0
M  V30 1767 H 172.764 -4.75396 -1.27513 0
M  V30 1768 N 174.416 0.165178 -1.56732 0
M  V30 1769 C 175.827 0.727046 -1.71962 0
M  V30 1770 C 176.178 1.82508 -0.720078 0
M  V30 1771 O 175.303 2.16082 0.117242 0
M  V30 1772 C 175.898 1.32559 -3.11791 0
M  V30 1773 C 174.457 1.83422 -3.28684 0
M  V30 1774 C 173.604 0.715567 -2.67908 0
M  V30 1775 H 176.555 -0.0602896 -1.58585 0
M  V30 1776 H 176.576 2.19533 -3.10782 0
M  V30 1777 H 176.088 0.526195 -3.84516 0
M  V30 1778 H 174.189 2.65986 -2.60926 0
M  V30 1779 H 174.302 1.97543 -4.36478 0
M  V30 1780 H 172.666 1.13758 -2.27884 0
M  V30 1781 H 173.449 -0.0720836 -3.43224 0
M  V30 1782 N 175.894 1.51508 0.433938 0
M  V30 1783 C 177.134 1.66006 1.19253 0
M  V30 1784 C 177.498 0.369868 1.88404 0
M  V30 1785 O 178.699 0.39066 2.65946 0
M  V30 1786 C 176.97 2.83229 2.17981 0
M  V30 1787 S 178.529 3.18075 3.02281 0
M  V30 1788 H 175.347 0.584821 0.404358 0
M  V30 1789 H 177.949 1.89425 0.48357 0
M  V30 1790 H 176.653 3.75407 1.65824 0
M  V30 1791 H 176.184 2.6201 2.93453 0
M  V30 1792 H 178.199 2.64772 4.19655 0
M  V30 1793 N 177.372 -0.689602 1.41712 0
M  V30 1794 C 178.783 -1.26973 1.36875 0
M  V30 1795 C 179.134 -1.96124 0.054748 0
M  V30 1796 O 178.259 -1.99141 -0.84687 0
M  V30 1797 C 178.854 -2.30912 2.47922 0
M  V30 1798 C 177.413 -2.84486 2.46464 0
M  V30 1799 C 176.56 -1.58603 2.27465 0
M  V30 1800 H 179.511 -0.48396 1.51141 0
M  V30 1801 H 179.532 -3.12331 2.17323 0
M  V30 1802 H 179.044 -1.80554 3.43543 0
M  V30 1803 H 177.145 -3.39005 1.54617 0
M  V30 1804 H 177.258 -3.34511 3.42986 0
M  V30 1805 H 175.622 -1.84632 1.75451 0
M  V30 1806 H 176.405 -1.10233 3.25121 0
M  V30 1807 N 178.85 -1.27639 -0.924453 0
M  V30 1808 C 180.127 -1.04887 -1.651 0
M  V30 1809 C 180.507 0.415327 -2.06974 0
M  V30 1810 O 179.855 1.39923 -1.80648 0
M  V30 1811 C 180.065 -2.01348 -2.85061 0
M  V30 1812 C 181.413 -2.30899 -3.56329 0
M  V30 1813 O 182.437 -1.99348 -2.95193 0
M  V30 1814 O 181.296 -2.84699 -4.66485 0
M  V30 1815 H 178.39 -0.400083 -0.723784 0
M  V30 1816 H 180.936 -1.38916 -0.974703 0
M  V30 1817 H 179.708 -3.0008 -2.51133 0
M  V30 1818 H 179.331 -1.679 -3.6041 0
M  V30 1819 N 180.328 1.1314 -1.09713 0
M  V30 1820 C 181.553 1.88862 -0.857081 0
M  V30 1821 C 181.978 1.78729 0.586304 0
M  V30 1822 O 181.336 1.13692 1.41222 0
M  V30 1823 C 181.384 3.36325 -1.30069 0
M  V30 1824 O 180.488 4.09815 -0.461007 0
M  V30 1825 H 179.829 0.587108 -0.310162 0
M  V30 1826 H 182.359 1.43129 -1.46203 0
M  V30 1827 H 182.369 3.87157 -1.28738 0
M  V30 1828 H 181.044 3.43017 -2.35185 0
M  V30 1829 H 179.621 3.68986 -0.538888 0
M  V30 1830 N 181.806 0.884767 1.30421 0
M  V30 1831 C 183.083 0.423185 1.90967 0
M  V30 1832 C 183.463 -1.09605 1.80416 0
M  V30 1833 O 182.811 -1.93126 1.22125 0
M  V30 1834 C 183.021 0.921056 3.36627 0
M  V30 1835 C 184.369 0.955903 4.137 0
M  V30 1836 O 185.393 0.867706 3.4547 0
M  V30 1837 O 184.252 1.08614 5.35598 0
M  V30 1838 H 181.346 0.129369 0.816819 0
M  V30 1839 H 183.892 0.973653 1.3899 0
M  V30 1840 H 182.664 1.96489 3.3839 0
M  V30 1841 H 182.287 0.349741 3.96059 0
M  V30 1842 N 183.284 -1.43765 0.645699 0
M  V30 1843 C 184.216 -2.29027 -0.0890605 0
M  V30 1844 C 185.229 -1.42093 -0.794563 0
M  V30 1845 O 186.418 -1.66104 -0.653575 0
M  V30 1846 C 183.518 -3.18831 -1.14891 0
M  V30 1847 C 182.691 -4.34261 -0.523043 0
M  V30 1848 C 181.75 -5.04994 -1.47878 0
M  V30 1849 O 180.776 -5.6052 -0.990277 0
M  V30 1850 N 181.978 -5.07795 -2.81291 0
M  V30 1851 H 184.743 -2.92727 0.64272 0
M  V30 1852 H 182.304 -1.54373 0.487924 0
M  V30 1853 H 184.296 -3.63015 -1.78892 0
M  V30 1854 H 182.866 -2.56782 -1.78275 0
M  V30 1855 H 182.086 -3.93088 0.295896 0
M  V30 1856 H 183.374 -5.08728 -0.0858147 0
M  V30 1857 H 182.772 -4.64042 -3.23546 0
M  V30 1858 H 181.329 -5.55721 -3.40614 0
M  V30 1859 N 184.763 -0.387143 -1.52771 0
M  V30 1860 C 185.673 0.456442 -2.30117 0
M  V30 1861 C 186.689 1.07342 -1.36944 0
M  V30 1862 O 187.865 1.07971 -1.70013 0
M  V30 1863 C 184.93 1.56957 -3.09136 0
M  V30 1864 C 183.991 0.977916 -4.18014 0
M  V30 1865 C 183.224 2.038 -4.93256 0
M  V30 1866 O 183.447 3.25271 -4.68567 0
M  V30 1867 O 182.381 1.6565 -5.78657 0
M  V30 1868 H 186.207 -0.17359 -3.03203 0
M  V30 1869 H 183.792 -0.150919 -1.48636 0
M  V30 1870 H 185.674 2.21628 -3.58412 0
M  V30 1871 H 184.349 2.18461 -2.38865 0
M  V30 1872 H 183.256 0.294525 -3.72939 0
M  V30 1873 H 184.589 0.407128 -4.90513 0
M  V30 1874 N 186.241 1.57166 -0.116904 0
M  V30 1875 C 187.652 1.82169 0.408809 0
M  V30 1876 C 188.003 1.03393 1.66746 0
M  V30 1877 O 187.128 0.269886 2.1471 0
M  V30 1878 C 187.723 3.30429 0.748466 0
M  V30 1879 C 186.282 3.5612 1.21882 0
M  V30 1880 C 185.429 2.76374 0.226452 0
M  V30 1881 H 188.38 1.5497 -0.342063 0
M  V30 1882 H 188.401 3.44943 1.60607 0
M  V30 1883 H 187.913 3.87737 -0.167784 0
M  V30 1884 H 186.014 3.04168 2.15204 0
M  V30 1885 H 186.127 4.64705 1.16559 0
M  V30 1886 H 184.491 2.44515 0.713063 0
M  V30 1887 H 185.274 3.3644 -0.682859 0
M  V30 1888 N 187.719 -0.156864 1.56817 0
M  V30 1889 C 188.666 -1.19394 1.97519 0
M  V30 1890 C 189.636 -1.4322 0.841265 0
M  V30 1891 O 190.821 -1.55719 1.10255 0
M  V30 1892 C 187.961 -2.52483 2.35258 0
M  V30 1893 C 187.074 -2.35914 3.61896 0
M  V30 1894 C 186.209 -3.61969 3.88782 0
M  V30 1895 C 185.248 -3.40395 5.08722 0
M  V30 1896 N 184.385 -4.58556 5.31668 0
M  V30 1897 H 189.225 -0.839845 2.85921 0
M  V30 1898 H 186.762 -0.403264 1.41464 0
M  V30 1899 H 188.72 -3.30071 2.55165 0
M  V30 1900 H 187.35 -2.85859 1.49949 0
M  V30 1901 H 186.402 -1.49429 3.49821 0
M  V30 1902 H 187.714 -2.15926 4.49641 0
M  V30 1903 H 186.868 -4.47989 4.09135 0
M  V30 1904 H 185.607 -3.84951 2.9944 0
M  V30 1905 H 184.612 -2.52763 4.88253 0
M  V30 1906 H 185.837 -3.18822 5.99608 0
M  V30 1907 H 183.783 -4.81729 4.45279 0
M  V30 1908 H 183.7 -4.41535 6.13664 0
M  V30 1909 H 184.968 -5.45817 5.5651 0
M  V30 1910 N 189.197 -1.51736 -0.425897 0
M  V30 1911 C 190.422 -1.69082 -1.20108 0
M  V30 1912 C 190.847 -0.392398 -1.83962 0
M  V30 1913 O 190.205 0.64858 -1.69302 0
M  V30 1914 C 190.253 -2.81604 -2.25237 0
M  V30 1915 O 189.357 -2.46004 -3.30992 0
M  V30 1916 H 188.698 -0.563408 -0.35138 0
M  V30 1917 H 191.228 -1.98358 -0.501512 0
M  V30 1918 H 191.238 -3.06025 -2.69838 0
M  V30 1919 H 189.913 -3.75817 -1.78142 0
M  V30 1920 H 188.49 -2.32195 -2.91787 0
M  V30 1921 N 190.675 0.682077 -1.42076 0
M  V30 1922 C 191.9 1.47558 -1.45744 0
M  V30 1923 C 192.325 1.87977 -0.0680981 0
M  V30 1924 O 191.683 1.55522 0.9318 0
M  V30 1925 C 191.731 2.70575 -2.38373 0
M  V30 1926 O 190.835 3.68573 -1.85007 0
M  V30 1927 H 190.176 0.443585 -0.494093 0
M  V30 1928 H 192.706 0.837238 -1.86686 0
M  V30 1929 H 192.716 3.18729 -2.54707 0
M  V30 1930 H 191.391 2.40495 -3.39315 0
M  V30 1931 H 189.968 3.2757 -1.78192 0
M  V30 1932 N 192.153 1.28127 0.917671 0
M  V30 1933 C 193.43 1.05761 1.64542 0
M  V30 1934 C 193.81 -0.404344 2.07191 0
M  V30 1935 O 193.158 -1.38963 1.81388 0
M  V30 1936 C 193.368 2.02857 2.83989 0
M  V30 1937 C 194.716 2.32786 3.551 0
M  V30 1938 O 195.74 2.0091 2.94132 0
M  V30 1939 O 194.599 2.87169 4.64969 0
M  V30 1940 H 191.693 0.403916 0.721652 0
M  V30 1941 H 194.239 1.39431 0.967322 0
M  V30 1942 H 193.011 3.01407 2.49538 0
M  V30 1943 H 192.634 1.69809 3.59514 0
M  V30 1944 N 193.631 -1.12557 1.10312 0
M  V30 1945 C 194.578 -2.18247 0.750781 0
M  V30 1946 C 195.548 -1.63853 -0.272293 0
M  V30 1947 O 196.733 -1.90195 -0.151862 0
M  V30 1948 C 193.873 -3.44591 0.187379 0
M  V30 1949 C 192.986 -4.13046 1.2656 0
M  V30 1950 C 192.121 -5.27034 0.663978 0
M  V30 1951 C 191.16 -5.87353 1.72287 0
M  V30 1952 N 190.297 -6.92757 1.1416 0
M  V30 1953 H 195.137 -2.47732 1.65628 0
M  V30 1954 H 192.674 -1.21629 0.827337 0
M  V30 1955 H 194.632 -4.16904 -0.157148 0
M  V30 1956 H 193.262 -3.15527 -0.681355 0
M  V30 1957 H 192.314 -3.38924 1.72727 0
M  V30 1958 H 193.626 -4.53947 2.06721 0
M  V30 1959 H 192.78 -6.06104 0.268824 0
M  V30 1960 H 191.519 -4.87407 -0.169082 0
M  V30 1961 H 190.524 -5.06971 2.12746 0
M  V30 1962 H 191.749 -6.29051 2.55875 0
M  V30 1963 H 189.695 -6.5517 0.329984 0
M  V30 1964 H 189.612 -7.3225 1.88007 0
M  V30 1965 H 190.88 -7.75658 0.772956 0
M  V30 1966 N 195.109 -0.891671 -1.2995 0
M  V30 1967 C 196.337 -0.52866 -2.00032 0
M  V30 1968 C 196.752 0.884574 -1.66795 0
M  V30 1969 O 196.109 1.5827 -0.908669 0
M  V30 1970 C 196.16 -0.701814 -3.54622 0
M  V30 1971 O 195.881 -2.05942 -3.86678 0
M  V30 1972 C 197.382 -0.342683 -4.41973 0
M  V30 1973 H 194.602 -0.203659 -0.639347 0
M  V30 1974 H 197.146 -1.19881 -1.65677 0
M  V30 1975 H 195.301 -0.0789468 -3.8732 0
M  V30 1976 H 195.715 -2.08291 -4.81368 0
M  V30 1977 H 197.189 -0.514709 -5.49595 0
M  V30 1978 H 197.666 0.71975 -4.33262 0
M  V30 1979 H 198.272 -0.942154 -4.14733 0
M  V30 1980 N 196.587 1.43421 -0.653314 0
M  V30 1981 C 197.537 2.2792 0.060558 0
M  V30 1982 C 198.521 1.39906 0.794677 0
M  V30 1983 O 199.713 1.63536 0.677128 0
M  V30 1984 C 196.842 3.27603 1.0262 0
M  V30 1985 C 195.928 4.23104 0.290551 0
M  V30 1986 N 196.319 5.01031 -0.692967 0
M  V30 1987 C 194.617 4.42816 0.531984 0
M  V30 1988 C 195.318 5.70626 -1.12963 0
M  V30 1989 N 194.294 5.41617 -0.463867 0
M  V30 1990 H 198.096 2.85585 -0.694143 0
M  V30 1991 H 195.61 1.55126 -0.480602 0
M  V30 1992 H 197.607 3.86918 1.55242 0
M  V30 1993 H 196.267 2.71499 1.78096 0
M  V30 1994 H 197.278 5.0669 -1.07169 0
M  V30 1995 H 193.955 3.97782 1.26791 0
M  V30 1996 H 195.345 6.4318 -1.94343 0
M  V30 1997 N 198.065 0.39524 1.52563 0
M  V30 1998 C 199.293 -0.184943 2.06072 0
M  V30 1999 C 199.708 -1.40021 1.26647 0
M  V30 2000 O 199.065 -1.79767 0.314672 0
M  V30 2001 C 199.116 -0.549179 3.57304 0
M  V30 2002 O 198.837 0.617813 4.33722 0
M  V30 2003 C 200.338 -1.18459 4.2718 0
M  V30 2004 H 197.558 -0.0265025 0.670476 0
M  V30 2005 H 200.102 0.562184 1.96621 0
M  V30 2006 H 198.257 -1.2462 3.66809 0
M  V30 2007 H 198.671 0.317091 5.23541 0
M  V30 2008 H 200.145 -1.38976 5.34219 0
M  V30 2009 H 200.622 -2.15368 3.82771 0
M  V30 2010 H 201.228 -0.528163 4.22008 0
M  V30 2011 N 199.544 -1.57102 0.125237 0
M  V30 2012 C 200.769 -2.0019 -0.542101 0
M  V30 2013 C 201.194 -1.00449 -1.59034 0
M  V30 2014 O 200.552 0.0229423 -1.81285 0
M  V30 2015 C 200.6 -3.42129 -1.13929 0
M  V30 2016 O 199.704 -3.45307 -2.2547 0
M  V30 2017 H 199.045 -0.650171 -0.134812 0
M  V30 2018 H 201.575 -2.03461 0.215553 0
M  V30 2019 H 201.585 -3.80471 -1.4733 0
M  V30 2020 H 200.26 -4.14237 -0.371531 0
M  V30 2021 H 198.837 -3.1879 -1.93462 0
M  V30 2022 N 201.022 0.148545 -1.56898 0
M  V30 2023 C 202.433 0.708766 -1.72723 0
M  V30 2024 C 202.784 1.81734 -0.739395 0
M  V30 2025 O 201.909 2.16194 0.0943169 0
M  V30 2026 C 202.504 1.29245 -3.13179 0
M  V30 2027 C 201.063 1.79925 -3.30611 0
M  V30 2028 C 200.21 0.687111 -2.68652 0
M  V30 2029 H 203.161 -0.0771063 -1.58513 0
M  V30 2030 H 203.182 2.16224 -3.13093 0
M  V30 2031 H 202.694 0.485382 -3.85053 0
M  V30 2032 H 200.795 2.63203 -2.63732 0
M  V30 2033 H 200.908 1.92903 -4.38549 0
M  V30 2034 H 199.272 1.11335 -2.29078 0
M  V30 2035 H 200.055 -0.108483 -3.43129 0
M  V30 2036 N 202.5 1.5196 0.417844 0
M  V30 2037 C 203.911 1.57851 0.997 0
M  V30 2038 C 204.262 0.413714 1.91789 0
M  V30 2039 O 203.387 -0.467057 2.113 0
M  V30 2040 C 203.982 2.86085 1.81496 0
M  V30 2041 C 202.541 2.94483 2.34428 0
M  V30 2042 C 201.688 2.52707 1.14169 0
M  V30 2043 H 204.639 1.57455 0.198392 0
M  V30 2044 H 204.66 2.70947 2.67148 0
M  V30 2045 H 204.172 3.70842 1.14446 0
M  V30 2046 H 202.273 2.142 3.04875 0
M  V30 2047 H 202.386 3.98546 2.65891 0
M  V30 2048 H 200.75 2.06353 1.49301 0
M  V30 2049 H 201.533 3.39828 0.486999 0
M  V30 2050 N 203.978 -0.674533 1.42435 0
M  V30 2051 C 205.203 -1.46784 1.46524 0
M  V30 2052 C 205.628 -1.87938 0.078066 0
M  V30 2053 O 204.986 -1.56014 -0.92354 0
M  V30 2054 C 205.034 -2.69307 2.39805 0
M  V30 2055 O 204.138 -3.67587 1.86959 0
M  V30 2056 H 203.479 -0.440959 0.496439 0
M  V30 2057 H 206.009 -0.827326 1.87127 0
M  V30 2058 H 206.019 -3.17374 2.56393 0
M  V30 2059 H 204.694 -2.38692 3.40586 0
M  V30 2060 H 203.271 -3.2662 1.79927 0
M  V30 2061 N 205.456 -1.28612 -0.910864 0
M  V30 2062 C 206.867 -1.14406 -1.47541 0
M  V30 2063 C 207.218 0.264901 -1.94403 0
M  V30 2064 O 206.343 1.15942 -1.82719 0
M  V30 2065 C 206.938 -2.07073 -2.68153 0
M  V30 2066 C 205.497 -1.96923 -3.20778 0
M  V30 2067 C 204.644 -1.98646 -1.93481 0
M  V30 2068 H 207.595 -1.41259 -0.723291 0
M  V30 2069 H 207.616 -1.63642 -3.43514 0
M  V30 2070 H 207.128 -3.09611 -2.34015 0
M  V30 2071 H 205.229 -0.97433 -3.59635 0
M  V30 2072 H 205.342 -2.84026 -3.85832 0
M  V30 2073 H 203.706 -1.43093 -2.10705 0
M  V30 2074 H 204.489 -3.02868 -1.61634 0
M  V30 2075 N 206.934 1.1197 -1.10907 0
M  V30 2076 C 207.897 2.16031 -0.765707 0
M  V30 2077 C 208.897 1.59393 0.212235 0
M  V30 2078 O 210.087 1.74196 -0.0115441 0
M  V30 2079 C 207.219 3.40632 -0.135053 0
M  V30 2080 H 208.412 2.47919 -1.68748 0
M  V30 2081 H 205.965 1.27061 -0.910226 0
M  V30 2082 H 206.7 3.14348 0.797218 0
M  V30 2083 H 206.485 3.8302 -0.838937 0
M  V30 2084 H 207.975 4.17505 0.0892469 0
M  V30 2085 N 208.412 0.89855 1.29475 0
M  V30 2086 C 209.823 0.572537 1.77705 0
M  V30 2087 C 210.174 -0.911778 1.73727 0
M  V30 2088 O 209.299 -1.71288 1.32247 0
M  V30 2089 C 209.894 1.03252 3.22683 0
M  V30 2090 C 208.453 0.757687 3.68695 0
M  V30 2091 C 207.6 1.20787 2.49612 0
M  V30 2092 H 210.551 1.08139 1.16153 0
M  V30 2093 H 210.572 0.367307 3.78723 0
M  V30 2094 H 210.084 2.11285 3.25546 0
M  V30 2095 H 208.185 -0.310079 3.71308 0
M  V30 2096 H 208.298 1.35476 4.59547 0
M  V30 2097 H 206.662 0.626888 2.46865 0
M  V30 2098 H 207.445 2.29622 2.55203 0
M  V30 2099 N 209.89 -1.43072 0.660911 0
M  V30 2100 C 210.8 -2.34585 -0.0264163 0
M  V30 2101 C 211.816 -1.54316 -0.803898 0
M  V30 2102 O 212.992 -1.86939 -0.749391 0
M  V30 2103 C 210.057 -3.32689 -0.975639 0
M  V30 2104 C 209.118 -4.2886 -0.194236 0
M  V30 2105 C 208.351 -5.22278 -1.09825 0
M  V30 2106 O 208.574 -5.20299 -2.33763 0
M  V30 2107 O 207.508 -5.99228 -0.566513 0
M  V30 2108 H 211.334 -2.94869 0.727034 0
M  V30 2109 H 208.919 -1.43342 0.42111 0
M  V30 2110 H 210.801 -3.92995 -1.52094 0
M  V30 2111 H 209.476 -2.74898 -1.70918 0
M  V30 2112 H 208.383 -3.72011 0.394835 0
M  V30 2113 H 209.716 -4.89655 0.499899 0
M  V30 2114 N 211.368 -0.403325 -1.52352 0
M  V30 2115 C 212.298 0.416205 -2.29761 0
M  V30 2116 C 213.279 1.05123 -1.33728 0
M  V30 2117 O 214.464 1.06134 -1.62632 0
M  V30 2118 C 211.594 1.53624 -3.11475 0
M  V30 2119 C 210.548 1.02653 -4.15507 0
M  V30 2120 C 209.874 2.23971 -4.85532 0
M  V30 2121 C 211.174 0.08463 -5.22231 0
M  V30 2122 H 212.868 -0.229701 -2.98518 0
M  V30 2123 H 210.414 -0.111913 -1.43564 0
M  V30 2124 H 212.367 2.1165 -3.64393 0
M  V30 2125 H 211.091 2.20994 -2.40477 0
M  V30 2126 H 209.75 0.46871 -3.63591 0
M  V30 2127 H 209.398 2.89883 -4.11068 0
M  V30 2128 H 209.098 1.90521 -5.55856 0
M  V30 2129 H 210.622 2.82614 -5.41259 0
M  V30 2130 H 212.036 0.573509 -5.70424 0
M  V30 2131 H 210.433 -0.160783 -5.99885 0
M  V30 2132 H 211.503 -0.86237 -4.7717 0
M  V30 2133 N 212.846 1.57033 -0.133567 0
M  V30 2134 C 213.776 2.1909 0.807567 0
M  V30 2135 C 214.757 1.13517 1.26681 0
M  V30 2136 O 215.942 1.41809 1.32679 0
M  V30 2137 C 213.072 2.80188 2.05212 0
M  V30 2138 C 212.026 3.91471 1.73015 0
M  V30 2139 C 211.352 4.39443 3.04622 0
M  V30 2140 C 212.652 5.12886 0.987168 0
M  V30 2141 H 214.346 2.97988 0.290403 0
M  V30 2142 H 211.892 1.43335 0.138239 0
M  V30 2143 H 213.845 3.22264 2.71521 0
M  V30 2144 H 212.569 1.98601 2.59278 0
M  V30 2145 H 211.228 3.49993 1.0909 0
M  V30 2146 H 210.876 3.54695 3.56651 0
M  V30 2147 H 210.576 5.14495 2.83847 0
M  V30 2148 H 212.1 4.8418 3.72024 0
M  V30 2149 H 213.514 5.51891 1.55208 0
M  V30 2150 H 211.911 5.93615 0.87985 0
M  V30 2151 H 212.981 4.84894 -0.0235286 0
M  V30 2152 N 214.325 -0.140222 1.56975 0
M  V30 2153 C 215.573 -0.850005 1.83356 0
M  V30 2154 C 215.894 -1.81399 0.71551 0
M  V30 2155 O 215.164 -1.94136 -0.262294 0
M  V30 2156 H 213.744 -0.316886 0.676456 0
M  V30 2157 H 216.406 -0.132608 1.94448 0
M  V30 2158 H 215.502 -1.40814 2.78528 0
M  V30 2159 N 215.803 -1.52179 -0.40978 0
M  V30 2160 C 217.051 -1.65878 -1.15451 0
M  V30 2161 C 217.372 -0.390771 -1.91044 0
M  V30 2162 O 216.642 0.594323 -1.86667 0
M  V30 2163 H 215.222 -0.611405 -0.429177 0
M  V30 2164 H 217.884 -1.89219 -0.467134 0
M  V30 2165 H 216.98 -2.49954 -1.86894 0
M  V30 2166 N 217.281 0.66697 -1.42791 0
M  V30 2167 C 218.506 1.46004 -1.47301 0
M  V30 2168 C 218.931 1.87894 -0.0880317 0
M  V30 2169 O 218.289 1.56502 0.915253 0
M  V30 2170 C 218.337 2.68031 -2.41229 0
M  V30 2171 O 217.441 3.6659 -1.88906 0
M  V30 2172 H 216.782 0.43832 -0.49877 0
M  V30 2173 H 219.312 0.817391 -1.87563 0
M  V30 2174 H 219.322 3.1601 -2.58073 0
M  V30 2175 H 217.997 2.36883 -3.41847 0
M  V30 2176 H 216.574 3.25661 -1.81656 0
M  V30 2177 N 218.759 1.29093 0.90403 0
M  V30 2178 C 219.984 1.19809 1.69294 0
M  V30 2179 C 220.409 -0.238481 1.86582 0
M  V30 2180 O 219.767 -1.1723 1.383 0
M  V30 2181 C 219.815 1.91202 3.05736 0
M  V30 2182 O 218.919 1.22611 3.93752 0
M  V30 2183 H 218.26 0.415385 0.518027 0
M  V30 2184 H 220.79 1.70586 1.12967 0
M  V30 2185 H 220.8 1.99487 3.55906 0
M  V30 2186 H 219.475 2.95692 2.92471 0
M  V30 2187 H 218.052 1.22554 3.52186 0
M  V30 2188 N 220.237 -1.11381 1.11499 0
M  V30 2189 C 221.483 -1.83403 0.865512 0
M  V30 2190 C 221.816 -1.84459 -0.607329 0
M  V30 2191 O 221.091 -1.29811 -1.44842 0
M  V30 2192 C 221.374 -3.30552 1.42855 0
M  V30 2193 C 221.227 -3.37886 2.96906 0
M  V30 2194 C 222.546 -4.26643 1.08 0
M  V30 2195 H 219.665 -0.665879 0.31587 0
M  V30 2196 H 222.307 -1.30601 1.37998 0
M  V30 2197 H 220.457 -3.75648 0.990985 0
M  V30 2198 H 222.129 -3.01343 3.49271 0
M  V30 2199 H 220.372 -2.78088 3.32941 0
M  V30 2200 H 221.043 -4.41458 3.31389 0
M  V30 2201 H 223.519 -3.89729 1.45775 0
M  V30 2202 H 222.395 -5.27986 1.50072 0
M  V30 2203 H 222.656 -4.42099 -0.00915037 0
M  V30 2204 N 221.715 -0.905404 -1.28997 0
M  V30 2205 C 222.962 -0.534248 -1.95325 0
M  V30 2206 C 223.29 0.920535 -1.71337 0
M  V30 2207 O 222.545 1.66861 -1.02254 0
M  V30 2208 C 222.844 -0.779906 -3.48787 0
M  V30 2209 C 222.51 -2.21293 -3.92861 0
M  V30 2210 C 221.172 -2.60475 -4.04606 0
M  V30 2211 C 223.524 -3.14587 -4.15553 0
M  V30 2212 C 220.852 -3.9212 -4.36416 0
M  V30 2213 C 223.204 -4.45787 -4.48839 0
M  V30 2214 C 221.868 -4.84834 -4.58794 0
M  V30 2215 H 221.138 -0.195495 -0.714747 0
M  V30 2216 H 223.785 -1.14514 -1.53488 0
M  V30 2217 H 222.09 -0.0861365 -3.91705 0
M  V30 2218 H 223.787 -0.472029 -3.98212 0
M  V30 2219 H 220.377 -1.89887 -3.84241 0
M  V30 2220 H 224.561 -2.85528 -4.0594 0
M  V30 2221 H 219.817 -4.22086 -4.42327 0
M  V30 2222 H 223.991 -5.18098 -4.65346 0
M  V30 2223 H 221.618 -5.86877 -4.83197 0
M  V30 2224 N 223.193 1.4272 -0.668489 0
M  V30 2225 C 224.123 2.335 -0.000100175 0
M  V30 2226 C 225.104 1.50328 0.795964 0
M  V30 2227 O 226.289 1.78949 0.754385 0
M  V30 2228 C 223.419 3.33874 0.956302 0
M  V30 2229 C 222.373 4.27152 0.269278 0
M  V30 2230 C 221.699 5.17684 1.33818 0
M  V30 2231 C 222.999 5.15373 -0.847805 0
M  V30 2232 H 224.693 2.89639 -0.758244 0
M  V30 2233 H 222.239 1.39269 -0.366079 0
M  V30 2234 H 224.192 3.9629 1.43292 0
M  V30 2235 H 222.916 2.76025 1.74579 0
M  V30 2236 H 221.575 3.66123 -0.187042 0
M  V30 2237 H 221.223 4.56165 2.1195 0
M  V30 2238 H 220.923 5.80918 0.883659 0
M  V30 2239 H 222.447 5.82974 1.81586 0
M  V30 2240 H 223.861 5.7151 -0.452681 0
M  V30 2241 H 222.258 5.87407 -1.22773 0
M  V30 2242 H 223.328 4.5415 -1.69929 0
M  V30 2243 N 224.671 0.411399 1.52136 0
M  V30 2244 C 225.918 -0.163645 2.01838 0
M  V30 2245 C 226.246 -1.4495 1.29691 0
M  V30 2246 O 225.501 -1.91725 0.392431 0
M  V30 2247 C 225.8 -0.455872 3.54481 0
M  V30 2248 C 225.466 0.741055 4.44769 0
M  V30 2249 C 224.128 1.06936 4.69167 0
M  V30 2250 C 226.48 1.54075 4.97906 0
M  V30 2251 C 223.808 2.19851 5.43951 0
M  V30 2252 C 226.16 2.66067 5.73926 0
M  V30 2253 C 224.824 2.99381 5.96596 0
M  V30 2254 H 224.094 -0.0598821 0.738576 0
M  V30 2255 H 226.741 0.553283 1.83333 0
M  V30 2256 H 225.046 -1.2544 3.71177 0
M  V30 2257 H 226.743 -0.913802 3.90449 0
M  V30 2258 H 223.333 0.475192 4.25958 0
M  V30 2259 H 227.517 1.30033 4.78963 0
M  V30 2260 H 222.773 2.46006 5.59724 0
M  V30 2261 H 226.947 3.28419 6.14096 0
M  V30 2262 H 224.574 3.86992 6.54325 0
M  V30 2263 N 226.149 -1.5696 0.141893 0
M  V30 2264 C 227.56 -1.82797 -0.379776 0
M  V30 2265 C 227.911 -1.06033 -1.6508 0
M  V30 2266 O 227.036 -0.304011 -2.14254 0
M  V30 2267 C 227.631 -3.31578 -0.695802 0
M  V30 2268 C 226.19 -3.58014 -1.16201 0
M  V30 2269 C 225.337 -2.76699 -0.182455 0
M  V30 2270 H 228.288 -1.54406 0.366675 0
M  V30 2271 H 228.309 -3.47454 -1.55099 0
M  V30 2272 H 227.821 -3.87421 0.229449 0
M  V30 2273 H 225.922 -3.07553 -2.10338 0
M  V30 2274 H 226.035 -4.66501 -1.09151 0
M  V30 2275 H 224.399 -2.45618 -0.674072 0
M  V30 2276 H 225.182 -3.35311 0.736297 0
M  V30 2277 N 227.627 0.131896 -1.57047 0
M  V30 2278 C 229.038 0.690407 -1.73465 0
M  V30 2279 C 229.389 1.8094 -0.758629 0
M  V30 2280 O 228.514 2.16282 0.0713813 0
M  V30 2281 C 229.109 1.25916 -3.14532 0
M  V30 2282 C 227.668 1.76409 -3.32501 0
M  V30 2283 C 226.815 0.658579 -2.69366 0
M  V30 2284 H 229.766 -0.0939144 -1.58422 0
M  V30 2285 H 229.787 2.12892 -3.15369 0
M  V30 2286 H 229.299 0.444515 -3.85546 0
M  V30 2287 H 227.4 2.60391 -2.66509 0
M  V30 2288 H 227.513 1.88241 -4.4057 0
M  V30 2289 H 225.877 1.08899 -2.30246 0
M  V30 2290 H 226.66 -0.14487 -3.42994 0
M  V30 2291 N 229.106 1.52395 0.401703 0
M  V30 2292 C 230.053 1.76268 1.48991 0
M  V30 2293 C 231.023 0.605386 1.54675 0
M  V30 2294 O 232.208 0.843742 1.7113 0
M  V30 2295 C 229.348 1.92592 2.86361 0
M  V30 2296 C 228.461 3.20259 2.89928 0
M  V30 2297 C 227.596 3.26972 4.18644 0
M  V30 2298 C 226.635 4.48812 4.16214 0
M  V30 2299 N 225.772 4.52877 5.36514 0
M  V30 2300 H 230.612 2.6914 1.27935 0
M  V30 2301 H 228.149 1.33355 0.620871 0
M  V30 2302 H 230.107 2.0004 3.66115 0
M  V30 2303 H 228.737 1.03093 3.05895 0
M  V30 2304 H 227.789 3.21945 2.02621 0
M  V30 2305 H 229.101 4.10056 2.83999 0
M  V30 2306 H 228.255 3.33533 5.06794 0
M  V30 2307 H 226.994 2.35126 4.27278 0
M  V30 2308 H 225.999 4.4239 3.26453 0
M  V30 2309 H 227.224 5.41961 4.09213 0
M  V30 2310 H 225.17 3.63917 5.45802 0
M  V30 2311 H 225.087 5.36529 5.32609 0
M  V30 2312 H 226.355 4.63676 6.26597 0
M  V30 2313 N 230.584 -0.659388 1.43143 0
M  V30 2314 C 231.995 -1.24041 1.39537 0
M  V30 2315 C 232.346 -1.95963 0.0963364 0
M  V30 2316 O 231.471 -2.00892 -0.804438 0
M  V30 2317 C 232.066 -2.25601 2.52764 0
M  V30 2318 C 230.625 -2.79195 2.52443 0
M  V30 2319 C 229.772 -1.53743 2.30778 0
M  V30 2320 H 232.723 -0.451792 1.52133 0
M  V30 2321 H 232.744 -3.07651 2.23899 0
M  V30 2322 H 232.256 -1.73226 3.47296 0
M  V30 2323 H 230.357 -3.35649 1.61773 0
M  V30 2324 H 230.47 -3.2716 3.50004 0
M  V30 2325 H 228.834 -1.80869 1.79328 0
M  V30 2326 H 229.617 -1.03312 3.27386 0
M  V30 2327 N 232.062 -1.29571 -0.897171 0
M  V30 2328 C 233.009 -1.14916 -2.00158 0
M  V30 2329 C 233.979 -0.0418149 -1.66047 0
M  V30 2330 O 235.164 -0.209793 -1.89643 0
M  V30 2331 C 232.304 -0.834307 -3.34863 0
M  V30 2332 C 231.417 -2.02234 -3.8174 0
M  V30 2333 C 230.552 -1.64664 -5.05034 0
M  V30 2334 C 229.591 -2.80033 -5.44286 0
M  V30 2335 N 228.728 -2.42843 -6.58765 0
M  V30 2336 H 233.568 -2.09403 -2.12025 0
M  V30 2337 H 231.105 -1.042 -1.0383 0
M  V30 2338 H 233.063 -0.632436 -4.12379 0
M  V30 2339 H 231.693 0.0736656 -3.22716 0
M  V30 2340 H 230.745 -2.33583 -3.00238 0
M  V30 2341 H 232.057 -2.88673 -4.06779 0
M  V30 2342 H 231.211 -1.4078 -5.9014 0
M  V30 2343 H 229.95 -0.753766 -4.8184 0
M  V30 2344 H 228.955 -3.04596 -4.57713 0
M  V30 2345 H 230.18 -3.69989 -5.6946 0
M  V30 2346 H 228.126 -1.56046 -6.3717 0
M  V30 2347 H 228.043 -3.22815 -6.83613 0
M  V30 2348 H 229.311 -2.22285 -7.47134 0
M  V30 2349 N 233.54 1.10788 -1.12088 0
M  V30 2350 C 234.817 1.79136 -0.785476 0
M  V30 2351 C 235.197 1.98246 0.725377 0
M  V30 2352 O 234.545 1.57258 1.65778 0
M  V30 2353 C 234.755 3.12375 -1.55636 0
M  V30 2354 C 236.103 3.8731 -1.74001 0
M  V30 2355 O 237.127 3.22085 -1.52117 0
M  V30 2356 O 235.986 5.04369 -2.10415 0
M  V30 2357 H 233.08 0.776226 -0.285311 0
M  V30 2358 H 235.626 1.1747 -1.2247 0
M  V30 2359 H 234.398 2.93863 -2.5838 0
M  V30 2360 H 234.021 3.81758 -1.11114 0
M  V30 2361 N 235.018 0.912232 1.28515 0
M  V30 2362 C 236.246 0.560416 1.99166 0
M  V30 2363 C 236.661 -0.857927 1.68182 0
M  V30 2364 O 236.018 -1.56805 0.933733 0
M  V30 2365 C 236.069 0.758142 3.53461 0
M  V30 2366 O 235.79 2.12067 3.83352 0
M  V30 2367 C 237.291 0.412954 4.41372 0
M  V30 2368 H 234.511 0.213805 0.636026 0
M  V30 2369 H 237.055 1.22502 1.63749 0
M  V30 2370 H 235.21 0.140556 3.87145 0
M  V30 2371 H 235.624 2.15923 4.77993 0
M  V30 2372 H 237.098 0.60208 5.48707 0
M  V30 2373 H 237.575 -0.65073 4.34353 0
M  V30 2374 H 238.181 1.00802 4.13182 0
M  V30 2375 N 236.496 -1.42363 0.676048 0
M  V30 2376 C 237.426 -2.33497 0.0124832 0
M  V30 2377 C 238.407 -1.50748 -0.787981 0
M  V30 2378 O 239.592 -1.79346 -0.744884 0
M  V30 2379 C 236.722 -3.34377 -0.938582 0
M  V30 2380 C 235.676 -4.27289 -0.246622 0
M  V30 2381 C 235.002 -5.18386 -1.31071 0
M  V30 2382 C 236.302 -5.14916 0.875125 0
M  V30 2383 H 237.996 -2.89233 0.773593 0
M  V30 2384 H 235.542 -1.39073 0.37346 0
M  V30 2385 H 237.495 -3.97044 -1.41188 0
M  V30 2386 H 236.219 -2.76947 -1.73113 0
M  V30 2387 H 234.878 -3.66018 0.206456 0
M  V30 2388 H 234.526 -4.57282 -2.09528 0
M  V30 2389 H 234.226 -5.81378 -0.852839 0
M  V30 2390 H 235.75 -5.83929 -1.78492 0
M  V30 2391 H 237.164 -5.71262 0.482983 0
M  V30 2392 H 235.561 -5.86747 1.25887 0
M  V30 2393 H 236.631 -4.53242 1.72335 0
M  V30 2394 N 237.974 -0.419461 -1.51915 0
M  V30 2395 C 238.907 0.445751 -2.23804 0
M  V30 2396 C 239.885 1.03951 -1.25031 0
M  V30 2397 O 241.069 1.08541 -1.54114 0
M  V30 2398 C 238.196 1.61964 -2.97465 0
M  V30 2399 C 237.242 1.14828 -4.10751 0
M  V30 2400 S 238.075 0.104938 -5.35397 0
M  V30 2401 C 239.231 1.28391 -6.1259 0
M  V30 2402 H 239.464 -0.164627 -2.96844 0
M  V30 2403 H 236.997 -0.203833 -1.53049 0
M  V30 2404 H 238.955 2.29271 -3.40507 0
M  V30 2405 H 237.616 2.20139 -2.24048 0
M  V30 2406 H 236.809 2.02561 -4.61503 0
M  V30 2407 H 236.411 0.553712 -3.69878 0
M  V30 2408 H 238.703 2.20563 -6.40592 0
M  V30 2409 H 239.646 0.816724 -7.03374 0
M  V30 2410 H 240.054 1.51439 -5.43807 0
M  V30 2411 N 239.452 1.56882 -0.150215 0
M  V30 2412 C 240.701 1.95403 0.500071 0
M  V30 2413 C 241.014 1.03777 1.658 0
M  V30 2414 O 242.22 1.31889 2.37313 0
M  V30 2415 C 240.676 3.4738 0.941018 0
M  V30 2416 C 240.284 4.47596 -0.190158 0
M  V30 2417 C 242.028 3.9476 1.56091 0
M  V30 2418 C 239.935 5.90787 0.269237 0
M  V30 2419 H 238.865 0.729515 0.190588 0
M  V30 2420 H 241.516 1.81988 -0.235074 0
M  V30 2421 H 239.898 3.56138 1.73152 0
M  V30 2422 H 241.072 4.50536 -0.967157 0
M  V30 2423 H 239.387 4.10151 -0.718666 0
M  V30 2424 H 241.984 4.99181 1.9163 0
M  V30 2425 H 242.327 3.36494 2.45107 0
M  V30 2426 H 242.86 3.88932 0.835249 0
M  V30 2427 H 239.599 6.52879 -0.585621 0
M  V30 2428 H 239.119 5.912 1.01204 0
M  V30 2429 H 240.798 6.42979 0.720176 0
M  V30 2430 N 240.93 -0.123565 1.57115 0
M  V30 2431 C 242.155 -0.850398 1.89164 0
M  V30 2432 C 242.58 -1.7286 0.741688 0
M  V30 2433 O 241.938 -1.78665 -0.307958 0
M  V30 2434 C 241.986 -1.66353 3.19936 0
M  V30 2435 O 241.09 -2.77004 3.0552 0
M  V30 2436 H 240.431 -0.235454 0.620852 0
M  V30 2437 H 242.961 -0.107335 2.04318 0
M  V30 2438 H 242.971 -2.05372 3.52543 0
M  V30 2439 H 241.646 -1.01881 4.03228 0
M  V30 2440 H 240.223 -2.41221 2.84371 0
M  V30 2441 N 242.408 -1.52605 -0.393616 0
M  V30 2442 C 243.824 -1.41753 -0.733357 0
M  V30 2443 C 244.024 -0.534293 -1.94287 0
M  V30 2444 O 243.08 -0.0059787 -2.52499 0
M  V30 2445 C 244.393 -2.84531 -0.972772 0
M  V30 2446 C 245.941 -2.93978 -1.07453 0
M  V30 2447 C 246.416 -4.37756 -1.3466 0
M  V30 2448 N 247.907 -4.4106 -1.41492 0
M  V30 2449 C 248.642 -5.49387 -1.642 0
M  V30 2450 N 248.138 -6.67806 -1.8441 0
M  V30 2451 N 249.931 -5.36923 -1.66342 0
M  V30 2452 H 242.082 -2.08555 0.402328 0
M  V30 2453 H 244.345 -0.940654 0.117789 0
M  V30 2454 H 244.051 -3.51353 -0.156204 0
M  V30 2455 H 243.925 -3.26508 -1.88871 0
M  V30 2456 H 246.312 -2.27326 -1.88167 0
M  V30 2457 H 246.393 -2.55435 -0.136605 0
M  V30 2458 H 246.037 -5.04972 -0.544581 0
M  V30 2459 H 245.967 -4.73848 -2.2973 0
M  V30 2460 H 248.458 -3.55705 -1.27601 0
M  V30 2461 H 248.771 -7.46141 -2.01231 0
M  V30 2462 H 247.116 -6.70843 -1.81644 0
M  V30 2463 H 250.307 -4.43381 -1.50102 0
M  V30 2464 H 250.48 -6.21416 -1.837 0
M  V30 2465 N 243.887 0.651787 -1.4349 0
M  V30 2466 C 245.115 1.43937 -1.48626 0
M  V30 2467 C 245.53 1.8851 -0.104587 0
M  V30 2468 O 244.887 1.5958 0.885464 0
M  V30 2469 C 244.938 2.6734 -2.43334 0
M  V30 2470 O 244.659 2.24631 -3.76128 0
M  V30 2471 C 246.16 3.60683 -2.57726 0
M  V30 2472 H 243.38 0.44213 -0.504739 0
M  V30 2473 H 245.924 0.798944 -1.88248 0
M  V30 2474 H 244.079 3.2752 -2.06904 0
M  V30 2475 H 244.493 3.04485 -4.2707 0
M  V30 2476 H 245.967 4.43933 -3.28067 0
M  V30 2477 H 246.444 4.08126 -1.62265 0
M  V30 2478 H 247.05 3.06384 -2.94973 0
M  V30 2479 N 245.365 1.30045 0.890287 0
M  V30 2480 C 246.776 1.16738 1.45702 0
M  V30 2481 C 247.127 -0.233939 1.948 0
M  V30 2482 O 246.252 -1.13021 1.84541 0
M  V30 2483 C 246.847 2.11313 2.64825 0
M  V30 2484 C 245.406 2.02001 3.17604 0
M  V30 2485 C 244.553 2.01699 1.90296 0
M  V30 2486 H 247.504 1.42392 0.700726 0
M  V30 2487 H 247.525 1.69086 3.40867 0
M  V30 2488 H 247.037 3.13294 2.2906 0
M  V30 2489 H 245.138 1.03142 3.5804 0
M  V30 2490 H 245.251 2.90128 3.81264 0
M  V30 2491 H 243.615 1.46427 2.08402 0
M  V30 2492 H 244.398 3.05402 1.56795 0
M  V30 2493 N 246.843 -1.10192 1.12674 0
M  V30 2494 C 247.753 -2.20172 0.810026 0
M  V30 2495 C 248.769 -1.72821 -0.202188 0
M  V30 2496 O 249.945 -2.01369 -0.0351691 0
M  V30 2497 C 247.01 -3.45631 0.272007 0
M  V30 2498 C 246.071 -4.07704 1.34447 0
M  V30 2499 C 245.304 -5.27175 0.832029 0
M  V30 2500 O 245.527 -5.69425 -0.333284 0
M  V30 2501 O 244.461 -5.80168 1.60277 0
M  V30 2502 H 248.287 -2.49701 1.72867 0
M  V30 2503 H 245.872 -1.18977 0.903597 0
M  V30 2504 H 247.754 -4.21394 -0.0230219 0
M  V30 2505 H 246.429 -3.17723 -0.619164 0
M  V30 2506 H 245.336 -3.33614 1.6927 0
M  V30 2507 H 246.669 -4.3982 2.2095 0
M  V30 2508 N 248.321 -0.919034 -1.28029 0
M  V30 2509 C 249.567 -0.555757 -1.95036 0
M  V30 2510 C 249.9 0.899198 -1.72128 0
M  V30 2511 O 249.175 1.64023 -1.04531 0
M  V30 2512 C 249.458 -0.872024 -3.49382 0
M  V30 2513 C 249.311 -2.3801 -3.81669 0
M  V30 2514 C 250.63 -0.37185 -4.38526 0
M  V30 2515 H 247.749 -0.203386 -0.708381 0
M  V30 2516 H 250.391 -1.14924 -1.51303 0
M  V30 2517 H 248.541 -0.366946 -3.86763 0
M  V30 2518 H 250.213 -2.9562 -3.54128 0
M  V30 2519 H 248.456 -2.83289 -3.28526 0
M  V30 2520 H 249.127 -2.55192 -4.8947 0
M  V30 2521 H 251.603 -0.804602 -4.08247 0
M  V30 2522 H 250.479 -0.622173 -5.45362 0
M  V30 2523 H 250.74 0.727934 -4.36066 0
M  V30 2524 N 249.799 1.42003 -0.683588 0
M  V30 2525 C 251.027 2.05746 -0.218182 0
M  V30 2526 C 251.442 1.51396 1.12804 0
M  V30 2527 O 250.799 0.657303 1.70252 0
M  V30 2528 C 250.85 3.61171 -0.154131 0
M  V30 2529 O 250.571 4.13508 -1.44716 0
M  V30 2530 C 252.072 4.42042 0.333713 0
M  V30 2531 H 249.292 0.662888 -0.10402 0
M  V30 2532 H 251.836 1.81987 -0.9328 0
M  V30 2533 H 249.991 3.84012 0.511231 0
M  V30 2534 H 250.405 5.07453 -1.32632 0
M  V30 2535 H 251.879 5.51028 0.327423 0
M  V30 2536 H 252.356 4.17269 1.37053 0
M  V30 2537 H 252.962 4.24239 -0.300222 0
M  V30 2538 N 251.277 0.427512 1.51691 0
M  V30 2539 C 252.517 -0.141524 2.03909 0
M  V30 2540 C 252.881 -1.40811 1.30523 0
M  V30 2541 O 254.082 -2.05676 1.73063 0
M  V30 2542 C 252.353 -0.364962 3.55532 0
M  V30 2543 S 253.912 -0.898812 4.29496 0
M  V30 2544 H 250.73 -0.0364542 0.710065 0
M  V30 2545 H 253.332 0.584659 1.86553 0
M  V30 2546 H 252.036 0.56336 4.06515 0
M  V30 2547 H 251.567 -1.1185 3.77164 0
M  V30 2548 H 253.582 -2.17747 4.45871 0
M  V30 2549 N 252.755 -1.56801 0.158532 0
M  V30 2550 C 254.001 -1.96781 -0.490405 0
M  V30 2551 C 254.334 -1.04397 -1.63753 0
M  V30 2552 O 253.609 -0.0885805 -1.94298 0
M  V30 2553 C 253.892 -3.4635 -0.985594 0
M  V30 2554 C 253.745 -4.49512 0.160824 0
M  V30 2555 C 255.064 -3.98697 -1.86355 0
M  V30 2556 H 252.183 -0.715482 -0.176788 0
M  V30 2557 H 254.825 -1.88451 0.242088 0
M  V30 2558 H 252.975 -3.53579 -1.60978 0
M  V30 2559 H 254.647 -4.54353 0.797537 0
M  V30 2560 H 252.89 -4.26013 0.818256 0
M  V30 2561 H 253.561 -5.51531 -0.227569 0
M  V30 2562 H 256.037 -3.94019 -1.33746 0
M  V30 2563 H 254.913 -5.03792 -2.17909 0
M  V30 2564 H 255.174 -3.41744 -2.8047 0
M  V30 2565 N 254.233 0.115231 -1.57178 0
M  V30 2566 C 255.479 0.82357 -1.85325 0
M  V30 2567 C 255.812 1.79349 -0.744814 0
M  V30 2568 O 255.087 1.92899 0.249024 0
M  V30 2569 C 255.37 1.57014 -3.24066 0
M  V30 2570 C 255.223 0.619565 -4.45513 0
M  V30 2571 C 256.542 2.52545 -3.60429 0
M  V30 2572 H 253.661 0.297948 -0.674089 0
M  V30 2573 H 256.303 0.0877138 -1.89797 0
M  V30 2574 H 254.453 2.19742 -3.20383 0
M  V30 2575 H 256.125 0.000837639 -4.613 0
M  V30 2576 H 254.368 -0.0686174 -4.33746 0
M  V30 2577 H 255.039 1.17866 -5.3927 0
M  V30 2578 H 257.515 1.9992 -3.64926 0
M  V30 2579 H 256.391 3.01811 -4.58477 0
M  V30 2580 H 256.652 3.35383 -2.88047 0
M  V30 2581 N 255.711 1.52812 0.385517 0
M  V30 2582 C 256.957 1.68275 1.13188 0
M  V30 2583 C 257.29 0.423179 1.89533 0
M  V30 2584 O 256.565 -0.579113 1.85679 0
M  V30 2585 C 256.848 2.92001 2.1073 0
M  V30 2586 C 256.701 4.28067 1.38125 0
M  V30 2587 C 258.02 3.11283 3.11113 0
M  V30 2588 H 255.139 0.612352 0.410115 0
M  V30 2589 H 257.781 1.85415 0.414869 0
M  V30 2590 H 255.931 2.77519 2.71874 0
M  V30 2591 H 257.603 4.54324 0.799187 0
M  V30 2592 H 255.846 4.28388 0.683092 0
M  V30 2593 H 256.517 5.10733 2.09417 0
M  V30 2594 H 258.993 3.2482 2.6006 0
M  V30 2595 H 257.869 3.99325 3.76605 0
M  V30 2596 H 258.13 2.25656 3.80173 0
M  V30 2597 N 257.189 -0.644168 1.43834 0
M  V30 2598 C 258.466 -1.40188 1.36406 0
M  V30 2599 C 258.846 -2.11094 0.0163124 0
M  V30 2600 O 258.194 -2.05426 -1.00062 0
M  V30 2601 C 258.404 -2.3791 2.55343 0
M  V30 2602 C 259.752 -3.01637 2.98832 0
M  V30 2603 O 260.776 -2.48237 2.55455 0
M  V30 2604 O 259.635 -3.98477 3.74003 0
M  V30 2605 H 256.729 -0.626773 0.539523 0
M  V30 2606 H 259.275 -0.670317 1.559 0
M  V30 2607 H 258.047 -1.84525 3.4506 0
M  V30 2608 H 257.67 -3.18503 2.37995 0
M  V30 2609 N 258.668 -1.30515 -0.883378 0
M  V30 2610 C 259.914 -1.19607 -1.63774 0
M  V30 2611 C 260.247 0.248314 -1.92606 0
M  V30 2612 O 259.522 1.17742 -1.54813 0
M  V30 2613 C 259.805 -2.02669 -2.97653 0
M  V30 2614 C 259.658 -3.55335 -2.75784 0
M  V30 2615 C 260.977 -1.86573 -3.98596 0
M  V30 2616 H 258.096 -0.435856 -0.594305 0
M  V30 2617 H 260.738 -1.60165 -1.02212 0
M  V30 2618 H 258.888 -1.68208 -3.50197 0
M  V30 2619 H 260.56 -3.99863 -2.30016 0
M  V30 2620 H 258.803 -3.79438 -2.1026 0
M  V30 2621 H 259.474 -4.08745 -3.70988 0
M  V30 2622 H 261.95 -2.16703 -3.55217 0
M  V30 2623 H 260.826 -2.47014 -4.90179 0
M  V30 2624 H 261.087 -0.825321 -4.34328 0
M  V30 2625 N 260.146 1.09593 -1.13257 0
M  V30 2626 C 261.371 1.8604 -0.916732 0
M  V30 2627 C 261.796 1.80504 0.529146 0
M  V30 2628 O 261.154 1.18127 1.37534 0
M  V30 2629 C 261.202 3.32017 -1.40703 0
M  V30 2630 O 260.306 4.08141 -0.591153 0
M  V30 2631 H 259.647 0.576943 -0.328683 0
M  V30 2632 H 262.177 1.38405 -1.50682 0
M  V30 2633 H 262.187 3.82865 -1.4099 0
M  V30 2634 H 260.862 3.35361 -2.45979 0
M  V30 2635 H 259.439 3.67084 -0.656005 0
M  V30 2636 N 261.624 0.925811 1.2754 0
M  V30 2637 C 262.574 0.394488 2.24561 0
M  V30 2638 C 263.558 -0.500183 1.52928 0
M  V30 2639 O 264.75 -0.337936 1.73744 0
M  V30 2640 C 261.879 -0.353328 3.41477 0
M  V30 2641 C 260.965 0.557752 4.20416 0
M  V30 2642 N 261.356 1.67674 4.77199 0
M  V30 2643 C 259.654 0.360404 4.44541 0
M  V30 2644 C 260.355 2.24324 5.36706 0
M  V30 2645 N 259.331 1.53305 5.21535 0
M  V30 2646 H 263.133 1.2489 2.66045 0
M  V30 2647 H 260.647 0.779864 1.4245 0
M  V30 2648 H 262.644 -0.7509 4.10082 0
M  V30 2649 H 261.304 -1.20469 3.01525 0
M  V30 2650 H 262.315 2.05915 4.75204 0
M  V30 2651 H 258.992 -0.450454 4.15063 0
M  V30 2652 H 260.382 3.18521 5.91603 0
M  V30 2653 N 263.102 -1.41638 0.69111 0
M  V30 2654 C 264.012 -2.34588 0.0233487 0
M  V30 2655 C 265.028 -1.55987 -0.770984 0
M  V30 2656 O 266.204 -1.88486 -0.709569 0
M  V30 2657 C 263.269 -3.34684 -0.904851 0
M  V30 2658 C 262.33 -4.29176 -0.103225 0
M  V30 2659 C 261.563 -5.2449 -0.987216 0
M  V30 2660 O 261.786 -5.2514 -2.22674 0
M  V30 2661 O 260.72 -6.00295 -0.439281 0
M  V30 2662 H 264.546 -2.93261 0.789416 0
M  V30 2663 H 262.131 -1.42417 0.45142 0
M  V30 2664 H 264.013 -3.96133 -1.43724 0
M  V30 2665 H 262.688 -2.78461 -1.65049 0
M  V30 2666 H 261.595 -3.71089 0.473655 0
M  V30 2667 H 262.928 -4.88484 0.60365 0
M  V30 2668 N 264.58 -0.43555 -1.51462 0
M  V30 2669 C 265.857 0.191364 -1.94662 0
M  V30 2670 C 266.237 1.60254 -1.37411 0
M  V30 2671 O 265.585 2.2152 -0.560458 0
M  V30 2672 C 265.795 0.17091 -3.48581 0
M  V30 2673 C 267.143 0.377357 -4.2292 0
M  V30 2674 O 268.167 0.249104 -3.55328 0
M  V30 2675 O 267.026 0.63247 -5.42828 0
M  V30 2676 H 264.12 0.130932 -0.816569 0
M  V30 2677 H 266.666 -0.4934 -1.62369 0
M  V30 2678 H 265.438 -0.815738 -3.82703 0
M  V30 2679 H 265.061 0.898659 -3.87311 0
M  V30 2680 N 266.058 1.56714 -0.166846 0
M  V30 2681 C 267.469 1.83378 0.350646 0
M  V30 2682 C 267.82 1.08646 1.63372 0
M  V30 2683 O 266.945 0.338058 2.13743 0
M  V30 2684 C 267.54 3.32643 0.642963 0
M  V30 2685 C 266.099 3.59818 1.10491 0
M  V30 2686 C 265.246 2.76954 0.138411 0
M  V30 2687 H 268.197 1.53803 -0.391193 0
M  V30 2688 H 268.218 3.49878 1.49551 0
M  V30 2689 H 267.73 3.87007 -0.291055 0
M  V30 2690 H 265.831 3.1086 2.05418 0
M  V30 2691 H 265.944 4.68178 1.01716 0
M  V30 2692 H 264.308 2.4666 0.634911 0
M  V30 2693 H 265.091 3.34097 -0.789549 0
M  V30 2694 N 267.536 -0.106894 1.57237 0
M  V30 2695 C 268.446 -1.14911 2.0453 0
M  V30 2696 C 269.462 -1.44592 0.96795 0
M  V30 2697 O 270.638 -1.55468 1.2803 0
M  V30 2698 C 267.703 -2.45272 2.45036 0
M  V30 2699 C 266.764 -2.22879 3.66911 0
M  V30 2700 C 265.997 -3.47024 4.05475 0
M  V30 2701 O 266.22 -4.54804 3.44252 0
M  V30 2702 O 265.154 -3.3731 4.98504 0
M  V30 2703 H 268.98 -0.777461 2.9358 0
M  V30 2704 H 266.565 -0.318563 1.45964 0
M  V30 2705 H 268.447 -3.22055 2.71769 0
M  V30 2706 H 267.122 -2.81886 1.59129 0
M  V30 2707 H 266.029 -1.43915 3.45311 0
M  V30 2708 H 267.362 -1.91163 4.53561 0
M  V30 2709 N 269.014 -1.53014 -0.377408 0
M  V30 2710 C 270.26 -1.68872 -1.12294 0
M  V30 2711 C 270.593 -0.433224 -1.89306 0
M  V30 2712 O 269.868 0.569258 -1.85983 0
M  V30 2713 C 270.151 -2.93115 -2.09179 0
M  V30 2714 C 270.004 -4.28794 -1.35853 0
M  V30 2715 C 271.323 -3.12928 -3.09458 0
M  V30 2716 H 268.442 -0.614518 -0.406862 0
M  V30 2717 H 271.084 -1.85633 -0.40503 0
M  V30 2718 H 269.234 -2.78956 -2.70399 0
M  V30 2719 H 270.906 -4.54742 -0.775082 0
M  V30 2720 H 269.149 -4.28744 -0.660364 0
M  V30 2721 H 269.82 -5.11837 -2.06706 0
M  V30 2722 H 272.296 -3.26194 -2.58334 0
M  V30 2723 H 271.172 -4.01316 -3.74482 0
M  V30 2724 H 271.433 -2.27669 -3.78971 0
M  V30 2725 N 270.492 0.636531 -1.44174 0
M  V30 2726 C 271.439 1.74875 -1.50624 0
M  V30 2727 C 272.409 1.62275 -0.35442 0
M  V30 2728 O 273.594 1.82276 -0.563908 0
M  V30 2729 C 270.734 3.13102 -1.45125 0
M  V30 2730 C 269.847 3.36717 -2.7064 0
M  V30 2731 C 268.982 4.64885 -2.57013 0
M  V30 2732 C 268.021 4.8166 -3.77717 0
M  V30 2733 N 267.158 6.01101 -3.62798 0
M  V30 2734 H 271.998 1.68697 -2.45653 0
M  V30 2735 H 269.535 0.823004 -1.21922 0
M  V30 2736 H 271.493 3.93034 -1.39929 0
M  V30 2737 H 270.123 3.18308 -0.536671 0
M  V30 2738 H 269.175 2.50763 -2.86046 0
M  V30 2739 H 270.487 3.44993 -3.60252 0
M  V30 2740 H 269.641 5.52969 -2.49619 0
M  V30 2741 H 268.38 4.58957 -1.64953 0
M  V30 2742 H 267.385 3.92007 -3.85501 0
M  V30 2743 H 268.61 4.89406 -4.70807 0
M  V30 2744 H 266.556 5.96273 -2.73486 0
M  V30 2745 H 266.473 6.10409 -4.46023 0
M  V30 2746 H 267.741 6.91761 -3.59286 0
M  V30 2747 N 271.97 1.30982 0.876444 0
M  V30 2748 C 273.217 1.20296 1.62896 0
M  V30 2749 C 273.545 -0.240395 1.93009 0
M  V30 2750 O 272.8 -1.18733 1.55567 0
M  V30 2751 C 273.099 1.98572 2.9716 0
M  V30 2752 C 272.765 3.48125 2.86566 0
M  V30 2753 C 271.427 3.88905 2.83383 0
M  V30 2754 C 273.779 4.43322 2.74071 0
M  V30 2755 C 271.107 5.2316 2.65556 0
M  V30 2756 C 273.459 5.77695 2.57781 0
M  V30 2757 C 272.123 6.17704 2.52979 0
M  V30 2758 H 271.393 0.440193 0.59608 0
M  V30 2759 H 274.04 1.62177 1.01837 0
M  V30 2760 H 272.345 1.49352 3.62217 0
M  V30 2761 H 274.042 1.8769 3.54364 0
M  V30 2762 H 270.632 3.15723 2.89856 0
M  V30 2763 H 274.816 4.12752 2.75589 0
M  V30 2764 H 270.072 5.53241 2.60259 0
M  V30 2765 H 274.246 6.51091 2.47089 0
M  V30 2766 H 271.873 7.21678 2.38924 0
M  V30 2767 N 273.449 -1.08991 1.13837 0
M  V30 2768 C 274.397 -2.17841 0.815347 0
M  V30 2769 C 275.391 -1.68164 -0.204233 0
M  V30 2770 O 276.597 -1.79897 -0.0609304 0
M  V30 2771 H 272.972 -0.710654 0.245915 0
M  V30 2772 H 274.943 -2.42315 1.74143 0
M  V30 2773 C 273.692 -3.46381 0.302614 0
M  V30 2774 H 273.015 -3.84979 1.0785 0
M  V30 2775 H 274.455 -4.23844 0.115074 0
M  V30 2776 C 272.914 -3.22556 -0.972591 0
M  V30 2777 O 273.444 -3.45599 -2.04754 0
M  V30 2778 N 271.65 -2.76134 -0.905455 0
M  V30 2779 H 271.197 -2.57582 -0.0305421 0
M  V30 2780 H 271.155 -2.60571 -1.75926 0
M  V30 2781 N 274.927 -0.932562 -1.27047 0
M  V30 2782 C 276.173 -0.585913 -1.94778 0
M  V30 2783 C 276.528 0.864142 -1.71902 0
M  V30 2784 O 275.821 1.60894 -1.04037 0
M  V30 2785 C 276.015 -0.853713 -3.47054 0
M  V30 2786 C 275.844 -2.32825 -3.84737 0
M  V30 2787 C 274.614 -2.98184 -4.07939 0
M  V30 2788 C 276.812 -3.30612 -3.93954 0
M  V30 2789 N 274.794 -4.3574 -4.3244 0
M  V30 2790 C 276.165 -4.53395 -4.22887 0
M  V30 2791 C 278.22 -3.25755 -3.76548 0
M  V30 2792 C 276.923 -5.71927 -4.36224 0
M  V30 2793 C 278.949 -4.43604 -3.91113 0
M  V30 2794 C 278.311 -5.65166 -4.20437 0
M  V30 2795 H 274.41 -0.264617 -0.735868 0
M  V30 2796 H 276.994 -1.20019 -1.53309 0
M  V30 2797 H 275.165 -0.268557 -3.8747 0
M  V30 2798 H 276.897 -0.469202 -4.01971 0
M  V30 2799 H 273.652 -2.48835 -4.02961 0
M  V30 2800 H 274.076 -5.06915 -4.48738 0
M  V30 2801 H 278.718 -2.32835 -3.52913 0
M  V30 2802 H 276.436 -6.65308 -4.58683 0
M  V30 2803 H 280.022 -4.41368 -3.79059 0
M  V30 2804 H 278.902 -6.54836 -4.31462 0
M  V30 2805 N 276.405 1.4127 -0.698611 0
M  V30 2806 C 277.635 2.05205 -0.239644 0
M  V30 2807 C 278.043 1.52684 1.11733 0
M  V30 2808 O 277.386 0.671222 1.70998 0
M  V30 2809 C 277.448 3.59289 -0.123126 0
M  V30 2810 C 277.112 4.34619 -1.41263 0
M  V30 2811 C 278.109 4.63701 -2.35111 0
M  V30 2812 C 275.794 4.73837 -1.66684 0
M  V30 2813 C 277.788 5.30966 -3.52639 0
M  V30 2814 C 275.475 5.40837 -2.84498 0
M  V30 2815 C 276.473 5.69329 -3.77298 0
M  V30 2816 O 276.161 6.34949 -4.93047 0
M  V30 2817 H 275.893 0.66723 -0.108537 0
M  V30 2818 H 278.447 1.81974 -0.952602 0
M  V30 2819 H 276.677 3.81272 0.645628 0
M  V30 2820 H 278.366 4.04797 0.299056 0
M  V30 2821 H 279.132 4.33882 -2.16729 0
M  V30 2822 H 275.011 4.51039 -0.953135 0
M  V30 2823 H 278.555 5.53121 -4.25091 0
M  V30 2824 H 274.452 5.70075 -3.02795 0
M  V30 2825 H 275.22 6.53445 -4.92902 0
M  V30 2826 N 277.883 0.443576 1.51229 0
M  V30 2827 C 279.129 -0.120975 2.02439 0
M  V30 2828 C 279.462 -1.41815 1.32674 0
M  V30 2829 O 278.737 -1.89373 0.443622 0
M  V30 2830 C 279.02 -0.333291 3.58554 0
M  V30 2831 C 278.873 0.982968 4.38928 0
M  V30 2832 C 280.192 -1.10028 4.26124 0
M  V30 2833 H 277.311 -0.0424923 0.735774 0
M  V30 2834 H 279.953 0.583794 1.80809 0
M  V30 2835 H 278.103 -0.933614 3.77115 0
M  V30 2836 H 279.775 1.61775 4.32003 0
M  V30 2837 H 278.018 1.58611 4.03763 0
M  V30 2838 H 278.689 0.788379 5.46341 0
M  V30 2839 H 281.165 -0.591711 4.11871 0
M  V30 2840 H 280.041 -1.21761 5.35225 0
M  V30 2841 H 280.302 -2.12996 3.87408 0
M  V30 2842 N 279.361 -1.56624 0.175154 0
M  V30 2843 C 280.638 -1.88688 -0.515373 0
M  V30 2844 C 281.018 -1.08564 -1.81044 0
M  V30 2845 O 280.366 -0.180703 -2.27784 0
M  V30 2846 C 280.576 -3.40768 -0.753552 0
M  V30 2847 C 281.924 -4.10587 -1.08184 0
M  V30 2848 O 282.948 -3.46106 -0.841961 0
M  V30 2849 O 281.807 -5.24512 -1.53459 0
M  V30 2850 H 278.901 -0.78301 -0.26613 0
M  V30 2851 H 281.447 -1.68347 0.213877 0
M  V30 2852 H 280.219 -3.90965 0.161829 0
M  V30 2853 H 279.842 -3.66733 -1.53598 0
M  V30 2854 N 280.839 0.0985539 -1.57292 0
M  V30 2855 C 282.087 0.801092 -1.85545 0
M  V30 2856 C 282.408 1.79438 -0.763353 0
M  V30 2857 O 281.678 1.94763 0.21073 0
M  V30 2858 H 280.258 0.29884 -0.684619 0
M  V30 2859 H 282.92 0.0810064 -1.94732 0
M  V30 2860 H 282.016 1.3338 -2.82163 0
M  V30 2861 N 282.317 1.53212 0.369288 0
M  V30 2862 C 283.563 1.69466 1.11397 0
M  V30 2863 C 283.896 0.443257 1.89074 0
M  V30 2864 O 283.171 -0.559386 1.86282 0
M  V30 2865 C 283.454 2.9422 2.07621 0
M  V30 2866 C 283.307 4.29508 1.33577 0
M  V30 2867 C 284.626 3.14565 3.07794 0
M  V30 2868 H 281.745 0.616667 0.403597 0
M  V30 2869 H 284.387 1.85845 0.395179 0
M  V30 2870 H 282.537 2.80387 2.68916 0
M  V30 2871 H 284.209 4.55147 0.750955 0
M  V30 2872 H 282.452 4.29088 0.637618 0
M  V30 2873 H 283.123 5.12926 2.03989 0
M  V30 2874 H 285.599 3.2756 2.56601 0
M  V30 2875 H 284.475 4.03297 3.72348 0
M  V30 2876 H 284.736 2.29675 3.77759 0
M  V30 2877 N 283.795 -0.628877 1.44509 0
M  V30 2878 C 284.705 -1.7694 1.54044 0
M  V30 2879 C 285.721 -1.68705 0.425987 0
M  V30 2880 O 286.897 -1.89442 0.683656 0
M  V30 2881 C 283.962 -3.13332 1.48405 0
M  V30 2882 C 283.023 -3.33181 2.70719 0
M  V30 2883 C 282.256 -4.63067 2.6534 0
M  V30 2884 O 282.479 -5.44017 1.71469 0
M  V30 2885 O 281.413 -4.85167 3.56226 0
M  V30 2886 H 285.239 -1.71848 2.50403 0
M  V30 2887 H 282.824 -0.790378 1.26781 0
M  V30 2888 H 284.706 -3.94634 1.47791 0
M  V30 2889 H 283.381 -3.1896 0.551898 0
M  V30 2890 H 282.288 -2.51549 2.769 0
M  V30 2891 H 283.621 -3.32416 3.62988 0
M  V30 2892 N 285.273 -1.31445 -0.869486 0
M  V30 2893 C 286.519 -1.21337 -1.62496 0
M  V30 2894 C 286.852 0.227872 -1.92858 0
M  V30 2895 O 286.127 1.16094 -1.56053 0
M  V30 2896 C 286.41 -2.05814 -2.95487 0
M  V30 2897 C 286.263 -3.5824 -2.72 0
M  V30 2898 C 287.582 -1.9079 -3.96594 0
M  V30 2899 H 284.701 -0.442135 -0.589649 0
M  V30 2900 H 287.343 -1.6124 -1.00507 0
M  V30 2901 H 285.493 -1.71913 -3.48394 0
M  V30 2902 H 287.165 -4.0228 -2.25762 0
M  V30 2903 H 285.408 -3.81647 -2.06224 0
M  V30 2904 H 286.079 -4.12657 -3.66631 0
M  V30 2905 H 288.555 -2.20459 -3.52898 0
M  V30 2906 H 287.431 -2.52199 -4.87531 0
M  V30 2907 H 287.692 -0.871341 -4.33428 0
M  V30 2908 N 286.751 1.08385 -1.14413 0
M  V30 2909 C 287.701 2.13509 -0.79987 0
M  V30 2910 C 288.685 1.5951 0.211059 0
M  V30 2911 O 289.877 1.76995 0.0133694 0
M  V30 2912 C 287.006 3.42162 -0.279297 0
M  V30 2913 C 286.092 4.03042 -1.31976 0
M  V30 2914 N 286.483 4.38327 -2.52395 0
M  V30 2915 C 284.781 4.30379 -1.17004 0
M  V30 2916 C 285.482 4.86428 -3.19003 0
M  V30 2917 N 284.458 4.84547 -2.46405 0
M  V30 2918 H 288.26 2.38609 -1.7159 0
M  V30 2919 H 285.774 1.2572 -1.02802 0
M  V30 2920 H 287.771 4.16898 -0.0143688 0
M  V30 2921 H 286.431 3.18511 0.630923 0
M  V30 2922 H 287.442 4.29349 -2.89621 0
M  V30 2923 H 284.119 4.16281 -0.318854 0
M  V30 2924 H 285.509 5.23107 -4.21674 0
M  V30 2925 N 288.23 0.939286 1.26551 0
M  V30 2926 C 289.178 0.43815 2.28436 0
M  V30 2927 C 290.172 -0.483587 1.62351 0
M  V30 2928 O 291.378 -0.362009 1.76322 0
M  V30 2929 H 287.753 0.123149 0.741848 0
M  V30 2930 H 289.724 1.31002 2.68106 0
M  V30 2931 C 288.473 -0.283052 3.46546 0
M  V30 2932 H 287.796 0.417043 3.97619 0
M  V30 2933 H 289.236 -0.597948 4.19763 0
M  V30 2934 C 287.695 -1.50018 3.01656 0
M  V30 2935 O 288.225 -2.59855 3.0633 0
M  V30 2936 N 286.431 -1.35608 2.57019 0
M  V30 2937 H 285.978 -0.46244 2.53415 0
M  V30 2938 H 285.936 -2.17165 2.27347 0
M  V30 2939 N 289.708 -1.40897 0.706093 0
M  V30 2940 C 290.671 -2.29131 0.0562841 0
M  V30 2941 C 291.671 -1.44901 -0.697166 0
M  V30 2942 O 292.861 -1.65926 -0.530484 0
M  V30 2943 C 289.993 -3.27957 -0.93043 0
M  V30 2944 H 291.186 -2.88091 0.833284 0
M  V30 2945 H 288.739 -1.4906 0.470192 0
M  V30 2946 H 289.474 -2.73997 -1.73482 0
M  V30 2947 H 289.259 -3.90124 -0.393166 0
M  V30 2948 H 290.749 -3.94049 -1.38256 0
M  V30 2949 N 291.186 -0.45159 -1.50991 0
M  V30 2950 C 292.133 0.352625 -2.2809 0
M  V30 2951 C 293.103 1.0044 -1.32291 0
M  V30 2952 O 294.288 1.02058 -1.6121 0
M  V30 2953 C 291.428 1.43983 -3.13629 0
M  V30 2954 C 290.541 0.804772 -4.24438 0
M  V30 2955 C 289.676 1.86822 -4.97263 0
M  V30 2956 C 288.715 1.21236 -5.99973 0
M  V30 2957 N 287.852 2.2178 -6.66152 0
M  V30 2958 H 292.692 -0.311186 -2.96371 0
M  V30 2959 H 290.229 -0.165308 -1.46168 0
M  V30 2960 H 292.187 2.08161 -3.61559 0
M  V30 2961 H 290.817 2.07307 -2.47434 0
M  V30 2962 H 289.869 0.0509129 -3.80366 0
M  V30 2963 H 291.181 0.286076 -4.97979 0
M  V30 2964 H 290.335 2.58628 -5.48813 0
M  V30 2965 H 289.074 2.42068 -4.23385 0
M  V30 2966 H 288.079 0.479828 -5.47702 0
M  V30 2967 H 289.304 0.667051 -6.75816 0
M  V30 2968 H 287.25 2.76079 -5.95077 0
M  V30 2969 H 287.167 1.74841 -7.35504 0
M  V30 2970 H 288.435 2.93026 -7.22327 0
M  V30 2971 N 292.664 1.56529 -0.183458 0
M  V30 2972 C 293.892 2.01623 0.464285 0
M  V30 2973 C 294.307 1.06366 1.55986 0
M  V30 2974 O 293.664 0.0665398 1.82379 0
M  V30 2975 C 293.715 3.46475 1.03139 0
M  V30 2976 O 293.436 4.38095 -0.0204675 0
M  V30 2977 C 294.937 4.0703 1.75617 0
M  V30 2978 H 292.157 0.660596 0.117704 0
M  V30 2979 H 294.701 2.02451 -0.288751 0
M  V30 2980 H 292.856 3.46383 1.73486 0
M  V30 2981 H 293.27 5.22973 0.399952 0
M  V30 2982 H 294.744 5.10271 2.10542 0
M  V30 2983 H 295.221 3.49819 2.65563 0
M  V30 2984 H 295.827 4.1086 1.09882 0
M  V30 2985 N 294.142 -0.090211 1.57342 0
M  V30 2986 C 295.089 -1.10909 2.02405 0
M  V30 2987 C 296.059 -1.39523 0.901252 0
M  V30 2988 O 297.244 -1.50903 1.1676 0
M  V30 2989 C 294.384 -2.42277 2.45755 0
M  V30 2990 C 293.497 -2.20352 3.71576 0
M  V30 2991 C 292.632 -3.45154 4.03785 0
M  V30 2992 C 291.671 -3.18512 5.22701 0
M  V30 2993 N 290.808 -4.35593 5.50639 0
M  V30 2994 H 295.648 -0.71782 2.89225 0
M  V30 2995 H 293.185 -0.342901 1.43048 0
M  V30 2996 H 295.143 -3.18951 2.68935 0
M  V30 2997 H 293.773 -2.79242 1.61938 0
M  V30 2998 H 292.825 -1.34458 3.55844 0
M  V30 2999 H 294.137 -1.96661 4.58395 0
M  V30 3000 H 293.291 -4.30233 4.27767 0
M  V30 3001 H 292.03 -3.71904 3.15498 0
M  V30 3002 H 291.035 -2.31827 4.98534 0
M  V30 3003 H 292.26 -2.93103 6.12591 0
M  V30 3004 H 290.206 -4.6241 4.6531 0
M  V30 3005 H 290.123 -4.1511 6.31838 0
M  V30 3006 H 291.391 -5.21723 5.7916 0
M  V30 3007 N 295.62 -1.53406 -0.361157 0
M  V30 3008 C 297.031 -1.61442 -0.937728 0
M  V30 3009 C 297.382 -0.48461 -1.90121 0
M  V30 3010 O 296.507 0.388312 -2.12888 0
M  V30 3011 C 297.102 -2.92624 -1.70753 0
M  V30 3012 C 295.661 -3.02981 -2.23337 0
M  V30 3013 C 294.808 -2.5677 -1.04712 0
M  V30 3014 H 297.759 -1.58083 -0.139816 0
M  V30 3015 H 297.78 -2.80675 -2.56908 0
M  V30 3016 H 297.292 -3.74834 -1.00604 0
M  V30 3017 H 295.393 -2.25368 -2.96715 0
M  V30 3018 H 295.506 -4.0814 -2.50916 0
M  V30 3019 H 293.87 -2.11752 -1.41539 0
M  V30 3020 H 294.653 -3.41402 -0.360539 0
M  V30 3021 N 297.098 0.621204 -1.44841 0
M  V30 3022 C 298.514 0.94048 -1.28946 0
M  V30 3023 C 298.714 2.00154 -0.23249 0
M  V30 3024 O 297.77 2.49651 0.378237 0
M  V30 3025 C 299.083 1.39433 -2.66419 0
M  V30 3026 C 300.631 1.50927 -2.74208 0
M  V30 3027 C 301.106 1.99692 -4.12174 0
M  V30 3028 N 302.597 2.06947 -4.144 0
M  V30 3029 C 303.332 2.45871 -5.1801 0
M  V30 3030 N 302.828 2.83862 -6.31977 0
M  V30 3031 N 304.621 2.46092 -5.05366 0
M  V30 3032 H 296.772 -0.0803548 -2.12248 0
M  V30 3033 H 299.035 0.0266913 -0.947624 0
M  V30 3034 H 298.741 0.688925 -3.44887 0
M  V30 3035 H 298.615 2.36347 -2.93973 0
M  V30 3036 H 301.002 2.20561 -1.96053 0
M  V30 3037 H 301.083 0.523627 -2.50383 0
M  V30 3038 H 300.727 1.30649 -4.90809 0
M  V30 3039 H 300.657 2.99146 -4.33381 0
M  V30 3040 H 303.148 1.80232 -3.32152 0
M  V30 3041 H 303.461 3.12405 -7.0684 0
M  V30 3042 H 301.806 2.8159 -6.35399 0
M  V30 3043 H 304.997 2.1581 -4.15384 0
M  V30 3044 H 305.17 2.76102 -5.86235 0
M  V30 3045 N 298.576 1.31904 0.862503 0
M  V30 3046 C 299.486 1.22161 2.00285 0
M  V30 3047 C 300.502 0.136785 1.73462 0
M  V30 3048 O 301.678 0.355994 1.98229 0
M  V30 3049 C 298.743 0.937093 3.33796 0
M  V30 3050 C 297.804 2.10957 3.73893 0
M  V30 3051 C 297.037 1.83853 5.01033 0
M  V30 3052 O 297.26 0.777274 5.65079 0
M  V30 3053 O 296.194 2.69741 5.38074 0
M  V30 3054 H 300.02 2.18008 2.11439 0
M  V30 3055 H 297.605 1.11716 0.991957 0
M  V30 3056 H 299.487 0.794583 4.13841 0
M  V30 3057 H 298.162 0.00871894 3.23699 0
M  V30 3058 H 297.069 2.30752 2.94456 0
M  V30 3059 H 298.402 3.02046 3.88625 0
M  V30 3060 N 300.054 -1.07777 1.14986 0
M  V30 3061 C 300.964 -2.18404 0.856546 0
M  V30 3062 C 301.98 -1.73211 -0.165485 0
M  V30 3063 O 303.156 -2.01399 0.00755219 0
M  V30 3064 C 300.221 -3.44977 0.34526 0
M  V30 3065 C 299.282 -4.0476 1.43065 0
M  V30 3066 C 298.515 -5.25291 0.943663 0
M  V30 3067 O 298.738 -5.70004 -0.212426 0
M  V30 3068 O 297.672 -5.76638 1.72547 0
M  V30 3069 H 301.498 -2.45978 1.78125 0
M  V30 3070 H 299.083 -1.17033 0.928631 0
M  V30 3071 H 300.965 -4.21348 0.0663671 0
M  V30 3072 H 299.64 -3.18965 -0.551631 0
M  V30 3073 H 298.547 -3.29949 1.76309 0
M  V30 3074 H 299.88 -4.35035 2.30229 0
M  V30 3075 N 301.532 -0.945985 -1.26051 0
M  V30 3076 C 302.464 -0.416662 -2.25381 0
M  V30 3077 C 303.477 0.462712 -1.56086 0
M  V30 3078 O 304.666 0.272383 -1.7641 0
M  V30 3079 C 301.766 0.419812 -3.3629 0
M  V30 3080 C 300.939 -0.444531 -4.35135 0
M  V30 3081 C 299.998 0.332305 -5.2515 0
M  V30 3082 O 299.024 -0.266324 -5.68577 0
M  V30 3083 N 300.226 1.62763 -5.57215 0
M  V30 3084 H 302.991 -1.27059 -2.71433 0
M  V30 3085 H 300.552 -0.815392 -1.39868 0
M  V30 3086 H 302.544 0.947013 -3.93464 0
M  V30 3087 H 301.114 1.17456 -2.89694 0
M  V30 3088 H 300.334 -1.15291 -3.76964 0
M  V30 3089 H 301.622 -1.03478 -4.98166 0
M  V30 3090 H 301.02 2.13603 -5.23823 0
M  V30 3091 H 299.577 2.10097 -6.17011 0
M  V30 3092 N 303.011 1.40521 -0.713556 0
M  V30 3093 C 304.241 2.0494 -0.261395 0
M  V30 3094 C 304.649 1.53861 1.10107 0
M  V30 3095 O 303.992 0.689321 1.70276 0
M  V30 3096 C 304.054 3.59138 -0.161227 0
M  V30 3097 C 303.718 4.33096 -1.45865 0
M  V30 3098 C 304.715 4.61182 -2.40016 0
M  V30 3099 C 302.4 4.72043 -1.71701 0
M  V30 3100 C 304.394 5.27196 -3.58251 0
M  V30 3101 C 302.081 5.37789 -2.90218 0
M  V30 3102 C 303.079 5.65295 -3.83315 0
M  V30 3103 O 302.767 6.29683 -4.99754 0
M  V30 3104 H 302.499 0.666041 -0.115608 0
M  V30 3105 H 305.053 1.80954 -0.971849 0
M  V30 3106 H 303.283 3.81936 0.605153 0
M  V30 3107 H 304.972 4.05091 0.256105 0
M  V30 3108 H 305.738 4.31559 -2.21318 0
M  V30 3109 H 301.617 4.50003 -1.00092 0
M  V30 3110 H 305.161 5.48582 -4.30934 0
M  V30 3111 H 301.058 5.66831 -3.08825 0
M  V30 3112 H 301.826 6.4818 -4.99805 0
M  V30 3113 N 304.489 0.459591 1.5075 0
M  V30 3114 C 305.437 -0.354678 2.2988 0
M  V30 3115 C 306.431 -1.00086 1.36672 0
M  V30 3116 O 307.637 -0.933277 1.53915 0
M  V30 3117 H 304.012 -0.13321 0.740107 0
M  V30 3118 H 305.983 0.333269 2.96533 0
M  V30 3119 C 304.732 -1.43073 3.169 0
M  V30 3120 H 304.055 -0.942882 3.88523 0
M  V30 3121 H 305.495 -1.97328 3.75284 0
M  V30 3122 C 303.954 -2.42633 2.33732 0
M  V30 3123 O 304.484 -3.47658 2.01238 0
M  V30 3124 N 302.69 -2.14066 1.9653 0
M  V30 3125 H 302.237 -1.28685 2.23155 0
M  V30 3126 H 302.195 -2.80917 1.41185 0
M  V30 3127 N 305.967 -1.56429 0.191757 0
M  V30 3128 C 307.192 -2.02309 -0.456706 0
M  V30 3129 C 307.617 -1.07103 -1.5463 0
M  V30 3130 O 306.975 -0.0539677 -1.8122 0
M  V30 3131 C 307.023 -3.46654 -0.993159 0
M  V30 3132 O 306.127 -3.54559 -2.10622 0
M  V30 3133 H 305.468 -0.655303 -0.107114 0
M  V30 3134 H 307.998 -2.02364 0.301653 0
M  V30 3135 H 308.008 -3.86377 -1.31061 0
M  V30 3136 H 306.683 -4.1544 -0.195504 0
M  V30 3137 H 305.26 -3.26708 -1.79767 0
M  V30 3138 N 307.445 0.0818655 -1.57387 0
M  V30 3139 C 308.673 0.796108 -1.9097 0
M  V30 3140 C 309.088 1.71626 -0.786757 0
M  V30 3141 O 308.445 1.80908 0.240513 0
M  V30 3142 C 308.496 1.59829 -3.24248 0
M  V30 3143 O 308.217 0.715131 -4.32224 0
M  V30 3144 C 309.718 2.41442 -3.7178 0
M  V30 3145 H 306.938 0.22691 -0.631469 0
M  V30 3146 H 309.482 0.0551439 -2.04426 0
M  V30 3147 H 307.637 2.29163 -3.12351 0
M  V30 3148 H 308.051 1.27205 -5.08841 0
M  V30 3149 H 309.525 2.932 -4.67694 0
M  V30 3150 H 310.002 3.2051 -3.00283 0
M  V30 3151 H 310.608 1.77283 -3.86589 0
M  V30 3152 N 308.923 1.53595 0.353017 0
M  V30 3153 C 310.153 1.74058 1.11299 0
M  V30 3154 C 310.561 0.475205 1.83135 0
M  V30 3155 O 309.904 -0.562344 1.74881 0
M  V30 3156 C 309.966 2.85994 2.17825 0
M  V30 3157 C 309.63 4.25923 1.65647 0
M  V30 3158 C 310.627 5.07829 1.11383 0
M  V30 3159 C 308.312 4.72377 1.7078 0
M  V30 3160 C 310.306 6.34285 0.629439 0
M  V30 3161 C 307.993 5.98808 1.21953 0
M  V30 3162 C 308.991 6.79594 0.681265 0
M  V30 3163 O 308.679 8.03651 0.200248 0
M  V30 3164 H 308.411 0.585327 0.338183 0
M  V30 3165 H 310.965 2.01186 0.413927 0
M  V30 3166 H 309.195 2.54368 2.91262 0
M  V30 3167 H 310.884 2.94515 2.79313 0
M  V30 3168 H 311.65 4.73107 1.06746 0
M  V30 3169 H 307.529 4.0956 2.11617 0
M  V30 3170 H 311.073 6.97288 0.208636 0
M  V30 3171 H 306.97 6.33026 1.26287 0
M  V30 3172 H 307.738 8.1788 0.318416 0
M  V30 3173 N 310.401 -0.613514 1.45168 0
M  V30 3174 C 311.817 -0.933629 1.29443 0
M  V30 3175 C 312.017 -2.00028 0.243101 0
M  V30 3176 O 311.073 -2.49848 -0.364992 0
M  V30 3177 C 312.386 -1.38018 2.67155 0
M  V30 3178 C 313.934 -1.49471 2.75004 0
M  V30 3179 C 314.409 -1.97503 4.13227 0
M  V30 3180 N 315.9 -2.04746 4.15491 0
M  V30 3181 C 316.635 -2.43121 5.19307 0
M  V30 3182 N 316.131 -2.80506 6.33473 0
M  V30 3183 N 317.924 -2.43408 5.06664 0
M  V30 3184 H 310.075 0.0916097 2.12202 0
M  V30 3185 H 312.338 -0.0216655 0.947752 0
M  V30 3186 H 312.044 -0.670625 3.45247 0
M  V30 3187 H 311.918 -2.34784 2.95222 0
M  V30 3188 H 314.305 -2.19519 1.9722 0
M  V30 3189 H 314.386 -0.510342 2.50657 0
M  V30 3190 H 314.03 -1.28045 4.91495 0
M  V30 3191 H 313.96 -2.96843 4.34962 0
M  V30 3192 H 316.451 -1.78468 3.33103 0
M  V30 3193 H 316.764 -3.08652 7.08487 0
M  V30 3194 H 315.109 -2.78216 6.36884 0
M  V30 3195 H 318.3 -2.13604 4.16523 0
M  V30 3196 H 318.473 -2.72989 5.87691 0
M  V30 3197 N 311.879 -1.3236 -0.855495 0
M  V30 3198 C 313.125 -1.23054 -1.612 0
M  V30 3199 C 313.458 0.207404 -1.93089 0
M  V30 3200 O 312.733 1.14432 -1.57275 0
M  V30 3201 C 313.016 -2.08937 -2.93287 0
M  V30 3202 C 312.869 -3.61105 -2.68185 0
M  V30 3203 C 314.188 -1.94986 -3.94549 0
M  V30 3204 H 311.307 -0.448364 -0.584926 0
M  V30 3205 H 313.949 -1.62297 -0.987917 0
M  V30 3206 H 312.099 -1.75599 -3.46551 0
M  V30 3207 H 313.771 -4.04652 -2.21483 0
M  V30 3208 H 312.014 -3.83813 -2.02164 0
M  V30 3209 H 312.685 -4.16522 -3.62234 0
M  V30 3210 H 315.161 -2.24189 -3.5054 0
M  V30 3211 H 314.037 -2.57356 -4.84829 0
M  V30 3212 H 314.298 -0.917263 -4.3248 0
M  V30 3213 N 313.357 1.07166 -1.15556 0
M  V30 3214 C 314.603 1.80065 -0.932984 0
M  V30 3215 C 314.936 1.86586 0.53845 0
M  V30 3216 O 314.211 1.35098 1.39924 0
M  V30 3217 C 314.494 3.25022 -1.55025 0
M  V30 3218 C 314.347 3.26634 -3.09242 0
M  V30 3219 C 315.666 4.22341 -1.2376 0
M  V30 3220 H 312.785 0.653697 -0.340366 0
M  V30 3221 H 315.427 1.25389 -1.4275 0
M  V30 3222 H 313.577 3.71712 -1.12972 0
M  V30 3223 H 315.249 2.88173 -3.60214 0
M  V30 3224 H 313.492 2.65539 -3.43033 0
M  V30 3225 H 314.163 4.28854 -3.47546 0
M  V30 3226 H 316.639 3.8405 -1.60139 0
M  V30 3227 H 315.515 5.22053 -1.69564 0
M  V30 3228 H 315.776 4.41828 -0.154938 0
M  V30 3229 N 314.835 0.952656 1.25548 0
M  V30 3230 C 316.06 0.623025 1.97821 0
M  V30 3231 C 316.485 -0.7976 1.70352 0
M  V30 3232 O 315.843 -1.53905 0.958283 0
M  V30 3233 C 315.891 0.885532 3.49558 0
M  V30 3234 O 314.995 -0.0366641 4.12384 0
M  V30 3235 H 314.336 0.237082 0.620232 0
M  V30 3236 H 316.866 1.27871 1.59719 0
M  V30 3237 H 316.876 0.811009 3.99858 0
M  V30 3238 H 315.551 1.92094 3.6888 0
M  V30 3239 H 314.128 0.0898954 3.72792 0
M  V30 3240 N 316.313 -1.40141 0.720998 0
M  V30 3241 C 317.559 -2.01084 0.263231 0
M  V30 3242 C 317.892 -1.57052 -1.14229 0
M  V30 3243 O 317.167 -0.793027 -1.77599 0
M  V30 3244 C 317.45 -3.58401 0.349344 0
M  V30 3245 C 317.303 -4.12491 1.79363 0
M  V30 3246 C 318.622 -4.39231 -0.276351 0
M  V30 3247 H 315.741 -0.730572 0.0971228 0
M  V30 3248 H 318.383 -1.66543 0.914518 0
M  V30 3249 H 316.533 -3.87958 -0.205165 0
M  V30 3250 H 318.205 -3.93711 2.40394 0
M  V30 3251 H 316.448 -3.66576 2.31958 0
M  V30 3252 H 317.119 -5.21646 1.80524 0
M  V30 3253 H 319.595 -4.15637 0.196184 0
M  V30 3254 H 318.471 -5.48586 -0.185681 0
M  V30 3255 H 318.732 -4.20643 -1.36059 0
M  V30 3256 N 317.792 -0.46758 -1.50504 0
M  V30 3257 C 318.722 0.318381 -2.31319 0
M  V30 3258 C 319.703 0.993564 -1.38066 0
M  V30 3259 O 320.888 0.991411 -1.66987 0
M  V30 3260 C 318.018 1.40275 -3.17711 0
M  V30 3261 C 316.972 0.849373 -4.19487 0
M  V30 3262 C 316.298 2.03177 -4.94594 0
M  V30 3263 C 317.598 -0.136942 -5.2212 0
M  V30 3264 H 319.292 -0.356106 -2.97275 0
M  V30 3265 H 316.838 -0.172703 -1.42961 0
M  V30 3266 H 318.791 1.96004 -3.73042 0
M  V30 3267 H 317.515 2.10596 -2.49634 0
M  V30 3268 H 316.174 0.314076 -3.65252 0
M  V30 3269 H 315.822 2.72187 -4.22993 0
M  V30 3270 H 315.522 1.66774 -5.63436 0
M  V30 3271 H 317.046 2.59403 -5.52759 0
M  V30 3272 H 318.46 0.331056 -5.72343 0
M  V30 3273 H 316.857 -0.41507 -5.98663 0
M  V30 3274 H 317.927 -1.06398 -4.73083 0
M  V30 3275 N 319.27 1.56325 -0.20005 0
M  V30 3276 C 320.498 2.02105 0.442874 0
M  V30 3277 C 320.913 1.08014 1.5485 0
M  V30 3278 O 320.27 0.0858797 1.82298 0
M  V30 3279 C 320.321 3.47549 0.994583 0
M  V30 3280 O 320.042 4.38049 -0.0669322 0
M  V30 3281 C 321.543 4.0887 1.7129 0
M  V30 3282 H 318.763 0.661807 0.110691 0
M  V30 3283 H 321.307 2.02134 -0.310207 0
M  V30 3284 H 319.462 3.48204 1.69803 0
M  V30 3285 H 319.876 5.23368 0.344462 0
M  V30 3286 H 321.35 5.12475 2.05118 0
M  V30 3287 H 321.827 3.52615 2.61838 0
M  V30 3288 H 322.433 4.12002 1.05518 0
M  V30 3289 N 320.748 -0.0735177 1.57428 0
M  V30 3290 C 321.994 -0.774145 1.87443 0
M  V30 3291 C 322.327 -1.77311 0.792103 0
M  V30 3292 O 321.602 -1.93492 -0.197793 0
M  V30 3293 C 321.885 -1.48367 3.28115 0
M  V30 3294 C 321.738 -0.501227 4.46999 0
M  V30 3295 C 323.057 -2.429 3.66998 0
M  V30 3296 H 320.176 -0.279971 0.681752 0
M  V30 3297 H 322.818 -0.0373616 1.89963 0
M  V30 3298 H 320.968 -2.11171 3.26097 0
M  V30 3299 H 322.64 0.121468 4.6114 0
M  V30 3300 H 320.883 0.183593 4.33411 0
M  V30 3301 H 321.554 -1.03526 5.42205 0
M  V30 3302 H 324.03 -1.90175 3.70098 0
M  V30 3303 H 322.906 -2.89549 4.66318 0
M  V30 3304 H 323.167 -3.27628 2.96837 0
M  V30 3305 N 322.226 -1.5378 -0.344866 0
M  V30 3306 C 323.156 -1.84662 -1.42906 0
M  V30 3307 C 324.137 -0.701648 -1.54955 0
M  V30 3308 O 325.322 -0.953438 -1.69184 0
M  V30 3309 C 322.452 -2.05503 -2.79974 0
M  V30 3310 C 321.406 -3.21318 -2.82734 0
M  V30 3311 C 320.732 -3.2749 -4.22675 0
M  V30 3312 C 322.032 -4.59456 -2.48389 0
M  V30 3313 H 323.726 -2.75461 -1.17311 0
M  V30 3314 H 321.272 -1.32542 -0.562896 0
M  V30 3315 H 323.225 -2.25691 -3.55867 0
M  V30 3316 H 321.949 -1.11434 -3.07002 0
M  V30 3317 H 320.608 -3.00984 -2.09294 0
M  V30 3318 H 320.256 -2.31019 -4.4681 0
M  V30 3319 H 319.956 -4.05316 -4.25433 0
M  V30 3320 H 321.48 -3.49887 -5.00412 0
M  V30 3321 H 322.894 -4.79667 -3.13995 0
M  V30 3322 H 321.291 -5.39675 -2.62432 0
M  V30 3323 H 322.361 -4.63155 -1.4358 0
M  V30 3324 N 323.704 0.605807 -1.45491 0
M  V30 3325 C 324.654 1.71074 -1.50724 0
M  V30 3326 C 325.638 1.5658 -0.37033 0
M  V30 3327 O 326.83 1.65887 -0.617299 0
M  V30 3328 C 323.959 3.0983 -1.47852 0
M  V30 3329 C 323.045 3.29704 -2.66751 0
M  V30 3330 N 323.436 3.19831 -3.91844 0
M  V30 3331 C 321.734 3.60579 -2.62486 0
M  V30 3332 C 322.435 3.41083 -4.71208 0
M  V30 3333 N 321.411 3.65157 -4.02693 0
M  V30 3334 H 325.213 1.61937 -2.45263 0
M  V30 3335 H 322.727 0.80912 -1.40808 0
M  V30 3336 H 324.724 3.89101 -1.49686 0
M  V30 3337 H 323.384 3.20115 -0.543714 0
M  V30 3338 H 324.395 2.98194 -4.23439 0
M  V30 3339 H 321.072 3.7769 -1.77922 0
M  V30 3340 H 322.462 3.38828 -5.80211 0
M  V30 3341 N 325.182 1.32811 0.848464 0
M  V30 3342 C 326.114 1.18095 1.96433 0
M  V30 3343 C 327.127 0.114354 1.62398 0
M  V30 3344 O 328.316 0.363892 1.74751 0
M  V30 3345 C 325.416 0.786798 3.2964 0
M  V30 3346 C 324.589 1.943 3.91875 0
M  V30 3347 C 323.648 1.53138 5.03423 0
M  V30 3348 O 322.674 2.24432 5.23086 0
M  V30 3349 N 323.876 0.430915 5.78898 0
M  V30 3350 H 326.641 2.14218 2.09597 0
M  V30 3351 H 324.202 1.2543 1.02367 0
M  V30 3352 H 326.194 0.493715 4.01677 0
M  V30 3353 H 324.764 -0.0834541 3.12489 0
M  V30 3354 H 323.984 2.40224 3.12547 0
M  V30 3355 H 325.272 2.71689 4.30189 0
M  V30 3356 H 324.67 -0.162333 5.65467 0
M  V30 3357 H 323.227 0.197466 6.51501 0
M  V30 3358 N 326.66 -1.06551 1.16123 0
M  V30 3359 C 327.937 -1.76097 0.85142 0
M  V30 3360 C 328.317 -2.00802 -0.6513 0
M  V30 3361 O 327.665 -1.63302 -1.59827 0
M  V30 3362 C 327.875 -3.06384 1.67122 0
M  V30 3363 C 329.223 -3.80585 1.88255 0
M  V30 3364 O 330.247 -3.16218 1.63966 0
M  V30 3365 O 329.106 -4.96212 2.2899 0
M  V30 3366 H 326.2 -0.765102 0.313923 0
M  V30 3367 H 328.746 -1.12844 1.26745 0
M  V30 3368 H 327.518 -2.84071 2.69108 0
M  V30 3369 H 327.141 -3.77371 1.25206 0
M  V30 3370 N 328.138 -0.959301 -1.25041 0
M  V30 3371 C 329.384 -0.627096 -1.93492 0
M  V30 3372 C 329.739 0.827484 -1.73696 0
M  V30 3373 O 329.032 1.58651 -1.07427 0
M  V30 3374 C 329.226 -0.927136 -3.45165 0
M  V30 3375 C 329.055 -2.40933 -3.79712 0
M  V30 3376 C 327.825 -3.0677 -4.01522 0
M  V30 3377 C 330.023 -3.38894 -3.86853 0
M  V30 3378 N 328.005 -4.44815 -4.231 0
M  V30 3379 C 329.376 -4.62263 -4.13174 0
M  V30 3380 C 331.431 -3.33668 -3.69554 0
M  V30 3381 C 330.134 -5.81052 -4.23995 0
M  V30 3382 C 332.16 -4.518 -3.81616 0
M  V30 3383 C 331.522 -5.73957 -4.08354 0
M  V30 3384 H 327.621 -0.280166 -0.73009 0
M  V30 3385 H 330.205 -1.23244 -1.50729 0
M  V30 3386 H 328.376 -0.350685 -3.86814 0
M  V30 3387 H 330.108 -0.554361 -4.00885 0
M  V30 3388 H 326.863 -2.57327 -3.97593 0
M  V30 3389 H 327.287 -5.16319 -4.37885 0
M  V30 3390 H 331.929 -2.40268 -3.47895 0
M  V30 3391 H 329.647 -6.74888 -4.44468 0
M  V30 3392 H 333.233 -4.49309 -3.69612 0
M  V30 3393 H 332.113 -6.6384 -4.17475 0
M  V30 3394 N 329.616 1.39756 -0.72842 0
M  V30 3395 C 330.546 2.33289 -0.0991354 0
M  V30 3396 C 331.527 1.53568 0.731489 0
M  V30 3397 O 332.712 1.81987 0.677807 0
M  V30 3398 C 329.842 3.3763 0.813834 0
M  V30 3399 C 328.796 4.2791 0.0878663 0
M  V30 3400 C 328.122 5.22894 1.11741 0
M  V30 3401 C 329.422 5.11314 -1.06563 0
M  V30 3402 H 331.116 2.86163 -0.880408 0
M  V30 3403 H 328.662 1.37591 -0.424819 0
M  V30 3404 H 330.615 4.0201 1.26355 0
M  V30 3405 H 329.339 2.83181 1.62715 0
M  V30 3406 H 327.998 3.65 -0.342159 0
M  V30 3407 H 327.646 4.64744 1.92412 0
M  V30 3408 H 327.346 5.84143 0.636477 0
M  V30 3409 H 328.87 5.90151 1.56697 0
M  V30 3410 H 330.284 5.69076 -0.694671 0
M  V30 3411 H 328.681 5.81671 -1.47577 0
M  V30 3412 H 329.751 4.46534 -1.89038 0
M  V30 3413 N 331.094 0.475555 1.50254 0
M  V30 3414 C 332.042 -0.330276 2.30243 0
M  V30 3415 C 333.036 -0.986306 1.37726 0
M  V30 3416 O 334.242 -0.9169 1.54897 0
M  V30 3417 H 330.617 -0.125353 0.741479 0
M  V30 3418 H 332.588 0.364702 2.96163 0
M  V30 3419 C 331.337 -1.39704 3.18399 0
M  V30 3420 H 330.66 -0.901621 3.89501 0
M  V30 3421 H 332.1 -1.93336 3.77355 0
M  V30 3422 C 330.559 -2.4014 2.36293 0
M  V30 3423 O 331.089 -3.45504 2.04914 0
M  V30 3424 N 329.295 -2.1197 1.98789 0
M  V30 3425 H 328.842 -1.2631 2.24507 0
M  V30 3426 H 328.8 -2.79403 1.44157 0
M  V30 3427 N 332.573 -1.56217 0.208337 0
M  V30 3428 C 333.821 -1.97558 -0.426076 0
M  V30 3429 C 334.142 -1.09683 -1.61229 0
M  V30 3430 O 333.412 -0.170956 -1.95153 0
M  V30 3431 H 331.992 -0.729575 -0.160405 0
M  V30 3432 H 334.654 -1.92606 0.298155 0
M  V30 3433 H 333.75 -3.02672 -0.761312 0
M  V30 3434 N 334.051 0.0651679 -1.57465 0
M  V30 3435 C 334.998 1.07675 -2.04144 0
M  V30 3436 C 335.968 1.38071 -0.923335 0
M  V30 3437 O 337.153 1.49026 -1.19146 0
M  V30 3438 C 334.293 2.38337 -2.49579 0
M  V30 3439 C 333.406 2.14413 -3.75035 0
M  V30 3440 C 332.541 3.38686 -4.09225 0
M  V30 3441 C 331.58 3.10156 -5.27702 0
M  V30 3442 N 330.717 4.26778 -5.57499 0
M  V30 3443 H 335.557 0.671716 -2.90331 0
M  V30 3444 H 333.094 0.3201 -1.43575 0
M  V30 3445 H 335.052 3.14632 -2.73975 0
M  V30 3446 H 333.682 2.7663 -1.6636 0
M  V30 3447 H 332.734 1.2878 -3.57939 0
M  V30 3448 H 334.046 1.89344 -4.61466 0
M  V30 3449 H 333.2 4.23373 -4.34558 0
M  V30 3450 H 331.939 3.66837 -3.21374 0
M  V30 3451 H 330.944 2.23866 -5.02159 0
M  V30 3452 H 332.169 2.8332 -6.17176 0
M  V30 3453 H 330.115 4.54948 -4.72608 0
M  V30 3454 H 330.032 4.05005 -6.38362 0
M  V30 3455 H 331.3 5.12443 -5.87386 0
M  V30 3456 N 335.529 1.53961 0.336706 0
M  V30 3457 C 336.439 1.85432 1.43708 0
M  V30 3458 C 337.455 0.745053 1.57242 0
M  V30 3459 O 338.631 1.03804 1.72588 0
M  V30 3460 C 335.696 2.06349 2.78605 0
M  V30 3461 C 334.757 3.30191 2.74358 0
M  V30 3462 C 333.99 3.50101 4.02822 0
M  V30 3463 O 334.213 2.7371 5.00439 0
M  V30 3464 O 333.147 4.43547 4.06878 0
M  V30 3465 H 336.973 2.78975 1.20028 0
M  V30 3466 H 334.558 1.39701 0.52952 0
M  V30 3467 H 336.44 2.21513 3.58483 0
M  V30 3468 H 335.115 1.15995 3.02203 0
M  V30 3469 H 334.022 3.20425 1.93078 0
M  V30 3470 H 335.355 4.2056 2.55715 0
M  V30 3471 N 337.007 -0.598083 1.45811 0
M  V30 3472 C 338.237 -1.38121 1.53643 0
M  V30 3473 C 338.645 -1.88425 0.171081 0
M  V30 3474 O 337.988 -1.63409 -0.839237 0
M  V30 3475 C 338.05 -2.61432 2.46766 0
M  V30 3476 C 337.714 -2.32702 3.93318 0
M  V30 3477 C 338.711 -1.92479 4.82957 0
M  V30 3478 C 336.396 -2.45321 4.38318 0
M  V30 3479 C 338.39 -1.65248 6.15607 0
M  V30 3480 C 336.077 -2.17703 5.71007 0
M  V30 3481 C 337.075 -1.7773 6.5947 0
M  V30 3482 O 336.763 -1.50441 7.89698 0
M  V30 3483 H 336.495 -0.428863 0.522544 0
M  V30 3484 H 339.049 -0.73557 1.91777 0
M  V30 3485 H 337.279 -3.28749 2.0362 0
M  V30 3486 H 338.968 -3.23487 2.45175 0
M  V30 3487 H 339.734 -1.82258 4.49452 0
M  V30 3488 H 335.613 -2.75399 3.69697 0
M  V30 3489 H 339.157 -1.33973 6.84614 0
M  V30 3490 H 335.054 -2.27544 6.04065 0
M  V30 3491 H 335.822 -1.64415 8.01817 0
M  V30 3492 N 338.485 -1.33259 -0.841409 0
M  V30 3493 C 339.432 -1.23302 -1.95103 0
M  V30 3494 C 340.402 -0.112204 -1.65721 0
M  V30 3495 O 341.587 -0.290038 -1.88583 0
M  V30 3496 C 338.727 -0.975583 -3.31023 0
M  V30 3497 C 337.84 -2.18243 -3.72819 0
M  V30 3498 C 336.975 -1.85936 -4.97595 0
M  V30 3499 C 336.014 -3.02866 -5.3192 0
M  V30 3500 N 335.151 -2.70565 -6.47873 0
M  V30 3501 H 339.991 -2.18207 -2.02952 0
M  V30 3502 H 337.528 -1.0851 -0.993173 0
M  V30 3503 H 339.486 -0.80677 -4.09325 0
M  V30 3504 H 338.116 -0.0632755 -3.22738 0
M  V30 3505 H 337.168 -2.46107 -2.90061 0
M  V30 3506 H 338.48 -3.05666 -3.94169 0
M  V30 3507 H 337.634 -1.65684 -5.83638 0
M  V30 3508 H 336.373 -0.957452 -4.78209 0
M  V30 3509 H 335.378 -3.23736 -4.44382 0
M  V30 3510 H 336.603 -3.93809 -5.53255 0
M  V30 3511 H 334.549 -1.8293 -6.29978 0
M  V30 3512 H 334.466 -3.51519 -6.69306 0
M  V30 3513 H 335.734 -2.53774 -7.37034 0
M  V30 3514 N 339.963 1.05934 -1.16686 0
M  V30 3515 C 341.203 1.80382 -0.961345 0
M  V30 3516 C 341.567 1.85331 0.501643 0
M  V30 3517 O 342.768 2.55795 0.825986 0
M  V30 3518 C 341.039 3.20777 -1.57596 0
M  V30 3519 S 342.598 4.11795 -1.51559 0
M  V30 3520 H 339.416 0.621332 -0.345641 0
M  V30 3521 H 342.018 1.27157 -1.48497 0
M  V30 3522 H 340.722 3.14773 -2.63337 0
M  V30 3523 H 340.253 3.79078 -1.05182 0
M  V30 3524 H 342.268 4.93485 -0.518374 0
M  V30 3525 N 341.441 0.965919 1.2453 0
M  V30 3526 C 342.388 0.49402 2.25451 0
M  V30 3527 C 343.358 -0.45948 1.59618 0
M  V30 3528 O 344.543 -0.370238 1.87173 0
M  V30 3529 C 341.683 -0.211359 3.44452 0
M  V30 3530 C 340.796 0.7807 4.24887 0
M  V30 3531 C 339.931 0.0516105 5.31175 0
M  V30 3532 C 338.97 1.03385 6.03306 0
M  V30 3533 N 338.107 0.334887 7.01301 0
M  V30 3534 H 342.947 1.35946 2.65184 0
M  V30 3535 H 340.484 0.681515 1.3036 0
M  V30 3536 H 342.442 -0.637 4.12308 0
M  V30 3537 H 341.072 -1.04077 3.05562 0
M  V30 3538 H 340.124 1.32479 3.56586 0
M  V30 3539 H 341.436 1.52978 4.74762 0
M  V30 3540 H 340.59 -0.432114 6.05159 0
M  V30 3541 H 339.329 -0.730179 4.82203 0
M  V30 3542 H 338.334 1.52847 5.28127 0
M  V30 3543 H 339.559 1.81606 6.54367 0
M  V30 3544 H 337.505 -0.427959 6.54603 0
M  V30 3545 H 337.422 1.02287 7.49048 0
M  V30 3546 H 338.69 -0.126928 7.79397 0
M  V30 3547 N 342.919 -1.39368 0.735821 0
M  V30 3548 C 344.165 -2.00794 0.284544 0
M  V30 3549 C 344.498 -1.58255 -1.12557 0
M  V30 3550 O 343.773 -0.811819 -1.76748 0
M  V30 3551 C 344.056 -3.58011 0.387337 0
M  V30 3552 C 343.909 -4.10566 1.83728 0
M  V30 3553 C 345.228 -4.395 -0.22975 0
M  V30 3554 H 342.347 -0.729501 0.104866 0
M  V30 3555 H 344.989 -1.65564 0.93213 0
M  V30 3556 H 343.139 -3.88154 -0.164006 0
M  V30 3557 H 344.811 -3.91139 2.44556 0
M  V30 3558 H 343.054 -3.64095 2.35833 0
M  V30 3559 H 343.725 -5.19702 1.86047 0
M  V30 3560 H 346.201 -4.15406 0.240257 0
M  V30 3561 H 345.077 -5.48752 -0.127485 0
M  V30 3562 H 345.338 -4.22062 -1.3159 0
M  V30 3563 N 344.397 -0.483516 -1.5 0
M  V30 3564 C 345.622 0.0667119 -2.07293 0
M  V30 3565 C 346.047 1.3164 -1.3436 0
M  V30 3566 O 345.405 1.76945 -0.394987 0
M  V30 3567 C 345.453 0.321126 -3.59167 0
M  V30 3568 O 344.557 1.39927 -3.87936 0
M  V30 3569 H 343.898 -0.0184758 -0.663743 0
M  V30 3570 H 346.428 -0.678125 -1.93035 0
M  V30 3571 H 346.438 0.557906 -4.04168 0
M  V30 3572 H 345.113 -0.592007 -4.11665 0
M  V30 3573 H 343.69 1.14882 -3.54763 0
M  V30 3574 N 345.875 1.56104 -0.216619 0
M  V30 3575 C 346.823 2.21434 0.712036 0
M  V30 3576 C 347.817 1.19218 1.20348 0
M  V30 3577 O 349.023 1.3731 1.16387 0
M  V30 3578 H 345.398 0.70992 0.248026 0
M  V30 3579 H 347.369 2.98083 0.137558 0
M  V30 3580 C 346.118 2.90434 1.91163 0
M  V30 3581 H 345.441 3.68842 1.54258 0
M  V30 3582 H 346.881 3.39552 2.5393 0
M  V30 3583 C 345.34 1.92635 2.76394 0
M  V30 3584 O 345.87 1.44017 3.74996 0
M  V30 3585 N 344.076 1.60392 2.42328 0
M  V30 3586 H 343.623 2.00122 1.622 0
M  V30 3587 H 343.581 0.952159 2.99635 0
M  V30 3588 N 347.353 -0.0568162 1.57498 0
M  V30 3589 C 348.3 -1.06591 2.04712 0
M  V30 3590 C 349.27 -1.3758 0.930644 0
M  V30 3591 O 350.455 -1.48392 1.19935 0
M  V30 3592 C 347.595 -2.3701 2.50839 0
M  V30 3593 C 346.708 -2.12421 3.76167 0
M  V30 3594 C 345.843 -3.36511 4.11015 0
M  V30 3595 C 344.882 -3.07353 5.2934 0
M  V30 3596 N 344.019 -4.23816 5.59754 0
M  V30 3597 H 348.859 -0.65631 2.90683 0
M  V30 3598 H 346.396 -0.312481 1.43743 0
M  V30 3599 H 348.354 -3.13175 2.7564 0
M  V30 3600 H 346.984 -2.75744 1.67825 0
M  V30 3601 H 346.036 -1.2688 3.58616 0
M  V30 3602 H 347.348 -1.86894 4.62463 0
M  V30 3603 H 346.502 -4.21062 4.36797 0
M  V30 3604 H 345.241 -3.65128 3.23315 0
M  V30 3605 H 344.246 -2.212 5.03339 0
M  V30 3606 H 345.471 -2.80043 6.1867 0
M  V30 3607 H 343.417 -4.52436 4.75014 0
M  V30 3608 H 343.334 -4.01614 6.40501 0
M  V30 3609 H 344.602 -5.0932 5.90096 0
M  V30 3610 N 348.832 -1.54138 -0.328536 0
M  V30 3611 C 349.795 -1.82462 -1.38709 0
M  V30 3612 C 350.795 -0.696229 -1.44946 0
M  V30 3613 O 351.985 -0.964535 -1.4506 0
M  V30 3614 C 349.117 -1.98018 -2.77492 0
M  V30 3615 H 350.31 -2.77037 -1.14851 0
M  V30 3616 H 347.863 -1.45779 -0.563751 0
M  V30 3617 H 348.598 -1.05637 -3.06613 0
M  V30 3618 H 348.383 -2.80124 -2.74359 0
M  V30 3619 H 349.873 -2.21396 -3.54081 0
M  V30 3620 N 350.31 0.590341 -1.46126 0
M  V30 3621 C 351.24 1.71032 -1.58966 0
M  V30 3622 C 352.221 1.64302 -0.440335 0
M  V30 3623 O 353.406 1.82436 -0.665634 0
M  V30 3624 C 350.536 3.09665 -1.57241 0
M  V30 3625 C 349.49 3.31221 -2.71066 0
M  V30 3626 C 348.816 4.70303 -2.54399 0
M  V30 3627 C 350.116 3.19796 -4.1295 0
M  V30 3628 H 351.81 1.60543 -2.52718 0
M  V30 3629 H 349.356 0.770933 -1.21625 0
M  V30 3630 H 351.309 3.87831 -1.64819 0
M  V30 3631 H 350.033 3.21036 -0.600289 0
M  V30 3632 H 348.692 2.55452 -2.62944 0
M  V30 3633 H 348.34 4.78429 -1.55288 0
M  V30 3634 H 348.04 4.85679 -3.30741 0
M  V30 3635 H 349.564 5.50647 -2.63857 0
M  V30 3636 H 350.978 3.87815 -4.22223 0
M  V30 3637 H 349.375 3.46696 -4.89818 0
M  V30 3638 H 350.445 2.16983 -4.33643 0
M  V30 3639 N 351.788 1.33704 0.83433 0
M  V30 3640 C 353.199 1.22813 1.4062 0
M  V30 3641 C 353.55 -0.151107 1.95617 0
M  V30 3642 O 352.675 -1.05092 1.89168 0
M  V30 3643 C 353.27 2.22355 2.55624 0
M  V30 3644 C 351.829 2.1529 3.08751 0
M  V30 3645 C 350.976 2.09589 1.8157 0
M  V30 3646 H 353.927 1.45236 0.639702 0
M  V30 3647 H 353.948 1.83391 3.33389 0
M  V30 3648 H 353.46 3.22728 2.15566 0
M  V30 3649 H 351.561 1.18235 3.53343 0
M  V30 3650 H 351.674 3.06038 3.68616 0
M  V30 3651 H 350.038 1.55134 2.02004 0
M  V30 3652 H 350.821 3.11777 1.43701 0
M  V30 3653 N 353.266 -1.05314 1.17247 0
M  V30 3654 C 354.229 -2.112 0.890357 0
M  V30 3655 C 355.229 -1.60359 -0.118943 0
M  V30 3656 O 356.419 -1.73833 0.113086 0
M  V30 3657 C 353.551 -3.39266 0.333422 0
M  V30 3658 H 354.744 -2.37659 1.82916 0
M  V30 3659 H 352.297 -1.21538 0.982758 0
M  V30 3660 H 353.032 -3.18462 -0.612587 0
M  V30 3661 H 352.817 -3.77477 1.06082 0
M  V30 3662 H 354.307 -4.17315 0.154322 0
M  V30 3663 N 354.744 -0.972509 -1.24016 0
M  V30 3664 C 356.155 -0.67517 -1.74064 0
M  V30 3665 C 356.506 0.808939 -1.78747 0
M  V30 3666 O 355.631 1.63286 -1.42009 0
M  V30 3667 C 356.226 -1.21889 -3.16115 0
M  V30 3668 C 354.785 -0.971358 -3.6365 0
M  V30 3669 C 353.932 -1.35134 -2.42145 0
M  V30 3670 H 356.883 -1.14727 -1.09651 0
M  V30 3671 H 356.904 -0.587489 -3.75937 0
M  V30 3672 H 356.416 -2.29906 -3.12674 0
M  V30 3673 H 354.517 0.0930686 -3.72484 0
M  V30 3674 H 354.63 -1.62039 -4.50866 0
M  V30 3675 H 352.994 -0.769751 -2.4279 0
M  V30 3676 H 353.777 -2.4411 -2.41381 0
M  V30 3677 N 356.222 1.38976 -0.743202 0
M  V30 3678 C 357.471 1.99581 -0.291592 0
M  V30 3679 C 357.784 1.59656 1.13001 0
M  V30 3680 O 358.99 2.13157 1.68156 0
M  V30 3681 C 357.446 3.56813 -0.470391 0
M  V30 3682 C 357.054 4.05695 -1.90041 0
M  V30 3683 C 358.798 4.24423 -0.0809709 0
M  V30 3684 C 356.705 5.5553 -2.02832 0
M  V30 3685 H 355.635 0.746615 -0.105272 0
M  V30 3686 H 358.286 1.58872 -0.918258 0
M  V30 3687 H 356.668 3.95359 0.225299 0
M  V30 3688 H 357.842 3.78464 -2.62872 0
M  V30 3689 H 356.157 3.50775 -2.24379 0
M  V30 3690 H 358.754 5.34474 -0.155445 0
M  V30 3691 H 359.097 4.04962 0.96497 0
M  V30 3692 H 359.63 3.9108 -0.728124 0
M  V30 3693 H 356.369 5.79881 -3.05643 0
M  V30 3694 H 355.889 5.84537 -1.34448 0
M  V30 3695 H 357.568 6.21069 -1.81335 0
M  V30 3696 N 357.7 0.491464 1.49741 0
M  V30 3697 C 358.61 -0.296835 2.32715 0
M  V30 3698 C 359.626 -0.976536 1.44013 0
M  V30 3699 O 360.802 -0.960023 1.77047 0
M  V30 3700 C 357.867 -1.35288 3.19215 0
M  V30 3701 C 356.928 -0.687632 4.23757 0
M  V30 3702 C 356.161 -1.69336 5.06123 0
M  V30 3703 O 356.384 -2.92219 4.89861 0
M  V30 3704 O 355.318 -1.25394 5.88693 0
M  V30 3705 H 359.144 0.382048 3.01287 0
M  V30 3706 H 356.729 0.252953 1.47243 0
M  V30 3707 H 358.611 -1.96411 3.72828 0
M  V30 3708 H 357.286 -2.01487 2.53347 0
M  V30 3709 H 356.193 -0.0369159 3.74082 0
M  V30 3710 H 357.526 -0.0682566 4.92153 0
M  V30 3711 N 359.178 -1.55987 0.224894 0
M  V30 3712 C 360.125 -2.20436 -0.68385 0
M  V30 3713 C 361.095 -1.16102 -1.18783 0
M  V30 3714 O 362.28 -1.4447 -1.24632 0
M  V30 3715 C 359.42 -2.89076 -1.88491 0
M  V30 3716 C 358.533 -4.08012 -1.41951 0
M  V30 3717 C 357.668 -4.64426 -2.5784 0
M  V30 3718 C 356.707 -5.75656 -2.08053 0
M  V30 3719 N 355.844 -6.26347 -3.17227 0
M  V30 3720 H 360.684 -2.97727 -0.12754 0
M  V30 3721 H 358.221 -1.47011 -0.0511978 0
M  V30 3722 H 360.179 -3.27059 -2.59014 0
M  V30 3723 H 358.809 -2.14298 -2.41405 0
M  V30 3724 H 357.861 -3.75492 -0.609095 0
M  V30 3725 H 359.173 -4.88375 -1.01447 0
M  V30 3726 H 358.327 -5.04869 -3.3644 0
M  V30 3727 H 357.066 -3.83233 -3.01635 0
M  V30 3728 H 356.071 -5.34712 -1.27916 0
M  V30 3729 H 357.296 -6.58686 -1.65255 0
M  V30 3730 H 355.242 -5.48067 -3.60497 0
M  V30 3731 H 355.159 -7.01843 -2.80986 0
M  V30 3732 H 356.427 -6.71447 -3.95953 0
M  V30 3733 N 360.656 0.0484629 -1.57525 0
M  V30 3734 C 361.884 0.755421 -1.92616 0
M  V30 3735 C 362.299 1.69919 -0.822984 0
M  V30 3736 O 361.656 1.81378 0.202085 0
M  V30 3737 C 361.707 1.52915 -3.27566 0
M  V30 3738 O 361.428 0.62329 -4.33644 0
M  V30 3739 C 362.929 2.33502 -3.76818 0
M  V30 3740 H 360.149 0.213465 -0.63614 0
M  V30 3741 H 362.693 0.0117698 -2.04497 0
M  V30 3742 H 360.848 2.22486 -3.17142 0
M  V30 3743 H 361.262 1.16383 -5.11425 0
M  V30 3744 H 362.736 2.83214 -4.73808 0
M  V30 3745 H 363.213 3.14068 -3.07014 0
M  V30 3746 H 363.819 1.69043 -3.90262 0
M  V30 3747 N 362.134 1.5431 0.320358 0
M  V30 3748 C 363.383 1.7188 1.05546 0
M  V30 3749 C 363.696 0.501143 1.89071 0
M  V30 3750 O 364.902 0.558258 2.65699 0
M  V30 3751 C 363.358 3.04025 1.92605 0
M  V30 3752 C 362.966 4.33207 1.14176 0
M  V30 3753 C 364.71 3.30959 2.65832 0
M  V30 3754 C 362.617 5.56412 2.00399 0
M  V30 3755 H 361.547 0.640547 0.397763 0
M  V30 3756 H 364.198 1.80802 0.313522 0
M  V30 3757 H 362.58 2.89019 2.7071 0
M  V30 3758 H 363.754 4.58989 0.40819 0
M  V30 3759 H 362.069 4.13062 0.526165 0
M  V30 3760 H 364.666 4.20203 3.30656 0
M  V30 3761 H 365.009 2.48979 3.33639 0
M  V30 3762 H 365.542 3.46847 1.94787 0
M  V30 3763 H 362.281 6.41004 1.37094 0
M  V30 3764 H 361.801 5.34844 2.7148 0
M  V30 3765 H 363.48 5.92938 2.58908 0
M  V30 3766 N 363.613 -0.582584 1.46437 0
M  V30 3767 C 364.838 -1.37168 1.55563 0
M  V30 3768 C 365.263 -1.87061 0.19743 0
M  V30 3769 O 364.621 -1.61572 -0.822451 0
M  V30 3770 C 364.669 -2.53511 2.56446 0
M  V30 3771 O 363.773 -3.54953 2.09958 0
M  V30 3772 H 363.114 -0.408494 0.523477 0
M  V30 3773 H 365.644 -0.706646 1.9201 0
M  V30 3774 H 365.654 -3.00426 2.76058 0
M  V30 3775 H 364.329 -2.16549 3.55076 0
M  V30 3776 H 362.906 -3.14516 2.00334 0
M  V30 3777 N 365.091 -1.34144 -0.827227 0
M  V30 3778 C 366.038 -1.25364 -1.93785 0
M  V30 3779 C 367.008 -0.129774 -1.65592 0
M  V30 3780 O 368.193 -0.310024 -1.88264 0
M  V30 3781 C 365.333 -1.01064 -3.2997 0
M  V30 3782 C 364.446 -2.22185 -3.70484 0
M  V30 3783 C 363.581 -1.91203 -4.95595 0
M  V30 3784 C 362.62 -3.08491 -5.28677 0
M  V30 3785 N 361.757 -2.77421 -6.44967 0
M  V30 3786 H 366.597 -2.20347 -2.00627 0
M  V30 3787 H 364.134 -1.09558 -0.981608 0
M  V30 3788 H 366.092 -0.850139 -4.08446 0
M  V30 3789 H 364.722 -0.0975026 -3.22653 0
M  V30 3790 H 363.774 -2.4917 -2.87434 0
M  V30 3791 H 365.086 -3.0983 -3.90905 0
M  V30 3792 H 364.24 -1.71864 -5.81848 0
M  V30 3793 H 362.979 -1.00812 -4.77167 0
M  V30 3794 H 361.984 -3.28431 -4.40923 0
M  V30 3795 H 363.209 -3.99655 -5.49047 0
M  V30 3796 H 361.155 -1.89601 -6.28003 0
M  V30 3797 H 361.072 -3.58598 -6.6554 0
M  V30 3798 H 362.34 -2.61577 -7.34301 0
M  V30 3799 N 366.569 1.04691 -1.17803 0
M  V30 3800 C 367.532 2.10724 -0.901545 0
M  V30 3801 C 368.532 1.6042 0.110437 0
M  V30 3802 O 369.722 1.7377 -0.122303 0
M  V30 3803 C 366.854 3.39084 -0.351409 0
M  V30 3804 H 368.047 2.36686 -1.84174 0
M  V30 3805 H 365.6 1.21015 -0.98919 0
M  V30 3806 H 366.335 3.18782 0.59569 0
M  V30 3807 H 366.12 3.76909 -1.08083 0
M  V30 3808 H 367.61 4.17227 -0.176451 0
M  V30 3809 N 368.047 0.979072 1.23499 0
M  V30 3810 C 368.994 0.517904 2.24914 0
M  V30 3811 C 369.964 -0.442525 1.60097 0
M  V30 3812 O 371.149 -0.350365 1.87556 0
M  V30 3813 C 368.289 -0.174813 3.44657 0
M  V30 3814 C 367.402 0.825721 4.24035 0
M  V30 3815 C 366.537 0.107946 5.3109 0
M  V30 3816 C 365.576 1.09778 6.02175 0
M  V30 3817 N 364.713 0.40925 7.00906 0
M  V30 3818 H 369.553 1.38751 2.63727 0
M  V30 3819 H 367.09 0.695303 1.2963 0
M  V30 3820 H 369.048 -0.593233 4.12961 0
M  V30 3821 H 367.678 -1.0083 3.06648 0
M  V30 3822 H 366.73 1.36253 3.55161 0
M  V30 3823 H 368.042 1.58005 4.73113 0
M  V30 3824 H 367.196 -0.367904 6.05583 0
M  V30 3825 H 365.935 -0.678994 4.8295 0
M  V30 3826 H 364.94 1.5844 5.26476 0
M  V30 3827 H 366.165 1.88536 6.52404 0
M  V30 3828 H 364.111 -0.358506 6.5502 0
M  V30 3829 H 364.028 1.10226 7.47921 0
M  V30 3830 H 365.296 -0.0442557 7.79487 0
M  V30 3831 N 369.525 -1.3858 0.750561 0
M  V30 3832 C 370.773 -1.99789 0.30477 0
M  V30 3833 C 371.094 -1.59874 -1.11649 0
M  V30 3834 O 370.364 -0.85417 -1.76297 0
M  V30 3835 H 368.944 -0.738902 0.109694 0
M  V30 3836 H 371.606 -1.69391 0.963983 0
M  V30 3837 H 370.702 -3.09952 0.365499 0
M  V30 3838 N 371.003 -0.499398 -1.49478 0
M  V30 3839 C 371.935 0.316575 -2.27003 0
M  V30 3840 C 372.948 0.932047 -1.33479 0
M  V30 3841 O 374.137 0.815658 -1.58774 0
M  V30 3842 C 371.237 1.46055 -3.05812 0
M  V30 3843 C 370.41 0.952679 -4.26899 0
M  V30 3844 C 369.469 1.97407 -4.87767 0
M  V30 3845 O 368.495 1.54326 -5.4788 0
M  V30 3846 N 369.697 3.30436 -4.77276 0
M  V30 3847 H 372.462 -0.348168 -2.97671 0
M  V30 3848 H 370.023 -0.33185 -1.58463 0
M  V30 3849 H 372.015 2.14135 -3.43407 0
M  V30 3850 H 370.585 2.02948 -2.37762 0
M  V30 3851 H 369.805 0.0968248 -3.94081 0
M  V30 3852 H 371.093 0.59174 -5.05347 0
M  V30 3853 H 370.491 3.68126 -4.29534 0
M  V30 3854 H 369.048 3.94235 -5.19059 0
M  V30 3855 N 372.481 1.55866 -0.233164 0
M  V30 3856 C 373.892 1.847 0.272554 0
M  V30 3857 C 374.243 1.15477 1.58617 0
M  V30 3858 O 373.368 0.42841 2.12117 0
M  V30 3859 C 373.963 3.35071 0.501299 0
M  V30 3860 C 372.522 3.6418 0.951304 0
M  V30 3861 C 371.669 2.77292 0.0208209 0
M  V30 3862 H 374.62 1.52005 -0.456074 0
M  V30 3863 H 374.641 3.55906 1.34577 0
M  V30 3864 H 374.153 3.85424 -0.454936 0
M  V30 3865 H 372.254 3.19293 1.92049 0
M  V30 3866 H 372.367 4.72071 0.817675 0
M  V30 3867 H 370.731 2.49131 0.529723 0
M  V30 3868 H 371.514 3.30448 -0.93054 0
M  V30 3869 N 373.959 -0.0401083 1.57549 0
M  V30 3870 C 375.375 -0.395556 1.54621 0
M  V30 3871 C 375.575 -1.77281 0.957799 0
M  V30 3872 O 374.631 -2.45888 0.574031 0
M  V30 3873 C 375.944 -0.307535 2.99123 0
M  V30 3874 C 377.492 -0.385425 3.10618 0
M  V30 3875 C 377.967 -0.326973 4.56831 0
M  V30 3876 N 379.458 -0.386102 4.61588 0
M  V30 3877 C 380.193 -0.363591 5.72246 0
M  V30 3878 N 379.689 -0.29402 6.92176 0
M  V30 3879 N 381.482 -0.412503 5.60584 0
M  V30 3880 H 373.633 0.861325 1.94152 0
M  V30 3881 H 375.896 0.326445 0.890021 0
M  V30 3882 H 375.602 0.638461 3.45856 0
M  V30 3883 H 375.476 -1.10552 3.60636 0
M  V30 3884 H 377.863 -1.32185 2.63839 0
M  V30 3885 H 377.944 0.44171 2.51957 0
M  V30 3886 H 377.588 0.605738 5.04275 0
M  V30 3887 H 377.518 -1.17207 5.13391 0
M  V30 3888 H 380.009 -0.442832 3.75296 0
M  V30 3889 H 380.322 -0.28164 7.72287 0
M  V30 3890 H 378.667 -0.260232 6.94513 0
M  V30 3891 H 381.858 -0.464769 4.65787 0
M  V30 3892 H 382.031 -0.391492 6.46816 0
M  V30 3893 N 375.437 -1.54477 -0.31217 0
M  V30 3894 C 376.347 -1.87695 -1.4074 0
M  V30 3895 C 377.363 -0.769975 -1.56036 0
M  V30 3896 O 378.539 -1.06537 -1.70915 0
M  V30 3897 C 375.604 -2.10755 -2.75287 0
M  V30 3898 C 374.665 -3.34514 -2.69071 0
M  V30 3899 C 373.898 -3.56465 -3.97201 0
M  V30 3900 O 374.121 -2.81637 -4.96021 0
M  V30 3901 O 373.055 -4.49964 -3.9977 0
M  V30 3902 H 376.881 -2.80849 -1.15574 0
M  V30 3903 H 374.466 -1.40526 -0.507228 0
M  V30 3904 H 376.348 -2.27188 -3.54913 0
M  V30 3905 H 375.023 -1.20788 -3.0032 0
M  V30 3906 H 373.93 -3.23456 -1.87955 0
M  V30 3907 H 375.263 -4.24575 -2.48992 0
M  V30 3908 N 376.915 0.57481 -1.46744 0
M  V30 3909 C 378.326 1.15695 -1.46532 0
M  V30 3910 C 378.677 1.95068 -0.210425 0
M  V30 3911 O 377.802 2.05241 0.685944 0
M  V30 3912 C 378.397 2.1048 -2.65487 0
M  V30 3913 C 376.956 2.64002 -2.68291 0
M  V30 3914 C 376.103 1.40026 -2.39349 0
M  V30 3915 H 379.054 0.362325 -1.54509 0
M  V30 3916 H 379.075 2.94074 -2.41455 0
M  V30 3917 H 378.587 1.52683 -3.56805 0
M  V30 3918 H 376.688 3.25646 -1.81067 0
M  V30 3919 H 376.801 3.06197 -3.68483 0
M  V30 3920 H 375.165 1.70106 -1.89568 0
M  V30 3921 H 375.948 0.840485 -3.32852 0
M  V30 3922 N 378.394 1.34581 0.820102 0
M  V30 3923 C 379.326 1.22236 1.93884 0
M  V30 3924 C 380.339 0.148776 1.62119 0
M  V30 3925 O 381.528 0.400877 1.7394 0
M  V30 3926 C 378.628 0.856542 3.27897 0
M  V30 3927 C 377.801 2.02569 3.87666 0
M  V30 3928 C 376.86 1.63782 5.00062 0
M  V30 3929 O 375.886 2.35477 5.18208 0
M  V30 3930 N 377.088 0.553611 5.77854 0
M  V30 3931 H 379.853 2.18615 2.05006 0
M  V30 3932 H 377.414 1.27573 0.99683 0
M  V30 3933 H 379.406 0.578806 4.0054 0
M  V30 3934 H 377.976 -0.0171518 3.12595 0
M  V30 3935 H 377.196 2.468 3.07382 0
M  V30 3936 H 378.484 2.80752 4.24329 0
M  V30 3937 H 377.882 -0.0423528 5.65684 0
M  V30 3938 H 376.439 0.335614 6.50935 0
M  V30 3939 N 379.872 -1.04064 1.18357 0
M  V30 3940 C 381.118 -1.77528 0.980397 0
M  V30 3941 C 381.451 -1.87948 -0.48879 0
M  V30 3942 O 380.726 -1.3876 -1.36293 0
M  V30 3943 C 381.009 -3.20797 1.63588 0
M  V30 3944 C 380.862 -3.1832 3.17793 0
M  V30 3945 C 382.181 -4.18911 1.34914 0
M  V30 3946 H 379.3 -0.644443 0.357578 0
M  V30 3947 H 381.942 -1.2156 1.46024 0
M  V30 3948 H 380.092 -3.68586 1.22788 0
M  V30 3949 H 381.764 -2.78521 3.67728 0
M  V30 3950 H 380.007 -2.56351 3.49952 0
M  V30 3951 H 380.678 -4.19489 3.58794 0
M  V30 3952 H 383.154 -3.7967 1.70265 0
M  V30 3953 H 382.03 -5.17374 1.83346 0
M  V30 3954 H 382.291 -4.41262 0.272027 0
M  V30 3955 N 381.35 -0.985608 -1.22978 0
M  V30 3956 C 382.58 -0.674603 -1.95276 0
M  V30 3957 C 382.988 0.763483 -1.73111 0
M  V30 3958 O 382.331 1.52601 -1.02268 0
M  V30 3959 C 382.393 -0.891597 -3.48268 0
M  V30 3960 C 382.057 -2.31275 -3.94158 0
M  V30 3961 C 383.054 -3.29179 -4.02415 0
M  V30 3962 C 380.739 -2.64524 -4.27004 0
M  V30 3963 C 382.733 -4.58407 -4.42879 0
M  V30 3964 C 380.42 -3.93974 -4.67149 0
M  V30 3965 C 381.418 -4.90727 -4.75053 0
M  V30 3966 O 381.106 -6.17865 -5.14294 0
M  V30 3967 H 380.838 -0.249251 -0.628371 0
M  V30 3968 H 383.392 -1.32106 -1.5728 0
M  V30 3969 H 381.622 -0.187962 -3.86243 0
M  V30 3970 H 383.311 -0.576957 -4.01779 0
M  V30 3971 H 384.077 -3.04823 -3.77237 0
M  V30 3972 H 379.956 -1.89923 -4.2006 0
M  V30 3973 H 383.5 -5.33926 -4.48964 0
M  V30 3974 H 379.397 -4.18122 -4.91777 0
M  V30 3975 H 380.165 -6.21694 -5.32389 0
M  V30 3976 N 382.828 1.3818 -0.7579 0
M  V30 3977 C 384.056 2.04301 -0.326937 0
M  V30 3978 C 384.471 1.57163 1.0462 0
M  V30 3979 O 383.828 0.746626 1.66529 0
M  V30 3980 C 383.879 3.59846 -0.345363 0
M  V30 3981 O 383.6 4.05256 -1.66432 0
M  V30 3982 C 385.101 4.4319 0.098927 0
M  V30 3983 H 382.321 0.656443 -0.139012 0
M  V30 3984 H 384.865 1.76786 -1.02796 0
M  V30 3985 H 383.02 3.86182 0.306955 0
M  V30 3986 H 383.434 4.99709 -1.59345 0
M  V30 3987 H 384.908 5.51989 0.0348745 0
M  V30 3988 H 385.385 4.23947 1.14741 0
M  V30 3989 H 385.991 4.22051 -0.52468 0
M  V30 3990 N 384.306 0.507319 1.49211 0
M  V30 3991 C 385.236 -0.256939 2.32082 0
M  V30 3992 C 386.217 -0.956609 1.40652 0
M  V30 3993 O 387.402 -0.946788 1.69557 0
M  V30 3994 C 384.532 -1.31802 3.21318 0
M  V30 3995 C 383.486 -0.737855 4.21592 0
M  V30 3996 C 382.812 -1.89992 4.99807 0
M  V30 3997 C 384.112 0.275325 5.21574 0
M  V30 3998 H 385.806 0.434798 2.96226 0
M  V30 3999 H 383.352 0.210546 1.42452 0
M  V30 4000 H 385.305 -1.86045 3.78107 0
M  V30 4001 H 384.029 -2.03903 2.5513 0
M  V30 4002 H 382.688 -0.217126 3.65956 0
M  V30 4003 H 382.336 -2.60877 4.30061 0
M  V30 4004 H 382.036 -1.51777 5.6766 0
M  V30 4005 H 383.56 -2.44657 5.59442 0
M  V30 4006 H 384.974 -0.179193 5.7302 0
M  V30 4007 H 383.371 0.573649 5.97352 0
M  V30 4008 H 384.441 1.18903 4.70096 0
M  V30 4009 N 385.784 -1.5574 0.241426 0
M  V30 4010 C 387.195 -1.84842 -0.262755 0
M  V30 4011 C 387.546 -1.16317 -1.58003 0
M  V30 4012 O 386.671 -0.439653 -2.11887 0
M  V30 4013 C 387.266 -3.35332 -0.483523 0
M  V30 4014 C 385.825 -3.6468 -0.931977 0
M  V30 4015 C 384.972 -2.77299 -0.0061151 0
M  V30 4016 H 387.923 -1.51761 0.464129 0
M  V30 4017 H 387.944 -3.56615 -1.32688 0
M  V30 4018 H 387.456 -3.85178 0.47537 0
M  V30 4019 H 385.557 -3.20307 -1.90353 0
M  V30 4020 H 385.67 -4.72498 -0.792628 0
M  V30 4021 H 384.034 -2.49408 -0.516503 0
M  V30 4022 H 384.817 -3.2995 0.948052 0
M  V30 4023 N 387.262 0.0317525 -1.57568 0
M  V30 4024 C 388.673 0.578692 -1.77505 0
M  V30 4025 C 389.024 1.75749 -0.872164 0
M  V30 4026 O 388.149 2.16298 -0.0663106 0
M  V30 4027 C 388.744 1.05658 -3.21904 0
M  V30 4028 C 387.303 1.54906 -3.43047 0
M  V30 4029 C 386.45 0.485939 -2.73009 0
M  V30 4030 H 389.401 -0.194475 -1.57504 0
M  V30 4031 H 389.422 1.92404 -3.28269 0
M  V30 4032 H 388.934 0.198422 -3.87592 0
M  V30 4033 H 387.035 2.42915 -2.82529 0
M  V30 4034 H 387.148 1.59841 -4.5165 0
M  V30 4035 H 385.512 0.940354 -2.36705 0
M  V30 4036 H 386.295 -0.362709 -3.41379 0
M  V30 4037 N 388.74 1.54641 0.303973 0
M  V30 4038 C 389.965 1.78092 1.06292 0
M  V30 4039 C 390.39 0.537342 1.80262 0
M  V30 4040 O 389.748 -0.511993 1.7392 0
M  V30 4041 C 389.796 2.98612 2.02147 0
M  V30 4042 O 388.9 2.71528 3.10397 0
M  V30 4043 H 388.241 0.589548 0.305497 0
M  V30 4044 H 390.771 2.01716 0.3423 0
M  V30 4045 H 390.781 3.265 2.44667 0
M  V30 4046 H 389.456 3.88785 1.47714 0
M  V30 4047 H 388.033 2.54648 2.72413 0
M  V30 4048 N 390.218 -0.567019 1.47046 0
M  V30 4049 C 391.634 -0.891975 1.32348 0
M  V30 4050 C 391.834 -1.99154 0.306616 0
M  V30 4051 O 390.89 -2.50883 -0.28532 0
M  V30 4052 C 392.203 -1.29449 2.7141 0
M  V30 4053 C 393.751 -1.40646 2.79621 0
M  V30 4054 C 394.226 -1.84257 4.19301 0
M  V30 4055 N 395.717 -1.91424 4.21795 0
M  V30 4056 C 396.452 -2.26476 5.26779 0
M  V30 4057 N 395.948 -2.60211 6.42077 0
M  V30 4058 N 397.741 -2.27166 5.14152 0
M  V30 4059 H 389.892 0.159074 2.11803 0
M  V30 4060 H 392.155 0.00849752 0.947962 0
M  V30 4061 H 391.861 -0.560448 3.47206 0
M  V30 4062 H 391.735 -2.25273 3.02542 0
M  V30 4063 H 394.122 -2.13133 2.04104 0
M  V30 4064 H 394.203 -0.430339 2.52154 0
M  V30 4065 H 393.847 -1.12343 4.95319 0
M  V30 4066 H 393.777 -2.82855 4.44185 0
M  V30 4067 H 396.268 -1.6778 3.38612 0
M  V30 4068 H 396.581 -2.85956 7.17948 0
M  V30 4069 H 394.926 -2.57813 6.45413 0
M  V30 4070 H 398.117 -2.00244 4.23107 0
M  V30 4071 H 398.29 -2.54154 5.96079 0
M  V30 4072 N 391.696 -1.35014 -0.812953 0
M  V30 4073 C 392.973 -1.18502 -1.55617 0
M  V30 4074 C 393.353 0.238421 -2.09749 0
M  V30 4075 O 392.701 1.2411 -1.91857 0
M  V30 4076 C 392.911 -2.24783 -2.66971 0
M  V30 4077 C 394.259 -2.60268 -3.35478 0
M  V30 4078 O 395.283 -2.23648 -2.77236 0
M  V30 4079 O 394.142 -3.2321 -4.40678 0
M  V30 4080 H 391.236 -0.459984 -0.687272 0
M  V30 4081 H 393.782 -1.46677 -0.853464 0
M  V30 4082 H 392.554 -3.20284 -2.24798 0
M  V30 4083 H 392.177 -1.97841 -3.44884 0
M  V30 4084 N 393.175 1.03435 -1.18907 0
M  V30 4085 C 394.085 2.15075 -0.937015 0
M  V30 4086 C 395.101 1.73706 0.101085 0
M  V30 4087 O 396.277 2.01232 -0.0822948 0
M  V30 4088 C 393.342 3.43458 -0.473057 0
M  V30 4089 C 392.403 3.99172 -1.57989 0
M  V30 4090 C 391.636 5.21427 -1.13797 0
M  V30 4091 O 391.859 5.704 0.000725941 0
M  V30 4092 O 390.793 5.69837 -1.9383 0
M  V30 4093 H 394.619 2.39198 -1.87131 0
M  V30 4094 H 392.204 1.13506 -0.971427 0
M  V30 4095 H 394.086 4.20811 -0.222702 0
M  V30 4096 H 392.761 3.20793 0.432869 0
M  V30 4097 H 391.668 3.23178 -1.88433 0
M  V30 4098 H 393.001 4.2619 -2.46217 0
M  V30 4099 N 394.653 0.992116 1.22453 0
M  V30 4100 C 395.583 0.561677 2.26644 0
M  V30 4101 C 396.564 -0.411055 1.65059 0
M  V30 4102 O 397.749 -0.301861 1.9184 0
M  V30 4103 C 394.879 -0.125247 3.47074 0
M  V30 4104 C 393.833 0.765948 4.21091 0
M  V30 4105 C 393.159 -0.0538484 5.34673 0
M  V30 4106 C 394.459 2.06242 4.79856 0
M  V30 4107 H 396.153 1.43259 2.62902 0
M  V30 4108 H 393.699 0.690283 1.26377 0
M  V30 4109 H 395.652 -0.437764 4.1912 0
M  V30 4110 H 394.376 -1.03069 3.0991 0
M  V30 4111 H 393.035 1.0621 3.50878 0
M  V30 4112 H 392.683 -0.960188 4.9375 0
M  V30 4113 H 392.383 0.539415 5.85119 0
M  V30 4114 H 393.907 -0.360477 6.09535 0
M  V30 4115 H 395.321 1.8139 5.43848 0
M  V30 4116 H 393.718 2.60444 5.40638 0
M  V30 4117 H 394.788 2.74167 3.99951 0
M  V30 4118 N 396.131 -1.37776 0.765217 0
M  V30 4119 C 397.359 -2.04124 0.337767 0
M  V30 4120 C 397.774 -1.57715 -1.03785 0
M  V30 4121 O 397.131 -0.755447 -1.6613 0
M  V30 4122 C 397.182 -3.59658 0.364442 0
M  V30 4123 O 396.903 -4.04367 1.68579 0
M  V30 4124 C 398.404 -4.43236 -0.0754221 0
M  V30 4125 H 395.624 -0.655696 0.142491 0
M  V30 4126 H 398.168 -1.76238 1.03732 0
M  V30 4127 H 396.323 -3.86339 -0.286471 0
M  V30 4128 H 396.737 -4.98857 1.61993 0
M  V30 4129 H 398.211 -5.52 -0.00560067 0
M  V30 4130 H 398.688 -4.2455 -1.12491 0
M  V30 4131 H 399.294 -4.21767 0.547055 0
M  V30 4132 N 397.609 -0.515225 -1.4894 0
M  V30 4133 C 398.556 0.255567 -2.29381 0
M  V30 4134 C 399.526 0.947387 -1.36432 0
M  V30 4135 O 400.711 0.951288 -1.65394 0
M  V30 4136 C 397.851 1.30551 -3.19453 0
M  V30 4137 C 396.964 0.624029 -4.27469 0
M  V30 4138 C 396.099 1.65563 -5.0474 0
M  V30 4139 C 395.138 0.956802 -6.04576 0
M  V30 4140 N 394.275 1.93326 -6.74959 0
M  V30 4141 H 399.115 -0.436607 -2.94784 0
M  V30 4142 H 396.652 -0.227154 -1.45336 0
M  V30 4143 H 398.61 1.92639 -3.70062 0
M  V30 4144 H 397.24 1.96626 -2.56004 0
M  V30 4145 H 396.292 -0.110459 -3.8024 0
M  V30 4146 H 397.604 0.0746092 -4.98744 0
M  V30 4147 H 396.758 2.35119 -5.59289 0
M  V30 4148 H 395.497 2.23893 -4.3327 0
M  V30 4149 H 394.502 0.247097 -5.49244 0
M  V30 4150 H 395.727 0.379814 -6.78037 0
M  V30 4151 H 393.673 2.50591 -6.06251 0
M  V30 4152 H 393.59 1.43489 -7.42258 0
M  V30 4153 H 394.858 2.62126 -7.34105 0
M  V30 4154 N 399.087 1.5561 -0.249682 0
M  V30 4155 C 400.035 2.22894 0.664906 0
M  V30 4156 C 401.029 1.21743 1.17792 0
M  V30 4157 O 402.235 1.39748 1.13449 0
M  V30 4158 H 398.61 0.715022 0.232912 0
M  V30 4159 H 400.581 2.98307 0.0742998 0
M  V30 4160 C 399.33 2.94424 1.84959 0
M  V30 4161 H 398.653 3.72031 1.46399 0
M  V30 4162 H 400.093 3.44862 2.4667 0
M  V30 4163 C 398.552 1.98454 2.72245 0
M  V30 4164 O 399.082 1.51939 3.71857 0
M  V30 4165 N 397.288 1.65496 2.38871 0
M  V30 4166 H 396.835 2.03517 1.57919 0
M  V30 4167 H 396.793 1.0155 2.97548 0
M  V30 4168 N 400.565 -0.0233959 1.57583 0
M  V30 4169 C 401.497 -1.04994 2.03737 0
M  V30 4170 C 402.51 -1.32125 0.951152 0
M  V30 4171 O 403.699 -1.29512 1.22837 0
M  V30 4172 C 400.799 -2.39026 2.40249 0
M  V30 4173 C 399.972 -2.31171 3.7132 0
M  V30 4174 C 399.031 -3.47698 3.94959 0
M  V30 4175 O 398.057 -3.26937 4.65941 0
M  V30 4176 N 399.259 -4.6976 3.41037 0
M  V30 4177 H 402.024 -0.656507 2.92421 0
M  V30 4178 H 399.585 -0.211235 1.60516 0
M  V30 4179 H 401.577 -3.15712 2.53196 0
M  V30 4180 H 400.147 -2.70194 1.57207 0
M  V30 4181 H 399.367 -1.39547 3.68674 0
M  V30 4182 H 400.655 -2.23071 4.57293 0
M  V30 4183 H 400.053 -4.89528 2.83512 0
M  V30 4184 H 398.61 -5.43791 3.59353 0
M  V30 4185 N 402.043 -1.548 -0.295768 0
M  V30 4186 C 403.289 -1.74588 -1.03184 0
M  V30 4187 C 403.622 -0.532962 -1.86744 0
M  V30 4188 O 402.897 0.469872 -1.88739 0
M  V30 4189 C 403.18 -3.03791 -1.93347 0
M  V30 4190 C 403.033 -4.35392 -1.12933 0
M  V30 4191 C 404.352 -3.28892 -2.92435 0
M  V30 4192 H 401.471 -0.635221 -0.373715 0
M  V30 4193 H 404.113 -1.87519 -0.30606 0
M  V30 4194 H 402.263 -2.92898 -2.55232 0
M  V30 4195 H 403.935 -4.58211 -0.532943 0
M  V30 4196 H 402.178 -4.31642 -0.432168 0
M  V30 4197 H 402.849 -5.22074 -1.79284 0
M  V30 4198 H 405.325 -3.39429 -2.4068 0
M  V30 4199 H 404.201 -4.20603 -3.52682 0
M  V30 4200 H 404.462 -2.47437 -3.6637 0
M  V30 4201 N 403.521 0.559213 -1.47345 0
M  V30 4202 C 404.746 1.34676 -1.57725 0
M  V30 4203 C 405.171 1.86723 -0.227164 0
M  V30 4204 O 404.529 1.6286 0.796642 0
M  V30 4205 C 404.577 2.49399 -2.60447 0
M  V30 4206 O 403.681 3.51567 -2.15578 0
M  V30 4207 H 403.022 0.400115 -0.52991 0
M  V30 4208 H 405.552 0.676009 -1.93109 0
M  V30 4209 H 405.562 2.95996 -2.80803 0
M  V30 4210 H 404.237 2.10873 -3.58477 0
M  V30 4211 H 402.814 3.11289 -2.05313 0
M  V30 4212 N 404.999 1.35443 0.805782 0
M  V30 4213 C 405.929 1.31095 1.93226 0
M  V30 4214 C 406.91 0.185244 1.69088 0
M  V30 4215 O 408.095 0.380332 1.90439 0
M  V30 4216 C 405.225 1.08299 3.29983 0
M  V30 4217 C 404.179 2.17519 3.68605 0
M  V30 4218 C 403.505 1.79887 5.03532 0
M  V30 4219 C 404.805 3.5949 3.78898 0
M  V30 4220 H 406.499 2.25352 1.97122 0
M  V30 4221 H 404.045 1.0848 0.946996 0
M  V30 4222 H 405.998 1.03897 4.08391 0
M  V30 4223 H 404.722 0.104885 3.26432 0
M  V30 4224 H 403.381 2.2102 2.92482 0
M  V30 4225 H 403.029 0.80693 4.96485 0
M  V30 4226 H 402.729 2.53001 5.30344 0
M  V30 4227 H 404.253 1.77011 5.84379 0
M  V30 4228 H 405.667 3.58307 4.47536 0
M  V30 4229 H 404.064 4.31371 4.1718 0
M  V30 4230 H 405.134 3.95584 2.80431 0
M  V30 4231 N 406.477 -1.02803 1.19454 0
M  V30 4232 C 407.705 -1.79841 1.02297 0
M  V30 4233 C 408.12 -1.83879 -0.428259 0
M  V30 4234 O 407.477 -1.28345 -1.29745 0
M  V30 4235 C 407.528 -3.24852 1.58598 0
M  V30 4236 O 407.249 -3.21097 2.98041 0
M  V30 4237 C 408.75 -4.18485 1.46236 0
M  V30 4238 H 405.97 -0.565936 0.360496 0
M  V30 4239 H 408.514 -1.2948 1.58288 0
M  V30 4240 H 406.669 -3.72401 1.06753 0
M  V30 4241 H 407.083 -4.12033 3.24545 0
M  V30 4242 H 408.557 -5.18121 1.90407 0
M  V30 4243 H 409.034 -4.37254 0.41301 0
M  V30 4244 H 409.64 -3.76811 1.97215 0
M  V30 4245 N 407.956 -0.998596 -1.21925 0
M  V30 4246 C 409.196 -0.685948 -1.92546 0
M  V30 4247 C 409.56 0.768441 -1.75952 0
M  V30 4248 O 410.761 1.19277 -2.40887 0
M  V30 4249 C 409.032 -1.08767 -3.40448 0
M  V30 4250 S 410.591 -0.894251 -4.29591 0
M  V30 4251 H 407.409 -0.250622 -0.665364 0
M  V30 4252 H 410.011 -1.28207 -1.47591 0
M  V30 4253 H 408.715 -2.14242 -3.50041 0
M  V30 4254 H 408.246 -0.48357 -3.90417 0
M  V30 4255 H 410.261 0.212149 -4.95746 0
M  V30 4256 N 409.434 1.37368 -0.772513 0
M  V30 4257 C 410.364 2.32856 -0.173304 0
M  V30 4258 C 411.345 1.55818 0.682262 0
M  V30 4259 O 412.53 1.84052 0.619566 0
M  V30 4260 C 409.66 3.40048 0.706007 0
M  V30 4261 C 408.614 4.27973 -0.0483144 0
M  V30 4262 C 407.94 5.26184 0.950491 0
M  V30 4263 C 409.24 5.07665 -1.22776 0
M  V30 4264 H 410.934 2.83217 -0.971002 0
M  V30 4265 H 408.48 1.3617 -0.468377 0
M  V30 4266 H 410.433 4.05827 1.13501 0
M  V30 4267 H 409.157 2.88214 1.53623 0
M  V30 4268 H 407.816 3.63726 -0.458107 0
M  V30 4269 H 407.464 4.7063 1.77529 0
M  V30 4270 H 407.164 5.85872 0.450314 0
M  V30 4271 H 408.688 5.94838 1.37842 0
M  V30 4272 H 410.102 5.66578 -0.875366 0
M  V30 4273 H 408.499 5.76681 -1.66007 0
M  V30 4274 H 409.569 4.40294 -2.03149 0
M  V30 4275 N 410.912 0.523116 1.48665 0
M  V30 4276 C 412.158 -0.0134963 2.02796 0
M  V30 4277 C 412.491 -1.34582 1.40004 0
M  V30 4278 O 411.766 -1.86756 0.543381 0
M  V30 4279 C 412.049 -0.14276 3.59817 0
M  V30 4280 C 411.902 1.21425 4.331 0
M  V30 4281 C 413.221 -0.872856 4.31357 0
M  V30 4282 H 410.34 -0.00343074 0.736992 0
M  V30 4283 H 412.982 0.678816 1.7746 0
M  V30 4284 H 411.132 -0.732401 3.81534 0
M  V30 4285 H 412.804 1.84447 4.2282 0
M  V30 4286 H 411.047 1.79791 3.94788 0
M  V30 4287 H 411.718 1.07687 5.41394 0
M  V30 4288 H 414.194 -0.372555 4.14429 0
M  V30 4289 H 413.07 -0.932185 5.40927 0
M  V30 4290 H 413.331 -1.92161 3.98154 0
M  V30 4291 N 412.39 -1.55475 0.257931 0
M  V30 4292 C 413.337 -2.21837 -0.636939 0
M  V30 4293 C 414.307 -1.18596 -1.16294 0
M  V30 4294 O 415.492 -1.47081 -1.21539 0
M  V30 4295 C 412.632 -2.9301 -1.82317 0
M  V30 4296 C 411.745 -4.10931 -1.33265 0
M  V30 4297 C 410.88 -4.69791 -2.47931 0
M  V30 4298 C 409.919 -5.7994 -1.95796 0
M  V30 4299 N 409.056 -6.32935 -3.0387 0
M  V30 4300 H 413.896 -2.9793 -0.0643591 0
M  V30 4301 H 411.433 -1.47086 -0.0200031 0
M  V30 4302 H 413.391 -3.3248 -2.52018 0
M  V30 4303 H 412.021 -2.1937 -2.36805 0
M  V30 4304 H 411.073 -3.76699 -0.52931 0
M  V30 4305 H 412.385 -4.90417 -0.910654 0
M  V30 4306 H 411.539 -5.11892 -3.25656 0
M  V30 4307 H 410.278 -3.89545 -2.93438 0
M  V30 4308 H 409.283 -5.37305 -1.16546 0
M  V30 4309 H 410.508 -6.62043 -1.51246 0
M  V30 4310 H 408.454 -5.55591 -3.48791 0
M  V30 4311 H 408.371 -7.07645 -2.66035 0
M  V30 4312 H 409.639 -6.79695 -3.81621 0
M  V30 4313 N 413.868 0.0150385 -1.57593 0
M  V30 4314 C 415.116 0.701613 -1.8953 0
M  V30 4315 C 415.437 1.75139 -0.857396 0
M  V30 4316 O 414.707 1.95607 0.107194 0
M  V30 4317 H 413.287 0.26213 -0.699498 0
M  V30 4318 H 415.949 -0.0223304 -1.94887 0
M  V30 4319 H 415.045 1.18236 -2.88837 0
M  V30 4320 N 415.346 1.54954 0.287554 0
M  V30 4321 C 416.593 1.74873 1.02106 0
M  V30 4322 C 416.921 0.541829 1.86801 0
M  V30 4323 O 416.176 -0.475992 1.89823 0
M  V30 4324 C 416.475 2.99833 1.94512 0
M  V30 4325 C 416.141 4.33029 1.25686 0
M  V30 4326 C 414.803 4.69233 1.06649 0
M  V30 4327 C 417.155 5.15542 0.765913 0
M  V30 4328 C 414.483 5.85518 0.372222 0
M  V30 4329 C 416.835 6.32542 0.0853101 0
M  V30 4330 C 415.499 6.67398 -0.1169 0
M  V30 4331 H 414.769 0.639906 0.373632 0
M  V30 4332 H 417.416 1.89219 0.294665 0
M  V30 4333 H 415.721 2.80325 2.73725 0
M  V30 4334 H 417.418 3.1244 2.51361 0
M  V30 4335 H 414.008 4.04564 1.41512 0
M  V30 4336 H 418.192 4.88059 0.90066 0
M  V30 4337 H 413.448 6.11057 0.204695 0
M  V30 4338 H 417.622 6.95741 -0.302936 0
M  V30 4339 H 415.249 7.57357 -0.656859 0
M  V30 4340 N 416.824 -0.551391 1.4764 0
M  V30 4341 C 418.054 -1.33163 1.57959 0
M  V30 4342 C 418.462 -1.87785 0.23094 0
M  V30 4343 O 417.805 -1.65996 -0.786825 0
M  V30 4344 C 417.867 -2.53449 2.54958 0
M  V30 4345 C 417.531 -2.20071 4.00522 0
M  V30 4346 C 418.528 -1.77017 4.88836 0
M  V30 4347 C 416.213 -2.31252 4.45901 0
M  V30 4348 C 418.207 -1.4558 6.20552 0
M  V30 4349 C 415.894 -1.99427 5.77644 0
M  V30 4350 C 416.892 -1.56659 6.64791 0
M  V30 4351 O 416.58 -1.25242 7.94084 0
M  V30 4352 H 416.312 -0.412022 0.535923 0
M  V30 4353 H 418.866 -0.674186 1.9402 0
M  V30 4354 H 417.096 -3.22104 2.13976 0
M  V30 4355 H 418.785 -3.15523 2.55343 0
M  V30 4356 H 419.551 -1.67867 4.55023 0
M  V30 4357 H 415.43 -2.63498 3.78272 0
M  V30 4358 H 418.974 -1.12125 6.8853 0
M  V30 4359 H 414.871 -2.08211 6.10998 0
M  V30 4360 H 415.639 -1.38822 8.06642 0
M  V30 4361 N 418.302 -1.35869 -0.798587 0
M  V30 4362 C 419.713 -1.26498 -1.37314 0
M  V30 4363 C 420.064 0.0991899 -1.95949 0
M  V30 4364 O 419.189 1.0004 -1.91888 0
M  V30 4365 C 419.784 -2.29054 -2.49639 0
M  V30 4366 C 418.343 -2.234 -3.02935 0
M  V30 4367 C 417.49 -2.14329 -1.75949 0
M  V30 4368 H 420.441 -1.46881 -0.600971 0
M  V30 4369 H 420.462 -1.92166 -3.28409 0
M  V30 4370 H 419.974 -3.2833 -2.06933 0
M  V30 4371 H 418.075 -1.27562 -3.50084 0
M  V30 4372 H 418.188 -3.15703 -3.60372 0
M  V30 4373 H 416.552 -1.60435 -1.9782 0
M  V30 4374 H 417.335 -3.15477 -1.35384 0
M  V30 4375 N 419.78 1.02168 -1.19998 0
M  V30 4376 C 421.005 1.79833 -1.03319 0
M  V30 4377 C 421.43 1.83504 0.413281 0
M  V30 4378 O 420.788 1.26635 1.29743 0
M  V30 4379 C 420.836 3.22396 -1.61533 0
M  V30 4380 O 419.94 4.03555 -0.849519 0
M  V30 4381 H 419.281 0.554872 -0.364709 0
M  V30 4382 H 421.811 1.28542 -1.59179 0
M  V30 4383 H 421.821 3.73124 -1.65054 0
M  V30 4384 H 420.496 3.19039 -2.66809 0
M  V30 4385 H 419.073 3.62169 -0.888129 0
M  V30 4386 N 421.258 1.00505 1.21394 0
M  V30 4387 C 422.535 0.603277 1.86064 0
M  V30 4388 C 422.915 -0.919095 1.90042 0
M  V30 4389 O 422.263 -1.80607 1.39977 0
M  V30 4390 C 422.473 1.23772 3.26315 0
M  V30 4391 C 423.821 1.34586 4.02705 0
M  V30 4392 O 424.845 1.19304 3.35626 0
M  V30 4393 O 423.704 1.59169 5.22807 0
M  V30 4394 H 420.798 0.206634 0.800769 0
M  V30 4395 H 423.344 1.1017 1.29076 0
M  V30 4396 H 422.116 2.27848 3.18121 0
M  V30 4397 H 421.739 0.725648 3.90922 0
M  V30 4398 N 422.737 -1.36956 0.779787 0
M  V30 4399 C 423.986 -1.98738 0.344405 0
M  V30 4400 C 424.299 -1.62596 -1.08728 0
M  V30 4401 O 425.505 -2.1754 -1.62445 0
M  V30 4402 C 423.961 -3.5544 0.564829 0
M  V30 4403 C 423.569 -4.00514 2.0073 0
M  V30 4404 C 425.313 -4.24059 0.193471 0
M  V30 4405 C 423.22 -5.49957 2.17489 0
M  V30 4406 H 422.15 -0.743561 0.12503 0
M  V30 4407 H 424.801 -1.56381 0.960057 0
M  V30 4408 H 423.183 -3.95817 -0.120397 0
M  V30 4409 H 424.357 -3.71362 2.72814 0
M  V30 4410 H 422.672 -3.44703 2.336 0
M  V30 4411 H 425.269 -5.33874 0.297097 0
M  V30 4412 H 425.612 -4.07378 -0.857263 0
M  V30 4413 H 426.145 -3.89012 0.831556 0
M  V30 4414 H 422.884 -5.71574 3.2091 0
M  V30 4415 H 422.404 -5.80767 1.49899 0
M  V30 4416 H 424.083 -6.16043 1.97738 0
M  V30 4417 N 424.215 -0.530993 -1.48385 0
M  V30 4418 C 425.178 0.220497 -2.28137 0
M  V30 4419 C 426.178 0.866851 -1.35434 0
M  V30 4420 O 427.368 0.726746 -1.58316 0
M  V30 4421 C 424.5 1.31921 -3.1434 0
M  V30 4422 H 425.693 -0.479714 -2.96038 0
M  V30 4423 H 423.246 -0.286968 -1.53643 0
M  V30 4424 H 423.981 2.05264 -2.51072 0
M  V30 4425 H 423.766 0.86085 -3.82533 0
M  V30 4426 H 425.256 1.84776 -3.74497 0
M  V30 4427 N 425.693 1.55336 -0.266172 0
M  V30 4428 C 426.939 1.99692 0.353681 0
M  V30 4429 C 427.272 1.1543 1.56172 0
M  V30 4430 O 426.547 0.222218 1.93226 0
M  V30 4431 C 426.83 3.52316 0.74466 0
M  V30 4432 C 426.683 4.47337 -0.470101 0
M  V30 4433 C 428.002 4.10588 1.58447 0
M  V30 4434 H 425.121 0.725961 0.12708 0
M  V30 4435 H 427.763 1.86336 -0.371333 0
M  V30 4436 H 425.913 3.63829 1.36239 0
M  V30 4437 H 427.585 4.4778 -1.10864 0
M  V30 4438 H 425.828 4.19364 -1.10978 0
M  V30 4439 H 426.499 5.51788 -0.15291 0
M  V30 4440 H 428.975 4.02297 1.06286 0
M  V30 4441 H 427.851 5.17607 1.82686 0
M  V30 4442 H 428.112 3.60253 2.56262 0
M  V30 4443 N 427.171 -0.0066808 1.57599 0
M  V30 4444 C 428.081 -1.01671 2.11424 0
M  V30 4445 C 429.097 -1.38143 1.05795 0
M  V30 4446 O 430.273 -1.47011 1.37658 0
M  V30 4447 C 427.338 -2.29192 2.60139 0
M  V30 4448 C 426.399 -1.99094 3.80342 0
M  V30 4449 C 425.632 -3.20535 4.26724 0
M  V30 4450 O 425.855 -4.3199 3.72479 0
M  V30 4451 O 424.789 -3.04924 5.18946 0
M  V30 4452 H 428.615 -0.589181 2.9793 0
M  V30 4453 H 426.2 -0.225091 1.47695 0
M  V30 4454 H 428.082 -3.0412 2.917 0
M  V30 4455 H 426.757 -2.71195 1.76733 0
M  V30 4456 H 425.664 -1.21663 3.53764 0
M  V30 4457 H 426.997 -1.61931 4.648 0
M  V30 4458 N 428.649 -1.55105 -0.279332 0
M  V30 4459 C 429.895 -1.76597 -1.00921 0
M  V30 4460 C 430.25 -0.556831 -1.84166 0
M  V30 4461 O 429.543 0.450573 -1.86227 0
M  V30 4462 C 429.737 -3.0086 -1.92919 0
M  V30 4463 C 429.566 -4.33744 -1.18728 0
M  V30 4464 C 428.336 -4.9712 -0.905545 0
M  V30 4465 C 430.534 -5.11009 -0.580857 0
M  V30 4466 N 428.516 -6.13749 -0.136169 0
M  V30 4467 C 429.887 -6.19976 0.0546661 0
M  V30 4468 C 431.942 -4.95502 -0.488067 0
M  V30 4469 C 430.645 -7.15123 0.774028 0
M  V30 4470 C 432.671 -5.90999 0.217688 0
M  V30 4471 C 432.033 -6.9935 0.841975 0
M  V30 4472 H 428.132 -0.698553 -0.351493 0
M  V30 4473 H 430.716 -1.92595 -0.285531 0
M  V30 4474 H 428.887 -2.86249 -2.62519 0
M  V30 4475 H 430.619 -3.10784 -2.59221 0
M  V30 4476 H 427.374 -4.57903 -1.20921 0
M  V30 4477 H 427.798 -6.7659 0.235665 0
M  V30 4478 H 432.44 -4.11841 -0.956406 0
M  V30 4479 H 430.158 -7.9831 1.25407 0
M  V30 4480 H 433.744 -5.81078 0.289717 0
M  V30 4481 H 432.624 -7.71973 1.37939 0
M  V30 4482 N 430.127 0.543554 -1.4793 0
M  V30 4483 C 431.037 1.67657 -1.64098 0
M  V30 4484 C 432.053 1.65934 -0.523622 0
M  V30 4485 O 433.229 1.85133 -0.792943 0
M  V30 4486 C 430.294 3.04146 -1.66421 0
M  V30 4487 C 429.355 3.16831 -2.89684 0
M  V30 4488 C 428.588 4.46809 -2.91886 0
M  V30 4489 O 428.811 5.33095 -2.02895 0
M  V30 4490 O 427.745 4.63573 -3.83906 0
M  V30 4491 H 431.571 1.56957 -2.59997 0
M  V30 4492 H 429.156 0.715116 -1.31173 0
M  V30 4493 H 431.038 3.85346 -1.70548 0
M  V30 4494 H 429.713 3.152 -0.736923 0
M  V30 4495 H 428.62 2.34977 -2.91095 0
M  V30 4496 H 429.953 3.10687 -3.81752 0
M  V30 4497 N 431.605 1.3629 0.791371 0
M  V30 4498 C 432.83 1.33726 1.58531 0
M  V30 4499 C 433.255 -0.0794933 1.87932 0
M  V30 4500 O 432.613 -1.05087 1.47738 0
M  V30 4501 C 432.661 2.16425 2.88431 0
M  V30 4502 O 431.765 1.5554 3.81944 0
M  V30 4503 H 431.106 0.457793 0.480959 0
M  V30 4504 H 433.636 1.79547 0.981031 0
M  V30 4505 H 433.646 2.28933 3.37718 0
M  V30 4506 H 432.321 3.19415 2.66359 0
M  V30 4507 H 430.898 1.51961 3.40532 0
M  V30 4508 N 433.083 -1.0153 1.20538 0
M  V30 4509 C 434.031 -2.12215 0.952235 0
M  V30 4510 C 435.025 -1.69123 -0.0968735 0
M  V30 4511 O 436.231 -1.7992 0.0536006 0
M  V30 4512 H 432.606 -0.693576 0.290613 0
M  V30 4513 H 434.577 -2.3075 1.89201 0
M  V30 4514 C 433.326 -3.43755 0.522287 0
M  V30 4515 H 432.649 -3.7734 1.32115 0
M  V30 4516 H 434.089 -4.22254 0.384389 0
M  V30 4517 C 432.548 -3.28088 -0.765489 0
M  V30 4518 O 433.078 -3.57921 -1.8236 0
M  V30 4519 N 431.284 -2.81333 -0.728011 0
M  V30 4520 H 430.831 -2.57255 0.133332 0
M  V30 4521 H 430.789 -2.71232 -1.58999 0
M  V30 4522 N 434.561 -1.01147 -1.20859 0
M  V30 4523 C 435.809 -0.696486 -1.89719 0
M  V30 4524 C 436.13 0.775788 -1.78904 0
M  V30 4525 O 435.4 1.55759 -1.18811 0
M  V30 4526 H 433.98 -0.254628 -0.702263 0
M  V30 4527 H 436.642 -1.28197 -1.46804 0
M  V30 4528 H 435.738 -0.975357 -2.96468 0
M  V30 4529 N 436.039 1.36541 -0.78704 0
M  V30 4530 C 436.971 2.28761 -0.141773 0
M  V30 4531 C 437.984 1.49365 0.647599 0
M  V30 4532 O 439.173 1.71836 0.483173 0
M  V30 4533 C 436.273 3.28771 0.822368 0
M  V30 4534 C 435.446 4.3732 0.0835594 0
M  V30 4535 C 434.505 5.17307 0.963296 0
M  V30 4536 O 433.531 5.67638 0.421419 0
M  V30 4537 N 434.733 5.33515 2.28784 0
M  V30 4538 H 437.498 2.84777 -0.933919 0
M  V30 4539 H 435.059 1.48682 -0.640735 0
M  V30 4540 H 437.051 3.79169 1.41468 0
M  V30 4541 H 435.621 2.73412 1.5154 0
M  V30 4542 H 434.841 3.88118 -0.689809 0
M  V30 4543 H 436.129 5.0701 -0.426358 0
M  V30 4544 H 435.527 4.94234 2.75226 0
M  V30 4545 H 434.084 5.87165 2.82985 0
M  V30 4546 N 437.518 0.538854 1.48102 0
M  V30 4547 C 438.929 0.100679 1.86428 0
M  V30 4548 C 439.28 -1.32447 1.44749 0
M  V30 4549 O 438.405 -1.99339 0.842199 0
M  V30 4550 C 439 0.175933 3.38343 0
M  V30 4551 C 437.559 -0.207098 3.7583 0
M  V30 4552 C 436.706 0.531741 2.72154 0
M  V30 4553 H 439.657 0.749614 1.3988 0
M  V30 4554 H 439.678 -0.610144 3.75576 0
M  V30 4555 H 439.19 1.21328 3.68648 0
M  V30 4556 H 437.291 -1.24626 3.5114 0
M  V30 4557 H 437.404 0.138687 4.78899 0
M  V30 4558 H 435.768 -0.0230462 2.5469 0
M  V30 4559 H 436.551 1.56989 3.05302 0
M  V30 4560 N 438.996 -1.55193 0.274407 0
M  V30 4561 C 439.906 -2.26164 -0.623473 0
M  V30 4562 C 440.922 -1.28729 -1.17068 0
M  V30 4563 O 442.098 -1.61663 -1.20112 0
M  V30 4564 C 439.163 -2.96833 -1.7914 0
M  V30 4565 C 438.224 -4.09745 -1.28093 0
M  V30 4566 C 437.457 -4.77034 -2.3932 0
M  V30 4567 O 437.68 -4.4353 -3.5866 0
M  V30 4568 O 436.614 -5.64996 -2.07516 0
M  V30 4569 H 440.44 -3.03661 -0.0485661 0
M  V30 4570 H 438.025 -1.49341 0.0418382 0
M  V30 4571 H 439.907 -3.41248 -2.4724 0
M  V30 4572 H 438.582 -2.22253 -2.35341 0
M  V30 4573 H 437.489 -3.69787 -0.566416 0
M  V30 4574 H 438.822 -4.86224 -0.764683 0
M  V30 4575 N 440.474 -0.00167713 -1.576 0
M  V30 4576 C 441.422 1.0074 -2.09652 0
M  V30 4577 C 442.416 1.35483 -1.01689 0
M  V30 4578 O 443.622 1.34028 -1.20152 0
M  V30 4579 H 439.997 0.342537 -0.669457 0
M  V30 4580 H 441.968 0.542841 -2.93421 0
M  V30 4581 C 440.717 2.2899 -2.61647 0
M  V30 4582 H 440.04 2.03124 -3.44355 0
M  V30 4583 H 441.48 2.9787 -3.01744 0
M  V30 4584 C 439.939 3.00085 -1.53136 0
M  V30 4585 O 440.469 3.91135 -0.91524 0
M  V30 4586 N 438.675 2.6194 -1.25841 0
M  V30 4587 H 438.222 1.8798 -1.76129 0
M  V30 4588 H 438.18 3.09822 -0.534576 0
M  V30 4589 N 441.952 1.55251 0.271103 0
M  V30 4590 C 442.9 1.89054 1.35504 0
M  V30 4591 C 443.894 0.767064 1.51038 0
M  V30 4592 O 445.1 0.951429 1.528 0
M  V30 4593 H 441.475 0.600072 0.45323 0
M  V30 4594 H 443.446 2.79598 1.04247 0
M  V30 4595 C 442.195 2.18068 2.70817 0
M  V30 4596 H 441.518 3.04005 2.59656 0
M  V30 4597 H 442.958 2.4564 3.45597 0
M  V30 4598 C 441.417 0.988901 3.2206 0
M  V30 4599 O 441.947 0.224501 4.01072 0
M  V30 4600 N 440.153 0.786085 2.79766 0
M  V30 4601 H 439.7 1.40937 2.15626 0
M  V30 4602 H 439.658 -0.00969349 3.14399 0
M  V30 4603 N 443.43 -0.535701 1.48216 0
M  V30 4604 C 444.66 -1.3148 1.59363 0
M  V30 4605 C 445.068 -1.8753 0.250844 0
M  V30 4606 O 444.411 -1.66821 -0.769174 0
M  V30 4607 C 444.473 -2.50731 2.57632 0
M  V30 4608 C 444.137 -2.15811 4.02833 0
M  V30 4609 C 445.134 -1.71822 4.90686 0
M  V30 4610 C 442.819 -2.26509 4.48329 0
M  V30 4611 C 444.813 -1.3899 6.22062 0
M  V30 4612 C 442.5 -1.93289 5.79726 0
M  V30 4613 C 443.498 -1.49599 6.66415 0
M  V30 4614 O 443.186 -1.16812 7.95368 0
M  V30 4615 H 442.918 -0.406315 0.540263 0
M  V30 4616 H 445.472 -0.653569 1.94725 0
M  V30 4617 H 443.702 -3.19817 2.1738 0
M  V30 4618 H 445.391 -3.12797 2.58675 0
M  V30 4619 H 446.157 -1.63031 4.56778 0
M  V30 4620 H 442.036 -2.59471 3.81045 0
M  V30 4621 H 445.58 -1.04816 6.89681 0
M  V30 4622 H 441.477 -2.01718 6.13172 0
M  V30 4623 H 442.245 -1.30259 8.08069 0
M  V30 4624 N 444.908 -1.36708 -0.784132 0
M  V30 4625 C 445.855 -1.31466 -1.89698 0
M  V30 4626 C 446.825 -0.18239 -1.65096 0
M  V30 4627 O 448.01 -0.369762 -1.87183 0
M  V30 4628 C 445.15 -1.1151 -3.26588 0
M  V30 4629 C 444.263 -2.33859 -3.63227 0
M  V30 4630 C 443.398 -2.06873 -4.89262 0
M  V30 4631 C 442.437 -3.25154 -5.18595 0
M  V30 4632 N 441.574 -2.978 -6.35814 0
M  V30 4633 H 446.414 -2.26619 -1.93515 0
M  V30 4634 H 443.951 -1.12625 -0.946256 0
M  V30 4635 H 445.909 -0.979653 -4.05535 0
M  V30 4636 H 444.539 -0.200103 -3.22179 0
M  V30 4637 H 443.591 -2.58188 -2.79362 0
M  V30 4638 H 444.903 -3.22109 -3.8085 0
M  V30 4639 H 444.057 -1.90289 -5.76086 0
M  V30 4640 H 442.796 -1.15942 -4.73718 0
M  V30 4641 H 441.801 -3.42292 -4.30251 0
M  V30 4642 H 443.026 -4.1692 -5.36055 0
M  V30 4643 H 440.972 -2.09485 -6.21653 0
M  V30 4644 H 440.889 -3.7959 -6.53794 0
M  V30 4645 H 442.157 -2.84805 -7.25607 0
M  V30 4646 N 446.386 1.0089 -1.21074 0
M  V30 4647 C 447.614 1.78191 -1.05145 0
M  V30 4648 C 448.029 1.84537 0.398952 0
M  V30 4649 O 447.386 1.30393 1.27687 0
M  V30 4650 C 447.437 3.22288 -1.63746 0
M  V30 4651 O 447.158 3.16315 -3.03111 0
M  V30 4652 C 448.659 4.16106 -1.52875 0
M  V30 4653 H 445.879 0.560129 -0.369454 0
M  V30 4654 H 448.423 1.26945 -1.60328 0
M  V30 4655 H 446.578 3.70655 -1.12664 0
M  V30 4656 H 446.992 4.06817 -3.31059 0
M  V30 4657 H 448.466 5.15026 -1.98626 0
M  V30 4658 H 448.943 4.36541 -0.482521 0
M  V30 4659 H 449.549 3.73625 -2.03185 0
M  V30 4660 N 447.864 1.01787 1.20321 0
M  V30 4661 C 449.092 0.727194 1.937 0
M  V30 4662 C 449.507 -0.712305 1.74848 0
M  V30 4663 O 448.864 -1.48327 1.06327 0
M  V30 4664 C 448.915 1.05497 3.45764 0
M  V30 4665 O 448.636 2.43794 3.64 0
M  V30 4666 C 450.137 0.785534 4.36285 0
M  V30 4667 H 447.357 0.266939 0.615617 0
M  V30 4668 H 449.901 1.35939 1.52777 0
M  V30 4669 H 448.056 0.468158 3.84561 0
M  V30 4670 H 448.47 2.55656 4.57974 0
M  V30 4671 H 449.944 1.06495 5.4163 0
M  V30 4672 H 450.421 -0.280273 4.38305 0
M  V30 4673 H 451.027 1.35456 4.03152 0
M  V30 4674 N 449.342 -1.36122 0.79427 0
M  V30 4675 C 450.753 -1.81646 0.431446 0
M  V30 4676 C 451.104 -1.66043 -1.04518 0
M  V30 4677 O 450.229 -1.1841 -1.8113 0
M  V30 4678 C 450.824 -3.29785 0.776341 0
M  V30 4679 C 449.383 -3.73501 0.466282 0
M  V30 4680 C 448.53 -2.58313 1.00844 0
M  V30 4681 H 451.481 -1.24274 0.986995 0
M  V30 4682 H 451.502 -3.80437 0.0692413 0
M  V30 4683 H 451.014 -3.4111 1.8511 0
M  V30 4684 H 449.115 -3.67733 -0.600245 0
M  V30 4685 H 449.228 -4.68754 0.990288 0
M  V30 4686 H 447.592 -2.5102 0.431406 0
M  V30 4687 H 448.375 -2.72421 2.08906 0
M  V30 4688 N 450.82 -0.546701 -1.47814 0
M  V30 4689 C 452.231 -0.110564 -1.86372 0
M  V30 4690 C 452.582 1.31678 -1.45449 0
M  V30 4691 O 451.707 1.98889 -0.852758 0
M  V30 4692 C 452.302 -0.193873 -3.38245 0
M  V30 4693 C 450.861 0.187164 -3.75934 0
M  V30 4694 C 450.008 -0.546166 -2.71868 0
M  V30 4695 H 452.959 -0.757022 -1.39481 0
M  V30 4696 H 452.98 0.590218 -3.75895 0
M  V30 4697 H 452.492 -1.23282 -3.67999 0
M  V30 4698 H 450.593 1.22762 -3.51796 0
M  V30 4699 H 450.706 -0.164083 -4.78819 0
M  V30 4700 H 449.07 0.00953904 -2.54698 0
M  V30 4701 H 449.853 -1.58606 -3.04465 0
M  V30 4702 N 452.299 1.55045 -0.282633 0
M  V30 4703 C 453.545 2.00056 0.332481 0
M  V30 4704 C 453.878 1.1708 1.54939 0
M  V30 4705 O 453.153 0.2427 1.9298 0
M  V30 4706 C 453.436 3.53086 0.70725 0
M  V30 4707 C 453.289 4.46813 -0.517521 0
M  V30 4708 C 454.608 4.12245 1.54084 0
M  V30 4709 H 451.727 0.727268 0.119373 0
M  V30 4710 H 454.369 1.85932 -0.391076 0
M  V30 4711 H 452.519 3.65253 1.32372 0
M  V30 4712 H 454.191 4.46579 -1.15607 0
M  V30 4713 H 452.434 4.18163 -1.1542 0
M  V30 4714 H 453.105 5.51595 -0.211426 0
M  V30 4715 H 455.581 4.03401 1.02013 0
M  V30 4716 H 454.457 5.19515 1.77186 0
M  V30 4717 H 454.718 3.62951 2.52427 0
M  V30 4718 N 453.777 0.010035 1.57597 0
M  V30 4719 C 454.707 -0.976857 2.12084 0
M  V30 4720 C 455.688 -1.35191 1.03235 0
M  V30 4721 O 456.873 -1.43389 1.3097 0
M  V30 4722 C 454.003 -2.26548 2.63236 0
M  V30 4723 C 452.957 -2.03175 3.76701 0
M  V30 4724 C 452.283 -3.38138 4.14206 0
M  V30 4725 C 453.583 -1.38625 5.03568 0
M  V30 4726 H 455.277 -0.523145 2.94794 0
M  V30 4727 H 452.823 -0.250195 1.4181 0
M  V30 4728 H 454.776 -2.95952 2.99984 0
M  V30 4729 H 453.5 -2.74051 1.77661 0
M  V30 4730 H 452.159 -1.36195 3.40362 0
M  V30 4731 H 451.807 -3.83363 3.25641 0
M  V30 4732 H 451.507 -3.23312 4.90656 0
M  V30 4733 H 453.031 -4.08841 4.53521 0
M  V30 4734 H 454.445 -1.98 5.38023 0
M  V30 4735 H 452.842 -1.34256 5.84889 0
M  V30 4736 H 453.912 -0.356722 4.83586 0
M  V30 4737 N 455.255 -1.55392 -0.262866 0
M  V30 4738 C 456.532 -1.67204 -1.01499 0
M  V30 4739 C 456.912 -0.545186 -2.03939 0
M  V30 4740 O 456.26 0.453467 -2.23955 0
M  V30 4741 C 456.47 -3.06847 -1.6627 0
M  V30 4742 C 457.818 -3.64928 -2.17054 0
M  V30 4743 O 458.842 -3.09545 -1.76239 0
M  V30 4744 O 457.701 -4.61984 -2.91947 0
M  V30 4745 H 454.795 -0.679467 -0.471438 0
M  V30 4746 H 457.341 -1.67729 -0.257918 0
M  V30 4747 H 456.113 -3.80309 -0.920915 0
M  V30 4748 H 455.736 -3.10266 -2.48638 0
M  V30 4749 N 456.733 0.527833 -1.48498 0
M  V30 4750 C 457.958 1.313 -1.60546 0
M  V30 4751 C 458.383 1.86199 -0.26672 0
M  V30 4752 O 457.741 1.64513 0.761918 0
M  V30 4753 C 457.789 2.43818 -2.65678 0
M  V30 4754 O 456.893 3.46916 -2.22987 0
M  V30 4755 H 456.234 0.388784 -0.538277 0
M  V30 4756 H 458.764 0.634896 -1.945 0
M  V30 4757 H 458.774 2.89973 -2.87018 0
M  V30 4758 H 457.449 2.03222 -3.62869 0
M  V30 4759 H 456.026 3.06864 -2.11869 0
M  V30 4760 N 458.211 1.37122 0.776871 0
M  V30 4761 C 459.488 1.22586 1.52421 0
M  V30 4762 C 459.868 -0.182726 2.10308 0
M  V30 4763 O 459.216 -1.18979 1.9508 0
M  V30 4764 C 459.426 2.31782 2.60918 0
M  V30 4765 C 460.774 2.69071 3.2846 0
M  V30 4766 O 461.798 2.3092 2.71209 0
M  V30 4767 O 460.657 3.3478 4.31954 0
M  V30 4768 H 457.751 0.478045 0.674835 0
M  V30 4769 H 460.297 1.48888 0.814275 0
M  V30 4770 H 459.069 3.26131 2.16227 0
M  V30 4771 H 458.692 2.06916 3.39517 0
M  V30 4772 N 459.689 -1.00246 1.21608 0
M  V30 4773 C 460.937 -1.73717 1.0328 0
M  V30 4774 C 461.258 -1.90102 -0.434318 0
M  V30 4775 O 460.528 -1.45376 -1.31311 0
M  V30 4776 H 459.108 -0.643613 0.379172 0
M  V30 4777 H 461.77 -1.20787 1.52959 0
M  V30 4778 H 460.866 -2.73535 1.50283 0
M  V30 4779 N 461.167 -1.02423 -1.1978 0
M  V30 4780 C 462.392 -0.7373 -1.93852 0
M  V30 4781 C 462.817 0.696923 -1.74713 0
M  V30 4782 O 462.175 1.48056 -1.04638 0
M  V30 4783 C 462.223 -1.08783 -3.438 0
M  V30 4784 O 461.327 -0.20383 -4.11896 0
M  V30 4785 H 460.668 -0.27284 -0.605355 0
M  V30 4786 H 463.198 -1.36966 -1.51992 0
M  V30 4787 H 463.208 -1.04276 -3.9445 0
M  V30 4788 H 461.883 -2.13274 -3.57053 0
M  V30 4789 H 460.46 -0.307091 -3.71633 0
M  V30 4790 N 462.645 1.35699 -0.801477 0
M  V30 4791 C 463.892 1.98913 -0.379459 0
M  V30 4792 C 464.22 1.63592 1.05204 0
M  V30 4793 O 463.475 0.888563 1.74365 0
M  V30 4794 C 463.774 3.53828 -0.504041 0
M  V30 4795 C 463.44 4.09002 -1.8981 0
M  V30 4796 C 462.102 4.23783 -2.27951 0
M  V30 4797 C 464.454 4.38939 -2.81038 0
M  V30 4798 C 461.782 4.65816 -3.56696 0
M  V30 4799 C 464.134 4.82409 -4.09224 0
M  V30 4800 C 462.798 4.95395 -4.4737 0
M  V30 4801 H 462.068 0.727874 -0.138854 0
M  V30 4802 H 464.715 1.61994 -1.02128 0
M  V30 4803 H 463.02 3.91175 0.221242 0
M  V30 4804 H 464.717 4.00687 -0.158361 0
M  V30 4805 H 461.307 3.97946 -1.59176 0
M  V30 4806 H 465.491 4.27077 -2.52821 0
M  V30 4807 H 460.747 4.74059 -3.86106 0
M  V30 4808 H 464.921 5.04535 -4.80018 0
M  V30 4809 H 462.548 5.27724 -5.47185 0
M  V30 4810 N 464.123 0.554532 1.47522 0
M  V30 4811 C 465.37 0.029479 2.02479 0
M  V30 4812 C 465.698 -1.31929 1.42916 0
M  V30 4813 O 464.953 -1.87112 0.573385 0
M  V30 4814 C 465.252 -0.115927 3.57212 0
M  V30 4815 C 464.918 1.16161 4.3568 0
M  V30 4816 C 463.58 1.51168 4.56839 0
M  V30 4817 C 465.932 2.0083 4.80954 0
M  V30 4818 C 463.26 2.70696 5.2052 0
M  V30 4819 C 465.612 3.19559 5.45953 0
M  V30 4820 C 464.276 3.54882 5.65345 0
M  V30 4821 H 463.546 0.0107871 0.740921 0
M  V30 4822 H 466.193 0.725506 1.77225 0
M  V30 4823 H 464.498 -0.894902 3.81443 0
M  V30 4824 H 466.195 -0.53749 3.97381 0
M  V30 4825 H 462.785 0.879026 4.19489 0
M  V30 4826 H 466.969 1.75093 4.64388 0
M  V30 4827 H 462.225 2.98236 5.33728 0
M  V30 4828 H 466.399 3.85456 5.79997 0
M  V30 4829 H 464.026 4.47596 6.1446 0
M  V30 4830 N 465.601 -1.54893 0.290851 0
M  V30 4831 C 466.531 -2.26103 -0.583084 0
M  V30 4832 C 467.512 -1.25684 -1.14619 0
M  V30 4833 O 468.697 -1.54436 -1.17741 0
M  V30 4834 C 465.827 -2.99409 -1.75987 0
M  V30 4835 C 464.781 -4.0689 -1.32758 0
M  V30 4836 C 464.107 -4.67856 -2.58872 0
M  V30 4837 C 465.407 -5.20215 -0.46624 0
M  V30 4838 H 467.101 -2.99398 0.0108214 0
M  V30 4839 H 464.647 -1.43998 0.00664468 0
M  V30 4840 H 466.6 -3.47943 -2.37727 0
M  V30 4841 H 465.324 -2.23675 -2.37985 0
M  V30 4842 H 463.983 -3.59191 -0.733299 0
M  V30 4843 H 463.631 -3.88772 -3.19163 0
M  V30 4844 H 463.331 -5.40438 -2.30653 0
M  V30 4845 H 464.855 -5.19147 -3.21433 0
M  V30 4846 H 466.269 -5.64704 -0.989047 0
M  V30 4847 H 464.666 -5.99455 -0.27826 0
M  V30 4848 H 465.736 -4.82198 0.511173 0
M  V30 4849 N 467.08 -0.0183926 -1.57589 0
M  V30 4850 C 468.31 0.67207 -1.95363 0
M  V30 4851 C 468.718 1.66807 -0.892872 0
M  V30 4852 O 468.061 1.83204 0.134958 0
M  V30 4853 C 468.123 1.44397 -3.29226 0
M  V30 4854 C 467.787 0.607511 -4.52944 0
M  V30 4855 C 468.784 -0.112657 -5.19778 0
M  V30 4856 C 466.469 0.548068 -4.99301 0
M  V30 4857 C 468.463 -0.881057 -6.31281 0
M  V30 4858 C 466.15 -0.224044 -6.10689 0
M  V30 4859 C 467.148 -0.937323 -6.76538 0
M  V30 4860 O 466.836 -1.6968 -7.85789 0
M  V30 4861 H 466.568 0.190925 -0.648478 0
M  V30 4862 H 469.122 -0.0711994 -2.05277 0
M  V30 4863 H 467.352 2.23214 -3.15773 0
M  V30 4864 H 469.041 2.02152 -3.51979 0
M  V30 4865 H 469.807 -0.0759998 -4.8494 0
M  V30 4866 H 465.686 1.09281 -4.4786 0
M  V30 4867 H 469.23 -1.43832 -6.82611 0
M  V30 4868 H 465.127 -0.262457 -6.44966 0
M  V30 4869 H 465.895 -1.61544 -8.024 0
M  V30 4870 N 468.558 1.5553 0.254621 0
M  V30 4871 C 469.783 1.81383 1.00573 0
M  V30 4872 C 470.208 0.594419 1.78461 0
M  V30 4873 O 469.566 -0.456403 1.75461 0
M  V30 4874 C 469.614 3.04892 1.92545 0
M  V30 4875 O 468.718 2.81266 3.01601 0
M  V30 4876 H 468.059 0.598969 0.286587 0
M  V30 4877 H 470.589 2.02703 0.277952 0
M  V30 4878 H 470.599 3.34119 2.34155 0
M  V30 4879 H 469.274 3.93287 1.3527 0
M  V30 4880 H 467.851 2.63185 2.64174 0
M  V30 4881 N 470.036 -0.519951 1.48776 0
M  V30 4882 C 470.983 -1.62352 1.64044 0
M  V30 4883 C 471.953 -1.58945 0.482251 0
M  V30 4884 O 473.138 -1.77219 0.706971 0
M  V30 4885 C 470.278 -3.00579 1.69547 0
M  V30 4886 C 469.391 -3.14145 2.96541 0
M  V30 4887 C 468.526 -4.42991 2.93142 0
M  V30 4888 C 467.565 -4.50122 4.14797 0
M  V30 4889 N 466.702 -5.7037 4.09418 0
M  V30 4890 H 471.542 -1.48643 2.58281 0
M  V30 4891 H 469.079 -0.723516 1.28077 0
M  V30 4892 H 471.037 -3.80671 1.70719 0
M  V30 4893 H 469.667 -3.13036 0.787918 0
M  V30 4894 H 468.719 -2.27239 3.05068 0
M  V30 4895 H 470.031 -3.15275 3.86527 0
M  V30 4896 H 469.185 -5.31385 2.92772 0
M  V30 4897 H 467.924 -4.44398 2.00902 0
M  V30 4898 H 466.929 -3.60133 4.15433 0
M  V30 4899 H 468.154 -4.50445 5.08208 0
M  V30 4900 H 466.1 -5.72655 3.20004 0
M  V30 4901 H 466.017 -5.73036 4.93119 0
M  V30 4902 H 467.285 -6.61023 4.13121 0
M  V30 4903 N 471.514 -1.37532 -0.769588 0
M  V30 4904 C 472.444 -1.36172 -1.89682 0
M  V30 4905 C 473.425 -0.23001 -1.68538 0
M  V30 4906 O 474.61 -0.43069 -1.89364 0
M  V30 4907 C 471.74 -1.1701 -3.26995 0
M  V30 4908 C 470.694 -2.27216 -3.62708 0
M  V30 4909 C 470.02 -1.93174 -4.98586 0
M  V30 4910 C 471.32 -3.6941 -3.69234 0
M  V30 4911 H 473.014 -2.30499 -1.91078 0
M  V30 4912 H 470.56 -1.10953 -0.917902 0
M  V30 4913 H 472.513 -1.14688 -4.05493 0
M  V30 4914 H 471.237 -0.191395 -3.26039 0
M  V30 4915 H 469.896 -2.28697 -2.86519 0
M  V30 4916 H 469.544 -0.938281 -4.94171 0
M  V30 4917 H 469.244 -2.66973 -5.23449 0
M  V30 4918 H 470.768 -1.92443 -5.79481 0
M  V30 4919 H 472.182 -3.70047 -4.37879 0
M  V30 4920 H 470.579 -4.4228 -4.05597 0
M  V30 4921 H 471.649 -4.0288 -2.69844 0
M  V30 4922 N 472.992 0.995999 -1.22138 0
M  V30 4923 C 474.22 1.77066 -1.07029 0
M  V30 4924 C 474.635 1.8495 0.379357 0
M  V30 4925 O 473.992 1.3174 1.26297 0
M  V30 4926 C 474.043 3.20533 -1.67155 0
M  V30 4927 O 473.764 3.13082 -3.06449 0
M  V30 4928 C 475.265 4.14461 -1.5728 0
M  V30 4929 H 472.485 0.556179 -0.375374 0
M  V30 4930 H 475.029 1.25238 -1.61666 0
M  V30 4931 H 473.184 3.6944 -1.16589 0
M  V30 4932 H 473.598 4.03283 -3.35355 0
M  V30 4933 H 475.072 5.1289 -2.04078 0
M  V30 4934 H 475.549 4.36005 -0.528795 0
M  V30 4935 H 476.155 3.71449 -2.07136 0
M  V30 4936 N 474.47 1.03057 1.19235 0
M  V30 4937 C 475.716 0.729098 1.89241 0
M  V30 4938 C 476.049 -0.740573 1.79525 0
M  V30 4939 O 475.324 -1.53946 1.18874 0
M  V30 4940 C 475.607 1.18304 3.40112 0
M  V30 4941 C 475.46 2.71406 3.5869 0
M  V30 4942 C 476.779 0.765161 4.33397 0
M  V30 4943 H 473.898 0.266338 0.687192 0
M  V30 4944 H 476.54 1.28079 1.40341 0
M  V30 4945 H 474.69 0.713672 3.81889 0
M  V30 4946 H 476.362 3.26303 3.26074 0
M  V30 4947 H 474.605 3.11717 3.01687 0
M  V30 4948 H 475.276 2.98225 4.64506 0
M  V30 4949 H 477.752 1.16889 3.99345 0
M  V30 4950 H 476.628 1.11065 5.37546 0
M  V30 4951 H 476.889 -0.332372 4.40849 0
M  V30 4952 N 475.948 -1.35272 0.808662 0
M  V30 4953 C 477.225 -1.93077 0.313181 0
M  V30 4954 C 477.605 -1.73847 -1.19752 0
M  V30 4955 O 476.953 -1.1087 -1.998 0
M  V30 4956 C 477.163 -3.41347 0.726859 0
M  V30 4957 C 478.511 -4.18493 0.717532 0
M  V30 4958 O 479.535 -3.4987 0.668535 0
M  V30 4959 O 478.394 -5.40937 0.777779 0
M  V30 4960 H 475.488 -0.822885 0.0824018 0
M  V30 4961 H 478.034 -1.44335 0.892499 0
M  V30 4962 H 476.806 -3.49082 1.76797 0
M  V30 4963 H 476.429 -3.97411 0.122461 0
M  V30 4964 N 477.426 -0.562348 -1.47226 0
M  V30 4965 C 478.373 0.182461 -2.30078 0
M  V30 4966 C 479.343 0.903503 -1.39377 0
M  V30 4967 O 480.528 0.898188 -1.68337 0
M  V30 4968 C 477.668 1.20322 -3.23445 0
M  V30 4969 C 476.781 0.487717 -4.29238 0
M  V30 4970 C 475.916 1.49422 -5.09752 0
M  V30 4971 C 474.955 0.763976 -6.07314 0
M  V30 4972 N 474.092 1.71755 -6.80768 0
M  V30 4973 H 478.932 -0.530169 -2.93246 0
M  V30 4974 H 476.469 -0.273276 -1.44539 0
M  V30 4975 H 478.427 1.80768 -3.76004 0
M  V30 4976 H 477.057 1.88382 -2.6213 0
M  V30 4977 H 476.109 -0.231374 -3.79696 0
M  V30 4978 H 477.421 -0.0841003 -4.98729 0
M  V30 4979 H 476.575 2.17206 -5.66486 0
M  V30 4980 H 475.314 2.09995 -4.40174 0
M  V30 4981 H 474.319 0.0722344 -5.49753 0
M  V30 4982 H 475.544 0.16391 -6.78902 0
M  V30 4983 H 473.49 2.31177 -6.13916 0
M  V30 4984 H 473.407 1.19802 -7.46447 0
M  V30 4985 H 474.675 2.38638 -7.42073 0
M  V30 4986 N 478.904 1.54736 -0.299062 0
M  V30 4987 C 480.129 2.04975 0.316254 0
M  V30 4988 C 480.554 1.17501 1.46885 0
M  V30 4989 O 479.912 0.178678 1.80417 0
M  V30 4990 C 479.96 3.52672 0.751997 0
M  V30 4991 O 479.064 3.68226 1.85697 0
M  V30 4992 H 478.405 0.661126 0.0617175 0
M  V30 4993 H 480.935 1.99805 -0.440341 0
M  V30 4994 H 480.945 3.94488 1.04133 0
M  V30 4995 H 479.62 4.158 -0.0911482 0
M  V30 4996 H 478.197 3.38316 1.56834 0
M  V30 4997 N 480.382 0.0267497 1.57577 0
M  V30 4998 C 481.798 -0.32962 1.56159 0
M  V30 4999 C 481.998 -1.73059 1.03213 0
M  V30 5000 O 481.054 -2.43233 0.677804 0
M  V30 5001 C 482.367 -0.18039 3.00158 0
M  V30 5002 C 483.915 -0.253334 3.11973 0
M  V30 5003 C 484.39 -0.132921 4.57807 0
M  V30 5004 N 485.881 -0.189979 4.6281 0
M  V30 5005 C 486.616 -0.120554 5.73273 0
M  V30 5006 N 486.112 -0.000180315 6.928 0
M  V30 5007 N 487.905 -0.174369 5.61829 0
M  V30 5008 H 480.056 0.942896 1.90324 0
M  V30 5009 H 482.319 0.3639 0.875375 0
M  V30 5010 H 482.025 0.784576 3.42837 0
M  V30 5011 H 481.899 -0.951565 3.65 0
M  V30 5012 H 484.286 -1.20876 2.69208 0
M  V30 5013 H 484.367 0.548177 2.49857 0
M  V30 5014 H 484.011 0.819073 5.01252 0
M  V30 5015 H 483.941 -0.953264 5.179 0
M  V30 5016 H 486.432 -0.283257 3.76837 0
M  V30 5017 H 486.745 0.0461666 7.72786 0
M  V30 5018 H 485.09 0.034569 6.94991 0
M  V30 5019 H 488.281 -0.266794 4.67339 0
M  V30 5020 H 488.454 -0.116802 6.47895 0
M  V30 5021 N 481.861 -1.55662 -0.24637 0
M  V30 5022 C 483.107 -1.78698 -0.971525 0
M  V30 5023 C 483.462 -0.59577 -1.82944 0
M  V30 5024 O 482.755 0.41097 -1.87141 0
M  V30 5025 C 482.949 -3.04885 -1.86494 0
M  V30 5026 C 482.778 -4.36165 -1.09501 0
M  V30 5027 C 481.548 -4.98929 -0.799895 0
M  V30 5028 C 483.746 -5.12126 -0.472334 0
M  V30 5029 N 481.728 -6.139 -0.00595299 0
M  V30 5030 C 483.099 -6.1972 0.18616 0
M  V30 5031 C 485.154 -4.96426 -0.382854 0
M  V30 5032 C 483.857 -7.13321 0.925542 0
M  V30 5033 C 485.883 -5.90405 0.342999 0
M  V30 5034 C 485.245 -6.97407 0.990128 0
M  V30 5035 H 481.344 -0.705852 -0.336597 0
M  V30 5036 H 483.928 -1.93157 -0.244615 0
M  V30 5037 H 482.099 -2.91753 -2.56388 0
M  V30 5038 H 483.831 -3.16212 -2.5257 0
M  V30 5039 H 480.586 -4.60365 -1.11181 0
M  V30 5040 H 481.01 -6.75938 0.379127 0
M  V30 5041 H 485.652 -4.13777 -0.868834 0
M  V30 5042 H 483.37 -7.9547 1.42312 0
M  V30 5043 H 486.956 -5.80333 0.412907 0
M  V30 5044 H 485.836 -7.68874 1.54282 0
M  V30 5045 N 483.339 0.512053 -1.4905 0
M  V30 5046 C 484.271 1.63121 -1.6101 0
M  V30 5047 C 485.284 1.55145 -0.493352 0
M  V30 5048 O 486.473 1.61278 -0.764955 0
M  V30 5049 C 483.573 3.01863 -1.54052 0
M  V30 5050 C 482.746 3.35138 -2.81072 0
M  V30 5051 C 481.805 4.5324 -2.67319 0
M  V30 5052 O 480.831 4.55571 -3.41238 0
M  V30 5053 N 482.033 5.52495 -1.78127 0
M  V30 5054 H 484.798 1.53292 -2.5753 0
M  V30 5055 H 482.359 0.699706 -1.45999 0
M  V30 5056 H 484.351 3.78774 -1.42521 0
M  V30 5057 H 482.921 3.05675 -0.654345 0
M  V30 5058 H 482.141 2.4723 -3.07036 0
M  V30 5059 H 483.429 3.54162 -3.65304 0
M  V30 5060 H 482.827 5.53403 -1.17308 0
M  V30 5061 H 481.384 6.28553 -1.72525 0
M  V30 5062 N 484.817 1.37938 0.762283 0
M  V30 5063 C 485.749 1.30349 1.88525 0
M  V30 5064 C 486.762 0.217402 1.61342 0
M  V30 5065 O 487.951 0.474291 1.72084 0
M  V30 5066 C 485.051 0.994844 3.23969 0
M  V30 5067 C 484.224 2.18829 3.78725 0
M  V30 5068 C 483.283 1.84844 4.92665 0
M  V30 5069 O 482.309 2.57244 5.07754 0
M  V30 5070 N 483.511 0.798201 5.74986 0
M  V30 5071 H 486.276 2.27114 1.95549 0
M  V30 5072 H 483.837 1.31686 0.941825 0
M  V30 5073 H 485.829 0.748168 3.97724 0
M  V30 5074 H 484.399 0.115446 3.12387 0
M  V30 5075 H 483.619 2.59615 2.96637 0
M  V30 5076 H 484.907 2.98497 4.1204 0
M  V30 5077 H 484.305 0.197611 5.65355 0
M  V30 5078 H 482.862 0.611396 6.48926 0
M  V30 5079 N 486.295 -0.989507 1.22664 0
M  V30 5080 C 487.543 -1.72612 1.05117 0
M  V30 5081 C 487.864 -1.90552 -0.414131 0
M  V30 5082 O 487.134 -1.4676 -1.29762 0
M  V30 5083 H 485.714 -0.639555 0.385977 0
M  V30 5084 H 488.376 -1.19158 1.54232 0
M  V30 5085 H 487.472 -2.71926 1.53175 0
M  V30 5086 N 487.773 -1.03688 -1.18687 0
M  V30 5087 C 488.721 -0.618292 -2.24232 0
M  V30 5088 C 489.715 0.353045 -1.6568 0
M  V30 5089 O 490.921 0.220749 -1.78641 0
M  V30 5090 H 487.296 -0.181711 -0.729716 0
M  V30 5091 H 489.267 -1.51893 -2.56848 0
M  V30 5092 C 488.016 0.00677342 -3.47699 0
M  V30 5093 H 487.339 -0.731692 -3.93047 0
M  V30 5094 H 488.779 0.262492 -4.23187 0
M  V30 5095 C 487.238 1.25572 -3.12623 0
M  V30 5096 O 487.768 2.34691 -3.26011 0
M  V30 5097 N 485.974 1.14755 -2.66982 0
M  V30 5098 H 485.521 0.259601 -2.56289 0
M  V30 5099 H 485.479 1.98412 -2.43885 0
M  V30 5100 N 489.251 1.34841 -0.815825 0
M  V30 5101 C 490.497 1.98793 -0.401129 0
M  V30 5102 C 490.83 1.64548 1.03139 0
M  V30 5103 O 490.105 0.913487 1.71714 0
M  V30 5104 C 490.388 3.55143 -0.595409 0
M  V30 5105 C 490.241 3.99155 -2.07352 0
M  V30 5106 C 491.56 4.40092 -0.0268823 0
M  V30 5107 H 488.679 0.722146 -0.14722 0
M  V30 5108 H 491.321 1.59847 -1.02707 0
M  V30 5109 H 489.471 3.8845 -0.0625779 0
M  V30 5110 H 491.143 3.76216 -2.66945 0
M  V30 5111 H 489.386 3.49726 -2.56659 0
M  V30 5112 H 490.057 5.07971 -2.1603 0
M  V30 5113 H 492.533 4.13298 -0.482042 0
M  V30 5114 H 491.409 5.48562 -0.19267 0
M  V30 5115 H 491.67 4.29016 1.06759 0
M  V30 5116 N 490.729 0.570148 1.46925 0
M  V30 5117 C 491.976 0.0509529 2.02436 0
M  V30 5118 C 492.304 -1.30405 1.44308 0
M  V30 5119 O 491.559 -1.86493 0.593198 0
M  V30 5120 C 491.858 -0.0780336 3.57315 0
M  V30 5121 C 491.524 1.20775 4.34424 0
M  V30 5122 C 490.186 1.56004 4.5521 0
M  V30 5123 C 492.538 2.0592 4.78797 0
M  V30 5124 C 489.866 2.76201 5.17619 0
M  V30 5125 C 492.218 3.25332 5.42533 0
M  V30 5126 C 490.882 3.60859 5.61549 0
M  V30 5127 H 490.152 0.018645 0.740765 0
M  V30 5128 H 492.799 0.744262 1.76445 0
M  V30 5129 H 491.104 -0.854394 3.82371 0
M  V30 5130 H 492.801 -0.495312 3.97929 0
M  V30 5131 H 489.391 0.923469 4.18533 0
M  V30 5132 H 493.575 1.80008 4.62505 0
M  V30 5133 H 488.831 3.0388 5.30535 0
M  V30 5134 H 493.005 3.91586 5.75876 0
M  V30 5135 H 490.632 4.54088 6.09678 0
M  V30 5136 N 492.207 -1.54576 0.307264 0
M  V30 5137 C 493.432 -2.05139 -0.305379 0
M  V30 5138 C 493.857 -1.18278 -1.46259 0
M  V30 5139 O 493.215 -0.188243 -1.8032 0
M  V30 5140 C 493.263 -3.53066 -0.733283 0
M  V30 5141 O 492.367 -3.69206 -1.83741 0
M  V30 5142 H 491.708 -0.661444 -0.0582105 0
M  V30 5143 H 494.238 -1.99569 0.450931 0
M  V30 5144 H 494.248 -3.95034 -1.02039 0
M  V30 5145 H 492.923 -4.15746 0.113198 0
M  V30 5146 H 491.5 -3.39143 -1.55037 0
M  V30 5147 N 493.685 -0.035106 -1.57561 0
M  V30 5148 C 494.925 0.646316 -1.93913 0
M  V30 5149 C 495.289 1.68947 -0.912185 0
M  V30 5150 O 496.49 2.42381 -1.1621 0
M  V30 5151 C 494.761 1.24136 -3.35149 0
M  V30 5152 S 496.32 1.94302 -3.93436 0
M  V30 5153 H 493.138 0.212642 -0.678457 0
M  V30 5154 H 495.74 -0.100203 -1.95243 0
M  V30 5155 H 494.444 0.46979 -4.07702 0
M  V30 5156 H 493.975 2.02505 -3.37276 0
M  V30 5157 H 495.99 3.22205 -3.77357 0
M  V30 5158 N 495.163 1.55791 0.238111 0
M  V30 5159 C 496.388 1.8244 0.986432 0
M  V30 5160 C 496.813 0.613314 1.7782 0
M  V30 5161 O 496.171 -0.437767 1.75935 0
M  V30 5162 C 496.219 3.06917 1.893 0
M  V30 5163 O 495.323 2.84449 2.98601 0
M  V30 5164 H 494.664 0.601975 0.280218 0
M  V30 5165 H 497.194 2.02987 0.256437 0
M  V30 5166 H 497.204 3.36583 2.30598 0
M  V30 5167 H 495.879 3.947 1.31091 0
M  V30 5168 H 494.456 2.65972 2.61368 0
M  V30 5169 N 496.642 -0.504142 1.49319 0
M  V30 5170 C 497.888 -1.26033 1.58882 0
M  V30 5171 C 498.221 -1.92268 0.273274 0
M  V30 5172 O 497.496 -1.80567 -0.72291 0
M  V30 5173 C 497.779 -2.32976 2.7458 0
M  V30 5174 C 497.632 -1.71263 4.1592 0
M  V30 5175 C 498.951 -3.34561 2.85932 0
M  V30 5176 H 496.07 -0.456863 0.578312 0
M  V30 5177 H 498.712 -0.558965 1.81592 0
M  V30 5178 H 496.862 -2.92796 2.55348 0
M  V30 5179 H 498.534 -1.15294 4.4666 0
M  V30 5180 H 496.777 -1.01686 4.21714 0
M  V30 5181 H 497.448 -2.48816 4.92742 0
M  V30 5182 H 499.924 -2.84727 3.0343 0
M  V30 5183 H 498.8 -4.06754 3.68568 0
M  V30 5184 H 499.061 -3.96695 1.95154 0
M  V30 5185 N 498.12 -1.38341 -0.754957 0
M  V30 5186 C 499.053 -1.29837 -1.87663 0
M  V30 5187 C 500.031 -0.175659 -1.61648 0
M  V30 5188 O 501.215 -0.352745 -1.8517 0
M  V30 5189 C 498.342 -1.01141 -3.23246 0
M  V30 5190 C 497.388 -2.15331 -3.6815 0
M  V30 5191 S 498.221 -3.77459 -3.79849 0
M  V30 5192 C 499.377 -3.50948 -5.18253 0
M  V30 5193 H 499.61 -2.24771 -1.9459 0
M  V30 5194 H 497.143 -1.24161 -0.917796 0
M  V30 5195 H 499.101 -0.852687 -4.01546 0
M  V30 5196 H 497.762 -0.0792784 -3.14 0
M  V30 5197 H 496.955 -1.90795 -4.6649 0
M  V30 5198 H 496.557 -2.27304 -2.97 0
M  V30 5199 H 498.849 -3.06977 -6.03963 0
M  V30 5200 H 499.792 -4.48677 -5.47809 0
M  V30 5201 H 500.2 -2.85492 -4.86985 0
M  V30 5202 N 499.598 0.982988 -1.23187 0
M  V30 5203 C 500.548 2.05962 -0.977942 0
M  V30 5204 C 501.532 1.60725 0.0751148 0
M  V30 5205 O 502.724 1.76471 -0.136683 0
M  V30 5206 C 499.853 3.38564 -0.568276 0
M  V30 5207 C 498.939 3.90407 -1.6566 0
M  V30 5208 N 499.33 4.15359 -2.88635 0
M  V30 5209 C 497.628 4.18915 -1.53058 0
M  V30 5210 C 498.329 4.57642 -3.5908 0
M  V30 5211 N 497.305 4.6192 -2.86584 0
M  V30 5212 H 501.107 2.23208 -1.91195 0
M  V30 5213 H 498.621 1.16555 -1.13087 0
M  V30 5214 H 500.618 4.15276 -0.36764 0
M  V30 5215 H 499.278 3.22712 0.358713 0
M  V30 5216 H 500.289 4.03258 -3.24966 0
M  V30 5217 H 496.966 4.12081 -0.670506 0
M  V30 5218 H 498.356 4.85488 -4.6449 0
M  V30 5219 N 501.076 1.04316 1.18135 0
M  V30 5220 C 501.986 0.646876 2.25505 0
M  V30 5221 C 503.002 -0.328008 1.7088 0
M  V30 5222 O 504.178 -0.182309 2.00573 0
M  V30 5223 C 501.243 0.0185664 3.46695 0
M  V30 5224 C 500.304 1.04277 4.16443 0
M  V30 5225 C 499.537 0.444352 5.31847 0
M  V30 5226 O 499.76 -0.748735 5.65465 0
M  V30 5227 O 498.694 1.17428 5.90334 0
M  V30 5228 H 502.52 1.54147 2.61672 0
M  V30 5229 H 500.105 0.814188 1.25265 0
M  V30 5230 H 501.987 -0.331068 4.20097 0
M  V30 5231 H 500.662 -0.849814 3.12346 0
M  V30 5232 H 499.569 1.44425 3.45098 0
M  V30 5233 H 500.902 1.882 4.54798 0
M  V30 5234 N 502.554 -1.34406 0.822964 0
M  V30 5235 C 503.517 -2.2783 0.250271 0
M  V30 5236 C 504.517 -1.50288 -0.571854 0
M  V30 5237 O 505.707 -1.69825 -0.387952 0
M  V30 5238 C 502.839 -3.34663 -0.649137 0
M  V30 5239 H 504.032 -2.79992 1.07444 0
M  V30 5240 H 501.585 -1.44539 0.594829 0
M  V30 5241 H 502.32 -2.87714 -1.49637 0
M  V30 5242 H 502.105 -3.92052 -0.0611199 0
M  V30 5243 H 503.595 -4.04349 -1.04363 0
M  V30 5244 N 504.032 -0.577932 -1.46621 0
M  V30 5245 C 504.962 0.145917 -2.33044 0
M  V30 5246 C 505.943 0.888412 -1.45056 0
M  V30 5247 O 507.128 0.864812 -1.73881 0
M  V30 5248 C 504.258 1.16322 -3.27241 0
M  V30 5249 C 503.212 0.535868 -4.24632 0
M  V30 5250 C 502.538 1.65929 -5.08303 0
M  V30 5251 C 503.838 -0.523861 -5.19666 0
M  V30 5252 H 505.532 -0.575636 -2.93814 0
M  V30 5253 H 503.078 -0.278272 -1.41286 0
M  V30 5254 H 505.031 1.67793 -3.86553 0
M  V30 5255 H 503.755 1.91498 -2.64567 0
M  V30 5256 H 502.414 0.0422759 -3.66576 0
M  V30 5257 H 502.062 2.40061 -4.42018 0
M  V30 5258 H 501.762 1.2452 -5.74255 0
M  V30 5259 H 503.286 2.17686 -5.70478 0
M  V30 5260 H 504.7 -0.0944059 -5.73222 0
M  V30 5261 H 503.097 -0.858 -5.93935 0
M  V30 5262 H 504.167 -1.41197 -4.63887 0
M  V30 5263 N 505.51 1.54411 -0.315457 0
M  V30 5264 C 506.46 2.20772 0.569549 0
M  V30 5265 C 507.444 1.18551 1.08787 0
M  V30 5266 O 508.636 1.44213 1.02624 0
M  V30 5267 C 505.765 2.96293 1.73394 0
M  V30 5268 C 504.851 4.05844 1.2309 0
M  V30 5269 N 505.242 5.03822 0.446927 0
M  V30 5270 C 503.54 4.19648 1.51035 0
M  V30 5271 C 504.241 5.8143 0.17725 0
M  V30 5272 N 503.217 5.38245 0.761118 0
M  V30 5273 H 507.019 2.93877 -0.0368076 0
M  V30 5274 H 504.533 1.61949 -0.120915 0
M  V30 5275 H 506.53 3.42313 2.37965 0
M  V30 5276 H 505.19 2.24708 2.34386 0
M  V30 5277 H 506.201 5.17821 0.0905027 0
M  V30 5278 H 502.878 3.59274 2.1267 0
M  V30 5279 H 504.268 6.70369 -0.45335 0
M  V30 5280 N 506.988 0.0434614 1.5754 0
M  V30 5281 C 507.936 -0.951465 2.1225 0
M  V30 5282 C 508.93 -1.3274 1.05245 0
M  V30 5283 O 510.136 -1.30795 1.23663 0
M  V30 5284 H 506.511 -0.324667 0.678303 0
M  V30 5285 H 508.482 -0.464855 2.94757 0
M  V30 5286 C 507.231 -2.21972 2.67626 0
M  V30 5287 H 506.554 -1.93923 3.4962 0
M  V30 5288 H 507.994 -2.89765 3.09536 0
M  V30 5289 C 506.453 -2.95919 1.61038 0
M  V30 5290 O 506.983 -3.8857 1.01862 0
M  V30 5291 N 505.189 -2.58511 1.32741 0
M  V30 5292 H 504.736 -1.83244 1.81051 0
M  V30 5293 H 504.694 -3.08296 0.616531 0
M  V30 5294 N 508.466 -1.55915 -0.229846 0
M  V30 5295 C 509.416 -1.8813 -1.28807 0
M  V30 5296 C 510.4 -0.743621 -1.42685 0
M  V30 5297 O 511.592 -1.00588 -1.4564 0
M  V30 5298 C 508.721 -2.19431 -2.64017 0
M  V30 5299 C 507.807 -3.39569 -2.54074 0
M  V30 5300 N 508.198 -4.58404 -2.13774 0
M  V30 5301 C 506.496 -3.43019 -2.85051 0
M  V30 5302 C 507.197 -5.40557 -2.1488 0
M  V30 5303 N 506.173 -4.80054 -2.55047 0
M  V30 5304 H 509.975 -2.77527 -0.967261 0
M  V30 5305 H 507.489 -1.5637 -0.438433 0
M  V30 5306 H 509.486 -2.40681 -3.40409 0
M  V30 5307 H 508.146 -1.31341 -2.9695 0
M  V30 5308 H 509.157 -4.83716 -1.8504 0
M  V30 5309 H 505.834 -2.65249 -3.22411 0
M  V30 5310 H 507.224 -6.45666 -1.85918 0
M  V30 5311 N 509.944 0.496216 -1.49584 0
M  V30 5312 C 511.174 1.27209 -1.62793 0
M  V30 5313 C 511.582 1.86799 -0.300476 0
M  V30 5314 O 510.925 1.68802 0.724674 0
M  V30 5315 C 510.987 2.43812 -2.64189 0
M  V30 5316 C 510.651 2.05055 -4.08414 0
M  V30 5317 C 511.648 1.58752 -4.9507 0
M  V30 5318 C 509.333 2.14543 -4.54177 0
M  V30 5319 C 511.327 1.22448 -6.25528 0
M  V30 5320 C 509.014 1.77851 -5.84647 0
M  V30 5321 C 510.012 1.31878 -6.70147 0
M  V30 5322 O 509.7 0.956834 -7.98185 0
M  V30 5323 H 509.432 0.391848 -0.550846 0
M  V30 5324 H 511.986 0.601712 -1.96389 0
M  V30 5325 H 510.216 3.13941 -2.25783 0
M  V30 5326 H 511.905 3.05829 -2.66877 0
M  V30 5327 H 512.671 1.50863 -4.60939 0
M  V30 5328 H 508.55 2.49277 -3.87791 0
M  V30 5329 H 512.094 0.864933 -6.92217 0
M  V30 5330 H 507.991 1.8539 -6.18305 0
M  V30 5331 H 508.759 1.08789 -8.11238 0
M  V30 5332 N 511.423 1.38739 0.74761 0
M  V30 5333 C 512.651 1.38521 1.53686 0
M  V30 5334 C 513.066 -0.0235129 1.88785 0
M  V30 5335 O 512.423 -0.991662 1.53207 0
M  V30 5336 C 512.474 2.24641 2.83229 0
M  V30 5337 O 512.195 3.60026 2.49625 0
M  V30 5338 C 513.696 2.32669 3.77333 0
M  V30 5339 H 510.916 0.473589 0.475347 0
M  V30 5340 H 513.46 1.82395 0.924786 0
M  V30 5341 H 511.615 1.84213 3.40799 0
M  V30 5342 H 512.029 4.05435 3.3275 0
M  V30 5343 H 513.503 2.97201 4.65162 0
M  V30 5344 H 513.98 1.3421 4.18192 0
M  V30 5345 H 514.586 2.73512 3.25685 0
M  V30 5346 N 512.901 -0.976442 1.23707 0
M  V30 5347 C 513.833 -2.07212 0.979574 0
M  V30 5348 C 514.846 -1.6273 -0.0478528 0
M  V30 5349 O 516.035 -1.77506 0.18815 0
M  V30 5350 C 513.135 -3.35835 0.45479 0
M  V30 5351 C 512.308 -4.09268 1.54331 0
M  V30 5352 C 511.367 -5.16166 1.02271 0
M  V30 5353 O 510.393 -5.42827 1.71254 0
M  V30 5354 N 511.595 -5.80313 -0.147419 0
M  V30 5355 H 514.36 -2.29878 1.92292 0
M  V30 5356 H 511.921 -1.14343 1.14618 0
M  V30 5357 H 513.913 -4.04597 0.0914631 0
M  V30 5358 H 512.483 -3.10106 -0.394068 0
M  V30 5359 H 511.703 -3.34906 2.07923 0
M  V30 5360 H 512.991 -4.55095 2.27522 0
M  V30 5361 H 512.389 -5.61043 -0.724353 0
M  V30 5362 H 510.946 -6.50231 -0.451972 0
M  V30 5363 N 514.379 -1.04941 -1.1758 0
M  V30 5364 C 515.326 -0.648155 -2.21512 0
M  V30 5365 C 516.296 0.348431 -1.62404 0
M  V30 5366 O 517.481 0.240419 -1.89279 0
M  V30 5367 C 514.621 -0.0264291 -3.4509 0
M  V30 5368 C 513.734 -1.07154 -4.185 0
M  V30 5369 C 512.869 -0.417403 -5.29558 0
M  V30 5370 C 511.908 -1.447 -5.94751 0
M  V30 5371 N 511.045 -0.817203 -6.97328 0
M  V30 5372 H 515.885 -1.53891 -2.55189 0
M  V30 5373 H 513.422 -0.769699 -1.25356 0
M  V30 5374 H 515.38 0.351456 -4.15717 0
M  V30 5375 H 514.01 0.827802 -3.12005 0
M  V30 5376 H 513.062 -1.56728 -3.46613 0
M  V30 5377 H 514.374 -1.8532 -4.63096 0
M  V30 5378 H 513.528 0.0142061 -6.06698 0
M  V30 5379 H 512.267 0.396265 -4.86087 0
M  V30 5380 H 511.272 -1.88865 -5.16343 0
M  V30 5381 H 512.497 -2.26252 -6.40302 0
M  V30 5382 H 510.443 -0.0239995 -6.55996 0
M  V30 5383 H 510.36 -1.53644 -7.40223 0
M  V30 5384 H 511.628 -0.410283 -7.7842 0
M  V30 5385 N 515.857 1.33968 -0.830081 0
M  V30 5386 C 517.082 2.02813 -0.433796 0
M  V30 5387 C 517.507 1.62076 0.954614 0
M  V30 5388 O 516.865 0.808955 1.62252 0
M  V30 5389 C 516.913 3.56348 -0.552115 0
M  V30 5390 O 516.017 4.10202 0.425191 0
M  V30 5391 H 515.358 0.639817 -0.177567 0
M  V30 5392 H 517.888 1.7106 -1.12248 0
M  V30 5393 H 517.898 4.05722 -0.430513 0
M  V30 5394 H 516.573 3.85344 -1.56471 0
M  V30 5395 H 515.15 3.71979 0.261878 0
M  V30 5396 N 517.335 0.585699 1.46312 0
M  V30 5397 C 518.265 -0.133556 2.33118 0
M  V30 5398 C 519.246 -0.880707 1.45525 0
M  V30 5399 O 520.431 -0.855579 1.74337 0
M  V30 5400 C 517.561 -1.14585 3.27853 0
M  V30 5401 C 516.515 -0.513341 4.2491 0
M  V30 5402 C 515.841 -1.63231 5.09175 0
M  V30 5403 C 517.141 0.551413 5.19381 0
M  V30 5404 H 518.835 0.59121 2.93505 0
M  V30 5405 H 516.381 0.285761 1.41136 0
M  V30 5406 H 518.334 -1.65741 3.87438 0
M  V30 5407 H 517.058 -1.90093 2.65579 0
M  V30 5408 H 515.717 -0.0228349 3.66593 0
M  V30 5409 H 515.365 -2.37713 4.43285 0
M  V30 5410 H 515.065 -1.21473 5.74907 0
M  V30 5411 H 516.589 -2.14658 5.71624 0
M  V30 5412 H 518.003 0.124804 5.73164 0
M  V30 5413 H 516.4 0.889486 5.93471 0
M  V30 5414 H 517.47 1.43655 4.63132 0
M  V30 5415 N 518.813 -1.54241 0.323641 0
M  V30 5416 C 520.038 -2.05452 -0.283605 0
M  V30 5417 C 520.463 -1.19823 -1.44997 0
M  V30 5418 O 519.821 -0.207358 -1.8011 0
M  V30 5419 C 519.869 -3.53823 -0.695795 0
M  V30 5420 O 518.973 -3.71134 -1.79815 0
M  V30 5421 H 518.314 -0.662024 -0.0511917 0
M  V30 5422 H 520.844 -1.99079 0.472073 0
M  V30 5423 H 520.854 -3.96094 -0.978434 0
M  V30 5424 H 519.529 -4.15602 0.157287 0
M  V30 5425 H 518.106 -3.40768 -1.51431 0
M  V30 5426 N 520.291 -0.0518155 -1.57515 0
M  V30 5427 C 521.221 0.920283 -2.146 0
M  V30 5428 C 522.202 1.32406 -1.06783 0
M  V30 5429 O 523.387 1.39866 -1.34726 0
M  V30 5430 C 520.517 2.1949 -2.6915 0
M  V30 5431 C 519.471 1.93116 -3.81956 0
M  V30 5432 C 518.797 3.27037 -4.23026 0
M  V30 5433 C 520.097 1.25225 -5.07066 0
M  V30 5434 H 521.791 0.444801 -2.96077 0
M  V30 5435 H 519.337 0.212508 -1.42423 0
M  V30 5436 H 521.29 2.87894 -3.07725 0
M  V30 5437 H 520.014 2.69244 -1.84865 0
M  V30 5438 H 518.673 1.27123 -3.43854 0
M  V30 5439 H 518.321 3.74595 -3.3569 0
M  V30 5440 H 518.021 3.10189 -4.99056 0
M  V30 5441 H 519.545 3.96673 -4.64202 0
M  V30 5442 H 520.959 1.83666 -5.43083 0
M  V30 5443 H 519.356 1.18702 -5.88243 0
M  V30 5444 H 520.426 0.228382 -4.84362 0
M  V30 5445 N 521.769 1.56035 0.221574 0
M  V30 5446 C 522.994 1.83476 0.967026 0
M  V30 5447 C 523.419 0.632139 1.7716 0
M  V30 5448 O 522.777 -0.419082 1.7639 0
M  V30 5449 C 522.825 3.08907 1.86034 0
M  V30 5450 O 521.929 2.876 2.95567 0
M  V30 5451 H 521.27 0.604913 0.273817 0
M  V30 5452 H 523.8 2.03247 0.234893 0
M  V30 5453 H 523.81 3.3901 2.27016 0
M  V30 5454 H 522.485 3.96068 1.26898 0
M  V30 5455 H 521.062 2.6873 2.58532 0
M  V30 5456 N 523.247 -0.488276 1.49845 0
M  V30 5457 C 524.658 -1.06955 1.53028 0
M  V30 5458 C 525.009 -1.9351 0.323797 0
M  V30 5459 O 524.134 -2.08891 -0.565116 0
M  V30 5460 C 524.729 -1.94643 2.77307 0
M  V30 5461 C 523.288 -2.4791 2.83227 0
M  V30 5462 C 522.435 -1.25833 2.47106 0
M  V30 5463 H 525.386 -0.271626 1.56358 0
M  V30 5464 H 525.407 -2.79496 2.5819 0
M  V30 5465 H 524.919 -1.31621 3.65099 0
M  V30 5466 H 523.02 -3.14535 1.99745 0
M  V30 5467 H 523.133 -2.84193 3.85709 0
M  V30 5468 H 521.497 -1.58764 1.99163 0
M  V30 5469 H 522.28 -0.644993 3.37186 0
M  V30 5470 N 524.725 -1.39134 -0.740242 0
M  V30 5471 C 525.973 -1.35803 -1.49673 0
M  V30 5472 C 526.294 0.0470897 -1.94943 0
M  V30 5473 O 525.564 0.997347 -1.68611 0
M  V30 5474 H 524.144 -0.499736 -0.555224 0
M  V30 5475 H 526.806 -1.73947 -0.879107 0
M  V30 5476 H 525.902 -2.0174 -2.38133 0
M  V30 5477 N 526.204 0.969867 -1.24223 0
M  V30 5478 C 527.151 2.06407 -1.0327 0
M  V30 5479 C 528.121 1.66014 0.0533 0
M  V30 5480 O 529.306 1.90533 -0.100896 0
M  V30 5481 C 526.446 3.3909 -0.641262 0
M  V30 5482 C 525.559 3.9269 -1.80051 0
M  V30 5483 C 524.694 5.13631 -1.35486 0
M  V30 5484 C 523.733 5.59423 -2.48419 0
M  V30 5485 N 522.87 6.71586 -2.04737 0
M  V30 5486 H 527.71 2.23663 -1.96923 0
M  V30 5487 H 525.247 1.09624 -0.980862 0
M  V30 5488 H 527.205 4.15323 -0.395351 0
M  V30 5489 H 525.835 3.21765 0.258269 0
M  V30 5490 H 524.887 3.13116 -2.16014 0
M  V30 5491 H 526.199 4.22636 -2.64916 0
M  V30 5492 H 525.353 5.97231 -1.0677 0
M  V30 5493 H 524.092 4.85364 -0.476722 0
M  V30 5494 H 523.097 4.74398 -2.77897 0
M  V30 5495 H 524.322 5.89705 -3.36786 0
M  V30 5496 H 522.268 6.45058 -1.19318 0
M  V30 5497 H 522.185 7.0097 -2.83156 0
M  V30 5498 H 523.453 7.58633 -1.79154 0
M  V30 5499 O 527.721 1.18047 1.10214 0
M  V30 5500 H 528.412 0.921332 1.70385 0
M  V30 END ATOM
M  V30 BEGIN BOND
M  V30 END BOND
M  V30 END CTAB
M  END
$$$$
