drugbank_target|P60953 Cell division control protein 42 homolog (DB02623; DB04315)
 OpenBabel12092120563D

  0  0  0     0  0            999 V3000
M  V30 BEGIN CTAB
M  V30 COUNTS 3019 3052 0 0 0
M  V30 BEGIN ATOM
M  V30 1 H -0.908 1.98254 -0.117106 0
M  V30 2 N 0 1.576 0 0
M  V30 3 C 0.933 2.03868 1.02534 0
M  V30 4 C 1.911 0.928543 1.3348 0
M  V30 5 O 3.095 1.19667 1.45644 0
M  V30 6 C 0.222 2.43627 2.35294 0
M  V30 7 C -0.732 3.65373 2.2001 0
M  V30 8 S 0.101 5.13292 1.52614 0
M  V30 9 C 1.257 5.56322 2.86805 0
M  V30 10 H 1.49 2.90518 0.631377 0
M  V30 11 H -0.977 1.52953 0.210867 0
M  V30 12 H 0.981 2.67203 3.11629 0
M  V30 13 H -0.358 1.57376 2.7183 0
M  V30 14 H -1.165 3.90944 3.18086 0
M  V30 15 H -1.563 3.418 1.51819 0
M  V30 16 H 0.729 5.58782 3.83104 0
M  V30 17 H 1.672 6.56266 2.65933 0
M  V30 18 H 2.08 4.83886 2.90714 0
M  V30 19 N 1.4781 -0.272755 1.55222 0
M  V30 20 C 2.4101 -1.35946 1.8453 0
M  V30 21 C 3.4231 -1.45525 0.729818 0
M  V30 22 O 4.6121 -1.47337 1.00767 0
M  V30 23 C 1.7121 -2.74069 1.99347 0
M  V30 24 C 0.8851 -2.87079 3.30007 0
M  V30 25 C -0.0559 -4.05879 3.34886 0
M  V30 26 O -1.0299 -3.96626 4.08261 0
M  V30 27 N 0.1721 -5.17857 2.62307 0
M  V30 28 H 2.9371 -1.11149 2.78327 0
M  V30 29 H 0.4981 -0.462869 1.55142 0
M  V30 30 H 2.4901 -3.51838 1.99981 0
M  V30 31 H 1.0601 -2.91688 1.12415 0
M  V30 32 H 0.2801 -1.96193 3.41909 0
M  V30 33 H 1.5681 -2.92701 4.16177 0
M  V30 34 H 0.9661 -5.28261 2.02377 0
M  V30 35 H -0.4769 -5.93855 2.68663 0
M  V30 36 N 2.9562 -1.48159 -0.537278 0
M  V30 37 C 4.1842 -1.59454 -1.31841 0
M  V30 38 C 4.5992 -0.252065 -1.8711 0
M  V30 39 O 3.9562 0.757621 -1.66031 0
M  V30 40 C 4.0072 -2.63546 -2.47439 0
M  V30 41 O 3.7282 -3.92583 -1.94449 0
M  V30 42 C 5.2292 -2.85212 -3.39366 0
M  V30 43 H 2.4492 -0.53785 -0.401196 0
M  V30 44 H 4.9932 -1.93932 -0.648891 0
M  V30 45 H 3.1482 -2.31946 -3.1029 0
M  V30 46 H 3.5622 -4.49629 -2.70063 0
M  V30 47 H 5.0362 -3.61863 -4.16844 0
M  V30 48 H 5.5132 -1.93765 -3.94147 0
M  V30 49 H 6.1192 -3.18086 -2.82314 0
M  V30 50 N 4.4343 0.785586 -1.36625 0
M  V30 51 C 5.6833 1.53883 -1.30396 0
M  V30 52 C 5.9963 1.95271 0.113452 0
M  V30 53 O 7.2023 2.69858 0.298142 0
M  V30 54 C 5.6583 2.77808 -2.28802 0
M  V30 55 C 5.2663 2.43574 -3.75999 0
M  V30 56 C 7.0103 3.55783 -2.31558 0
M  V30 57 C 4.9173 3.63919 -4.66173 0
M  V30 58 H 3.8473 0.577678 -0.484566 0
M  V30 59 H 6.4983 0.861705 -1.62009 0
M  V30 60 H 4.8803 3.47339 -1.90188 0
M  V30 61 H 6.0543 1.81916 -4.23371 0
M  V30 62 H 4.3693 1.78803 -3.76056 0
M  V30 63 H 6.9663 4.45205 -2.96137 0
M  V30 64 H 7.3093 3.94644 -1.3252 0
M  V30 65 H 7.8423 2.93235 -2.68809 0
M  V30 66 H 4.5813 3.3015 -5.66287 0
M  V30 67 H 4.1013 4.2473 -4.23515 0
M  V30 68 H 5.7803 4.30901 -4.82632 0
M  V30 69 N 5.9124 1.20967 1.01018 0
M  V30 70 C 6.8594 0.964281 2.09691 0
M  V30 71 C 7.8294 -0.107853 1.65749 0
M  V30 72 O 9.0144 0.0381987 1.90762 0
M  V30 73 C 6.1544 0.52943 3.41015 0
M  V30 74 C 5.2674 1.67043 3.98398 0
M  V30 75 C 4.4024 1.18525 5.17808 0
M  V30 76 C 3.4414 2.29892 5.67288 0
M  V30 77 N 2.5784 1.82546 6.77954 0
M  V30 78 H 7.4184 1.89463 2.30017 0
M  V30 79 H 4.9554 0.944289 1.1279 0
M  V30 80 H 6.9134 0.258588 4.16398 0
M  V30 81 H 5.5434 -0.363919 3.20742 0
M  V30 82 H 4.5954 2.05603 3.20049 0
M  V30 83 H 5.9074 2.50877 4.31117 0
M  V30 84 H 5.0614 0.870762 6.00419 0
M  V30 85 H 3.8004 0.316887 4.86669 0
M  V30 86 H 2.8054 2.6215 4.83278 0
M  V30 87 H 4.0304 3.17216 6.00459 0
M  V30 88 H 1.9764 0.980454 6.48632 0
M  V30 89 H 1.8934 2.59956 7.09901 0
M  V30 90 H 3.1614 1.54115 7.64113 0
M  V30 91 N 7.3905 -1.2043 1.01659 0
M  V30 92 C 8.6305 -1.91507 0.714456 0
M  V30 93 C 8.9945 -1.77073 -0.742237 0
M  V30 94 O 10.1955 -2.42631 -1.15688 0
M  V30 95 C 8.4665 -3.38795 1.13809 0
M  V30 96 S 10.0255 -4.28216 0.957925 0
M  V30 97 H 6.8435 -0.661571 0.260471 0
M  V30 98 H 9.4455 -1.45671 1.30384 0
M  V30 99 H 8.1495 -3.46822 2.19415 0
M  V30 100 H 7.6805 -3.89656 0.541474 0
M  V30 101 H 9.6955 -4.96007 -0.138531 0
M  V30 102 N 8.8686 -0.792821 -1.36206 0
M  V30 103 C 10.1146 -0.36733 -1.99446 0
M  V30 104 C 10.4476 1.05917 -1.62774 0
M  V30 105 O 9.7226 1.7324 -0.88421 0
M  V30 106 C 10.0056 -0.535044 -3.56103 0
M  V30 107 C 9.8586 -2.00548 -4.02617 0
M  V30 108 C 11.1776 0.0478191 -4.40074 0
M  V30 109 H 8.2966 -0.134941 -0.724541 0
M  V30 110 H 10.9386 -0.999794 -1.61568 0
M  V30 111 H 9.0886 0.00336329 -3.885 0
M  V30 112 H 10.7606 -2.60521 -3.80692 0
M  V30 113 H 9.0036 -2.50686 -3.54032 0
M  V30 114 H 9.6746 -2.07377 -5.11565 0
M  V30 115 H 12.1506 -0.411822 -4.14057 0
M  V30 116 H 11.0266 -0.0995336 -5.4881 0
M  V30 117 H 11.2876 1.14025 -4.27142 0
M  V30 118 N 10.3467 1.47872 -0.545128 0
M  V30 119 C 11.5927 2.02793 -0.0166104 0
M  V30 120 C 11.9257 1.41987 1.32489 0
M  V30 121 O 11.2007 0.571045 1.85928 0
M  V30 122 C 11.4837 3.59989 0.0893294 0
M  V30 123 C 11.3367 4.3125 -1.27841 0
M  V30 124 C 12.6557 4.32606 0.808724 0
M  V30 125 H 9.7747 0.736962 -0.00751035 0
M  V30 126 H 12.4167 1.76433 -0.705085 0
M  V30 127 H 10.5667 3.82579 0.675681 0
M  V30 128 H 12.2387 4.20035 -1.90704 0
M  V30 129 H 10.4817 3.92076 -1.85632 0
M  V30 130 H 11.1527 5.39736 -1.15713 0
M  V30 131 H 13.6287 4.14936 0.310992 0
M  V30 132 H 12.5047 5.42251 0.851782 0
M  V30 133 H 12.7657 4.00963 1.86229 0
M  V30 134 N 11.8248 0.280983 1.55075 0
M  V30 135 C 13.0708 -0.33461 2.00021 0
M  V30 136 C 13.4038 -1.55063 1.16915 0
M  V30 137 O 12.6788 -1.93006 0.240646 0
M  V30 138 C 12.9618 -0.711007 3.53011 0
M  V30 139 C 12.8148 0.512766 4.46868 0
M  V30 140 C 14.1338 -1.54522 4.12081 0
M  V30 141 H 11.2528 -0.120147 0.727141 0
M  V30 142 H 13.8948 0.389097 1.85973 0
M  V30 143 H 12.0448 -1.32761 3.65112 0
M  V30 144 H 13.7168 1.15131 4.46702 0
M  V30 145 H 11.9598 1.14975 4.18286 0
M  V30 146 H 12.6308 0.205556 5.51617 0
M  V30 147 H 15.1068 -1.02442 4.03293 0
M  V30 148 H 13.9828 -1.77739 5.19327 0
M  V30 149 H 14.2438 -2.52813 3.62682 0
M  V30 150 N 13.3029 -1.57598 0.00835791 0
M  V30 151 C 14.5509 -1.90551 -0.6734 0
M  V30 152 C 14.8719 -0.883301 -1.73847 0
M  V30 153 O 14.1419 0.0781442 -1.95744 0
M  V30 154 H 12.7219 -0.703312 -0.251717 0
M  V30 155 H 15.3839 -1.94833 0.0512592 0
M  V30 156 H 14.4799 -2.9056 -1.13935 0
M  V30 157 N 14.781 0.264519 -1.55364 0
M  V30 158 C 16.058 1.01677 -1.67096 0
M  V30 159 C 16.438 2.03996 -0.543015 0
M  V30 160 O 15.786 2.23907 0.45585 0
M  V30 161 C 15.996 1.66596 -3.0667 0
M  V30 162 C 17.344 2.17442 -3.64697 0
M  V30 163 O 18.368 1.76568 -3.09358 0
M  V30 164 O 17.227 2.92439 -4.61673 0
M  V30 165 H 14.321 0.472161 -0.678965 0
M  V30 166 H 16.867 0.259703 -1.67701 0
M  V30 167 H 15.639 0.924962 -3.80211 0
M  V30 168 H 15.262 2.48968 -3.10001 0
M  V30 169 N 16.2591 1.48442 0.529413 0
M  V30 170 C 17.5071 1.56179 1.28267 0
M  V30 171 C 17.8281 0.237721 1.93546 0
M  V30 172 O 17.0981 -0.740779 1.81354 0
M  V30 173 H 15.6781 0.575367 0.476405 0
M  V30 174 H 18.3401 1.84909 0.61602 0
M  V30 175 H 17.4361 2.34312 2.06165 0
M  V30 176 N 17.7372 -0.778329 1.37039 0
M  V30 177 C 18.7002 -1.87301 1.32102 0
M  V30 178 C 19.7002 -1.59198 0.226405 0
M  V30 179 O 20.8902 -1.67403 0.481861 0
M  V30 180 C 18.0222 -3.24309 1.05055 0
M  V30 181 H 19.2152 -1.93093 2.29467 0
M  V30 182 H 16.7682 -0.977358 1.21973 0
M  V30 183 H 17.5032 -3.24196 0.0819373 0
M  V30 184 H 17.2882 -3.46098 1.84279 0
M  V30 185 H 18.7782 -4.04382 1.04234 0
M  V30 186 N 19.2153 -1.21501 -1.00376 0
M  V30 187 C 20.4613 -1.03452 -1.74429 0
M  V30 188 C 20.7943 0.430764 -1.89362 0
M  V30 189 O 20.0693 1.31962 -1.42886 0
M  V30 190 C 20.3523 -1.73375 -3.15615 0
M  V30 191 C 20.2053 -3.27431 -3.08397 0
M  V30 192 C 21.5243 -1.47732 -4.14564 0
M  V30 193 H 18.6433 -0.377226 -0.633143 0
M  V30 194 H 21.2853 -1.49693 -1.17013 0
M  V30 195 H 19.4353 -1.34064 -3.64636 0
M  V30 196 H 21.1073 -3.76119 -2.67081 0
M  V30 197 H 19.3503 -3.5767 -2.45468 0
M  V30 198 H 20.0213 -3.71524 -4.08258 0
M  V30 199 H 22.4973 -1.8186 -3.74254 0
M  V30 200 H 21.3733 -1.99169 -5.11491 0
M  V30 201 H 21.6343 -0.407589 -4.40217 0
M  V30 202 N 20.6934 1.19889 -1.02296 0
M  V30 203 C 21.9414 1.89046 -0.714558 0
M  V30 204 C 22.2624 1.79636 0.758681 0
M  V30 205 O 21.5324 1.20292 1.54618 0
M  V30 206 H 20.1124 0.699802 -0.261317 0
M  V30 207 H 22.7744 1.45574 -1.29592 0
M  V30 208 H 21.8704 2.95524 -1.0036 0
M  V30 209 N 22.1715 0.800033 1.35784 0
M  V30 210 C 23.1185 0.203848 2.29898 0
M  V30 211 C 24.0885 -0.658375 1.52495 0
M  V30 212 O 25.2735 -0.604832 1.8096 0
M  V30 213 C 22.4135 -0.64688 3.38983 0
M  V30 214 C 21.5265 0.235054 4.3136 0
M  V30 215 C 20.6615 -0.623054 5.27533 0
M  V30 216 C 19.7005 0.259682 6.11549 0
M  V30 217 N 18.8375 -0.558019 6.99879 0
M  V30 218 H 23.6775 1.01186 2.80295 0
M  V30 219 H 21.2145 0.51053 1.37957 0
M  V30 220 H 23.1725 -1.15521 4.00887 0
M  V30 221 H 21.8025 -1.42021 2.89879 0
M  V30 222 H 20.8545 0.861438 3.70518 0
M  V30 223 H 22.1665 0.914768 4.9034 0
M  V30 224 H 21.3205 -1.19678 5.94779 0
M  V30 225 H 20.0595 -1.33636 4.69034 0
M  V30 226 H 19.0645 0.845726 5.43256 0
M  V30 227 H 20.2895 0.970748 6.72126 0
M  V30 228 H 18.2355 -1.25542 6.43875 0
M  V30 229 H 18.1525 0.0637872 7.55973 0
M  V30 230 H 19.4205 -1.11523 7.71481 0
M  V30 231 N 23.6496 -1.47581 0.552962 0
M  V30 232 C 24.8776 -2.06875 0.0320556 0
M  V30 233 C 25.2926 -1.40625 -1.25976 0
M  V30 234 O 24.6496 -0.501349 -1.75479 0
M  V30 235 C 24.7006 -3.61092 -0.17167 0
M  V30 236 O 24.4216 -4.24858 1.06899 0
M  V30 237 C 25.9226 -4.37242 -0.730344 0
M  V30 238 H 23.1426 -0.669561 0.043915 0
M  V30 239 H 25.6866 -1.89646 0.765163 0
M  V30 240 H 23.8416 -3.7785 -0.854894 0
M  V30 241 H 24.2556 -5.17334 0.864059 0
M  V30 242 H 25.7296 -5.45842 -0.822203 0
M  V30 243 H 26.2066 -4.03235 -1.74064 0
M  V30 244 H 26.8126 -4.25219 -0.0829543 0
M  V30 245 N 25.1277 -0.289203 -1.54924 0
M  V30 246 C 26.3677 0.324536 -2.01807 0
M  V30 247 C 26.7317 1.5199 -1.17316 0
M  V30 248 O 27.9327 2.20422 -1.53843 0
M  V30 249 C 26.2037 0.683578 -3.50802 0
M  V30 250 S 27.7627 1.28185 -4.19659 0
M  V30 251 H 24.5807 0.100236 -0.703899 0
M  V30 252 H 27.1827 -0.414325 -1.91059 0
M  V30 253 H 25.8867 -0.195073 -4.09936 0
M  V30 254 H 25.4177 1.45354 -3.65562 0
M  V30 255 H 27.4327 2.57006 -4.24456 0
M  V30 256 N 26.6058 1.57591 -0.0167156 0
M  V30 257 C 27.5358 2.12496 0.967858 0
M  V30 258 C 28.5168 1.03807 1.34752 0
M  V30 259 O 29.7018 1.31577 1.42833 0
M  V30 260 C 26.8318 2.64194 2.25431 0
M  V30 261 C 25.7858 3.77559 2.01576 0
M  V30 262 C 25.1118 4.15636 3.36379 0
M  V30 263 C 26.4118 5.04151 1.36489 0
M  V30 264 H 28.1058 2.95013 0.510643 0
M  V30 265 H 25.6518 1.41915 0.244181 0
M  V30 266 H 27.6048 3.01236 2.94678 0
M  V30 267 H 26.3288 1.78821 2.73296 0
M  V30 268 H 24.9878 3.40937 1.34751 0
M  V30 269 H 24.6358 3.27263 3.81979 0
M  V30 270 H 24.3358 4.92022 3.21229 0
M  V30 271 H 25.8598 4.5525 4.06915 0
M  V30 272 H 27.2738 5.38857 1.95718 0
M  V30 273 H 25.6708 5.85453 1.31776 0
M  V30 274 H 26.7408 4.83733 0.336219 0
M  V30 275 N 28.0839 -0.256276 1.55502 0
M  V30 276 C 29.0139 -1.32102 1.92539 0
M  V30 277 C 29.9949 -1.50684 0.789194 0
M  V30 278 O 31.1799 -1.63449 1.04872 0
M  V30 279 C 28.3099 -2.67752 2.21192 0
M  V30 280 C 27.2639 -2.63878 3.36975 0
M  V30 281 C 26.5899 -4.03236 3.51147 0
M  V30 282 C 27.8899 -2.21682 4.72921 0
M  V30 283 H 29.5839 -1.01351 2.81724 0
M  V30 284 H 27.1299 -0.486105 1.35547 0
M  V30 285 H 29.0829 -3.42365 2.45691 0
M  V30 286 H 27.8069 -3.0012 1.28824 0
M  V30 287 H 26.4659 -1.91722 3.12471 0
M  V30 288 H 26.1139 -4.32854 2.56216 0
M  V30 289 H 25.8139 -4.01535 4.29003 0
M  V30 290 H 27.3379 -4.79563 3.77957 0
M  V30 291 H 28.7519 -2.86023 4.96854 0
M  V30 292 H 27.1489 -2.3111 5.53812 0
M  V30 293 H 28.2189 -1.16833 4.70615 0
M  V30 294 N 29.562 -1.4872 -0.521534 0
M  V30 295 C 30.811 -1.56419 -1.27341 0
M  V30 296 C 31.124 -0.246805 -1.94037 0
M  V30 297 O 32.33 -0.202122 -2.70747 0
M  V30 298 C 30.786 -2.75896 -2.31105 0
M  V30 299 C 30.394 -4.14311 -1.70441 0
M  V30 300 C 32.138 -2.92913 -3.07249 0
M  V30 301 C 30.045 -5.25038 -2.72194 0
M  V30 302 H 28.975 -0.582344 -0.478949 0
M  V30 303 H 31.626 -1.75071 -0.549779 0
M  V30 304 H 30.008 -2.50697 -3.06541 0
M  V30 305 H 31.182 -4.49564 -1.01136 0
M  V30 306 H 29.497 -4.02482 -1.06759 0
M  V30 307 H 32.094 -3.72805 -3.83302 0
M  V30 308 H 32.437 -2.02689 -3.63625 0
M  V30 309 H 32.97 -3.18054 -2.38928 0
M  V30 310 H 29.709 -6.17255 -2.20627 0
M  V30 311 H 29.229 -4.94263 -3.39801 0
M  V30 312 H 30.908 -5.53508 -3.35019 0
M  V30 313 N 31.0401 0.771051 -1.3745 0
M  V30 314 C 32.2651 1.56529 -1.36065 0
M  V30 315 C 32.6901 1.88029 0.0515859 0
M  V30 316 O 32.0481 1.49282 1.02882 0
M  V30 317 C 32.0961 2.85187 -2.20683 0
M  V30 318 O 31.2001 3.79593 -1.61193 0
M  V30 319 H 30.5411 0.47411 -0.464883 0
M  V30 320 H 33.0711 0.954269 -1.80983 0
M  V30 321 H 33.0811 3.34283 -2.33921 0
M  V30 322 H 31.7561 2.61588 -3.23334 0
M  V30 323 H 30.3331 3.38239 -1.56999 0
M  V30 324 N 32.5182 1.22032 0.997298 0
M  V30 325 C 33.7482 1.06686 1.76923 0
M  V30 326 C 34.1562 -0.385838 1.85224 0
M  V30 327 O 33.4992 -1.27929 1.31833 0
M  V30 328 C 33.5612 1.59802 3.22031 0
M  V30 329 C 33.2252 3.08362 3.37286 0
M  V30 330 C 34.2222 4.05835 3.24952 0
M  V30 331 C 31.9072 3.47727 3.6248 0
M  V30 332 C 33.9012 5.4066 3.37588 0
M  V30 333 C 31.5882 4.82701 3.74757 0
M  V30 334 C 32.5862 5.78977 3.62319 0
M  V30 335 O 32.2742 7.11502 3.74193 0
M  V30 336 H 32.0062 0.374767 0.562606 0
M  V30 337 H 34.5602 1.61991 1.26286 0
M  V30 338 H 32.7902 0.989003 3.73839 0
M  V30 339 H 34.4792 1.40184 3.80924 0
M  V30 340 H 35.2452 3.76766 3.05405 0
M  V30 341 H 31.1242 2.73317 3.7124 0
M  V30 342 H 34.6682 6.15788 3.27796 0
M  V30 343 H 30.5652 5.11453 3.9381 0
M  V30 344 H 31.3332 7.19019 3.91093 0
M  V30 345 N 33.9963 -1.19345 1.0293 0
M  V30 346 C 35.2243 -1.92997 0.745644 0
M  V30 347 C 35.6393 -1.75519 -0.695589 0
M  V30 348 O 34.9963 -1.07737 -1.47306 0
M  V30 349 C 35.0473 -3.44741 1.08792 0
M  V30 350 O 34.7683 -3.61658 2.47256 0
M  V30 351 C 36.2693 -4.35515 0.827129 0
M  V30 352 H 33.4893 -0.613042 0.272801 0
M  V30 353 H 36.0333 -1.51473 1.3739 0
M  V30 354 H 34.1883 -3.84097 0.504832 0
M  V30 355 H 34.6023 -4.55514 2.60015 0
M  V30 356 H 36.0763 -5.40589 1.11658 0
M  V30 357 H 36.5533 -4.38552 -0.238436 0
M  V30 358 H 37.1593 -4.01841 1.39297 0
M  V30 359 N 35.4744 -0.807222 -1.35358 0
M  V30 360 C 36.7024 -0.400377 -2.02989 0
M  V30 361 C 37.1174 0.988859 -1.60832 0
M  V30 362 O 36.4744 1.63729 -0.806175 0
M  V30 363 C 36.5254 -0.474867 -3.58368 0
M  V30 364 O 36.2464 -1.80933 -3.98992 0
M  V30 365 C 37.7474 -0.0609112 -4.43258 0
M  V30 366 H 34.9674 -0.162587 -0.651004 0
M  V30 367 H 37.5114 -1.09102 -1.72965 0
M  V30 368 H 35.6664 0.167534 -3.87038 0
M  V30 369 H 36.0804 -1.77256 -4.9364 0
M  V30 370 H 37.5544 -0.164145 -5.51756 0
M  V30 371 H 38.0314 0.993831 -4.27808 0
M  V30 372 H 38.6374 -0.676492 -4.19885 0
M  V30 373 N 36.9525 1.47285 -0.560781 0
M  V30 374 C 37.9005 2.31756 0.197942 0
M  V30 375 C 38.8945 1.43146 0.905854 0
M  V30 376 O 40.1005 1.59891 0.826733 0
M  V30 377 H 36.4755 0.747438 0.0827049 0
M  V30 378 H 38.4465 2.9359 -0.533629 0
M  V30 379 C 37.1955 3.25874 1.21249 0
M  V30 380 H 36.5185 3.94023 0.67719 0
M  V30 381 H 37.9585 3.87803 1.71419 0
M  V30 382 C 36.4175 2.49651 2.26221 0
M  V30 383 O 36.9475 2.24355 3.33208 0
M  V30 384 N 35.1535 2.10597 2.00243 0
M  V30 385 H 34.7005 2.31369 1.13252 0
M  V30 386 H 34.6585 1.59913 2.70694 0
M  V30 387 N 38.4306 0.297415 1.54768 0
M  V30 388 C 39.3776 -0.580276 2.23386 0
M  V30 389 C 40.3476 -1.13238 1.21517 0
M  V30 390 O 41.5326 -1.17757 1.50126 0
M  V30 391 C 38.6726 -1.74801 2.97555 0
M  V30 392 C 37.7856 -1.22764 4.1419 0
M  V30 393 C 36.9206 -2.35895 4.75949 0
M  V30 394 C 35.9596 -1.80974 5.84735 0
M  V30 395 N 35.0966 -2.87664 6.40464 0
M  V30 396 H 39.9366 0.0114833 2.97998 0
M  V30 397 H 37.4736 0.0174361 1.4709 0
M  V30 398 H 39.4316 -2.43475 3.38786 0
M  V30 399 H 38.0616 -2.31145 2.25326 0
M  V30 400 H 37.1136 -0.433271 3.77924 0
M  V30 401 H 38.4256 -0.785551 4.92575 0
M  V30 402 H 37.5796 -3.12523 5.20014 0
M  V30 403 H 36.3186 -2.83429 3.96887 0
M  V30 404 H 35.3236 -1.02834 5.40097 0
M  V30 405 H 36.5486 -1.34348 6.65678 0
M  V30 406 H 34.4946 -3.34538 5.64287 0
M  V30 407 H 34.4116 -2.4794 7.14186 0
M  V30 408 H 35.6796 -3.642 6.89187 0
M  V30 409 N 39.9087 -1.5758 0.0250728 0
M  V30 410 C 41.1557 -1.91633 -0.654444 0
M  V30 411 C 41.4837 -0.901103 -1.72367 0
M  V30 412 O 40.7387 0.0905647 -1.9549 0
M  V30 413 C 41.0377 -3.32421 -1.31268 0
M  V30 414 C 40.7037 -4.49344 -0.374223 0
M  V30 415 C 39.3657 -4.8106 -0.115911 0
M  V30 416 C 41.7177 -5.20498 0.270432 0
M  V30 417 C 39.0457 -5.8129 0.79493 0
M  V30 418 C 41.3977 -6.21699 1.1693 0
M  V30 419 C 40.0617 -6.51859 1.43655 0
M  V30 420 H 39.3317 -0.701236 -0.239478 0
M  V30 421 H 41.9787 -1.91307 0.0859734 0
M  V30 422 H 40.2837 -3.28989 -2.12775 0
M  V30 423 H 41.9807 -3.56038 -1.84494 0
M  V30 424 H 38.5707 -4.24579 -0.58573 0
M  V30 425 H 42.7547 -4.96229 0.0839194 0
M  V30 426 H 38.0107 -6.03005 1.00973 0
M  V30 427 H 42.1847 -6.75955 1.67504 0
M  V30 428 H 39.8117 -7.2934 2.144 0
M  V30 429 N 41.3868 0.248026 -1.55636 0
M  V30 430 C 42.7978 0.817177 -1.67866 0
M  V30 431 C 43.1488 1.86069 -0.622322 0
M  V30 432 O 42.2738 2.15157 0.231618 0
M  V30 433 C 42.8688 1.489 -3.04326 0
M  V30 434 C 41.4278 2.00587 -3.185 0
M  V30 435 C 40.5748 0.856573 -2.63739 0
M  V30 436 H 43.5258 0.0238579 -1.58682 0
M  V30 437 H 43.5468 2.35698 -2.98708 0
M  V30 438 H 43.0588 0.729279 -3.81186 0
M  V30 439 H 41.1598 2.79443 -2.4646 0
M  V30 440 H 41.2728 2.20402 -4.25393 0
M  V30 441 H 39.6368 1.25678 -2.21534 0
M  V30 442 H 40.4198 0.109953 -3.43124 0
M  V30 443 N 42.8649 1.48995 0.513639 0
M  V30 444 C 44.0899 1.61792 1.29762 0
M  V30 445 C 44.5149 0.284475 1.85936 0
M  V30 446 O 43.8729 -0.746185 1.65232 0
M  V30 447 C 43.9209 2.67993 2.41272 0
M  V30 448 O 43.0249 2.26287 3.44772 0
M  V30 449 H 42.3659 0.541963 0.38363 0
M  V30 450 H 44.8959 1.95097 0.616307 0
M  V30 451 H 44.9059 2.89772 2.87221 0
M  V30 452 H 43.5809 3.64791 1.9975 0
M  V30 453 H 42.1579 2.14788 3.04829 0
M  V30 454 N 44.343 -0.763751 1.37857 0
M  V30 455 C 45.253 -1.90817 1.36478 0
M  V30 456 C 46.269 -1.71997 0.263248 0
M  V30 457 O 47.445 -1.95095 0.499979 0
M  V30 458 C 44.51 -3.2605 1.17864 0
M  V30 459 C 43.571 -3.57467 2.3773 0
M  V30 460 C 42.804 -4.86249 2.19995 0
M  V30 461 O 43.027 -5.57884 1.18836 0
M  V30 462 O 41.961 -5.16911 3.08361 0
M  V30 463 H 45.787 -1.94933 2.32884 0
M  V30 464 H 43.372 -0.907619 1.1867 0
M  V30 465 H 45.254 -4.06924 1.09504 0
M  V30 466 H 43.929 -3.22769 0.245372 0
M  V30 467 H 42.836 -2.76796 2.51664 0
M  V30 468 H 44.169 -3.655 3.29652 0
M  V30 469 N 45.8211 -1.22559 -0.990812 0
M  V30 470 C 47.0511 -1.07623 -1.76355 0
M  V30 471 C 47.4591 0.37601 -1.85426 0
M  V30 472 O 46.8021 1.27228 -1.32509 0
M  V30 473 C 46.8641 -1.61507 -3.21179 0
M  V30 474 C 46.5281 -3.10146 -3.35646 0
M  V30 475 C 47.5251 -4.07553 -3.22796 0
M  V30 476 C 45.2101 -3.49644 -3.60631 0
M  V30 477 C 47.2041 -5.42442 -3.34716 0
M  V30 478 C 44.8911 -4.84682 -3.72192 0
M  V30 479 C 45.8891 -5.8089 -3.59243 0
M  V30 480 O 45.5771 -7.13476 -3.70415 0
M  V30 481 H 45.3091 -0.377745 -0.560611 0
M  V30 482 H 47.8631 -1.62658 -1.25425 0
M  V30 483 H 46.0931 -1.00881 -3.73309 0
M  V30 484 H 47.7821 -1.42202 -3.80175 0
M  V30 485 H 48.5481 -3.78381 -3.03403 0
M  V30 486 H 44.4271 -2.75282 -3.69785 0
M  V30 487 H 47.9711 -6.17518 -3.24526 0
M  V30 488 H 43.8681 -5.13534 -3.91092 0
M  V30 489 H 44.6361 -7.21083 -3.87275 0
M  V30 490 N 47.2992 1.18797 -1.03562 0
M  V30 491 C 48.5452 1.8893 -0.737113 0
M  V30 492 C 48.8782 1.79837 0.732956 0
M  V30 493 O 48.1532 1.19525 1.5344 0
M  V30 494 C 48.4362 3.39607 -1.19745 0
M  V30 495 C 48.2892 3.57537 -2.72924 0
M  V30 496 C 49.6082 4.33069 -0.783526 0
M  V30 497 H 46.7272 0.686057 -0.269249 0
M  V30 498 H 49.3692 1.39797 -1.28673 0
M  V30 499 H 47.5192 3.81583 -0.729855 0
M  V30 500 H 49.1912 3.24688 -3.27682 0
M  V30 501 H 47.4342 3.00363 -3.12993 0
M  V30 502 H 48.1052 4.63238 -3.00191 0
M  V30 503 H 50.5812 3.98846 -1.18581 0
M  V30 504 H 49.4572 5.3707 -1.13343 0
M  V30 505 H 49.7182 4.40986 0.313681 0
M  V30 506 N 48.7773 0.814389 1.34928 0
M  V30 507 C 50.1883 0.458364 1.80986 0
M  V30 508 C 50.5393 -1.02042 1.67577 0
M  V30 509 O 49.6643 -1.79352 1.21086 0
M  V30 510 C 50.2593 0.825212 3.28597 0
M  V30 511 C 48.8183 0.521677 3.72767 0
M  V30 512 C 47.9653 1.04668 2.56788 0
M  V30 513 H 50.9163 1.00533 1.22795 0
M  V30 514 H 50.9373 0.12571 3.80292 0
M  V30 515 H 50.4493 1.90154 3.38324 0
M  V30 516 H 48.5503 -0.545589 3.68584 0
M  V30 517 H 48.6633 1.05977 4.67232 0
M  V30 518 H 47.0273 0.468622 2.50352 0
M  V30 519 H 47.8103 2.12927 2.6929 0
M  V30 520 N 50.2554 -1.46986 0.568584 0
M  V30 521 C 51.4834 -2.0683 0.0539956 0
M  V30 522 C 51.8984 -1.41953 -1.24478 0
M  V30 523 O 51.2554 -0.519933 -1.74937 0
M  V30 524 C 51.3064 -3.61254 -0.133362 0
M  V30 525 O 51.0274 -4.237 1.11399 0
M  V30 526 C 52.5284 -4.37992 -0.683927 0
M  V30 527 H 49.7484 -0.669058 0.0510141 0
M  V30 528 H 52.2924 -1.88824 0.785234 0
M  V30 529 H 50.4474 -3.78735 -0.81477 0
M  V30 530 H 50.8614 -5.16388 0.91888 0
M  V30 531 H 52.3354 -5.46684 -0.764263 0
M  V30 532 H 52.8124 -4.05058 -1.69778 0
M  V30 533 H 53.4184 -4.25283 -0.0378494 0
M  V30 534 N 51.7335 -0.305618 -1.54608 0
M  V30 535 C 52.9795 0.302746 -2.00528 0
M  V30 536 C 53.3125 1.53184 -1.19367 0
M  V30 537 O 52.5875 1.92598 -0.271321 0
M  V30 538 C 52.8705 0.654756 -3.54097 0
M  V30 539 C 52.7235 -0.583793 -4.45995 0
M  V30 540 C 54.0425 1.47947 -4.14487 0
M  V30 541 H 51.1615 0.108564 -0.72896 0
M  V30 542 H 53.8035 -0.418634 -1.85331 0
M  V30 543 H 51.9535 1.26935 -3.67178 0
M  V30 544 H 53.6255 -1.22224 -4.44814 0
M  V30 545 H 51.8685 -1.21615 -4.16404 0
M  V30 546 H 52.5395 -0.293287 -5.5122 0
M  V30 547 H 55.0155 0.96013 -4.04871 0
M  V30 548 H 53.8915 1.69454 -5.22088 0
M  V30 549 H 54.1525 2.47011 -3.66658 0
M  V30 550 N 53.2116 1.57565 -0.0334293 0
M  V30 551 C 54.4586 1.91978 0.644272 0
M  V30 552 C 54.7866 0.910231 1.71887 0
M  V30 553 O 54.0416 -0.0801961 1.95536 0
M  V30 554 C 54.3406 3.33112 1.29504 0
M  V30 555 C 54.0066 4.49537 0.350388 0
M  V30 556 C 52.6686 4.81115 0.0903974 0
M  V30 557 C 55.0206 5.20347 -0.298032 0
M  V30 558 C 52.3486 5.8086 -0.825746 0
M  V30 559 C 54.7006 6.2107 -1.20226 0
M  V30 560 C 53.3646 6.51088 -1.4711 0
M  V30 561 H 52.6346 0.702496 0.235756 0
M  V30 562 H 55.2816 1.91259 -0.0961176 0
M  V30 563 H 53.5866 3.30113 2.11028 0
M  V30 564 H 55.2836 3.57011 1.82603 0
M  V30 565 H 51.8736 4.24883 0.563205 0
M  V30 566 H 56.0576 4.96178 -0.110234 0
M  V30 567 H 51.3136 6.02461 -1.04169 0
M  V30 568 H 55.4876 6.75057 -1.71086 0
M  V30 569 H 53.1146 7.28193 -2.18264 0
M  V30 570 N 54.6897 -0.239769 1.55765 0
M  V30 571 C 55.9667 -0.990056 1.68693 0
M  V30 572 C 56.3467 -2.03107 0.5754 0
M  V30 573 O 55.6947 -2.24604 -0.42017 0
M  V30 574 C 55.9047 -1.61696 3.09282 0
M  V30 575 C 57.2527 -2.11613 3.6811 0
M  V30 576 O 58.2767 -1.71624 3.12127 0
M  V30 577 O 57.1357 -2.85057 4.66267 0
M  V30 578 H 54.2297 -0.461299 0.686391 0
M  V30 579 H 56.7757 -0.232991 1.68093 0
M  V30 580 H 55.5477 -0.864357 3.81634 0
M  V30 581 H 55.1707 -2.44005 3.13923 0
M  V30 582 N 56.1678 -1.49265 -0.50573 0
M  V30 583 C 57.1158 -1.66065 -1.62866 0
M  V30 584 C 58.1098 -0.526636 -1.61006 0
M  V30 585 O 59.3158 -0.706126 -1.65571 0
M  V30 586 H 55.6908 -0.52356 -0.539805 0
M  V30 587 H 57.6618 -2.60329 -1.45848 0
M  V30 588 C 56.4108 -1.74008 -3.01026 0
M  V30 589 H 55.7338 -2.6064 -3.03161 0
M  V30 590 H 57.1738 -1.89798 -3.79147 0
M  V30 591 C 55.6328 -0.483868 -3.33407 0
M  V30 592 O 56.1628 0.392548 -3.99777 0
M  V30 593 N 54.3688 -0.348236 -2.88506 0
M  V30 594 H 53.9158 -1.06242 -2.34671 0
M  V30 595 H 53.8738 0.491204 -3.10539 0
M  V30 596 N 57.6459 0.756429 -1.3826 0
M  V30 597 C 58.8759 1.54341 -1.3734 0
M  V30 598 C 59.2839 1.89159 0.0393917 0
M  V30 599 O 58.6269 1.5307 1.01565 0
M  V30 600 C 58.6889 2.87238 -2.16182 0
M  V30 601 C 58.3529 2.74973 -3.65019 0
M  V30 602 C 59.3499 2.44962 -4.58574 0
M  V30 603 C 57.0349 2.92515 -4.08338 0
M  V30 604 C 59.0289 2.32642 -5.93428 0
M  V30 605 C 56.7159 2.79815 -5.43274 0
M  V30 606 C 57.7139 2.49921 -6.35632 0
M  V30 607 O 57.4019 2.37275 -7.68086 0
M  V30 608 H 57.1339 0.484281 -0.471643 0
M  V30 609 H 59.6879 0.944152 -1.82414 0
M  V30 610 H 57.9179 3.49342 -1.65822 0
M  V30 611 H 59.6069 3.48731 -2.07705 0
M  V30 612 H 60.3729 2.31081 -4.26412 0
M  V30 613 H 56.2519 3.14781 -3.368 0
M  V30 614 H 59.7959 2.0923 -6.65484 0
M  V30 615 H 55.6929 2.93269 -5.75034 0
M  V30 616 H 56.4609 2.52509 -7.78577 0
M  V30 617 N 59.124 1.23083 0.984299 0
M  V30 618 C 60.087 1.00979 2.05757 0
M  V30 619 C 61.087 -0.0269573 1.60777 0
M  V30 620 O 62.277 0.212403 1.729 0
M  V30 621 C 59.409 0.527072 3.36801 0
M  V30 622 H 60.602 1.9622 2.26799 0
M  V30 623 H 58.155 1.05072 1.15714 0
M  V30 624 H 58.89 -0.429294 3.21446 0
M  V30 625 H 58.675 1.27515 3.70786 0
M  V30 626 H 60.165 0.392942 4.15747 0
M  V30 627 N 60.6021 -1.18246 1.0419 0
M  V30 628 C 61.8481 -1.88536 0.747122 0
M  V30 629 C 62.1811 -1.80223 -0.723409 0
M  V30 630 O 61.4561 -1.20337 -1.52804 0
M  V30 631 C 61.7391 -3.38968 1.21544 0
M  V30 632 C 61.5921 -3.56084 2.74816 0
M  V30 633 C 62.9111 -4.32648 0.806482 0
M  V30 634 H 60.0301 -0.684619 0.272883 0
M  V30 635 H 62.6721 -1.39113 1.29413 0
M  V30 636 H 60.8221 -3.8119 0.750081 0
M  V30 637 H 62.4941 -3.22946 3.29399 0
M  V30 638 H 60.7371 -2.98699 3.14582 0
M  V30 639 H 61.4081 -4.61639 3.02644 0
M  V30 640 H 63.8841 -3.98211 1.20695 0
M  V30 641 H 62.7601 -5.36462 1.1619 0
M  V30 642 H 63.0211 -4.41146 -0.29029 0
M  V30 643 N 62.0802 -0.821533 -1.34494 0
M  V30 644 C 63.3082 -0.421884 -2.02553 0
M  V30 645 C 63.7232 0.971745 -1.61872 0
M  V30 646 O 63.0802 1.62864 -0.823496 0
M  V30 647 C 63.1312 -0.51285 -3.57844 0
M  V30 648 O 62.8522 -1.85155 -3.97051 0
M  V30 649 C 64.3532 -0.107921 -4.43169 0
M  V30 650 H 61.5732 -0.169482 -0.649243 0
M  V30 651 H 64.1172 -1.1093 -1.71798 0
M  V30 652 H 62.2722 0.126474 -3.87193 0
M  V30 653 H 62.6862 -1.82482 -4.91732 0
M  V30 654 H 64.1602 -0.222657 -5.51551 0
M  V30 655 H 64.6372 0.948401 -4.28838 0
M  V30 656 H 65.2432 -0.720989 -4.19144 0
M  V30 657 N 63.5583 1.46682 -0.576371 0
M  V30 658 C 64.8043 2.02712 -0.0596221 0
M  V30 659 C 65.1373 1.44765 1.29448 0
M  V30 660 O 64.4123 0.610355 1.84675 0
M  V30 661 C 64.6953 3.60098 0.0129503 0
M  V30 662 C 64.5483 4.28441 -1.3696 0
M  V30 663 C 65.8673 4.34224 0.71678 0
M  V30 664 H 62.9863 0.736637 -0.0231407 0
M  V30 665 H 65.6283 1.74898 -0.742351 0
M  V30 666 H 63.7783 3.83926 0.594378 0
M  V30 667 H 65.4503 4.15896 -1.9957 0
M  V30 668 H 63.6933 3.8805 -1.93907 0
M  V30 669 H 64.3643 5.3716 -1.27135 0
M  V30 670 H 66.8403 4.15503 0.222908 0
M  V30 671 H 65.7163 5.43936 0.73657 0
M  V30 672 H 65.9773 4.04823 1.77682 0
M  V30 673 N 65.0364 0.313813 1.54444 0
M  V30 674 C 65.9694 -0.598866 2.20202 0
M  V30 675 C 66.9474 -1.12318 1.17573 0
M  V30 676 O 68.1314 -1.18899 1.46271 0
M  V30 677 C 65.2584 -1.82071 2.85601 0
M  V30 678 C 64.3044 -1.42851 4.01865 0
M  V30 679 S 65.1374 -0.473512 5.33402 0
M  V30 680 C 66.2934 -1.70286 6.0229 0
M  V30 681 H 66.5264 -0.0402532 2.97273 0
M  V30 682 H 64.0594 0.0979165 1.54089 0
M  V30 683 H 66.0174 -2.52184 3.23904 0
M  V30 684 H 64.6784 -2.3505 2.08351 0
M  V30 685 H 63.8714 -2.33871 4.46453 0
M  V30 686 H 63.4734 -0.807198 3.65185 0
M  V30 687 H 65.7654 -2.64168 6.23876 0
M  V30 688 H 66.7084 -1.29932 6.96077 0
M  V30 689 H 67.1164 -1.88541 5.32083 0
M  V30 690 N 66.5145 -1.57545 0.0417849 0
M  V30 691 C 67.7635 -1.91494 -0.633492 0
M  V30 692 C 68.0765 -0.921084 -1.72556 0
M  V30 693 O 69.2825 -1.15228 -2.45835 0
M  V30 694 C 67.7385 -3.40072 -1.17808 0
M  V30 695 C 67.3465 -4.47843 -0.118633 0
M  V30 696 C 69.0905 -3.8307 -1.82915 0
M  V30 697 C 66.9975 -5.87529 -0.675578 0
M  V30 698 H 65.9275 -0.714653 -0.24039 0
M  V30 699 H 68.5785 -1.83175 0.109148 0
M  V30 700 H 66.9605 -3.43364 -1.97274 0
M  V30 701 H 68.1345 -4.56128 0.654494 0
M  V30 702 H 66.4495 -4.14128 0.434414 0
M  V30 703 H 69.0465 -4.84794 -2.25563 0
M  V30 704 H 69.3895 -3.1881 -2.67705 0
M  V30 705 H 69.9225 -3.82255 -1.10119 0
M  V30 706 H 66.6615 -6.55362 0.134475 0
M  V30 707 H 66.1815 -5.82824 -1.4169 0
M  V30 708 H 67.8605 -6.36491 -1.1614 0
M  V30 709 N 67.9926 0.231505 -1.5589 0
M  V30 710 C 69.2406 0.955461 -1.78088 0
M  V30 711 C 69.5616 1.85262 -0.608533 0
M  V30 712 O 68.8316 1.92277 0.375035 0
M  V30 713 H 67.4116 0.355787 -0.656829 0
M  V30 714 H 70.0736 0.245751 -1.93344 0
M  V30 715 H 69.1696 1.56814 -2.69844 0
M  V30 716 N 69.4707 1.49531 0.497807 0
M  V30 717 C 70.7187 1.58865 1.24926 0
M  V30 718 C 71.0397 0.278721 1.92998 0
M  V30 719 O 70.3097 -0.702144 1.82885 0
M  V30 720 H 68.8897 0.585343 0.464094 0
M  V30 721 H 71.5517 1.86174 0.57666 0
M  V30 722 H 70.6477 2.38633 2.01149 0
M  V30 723 N 70.9488 -0.749086 1.3866 0
M  V30 724 C 71.8588 -1.89358 1.38494 0
M  V30 725 C 72.8748 -1.71708 0.281476 0
M  V30 726 O 74.0508 -1.94554 0.520643 0
M  V30 727 C 71.1158 -3.24782 1.21316 0
M  V30 728 C 70.1768 -3.54926 2.41508 0
M  V30 729 C 69.4098 -4.83888 2.2514 0
M  V30 730 O 69.6328 -5.56592 1.24746 0
M  V30 731 O 68.5668 -5.13612 3.13826 0
M  V30 732 H 72.3928 -1.92452 2.34938 0
M  V30 733 H 69.9778 -0.894981 1.19626 0
M  V30 734 H 71.8598 -4.05739 1.13814 0
M  V30 735 H 70.5348 -3.2249 0.279592 0
M  V30 736 H 69.4418 -2.74112 2.54585 0
M  V30 737 H 70.7748 -3.61983 3.3351 0
M  V30 738 N 72.4269 -1.23603 -0.977757 0
M  V30 739 C 73.8379 -1.06424 -1.53398 0
M  V30 740 C 74.1889 0.367578 -1.92726 0
M  V30 741 O 73.3139 1.25465 -1.76316 0
M  V30 742 C 73.9089 -1.92568 -2.78753 0
M  V30 743 C 72.4679 -1.79642 -3.30765 0
M  V30 744 C 71.6149 -1.88111 -2.03739 0
M  V30 745 H 74.5659 -1.37227 -0.797152 0
M  V30 746 H 74.5869 -1.45203 -3.51705 0
M  V30 747 H 74.0989 -2.96771 -2.50098 0
M  V30 748 H 72.1999 -0.782325 -3.64294 0
M  V30 749 H 72.3129 -2.63174 -4.00345 0
M  V30 750 H 70.6769 -1.31723 -2.17994 0
M  V30 751 H 71.4599 -2.93875 -1.77461 0
M  V30 752 N 73.905 1.17692 -1.04816 0
M  V30 753 C 75.135 1.91508 -0.775128 0
M  V30 754 C 75.543 1.76844 0.67253 0
M  V30 755 O 74.886 1.10057 1.47082 0
M  V30 756 C 74.948 3.43167 -1.0713 0
M  V30 757 C 74.612 3.81612 -2.51438 0
M  V30 758 C 75.609 3.84772 -3.49638 0
M  V30 759 C 73.294 4.12687 -2.86348 0
M  V30 760 C 75.288 4.18469 -4.80794 0
M  V30 761 C 72.975 4.46053 -4.17708 0
M  V30 762 C 73.973 4.48921 -5.14741 0
M  V30 763 O 73.661 4.81504 -6.43746 0
M  V30 764 H 73.393 0.614575 -0.281555 0
M  V30 765 H 75.947 1.50206 -1.40098 0
M  V30 766 H 74.177 3.84745 -0.388342 0
M  V30 767 H 75.866 3.98239 -0.784883 0
M  V30 768 H 76.632 3.60893 -3.24008 0
M  V30 769 H 72.511 4.09627 -2.11486 0
M  V30 770 H 76.055 4.20623 -5.56527 0
M  V30 771 H 71.952 4.69393 -4.43103 0
M  V30 772 H 72.72 4.99377 -6.4851 0
M  V30 773 N 75.3831 0.828654 1.34056 0
M  V30 774 C 76.6111 0.43262 2.02326 0
M  V30 775 C 77.0261 -0.963147 1.62385 0
M  V30 776 O 76.3831 -1.62425 0.832121 0
M  V30 777 C 76.4341 0.53182 3.57567 0
M  V30 778 O 76.1551 1.87258 3.96063 0
M  V30 779 C 77.6561 0.131422 4.43105 0
M  V30 780 H 74.8761 0.172923 0.648335 0
M  V30 781 H 77.4201 1.1184 1.71208 0
M  V30 782 H 75.5751 -0.105938 3.87255 0
M  V30 783 H 75.9891 1.85087 4.90758 0
M  V30 784 H 77.4631 0.251904 5.51425 0
M  V30 785 H 77.9401 -0.925645 4.29335 0
M  V30 786 H 78.5461 0.743207 4.18756 0
M  V30 787 N 76.8612 -1.46375 0.584142 0
M  V30 788 C 77.7912 -2.33103 -0.136037 0
M  V30 789 C 78.7722 -1.45431 -0.882255 0
M  V30 790 O 79.9572 -1.74246 -0.857434 0
M  V30 791 C 77.0872 -3.27731 -1.14933 0
M  V30 792 C 76.0412 -4.24855 -0.517862 0
M  V30 793 C 75.3672 -5.09001 -1.63773 0
M  V30 794 C 76.6672 -5.19439 0.545886 0
M  V30 795 H 78.3612 -2.93568 0.588086 0
M  V30 796 H 75.9072 -1.41166 0.284259 0
M  V30 797 H 77.8602 -3.87261 -1.66153 0
M  V30 798 H 76.5842 -2.65377 -1.90375 0
M  V30 799 H 75.2432 -3.6659 -0.0267361 0
M  V30 800 H 74.8912 -4.43031 -2.38185 0
M  V30 801 H 74.5912 -5.74777 -1.22085 0
M  V30 802 H 76.1152 -5.71396 -2.15266 0
M  V30 803 H 77.5292 -5.73177 0.118704 0
M  V30 804 H 75.9262 -5.93566 0.88317 0
M  V30 805 H 76.9962 -4.63285 1.43162 0
M  V30 806 N 78.3393 -0.321999 -1.54275 0
M  V30 807 C 79.5873 0.280489 -2.00144 0
M  V30 808 C 79.9083 1.52777 -1.21178 0
M  V30 809 O 79.1783 1.9338 -0.313187 0
M  V30 810 H 77.7583 0.106632 -0.73935 0
M  V30 811 H 80.4203 -0.438184 -1.8991 0
M  V30 812 H 79.5163 0.537972 -3.07428 0
M  V30 813 N 79.8174 1.5752 -0.0501392 0
M  V30 814 C 80.7474 2.14502 0.922566 0
M  V30 815 C 81.7284 1.06642 1.3252 0
M  V30 816 O 82.9134 1.34577 1.4001 0
M  V30 817 C 80.0434 2.68916 2.19776 0
M  V30 818 C 78.9974 3.8175 1.93523 0
M  V30 819 C 78.3234 4.22677 3.27487 0
M  V30 820 C 79.6234 5.06932 1.25765 0
M  V30 821 H 81.3174 2.9603 0.447952 0
M  V30 822 H 78.8634 1.42401 0.214024 0
M  V30 823 H 80.8164 3.07419 2.88222 0
M  V30 824 H 79.5404 1.84578 2.69441 0
M  V30 825 H 78.1994 3.43718 1.27489 0
M  V30 826 H 77.8474 3.35291 3.74952 0
M  V30 827 H 77.5474 4.98725 3.1072 0
M  V30 828 H 79.0714 4.63779 3.97166 0
M  V30 829 H 80.4854 5.42888 1.84244 0
M  V30 830 H 78.8824 5.88116 1.19328 0
M  V30 831 H 79.9524 4.84337 0.233536 0
M  V30 832 N 81.2955 -0.223234 1.56011 0
M  V30 833 C 82.5425 -0.947875 1.78946 0
M  V30 834 C 82.8705 -1.844 0.618608 0
M  V30 835 O 82.1255 -1.91629 -0.397093 0
M  V30 836 C 82.4245 -1.81948 3.0762 0
M  V30 837 C 82.0905 -1.07672 4.37856 0
M  V30 838 C 80.7525 -0.871544 4.73242 0
M  V30 839 C 83.1045 -0.552081 5.18268 0
M  V30 840 C 80.4325 -0.129791 5.86556 0
M  V30 841 C 82.7845 0.17632 6.32354 0
M  V30 842 C 81.4485 0.39277 6.66343 0
M  V30 843 H 80.7185 -0.346852 0.654809 0
M  V30 844 H 83.3655 -0.216171 1.90276 0
M  V30 845 H 81.6705 -2.61899 2.91404 0
M  V30 846 H 83.3675 -2.38227 3.22566 0
M  V30 847 H 79.9575 -1.24662 4.1007 0
M  V30 848 H 84.1415 -0.698076 4.91366 0
M  V30 849 H 79.3975 0.048153 6.11381 0
M  V30 850 H 83.5715 0.590367 6.93893 0
M  V30 851 H 81.1985 0.969466 7.53993 0
M  V30 852 N 82.7736 -1.49793 -0.48987 0
M  V30 853 C 84.0506 -1.50348 -1.25119 0
M  V30 854 C 84.4306 -0.237466 -2.0976 0
M  V30 855 O 83.7786 0.77981 -2.14782 0
M  V30 856 C 83.9886 -2.78872 -2.09837 0
M  V30 857 C 85.3366 -3.288 -2.68655 0
M  V30 858 O 86.3606 -2.80065 -2.20096 0
M  V30 859 O 85.2196 -4.13707 -3.57083 0
M  V30 860 H 82.3136 -0.602242 -0.566775 0
M  V30 861 H 84.8596 -1.62067 -0.503229 0
M  V30 862 H 83.6316 -3.62499 -1.47343 0
M  V30 863 H 83.2546 -2.70066 -2.91805 0
M  V30 864 N 84.2517 0.741722 -1.39055 0
M  V30 865 C 85.4797 1.53098 -1.39171 0
M  V30 866 C 85.8947 1.88794 0.0155099 0
M  V30 867 O 85.2517 1.53626 0.985159 0
M  V30 868 C 85.3027 2.82274 -2.2584 0
M  V30 869 O 85.0237 2.48097 -3.61081 0
M  V30 870 C 86.5247 3.76343 -2.34266 0
M  V30 871 H 83.7447 0.473335 -0.4756 0
M  V30 872 H 86.2887 0.917045 -1.82785 0
M  V30 873 H 84.4437 3.40015 -1.85656 0
M  V30 874 H 84.8577 3.31029 -4.06842 0
M  V30 875 H 86.3317 4.63898 -2.9917 0
M  V30 876 H 86.8087 4.17619 -1.35982 0
M  V30 877 H 87.4147 3.24523 -2.74891 0
M  V30 878 N 85.7298 1.2412 0.971189 0
M  V30 879 C 86.6928 1.03156 2.04674 0
M  V30 880 C 87.6928 -0.00990322 1.60797 0
M  V30 881 O 88.8828 0.230729 1.72665 0
M  V30 882 C 86.0148 0.562765 3.36223 0
M  V30 883 H 87.2078 1.98614 2.24705 0
M  V30 884 H 84.7608 1.06293 1.14593 0
M  V30 885 H 85.4958 -0.395176 3.21883 0
M  V30 886 H 85.2808 1.31441 3.69413 0
M  V30 887 H 86.7708 0.437015 4.15307 0
M  V30 888 N 87.2079 -1.17134 1.05439 0
M  V30 889 C 88.4559 -1.87085 0.764429 0
M  V30 890 C 88.7769 -1.81584 -0.710787 0
M  V30 891 O 88.0469 -1.24349 -1.51374 0
M  V30 892 H 86.6269 -0.692627 0.279779 0
M  V30 893 H 89.2889 -1.42087 1.33406 0
M  V30 894 H 88.3849 -2.92759 1.0816 0
M  V30 895 N 88.686 -0.835752 -1.33615 0
M  V30 896 C 89.618 -0.224151 -2.28101 0
M  V30 897 C 90.631 0.593331 -1.51603 0
M  V30 898 O 91.82 0.420911 -1.73466 0
M  V30 899 C 88.92 0.703309 -3.31522 0
M  V30 900 C 88.093 -0.0741528 -4.37337 0
M  V30 901 C 87.152 0.776176 -5.20444 0
M  V30 902 O 86.178 0.216506 -5.68788 0
M  V30 903 N 87.38 2.09401 -5.41416 0
M  V30 904 H 90.145 -1.03598 -2.81225 0
M  V30 905 H 87.706 -0.69392 -1.46275 0
M  V30 906 H 89.698 1.27707 -3.84022 0
M  V30 907 H 88.268 1.41585 -2.78698 0
M  V30 908 H 87.488 -0.82928 -3.85378 0
M  V30 909 H 88.776 -0.608863 -5.05144 0
M  V30 910 H 88.174 2.57229 -5.03835 0
M  V30 911 H 86.731 2.61633 -5.96985 0
M  V30 912 N 90.1641 1.46063 -0.591896 0
M  V30 913 C 91.0741 2.34192 0.13831 0
M  V30 914 C 92.0901 1.50305 0.876608 0
M  V30 915 O 93.2661 1.8315 0.837728 0
M  V30 916 C 90.3311 3.27656 1.13326 0
M  V30 917 C 89.3921 4.27445 0.39863 0
M  V30 918 C 88.6251 5.16443 1.34618 0
M  V30 919 O 88.8481 5.08553 2.58321 0
M  V30 920 O 87.7821 5.95843 0.851768 0
M  V30 921 H 91.6081 2.98002 -0.58552 0
M  V30 922 H 89.1931 1.45188 -0.352239 0
M  V30 923 H 91.0751 3.85291 1.70671 0
M  V30 924 H 89.7501 2.6643 1.83839 0
M  V30 925 H 88.6571 3.73471 -0.216895 0
M  V30 926 H 89.9901 4.91482 -0.265709 0
M  V30 927 N 91.6422 0.330177 1.54103 0
M  V30 928 C 92.9192 -0.325007 1.92881 0
M  V30 929 C 93.2992 -1.6934 1.26045 0
M  V30 930 O 92.6472 -2.24855 0.406526 0
M  V30 931 C 92.8572 -0.410634 3.46576 0
M  V30 932 C 94.2052 -0.667801 4.19316 0
M  V30 933 O 95.2292 -0.49329 3.52768 0
M  V30 934 O 94.0882 -1.00491 5.37181 0
M  V30 935 H 91.1822 -0.186873 0.80561 0
M  V30 936 H 93.7282 0.380376 1.65382 0
M  V30 937 H 92.5002 0.550164 3.87413 0
M  V30 938 H 92.1232 -1.16333 3.802 0
M  V30 939 N 93.1203 -1.57491 0.0584922 0
M  V30 940 C 94.3503 -1.9701 -0.622134 0
M  V30 941 C 94.7583 -0.935034 -1.6448 0
M  V30 942 O 94.1013 0.0882904 -1.83488 0
M  V30 943 C 94.1633 -3.32794 -1.35972 0
M  V30 944 C 93.8273 -4.54343 -0.492043 0
M  V30 945 C 94.8243 -5.19323 0.244901 0
M  V30 946 C 92.5093 -5.00534 -0.420821 0
M  V30 947 C 94.5033 -6.28835 1.04143 0
M  V30 948 C 92.1903 -6.09921 0.379389 0
M  V30 949 C 93.1883 -6.73933 1.10919 0
M  V30 950 O 92.8763 -7.81216 1.89623 0
M  V30 951 H 92.6083 -0.653127 -0.174359 0
M  V30 952 H 95.1623 -2.05029 0.123418 0
M  V30 953 H 93.3923 -3.21351 -2.15105 0
M  V30 954 H 95.0813 -3.5701 -1.93129 0
M  V30 955 H 95.8473 -4.8459 0.19939 0
M  V30 956 H 91.7263 -4.50496 -0.978474 0
M  V30 957 H 95.2703 -6.7873 1.61157 0
M  V30 958 H 91.1673 -6.44089 0.426512 0
M  V30 959 H 91.9353 -7.98029 1.81913 0
M  V30 960 N 94.5984 0.214957 -1.56127 0
M  V30 961 C 95.8754 0.963093 -1.70247 0
M  V30 962 C 96.2554 2.02166 -0.60764 0
M  V30 963 O 95.6034 2.25244 0.384385 0
M  V30 964 C 95.8134 1.56756 -3.11815 0
M  V30 965 C 97.1614 2.0573 -3.7143 0
M  V30 966 O 98.1854 1.66637 -3.14818 0
M  V30 967 O 97.0444 2.77603 -4.70743 0
M  V30 968 H 94.1384 0.450321 -0.693643 0
M  V30 969 H 96.6844 0.206219 -1.68442 0
M  V30 970 H 95.4564 0.803533 -3.82961 0
M  V30 971 H 95.0794 2.3898 -3.17765 0
M  V30 972 N 96.0765 1.50051 0.48192 0
M  V30 973 C 97.4925 1.37237 0.814756 0
M  V30 974 C 97.6925 0.420109 1.97072 0
M  V30 975 O 96.7485 -0.141246 2.52105 0
M  V30 976 C 98.0615 2.78375 1.13701 0
M  V30 977 C 99.6095 2.87213 1.2441 0
M  V30 978 C 100.084 4.29161 1.59954 0
M  V30 979 N 101.575 4.32061 1.66967 0
M  V30 980 C 102.31 5.38879 1.95952 0
M  V30 981 N 101.806 6.55918 2.23031 0
M  V30 982 N 103.599 5.26312 1.97363 0
M  V30 983 H 95.7505 2.10546 -0.28005 0
M  V30 984 H 98.0135 0.945921 -0.0627454 0
M  V30 985 H 97.7195 3.49845 0.360787 0
M  V30 986 H 97.5935 3.14941 2.07586 0
M  V30 987 H 99.9805 2.15969 2.01101 0
M  V30 988 H 100.061 2.54204 0.285299 0
M  V30 989 H 99.7055 5.00938 0.838067 0
M  V30 990 H 99.6355 4.59648 2.56966 0
M  V30 991 H 102.126 3.47661 1.48123 0
M  V30 992 H 102.439 7.33139 2.44391 0
M  V30 993 H 100.784 6.59112 2.20447 0
M  V30 994 H 103.975 4.33876 1.75697 0
M  V30 995 H 104.148 6.09649 2.19618 0
M  V30 996 N 97.5546 -0.734337 1.39446 0
M  V30 997 C 98.4846 -1.86155 1.40955 0
M  V30 998 C 99.4656 -1.67898 0.272827 0
M  V30 999 O 100.651 -1.88207 0.478743 0
M  V30 1000 C 97.7806 -3.23912 1.25294 0
M  V30 1001 C 96.7346 -3.56808 2.36373 0
M  V30 1002 C 96.0606 -4.93508 2.058 0
M  V30 1003 C 97.3606 -3.59713 3.78687 0
M  V30 1004 H 99.0546 -1.8515 2.35287 0
M  V30 1005 H 96.6006 -0.889367 1.13253 0
M  V30 1006 H 98.5536 -4.02443 1.2497 0
M  V30 1007 H 97.2776 -3.25446 0.274308 0
M  V30 1008 H 95.9366 -2.80606 2.35914 0
M  V30 1009 H 95.5846 -4.91623 1.06374 0
M  V30 1010 H 95.2846 -5.16486 2.80208 0
M  V30 1011 H 96.8086 -5.74396 2.07128 0
M  V30 1012 H 98.2226 -4.2832 3.81071 0
M  V30 1013 H 96.6196 -3.94209 4.52459 0
M  V30 1014 H 97.6896 -2.59504 4.09617 0
M  V30 1015 N 99.0327 -1.24633 -0.964593 0
M  V30 1016 C 100.449 -1.01239 -1.2338 0
M  V30 1017 C 100.649 0.2769 -1.99588 0
M  V30 1018 O 99.7047 0.992241 -2.32187 0
M  V30 1019 C 101.018 -2.22937 -2.01791 0
M  V30 1020 C 102.566 -2.27594 -2.14872 0
M  V30 1021 C 103.041 -3.48921 -2.96678 0
M  V30 1022 N 104.532 -3.49257 -3.04259 0
M  V30 1023 C 105.267 -4.39795 -3.67924 0
M  V30 1024 N 104.763 -5.40591 -4.33281 0
M  V30 1025 N 106.556 -4.275 -3.64966 0
M  V30 1026 H 98.7067 -2.0748 -0.454502 0
M  V30 1027 H 100.97 -0.910647 -0.26349 0
M  V30 1028 H 100.676 -3.16587 -1.53184 0
M  V30 1029 H 100.55 -2.25306 -3.02518 0
M  V30 1030 H 102.937 -1.34473 -2.6268 0
M  V30 1031 H 103.018 -2.2925 -1.13482 0
M  V30 1032 H 102.662 -4.42359 -2.49562 0
M  V30 1033 H 102.592 -3.4451 -3.98272 0
M  V30 1034 H 105.083 -2.76337 -2.57771 0
M  V30 1035 H 105.396 -6.05904 -4.79687 0
M  V30 1036 H 103.741 -5.44475 -4.3194 0
M  V30 1037 H 106.932 -3.47987 -3.13086 0
M  V30 1038 H 107.105 -4.98258 -4.14298 0
M  V30 1039 N 100.511 1.16574 -1.06058 0
M  V30 1040 C 101.922 1.68662 -0.800632 0
M  V30 1041 C 102.273 1.84184 0.67608 0
M  V30 1042 O 101.398 1.53568 1.52466 0
M  V30 1043 C 101.993 3.06356 -1.44676 0
M  V30 1044 C 100.552 3.55575 -1.23465 0
M  V30 1045 C 99.6988 2.31616 -1.52477 0
M  V30 1046 H 102.65 1.00969 -1.22438 0
M  V30 1047 H 102.671 3.70636 -0.860788 0
M  V30 1048 H 102.183 2.95027 -2.52152 0
M  V30 1049 H 100.284 3.72167 -0.179527 0
M  V30 1050 H 100.397 4.37812 -1.94571 0
M  V30 1051 H 98.7608 2.36512 -0.945209 0
M  V30 1052 H 99.5438 2.22887 -2.61106 0
M  V30 1053 N 101.989 0.842826 1.3317 0
M  V30 1054 C 102.919 0.294028 2.31641 0
M  V30 1055 C 103.9 -0.600401 1.59151 0
M  V30 1056 O 105.085 -0.523124 1.87022 0
M  V30 1057 C 102.215 -0.528416 3.43257 0
M  V30 1058 C 101.169 0.27056 4.27144 0
M  V30 1059 C 100.495 -0.675881 5.30411 0
M  V30 1060 C 101.795 1.48981 5.00602 0
M  V30 1061 H 103.489 1.11681 2.77791 0
M  V30 1062 H 101.035 0.538478 1.33553 0
M  V30 1063 H 102.988 -0.922674 4.11175 0
M  V30 1064 H 101.712 -1.38445 2.95805 0
M  V30 1065 H 100.371 0.646427 3.60856 0
M  V30 1066 H 100.019 -1.52842 4.79216 0
M  V30 1067 H 99.7189 -0.145374 5.8742 0
M  V30 1068 H 101.243 -1.06757 6.01195 0
M  V30 1069 H 102.657 1.16849 5.61266 0
M  V30 1070 H 101.054 1.95739 5.6728 0
M  V30 1071 H 102.124 2.25746 4.29147 0
M  V30 1072 N 103.467 -1.45747 0.599634 0
M  V30 1073 C 104.692 -2.07178 0.0960198 0
M  V30 1074 C 105.117 -1.44268 -1.207 0
M  V30 1075 O 104.475 -0.532503 -1.73303 0
M  V30 1076 C 104.523 -3.60579 -0.0385348 0
M  V30 1077 O 103.627 -3.97713 -1.0908 0
M  V30 1078 H 102.968 -0.660251 0.0704593 0
M  V30 1079 H 105.498 -1.87124 0.827385 0
M  V30 1080 H 105.508 -4.07298 -0.239304 0
M  V30 1081 H 104.183 -4.05756 0.912947 0
M  V30 1082 H 102.76 -3.62678 -0.867135 0
M  V30 1083 N 104.945 -0.338344 -1.53925 0
M  V30 1084 C 106.175 0.260919 -2.04946 0
M  V30 1085 C 106.583 1.45174 -1.2133 0
M  V30 1086 O 105.926 1.82122 -0.240262 0
M  V30 1087 C 105.988 0.744596 -3.51704 0
M  V30 1088 C 105.652 -0.325883 -4.55837 0
M  V30 1089 C 106.649 -1.16687 -5.06636 0
M  V30 1090 C 104.334 -0.478317 -5.00017 0
M  V30 1091 C 106.328 -2.14588 -6.00192 0
M  V30 1092 C 104.015 -1.46073 -5.93385 0
M  V30 1093 C 105.013 -2.29297 -6.4336 0
M  V30 1094 O 104.701 -3.25867 -7.34892 0
M  V30 1095 H 104.433 0.0551207 -0.673749 0
M  V30 1096 H 106.987 -0.486984 -1.99544 0
M  V30 1097 H 105.217 1.54366 -3.54553 0
M  V30 1098 H 106.906 1.26383 -3.85723 0
M  V30 1099 H 107.672 -1.06016 -4.73271 0
M  V30 1100 H 103.551 0.159613 -4.60724 0
M  V30 1101 H 107.095 -2.79585 -6.39123 0
M  V30 1102 H 102.992 -1.56802 -6.26166 0
M  V30 1103 H 103.76 -3.21278 -7.5281 0
M  V30 1104 N 106.423 1.57458 -0.0668435 0
M  V30 1105 C 107.834 1.80776 0.466558 0
M  V30 1106 C 108.185 0.980361 1.69951 0
M  V30 1107 O 107.31 0.201441 2.1546 0
M  V30 1108 C 107.905 3.27881 0.85321 0
M  V30 1109 C 106.464 3.52062 1.3315 0
M  V30 1110 C 105.611 2.75513 0.314264 0
M  V30 1111 H 108.562 1.5598 -0.292588 0
M  V30 1112 H 108.583 3.39659 1.715 0
M  V30 1113 H 108.095 3.88075 -0.0443439 0
M  V30 1114 H 106.196 2.97167 2.24772 0
M  V30 1115 H 106.309 4.60762 1.31285 0
M  V30 1116 H 104.673 2.42123 0.790492 0
M  V30 1117 H 105.456 3.38442 -0.575477 0
M  V30 1118 N 107.901 -0.206675 1.56239 0
M  V30 1119 C 108.833 -1.27997 1.9013 0
M  V30 1120 C 109.846 -1.42299 0.790883 0
M  V30 1121 O 111.035 -1.42931 1.06925 0
M  V30 1122 C 108.135 -2.65368 2.10792 0
M  V30 1123 C 107.308 -2.72824 3.41886 0
M  V30 1124 C 106.367 -3.9131 3.51799 0
M  V30 1125 O 105.393 -3.78953 4.24716 0
M  V30 1126 N 106.595 -5.06265 2.84035 0
M  V30 1127 H 109.36 -0.992444 2.82791 0
M  V30 1128 H 106.921 -0.396652 1.56966 0
M  V30 1129 H 108.913 -3.43039 2.14724 0
M  V30 1130 H 107.483 -2.86657 1.24685 0
M  V30 1131 H 106.703 -1.81515 3.49923 0
M  V30 1132 H 107.991 -2.74786 4.28217 0
M  V30 1133 H 107.389 -5.19203 2.246 0
M  V30 1134 H 105.946 -5.81925 2.93609 0
M  V30 1135 N 109.379 -1.50304 -0.473955 0
M  V30 1136 C 110.607 -1.64902 -1.24959 0
M  V30 1137 C 111.022 -0.331198 -1.85872 0
M  V30 1138 O 110.379 0.68652 -1.69095 0
M  V30 1139 C 110.43 -2.73803 -2.36038 0
M  V30 1140 O 110.151 -4.00477 -1.77624 0
M  V30 1141 C 111.652 -2.99349 -3.26964 0
M  V30 1142 H 108.872 -0.554383 -0.378022 0
M  V30 1143 H 111.416 -1.9651 -0.566054 0
M  V30 1144 H 109.571 -2.44898 -3.00173 0
M  V30 1145 H 109.985 -4.60678 -2.5075 0
M  V30 1146 H 111.459 -3.79217 -4.01121 0
M  V30 1147 H 111.936 -2.10307 -3.85574 0
M  V30 1148 H 112.542 -3.29774 -2.68569 0
M  V30 1149 N 110.857 0.726932 -1.39834 0
M  V30 1150 C 112.134 1.47902 -1.28001 0
M  V30 1151 C 112.514 2.1083 0.106789 0
M  V30 1152 O 111.862 1.99242 1.11869 0
M  V30 1153 C 112.072 2.52392 -2.41038 0
M  V30 1154 C 113.42 3.18546 -2.80737 0
M  V30 1155 O 114.444 2.62708 -2.40547 0
M  V30 1156 O 113.303 4.19604 -3.50135 0
M  V30 1157 H 110.397 0.657163 -0.502062 0
M  V30 1158 H 112.943 0.760071 -1.51727 0
M  V30 1159 H 111.715 2.04329 -3.33715 0
M  V30 1160 H 111.338 3.31837 -2.19021 0
M  V30 1161 N 112.336 1.25143 0.95797 0
M  V30 1162 C 113.582 1.09855 1.70469 0
M  V30 1163 C 113.915 -0.360187 1.90831 0
M  V30 1164 O 113.19 -1.26568 1.47685 0
M  V30 1165 C 113.473 1.8497 3.08963 0
M  V30 1166 C 113.326 3.38652 2.96032 0
M  V30 1167 C 114.645 1.63016 4.08795 0
M  V30 1168 H 111.764 0.400465 0.618706 0
M  V30 1169 H 114.406 1.53933 1.11376 0
M  V30 1170 H 112.556 1.47505 3.59409 0
M  V30 1171 H 114.228 3.85772 2.52938 0
M  V30 1172 H 112.471 3.66534 2.32025 0
M  V30 1173 H 113.142 3.8642 3.94187 0
M  V30 1174 H 115.618 1.95625 3.67247 0
M  V30 1175 H 114.494 2.18015 5.03747 0
M  V30 1176 H 114.755 0.570692 4.38401 0
M  V30 1177 N 113.814 -1.1601 1.06675 0
M  V30 1178 C 115.061 -1.86633 0.785781 0
M  V30 1179 C 115.389 -1.81929 -0.687896 0
M  V30 1180 O 114.644 -1.23253 -1.52011 0
M  V30 1181 C 114.943 -3.35547 1.23057 0
M  V30 1182 C 114.609 -3.60448 2.70902 0
M  V30 1183 C 113.271 -3.66954 3.11285 0
M  V30 1184 C 115.623 -3.7071 3.66365 0
M  V30 1185 C 112.951 -3.81225 4.45965 0
M  V30 1186 C 115.303 -3.86503 5.00797 0
M  V30 1187 C 113.967 -3.91252 5.40813 0
M  V30 1188 H 113.237 -0.682937 0.287538 0
M  V30 1189 H 115.884 -1.37146 1.33654 0
M  V30 1190 H 114.189 -3.87193 0.59907 0
M  V30 1191 H 115.886 -3.88583 0.990163 0
M  V30 1192 H 112.476 -3.56021 2.38636 0
M  V30 1193 H 116.66 -3.64991 3.36296 0
M  V30 1194 H 111.916 -3.83155 4.76447 0
M  V30 1195 H 116.09 -3.93385 5.74649 0
M  V30 1196 H 113.717 -4.02062 6.45174 0
M  V30 1197 N 115.292 -0.849877 -1.32721 0
M  V30 1198 C 116.222 -0.306308 -2.31482 0
M  V30 1199 C 117.203 0.591952 -1.59468 0
M  V30 1200 O 118.388 0.513199 -1.87296 0
M  V30 1201 C 115.518 0.510204 -3.43532 0
M  V30 1202 C 114.472 -0.293209 -4.26994 0
M  V30 1203 C 113.798 0.647743 -5.30762 0
M  V30 1204 C 115.098 -1.51634 -4.99804 0
M  V30 1205 H 116.792 -1.13153 -2.77195 0
M  V30 1206 H 114.338 -0.545553 -1.33266 0
M  V30 1207 H 116.291 0.900856 -4.11658 0
M  V30 1208 H 115.015 1.36874 -2.96535 0
M  V30 1209 H 113.674 -0.665555 -3.60508 0
M  V30 1210 H 113.322 1.50299 -4.8002 0
M  V30 1211 H 113.022 0.11422 -5.87489 0
M  V30 1212 H 114.546 1.03567 -6.01753 0
M  V30 1213 H 115.96 -1.19824 -5.60638 0
M  V30 1214 H 114.357 -1.98745 -5.66234 0
M  V30 1215 H 115.427 -2.28018 -4.27943 0
M  V30 1216 N 116.77 1.45427 -0.607355 0
M  V30 1217 C 118.016 2.0254 -0.102607 0
M  V30 1218 C 118.349 1.47478 1.26348 0
M  V30 1219 O 117.624 0.64939 1.83339 0
M  V30 1220 C 117.907 3.60044 -0.0634347 0
M  V30 1221 C 117.76 4.2544 -1.46017 0
M  V30 1222 C 119.079 4.35646 0.624514 0
M  V30 1223 H 116.198 0.73598 -0.0387607 0
M  V30 1224 H 118.84 1.73284 -0.779282 0
M  V30 1225 H 116.99 3.85101 0.512808 0
M  V30 1226 H 118.662 4.11569 -2.08347 0
M  V30 1227 H 116.905 3.83849 -2.02094 0
M  V30 1228 H 117.576 5.34342 -1.385 0
M  V30 1229 H 120.052 4.15882 0.134723 0
M  V30 1230 H 118.928 5.45376 0.621028 0
M  V30 1231 H 119.189 4.08501 1.69055 0
M  V30 1232 N 118.248 0.346503 1.53744 0
M  V30 1233 C 119.488 -0.249413 2.02873 0
M  V30 1234 C 119.852 -1.47532 1.22876 0
M  V30 1235 O 121.053 -2.1456 1.61918 0
M  V30 1236 C 119.324 -0.552909 3.53097 0
M  V30 1237 S 120.883 -1.12521 4.24128 0
M  V30 1238 H 117.701 -0.074042 0.707134 0
M  V30 1239 H 120.303 0.48495 1.8939 0
M  V30 1240 H 119.007 0.347083 4.0893 0
M  V30 1241 H 118.538 -1.31686 3.70705 0
M  V30 1242 H 120.553 -2.41075 4.33702 0
M  V30 1243 N 119.726 -1.57421 0.075193 0
M  V30 1244 C 120.973 -1.93618 -0.593146 0
M  V30 1245 C 121.301 -0.955484 -1.69413 0
M  V30 1246 O 120.556 0.0283251 -1.9568 0
M  V30 1247 C 120.855 -3.36428 -1.20626 0
M  V30 1248 C 120.521 -4.50307 -0.231078 0
M  V30 1249 C 119.183 -4.81186 0.0371936 0
M  V30 1250 C 121.535 -5.19374 0.435888 0
M  V30 1251 C 118.863 -5.78466 0.979461 0
M  V30 1252 C 121.215 -6.17665 1.3665 0
M  V30 1253 C 119.879 -6.46958 1.6432 0
M  V30 1254 H 119.149 -0.708499 -0.217047 0
M  V30 1255 H 121.796 -1.90937 0.146793 0
M  V30 1256 H 120.101 -3.35592 -2.02201 0
M  V30 1257 H 121.798 -3.61727 -1.73073 0
M  V30 1258 H 118.388 -4.26227 -0.450357 0
M  V30 1259 H 122.572 -4.95711 0.241748 0
M  V30 1260 H 117.828 -5.99487 1.20106 0
M  V30 1261 H 122.002 -6.70284 1.88924 0
M  V30 1262 H 119.629 -7.2215 2.37494 0
M  V30 1263 N 121.204 0.198386 -1.56346 0
M  V30 1264 C 122.429 0.939682 -1.84891 0
M  V30 1265 C 122.854 1.76202 -0.658369 0
M  V30 1266 O 122.212 1.76993 0.392851 0
M  V30 1267 C 122.26 1.81428 -3.11635 0
M  V30 1268 O 121.364 2.91265 -2.91956 0
M  V30 1269 H 120.705 0.264807 -0.608912 0
M  V30 1270 H 123.235 0.204695 -2.03573 0
M  V30 1271 H 123.245 2.21958 -3.42343 0
M  V30 1272 H 121.92 1.21004 -3.97908 0
M  V30 1273 H 120.497 2.54514 -2.72538 0
M  V30 1274 N 122.682 1.50554 0.465978 0
M  V30 1275 C 123.928 1.62038 1.21949 0
M  V30 1276 C 124.261 0.322116 1.9151 0
M  V30 1277 O 123.536 -0.676723 1.82348 0
M  V30 1278 C 123.819 2.80421 2.25912 0
M  V30 1279 C 123.672 4.20144 1.60622 0
M  V30 1280 C 124.991 2.94354 3.27176 0
M  V30 1281 H 122.11 0.589752 0.441998 0
M  V30 1282 H 124.752 1.82956 0.51257 0
M  V30 1283 H 122.902 2.62717 2.86203 0
M  V30 1284 H 124.574 4.49449 1.03889 0
M  V30 1285 H 122.817 4.24165 0.909211 0
M  V30 1286 H 123.488 4.98914 2.36196 0
M  V30 1287 H 125.964 3.10578 2.76913 0
M  V30 1288 H 124.84 3.788 3.97242 0
M  V30 1289 H 125.101 2.05186 3.916 0
M  V30 1290 N 124.16 -0.719506 1.40217 0
M  V30 1291 C 125.406 -1.48152 1.38488 0
M  V30 1292 C 125.739 -1.94195 -0.0141867 0
M  V30 1293 O 125.014 -1.67884 -0.982096 0
M  V30 1294 C 125.297 -2.71035 2.37091 0
M  V30 1295 C 125.15 -2.30912 3.86005 0
M  V30 1296 C 126.469 -3.73182 2.33288 0
M  V30 1297 H 123.588 -0.537395 0.504357 0
M  V30 1298 H 126.23 -0.821472 1.71324 0
M  V30 1299 H 124.38 -3.27352 2.0922 0
M  V30 1300 H 126.052 -1.80107 4.24687 0
M  V30 1301 H 124.295 -1.62958 4.02029 0
M  V30 1302 H 124.966 -3.18978 4.50508 0
M  V30 1303 H 127.442 -3.26485 2.57966 0
M  V30 1304 H 126.318 -4.56806 3.04334 0
M  V30 1305 H 126.579 -4.21202 1.34317 0
M  V30 1306 N 125.638 -1.25649 -0.95132 0
M  V30 1307 C 126.863 -1.13443 -1.73624 0
M  V30 1308 C 127.288 0.307565 -1.85568 0
M  V30 1309 O 126.646 1.22282 -1.33854 0
M  V30 1310 C 126.694 -1.79723 -3.12621 0
M  V30 1311 O 125.798 -1.07912 -3.98031 0
M  V30 1312 H 125.139 -0.395872 -0.533086 0
M  V30 1313 H 127.669 -1.66276 -1.1922 0
M  V30 1314 H 127.679 -1.86141 -3.63064 0
M  V30 1315 H 126.354 -2.84633 -3.03244 0
M  V30 1316 H 124.931 -1.09398 -3.56492 0
M  V30 1317 N 127.117 1.15442 -1.07289 0
M  V30 1318 C 128.528 1.67803 -0.818475 0
M  V30 1319 C 128.879 1.8489 0.656507 0
M  V30 1320 O 128.004 1.55176 1.50829 0
M  V30 1321 C 128.599 3.04805 -1.47917 0
M  V30 1322 C 127.158 3.54245 -1.27229 0
M  V30 1323 C 126.305 2.29986 -1.54925 0
M  V30 1324 H 129.256 0.996646 -1.23502 0
M  V30 1325 H 129.277 3.69702 -0.90005 0
M  V30 1326 H 128.789 2.92336 -2.55267 0
M  V30 1327 H 126.89 3.71956 -0.21899 0
M  V30 1328 H 127.003 4.35723 -1.99203 0
M  V30 1329 H 125.367 2.35496 -0.970242 0
M  V30 1330 H 126.15 2.20105 -2.63455 0
M  V30 1331 N 128.595 0.856903 1.32268 0
M  V30 1332 C 129.82 0.474569 2.01897 0
M  V30 1333 C 130.245 -0.921766 1.63967 0
M  V30 1334 O 129.603 -1.60589 0.84148 0
M  V30 1335 C 129.651 0.623799 3.55164 0
M  V30 1336 O 128.755 -0.342459 4.10976 0
M  V30 1337 H 128.096 0.190422 0.63611 0
M  V30 1338 H 130.626 1.15672 1.68764 0
M  V30 1339 H 130.636 0.512169 4.04773 0
M  V30 1340 H 129.311 1.64202 3.82113 0
M  V30 1341 H 127.888 -0.18688 3.72431 0
M  V30 1342 N 130.073 -1.45103 0.615059 0
M  V30 1343 C 131.298 -2.07064 0.117988 0
M  V30 1344 C 131.723 -1.4554 -1.19163 0
M  V30 1345 O 131.081 -0.550855 -1.72729 0
M  V30 1346 C 131.129 -3.606 -0.000288387 0
M  V30 1347 O 130.233 -3.98847 -1.04856 0
M  V30 1348 H 129.574 -0.659467 0.0774581 0
M  V30 1349 H 132.104 -1.86236 0.847186 0
M  V30 1350 H 132.114 -4.07529 -0.196091 0
M  V30 1351 H 130.789 -4.04765 0.955932 0
M  V30 1352 H 129.366 -3.63577 -0.828619 0
M  V30 1353 N 131.551 -0.354651 -1.53558 0
M  V30 1354 C 132.798 0.238443 -2.01091 0
M  V30 1355 C 133.126 1.49663 -1.24222 0
M  V30 1356 O 132.381 1.93049 -0.321003 0
M  V30 1357 C 132.68 0.587121 -3.52545 0
M  V30 1358 C 132.346 -0.575472 -4.47213 0
M  V30 1359 C 131.008 -0.894497 -4.72813 0
M  V30 1360 C 133.36 -1.35489 -5.03281 0
M  V30 1361 C 130.688 -1.99511 -5.51736 0
M  V30 1362 C 133.04 -2.44583 -5.83405 0
M  V30 1363 C 131.704 -2.77033 -6.07296 0
M  V30 1364 H 130.974 0.0872526 -0.735845 0
M  V30 1365 H 133.621 -0.484859 -1.8526 0
M  V30 1366 H 131.926 1.39129 -3.66265 0
M  V30 1367 H 133.623 1.05809 -3.86789 0
M  V30 1368 H 130.213 -0.316774 -4.27428 0
M  V30 1369 H 134.397 -1.12167 -4.83459 0
M  V30 1370 H 129.653 -2.25063 -5.68469 0
M  V30 1371 H 133.827 -3.05401 -6.25862 0
M  V30 1372 H 131.454 -3.6244 -6.68237 0
M  V30 1373 N 133.029 1.57378 -0.0835403 0
M  V30 1374 C 133.939 2.16897 0.894021 0
M  V30 1375 C 134.955 1.13528 1.31861 0
M  V30 1376 O 136.131 1.45848 1.3889 0
M  V30 1377 C 133.196 2.72831 2.13925 0
M  V30 1378 C 132.257 3.91115 1.76997 0
M  V30 1379 C 131.49 4.44371 2.95584 0
M  V30 1380 O 131.713 3.96596 4.09961 0
M  V30 1381 O 130.647 5.35549 2.74719 0
M  V30 1382 H 134.473 3.00814 0.417679 0
M  V30 1383 H 132.058 1.48741 0.140181 0
M  V30 1384 H 133.94 3.0863 2.86924 0
M  V30 1385 H 132.615 1.91967 2.60635 0
M  V30 1386 H 131.522 3.60148 1.01214 0
M  V30 1387 H 132.855 4.73307 1.3506 0
M  V30 1388 N 134.507 -0.190092 1.56449 0
M  V30 1389 C 135.455 -1.25501 1.95837 0
M  V30 1390 C 136.449 -1.4685 0.844485 0
M  V30 1391 O 137.655 -1.47651 1.02952 0
M  V30 1392 H 134.03 -0.421447 0.622805 0
M  V30 1393 H 136.001 -0.895821 2.84636 0
M  V30 1394 C 134.75 -2.59124 2.31841 0
M  V30 1395 H 134.073 -2.43514 3.17082 0
M  V30 1396 H 135.513 -3.32371 2.6326 0
M  V30 1397 C 133.972 -3.16488 1.15486 0
M  V30 1398 O 134.502 -3.99365 0.432535 0
M  V30 1399 N 132.708 -2.75305 0.930349 0
M  V30 1400 H 132.255 -2.08013 1.51948 0
M  V30 1401 H 132.213 -3.14024 0.153634 0
M  V30 1402 N 135.985 -1.50799 -0.457987 0
M  V30 1403 C 137.231 -1.62683 -1.21088 0
M  V30 1404 C 137.564 -0.332268 -1.91336 0
M  V30 1405 O 136.839 0.667043 -1.82704 0
M  V30 1406 C 137.122 -2.81615 -2.24422 0
M  V30 1407 C 136.975 -4.20989 -1.58392 0
M  V30 1408 C 138.294 -2.96085 -3.2561 0
M  V30 1409 H 135.413 -0.592087 -0.438864 0
M  V30 1410 H 138.055 -1.83225 -0.50286 0
M  V30 1411 H 136.205 -2.64231 -2.84806 0
M  V30 1412 H 137.877 -4.49994 -1.01504 0
M  V30 1413 H 136.12 -4.24641 -0.886704 0
M  V30 1414 H 136.791 -5.0016 -2.33547 0
M  V30 1415 H 139.267 -3.12042 -2.75262 0
M  V30 1416 H 138.143 -3.80902 -3.95228 0
M  V30 1417 H 138.404 -2.0726 -3.90507 0
M  V30 1418 N 137.463 0.71206 -1.40597 0
M  V30 1419 C 138.41 1.82613 -1.41142 0
M  V30 1420 C 139.38 1.63925 -0.267903 0
M  V30 1421 O 140.565 1.85009 -0.466495 0
M  V30 1422 C 137.705 3.20354 -1.28324 0
M  V30 1423 C 136.818 3.50589 -2.52411 0
M  V30 1424 C 135.953 4.77855 -2.32009 0
M  V30 1425 C 134.992 5.01005 -3.51654 0
M  V30 1426 N 134.129 6.19487 -3.30425 0
M  V30 1427 H 138.969 1.81482 -2.36365 0
M  V30 1428 H 136.506 0.886475 -1.17388 0
M  V30 1429 H 138.464 3.99899 -1.18899 0
M  V30 1430 H 137.094 3.20705 -0.367189 0
M  V30 1431 H 136.146 2.65573 -2.72351 0
M  V30 1432 H 137.458 3.63604 -3.41458 0
M  V30 1433 H 136.612 5.65424 -2.19956 0
M  V30 1434 H 135.351 4.67056 -1.40392 0
M  V30 1435 H 134.356 4.1189 -3.64179 0
M  V30 1436 H 135.581 5.13674 -4.44202 0
M  V30 1437 H 133.527 6.09932 -2.41494 0
M  V30 1438 H 133.444 6.33194 -4.13039 0
M  V30 1439 H 134.712 7.09834 -3.22113 0
M  V30 1440 N 138.941 1.26152 0.944643 0
M  V30 1441 C 139.851 1.09176 2.07648 0
M  V30 1442 C 140.867 0.0261935 1.7398 0
M  V30 1443 O 142.043 0.229208 2.00091 0
M  V30 1444 C 139.108 0.722915 3.39079 0
M  V30 1445 C 138.169 1.86752 3.86552 0
M  V30 1446 C 137.402 1.51617 5.11711 0
M  V30 1447 O 137.625 0.416331 5.68879 0
M  V30 1448 O 136.559 2.34975 5.54139 0
M  V30 1449 H 140.385 2.0412 2.24875 0
M  V30 1450 H 137.97 1.05182 1.061 0
M  V30 1451 H 139.852 0.529787 4.18056 0
M  V30 1452 H 138.527 -0.197159 3.23099 0
M  V30 1453 H 137.434 2.11558 3.08535 0
M  V30 1454 H 138.767 2.76719 4.07047 0
M  V30 1455 N 140.419 -1.14872 1.07899 0
M  V30 1456 C 141.366 -2.19791 0.704319 0
M  V30 1457 C 142.336 -1.63238 -0.306987 0
M  V30 1458 O 143.521 -1.8983 -0.192171 0
M  V30 1459 C 140.661 -3.44911 0.114244 0
M  V30 1460 C 139.774 -4.15637 1.1777 0
M  V30 1461 C 138.909 -5.28324 0.552037 0
M  V30 1462 C 137.948 -5.90875 1.59789 0
M  V30 1463 N 137.085 -6.95022 0.994404 0
M  V30 1464 H 141.925 -2.5119 1.60336 0
M  V30 1465 H 139.462 -1.23356 0.801352 0
M  V30 1466 H 141.42 -4.16477 -0.245544 0
M  V30 1467 H 140.05 -3.14011 -0.74813 0
M  V30 1468 H 139.102 -3.42512 1.65499 0
M  V30 1469 H 140.414 -4.5823 1.97046 0
M  V30 1470 H 139.568 -6.06538 0.1402 0
M  V30 1471 H 138.307 -4.86939 -0.272431 0
M  V30 1472 H 137.312 -5.11369 2.01945 0
M  V30 1473 H 138.537 -6.34337 2.42474 0
M  V30 1474 H 136.483 -6.55722 0.190939 0
M  V30 1475 H 136.4 -7.36073 1.72432 0
M  V30 1476 H 137.668 -7.77123 0.608253 0
M  V30 1477 N 141.898 -0.863906 -1.31812 0
M  V30 1478 C 143.144 -0.481841 -1.9761 0
M  V30 1479 C 143.499 0.954048 -1.6708 0
M  V30 1480 O 142.792 1.66182 -0.953624 0
M  V30 1481 C 142.986 -0.668547 -3.51091 0
M  V30 1482 C 142.815 -2.12103 -3.96538 0
M  V30 1483 C 141.585 -2.76141 -4.23171 0
M  V30 1484 C 143.783 -3.09265 -4.10925 0
M  V30 1485 N 141.765 -4.12205 -4.54929 0
M  V30 1486 C 143.136 -4.30341 -4.46326 0
M  V30 1487 C 145.191 -3.05337 -3.93286 0
M  V30 1488 C 143.894 -5.48 -4.65928 0
M  V30 1489 C 145.92 -4.22248 -4.14078 0
M  V30 1490 C 145.282 -5.42085 -4.49804 0
M  V30 1491 H 141.381 -0.225238 -0.74886 0
M  V30 1492 H 143.965 -1.11723 -1.59455 0
M  V30 1493 H 142.136 -0.0627898 -3.88349 0
M  V30 1494 H 143.868 -0.255467 -4.03893 0
M  V30 1495 H 140.623 -2.27125 -4.15585 0
M  V30 1496 H 141.047 -4.82416 -4.74978 0
M  V30 1497 H 145.689 -2.138 -3.64759 0
M  V30 1498 H 143.407 -6.40059 -4.93305 0
M  V30 1499 H 146.993 -4.20654 -4.01922 0
M  V30 1500 H 145.873 -6.31044 -4.65567 0
M  V30 1501 N 143.376 1.44774 -0.622745 0
M  V30 1502 C 144.622 2.0242 -0.124083 0
M  V30 1503 C 144.955 1.4881 1.24777 0
M  V30 1504 O 144.23 0.668799 1.8264 0
M  V30 1505 C 144.513 3.59957 -0.101619 0
M  V30 1506 C 144.366 4.23867 -1.50521 0
M  V30 1507 C 145.685 4.36284 0.578272 0
M  V30 1508 H 142.804 0.735528 -0.0465645 0
M  V30 1509 H 145.446 1.72447 -0.797617 0
M  V30 1510 H 143.596 3.85623 0.471934 0
M  V30 1511 H 145.268 4.09336 -2.12701 0
M  V30 1512 H 143.511 3.81684 -2.06154 0
M  V30 1513 H 144.182 5.32843 -1.4416 0
M  V30 1514 H 146.658 4.16001 0.0906057 0
M  V30 1515 H 145.534 5.46004 0.563149 0
M  V30 1516 H 145.795 4.10271 1.64713 0
M  V30 1517 N 144.854 0.36279 1.53368 0
M  V30 1518 C 146.265 -0.117022 1.86333 0
M  V30 1519 C 146.616 -1.48397 1.28347 0
M  V30 1520 O 145.741 -2.07787 0.604428 0
M  V30 1521 C 146.336 -0.21912 3.38091 0
M  V30 1522 C 144.895 -0.643184 3.70864 0
M  V30 1523 C 144.042 0.211318 2.76494 0
M  V30 1524 H 146.993 0.581687 1.47655 0
M  V30 1525 H 147.014 -1.04319 3.6592 0
M  V30 1526 H 146.526 0.775902 3.80265 0
M  V30 1527 H 144.627 -1.64654 3.34245 0
M  V30 1528 H 144.74 -0.41973 4.77258 0
M  V30 1529 H 143.104 -0.319367 2.5269 0
M  V30 1530 H 143.887 1.20383 3.21501 0
M  V30 1531 N 146.332 -1.57332 0.0918853 0
M  V30 1532 C 147.242 -2.17368 -0.882505 0
M  V30 1533 C 148.258 -1.14226 -1.31257 0
M  V30 1534 O 149.434 -1.46582 -1.38115 0
M  V30 1535 C 146.499 -2.73962 -2.12476 0
M  V30 1536 C 145.56 -3.92048 -1.7492 0
M  V30 1537 C 144.793 -4.45933 -2.93223 0
M  V30 1538 O 145.016 -3.98764 -4.07852 0
M  V30 1539 O 143.95 -5.36999 -2.71875 0
M  V30 1540 H 147.776 -3.01031 -0.40172 0
M  V30 1541 H 145.361 -1.48813 -0.132291 0
M  V30 1542 H 147.243 -3.10147 -2.85283 0
M  V30 1543 H 145.918 -1.93347 -2.59613 0
M  V30 1544 H 144.825 -3.6068 -0.993025 0
M  V30 1545 H 146.158 -4.74017 -1.32548 0
M  V30 1546 N 147.81 0.181792 -1.56548 0
M  V30 1547 C 149.059 0.898348 -1.8059 0
M  V30 1548 C 149.372 1.83862 -0.667379 0
M  V30 1549 O 150.578 2.59678 -0.792446 0
M  V30 1550 C 149.034 1.64791 -3.19956 0
M  V30 1551 C 148.642 0.751789 -4.41647 0
M  V30 1552 C 150.386 2.35331 -3.53298 0
M  V30 1553 C 148.293 1.50098 -5.72035 0
M  V30 1554 H 147.223 0.339194 -0.673397 0
M  V30 1555 H 149.874 0.151413 -1.82874 0
M  V30 1556 H 148.256 2.43921 -3.11959 0
M  V30 1557 H 149.43 -0.0018076 -4.608 0
M  V30 1558 H 147.745 0.156562 -4.16106 0
M  V30 1559 H 150.342 2.91958 -4.47956 0
M  V30 1560 H 150.685 3.10164 -2.77676 0
M  V30 1561 H 151.218 1.63154 -3.62803 0
M  V30 1562 H 147.957 0.795175 -6.50659 0
M  V30 1563 H 147.477 2.22817 -5.56878 0
M  V30 1564 H 149.156 2.05125 -6.13622 0
M  V30 1565 N 149.288 1.51039 0.449983 0
M  V30 1566 C 150.516 1.66869 1.2232 0
M  V30 1567 C 150.931 0.360727 1.85322 0
M  V30 1568 O 150.288 -0.659531 1.70166 0
M  V30 1569 C 150.339 2.77524 2.31652 0
M  V30 1570 O 150.06 4.03252 1.7123 0
M  V30 1571 C 151.561 3.04512 3.2216 0
M  V30 1572 H 148.781 0.560326 0.369155 0
M  V30 1573 H 151.325 1.97385 0.534719 0
M  V30 1574 H 149.48 2.49642 2.96239 0
M  V30 1575 H 149.894 4.64609 2.43389 0
M  V30 1576 H 151.368 3.85551 3.95038 0
M  V30 1577 H 151.845 2.16415 3.8218 0
M  V30 1578 H 152.451 3.34005 2.63288 0
M  V30 1579 N 150.766 -0.704594 1.40972 0
M  V30 1580 C 151.716 -1.81051 1.38581 0
M  V30 1581 C 152.7 -1.58759 0.261585 0
M  V30 1582 O 153.892 -1.69745 0.501556 0
M  V30 1583 C 151.021 -3.19279 1.26157 0
M  V30 1584 C 150.107 -3.47296 2.43405 0
M  V30 1585 N 150.498 -3.46064 3.68881 0
M  V30 1586 C 148.796 -3.77804 2.37023 0
M  V30 1587 C 149.497 -3.72733 4.46592 0
M  V30 1588 N 148.473 -3.9203 3.76581 0
M  V30 1589 H 152.275 -1.78448 2.33525 0
M  V30 1590 H 149.789 -0.904198 1.349 0
M  V30 1591 H 151.786 -3.98488 1.22526 0
M  V30 1592 H 150.446 -3.231 0.321902 0
M  V30 1593 H 151.457 -3.26656 4.01891 0
M  V30 1594 H 148.134 -3.8905 1.51481 0
M  V30 1595 H 149.524 -3.77993 5.55492 0
M  V30 1596 N 152.244 -1.26651 -0.937939 0
M  V30 1597 C 153.194 -1.05156 -2.02302 0
M  V30 1598 C 154.178 0.0171233 -1.60891 0
M  V30 1599 O 155.37 -0.200213 -1.75864 0
M  V30 1600 C 152.499 -0.689962 -3.36295 0
M  V30 1601 C 151.585 -1.79626 -3.84181 0
M  V30 1602 N 151.976 -3.03422 -4.04684 0
M  V30 1603 C 150.274 -1.6806 -4.13124 0
M  V30 1604 C 150.975 -3.75345 -4.444 0
M  V30 1605 N 149.951 -3.03051 -4.51288 0
M  V30 1606 H 153.753 -1.99117 -2.1617 0
M  V30 1607 H 151.267 -1.17216 -1.12402 0
M  V30 1608 H 153.264 -0.517112 -4.13681 0
M  V30 1609 H 151.924 0.242139 -3.23796 0
M  V30 1610 H 152.935 -3.39293 -3.91281 0
M  V30 1611 H 149.612 -0.818629 -4.09396 0
M  V30 1612 H 151.002 -4.81691 -4.68427 0
M  V30 1613 N 153.722 1.14298 -1.08507 0
M  V30 1614 C 154.962 1.87016 -0.824894 0
M  V30 1615 C 155.326 1.81099 0.637735 0
M  V30 1616 O 156.527 2.48963 1.01345 0
M  V30 1617 C 154.798 3.31584 -1.33368 0
M  V30 1618 S 156.357 4.21903 -1.20596 0
M  V30 1619 H 153.175 0.645259 -0.2986 0
M  V30 1620 H 155.777 1.37822 -1.38656 0
M  V30 1621 H 154.481 3.33439 -2.39262 0
M  V30 1622 H 154.012 3.85836 -0.767734 0
M  V30 1623 H 156.027 4.95971 -0.150891 0
M  V30 1624 N 155.201 0.870884 1.31352 0
M  V30 1625 C 156.612 0.534714 1.78879 0
M  V30 1626 C 156.963 -0.948423 1.71754 0
M  V30 1627 O 156.088 -1.74055 1.28584 0
M  V30 1628 C 156.683 0.963839 3.24801 0
M  V30 1629 C 155.242 0.679311 3.70219 0
M  V30 1630 C 154.389 1.15465 2.52117 0
M  V30 1631 H 157.34 1.05651 1.18421 0
M  V30 1632 H 157.361 0.286892 3.79417 0
M  V30 1633 H 156.873 2.04332 3.29955 0
M  V30 1634 H 154.974 -0.388769 3.70566 0
M  V30 1635 H 155.087 1.25698 4.62317 0
M  V30 1636 H 153.451 0.574383 2.48139 0
M  V30 1637 H 154.234 2.24157 2.60016 0
M  V30 1638 N 156.679 -1.44442 0.630414 0
M  V30 1639 C 157.626 -2.30678 -0.0749355 0
M  V30 1640 C 158.596 -1.4344 -0.837502 0
M  V30 1641 O 159.781 -1.72343 -0.818684 0
M  V30 1642 C 156.921 -3.28706 -1.05103 0
M  V30 1643 C 156.034 -4.31046 -0.286954 0
M  V30 1644 C 155.169 -5.16167 -1.2548 0
M  V30 1645 C 154.208 -6.10216 -0.479843 0
M  V30 1646 N 153.345 -6.88039 -1.39811 0
M  V30 1647 H 158.185 -2.90454 0.666386 0
M  V30 1648 H 155.722 -1.43107 0.340404 0
M  V30 1649 H 157.68 -3.84027 -1.63031 0
M  V30 1650 H 156.31 -2.70632 -1.75949 0
M  V30 1651 H 155.362 -3.78203 0.408243 0
M  V30 1652 H 156.674 -4.97794 0.316657 0
M  V30 1653 H 155.828 -5.76002 -1.90544 0
M  V30 1654 H 154.567 -4.49491 -1.89233 0
M  V30 1655 H 153.572 -5.49491 0.184295 0
M  V30 1656 H 154.797 -6.78928 0.152965 0
M  V30 1657 H 152.743 -6.24032 -2.02287 0
M  V30 1658 H 152.66 -7.51223 -0.848508 0
M  V30 1659 H 153.928 -7.52397 -2.03762 0
M  V30 1660 N 158.157 -0.370918 -1.53173 0
M  V30 1661 C 159.385 0.217704 -2.05751 0
M  V30 1662 C 159.8 1.42018 -1.24404 0
M  V30 1663 O 159.157 1.80245 -0.286033 0
M  V30 1664 C 159.208 0.605954 -3.56385 0
M  V30 1665 O 158.929 -0.548734 -4.3465 0
M  V30 1666 C 160.43 1.2524 -4.25241 0
M  V30 1667 H 157.65 0.0371659 -0.66997 0
M  V30 1668 H 160.194 -0.530832 -1.9749 0
M  V30 1669 H 158.349 1.3044 -3.6478 0
M  V30 1670 H 158.763 -0.23376 -5.23979 0
M  V30 1671 H 160.237 1.47458 -5.3194 0
M  V30 1672 H 160.714 2.2143 -3.79296 0
M  V30 1673 H 161.32 0.595233 -4.21114 0
M  V30 1674 N 159.635 1.57281 -0.100228 0
M  V30 1675 C 161.046 1.81725 0.428107 0
M  V30 1676 C 161.397 1.01619 1.67833 0
M  V30 1677 O 160.522 0.247098 2.14985 0
M  V30 1678 C 161.117 3.29617 0.78347 0
M  V30 1679 C 159.676 3.54808 1.25653 0
M  V30 1680 C 158.823 2.76118 0.255752 0
M  V30 1681 H 161.774 1.55324 -0.325608 0
M  V30 1682 H 161.795 3.4322 1.64256 0
M  V30 1683 H 161.307 3.87893 -0.12665 0
M  V30 1684 H 159.408 3.01868 2.18418 0
M  V30 1685 H 159.521 4.63443 1.21482 0
M  V30 1686 H 157.885 2.43745 0.738956 0
M  V30 1687 H 158.668 3.37145 -0.647136 0
M  V30 1688 N 161.113 -0.173488 1.56642 0
M  V30 1689 C 162.36 -0.890465 1.81871 0
M  V30 1690 C 162.688 -1.82339 0.67696 0
M  V30 1691 O 161.943 -1.92795 -0.335926 0
M  V30 1692 C 162.242 -1.72069 3.13252 0
M  V30 1693 C 161.908 -0.936878 4.41059 0
M  V30 1694 C 160.57 -0.720545 4.75775 0
M  V30 1695 C 162.922 -0.386919 5.19762 0
M  V30 1696 C 160.25 0.0568829 5.86672 0
M  V30 1697 C 162.602 0.37741 6.31473 0
M  V30 1698 C 161.266 0.604563 6.64757 0
M  V30 1699 H 160.536 -0.325844 0.665512 0
M  V30 1700 H 163.183 -0.155527 1.90867 0
M  V30 1701 H 161.488 -2.52496 2.99588 0
M  V30 1702 H 163.185 -2.27844 3.29982 0
M  V30 1703 H 159.775 -1.11553 4.13828 0
M  V30 1704 H 163.959 -0.541398 4.93338 0
M  V30 1705 H 159.215 0.242635 6.10918 0
M  V30 1706 H 163.389 0.810825 6.91664 0
M  V30 1707 H 161.016 1.20885 7.50527 0
M  V30 1708 N 162.591 -1.51276 -0.441967 0
M  V30 1709 C 163.521 -1.752 -1.54361 0
M  V30 1710 C 164.502 -0.601682 -1.59103 0
M  V30 1711 O 165.687 -0.843913 -1.74905 0
M  V30 1712 C 162.817 -1.87282 -2.92477 0
M  V30 1713 C 161.771 -3.02687 -3.02596 0
M  V30 1714 C 161.097 -2.99947 -4.42647 0
M  V30 1715 C 162.397 -4.4273 -2.77106 0
M  V30 1716 H 164.091 -2.67442 -1.34592 0
M  V30 1717 H 161.637 -1.28694 -0.646048 0
M  V30 1718 H 163.59 -2.02602 -3.695 0
M  V30 1719 H 162.314 -0.916844 -3.13467 0
M  V30 1720 H 160.973 -2.87065 -2.28012 0
M  V30 1721 H 160.621 -2.02136 -4.60597 0
M  V30 1722 H 160.321 -3.77439 -4.50348 0
M  V30 1723 H 161.845 -3.17354 -5.2165 0
M  V30 1724 H 163.259 -4.58727 -3.43864 0
M  V30 1725 H 161.656 -5.21893 -2.96222 0
M  V30 1726 H 162.726 -4.53087 -1.72744 0
M  V30 1727 N 164.069 0.697108 -1.41344 0
M  V30 1728 C 164.999 1.82353 -1.45841 0
M  V30 1729 C 165.98 1.67115 -0.317247 0
M  V30 1730 O 167.165 1.86871 -0.528474 0
M  V30 1731 C 164.295 3.20476 -1.33838 0
M  V30 1732 C 163.249 3.50415 -2.4575 0
M  V30 1733 C 162.575 4.87878 -2.18813 0
M  V30 1734 C 163.875 3.49546 -3.88091 0
M  V30 1735 H 165.569 1.78846 -2.40113 0
M  V30 1736 H 163.115 0.859028 -1.15571 0
M  V30 1737 H 165.068 3.98988 -1.35596 0
M  V30 1738 H 163.792 3.24604 -0.360498 0
M  V30 1739 H 162.451 2.74253 -2.43271 0
M  V30 1740 H 162.099 4.8863 -1.19371 0
M  V30 1741 H 161.799 5.08875 -2.93803 0
M  V30 1742 H 163.323 5.68702 -2.22284 0
M  V30 1743 H 164.737 4.18066 -3.92293 0
M  V30 1744 H 163.134 3.82075 -4.62751 0
M  V30 1745 H 164.204 2.48552 -4.16353 0
M  V30 1746 N 165.547 1.27147 0.931209 0
M  V30 1747 C 166.793 1.13446 1.68101 0
M  V30 1748 C 167.126 -0.319628 1.91552 0
M  V30 1749 O 166.401 -1.23407 1.50336 0
M  V30 1750 C 166.684 1.91482 3.0497 0
M  V30 1751 C 166.537 3.44855 2.88782 0
M  V30 1752 C 167.856 1.71651 4.05246 0
M  V30 1753 H 164.975 0.413498 0.610072 0
M  V30 1754 H 167.617 1.56261 1.08086 0
M  V30 1755 H 165.767 1.55095 3.56199 0
M  V30 1756 H 167.439 3.9105 2.44698 0
M  V30 1757 H 165.682 3.71373 2.24198 0
M  V30 1758 H 166.353 3.94694 3.85902 0
M  V30 1759 H 168.829 2.0337 3.63015 0
M  V30 1760 H 167.705 2.28651 4.99009 0
M  V30 1761 H 167.966 0.663555 4.37092 0
M  V30 1762 N 167.025 -1.13721 1.09112 0
M  V30 1763 C 168.273 -1.84559 0.823562 0
M  V30 1764 C 168.594 -1.83754 -0.652658 0
M  V30 1765 O 167.864 -1.29102 -1.47342 0
M  V30 1766 H 166.444 -0.683376 0.301673 0
M  V30 1767 H 169.106 -1.37771 1.37859 0
M  V30 1768 H 168.202 -2.8917 1.17419 0
M  V30 1769 N 168.503 -0.877838 -1.30888 0
M  V30 1770 C 169.731 -0.507414 -2.00581 0
M  V30 1771 C 170.146 0.902216 -1.65848 0
M  V30 1772 O 169.503 1.59225 -0.891831 0
M  V30 1773 C 169.554 -0.664162 -3.55347 0
M  V30 1774 O 169.275 -2.01829 -3.8884 0
M  V30 1775 C 170.776 -0.295787 -4.42312 0
M  V30 1776 H 167.996 -0.196866 -0.641471 0
M  V30 1777 H 170.54 -1.18117 -1.66939 0
M  V30 1778 H 168.695 -0.0378619 -3.87381 0
M  V30 1779 H 169.109 -2.03174 -4.8355 0
M  V30 1780 H 170.583 -0.456388 -5.5011 0
M  V30 1781 H 171.06 0.765663 -4.32475 0
M  V30 1782 H 171.666 -0.898113 -4.15709 0
M  V30 1783 N 169.982 1.44106 -0.638065 0
M  V30 1784 C 170.914 2.28976 0.101205 0
M  V30 1785 C 171.927 1.4167 0.802088 0
M  V30 1786 O 173.116 1.65755 0.662375 0
M  V30 1787 C 170.216 3.18217 1.16581 0
M  V30 1788 C 169.389 4.33978 0.546066 0
M  V30 1789 C 168.448 5.04202 1.50554 0
M  V30 1790 O 167.474 5.59986 1.01999 0
M  V30 1791 N 168.676 5.06296 2.8398 0
M  V30 1792 H 171.441 2.93064 -0.627186 0
M  V30 1793 H 169.002 1.54629 -0.479731 0
M  V30 1794 H 170.994 3.62061 1.80815 0
M  V30 1795 H 169.564 2.55833 1.79634 0
M  V30 1796 H 168.784 3.93239 -0.275046 0
M  V30 1797 H 170.072 5.08675 0.112793 0
M  V30 1798 H 169.47 4.62319 3.26002 0
M  V30 1799 H 168.027 5.53907 3.43556 0
M  V30 1800 N 171.46 0.379036 1.52974 0
M  V30 1801 C 172.709 -0.207612 2.00629 0
M  V30 1802 C 173.022 -1.48758 1.27006 0
M  V30 1803 O 174.228 -2.15365 1.65318 0
M  V30 1804 C 172.684 -0.42053 3.57435 0
M  V30 1805 C 172.292 0.845587 4.39948 0
M  V30 1806 C 174.036 -0.964102 4.13407 0
M  V30 1807 C 171.943 0.601513 5.88333 0
M  V30 1808 H 170.873 -0.0813591 0.749598 0
M  V30 1809 H 173.524 0.499853 1.76561 0
M  V30 1810 H 171.906 -1.18959 3.7771 0
M  V30 1811 H 173.08 1.61848 4.31442 0
M  V30 1812 H 171.395 1.31336 3.95145 0
M  V30 1813 H 173.992 -1.16225 5.21916 0
M  V30 1814 H 174.335 -1.93019 3.68849 0
M  V30 1815 H 174.868 -0.25487 3.96983 0
M  V30 1816 H 171.607 1.53831 6.37194 0
M  V30 1817 H 171.127 -0.132628 5.99653 0
M  V30 1818 H 172.806 0.232134 6.46583 0
M  V30 1819 N 172.938 -1.57226 0.108567 0
M  V30 1820 C 174.215 -1.86333 -0.594939 0
M  V30 1821 C 174.595 -1.00788 -1.85486 0
M  V30 1822 O 173.943 -0.0839293 -2.28346 0
M  V30 1823 C 174.153 -3.37265 -0.897405 0
M  V30 1824 C 175.501 -4.05629 -1.25501 0
M  V30 1825 O 176.525 -3.42224 -0.987998 0
M  V30 1826 O 175.384 -5.17531 -1.75567 0
M  V30 1827 H 172.478 -0.771018 -0.2991 0
M  V30 1828 H 175.024 -1.69102 0.142283 0
M  V30 1829 H 173.796 -3.913 -0.00413806 0
M  V30 1830 H 173.419 -3.59889 -1.69014 0
M  V30 1831 N 174.416 0.165178 -1.56732 0
M  V30 1832 C 175.346 1.20651 -1.99914 0
M  V30 1833 C 176.327 1.45827 -0.875705 0
M  V30 1834 O 177.512 1.57057 -1.14223 0
M  V30 1835 C 174.642 2.54401 -2.36427 0
M  V30 1836 C 173.596 2.43782 -3.51787 0
M  V30 1837 C 172.922 3.82078 -3.7406 0
M  V30 1838 C 174.222 1.93732 -4.85041 0
M  V30 1839 H 175.916 0.847534 -2.87154 0
M  V30 1840 H 173.462 0.40625 -1.38151 0
M  V30 1841 H 175.415 3.27458 -2.65234 0
M  V30 1842 H 174.139 2.92098 -1.46103 0
M  V30 1843 H 172.798 1.73178 -3.23117 0
M  V30 1844 H 172.446 4.17179 -2.81017 0
M  V30 1845 H 172.146 3.7584 -4.51684 0
M  V30 1846 H 173.67 4.56712 -4.05274 0
M  V30 1847 H 175.084 2.56569 -5.12684 0
M  V30 1848 H 173.481 1.98428 -5.66345 0
M  V30 1849 H 174.551 0.891962 -4.76626 0
M  V30 1850 N 175.894 1.51508 0.433938 0
M  V30 1851 C 177.31 1.39759 0.770682 0
M  V30 1852 C 177.51 0.482594 1.95636 0
M  V30 1853 O 176.566 -0.0609691 2.52426 0
M  V30 1854 C 177.879 2.81851 1.04787 0
M  V30 1855 C 179.427 2.91025 1.1521 0
M  V30 1856 C 179.902 4.34032 1.46219 0
M  V30 1857 N 181.393 4.37154 1.53136 0
M  V30 1858 C 182.128 5.4484 1.78709 0
M  V30 1859 N 181.624 6.62682 2.02051 0
M  V30 1860 N 183.417 5.32324 1.80519 0
M  V30 1861 H 175.568 2.09548 -0.346892 0
M  V30 1862 H 177.831 0.943446 -0.0928074 0
M  V30 1863 H 177.537 3.50815 0.249304 0
M  V30 1864 H 177.411 3.21386 1.97461 0
M  V30 1865 H 179.798 2.22257 1.94128 0
M  V30 1866 H 179.879 2.54983 0.204281 0
M  V30 1867 H 179.523 5.03351 0.678274 0
M  V30 1868 H 179.453 4.6759 2.42212 0
M  V30 1869 H 181.944 3.52197 1.36987 0
M  V30 1870 H 182.257 7.40543 2.20943 0
M  V30 1871 H 180.602 6.65791 1.99366 0
M  V30 1872 H 183.793 4.39246 1.61805 0
M  V30 1873 H 183.966 6.16328 2.00111 0
M  V30 1874 N 177.372 -0.689602 1.41712 0
M  V30 1875 C 178.649 -1.44457 1.31877 0
M  V30 1876 C 179.029 -2.11039 -0.0508537 0
M  V30 1877 O 178.377 -2.02138 -1.06547 0
M  V30 1878 C 178.587 -2.45913 2.47645 0
M  V30 1879 C 179.935 -3.10991 2.89084 0
M  V30 1880 O 180.959 -2.56238 2.47428 0
M  V30 1881 O 179.818 -4.10174 3.61137 0
M  V30 1882 H 176.912 -0.64362 0.519309 0
M  V30 1883 H 179.458 -0.719576 1.53689 0
M  V30 1884 H 178.23 -1.95409 3.39015 0
M  V30 1885 H 177.853 -3.25913 2.27742 0
M  V30 1886 N 178.85 -1.27639 -0.924453 0
M  V30 1887 C 180.127 -1.04887 -1.651 0
M  V30 1888 C 180.507 0.415327 -2.06974 0
M  V30 1889 O 179.855 1.39923 -1.80648 0
M  V30 1890 C 180.065 -2.01348 -2.85061 0
M  V30 1891 C 181.413 -2.30899 -3.56329 0
M  V30 1892 O 182.437 -1.99348 -2.95193 0
M  V30 1893 O 181.296 -2.84699 -4.66485 0
M  V30 1894 H 178.39 -0.400083 -0.723784 0
M  V30 1895 H 180.936 -1.38916 -0.974703 0
M  V30 1896 H 179.708 -3.0008 -2.51133 0
M  V30 1897 H 179.331 -1.679 -3.6041 0
M  V30 1898 N 180.328 1.1314 -1.09713 0
M  V30 1899 C 181.739 1.66029 -0.853885 0
M  V30 1900 C 182.09 1.86241 0.617142 0
M  V30 1901 O 181.215 1.5834 1.47503 0
M  V30 1902 C 181.81 3.01599 -1.5435 0
M  V30 1903 C 180.369 3.51467 -1.34714 0
M  V30 1904 C 179.516 2.26648 -1.59769 0
M  V30 1905 H 182.467 0.970226 -1.25588 0
M  V30 1906 H 182.488 3.67709 -0.978267 0
M  V30 1907 H 182 2.86856 -2.6141 0
M  V30 1908 H 180.101 3.71408 -0.297838 0
M  V30 1909 H 180.214 4.314 -2.08401 0
M  V30 1910 H 178.578 2.33385 -1.01998 0
M  V30 1911 H 179.361 2.14467 -2.68065 0
M  V30 1912 N 181.806 0.884767 1.30421 0
M  V30 1913 C 183.031 0.517288 2.00845 0
M  V30 1914 C 183.456 -0.886779 1.65885 0
M  V30 1915 O 182.814 -1.58768 0.875354 0
M  V30 1916 C 182.862 0.698994 3.5376 0
M  V30 1917 O 181.966 -0.255208 4.1161 0
M  V30 1918 H 181.307 0.203872 0.631927 0
M  V30 1919 H 183.837 1.19225 1.66272 0
M  V30 1920 H 183.847 0.597912 4.03595 0
M  V30 1921 H 182.522 1.72271 3.78544 0
M  V30 1922 H 181.099 -0.10784 3.72744 0
M  V30 1923 N 183.284 -1.43765 0.645699 0
M  V30 1924 C 184.512 -2.06253 0.163556 0
M  V30 1925 C 184.927 -1.48352 -1.16778 0
M  V30 1926 O 184.284 -0.611932 -1.71935 0
M  V30 1927 C 184.335 -3.61453 0.0583186 0
M  V30 1928 O 184.056 -4.172 1.33702 0
M  V30 1929 C 185.557 -4.41002 -0.450795 0
M  V30 1930 H 182.777 -0.665413 0.0864077 0
M  V30 1931 H 185.321 -1.84396 0.884222 0
M  V30 1932 H 183.476 -3.82522 -0.612865 0
M  V30 1933 H 183.89 -5.10791 1.19131 0
M  V30 1934 H 185.364 -5.49966 -0.473403 0
M  V30 1935 H 185.841 -4.13488 -1.48068 0
M  V30 1936 H 186.447 -4.24886 0.187637 0
M  V30 1937 N 184.763 -0.387143 -1.52771 0
M  V30 1938 C 186.012 0.19697 -2.00736 0
M  V30 1939 C 186.325 1.48082 -1.27793 0
M  V30 1940 O 187.531 2.14485 -1.66458 0
M  V30 1941 C 185.987 0.401568 -3.57653 0
M  V30 1942 C 185.595 -0.868907 -4.39493 0
M  V30 1943 C 187.339 0.942164 -4.13912 0
M  V30 1944 C 185.246 -0.632705 -5.88006 0
M  V30 1945 H 184.176 0.0773827 -0.750019 0
M  V30 1946 H 186.827 -0.50921 -1.76293 0
M  V30 1947 H 185.209 1.16954 -3.78335 0
M  V30 1948 H 186.383 -1.64133 -4.30577 0
M  V30 1949 H 184.698 -1.33429 -3.94443 0
M  V30 1950 H 187.295 1.13455 -5.22525 0
M  V30 1951 H 187.638 1.9106 -3.69867 0
M  V30 1952 H 188.171 0.233814 -3.97112 0
M  V30 1953 H 184.91 -1.57208 -6.36369 0
M  V30 1954 H 184.43 0.100825 -5.99715 0
M  V30 1955 H 186.109 -0.26642 -6.46451 0
M  V30 1956 N 186.241 1.57166 -0.116904 0
M  V30 1957 C 187.151 2.18745 0.847812 0
M  V30 1958 C 188.167 1.163 1.29423 0
M  V30 1959 O 189.343 1.48761 1.35765 0
M  V30 1960 C 186.408 2.77307 2.0809 0
M  V30 1961 C 185.469 3.94781 1.68661 0
M  V30 1962 C 184.702 4.50541 2.86091 0
M  V30 1963 O 184.925 4.05202 4.01456 0
M  V30 1964 O 183.859 5.41256 2.63298 0
M  V30 1965 H 187.685 3.01632 0.353778 0
M  V30 1966 H 185.27 1.49005 0.108599 0
M  V30 1967 H 187.152 3.14647 2.80313 0
M  V30 1968 H 185.827 1.97452 2.56504 0
M  V30 1969 H 184.734 3.62214 0.935518 0
M  V30 1970 H 186.067 4.76065 1.24991 0
M  V30 1971 N 187.719 -0.156864 1.56817 0
M  V30 1972 C 188.666 -1.19394 1.97519 0
M  V30 1973 C 189.636 -1.4322 0.841265 0
M  V30 1974 O 190.821 -1.55719 1.10255 0
M  V30 1975 C 187.961 -2.52483 2.35258 0
M  V30 1976 C 187.074 -2.35914 3.61896 0
M  V30 1977 C 186.209 -3.61969 3.88782 0
M  V30 1978 C 185.248 -3.40395 5.08722 0
M  V30 1979 N 184.385 -4.58556 5.31668 0
M  V30 1980 H 189.225 -0.839845 2.85921 0
M  V30 1981 H 186.762 -0.403264 1.41464 0
M  V30 1982 H 188.72 -3.30071 2.55165 0
M  V30 1983 H 187.35 -2.85859 1.49949 0
M  V30 1984 H 186.402 -1.49429 3.49821 0
M  V30 1985 H 187.714 -2.15926 4.49641 0
M  V30 1986 H 186.868 -4.47989 4.09135 0
M  V30 1987 H 185.607 -3.84951 2.9944 0
M  V30 1988 H 184.612 -2.52763 4.88253 0
M  V30 1989 H 185.837 -3.18822 5.99608 0
M  V30 1990 H 183.783 -4.81729 4.45279 0
M  V30 1991 H 183.7 -4.41535 6.13664 0
M  V30 1992 H 184.968 -5.45817 5.5651 0
M  V30 1993 N 189.197 -1.51736 -0.425897 0
M  V30 1994 C 190.127 -1.76827 -1.52494 0
M  V30 1995 C 191.108 -0.618524 -1.58456 0
M  V30 1996 O 192.293 -0.862416 -1.74 0
M  V30 1997 C 189.423 -1.90374 -2.90474 0
M  V30 1998 C 188.377 -3.0588 -2.99369 0
M  V30 1999 C 187.703 -3.04625 -4.3944 0
M  V30 2000 C 189.003 -4.45644 -2.72394 0
M  V30 2001 H 190.697 -2.68855 -1.31748 0
M  V30 2002 H 188.243 -1.29372 -0.632362 0
M  V30 2003 H 190.196 -2.0651 -3.6733 0
M  V30 2004 H 188.92 -0.95004 -3.12477 0
M  V30 2005 H 187.579 -2.89467 -2.24954 0
M  V30 2006 H 187.227 -2.0701 -4.58428 0
M  V30 2007 H 186.927 -3.82195 -4.46319 0
M  V30 2008 H 188.451 -3.22869 -5.18255 0
M  V30 2009 H 189.865 -4.62348 -3.38979 0
M  V30 2010 H 188.262 -5.25006 -2.9067 0
M  V30 2011 H 189.332 -4.54893 -1.67929 0
M  V30 2012 N 190.675 0.682077 -1.42076 0
M  V30 2013 C 191.638 1.77756 -1.44691 0
M  V30 2014 C 192.638 1.5726 -0.335535 0
M  V30 2015 O 193.828 1.63686 -0.596037 0
M  V30 2016 C 190.96 3.16301 -1.27146 0
M  V30 2017 H 192.153 1.76826 -2.42224 0
M  V30 2018 H 189.706 0.891012 -1.28416 0
M  V30 2019 H 190.441 3.22862 -0.305075 0
M  V30 2020 H 190.226 3.32581 -2.07683 0
M  V30 2021 H 191.716 3.96241 -1.31843 0
M  V30 2022 N 192.153 1.28127 0.917671 0
M  V30 2023 C 193.1 1.11717 2.0196 0
M  V30 2024 C 194.07 0.0153929 1.66093 0
M  V30 2025 O 195.255 0.179596 1.89953 0
M  V30 2026 C 192.395 0.780927 3.36148 0
M  V30 2027 C 191.508 1.96135 3.84909 0
M  V30 2028 C 190.643 1.56609 5.0759 0
M  V30 2029 C 189.682 2.71339 5.48673 0
M  V30 2030 N 188.819 2.32332 6.62545 0
M  V30 2031 H 193.659 2.06003 2.15329 0
M  V30 2032 H 191.196 1.02535 1.05475 0
M  V30 2033 H 193.154 0.56675 4.13333 0
M  V30 2034 H 191.784 -0.124998 3.22558 0
M  V30 2035 H 190.836 2.28777 3.03916 0
M  V30 2036 H 192.148 2.82165 4.1132 0
M  V30 2037 H 191.302 1.31374 5.92305 0
M  V30 2038 H 190.041 0.677014 4.82978 0
M  V30 2039 H 189.046 2.97276 4.62501 0
M  V30 2040 H 190.271 3.60882 5.75274 0
M  V30 2041 H 188.217 1.45889 6.39572 0
M  V30 2042 H 188.134 3.11899 6.88662 0
M  V30 2043 H 189.402 2.10371 7.50576 0
M  V30 2044 N 193.631 -1.12557 1.10312 0
M  V30 2045 C 194.579 -2.20325 0.745629 0
M  V30 2046 C 195.573 -1.67429 -0.25763 0
M  V30 2047 O 196.779 -1.79612 -0.118132 0
M  V30 2048 H 193.154 -0.718118 0.223182 0
M  V30 2049 H 195.125 -2.47733 1.66346 0
M  V30 2050 C 193.874 -3.47168 0.192262 0
M  V30 2051 H 193.197 -3.88215 0.955475 0
M  V30 2052 H 194.637 -4.23995 -0.0198274 0
M  V30 2053 C 193.096 -3.19298 -1.07472 0
M  V30 2054 O 193.626 -3.3891 -2.15645 0
M  V30 2055 N 191.832 -2.73113 -0.992847 0
M  V30 2056 H 191.379 -2.57354 -0.112474 0
M  V30 2057 H 191.337 -2.54842 -1.84127 0
M  V30 2058 N 195.109 -0.891671 -1.2995 0
M  V30 2059 C 196.056 -0.361736 -2.27948 0
M  V30 2060 C 197.026 0.551761 -1.56668 0
M  V30 2061 O 198.211 0.478736 -1.84696 0
M  V30 2062 C 195.351 0.411825 -3.42634 0
M  V30 2063 C 194.464 -0.531651 -4.28716 0
M  V30 2064 C 193.599 0.258167 -5.30572 0
M  V30 2065 C 192.638 -0.680349 -6.08307 0
M  V30 2066 N 191.775 0.0745613 -7.0206 0
M  V30 2067 H 196.615 -1.20254 -2.72659 0
M  V30 2068 H 194.152 -0.604352 -1.34112 0
M  V30 2069 H 196.11 0.876304 -4.07893 0
M  V30 2070 H 194.74 1.21715 -2.98974 0
M  V30 2071 H 193.792 -1.11463 -3.63703 0
M  V30 2072 H 195.104 -1.25038 -4.82874 0
M  V30 2073 H 194.258 0.784204 -6.0161 0
M  V30 2074 H 192.997 1.01008 -4.77126 0
M  V30 2075 H 192.002 -1.21796 -5.3614 0
M  V30 2076 H 193.227 -1.43145 -6.63842 0
M  V30 2077 H 191.173 0.808883 -6.50994 0
M  V30 2078 H 191.09 -0.584409 -7.53738 0
M  V30 2079 H 192.358 0.581123 -7.77331 0
M  V30 2080 N 196.587 1.43421 -0.653314 0
M  V30 2081 C 197.519 2.29071 0.0769134 0
M  V30 2082 C 198.532 1.42513 0.787017 0
M  V30 2083 O 199.721 1.66449 0.644757 0
M  V30 2084 C 196.821 3.19436 1.13199 0
M  V30 2085 C 195.994 4.34533 0.500006 0
M  V30 2086 C 195.053 5.05771 1.45198 0
M  V30 2087 O 194.079 5.61037 0.960538 0
M  V30 2088 N 195.281 5.0928 2.78594 0
M  V30 2089 H 198.046 2.92382 -0.658235 0
M  V30 2090 H 195.607 1.54112 -0.496104 0
M  V30 2091 H 197.599 3.63958 1.76964 0
M  V30 2092 H 196.169 2.57724 1.7691 0
M  V30 2093 H 195.389 3.92925 -0.316738 0
M  V30 2094 H 196.677 5.08766 0.0588345 0
M  V30 2095 H 196.075 4.65751 3.2108 0
M  V30 2096 H 194.632 5.57519 3.37662 0
M  V30 2097 N 198.065 0.39524 1.52563 0
M  V30 2098 C 199.012 -0.437036 2.26624 0
M  V30 2099 C 199.982 -1.05281 1.28472 0
M  V30 2100 O 201.167 -1.07971 1.57311 0
M  V30 2101 C 198.307 -1.55524 3.08069 0
M  V30 2102 C 197.42 -0.961745 4.21158 0
M  V30 2103 C 196.555 -2.05149 4.89987 0
M  V30 2104 C 195.594 -1.4342 5.95061 0
M  V30 2105 N 194.731 -2.46351 6.57462 0
M  V30 2106 H 199.571 0.200976 2.97322 0
M  V30 2107 H 197.108 0.110944 1.46681 0
M  V30 2108 H 199.066 -2.21437 3.53584 0
M  V30 2109 H 197.696 -2.16348 2.3957 0
M  V30 2110 H 196.748 -0.192048 3.79915 0
M  V30 2111 H 198.06 -0.470701 4.96574 0
M  V30 2112 H 197.214 -2.78819 5.38837 0
M  V30 2113 H 195.953 -2.57615 4.14109 0
M  V30 2114 H 194.958 -0.682774 5.45544 0
M  V30 2115 H 196.183 -0.917416 6.72875 0
M  V30 2116 H 194.129 -2.97975 5.8442 0
M  V30 2117 H 194.046 -2.02019 7.28508 0
M  V30 2118 H 195.314 -3.19633 7.10954 0
M  V30 2119 N 199.544 -1.57102 0.125237 0
M  V30 2120 C 200.955 -1.82384 -0.399142 0
M  V30 2121 C 201.306 -1.04276 -1.66195 0
M  V30 2122 O 200.431 -0.281269 -2.14564 0
M  V30 2123 C 201.026 -3.30821 -0.730932 0
M  V30 2124 C 199.585 -3.56762 -1.19992 0
M  V30 2125 C 198.732 -2.7649 -0.211792 0
M  V30 2126 H 201.683 -1.54786 0.350277 0
M  V30 2127 H 201.704 -3.4579 -1.58775 0
M  V30 2128 H 201.216 -3.87643 0.188345 0
M  V30 2129 H 199.317 -3.05305 -2.13588 0
M  V30 2130 H 199.43 -4.65317 -1.14093 0
M  V30 2131 H 197.794 -2.4489 -0.700085 0
M  V30 2132 H 198.577 -3.36073 0.700691 0
M  V30 2133 N 201.022 0.148545 -1.56898 0
M  V30 2134 C 202.271 0.85984 -1.82454 0
M  V30 2135 C 202.584 1.82406 -0.706229 0
M  V30 2136 O 203.79 2.57938 -0.847349 0
M  V30 2137 C 202.246 1.57967 -3.2338 0
M  V30 2138 C 201.854 0.65794 -4.43142 0
M  V30 2139 C 203.598 2.27784 -3.58211 0
M  V30 2140 C 201.505 1.3793 -5.75091 0
M  V30 2141 H 200.435 0.324834 -0.68044 0
M  V30 2142 H 203.086 0.112588 -1.83154 0
M  V30 2143 H 201.468 2.37249 -3.17063 0
M  V30 2144 H 202.642 -0.0995497 -4.60692 0
M  V30 2145 H 200.957 0.0682643 -4.16344 0
M  V30 2146 H 203.554 2.8239 -4.54048 0
M  V30 2147 H 203.897 3.04204 -2.84193 0
M  V30 2148 H 204.43 1.55421 -3.66182 0
M  V30 2149 H 201.169 0.656982 -6.52199 0
M  V30 2150 H 200.689 2.10954 -5.61479 0
M  V30 2151 H 202.368 1.92063 -6.17835 0
M  V30 2152 N 202.5 1.5196 0.417844 0
M  V30 2153 C 203.728 1.69426 1.18753 0
M  V30 2154 C 204.143 0.399955 1.84515 0
M  V30 2155 O 203.5 -0.623288 1.71527 0
M  V30 2156 C 203.551 2.82375 2.25714 0
M  V30 2157 O 203.272 4.06793 1.62638 0
M  V30 2158 C 204.773 3.11277 3.15628 0
M  V30 2159 H 201.993 0.568031 0.357186 0
M  V30 2160 H 204.537 1.98475 0.49273 0
M  V30 2161 H 202.692 2.5587 2.90877 0
M  V30 2162 H 203.106 4.69667 2.3348 0
M  V30 2163 H 204.58 3.93843 3.86771 0
M  V30 2164 H 205.057 2.24473 3.77503 0
M  V30 2165 H 205.663 3.39515 2.56144 0
M  V30 2166 N 203.978 -0.674533 1.42435 0
M  V30 2167 C 205.389 -1.25514 1.38214 0
M  V30 2168 C 205.74 -1.96055 0.0755464 0
M  V30 2169 O 204.865 -2.00028 -0.8257 0
M  V30 2170 C 205.46 -2.28269 2.50357 0
M  V30 2171 C 204.019 -2.81856 2.49467 0
M  V30 2172 C 203.166 -1.56182 2.29134 0
M  V30 2173 H 206.117 -0.467902 1.51646 0
M  V30 2174 H 206.138 -3.10009 2.20624 0
M  V30 2175 H 205.65 -1.769 3.45439 0
M  V30 2176 H 203.751 -3.37346 1.58204 0
M  V30 2177 H 203.864 -3.30854 3.46515 0
M  V30 2178 H 202.228 -1.82761 1.774 0
M  V30 2179 H 203.011 -1.06778 3.26272 0
M  V30 2180 N 205.456 -1.28612 -0.910864 0
M  V30 2181 C 206.366 -1.14643 -2.0468 0
M  V30 2182 C 207.382 -0.0723121 -1.7385 0
M  V30 2183 O 208.558 -0.282178 -1.99413 0
M  V30 2184 C 205.623 -0.812561 -3.37044 0
M  V30 2185 C 204.684 -1.96935 -3.81465 0
M  V30 2186 C 203.917 -1.65131 -5.07511 0
M  V30 2187 O 204.14 -0.567013 -5.67575 0
M  V30 2188 O 203.074 -2.49585 -5.47714 0
M  V30 2189 H 206.9 -2.1001 -2.19384 0
M  V30 2190 H 204.485 -1.07958 -1.03274 0
M  V30 2191 H 206.367 -0.640441 -4.16505 0
M  V30 2192 H 205.042 0.111426 -3.23508 0
M  V30 2193 H 203.949 -2.19664 -3.02818 0
M  V30 2194 H 205.282 -2.87414 -3.99567 0
M  V30 2195 N 206.934 1.1197 -1.10907 0
M  V30 2196 C 208.162 1.87402 -0.876824 0
M  V30 2197 C 208.577 1.79894 0.573025 0
M  V30 2198 O 207.934 1.17629 1.39534 0
M  V30 2199 C 207.985 3.36428 -1.32282 0
M  V30 2200 O 207.706 3.43765 -2.71582 0
M  V30 2201 C 209.207 4.28783 -1.12518 0
M  V30 2202 H 206.427 0.592793 -0.314384 0
M  V30 2203 H 208.971 1.41649 -1.47499 0
M  V30 2204 H 207.126 3.79706 -0.768229 0
M  V30 2205 H 207.54 4.3652 -2.90776 0
M  V30 2206 H 209.014 5.31613 -1.48633 0
M  V30 2207 H 209.491 4.39153 -0.0642394 0
M  V30 2208 H 210.097 3.91291 -1.66648 0
M  V30 2209 N 208.412 0.89855 1.29475 0
M  V30 2210 C 209.375 0.380272 2.26023 0
M  V30 2211 C 210.375 -0.484891 1.53315 0
M  V30 2212 O 211.565 -0.290108 1.71767 0
M  V30 2213 C 208.697 -0.45651 3.3783 0
M  V30 2214 H 209.89 1.23295 2.73383 0
M  V30 2215 H 207.443 0.676589 1.40897 0
M  V30 2216 H 208.178 -1.32922 2.95808 0
M  V30 2217 H 207.963 0.163393 3.91759 0
M  V30 2218 H 209.453 -0.810466 4.0966 0
M  V30 2219 N 209.89 -1.43072 0.660911 0
M  V30 2220 C 210.8 -2.34585 -0.0264163 0
M  V30 2221 C 211.816 -1.54316 -0.803898 0
M  V30 2222 O 212.992 -1.86939 -0.749391 0
M  V30 2223 C 210.057 -3.32689 -0.975639 0
M  V30 2224 C 209.118 -4.2886 -0.194236 0
M  V30 2225 C 208.351 -5.22278 -1.09825 0
M  V30 2226 O 208.574 -5.20299 -2.33763 0
M  V30 2227 O 207.508 -5.99228 -0.566513 0
M  V30 2228 H 211.334 -2.94869 0.727034 0
M  V30 2229 H 208.919 -1.43342 0.42111 0
M  V30 2230 H 210.801 -3.92995 -1.52094 0
M  V30 2231 H 209.476 -2.74898 -1.70918 0
M  V30 2232 H 208.383 -3.72011 0.394835 0
M  V30 2233 H 209.716 -4.89655 0.499899 0
M  V30 2234 N 211.368 -0.403325 -1.52352 0
M  V30 2235 C 212.315 0.425011 -2.26853 0
M  V30 2236 C 213.285 1.04598 -1.29029 0
M  V30 2237 O 214.47 1.07135 -1.57882 0
M  V30 2238 C 211.61 1.53888 -3.08889 0
M  V30 2239 C 210.723 0.939396 -4.21663 0
M  V30 2240 C 209.858 2.02547 -4.91068 0
M  V30 2241 C 208.897 1.40263 -5.95813 0
M  V30 2242 N 208.034 2.4286 -6.58759 0
M  V30 2243 H 212.874 -0.21674 -2.97211 0
M  V30 2244 H 210.411 -0.118722 -1.4662 0
M  V30 2245 H 212.369 2.19558 -3.54753 0
M  V30 2246 H 210.999 2.15074 -2.40714 0
M  V30 2247 H 210.051 0.171898 -3.80011 0
M  V30 2248 H 211.363 0.44436 -4.96817 0
M  V30 2249 H 210.517 2.75958 -5.40308 0
M  V30 2250 H 209.256 2.55415 -4.15469 0
M  V30 2251 H 208.261 0.653833 -5.45898 0
M  V30 2252 H 209.486 0.881719 -6.73352 0
M  V30 2253 H 207.432 2.94871 -5.85992 0
M  V30 2254 H 207.349 1.98152 -7.2957 0
M  V30 2255 H 208.617 3.15858 -7.12639 0
M  V30 2256 N 212.846 1.57033 -0.133567 0
M  V30 2257 C 213.776 2.1909 0.807567 0
M  V30 2258 C 214.757 1.13517 1.26681 0
M  V30 2259 O 215.942 1.41809 1.32679 0
M  V30 2260 C 213.072 2.80188 2.05212 0
M  V30 2261 C 212.026 3.91471 1.73015 0
M  V30 2262 C 211.352 4.39443 3.04622 0
M  V30 2263 C 212.652 5.12886 0.987168 0
M  V30 2264 H 214.346 2.97988 0.290403 0
M  V30 2265 H 211.892 1.43335 0.138239 0
M  V30 2266 H 213.845 3.22264 2.71521 0
M  V30 2267 H 212.569 1.98601 2.59278 0
M  V30 2268 H 211.228 3.49993 1.0909 0
M  V30 2269 H 210.876 3.54695 3.56651 0
M  V30 2270 H 210.576 5.14495 2.83847 0
M  V30 2271 H 212.1 4.8418 3.72024 0
M  V30 2272 H 213.514 5.51891 1.55208 0
M  V30 2273 H 211.911 5.93615 0.87985 0
M  V30 2274 H 212.981 4.84894 -0.0235286 0
M  V30 2275 N 214.325 -0.140222 1.56975 0
M  V30 2276 C 215.288 -1.15689 1.97861 0
M  V30 2277 C 216.288 -1.3549 0.865974 0
M  V30 2278 O 217.478 -1.32367 1.13246 0
M  V30 2279 C 214.61 -2.51582 2.30042 0
M  V30 2280 H 215.803 -0.805971 2.88867 0
M  V30 2281 H 213.356 -0.383801 1.51515 0
M  V30 2282 H 214.091 -2.91632 1.41849 0
M  V30 2283 H 213.876 -2.38569 3.11171 0
M  V30 2284 H 215.366 -3.24792 2.62488 0
M  V30 2285 N 215.803 -1.52179 -0.40978 0
M  V30 2286 C 217.219 -1.40968 -0.74835 0
M  V30 2287 C 217.419 -0.513657 -1.94843 0
M  V30 2288 O 216.475 0.0208026 -2.52491 0
M  V30 2289 C 217.788 -2.83483 -1.0029 0
M  V30 2290 C 219.336 -2.92821 -1.10565 0
M  V30 2291 C 219.811 -4.36303 -1.39296 0
M  V30 2292 N 221.302 -4.39535 -1.46162 0
M  V30 2293 C 222.037 -5.47614 -1.70018 0
M  V30 2294 N 221.533 -6.65812 -1.91483 0
M  V30 2295 N 223.326 -5.35129 -1.72027 0
M  V30 2296 H 215.477 -2.0897 0.380186 0
M  V30 2297 H 217.74 -0.94185 0.107805 0
M  V30 2298 H 217.446 -3.51168 -0.193461 0
M  V30 2299 H 217.32 -3.24487 -1.92323 0
M  V30 2300 H 219.707 -2.25318 -1.90568 0
M  V30 2301 H 219.788 -2.55276 -0.16369 0
M  V30 2302 H 219.432 -5.04366 -0.598109 0
M  V30 2303 H 219.362 -4.71385 -2.34743 0
M  V30 2304 H 221.853 -3.54332 -1.31367 0
M  V30 2305 H 222.166 -7.43964 -2.09134 0
M  V30 2306 H 220.511 -6.68879 -1.88749 0
M  V30 2307 H 223.702 -4.41764 -1.54796 0
M  V30 2308 H 223.875 -6.19433 -1.9028 0
M  V30 2309 N 217.281 0.66697 -1.42791 0
M  V30 2310 C 218.558 1.4234 -1.34159 0
M  V30 2311 C 218.938 2.11093 0.0172729 0
M  V30 2312 O 218.286 2.03808 1.03318 0
M  V30 2313 C 218.496 2.41942 -2.51526 0
M  V30 2314 C 219.844 3.06353 -2.93995 0
M  V30 2315 O 220.868 2.52269 -2.51473 0
M  V30 2316 O 219.727 4.04376 -3.67617 0
M  V30 2317 H 216.821 0.635277 -0.529483 0
M  V30 2318 H 219.367 0.695034 -1.54814 0
M  V30 2319 H 218.139 1.89991 -3.42081 0
M  V30 2320 H 217.762 3.22249 -2.32898 0
M  V30 2321 N 218.759 1.29093 0.90403 0
M  V30 2322 C 219.689 1.16401 2.02418 0
M  V30 2323 C 220.67 0.0593085 1.69997 0
M  V30 2324 O 221.855 0.238021 1.92736 0
M  V30 2325 C 218.985 0.835233 3.37107 0
M  V30 2326 C 217.939 1.89578 3.83724 0
M  V30 2327 C 217.265 1.42041 5.15489 0
M  V30 2328 C 218.565 3.30394 4.04521 0
M  V30 2329 H 220.259 2.10109 2.13295 0
M  V30 2330 H 217.805 1.01157 1.02486 0
M  V30 2331 H 219.758 0.733169 4.14973 0
M  V30 2332 H 218.482 -0.137543 3.2631 0
M  V30 2333 H 217.141 1.98715 3.08071 0
M  V30 2334 H 216.789 0.436426 5.01103 0
M  V30 2335 H 216.489 2.12964 5.4765 0
M  V30 2336 H 218.013 1.33176 5.959 0
M  V30 2337 H 219.427 3.24123 4.72882 0
M  V30 2338 H 217.824 3.99237 4.48029 0
M  V30 2339 H 218.894 3.73692 3.09002 0
M  V30 2340 N 220.237 -1.11381 1.11499 0
M  V30 2341 C 221.184 -2.17439 0.773887 0
M  V30 2342 C 222.154 -1.64132 -0.254899 0
M  V30 2343 O 223.339 -1.90345 -0.13168 0
M  V30 2344 C 220.479 -3.44373 0.223917 0
M  V30 2345 C 219.592 -4.1168 1.30934 0
M  V30 2346 C 218.727 -5.263 0.71984 0
M  V30 2347 C 217.766 -5.85493 1.78507 0
M  V30 2348 N 216.903 -6.91507 1.21502 0
M  V30 2349 H 221.743 -2.45962 1.68246 0
M  V30 2350 H 219.28 -1.20744 0.840191 0
M  V30 2351 H 221.238 -4.17047 -0.112921 0
M  V30 2352 H 219.868 -3.16232 -0.647851 0
M  V30 2353 H 218.92 -3.37073 1.76312 0
M  V30 2354 H 220.232 -4.51729 2.11524 0
M  V30 2355 H 219.386 -6.05785 0.333094 0
M  V30 2356 H 218.125 -4.87559 -0.117377 0
M  V30 2357 H 217.13 -5.04686 2.18111 0
M  V30 2358 H 218.355 -6.26301 2.62533 0
M  V30 2359 H 216.301 -6.54783 0.399455 0
M  V30 2360 H 216.218 -7.30214 1.95763 0
M  V30 2361 H 217.486 -7.74795 0.855181 0
M  V30 2362 N 221.715 -0.905404 -1.28997 0
M  V30 2363 C 222.678 -0.392253 -2.25819 0
M  V30 2364 C 223.678 0.476753 -1.5357 0
M  V30 2365 O 224.868 0.280994 -1.71919 0
M  V30 2366 C 222 0.438588 -3.38067 0
M  V30 2367 H 223.193 -1.24743 -2.72725 0
M  V30 2368 H 220.746 -0.684051 -1.40536 0
M  V30 2369 H 221.481 1.31352 -2.96508 0
M  V30 2370 H 221.266 -0.184167 -3.91667 0
M  V30 2371 H 222.756 0.78873 -4.10084 0
M  V30 2372 N 223.193 1.4272 -0.668489 0
M  V30 2373 C 224.439 2.01923 -0.188419 0
M  V30 2374 C 224.772 1.52704 1.19979 0
M  V30 2375 O 224.047 0.726566 1.8042 0
M  V30 2376 C 224.33 3.59451 -0.216085 0
M  V30 2377 C 224.183 4.18864 -1.6393 0
M  V30 2378 C 225.502 4.37903 0.439179 0
M  V30 2379 H 222.621 0.733674 -0.0699412 0
M  V30 2380 H 225.263 1.69822 -0.852076 0
M  V30 2381 H 223.413 3.86929 0.349012 0
M  V30 2382 H 225.085 4.02362 -2.25616 0
M  V30 2383 H 223.328 3.74933 -2.18193 0
M  V30 2384 H 223.999 5.27987 -1.61039 0
M  V30 2385 H 226.475 4.16079 -0.0417878 0
M  V30 2386 H 225.351 5.47519 0.389157 0
M  V30 2387 H 225.612 4.15303 1.51577 0
M  V30 2388 N 224.671 0.411399 1.52136 0
M  V30 2389 C 225.618 -0.412975 2.27075 0
M  V30 2390 C 226.588 -1.03912 1.29582 0
M  V30 2391 O 227.773 -1.06296 1.58448 0
M  V30 2392 C 224.913 -1.52247 3.09701 0
M  V30 2393 C 224.026 -0.917021 4.22155 0
M  V30 2394 C 223.161 -1.9994 4.92135 0
M  V30 2395 C 222.2 -1.37101 5.96548 0
M  V30 2396 N 221.337 -2.39364 6.60038 0
M  V30 2397 H 226.177 0.232499 2.97092 0
M  V30 2398 H 223.714 0.126496 1.46555 0
M  V30 2399 H 225.672 -2.17674 3.55913 0
M  V30 2400 H 224.302 -2.13794 2.41851 0
M  V30 2401 H 223.354 -0.151742 3.80097 0
M  V30 2402 H 224.666 -0.418006 4.97045 0
M  V30 2403 H 223.82 -2.73088 5.41763 0
M  V30 2404 H 222.559 -2.53208 4.16818 0
M  V30 2405 H 221.564 -0.624873 5.46237 0
M  V30 2406 H 222.789 -0.845998 6.7381 0
M  V30 2407 H 220.735 -2.91759 5.87548 0
M  V30 2408 H 220.652 -1.9428 7.3061 0
M  V30 2409 H 221.92 -3.12074 7.14304 0
M  V30 2410 N 226.149 -1.5696 0.141893 0
M  V30 2411 C 227.379 -2.00031 -0.516828 0
M  V30 2412 C 227.787 -1.02091 -1.59293 0
M  V30 2413 O 227.13 -0.00909657 -1.83698 0
M  V30 2414 C 227.192 -3.39534 -1.1814 0
M  V30 2415 C 226.856 -4.56313 -0.250513 0
M  V30 2416 C 227.853 -5.17295 0.519839 0
M  V30 2417 C 225.538 -5.02061 -0.154907 0
M  V30 2418 C 227.532 -6.2243 1.3733 0
M  V30 2419 C 225.219 -6.07053 0.702161 0
M  V30 2420 C 226.217 -6.67106 1.46487 0
M  V30 2421 O 225.905 -7.70066 2.30767 0
M  V30 2422 H 225.637 -0.661451 -0.139493 0
M  V30 2423 H 228.191 -2.04086 0.231926 0
M  V30 2424 H 226.421 -3.32302 -1.97769 0
M  V30 2425 H 228.11 -3.66745 -1.73933 0
M  V30 2426 H 228.876 -4.82852 0.45598 0
M  V30 2427 H 224.755 -4.5505 -0.7383 0
M  V30 2428 H 228.299 -6.69233 1.96909 0
M  V30 2429 H 224.196 -6.40923 0.76733 0
M  V30 2430 H 224.964 -7.87264 2.23959 0
M  V30 2431 N 227.627 0.131896 -1.57047 0
M  V30 2432 C 228.873 0.843179 -1.84441 0
M  V30 2433 C 229.206 1.80129 -0.725749 0
M  V30 2434 O 228.481 1.92624 0.269469 0
M  V30 2435 C 228.764 1.60442 -3.22382 0
M  V30 2436 C 228.617 0.666782 -4.4483 0
M  V30 2437 C 229.936 2.56354 -3.5773 0
M  V30 2438 H 227.055 0.305081 -0.670891 0
M  V30 2439 H 229.697 0.107839 -1.89694 0
M  V30 2440 H 227.847 2.23128 -3.18035 0
M  V30 2441 H 229.519 0.0497646 -4.61273 0
M  V30 2442 H 227.762 -0.022609 -4.33794 0
M  V30 2443 H 228.433 1.23579 -5.37989 0
M  V30 2444 H 230.909 2.0378 -3.62785 0
M  V30 2445 H 229.785 3.06657 -4.5525 0
M  V30 2446 H 230.046 3.38419 -2.84473 0
M  V30 2447 N 229.106 1.52395 0.401703 0
M  V30 2448 C 230.016 1.7917 1.51444 0
M  V30 2449 C 231.032 0.677691 1.6026 0
M  V30 2450 O 232.208 0.963909 1.76835 0
M  V30 2451 C 229.273 1.94347 2.87107 0
M  V30 2452 C 228.334 3.18257 2.88116 0
M  V30 2453 C 227.567 3.32701 4.17308 0
M  V30 2454 O 227.79 2.52238 5.11598 0
M  V30 2455 O 226.724 4.25891 4.25324 0
M  V30 2456 H 230.55 2.73633 1.31752 0
M  V30 2457 H 228.135 1.3733 0.588296 0
M  V30 2458 H 230.017 2.06109 3.67555 0
M  V30 2459 H 228.692 1.03073 3.06851 0
M  V30 2460 H 227.599 3.11947 2.06494 0
M  V30 2461 H 228.932 4.09336 2.73322 0
M  V30 2462 N 230.584 -0.659388 1.43143 0
M  V30 2463 C 231.824 -1.43121 1.45931 0
M  V30 2464 C 232.188 -1.91838 0.0789298 0
M  V30 2465 O 233.389 -2.68794 -0.018491 0
M  V30 2466 C 231.66 -2.58534 2.46769 0
M  V30 2467 S 233.219 -3.47154 2.68384 0
M  V30 2468 H 230.037 -0.488624 0.516496 0
M  V30 2469 H 232.639 -0.766128 1.79863 0
M  V30 2470 H 231.343 -2.21007 3.45809 0
M  V30 2471 H 230.874 -3.29898 2.14315 0
M  V30 2472 H 232.889 -4.55051 1.97845 0
M  V30 2473 N 232.062 -1.29571 -0.897171 0
M  V30 2474 C 233.287 -1.20705 -1.68656 0
M  V30 2475 C 233.712 0.228582 -1.86706 0
M  V30 2476 O 233.07 1.16494 -1.3892 0
M  V30 2477 C 233.118 -1.9282 -3.04717 0
M  V30 2478 O 232.222 -1.24697 -3.93096 0
M  V30 2479 H 231.563 -0.418126 -0.515816 0
M  V30 2480 H 234.093 -1.71183 -1.12061 0
M  V30 2481 H 234.103 -2.01372 -3.54843 0
M  V30 2482 H 232.778 -2.97239 -2.90899 0
M  V30 2483 H 231.355 -1.2442 -3.51531 0
M  V30 2484 N 233.54 1.10788 -1.12088 0
M  V30 2485 C 234.503 2.15207 -0.788577 0
M  V30 2486 C 235.503 1.59609 0.195317 0
M  V30 2487 O 236.693 1.74174 -0.0300193 0
M  V30 2488 C 233.825 3.4047 -0.171174 0
M  V30 2489 H 235.018 2.46116 -1.71368 0
M  V30 2490 H 232.571 1.26089 -0.923652 0
M  V30 2491 H 233.306 3.15176 0.763832 0
M  V30 2492 H 233.091 3.82109 -0.879514 0
M  V30 2493 H 234.581 4.17576 0.04496 0
M  V30 2494 N 235.018 0.912232 1.28515 0
M  V30 2495 C 235.948 0.416403 2.29757 0
M  V30 2496 C 236.929 -0.515194 1.6211 0
M  V30 2497 O 238.114 -0.423253 1.89532 0
M  V30 2498 C 235.244 -0.34572 3.45575 0
M  V30 2499 C 234.198 0.496599 4.25109 0
M  V30 2500 C 233.524 -0.393771 5.33248 0
M  V30 2501 C 234.824 1.75307 4.92001 0
M  V30 2502 H 236.518 1.26249 2.7148 0
M  V30 2503 H 234.064 0.608515 1.30511 0
M  V30 2504 H 236.017 -0.703422 4.15488 0
M  V30 2505 H 234.741 -1.2257 3.02728 0
M  V30 2506 H 233.4 0.8368 3.56922 0
M  V30 2507 H 233.048 -1.27225 4.86644 0
M  V30 2508 H 232.748 0.166209 5.87365 0
M  V30 2509 H 234.272 -0.747389 6.06009 0
M  V30 2510 H 235.686 1.46437 5.54283 0
M  V30 2511 H 234.083 2.25534 5.56106 0
M  V30 2512 H 235.153 2.48176 4.16577 0
M  V30 2513 N 236.496 -1.42363 0.676048 0
M  V30 2514 C 237.724 -2.05859 0.207268 0
M  V30 2515 C 238.139 -1.50796 -1.13605 0
M  V30 2516 O 237.496 -0.648265 -1.70598 0
M  V30 2517 C 237.547 -3.61248 0.134975 0
M  V30 2518 O 237.268 -4.1427 1.42521 0
M  V30 2519 C 238.769 -4.41859 -0.357151 0
M  V30 2520 H 235.989 -0.663431 0.100503 0
M  V30 2521 H 238.533 -1.82479 0.923136 0
M  V30 2522 H 236.688 -3.83735 -0.531588 0
M  V30 2523 H 237.102 -5.0815 1.29939 0
M  V30 2524 H 238.576 -5.50847 -0.356641 0
M  V30 2525 H 239.053 -4.16536 -1.39264 0
M  V30 2526 H 239.659 -4.24392 0.27772 0
M  V30 2527 N 237.974 -0.419461 -1.51915 0
M  V30 2528 C 238.906 0.43646 -2.25006 0
M  V30 2529 C 239.919 1.00149 -1.28351 0
M  V30 2530 O 241.108 0.898674 -1.54227 0
M  V30 2531 C 238.208 1.6206 -2.9764 0
M  V30 2532 C 237.381 1.17763 -4.21249 0
M  V30 2533 C 236.44 2.22985 -4.76617 0
M  V30 2534 O 235.466 1.83151 -5.38929 0
M  V30 2535 N 236.668 3.55271 -4.59089 0
M  V30 2536 H 239.433 -0.18989 -2.99098 0
M  V30 2537 H 236.994 -0.247386 -1.59999 0
M  V30 2538 H 238.986 2.32038 -3.31573 0
M  V30 2539 H 237.556 2.15266 -2.2667 0
M  V30 2540 H 236.776 0.305582 -3.93014 0
M  V30 2541 H 238.064 0.858781 -5.015 0
M  V30 2542 H 237.462 3.90377 -4.09417 0
M  V30 2543 H 236.019 4.21195 -4.97432 0
M  V30 2544 N 239.452 1.56882 -0.150215 0
M  V30 2545 C 240.399 2.16922 0.788244 0
M  V30 2546 C 241.369 1.10303 1.24187 0
M  V30 2547 O 242.554 1.38359 1.31383 0
M  V30 2548 C 239.694 2.79754 2.02068 0
M  V30 2549 C 238.807 4.00775 1.61257 0
M  V30 2550 C 237.942 4.51595 2.79705 0
M  V30 2551 C 236.981 5.65074 2.35282 0
M  V30 2552 N 236.118 6.10499 3.4675 0
M  V30 2553 H 240.958 2.96779 0.269444 0
M  V30 2554 H 238.495 1.46599 0.12128 0
M  V30 2555 H 240.453 3.14329 2.74323 0
M  V30 2556 H 239.083 2.02536 2.51354 0
M  V30 2557 H 238.135 3.72158 0.787553 0
M  V30 2558 H 239.447 4.82978 1.24633 0
M  V30 2559 H 238.601 4.88242 3.60145 0
M  V30 2560 H 237.34 3.68406 3.19576 0
M  V30 2561 H 236.345 5.28 1.53283 0
M  V30 2562 H 237.57 6.50052 1.96493 0
M  V30 2563 H 235.516 5.30243 3.86236 0
M  V30 2564 H 235.433 6.87637 3.14152 0
M  V30 2565 H 236.701 6.51791 4.27537 0
M  V30 2566 N 240.93 -0.123565 1.57115 0
M  V30 2567 C 242.178 -0.83051 1.84247 0
M  V30 2568 C 242.499 -1.80629 0.73471 0
M  V30 2569 O 241.769 -1.94403 -0.241688 0
M  V30 2570 H 240.349 -0.309694 0.679778 0
M  V30 2571 H 243.011 -0.111976 1.94578 0
M  V30 2572 H 242.107 -1.37852 2.80006 0
M  V30 2573 N 242.408 -1.52605 -0.393616 0
M  V30 2574 C 243.338 -1.80022 -1.48709 0
M  V30 2575 C 244.319 -0.651995 -1.57108 0
M  V30 2576 O 245.504 -0.89913 -1.72132 0
M  V30 2577 C 242.634 -1.96492 -2.86371 0
M  V30 2578 C 241.588 -3.12161 -2.92813 0
M  V30 2579 C 240.914 -3.13877 -4.3288 0
M  V30 2580 C 242.214 -4.51322 -2.6288 0
M  V30 2581 H 243.908 -2.71589 -1.26015 0
M  V30 2582 H 241.454 -1.30684 -0.604778 0
M  V30 2583 H 243.407 -2.14255 -3.62867 0
M  V30 2584 H 242.131 -1.01611 -3.10391 0
M  V30 2585 H 240.79 -2.94173 -2.18764 0
M  V30 2586 H 240.438 -2.16687 -4.53933 0
M  V30 2587 H 240.138 -3.91576 -4.38112 0
M  V30 2588 H 241.662 -3.33789 -5.1129 0
M  V30 2589 H 243.076 -4.69435 -3.29096 0
M  V30 2590 H 241.473 -5.31053 -2.79468 0
M  V30 2591 H 242.543 -4.58353 -1.58242 0
M  V30 2592 N 243.887 0.651787 -1.4349 0
M  V30 2593 C 244.834 1.76462 -1.4876 0
M  V30 2594 C 245.804 1.62641 -0.337189 0
M  V30 2595 O 246.989 1.82864 -0.544544 0
M  V30 2596 C 244.129 3.14623 -1.41796 0
M  V30 2597 C 243.242 3.39568 -2.67053 0
M  V30 2598 C 242.377 4.67585 -2.52068 0
M  V30 2599 C 241.416 4.85639 -3.72587 0
M  V30 2600 N 240.553 6.04915 -3.56402 0
M  V30 2601 H 245.393 1.71293 -2.43849 0
M  V30 2602 H 242.93 0.835889 -1.21043 0
M  V30 2603 H 244.888 3.94496 -1.35753 0
M  V30 2604 H 243.518 3.18859 -0.50288 0
M  V30 2605 H 242.57 2.53783 -2.8337 0
M  V30 2606 H 243.882 3.48795 -3.56572 0
M  V30 2607 H 243.036 5.55586 -2.4374 0
M  V30 2608 H 241.775 4.60681 -1.60075 0
M  V30 2609 H 240.78 3.96073 -3.81321 0
M  V30 2610 H 242.005 4.94372 -4.65589 0
M  V30 2611 H 239.951 5.9914 -2.67146 0
M  V30 2612 H 239.868 6.15106 -4.39524 0
M  V30 2613 H 241.136 6.95533 -3.51929 0
M  V30 2614 N 245.365 1.30045 0.890287 0
M  V30 2615 C 246.313 1.15873 2.01683 0
M  V30 2616 C 247.307 0.0719403 1.69247 0
M  V30 2617 O 248.513 0.232414 1.78493 0
M  V30 2618 H 244.888 0.358203 0.661207 0
M  V30 2619 H 246.859 2.11229 2.10772 0
M  V30 2620 C 245.608 0.861842 3.36849 0
M  V30 2621 H 244.931 1.69016 3.62317 0
M  V30 2622 H 246.371 0.802762 4.16331 0
M  V30 2623 C 244.83 -0.435132 3.34078 0
M  V30 2624 O 245.36 -1.4583 3.74295 0
M  V30 2625 N 243.566 -0.444377 2.87182 0
M  V30 2626 H 243.113 0.388723 2.5465 0
M  V30 2627 H 243.071 -1.31213 2.85711 0
M  V30 2628 N 246.843 -1.10192 1.12674 0
M  V30 2629 C 248.089 -1.82475 0.884915 0
M  V30 2630 C 248.422 -1.85093 -0.58773 0
M  V30 2631 O 247.697 -1.3134 -1.43457 0
M  V30 2632 C 247.98 -3.29018 1.46353 0
M  V30 2633 C 247.833 -3.34718 3.00473 0
M  V30 2634 C 249.152 -4.25473 1.12519 0
M  V30 2635 H 246.271 -0.662492 0.322915 0
M  V30 2636 H 248.913 -1.2913 1.39375 0
M  V30 2637 H 247.063 -3.74576 1.03077 0
M  V30 2638 H 248.735 -2.97622 3.52447 0
M  V30 2639 H 246.978 -2.74541 3.35872 0
M  V30 2640 H 247.649 -4.37918 3.36053 0
M  V30 2641 H 250.125 -3.88161 1.499 0
M  V30 2642 H 249.001 -5.26365 1.55663 0
M  V30 2643 H 249.262 -4.42084 0.0377407 0
M  V30 2644 N 248.321 -0.919034 -1.28029 0
M  V30 2645 C 249.568 -0.554934 -1.94748 0
M  V30 2646 C 249.896 0.90231 -1.72304 0
M  V30 2647 O 249.151 1.65767 -1.04018 0
M  V30 2648 C 249.45 -0.816855 -3.4794 0
M  V30 2649 C 249.116 -2.25448 -3.90492 0
M  V30 2650 C 247.778 -2.64752 -4.01821 0
M  V30 2651 C 250.13 -3.18977 -4.12193 0
M  V30 2652 C 247.458 -3.96727 -4.32232 0
M  V30 2653 C 249.81 -4.50523 -4.44086 0
M  V30 2654 C 248.474 -4.89673 -4.53626 0
M  V30 2655 H 247.744 -0.203065 -0.712633 0
M  V30 2656 H 250.391 -1.16136 -1.52265 0
M  V30 2657 H 248.696 -0.127677 -3.91592 0
M  V30 2658 H 250.393 -0.514238 -3.97689 0
M  V30 2659 H 246.983 -1.93952 -3.82205 0
M  V30 2660 H 251.167 -2.89817 -4.02889 0
M  V30 2661 H 246.423 -4.26754 -4.37825 0
M  V30 2662 H 250.597 -5.23005 -4.59825 0
M  V30 2663 H 248.224 -5.91969 -4.76946 0
M  V30 2664 N 249.799 1.42003 -0.683588 0
M  V30 2665 C 251.076 1.95112 -0.138075 0
M  V30 2666 C 251.456 1.62359 1.34918 0
M  V30 2667 O 250.804 0.924311 2.08971 0
M  V30 2668 C 251.014 3.46505 -0.416581 0
M  V30 2669 C 252.362 4.23254 -0.337834 0
M  V30 2670 O 253.386 3.54468 -0.35082 0
M  V30 2671 O 252.245 5.45743 -0.287596 0
M  V30 2672 H 249.339 0.826961 -0.00797996 0
M  V30 2673 H 251.885 1.51784 -0.758924 0
M  V30 2674 H 250.657 3.63582 -1.4465 0
M  V30 2675 H 250.28 3.969 0.235839 0
M  V30 2676 N 251.277 0.427512 1.51691 0
M  V30 2677 C 252.187 -0.39527 2.31246 0
M  V30 2678 C 253.203 -1.03674 1.39742 0
M  V30 2679 O 254.379 -1.03425 1.72816 0
M  V30 2680 C 251.444 -1.48706 3.13189 0
M  V30 2681 C 250.505 -0.866743 4.20459 0
M  V30 2682 C 249.738 -1.90651 4.98486 0
M  V30 2683 O 249.961 -3.12733 4.77026 0
M  V30 2684 O 248.895 -1.5025 5.82845 0
M  V30 2685 H 252.721 0.253918 3.02637 0
M  V30 2686 H 250.306 0.190274 1.48183 0
M  V30 2687 H 252.188 -2.12047 3.64162 0
M  V30 2688 H 250.863 -2.12051 2.44573 0
M  V30 2689 H 249.77 -0.195544 3.73589 0
M  V30 2690 H 251.103 -0.276934 4.9142 0
M  V30 2691 N 252.755 -1.56801 0.158532 0
M  V30 2692 C 253.718 -2.16138 -0.762705 0
M  V30 2693 C 254.718 -1.1061 -1.16713 0
M  V30 2694 O 255.908 -1.36191 -1.08617 0
M  V30 2695 C 253.04 -2.73386 -2.03649 0
M  V30 2696 H 254.233 -2.98886 -0.246354 0
M  V30 2697 H 251.786 -1.56035 -0.0909744 0
M  V30 2698 H 252.521 -1.94335 -2.59623 0
M  V30 2699 H 252.306 -3.50601 -1.75559 0
M  V30 2700 H 253.796 -3.19065 -2.6942 0
M  V30 2701 N 254.233 0.115231 -1.57178 0
M  V30 2702 C 255.482 0.820945 -1.84237 0
M  V30 2703 C 255.795 1.80866 -0.744761 0
M  V30 2704 O 257.001 2.56083 -0.901871 0
M  V30 2705 C 255.457 1.51072 -3.26658 0
M  V30 2706 C 255.065 0.563795 -4.44438 0
M  V30 2707 C 256.809 2.20134 -3.62962 0
M  V30 2708 C 254.716 1.25701 -5.77887 0
M  V30 2709 H 253.646 0.310328 -0.687177 0
M  V30 2710 H 256.297 0.0737134 -1.83352 0
M  V30 2711 H 254.679 2.30471 -3.22024 0
M  V30 2712 H 255.853 -0.197247 -4.60378 0
M  V30 2713 H 254.168 -0.0200638 -4.16395 0
M  V30 2714 H 256.765 2.72696 -4.59936 0
M  V30 2715 H 257.108 2.98107 -2.90582 0
M  V30 2716 H 257.641 1.47619 -3.69396 0
M  V30 2717 H 254.38 0.518493 -6.53446 0
M  V30 2718 H 253.9 1.98997 -5.65827 0
M  V30 2719 H 255.579 1.78915 -6.2177 0
M  V30 2720 N 255.711 1.52812 0.385517 0
M  V30 2721 C 256.641 1.80808 1.47752 0
M  V30 2722 C 257.622 0.660318 1.5676 0
M  V30 2723 O 258.807 0.908246 1.71652 0
M  V30 2724 C 255.937 1.98008 2.85324 0
M  V30 2725 C 254.891 3.13709 2.91154 0
M  V30 2726 C 254.217 3.16169 4.31209 0
M  V30 2727 C 255.517 4.52709 2.60483 0
M  V30 2728 H 257.211 2.72253 1.24573 0
M  V30 2729 H 254.757 1.31003 0.597839 0
M  V30 2730 H 256.71 2.16176 3.61726 0
M  V30 2731 H 255.434 1.03255 3.09848 0
M  V30 2732 H 254.093 2.95329 2.17201 0
M  V30 2733 H 253.741 2.19092 4.52778 0
M  V30 2734 H 253.441 3.93894 4.36029 0
M  V30 2735 H 254.965 3.36496 5.09512 0
M  V30 2736 H 256.379 4.71173 3.26602 0
M  V30 2737 H 254.776 5.32528 2.76648 0
M  V30 2738 H 255.846 4.59186 1.55809 0
M  V30 2739 N 257.189 -0.644168 1.43834 0
M  V30 2740 C 258.152 -1.73857 1.49353 0
M  V30 2741 C 259.152 -1.56315 0.377112 0
M  V30 2742 O 260.342 -1.62048 0.639226 0
M  V30 2743 C 257.474 -3.12819 1.35488 0
M  V30 2744 H 258.667 -1.70342 2.46827 0
M  V30 2745 H 256.22 -0.856652 1.30733 0
M  V30 2746 H 256.955 -3.2194 0.390569 0
M  V30 2747 H 256.74 -3.26958 2.16428 0
M  V30 2748 H 258.23 -3.92606 1.42302 0
M  V30 2749 N 258.668 -1.30515 -0.883378 0
M  V30 2750 C 259.631 -1.1701 -1.97082 0
M  V30 2751 C 260.631 -0.10089 -1.60483 0
M  V30 2752 O 261.821 -0.349127 -1.70666 0
M  V30 2753 C 258.953 -0.793045 -3.31547 0
M  V30 2754 H 260.146 -2.13622 -2.10489 0
M  V30 2755 H 257.699 -1.13935 -1.06998 0
M  V30 2756 H 258.434 0.172499 -3.23841 0
M  V30 2757 H 258.219 -1.56576 -3.5948 0
M  V30 2758 H 259.709 -0.722073 -4.1131 0
M  V30 2759 N 260.146 1.09593 -1.13257 0
M  V30 2760 C 261.076 2.18214 -0.830946 0
M  V30 2761 C 262.057 1.68812 0.208966 0
M  V30 2762 O 263.242 1.9408 0.0682666 0
M  V30 2763 C 260.372 3.46051 -0.294296 0
M  V30 2764 C 259.326 4.08778 -1.26826 0
M  V30 2765 C 258.652 5.31419 -0.591449 0
M  V30 2766 C 259.952 4.51476 -2.62615 0
M  V30 2767 H 261.646 2.43703 -1.73923 0
M  V30 2768 H 259.192 1.17128 -0.837675 0
M  V30 2769 H 261.145 4.2134 -0.0709606 0
M  V30 2770 H 259.869 3.20079 0.649366 0
M  V30 2771 H 258.528 3.35505 -1.47756 0
M  V30 2772 H 258.176 5.01727 0.357633 0
M  V30 2773 H 257.876 5.74341 -1.24123 0
M  V30 2774 H 259.4 6.09433 -0.377355 0
M  V30 2775 H 260.814 5.17999 -2.45663 0
M  V30 2776 H 259.211 5.05277 -3.23752 0
M  V30 2777 H 260.281 3.63962 -3.20406 0
M  V30 2778 N 261.624 0.925811 1.2754 0
M  V30 2779 C 262.534 0.428993 2.30644 0
M  V30 2780 C 263.55 -0.489387 1.66976 0
M  V30 2781 O 264.726 -0.372653 1.97922 0
M  V30 2782 C 261.791 -0.311967 3.45294 0
M  V30 2783 C 260.852 0.641098 4.24486 0
M  V30 2784 C 260.085 -0.0645955 5.33661 0
M  V30 2785 O 260.308 -1.28429 5.55754 0
M  V30 2786 O 259.242 0.606265 5.98839 0
M  V30 2787 H 263.068 1.28504 2.75173 0
M  V30 2788 H 260.653 0.691086 1.32455 0
M  V30 2789 H 262.535 -0.729972 4.15029 0
M  V30 2790 H 261.21 -1.14365 3.02824 0
M  V30 2791 H 260.117 1.10874 3.57292 0
M  V30 2792 H 261.45 1.43995 4.70666 0
M  V30 2793 N 263.102 -1.41638 0.69111 0
M  V30 2794 C 264.513 -1.84346 0.295517 0
M  V30 2795 C 264.864 -1.57833 -1.16547 0
M  V30 2796 O 263.989 -1.04648 -1.89414 0
M  V30 2797 C 264.584 -3.34636 0.529575 0
M  V30 2798 C 263.143 -3.7593 0.187944 0
M  V30 2799 C 262.29 -2.65082 0.814052 0
M  V30 2800 H 265.241 -1.31253 0.892092 0
M  V30 2801 H 265.262 -3.79903 -0.213148 0
M  V30 2802 H 264.774 -3.53901 1.59297 0
M  V30 2803 H 262.875 -3.62268 -0.871367 0
M  V30 2804 H 262.988 -4.74808 0.63985 0
M  V30 2805 H 261.352 -2.53528 0.244017 0
M  V30 2806 H 262.135 -2.87167 1.88123 0
M  V30 2807 N 264.58 -0.43555 -1.51462 0
M  V30 2808 C 265.991 0.0279871 -1.86679 0
M  V30 2809 C 266.342 1.42104 -1.35281 0
M  V30 2810 O 265.467 2.04667 -0.702878 0
M  V30 2811 C 266.062 0.0575626 -3.38751 0
M  V30 2812 C 264.621 0.465507 -3.7351 0
M  V30 2813 C 263.768 -0.342996 -2.75171 0
M  V30 2814 H 266.719 -0.651473 -1.44712 0
M  V30 2815 H 266.74 0.867421 -3.70481 0
M  V30 2816 H 266.252 -0.956448 -3.7613 0
M  V30 2817 H 264.353 1.48519 -3.41721 0
M  V30 2818 H 264.466 0.191546 -4.78717 0
M  V30 2819 H 262.83 0.198442 -2.53926 0
M  V30 2820 H 263.613 -1.35585 -3.15391 0
M  V30 2821 N 266.058 1.56714 -0.166846 0
M  V30 2822 C 266.968 2.21331 0.777791 0
M  V30 2823 C 267.984 1.20358 1.25658 0
M  V30 2824 O 269.16 1.53005 1.30964 0
M  V30 2825 C 266.225 2.83787 1.99163 0
M  V30 2826 C 265.286 3.99947 1.56016 0
M  V30 2827 C 264.519 4.59415 2.71613 0
M  V30 2828 O 264.742 4.17769 3.88362 0
M  V30 2829 O 263.676 5.49359 2.45945 0
M  V30 2830 H 267.502 3.02605 0.257636 0
M  V30 2831 H 265.087 1.49275 0.0611393 0
M  V30 2832 H 266.969 3.23405 2.70161 0
M  V30 2833 H 265.644 2.05513 2.50092 0
M  V30 2834 H 264.551 3.65007 0.819809 0
M  V30 2835 H 265.884 4.79801 1.09782 0
M  V30 2836 N 267.536 -0.106894 1.57237 0
M  V30 2837 C 268.947 -0.662723 1.74542 0
M  V30 2838 C 269.298 -1.7971 0.787319 0
M  V30 2839 O 268.423 -2.16368 -0.0369636 0
M  V30 2840 C 269.018 -1.20896 3.16496 0
M  V30 2841 C 267.577 -1.71096 3.35266 0
M  V30 2842 C 266.724 -0.615642 2.7038 0
M  V30 2843 H 269.675 0.119106 1.58252 0
M  V30 2844 H 269.696 -2.07847 3.18716 0
M  V30 2845 H 269.208 -0.383122 3.86204 0
M  V30 2846 H 267.309 -2.56119 2.70618 0
M  V30 2847 H 267.422 -1.81208 4.43509 0
M  V30 2848 H 265.786 -1.05222 2.31949 0
M  V30 2849 H 266.569 0.199419 3.4272 0
M  V30 2850 N 269.014 -1.53014 -0.377408 0
M  V30 2851 C 269.961 -1.78616 -1.46168 0
M  V30 2852 C 270.931 -0.629917 -1.53692 0
M  V30 2853 O 272.116 -0.870861 -1.69766 0
M  V30 2854 C 269.256 -1.97123 -2.8326 0
M  V30 2855 C 268.369 -3.24831 -2.84796 0
M  V30 2856 C 267.504 -3.33591 -4.13389 0
M  V30 2857 C 266.543 -4.55377 -4.09021 0
M  V30 2858 N 265.68 -4.61355 -5.29241 0
M  V30 2859 H 270.52 -2.71142 -1.23637 0
M  V30 2860 H 268.057 -1.34326 -0.599577 0
M  V30 2861 H 270.015 -2.05839 -3.62886 0
M  V30 2862 H 268.645 -1.07946 -3.04216 0
M  V30 2863 H 267.697 -3.25128 -1.97474 0
M  V30 2864 H 269.009 -4.14523 -2.77439 0
M  V30 2865 H 268.163 -3.41554 -5.01424 0
M  V30 2866 H 266.902 -2.41894 -4.23484 0
M  V30 2867 H 265.907 -4.47527 -3.19373 0
M  V30 2868 H 267.132 -5.48402 -4.00539 0
M  V30 2869 H 265.078 -3.72554 -5.39944 0
M  V30 2870 H 264.995 -5.44935 -5.24006 0
M  V30 2871 H 266.263 -4.73586 -6.19141 0
M  V30 2872 N 270.492 0.636531 -1.44174 0
M  V30 2873 C 271.439 1.74875 -1.50624 0
M  V30 2874 C 272.409 1.62275 -0.35442 0
M  V30 2875 O 273.594 1.82276 -0.563908 0
M  V30 2876 C 270.734 3.13102 -1.45125 0
M  V30 2877 C 269.847 3.36717 -2.7064 0
M  V30 2878 C 268.982 4.64885 -2.57013 0
M  V30 2879 C 268.021 4.8166 -3.77717 0
M  V30 2880 N 267.158 6.01101 -3.62798 0
M  V30 2881 H 271.998 1.68697 -2.45653 0
M  V30 2882 H 269.535 0.823004 -1.21922 0
M  V30 2883 H 271.493 3.93034 -1.39929 0
M  V30 2884 H 270.123 3.18308 -0.536671 0
M  V30 2885 H 269.175 2.50763 -2.86046 0
M  V30 2886 H 270.487 3.44993 -3.60252 0
M  V30 2887 H 269.641 5.52969 -2.49619 0
M  V30 2888 H 268.38 4.58957 -1.64953 0
M  V30 2889 H 267.385 3.92007 -3.85501 0
M  V30 2890 H 268.61 4.89406 -4.70807 0
M  V30 2891 H 266.556 5.96273 -2.73486 0
M  V30 2892 H 266.473 6.10409 -4.46023 0
M  V30 2893 H 267.741 6.91761 -3.59286 0
M  V30 2894 N 271.97 1.30982 0.876444 0
M  V30 2895 C 273.195 1.23373 1.66715 0
M  V30 2896 C 273.62 -0.19885 1.87046 0
M  V30 2897 O 272.978 -1.1427 1.40756 0
M  V30 2898 C 273.026 1.97644 3.01611 0
M  V30 2899 O 272.13 1.30935 3.91062 0
M  V30 2900 H 271.471 0.426279 0.509099 0
M  V30 2901 H 274.001 1.72944 1.09323 0
M  V30 2902 H 274.011 2.06992 3.51594 0
M  V30 2903 H 272.686 3.01829 2.86133 0
M  V30 2904 H 271.263 1.29996 3.49507 0
M  V30 2905 N 273.449 -1.08991 1.13837 0
M  V30 2906 C 274.865 -1.33312 0.877506 0
M  V30 2907 C 275.065 -1.95587 -0.48456 0
M  V30 2908 O 274.121 -2.20509 -1.23013 0
M  V30 2909 C 275.434 -2.24045 2.0056 0
M  V30 2910 C 276.982 -2.37542 2.03821 0
M  V30 2911 C 277.457 -3.31614 3.15905 0
M  V30 2912 N 278.948 -3.39189 3.15445 0
M  V30 2913 C 279.683 -4.11992 3.98811 0
M  V30 2914 N 279.179 -4.87553 4.92203 0
M  V30 2915 N 280.972 -4.07762 3.86894 0
M  V30 2916 H 273.123 -0.669456 2.01574 0
M  V30 2917 H 275.386 -0.357482 0.878015 0
M  V30 2918 H 275.092 -1.85521 2.98789 0
M  V30 2919 H 274.966 -3.24466 1.92359 0
M  V30 2920 H 277.353 -2.75327 1.06202 0
M  V30 2921 H 277.434 -1.36884 2.16093 0
M  V30 2922 H 277.078 -2.94551 4.13766 0
M  V30 2923 H 277.008 -4.32186 3.0087 0
M  V30 2924 H 279.499 -2.85314 2.47799 0
M  V30 2925 H 279.812 -5.40549 5.52292 0
M  V30 2926 H 278.157 -4.86627 4.96205 0
M  V30 2927 H 281.348 -3.47833 3.13257 0
M  V30 2928 H 281.521 -4.64238 4.52092 0
M  V30 2929 N 274.927 -0.932562 -1.27047 0
M  V30 2930 C 276.343 -0.633544 -1.46487 0
M  V30 2931 C 276.543 0.815746 -1.84249 0
M  V30 2932 O 275.599 1.59319 -1.95892 0
M  V30 2933 C 276.912 -1.58758 -2.55375 0
M  V30 2934 C 278.46 -1.59634 -2.69232 0
M  V30 2935 C 278.935 -2.53747 -3.81283 0
M  V30 2936 N 280.426 -2.51982 -3.88664 0
M  V30 2937 C 281.161 -3.21491 -4.74796 0
M  V30 2938 N 280.657 -4.00395 -5.65381 0
M  V30 2939 N 282.45 -3.10485 -4.68568 0
M  V30 2940 H 274.601 -1.86946 -1.00821 0
M  V30 2941 H 276.864 -0.802897 -0.504044 0
M  V30 2942 H 276.57 -2.62172 -2.34432 0
M  V30 2943 H 276.444 -1.33301 -3.52861 0
M  V30 2944 H 278.831 -0.569488 -2.89553 0
M  V30 2945 H 278.912 -1.89142 -1.72218 0
M  V30 2946 H 278.556 -3.56545 -3.61715 0
M  V30 2947 H 278.486 -2.21532 -4.77735 0
M  V30 2948 H 280.977 -1.94681 -3.23895 0
M  V30 2949 H 281.29 -4.50406 -6.27976 0
M  V30 2950 H 279.635 -4.04498 -5.65161 0
M  V30 2951 H 282.826 -2.48331 -3.96799 0
M  V30 2952 H 282.999 -3.64925 -5.35475 0
M  V30 2953 N 276.405 1.4127 -0.698611 0
M  V30 2954 C 277.645 2.03044 -0.235062 0
M  V30 2955 C 278.009 1.54146 1.14468 0
M  V30 2956 O 279.21 2.07867 1.70425 0
M  V30 2957 C 277.481 3.56192 -0.293651 0
M  V30 2958 S 279.04 4.38696 0.0954053 0
M  V30 2959 H 275.858 0.704697 -0.0944648 0
M  V30 2960 H 278.46 1.72656 -0.917064 0
M  V30 2961 H 277.164 3.89274 -1.29977 0
M  V30 2962 H 276.695 3.91285 0.407397 0
M  V30 2963 H 278.71 4.78257 1.3223 0
M  V30 2964 N 277.883 0.443576 1.51229 0
M  V30 2965 C 279.129 -0.120975 2.02439 0
M  V30 2966 C 279.462 -1.41815 1.32674 0
M  V30 2967 O 278.737 -1.89373 0.443622 0
M  V30 2968 C 279.02 -0.333291 3.58554 0
M  V30 2969 C 278.873 0.982968 4.38928 0
M  V30 2970 C 280.192 -1.10028 4.26124 0
M  V30 2971 H 277.311 -0.0424923 0.735774 0
M  V30 2972 H 279.953 0.583794 1.80809 0
M  V30 2973 H 278.103 -0.933614 3.77115 0
M  V30 2974 H 279.775 1.61775 4.32003 0
M  V30 2975 H 278.018 1.58611 4.03763 0
M  V30 2976 H 278.689 0.788379 5.46341 0
M  V30 2977 H 281.165 -0.591711 4.11871 0
M  V30 2978 H 280.041 -1.21761 5.35225 0
M  V30 2979 H 280.302 -2.12996 3.87408 0
M  V30 2980 N 279.361 -1.56624 0.175154 0
M  V30 2981 C 280.291 -2.21155 -0.749195 0
M  V30 2982 C 281.272 -1.16836 -1.23626 0
M  V30 2983 O 282.457 -1.45277 -1.28873 0
M  V30 2984 C 279.587 -2.8553 -1.97711 0
M  V30 2985 C 278.541 -3.95921 -1.62575 0
M  V30 2986 C 277.867 -4.47365 -2.92864 0
M  V30 2987 C 279.167 -5.15323 -0.850838 0
M  V30 2988 H 280.861 -2.98653 -0.211295 0
M  V30 2989 H 278.407 -1.43651 -0.100188 0
M  V30 2990 H 280.36 -3.2935 -2.62881 0
M  V30 2991 H 279.084 -2.05406 -2.53921 0
M  V30 2992 H 277.743 -3.52762 -0.997719 0
M  V30 2993 H 277.391 -3.64027 -3.47122 0
M  V30 2994 H 277.091 -5.21839 -2.70106 0
M  V30 2995 H 278.615 -4.93873 -3.59056 0
M  V30 2996 H 280.029 -5.55812 -1.40521 0
M  V30 2997 H 278.426 -5.95739 -0.722154 0
M  V30 2998 H 279.496 -4.84661 0.152082 0
M  V30 2999 N 280.839 0.0985539 -1.57292 0
M  V30 3000 C 281.769 1.12064 -2.04851 0
M  V30 3001 C 282.75 1.41981 -0.936767 0
M  V30 3002 O 283.935 1.52071 -1.20781 0
M  V30 3003 C 281.065 2.44144 -2.47004 0
M  V30 3004 C 280.019 2.28643 -3.6181 0
M  V30 3005 C 279.345 3.65869 -3.89929 0
M  V30 3006 C 280.645 1.72986 -4.92822 0
M  V30 3007 H 282.339 0.724979 -2.9049 0
M  V30 3008 H 279.885 0.34729 -1.39749 0
M  V30 3009 H 281.838 3.15914 -2.78884 0
M  V30 3010 H 280.562 2.85639 -1.5836 0
M  V30 3011 H 279.221 1.59318 -3.30172 0
M  V30 3012 H 278.869 4.04885 -2.98458 0
M  V30 3013 H 278.569 3.56344 -4.67218 0
M  V30 3014 H 280.093 4.39112 -4.2428 0
M  V30 3015 H 281.507 2.34593 -5.23105 0
M  V30 3016 H 279.904 1.74229 -5.74251 0
M  V30 3017 H 280.974 0.689007 -4.7998 0
M  V30 3018 O 282.356 1.59668 0.242586 0
M  V30 3019 H 283.047 1.72276 0.885483 0
M  V30 END ATOM
M  V30 BEGIN BOND
M  V30 END BOND
M  V30 END CTAB
M  END
$$$$
