drugbank_target|P69905 Hemoglobin subunit alpha (DB00893; DB01592; DB01593; DB02126; DB06154; DB07427; DB07428; DB07645; DB08077; DB08262; DB08486; DB08632; DB09112; DB09130; DB09147; DB09517; DB13257; DB13995; DB14487; DB14488; DB14489; DB14490; DB14491; DB14501; DB14533; DB14548; DB14975; DB15617)
 OpenBabel12092119243D

  0  0  0     0  0            999 V3000
M  V30 BEGIN CTAB
M  V30 COUNTS 2159 2187 0 0 0
M  V30 BEGIN ATOM
M  V30 1 H -0.908 1.98254 -0.117106 0
M  V30 2 N 0 1.576 0 0
M  V30 3 C 0.933 2.03868 1.02534 0
M  V30 4 C 1.911 0.928543 1.3348 0
M  V30 5 O 3.095 1.19667 1.45644 0
M  V30 6 C 0.222 2.43627 2.35294 0
M  V30 7 C -0.732 3.65373 2.2001 0
M  V30 8 S 0.101 5.13292 1.52614 0
M  V30 9 C 1.257 5.56322 2.86805 0
M  V30 10 H 1.49 2.90518 0.631377 0
M  V30 11 H -0.977 1.52953 0.210867 0
M  V30 12 H 0.981 2.67203 3.11629 0
M  V30 13 H -0.358 1.57376 2.7183 0
M  V30 14 H -1.165 3.90944 3.18086 0
M  V30 15 H -1.563 3.418 1.51819 0
M  V30 16 H 0.729 5.58782 3.83104 0
M  V30 17 H 1.672 6.56266 2.65933 0
M  V30 18 H 2.08 4.83886 2.90714 0
M  V30 19 N 1.4781 -0.272755 1.55222 0
M  V30 20 C 2.7241 -1.00581 1.761 0
M  V30 21 C 3.0571 -1.85932 0.560625 0
M  V30 22 O 2.3321 -1.89416 -0.441801 0
M  V30 23 C 2.6151 -1.88816 3.06628 0
M  V30 24 C 2.4681 -1.06457 4.37021 0
M  V30 25 C 3.7871 -2.8752 3.33197 0
M  V30 26 H 0.9061 -0.364244 0.640699 0
M  V30 27 H 3.5481 -0.278189 1.87952 0
M  V30 28 H 1.6981 -2.50856 2.96654 0
M  V30 29 H 3.3701 -0.464863 4.58952 0
M  V30 30 H 1.6131 -0.368043 4.32236 0
M  V30 31 H 2.2841 -1.71514 5.24678 0
M  V30 32 H 4.7601 -2.35615 3.42965 0
M  V30 33 H 3.6361 -3.46399 4.25792 0
M  V30 34 H 3.8971 -3.62657 2.52849 0
M  V30 35 N 2.9562 -1.48159 -0.537278 0
M  V30 36 C 3.8862 -1.65029 -1.6519 0
M  V30 37 C 4.8672 -0.499281 -1.62607 0
M  V30 38 O 6.0522 -0.730972 -1.79918 0
M  V30 39 C 3.1822 -1.68303 -3.03795 0
M  V30 40 C 2.1362 -2.8283 -3.21234 0
M  V30 41 C 1.4622 -2.71189 -4.60826 0
M  V30 42 C 2.7622 -4.24211 -3.04701 0
M  V30 43 H 4.4562 -2.58341 -1.51328 0
M  V30 44 H 2.0022 -1.24325 -0.726585 0
M  V30 45 H 3.9552 -1.78693 -3.81637 0
M  V30 46 H 2.6792 -0.715635 -3.18663 0
M  V30 47 H 1.3382 -2.71983 -2.45807 0
M  V30 48 H 0.9862 -1.72435 -4.7252 0
M  V30 49 H 0.6862 -3.48035 -4.7344 0
M  V30 50 H 2.2102 -2.83537 -5.40777 0
M  V30 51 H 3.6242 -4.3593 -3.72341 0
M  V30 52 H 2.0212 -5.01998 -3.28813 0
M  V30 53 H 3.0912 -4.41184 -2.01209 0
M  V30 54 N 4.4343 0.785586 -1.36625 0
M  V30 55 C 5.6593 1.57963 -1.34397 0
M  V30 56 C 6.0843 1.87964 0.071526 0
M  V30 57 O 5.4423 1.48182 1.0446 0
M  V30 58 C 5.4903 2.87511 -2.17646 0
M  V30 59 O 4.5943 3.81281 -1.57158 0
M  V30 60 H 3.9353 0.479014 -0.459828 0
M  V30 61 H 6.4653 0.973411 -1.79961 0
M  V30 62 H 6.4753 3.36745 -2.30362 0
M  V30 63 H 5.1503 2.65002 -3.20541 0
M  V30 64 H 3.7273 3.39885 -1.53403 0
M  V30 65 N 5.9124 1.20967 1.01018 0
M  V30 66 C 7.3234 1.02319 1.56165 0
M  V30 67 C 7.6744 -0.418546 1.91684 0
M  V30 68 O 6.7994 -1.30096 1.72928 0
M  V30 69 C 7.3944 1.85109 2.8376 0
M  V30 70 C 5.9534 1.70809 3.35412 0
M  V30 71 C 5.1004 1.82643 2.08655 0
M  V30 72 H 8.0514 1.35065 0.833255 0
M  V30 73 H 8.0724 1.35827 3.55431 0
M  V30 74 H 7.5844 2.90035 2.57878 0
M  V30 75 H 5.6854 0.685464 3.66241 0
M  V30 76 H 5.7984 2.52467 4.07182 0
M  V30 77 H 4.1624 1.25896 2.21409 0
M  V30 78 H 4.9454 2.89066 1.85191 0
M  V30 79 N 7.3905 -1.2043 1.01659 0
M  V30 80 C 8.3535 -2.21433 0.591616 0
M  V30 81 C 9.3535 -1.57203 -0.338226 0
M  V30 82 O 10.5435 -1.73737 -0.126918 0
M  V30 83 C 7.6755 -3.40628 -0.136058 0
M  V30 84 H 8.8685 -2.60545 1.48514 0
M  V30 85 H 6.4215 -1.33893 0.806379 0
M  V30 86 H 7.1565 -3.07019 -1.04449 0
M  V30 87 H 6.9415 -3.88475 0.531917 0
M  V30 88 H 8.4315 -4.15475 -0.420735 0
M  V30 89 N 8.8686 -0.792821 -1.36206 0
M  V30 90 C 10.1456 -0.290627 -1.93429 0
M  V30 91 C 10.5256 1.21773 -1.72437 0
M  V30 92 O 9.8736 2.0108 -1.08531 0
M  V30 93 C 10.0836 -0.686973 -3.42172 0
M  V30 94 C 11.4316 -0.668643 -4.19302 0
M  V30 95 O 12.4556 -0.627658 -3.50626 0
M  V30 96 O 11.3146 -0.714597 -5.41808 0
M  V30 97 H 8.4086 -0.0727927 -0.82379 0
M  V30 98 H 10.9546 -0.875593 -1.45367 0
M  V30 99 H 9.7266 -1.72711 -3.51122 0
M  V30 100 H 9.3496 -0.0760733 -3.97527 0
M  V30 101 N 10.3467 1.47872 -0.545128 0
M  V30 102 C 11.2937 2.29849 0.2093 0
M  V30 103 C 12.2637 1.38313 0.919707 0
M  V30 104 O 13.4487 1.67277 0.917772 0
M  V30 105 C 10.5887 3.22019 1.24088 0
M  V30 106 C 9.7017 4.2864 0.537778 0
M  V30 107 C 8.8367 5.07973 1.5536 0
M  V30 108 C 7.8757 6.06381 0.8348 0
M  V30 109 N 7.0127 6.78717 1.79688 0
M  V30 110 H 11.8527 2.93845 -0.49591 0
M  V30 111 H 9.3897 1.44848 -0.256389 0
M  V30 112 H 11.3477 3.73868 1.85144 0
M  V30 113 H 9.9777 2.59914 1.91428 0
M  V30 114 H 9.0297 3.7994 -0.187046 0
M  V30 115 H 10.3417 4.98793 -0.0258907 0
M  V30 116 H 9.4957 5.63912 2.23803 0
M  V30 117 H 8.2347 4.37693 2.15118 0
M  V30 118 H 7.2397 5.49631 0.136388 0
M  V30 119 H 8.4647 6.78665 0.24313 0
M  V30 120 H 6.4107 6.11177 2.38326 0
M  V30 121 H 6.3277 7.44998 1.28505 0
M  V30 122 H 7.5957 7.39237 2.47282 0
M  V30 123 N 11.8248 0.280983 1.55075 0
M  V30 124 C 13.0528 -0.337293 2.04132 0
M  V30 125 C 13.4678 -1.4903 1.15912 0
M  V30 126 O 12.8248 -1.81606 0.180459 0
M  V30 127 C 12.8758 -0.812706 3.52246 0
M  V30 128 O 12.5968 0.294387 4.3711 0
M  V30 129 C 14.0978 -1.4982 4.17216 0
M  V30 130 H 11.3178 -0.0761638 0.666663 0
M  V30 131 H 13.8618 0.414787 2.00249 0
M  V30 132 H 12.0168 -1.51486 3.56554 0
M  V30 133 H 12.4308 -0.0721325 5.2445 0
M  V30 134 H 13.9048 -1.7822 5.22438 0
M  V30 135 H 14.3818 -2.43168 3.65741 0
M  V30 136 H 14.9878 -0.839742 4.16927 0
M  V30 137 N 13.3029 -1.57598 0.00835791 0
M  V30 138 C 14.2509 -2.10078 -0.998508 0
M  V30 139 C 15.2449 -1.02262 -1.35051 0
M  V30 140 O 16.4509 -1.20719 -1.33518 0
M  V30 141 H 12.8259 -0.670903 -0.339696 0
M  V30 142 H 14.7969 -2.93648 -0.530398 0
M  V30 143 C 13.5459 -2.62615 -2.27879 0
M  V30 144 H 12.8689 -3.45213 -2.01662 0
M  V30 145 H 14.3089 -3.03004 -2.96588 0
M  V30 146 C 12.7679 -1.54407 -2.99433 0
M  V30 147 O 13.2979 -0.931812 -3.90743 0
M  V30 148 N 11.5039 -1.2695 -2.61404 0
M  V30 149 H 11.0509 -1.76924 -1.87232 0
M  V30 150 H 11.0089 -0.547704 -3.09593 0
M  V30 151 N 14.781 0.264519 -1.55364 0
M  V30 152 C 16.027 0.99646 -1.76631 0
M  V30 153 C 16.36 1.85632 -0.570478 0
M  V30 154 O 15.635 1.89647 0.43175 0
M  V30 155 C 15.918 1.87187 -3.07625 0
M  V30 156 C 15.771 1.04138 -4.37579 0
M  V30 157 C 17.09 2.85749 -3.34717 0
M  V30 158 H 14.209 0.360841 -0.642622 0
M  V30 159 H 16.851 0.268218 -1.88097 0
M  V30 160 H 15.001 2.49279 -2.9798 0
M  V30 161 H 16.673 0.440517 -4.59192 0
M  V30 162 H 14.916 0.345115 -4.32425 0
M  V30 163 H 15.587 1.68729 -5.2558 0
M  V30 164 H 18.063 2.33793 -3.4421 0
M  V30 165 H 16.939 3.44136 -4.27623 0
M  V30 166 H 17.2 3.61311 -2.54768 0
M  V30 167 N 16.2591 1.48442 0.529413 0
M  V30 168 C 17.2061 1.63007 1.63394 0
M  V30 169 C 18.1761 0.47212 1.59249 0
M  V30 170 O 19.3611 0.695673 1.77666 0
M  V30 171 C 16.5011 1.6763 3.01653 0
M  V30 172 C 15.6141 2.94535 3.16027 0
M  V30 173 C 14.7491 2.90316 4.44849 0
M  V30 174 C 13.7881 4.11923 4.52754 0
M  V30 175 N 12.9251 4.05777 5.72965 0
M  V30 176 H 17.7651 2.5733 1.50285 0
M  V30 177 H 15.3021 1.27613 0.731656 0
M  V30 178 H 17.2601 1.68292 3.81751 0
M  V30 179 H 15.8901 0.76797 3.13532 0
M  V30 180 H 14.9421 3.03615 2.29177 0
M  V30 181 H 16.2541 3.84512 3.17729 0
M  V30 182 H 15.4081 2.89382 5.33238 0
M  V30 183 H 14.1471 1.98068 4.45668 0
M  V30 184 H 13.1521 4.13131 3.62771 0
M  V30 185 H 14.3771 5.0533 4.53672 0
M  V30 186 H 12.3231 3.16351 5.74681 0
M  V30 187 H 12.2401 4.8946 5.76164 0
M  V30 188 H 13.5081 4.08904 6.6364 0
M  V30 189 N 17.7372 -0.778329 1.37039 0
M  V30 190 C 18.7002 -1.87301 1.32102 0
M  V30 191 C 19.7002 -1.59198 0.226405 0
M  V30 192 O 20.8902 -1.67403 0.481861 0
M  V30 193 C 18.0222 -3.24309 1.05055 0
M  V30 194 H 19.2152 -1.93093 2.29467 0
M  V30 195 H 16.7682 -0.977358 1.21973 0
M  V30 196 H 17.5032 -3.24196 0.0819373 0
M  V30 197 H 17.2882 -3.46098 1.84279 0
M  V30 198 H 18.7782 -4.04382 1.04234 0
M  V30 199 N 19.2153 -1.21501 -1.00376 0
M  V30 200 C 20.1783 -0.976927 -2.07337 0
M  V30 201 C 21.1783 0.0525322 -1.60714 0
M  V30 202 O 22.3683 -0.184869 -1.73216 0
M  V30 203 C 19.5003 -0.473423 -3.37597 0
M  V30 204 H 20.6933 -1.92587 -2.29892 0
M  V30 205 H 18.2463 -1.03217 -1.17371 0
M  V30 206 H 18.9813 0.480379 -3.20722 0
M  V30 207 H 18.7663 -1.216 -3.72768 0
M  V30 208 H 20.2563 -0.32675 -4.1632 0
M  V30 209 N 20.6934 1.19889 -1.02296 0
M  V30 210 C 21.9394 1.89973 -0.726759 0
M  V30 211 C 22.2944 1.7776 0.73614 0
M  V30 212 O 21.5874 1.15523 1.52856 0
M  V30 213 C 21.7814 3.39883 -1.10518 0
M  V30 214 C 21.6104 3.66684 -2.60332 0
M  V30 215 C 20.3804 3.85045 -3.27213 0
M  V30 216 C 22.5784 3.68727 -3.58532 0
M  V30 217 N 20.5604 3.99422 -4.66192 0
M  V30 218 C 21.9314 3.88604 -4.83101 0
M  V30 219 C 23.9864 3.51722 -3.52414 0
M  V30 220 C 22.6894 3.9324 -6.02292 0
M  V30 221 C 24.7154 3.57632 -4.71013 0
M  V30 222 C 24.0774 3.77988 -5.94394 0
M  V30 223 H 20.1764 0.714551 -0.317712 0
M  V30 224 H 22.7604 1.44123 -1.30907 0
M  V30 225 H 20.9314 3.8447 -0.551142 0
M  V30 226 H 22.6634 3.97464 -0.761853 0
M  V30 227 H 19.4184 3.83689 -2.77632 0
M  V30 228 H 19.8424 4.10473 -5.38368 0
M  V30 229 H 24.4844 3.34945 -2.58015 0
M  V30 230 H 22.2024 4.08811 -6.97065 0
M  V30 231 H 25.7884 3.45773 -4.67902 0
M  V30 232 H 24.6684 3.82428 -6.8463 0
M  V30 233 N 22.1715 0.800033 1.35784 0
M  V30 234 C 23.4195 0.376597 1.9856 0
M  V30 235 C 23.7405 -1.05812 1.63795 0
M  V30 236 O 23.0105 -1.73103 0.917171 0
M  V30 237 H 21.5905 0.136261 0.734467 0
M  V30 238 H 24.2525 1.02442 1.65806 0
M  V30 239 H 23.3485 0.477002 3.08433 0
M  V30 240 N 23.6496 -1.47581 0.552962 0
M  V30 241 C 24.5966 -2.29957 -0.197108 0
M  V30 242 C 25.5666 -1.38799 -0.912359 0
M  V30 243 O 26.7516 -1.67761 -0.908888 0
M  V30 244 C 23.8916 -3.22672 -1.22379 0
M  V30 245 C 23.0046 -4.28919 -0.515038 0
M  V30 246 C 22.1396 -5.0879 -1.52664 0
M  V30 247 C 21.1786 -6.06815 -0.802631 0
M  V30 248 N 20.3156 -6.7966 -1.76086 0
M  V30 249 H 25.1556 -2.93578 0.511486 0
M  V30 250 H 22.6926 -1.4471 0.264067 0
M  V30 251 H 24.6506 -3.74845 -1.83159 0
M  V30 252 H 23.2806 -2.60925 -1.90047 0
M  V30 253 H 22.3326 -3.79835 0.207192 0
M  V30 254 H 23.6446 -4.98773 0.0523425 0
M  V30 255 H 22.7986 -5.65091 -2.20809 0
M  V30 256 H 21.5376 -4.38828 -2.12794 0
M  V30 257 H 20.5426 -5.49695 -0.107238 0
M  V30 258 H 21.7676 -6.78784 -0.207135 0
M  V30 259 H 19.7136 -6.12432 -2.35081 0
M  V30 260 H 19.6306 -7.45669 -1.24552 0
M  V30 261 H 20.8986 -7.40538 -2.43359 0
M  V30 262 N 25.1277 -0.289203 -1.54924 0
M  V30 263 C 26.3737 0.323998 -2.00195 0
M  V30 264 C 26.7067 1.54441 -1.17735 0
M  V30 265 O 25.9817 1.92875 -0.250878 0
M  V30 266 C 26.2647 0.692276 -3.53383 0
M  V30 267 C 26.1177 -0.536457 -4.46589 0
M  V30 268 C 27.4367 1.52335 -4.12895 0
M  V30 269 H 24.5557 0.116289 -0.727768 0
M  V30 270 H 27.1977 -0.398954 -1.85764 0
M  V30 271 H 25.3477 1.30822 -3.65811 0
M  V30 272 H 27.0197 -1.17499 -4.46085 0
M  V30 273 H 25.2627 -1.17192 -4.1767 0
M  V30 274 H 25.9337 -0.234806 -5.515 0
M  V30 275 H 28.4097 1.00302 -4.0383 0
M  V30 276 H 27.2857 1.74982 -5.20262 0
M  V30 277 H 27.5467 2.50886 -3.64018 0
M  V30 278 N 26.6058 1.57591 -0.0167156 0
M  V30 279 C 27.8538 1.90906 0.663285 0
M  V30 280 C 28.1748 0.892509 1.73376 0
M  V30 281 O 27.4448 -0.0677623 1.95783 0
M  V30 282 H 26.0248 0.704637 0.247983 0
M  V30 283 H 28.6868 1.94803 -0.0615909 0
M  V30 284 H 27.7828 2.9116 1.12393 0
M  V30 285 N 28.0839 -0.256276 1.55502 0
M  V30 286 C 29.0469 -1.30047 1.88734 0
M  V30 287 C 30.0469 -1.4154 0.763086 0
M  V30 288 O 31.2369 -1.40403 1.03115 0
M  V30 289 C 28.3689 -2.67953 2.10747 0
M  V30 290 H 29.5619 -1.01802 2.82093 0
M  V30 291 H 27.1149 -0.495134 1.4825 0
M  V30 292 H 27.8499 -3.01351 1.19825 0
M  V30 293 H 27.6349 -2.60993 2.92617 0
M  V30 294 H 29.1249 -3.43368 2.37673 0
M  V30 295 N 29.562 -1.4872 -0.521534 0
M  V30 296 C 30.512 -1.60269 -1.62166 0
M  V30 297 C 31.496 -0.45935 -1.54204 0
M  V30 298 O 32.688 -0.711241 -1.62081 0
M  V30 299 C 29.817 -1.65344 -3.00859 0
M  V30 300 C 28.903 -2.85187 -3.13894 0
M  V30 301 N 29.294 -4.09509 -2.96877 0
M  V30 302 C 27.592 -2.82695 -3.44963 0
M  V30 303 C 28.293 -4.89959 -3.13552 0
M  V30 304 N 27.269 -4.22934 -3.41508 0
M  V30 305 H 31.071 -2.5413 -1.47632 0
M  V30 306 H 28.585 -1.45209 -0.727194 0
M  V30 307 H 30.582 -1.71713 -3.79895 0
M  V30 308 H 29.242 -0.726058 -3.16478 0
M  V30 309 H 30.253 -4.39814 -2.73467 0
M  V30 310 H 26.93 -1.99249 -3.66887 0
M  V30 311 H 28.32 -5.98654 -3.05061 0
M  V30 312 N 31.0401 0.771051 -1.3745 0
M  V30 313 C 32.0031 1.86598 -1.33093 0
M  V30 314 C 33.0031 1.59076 -0.234845 0
M  V30 315 O 34.1931 1.67145 -0.490732 0
M  V30 316 C 31.3251 3.23747 -1.06773 0
M  V30 317 H 32.5181 1.91873 -2.30488 0
M  V30 318 H 30.0711 0.970876 -1.2249 0
M  V30 319 H 30.8061 3.24148 -0.099129 0
M  V30 320 H 30.5911 3.45115 -1.86112 0
M  V30 321 H 32.0811 4.03824 -1.06377 0
M  V30 322 N 32.5182 1.22032 0.997298 0
M  V30 323 C 33.7662 1.04016 1.73278 0
M  V30 324 C 34.0872 -0.426255 1.90284 0
M  V30 325 O 33.3572 -1.30694 1.45931 0
M  V30 326 H 31.9372 0.381897 0.642 0
M  V30 327 H 34.5992 1.5347 1.20137 0
M  V30 328 H 33.6952 1.51441 2.72896 0
M  V30 329 N 33.9963 -1.19345 1.0293 0
M  V30 330 C 34.9063 -2.26245 0.620515 0
M  V30 331 C 35.9223 -1.70486 -0.347928 0
M  V30 332 O 37.0983 -2.00347 -0.205704 0
M  V30 333 C 34.1633 -3.46693 -0.0218957 0
M  V30 334 C 33.2243 -4.17632 0.994102 0
M  V30 335 C 32.4573 -5.32329 0.382253 0
M  V30 336 O 32.6803 -5.64552 -0.814676 0
M  V30 337 O 31.6143 -5.91664 1.10531 0
M  V30 338 H 35.4403 -2.63453 1.51083 0
M  V30 339 H 33.0253 -1.26207 0.799513 0
M  V30 340 H 34.9073 -4.19683 -0.380072 0
M  V30 341 H 33.5823 -3.11333 -0.886209 0
M  V30 342 H 32.4893 -3.4676 1.40387 0
M  V30 343 H 33.8223 -4.56964 1.8288 0
M  V30 344 N 35.4744 -0.807222 -1.35358 0
M  V30 345 C 36.7044 -0.399796 -2.02695 0
M  V30 346 C 37.1124 0.994176 -1.60974 0
M  V30 347 O 36.4554 1.65209 -0.803226 0
M  V30 348 C 36.5174 -0.404445 -3.57218 0
M  V30 349 C 36.1814 -1.74904 -4.22206 0
M  V30 350 C 37.1784 -2.70743 -4.4384 0
M  V30 351 C 34.8634 -2.03322 -4.5931 0
M  V30 352 C 36.8574 -3.93183 -5.01683 0
M  V30 353 C 34.5444 -3.26026 -5.16866 0
M  V30 354 C 35.5424 -4.20774 -5.37994 0
M  V30 355 O 35.2304 -5.41312 -5.94337 0
M  V30 356 H 34.9624 -0.160517 -0.656666 0
M  V30 357 H 37.5164 -1.09235 -1.73945 0
M  V30 358 H 35.7464 0.344707 -3.85161 0
M  V30 359 H 37.4354 -0.0192429 -4.05895 0
M  V30 360 H 38.2014 -2.5008 -4.15554 0
M  V30 361 H 34.0804 -1.30384 -4.42178 0
M  V30 362 H 37.6244 -4.6715 -5.1809 0
M  V30 363 H 33.5214 -3.46559 -5.44579 0
M  V30 364 H 34.2894 -5.42618 -6.12787 0
M  V30 365 N 36.9525 1.47285 -0.560781 0
M  V30 366 C 38.2005 2.02064 -0.0379868 0
M  V30 367 C 38.5215 1.43711 1.31803 0
M  V30 368 O 37.7915 0.61362 1.86042 0
M  V30 369 H 36.3715 0.746918 -0.0110531 0
M  V30 370 H 39.0335 1.80648 -0.731598 0
M  V30 371 H 38.1295 3.12064 0.0474463 0
M  V30 372 N 38.4306 0.297415 1.54768 0
M  V30 373 C 39.3936 -0.567375 2.22066 0
M  V30 374 C 40.3936 -1.06409 1.20556 0
M  V30 375 O 41.5836 -0.960691 1.45315 0
M  V30 376 C 38.7156 -1.78517 2.90421 0
M  V30 377 H 39.9086 0.0205534 2.99893 0
M  V30 378 H 37.4616 0.0482163 1.56226 0
M  V30 379 H 38.1966 -2.41303 2.16664 0
M  V30 380 H 37.9816 -1.43669 3.64831 0
M  V30 381 H 39.4716 -2.39964 3.41771 0
M  V30 382 N 39.9087 -1.5758 0.0250728 0
M  V30 383 C 40.8187 -2.1343 -0.973905 0
M  V30 384 C 41.8347 -1.08556 -1.35984 0
M  V30 385 O 43.0107 -1.40592 -1.44207 0
M  V30 386 C 40.0757 -2.64703 -2.23904 0
M  V30 387 C 39.1367 -3.84276 -1.91391 0
M  V30 388 C 38.3697 -4.33095 -3.11873 0
M  V30 389 O 38.5927 -3.81107 -4.24398 0
M  V30 390 O 37.5267 -5.24984 -2.94406 0
M  V30 391 H 41.3527 -2.99057 -0.529036 0
M  V30 392 H 38.9377 -1.48118 -0.195288 0
M  V30 393 H 40.8197 -2.97769 -2.98181 0
M  V30 394 H 39.4947 -1.82161 -2.6758 0
M  V30 395 H 38.4017 -3.56143 -1.14511 0
M  V30 396 H 39.7347 -4.67968 -1.52534 0
M  V30 397 N 41.3868 0.248026 -1.55636 0
M  V30 398 C 42.3498 1.29044 -1.89421 0
M  V30 399 C 43.3498 1.41134 -0.770581 0
M  V30 400 O 44.5398 1.39854 -1.03858 0
M  V30 401 C 41.6718 2.66831 -2.12165 0
M  V30 402 H 42.8648 1.00305 -2.82629 0
M  V30 403 H 40.4178 0.487265 -1.48511 0
M  V30 404 H 41.1528 3.00711 -1.21422 0
M  V30 405 H 40.9378 2.59438 -2.93997 0
M  V30 406 H 42.4278 3.42103 -2.3949 0
M  V30 407 N 42.8649 1.48995 0.513639 0
M  V30 408 C 43.7949 1.67636 1.62544 0
M  V30 409 C 44.7759 0.525087 1.61793 0
M  V30 410 O 45.9609 0.759502 1.78732 0
M  V30 411 C 43.0909 1.73114 3.01079 0
M  V30 412 C 42.0449 2.87905 3.16693 0
M  V30 413 C 41.3709 2.78486 4.56453 0
M  V30 414 C 42.6709 4.29005 2.97913 0
M  V30 415 H 44.3649 2.60716 1.47198 0
M  V30 416 H 41.9109 1.25465 0.706714 0
M  V30 417 H 43.8639 1.84742 3.78746 0
M  V30 418 H 42.5879 0.766241 3.17484 0
M  V30 419 H 41.2469 2.75859 2.41448 0
M  V30 420 H 40.8949 1.7993 4.69717 0
M  V30 421 H 40.5949 3.55523 4.67843 0
M  V30 422 H 42.1189 2.92104 5.36197 0
M  V30 423 H 43.5329 4.41798 3.65359 0
M  V30 424 H 41.9299 5.07166 3.20785 0
M  V30 425 H 42.9999 4.44329 1.94165 0
M  V30 426 N 44.343 -0.763751 1.37857 0
M  V30 427 C 45.253 -1.90817 1.36478 0
M  V30 428 C 46.269 -1.71997 0.263248 0
M  V30 429 O 47.445 -1.95095 0.499979 0
M  V30 430 C 44.51 -3.2605 1.17864 0
M  V30 431 C 43.571 -3.57467 2.3773 0
M  V30 432 C 42.804 -4.86249 2.19995 0
M  V30 433 O 43.027 -5.57884 1.18836 0
M  V30 434 O 41.961 -5.16911 3.08361 0
M  V30 435 H 45.787 -1.94933 2.32884 0
M  V30 436 H 43.372 -0.907619 1.1867 0
M  V30 437 H 45.254 -4.06924 1.09504 0
M  V30 438 H 43.929 -3.22769 0.245372 0
M  V30 439 H 42.836 -2.76796 2.51664 0
M  V30 440 H 44.169 -3.655 3.29652 0
M  V30 441 N 45.8211 -1.22559 -0.990812 0
M  V30 442 C 47.2371 -0.985996 -1.255 0
M  V30 443 C 47.4371 0.319173 -1.98956 0
M  V30 444 O 46.4931 1.04127 -2.3003 0
M  V30 445 C 47.8061 -2.18607 -2.06474 0
M  V30 446 C 49.3541 -2.22985 -2.19651 0
M  V30 447 C 49.8291 -3.4255 -3.04012 0
M  V30 448 N 51.3201 -3.42725 -3.11599 0
M  V30 449 C 52.0551 -4.31892 -3.7717 0
M  V30 450 N 51.5511 -5.31279 -4.44651 0
M  V30 451 N 53.3441 -4.19662 -3.73952 0
M  V30 452 H 45.4951 -2.06469 -0.49841 0
M  V30 453 H 47.7581 -0.904853 -0.282747 0
M  V30 454 H 47.4641 -3.13267 -1.59865 0
M  V30 455 H 47.3381 -2.18838 -3.07229 0
M  V30 456 H 49.7251 -1.28871 -2.65474 0
M  V30 457 H 49.8061 -2.26791 -1.18319 0
M  V30 458 H 49.4501 -4.36965 -2.58889 0
M  V30 459 H 49.3801 -3.35984 -4.0549 0
M  V30 460 H 51.8711 -2.70807 -2.63575 0
M  V30 461 H 52.1841 -5.95593 -4.92431 0
M  V30 462 H 50.5291 -5.3519 -4.43392 0
M  V30 463 H 53.7201 -3.41268 -3.20396 0
M  V30 464 H 53.8931 -4.89358 -4.24774 0
M  V30 465 N 47.2992 1.18797 -1.03562 0
M  V30 466 C 48.2322 2.2105 -0.56676 0
M  V30 467 C 49.2102 1.57704 0.395993 0
M  V30 468 O 50.3942 1.85908 0.311498 0
M  V30 469 C 47.5212 3.38259 0.172704 0
M  V30 470 C 46.5672 4.19987 -0.74252 0
M  V30 471 S 47.4002 4.87199 -2.22254 0
M  V30 472 C 48.5562 6.07813 -1.49379 0
M  V30 473 H 48.7892 2.60478 -1.43312 0
M  V30 474 H 46.3222 1.29151 -0.846133 0
M  V30 475 H 48.2802 4.06191 0.593191 0
M  V30 476 H 46.9412 2.97252 1.01488 0
M  V30 477 H 46.1342 5.03709 -0.171265 0
M  V30 478 H 45.7362 3.57408 -1.10163 0
M  V30 479 H 48.0282 6.72948 -0.784056 0
M  V30 480 H 48.9712 6.69435 -2.30786 0
M  V30 481 H 49.3792 5.55781 -0.988331 0
M  V30 482 N 48.7773 0.814389 1.34928 0
M  V30 483 C 50.0243 0.398423 1.98542 0
M  V30 484 C 50.3523 -1.03638 1.64589 0
M  V30 485 O 49.6073 -1.73509 0.90516 0
M  V30 486 C 49.9063 0.537781 3.53331 0
M  V30 487 C 49.5723 1.93704 4.07172 0
M  V30 488 C 48.2343 2.31984 4.21589 0
M  V30 489 C 50.5863 2.85213 4.36237 0
M  V30 490 C 47.9143 3.61125 4.62391 0
M  V30 491 C 50.2663 4.13809 4.78482 0
M  V30 492 C 48.9303 4.52077 4.91104 0
M  V30 493 H 48.2003 0.145793 0.726516 0
M  V30 494 H 50.8473 1.03669 1.61012 0
M  V30 495 H 49.1523 -0.183906 3.91368 0
M  V30 496 H 50.8493 0.196588 4.00518 0
M  V30 497 H 47.4393 1.62966 3.96409 0
M  V30 498 H 51.6233 2.56885 4.24645 0
M  V30 499 H 46.8793 3.90612 4.70353 0
M  V30 500 H 51.0533 4.84811 4.99932 0
M  V30 501 H 48.6803 5.52196 5.22478 0
M  V30 502 N 50.2554 -1.46986 0.568584 0
M  V30 503 C 51.1854 -2.32946 -0.160753 0
M  V30 504 C 52.1664 -1.44487 -0.897631 0
M  V30 505 O 53.3514 -1.73327 -0.875867 0
M  V30 506 C 50.4814 -3.26494 -1.18403 0
M  V30 507 C 49.4354 -4.24282 -0.562895 0
M  V30 508 C 48.7614 -5.07236 -1.69163 0
M  V30 509 C 50.0614 -5.19989 0.490761 0
M  V30 510 H 51.7554 -2.94175 0.556916 0
M  V30 511 H 49.3014 -1.4146 0.26927 0
M  V30 512 H 51.2544 -3.85477 -1.70251 0
M  V30 513 H 49.9784 -2.63343 -1.93179 0
M  V30 514 H 48.6374 -3.66541 -0.0656164 0
M  V30 515 H 48.2854 -4.4048 -2.42871 0
M  V30 516 H 47.9854 -5.7345 -1.28174 0
M  V30 517 H 49.5094 -5.6908 -2.21314 0
M  V30 518 H 50.9234 -5.73271 0.0579047 0
M  V30 519 H 49.3204 -5.94469 0.820165 0
M  V30 520 H 50.3904 -4.64777 1.3824 0
M  V30 521 N 51.7335 -0.305618 -1.54608 0
M  V30 522 C 52.9585 0.307562 -2.05107 0
M  V30 523 C 53.3835 1.46385 -1.18123 0
M  V30 524 O 52.7415 1.8034 -0.186324 0
M  V30 525 C 52.7895 0.73704 -3.52987 0
M  V30 526 O 51.8935 1.84134 -3.6901 0
M  V30 527 H 51.2345 0.0589143 -0.661381 0
M  V30 528 H 53.7645 -0.448807 -1.99617 0
M  V30 529 H 53.7745 1.02459 -3.94925 0
M  V30 530 H 52.4495 -0.108773 -4.15758 0
M  V30 531 H 51.0265 1.55398 -3.38978 0
M  V30 532 N 53.2116 1.57565 -0.0334293 0
M  V30 533 C 54.4586 1.91978 0.644272 0
M  V30 534 C 54.7866 0.910231 1.71887 0
M  V30 535 O 54.0416 -0.0801961 1.95536 0
M  V30 536 C 54.3406 3.33112 1.29504 0
M  V30 537 C 54.0066 4.49537 0.350388 0
M  V30 538 C 52.6686 4.81115 0.0903974 0
M  V30 539 C 55.0206 5.20347 -0.298032 0
M  V30 540 C 52.3486 5.8086 -0.825746 0
M  V30 541 C 54.7006 6.2107 -1.20226 0
M  V30 542 C 53.3646 6.51088 -1.4711 0
M  V30 543 H 52.6346 0.702496 0.235756 0
M  V30 544 H 55.2816 1.91259 -0.0961176 0
M  V30 545 H 53.5866 3.30113 2.11028 0
M  V30 546 H 55.2836 3.57011 1.82603 0
M  V30 547 H 51.8736 4.24883 0.563205 0
M  V30 548 H 56.0576 4.96178 -0.110234 0
M  V30 549 H 51.3136 6.02461 -1.04169 0
M  V30 550 H 55.4876 6.75057 -1.71086 0
M  V30 551 H 53.1146 7.28193 -2.18264 0
M  V30 552 N 54.6897 -0.239769 1.55765 0
M  V30 553 C 56.1007 -0.808263 1.68297 0
M  V30 554 C 56.4517 -1.85736 0.632181 0
M  V30 555 O 55.5767 -2.15277 -0.220204 0
M  V30 556 C 56.1717 -1.47284 3.05111 0
M  V30 557 C 54.7307 -1.98895 3.19559 0
M  V30 558 C 53.8777 -0.842575 2.64189 0
M  V30 559 H 56.8287 -0.0154422 1.58692 0
M  V30 560 H 56.8497 -2.34111 2.99954 0
M  V30 561 H 56.3617 -0.709053 3.81568 0
M  V30 562 H 54.4627 -2.78132 2.47938 0
M  V30 563 H 54.5757 -2.18143 4.26556 0
M  V30 564 H 52.9397 -1.24501 2.22197 0
M  V30 565 H 53.7227 -0.0917552 3.43177 0
M  V30 566 N 56.1678 -1.49265 -0.50573 0
M  V30 567 C 57.3958 -1.62215 -1.28429 0
M  V30 568 C 57.8108 -0.291697 -1.86533 0
M  V30 569 O 57.1678 0.722233 -1.67601 0
M  V30 570 C 57.2188 -2.68735 -2.41793 0
M  V30 571 O 56.9398 -3.96619 -1.86078 0
M  V30 572 C 58.4408 -2.92346 -3.3324 0
M  V30 573 H 55.6608 -0.546239 -0.389697 0
M  V30 574 H 58.2048 -1.95265 -0.607609 0
M  V30 575 H 56.3598 -2.38476 -3.053 0
M  V30 576 H 56.7738 -4.55256 -2.60465 0
M  V30 577 H 58.2478 -3.70623 -4.09075 0
M  V30 578 H 58.7248 -2.02081 -3.89948 0
M  V30 579 H 59.3308 -3.24003 -2.75503 0
M  V30 580 N 57.6459 0.756429 -1.3826 0
M  V30 581 C 58.8739 1.54565 -1.3754 0
M  V30 582 C 59.2889 1.88767 0.0355331 0
M  V30 583 O 58.6459 1.52572 1.0014 0
M  V30 584 C 58.6969 2.84654 -2.22833 0
M  V30 585 O 58.4179 2.51912 -3.5843 0
M  V30 586 C 59.9189 3.78807 -2.30261 0
M  V30 587 H 57.1389 0.478353 -0.470553 0
M  V30 588 H 59.6829 0.936381 -1.81803 0
M  V30 589 H 57.8379 3.41965 -1.8204 0
M  V30 590 H 58.2519 3.35325 -4.03308 0
M  V30 591 H 59.7259 4.67045 -2.94233 0
M  V30 592 H 60.2029 4.19038 -1.31545 0
M  V30 593 H 60.8089 3.2742 -2.71433 0
M  V30 594 N 59.124 1.23083 0.984299 0
M  V30 595 C 60.071 1.00854 2.07598 0
M  V30 596 C 61.041 -0.0726709 1.65941 0
M  V30 597 O 62.226 0.0786535 1.90638 0
M  V30 598 C 59.366 0.601645 3.39815 0
M  V30 599 C 58.479 1.75456 3.94765 0
M  V30 600 C 57.614 1.29482 5.15177 0
M  V30 601 C 56.653 2.41873 5.62284 0
M  V30 602 N 55.79 1.96885 6.73929 0
M  V30 603 H 60.63 1.943 2.25946 0
M  V30 604 H 58.167 0.968001 1.10762 0
M  V30 605 H 60.125 0.346854 4.15756 0
M  V30 606 H 58.755 -0.295803 3.21442 0
M  V30 607 H 57.807 2.12346 3.15616 0
M  V30 608 H 59.119 2.59965 4.25699 0
M  V30 609 H 58.273 0.997923 5.98437 0
M  V30 610 H 57.012 0.420046 4.85888 0
M  V30 611 H 56.017 2.72342 4.77608 0
M  V30 612 H 57.242 3.29881 5.93595 0
M  V30 613 H 55.188 1.11782 6.46406 0
M  V30 614 H 55.105 2.74956 7.04227 0
M  V30 615 H 56.373 1.70289 7.60672 0
M  V30 616 N 60.6021 -1.18246 1.0419 0
M  V30 617 C 61.8301 -1.92195 0.766072 0
M  V30 618 C 62.2451 -1.76247 -0.676933 0
M  V30 619 O 61.6021 -1.09293 -1.46155 0
M  V30 620 C 61.6531 -3.43568 1.12442 0
M  V30 621 O 61.3741 -3.59015 2.51078 0
M  V30 622 C 62.8751 -4.34613 0.873275 0
M  V30 623 H 60.0951 -0.610114 0.279288 0
M  V30 624 H 62.6391 -1.50007 1.38989 0
M  V30 625 H 60.7941 -3.8354 0.545542 0
M  V30 626 H 61.2081 -4.5273 2.64831 0
M  V30 627 H 62.6821 -5.39374 1.17385 0
M  V30 628 H 63.1591 -4.38781 -0.191909 0
M  V30 629 H 63.7651 -4.00341 1.43551 0
M  V30 630 N 62.0802 -0.821533 -1.34494 0
M  V30 631 C 63.3102 -0.421272 -2.02259 0
M  V30 632 C 63.7182 0.977047 -1.6202 0
M  V30 633 O 63.0612 1.64348 -0.820703 0
M  V30 634 C 63.1232 -0.44231 -3.56769 0
M  V30 635 C 62.7872 -1.79372 -4.20327 0
M  V30 636 C 63.7842 -2.75435 -4.40944 0
M  V30 637 C 61.4692 -2.08182 -4.57127 0
M  V30 638 C 63.4632 -3.98482 -4.97484 0
M  V30 639 C 61.1502 -3.31489 -5.13379 0
M  V30 640 C 62.1482 -4.26457 -5.33501 0
M  V30 641 O 61.8362 -5.47585 -5.88562 0
M  V30 642 H 61.5682 -0.167473 -0.654927 0
M  V30 643 H 64.1222 -1.11073 -1.72777 0
M  V30 644 H 62.3522 0.303836 -3.85505 0
M  V30 645 H 64.0412 -0.0622925 -4.05852 0
M  V30 646 H 64.8072 -2.54473 -4.12878 0
M  V30 647 H 60.6862 -1.35066 -4.4077 0
M  V30 648 H 64.2302 -4.72618 -5.13106 0
M  V30 649 H 60.1272 -3.52316 -5.40873 0
M  V30 650 H 60.8952 -5.49086 -6.06998 0
M  V30 651 N 63.5583 1.46682 -0.576371 0
M  V30 652 C 64.8053 2.02412 -0.0595339 0
M  V30 653 C 65.1333 1.44859 1.29793 0
M  V30 654 O 64.3883 0.601099 1.8624 0
M  V30 655 C 64.6873 3.57345 0.062886 0
M  V30 656 C 64.3533 4.33908 -1.22616 0
M  V30 657 C 63.0153 4.54544 -1.57933 0
M  V30 658 C 65.3673 4.77919 -2.07948 0
M  V30 659 C 62.6953 5.16444 -2.78393 0
M  V30 660 C 65.0473 5.41149 -3.27629 0
M  V30 661 C 63.7113 5.60014 -3.63236 0
M  V30 662 H 62.9813 0.74068 -0.021785 0
M  V30 663 H 65.6283 1.76128 -0.751735 0
M  V30 664 H 63.9333 3.82729 0.838178 0
M  V30 665 H 65.6303 3.98136 0.478439 0
M  V30 666 H 62.2203 4.18138 -0.941202 0
M  V30 667 H 66.4043 4.61738 -1.81967 0
M  V30 668 H 61.6603 5.29242 -3.06126 0
M  V30 669 H 65.8343 5.74211 -3.94023 0
M  V30 670 H 63.4613 6.07748 -4.56669 0
M  V30 671 N 65.0364 0.313813 1.54444 0
M  V30 672 C 66.4474 -0.176243 1.85866 0
M  V30 673 C 66.7984 -1.52405 1.23561 0
M  V30 674 O 65.9234 -2.09605 0.538016 0
M  V30 675 C 66.5184 -0.32657 3.37222 0
M  V30 676 C 65.0774 -0.760846 3.6863 0
M  V30 677 C 64.2244 0.123247 2.77026 0
M  V30 678 H 67.1754 0.534418 1.49431 0
M  V30 679 H 67.1964 -1.15908 3.62416 0
M  V30 680 H 66.7084 0.654531 3.82541 0
M  V30 681 H 64.8094 -1.75204 3.28838 0
M  V30 682 H 64.9224 -0.571353 4.75681 0
M  V30 683 H 63.2864 -0.399597 2.51546 0
M  V30 684 H 64.0694 1.10094 3.25168 0
M  V30 685 N 66.5145 -1.57545 0.0417849 0
M  V30 686 C 67.4645 -2.07483 -0.945247 0
M  V30 687 C 68.4485 -0.977983 -1.27767 0
M  V30 688 O 69.6405 -1.24142 -1.26166 0
M  V30 689 C 66.7695 -2.61576 -2.22335 0
M  V30 690 C 65.8555 -3.78213 -1.91874 0
M  V30 691 N 66.2465 -4.88344 -1.31733 0
M  V30 692 C 64.5445 -3.8694 -2.21796 0
M  V30 693 C 65.2455 -5.69462 -1.1869 0
M  V30 694 N 64.2215 -5.16771 -1.68666 0
M  V30 695 H 68.0235 -2.90029 -0.475441 0
M  V30 696 H 65.5375 -1.61581 -0.162911 0
M  V30 697 H 67.5345 -2.95651 -2.93932 0
M  V30 698 H 66.1945 -1.80465 -2.69931 0
M  V30 699 H 67.2055 -5.08335 -0.990729 0
M  V30 700 H 63.8825 -3.16757 -2.71977 0
M  V30 701 H 65.2725 -6.68023 -0.720793 0
M  V30 702 N 67.9926 0.231505 -1.5589 0
M  V30 703 C 69.2396 0.957352 -1.78441 0
M  V30 704 C 69.5676 1.84726 -0.60882 0
M  V30 705 O 68.8226 1.91416 0.40725 0
M  V30 706 C 69.1216 1.83577 -3.0665 0
M  V30 707 C 68.7876 1.09993 -4.37278 0
M  V30 708 C 67.4496 0.896629 -4.72773 0
M  V30 709 C 69.8016 0.579558 -5.17968 0
M  V30 710 C 67.1296 0.160896 -5.86479 0
M  V30 711 C 69.4816 -0.142783 -6.32439 0
M  V30 712 C 68.1456 -0.357427 -6.66542 0
M  V30 713 H 67.4156 0.35032 -0.65296 0
M  V30 714 H 70.0626 0.226259 -1.90159 0
M  V30 715 H 68.3676 2.63441 -2.90011 0
M  V30 716 H 70.0646 2.39934 -3.21298 0
M  V30 717 H 66.6546 1.26835 -4.09403 0
M  V30 718 H 70.8386 0.724125 -4.90989 0
M  V30 719 H 66.0946 -0.0157293 -6.11398 0
M  V30 720 H 70.2686 -0.553559 -6.94196 0
M  V30 721 H 67.8956 -0.929466 -7.54497 0
M  V30 722 N 69.4707 1.49531 0.497807 0
M  V30 723 C 70.7477 1.49682 1.25915 0
M  V30 724 C 71.1277 0.226339 2.09883 0
M  V30 725 O 70.4757 -0.791189 2.14365 0
M  V30 726 C 70.6857 2.77755 2.11313 0
M  V30 727 C 72.0337 3.27371 2.70395 0
M  V30 728 O 73.0577 2.78894 2.21578 0
M  V30 729 O 71.9167 4.11808 3.59272 0
M  V30 730 H 69.0107 0.599228 0.56996 0
M  V30 731 H 71.5567 1.61798 0.511816 0
M  V30 732 H 70.3287 3.61713 1.49264 0
M  V30 733 H 69.9517 2.68515 2.93233 0
M  V30 734 N 70.9488 -0.749086 1.3866 0
M  V30 735 C 71.8788 -1.8764 1.38973 0
M  V30 736 C 72.8598 -1.68178 0.255004 0
M  V30 737 O 74.0448 -1.88704 0.458754 0
M  V30 738 C 71.1748 -3.25222 1.21851 0
M  V30 739 C 70.1288 -3.59295 2.32575 0
M  V30 740 C 69.4548 -4.95663 2.00555 0
M  V30 741 C 70.7548 -3.63709 3.7485 0
M  V30 742 H 72.4488 -1.87635 2.3331 0
M  V30 743 H 69.9948 -0.901329 1.12303 0
M  V30 744 H 71.9478 -4.03746 1.20695 0
M  V30 745 H 70.6718 -3.25719 0.239775 0
M  V30 746 H 69.3308 -2.83093 2.32925 0
M  V30 747 H 68.9788 -4.92724 1.01154 0
M  V30 748 H 68.6788 -5.19429 2.74714 0
M  V30 749 H 70.2028 -5.7656 2.01024 0
M  V30 750 H 71.6168 -4.32338 3.76506 0
M  V30 751 H 70.0138 -3.98986 4.48252 0
M  V30 752 H 71.0838 -2.63834 4.06841 0
M  V30 753 N 72.4269 -1.23603 -0.977757 0
M  V30 754 C 73.6519 -1.09735 -1.75991 0
M  V30 755 C 74.0769 0.346858 -1.84874 0
M  V30 756 O 73.4349 1.25093 -1.3123 0
M  V30 757 C 73.4829 -1.73051 -3.16363 0
M  V30 758 O 72.5869 -0.994452 -4.0023 0
M  V30 759 H 71.9279 -0.384476 -0.541364 0
M  V30 760 H 74.4579 -1.6371 -1.2272 0
M  V30 761 H 74.4679 -1.78398 -3.66931 0
M  V30 762 H 73.1429 -2.78137 -3.09213 0
M  V30 763 H 71.7199 -1.01812 -3.58732 0
M  V30 764 N 73.905 1.17692 -1.04816 0
M  V30 765 C 74.855 2.1952 -0.616042 0
M  V30 766 C 75.839 1.57147 0.345485 0
M  V30 767 O 77.031 1.76245 0.163325 0
M  V30 768 C 74.16 3.43298 0.0116917 0
M  V30 769 C 73.246 4.12777 -0.973435 0
M  V30 770 N 73.637 4.5814 -2.14339 0
M  V30 771 C 71.935 4.38747 -0.80108 0
M  V30 772 C 72.636 5.11713 -2.7663 0
M  V30 773 N 71.612 5.03686 -2.04453 0
M  V30 774 H 75.414 2.52293 -1.5075 0
M  V30 775 H 72.928 1.3398 -0.917776 0
M  V30 776 H 74.925 4.15519 0.339006 0
M  V30 777 H 73.585 3.12018 0.898593 0
M  V30 778 H 74.596 4.52349 -2.52191 0
M  V30 779 H 71.273 4.17485 0.0350934 0
M  V30 780 H 72.663 5.56962 -3.75823 0
M  V30 781 N 75.3831 0.828654 1.34056 0
M  V30 782 C 76.6311 0.41863 1.97717 0
M  V30 783 C 76.9521 -1.02314 1.66002 0
M  V30 784 O 76.2221 -1.71119 0.953683 0
M  V30 785 H 74.8021 0.151809 0.731412 0
M  V30 786 H 77.4641 1.05936 1.63596 0
M  V30 787 H 76.5601 0.542318 3.07352 0
M  V30 788 N 76.8612 -1.46375 0.584142 0
M  V30 789 C 78.0862 -2.07268 0.0740405 0
M  V30 790 C 78.5112 -1.42979 -1.22223 0
M  V30 791 O 77.8692 -0.514092 -1.73859 0
M  V30 792 C 77.9172 -3.60518 -0.0767769 0
M  V30 793 O 77.0212 -3.96533 -1.13292 0
M  V30 794 H 76.3622 -0.660961 0.0634524 0
M  V30 795 H 78.8922 -1.87991 0.807492 0
M  V30 796 H 78.9022 -4.07021 -0.282489 0
M  V30 797 H 77.5772 -4.06702 0.86986 0
M  V30 798 H 76.1542 -3.61738 -0.905553 0
M  V30 799 N 78.3393 -0.321999 -1.54275 0
M  V30 800 C 79.3023 0.531975 -2.22941 0
M  V30 801 C 80.3023 1.04478 -1.22234 0
M  V30 802 O 81.4923 0.937452 -1.46825 0
M  V30 803 C 78.6243 1.73874 -2.93224 0
M  V30 804 H 79.8173 -0.0682612 -2.99822 0
M  V30 805 H 77.3703 -0.0730644 -1.56129 0
M  V30 806 H 78.1053 2.37825 -2.20476 0
M  V30 807 H 77.8903 1.37847 -3.6707 0
M  V30 808 H 79.3803 2.34496 -3.45545 0
M  V30 809 N 79.8174 1.5752 -0.0501392 0
M  V30 810 C 80.7494 2.08413 0.95376 0
M  V30 811 C 81.7624 1.01175 1.27544 0
M  V30 812 O 82.9514 1.28744 1.23641 0
M  V30 813 C 80.0514 2.51138 2.27559 0
M  V30 814 C 79.2244 3.817 2.13598 0
M  V30 815 C 78.2834 4.10749 3.28895 0
M  V30 816 O 77.3094 4.80685 3.04845 0
M  V30 817 N 78.5114 3.62579 4.5334 0
M  V30 818 H 81.2764 2.95165 0.519383 0
M  V30 819 H 78.8374 1.61327 0.136127 0
M  V30 820 H 80.8294 2.67648 3.03557 0
M  V30 821 H 79.3994 1.6964 2.62567 0
M  V30 822 H 78.6194 3.74782 1.22197 0
M  V30 823 H 79.9074 4.67201 2.01496 0
M  V30 824 H 79.3054 3.06039 4.75769 0
M  V30 825 H 77.8624 3.84329 5.26436 0
M  V30 826 N 81.2955 -0.223234 1.56011 0
M  V30 827 C 82.5415 -0.949279 1.79211 0
M  V30 828 C 82.8745 -1.84054 0.619494 0
M  V30 829 O 82.1495 -1.90726 -0.381317 0
M  V30 830 C 82.4325 -1.78965 3.12479 0
M  V30 831 C 82.2855 -0.924997 4.40186 0
M  V30 832 C 83.6045 -2.76774 3.42175 0
M  V30 833 H 80.7235 -0.343676 0.651963 0
M  V30 834 H 83.3655 -0.218253 1.88742 0
M  V30 835 H 81.5155 -2.41291 3.04485 0
M  V30 836 H 83.1875 -0.318615 4.60198 0
M  V30 837 H 81.4305 -0.230344 4.33188 0
M  V30 838 H 82.1015 -1.54735 5.29869 0
M  V30 839 H 84.5775 -2.24584 3.50287 0
M  V30 840 H 83.4535 -3.32678 4.36597 0
M  V30 841 H 83.7145 -3.54429 2.64258 0
M  V30 842 N 82.7736 -1.49793 -0.48987 0
M  V30 843 C 83.7206 -1.67281 -1.59014 0
M  V30 844 C 84.6906 -0.514177 -1.57941 0
M  V30 845 O 85.8756 -0.742533 -1.75759 0
M  V30 846 C 83.0156 -1.75569 -2.97102 0
M  V30 847 C 82.1286 -3.0281 -3.08107 0
M  V30 848 C 81.2636 -3.02008 -4.36995 0
M  V30 849 C 80.3026 -4.23782 -4.41673 0
M  V30 850 N 79.4396 -4.20826 -5.62005 0
M  V30 851 H 84.2796 -2.61224 -1.43409 0
M  V30 852 H 81.8166 -1.29508 -0.697565 0
M  V30 853 H 83.7746 -1.78354 -3.77155 0
M  V30 854 H 82.4046 -0.850827 -3.11385 0
M  V30 855 H 81.4566 -3.09584 -2.21047 0
M  V30 856 H 82.7686 -3.92801 -3.07423 0
M  V30 857 H 81.9226 -3.03418 -5.25378 0
M  V30 858 H 80.6616 -2.09815 -4.4026 0
M  V30 859 H 79.6666 -4.22604 -3.5169 0
M  V30 860 H 80.8916 -5.17181 -4.40115 0
M  V30 861 H 78.8376 -3.31476 -5.66091 0
M  V30 862 H 78.7546 -5.04564 -5.62984 0
M  V30 863 H 80.0226 -4.26355 -6.52565 0
M  V30 864 N 84.2517 0.741722 -1.39055 0
M  V30 865 C 85.4997 1.49818 -1.35643 0
M  V30 866 C 85.8207 1.94938 0.0491642 0
M  V30 867 O 85.0907 1.68505 0.999141 0
M  V30 868 H 83.6707 0.555755 -0.499144 0
M  V30 869 H 86.3327 0.880957 -1.73854 0
M  V30 870 H 85.4287 2.38348 -2.01486 0
M  V30 871 N 85.7298 1.2412 0.971189 0
M  V30 872 C 86.6798 0.997551 2.05019 0
M  V30 873 C 87.6638 -0.0597747 1.60789 0
M  V30 874 O 88.8558 0.153516 1.76333 0
M  V30 875 C 85.9848 0.600557 3.38006 0
M  V30 876 C 85.0708 1.69377 3.88809 0
M  V30 877 N 85.4618 2.92586 4.12586 0
M  V30 878 C 83.7598 1.57048 4.17435 0
M  V30 879 C 84.4608 3.63431 4.54195 0
M  V30 880 N 83.4368 2.90979 4.59165 0
M  V30 881 H 87.2388 1.93316 2.21374 0
M  V30 882 H 84.7528 1.14194 1.1547 0
M  V30 883 H 86.7498 0.40725 4.14906 0
M  V30 884 H 85.4098 -0.327903 3.2304 0
M  V30 885 H 86.4208 3.288 4.00139 0
M  V30 886 H 83.0978 0.709798 4.11422 0
M  V30 887 H 84.4878 4.69102 4.81033 0
M  V30 888 N 87.2079 -1.17134 1.05439 0
M  V30 889 C 88.4559 -1.87085 0.764429 0
M  V30 890 C 88.7769 -1.81584 -0.710787 0
M  V30 891 O 88.0469 -1.24349 -1.51374 0
M  V30 892 H 86.6269 -0.692627 0.279779 0
M  V30 893 H 89.2889 -1.42087 1.33406 0
M  V30 894 H 88.3849 -2.92759 1.0816 0
M  V30 895 N 88.686 -0.835752 -1.33615 0
M  V30 896 C 89.633 -0.26473 -2.29277 0
M  V30 897 C 90.603 0.617712 -1.54187 0
M  V30 898 O 91.788 0.556641 -1.825 0
M  V30 899 C 88.928 0.556777 -3.40579 0
M  V30 900 C 88.041 -0.349339 -4.30585 0
M  V30 901 C 87.176 0.482969 -5.29 0
M  V30 902 C 86.215 -0.421732 -6.10645 0
M  V30 903 N 85.352 0.372262 -7.01112 0
M  V30 904 H 90.192 -1.08582 -2.77514 0
M  V30 905 H 87.729 -0.546927 -1.36554 0
M  V30 906 H 89.687 1.04852 -4.03809 0
M  V30 907 H 88.317 1.34286 -2.93542 0
M  V30 908 H 87.369 -0.959372 -3.68104 0
M  V30 909 H 88.681 -1.04445 -4.87742 0
M  V30 910 H 87.835 1.03866 -5.97743 0
M  V30 911 H 86.574 1.21153 -4.72412 0
M  V30 912 H 85.579 -0.989464 -5.40823 0
M  V30 913 H 86.804 -1.14861 -6.69316 0
M  V30 914 H 84.75 1.08426 -6.46977 0
M  V30 915 H 84.667 -0.264198 -7.55538 0
M  V30 916 H 85.935 0.910293 -7.74167 0
M  V30 917 N 90.1641 1.46063 -0.591896 0
M  V30 918 C 91.1111 2.30399 0.136069 0
M  V30 919 C 92.0811 1.41169 0.875238 0
M  V30 920 O 93.2661 1.70112 0.86409 0
M  V30 921 C 90.4061 3.25804 1.13781 0
M  V30 922 C 89.5191 4.30134 0.401137 0
M  V30 923 C 88.6541 5.12659 1.39121 0
M  V30 924 C 87.6931 6.0873 0.641462 0
M  V30 925 N 86.8301 6.8409 1.58004 0
M  V30 926 H 91.6701 2.92118 -0.589144 0
M  V30 927 H 89.2071 1.43959 -0.302342 0
M  V30 928 H 91.1651 3.79569 1.73156 0
M  V30 929 H 89.7951 2.65872 1.83062 0
M  V30 930 H 88.8471 3.79152 -0.307826 0
M  V30 931 H 90.1591 4.98458 -0.184565 0
M  V30 932 H 89.3131 5.70747 2.05749 0
M  V30 933 H 88.0521 4.44316 2.01084 0
M  V30 934 H 87.0571 5.49786 -0.0385419 0
M  V30 935 H 88.2821 6.79095 0.0270945 0
M  V30 936 H 86.2281 6.18449 2.18761 0
M  V30 937 H 86.1451 7.48709 1.04738 0
M  V30 938 H 87.4131 7.4673 2.23639 0
M  V30 939 N 91.6422 0.330177 1.54103 0
M  V30 940 C 92.8882 -0.270806 2.00984 0
M  V30 941 C 93.2212 -1.51265 1.21789 0
M  V30 942 O 92.4962 -1.92142 0.301927 0
M  V30 943 C 92.7792 -0.598339 3.55094 0
M  V30 944 C 92.6322 0.654674 4.4501 0
M  V30 945 C 93.9512 -1.41334 4.16789 0
M  V30 946 H 91.0702 -0.0969531 0.730595 0
M  V30 947 H 93.7122 0.448066 1.84641 0
M  V30 948 H 91.8622 -1.21078 3.69151 0
M  V30 949 H 93.5342 1.29285 4.42813 0
M  V30 950 H 91.7772 1.28224 4.14416 0
M  V30 951 H 92.4482 0.380944 5.50684 0
M  V30 952 H 94.9242 -0.895597 4.06347 0
M  V30 953 H 93.8002 -1.61127 5.24718 0
M  V30 954 H 94.0612 -2.41146 3.70541 0
M  V30 955 N 93.1203 -1.57491 0.0584922 0
M  V30 956 C 94.0833 -2.1085 -0.898617 0
M  V30 957 C 95.0833 -1.02964 -1.23511 0
M  V30 958 O 96.2733 -1.29007 -1.17059 0
M  V30 959 C 93.4053 -2.59881 -2.20623 0
M  V30 960 H 94.5983 -2.96715 -0.435936 0
M  V30 961 H 92.1513 -1.55141 -0.190023 0
M  V30 962 H 92.8863 -1.77431 -2.71457 0
M  V30 963 H 92.6713 -3.38727 -1.97501 0
M  V30 964 H 94.1613 -3.01285 -2.89166 0
M  V30 965 N 94.5984 0.214957 -1.56127 0
M  V30 966 C 95.8754 0.963093 -1.70247 0
M  V30 967 C 96.2554 2.02166 -0.60764 0
M  V30 968 O 95.6034 2.25244 0.384385 0
M  V30 969 C 95.8134 1.56756 -3.11815 0
M  V30 970 C 97.1614 2.0573 -3.7143 0
M  V30 971 O 98.1854 1.66637 -3.14818 0
M  V30 972 O 97.0444 2.77603 -4.70743 0
M  V30 973 H 94.1384 0.450321 -0.693643 0
M  V30 974 H 96.6844 0.206219 -1.68442 0
M  V30 975 H 95.4564 0.803533 -3.82961 0
M  V30 976 H 95.0794 2.3898 -3.17765 0
M  V30 977 N 96.0765 1.50051 0.48192 0
M  V30 978 C 97.0395 1.67584 1.5636 0
M  V30 979 C 98.0395 0.546894 1.51214 0
M  V30 980 O 99.2295 0.813725 1.54026 0
M  V30 981 C 96.3615 1.691 2.96003 0
M  V30 982 H 97.5545 2.64078 1.42136 0
M  V30 983 H 95.1075 1.39369 0.707533 0
M  V30 984 H 95.8425 0.742589 3.15684 0
M  V30 985 H 95.6275 2.51105 3.01146 0
M  V30 986 H 97.1175 1.84656 3.74556 0
M  V30 987 N 97.5546 -0.734337 1.39446 0
M  V30 988 C 98.4846 -1.86155 1.40955 0
M  V30 989 C 99.4656 -1.67898 0.272827 0
M  V30 990 O 100.651 -1.88207 0.478743 0
M  V30 991 C 97.7806 -3.23912 1.25294 0
M  V30 992 C 96.7346 -3.56808 2.36373 0
M  V30 993 C 96.0606 -4.93508 2.058 0
M  V30 994 C 97.3606 -3.59713 3.78687 0
M  V30 995 H 99.0546 -1.8515 2.35287 0
M  V30 996 H 96.6006 -0.889367 1.13253 0
M  V30 997 H 98.5536 -4.02443 1.2497 0
M  V30 998 H 97.2776 -3.25446 0.274308 0
M  V30 999 H 95.9366 -2.80606 2.35914 0
M  V30 1000 H 95.5846 -4.91623 1.06374 0
M  V30 1001 H 95.2846 -5.16486 2.80208 0
M  V30 1002 H 96.8086 -5.74396 2.07128 0
M  V30 1003 H 98.2226 -4.2832 3.81071 0
M  V30 1004 H 96.6196 -3.94209 4.52459 0
M  V30 1005 H 97.6896 -2.59504 4.09617 0
M  V30 1006 N 99.0327 -1.24633 -0.964593 0
M  V30 1007 C 100.261 -1.11501 -1.74285 0
M  V30 1008 C 100.676 0.332165 -1.85855 0
M  V30 1009 O 100.033 1.22903 -1.34911 0
M  V30 1010 C 100.084 -1.75258 -3.16175 0
M  V30 1011 O 99.8047 -3.14318 -3.05182 0
M  V30 1012 C 101.306 -1.67776 -4.10324 0
M  V30 1013 H 98.5257 -0.389407 -0.546446 0
M  V30 1014 H 101.07 -1.64801 -1.21083 0
M  V30 1015 H 99.2247 -1.25954 -3.66353 0
M  V30 1016 H 99.6387 -3.4551 -3.94618 0
M  V30 1017 H 101.113 -2.17064 -5.0753 0
M  V30 1018 H 101.59 -0.639584 -4.34518 0
M  V30 1019 H 102.196 -2.16522 -3.66058 0
M  V30 1020 N 100.511 1.16574 -1.06058 0
M  V30 1021 C 101.459 2.22941 -0.663343 0
M  V30 1022 C 102.453 1.66358 0.319593 0
M  V30 1023 O 103.659 1.7905 0.184713 0
M  V30 1024 H 100.034 0.725907 -0.196376 0
M  V30 1025 H 102.005 2.53736 -1.57037 0
M  V30 1026 C 100.754 3.47642 -0.0632808 0
M  V30 1027 H 100.077 3.91493 -0.810733 0
M  V30 1028 H 101.517 4.2363 0.177177 0
M  V30 1029 C 99.9758 3.1509 1.19248 0
M  V30 1030 O 100.506 3.30673 2.28075 0
M  V30 1031 N 98.7118 2.6924 1.09353 0
M  V30 1032 H 98.2588 2.5676 0.207912 0
M  V30 1033 H 98.2168 2.47833 1.93458 0
M  V30 1034 N 101.989 0.842826 1.3317 0
M  V30 1035 C 102.952 0.284065 2.27433 0
M  V30 1036 C 103.952 -0.54948 1.5112 0
M  V30 1037 O 105.142 -0.362699 1.70382 0
M  V30 1038 C 102.274 -0.599384 3.35589 0
M  V30 1039 H 103.467 1.11589 2.78366 0
M  V30 1040 H 101.02 0.616221 1.4364 0
M  V30 1041 H 101.755 -1.45349 2.89904 0
M  V30 1042 H 101.54 -0.00291266 3.921 0
M  V30 1043 H 103.03 -0.983488 4.05854 0
M  V30 1044 N 103.467 -1.45747 0.599634 0
M  V30 1045 C 104.713 -2.02592 0.0918643 0
M  V30 1046 C 105.046 -1.46806 -1.27128 0
M  V30 1047 O 104.321 -0.639658 -1.83681 0
M  V30 1048 C 104.604 -3.60073 0.0443398 0
M  V30 1049 C 104.457 -4.26208 1.43759 0
M  V30 1050 C 105.776 -4.35309 -0.647608 0
M  V30 1051 H 102.895 -0.736175 0.034857 0
M  V30 1052 H 105.537 -1.73694 0.770081 0
M  V30 1053 H 103.687 -3.84823 -0.533224 0
M  V30 1054 H 105.359 -4.12668 2.06162 0
M  V30 1055 H 103.602 -3.84916 2.00056 0
M  V30 1056 H 104.273 -5.35069 1.35665 0
M  V30 1057 H 106.749 -4.15805 -0.156776 0
M  V30 1058 H 105.625 -5.45038 -0.649942 0
M  V30 1059 H 105.886 -4.07598 -1.71219 0
M  V30 1060 N 104.945 -0.338344 -1.53925 0
M  V30 1061 C 105.908 0.508299 -2.23493 0
M  V30 1062 C 106.908 1.03175 -1.23335 0
M  V30 1063 O 108.098 0.921826 -1.47811 0
M  V30 1064 C 105.23 1.70754 -2.95052 0
M  V30 1065 H 106.423 -0.100058 -2.99733 0
M  V30 1066 H 103.976 -0.0896198 -1.56043 0
M  V30 1067 H 104.711 2.35474 -2.22986 0
M  V30 1068 H 104.496 1.33946 -3.68512 0
M  V30 1069 H 105.986 2.30818 -3.48013 0
M  V30 1070 N 106.423 1.57458 -0.0668435 0
M  V30 1071 C 107.373 2.0896 0.912119 0
M  V30 1072 C 108.357 0.998186 1.26195 0
M  V30 1073 O 109.549 1.26133 1.24175 0
M  V30 1074 C 106.678 2.6508 2.18145 0
M  V30 1075 C 105.764 3.81218 1.85832 0
M  V30 1076 N 106.155 4.90378 1.23948 0
M  V30 1077 C 104.453 3.9042 2.15612 0
M  V30 1078 C 105.154 5.71279 1.09616 0
M  V30 1079 N 104.13 5.19389 1.60423 0
M  V30 1080 H 107.932 2.90749 0.42924 0
M  V30 1081 H 105.446 1.6182 0.137184 0
M  V30 1082 H 107.443 3.0029 2.89192 0
M  V30 1083 H 106.103 1.84736 2.67025 0
M  V30 1084 H 107.114 5.09847 0.909731 0
M  V30 1085 H 103.791 3.21043 2.66903 0
M  V30 1086 H 105.181 6.69085 0.614425 0
M  V30 1087 N 107.901 -0.206675 1.56239 0
M  V30 1088 C 109.147 -0.930218 1.80208 0
M  V30 1089 C 109.48 -1.83387 0.638981 0
M  V30 1090 O 108.755 -1.91119 -0.361066 0
M  V30 1091 C 109.038 -1.75641 3.1436 0
M  V30 1092 C 108.891 -0.878257 4.41142 0
M  V30 1093 C 110.21 -2.73129 3.45092 0
M  V30 1094 H 107.329 -0.336742 0.655571 0
M  V30 1095 H 109.971 -0.198222 1.88963 0
M  V30 1096 H 108.121 -2.38048 3.07027 0
M  V30 1097 H 109.793 -0.269787 4.6051 0
M  V30 1098 H 108.036 -0.184385 4.33408 0
M  V30 1099 H 108.707 -1.49106 5.3148 0
M  V30 1100 H 111.183 -2.20856 3.52649 0
M  V30 1101 H 110.059 -3.28028 4.40101 0
M  V30 1102 H 110.32 -3.51606 2.68003 0
M  V30 1103 N 109.379 -1.50304 -0.473955 0
M  V30 1104 C 110.656 -1.51667 -1.23518 0
M  V30 1105 C 111.036 -0.259701 -2.09496 0
M  V30 1106 O 110.384 0.756986 -2.15597 0
M  V30 1107 C 110.594 -2.81082 -2.06868 0
M  V30 1108 C 111.942 -3.31631 -2.65153 0
M  V30 1109 O 112.966 -2.82384 -2.17113 0
M  V30 1110 O 111.825 -4.17471 -3.52675 0
M  V30 1111 H 108.919 -0.60822 -0.560355 0
M  V30 1112 H 111.465 -1.62592 -0.486011 0
M  V30 1113 H 110.237 -3.64041 -1.4349 0
M  V30 1114 H 109.86 -2.73146 -2.88924 0
M  V30 1115 N 110.857 0.726932 -1.39834 0
M  V30 1116 C 112.134 1.47902 -1.28001 0
M  V30 1117 C 112.514 2.1083 0.106789 0
M  V30 1118 O 111.862 1.99242 1.11869 0
M  V30 1119 C 112.072 2.52392 -2.41038 0
M  V30 1120 C 113.42 3.18546 -2.80737 0
M  V30 1121 O 114.444 2.62708 -2.40547 0
M  V30 1122 O 113.303 4.19604 -3.50135 0
M  V30 1123 H 110.397 0.657163 -0.502062 0
M  V30 1124 H 112.943 0.760071 -1.51727 0
M  V30 1125 H 111.715 2.04329 -3.33715 0
M  V30 1126 H 111.338 3.31837 -2.19021 0
M  V30 1127 N 112.336 1.25143 0.95797 0
M  V30 1128 C 113.269 0.995565 2.05338 0
M  V30 1129 C 114.247 -0.0740423 1.62431 0
M  V30 1130 O 115.431 0.0649212 1.88388 0
M  V30 1131 C 112.558 0.504298 3.34925 0
M  V30 1132 C 111.604 1.56393 3.96792 0
M  V30 1133 S 112.437 3.14815 4.33188 0
M  V30 1134 C 113.593 2.67415 5.65898 0
M  V30 1135 H 113.826 1.92309 2.26726 0
M  V30 1136 H 111.359 1.08635 1.09716 0
M  V30 1137 H 113.317 0.227497 4.09869 0
M  V30 1138 H 111.978 -0.402671 3.11508 0
M  V30 1139 H 111.171 1.17082 4.90212 0
M  V30 1140 H 110.773 1.79124 3.28315 0
M  V30 1141 H 113.065 2.10833 6.4386 0
M  V30 1142 H 114.008 3.59463 6.10076 0
M  V30 1143 H 114.416 2.07521 5.24972 0
M  V30 1144 N 113.814 -1.1601 1.06675 0
M  V30 1145 C 115.225 -1.68235 0.809565 0
M  V30 1146 C 115.576 -1.8454 -0.666303 0
M  V30 1147 O 114.701 -1.54374 -1.5165 0
M  V30 1148 C 115.296 -3.05585 1.46299 0
M  V30 1149 C 113.855 -3.54915 1.25349 0
M  V30 1150 C 113.002 -2.30804 1.53703 0
M  V30 1151 H 115.953 -1.00318 1.22971 0
M  V30 1152 H 115.974 -3.70174 0.880431 0
M  V30 1153 H 115.486 -2.93686 2.53713 0
M  V30 1154 H 113.587 -3.72067 0.199261 0
M  V30 1155 H 113.7 -4.36774 1.9689 0
M  V30 1156 H 112.064 -2.36007 0.957739 0
M  V30 1157 H 112.847 -2.21499 2.62284 0
M  V30 1158 N 115.292 -0.849877 -1.32721 0
M  V30 1159 C 116.24 -0.279745 -2.30912 0
M  V30 1160 C 117.234 0.594278 -1.58634 0
M  V30 1161 O 118.44 0.482613 -1.73409 0
M  V30 1162 H 114.815 -0.0717521 -0.748569 0
M  V30 1163 H 116.786 -1.12222 -2.76494 0
M  V30 1164 C 115.535 0.521108 -3.43773 0
M  V30 1165 H 114.858 -0.142141 -3.99547 0
M  V30 1166 H 116.298 0.885693 -4.14646 0
M  V30 1167 C 114.757 1.70442 -2.90605 0
M  V30 1168 O 115.287 2.8034 -2.87702 0
M  V30 1169 N 113.493 1.52991 -2.47067 0
M  V30 1170 H 113.04 0.635914 -2.49628 0
M  V30 1171 H 112.998 2.32311 -2.11847 0
M  V30 1172 N 116.77 1.45427 -0.607355 0
M  V30 1173 C 117.733 2.28974 0.101693 0
M  V30 1174 C 118.733 1.39754 0.795329 0
M  V30 1175 O 119.923 1.61878 0.643527 0
M  V30 1176 C 117.055 3.20768 1.15414 0
M  V30 1177 H 118.248 2.93147 -0.632844 0
M  V30 1178 H 115.801 1.51945 -0.366391 0
M  V30 1179 H 116.536 2.61395 1.91945 0
M  V30 1180 H 116.321 3.86489 0.66098 0
M  V30 1181 H 117.811 3.83589 1.65073 0
M  V30 1182 N 118.248 0.346503 1.53744 0
M  V30 1183 C 119.178 -0.501193 2.28058 0
M  V30 1184 C 120.159 -1.10014 1.29734 0
M  V30 1185 O 121.344 -1.12097 1.58581 0
M  V30 1186 C 118.474 -1.65078 3.05559 0
M  V30 1187 C 117.428 -1.18003 4.11411 0
M  V30 1188 C 116.754 -2.41837 4.76884 0
M  V30 1189 C 118.054 -0.278394 5.21558 0
M  V30 1190 H 119.748 0.11875 2.99164 0
M  V30 1191 H 117.294 0.0585531 1.43881 0
M  V30 1192 H 119.247 -2.25028 3.56287 0
M  V30 1193 H 117.971 -2.29767 2.32109 0
M  V30 1194 H 116.63 -0.603331 3.61601 0
M  V30 1195 H 116.278 -3.0494 4.00026 0
M  V30 1196 H 115.978 -2.1102 5.48402 0
M  V30 1197 H 117.502 -3.02508 5.30397 0
M  V30 1198 H 118.916 -0.784823 5.67903 0
M  V30 1199 H 117.313 -0.0619707 6.00068 0
M  V30 1200 H 118.383 0.684677 4.80042 0
M  V30 1201 N 119.726 -1.57421 0.075193 0
M  V30 1202 C 120.951 -1.98364 -0.605515 0
M  V30 1203 C 121.376 -0.953383 -1.62149 0
M  V30 1204 O 120.734 0.0806053 -1.81121 0
M  V30 1205 C 120.782 -3.38332 -1.24756 0
M  V30 1206 O 119.886 -3.37959 -2.36342 0
M  V30 1207 H 119.227 -0.645553 -0.155428 0
M  V30 1208 H 121.757 -2.04044 0.150714 0
M  V30 1209 H 121.767 -3.75591 -1.5936 0
M  V30 1210 H 120.442 -4.12846 -0.503129 0
M  V30 1211 H 119.019 -3.12474 -2.03506 0
M  V30 1212 N 121.204 0.198386 -1.56346 0
M  V30 1213 C 122.167 1.22952 -1.93431 0
M  V30 1214 C 123.167 1.38611 -0.815092 0
M  V30 1215 O 124.357 1.36479 -1.08255 0
M  V30 1216 C 121.489 2.59946 -2.20546 0
M  V30 1217 H 122.682 0.912626 -2.85677 0
M  V30 1218 H 120.235 0.43977 -1.49986 0
M  V30 1219 H 120.97 2.96696 -1.30927 0
M  V30 1220 H 120.755 2.49953 -3.02102 0
M  V30 1221 H 122.245 3.3431 -2.50253 0
M  V30 1222 N 122.682 1.50554 0.465978 0
M  V30 1223 C 123.612 1.72722 1.57128 0
M  V30 1224 C 124.593 0.576294 1.6004 0
M  V30 1225 O 125.778 0.81598 1.76225 0
M  V30 1226 C 122.908 1.82605 2.95419 0
M  V30 1227 C 121.862 2.97835 3.07373 0
M  V30 1228 C 121.188 2.92867 4.47363 0
M  V30 1229 C 122.488 4.38265 2.84114 0
M  V30 1230 H 124.182 2.65267 1.38829 0
M  V30 1231 H 121.728 1.2765 0.666441 0
M  V30 1232 H 123.681 1.96698 3.72677 0
M  V30 1233 H 122.405 0.866858 3.14886 0
M  V30 1234 H 121.064 2.83401 2.3255 0
M  V30 1235 H 120.712 1.94783 4.63755 0
M  V30 1236 H 120.412 3.70227 4.56296 0
M  V30 1237 H 121.936 3.09015 5.26633 0
M  V30 1238 H 123.35 4.53198 3.51118 0
M  V30 1239 H 121.747 5.17115 3.04487 0
M  V30 1240 H 122.817 4.50281 1.7993 0
M  V30 1241 N 124.16 -0.719506 1.40217 0
M  V30 1242 C 125.385 -1.51371 1.4178 0
M  V30 1243 C 125.81 -1.88091 0.0182355 0
M  V30 1244 O 125.168 -1.52997 -0.972707 0
M  V30 1245 C 125.216 -2.768 2.31115 0
M  V30 1246 O 124.32 -3.73349 1.7517 0
M  V30 1247 H 123.661 -0.456529 0.482159 0
M  V30 1248 H 126.191 -0.88644 1.844 0
M  V30 1249 H 126.201 -3.25371 2.46167 0
M  V30 1250 H 124.876 -2.49407 3.3282 0
M  V30 1251 H 123.453 -3.32179 1.69444 0
M  V30 1252 N 125.638 -1.25649 -0.95132 0
M  V30 1253 C 126.915 -1.01361 -1.67288 0
M  V30 1254 C 127.295 0.459135 -2.06046 0
M  V30 1255 O 126.643 1.43723 -1.7764 0
M  V30 1256 C 126.853 -1.95256 -2.89268 0
M  V30 1257 C 128.201 -2.23289 -3.61147 0
M  V30 1258 O 129.225 -1.93041 -2.99355 0
M  V30 1259 O 128.084 -2.74741 -4.72419 0
M  V30 1260 H 125.178 -0.38464 -0.732107 0
M  V30 1261 H 127.724 -1.36817 -1.00395 0
M  V30 1262 H 126.496 -2.94685 -2.57442 0
M  V30 1263 H 126.119 -1.60218 -3.6389 0
M  V30 1264 N 127.117 1.15442 -1.07289 0
M  V30 1265 C 128.047 2.22312 -0.714107 0
M  V30 1266 C 129.028 1.67467 0.298155 0
M  V30 1267 O 130.213 1.93445 0.171048 0
M  V30 1268 C 127.343 3.47124 -0.110448 0
M  V30 1269 C 126.297 4.14926 -1.04979 0
M  V30 1270 C 125.623 5.33807 -0.308924 0
M  V30 1271 C 126.923 4.64762 -2.38314 0
M  V30 1272 H 128.617 2.5258 -1.6076 0
M  V30 1273 H 126.163 1.21404 -0.77441 0
M  V30 1274 H 128.116 4.21124 0.152482 0
M  V30 1275 H 126.84 3.16187 0.81812 0
M  V30 1276 H 125.499 3.42866 -1.29764 0
M  V30 1277 H 125.147 4.99126 0.623084 0
M  V30 1278 H 124.847 5.80113 -0.935036 0
M  V30 1279 H 126.371 6.10576 -0.0537771 0
M  V30 1280 H 127.785 5.30292 -2.1786 0
M  V30 1281 H 126.182 5.21728 -2.96514 0
M  V30 1282 H 127.252 3.80434 -3.00663 0
M  V30 1283 N 128.595 0.856903 1.32268 0
M  V30 1284 C 129.545 0.274899 2.26337 0
M  V30 1285 C 130.529 -0.580543 1.50062 0
M  V30 1286 O 131.721 -0.429559 1.71708 0
M  V30 1287 C 128.85 -0.533841 3.39124 0
M  V30 1288 C 127.936 0.334114 4.22782 0
M  V30 1289 N 128.327 1.42143 4.85416 0
M  V30 1290 C 126.625 0.124256 4.45827 0
M  V30 1291 C 127.326 1.95559 5.47843 0
M  V30 1292 N 126.302 1.25444 5.28928 0
M  V30 1293 H 130.104 1.10612 2.72291 0
M  V30 1294 H 127.618 0.703258 1.46383 0
M  V30 1295 H 129.615 -0.96722 4.05525 0
M  V30 1296 H 128.275 -1.36283 2.94715 0
M  V30 1297 H 129.286 1.80436 4.85451 0
M  V30 1298 H 125.963 -0.669837 4.12092 0
M  V30 1299 H 127.353 2.86714 6.07655 0
M  V30 1300 N 130.073 -1.45103 0.615059 0
M  V30 1301 C 131.036 -2.29025 -0.0895485 0
M  V30 1302 C 132.036 -1.40174 -0.787906 0
M  V30 1303 O 133.226 -1.62217 -0.634933 0
M  V30 1304 C 130.358 -3.21376 -1.13711 0
M  V30 1305 H 131.551 -2.92807 0.648382 0
M  V30 1306 H 129.104 -1.51749 0.374444 0
M  V30 1307 H 129.839 -2.6241 -1.90556 0
M  V30 1308 H 129.624 -3.86834 -0.640475 0
M  V30 1309 H 131.114 -3.84459 -1.63036 0
M  V30 1310 N 131.551 -0.354651 -1.53558 0
M  V30 1311 C 132.501 0.513179 -2.2215 0
M  V30 1312 C 133.485 1.05734 -1.21281 0
M  V30 1313 O 134.677 0.989202 -1.46778 0
M  V30 1314 C 131.806 1.65798 -3.00609 0
M  V30 1315 C 130.892 1.12722 -4.08845 0
M  V30 1316 N 131.283 0.318563 -5.04796 0
M  V30 1317 C 129.581 1.40307 -4.23356 0
M  V30 1318 C 130.282 0.0292224 -5.81693 0
M  V30 1319 N 129.258 0.623891 -5.40008 0
M  V30 1320 H 133.06 -0.111586 -2.93688 0
M  V30 1321 H 130.574 -0.162091 -1.61589 0
M  V30 1322 H 132.571 2.29176 -3.48258 0
M  V30 1323 H 131.231 2.28591 -2.306 0
M  V30 1324 H 132.242 -0.0413091 -5.17884 0
M  V30 1325 H 128.919 2.03458 -3.6457 0
M  V30 1326 H 130.309 -0.623808 -6.68998 0
M  V30 1327 N 133.029 1.57378 -0.0835403 0
M  V30 1328 C 133.976 2.13384 0.879539 0
M  V30 1329 C 134.946 1.04936 1.28754 0
M  V30 1330 O 136.131 1.32662 1.37133 0
M  V30 1331 C 133.271 2.70932 2.13752 0
M  V30 1332 C 132.384 3.93575 1.7811 0
M  V30 1333 C 131.519 4.39326 2.98607 0
M  V30 1334 C 130.558 5.54587 2.59037 0
M  V30 1335 N 129.695 5.95243 3.72331 0
M  V30 1336 H 134.535 2.9537 0.395076 0
M  V30 1337 H 132.072 1.45953 0.183349 0
M  V30 1338 H 134.03 3.02411 2.87408 0
M  V30 1339 H 132.66 1.91693 2.59718 0
M  V30 1340 H 131.712 3.68483 0.94469 0
M  V30 1341 H 133.024 4.77258 1.45005 0
M  V30 1342 H 132.178 4.72528 3.80529 0
M  V30 1343 H 130.917 3.5452 3.34913 0
M  V30 1344 H 129.922 5.21024 1.75539 0
M  V30 1345 H 131.147 6.41133 2.23887 0
M  V30 1346 H 129.093 5.13385 4.08378 0
M  V30 1347 H 129.01 6.73694 3.43034 0
M  V30 1348 H 130.278 6.33072 4.54797 0
M  V30 1349 N 134.507 -0.190092 1.56449 0
M  V30 1350 C 135.437 -1.23816 1.97969 0
M  V30 1351 C 136.418 -1.47201 0.852395 0
M  V30 1352 O 137.603 -1.58854 1.1171 0
M  V30 1353 C 134.733 -2.5813 2.3235 0
M  V30 1354 C 133.687 -2.49348 3.47864 0
M  V30 1355 C 133.013 -3.8798 3.67934 0
M  V30 1356 C 134.313 -2.01424 4.81898 0
M  V30 1357 H 136.007 -0.89311 2.85769 0
M  V30 1358 H 133.553 -0.428177 1.37487 0
M  V30 1359 H 135.506 -3.31637 2.59991 0
M  V30 1360 H 134.23 -2.94386 1.41438 0
M  V30 1361 H 132.889 -1.78297 3.20321 0
M  V30 1362 H 132.537 -4.21597 2.74344 0
M  V30 1363 H 132.237 -3.82978 4.45648 0
M  V30 1364 H 133.761 -4.63101 3.97957 0
M  V30 1365 H 135.175 -2.64693 5.08538 0
M  V30 1366 H 133.572 -2.07413 5.63116 0
M  V30 1367 H 134.642 -0.967677 4.75146 0
M  V30 1368 N 135.985 -1.50799 -0.457987 0
M  V30 1369 C 137.401 -1.38515 -0.792819 0
M  V30 1370 C 137.601 -0.451409 -1.96379 0
M  V30 1371 O 136.657 0.10112 -2.52297 0
M  V30 1372 C 137.97 -2.80149 -1.09258 0
M  V30 1373 C 139.518 -2.89156 -1.19825 0
M  V30 1374 C 139.993 -4.31651 -1.53106 0
M  V30 1375 N 141.484 -4.34662 -1.60072 0
M  V30 1376 C 142.219 -5.41928 -1.87354 0
M  V30 1377 N 141.715 -6.59384 -2.12568 0
M  V30 1378 N 143.508 -5.29385 -1.88965 0
M  V30 1379 H 135.659 -2.10073 0.313511 0
M  V30 1380 H 137.922 -0.944803 0.0777862 0
M  V30 1381 H 137.628 -3.50374 -0.305084 0
M  V30 1382 H 137.502 -3.18204 -2.02549 0
M  V30 1383 H 139.889 -2.19141 -1.97639 0
M  V30 1384 H 139.97 -2.54626 -0.244821 0
M  V30 1385 H 139.614 -5.02208 -0.758266 0
M  V30 1386 H 139.544 -4.63678 -2.49621 0
M  V30 1387 H 142.035 -3.49973 -1.42573 0
M  V30 1388 H 142.348 -7.36934 -2.32696 0
M  V30 1389 H 140.693 -6.62535 -2.09933 0
M  V30 1390 H 143.884 -4.36616 -1.68772 0
M  V30 1391 H 144.057 -6.13066 -2.09891 0
M  V30 1392 N 137.463 0.71206 -1.40597 0
M  V30 1393 C 138.709 1.47416 -1.39271 0
M  V30 1394 C 139.042 1.942 0.00388791 0
M  V30 1395 O 138.317 1.68403 0.973179 0
M  V30 1396 C 138.6 2.69774 -2.38525 0
M  V30 1397 C 138.453 2.28861 -3.87224 0
M  V30 1398 C 139.772 3.71939 -2.35264 0
M  V30 1399 H 136.891 0.534713 -0.5072 0
M  V30 1400 H 139.533 0.812375 -1.71757 0
M  V30 1401 H 137.683 3.26238 -2.10953 0
M  V30 1402 H 139.355 1.77852 -4.25636 0
M  V30 1403 H 137.598 1.60824 -4.02887 0
M  V30 1404 H 138.269 3.16584 -4.52193 0
M  V30 1405 H 140.745 3.25113 -2.59694 0
M  V30 1406 H 139.621 4.55186 -3.06753 0
M  V30 1407 H 139.882 4.20484 -1.36549 0
M  V30 1408 N 138.941 1.26152 0.944643 0
M  V30 1409 C 140.218 1.02247 1.66748 0
M  V30 1410 C 140.598 -0.448202 2.06287 0
M  V30 1411 O 139.946 -1.42779 1.78399 0
M  V30 1412 C 140.156 1.96788 2.88228 0
M  V30 1413 C 141.504 2.25201 3.59958 0
M  V30 1414 O 142.528 1.94626 2.98327 0
M  V30 1415 O 141.387 2.77242 4.70956 0
M  V30 1416 H 138.481 0.388517 0.730057 0
M  V30 1417 H 141.027 1.37348 0.99668 0
M  V30 1418 H 139.799 2.96047 2.55875 0
M  V30 1419 H 139.422 1.62145 3.63035 0
M  V30 1420 N 140.419 -1.14872 1.07899 0
M  V30 1421 C 141.83 -1.67367 0.827363 0
M  V30 1422 C 142.181 -1.85236 -0.646693 0
M  V30 1423 O 141.306 -1.55974 -1.50004 0
M  V30 1424 C 141.901 -3.04016 1.49532 0
M  V30 1425 C 140.46 -3.53566 1.29106 0
M  V30 1426 C 139.607 -2.29161 1.56143 0
M  V30 1427 H 142.558 -0.990083 1.24028 0
M  V30 1428 H 142.579 -3.69219 0.919643 0
M  V30 1429 H 142.091 -2.90978 2.56814 0
M  V30 1430 H 140.192 -3.71835 0.238713 0
M  V30 1431 H 140.305 -4.34661 2.01511 0
M  V30 1432 H 138.669 -2.34978 0.982717 0
M  V30 1433 H 139.452 -2.18705 2.64619 0
M  V30 1434 N 141.898 -0.863906 -1.31812 0
M  V30 1435 C 143.144 -0.472535 -1.97218 0
M  V30 1436 C 143.477 0.971394 -1.68159 0
M  V30 1437 O 142.752 1.68309 -0.974798 0
M  V30 1438 C 143.035 -0.723054 -3.52766 0
M  V30 1439 C 142.888 -2.21608 -3.91421 0
M  V30 1440 C 144.207 -0.185522 -4.39709 0
M  V30 1441 H 141.326 -0.173158 -0.71637 0
M  V30 1442 H 143.968 -1.08403 -1.56041 0
M  V30 1443 H 142.118 -0.202577 -3.87971 0
M  V30 1444 H 143.79 -2.80334 -3.66347 0
M  V30 1445 H 142.033 -2.691 -3.40246 0
M  V30 1446 H 142.704 -2.34203 -4.99853 0
M  V30 1447 H 145.18 -0.630726 -4.11292 0
M  V30 1448 H 144.056 -0.390306 -5.47511 0
M  V30 1449 H 144.317 0.912229 -4.32586 0
M  V30 1450 N 143.376 1.44774 -0.622745 0
M  V30 1451 C 144.324 2.32387 0.0994683 0
M  V30 1452 C 145.318 1.46859 0.844326 0
M  V30 1453 O 146.524 1.63254 0.758174 0
M  V30 1454 H 142.899 0.750273 0.0509291 0
M  V30 1455 H 144.87 2.91062 -0.65767 0
M  V30 1456 C 143.619 3.30723 1.07319 0
M  V30 1457 H 142.942 3.96541 0.509462 0
M  V30 1458 H 144.382 3.94725 1.54817 0
M  V30 1459 C 142.841 2.59021 2.15429 0
M  V30 1460 O 143.371 2.38286 3.23393 0
M  V30 1461 N 141.577 2.189 1.91131 0
M  V30 1462 H 141.124 2.35964 1.03337 0
M  V30 1463 H 141.082 1.71251 2.63668 0
M  V30 1464 N 144.854 0.36279 1.53368 0
M  V30 1465 C 146.101 -0.227776 2.01215 0
M  V30 1466 C 146.429 -1.49003 1.25014 0
M  V30 1467 O 145.684 -1.92876 0.331236 0
M  V30 1468 C 145.983 -0.568417 3.52851 0
M  V30 1469 C 145.649 0.59918 4.46901 0
M  V30 1470 C 144.311 0.919559 4.72332 0
M  V30 1471 C 146.663 1.38156 5.02556 0
M  V30 1472 C 143.991 2.02434 5.5067 0
M  V30 1473 C 146.343 2.47674 5.821 0
M  V30 1474 C 145.007 2.8025 6.05819 0
M  V30 1475 H 144.277 -0.083349 0.736297 0
M  V30 1476 H 146.924 0.494677 1.85001 0
M  V30 1477 H 145.229 -1.37185 3.66998 0
M  V30 1478 H 146.926 -1.03756 3.87344 0
M  V30 1479 H 143.516 0.339437 4.27254 0
M  V30 1480 H 147.7 1.14729 4.82857 0
M  V30 1481 H 142.956 2.28075 5.67267 0
M  V30 1482 H 147.13 3.08716 6.24234 0
M  V30 1483 H 144.757 3.65979 6.66306 0
M  V30 1484 N 146.332 -1.57332 0.0918853 0
M  V30 1485 C 147.279 -2.13847 -0.868211 0
M  V30 1486 C 148.249 -1.05618 -1.28196 0
M  V30 1487 O 149.434 -1.33387 -1.36427 0
M  V30 1488 C 146.574 -2.72062 -2.12312 0
M  V30 1489 C 145.687 -3.94514 -1.7602 0
M  V30 1490 C 144.822 -4.40903 -2.96273 0
M  V30 1491 C 143.861 -5.55953 -2.56092 0
M  V30 1492 N 142.998 -5.97209 -3.69169 0
M  V30 1493 H 147.838 -2.95575 -0.379406 0
M  V30 1494 H 145.375 -1.46048 -0.175606 0
M  V30 1495 H 147.333 -3.03931 -2.858 0
M  V30 1496 H 145.963 -1.93068 -2.58698 0
M  V30 1497 H 145.015 -3.68979 -0.925135 0
M  V30 1498 H 146.327 -4.7802 -1.42472 0
M  V30 1499 H 145.481 -4.74539 -3.78018 0
M  V30 1500 H 144.22 -3.56291 -3.33029 0
M  V30 1501 H 143.225 -5.21948 -1.72773 0
M  V30 1502 H 144.45 -6.42311 -2.20484 0
M  V30 1503 H 142.396 -5.15543 -4.05649 0
M  V30 1504 H 142.313 -6.75504 -3.39456 0
M  V30 1505 H 143.581 -6.35475 -4.51434 0
M  V30 1506 N 147.81 0.181792 -1.56548 0
M  V30 1507 C 148.74 1.22765 -1.98623 0
M  V30 1508 C 149.721 1.46747 -0.860189 0
M  V30 1509 O 150.906 1.58259 -1.12551 0
M  V30 1510 C 148.036 2.56894 -2.33715 0
M  V30 1511 C 146.99 2.475 -3.49182 0
M  V30 1512 C 146.316 3.86023 -3.69986 0
M  V30 1513 C 147.616 1.98866 -4.82959 0
M  V30 1514 H 149.31 0.877942 -2.86239 0
M  V30 1515 H 146.856 0.42088 -1.37712 0
M  V30 1516 H 148.809 3.30253 -2.61746 0
M  V30 1517 H 147.533 2.93632 -1.42997 0
M  V30 1518 H 146.192 1.76596 -3.21262 0
M  V30 1519 H 145.84 4.20136 -2.76576 0
M  V30 1520 H 145.54 3.80609 -4.47672 0
M  V30 1521 H 147.064 4.60984 -4.00407 0
M  V30 1522 H 148.478 2.61992 -5.09934 0
M  V30 1523 H 146.875 2.04424 -5.64208 0
M  V30 1524 H 147.945 0.942465 -4.75653 0
M  V30 1525 N 149.288 1.51039 0.449983 0
M  V30 1526 C 150.218 1.74379 1.55288 0
M  V30 1527 C 151.199 0.593236 1.5942 0
M  V30 1528 O 152.384 0.834625 1.7535 0
M  V30 1529 C 149.514 1.85728 2.93466 0
M  V30 1530 C 148.468 3.01078 3.04197 0
M  V30 1531 C 147.794 2.97595 4.44231 0
M  V30 1532 C 149.094 4.41254 2.7945 0
M  V30 1533 H 150.788 2.66725 1.36008 0
M  V30 1534 H 148.334 1.2835 0.652864 0
M  V30 1535 H 150.287 2.0064 3.70569 0
M  V30 1536 H 149.011 0.900207 3.13949 0
M  V30 1537 H 147.67 2.85851 2.29531 0
M  V30 1538 H 147.318 1.99691 4.61663 0
M  V30 1539 H 147.018 3.75046 4.52343 0
M  V30 1540 H 148.542 3.14583 5.23326 0
M  V30 1541 H 149.956 4.56897 3.46292 0
M  V30 1542 H 148.353 5.20315 2.98985 0
M  V30 1543 H 149.423 4.52164 1.75144 0
M  V30 1544 N 150.766 -0.704594 1.40972 0
M  V30 1545 C 151.991 -1.49858 1.43378 0
M  V30 1546 C 152.416 -1.88061 0.038184 0
M  V30 1547 O 151.774 -1.5402 -0.956425 0
M  V30 1548 C 151.822 -2.74333 2.34038 0
M  V30 1549 O 150.926 -3.7147 1.7912 0
M  V30 1550 H 150.267 -0.45139 0.486974 0
M  V30 1551 H 152.797 -0.866832 1.8533 0
M  V30 1552 H 152.807 -3.22741 2.49604 0
M  V30 1553 H 151.482 -2.45863 3.35446 0
M  V30 1554 H 150.059 -3.30363 1.72958 0
M  V30 1555 N 152.244 -1.26651 -0.937939 0
M  V30 1556 C 153.194 -1.05156 -2.02302 0
M  V30 1557 C 154.178 0.0171233 -1.60891 0
M  V30 1558 O 155.37 -0.200213 -1.75864 0
M  V30 1559 C 152.499 -0.689962 -3.36295 0
M  V30 1560 C 151.585 -1.79626 -3.84181 0
M  V30 1561 N 151.976 -3.03422 -4.04684 0
M  V30 1562 C 150.274 -1.6806 -4.13124 0
M  V30 1563 C 150.975 -3.75345 -4.444 0
M  V30 1564 N 149.951 -3.03051 -4.51288 0
M  V30 1565 H 153.753 -1.99117 -2.1617 0
M  V30 1566 H 151.267 -1.17216 -1.12402 0
M  V30 1567 H 153.264 -0.517112 -4.13681 0
M  V30 1568 H 151.924 0.242139 -3.23796 0
M  V30 1569 H 152.935 -3.39293 -3.91281 0
M  V30 1570 H 149.612 -0.818629 -4.09396 0
M  V30 1571 H 151.002 -4.81691 -4.68427 0
M  V30 1572 N 153.722 1.14298 -1.08507 0
M  V30 1573 C 154.962 1.87016 -0.824894 0
M  V30 1574 C 155.326 1.81099 0.637735 0
M  V30 1575 O 156.527 2.48963 1.01345 0
M  V30 1576 C 154.798 3.31584 -1.33368 0
M  V30 1577 S 156.357 4.21903 -1.20596 0
M  V30 1578 H 153.175 0.645259 -0.2986 0
M  V30 1579 H 155.777 1.37822 -1.38656 0
M  V30 1580 H 154.481 3.33439 -2.39262 0
M  V30 1581 H 154.012 3.85836 -0.767734 0
M  V30 1582 H 156.027 4.95971 -0.150891 0
M  V30 1583 N 155.201 0.870884 1.31352 0
M  V30 1584 C 156.131 0.343096 2.30966 0
M  V30 1585 C 157.112 -0.566507 1.60389 0
M  V30 1586 O 158.297 -0.483336 1.88089 0
M  V30 1587 C 155.427 -0.455487 3.443 0
M  V30 1588 C 154.381 0.361103 4.26474 0
M  V30 1589 C 153.707 -0.563221 5.31725 0
M  V30 1590 C 155.007 1.59566 4.97329 0
M  V30 1591 H 156.701 1.17548 2.75359 0
M  V30 1592 H 154.247 0.566686 1.32381 0
M  V30 1593 H 156.2 -0.83525 4.13039 0
M  V30 1594 H 154.924 -1.32139 2.98675 0
M  V30 1595 H 153.583 0.722825 3.59403 0
M  V30 1596 H 153.231 -1.42643 4.82351 0
M  V30 1597 H 152.931 -0.0207409 5.87596 0
M  V30 1598 H 154.455 -0.939808 6.03324 0
M  V30 1599 H 155.869 1.28728 5.58661 0
M  V30 1600 H 154.266 2.07728 5.63 0
M  V30 1601 H 155.336 2.34798 4.24262 0
M  V30 1602 N 156.679 -1.44442 0.630414 0
M  V30 1603 C 157.609 -2.33418 -0.0618083 0
M  V30 1604 C 158.59 -1.48165 -0.835541 0
M  V30 1605 O 159.775 -1.76886 -0.801564 0
M  V30 1606 C 156.905 -3.31222 -1.04449 0
M  V30 1607 C 155.859 -4.26288 -0.382436 0
M  V30 1608 C 155.185 -5.13954 -1.47497 0
M  V30 1609 C 156.485 -5.1744 0.710865 0
M  V30 1610 H 158.179 -2.91548 0.681184 0
M  V30 1611 H 155.725 -1.40191 0.329026 0
M  V30 1612 H 157.678 -3.92351 -1.53748 0
M  V30 1613 H 156.402 -2.71299 -1.81836 0
M  V30 1614 H 155.061 -3.6649 0.0899054 0
M  V30 1615 H 154.709 -4.50385 -2.2397 0
M  V30 1616 H 154.409 -5.7837 -1.03737 0
M  V30 1617 H 155.933 -5.77955 -1.96979 0
M  V30 1618 H 157.347 -5.72509 0.300996 0
M  V30 1619 H 155.744 -5.90455 1.07156 0
M  V30 1620 H 156.814 -4.58496 1.57829 0
M  V30 1621 N 158.157 -0.370918 -1.53173 0
M  V30 1622 C 159.403 0.217423 -2.01631 0
M  V30 1623 C 159.736 1.47983 -1.25756 0
M  V30 1624 O 159.011 1.91274 -0.352764 0
M  V30 1625 C 159.294 0.503982 -3.56556 0
M  V30 1626 C 159.147 -0.77243 -4.43118 0
M  V30 1627 C 160.466 1.30234 -4.20389 0
M  V30 1628 H 157.585 0.0775486 -0.732909 0
M  V30 1629 H 160.227 -0.496863 -1.83388 0
M  V30 1630 H 158.377 1.11248 -3.72231 0
M  V30 1631 H 160.049 -1.4098 -4.39229 0
M  V30 1632 H 158.292 -1.39167 -4.10871 0
M  V30 1633 H 158.963 -0.526815 -5.4948 0
M  V30 1634 H 161.439 0.787546 -4.08579 0
M  V30 1635 H 160.315 1.47158 -5.28806 0
M  V30 1636 H 160.576 2.31237 -3.76805 0
M  V30 1637 N 159.635 1.57281 -0.100228 0
M  V30 1638 C 160.863 1.98879 0.570509 0
M  V30 1639 C 161.278 0.979476 1.61405 0
M  V30 1640 O 160.635 -0.0302288 1.82475 0
M  V30 1641 C 160.686 3.4052 1.2136 0
M  V30 1642 O 160.407 4.37588 0.211786 0
M  V30 1643 C 161.908 3.97149 1.96945 0
M  V30 1644 H 159.128 0.653428 0.152555 0
M  V30 1645 H 161.672 2.03697 -0.18103 0
M  V30 1646 H 159.827 3.367 1.91603 0
M  V30 1647 H 160.241 5.20118 0.676607 0
M  V30 1648 H 161.715 4.98393 2.37294 0
M  V30 1649 H 162.192 3.3525 2.83733 0
M  V30 1650 H 162.798 4.04458 1.31506 0
M  V30 1651 N 161.113 -0.173488 1.56642 0
M  V30 1652 C 162.043 -1.2171 1.99271 0
M  V30 1653 C 163.024 -1.46289 0.867959 0
M  V30 1654 O 164.209 -1.5766 1.13388 0
M  V30 1655 C 161.339 -2.55651 2.35074 0
M  V30 1656 C 160.293 -2.45645 3.50489 0
M  V30 1657 C 159.619 -3.84056 3.72028 0
M  V30 1658 C 160.919 -1.96302 4.84007 0
M  V30 1659 H 162.613 -0.86275 2.867 0
M  V30 1660 H 160.159 -0.413571 1.37933 0
M  V30 1661 H 162.112 -3.2886 2.63494 0
M  V30 1662 H 160.836 -2.92869 1.44552 0
M  V30 1663 H 159.495 -1.7489 3.22194 0
M  V30 1664 H 159.143 -4.18664 2.788 0
M  V30 1665 H 158.843 -3.7823 4.49684 0
M  V30 1666 H 160.367 -4.58854 4.02846 0
M  V30 1667 H 161.781 -2.59284 5.11317 0
M  V30 1668 H 160.178 -2.01429 5.65284 0
M  V30 1669 H 161.248 -0.917226 4.76146 0
M  V30 1670 N 162.591 -1.51276 -0.441967 0
M  V30 1671 C 163.554 -1.7167 -1.51862 0
M  V30 1672 C 164.554 -0.586793 -1.49711 0
M  V30 1673 O 165.744 -0.854276 -1.51815 0
M  V30 1674 C 162.876 -1.76889 -2.91416 0
M  V30 1675 H 164.069 -2.67754 -1.35084 0
M  V30 1676 H 161.622 -1.41196 -0.670333 0
M  V30 1677 H 162.357 -0.826026 -3.13604 0
M  V30 1678 H 162.142 -2.59001 -2.94382 0
M  V30 1679 H 163.632 -1.94522 -3.69528 0
M  V30 1680 N 164.069 0.697108 -1.41344 0
M  V30 1681 C 165.032 1.79281 -1.42797 0
M  V30 1682 C 166.032 1.57607 -0.318837 0
M  V30 1683 O 167.222 1.64309 -0.578642 0
M  V30 1684 C 164.354 3.17632 -1.23785 0
M  V30 1685 H 165.547 1.79385 -2.40335 0
M  V30 1686 H 163.1 0.904582 -1.27464 0
M  V30 1687 H 163.835 3.23167 -0.270814 0
M  V30 1688 H 163.62 3.34765 -2.04144 0
M  V30 1689 H 165.11 3.97617 -1.27633 0
M  V30 1690 N 165.547 1.27147 0.931209 0
M  V30 1691 C 166.497 1.06227 2.01742 0
M  V30 1692 C 167.481 -0.00859065 1.60898 0
M  V30 1693 O 168.673 0.209537 1.75755 0
M  V30 1694 C 165.802 0.707787 3.35924 0
M  V30 1695 C 164.888 1.81661 3.83223 0
M  V30 1696 N 165.279 3.05564 4.03069 0
M  V30 1697 C 163.577 1.70249 4.12227 0
M  V30 1698 C 164.278 3.77697 4.42403 0
M  V30 1699 N 163.254 3.0544 4.49675 0
M  V30 1700 H 167.056 2.00261 2.15111 0
M  V30 1701 H 164.57 1.1781 1.11779 0
M  V30 1702 H 166.567 0.539043 4.134 0
M  V30 1703 H 165.227 -0.224964 3.2392 0
M  V30 1704 H 166.238 3.41363 3.89476 0
M  V30 1705 H 162.915 0.840329 4.08956 0
M  V30 1706 H 164.305 4.84168 4.65866 0
M  V30 1707 N 167.025 -1.13721 1.09112 0
M  V30 1708 C 167.955 -2.21148 0.749385 0
M  V30 1709 C 168.936 -1.6792 -0.271475 0
M  V30 1710 O 170.121 -1.93693 -0.140251 0
M  V30 1711 C 167.251 -3.46905 0.165659 0
M  V30 1712 C 166.205 -4.13203 1.11567 0
M  V30 1713 C 165.531 -5.33248 0.393809 0
M  V30 1714 C 166.831 -4.60912 2.45678 0
M  V30 1715 H 168.525 -2.4999 1.64758 0
M  V30 1716 H 166.071 -1.20156 0.793626 0
M  V30 1717 H 168.024 -4.21313 -0.085466 0
M  V30 1718 H 166.748 -3.17449 -0.767714 0
M  V30 1719 H 165.407 -3.40758 1.35202 0
M  V30 1720 H 165.055 -5.00054 -0.543599 0
M  V30 1721 H 164.755 -5.78552 1.02721 0
M  V30 1722 H 166.279 -6.10413 0.150908 0
M  V30 1723 H 167.693 -5.26759 2.26269 0
M  V30 1724 H 166.09 -5.16944 3.04776 0
M  V30 1725 H 167.16 -3.75603 3.06677 0
M  V30 1726 N 168.503 -0.877838 -1.30888 0
M  V30 1727 C 169.914 -0.544193 -1.78593 0
M  V30 1728 C 170.265 0.939301 -1.72254 0
M  V30 1729 O 169.39 1.7337 -1.29505 0
M  V30 1730 C 169.985 -0.98105 -3.24285 0
M  V30 1731 C 168.544 -0.698935 -3.69854 0
M  V30 1732 C 167.691 -1.168 -2.51502 0
M  V30 1733 H 170.642 -1.06278 -1.17859 0
M  V30 1734 H 170.663 -0.307009 -3.79259 0
M  V30 1735 H 170.175 -2.06079 -3.28866 0
M  V30 1736 H 168.276 0.369112 -3.70767 0
M  V30 1737 H 168.389 -1.28148 -4.61644 0
M  V30 1738 H 166.753 -0.587535 -2.47831 0
M  V30 1739 H 167.536 -2.25533 -2.58824 0
M  V30 1740 N 169.982 1.44106 -0.638065 0
M  V30 1741 C 170.945 2.29138 0.0531013 0
M  V30 1742 C 171.945 1.41409 0.765506 0
M  V30 1743 O 173.135 1.63206 0.609046 0
M  V30 1744 C 170.267 3.23144 1.08584 0
M  V30 1745 H 171.46 2.91739 -0.694883 0
M  V30 1746 H 169.013 1.51134 -0.398538 0
M  V30 1747 H 169.748 2.65408 1.86357 0
M  V30 1748 H 169.533 3.87804 0.578852 0
M  V30 1749 H 171.023 3.87004 1.56899 0
M  V30 1750 N 171.46 0.379036 1.52974 0
M  V30 1751 C 172.37 -0.468639 2.29872 0
M  V30 1752 C 173.386 -1.08067 1.36373 0
M  V30 1753 O 174.562 -1.08871 1.69438 0
M  V30 1754 C 171.627 -1.58594 3.083 0
M  V30 1755 C 170.688 -1.00007 4.17489 0
M  V30 1756 C 169.921 -2.06413 4.92168 0
M  V30 1757 O 170.144 -3.27751 4.66835 0
M  V30 1758 O 169.078 -1.68717 5.7777 0
M  V30 1759 H 172.904 0.157508 3.03291 0
M  V30 1760 H 170.489 0.143035 1.48714 0
M  V30 1761 H 172.371 -2.23525 3.57232 0
M  V30 1762 H 171.046 -2.19724 2.37703 0
M  V30 1763 H 169.953 -0.314299 3.72777 0
M  V30 1764 H 171.286 -0.433135 4.90291 0
M  V30 1765 N 172.938 -1.57226 0.108567 0
M  V30 1766 C 174.185 -1.94833 -0.551943 0
M  V30 1767 C 174.513 -0.991204 -1.67348 0
M  V30 1768 O 173.768 -0.0131878 -1.95696 0
M  V30 1769 C 174.067 -3.38911 -1.13463 0
M  V30 1770 C 173.733 -4.50696 -0.135509 0
M  V30 1771 C 172.395 -4.80998 0.139252 0
M  V30 1772 C 174.747 -5.18333 0.545957 0
M  V30 1773 C 172.075 -5.76259 1.10194 0
M  V30 1774 C 174.427 -6.14627 1.49721 0
M  V30 1775 C 173.091 -6.43327 1.78006 0
M  V30 1776 H 172.361 -0.712944 -0.20197 0
M  V30 1777 H 175.008 -1.90582 0.18726 0
M  V30 1778 H 173.313 -3.39805 -1.95037 0
M  V30 1779 H 175.01 -3.65317 -1.65362 0
M  V30 1780 H 171.6 -4.27087 -0.359846 0
M  V30 1781 H 175.784 -4.95087 0.346842 0
M  V30 1782 H 171.04 -5.96804 1.32795 0
M  V30 1783 H 175.214 -6.66126 2.03099 0
M  V30 1784 H 172.841 -7.1695 2.52759 0
M  V30 1785 N 174.416 0.165178 -1.56732 0
M  V30 1786 C 175.644 0.896218 -1.86482 0
M  V30 1787 C 176.059 1.75555 -0.694675 0
M  V30 1788 O 175.416 1.79379 0.33607 0
M  V30 1789 C 175.467 1.76792 -3.1532 0
M  V30 1790 O 175.188 0.943239 -4.27825 0
M  V30 1791 C 176.689 2.6081 -3.58459 0
M  V30 1792 H 173.909 0.260064 -0.618553 0
M  V30 1793 H 176.453 0.163428 -2.03846 0
M  V30 1794 H 174.608 2.45398 -2.99764 0
M  V30 1795 H 175.022 1.53998 -5.01383 0
M  V30 1796 H 176.496 3.17579 -4.51495 0
M  V30 1797 H 176.973 3.35977 -2.82872 0
M  V30 1798 H 177.579 1.97526 -3.76648 0
M  V30 1799 N 175.894 1.51508 0.433938 0
M  V30 1800 C 177.305 1.56784 1.01369 0
M  V30 1801 C 177.656 0.393349 1.92217 0
M  V30 1802 O 176.781 -0.489441 2.10792 0
M  V30 1803 C 177.376 2.84144 1.8452 0
M  V30 1804 C 175.935 2.9198 2.37539 0
M  V30 1805 C 175.082 2.51482 1.16843 0
M  V30 1806 H 178.033 1.57236 0.215081 0
M  V30 1807 H 178.054 2.68098 2.70007 0
M  V30 1808 H 177.566 3.69607 1.18373 0
M  V30 1809 H 175.667 2.10955 3.0713 0
M  V30 1810 H 175.78 3.95704 2.70103 0
M  V30 1811 H 174.144 2.04758 1.51481 0
M  V30 1812 H 174.927 3.39293 0.523015 0
M  V30 1813 N 177.372 -0.689602 1.41712 0
M  V30 1814 C 178.335 -1.78521 1.43746 0
M  V30 1815 C 179.335 -1.57436 0.327191 0
M  V30 1816 O 180.525 -1.64 0.587348 0
M  V30 1817 C 177.657 -3.16971 1.25467 0
M  V30 1818 H 178.85 -1.78108 2.41283 0
M  V30 1819 H 176.403 -0.89781 1.27942 0
M  V30 1820 H 177.138 -3.23019 0.287948 0
M  V30 1821 H 176.923 -3.33678 2.05917 0
M  V30 1822 H 178.413 -3.96935 1.2974 0
M  V30 1823 N 178.85 -1.27639 -0.924453 0
M  V30 1824 C 180.096 -1.14336 -1.67497 0
M  V30 1825 C 180.429 0.309465 -1.91718 0
M  V30 1826 O 179.704 1.22608 -1.50989 0
M  V30 1827 C 179.987 -1.93096 -3.0395 0
M  V30 1828 C 179.84 -3.46381 -2.8695 0
M  V30 1829 C 181.159 -1.73798 -4.0433 0
M  V30 1830 H 178.278 -0.416728 -0.607871 0
M  V30 1831 H 180.92 -1.56832 -1.07256 0
M  V30 1832 H 179.07 -1.56982 -3.55372 0
M  V30 1833 H 180.742 -3.92343 -2.42621 0
M  V30 1834 H 178.985 -3.72557 -2.22225 0
M  V30 1835 H 179.656 -3.96735 -3.83804 0
M  V30 1836 H 182.132 -2.05293 -3.61931 0
M  V30 1837 H 181.008 -2.31294 -4.97789 0
M  V30 1838 H 181.269 -0.686725 -4.36734 0
M  V30 1839 N 180.328 1.1314 -1.09713 0
M  V30 1840 C 181.278 2.16709 -0.708593 0
M  V30 1841 C 182.262 1.58471 0.278523 0
M  V30 1842 O 183.454 1.76779 0.088427 0
M  V30 1843 C 180.583 3.43039 -0.133923 0
M  V30 1844 C 179.669 4.08277 -1.14763 0
M  V30 1845 N 180.06 4.48637 -2.33577 0
M  V30 1846 C 178.358 4.34954 -0.986446 0
M  V30 1847 C 179.059 4.9952 -2.98085 0
M  V30 1848 N 178.035 4.94561 -2.25632 0
M  V30 1849 H 181.837 2.45672 -1.61315 0
M  V30 1850 H 179.351 1.29967 -0.973775 0
M  V30 1851 H 181.348 4.16583 0.162465 0
M  V30 1852 H 180.008 3.15549 0.765447 0
M  V30 1853 H 181.019 4.41246 -2.7115 0
M  V30 1854 H 177.696 4.17258 -0.142008 0
M  V30 1855 H 179.086 5.40521 -3.99108 0
M  V30 1856 N 181.806 0.884767 1.30421 0
M  V30 1857 C 182.769 0.356277 2.26414 0
M  V30 1858 C 183.769 -0.501124 1.52792 0
M  V30 1859 O 184.959 -0.30831 1.7145 0
M  V30 1860 C 182.091 -0.492316 3.37326 0
M  V30 1861 H 183.284 1.20389 2.74675 0
M  V30 1862 H 180.837 0.661607 1.41607 0
M  V30 1863 H 181.572 -1.36052 2.94381 0
M  V30 1864 H 181.357 0.121832 3.91911 0
M  V30 1865 H 182.847 -0.853871 4.08777 0
M  V30 1866 N 183.284 -1.43765 0.645699 0
M  V30 1867 C 184.509 -2.06767 0.161883 0
M  V30 1868 C 184.934 -1.48034 -1.16049 0
M  V30 1869 O 184.292 -0.587369 -1.71522 0
M  V30 1870 C 184.34 -3.60519 0.0762003 0
M  V30 1871 O 183.444 -4.00982 -0.963721 0
M  V30 1872 H 182.785 -0.657675 0.091429 0
M  V30 1873 H 185.315 -1.84397 0.886499 0
M  V30 1874 H 185.325 -4.07853 -0.109604 0
M  V30 1875 H 184 -4.02646 1.04157 0
M  V30 1876 H 182.577 -3.65253 -0.751312 0
M  V30 1877 N 184.763 -0.387143 -1.52771 0
M  V30 1878 C 185.693 0.440551 -2.29306 0
M  V30 1879 C 186.674 1.06535 -1.32606 0
M  V30 1880 O 187.859 1.07853 -1.61497 0
M  V30 1881 C 184.989 1.56919 -3.09829 0
M  V30 1882 C 183.943 1.07054 -4.14395 0
M  V30 1883 C 183.269 2.29109 -4.83129 0
M  V30 1884 C 184.569 0.140015 -5.22112 0
M  V30 1885 H 186.263 -0.198026 -2.98744 0
M  V30 1886 H 183.809 -0.09668 -1.43675 0
M  V30 1887 H 185.762 2.15503 -3.62128 0
M  V30 1888 H 184.486 2.23532 -2.3812 0
M  V30 1889 H 183.145 0.507247 -3.63074 0
M  V30 1890 H 182.793 2.94227 -4.0797 0
M  V30 1891 H 182.493 1.96406 -5.53804 0
M  V30 1892 H 184.017 2.88339 -5.38231 0
M  V30 1893 H 185.431 0.633978 -5.69784 0
M  V30 1894 H 183.828 -0.0971485 -6.00021 0
M  V30 1895 H 184.898 -0.811711 -4.78058 0
M  V30 1896 N 186.241 1.57166 -0.116904 0
M  V30 1897 C 187.518 1.86645 0.585049 0
M  V30 1898 C 187.898 1.0177 1.84949 0
M  V30 1899 O 187.246 0.0960379 2.28298 0
M  V30 1900 C 187.456 3.37736 0.879507 0
M  V30 1901 C 188.804 4.06289 1.23348 0
M  V30 1902 O 189.828 3.42743 0.969836 0
M  V30 1903 O 188.687 5.18455 1.7282 0
M  V30 1904 H 185.781 0.772593 0.295007 0
M  V30 1905 H 188.327 1.69025 -0.151249 0
M  V30 1906 H 187.099 3.91296 -0.0166136 0
M  V30 1907 H 186.722 3.6078 1.67103 0
M  V30 1908 N 187.719 -0.156864 1.56817 0
M  V30 1909 C 188.666 -1.19394 1.97519 0
M  V30 1910 C 189.636 -1.4322 0.841265 0
M  V30 1911 O 190.821 -1.55719 1.10255 0
M  V30 1912 C 187.961 -2.52483 2.35258 0
M  V30 1913 C 187.074 -2.35914 3.61896 0
M  V30 1914 C 186.209 -3.61969 3.88782 0
M  V30 1915 C 185.248 -3.40395 5.08722 0
M  V30 1916 N 184.385 -4.58556 5.31668 0
M  V30 1917 H 189.225 -0.839845 2.85921 0
M  V30 1918 H 186.762 -0.403264 1.41464 0
M  V30 1919 H 188.72 -3.30071 2.55165 0
M  V30 1920 H 187.35 -2.85859 1.49949 0
M  V30 1921 H 186.402 -1.49429 3.49821 0
M  V30 1922 H 187.714 -2.15926 4.49641 0
M  V30 1923 H 186.868 -4.47989 4.09135 0
M  V30 1924 H 185.607 -3.84951 2.9944 0
M  V30 1925 H 184.612 -2.52763 4.88253 0
M  V30 1926 H 185.837 -3.18822 5.99608 0
M  V30 1927 H 183.783 -4.81729 4.45279 0
M  V30 1928 H 183.7 -4.41535 6.13664 0
M  V30 1929 H 184.968 -5.45817 5.5651 0
M  V30 1930 N 189.197 -1.51736 -0.425897 0
M  V30 1931 C 190.444 -1.6497 -1.17436 0
M  V30 1932 C 190.772 -0.371445 -1.9092 0
M  V30 1933 O 190.027 0.644963 -1.84767 0
M  V30 1934 C 190.326 -2.81103 -2.20717 0
M  V30 1935 C 189.992 -4.19954 -1.64162 0
M  V30 1936 C 188.654 -4.57725 -1.48462 0
M  V30 1937 C 191.006 -5.06552 -1.22696 0
M  V30 1938 C 188.334 -5.79789 -0.897873 0
M  V30 1939 C 190.686 -6.29205 -0.654464 0
M  V30 1940 C 189.35 -6.6574 -0.484456 0
M  V30 1941 H 188.62 -0.603668 -0.429727 0
M  V30 1942 H 191.267 -1.85798 -0.463829 0
M  V30 1943 H 189.572 -2.54542 -2.97852 0
M  V30 1944 H 191.269 -2.8854 -2.78471 0
M  V30 1945 H 187.859 -3.90181 -1.77361 0
M  V30 1946 H 192.043 -4.77968 -1.33642 0
M  V30 1947 H 187.299 -6.06733 -0.75402 0
M  V30 1948 H 191.473 -6.95643 -0.324694 0
M  V30 1949 H 189.1 -7.60195 -0.0276833 0
M  V30 1950 N 190.675 0.682077 -1.42076 0
M  V30 1951 C 191.605 1.80796 -1.47767 0
M  V30 1952 C 192.586 1.6677 -0.334954 0
M  V30 1953 O 193.771 1.863 -0.548264 0
M  V30 1954 C 190.901 3.19038 -1.37229 0
M  V30 1955 C 189.855 3.47789 -2.49453 0
M  V30 1956 C 189.181 4.8553 -2.23975 0
M  V30 1957 C 190.481 3.45411 -3.91776 0
M  V30 1958 H 192.175 1.7629 -2.41997 0
M  V30 1959 H 189.721 0.846721 -1.16476 0
M  V30 1960 H 191.674 3.97528 -1.39821 0
M  V30 1961 H 190.398 3.24204 -0.394907 0
M  V30 1962 H 189.057 2.71657 -2.46166 0
M  V30 1963 H 188.705 4.87337 -1.24547 0
M  V30 1964 H 188.405 5.0573 -2.99184 0
M  V30 1965 H 189.929 5.66312 -2.28304 0
M  V30 1966 H 191.343 4.13882 -3.96705 0
M  V30 1967 H 189.74 3.77145 -4.66778 0
M  V30 1968 H 190.81 2.44122 -4.18966 0
M  V30 1969 N 192.153 1.28127 0.917671 0
M  V30 1970 C 193.116 1.11744 2.00115 0
M  V30 1971 C 194.116 0.0583052 1.60694 0
M  V30 1972 O 195.306 0.303755 1.71531 0
M  V30 1973 C 192.438 0.704862 3.33533 0
M  V30 1974 H 193.631 2.07966 2.16079 0
M  V30 1975 H 191.184 1.11058 1.09981 0
M  V30 1976 H 191.919 -0.258299 3.2327 0
M  V30 1977 H 191.704 1.4699 3.63505 0
M  V30 1978 H 193.194 0.612768 4.1308 0
M  V30 1979 N 193.631 -1.12557 1.10312 0
M  V30 1980 C 194.856 -1.88405 0.867085 0
M  V30 1981 C 195.281 -1.79038 -0.576817 0
M  V30 1982 O 194.639 -1.14439 -1.40618 0
M  V30 1983 C 194.687 -3.3563 1.31851 0
M  V30 1984 O 193.791 -4.09565 0.482734 0
M  V30 1985 H 193.132 -0.585455 0.313271 0
M  V30 1986 H 195.662 -1.42352 1.4696 0
M  V30 1987 H 195.672 -3.86469 1.3079 0
M  V30 1988 H 194.347 -3.41765 2.37001 0
M  V30 1989 H 192.924 -3.68695 0.558448 0
M  V30 1990 N 195.109 -0.891671 -1.2995 0
M  V30 1991 C 196.355 -0.514261 -1.96171 0
M  V30 1992 C 196.688 0.935506 -1.70182 0
M  V30 1993 O 195.963 1.66204 -1.01028 0
M  V30 1994 C 196.246 -0.797719 -3.51153 0
M  V30 1995 C 196.099 -2.2986 -3.86632 0
M  V30 1996 C 197.418 -0.278749 -4.39216 0
M  V30 1997 H 194.537 -0.188314 -0.712535 0
M  V30 1998 H 197.179 -1.11689 -1.53706 0
M  V30 1999 H 195.329 -0.284826 -3.87455 0
M  V30 2000 H 197.001 -2.88042 -3.60319 0
M  V30 2001 H 195.244 -2.76257 -3.34462 0
M  V30 2002 H 195.915 -2.44753 -4.94773 0
M  V30 2003 H 198.391 -0.717825 -4.09862 0
M  V30 2004 H 197.267 -0.506353 -5.46559 0
M  V30 2005 H 197.528 0.820266 -4.34424 0
M  V30 2006 N 196.587 1.43421 -0.653314 0
M  V30 2007 C 197.812 2.06678 -0.172846 0
M  V30 2008 C 198.237 1.48648 1.15262 0
M  V30 2009 O 197.595 0.596457 1.71208 0
M  V30 2010 C 197.643 3.60474 -0.0953184 0
M  V30 2011 O 196.747 4.01487 0.942442 0
M  V30 2012 H 196.088 0.657181 -0.0949155 0
M  V30 2013 H 198.618 1.83925 -0.896265 0
M  V30 2014 H 198.628 4.07905 0.0879728 0
M  V30 2015 H 197.303 4.02088 -1.06291 0
M  V30 2016 H 195.88 3.65646 0.731932 0
M  V30 2017 N 198.065 0.39524 1.52563 0
M  V30 2018 C 199.293 -0.184943 2.06072 0
M  V30 2019 C 199.708 -1.40021 1.26647 0
M  V30 2020 O 199.065 -1.79767 0.314672 0
M  V30 2021 C 199.116 -0.549179 3.57304 0
M  V30 2022 O 198.837 0.617813 4.33722 0
M  V30 2023 C 200.338 -1.18459 4.2718 0
M  V30 2024 H 197.558 -0.0265025 0.670476 0
M  V30 2025 H 200.102 0.562184 1.96621 0
M  V30 2026 H 198.257 -1.2462 3.66809 0
M  V30 2027 H 198.671 0.317091 5.23541 0
M  V30 2028 H 200.145 -1.38976 5.34219 0
M  V30 2029 H 200.622 -2.15368 3.82771 0
M  V30 2030 H 201.228 -0.528163 4.22008 0
M  V30 2031 N 199.544 -1.57102 0.125237 0
M  V30 2032 C 200.79 -1.95697 -0.532035 0
M  V30 2033 C 201.123 -1.009 -1.6593 0
M  V30 2034 O 200.398 -0.047347 -1.94442 0
M  V30 2035 C 200.681 -3.44181 -1.05884 0
M  V30 2036 C 200.534 -4.49752 0.0654392 0
M  V30 2037 C 201.853 -3.94655 -1.9477 0
M  V30 2038 H 198.972 -0.711571 -0.191925 0
M  V30 2039 H 201.614 -1.88923 0.20206 0
M  V30 2040 H 199.764 -3.50085 -1.68442 0
M  V30 2041 H 201.436 -4.55943 0.700982 0
M  V30 2042 H 199.679 -4.27653 0.727709 0
M  V30 2043 H 200.35 -5.50924 -0.344505 0
M  V30 2044 H 202.826 -3.91094 -1.42074 0
M  V30 2045 H 201.702 -4.99057 -2.28546 0
M  V30 2046 H 201.963 -3.35718 -2.87656 0
M  V30 2047 N 201.022 0.148545 -1.56898 0
M  V30 2048 C 201.952 1.18524 -2.01182 0
M  V30 2049 C 202.933 1.4489 -0.891123 0
M  V30 2050 O 204.118 1.55836 -1.15882 0
M  V30 2051 C 201.248 2.51879 -2.39112 0
M  V30 2052 C 200.202 2.40038 -3.54353 0
M  V30 2053 C 199.528 3.78089 -3.78091 0
M  V30 2054 C 200.828 1.88577 -4.87069 0
M  V30 2055 H 202.522 0.817029 -2.88036 0
M  V30 2056 H 200.068 0.391575 -1.38574 0
M  V30 2057 H 202.021 3.24627 -2.68692 0
M  V30 2058 H 200.745 2.90532 -1.49193 0
M  V30 2059 H 199.404 1.69742 -3.24936 0
M  V30 2060 H 199.052 4.14175 -2.85426 0
M  V30 2061 H 198.752 3.71028 -4.55645 0
M  V30 2062 H 200.276 4.52387 -4.10095 0
M  V30 2063 H 201.69 2.51117 -5.15377 0
M  V30 2064 H 200.087 1.9241 -5.68417 0
M  V30 2065 H 201.157 0.84136 -4.77545 0
M  V30 2066 N 202.5 1.5196 0.417844 0
M  V30 2067 C 203.728 1.69426 1.18753 0
M  V30 2068 C 204.143 0.399955 1.84515 0
M  V30 2069 O 203.5 -0.623288 1.71527 0
M  V30 2070 C 203.551 2.82375 2.25714 0
M  V30 2071 O 203.272 4.06793 1.62638 0
M  V30 2072 C 204.773 3.11277 3.15628 0
M  V30 2073 H 201.993 0.568031 0.357186 0
M  V30 2074 H 204.537 1.98475 0.49273 0
M  V30 2075 H 202.692 2.5587 2.90877 0
M  V30 2076 H 203.106 4.69667 2.3348 0
M  V30 2077 H 204.58 3.93843 3.86771 0
M  V30 2078 H 205.057 2.24473 3.77503 0
M  V30 2079 H 205.663 3.39515 2.56144 0
M  V30 2080 N 203.978 -0.674533 1.42435 0
M  V30 2081 C 205.203 -1.46784 1.46524 0
M  V30 2082 C 205.628 -1.87938 0.078066 0
M  V30 2083 O 204.986 -1.56014 -0.92354 0
M  V30 2084 C 205.034 -2.69307 2.39805 0
M  V30 2085 O 204.138 -3.67587 1.86959 0
M  V30 2086 H 203.479 -0.440959 0.496439 0
M  V30 2087 H 206.009 -0.827326 1.87127 0
M  V30 2088 H 206.019 -3.17374 2.56393 0
M  V30 2089 H 204.694 -2.38692 3.40586 0
M  V30 2090 H 203.271 -3.2662 1.79927 0
M  V30 2091 N 205.456 -1.28612 -0.910864 0
M  V30 2092 C 206.403 -1.12786 -2.01365 0
M  V30 2093 C 207.373 -0.024201 -1.66082 0
M  V30 2094 O 208.558 -0.189667 -1.89855 0
M  V30 2095 C 205.698 -0.798743 -3.35729 0
M  V30 2096 C 204.811 -1.98173 -3.83864 0
M  V30 2097 C 203.946 -1.59298 -5.06752 0
M  V30 2098 C 202.985 -2.74245 -5.47226 0
M  V30 2099 N 202.122 -2.35842 -6.61304 0
M  V30 2100 H 206.962 -2.07142 -2.14234 0
M  V30 2101 H 204.499 -1.03093 -1.0493 0
M  V30 2102 H 206.457 -0.588662 -4.13026 0
M  V30 2103 H 205.087 0.10789 -3.2262 0
M  V30 2104 H 204.139 -2.30386 -3.02699 0
M  V30 2105 H 205.451 -2.84343 -4.09818 0
M  V30 2106 H 204.605 -1.34513 -5.916 0
M  V30 2107 H 203.344 -0.702618 -4.82612 0
M  V30 2108 H 202.349 -2.99725 -4.60918 0
M  V30 2109 H 203.574 -3.63928 -5.73353 0
M  V30 2110 H 201.52 -1.49279 -6.38789 0
M  V30 2111 H 201.437 -3.15546 -6.86998 0
M  V30 2112 H 202.705 -2.14348 -7.4945 0
M  V30 2113 N 206.934 1.1197 -1.10907 0
M  V30 2114 C 208.164 1.8713 -0.875553 0
M  V30 2115 C 208.572 1.8016 0.577843 0
M  V30 2116 O 207.915 1.17699 1.41042 0
M  V30 2117 C 207.977 3.37005 -1.2517 0
M  V30 2118 C 207.641 3.67748 -2.71313 0
M  V30 2119 C 208.638 3.65698 -3.69542 0
M  V30 2120 C 206.323 3.96928 -3.07821 0
M  V30 2121 C 208.317 3.92395 -5.023 0
M  V30 2122 C 206.004 4.23284 -4.40765 0
M  V30 2123 C 207.002 4.21005 -5.37814 0
M  V30 2124 O 206.69 4.46704 -6.68364 0
M  V30 2125 H 206.422 0.598786 -0.313737 0
M  V30 2126 H 208.976 1.42568 -1.47863 0
M  V30 2127 H 207.206 3.82146 -0.591741 0
M  V30 2128 H 208.895 3.93519 -0.994877 0
M  V30 2129 H 209.661 3.43211 -3.42682 0
M  V30 2130 H 205.54 3.97841 -2.32902 0
M  V30 2131 H 209.084 3.90531 -5.78041 0
M  V30 2132 H 204.981 4.45246 -4.67361 0
M  V30 2133 H 205.749 4.64299 -6.74069 0
M  V30 2134 N 208.412 0.89855 1.29475 0
M  V30 2135 C 209.828 0.594483 1.48115 0
M  V30 2136 C 210.028 -0.86431 1.82022 0
M  V30 2137 O 209.084 -1.64457 1.91599 0
M  V30 2138 C 210.397 1.51932 2.59494 0
M  V30 2139 C 211.945 1.5244 2.7337 0
M  V30 2140 C 212.42 2.43548 3.87877 0
M  V30 2141 N 213.911 2.41589 3.95208 0
M  V30 2142 C 214.646 3.08789 4.83153 0
M  V30 2143 N 214.142 3.85265 5.75798 0
M  V30 2144 N 215.935 2.97952 4.76635 0
M  V30 2145 H 208.086 1.84207 1.05742 0
M  V30 2146 H 210.349 0.789251 0.525154 0
M  V30 2147 H 210.055 2.55865 2.41301 0
M  V30 2148 H 209.929 1.23899 3.56271 0
M  V30 2149 H 212.316 0.492518 2.90961 0
M  V30 2150 H 212.397 1.8451 1.77172 0
M  V30 2151 H 212.041 3.46829 3.71041 0
M  V30 2152 H 211.971 2.08788 4.83441 0
M  V30 2153 H 214.462 1.86025 3.28943 0
M  V30 2154 H 214.775 4.33598 6.39697 0
M  V30 2155 H 213.12 3.89371 5.75687 0
M  V30 2156 H 216.311 2.37723 4.03244 0
M  V30 2157 H 216.484 3.50599 5.44962 0
M  V30 2158 O 209.929 -1.40275 0.80033 0
M  V30 2159 H 210.62 -1.90048 0.374337 0
M  V30 END ATOM
M  V30 BEGIN BOND
M  V30 END BOND
M  V30 END CTAB
M  END
$$$$
