drugbank_target|P13001 Pimeloyl-[acyl-carrier protein] methyl ester esterase (DB03688)
 OpenBabel12092119573D

  0  0  0     0  0            999 V3000
M  V30 BEGIN CTAB
M  V30 COUNTS 4034 4087 0 0 0
M  V30 BEGIN ATOM
M  V30 1 H -0.908 1.98254 -0.117106 0
M  V30 2 N 0 1.576 0 0
M  V30 3 C 0.933 2.03868 1.02534 0
M  V30 4 C 1.911 0.928543 1.3348 0
M  V30 5 O 3.095 1.19667 1.45644 0
M  V30 6 C 0.222 2.43627 2.35294 0
M  V30 7 C -0.732 3.65373 2.2001 0
M  V30 8 S 0.101 5.13292 1.52614 0
M  V30 9 C 1.257 5.56322 2.86805 0
M  V30 10 H 1.49 2.90518 0.631377 0
M  V30 11 H -0.977 1.52953 0.210867 0
M  V30 12 H 0.981 2.67203 3.11629 0
M  V30 13 H -0.358 1.57376 2.7183 0
M  V30 14 H -1.165 3.90944 3.18086 0
M  V30 15 H -1.563 3.418 1.51819 0
M  V30 16 H 0.729 5.58782 3.83104 0
M  V30 17 H 1.672 6.56266 2.65933 0
M  V30 18 H 2.08 4.83886 2.90714 0
M  V30 19 N 1.4781 -0.272755 1.55222 0
M  V30 20 C 2.4261 -1.35705 1.88909 0
M  V30 21 C 3.4201 -1.5112 0.765456 0
M  V30 22 O 4.6261 -1.52901 0.949802 0
M  V30 23 H 1.0011 -0.453868 0.59959 0
M  V30 24 H 2.9721 -1.04544 2.79487 0
M  V30 25 C 1.7211 -2.71049 2.17779 0
M  V30 26 H 1.0441 -2.59979 3.03728 0
M  V30 27 H 2.4841 -3.45858 2.45272 0
M  V30 28 C 0.9431 -3.22165 0.985473 0
M  V30 29 O 1.4731 -4.01096 0.220233 0
M  V30 30 N -0.3209 -2.7985 0.783108 0
M  V30 31 H -0.7739 -2.15775 1.40708 0
M  V30 32 H -0.8159 -3.14397 -0.0130392 0
M  V30 33 N 2.9562 -1.48159 -0.537278 0
M  V30 34 C 3.9042 -1.62573 -1.66352 0
M  V30 35 C 4.8982 -0.492366 -1.62087 0
M  V30 36 O 6.1042 -0.670847 -1.67032 0
M  V30 37 H 2.4792 -0.511992 -0.550789 0
M  V30 38 H 4.4502 -2.57176 -1.51337 0
M  V30 39 C 3.1992 -1.67583 -3.04649 0
M  V30 40 H 2.5222 -2.54151 -3.08622 0
M  V30 41 H 3.9622 -1.81713 -3.83088 0
M  V30 42 C 2.4212 -0.413039 -3.34358 0
M  V30 43 O 2.9512 0.477259 -3.98855 0
M  V30 44 N 1.1572 -0.286961 -2.8918 0
M  V30 45 H 0.7042 -1.01241 -2.36871 0
M  V30 46 H 0.6622 0.556963 -3.09427 0
M  V30 47 N 4.4343 0.785586 -1.36625 0
M  V30 48 C 5.6833 1.53883 -1.30396 0
M  V30 49 C 5.9963 1.95271 0.113452 0
M  V30 50 O 7.2023 2.69858 0.298142 0
M  V30 51 C 5.6583 2.77808 -2.28802 0
M  V30 52 C 5.2663 2.43574 -3.75999 0
M  V30 53 C 7.0103 3.55783 -2.31558 0
M  V30 54 C 4.9173 3.63919 -4.66173 0
M  V30 55 H 3.8473 0.577678 -0.484566 0
M  V30 56 H 6.4983 0.861705 -1.62009 0
M  V30 57 H 4.8803 3.47339 -1.90188 0
M  V30 58 H 6.0543 1.81916 -4.23371 0
M  V30 59 H 4.3693 1.78803 -3.76056 0
M  V30 60 H 6.9663 4.45205 -2.96137 0
M  V30 61 H 7.3093 3.94644 -1.3252 0
M  V30 62 H 7.8423 2.93235 -2.68809 0
M  V30 63 H 4.5813 3.3015 -5.66287 0
M  V30 64 H 4.1013 4.2473 -4.23515 0
M  V30 65 H 5.7803 4.30901 -4.82632 0
M  V30 66 N 5.9124 1.20967 1.01018 0
M  V30 67 C 7.1584 1.0353 1.7508 0
M  V30 68 C 7.5134 -0.42734 1.87594 0
M  V30 69 O 6.8064 -1.31298 1.3954 0
M  V30 70 C 7.0004 1.65997 3.16512 0
M  V30 71 C 6.8294 3.18184 3.17788 0
M  V30 72 C 5.5994 3.87198 3.24662 0
M  V30 73 C 7.7974 4.15334 3.03319 0
M  V30 74 N 5.7794 5.26618 3.15509 0
M  V30 75 C 7.1504 5.41472 3.02007 0
M  V30 76 C 9.2054 4.06449 2.87583 0
M  V30 77 C 7.9084 6.5975 2.86571 0
M  V30 78 C 9.9344 5.24357 2.73503 0
M  V30 79 C 9.2964 6.49404 2.72862 0
M  V30 80 H 5.3954 0.433137 0.651089 0
M  V30 81 H 7.9794 1.5324 1.20107 0
M  V30 82 H 6.1504 1.18863 3.69765 0
M  V30 83 H 7.8824 1.41816 3.79039 0
M  V30 84 H 4.6374 3.38093 3.31648 0
M  V30 85 H 5.0614 5.99626 3.14289 0
M  V30 86 H 9.7034 3.10573 2.86887 0
M  V30 87 H 7.4214 7.55792 2.86015 0
M  V30 88 H 11.0074 5.19299 2.62334 0
M  V30 89 H 9.8874 7.39105 2.62093 0
M  V30 90 N 7.3905 -1.2043 1.01659 0
M  V30 91 C 8.6365 -1.90356 0.716674 0
M  V30 92 C 8.9915 -1.77367 -0.745557 0
M  V30 93 O 8.2845 -1.1471 -1.53467 0
M  V30 94 C 8.4785 -3.40464 1.08714 0
M  V30 95 C 8.3075 -3.6806 2.58384 0
M  V30 96 C 7.0775 -3.86775 3.25167 0
M  V30 97 C 9.2755 -3.70623 3.56572 0
M  V30 98 N 7.2575 -4.01889 4.64067 0
M  V30 99 C 8.6285 -3.91161 4.81034 0
M  V30 100 C 10.6835 -3.53586 3.50544 0
M  V30 101 C 9.3865 -3.96428 6.00198 0
M  V30 102 C 11.4125 -3.60125 4.6911 0
M  V30 103 C 10.7745 -3.81135 5.92381 0
M  V30 104 H 6.8735 -0.716226 0.313918 0
M  V30 105 H 9.4575 -1.44815 1.30141 0
M  V30 106 H 7.6285 -3.84757 0.530745 0
M  V30 107 H 9.3605 -3.97863 0.740763 0
M  V30 108 H 6.1155 -3.85156 2.75594 0
M  V30 109 H 6.5395 -4.13323 5.36184 0
M  V30 110 H 11.1815 -3.36308 2.56235 0
M  V30 111 H 8.8995 -4.12502 6.94887 0
M  V30 112 H 12.4855 -3.4825 4.66062 0
M  V30 113 H 11.3655 -3.86054 6.82592 0
M  V30 114 N 8.8686 -0.792821 -1.36206 0
M  V30 115 C 9.8006 -0.151469 -2.28699 0
M  V30 116 C 10.8136 0.641262 -1.49638 0
M  V30 117 O 12.0026 0.475885 -1.72039 0
M  V30 118 C 9.1026 0.808424 -3.29117 0
M  V30 119 C 8.2756 0.0650202 -4.37352 0
M  V30 120 C 7.3346 0.941358 -5.17711 0
M  V30 121 O 6.3606 0.397352 -5.67811 0
M  V30 122 N 7.5626 2.2652 -5.3448 0
M  V30 123 H 10.3276 -0.945982 -2.84379 0
M  V30 124 H 7.8886 -0.647032 -1.48409 0
M  V30 125 H 9.8806 1.3986 -3.79765 0
M  V30 126 H 8.4506 1.5038 -2.74052 0
M  V30 127 H 7.6706 -0.706255 -3.87822 0
M  V30 128 H 8.9586 -0.447847 -5.06825 0
M  V30 129 H 8.3566 2.73128 -4.95396 0
M  V30 130 H 6.9136 2.80493 -5.88359 0
M  V30 131 N 10.3467 1.47872 -0.545128 0
M  V30 132 C 11.5747 2.06889 -0.021084 0
M  V30 133 C 11.9897 1.39955 1.2672 0
M  V30 134 O 11.3467 0.492036 1.75742 0
M  V30 135 C 11.3977 3.60996 0.190817 0
M  V30 136 O 11.1187 4.25419 -1.04644 0
M  V30 137 C 12.6197 4.36849 0.753521 0
M  V30 138 H 9.8397 0.669785 -0.0403635 0
M  V30 139 H 12.3837 1.90049 -0.755095 0
M  V30 140 H 10.5387 3.77391 0.87492 0
M  V30 141 H 10.9527 5.17785 -0.836611 0
M  V30 142 H 12.4267 5.45399 0.851139 0
M  V30 143 H 12.9037 4.02306 1.762 0
M  V30 144 H 13.5097 4.25169 0.105503 0
M  V30 145 N 11.8248 0.280983 1.55075 0
M  V30 146 C 12.7718 -0.603937 2.22758 0
M  V30 147 C 13.7418 -1.1452 1.20309 0
M  V30 148 O 14.9268 -1.19343 1.48869 0
M  V30 149 C 12.0668 -1.77947 2.95684 0
M  V30 150 C 11.1798 -1.2715 4.12864 0
M  V30 151 C 10.3148 -2.4093 4.7342 0
M  V30 152 C 9.3538 -1.87165 5.82783 0
M  V30 153 N 8.4908 -2.94441 6.37377 0
M  V30 154 H 13.3308 -0.020124 2.97993 0
M  V30 155 H 10.8678 0.00183425 1.471 0
M  V30 156 H 12.8258 -2.47055 3.36184 0
M  V30 157 H 11.4558 -2.33522 2.22861 0
M  V30 158 H 10.5078 -0.473331 3.77444 0
M  V30 159 H 11.8198 -0.837751 4.91715 0
M  V30 160 H 10.9738 -3.18021 5.1667 0
M  V30 161 H 9.7128 -2.87623 3.93859 0
M  V30 162 H 8.7178 -1.08556 5.38976 0
M  V30 163 H 9.9428 -1.41401 6.64216 0
M  V30 164 H 7.8888 -3.40505 5.60707 0
M  V30 165 H 7.8058 -2.55501 7.11516 0
M  V30 166 H 9.0738 -3.71489 6.85285 0
M  V30 167 N 13.3029 -1.57598 0.00835791 0
M  V30 168 C 14.5509 -1.90551 -0.6734 0
M  V30 169 C 14.8719 -0.883301 -1.73847 0
M  V30 170 O 14.1419 0.0781442 -1.95744 0
M  V30 171 H 12.7219 -0.703312 -0.251717 0
M  V30 172 H 15.3839 -1.94833 0.0512592 0
M  V30 173 H 14.4799 -2.9056 -1.13935 0
M  V30 174 N 14.781 0.264519 -1.55364 0
M  V30 175 C 15.713 1.34965 -1.85248 0
M  V30 176 C 16.726 1.45136 -0.737525 0
M  V30 177 O 17.915 1.46801 -1.01547 0
M  V30 178 C 15.015 2.73008 -2.00797 0
M  V30 179 C 14.188 2.85324 -3.31525 0
M  V30 180 C 13.247 4.04097 -3.37034 0
M  V30 181 O 12.273 3.94455 -4.10358 0
M  V30 182 N 13.475 5.16458 -2.65049 0
M  V30 183 H 16.24 1.09672 -2.78913 0
M  V30 184 H 13.801 0.454635 -1.55386 0
M  V30 185 H 15.793 3.50772 -2.01844 0
M  V30 186 H 14.363 2.91087 -1.1396 0
M  V30 187 H 13.583 1.94377 -3.42945 0
M  V30 188 H 14.871 2.9049 -4.17724 0
M  V30 189 H 14.269 5.27181 -2.05175 0
M  V30 190 H 12.826 5.92422 -2.71809 0
M  V30 191 N 16.2591 1.48442 0.529413 0
M  V30 192 C 17.5071 1.56179 1.28267 0
M  V30 193 C 17.8281 0.237721 1.93546 0
M  V30 194 O 17.0981 -0.740779 1.81354 0
M  V30 195 H 15.6781 0.575367 0.476405 0
M  V30 196 H 18.3401 1.84909 0.61602 0
M  V30 197 H 17.4361 2.34312 2.06165 0
M  V30 198 N 17.7372 -0.778329 1.37039 0
M  V30 199 C 18.6852 -1.91278 1.32345 0
M  V30 200 C 19.6792 -1.68051 0.213331 0
M  V30 201 O 20.8852 -1.75922 0.38098 0
M  V30 202 H 17.2602 -0.628909 0.412283 0
M  V30 203 H 19.2312 -1.92355 2.28127 0
M  V30 204 C 17.9802 -3.28455 1.14073 0
M  V30 205 H 17.3032 -3.46901 1.98746 0
M  V30 206 H 18.7432 -4.08152 1.14837 0
M  V30 207 C 17.2022 -3.36548 -0.154015 0
M  V30 208 O 17.7322 -3.85186 -1.13993 0
M  V30 209 N 15.9382 -2.89894 -0.202475 0
M  V30 210 H 15.4852 -2.50504 0.600476 0
M  V30 211 H 15.4432 -2.9569 -1.06841 0
M  V30 212 N 19.2153 -1.21501 -1.00376 0
M  V30 213 C 20.4613 -1.03452 -1.74429 0
M  V30 214 C 20.7943 0.430764 -1.89362 0
M  V30 215 O 20.0693 1.31962 -1.42886 0
M  V30 216 C 20.3523 -1.73375 -3.15615 0
M  V30 217 C 20.2053 -3.27431 -3.08397 0
M  V30 218 C 21.5243 -1.47732 -4.14564 0
M  V30 219 H 18.6433 -0.377226 -0.633143 0
M  V30 220 H 21.2853 -1.49693 -1.17013 0
M  V30 221 H 19.4353 -1.34064 -3.64636 0
M  V30 222 H 21.1073 -3.76119 -2.67081 0
M  V30 223 H 19.3503 -3.5767 -2.45468 0
M  V30 224 H 20.0213 -3.71524 -4.08258 0
M  V30 225 H 22.4973 -1.8186 -3.74254 0
M  V30 226 H 21.3733 -1.99169 -5.11491 0
M  V30 227 H 21.6343 -0.407589 -4.40217 0
M  V30 228 N 20.6934 1.19889 -1.02296 0
M  V30 229 C 21.6434 2.20777 -0.56934 0
M  V30 230 C 22.6274 1.56379 0.378741 0
M  V30 231 O 23.8194 1.75859 0.200673 0
M  V30 232 C 20.9484 3.43196 0.0845077 0
M  V30 233 C 20.0344 4.14749 -0.88566 0
M  V30 234 N 20.4254 4.62584 -2.04573 0
M  V30 235 C 18.7234 4.40347 -0.707835 0
M  V30 236 C 19.4244 5.17466 -2.65714 0
M  V30 237 N 18.4004 5.0791 -1.93723 0
M  V30 238 H 22.2024 2.55434 -1.45365 0
M  V30 239 H 19.7164 1.35897 -0.88915 0
M  V30 240 H 21.7134 4.14707 0.427067 0
M  V30 241 H 20.3734 3.10042 0.964574 0
M  V30 242 H 21.3844 4.57597 -2.4254 0
M  V30 243 H 18.0614 4.17317 0.12364 0
M  V30 244 H 19.4514 5.64808 -3.63925 0
M  V30 245 N 22.1715 0.800033 1.35784 0
M  V30 246 C 23.1015 0.220184 2.3246 0
M  V30 247 C 24.0825 -0.65073 1.57161 0
M  V30 248 O 25.2675 -0.582359 1.85263 0
M  V30 249 C 22.3975 -0.637353 3.41402 0
M  V30 250 C 21.3515 0.134531 4.27789 0
M  V30 251 C 20.6775 -0.844285 5.27992 0
M  V30 252 C 21.9775 1.32979 5.05088 0
M  V30 253 H 23.6715 1.02787 2.81203 0
M  V30 254 H 21.2175 0.495717 1.35199 0
M  V30 255 H 23.1705 -1.05302 4.08031 0
M  V30 256 H 21.8945 -1.47785 2.91251 0
M  V30 257 H 20.5535 0.531296 3.6273 0
M  V30 258 H 20.2015 -1.68011 4.74111 0
M  V30 259 H 19.9015 -0.332184 5.8666 0
M  V30 260 H 21.4255 -1.2583 5.97494 0
M  V30 261 H 22.8395 0.98934 5.64699 0
M  V30 262 H 21.2365 1.77593 5.7322 0
M  V30 263 H 22.3065 2.11978 4.36111 0
M  V30 264 N 23.6496 -1.47581 0.552962 0
M  V30 265 C 24.8956 -2.02782 0.0273648 0
M  V30 266 C 25.2286 -1.42687 -1.31734 0
M  V30 267 O 24.5036 -0.580897 -1.85623 0
M  V30 268 C 24.7866 -3.60031 -0.0702371 0
M  V30 269 C 24.6396 -4.30566 1.30126 0
M  V30 270 C 25.9586 -4.33028 -0.785771 0
M  V30 271 H 23.0776 -0.736912 0.0114185 0
M  V30 272 H 25.7196 -1.76056 0.714432 0
M  V30 273 H 23.8696 -3.82932 -0.655382 0
M  V30 274 H 25.5416 -4.19018 1.92929 0
M  V30 275 H 23.7846 -3.91086 1.87709 0
M  V30 276 H 24.4556 -5.39114 1.18573 0
M  V30 277 H 26.9316 -4.15095 -0.288982 0
M  V30 278 H 25.8076 -5.42695 -0.823013 0
M  V30 279 H 26.0686 -4.01945 -1.841 0
M  V30 280 N 25.1277 -0.289203 -1.54924 0
M  V30 281 C 26.0577 0.58549 -2.2604 0
M  V30 282 C 27.0387 1.14753 -1.25562 0
M  V30 283 O 28.2237 1.17906 -1.54311 0
M  V30 284 C 25.3537 1.76305 -2.99222 0
M  V30 285 C 24.3077 1.33191 -4.06748 0
M  V30 286 C 23.6337 2.5937 -4.6758 0
M  V30 287 C 24.9337 0.471775 -5.20165 0
M  V30 288 H 26.6277 -0.00763532 -2.99399 0
M  V30 289 H 24.1737 -0.00511229 -1.43999 0
M  V30 290 H 26.1267 2.38097 -3.47689 0
M  V30 291 H 24.8507 2.38223 -2.23422 0
M  V30 292 H 23.5097 0.737121 -3.59113 0
M  V30 293 H 23.1577 3.19576 -3.88433 0
M  V30 294 H 22.8577 2.31228 -5.40192 0
M  V30 295 H 24.3817 3.21985 -5.18804 0
M  V30 296 H 25.7957 0.995056 -5.64599 0
M  V30 297 H 24.1927 0.284639 -5.99425 0
M  V30 298 H 25.2627 -0.506041 -4.82252 0
M  V30 299 N 26.6058 1.57591 -0.0167156 0
M  V30 300 C 27.5358 2.12496 0.967858 0
M  V30 301 C 28.5168 1.03807 1.34752 0
M  V30 302 O 29.7018 1.31577 1.42833 0
M  V30 303 C 26.8318 2.64194 2.25431 0
M  V30 304 C 25.7858 3.77559 2.01576 0
M  V30 305 C 25.1118 4.15636 3.36379 0
M  V30 306 C 26.4118 5.04151 1.36489 0
M  V30 307 H 28.1058 2.95013 0.510643 0
M  V30 308 H 25.6518 1.41915 0.244181 0
M  V30 309 H 27.6048 3.01236 2.94678 0
M  V30 310 H 26.3288 1.78821 2.73296 0
M  V30 311 H 24.9878 3.40937 1.34751 0
M  V30 312 H 24.6358 3.27263 3.81979 0
M  V30 313 H 24.3358 4.92022 3.21229 0
M  V30 314 H 25.8598 4.5525 4.06915 0
M  V30 315 H 27.2738 5.38857 1.95718 0
M  V30 316 H 25.6708 5.85453 1.31776 0
M  V30 317 H 26.7408 4.83733 0.336219 0
M  V30 318 N 28.0839 -0.256276 1.55502 0
M  V30 319 C 29.0339 -1.31981 1.85916 0
M  V30 320 C 30.0179 -1.43927 0.719296 0
M  V30 321 O 31.2099 -1.47326 0.981019 0
M  V30 322 C 28.3389 -2.67703 2.14918 0
M  V30 323 C 27.4249 -2.59801 3.35208 0
M  V30 324 N 27.8159 -2.21524 4.54709 0
M  V30 325 C 26.1139 -2.90832 3.38131 0
M  V30 326 C 26.8149 -2.24024 5.36832 0
M  V30 327 N 25.7909 -2.63158 4.75656 0
M  V30 328 H 29.5929 -1.01423 2.75845 0
M  V30 329 H 27.1069 -0.464911 1.55603 0
M  V30 330 H 29.1039 -3.44445 2.34869 0
M  V30 331 H 27.7639 -2.99137 1.26282 0
M  V30 332 H 28.7749 -1.93223 4.80505 0
M  V30 333 H 25.4519 -3.26867 2.59739 0
M  V30 334 H 26.8419 -1.9685 6.42417 0
M  V30 335 N 29.562 -1.4872 -0.521534 0
M  V30 336 C 30.81 -1.56857 -1.27437 0
M  V30 337 C 31.131 -0.247982 -1.93417 0
M  V30 338 O 30.401 0.731151 -1.81744 0
M  V30 339 H 28.981 -0.577885 -0.473347 0
M  V30 340 H 31.643 -1.85233 -0.606205 0
M  V30 341 H 30.739 -2.35402 -2.0492 0
M  V30 342 N 31.0401 0.771051 -1.3745 0
M  V30 343 C 32.2861 1.53109 -1.339 0
M  V30 344 C 32.6411 1.9225 0.0758401 0
M  V30 345 O 31.9341 1.61264 1.03463 0
M  V30 346 C 32.1281 2.80676 -2.2126 0
M  V30 347 C 31.9571 2.54003 -3.71096 0
M  V30 348 C 30.7271 2.48097 -4.402 0
M  V30 349 C 32.9251 2.21953 -4.63941 0
M  V30 350 N 30.9071 2.13515 -5.75573 0
M  V30 351 C 32.2781 1.97516 -5.87697 0
M  V30 352 C 34.3331 2.08114 -4.5232 0
M  V30 353 C 33.0361 1.60638 -7.01133 0
M  V30 354 C 35.0621 1.72636 -5.65642 0
M  V30 355 C 34.4241 1.4906 -6.88448 0
M  V30 356 H 30.5231 0.56055 -0.54526 0
M  V30 357 H 33.1071 0.899472 -1.72678 0
M  V30 358 H 31.2781 3.41674 -1.84698 0
M  V30 359 H 33.0101 3.46578 -2.08963 0
M  V30 360 H 29.7651 2.63974 -3.93211 0
M  V30 361 H 30.1891 1.98919 -6.47117 0
M  V30 362 H 34.8311 2.25024 -3.57944 0
M  V30 363 H 32.5491 1.42467 -7.95443 0
M  V30 364 H 36.1351 1.62586 -5.58621 0
M  V30 365 H 35.0151 1.22014 -7.7465 0
M  V30 366 N 32.5182 1.22032 0.997298 0
M  V30 367 C 33.7662 1.04016 1.73278 0
M  V30 368 C 34.0872 -0.426255 1.90284 0
M  V30 369 O 33.3572 -1.30694 1.45931 0
M  V30 370 H 31.9372 0.381897 0.642 0
M  V30 371 H 34.5992 1.5347 1.20137 0
M  V30 372 H 33.6952 1.51441 2.72896 0
M  V30 373 N 33.9963 -1.19345 1.0293 0
M  V30 374 C 34.9263 -2.2481 0.631105 0
M  V30 375 C 35.9073 -1.66245 -0.360104 0
M  V30 376 O 37.0923 -1.92677 -0.242726 0
M  V30 377 C 34.2223 -3.47295 -0.0184607 0
M  V30 378 C 33.1763 -4.18536 0.895073 0
M  V30 379 C 32.5023 -5.34586 0.110592 0
M  V30 380 C 33.8023 -4.73287 2.209 0
M  V30 381 H 35.4963 -2.58372 1.51275 0
M  V30 382 H 33.0423 -1.24194 0.728818 0
M  V30 383 H 34.9953 -4.20268 -0.308675 0
M  V30 384 H 33.7193 -3.12933 -0.934907 0
M  V30 385 H 32.3783 -3.47446 1.16949 0
M  V30 386 H 32.0263 -4.96469 -0.807902 0
M  V30 387 H 31.7263 -5.83183 0.719087 0
M  V30 388 H 33.2503 -6.10355 -0.172871 0
M  V30 389 H 34.6643 -5.38013 1.98028 0
M  V30 390 H 33.0613 -5.32373 2.76946 0
M  V30 391 H 34.1313 -3.91331 2.86336 0
M  V30 392 N 35.4744 -0.807222 -1.35358 0
M  V30 393 C 36.4224 -0.20614 -2.31685 0
M  V30 394 C 37.4164 0.644445 -1.56663 0
M  V30 395 O 38.6224 0.537538 -1.71786 0
M  V30 396 H 34.9974 -0.0479006 -0.750473 0
M  V30 397 H 36.9684 -1.03369 -2.79924 0
M  V30 398 C 35.7174 0.630212 -3.41941 0
M  V30 399 H 35.0404 -0.0149558 -3.99797 0
M  V30 400 H 36.4804 1.01716 -4.11619 0
M  V30 401 C 34.9394 1.79601 -2.85035 0
M  V30 402 O 35.4694 2.89351 -2.78637 0
M  V30 403 N 33.6754 1.60774 -2.42074 0
M  V30 404 H 33.2224 0.715009 -2.47478 0
M  V30 405 H 33.1804 2.38933 -2.04349 0
M  V30 406 N 36.9525 1.47285 -0.560781 0
M  V30 407 C 37.9155 2.28535 0.174488 0
M  V30 408 C 38.9155 1.37153 0.839388 0
M  V30 409 O 40.1055 1.59748 0.694702 0
M  V30 410 C 37.2375 3.16934 1.25561 0
M  V30 411 H 38.4305 2.95012 -0.539262 0
M  V30 412 H 35.9835 1.53034 -0.317865 0
M  V30 413 H 36.7185 2.55157 2.00164 0
M  V30 414 H 36.5035 3.8419 0.783604 0
M  V30 415 H 37.9935 3.78143 1.77193 0
M  V30 416 N 38.4306 0.297415 1.54768 0
M  V30 417 C 39.3406 -0.58983 2.27064 0
M  V30 418 C 40.3566 -1.15144 1.30453 0
M  V30 419 O 41.5326 -1.17699 1.63428 0
M  V30 420 C 38.5976 -1.74714 2.9946 0
M  V30 421 C 37.6586 -1.21997 4.11601 0
M  V30 422 C 36.8916 -2.32212 4.80535 0
M  V30 423 O 37.1146 -3.52036 4.48806 0
M  V30 424 O 36.0486 -1.99106 5.68014 0
M  V30 425 H 39.8746 -0.00348199 3.037 0
M  V30 426 H 37.4596 0.0640035 1.49263 0
M  V30 427 H 39.3416 -2.42147 3.44881 0
M  V30 428 H 38.0166 -2.32016 2.25722 0
M  V30 429 H 36.9236 -0.511458 3.70587 0
M  V30 430 H 38.2566 -0.692419 4.87305 0
M  V30 431 N 39.9087 -1.5758 0.0250728 0
M  V30 432 C 41.1547 -1.91917 -0.655413 0
M  V30 433 C 41.4877 -0.901433 -1.72011 0
M  V30 434 O 40.7627 0.0764069 -1.9435 0
M  V30 435 C 41.0457 -3.36751 -1.27558 0
M  V30 436 C 40.8987 -4.49258 -0.220719 0
M  V30 437 C 42.2177 -3.81469 -2.19475 0
M  V30 438 H 39.3367 -0.697925 -0.23679 0
M  V30 439 H 41.9787 -1.89825 0.0815036 0
M  V30 440 H 40.1287 -3.38664 -1.90365 0
M  V30 441 H 41.8007 -4.59478 0.409601 0
M  V30 442 H 40.0437 -4.31415 0.454264 0
M  V30 443 H 40.7147 -5.47618 -0.694175 0
M  V30 444 H 43.1907 -3.81266 -1.66659 0
M  V30 445 H 42.0667 -4.83512 -2.59822 0
M  V30 446 H 42.3277 -3.16744 -3.08424 0
M  V30 447 N 41.3868 0.248026 -1.55636 0
M  V30 448 C 42.6328 0.973427 -1.78594 0
M  V30 449 C 42.9878 1.83007 -0.593823 0
M  V30 450 O 42.2808 1.87097 0.412961 0
M  V30 451 C 42.4748 1.86819 -3.04686 0
M  V30 452 C 42.3038 1.09965 -4.36048 0
M  V30 453 C 41.0738 0.805204 -4.98843 0
M  V30 454 C 43.2718 0.477783 -5.12076 0
M  V30 455 N 41.2538 0.0124859 -6.13899 0
M  V30 456 C 42.6248 -0.179565 -6.1974 0
M  V30 457 C 44.6798 0.388136 -4.96385 0
M  V30 458 C 43.3828 -0.91795 -7.13419 0
M  V30 459 C 45.4088 -0.336716 -5.90441 0
M  V30 460 C 44.7708 -0.982705 -6.97511 0
M  V30 461 H 40.8698 0.337348 -0.705493 0
M  V30 462 H 43.4538 0.24667 -1.93131 0
M  V30 463 H 41.6248 2.56698 -2.9148 0
M  V30 464 H 43.3568 2.52907 -3.15944 0
M  V30 465 H 40.1118 1.11671 -4.60246 0
M  V30 466 H 40.5358 -0.371933 -6.75978 0
M  V30 467 H 45.1778 0.873237 -4.13684 0
M  V30 468 H 42.8958 -1.41466 -7.95621 0
M  V30 469 H 46.4818 -0.406731 -5.80377 0
M  V30 470 H 45.3618 -1.53464 -7.69037 0
M  V30 471 N 42.8649 1.48995 0.513639 0
M  V30 472 C 44.2809 1.35478 0.843682 0
M  V30 473 C 44.4809 0.378213 1.97919 0
M  V30 474 O 43.5369 -0.194689 2.51748 0
M  V30 475 C 44.8499 2.75901 1.1958 0
M  V30 476 C 46.3979 2.84509 1.30474 0
M  V30 477 C 46.8729 4.25671 1.69021 0
M  V30 478 N 48.3639 4.28422 1.76094 0
M  V30 479 C 49.0989 5.34601 2.07338 0
M  V30 480 N 48.5949 6.5104 2.36894 0
M  V30 481 N 50.3879 5.22007 2.08483 0
M  V30 482 H 42.5389 2.11092 -0.235328 0
M  V30 483 H 44.8019 0.947039 -0.0426669 0
M  V30 484 H 44.5079 3.49001 0.434913 0
M  V30 485 H 44.3819 3.10467 2.1422 0
M  V30 486 H 46.7689 2.11655 2.05637 0
M  V30 487 H 46.8499 2.53542 0.339155 0
M  V30 488 H 46.4939 4.99048 0.944135 0
M  V30 489 H 46.4239 4.54094 2.66658 0
M  V30 490 H 48.9149 3.44441 1.55464 0
M  V30 491 H 49.2279 7.2779 2.59887 0
M  V30 492 H 47.5729 6.54287 2.34378 0
M  V30 493 H 50.7639 4.30051 1.84861 0
M  V30 494 H 50.9369 6.04854 2.325 0
M  V30 495 N 44.343 -0.763751 1.37857 0
M  V30 496 C 45.583 -1.53551 1.34913 0
M  V30 497 C 45.947 -1.91895 -0.0635882 0
M  V30 498 O 47.148 -2.67916 -0.217825 0
M  V30 499 C 45.419 -2.76126 2.26912 0
M  V30 500 S 46.978 -3.66105 2.41893 0
M  V30 501 H 43.796 -0.52559 0.478828 0
M  V30 502 H 46.398 -0.897435 1.73685 0
M  V30 503 H 45.102 -2.4605 3.28463 0
M  V30 504 H 44.633 -3.44887 1.89253 0
M  V30 505 H 46.648 -4.68473 1.63545 0
M  V30 506 N 45.8211 -1.22559 -0.990812 0
M  V30 507 C 47.0701 -1.04553 -1.72486 0
M  V30 508 C 47.3831 0.419349 -1.91052 0
M  V30 509 O 48.5891 0.719121 -2.61803 0
M  V30 510 C 47.0451 -1.82231 -3.10355 0
M  V30 511 C 46.6531 -3.32981 -2.99713 0
M  V30 512 C 48.3971 -1.7268 -3.87791 0
M  V30 513 C 46.3041 -4.03091 -4.32748 0
M  V30 514 H 45.2341 -0.387614 -0.646739 0
M  V30 515 H 47.8851 -1.46429 -1.10593 0
M  V30 516 H 46.2671 -1.33155 -3.72942 0
M  V30 517 H 47.4411 -3.89466 -2.46278 0
M  V30 518 H 45.7561 -3.43231 -2.35758 0
M  V30 519 H 48.3531 -2.22381 -4.86262 0
M  V30 520 H 48.6961 -0.687607 -4.10582 0
M  V30 521 H 49.2291 -2.1931 -3.31885 0
M  V30 522 H 45.9681 -5.07273 -4.15156 0
M  V30 523 H 45.4881 -3.51394 -4.86089 0
M  V30 524 H 47.1671 -4.08804 -5.01486 0
M  V30 525 N 47.2992 1.18797 -1.03562 0
M  V30 526 C 48.5762 1.84469 -0.650434 0
M  V30 527 C 48.9562 1.92319 0.870433 0
M  V30 528 O 48.3042 1.44528 1.76986 0
M  V30 529 C 48.5142 3.2306 -1.32036 0
M  V30 530 C 49.8622 3.9915 -1.44792 0
M  V30 531 O 50.8862 3.32481 -1.27806 0
M  V30 532 O 49.7452 5.18587 -1.72423 0
M  V30 533 H 46.8392 0.795251 -0.226946 0
M  V30 534 H 49.3852 1.26231 -1.13419 0
M  V30 535 H 48.1572 3.1222 -2.3587 0
M  V30 536 H 47.7802 3.88949 -0.8249 0
M  V30 537 N 48.7773 0.814389 1.34928 0
M  V30 538 C 49.6873 0.231978 2.3345 0
M  V30 539 C 50.7033 -0.629139 1.62228 0
M  V30 540 O 51.8793 -0.539052 1.94052 0
M  V30 541 C 48.9443 -0.603482 3.41407 0
M  V30 542 C 48.0053 0.279037 4.28392 0
M  V30 543 C 47.2383 -0.516643 5.31193 0
M  V30 544 O 47.4613 -1.75068 5.4287 0
M  V30 545 O 46.3953 0.0965652 6.01823 0
M  V30 546 H 50.2213 1.04721 2.85074 0
M  V30 547 H 47.8063 0.576343 1.37836 0
M  V30 548 H 49.6883 -1.07908 4.0735 0
M  V30 549 H 48.3633 -1.39618 2.92042 0
M  V30 550 H 47.2703 0.801948 3.65403 0
M  V30 551 H 48.6033 1.03588 4.81176 0
M  V30 552 N 50.2554 -1.46986 0.568584 0
M  V30 553 C 51.1654 -2.33942 -0.17555 0
M  V30 554 C 52.1814 -1.48891 -0.90041 0
M  V30 555 O 53.3574 -1.81794 -0.86676 0
M  V30 556 C 50.4224 -3.25811 -1.18524 0
M  V30 557 C 49.4834 -4.26757 -0.466582 0
M  V30 558 C 48.7164 -5.14236 -1.42817 0
M  V30 559 O 48.9394 -5.04379 -2.66379 0
M  V30 560 O 47.8734 -5.94412 -0.946453 0
M  V30 561 H 51.6994 -2.98896 0.538036 0
M  V30 562 H 49.2844 -1.4573 0.329097 0
M  V30 563 H 51.1664 -3.82527 -1.76779 0
M  V30 564 H 49.8414 -2.63471 -1.88055 0
M  V30 565 H 48.7484 -3.73769 0.157451 0
M  V30 566 H 50.0814 -4.91843 0.187485 0
M  V30 567 N 51.7335 -0.305618 -1.54608 0
M  V30 568 C 52.6635 0.561482 -2.26649 0
M  V30 569 C 53.6445 1.13415 -1.26772 0
M  V30 570 O 54.8295 1.16262 -1.55553 0
M  V30 571 C 51.9595 1.73122 -3.01075 0
M  V30 572 C 50.9135 1.2887 -4.08138 0
M  V30 573 C 50.2395 2.54396 -4.70305 0
M  V30 574 C 51.5395 0.416578 -5.20636 0
M  V30 575 H 53.2335 -0.0393902 -2.99374 0
M  V30 576 H 50.7795 -0.020385 -1.43986 0
M  V30 577 H 52.7325 2.34396 -3.50195 0
M  V30 578 H 51.4565 2.3584 -2.25936 0
M  V30 579 H 50.1155 0.698991 -3.59875 0
M  V30 580 H 49.7635 3.15439 -3.918 0
M  V30 581 H 49.4635 2.25486 -5.42614 0
M  V30 582 H 50.9875 3.16464 -5.2219 0
M  V30 583 H 52.4015 0.935116 -5.65622 0
M  V30 584 H 50.7985 0.221046 -5.99693 0
M  V30 585 H 51.8685 -0.557162 -4.81688 0
M  V30 586 N 53.2116 1.57565 -0.0334293 0
M  V30 587 C 54.4366 1.96689 0.657895 0
M  V30 588 C 54.8616 0.910057 1.64619 0
M  V30 589 O 54.2196 -0.128598 1.80843 0
M  V30 590 C 54.2676 3.34905 1.33683 0
M  V30 591 O 53.3716 3.31574 2.45219 0
M  V30 592 H 52.7126 0.641205 0.172489 0
M  V30 593 H 55.2426 2.04372 -0.0965621 0
M  V30 594 H 55.2526 3.71234 1.69262 0
M  V30 595 H 53.9276 4.11366 0.612411 0
M  V30 596 H 52.5046 3.06968 2.11719 0
M  V30 597 N 54.6897 -0.239769 1.55765 0
M  V30 598 C 55.9147 -0.988373 1.82335 0
M  V30 599 C 56.3397 -1.77886 0.611421 0
M  V30 600 O 55.6977 -1.75889 -0.439639 0
M  V30 601 C 55.7457 -1.89627 3.06715 0
M  V30 602 O 54.8497 -2.98904 2.84131 0
M  V30 603 H 54.1907 -0.280858 0.601677 0
M  V30 604 H 56.7207 -0.258597 2.02959 0
M  V30 605 H 56.7307 -2.30957 3.36338 0
M  V30 606 H 55.4057 -1.31511 3.9456 0
M  V30 607 H 53.9827 -2.61651 2.65694 0
M  V30 608 N 56.1678 -1.49265 -0.50573 0
M  V30 609 C 57.1178 -1.6198 -1.60457 0
M  V30 610 C 58.1018 -0.47568 -1.53708 0
M  V30 611 O 59.2938 -0.728392 -1.61318 0
M  V30 612 C 56.4228 -1.68526 -2.99089 0
M  V30 613 C 55.5088 -2.885 -3.10852 0
M  V30 614 N 55.8998 -4.12635 -2.92517 0
M  V30 615 C 54.1978 -2.86338 -3.41945 0
M  V30 616 C 54.8988 -4.93258 -3.08337 0
M  V30 617 N 53.8748 -4.26533 -3.37003 0
M  V30 618 H 57.6768 -2.55681 -1.44928 0
M  V30 619 H 55.1908 -1.45972 -0.711752 0
M  V30 620 H 57.1878 -1.75732 -3.78053 0
M  V30 621 H 55.8478 -0.759584 -3.1569 0
M  V30 622 H 56.8588 -4.42689 -2.68787 0
M  V30 623 H 53.5358 -2.03129 -3.64753 0
M  V30 624 H 54.9258 -6.01856 -2.98695 0
M  V30 625 N 57.6459 0.756429 -1.3826 0
M  V30 626 C 58.8929 1.51547 -1.34312 0
M  V30 627 C 59.2209 1.94382 0.0677144 0
M  V30 628 O 58.4759 1.65514 1.04421 0
M  V30 629 C 58.7749 2.78313 -2.24224 0
M  V30 630 C 58.4409 2.54455 -3.72241 0
M  V30 631 C 57.1029 2.47657 -4.12576 0
M  V30 632 C 59.4549 2.3354 -4.65949 0
M  V30 633 C 56.7829 2.17956 -5.44713 0
M  V30 634 C 59.1349 2.05359 -5.9834 0
M  V30 635 C 57.7989 1.97016 -6.37762 0
M  V30 636 H 57.0689 0.55455 -0.491482 0
M  V30 637 H 59.7159 0.870039 -1.70595 0
M  V30 638 H 58.0209 3.47492 -1.80987 0
M  V30 639 H 59.7179 3.36259 -2.18474 0
M  V30 640 H 56.3079 2.60616 -3.40261 0
M  V30 641 H 60.4919 2.37772 -4.35635 0
M  V30 642 H 55.7479 2.10003 -5.74203 0
M  V30 643 H 59.9219 1.88179 -6.70494 0
M  V30 644 H 57.5489 1.73766 -7.40074 0
M  V30 645 N 59.124 1.23083 0.984299 0
M  V30 646 C 60.352 1.08714 1.76037 0
M  V30 647 C 60.767 -0.361691 1.85303 0
M  V30 648 O 60.124 -1.25034 1.32939 0
M  V30 649 C 60.175 1.70206 3.18923 0
M  V30 650 O 59.896 3.09423 3.10144 0
M  V30 651 C 61.397 1.61227 4.12941 0
M  V30 652 H 58.617 0.380664 0.552572 0
M  V30 653 H 61.161 1.62853 1.23689 0
M  V30 654 H 59.316 1.20109 3.6831 0
M  V30 655 H 59.73 3.39188 4.00065 0
M  V30 656 H 61.204 2.08962 5.10919 0
M  V30 657 H 61.681 0.570375 4.35481 0
M  V30 658 H 62.287 2.10671 3.69456 0
M  V30 659 N 60.6021 -1.18246 1.0419 0
M  V30 660 C 61.5321 -2.24127 0.654914 0
M  V30 661 C 62.5131 -1.66617 -0.342451 0
M  V30 662 O 63.6981 -1.92924 -0.222277 0
M  V30 663 C 60.8281 -3.47295 0.0183757 0
M  V30 664 C 59.7821 -4.17563 0.939414 0
M  V30 665 C 59.1081 -5.34438 0.167286 0
M  V30 666 C 60.4081 -4.70917 2.25908 0
M  V30 667 H 62.1021 -2.56753 1.54007 0
M  V30 668 H 59.6481 -1.23414 0.74195 0
M  V30 669 H 61.6011 -4.20572 -0.264082 0
M  V30 670 H 60.3251 -3.13907 -0.901664 0
M  V30 671 H 58.9841 -3.46186 1.20628 0
M  V30 672 H 58.6321 -4.97298 -0.7552 0
M  V30 673 H 58.3321 -5.82388 0.780901 0
M  V30 674 H 59.8561 -6.10504 -0.108125 0
M  V30 675 H 61.2701 -5.35882 2.03724 0
M  V30 676 H 59.6671 -5.29406 2.82577 0
M  V30 677 H 60.7371 -3.88272 2.9047 0
M  V30 678 N 62.0802 -0.821533 -1.34494 0
M  V30 679 C 63.0302 -0.214793 -2.26986 0
M  V30 680 C 64.0142 0.620125 -1.4847 0
M  V30 681 O 65.2062 0.474933 -1.70509 0
M  V30 682 C 62.3352 0.623566 -3.37589 0
M  V30 683 C 61.4212 -0.221904 -4.23519 0
M  V30 684 N 61.8122 -1.29223 -4.89014 0
M  V30 685 C 60.1102 -0.00600922 -4.46 0
M  V30 686 C 60.8112 -1.80965 -5.52835 0
M  V30 687 N 59.7872 -1.11376 -5.32068 0
M  V30 688 H 63.5892 -1.03354 -2.75128 0
M  V30 689 H 61.1032 -0.6642 -1.48196 0
M  V30 690 H 63.1002 1.0744 -4.02818 0
M  V30 691 H 61.7602 1.44049 -2.90998 0
M  V30 692 H 62.7712 -1.67502 -4.90065 0
M  V30 693 H 59.4482 0.77886 -4.10171 0
M  V30 694 H 60.8382 -2.70502 -6.15043 0
M  V30 695 N 63.5583 1.46682 -0.576371 0
M  V30 696 C 64.4883 2.33028 0.148397 0
M  V30 697 C 65.4693 1.44961 0.889956 0
M  V30 698 O 66.6543 1.73789 0.866662 0
M  V30 699 C 63.7843 3.27117 1.1667 0
M  V30 700 C 62.7383 4.24575 0.540386 0
M  V30 701 C 62.0643 5.08126 1.6647 0
M  V30 702 C 63.3643 5.19722 -0.518331 0
M  V30 703 H 65.0583 2.93875 -0.572509 0
M  V30 704 H 62.6043 1.41315 -0.276768 0
M  V30 705 H 64.5573 3.86374 1.68204 0
M  V30 706 H 63.2813 2.64364 1.9178 0
M  V30 707 H 61.9403 3.66571 0.0461769 0
M  V30 708 H 61.5883 4.41762 2.40531 0
M  V30 709 H 61.2883 5.74122 1.25131 0
M  V30 710 H 62.8123 5.70246 2.18293 0
M  V30 711 H 64.2263 5.73232 -0.0883058 0
M  V30 712 H 62.6233 5.94026 -0.851679 0
M  V30 713 H 63.6933 4.64037 -1.40703 0
M  V30 714 N 65.0364 0.313813 1.54444 0
M  V30 715 C 66.2824 -0.292108 2.00685 0
M  V30 716 C 66.6154 -1.52548 1.20177 0
M  V30 717 O 65.8904 -1.92452 0.281531 0
M  V30 718 C 66.1734 -0.635968 3.5444 0
M  V30 719 C 66.0264 0.607437 4.4568 0
M  V30 720 C 67.3454 -1.45747 4.15266 0
M  V30 721 H 64.4644 -0.104697 0.729526 0
M  V30 722 H 67.1064 0.428457 1.85106 0
M  V30 723 H 65.2564 -1.24986 3.67846 0
M  V30 724 H 66.9284 1.24581 4.44159 0
M  V30 725 H 65.1714 1.23822 4.15753 0
M  V30 726 H 65.8424 0.322515 5.51057 0
M  V30 727 H 68.3184 -0.938645 4.05375 0
M  V30 728 H 67.1944 -1.66683 5.2298 0
M  V30 729 H 67.4554 -2.45063 3.67963 0
M  V30 730 N 66.5145 -1.57545 0.0417849 0
M  V30 731 C 67.7915 -1.83642 -0.673433 0
M  V30 732 C 68.1715 -0.928298 -1.89594 0
M  V30 733 O 67.5195 0.0129955 -2.28496 0
M  V30 734 C 67.7295 -3.33155 -1.03964 0
M  V30 735 C 69.0775 -3.99941 -1.42592 0
M  V30 736 O 70.1015 -3.37725 -1.13226 0
M  V30 737 O 68.9605 -5.09619 -1.9736 0
M  V30 738 H 66.0545 -0.757638 -0.331533 0
M  V30 739 H 68.6005 -1.69554 0.070433 0
M  V30 740 H 67.3725 -3.9093 -0.170098 0
M  V30 741 H 66.9955 -3.52396 -1.84126 0
M  V30 742 N 67.9926 0.231505 -1.5589 0
M  V30 743 C 68.9226 1.29022 -1.94617 0
M  V30 744 C 69.9036 1.4941 -0.813067 0
M  V30 745 O 71.0886 1.6176 -1.07459 0
M  V30 746 C 68.2186 2.64199 -2.25424 0
M  V30 747 C 67.1726 2.58484 -3.41131 0
M  V30 748 C 66.4986 3.97599 -3.57518 0
M  V30 749 C 67.7986 2.1413 -4.76388 0
M  V30 750 H 69.4926 0.968563 -2.83301 0
M  V30 751 H 67.0386 0.464479 -1.36303 0
M  V30 752 H 68.9916 3.38413 -2.51107 0
M  V30 753 H 67.7156 2.98032 -1.33583 0
M  V30 754 H 66.3746 1.86727 -3.15481 0
M  V30 755 H 66.0226 4.28723 -2.6307 0
M  V30 756 H 65.7226 3.94659 -4.35337 0
M  V30 757 H 67.2466 4.7349 -3.85538 0
M  V30 758 H 68.6606 2.78083 -5.01341 0
M  V30 759 H 67.0576 2.2227 -5.57419 0
M  V30 760 H 68.1276 1.09331 -4.72414 0
M  V30 761 N 69.4707 1.49531 0.497807 0
M  V30 762 C 70.8817 1.52344 1.07927 0
M  V30 763 C 71.2327 0.311469 1.93712 0
M  V30 764 O 70.3577 -0.578405 2.08527 0
M  V30 765 C 70.9527 2.76062 1.96405 0
M  V30 766 C 69.5117 2.81643 2.49709 0
M  V30 767 C 68.6587 2.46299 1.27404 0
M  V30 768 H 71.6097 1.56182 0.281576 0
M  V30 769 H 71.6307 2.56405 2.81135 0
M  V30 770 H 71.1427 3.64254 1.33943 0
M  V30 771 H 69.2437 1.97739 3.15801 0
M  V30 772 H 69.3567 3.83891 2.86643 0
M  V30 773 H 67.7207 1.98148 1.60029 0
M  V30 774 H 68.5037 3.36769 0.66645 0
M  V30 775 N 70.9488 -0.749086 1.3866 0
M  V30 776 C 72.1968 -1.50535 1.34847 0
M  V30 777 C 72.5178 -1.94909 -0.0595016 0
M  V30 778 O 71.7878 -1.67973 -1.00806 0
M  V30 779 H 70.3678 -0.558395 0.49619 0
M  V30 780 H 73.0298 -0.890165 1.73384 0
M  V30 781 H 72.1258 -2.39413 2.00219 0
M  V30 782 N 72.4269 -1.23603 -0.977757 0
M  V30 783 C 73.6739 -1.06971 -1.71941 0
M  V30 784 C 74.0019 0.393009 -1.90488 0
M  V30 785 O 73.2569 1.30719 -1.4564 0
M  V30 786 C 73.5559 -1.7433 -3.11999 0
M  V30 787 C 73.2219 -3.24252 -3.13323 0
M  V30 788 C 71.8839 -3.65156 -3.13392 0
M  V30 789 C 74.2359 -4.20141 -3.08433 0
M  V30 790 C 71.5639 -5.00403 -3.0629 0
M  V30 791 C 73.9159 -5.55384 -3.02873 0
M  V30 792 C 72.5799 -5.95647 -3.01265 0
M  V30 793 H 71.8499 -0.391433 -0.629175 0
M  V30 794 H 74.4969 -1.53572 -1.14403 0
M  V30 795 H 72.8019 -1.20096 -3.7294 0
M  V30 796 H 74.4989 -1.58936 -3.68158 0
M  V30 797 H 71.0889 -2.91692 -3.14029 0
M  V30 798 H 75.2729 -3.89547 -3.07517 0
M  V30 799 H 70.5289 -5.3081 -3.03399 0
M  V30 800 H 74.7029 -6.29398 -2.98046 0
M  V30 801 H 72.3299 -7.0041 -2.95516 0
M  V30 802 N 73.905 1.17692 -1.04816 0
M  V30 803 C 75.153 1.87488 -0.754497 0
M  V30 804 C 75.474 1.81205 0.720407 0
M  V30 805 O 74.744 1.23544 1.52032 0
M  V30 806 H 73.324 0.694101 -0.276102 0
M  V30 807 H 75.986 1.42793 -1.32651 0
M  V30 808 H 75.082 2.93328 -1.06606 0
M  V30 809 N 75.3831 0.828654 1.34056 0
M  V30 810 C 76.7991 0.515135 1.51058 0
M  V30 811 C 76.9991 -0.959581 1.77184 0
M  V30 812 O 76.0551 -1.74382 1.82612 0
M  V30 813 C 77.3681 1.37963 2.67183 0
M  V30 814 C 78.9161 1.37735 2.81066 0
M  V30 815 C 79.3911 2.22645 4.00241 0
M  V30 816 N 80.8821 2.203 4.07458 0
M  V30 817 C 81.6171 2.82744 4.98842 0
M  V30 818 N 81.1131 3.54201 5.9541 0
M  V30 819 N 82.9061 2.72268 4.91759 0
M  V30 820 H 75.0571 1.78343 1.15358 0
M  V30 821 H 77.3201 0.760304 0.566252 0
M  V30 822 H 77.0261 2.42714 2.54525 0
M  V30 823 H 76.9001 1.0484 3.62338 0
M  V30 824 H 79.2871 0.337593 2.93163 0
M  V30 825 H 79.3681 1.74859 1.86703 0
M  V30 826 H 79.0121 3.26674 3.88905 0
M  V30 827 H 78.9421 1.82869 4.93829 0
M  V30 828 H 81.4331 1.68327 3.38341 0
M  V30 829 H 81.7461 3.9908 6.61782 0
M  V30 830 H 80.0911 3.58308 5.95517 0
M  V30 831 H 83.2821 2.16014 4.15278 0
M  V30 832 H 83.4551 3.21219 5.62781 0
M  V30 833 N 76.8612 -1.46375 0.584142 0
M  V30 834 C 78.0862 -2.07268 0.0740405 0
M  V30 835 C 78.5112 -1.42979 -1.22223 0
M  V30 836 O 77.8692 -0.514092 -1.73859 0
M  V30 837 C 77.9172 -3.60518 -0.0767769 0
M  V30 838 O 77.0212 -3.96533 -1.13292 0
M  V30 839 H 76.3622 -0.660961 0.0634524 0
M  V30 840 H 78.8922 -1.87991 0.807492 0
M  V30 841 H 78.9022 -4.07021 -0.282489 0
M  V30 842 H 77.5772 -4.06702 0.86986 0
M  V30 843 H 76.1542 -3.61738 -0.905553 0
M  V30 844 N 78.3393 -0.321999 -1.54275 0
M  V30 845 C 79.7553 0.0306999 -1.5957 0
M  V30 846 C 79.9553 1.50614 -1.33857 0
M  V30 847 O 79.0113 2.2619 -1.12223 0
M  V30 848 C 80.3243 -0.386122 -2.98211 0
M  V30 849 C 81.8723 -0.336647 -3.11184 0
M  V30 850 C 82.3473 -0.728607 -4.52167 0
M  V30 851 N 83.8383 -0.681952 -4.58152 0
M  V30 852 C 84.5733 -0.957449 -5.6535 0
M  V30 853 N 84.0693 -1.3 -6.80494 0
M  V30 854 N 85.8623 -0.883113 -5.55119 0
M  V30 855 H 78.0133 -1.28332 -1.69247 0
M  V30 856 H 80.2763 -0.521716 -0.791528 0
M  V30 857 H 79.9823 -1.41404 -3.22022 0
M  V30 858 H 79.8563 0.249662 -3.76373 0
M  V30 859 H 82.2433 0.682058 -2.8711 0
M  V30 860 H 82.3243 -1.00734 -2.3513 0
M  V30 861 H 81.9683 -1.74522 -4.76974 0
M  V30 862 H 81.8983 -0.0356152 -5.26588 0
M  V30 863 H 84.3893 -0.428985 -3.75457 0
M  V30 864 H 84.7023 -1.49563 -7.58189 0
M  V30 865 H 83.0473 -1.33824 -6.81994 0
M  V30 866 H 86.2383 -0.615001 -4.64042 0
M  V30 867 H 86.4113 -1.10118 -6.38575 0
M  V30 868 N 79.8174 1.5752 -0.0501392 0
M  V30 869 C 81.0654 1.9227 0.622642 0
M  V30 870 C 81.3864 0.929083 1.71444 0
M  V30 871 O 80.6564 -0.0262186 1.95882 0
M  V30 872 H 79.2364 0.709739 0.232981 0
M  V30 873 H 81.8984 1.94628 -0.102898 0
M  V30 874 H 80.9944 2.93479 1.06191 0
M  V30 875 N 81.2955 -0.223234 1.56011 0
M  V30 876 C 82.5425 -0.947875 1.78946 0
M  V30 877 C 82.8705 -1.844 0.618608 0
M  V30 878 O 82.1255 -1.91629 -0.397093 0
M  V30 879 C 82.4245 -1.81948 3.0762 0
M  V30 880 C 82.0905 -1.07672 4.37856 0
M  V30 881 C 80.7525 -0.871544 4.73242 0
M  V30 882 C 83.1045 -0.552081 5.18268 0
M  V30 883 C 80.4325 -0.129791 5.86556 0
M  V30 884 C 82.7845 0.17632 6.32354 0
M  V30 885 C 81.4485 0.39277 6.66343 0
M  V30 886 H 80.7185 -0.346852 0.654809 0
M  V30 887 H 83.3655 -0.216171 1.90276 0
M  V30 888 H 81.6705 -2.61899 2.91404 0
M  V30 889 H 83.3675 -2.38227 3.22566 0
M  V30 890 H 79.9575 -1.24662 4.1007 0
M  V30 891 H 84.1415 -0.698076 4.91366 0
M  V30 892 H 79.3975 0.048153 6.11381 0
M  V30 893 H 83.5715 0.590367 6.93893 0
M  V30 894 H 81.1985 0.969466 7.53993 0
M  V30 895 N 82.7736 -1.49793 -0.48987 0
M  V30 896 C 84.0216 -1.59525 -1.24081 0
M  V30 897 C 84.3426 -0.288953 -1.92847 0
M  V30 898 O 83.6126 0.692436 -1.83254 0
M  V30 899 H 82.1926 -0.587796 -0.460983 0
M  V30 900 H 84.8546 -1.86477 -0.566778 0
M  V30 901 H 83.9506 -2.39696 -1.99881 0
M  V30 902 N 84.2517 0.741722 -1.39055 0
M  V30 903 C 85.2147 1.83733 -1.37021 0
M  V30 904 C 86.2147 1.58542 -0.268534 0
M  V30 905 O 87.4047 1.66067 -0.526076 0
M  V30 906 C 84.5367 3.2141 -1.13617 0
M  V30 907 H 85.7297 1.86941 -2.34506 0
M  V30 908 H 83.2827 0.944676 -1.24521 0
M  V30 909 H 84.0177 3.23865 -0.167863 0
M  V30 910 H 83.8027 3.4109 -1.93391 0
M  V30 911 H 85.2927 4.01477 -1.14918 0
M  V30 912 N 85.7298 1.2412 0.971189 0
M  V30 913 C 86.6598 1.05508 2.08304 0
M  V30 914 C 87.6408 -0.0308864 1.70072 0
M  V30 915 O 88.8258 0.135521 1.93727 0
M  V30 916 C 85.9558 0.655365 3.4106 0
M  V30 917 C 84.9098 1.68971 3.93234 0
M  V30 918 C 84.2358 1.14516 5.22293 0
M  V30 919 C 85.5358 3.08487 4.21465 0
M  V30 920 H 87.2298 1.98507 2.24132 0
M  V30 921 H 84.7758 0.955821 1.07704 0
M  V30 922 H 86.7288 0.51217 4.18276 0
M  V30 923 H 85.4528 -0.31032 3.25122 0
M  V30 924 H 84.1118 1.82106 3.18171 0
M  V30 925 H 83.7598 0.170189 5.02712 0
M  V30 926 H 83.4598 1.83635 5.58168 0
M  V30 927 H 84.9838 1.01401 6.02121 0
M  V30 928 H 86.3978 2.98601 4.89398 0
M  V30 929 H 84.7948 3.74926 4.68562 0
M  V30 930 H 85.8648 3.56787 3.28376 0
M  V30 931 N 87.2079 -1.17134 1.05439 0
M  V30 932 C 88.4329 -1.91913 0.786396 0
M  V30 933 C 88.8579 -1.7643 -0.652234 0
M  V30 934 O 88.2159 -1.08372 -1.45345 0
M  V30 935 C 88.2639 -3.40921 1.17497 0
M  V30 936 O 87.3679 -4.11244 0.308589 0
M  V30 937 H 86.7089 -0.598215 0.288158 0
M  V30 938 H 89.2389 -1.48457 1.4079 0
M  V30 939 H 89.2489 -3.91668 1.14281 0
M  V30 940 H 87.9239 -3.5151 2.22292 0
M  V30 941 H 86.5009 -3.70731 0.40157 0
M  V30 942 N 88.686 -0.835752 -1.33615 0
M  V30 943 C 89.616 -0.281739 -2.31794 0
M  V30 944 C 90.597 0.608833 -1.58831 0
M  V30 945 O 91.782 0.533035 -1.86741 0
M  V30 946 C 88.912 0.546612 -3.42971 0
M  V30 947 C 87.866 -0.247904 -4.27281 0
M  V30 948 C 87.192 0.704001 -5.30045 0
M  V30 949 C 88.492 -1.46324 -5.01385 0
M  V30 950 H 90.186 -1.10206 -2.78379 0
M  V30 951 H 87.732 -0.531388 -1.33837 0
M  V30 952 H 89.685 0.944467 -4.1068 0
M  V30 953 H 88.409 1.40011 -2.95067 0
M  V30 954 H 87.068 -0.627281 -3.61194 0
M  V30 955 H 86.716 1.55381 -4.78399 0
M  V30 956 H 86.416 0.176524 -5.87335 0
M  V30 957 H 87.94 1.09944 -6.0062 0
M  V30 958 H 89.354 -1.13871 -5.61877 0
M  V30 959 H 87.751 -1.92728 -5.6831 0
M  V30 960 H 88.821 -2.23467 -4.30338 0
M  V30 961 N 90.1641 1.46063 -0.591896 0
M  V30 962 C 91.1271 2.28854 0.125973 0
M  V30 963 C 92.1271 1.38903 0.810107 0
M  V30 964 O 93.3171 1.61186 0.66066 0
M  V30 965 C 90.4491 3.19526 1.1881 0
M  V30 966 H 91.6421 2.93802 -0.601717 0
M  V30 967 H 89.1951 1.52325 -0.350254 0
M  V30 968 H 89.9301 2.59345 1.94707 0
M  V30 969 H 89.7151 3.85766 0.701936 0
M  V30 970 H 91.2051 3.81817 1.69132 0
M  V30 971 N 91.6422 0.330177 1.54103 0
M  V30 972 C 92.9192 -0.325007 1.92881 0
M  V30 973 C 93.2992 -1.6934 1.26045 0
M  V30 974 O 92.6472 -2.24855 0.406526 0
M  V30 975 C 92.8572 -0.410634 3.46576 0
M  V30 976 C 94.2052 -0.667801 4.19316 0
M  V30 977 O 95.2292 -0.49329 3.52768 0
M  V30 978 O 94.0882 -1.00491 5.37181 0
M  V30 979 H 91.1822 -0.186873 0.80561 0
M  V30 980 H 93.7282 0.380376 1.65382 0
M  V30 981 H 92.5002 0.550164 3.87413 0
M  V30 982 H 92.1232 -1.16333 3.802 0
M  V30 983 N 93.1203 -1.57491 0.0584922 0
M  V30 984 C 94.0533 -2.07533 -0.948969 0
M  V30 985 C 95.0313 -0.977444 -1.29942 0
M  V30 986 O 96.2153 -1.2499 -1.41102 0
M  V30 987 C 93.3423 -2.52192 -2.2609 0
M  V30 988 C 92.3883 -3.73287 -2.06298 0
M  V30 989 S 93.2213 -5.18603 -1.33459 0
M  V30 990 C 94.3773 -5.66583 -2.65959 0
M  V30 991 H 94.6103 -2.92662 -0.523118 0
M  V30 992 H 92.1433 -1.53631 -0.153954 0
M  V30 993 H 94.1013 -2.78585 -3.01498 0
M  V30 994 H 92.7623 -1.67356 -2.65802 0
M  V30 995 H 91.9553 -4.0248 -3.03357 0
M  V30 996 H 91.5573 -3.47199 -1.39029 0
M  V30 997 H 93.8493 -5.72616 -3.62101 0
M  V30 998 H 94.7923 -6.65684 -2.41393 0
M  V30 999 H 95.2003 -4.94342 -2.72554 0
M  V30 1000 N 94.5984 0.214957 -1.56127 0
M  V30 1001 C 95.5614 1.24997 -1.92116 0
M  V30 1002 C 96.5614 1.39467 -0.800344 0
M  V30 1003 O 97.7514 1.37619 -1.06802 0
M  V30 1004 C 94.8834 2.62271 -2.17777 0
M  V30 1005 H 96.0764 0.942875 -2.84693 0
M  V30 1006 H 93.6294 0.455654 -1.49511 0
M  V30 1007 H 94.3644 2.98068 -1.27773 0
M  V30 1008 H 94.1494 2.53143 -2.99434 0
M  V30 1009 H 95.6394 3.36946 -2.46693 0
M  V30 1010 N 96.0765 1.50051 0.48192 0
M  V30 1011 C 96.9865 1.7089 1.60728 0
M  V30 1012 C 98.0025 0.591788 1.63627 0
M  V30 1013 O 99.1785 0.868817 1.81696 0
M  V30 1014 C 96.2435 1.78855 2.97005 0
M  V30 1015 C 95.3045 3.02537 3.04581 0
M  V30 1016 C 94.5375 3.10112 4.34357 0
M  V30 1017 O 94.7605 2.24765 5.24249 0
M  V30 1018 O 93.6945 4.02747 4.47301 0
M  V30 1019 H 97.5205 2.66264 1.46072 0
M  V30 1020 H 95.1055 1.34018 0.660264 0
M  V30 1021 H 96.9875 1.86336 3.77964 0
M  V30 1022 H 95.6625 0.866628 3.11883 0
M  V30 1023 H 94.5695 3.00563 2.22739 0
M  V30 1024 H 95.9025 3.94272 2.94636 0
M  V30 1025 N 97.5546 -0.734337 1.39446 0
M  V30 1026 C 98.5176 -1.83004 1.37994 0
M  V30 1027 C 99.5176 -1.58397 0.276938 0
M  V30 1028 O 100.708 -1.65785 0.534875 0
M  V30 1029 C 97.8396 -3.20802 1.1532 0
M  V30 1030 H 99.0326 -1.85694 2.35494 0
M  V30 1031 H 96.5856 -0.938059 1.25021 0
M  V30 1032 H 97.3206 -3.23772 0.185036 0
M  V30 1033 H 97.1056 -3.4006 1.95197 0
M  V30 1034 H 98.5956 -4.00862 1.17046 0
M  V30 1035 N 99.0327 -1.24633 -0.964593 0
M  V30 1036 C 100.279 -1.08949 -1.71049 0
M  V30 1037 C 100.612 0.370302 -1.90637 0
M  V30 1038 O 99.8867 1.27349 -1.47011 0
M  V30 1039 C 100.17 -1.83329 -3.0994 0
M  V30 1040 C 100.023 -3.37077 -2.97824 0
M  V30 1041 C 101.342 -1.60846 -4.09654 0
M  V30 1042 H 98.4607 -0.397178 -0.620821 0
M  V30 1043 H 101.103 -1.5334 -1.12191 0
M  V30 1044 H 99.2527 -1.45597 -3.60186 0
M  V30 1045 H 100.925 -3.84425 -2.5498 0
M  V30 1046 H 99.1677 -3.65298 -2.33965 0
M  V30 1047 H 99.8387 -3.84324 -3.96231 0
M  V30 1048 H 102.315 -1.93674 -3.68279 0
M  V30 1049 H 101.191 -2.1534 -5.04896 0
M  V30 1050 H 101.452 -0.547434 -4.38698 0
M  V30 1051 N 100.511 1.16574 -1.06058 0
M  V30 1052 C 101.441 2.23057 -0.690488 0
M  V30 1053 C 102.422 1.67141 0.315901 0
M  V30 1054 O 103.607 1.93253 0.191556 0
M  V30 1055 C 100.737 3.47222 -0.073625 0
M  V30 1056 C 99.6908 4.16016 -1.00573 0
M  V30 1057 C 99.0168 5.34104 -0.252289 0
M  V30 1058 C 100.317 4.67264 -2.33371 0
M  V30 1059 H 102.011 2.54271 -1.58072 0
M  V30 1060 H 99.5568 1.22218 -0.76149 0
M  V30 1061 H 101.51 4.20939 0.19714 0
M  V30 1062 H 100.234 3.15302 0.85161 0
M  V30 1063 H 98.8928 3.44223 -1.2612 0
M  V30 1064 H 98.5408 4.98437 0.675988 0
M  V30 1065 H 98.2408 5.81072 -0.873455 0
M  V30 1066 H 99.7648 6.10599 0.0109857 0
M  V30 1067 H 101.179 5.32573 -2.12223 0
M  V30 1068 H 99.5758 5.24843 -2.90963 0
M  V30 1069 H 100.646 3.83602 -2.96611 0
M  V30 1070 N 101.989 0.842826 1.3317 0
M  V30 1071 C 102.921 0.236245 2.27979 0
M  V30 1072 C 103.934 -0.585282 1.51915 0
M  V30 1073 O 105.123 -0.411705 1.73687 0
M  V30 1074 C 102.223 -0.685717 3.3189 0
M  V30 1075 C 101.396 0.0973448 4.37292 0
M  V30 1076 C 100.455 -0.748565 5.20848 0
M  V30 1077 O 99.4809 -0.186339 5.68895 0
M  V30 1078 N 100.683 -2.06527 5.42519 0
M  V30 1079 H 103.448 1.05088 2.80672 0
M  V30 1080 H 101.009 0.701667 1.45905 0
M  V30 1081 H 103.001 -1.25669 3.84694 0
M  V30 1082 H 101.571 -1.40105 2.79445 0
M  V30 1083 H 100.791 0.849706 3.84933 0
M  V30 1084 H 102.079 0.635643 5.04814 0
M  V30 1085 H 101.477 -2.54554 5.05192 0
M  V30 1086 H 100.034 -2.58464 5.98364 0
M  V30 1087 N 103.467 -1.45747 0.599634 0
M  V30 1088 C 104.399 -2.28628 -0.161879 0
M  V30 1089 C 105.412 -1.39494 -0.839367 0
M  V30 1090 O 106.601 -1.63941 -0.706089 0
M  V30 1091 C 103.701 -3.15014 -1.24976 0
M  V30 1092 C 102.874 -4.32378 -0.660935 0
M  V30 1093 C 101.933 -5.00033 -1.63869 0
M  V30 1094 O 100.959 -5.57085 -1.1681 0
M  V30 1095 N 102.161 -4.98589 -2.97303 0
M  V30 1096 H 104.926 -2.94624 0.549265 0
M  V30 1097 H 102.487 -1.55847 0.438565 0
M  V30 1098 H 104.479 -3.5714 -1.9035 0
M  V30 1099 H 103.049 -2.5098 -1.86354 0
M  V30 1100 H 102.269 -3.9383 0.170688 0
M  V30 1101 H 103.557 -5.08197 -0.247619 0
M  V30 1102 H 102.955 -4.53514 -3.38145 0
M  V30 1103 H 101.512 -5.44603 -3.58121 0
M  V30 1104 N 104.945 -0.338344 -1.53925 0
M  V30 1105 C 105.908 0.508299 -2.23493 0
M  V30 1106 C 106.908 1.03175 -1.23335 0
M  V30 1107 O 108.098 0.921826 -1.47811 0
M  V30 1108 C 105.23 1.70754 -2.95052 0
M  V30 1109 H 106.423 -0.100058 -2.99733 0
M  V30 1110 H 103.976 -0.0896198 -1.56043 0
M  V30 1111 H 104.711 2.35474 -2.22986 0
M  V30 1112 H 104.496 1.33946 -3.68512 0
M  V30 1113 H 105.986 2.30818 -3.48013 0
M  V30 1114 N 106.423 1.57458 -0.0668435 0
M  V30 1115 C 107.834 1.80776 0.466558 0
M  V30 1116 C 108.185 0.980361 1.69951 0
M  V30 1117 O 107.31 0.201441 2.1546 0
M  V30 1118 C 107.905 3.27881 0.85321 0
M  V30 1119 C 106.464 3.52062 1.3315 0
M  V30 1120 C 105.611 2.75513 0.314264 0
M  V30 1121 H 108.562 1.5598 -0.292588 0
M  V30 1122 H 108.583 3.39659 1.715 0
M  V30 1123 H 108.095 3.88075 -0.0443439 0
M  V30 1124 H 106.196 2.97167 2.24772 0
M  V30 1125 H 106.309 4.60762 1.31285 0
M  V30 1126 H 104.673 2.42123 0.790492 0
M  V30 1127 H 105.456 3.38442 -0.575477 0
M  V30 1128 N 107.901 -0.206675 1.56239 0
M  V30 1129 C 109.178 -0.954051 1.70755 0
M  V30 1130 C 109.558 -2.01841 0.618353 0
M  V30 1131 O 108.906 -2.25444 -0.372434 0
M  V30 1132 C 109.116 -1.551 3.12642 0
M  V30 1133 C 110.464 -2.03757 3.72516 0
M  V30 1134 O 111.488 -1.64965 3.15698 0
M  V30 1135 O 110.347 -2.75103 4.72208 0
M  V30 1136 H 107.441 -0.446636 0.696021 0
M  V30 1137 H 109.987 -0.197283 1.68549 0
M  V30 1138 H 108.759 -0.783212 3.83382 0
M  V30 1139 H 108.382 -2.37291 3.19028 0
M  V30 1140 N 109.379 -1.50304 -0.473955 0
M  V30 1141 C 110.326 -1.68959 -1.57231 0
M  V30 1142 C 111.296 -0.530899 -1.57387 0
M  V30 1143 O 112.481 -0.761133 -1.74961 0
M  V30 1144 C 109.621 -1.7871 -2.95223 0
M  V30 1145 C 108.734 -3.06061 -3.04878 0
M  V30 1146 C 107.869 -3.06626 -4.33767 0
M  V30 1147 C 106.908 -4.28443 -4.37154 0
M  V30 1148 N 106.045 -4.26763 -5.5751 0
M  V30 1149 H 110.885 -2.6273 -1.40631 0
M  V30 1150 H 108.422 -1.30241 -0.683789 0
M  V30 1151 H 110.38 -1.82344 -3.75242 0
M  V30 1152 H 109.01 -0.883806 -3.10465 0
M  V30 1153 H 108.062 -3.11911 -2.17751 0
M  V30 1154 H 109.374 -3.96039 -3.0324 0
M  V30 1155 H 108.528 -3.08973 -5.22131 0
M  V30 1156 H 107.267 -2.14473 -4.3801 0
M  V30 1157 H 106.272 -4.2631 -3.47188 0
M  V30 1158 H 107.497 -5.2182 -4.34605 0
M  V30 1159 H 105.443 -3.37462 -5.62544 0
M  V30 1160 H 105.36 -5.10507 -5.57601 0
M  V30 1161 H 106.628 -4.33253 -6.48006 0
M  V30 1162 N 110.857 0.726932 -1.39834 0
M  V30 1163 C 111.82 1.82269 -1.38962 0
M  V30 1164 C 112.82 1.58248 -0.285334 0
M  V30 1165 O 114.01 1.65499 -0.54366 0
M  V30 1166 C 111.142 3.20186 -1.17019 0
M  V30 1167 H 112.335 1.84443 -2.36476 0
M  V30 1168 H 109.888 0.931416 -1.25516 0
M  V30 1169 H 110.623 3.23669 -0.202204 0
M  V30 1170 H 110.408 3.3902 -1.96998 0
M  V30 1171 H 111.898 4.00235 -1.1917 0
M  V30 1172 N 112.336 1.25143 0.95797 0
M  V30 1173 C 113.585 1.0909 1.69654 0
M  V30 1174 C 113.898 -0.368548 1.92097 0
M  V30 1175 O 115.104 -0.649455 2.63618 0
M  V30 1176 C 113.56 1.90395 3.05414 0
M  V30 1177 C 113.168 3.4081 2.90779 0
M  V30 1178 C 114.912 1.82901 3.83076 0
M  V30 1179 C 112.819 4.14423 4.21909 0
M  V30 1180 H 111.749 0.404625 0.636235 0
M  V30 1181 H 114.4 1.4931 1.06672 0
M  V30 1182 H 112.782 1.42996 3.69281 0
M  V30 1183 H 113.956 3.95859 2.35865 0
M  V30 1184 H 112.271 3.49361 2.26575 0
M  V30 1185 H 114.868 2.35196 4.80195 0
M  V30 1186 H 115.211 0.796224 4.08615 0
M  V30 1187 H 115.744 2.28033 3.25954 0
M  V30 1188 H 112.483 5.18102 4.01561 0
M  V30 1189 H 112.003 3.64159 4.76601 0
M  V30 1190 H 113.682 4.21956 4.90471 0
M  V30 1191 N 113.814 -1.1601 1.06675 0
M  V30 1192 C 115.06 -1.87145 0.796766 0
M  V30 1193 C 115.415 -1.8037 -0.669658 0
M  V30 1194 O 114.708 -1.21116 -1.48463 0
M  V30 1195 C 114.902 -3.35547 1.23057 0
M  V30 1196 C 114.731 -3.56769 2.73762 0
M  V30 1197 C 113.501 -3.72635 3.41279 0
M  V30 1198 C 115.699 -3.55166 3.7197 0
M  V30 1199 N 113.681 -3.81845 4.80695 0
M  V30 1200 C 115.052 -3.70406 4.97191 0
M  V30 1201 C 117.107 -3.384 3.65226 0
M  V30 1202 C 115.81 -3.70615 6.16471 0
M  V30 1203 C 117.836 -3.39904 4.83962 0
M  V30 1204 C 117.198 -3.55667 6.08013 0
M  V30 1205 H 113.297 -0.702267 0.344014 0
M  V30 1206 H 115.881 -1.39165 1.36166 0
M  V30 1207 H 114.052 -3.82159 0.693456 0
M  V30 1208 H 115.784 -3.94363 0.908844 0
M  V30 1209 H 112.539 -3.73121 2.91681 0
M  V30 1210 H 112.963 -3.90209 5.53232 0
M  V30 1211 H 117.605 -3.25138 2.70269 0
M  V30 1212 H 115.323 -3.82658 7.11757 0
M  V30 1213 H 118.909 -3.28169 4.80413 0
M  V30 1214 H 117.789 -3.56755 6.98352 0
M  V30 1215 N 115.292 -0.849877 -1.32721 0
M  V30 1216 C 116.222 -0.306308 -2.31482 0
M  V30 1217 C 117.203 0.591952 -1.59468 0
M  V30 1218 O 118.388 0.513199 -1.87296 0
M  V30 1219 C 115.518 0.510204 -3.43532 0
M  V30 1220 C 114.472 -0.293209 -4.26994 0
M  V30 1221 C 113.798 0.647743 -5.30762 0
M  V30 1222 C 115.098 -1.51634 -4.99804 0
M  V30 1223 H 116.792 -1.13153 -2.77195 0
M  V30 1224 H 114.338 -0.545553 -1.33266 0
M  V30 1225 H 116.291 0.900856 -4.11658 0
M  V30 1226 H 115.015 1.36874 -2.96535 0
M  V30 1227 H 113.674 -0.665555 -3.60508 0
M  V30 1228 H 113.322 1.50299 -4.8002 0
M  V30 1229 H 113.022 0.11422 -5.87489 0
M  V30 1230 H 114.546 1.03567 -6.01753 0
M  V30 1231 H 115.96 -1.19824 -5.60638 0
M  V30 1232 H 114.357 -1.98745 -5.66234 0
M  V30 1233 H 115.427 -2.28018 -4.27943 0
M  V30 1234 N 116.77 1.45427 -0.607355 0
M  V30 1235 C 118.018 2.01841 -0.102253 0
M  V30 1236 C 118.339 1.47832 1.27164 0
M  V30 1237 O 117.609 0.672497 1.83995 0
M  V30 1238 H 116.189 0.746188 -0.0348101 0
M  V30 1239 H 118.851 1.78229 -0.7887 0
M  V30 1240 H 117.947 3.12057 -0.0518585 0
M  V30 1241 N 118.248 0.346503 1.53744 0
M  V30 1242 C 119.494 -0.242135 2.01954 0
M  V30 1243 C 119.849 -1.47962 1.22984 0
M  V30 1244 O 119.142 -1.89077 0.309924 0
M  V30 1245 C 119.336 -0.605809 3.52228 0
M  V30 1246 C 119.165 0.594882 4.45748 0
M  V30 1247 C 117.935 1.1011 4.93157 0
M  V30 1248 C 120.133 1.45425 4.93311 0
M  V30 1249 N 118.115 2.26381 5.70636 0
M  V30 1250 C 119.486 2.46383 5.68942 0
M  V30 1251 C 121.541 1.47935 4.75415 0
M  V30 1252 C 120.244 3.49684 6.28581 0
M  V30 1253 C 122.27 2.50119 5.35905 0
M  V30 1254 C 121.632 3.49803 6.11406 0
M  V30 1255 H 117.731 -0.0518296 0.780281 0
M  V30 1256 H 120.315 0.486736 1.88518 0
M  V30 1257 H 118.486 -1.30378 3.65864 0
M  V30 1258 H 120.218 -1.17789 3.87179 0
M  V30 1259 H 116.973 0.668721 4.68855 0
M  V30 1260 H 117.397 2.85094 6.14044 0
M  V30 1261 H 122.039 0.722274 4.16585 0
M  V30 1262 H 119.757 4.26285 6.86518 0
M  V30 1263 H 123.343 2.52892 5.23963 0
M  V30 1264 H 122.223 4.27576 6.5738 0
M  V30 1265 N 119.726 -1.57421 0.075193 0
M  V30 1266 C 120.951 -1.98364 -0.605515 0
M  V30 1267 C 121.376 -0.953383 -1.62149 0
M  V30 1268 O 120.734 0.0806053 -1.81121 0
M  V30 1269 C 120.782 -3.38332 -1.24756 0
M  V30 1270 O 119.886 -3.37959 -2.36342 0
M  V30 1271 H 119.227 -0.645553 -0.155428 0
M  V30 1272 H 121.757 -2.04044 0.150714 0
M  V30 1273 H 121.767 -3.75591 -1.5936 0
M  V30 1274 H 120.442 -4.12846 -0.503129 0
M  V30 1275 H 119.019 -3.12474 -2.03506 0
M  V30 1276 N 121.204 0.198386 -1.56346 0
M  V30 1277 C 122.134 1.24865 -1.9731 0
M  V30 1278 C 123.115 1.47651 -0.844576 0
M  V30 1279 O 124.3 1.59444 -1.10866 0
M  V30 1280 C 121.43 2.59358 -2.30977 0
M  V30 1281 C 120.384 2.5119 -3.46537 0
M  V30 1282 C 119.71 3.89926 -3.65871 0
M  V30 1283 C 121.01 2.03977 -4.80823 0
M  V30 1284 H 122.704 0.908252 -2.85291 0
M  V30 1285 H 120.25 0.435462 -1.37258 0
M  V30 1286 H 122.203 3.33011 -2.58228 0
M  V30 1287 H 120.927 2.95132 -1.39874 0
M  V30 1288 H 119.586 1.79993 -3.19371 0
M  V30 1289 H 119.234 4.23046 -2.72105 0
M  V30 1290 H 118.934 3.85336 -4.4361 0
M  V30 1291 H 120.458 4.65205 -3.95495 0
M  V30 1292 H 121.872 2.67386 -5.07127 0
M  V30 1293 H 120.269 2.10397 -5.62008 0
M  V30 1294 H 121.339 0.992861 -4.74626 0
M  V30 1295 N 122.682 1.50554 0.465978 0
M  V30 1296 C 123.93 1.61479 1.21528 0
M  V30 1297 C 124.251 0.319596 1.92363 0
M  V30 1298 O 123.521 -0.663194 1.84333 0
M  V30 1299 H 122.101 0.595055 0.451573 0
M  V30 1300 H 124.763 1.87355 0.53704 0
M  V30 1301 H 123.859 2.42846 1.96042 0
M  V30 1302 N 124.16 -0.719506 1.40217 0
M  V30 1303 C 125.408 -1.47641 1.3801 0
M  V30 1304 C 125.729 -1.94992 -0.018145 0
M  V30 1305 O 124.999 -1.70073 -0.972207 0
M  V30 1306 H 123.579 -0.547744 0.507923 0
M  V30 1307 H 126.241 -0.853187 1.75233 0
M  V30 1308 H 125.337 -2.35112 2.05253 0
M  V30 1309 N 125.638 -1.25649 -0.95132 0
M  V30 1310 C 126.568 -1.08808 -2.06599 0
M  V30 1311 C 127.549 0.00382547 -1.701 0
M  V30 1312 O 128.734 -0.166325 -1.93486 0
M  V30 1313 C 125.864 -0.709542 -3.39975 0
M  V30 1314 C 124.818 -1.75206 -3.90496 0
M  V30 1315 C 124.144 -1.22811 -5.20405 0
M  V30 1316 C 125.444 -3.15153 -4.16504 0
M  V30 1317 H 127.138 -2.02048 -2.20946 0
M  V30 1318 H 124.684 -0.972835 -1.06169 0
M  V30 1319 H 126.637 -0.578649 -4.17408 0
M  V30 1320 H 125.361 0.258556 -3.25575 0
M  V30 1321 H 124.02 -1.87145 -3.15234 0
M  V30 1322 H 123.668 -0.250145 -5.02378 0
M  V30 1323 H 123.368 -1.92492 -5.55176 0
M  V30 1324 H 124.892 -1.10968 -6.00432 0
M  V30 1325 H 126.306 -3.06349 -4.84586 0
M  V30 1326 H 124.703 -3.82333 -4.62538 0
M  V30 1327 H 125.773 -3.61966 -3.22658 0
M  V30 1328 N 127.117 1.15442 -1.07289 0
M  V30 1329 C 128.363 1.86489 -0.796846 0
M  V30 1330 C 128.696 1.82078 0.675371 0
M  V30 1331 O 127.971 1.24346 1.4956 0
M  V30 1332 C 128.254 3.35626 -1.30489 0
M  V30 1333 C 128.107 3.48673 -2.84161 0
M  V30 1334 C 129.426 4.30357 -0.920907 0
M  V30 1335 H 126.545 0.677144 -0.290939 0
M  V30 1336 H 129.187 1.35633 -1.33056 0
M  V30 1337 H 127.337 3.79068 -0.850883 0
M  V30 1338 H 129.009 3.14099 -3.37846 0
M  V30 1339 H 127.252 2.90253 -3.22391 0
M  V30 1340 H 127.923 4.53453 -3.14777 0
M  V30 1341 H 130.399 3.94871 -1.3121 0
M  V30 1342 H 129.275 5.33193 -1.30372 0
M  V30 1343 H 129.536 4.4176 0.173226 0
M  V30 1344 N 128.595 0.856903 1.32268 0
M  V30 1345 C 129.558 0.308171 2.27119 0
M  V30 1346 C 130.558 -0.533421 1.51695 0
M  V30 1347 O 131.748 -0.344607 1.70757 0
M  V30 1348 C 128.88 -0.563757 3.36206 0
M  V30 1349 H 130.073 1.14535 2.77167 0
M  V30 1350 H 127.626 0.631421 1.42978 0
M  V30 1351 H 128.361 -1.42266 2.91429 0
M  V30 1352 H 128.146 0.0386749 3.92081 0
M  V30 1353 H 129.636 -0.940386 4.06874 0
M  V30 1354 N 130.073 -1.45103 0.615059 0
M  V30 1355 C 131.298 -2.07064 0.117988 0
M  V30 1356 C 131.723 -1.4554 -1.19163 0
M  V30 1357 O 131.081 -0.550855 -1.72729 0
M  V30 1358 C 131.129 -3.606 -0.000288387 0
M  V30 1359 O 130.233 -3.98847 -1.04856 0
M  V30 1360 H 129.574 -0.659467 0.0774581 0
M  V30 1361 H 132.104 -1.86236 0.847186 0
M  V30 1362 H 132.114 -4.07529 -0.196091 0
M  V30 1363 H 130.789 -4.04765 0.955932 0
M  V30 1364 H 129.366 -3.63577 -0.828619 0
M  V30 1365 N 131.551 -0.354651 -1.53558 0
M  V30 1366 C 132.483 0.5315 -2.22952 0
M  V30 1367 C 133.496 1.05503 -1.23988 0
M  V30 1368 O 134.685 0.963279 -1.50277 0
M  V30 1369 C 131.785 1.74538 -2.90499 0
M  V30 1370 C 130.958 1.35524 -4.15875 0
M  V30 1371 C 130.017 2.42999 -4.66731 0
M  V30 1372 O 129.043 2.05844 -5.30676 0
M  V30 1373 N 130.245 3.74423 -4.43608 0
M  V30 1374 H 133.01 -0.0628615 -2.99634 0
M  V30 1375 H 130.571 -0.179302 -1.60904 0
M  V30 1376 H 132.563 2.45892 -3.21433 0
M  V30 1377 H 131.133 2.24686 -2.17336 0
M  V30 1378 H 130.353 0.471998 -3.91364 0
M  V30 1379 H 131.641 1.07071 -4.97406 0
M  V30 1380 H 131.039 4.07391 -3.92491 0
M  V30 1381 H 129.596 4.41913 -4.7912 0
M  V30 1382 N 133.029 1.57378 -0.0835403 0
M  V30 1383 C 134.278 1.93106 0.582498 0
M  V30 1384 C 134.591 0.96651 1.70053 0
M  V30 1385 O 135.797 1.21705 2.42693 0
M  V30 1386 C 134.253 3.43076 1.08751 0
M  V30 1387 C 133.861 4.48 -0.000146404 0
M  V30 1388 C 135.605 3.87785 1.72694 0
M  V30 1389 C 133.512 5.89113 0.519568 0
M  V30 1390 H 132.442 0.720775 0.221358 0
M  V30 1391 H 135.093 1.82821 -0.157675 0
M  V30 1392 H 133.475 3.48474 1.88101 0
M  V30 1393 H 134.649 4.54233 -0.775199 0
M  V30 1394 H 132.964 4.1283 -0.54406 0
M  V30 1395 H 135.561 4.90604 2.1263 0
M  V30 1396 H 135.904 3.25796 2.59158 0
M  V30 1397 H 136.437 3.8504 0.999457 0
M  V30 1398 H 133.176 6.54775 -0.308186 0
M  V30 1399 H 132.696 5.86376 1.26188 0
M  V30 1400 H 134.375 6.39346 0.992237 0
M  V30 1401 N 134.507 -0.190092 1.56449 0
M  V30 1402 C 135.47 -1.21925 1.9408 0
M  V30 1403 C 136.47 -1.38176 0.822431 0
M  V30 1404 O 137.66 -1.35903 1.08977 0
M  V30 1405 C 134.792 -2.58773 2.21922 0
M  V30 1406 H 135.985 -0.897464 2.86157 0
M  V30 1407 H 133.538 -0.43181 1.50217 0
M  V30 1408 H 134.273 -2.95998 1.32499 0
M  V30 1409 H 134.058 -2.48348 3.03424 0
M  V30 1410 H 135.548 -3.32978 2.52022 0
M  V30 1411 N 135.985 -1.50799 -0.457987 0
M  V30 1412 C 136.915 -1.73553 -1.5621 0
M  V30 1413 C 137.896 -0.584774 -1.59732 0
M  V30 1414 O 139.081 -0.825314 -1.7579 0
M  V30 1415 C 136.211 -1.84169 -2.94447 0
M  V30 1416 C 135.165 -2.99461 -3.0579 0
M  V30 1417 C 134.491 -2.95235 -4.45803 0
M  V30 1418 C 135.791 -4.39766 -2.81786 0
M  V30 1419 H 137.485 -2.66 -1.37421 0
M  V30 1420 H 135.031 -1.28002 -0.659662 0
M  V30 1421 H 136.984 -1.98672 -3.71628 0
M  V30 1422 H 135.708 -0.883545 -3.14422 0
M  V30 1423 H 134.367 -2.8463 -2.31044 0
M  V30 1424 H 134.015 -1.97239 -4.62715 0
M  V30 1425 H 133.715 -3.72642 -4.54326 0
M  V30 1426 H 135.239 -3.11803 -5.24987 0
M  V30 1427 H 136.653 -4.55054 -3.4871 0
M  V30 1428 H 135.05 -5.18722 -3.0174 0
M  V30 1429 H 136.12 -4.51229 -1.7754 0
M  V30 1430 N 137.463 0.71206 -1.40597 0
M  V30 1431 C 138.691 1.50111 -1.42388 0
M  V30 1432 C 139.106 1.88784 -0.0245395 0
M  V30 1433 O 138.463 1.55681 0.952351 0
M  V30 1434 C 138.514 2.7742 -2.31776 0
M  V30 1435 O 138.235 2.40382 -3.66262 0
M  V30 1436 C 139.736 3.7129 -2.42196 0
M  V30 1437 H 136.956 0.46314 -0.485533 0
M  V30 1438 H 139.5 0.878068 -1.8469 0
M  V30 1439 H 137.655 3.36001 -1.92827 0
M  V30 1440 H 138.069 3.22324 -4.13772 0
M  V30 1441 H 139.543 4.57448 -3.08943 0
M  V30 1442 H 140.02 4.14641 -1.44809 0
M  V30 1443 H 140.626 3.18619 -2.81712 0
M  V30 1444 N 138.941 1.26152 0.944643 0
M  V30 1445 C 139.891 1.04081 2.02857 0
M  V30 1446 C 140.875 -0.0256555 1.6088 0
M  V30 1447 O 142.067 0.190884 1.75968 0
M  V30 1448 C 139.196 0.672118 3.36656 0
M  V30 1449 C 138.282 1.77586 3.85128 0
M  V30 1450 N 138.673 3.01272 4.06287 0
M  V30 1451 C 136.971 1.65867 4.1401 0
M  V30 1452 C 137.672 3.72983 4.46384 0
M  V30 1453 N 136.648 3.00653 4.52889 0
M  V30 1454 H 140.45 1.97968 2.17223 0
M  V30 1455 H 137.964 1.16618 1.13022 0
M  V30 1456 H 139.961 0.495166 4.13949 0
M  V30 1457 H 138.621 -0.259307 3.23663 0
M  V30 1458 H 139.632 3.37213 3.93075 0
M  V30 1459 H 136.309 0.796907 4.09824 0
M  V30 1460 H 137.699 4.792 4.70975 0
M  V30 1461 N 140.419 -1.14872 1.07899 0
M  V30 1462 C 141.83 -1.67367 0.827363 0
M  V30 1463 C 142.181 -1.85236 -0.646693 0
M  V30 1464 O 141.306 -1.55974 -1.50004 0
M  V30 1465 C 141.901 -3.04016 1.49532 0
M  V30 1466 C 140.46 -3.53566 1.29106 0
M  V30 1467 C 139.607 -2.29161 1.56143 0
M  V30 1468 H 142.558 -0.990083 1.24028 0
M  V30 1469 H 142.579 -3.69219 0.919643 0
M  V30 1470 H 142.091 -2.90978 2.56814 0
M  V30 1471 H 140.192 -3.71835 0.238713 0
M  V30 1472 H 140.305 -4.34661 2.01511 0
M  V30 1473 H 138.669 -2.34978 0.982717 0
M  V30 1474 H 139.452 -2.18705 2.64619 0
M  V30 1475 N 141.898 -0.863906 -1.31812 0
M  V30 1476 C 142.808 -0.318461 -2.32428 0
M  V30 1477 C 143.824 0.568496 -1.64451 0
M  V30 1478 O 145 0.46666 -1.95919 0
M  V30 1479 C 142.065 0.476355 -3.43412 0
M  V30 1480 C 141.126 -0.43784 -4.27061 0
M  V30 1481 C 140.359 0.319138 -5.32745 0
M  V30 1482 O 140.582 1.54799 -5.48993 0
M  V30 1483 O 139.516 -0.319861 -6.01049 0
M  V30 1484 H 143.342 -1.15229 -2.80991 0
M  V30 1485 H 140.927 -0.627103 -1.35602 0
M  V30 1486 H 142.809 0.927156 -4.11074 0
M  V30 1487 H 141.484 1.28683 -2.97022 0
M  V30 1488 H 140.391 -0.937013 -3.62175 0
M  V30 1489 H 141.724 -1.21375 -4.77 0
M  V30 1490 N 143.376 1.44774 -0.622745 0
M  V30 1491 C 144.792 1.56986 -0.287652 0
M  V30 1492 C 144.992 1.61167 1.20944 0
M  V30 1493 O 144.048 1.55015 1.99315 0
M  V30 1494 C 145.361 2.84551 -0.972188 0
M  V30 1495 C 146.909 2.9825 -0.949536 0
M  V30 1496 C 147.384 4.28605 -1.61437 0
M  V30 1497 N 148.875 4.35399 -1.58057 0
M  V30 1498 C 149.61 5.34964 -2.064 0
M  V30 1499 N 149.106 6.40981 -2.62897 0
M  V30 1500 N 150.899 5.26419 -1.97078 0
M  V30 1501 H 143.05 1.40304 -1.59463 0
M  V30 1502 H 145.313 0.671794 -0.668878 0
M  V30 1503 H 145.019 2.87417 -2.02693 0
M  V30 1504 H 144.893 3.73807 -0.504771 0
M  V30 1505 H 147.28 2.94941 0.0967067 0
M  V30 1506 H 147.361 2.10364 -1.45536 0
M  V30 1507 H 147.005 4.32672 -2.66002 0
M  V30 1508 H 146.935 5.15334 -1.08344 0
M  V30 1509 H 149.426 3.59397 -1.16801 0
M  V30 1510 H 149.739 7.13225 -2.97539 0
M  V30 1511 H 148.084 6.4169 -2.66943 0
M  V30 1512 H 151.275 4.42504 -1.52669 0
M  V30 1513 H 151.448 6.03861 -2.35066 0
M  V30 1514 N 144.854 0.36279 1.53368 0
M  V30 1515 C 146.1 -0.228113 2.01513 0
M  V30 1516 C 146.433 -1.48648 1.2497 0
M  V30 1517 O 145.708 -1.91459 0.342616 0
M  V30 1518 C 145.991 -0.522884 3.56284 0
M  V30 1519 C 145.844 0.74892 4.43521 0
M  V30 1520 C 147.163 -1.32461 4.19693 0
M  V30 1521 H 144.282 -0.0814343 0.732487 0
M  V30 1522 H 146.924 0.48713 1.83649 0
M  V30 1523 H 145.074 -1.1322 3.71636 0
M  V30 1524 H 146.746 1.38648 4.39971 0
M  V30 1525 H 144.989 1.36986 4.11603 0
M  V30 1526 H 145.66 0.497667 5.49752 0
M  V30 1527 H 148.136 -0.809203 4.08156 0
M  V30 1528 H 147.012 -1.49961 5.28018 0
M  V30 1529 H 147.273 -2.33232 3.75573 0
M  V30 1530 N 146.332 -1.57332 0.0918853 0
M  V30 1531 C 147.264 -2.10869 -0.898168 0
M  V30 1532 C 148.277 -1.04521 -1.24817 0
M  V30 1533 O 149.466 -1.31977 -1.20184 0
M  V30 1534 C 146.566 -2.57083 -2.2082 0
M  V30 1535 C 145.739 -3.87229 -2.03402 0
M  V30 1536 C 144.798 -4.19324 -3.17889 0
M  V30 1537 O 143.824 -4.88598 -2.91994 0
M  V30 1538 N 145.026 -3.74471 -4.43567 0
M  V30 1539 H 147.791 -2.96439 -0.440943 0
M  V30 1540 H 145.352 -1.61631 -0.0933064 0
M  V30 1541 H 147.344 -2.75602 -2.96354 0
M  V30 1542 H 145.914 -1.76541 -2.57977 0
M  V30 1543 H 145.134 -3.7789 -1.12218 0
M  V30 1544 H 146.422 -4.72379 -1.89038 0
M  V30 1545 H 145.82 -3.18546 -4.67488 0
M  V30 1546 H 144.377 -3.98151 -5.16061 0
M  V30 1547 N 147.81 0.181792 -1.56548 0
M  V30 1548 C 148.773 1.20894 -1.94724 0
M  V30 1549 C 149.773 1.37738 -0.829747 0
M  V30 1550 O 150.963 1.35323 -1.09697 0
M  V30 1551 C 148.095 2.57593 -2.23291 0
M  V30 1552 H 149.288 0.882275 -2.86629 0
M  V30 1553 H 146.841 0.423838 -1.50444 0
M  V30 1554 H 147.576 2.95291 -1.34067 0
M  V30 1555 H 147.361 2.46735 -3.04736 0
M  V30 1556 H 148.851 3.31637 -2.53785 0
M  V30 1557 N 149.288 1.51039 0.449983 0
M  V30 1558 C 150.218 1.74379 1.55288 0
M  V30 1559 C 151.199 0.593236 1.5942 0
M  V30 1560 O 152.384 0.834625 1.7535 0
M  V30 1561 C 149.514 1.85728 2.93466 0
M  V30 1562 C 148.468 3.01078 3.04197 0
M  V30 1563 C 147.794 2.97595 4.44231 0
M  V30 1564 C 149.094 4.41254 2.7945 0
M  V30 1565 H 150.788 2.66725 1.36008 0
M  V30 1566 H 148.334 1.2835 0.652864 0
M  V30 1567 H 150.287 2.0064 3.70569 0
M  V30 1568 H 149.011 0.900207 3.13949 0
M  V30 1569 H 147.67 2.85851 2.29531 0
M  V30 1570 H 147.318 1.99691 4.61663 0
M  V30 1571 H 147.018 3.75046 4.52343 0
M  V30 1572 H 148.542 3.14583 5.23326 0
M  V30 1573 H 149.956 4.56897 3.46292 0
M  V30 1574 H 148.353 5.20315 2.98985 0
M  V30 1575 H 149.423 4.52164 1.75144 0
M  V30 1576 N 150.766 -0.704594 1.40972 0
M  V30 1577 C 152.012 -1.46675 1.40051 0
M  V30 1578 C 152.345 -1.94199 0.00641102 0
M  V30 1579 O 151.62 -1.68916 -0.964235 0
M  V30 1580 C 151.903 -2.68505 2.39952 0
M  V30 1581 C 151.756 -2.26805 3.88432 0
M  V30 1582 C 153.075 -3.70686 2.37233 0
M  V30 1583 H 150.194 -0.532015 0.510028 0
M  V30 1584 H 152.836 -0.803255 1.72185 0
M  V30 1585 H 150.986 -3.25114 2.1268 0
M  V30 1586 H 152.658 -1.75592 4.26574 0
M  V30 1587 H 150.901 -1.58685 4.03734 0
M  V30 1588 H 151.572 -3.14181 4.53866 0
M  V30 1589 H 154.048 -3.23731 2.61415 0
M  V30 1590 H 152.924 -4.53553 3.09162 0
M  V30 1591 H 153.185 -4.19754 1.38777 0
M  V30 1592 N 152.244 -1.26651 -0.937939 0
M  V30 1593 C 153.472 -1.15173 -1.7188 0
M  V30 1594 C 153.887 0.292668 -1.86518 0
M  V30 1595 O 153.244 1.20014 -1.37488 0
M  V30 1596 C 153.295 -1.81925 -3.12387 0
M  V30 1597 O 153.016 -3.2072 -2.98446 0
M  V30 1598 C 154.517 -1.76442 -4.06673 0
M  V30 1599 H 151.737 -0.400911 -0.538063 0
M  V30 1600 H 154.281 -1.67332 -1.1756 0
M  V30 1601 H 152.436 -1.33696 -3.63599 0
M  V30 1602 H 152.85 -3.53802 -3.872 0
M  V30 1603 H 154.324 -2.27781 -5.02812 0
M  V30 1604 H 154.801 -0.731608 -4.33064 0
M  V30 1605 H 155.407 -2.24238 -3.61382 0
M  V30 1606 N 153.722 1.14298 -1.08507 0
M  V30 1607 C 154.968 1.85633 -0.816581 0
M  V30 1608 C 155.301 1.82784 0.656021 0
M  V30 1609 O 154.576 1.25926 1.48233 0
M  V30 1610 C 154.859 3.34223 -1.34041 0
M  V30 1611 C 154.712 3.45639 -2.87843 0
M  V30 1612 C 156.031 4.29356 -0.9665 0
M  V30 1613 H 153.15 0.67402 -0.298104 0
M  V30 1614 H 155.792 1.34214 -1.34487 0
M  V30 1615 H 153.942 3.78144 -0.89104 0
M  V30 1616 H 155.614 3.10498 -3.41158 0
M  V30 1617 H 153.857 2.86817 -3.25451 0
M  V30 1618 H 154.528 4.50089 -3.19569 0
M  V30 1619 H 157.004 3.93457 -1.35391 0
M  V30 1620 H 155.88 5.3178 -1.3602 0
M  V30 1621 H 156.141 4.41919 0.126362 0
M  V30 1622 N 155.201 0.870884 1.31352 0
M  V30 1623 C 156.164 0.332243 2.26779 0
M  V30 1624 C 157.164 -0.517302 1.52252 0
M  V30 1625 O 158.354 -0.326477 1.71113 0
M  V30 1626 C 155.486 -0.528066 3.36785 0
M  V30 1627 H 156.679 1.17469 2.75937 0
M  V30 1628 H 154.232 0.64655 1.423 0
M  V30 1629 H 154.967 -1.39167 2.92922 0
M  V30 1630 H 154.752 0.0802582 3.92018 0
M  V30 1631 H 156.242 -0.897179 4.07849 0
M  V30 1632 N 156.679 -1.44442 0.630414 0
M  V30 1633 C 157.904 -2.06927 0.139944 0
M  V30 1634 C 158.329 -1.46795 -1.17613 0
M  V30 1635 O 157.687 -0.569144 -1.72135 0
M  V30 1636 C 157.735 -3.6058 0.0379581 0
M  V30 1637 O 156.839 -3.99937 -1.0062 0
M  V30 1638 H 156.18 -0.658608 0.0844483 0
M  V30 1639 H 158.71 -1.85327 0.866891 0
M  V30 1640 H 158.72 -4.07714 -0.152856 0
M  V30 1641 H 157.395 -4.03728 0.998809 0
M  V30 1642 H 155.972 -3.64436 -0.79001 0
M  V30 1643 N 158.157 -0.370918 -1.53173 0
M  V30 1644 C 159.382 0.220293 -2.06227 0
M  V30 1645 C 159.807 1.41243 -1.24225 0
M  V30 1646 O 159.165 1.79387 -0.262645 0
M  V30 1647 C 159.213 0.586663 -3.55796 0
M  V30 1648 O 158.317 1.68317 -3.76488 0
M  V30 1649 H 157.658 0.0308099 -0.663285 0
M  V30 1650 H 160.188 -0.533068 -1.97534 0
M  V30 1651 H 160.198 0.85617 -3.98916 0
M  V30 1652 H 158.873 -0.285013 -4.14922 0
M  V30 1653 H 157.45 1.40881 -3.45264 0
M  V30 1654 N 159.635 1.57281 -0.100228 0
M  V30 1655 C 161.046 1.81725 0.428107 0
M  V30 1656 C 161.397 1.01619 1.67833 0
M  V30 1657 O 160.522 0.247098 2.14985 0
M  V30 1658 C 161.117 3.29617 0.78347 0
M  V30 1659 C 159.676 3.54808 1.25653 0
M  V30 1660 C 158.823 2.76118 0.255752 0
M  V30 1661 H 161.774 1.55324 -0.325608 0
M  V30 1662 H 161.795 3.4322 1.64256 0
M  V30 1663 H 161.307 3.87893 -0.12665 0
M  V30 1664 H 159.408 3.01868 2.18418 0
M  V30 1665 H 159.521 4.63443 1.21482 0
M  V30 1666 H 157.885 2.43745 0.738956 0
M  V30 1667 H 158.668 3.37145 -0.647136 0
M  V30 1668 N 161.113 -0.173488 1.56642 0
M  V30 1669 C 162.353 -0.896984 1.83667 0
M  V30 1670 C 162.717 -1.79523 0.680842 0
M  V30 1671 O 163.918 -2.55616 0.831488 0
M  V30 1672 C 162.189 -1.67351 3.15798 0
M  V30 1673 S 163.748 -2.44607 3.64298 0
M  V30 1674 H 160.566 -0.300464 0.644393 0
M  V30 1675 H 163.168 -0.158775 1.94854 0
M  V30 1676 H 161.872 -1.00462 3.97914 0
M  V30 1677 H 161.403 -2.45313 3.07546 0
M  V30 1678 H 163.418 -3.69261 3.31452 0
M  V30 1679 N 162.591 -1.51276 -0.441967 0
M  V30 1680 C 163.838 -1.63715 -1.19179 0
M  V30 1681 C 164.166 -0.351175 -1.91303 0
M  V30 1682 O 163.421 0.664524 -1.84072 0
M  V30 1683 C 163.72 -2.78746 -2.23686 0
M  V30 1684 C 163.386 -4.18189 -1.68607 0
M  V30 1685 C 162.048 -4.56125 -1.53308 0
M  V30 1686 C 164.4 -5.05222 -1.28062 0
M  V30 1687 C 161.728 -5.78804 -0.959317 0
M  V30 1688 C 164.08 -6.28476 -0.721162 0
M  V30 1689 C 162.744 -6.65188 -0.55504 0
M  V30 1690 H 162.014 -0.599076 -0.436106 0
M  V30 1691 H 164.661 -1.85296 -0.48351 0
M  V30 1692 H 162.966 -2.51369 -3.00535 0
M  V30 1693 H 164.663 -2.8557 -2.81515 0
M  V30 1694 H 161.253 -3.88277 -1.8149 0
M  V30 1695 H 165.437 -4.76524 -1.38704 0
M  V30 1696 H 160.693 -6.05899 -0.81833 0
M  V30 1697 H 164.867 -6.95259 -0.398458 0
M  V30 1698 H 162.494 -7.60123 -0.108311 0
M  V30 1699 N 164.069 0.697108 -1.41344 0
M  V30 1700 C 165.294 1.49096 -1.44171 0
M  V30 1701 C 165.719 1.88038 -0.0481568 0
M  V30 1702 O 165.077 1.54525 0.948243 0
M  V30 1703 C 165.125 2.73088 -2.3549 0
M  V30 1704 O 164.229 3.70514 -1.81088 0
M  V30 1705 H 163.57 0.448801 -0.489361 0
M  V30 1706 H 166.1 0.856992 -1.85787 0
M  V30 1707 H 166.11 3.21413 -2.51312 0
M  V30 1708 H 164.785 2.44081 -3.36745 0
M  V30 1709 H 163.362 3.29441 -1.74708 0
M  V30 1710 N 165.547 1.27147 0.931209 0
M  V30 1711 C 166.51 1.09615 2.01289 0
M  V30 1712 C 167.51 0.0412581 1.60747 0
M  V30 1713 O 168.7 0.285545 1.71844 0
M  V30 1714 C 165.832 0.669447 3.34262 0
M  V30 1715 H 167.025 2.05662 2.18273 0
M  V30 1716 H 164.578 1.09885 1.11153 0
M  V30 1717 H 165.313 -0.292572 3.22978 0
M  V30 1718 H 165.098 1.43127 3.65044 0
M  V30 1719 H 166.588 0.568921 4.13706 0
M  V30 1720 N 167.025 -1.13721 1.09112 0
M  V30 1721 C 168.441 -1.36914 0.820174 0
M  V30 1722 C 168.641 -1.93356 -0.567079 0
M  V30 1723 O 167.697 -2.15093 -1.32255 0
M  V30 1724 C 169.01 -2.3235 1.90877 0
M  V30 1725 C 170.558 -2.45973 1.93562 0
M  V30 1726 C 171.033 -3.44714 3.01556 0
M  V30 1727 N 172.524 -3.52263 3.00775 0
M  V30 1728 C 173.259 -4.28536 3.80978 0
M  V30 1729 N 172.755 -5.07991 4.71081 0
M  V30 1730 N 174.548 -4.23804 3.69251 0
M  V30 1731 H 166.699 -0.754348 1.98553 0
M  V30 1732 H 168.962 -0.3944 0.862063 0
M  V30 1733 H 168.668 -1.98027 2.90651 0
M  V30 1734 H 168.542 -3.32332 1.78424 0
M  V30 1735 H 170.929 -2.79584 0.944286 0
M  V30 1736 H 171.01 -1.45926 2.10093 0
M  V30 1737 H 170.654 -3.11835 4.00901 0
M  V30 1738 H 170.584 -4.44558 2.82269 0
M  V30 1739 H 173.075 -2.95567 2.35475 0
M  V30 1740 H 173.388 -5.63487 5.28869 0
M  V30 1741 H 171.733 -5.07235 4.75119 0
M  V30 1742 H 174.924 -3.60806 2.98222 0
M  V30 1743 H 175.097 -4.82995 4.31995 0
M  V30 1744 N 168.503 -0.877838 -1.30888 0
M  V30 1745 C 169.78 -0.413052 -1.91189 0
M  V30 1746 C 170.16 1.1056 -1.79832 0
M  V30 1747 O 169.508 1.93771 -1.21099 0
M  V30 1748 C 169.718 -0.903191 -3.3711 0
M  V30 1749 C 171.066 -0.93395 -4.14201 0
M  V30 1750 O 172.09 -0.849373 -3.45925 0
M  V30 1751 O 170.949 -1.05772 -5.36167 0
M  V30 1752 H 168.043 -0.125035 -0.817493 0
M  V30 1753 H 170.589 -0.966269 -1.39504 0
M  V30 1754 H 169.361 -1.94692 -3.39427 0
M  V30 1755 H 168.984 -0.328732 -3.96239 0
M  V30 1756 N 169.982 1.44106 -0.638065 0
M  V30 1757 C 170.892 2.34513 0.0637334 0
M  V30 1758 C 171.908 1.53018 0.828346 0
M  V30 1759 O 173.084 1.85723 0.779036 0
M  V30 1760 C 170.149 3.31095 1.02844 0
M  V30 1761 C 169.21 4.28497 0.26244 0
M  V30 1762 C 168.443 5.20465 1.1812 0
M  V30 1763 O 168.666 5.16514 2.42011 0
M  V30 1764 O 167.6 5.98251 0.661774 0
M  V30 1765 H 171.426 2.95989 -0.68003 0
M  V30 1766 H 169.011 1.43994 -0.398252 0
M  V30 1767 H 170.893 3.90526 1.58327 0
M  V30 1768 H 169.568 2.72144 1.7527 0
M  V30 1769 H 168.475 3.72592 -0.335602 0
M  V30 1770 H 169.808 4.90388 -0.421936 0
M  V30 1771 N 171.46 0.379036 1.52974 0
M  V30 1772 C 172.706 -0.199244 2.02422 0
M  V30 1773 C 173.061 -1.4532 1.26095 0
M  V30 1774 O 172.354 -1.88377 0.34996 0
M  V30 1775 C 172.548 -0.53096 3.53434 0
M  V30 1776 C 172.377 0.689298 4.44386 0
M  V30 1777 C 171.147 1.20546 4.9071 0
M  V30 1778 C 173.345 1.55856 4.90116 0
M  V30 1779 N 171.327 2.38434 5.65705 0
M  V30 1780 C 172.698 2.58396 5.63588 0
M  V30 1781 C 174.753 1.57986 4.7217 0
M  V30 1782 C 173.456 3.62939 6.21022 0
M  V30 1783 C 175.482 2.6143 5.30479 0
M  V30 1784 C 174.844 3.62693 6.03849 0
M  V30 1785 H 170.943 -0.0352671 0.781204 0
M  V30 1786 H 173.527 0.526614 1.87443 0
M  V30 1787 H 171.698 -1.22588 3.68547 0
M  V30 1788 H 173.43 -1.0955 3.89591 0
M  V30 1789 H 170.185 0.768022 4.67331 0
M  V30 1790 H 170.609 2.98055 6.07859 0
M  V30 1791 H 175.251 0.810475 4.14959 0
M  V30 1792 H 172.969 4.40751 6.77321 0
M  V30 1793 H 176.555 2.63949 5.18481 0
M  V30 1794 H 175.435 4.41424 6.48163 0
M  V30 1795 N 172.938 -1.57226 0.108567 0
M  V30 1796 C 174.349 -1.8195 -0.418464 0
M  V30 1797 C 174.7 -1.02508 -1.67292 0
M  V30 1798 O 173.825 -0.258496 -2.14851 0
M  V30 1799 C 174.42 -3.30028 -0.765979 0
M  V30 1800 C 172.979 -3.55469 -1.23769 0
M  V30 1801 C 172.126 -2.7625 -0.241106 0
M  V30 1802 H 175.077 -1.55149 0.33384 0
M  V30 1803 H 175.098 -3.44086 -1.62434 0
M  V30 1804 H 174.61 -3.87821 0.147219 0
M  V30 1805 H 172.711 -3.03022 -2.16814 0
M  V30 1806 H 172.824 -4.6408 -1.19022 0
M  V30 1807 H 171.188 -2.44133 -0.72602 0
M  V30 1808 H 171.971 -3.36797 0.665007 0
M  V30 1809 N 174.416 0.165178 -1.56732 0
M  V30 1810 C 175.664 0.879068 -1.8198 0
M  V30 1811 C 175.985 1.82514 -0.686561 0
M  V30 1812 O 175.255 1.93694 0.293146 0
M  V30 1813 H 173.835 0.327608 -0.671329 0
M  V30 1814 H 176.497 0.163526 -1.94213 0
M  V30 1815 H 175.593 1.45228 -2.76252 0
M  V30 1816 N 175.894 1.51508 0.433938 0
M  V30 1817 C 177.143 1.63578 1.18005 0
M  V30 1818 C 177.456 0.359514 1.92268 0
M  V30 1819 O 178.662 0.359632 2.69108 0
M  V30 1820 C 177.118 2.88901 2.14626 0
M  V30 1821 C 176.726 4.23544 1.45995 0
M  V30 1822 C 178.47 3.10328 2.89649 0
M  V30 1823 C 176.377 5.40014 2.4112 0
M  V30 1824 H 175.307 0.609277 0.444182 0
M  V30 1825 H 177.958 1.77978 0.446773 0
M  V30 1826 H 176.34 2.68142 2.91403 0
M  V30 1827 H 177.514 4.54696 0.747532 0
M  V30 1828 H 175.829 4.08021 0.831115 0
M  V30 1829 H 178.426 3.94518 3.60915 0
M  V30 1830 H 178.769 2.23544 3.51189 0
M  V30 1831 H 179.302 3.31443 2.19978 0
M  V30 1832 H 176.041 6.29068 1.84264 0
M  V30 1833 H 175.561 5.13233 3.10406 0
M  V30 1834 H 177.24 5.72099 3.02177 0
M  V30 1835 N 177.372 -0.689602 1.41712 0
M  V30 1836 C 178.319 -1.80345 1.44029 0
M  V30 1837 C 179.289 -1.63478 0.293948 0
M  V30 1838 O 180.474 -1.84244 0.495869 0
M  V30 1839 C 177.614 -3.18272 1.33405 0
M  V30 1840 C 176.727 -3.46529 2.57956 0
M  V30 1841 C 175.862 -4.74103 2.39582 0
M  V30 1842 C 174.901 -4.95347 3.5958 0
M  V30 1843 N 174.038 -6.14151 3.40239 0
M  V30 1844 H 178.878 -1.77698 2.39222 0
M  V30 1845 H 176.415 -0.867688 1.18784 0
M  V30 1846 H 178.373 -3.97956 1.25246 0
M  V30 1847 H 177.003 -3.2008 0.418164 0
M  V30 1848 H 176.055 -2.61207 2.76542 0
M  V30 1849 H 177.367 -3.58126 3.47199 0
M  V30 1850 H 176.521 -5.61853 2.28924 0
M  V30 1851 H 175.26 -4.64763 1.47805 0
M  V30 1852 H 174.265 -4.06044 3.70686 0
M  V30 1853 H 175.49 -5.06542 4.52318 0
M  V30 1854 H 173.436 -6.06013 2.51167 0
M  V30 1855 H 173.353 -6.26543 4.23061 0
M  V30 1856 H 174.621 -7.04619 3.33365 0
M  V30 1857 N 178.85 -1.27639 -0.924453 0
M  V30 1858 C 180.261 -1.12834 -1.48746 0
M  V30 1859 C 180.612 0.285505 -1.94112 0
M  V30 1860 O 179.737 1.17874 -1.81479 0
M  V30 1861 C 180.332 -2.04217 -2.70334 0
M  V30 1862 C 178.891 -1.93509 -3.22848 0
M  V30 1863 C 178.038 -1.96583 -1.95577 0
M  V30 1864 H 180.989 -1.40484 -0.738233 0
M  V30 1865 H 181.01 -1.59989 -3.4523 0
M  V30 1866 H 180.522 -3.07111 -2.37285 0
M  V30 1867 H 178.623 -0.936131 -3.60649 0
M  V30 1868 H 178.736 -2.79917 -3.88823 0
M  V30 1869 H 177.1 -1.4085 -2.12211 0
M  V30 1870 H 177.883 -3.01137 -1.64837 0
M  V30 1871 N 180.328 1.1314 -1.09713 0
M  V30 1872 C 181.605 1.80762 -0.747302 0
M  V30 1873 C 181.985 1.96663 0.767265 0
M  V30 1874 O 181.333 1.53706 1.69076 0
M  V30 1875 C 181.543 3.15606 -1.48975 0
M  V30 1876 C 182.891 3.90914 -1.65746 0
M  V30 1877 O 183.915 3.25239 -1.45251 0
M  V30 1878 O 182.774 5.08718 -1.9967 0
M  V30 1879 H 179.868 0.782103 -0.268782 0
M  V30 1880 H 182.414 1.20041 -1.19951 0
M  V30 1881 H 181.186 2.99278 -2.52088 0
M  V30 1882 H 180.809 3.84029 -1.02991 0
M  V30 1883 N 181.806 0.884767 1.30421 0
M  V30 1884 C 183.052 0.503851 1.96441 0
M  V30 1885 C 183.385 -0.944518 1.69684 0
M  V30 1886 O 182.66 -1.66737 1.00145 0
M  V30 1887 C 182.943 0.779085 3.51571 0
M  V30 1888 C 182.796 2.27807 3.87846 0
M  V30 1889 C 184.115 0.255452 4.39358 0
M  V30 1890 H 181.234 0.184533 0.713524 0
M  V30 1891 H 183.876 1.10872 1.54297 0
M  V30 1892 H 182.026 0.264274 3.876 0
M  V30 1893 H 183.698 2.86127 3.61841 0
M  V30 1894 H 181.941 2.74479 3.35922 0
M  V30 1895 H 182.612 2.42125 4.96064 0
M  V30 1896 H 185.088 0.696079 4.10236 0
M  V30 1897 H 183.964 0.477361 5.4682 0
M  V30 1898 H 184.225 -0.843293 4.33983 0
M  V30 1899 N 183.284 -1.43765 0.645699 0
M  V30 1900 C 184.214 -2.33471 -0.0370477 0
M  V30 1901 C 185.195 -1.49042 -0.819779 0
M  V30 1902 O 186.38 -1.77726 -0.782758 0
M  V30 1903 C 183.51 -3.32311 -1.0093 0
M  V30 1904 C 182.464 -4.2667 -0.337201 0
M  V30 1905 C 181.79 -5.1549 -1.42037 0
M  V30 1906 C 183.09 -5.16657 0.765706 0
M  V30 1907 H 184.784 -2.90809 0.712069 0
M  V30 1908 H 182.33 -1.39834 0.343876 0
M  V30 1909 H 184.283 -3.9396 -1.49578 0
M  V30 1910 H 183.007 -2.73213 -1.78948 0
M  V30 1911 H 181.666 -3.66374 0.128771 0
M  V30 1912 H 181.314 -4.52735 -2.1918 0
M  V30 1913 H 181.014 -5.79438 -0.975966 0
M  V30 1914 H 182.538 -5.80012 -1.90838 0
M  V30 1915 H 183.952 -5.72158 0.361702 0
M  V30 1916 H 182.349 -5.89286 1.13413 0
M  V30 1917 H 183.419 -4.56796 1.62683 0
M  V30 1918 N 184.763 -0.387143 -1.52771 0
M  V30 1919 C 185.726 0.436939 -2.24997 0
M  V30 1920 C 186.726 0.991991 -1.26555 0
M  V30 1921 O 187.916 0.874335 -1.50669 0
M  V30 1922 C 185.048 1.61281 -3.00335 0
M  V30 1923 H 186.241 -0.195365 -2.99263 0
M  V30 1924 H 183.794 -0.139218 -1.55679 0
M  V30 1925 H 184.529 2.2826 -2.30364 0
M  V30 1926 H 184.314 1.22154 -3.72587 0
M  V30 1927 H 185.804 2.19629 -3.5518 0
M  V30 1928 N 186.241 1.57166 -0.116904 0
M  V30 1929 C 187.489 1.94737 0.540533 0
M  V30 1930 C 187.81 1.00096 1.67349 0
M  V30 1931 O 187.08 0.0568854 1.95817 0
M  V30 1932 H 185.66 0.718981 0.202669 0
M  V30 1933 H 188.322 1.94017 -0.185353 0
M  V30 1934 H 187.418 2.97719 0.936483 0
M  V30 1935 N 187.719 -0.156864 1.56817 0
M  V30 1936 C 188.966 -0.871125 1.82805 0
M  V30 1937 C 189.294 -1.81611 0.696262 0
M  V30 1938 O 188.549 -1.93141 -0.315459 0
M  V30 1939 C 188.848 -1.68737 3.1506 0
M  V30 1940 C 188.514 -0.890045 4.42028 0
M  V30 1941 C 187.176 -0.670042 4.76512 0
M  V30 1942 C 189.528 -0.331769 5.20143 0
M  V30 1943 C 186.856 0.119104 5.86579 0
M  V30 1944 C 189.208 0.444365 6.31037 0
M  V30 1945 C 187.872 0.675035 6.64078 0
M  V30 1946 H 187.142 -0.318767 0.668931 0
M  V30 1947 H 189.789 -0.135274 1.91022 0
M  V30 1948 H 188.094 -2.49304 3.0225 0
M  V30 1949 H 189.791 -2.24331 3.3238 0
M  V30 1950 H 186.381 -1.07157 4.14988 0
M  V30 1951 H 190.565 -0.489043 4.93885 0
M  V30 1952 H 185.821 0.307417 6.10627 0
M  V30 1953 H 189.995 0.884139 6.90765 0
M  V30 1954 H 187.622 1.28839 7.49203 0
M  V30 1955 N 189.197 -1.51736 -0.425897 0
M  V30 1956 C 190.129 -1.70083 -1.53638 0
M  V30 1957 C 191.142 -0.581349 -1.52066 0
M  V30 1958 O 192.331 -0.856017 -1.56635 0
M  V30 1959 C 189.431 -1.71078 -2.9255 0
M  V30 1960 C 188.604 -2.99795 -3.185 0
M  V30 1961 C 187.663 -2.92825 -4.37196 0
M  V30 1962 O 186.689 -3.66756 -4.35291 0
M  V30 1963 N 187.891 -2.0946 -5.41393 0
M  V30 1964 H 190.656 -2.65882 -1.383 0
M  V30 1965 H 188.217 -1.49765 -0.614988 0
M  V30 1966 H 190.209 -1.63969 -3.69995 0
M  V30 1967 H 188.779 -0.828242 -3.01428 0
M  V30 1968 H 187.999 -3.20684 -2.2925 0
M  V30 1969 H 189.287 -3.84977 -3.32671 0
M  V30 1970 H 188.685 -1.48792 -5.45781 0
M  V30 1971 H 187.242 -2.08221 -6.17647 0
M  V30 1972 N 190.675 0.682077 -1.42076 0
M  V30 1973 C 191.607 1.80755 -1.40926 0
M  V30 1974 C 192.62 1.59833 -0.309398 0
M  V30 1975 O 193.809 1.69087 -0.572014 0
M  V30 1976 C 190.909 3.17744 -1.17865 0
M  V30 1977 C 190.082 3.65578 -2.40149 0
M  V30 1978 C 189.141 4.81277 -2.12742 0
M  V30 1979 O 188.167 4.92197 -2.85887 0
M  V30 1980 N 189.369 5.69474 -1.12602 0
M  V30 1981 H 192.134 1.82229 -2.37935 0
M  V30 1982 H 189.695 0.864903 -1.36861 0
M  V30 1983 H 191.687 3.9279 -0.9746 0
M  V30 1984 H 190.257 3.11214 -0.294068 0
M  V30 1985 H 189.477 2.81291 -2.76169 0
M  V30 1986 H 190.765 3.94278 -3.21593 0
M  V30 1987 H 190.163 5.63297 -0.520899 0
M  V30 1988 H 188.72 6.44363 -0.981842 0
M  V30 1989 N 192.153 1.28127 0.917671 0
M  V30 1990 C 193.085 1.07517 2.02417 0
M  V30 1991 C 194.098 0.0281099 1.62776 0
M  V30 1992 O 195.287 0.270748 1.76435 0
M  V30 1993 C 192.387 0.610957 3.33347 0
M  V30 1994 C 191.56 1.73255 4.01624 0
M  V30 1995 C 190.619 1.26238 5.10833 0
M  V30 1996 O 189.645 1.96389 5.34247 0
M  V30 1997 N 190.847 0.123448 5.80369 0
M  V30 1998 H 193.612 2.02806 2.20658 0
M  V30 1999 H 191.173 1.19827 1.08871 0
M  V30 2000 H 193.165 0.280101 4.0373 0
M  V30 2001 H 191.735 -0.24898 3.11607 0
M  V30 2002 H 190.955 2.23319 3.24842 0
M  V30 2003 H 192.243 2.48503 4.43986 0
M  V30 2004 H 191.641 -0.461847 5.63812 0
M  V30 2005 H 190.198 -0.148158 6.51632 0
M  V30 2006 N 193.631 -1.12557 1.10312 0
M  V30 2007 C 194.561 -2.20341 0.772798 0
M  V30 2008 C 195.542 -1.68198 -0.25365 0
M  V30 2009 O 196.727 -1.93831 -0.119699 0
M  V30 2010 C 193.857 -3.46709 0.202443 0
M  V30 2011 C 192.811 -4.11996 1.15943 0
M  V30 2012 C 192.137 -5.328 0.450345 0
M  V30 2013 C 193.437 -4.5828 2.50552 0
M  V30 2014 H 195.131 -2.48229 1.674 0
M  V30 2015 H 192.677 -1.19308 0.806326 0
M  V30 2016 H 194.63 -4.2138 -0.0407752 0
M  V30 2017 H 193.354 -3.18245 -0.734001 0
M  V30 2018 H 192.013 -3.39305 1.38808 0
M  V30 2019 H 191.661 -5.00602 -0.490531 0
M  V30 2020 H 191.361 -5.7743 1.08851 0
M  V30 2021 H 192.885 -6.10219 0.215642 0
M  V30 2022 H 194.299 -5.2433 2.31843 0
M  V30 2023 H 192.696 -5.13683 3.10242 0
M  V30 2024 H 193.766 -3.72329 3.10643 0
M  V30 2025 N 195.109 -0.891671 -1.2995 0
M  V30 2026 C 196.334 -0.527932 -2.00568 0
M  V30 2027 C 196.759 0.877969 -1.66353 0
M  V30 2028 O 196.117 1.58301 -0.883762 0
M  V30 2029 C 196.165 -0.717745 -3.53385 0
M  V30 2030 O 195.269 0.233376 -4.11739 0
M  V30 2031 H 194.61 -0.20722 -0.630837 0
M  V30 2032 H 197.14 -1.20105 -1.65638 0
M  V30 2033 H 197.15 -0.619307 -4.03272 0
M  V30 2034 H 195.825 -1.74276 -3.77625 0
M  V30 2035 H 194.402 0.0880706 -3.72796 0
M  V30 2036 N 196.587 1.43421 -0.653314 0
M  V30 2037 C 197.864 1.95361 -0.0966581 0
M  V30 2038 C 198.244 1.59461 1.38331 0
M  V30 2039 O 197.592 0.879777 2.10884 0
M  V30 2040 C 197.802 3.47311 -0.342988 0
M  V30 2041 C 199.15 4.23875 -0.24798 0
M  V30 2042 O 200.174 3.55133 -0.275553 0
M  V30 2043 O 199.033 5.4623 -0.171771 0
M  V30 2044 H 196.127 0.826945 0.00956291 0
M  V30 2045 H 198.673 1.5336 -0.726558 0
M  V30 2046 H 197.445 3.66569 -1.36906 0
M  V30 2047 H 197.068 3.9631 0.319975 0
M  V30 2048 N 198.065 0.39524 1.52563 0
M  V30 2049 C 199.342 -0.242908 1.94086 0
M  V30 2050 C 199.722 -1.63841 1.33114 0
M  V30 2051 O 199.07 -2.22928 0.501529 0
M  V30 2052 C 199.28 -0.26327 3.48006 0
M  V30 2053 C 200.628 -0.489354 4.21771 0
M  V30 2054 O 201.652 -0.343226 3.54543 0
M  V30 2055 O 200.511 -0.776169 5.4096 0
M  V30 2056 H 197.605 -0.152536 0.812811 0
M  V30 2057 H 200.151 0.450178 1.6362 0
M  V30 2058 H 198.923 0.713985 3.84731 0
M  V30 2059 H 198.546 -1.00103 3.84792 0
M  V30 2060 N 199.544 -1.57102 0.125237 0
M  V30 2061 C 200.791 -1.95407 -0.531248 0
M  V30 2062 C 201.119 -1.0089 -1.66287 0
M  V30 2063 O 200.374 -0.0339431 -1.95671 0
M  V30 2064 C 200.673 -3.40096 -1.09862 0
M  V30 2065 C 200.339 -4.50815 -0.0876989 0
M  V30 2066 C 199.001 -4.80824 0.19026 0
M  V30 2067 C 201.353 -5.17724 0.600902 0
M  V30 2068 C 198.681 -5.75058 1.163 0
M  V30 2069 C 201.033 -6.13005 1.56231 0
M  V30 2070 C 199.697 -6.41403 1.8482 0
M  V30 2071 H 198.967 -0.715046 -0.194397 0
M  V30 2072 H 201.614 -1.90373 0.207463 0
M  V30 2073 H 199.919 -3.41855 -1.91422 0
M  V30 2074 H 201.616 -3.6705 -1.61478 0
M  V30 2075 H 198.206 -4.27444 -0.314528 0
M  V30 2076 H 202.39 -4.94691 0.399333 0
M  V30 2077 H 197.646 -5.95362 1.39117 0
M  V30 2078 H 201.82 -6.63934 2.10153 0
M  V30 2079 H 199.447 -7.14229 2.60349 0
M  V30 2080 N 201.022 0.148545 -1.56898 0
M  V30 2081 C 201.954 1.20852 -1.9475 0
M  V30 2082 C 202.967 1.39265 -0.843152 0
M  V30 2083 O 204.156 1.38864 -1.12156 0
M  V30 2084 C 201.256 2.57362 -2.20495 0
M  V30 2085 C 200.429 2.59947 -3.51776 0
M  V30 2086 C 199.488 3.77984 -3.6608 0
M  V30 2087 O 198.514 3.62929 -4.38487 0
M  V30 2088 N 199.716 4.95375 -3.02629 0
M  V30 2089 H 202.481 0.886804 -2.86279 0
M  V30 2090 H 200.042 0.338121 -1.5833 0
M  V30 2091 H 202.034 3.34833 -2.27307 0
M  V30 2092 H 200.604 2.81832 -1.35238 0
M  V30 2093 H 199.824 1.68403 -3.56419 0
M  V30 2094 H 201.112 2.58704 -4.38121 0
M  V30 2095 H 200.51 5.10509 -2.43715 0
M  V30 2096 H 199.067 5.70627 -3.15004 0
M  V30 2097 N 202.5 1.5196 0.417844 0
M  V30 2098 C 203.916 1.40569 0.755816 0
M  V30 2099 C 204.116 0.503316 1.95113 0
M  V30 2100 O 203.172 -0.0341925 2.52477 0
M  V30 2101 C 204.485 2.82947 1.01791 0
M  V30 2102 C 206.033 2.92231 1.12116 0
M  V30 2103 C 206.508 4.35559 1.41608 0
M  V30 2104 N 207.999 4.38753 1.48491 0
M  V30 2105 C 208.734 5.46705 1.7292 0
M  V30 2106 N 208.23 6.64788 1.95011 0
M  V30 2107 N 210.023 5.34209 1.74863 0
M  V30 2108 H 202.174 2.09168 -0.369098 0
M  V30 2109 H 204.437 0.942409 -0.102809 0
M  V30 2110 H 204.143 3.5106 0.212081 0
M  V30 2111 H 204.017 3.23462 1.94042 0
M  V30 2112 H 206.404 2.24304 1.9176 0
M  V30 2113 H 206.485 2.55185 0.177225 0
M  V30 2114 H 206.129 5.04042 0.624848 0
M  V30 2115 H 206.059 4.70133 2.37239 0
M  V30 2116 H 208.55 3.5363 1.33244 0
M  V30 2117 H 208.863 7.42845 2.13076 0
M  V30 2118 H 207.208 6.67869 1.92293 0
M  V30 2119 H 210.399 4.40937 1.57137 0
M  V30 2120 H 210.572 6.18415 1.93563 0
M  V30 2121 N 203.978 -0.674533 1.42435 0
M  V30 2122 C 205.206 -1.46283 1.46317 0
M  V30 2123 C 205.621 -1.88653 0.0745836 0
M  V30 2124 O 204.978 -1.58151 -0.91074 0
M  V30 2125 C 205.029 -2.71178 2.3905 0
M  V30 2126 O 204.75 -2.30586 3.72507 0
M  V30 2127 C 206.251 -3.64738 2.51955 0
M  V30 2128 H 203.471 -0.450104 0.497642 0
M  V30 2129 H 206.015 -0.828792 1.86953 0
M  V30 2130 H 204.17 -3.3077 2.01667 0
M  V30 2131 H 204.584 -3.11241 4.22172 0
M  V30 2132 H 206.058 -4.49096 3.20962 0
M  V30 2133 H 206.535 -4.10656 1.55752 0
M  V30 2134 H 207.141 -3.11038 2.90061 0
M  V30 2135 N 205.456 -1.28612 -0.910864 0
M  V30 2136 C 206.702 -1.16106 -1.66274 0
M  V30 2137 C 207.035 0.289113 -1.92036 0
M  V30 2138 O 206.31 1.21 -1.52281 0
M  V30 2139 C 206.593 -1.96309 -3.01885 0
M  V30 2140 C 206.446 -3.49405 -2.8326 0
M  V30 2141 C 207.765 -1.78076 -4.02463 0
M  V30 2142 H 204.884 -0.423152 -0.603417 0
M  V30 2143 H 207.526 -1.57961 -1.05586 0
M  V30 2144 H 205.676 -1.60742 -3.53687 0
M  V30 2145 H 207.348 -3.94894 -2.38446 0
M  V30 2146 H 205.591 -3.74893 -2.18261 0
M  V30 2147 H 206.262 -4.00784 -3.79574 0
M  V30 2148 H 208.738 -2.0912 -3.59733 0
M  V30 2149 H 207.614 -2.36561 -4.95308 0
M  V30 2150 H 207.875 -0.733008 -4.35981 0
M  V30 2151 N 206.934 1.1197 -1.10907 0
M  V30 2152 C 207.844 2.21433 -0.774896 0
M  V30 2153 C 208.86 1.72478 0.229657 0
M  V30 2154 O 210.036 2.01288 0.0672008 0
M  V30 2155 C 207.101 3.4602 -0.216986 0
M  V30 2156 C 206.162 4.09791 -1.27944 0
M  V30 2157 C 205.395 5.28431 -0.748055 0
M  V30 2158 O 205.618 5.68823 0.423833 0
M  V30 2159 O 204.552 5.82644 -1.51027 0
M  V30 2160 H 208.378 2.5242 -1.68873 0
M  V30 2161 H 205.963 1.20399 -0.884555 0
M  V30 2162 H 207.845 4.21304 0.090059 0
M  V30 2163 H 206.52 3.16698 0.669633 0
M  V30 2164 H 205.427 3.36265 -1.63941 0
M  V30 2165 H 206.76 4.4328 -2.13925 0
M  V30 2166 N 208.412 0.89855 1.29475 0
M  V30 2167 C 209.828 0.594483 1.48115 0
M  V30 2168 C 210.028 -0.86431 1.82022 0
M  V30 2169 O 209.084 -1.64457 1.91599 0
M  V30 2170 C 210.397 1.51932 2.59494 0
M  V30 2171 C 211.945 1.5244 2.7337 0
M  V30 2172 C 212.42 2.43548 3.87877 0
M  V30 2173 N 213.911 2.41589 3.95208 0
M  V30 2174 C 214.646 3.08789 4.83153 0
M  V30 2175 N 214.142 3.85265 5.75798 0
M  V30 2176 N 215.935 2.97952 4.76635 0
M  V30 2177 H 208.086 1.84207 1.05742 0
M  V30 2178 H 210.349 0.789251 0.525154 0
M  V30 2179 H 210.055 2.55865 2.41301 0
M  V30 2180 H 209.929 1.23899 3.56271 0
M  V30 2181 H 212.316 0.492518 2.90961 0
M  V30 2182 H 212.397 1.8451 1.77172 0
M  V30 2183 H 212.041 3.46829 3.71041 0
M  V30 2184 H 211.971 2.08788 4.83441 0
M  V30 2185 H 214.462 1.86025 3.28943 0
M  V30 2186 H 214.775 4.33598 6.39697 0
M  V30 2187 H 213.12 3.89371 5.75687 0
M  V30 2188 H 216.311 2.37723 4.03244 0
M  V30 2189 H 216.484 3.50599 5.44962 0
M  V30 2190 N 209.89 -1.43072 0.660911 0
M  V30 2191 C 211.137 -2.01721 0.177445 0
M  V30 2192 C 211.465 -1.5218 -1.21126 0
M  V30 2193 O 210.72 -0.708659 -1.82419 0
M  V30 2194 C 211.019 -3.57103 0.145563 0
M  V30 2195 C 210.685 -4.26021 1.47705 0
M  V30 2196 C 209.347 -4.44563 1.84165 0
M  V30 2197 C 211.699 -4.64983 2.35458 0
M  V30 2198 C 209.027 -4.99334 3.0803 0
M  V30 2199 C 211.379 -5.21127 3.58622 0
M  V30 2200 C 210.043 -5.37884 3.95268 0
M  V30 2201 H 209.313 -0.73815 0.0649317 0
M  V30 2202 H 211.96 -1.71446 0.853144 0
M  V30 2203 H 210.265 -3.86965 -0.61361 0
M  V30 2204 H 211.962 -4.00248 -0.2455 0
M  V30 2205 H 208.552 -4.11939 1.18339 0
M  V30 2206 H 212.736 -4.50343 2.08579 0
M  V30 2207 H 207.992 -5.10493 3.36462 0
M  V30 2208 H 212.166 -5.50262 4.26831 0
M  V30 2209 H 209.793 -5.80089 4.91325 0
M  V30 2210 N 211.368 -0.403325 -1.52352 0
M  V30 2211 C 212.298 0.416205 -2.29761 0
M  V30 2212 C 213.279 1.05123 -1.33728 0
M  V30 2213 O 214.464 1.06134 -1.62632 0
M  V30 2214 C 211.594 1.53624 -3.11475 0
M  V30 2215 C 210.548 1.02653 -4.15507 0
M  V30 2216 C 209.874 2.23971 -4.85532 0
M  V30 2217 C 211.174 0.08463 -5.22231 0
M  V30 2218 H 212.868 -0.229701 -2.98518 0
M  V30 2219 H 210.414 -0.111913 -1.43564 0
M  V30 2220 H 212.367 2.1165 -3.64393 0
M  V30 2221 H 211.091 2.20994 -2.40477 0
M  V30 2222 H 209.75 0.46871 -3.63591 0
M  V30 2223 H 209.398 2.89883 -4.11068 0
M  V30 2224 H 209.098 1.90521 -5.55856 0
M  V30 2225 H 210.622 2.82614 -5.41259 0
M  V30 2226 H 212.036 0.573509 -5.70424 0
M  V30 2227 H 210.433 -0.160783 -5.99885 0
M  V30 2228 H 211.503 -0.86237 -4.7717 0
M  V30 2229 N 212.846 1.57033 -0.133567 0
M  V30 2230 C 213.809 2.14897 0.796995 0
M  V30 2231 C 214.809 1.0874 1.18458 0
M  V30 2232 O 215.999 1.34446 1.1077 0
M  V30 2233 C 213.131 2.70112 2.07973 0
M  V30 2234 H 214.324 2.98457 0.293873 0
M  V30 2235 H 211.877 1.55871 0.115787 0
M  V30 2236 H 212.612 1.9018 2.62682 0
M  V30 2237 H 212.397 3.47764 1.81115 0
M  V30 2238 H 213.887 3.14738 2.74462 0
M  V30 2239 N 214.325 -0.140222 1.56975 0
M  V30 2240 C 215.255 -1.17456 2.01808 0
M  V30 2241 C 216.236 -1.44415 0.898794 0
M  V30 2242 O 217.421 -1.5522 1.16707 0
M  V30 2243 C 214.551 -2.50607 2.40444 0
M  V30 2244 C 213.505 -2.38155 3.55621 0
M  V30 2245 C 212.831 -3.76078 3.80091 0
M  V30 2246 C 214.131 -1.85991 4.88062 0
M  V30 2247 H 215.825 -0.801743 2.88466 0
M  V30 2248 H 213.371 -0.38422 1.38779 0
M  V30 2249 H 215.324 -3.23197 2.7041 0
M  V30 2250 H 214.048 -2.89737 1.50732 0
M  V30 2251 H 212.707 -1.68016 3.25832 0
M  V30 2252 H 212.355 -4.12656 2.87618 0
M  V30 2253 H 212.055 -3.68606 4.57606 0
M  V30 2254 H 213.579 -4.50206 4.12488 0
M  V30 2255 H 214.993 -2.4838 5.16701 0
M  V30 2256 H 213.39 -1.89393 5.6943 0
M  V30 2257 H 214.46 -0.816023 4.77984 0
M  V30 2258 N 215.803 -1.52179 -0.40978 0
M  V30 2259 C 216.735 -1.71703 -1.51825 0
M  V30 2260 C 217.748 -0.597445 -1.51441 0
M  V30 2261 O 218.937 -0.872582 -1.55719 0
M  V30 2262 C 216.037 -1.74171 -2.90719 0
M  V30 2263 C 215.21 -3.03156 -3.15302 0
M  V30 2264 C 214.269 -2.97445 -4.34065 0
M  V30 2265 O 213.295 -3.71352 -4.31377 0
M  V30 2266 N 214.497 -2.15191 -5.39141 0
M  V30 2267 H 217.262 -2.67334 -1.35472 0
M  V30 2268 H 214.823 -1.50409 -0.599069 0
M  V30 2269 H 216.815 -1.67884 -3.68235 0
M  V30 2270 H 215.385 -0.860166 -3.00533 0
M  V30 2271 H 214.605 -3.23097 -2.25836 0
M  V30 2272 H 215.893 -3.88484 -3.28569 0
M  V30 2273 H 215.291 -1.54573 -5.44173 0
M  V30 2274 H 213.848 -2.1476 -6.15403 0
M  V30 2275 N 217.281 0.66697 -1.42791 0
M  V30 2276 C 218.509 1.45505 -1.47091 0
M  V30 2277 C 218.924 1.8861 -0.0845873 0
M  V30 2278 O 218.281 1.58632 0.90234 0
M  V30 2279 C 218.332 2.69906 -2.40485 0
M  V30 2280 O 218.053 2.28608 -3.73725 0
M  V30 2281 C 219.554 3.63396 -2.53886 0
M  V30 2282 H 216.774 0.447459 -0.500022 0
M  V30 2283 H 219.318 0.818866 -1.8739 0
M  V30 2284 H 217.473 3.29696 -2.03419 0
M  V30 2285 H 217.887 3.08997 -4.23817 0
M  V30 2286 H 219.361 4.47387 -3.2334 0
M  V30 2287 H 219.838 4.09824 -1.57927 0
M  V30 2288 H 220.444 3.09495 -2.91706 0
M  V30 2289 N 218.759 1.29093 0.90403 0
M  V30 2290 C 219.692 1.08176 2.00931 0
M  V30 2291 C 220.67 -0.005083 1.62599 0
M  V30 2292 O 221.854 0.144765 1.87943 0
M  V30 2293 C 218.981 0.645897 3.32484 0
M  V30 2294 C 218.027 1.73081 3.89801 0
M  V30 2295 S 218.86 3.32905 4.19446 0
M  V30 2296 C 220.016 2.91176 5.54046 0
M  V30 2297 H 220.249 2.01752 2.18365 0
M  V30 2298 H 217.782 1.13191 1.0501 0
M  V30 2299 H 219.74 0.401131 4.08535 0
M  V30 2300 H 218.401 -0.270188 3.12936 0
M  V30 2301 H 217.594 1.37768 4.84805 0
M  V30 2302 H 217.196 1.92888 3.20422 0
M  V30 2303 H 219.488 2.37952 6.34338 0
M  V30 2304 H 220.431 3.85014 5.94281 0
M  V30 2305 H 220.839 2.296 5.15698 0
M  V30 2306 N 220.237 -1.11381 1.11499 0
M  V30 2307 C 221.485 -1.8277 0.862524 0
M  V30 2308 C 221.806 -1.85097 -0.613534 0
M  V30 2309 O 221.076 -1.32198 -1.4457 0
M  V30 2310 H 219.656 -0.676823 0.316101 0
M  V30 2311 H 222.318 -1.34816 1.4075 0
M  V30 2312 H 221.414 -2.86614 1.23527 0
M  V30 2313 N 221.715 -0.905404 -1.28997 0
M  V30 2314 C 222.943 -0.549846 -1.9946 0
M  V30 2315 C 223.358 0.866834 -1.67724 0
M  V30 2316 O 222.715 1.57298 -0.925404 0
M  V30 2317 C 222.766 -0.739387 -3.53858 0
M  V30 2318 O 222.487 -2.10031 -3.84472 0
M  V30 2319 C 223.988 -0.389541 -4.41585 0
M  V30 2320 H 221.208 -0.210429 -0.637151 0
M  V30 2321 H 223.752 -1.21632 -1.64396 0
M  V30 2322 H 221.907 -0.120023 -3.87214 0
M  V30 2323 H 222.321 -2.13385 -4.79132 0
M  V30 2324 H 223.795 -0.572972 -5.49018 0
M  V30 2325 H 224.272 0.673756 -4.34001 0
M  V30 2326 H 224.878 -0.986089 -4.1371 0
M  V30 2327 N 223.193 1.4272 -0.668489 0
M  V30 2328 C 224.103 2.34596 0.0139753 0
M  V30 2329 C 225.119 1.5474 0.795703 0
M  V30 2330 O 226.295 1.87334 0.739466 0
M  V30 2331 C 223.36 3.33202 0.957982 0
M  V30 2332 C 222.421 4.28957 0.17149 0
M  V30 2333 C 221.654 5.22853 1.07053 0
M  V30 2334 O 221.877 5.21531 2.31001 0
M  V30 2335 O 220.811 5.9952 0.534727 0
M  V30 2336 H 224.637 2.9448 -0.742661 0
M  V30 2337 H 222.222 1.43117 -0.428705 0
M  V30 2338 H 224.104 3.93796 1.50008 0
M  V30 2339 H 222.779 2.758 1.69458 0
M  V30 2340 H 221.686 3.71796 -0.414558 0
M  V30 2341 H 223.019 4.89383 -0.52586 0
M  V30 2342 N 224.671 0.411399 1.52136 0
M  V30 2343 C 225.899 -0.163076 2.06256 0
M  V30 2344 C 226.314 -1.3867 1.28125 0
M  V30 2345 O 225.671 -1.79423 0.333721 0
M  V30 2346 C 225.722 -0.511252 3.57867 0
M  V30 2347 O 225.443 0.66378 4.33042 0
M  V30 2348 C 226.944 -1.13921 4.28412 0
M  V30 2349 H 224.164 -0.0193897 0.67072 0
M  V30 2350 H 226.708 0.583007 1.96013 0
M  V30 2351 H 224.863 -1.20723 3.6811 0
M  V30 2352 H 225.277 0.372601 5.23175 0
M  V30 2353 H 226.751 -1.33302 5.35663 0
M  V30 2354 H 227.228 -2.11296 3.85033 0
M  V30 2355 H 227.834 -0.483373 4.22544 0
M  V30 2356 N 226.149 -1.5696 0.141893 0
M  V30 2357 C 227.112 -2.15316 -0.785587 0
M  V30 2358 C 228.112 -1.09366 -1.1788 0
M  V30 2359 O 229.302 -1.35031 -1.10056 0
M  V30 2360 C 226.434 -2.71211 -2.06537 0
M  V30 2361 H 227.627 -2.98608 -0.278041 0
M  V30 2362 H 225.18 -1.5593 -0.107519 0
M  V30 2363 H 225.915 -1.91571 -2.6167 0
M  V30 2364 H 225.7 -3.4872 -1.79268 0
M  V30 2365 H 227.19 -3.16189 -2.72789 0
M  V30 2366 N 227.627 0.131896 -1.57047 0
M  V30 2367 C 229.043 0.485031 -1.52051 0
M  V30 2368 C 229.243 1.82563 -0.85281 0
M  V30 2369 O 228.299 2.48817 -0.429694 0
M  V30 2370 C 229.612 0.481409 -2.96821 0
M  V30 2371 C 231.16 0.565868 -3.07842 0
M  V30 2372 C 231.635 0.592762 -4.54148 0
M  V30 2373 N 233.126 0.654564 -4.58552 0
M  V30 2374 C 233.861 0.696608 -5.69153 0
M  V30 2375 N 233.357 0.697078 -6.89284 0
M  V30 2376 N 235.15 0.738639 -5.57226 0
M  V30 2377 H 227.301 -0.746664 -1.98843 0
M  V30 2378 H 229.564 -0.273999 -0.90754 0
M  V30 2379 H 229.27 -0.435731 -3.4899 0
M  V30 2380 H 229.144 1.3139 -3.53577 0
M  V30 2381 H 231.531 1.47343 -2.55684 0
M  V30 2382 H 231.612 -0.29406 -2.54104 0
M  V30 2383 H 231.256 -0.310701 -5.06949 0
M  V30 2384 H 231.186 1.46939 -5.05684 0
M  V30 2385 H 233.677 0.660887 -3.72076 0
M  V30 2386 H 233.99 0.731426 -7.69331 0
M  V30 2387 H 232.335 0.66471 -6.91814 0
M  V30 2388 H 235.526 0.735545 -4.62285 0
M  V30 2389 H 235.699 0.767938 -6.43434 0
M  V30 2390 N 229.106 1.52395 0.401703 0
M  V30 2391 C 230.038 1.72505 1.50912 0
M  V30 2392 C 231.051 0.605468 1.51122 0
M  V30 2393 O 232.24 0.880828 1.55254 0
M  V30 2394 C 229.34 1.75711 2.89791 0
M  V30 2395 C 228.513 3.04824 3.1369 0
M  V30 2396 C 227.572 2.99743 4.32482 0
M  V30 2397 O 226.598 3.73635 4.29402 0
M  V30 2398 N 227.8 2.18047 5.37992 0
M  V30 2399 H 230.565 2.68049 1.34052 0
M  V30 2400 H 228.126 1.50724 0.591084 0
M  V30 2401 H 230.118 1.69834 3.6734 0
M  V30 2402 H 228.688 0.876092 3.00072 0
M  V30 2403 H 227.908 3.2429 2.24119 0
M  V30 2404 H 229.196 3.90221 3.26504 0
M  V30 2405 H 228.594 1.57456 5.43345 0
M  V30 2406 H 227.151 2.18021 6.14256 0
M  V30 2407 N 230.584 -0.659388 1.43143 0
M  V30 2408 C 231.861 -1.41627 1.34912 0
M  V30 2409 C 232.241 -2.11099 -0.00607785 0
M  V30 2410 O 231.589 -2.04353 -1.02236 0
M  V30 2411 C 231.799 -2.40604 2.52805 0
M  V30 2412 C 233.147 -3.04789 2.95616 0
M  V30 2413 O 234.171 -2.50932 2.52807 0
M  V30 2414 O 233.03 -4.02421 3.69756 0
M  V30 2415 H 230.124 -0.63246 0.532844 0
M  V30 2416 H 232.67 -0.686814 1.5518 0
M  V30 2417 H 231.442 -1.88174 3.43083 0
M  V30 2418 H 231.065 -3.21009 2.34604 0
M  V30 2419 N 232.062 -1.29571 -0.897171 0
M  V30 2420 C 233.025 -1.14913 -1.98312 0
M  V30 2421 C 234.025 -0.0838629 -1.60581 0
M  V30 2422 O 235.215 -0.331006 -1.71026 0
M  V30 2423 C 232.347 -0.757835 -3.3237 0
M  V30 2424 H 233.54 -2.11377 -2.12743 0
M  V30 2425 H 231.093 -1.12793 -1.08201 0
M  V30 2426 H 231.828 0.206837 -3.2364 0
M  V30 2427 H 231.613 -1.52755 -3.61121 0
M  V30 2428 H 233.103 -0.678408 -4.12053 0
M  V30 2429 N 233.54 1.10788 -1.12088 0
M  V30 2430 C 234.956 1.34691 -0.856186 0
M  V30 2431 C 235.156 1.94791 0.515615 0
M  V30 2432 O 234.212 2.18524 1.26505 0
M  V30 2433 C 235.525 2.27208 -1.9697 0
M  V30 2434 C 237.073 2.40755 -2.00016 0
M  V30 2435 C 237.548 3.36598 -3.1059 0
M  V30 2436 N 239.039 3.44164 -3.10008 0
M  V30 2437 C 239.774 4.18284 -3.92206 0
M  V30 2438 N 239.27 4.95322 -4.84384 0
M  V30 2439 N 241.063 4.13865 -3.80357 0
M  V30 2440 H 233.214 0.70144 -2.00483 0
M  V30 2441 H 235.477 0.371405 -0.872217 0
M  V30 2442 H 235.183 1.90251 -2.958 0
M  V30 2443 H 235.057 3.27485 -1.87172 0
M  V30 2444 H 237.444 2.76982 -1.01808 0
M  V30 2445 H 237.525 1.40305 -2.13888 0
M  V30 2446 H 237.169 3.01096 -4.09028 0
M  V30 2447 H 237.099 4.36918 -2.93956 0
M  V30 2448 H 239.59 2.8922 -2.43228 0
M  V30 2449 H 239.903 5.49267 -5.43623 0
M  V30 2450 H 238.248 4.94459 -4.884 0
M  V30 2451 H 241.439 3.52773 -3.07683 0
M  V30 2452 H 241.612 4.71372 -4.44649 0
M  V30 2453 N 235.018 0.912232 1.28515 0
M  V30 2454 C 235.981 0.404223 2.25607 0
M  V30 2455 C 236.981 -0.468602 1.53821 0
M  V30 2456 O 238.171 -0.271873 1.72065 0
M  V30 2457 C 235.303 -0.420653 3.38295 0
M  V30 2458 H 236.496 1.26188 2.7206 0
M  V30 2459 H 234.049 0.691495 1.40171 0
M  V30 2460 H 234.784 -1.29777 2.97201 0
M  V30 2461 H 234.569 0.204935 3.91564 0
M  V30 2462 H 236.059 -0.766971 4.10496 0
M  V30 2463 N 236.496 -1.42363 0.676048 0
M  V30 2464 C 237.426 -2.33497 0.0124832 0
M  V30 2465 C 238.407 -1.50748 -0.787981 0
M  V30 2466 O 239.592 -1.79346 -0.744884 0
M  V30 2467 C 236.722 -3.34377 -0.938582 0
M  V30 2468 C 235.676 -4.27289 -0.246622 0
M  V30 2469 C 235.002 -5.18386 -1.31071 0
M  V30 2470 C 236.302 -5.14916 0.875125 0
M  V30 2471 H 237.996 -2.89233 0.773593 0
M  V30 2472 H 235.542 -1.39073 0.37346 0
M  V30 2473 H 237.495 -3.97044 -1.41188 0
M  V30 2474 H 236.219 -2.76947 -1.73113 0
M  V30 2475 H 234.878 -3.66018 0.206456 0
M  V30 2476 H 234.526 -4.57282 -2.09528 0
M  V30 2477 H 234.226 -5.81378 -0.852839 0
M  V30 2478 H 235.75 -5.83929 -1.78492 0
M  V30 2479 H 237.164 -5.71262 0.482983 0
M  V30 2480 H 235.561 -5.86747 1.25887 0
M  V30 2481 H 236.631 -4.53242 1.72335 0
M  V30 2482 N 237.974 -0.419461 -1.51915 0
M  V30 2483 C 238.921 0.400927 -2.27291 0
M  V30 2484 C 239.891 1.03224 -1.30131 0
M  V30 2485 O 241.076 1.05455 -1.59009 0
M  V30 2486 C 238.216 1.50603 -3.10504 0
M  V30 2487 C 237.329 0.89462 -4.22635 0
M  V30 2488 C 236.464 1.97328 -4.93189 0
M  V30 2489 C 235.503 1.33935 -5.97267 0
M  V30 2490 N 234.64 2.3586 -6.61298 0
M  V30 2491 H 239.48 -0.248251 -2.96964 0
M  V30 2492 H 237.017 -0.134266 -1.46486 0
M  V30 2493 H 238.975 2.15783 -3.57062 0
M  V30 2494 H 237.605 2.12509 -2.42981 0
M  V30 2495 H 236.657 0.131583 -3.80172 0
M  V30 2496 H 237.969 0.391641 -4.9726 0
M  V30 2497 H 237.123 2.70211 -5.43204 0
M  V30 2498 H 235.862 2.50994 -4.18155 0
M  V30 2499 H 234.867 0.595896 -5.46561 0
M  V30 2500 H 236.092 0.810252 -6.74249 0
M  V30 2501 H 234.038 2.88639 -5.89087 0
M  V30 2502 H 233.955 1.90403 -7.3163 0
M  V30 2503 H 235.223 3.08282 -7.15949 0
M  V30 2504 N 239.452 1.56882 -0.150215 0
M  V30 2505 C 240.399 2.16922 0.788244 0
M  V30 2506 C 241.369 1.10303 1.24187 0
M  V30 2507 O 242.554 1.38359 1.31383 0
M  V30 2508 C 239.694 2.79754 2.02068 0
M  V30 2509 C 238.807 4.00775 1.61257 0
M  V30 2510 C 237.942 4.51595 2.79705 0
M  V30 2511 C 236.981 5.65074 2.35282 0
M  V30 2512 N 236.118 6.10499 3.4675 0
M  V30 2513 H 240.958 2.96779 0.269444 0
M  V30 2514 H 238.495 1.46599 0.12128 0
M  V30 2515 H 240.453 3.14329 2.74323 0
M  V30 2516 H 239.083 2.02536 2.51354 0
M  V30 2517 H 238.135 3.72158 0.787553 0
M  V30 2518 H 239.447 4.82978 1.24633 0
M  V30 2519 H 238.601 4.88242 3.60145 0
M  V30 2520 H 237.34 3.68406 3.19576 0
M  V30 2521 H 236.345 5.28 1.53283 0
M  V30 2522 H 237.57 6.50052 1.96493 0
M  V30 2523 H 235.516 5.30243 3.86236 0
M  V30 2524 H 235.433 6.87637 3.14152 0
M  V30 2525 H 236.701 6.51791 4.27537 0
M  V30 2526 N 240.93 -0.123565 1.57115 0
M  V30 2527 C 242.158 -0.846461 1.88793 0
M  V30 2528 C 242.573 -1.73652 0.740976 0
M  V30 2529 O 241.93 -1.80207 -0.288393 0
M  V30 2530 C 241.981 -1.6837 3.19897 0
M  V30 2531 O 241.702 -0.829477 4.30176 0
M  V30 2532 C 243.203 -2.51214 3.65248 0
M  V30 2533 H 240.423 -0.243573 0.625231 0
M  V30 2534 H 242.967 -0.109324 2.04208 0
M  V30 2535 H 241.122 -2.37364 3.06165 0
M  V30 2536 H 241.536 -1.40651 5.0529 0
M  V30 2537 H 243.01 -3.05497 4.59756 0
M  V30 2538 H 243.487 -3.28359 2.9168 0
M  V30 2539 H 244.093 -1.8747 3.81752 0
M  V30 2540 N 242.408 -1.52605 -0.393616 0
M  V30 2541 C 243.654 -1.67672 -1.14079 0
M  V30 2542 C 243.987 -0.413121 -1.89755 0
M  V30 2543 O 243.262 0.588952 -1.85369 0
M  V30 2544 C 243.545 -2.9088 -2.12276 0
M  V30 2545 C 243.398 -4.27329 -1.40394 0
M  V30 2546 C 244.717 -3.09628 -3.12759 0
M  V30 2547 H 241.836 -0.610168 -0.413356 0
M  V30 2548 H 244.478 -1.85193 -0.424696 0
M  V30 2549 H 242.628 -2.76073 -2.73342 0
M  V30 2550 H 244.3 -4.53894 -0.82327 0
M  V30 2551 H 242.543 -4.2802 -0.705801 0
M  V30 2552 H 243.214 -5.09615 -2.12123 0
M  V30 2553 H 245.69 -3.23436 -2.61779 0
M  V30 2554 H 244.566 -3.97322 -3.78717 0
M  V30 2555 H 244.827 -2.23637 -3.81365 0
M  V30 2556 N 243.887 0.651787 -1.4349 0
M  V30 2557 C 244.817 1.77621 -1.51569 0
M  V30 2558 C 245.798 1.66022 -0.370253 0
M  V30 2559 O 246.983 1.85095 -0.587658 0
M  V30 2560 C 244.113 3.16056 -1.43966 0
M  V30 2561 C 243.067 3.4242 -2.56774 0
M  V30 2562 C 242.393 4.8067 -2.34223 0
M  V30 2563 C 243.693 3.37023 -3.99015 0
M  V30 2564 H 245.387 1.71117 -2.45681 0
M  V30 2565 H 242.933 0.821825 -1.18246 0
M  V30 2566 H 244.886 3.94472 -1.48221 0
M  V30 2567 H 243.61 3.23293 -0.463586 0
M  V30 2568 H 242.269 2.66375 -2.51873 0
M  V30 2569 H 241.917 4.84585 -1.34856 0
M  V30 2570 H 241.617 4.9927 -3.09844 0
M  V30 2571 H 243.141 5.61342 -2.40265 0
M  V30 2572 H 244.555 4.05374 -4.05395 0
M  V30 2573 H 242.952 3.67159 -4.74673 0
M  V30 2574 H 244.022 2.3518 -4.2405 0
M  V30 2575 N 245.365 1.30045 0.890287 0
M  V30 2576 C 246.328 1.15963 1.977 0
M  V30 2577 C 247.328 0.0923777 1.60534 0
M  V30 2578 O 248.518 0.340071 1.70848 0
M  V30 2579 C 245.65 0.775451 3.31963 0
M  V30 2580 H 246.843 2.12502 2.11619 0
M  V30 2581 H 244.396 1.13366 1.07601 0
M  V30 2582 H 245.131 -0.189671 3.23745 0
M  V30 2583 H 244.916 1.54668 3.60306 0
M  V30 2584 H 246.406 0.700251 4.11687 0
M  V30 2585 N 246.843 -1.10192 1.12674 0
M  V30 2586 C 247.773 -2.18652 0.819362 0
M  V30 2587 C 248.754 -1.68698 -0.217915 0
M  V30 2588 O 249.939 -1.94041 -0.0785581 0
M  V30 2589 C 247.069 -3.46202 0.27594 0
M  V30 2590 C 246.023 -4.09444 1.24656 0
M  V30 2591 C 245.349 -5.31725 0.563258 0
M  V30 2592 C 246.649 -4.52863 2.60217 0
M  V30 2593 H 248.343 -2.44622 1.72628 0
M  V30 2594 H 245.889 -1.17571 0.831451 0
M  V30 2595 H 247.842 -4.21372 0.0486149 0
M  V30 2596 H 246.566 -3.1973 -0.666331 0
M  V30 2597 H 245.225 -3.36284 1.45974 0
M  V30 2598 H 244.873 -5.0153 -0.384235 0
M  V30 2599 H 244.573 -5.74991 1.21075 0
M  V30 2600 H 246.097 -6.09624 0.34503 0
M  V30 2601 H 247.511 -5.19294 2.42913 0
M  V30 2602 H 245.908 -5.06986 3.21068 0
M  V30 2603 H 246.978 -3.65656 3.18471 0
M  V30 2604 N 248.321 -0.919034 -1.28029 0
M  V30 2605 C 249.732 -0.600735 -1.76771 0
M  V30 2606 C 250.083 0.884024 -1.75156 0
M  V30 2607 O 249.208 1.69163 -1.34956 0
M  V30 2608 C 249.803 -1.08372 -3.21 0
M  V30 2609 C 248.362 -0.816248 -3.67443 0
M  V30 2610 C 247.509 -1.24742 -2.47658 0
M  V30 2611 H 250.46 -1.09974 -1.14418 0
M  V30 2612 H 250.481 -0.427512 -3.78091 0
M  V30 2613 H 249.993 -2.16437 -3.22144 0
M  V30 2614 H 248.094 0.250968 -3.71754 0
M  V30 2615 H 248.207 -1.4277 -4.57333 0
M  V30 2616 H 246.571 -0.666083 -2.45836 0
M  V30 2617 H 247.354 -2.33653 -2.51518 0
M  V30 2618 N 249.799 1.42003 -0.683588 0
M  V30 2619 C 250.732 2.28166 0.039592 0
M  V30 2620 C 251.71 1.41562 0.799942 0
M  V30 2621 O 252.894 1.70997 0.793248 0
M  V30 2622 C 250.021 3.21575 1.06335 0
M  V30 2623 C 249.067 4.24643 0.397562 0
M  V30 2624 S 249.9 5.2869 -0.851296 0
M  V30 2625 C 251.056 6.25666 0.171166 0
M  V30 2626 H 251.289 2.89153 -0.691229 0
M  V30 2627 H 248.822 1.46962 -0.473435 0
M  V30 2628 H 250.78 3.75928 1.6489 0
M  V30 2629 H 249.441 2.59707 1.76667 0
M  V30 2630 H 248.634 4.90223 1.17035 0
M  V30 2631 H 248.236 3.73824 -0.114611 0
M  V30 2632 H 250.528 6.69653 1.02819 0
M  V30 2633 H 251.471 7.06666 -0.450397 0
M  V30 2634 H 251.879 5.62095 0.520578 0
M  V30 2635 N 251.277 0.427512 1.51691 0
M  V30 2636 C 252.688 -0.0378867 1.86662 0
M  V30 2637 C 253.039 -1.42819 1.34525 0
M  V30 2638 O 252.164 -2.05037 0.692014 0
M  V30 2639 C 252.759 -0.0755266 3.38716 0
M  V30 2640 C 251.318 -0.485309 3.73258 0
M  V30 2641 C 250.465 0.328399 2.75349 0
M  V30 2642 H 253.416 0.64379 1.45055 0
M  V30 2643 H 253.437 -0.887056 3.70016 0
M  V30 2644 H 252.949 0.936487 3.76632 0
M  V30 2645 H 251.05 -1.50329 3.40928 0
M  V30 2646 H 251.163 -0.21693 4.78609 0
M  V30 2647 H 249.527 -0.211905 2.53817 0
M  V30 2648 H 250.31 1.3391 3.16106 0
M  V30 2649 N 252.755 -1.56801 0.158532 0
M  V30 2650 C 253.665 -2.20916 -0.789518 0
M  V30 2651 C 254.681 -1.1969 -1.26294 0
M  V30 2652 O 255.857 -1.52308 -1.31773 0
M  V30 2653 C 252.922 -2.82727 -2.00665 0
M  V30 2654 C 251.983 -3.99114 -1.58134 0
M  V30 2655 C 251.216 -4.57968 -2.74045 0
M  V30 2656 O 251.439 -4.15704 -3.90572 0
M  V30 2657 O 250.373 -5.48047 -2.48855 0
M  V30 2658 H 254.199 -3.02464 -0.273681 0
M  V30 2659 H 251.784 -1.4924 -0.0690548 0
M  V30 2660 H 253.666 -3.21968 -2.71872 0
M  V30 2661 H 252.341 -2.04184 -2.51179 0
M  V30 2662 H 251.248 -3.64567 -0.839155 0
M  V30 2663 H 252.581 -4.79212 -1.12325 0
M  V30 2664 N 254.233 0.115231 -1.57178 0
M  V30 2665 C 255.479 0.82357 -1.85325 0
M  V30 2666 C 255.812 1.79349 -0.744814 0
M  V30 2667 O 255.087 1.92899 0.249024 0
M  V30 2668 C 255.37 1.57014 -3.24066 0
M  V30 2669 C 255.223 0.619565 -4.45513 0
M  V30 2670 C 256.542 2.52545 -3.60429 0
M  V30 2671 H 253.661 0.297948 -0.674089 0
M  V30 2672 H 256.303 0.0877138 -1.89797 0
M  V30 2673 H 254.453 2.19742 -3.20383 0
M  V30 2674 H 256.125 0.000837639 -4.613 0
M  V30 2675 H 254.368 -0.0686174 -4.33746 0
M  V30 2676 H 255.039 1.17866 -5.3927 0
M  V30 2677 H 257.515 1.9992 -3.64926 0
M  V30 2678 H 256.391 3.01811 -4.58477 0
M  V30 2679 H 256.652 3.35383 -2.88047 0
M  V30 2680 N 255.711 1.52812 0.385517 0
M  V30 2681 C 256.988 1.5861 1.14465 0
M  V30 2682 C 257.368 0.381402 2.07626 0
M  V30 2683 O 256.716 -0.629999 2.19643 0
M  V30 2684 C 256.926 2.92664 1.90128 0
M  V30 2685 C 258.274 3.46526 2.45367 0
M  V30 2686 O 259.298 2.94562 2.0028 0
M  V30 2687 O 258.157 4.37323 3.27736 0
M  V30 2688 H 255.251 0.639855 0.523941 0
M  V30 2689 H 257.797 1.65149 0.390389 0
M  V30 2690 H 256.569 3.71788 1.22022 0
M  V30 2691 H 256.192 2.89527 2.72507 0
M  V30 2692 N 257.189 -0.644168 1.43834 0
M  V30 2693 C 258.435 -1.40603 1.46146 0
M  V30 2694 C 258.768 -1.93997 0.0887717 0
M  V30 2695 O 258.043 -1.72854 -0.891724 0
M  V30 2696 C 258.326 -2.58086 2.51124 0
M  V30 2697 C 258.179 -2.10126 3.97702 0
M  V30 2698 C 259.498 -3.60291 2.52742 0
M  V30 2699 H 256.617 -0.509905 0.532134 0
M  V30 2700 H 259.259 -0.729502 1.75437 0
M  V30 2701 H 257.409 -3.15801 2.26278 0
M  V30 2702 H 259.081 -1.57342 4.33637 0
M  V30 2703 H 257.324 -1.41419 4.10101 0
M  V30 2704 H 257.995 -2.94649 4.66783 0
M  V30 2705 H 260.471 -3.12352 2.7491 0
M  V30 2706 H 259.347 -4.40032 3.28121 0
M  V30 2707 H 259.608 -4.1349 1.56455 0
M  V30 2708 N 258.668 -1.30515 -0.883378 0
M  V30 2709 C 259.598 -1.19607 -2.00541 0
M  V30 2710 C 260.579 -0.086346 -1.69881 0
M  V30 2711 O 261.764 -0.268654 -1.92333 0
M  V30 2712 C 258.894 -0.888758 -3.35736 0
M  V30 2713 C 257.848 -1.95659 -3.8066 0
M  V30 2714 C 257.174 -1.50224 -5.13164 0
M  V30 2715 C 258.474 -3.36788 -3.99213 0
M  V30 2716 H 260.168 -2.13476 -2.09925 0
M  V30 2717 H 257.714 -1.02775 -1.00863 0
M  V30 2718 H 259.667 -0.799094 -4.13754 0
M  V30 2719 H 258.391 0.0856125 -3.26488 0
M  V30 2720 H 257.05 -2.03591 -3.04871 0
M  V30 2721 H 256.698 -0.516092 -5.00345 0
M  V30 2722 H 256.398 -2.2165 -5.44192 0
M  V30 2723 H 257.922 -1.42639 -5.93706 0
M  V30 2724 H 259.336 -3.31605 -4.67665 0
M  V30 2725 H 257.733 -4.06314 -4.41621 0
M  V30 2726 H 258.803 -3.78561 -3.03017 0
M  V30 2727 N 260.146 1.09593 -1.13257 0
M  V30 2728 C 261.094 2.18271 -0.803783 0
M  V30 2729 C 262.088 1.68054 0.213148 0
M  V30 2730 O 263.294 1.79862 0.0704699 0
M  V30 2731 H 259.669 0.711949 -0.242143 0
M  V30 2732 H 261.64 2.43235 -1.72856 0
M  V30 2733 C 260.389 3.46536 -0.28424 0
M  V30 2734 H 259.712 3.85545 -1.05807 0
M  V30 2735 H 261.152 4.23899 -0.0925945 0
M  V30 2736 C 259.611 3.22036 0.989684 0
M  V30 2737 O 260.141 3.44509 2.06584 0
M  V30 2738 N 258.347 2.7565 0.920086 0
M  V30 2739 H 257.894 2.57562 0.0442019 0
M  V30 2740 H 257.852 2.59635 1.77306 0
M  V30 2741 N 261.624 0.925811 1.2754 0
M  V30 2742 C 262.872 0.564138 1.94067 0
M  V30 2743 C 263.193 -0.897188 1.73134 0
M  V30 2744 O 262.463 -1.63573 1.07799 0
M  V30 2745 H 261.043 0.205645 0.718136 0
M  V30 2746 H 263.705 1.1778 1.55287 0
M  V30 2747 H 262.801 0.76881 3.02483 0
M  V30 2748 N 263.102 -1.41638 0.69111 0
M  V30 2749 C 264.35 -2.00902 0.219758 0
M  V30 2750 C 264.671 -1.54994 -1.18329 0
M  V30 2751 O 263.941 -0.778628 -1.79762 0
M  V30 2752 H 262.521 -0.74289 0.0782558 0
M  V30 2753 H 265.183 -1.73327 0.891271 0
M  V30 2754 H 264.279 -3.11224 0.233708 0
M  V30 2755 N 264.58 -0.43555 -1.51462 0
M  V30 2756 C 265.51 0.367376 -2.30592 0
M  V30 2757 C 266.491 1.02263 -1.35928 0
M  V30 2758 O 267.676 1.02661 -1.64847 0
M  V30 2759 C 264.806 1.46983 -3.14664 0
M  V30 2760 C 263.76 0.938161 -4.17591 0
M  V30 2761 C 263.086 2.13622 -4.90173 0
M  V30 2762 C 264.386 -0.0261621 -5.22293 0
M  V30 2763 H 266.08 -0.292969 -2.97963 0
M  V30 2764 H 263.626 -0.14234 -1.43295 0
M  V30 2765 H 265.579 2.03873 -3.688 0
M  V30 2766 H 264.303 2.15843 -2.4511 0
M  V30 2767 H 262.962 0.391481 -3.64504 0
M  V30 2768 H 262.61 2.81098 -4.17124 0
M  V30 2769 H 262.31 1.78688 -5.59772 0
M  V30 2770 H 263.834 2.7107 -5.47132 0
M  V30 2771 H 265.248 0.452384 -5.71512 0
M  V30 2772 H 263.645 -0.287992 -5.99409 0
M  V30 2773 H 264.715 -0.963391 -4.75233 0
M  V30 2774 N 266.058 1.56714 -0.166846 0
M  V30 2775 C 266.968 2.21331 0.777791 0
M  V30 2776 C 267.984 1.20358 1.25658 0
M  V30 2777 O 269.16 1.53005 1.30964 0
M  V30 2778 C 266.225 2.83787 1.99163 0
M  V30 2779 C 265.286 3.99947 1.56016 0
M  V30 2780 C 264.519 4.59415 2.71613 0
M  V30 2781 O 264.742 4.17769 3.88362 0
M  V30 2782 O 263.676 5.49359 2.45945 0
M  V30 2783 H 267.502 3.02605 0.257636 0
M  V30 2784 H 265.087 1.49275 0.0611393 0
M  V30 2785 H 266.969 3.23405 2.70161 0
M  V30 2786 H 265.644 2.05513 2.50092 0
M  V30 2787 H 264.551 3.65007 0.819809 0
M  V30 2788 H 265.884 4.79801 1.09782 0
M  V30 2789 N 267.536 -0.106894 1.57237 0
M  V30 2790 C 268.785 -0.811163 1.8467 0
M  V30 2791 C 269.098 -1.80469 0.754342 0
M  V30 2792 O 270.304 -2.55601 0.915439 0
M  V30 2793 C 268.76 -1.49337 3.27454 0
M  V30 2794 C 268.368 -0.540217 4.44731 0
M  V30 2795 C 270.112 -2.18206 3.64124 0
M  V30 2796 C 268.019 -1.22634 5.78545 0
M  V30 2797 H 266.949 -0.306679 0.688813 0
M  V30 2798 H 269.6 -0.0639887 1.83388 0
M  V30 2799 H 267.982 -2.2876 3.23241 0
M  V30 2800 H 269.156 0.221659 4.60267 0
M  V30 2801 H 267.471 0.042146 4.16379 0
M  V30 2802 H 270.068 -2.70253 4.61376 0
M  V30 2803 H 270.411 -2.96562 2.92158 0
M  V30 2804 H 270.944 -1.45658 3.70174 0
M  V30 2805 H 267.683 -0.483832 6.53712 0
M  V30 2806 H 267.203 -1.95993 5.66874 0
M  V30 2807 H 268.882 -1.75615 6.2271 0
M  V30 2808 N 269.014 -1.53014 -0.377408 0
M  V30 2809 C 269.944 -1.81589 -1.46791 0
M  V30 2810 C 270.925 -0.668622 -1.56408 0
M  V30 2811 O 272.11 -0.917337 -1.71168 0
M  V30 2812 C 269.24 -1.99519 -2.8427 0
M  V30 2813 C 268.194 -3.15249 -2.89486 0
M  V30 2814 C 267.52 -3.18451 -4.29527 0
M  V30 2815 C 268.82 -4.54084 -2.58079 0
M  V30 2816 H 270.514 -2.7291 -1.23127 0
M  V30 2817 H 268.06 -1.31319 -0.590883 0
M  V30 2818 H 270.013 -2.18092 -3.60575 0
M  V30 2819 H 268.737 -1.04897 -3.09296 0
M  V30 2820 H 267.396 -2.96477 -2.15631 0
M  V30 2821 H 267.044 -2.2149 -4.5161 0
M  V30 2822 H 266.744 -3.962 -4.33934 0
M  V30 2823 H 268.268 -3.39193 -5.07721 0
M  V30 2824 H 269.682 -4.72899 -3.24098 0
M  V30 2825 H 268.079 -5.33987 -2.7382 0
M  V30 2826 H 269.149 -4.60006 -1.53372 0
M  V30 2827 N 270.492 0.636531 -1.44174 0
M  V30 2828 C 271.439 1.74875 -1.50624 0
M  V30 2829 C 272.409 1.62275 -0.35442 0
M  V30 2830 O 273.594 1.82276 -0.563908 0
M  V30 2831 C 270.734 3.13102 -1.45125 0
M  V30 2832 C 269.847 3.36717 -2.7064 0
M  V30 2833 C 268.982 4.64885 -2.57013 0
M  V30 2834 C 268.021 4.8166 -3.77717 0
M  V30 2835 N 267.158 6.01101 -3.62798 0
M  V30 2836 H 271.998 1.68697 -2.45653 0
M  V30 2837 H 269.535 0.823004 -1.21922 0
M  V30 2838 H 271.493 3.93034 -1.39929 0
M  V30 2839 H 270.123 3.18308 -0.536671 0
M  V30 2840 H 269.175 2.50763 -2.86046 0
M  V30 2841 H 270.487 3.44993 -3.60252 0
M  V30 2842 H 269.641 5.52969 -2.49619 0
M  V30 2843 H 268.38 4.58957 -1.64953 0
M  V30 2844 H 267.385 3.92007 -3.85501 0
M  V30 2845 H 268.61 4.89406 -4.70807 0
M  V30 2846 H 266.556 5.96273 -2.73486 0
M  V30 2847 H 266.473 6.10409 -4.46023 0
M  V30 2848 H 267.741 6.91761 -3.59286 0
M  V30 2849 N 271.97 1.30982 0.876444 0
M  V30 2850 C 273.198 1.23242 1.6619 0
M  V30 2851 C 273.613 -0.203345 1.87702 0
M  V30 2852 O 272.97 -1.13317 1.43057 0
M  V30 2853 C 273.021 1.96623 3.03351 0
M  V30 2854 O 272.742 3.34594 2.82804 0
M  V30 2855 C 274.243 1.95644 3.97792 0
M  V30 2856 H 271.463 0.426126 0.518322 0
M  V30 2857 H 274.007 1.7275 1.09442 0
M  V30 2858 H 272.162 1.50892 3.56806 0
M  V30 2859 H 272.576 3.71873 3.69879 0
M  V30 2860 H 274.05 2.51511 4.91372 0
M  V30 2861 H 274.527 0.937395 4.2908 0
M  V30 2862 H 275.133 2.41225 3.50272 0
M  V30 2863 N 273.449 -1.08991 1.13837 0
M  V30 2864 C 274.695 -1.81526 0.90422 0
M  V30 2865 C 275.028 -1.85706 -0.568066 0
M  V30 2866 O 274.303 -1.32855 -1.42056 0
M  V30 2867 C 274.586 -3.27447 1.49835 0
M  V30 2868 C 274.439 -3.31512 3.04006 0
M  V30 2869 C 275.758 -4.24256 1.17025 0
M  V30 2870 H 272.877 -0.659029 0.329923 0
M  V30 2871 H 275.519 -1.27644 1.40737 0
M  V30 2872 H 273.669 -3.73462 1.07044 0
M  V30 2873 H 275.341 -2.93867 3.55584 0
M  V30 2874 H 273.584 -2.70963 3.38765 0
M  V30 2875 H 274.255 -4.34329 3.40679 0
M  V30 2876 H 276.731 -3.86549 1.54009 0
M  V30 2877 H 275.607 -5.24684 1.61237 0
M  V30 2878 H 275.868 -4.42019 0.0846274 0
M  V30 2879 N 274.927 -0.932562 -1.27047 0
M  V30 2880 C 276.204 -0.49377 -1.89265 0
M  V30 2881 C 276.584 1.02833 -1.8436 0
M  V30 2882 O 275.932 1.88461 -1.29209 0
M  V30 2883 C 276.142 -1.04536 -3.32976 0
M  V30 2884 C 277.49 -1.10879 -4.09867 0
M  V30 2885 O 278.514 -0.995327 -3.42011 0
M  V30 2886 O 277.373 -1.28417 -5.31198 0
M  V30 2887 H 274.467 -0.159596 -0.811454 0
M  V30 2888 H 277.013 -1.02457 -1.3528 0
M  V30 2889 H 275.785 -2.08913 -3.30864 0
M  V30 2890 H 275.408 -0.496494 -3.94488 0
M  V30 2891 N 276.405 1.4127 -0.698611 0
M  V30 2892 C 277.335 2.33447 -0.049629 0
M  V30 2893 C 278.316 1.51982 0.763898 0
M  V30 2894 O 279.501 1.80509 0.716257 0
M  V30 2895 C 276.631 3.35828 0.885267 0
M  V30 2896 C 275.585 4.27627 0.178613 0
M  V30 2897 C 274.911 5.20406 1.22807 0
M  V30 2898 C 276.211 5.13459 -0.956933 0
M  V30 2899 H 277.905 2.87966 -0.81951 0
M  V30 2900 H 275.451 1.38461 -0.395538 0
M  V30 2901 H 277.404 3.9924 1.34854 0
M  V30 2902 H 276.128 2.79666 1.68685 0
M  V30 2903 H 274.787 3.65643 -0.26466 0
M  V30 2904 H 274.435 4.60558 2.02226 0
M  V30 2905 H 274.135 5.82661 0.760239 0
M  V30 2906 H 275.659 5.86695 1.69179 0
M  V30 2907 H 277.073 5.70421 -0.573805 0
M  V30 2908 H 275.47 5.8467 -1.35205 0
M  V30 2909 H 276.54 4.50443 -1.79524 0
M  V30 2910 N 277.883 0.443576 1.51229 0
M  V30 2911 C 279.299 0.0962001 1.5931 0
M  V30 2912 C 279.499 -1.39501 1.45402 0
M  V30 2913 O 278.555 -2.16557 1.29843 0
M  V30 2914 C 279.868 0.621875 2.94199 0
M  V30 2915 C 281.416 0.582865 3.07525 0
M  V30 2916 C 281.891 1.08562 4.44948 0
M  V30 2917 N 283.382 1.04387 4.51284 0
M  V30 2918 C 284.117 1.40368 5.55954 0
M  V30 2919 N 283.613 1.83664 6.68011 0
M  V30 2920 N 285.406 1.32145 5.46346 0
M  V30 2921 H 277.557 1.41376 1.58514 0
M  V30 2922 H 279.82 0.582965 0.747567 0
M  V30 2923 H 279.526 1.66546 3.09767 0
M  V30 2924 H 279.4 0.0502125 3.77167 0
M  V30 2925 H 281.787 -0.451749 2.91622 0
M  V30 2926 H 281.868 1.191 2.26382 0
M  V30 2927 H 281.512 2.11873 4.61598 0
M  V30 2928 H 281.442 0.453956 5.2464 0
M  V30 2929 H 283.933 0.725986 3.70861 0
M  V30 2930 H 284.246 2.0934 7.43906 0
M  V30 2931 H 282.591 1.87596 6.69203 0
M  V30 2932 H 285.782 0.981808 4.57688 0
M  V30 2933 H 285.955 1.60514 6.27805 0
M  V30 2934 N 279.361 -1.56624 0.175154 0
M  V30 2935 C 280.293 -2.15333 -0.785128 0
M  V30 2936 C 281.306 -1.1099 -1.19101 0
M  V30 2937 O 282.495 -1.38162 -1.13019 0
M  V30 2938 C 279.595 -2.68427 -2.06882 0
M  V30 2939 C 278.768 -3.97466 -1.8259 0
M  V30 2940 C 277.827 -4.35585 -2.95215 0
M  V30 2941 O 276.853 -5.03389 -2.65684 0
M  V30 2942 N 278.055 -3.97457 -4.23094 0
M  V30 2943 H 280.82 -2.98359 -0.283187 0
M  V30 2944 H 278.381 -1.61898 -0.00749817 0
M  V30 2945 H 280.373 -2.90924 -2.81328 0
M  V30 2946 H 278.943 -1.89968 -2.48256 0
M  V30 2947 H 278.163 -3.83307 -0.920287 0
M  V30 2948 H 279.451 -4.81736 -1.63733 0
M  V30 2949 H 278.849 -3.42878 -4.49945 0
M  V30 2950 H 277.406 -4.24947 -4.9423 0
M  V30 2951 N 280.839 0.0985539 -1.57292 0
M  V30 2952 C 282.25 0.653457 -1.74891 0
M  V30 2953 C 282.601 1.7929 -0.796838 0
M  V30 2954 O 281.726 2.16385 0.0254886 0
M  V30 2955 C 282.321 1.19216 -3.17133 0
M  V30 2956 C 280.88 1.69316 -3.36168 0
M  V30 2957 C 280.027 0.601294 -2.70702 0
M  V30 2958 H 282.978 -0.127497 -1.58187 0
M  V30 2959 H 282.999 2.06154 -3.19814 0
M  V30 2960 H 282.511 0.362635 -3.86402 0
M  V30 2961 H 280.612 2.5468 -2.71972 0
M  V30 2962 H 280.725 1.78853 -4.44464 0
M  V30 2963 H 279.089 1.0399 -2.32504 0
M  V30 2964 H 279.872 -0.217592 -3.4261 0
M  V30 2965 N 282.317 1.53212 0.369288 0
M  V30 2966 C 283.247 1.82365 1.45826 0
M  V30 2967 C 284.228 0.676907 1.56051 0
M  V30 2968 O 285.413 0.926401 1.70679 0
M  V30 2969 C 282.543 2.01023 2.83208 0
M  V30 2970 C 281.497 3.1678 2.8781 0
M  V30 2971 C 280.823 3.20724 4.27832 0
M  V30 2972 C 282.123 4.55447 2.55667 0
M  V30 2973 H 283.817 2.73559 1.21678 0
M  V30 2974 H 281.363 1.3163 0.583911 0
M  V30 2975 H 283.316 2.20001 3.59413 0
M  V30 2976 H 282.04 1.06536 3.08736 0
M  V30 2977 H 280.699 2.97616 2.14056 0
M  V30 2978 H 280.347 2.23882 4.50429 0
M  V30 2979 H 280.047 3.98496 4.31827 0
M  V30 2980 H 281.571 3.41881 5.05915 0
M  V30 2981 H 282.985 4.74611 3.21586 0
M  V30 2982 H 281.382 5.35432 2.70984 0
M  V30 2983 H 282.452 4.60812 1.5093 0
M  V30 2984 N 283.795 -0.628877 1.44509 0
M  V30 2985 C 284.727 -1.754 1.47538 0
M  V30 2986 C 285.74 -1.58575 0.368506 0
M  V30 2987 O 286.929 -1.66847 0.634376 0
M  V30 2988 C 284.029 -3.1315 1.29577 0
M  V30 2989 C 283.202 -3.56413 2.53551 0
M  V30 2990 C 282.261 -4.7305 2.30457 0
M  V30 2991 O 281.287 -4.81247 3.03957 0
M  V30 2992 N 282.489 -5.64903 1.3366 0
M  V30 2993 H 285.254 -1.73272 2.44534 0
M  V30 2994 H 282.815 -0.813512 1.39977 0
M  V30 2995 H 284.807 -3.88902 1.11971 0
M  V30 2996 H 283.377 -3.09908 0.409371 0
M  V30 2997 H 282.597 -2.70847 2.86419 0
M  V30 2998 H 283.885 -3.82071 3.36005 0
M  V30 2999 H 283.283 -5.60975 0.729604 0
M  V30 3000 H 281.84 -6.40275 1.22032 0
M  V30 3001 N 285.273 -1.31445 -0.869486 0
M  V30 3002 C 286.221 -1.19067 -1.99814 0
M  V30 3003 C 287.215 -0.0988569 -1.69111 0
M  V30 3004 O 288.421 -0.260781 -1.78101 0
M  V30 3005 H 284.796 -0.368677 -0.655425 0
M  V30 3006 H 286.767 -2.14555 -2.07385 0
M  V30 3007 C 285.516 -0.915323 -3.35436 0
M  V30 3008 H 284.839 -1.74759 -3.59582 0
M  V30 3009 H 286.279 -0.868895 -4.15001 0
M  V30 3010 C 284.738 0.381928 -3.34728 0
M  V30 3011 O 285.268 1.39857 -3.76567 0
M  V30 3012 N 283.474 0.398633 -2.87853 0
M  V30 3013 H 283.021 -0.429186 -2.54 0
M  V30 3014 H 282.979 1.26651 -2.87762 0
M  V30 3015 N 286.751 1.08385 -1.14413 0
M  V30 3016 C 287.997 1.81044 -0.913834 0
M  V30 3017 C 288.33 1.86004 0.558209 0
M  V30 3018 O 287.605 1.33606 1.4135 0
M  V30 3019 C 287.888 3.26648 -1.51569 0
M  V30 3020 C 287.741 3.29895 -3.0576 0
M  V30 3021 C 289.06 4.23629 -1.19273 0
M  V30 3022 H 286.179 0.65727 -0.333414 0
M  V30 3023 H 288.821 1.26896 -1.41412 0
M  V30 3024 H 286.971 3.72889 -1.09023 0
M  V30 3025 H 288.643 2.91977 -3.57137 0
M  V30 3026 H 286.886 2.69163 -3.40197 0
M  V30 3027 H 287.557 4.32516 -3.42977 0
M  V30 3028 H 290.033 3.85727 -1.56057 0
M  V30 3029 H 288.909 5.23822 -1.64017 0
M  V30 3030 H 289.17 4.41968 -0.108068 0
M  V30 3031 N 288.23 0.939286 1.26551 0
M  V30 3032 C 289.455 0.602008 1.98471 0
M  V30 3033 C 289.88 -0.815624 1.69497 0
M  V30 3034 O 289.238 -1.54912 0.941905 0
M  V30 3035 C 289.286 0.848407 3.50477 0
M  V30 3036 O 288.39 -0.0804009 4.12322 0
M  V30 3037 H 287.731 0.23049 0.622712 0
M  V30 3038 H 290.261 1.2617 1.61066 0
M  V30 3039 H 290.271 0.768553 4.00696 0
M  V30 3040 H 288.946 1.88171 3.70897 0
M  V30 3041 H 287.523 0.0503508 3.72866 0
M  V30 3042 N 289.708 -1.40897 0.706093 0
M  V30 3043 C 290.641 -2.282 -0.00328781 0
M  V30 3044 C 291.619 -1.42816 -0.77732 0
M  V30 3045 O 292.803 -1.72237 -0.765944 0
M  V30 3046 C 289.93 -3.23226 -1.01205 0
M  V30 3047 C 288.976 -4.25222 -0.329955 0
M  V30 3048 S 289.809 -5.27269 0.935298 0
M  V30 3049 C 290.965 -6.25859 -0.0716061 0
M  V30 3050 H 291.198 -2.88016 0.737143 0
M  V30 3051 H 288.731 -1.46191 0.496756 0
M  V30 3052 H 290.689 -3.78503 -1.58888 0
M  V30 3053 H 289.35 -2.62485 -1.72513 0
M  V30 3054 H 288.543 -4.92023 -1.09221 0
M  V30 3055 H 288.145 -3.73595 0.174069 0
M  V30 3056 H 290.437 -6.71204 -0.921521 0
M  V30 3057 H 291.38 -7.0586 0.562765 0
M  V30 3058 H 291.788 -5.62852 -0.431088 0
M  V30 3059 N 291.186 -0.45159 -1.50991 0
M  V30 3060 C 292.597 0.00818571 -1.86698 0
M  V30 3061 C 292.948 1.40661 -1.3678 0
M  V30 3062 O 292.073 2.0391 -0.724546 0
M  V30 3063 C 292.668 0.0216303 -3.38793 0
M  V30 3064 C 291.227 0.425865 -3.73983 0
M  V30 3065 C 290.374 -0.372163 -2.74791 0
M  V30 3066 H 293.325 -0.666785 -1.44013 0
M  V30 3067 H 293.346 0.828078 -3.7138 0
M  V30 3068 H 292.858 -0.996288 -3.75094 0
M  V30 3069 H 290.959 1.44886 -3.43277 0
M  V30 3070 H 291.072 0.140761 -4.78893 0
M  V30 3071 H 289.436 0.171498 -2.54122 0
M  V30 3072 H 290.219 -1.38922 -3.13935 0
M  V30 3073 N 292.664 1.56529 -0.183458 0
M  V30 3074 C 293.911 1.97244 0.458357 0
M  V30 3075 C 294.239 1.06992 1.62428 0
M  V30 3076 O 293.494 0.106542 1.9541 0
M  V30 3077 C 293.793 3.43939 0.971637 0
M  V30 3078 C 293.459 4.5083 -0.0796784 0
M  V30 3079 C 292.121 4.79786 -0.368584 0
M  V30 3080 C 294.473 5.15138 -0.792638 0
M  V30 3081 C 291.801 5.70345 -1.37563 0
M  V30 3082 C 294.153 6.06784 -1.78875 0
M  V30 3083 C 292.817 6.34102 -2.08497 0
M  V30 3084 H 292.087 0.721768 0.167725 0
M  V30 3085 H 294.734 1.89472 -0.277976 0
M  V30 3086 H 293.039 3.48724 1.78602 0
M  V30 3087 H 294.736 3.72791 1.47744 0
M  V30 3088 H 291.326 4.28317 0.155668 0
M  V30 3089 H 295.51 4.92868 -0.582659 0
M  V30 3090 H 290.766 5.89789 -1.61118 0
M  V30 3091 H 294.94 6.55677 -2.3465 0
M  V30 3092 H 292.567 7.04074 -2.86678 0
M  V30 3093 N 294.142 -0.090211 1.57342 0
M  V30 3094 C 295.072 -1.10976 2.05443 0
M  V30 3095 C 296.053 -1.41482 0.944284 0
M  V30 3096 O 297.238 -1.51428 1.21586 0
M  V30 3097 C 294.368 -2.42831 2.48295 0
M  V30 3098 C 293.322 -2.26721 3.63018 0
M  V30 3099 C 292.648 -3.63796 3.91863 0
M  V30 3100 C 293.948 -1.7037 4.93732 0
M  V30 3101 H 295.642 -0.709564 2.9087 0
M  V30 3102 H 293.188 -0.339874 1.39932 0
M  V30 3103 H 295.141 -3.14431 2.80555 0
M  V30 3104 H 293.865 -2.84795 1.59873 0
M  V30 3105 H 292.524 -1.57565 3.31012 0
M  V30 3106 H 292.172 -4.03297 3.00601 0
M  V30 3107 H 291.872 -3.53861 4.69101 0
M  V30 3108 H 293.396 -4.36855 4.26603 0
M  V30 3109 H 294.81 -2.31816 5.24342 0
M  V30 3110 H 293.207 -1.71181 5.75167 0
M  V30 3111 H 294.277 -0.663542 4.80339 0
M  V30 3112 N 295.62 -1.53406 -0.361157 0
M  V30 3113 C 297.036 -1.43277 -0.703124 0
M  V30 3114 C 297.236 -0.575384 -1.9311 0
M  V30 3115 O 296.292 -0.0595362 -2.5243 0
M  V30 3116 C 297.605 -2.8653 -0.9122 0
M  V30 3117 C 299.153 -2.96191 -1.01193 0
M  V30 3118 C 299.628 -4.40514 -1.25345 0
M  V30 3119 N 301.119 -4.43962 -1.32105 0
M  V30 3120 C 301.854 -5.52746 -1.5251 0
M  V30 3121 N 301.35 -6.71567 -1.70203 0
M  V30 3122 N 303.143 -5.40331 -1.54916 0
M  V30 3123 H 295.294 -2.07654 0.446475 0
M  V30 3124 H 297.557 -0.937944 0.137715 0
M  V30 3125 H 297.263 -3.51605 -0.0816414 0
M  V30 3126 H 297.137 -3.30441 -1.81903 0
M  V30 3127 H 299.524 -2.31266 -1.83303 0
M  V30 3128 H 299.605 -2.55667 -0.0823929 0
M  V30 3129 H 299.249 -5.06014 -0.437346 0
M  V30 3130 H 299.179 -4.78614 -2.19627 0
M  V30 3131 H 301.67 -3.58332 -1.20028 0
M  V30 3132 H 301.983 -7.50241 -1.85359 0
M  V30 3133 H 300.328 -6.74545 -1.67373 0
M  V30 3134 H 303.519 -4.46465 -1.40663 0
M  V30 3135 H 303.692 -6.25173 -1.70477 0
M  V30 3136 N 297.098 0.621204 -1.44841 0
M  V30 3137 C 298.028 1.74366 -1.55303 0
M  V30 3138 C 299.009 1.65199 -0.405385 0
M  V30 3139 O 300.194 1.83807 -0.626787 0
M  V30 3140 C 297.324 3.12931 -1.50637 0
M  V30 3141 C 296.278 3.36896 -2.63979 0
M  V30 3142 C 295.604 4.75594 -2.44366 0
M  V30 3143 C 296.904 3.28483 -4.06074 0
M  V30 3144 H 298.598 1.65867 -2.49256 0
M  V30 3145 H 296.144 0.796558 -1.19962 0
M  V30 3146 H 298.097 3.9124 -1.56555 0
M  V30 3147 H 296.821 3.22237 -0.532057 0
M  V30 3148 H 295.48 2.60972 -2.57467 0
M  V30 3149 H 295.128 4.81616 -1.45105 0
M  V30 3150 H 294.828 4.92586 -3.20364 0
M  V30 3151 H 296.352 5.5612 -2.52117 0
M  V30 3152 H 297.766 3.96684 -4.13902 0
M  V30 3153 H 296.163 3.57008 -4.82354 0
M  V30 3154 H 297.233 2.26133 -4.28943 0
M  V30 3155 N 298.576 1.31904 0.862503 0
M  V30 3156 C 299.806 1.24817 1.64634 0
M  V30 3157 C 300.214 -0.187579 1.88268 0
M  V30 3158 O 299.557 -1.13253 1.44635 0
M  V30 3159 C 299.619 1.92996 3.03303 0
M  V30 3160 C 299.283 3.42336 3.02746 0
M  V30 3161 C 300.28 4.37956 2.80162 0
M  V30 3162 C 297.965 3.84147 3.2363 0
M  V30 3163 C 299.959 5.73361 2.78453 0
M  V30 3164 C 297.646 5.19663 3.21549 0
M  V30 3165 C 298.644 6.14081 2.98988 0
M  V30 3166 O 298.332 7.47118 2.96766 0
M  V30 3167 H 298.064 0.432222 0.519769 0
M  V30 3168 H 300.618 1.7445 1.08427 0
M  V30 3169 H 298.848 1.37922 3.61268 0
M  V30 3170 H 300.537 1.79723 3.63943 0
M  V30 3171 H 301.303 4.06981 2.63802 0
M  V30 3172 H 297.182 3.11083 3.40218 0
M  V30 3173 H 300.726 6.4703 2.60763 0
M  V30 3174 H 296.623 5.5027 3.37451 0
M  V30 3175 H 297.391 7.56382 3.12775 0
M  V30 3176 N 300.054 -1.07777 1.14986 0
M  V30 3177 C 301.302 -1.79934 0.920235 0
M  V30 3178 C 301.623 -1.86955 -0.554336 0
M  V30 3179 O 300.893 -1.36731 -1.40291 0
M  V30 3180 H 299.473 -0.666424 0.337473 0
M  V30 3181 H 302.135 -1.3027 1.44968 0
M  V30 3182 H 301.231 -2.82539 1.32583 0
M  V30 3183 N 301.532 -0.945985 -1.26051 0
M  V30 3184 C 302.762 -0.612136 -1.97323 0
M  V30 3185 C 303.17 0.818171 -1.70595 0
M  V30 3186 O 302.513 1.55777 -0.973613 0
M  V30 3187 C 302.575 -0.780347 -3.50929 0
M  V30 3188 C 302.239 -2.18619 -4.01317 0
M  V30 3189 C 303.236 -3.16209 -4.12683 0
M  V30 3190 C 300.921 -2.50805 -4.35203 0
M  V30 3191 C 302.915 -4.44085 -4.57238 0
M  V30 3192 C 300.602 -3.78912 -4.79446 0
M  V30 3193 C 301.6 -4.75365 -4.90425 0
M  V30 3194 O 301.288 -6.01191 -5.3369 0
M  V30 3195 H 301.02 -0.229134 -0.635982 0
M  V30 3196 H 303.574 -1.27036 -1.61404 0
M  V30 3197 H 301.804 -0.0649864 -3.86645 0
M  V30 3198 H 303.493 -0.448842 -4.03411 0
M  V30 3199 H 304.259 -2.92668 -3.86744 0
M  V30 3200 H 300.138 -1.76463 -4.2589 0
M  V30 3201 H 303.682 -5.19373 -4.65723 0
M  V30 3202 H 299.579 -4.02265 -5.0483 0
M  V30 3203 H 300.347 -6.04442 -5.51899 0
M  V30 3204 N 303.011 1.40521 -0.713556 0
M  V30 3205 C 303.941 2.33381 -0.0743864 0
M  V30 3206 C 304.922 1.52784 0.747735 0
M  V30 3207 O 306.107 1.81258 0.697071 0
M  V30 3208 C 303.237 3.36748 0.849598 0
M  V30 3209 C 302.191 4.27793 0.133247 0
M  V30 3210 C 301.517 5.21679 1.17281 0
M  V30 3211 C 302.817 5.12415 -1.01134 0
M  V30 3212 H 304.511 2.87081 -0.850007 0
M  V30 3213 H 302.057 1.38034 -0.410201 0
M  V30 3214 H 304.01 4.00648 1.30612 0
M  V30 3215 H 302.734 2.81439 1.65709 0
M  V30 3216 H 301.393 3.65342 -0.303426 0
M  V30 3217 H 301.041 4.62677 1.9733 0
M  V30 3218 H 300.741 5.83435 0.698397 0
M  V30 3219 H 302.265 5.88456 1.62947 0
M  V30 3220 H 303.679 5.69781 -0.634274 0
M  V30 3221 H 302.076 5.83203 -1.41399 0
M  V30 3222 H 303.146 4.48514 -1.84292 0
M  V30 3223 N 304.489 0.459591 1.5075 0
M  V30 3224 C 305.766 -0.160371 1.94941 0
M  V30 3225 C 306.146 -1.58048 1.39943 0
M  V30 3226 O 305.494 -2.206 0.595629 0
M  V30 3227 C 305.704 -0.115432 3.48809 0
M  V30 3228 C 307.052 -0.310026 4.23467 0
M  V30 3229 O 308.076 -0.192543 3.55679 0
M  V30 3230 O 306.935 -0.546031 5.43765 0
M  V30 3231 H 304.029 -0.117925 0.818549 0
M  V30 3232 H 306.575 0.519169 1.61563 0
M  V30 3233 H 305.347 0.87652 3.81357 0
M  V30 3234 H 304.97 -0.836928 3.88692 0
M  V30 3235 N 305.967 -1.56429 0.191757 0
M  V30 3236 C 307.215 -1.97095 -0.447006 0
M  V30 3237 C 307.536 -1.07967 -1.62383 0
M  V30 3238 O 306.806 -0.150248 -1.95323 0
M  V30 3239 H 305.386 -0.727832 -0.168135 0
M  V30 3240 H 308.048 -1.92911 0.27771 0
M  V30 3241 H 307.144 -3.01848 -0.793371 0
M  V30 3242 N 307.445 0.0818655 -1.57387 0
M  V30 3243 C 308.375 1.09885 -2.06028 0
M  V30 3244 C 309.356 1.4098 -0.951774 0
M  V30 3245 O 310.541 1.50781 -1.22387 0
M  V30 3246 C 307.671 2.4151 -2.4958 0
M  V30 3247 C 306.625 2.24792 -3.64215 0
M  V30 3248 C 305.951 3.61712 -3.93787 0
M  V30 3249 C 307.251 1.67749 -4.94629 0
M  V30 3250 H 308.945 0.694128 -2.91243 0
M  V30 3251 H 306.491 0.332448 -1.4011 0
M  V30 3252 H 308.444 3.12939 -2.82219 0
M  V30 3253 H 307.168 2.83943 -1.61381 0
M  V30 3254 H 305.827 1.55807 -3.31843 0
M  V30 3255 H 305.475 4.01697 -3.02735 0
M  V30 3256 H 305.175 3.51368 -4.70971 0
M  V30 3257 H 306.699 4.34587 -4.28913 0
M  V30 3258 H 308.113 2.29032 -5.25564 0
M  V30 3259 H 306.51 1.68128 -5.76067 0
M  V30 3260 H 307.58 0.638059 -4.80684 0
M  V30 3261 N 308.923 1.53595 0.353017 0
M  V30 3262 C 310.169 1.70638 1.09593 0
M  V30 3263 C 310.502 0.463286 1.88593 0
M  V30 3264 O 309.777 -0.539597 1.86865 0
M  V30 3265 C 310.06 2.96406 2.04489 0
M  V30 3266 C 309.913 4.30901 1.29014 0
M  V30 3267 C 311.232 3.17812 3.0444 0
M  V30 3268 H 308.351 0.620913 0.397034 0
M  V30 3269 H 310.993 1.86254 0.375446 0
M  V30 3270 H 309.143 2.83223 2.65927 0
M  V30 3271 H 310.815 4.55917 0.702638 0
M  V30 3272 H 309.058 4.29741 0.592071 0
M  V30 3273 H 309.729 5.1506 1.98537 0
M  V30 3274 H 312.205 3.30263 2.53112 0
M  V30 3275 H 311.081 4.07223 3.6805 0
M  V30 3276 H 311.342 2.33669 3.75301 0
M  V30 3277 N 310.401 -0.613514 1.45168 0
M  V30 3278 C 311.812 -1.19539 1.43413 0
M  V30 3279 C 312.163 -1.95558 0.158632 0
M  V30 3280 O 311.288 -2.0335 -0.740119 0
M  V30 3281 C 311.883 -2.17445 2.59813 0
M  V30 3282 C 310.442 -2.71022 2.61197 0
M  V30 3283 C 309.589 -1.46323 2.35552 0
M  V30 3284 H 312.54 -0.403163 1.53494 0
M  V30 3285 H 312.561 -3.00373 2.33574 0
M  V30 3286 H 312.073 -1.62089 3.52631 0
M  V30 3287 H 310.174 -3.30332 1.7237 0
M  V30 3288 H 310.287 -3.15859 3.60236 0
M  V30 3289 H 308.651 -1.75072 1.84992 0
M  V30 3290 H 309.434 -0.92844 3.30507 0
M  V30 3291 N 311.879 -1.3236 -0.855495 0
M  V30 3292 C 313.295 -1.11332 -1.14356 0
M  V30 3293 C 313.495 0.106751 -2.01217 0
M  V30 3294 O 312.551 0.791891 -2.39761 0
M  V30 3295 C 313.864 -2.39237 -1.82171 0
M  V30 3296 C 315.412 -2.44986 -1.9481 0
M  V30 3297 C 315.887 -3.7281 -2.66039 0
M  V30 3298 N 317.378 -3.73787 -2.73565 0
M  V30 3299 C 318.113 -4.69394 -3.29327 0
M  V30 3300 N 317.609 -5.75367 -3.85907 0
M  V30 3301 N 319.402 -4.56893 -3.27423 0
M  V30 3302 H 311.553 -2.10586 -0.277027 0
M  V30 3303 H 313.816 -0.929701 -0.185364 0
M  V30 3304 H 313.522 -3.28431 -1.25802 0
M  V30 3305 H 313.396 -2.50134 -2.82335 0
M  V30 3306 H 315.783 -1.56252 -2.50338 0
M  V30 3307 H 315.864 -2.38043 -0.936448 0
M  V30 3308 H 315.508 -4.61918 -2.11174 0
M  V30 3309 H 315.438 -3.77024 -3.67642 0
M  V30 3310 H 317.929 -2.97189 -2.33424 0
M  V30 3311 H 318.242 -6.44378 -4.26611 0
M  V30 3312 H 316.587 -5.79123 -3.84242 0
M  V30 3313 H 319.778 -3.73269 -2.82467 0
M  V30 3314 H 319.951 -5.31577 -3.7058 0
M  V30 3315 N 313.357 1.07166 -1.15556 0
M  V30 3316 C 314.304 2.14417 -0.854055 0
M  V30 3317 C 315.274 1.64965 0.193806 0
M  V30 3318 O 316.459 1.90703 0.0609443 0
M  V30 3319 C 313.599 3.43304 -0.351574 0
M  V30 3320 C 312.712 4.06537 -1.46123 0
M  V30 3321 C 311.847 5.23266 -0.914677 0
M  V30 3322 C 310.886 5.78464 -2.00114 0
M  V30 3323 N 310.023 6.86521 -1.47083 0
M  V30 3324 H 314.863 2.39548 -1.77259 0
M  V30 3325 H 312.4 1.17543 -0.884425 0
M  V30 3326 H 314.358 4.17179 -0.0419409 0
M  V30 3327 H 312.988 3.18419 0.530037 0
M  V30 3328 H 312.04 3.30297 -1.88701 0
M  V30 3329 H 313.352 4.43567 -2.28144 0
M  V30 3330 H 312.506 6.04131 -0.557698 0
M  V30 3331 H 311.245 4.87658 -0.0636583 0
M  V30 3332 H 310.25 4.96243 -2.36692 0
M  V30 3333 H 311.475 6.16126 -2.85597 0
M  V30 3334 H 309.421 6.52849 -0.642198 0
M  V30 3335 H 309.338 7.22446 -2.22729 0
M  V30 3336 H 310.606 7.71087 -1.14215 0
M  V30 3337 N 314.835 0.952656 1.25548 0
M  V30 3338 C 316.081 0.607272 1.93494 0
M  V30 3339 C 316.414 -0.853245 1.74452 0
M  V30 3340 O 315.689 -1.61194 1.08843 0
M  V30 3341 C 315.972 0.96435 3.46947 0
M  V30 3342 C 315.825 2.48045 3.75225 0
M  V30 3343 C 317.144 0.487987 4.37386 0
M  V30 3344 H 314.263 0.222096 0.702739 0
M  V30 3345 H 316.905 1.18895 1.48203 0
M  V30 3346 H 315.055 0.469361 3.85654 0
M  V30 3347 H 316.727 3.04905 3.46166 0
M  V30 3348 H 314.97 2.919 3.209 0
M  V30 3349 H 315.641 2.6808 4.82532 0
M  V30 3350 H 318.117 0.912558 4.0597 0
M  V30 3351 H 316.993 0.766547 5.43521 0
M  V30 3352 H 317.254 -0.612063 4.37843 0
M  V30 3353 N 316.313 -1.40141 0.720998 0
M  V30 3354 C 317.559 -2.01084 0.263231 0
M  V30 3355 C 317.892 -1.57052 -1.14229 0
M  V30 3356 O 317.167 -0.793027 -1.77599 0
M  V30 3357 C 317.45 -3.58401 0.349344 0
M  V30 3358 C 317.303 -4.12491 1.79363 0
M  V30 3359 C 318.622 -4.39231 -0.276351 0
M  V30 3360 H 315.741 -0.730572 0.0971228 0
M  V30 3361 H 318.383 -1.66543 0.914518 0
M  V30 3362 H 316.533 -3.87958 -0.205165 0
M  V30 3363 H 318.205 -3.93711 2.40394 0
M  V30 3364 H 316.448 -3.66576 2.31958 0
M  V30 3365 H 317.119 -5.21646 1.80524 0
M  V30 3366 H 319.595 -4.15637 0.196184 0
M  V30 3367 H 318.471 -5.48586 -0.185681 0
M  V30 3368 H 318.732 -4.20643 -1.36059 0
M  V30 3369 N 317.792 -0.46758 -1.50504 0
M  V30 3370 C 319.203 -0.0116166 -1.86696 0
M  V30 3371 C 319.554 1.39202 -1.38265 0
M  V30 3372 O 318.679 2.0313 -0.746132 0
M  V30 3373 C 319.274 -0.0143044 -3.38797 0
M  V30 3374 C 317.833 0.386175 -3.74414 0
M  V30 3375 C 316.98 -0.401287 -2.74381 0
M  V30 3376 H 319.931 -0.682022 -1.43297 0
M  V30 3377 H 319.952 0.788641 -3.72237 0
M  V30 3378 H 319.464 -1.03602 -3.74016 0
M  V30 3379 H 317.565 1.41237 -3.44794 0
M  V30 3380 H 317.678 0.0899596 -4.79016 0
M  V30 3381 H 316.042 0.144536 -2.5429 0
M  V30 3382 H 316.825 -1.42244 -3.12444 0
M  V30 3383 N 319.27 1.56325 -0.20005 0
M  V30 3384 C 320.203 2.15234 0.758267 0
M  V30 3385 C 321.181 1.09046 1.20614 0
M  V30 3386 O 322.365 1.37186 1.29276 0
M  V30 3387 C 319.492 2.71524 2.02466 0
M  V30 3388 C 318.538 3.90345 1.71852 0
M  V30 3389 S 319.371 5.28513 0.862249 0
M  V30 3390 C 320.527 5.88227 2.13868 0
M  V30 3391 H 320.76 2.96183 0.2575 0
M  V30 3392 H 318.293 1.54393 0.0150099 0
M  V30 3393 H 320.251 3.04598 2.75191 0
M  V30 3394 H 318.912 1.90607 2.49655 0
M  V30 3395 H 318.105 4.28158 2.65888 0
M  V30 3396 H 317.707 3.58306 1.07205 0
M  V30 3397 H 319.999 6.02891 3.09076 0
M  V30 3398 H 320.942 6.84714 1.80479 0
M  V30 3399 H 321.35 5.16874 2.2694 0
M  V30 3400 N 320.748 -0.0735177 1.57428 0
M  V30 3401 C 321.678 -1.0879 2.06608 0
M  V30 3402 C 322.659 -1.40473 0.959237 0
M  V30 3403 O 323.844 -1.5013 1.23185 0
M  V30 3404 C 320.974 -2.40183 2.50857 0
M  V30 3405 C 319.928 -2.22858 3.65402 0
M  V30 3406 C 319.254 -3.59619 3.957 0
M  V30 3407 C 320.554 -1.65123 4.95511 0
M  V30 3408 H 322.248 -0.678673 2.91607 0
M  V30 3409 H 319.794 -0.325013 1.40284 0
M  V30 3410 H 321.747 -3.11437 2.83874 0
M  V30 3411 H 320.471 -2.83083 1.62885 0
M  V30 3412 H 319.13 -1.54045 3.32664 0
M  V30 3413 H 318.778 -4.00086 3.04861 0
M  V30 3414 H 318.478 -3.48866 4.72828 0
M  V30 3415 H 320.002 -4.32306 4.31212 0
M  V30 3416 H 321.416 -2.26241 5.26771 0
M  V30 3417 H 319.813 -1.65071 5.7695 0
M  V30 3418 H 320.883 -0.612559 4.81015 0
M  V30 3419 N 322.226 -1.5378 -0.344866 0
M  V30 3420 C 323.503 -1.61589 -1.10219 0
M  V30 3421 C 323.883 -0.436316 -2.06542 0
M  V30 3422 O 323.231 0.571543 -2.21237 0
M  V30 3423 C 323.441 -2.97602 -1.82301 0
M  V30 3424 C 324.789 -3.5291 -2.36093 0
M  V30 3425 O 325.813 -2.99768 -1.924 0
M  V30 3426 O 324.672 -4.45859 -3.16026 0
M  V30 3427 H 321.766 -0.653522 -0.506792 0
M  V30 3428 H 324.312 -1.66126 -0.346465 0
M  V30 3429 H 323.084 -3.74893 -1.12121 0
M  V30 3430 H 322.707 -2.9665 -2.64735 0
M  V30 3431 N 323.704 0.605807 -1.45491 0
M  V30 3432 C 324.651 1.7164 -1.54299 0
M  V30 3433 C 325.621 1.61486 -0.388761 0
M  V30 3434 O 326.806 1.81039 -0.602445 0
M  V30 3435 C 323.946 3.09953 -1.51734 0
M  V30 3436 C 323.059 3.309 -2.77721 0
M  V30 3437 C 322.194 4.59329 -2.66816 0
M  V30 3438 C 321.233 4.7354 -3.87848 0
M  V30 3439 N 320.37 5.9327 -3.75467 0
M  V30 3440 H 325.21 1.63449 -2.49176 0
M  V30 3441 H 322.747 0.796957 -1.23641 0
M  V30 3442 H 324.705 3.89977 -1.48235 0
M  V30 3443 H 323.335 3.17098 -0.604068 0
M  V30 3444 H 322.387 2.44639 -2.913 0
M  V30 3445 H 323.699 3.37274 -3.67488 0
M  V30 3446 H 322.853 5.4755 -2.61292 0
M  V30 3447 H 321.592 4.55355 -1.74651 0
M  V30 3448 H 320.597 3.83741 -3.93729 0
M  V30 3449 H 321.822 4.79309 -4.81082 0
M  V30 3450 H 319.768 5.90338 -2.86072 0
M  V30 3451 H 319.685 6.00811 -4.5887 0
M  V30 3452 H 320.953 6.83984 -3.73879 0
M  V30 3453 N 325.182 1.32811 0.848464 0
M  V30 3454 C 326.112 1.24882 1.97299 0
M  V30 3455 C 327.093 0.131357 1.69592 0
M  V30 3456 O 328.278 0.319553 1.91553 0
M  V30 3457 C 325.408 0.97746 3.33261 0
M  V30 3458 C 324.362 2.05682 3.75338 0
M  V30 3459 C 323.688 1.63777 5.09 0
M  V30 3460 C 324.988 3.47254 3.90144 0
M  V30 3461 H 326.682 2.18966 2.04191 0
M  V30 3462 H 324.228 1.05413 0.981029 0
M  V30 3463 H 326.181 0.908513 4.1149 0
M  V30 3464 H 324.905 0.000980011 3.266 0
M  V30 3465 H 323.564 2.11603 2.99366 0
M  V30 3466 H 323.212 0.648569 4.98801 0
M  V30 3467 H 322.912 2.36 5.38124 0
M  V30 3468 H 324.436 1.5833 5.89715 0
M  V30 3469 H 325.85 3.43888 4.58709 0
M  V30 3470 H 324.247 4.1788 4.30693 0
M  V30 3471 H 325.317 3.86462 2.92874 0
M  V30 3472 N 326.66 -1.06551 1.16123 0
M  V30 3473 C 327.906 -1.79719 0.952505 0
M  V30 3474 C 328.261 -1.85396 -0.514385 0
M  V30 3475 O 327.554 -1.33263 -1.37665 0
M  V30 3476 C 327.748 -3.23911 1.51052 0
M  V30 3477 C 327.577 -3.32284 3.03013 0
M  V30 3478 C 326.347 -3.42371 3.71632 0
M  V30 3479 C 328.545 -3.22363 4.00732 0
M  V30 3480 N 326.527 -3.39732 5.11327 0
M  V30 3481 C 327.898 -3.26937 5.26794 0
M  V30 3482 C 329.953 -3.0623 3.92591 0
M  V30 3483 C 328.656 -3.17035 6.45663 0
M  V30 3484 C 330.682 -2.97665 5.11028 0
M  V30 3485 C 330.044 -3.02858 6.35969 0
M  V30 3486 H 326.143 -0.670585 0.402293 0
M  V30 3487 H 328.727 -1.27125 1.4747 0
M  V30 3488 H 326.898 -3.74907 1.01484 0
M  V30 3489 H 328.63 -3.85242 1.2398 0
M  V30 3490 H 325.385 -3.47058 3.22254 0
M  V30 3491 H 325.809 -3.41919 5.84312 0
M  V30 3492 H 330.451 -3.01063 2.96852 0
M  V30 3493 H 328.169 -3.2096 7.41627 0
M  V30 3494 H 331.755 -2.86273 5.06497 0
M  V30 3495 H 330.635 -2.96286 7.26075 0
M  V30 3496 N 328.138 -0.959301 -1.25041 0
M  V30 3497 C 329.549 -0.65667 -1.74771 0
M  V30 3498 C 329.9 0.827852 -1.77879 0
M  V30 3499 O 329.025 1.64783 -1.40269 0
M  V30 3500 C 329.62 -1.1853 -3.1739 0
M  V30 3501 C 328.179 -0.932734 -3.6466 0
M  V30 3502 C 327.326 -1.32558 -2.43564 0
M  V30 3503 H 330.277 -1.13558 -1.10862 0
M  V30 3504 H 330.298 -0.547582 -3.76539 0
M  V30 3505 H 329.81 -2.26576 -3.15095 0
M  V30 3506 H 327.911 0.13257 -3.72364 0
M  V30 3507 H 328.024 -1.57248 -4.52559 0
M  V30 3508 H 326.388 -0.743956 -2.43593 0
M  V30 3509 H 327.171 -2.41537 -2.43957 0
M  V30 3510 N 329.616 1.39756 -0.72842 0
M  V30 3511 C 330.566 2.2792 -0.0603424 0
M  V30 3512 C 331.55 1.43922 0.719399 0
M  V30 3513 O 332.742 1.66895 0.589489 0
M  V30 3514 C 329.871 3.32582 0.851104 0
M  V30 3515 C 328.957 4.24049 0.0658641 0
M  V30 3516 N 329.348 4.96653 -0.957578 0
M  V30 3517 C 327.646 4.45013 0.296509 0
M  V30 3518 C 328.347 5.63836 -1.43052 0
M  V30 3519 N 327.323 5.38397 -0.750315 0
M  V30 3520 H 331.125 2.81504 -0.84455 0
M  V30 3521 H 328.639 1.5236 -0.562155 0
M  V30 3522 H 330.636 3.94603 1.34514 0
M  V30 3523 H 329.296 2.80558 1.63454 0
M  V30 3524 H 330.307 5.00297 -1.33877 0
M  V30 3525 H 326.984 4.03943 1.05527 0
M  V30 3526 H 328.374 6.31974 -2.28163 0
M  V30 3527 N 331.094 0.475555 1.50254 0
M  V30 3528 C 332.319 -0.0777042 2.07254 0
M  V30 3529 C 332.744 -1.3235 1.3366 0
M  V30 3530 O 332.102 -1.77152 0.385597 0
M  V30 3531 C 332.15 -0.340169 3.58992 0
M  V30 3532 O 331.254 -1.41982 3.87188 0
M  V30 3533 H 330.595 0.0149556 0.663832 0
M  V30 3534 H 333.125 0.667878 1.93392 0
M  V30 3535 H 333.135 -0.579332 4.03866 0
M  V30 3536 H 331.81 0.570167 4.11973 0
M  V30 3537 H 330.387 -1.16762 3.54148 0
M  V30 3538 N 332.573 -1.56217 0.208337 0
M  V30 3539 C 333.483 -2.23316 -0.718836 0
M  V30 3540 C 334.499 -1.23648 -1.22422 0
M  V30 3541 O 335.675 -1.56423 -1.26861 0
M  V30 3542 C 332.74 -2.88968 -1.91568 0
M  V30 3543 C 331.801 -4.03943 -1.45357 0
M  V30 3544 C 331.034 -4.66455 -2.59337 0
M  V30 3545 O 331.257 -4.27919 -3.77149 0
M  V30 3546 O 330.191 -5.55686 -2.31293 0
M  V30 3547 H 334.017 -3.03182 -0.177315 0
M  V30 3548 H 331.602 -1.49384 -0.0215402 0
M  V30 3549 H 333.484 -3.30455 -2.61491 0
M  V30 3550 H 332.159 -2.12071 -2.44556 0
M  V30 3551 H 331.066 -3.67052 -0.722746 0
M  V30 3552 H 332.399 -4.82543 -0.970219 0
M  V30 3553 N 334.051 0.0651679 -1.57465 0
M  V30 3554 C 335.276 0.779605 -1.9219 0
M  V30 3555 C 335.701 1.69988 -0.805333 0
M  V30 3556 O 335.059 1.79685 0.241435 0
M  V30 3557 C 335.107 1.54364 -3.2589 0
M  V30 3558 O 334.211 2.65474 -3.1559 0
M  V30 3559 H 333.552 0.212249 -0.629163 0
M  V30 3560 H 336.082 0.0314294 -2.04576 0
M  V30 3561 H 336.092 1.92146 -3.59922 0
M  V30 3562 H 334.767 0.868457 -4.06732 0
M  V30 3563 H 333.344 2.30501 -2.93128 0
M  V30 3564 N 335.529 1.53961 0.336706 0
M  V30 3565 C 336.759 1.75229 1.09446 0
M  V30 3566 C 337.167 0.494602 1.82621 0
M  V30 3567 O 336.51 -0.543764 1.75468 0
M  V30 3568 C 336.572 2.88288 2.1478 0
M  V30 3569 C 336.236 4.27656 1.6112 0
M  V30 3570 C 337.233 5.08981 1.0599 0
M  V30 3571 C 334.918 4.74161 1.6576 0
M  V30 3572 C 336.912 6.34916 0.562129 0
M  V30 3573 C 334.599 6.00067 1.15595 0
M  V30 3574 C 335.597 6.80278 0.609147 0
M  V30 3575 O 335.285 8.03818 0.114999 0
M  V30 3576 H 335.017 0.588881 0.331956 0
M  V30 3577 H 337.571 2.01614 0.392566 0
M  V30 3578 H 335.801 2.57443 2.88548 0
M  V30 3579 H 337.49 2.97461 2.76174 0
M  V30 3580 H 338.256 4.74213 1.01722 0
M  V30 3581 H 334.135 4.11781 2.07261 0
M  V30 3582 H 337.679 6.9747 0.134668 0
M  V30 3583 H 333.576 6.3433 1.19566 0
M  V30 3584 H 334.344 8.18172 0.231651 0
M  V30 3585 N 337.007 -0.598083 1.45811 0
M  V30 3586 C 338.256 -1.35295 1.49594 0
M  V30 3587 C 338.569 -1.95057 0.145679 0
M  V30 3588 O 339.775 -2.71431 0.0612099 0
M  V30 3589 C 338.231 -2.45124 2.63519 0
M  V30 3590 C 337.839 -1.91732 4.04899 0
M  V30 3591 C 339.583 -3.2205 2.76558 0
M  V30 3592 C 337.49 -2.991 5.1019 0
M  V30 3593 H 336.42 -0.508552 0.556679 0
M  V30 3594 H 339.071 -0.639977 1.71978 0
M  V30 3595 H 337.453 -3.19149 2.34435 0
M  V30 3596 H 338.627 -1.24352 4.43704 0
M  V30 3597 H 336.942 -1.27522 3.96393 0
M  V30 3598 H 339.539 -4.0215 3.52391 0
M  V30 3599 H 339.882 -3.73663 1.83526 0
M  V30 3600 H 340.415 -2.55127 3.05213 0
M  V30 3601 H 337.154 -2.52393 6.04961 0
M  V30 3602 H 336.674 -3.65017 4.75944 0
M  V30 3603 H 338.353 -3.63318 5.35359 0
M  V30 3604 N 338.485 -1.33259 -0.841409 0
M  V30 3605 C 339.732 -1.24572 -1.5965 0
M  V30 3606 C 340.06 0.189137 -1.93578 0
M  V30 3607 O 339.315 1.14566 -1.5866 0
M  V30 3608 C 339.614 -2.06381 -2.9179 0
M  V30 3609 C 339.28 -3.556 -2.77235 0
M  V30 3610 C 337.942 -3.96282 -2.72973 0
M  V30 3611 C 340.294 -4.50433 -2.62221 0
M  V30 3612 C 337.622 -5.30017 -2.51592 0
M  V30 3613 C 339.974 -5.84327 -2.42374 0
M  V30 3614 C 338.638 -6.24194 -2.36512 0
M  V30 3615 H 337.908 -0.455842 -0.5842 0
M  V30 3616 H 340.555 -1.6482 -0.975016 0
M  V30 3617 H 338.86 -1.58903 -3.5813 0
M  V30 3618 H 340.557 -1.97019 -3.49263 0
M  V30 3619 H 337.147 -3.23298 -2.81384 0
M  V30 3620 H 341.331 -4.19914 -2.64549 0
M  V30 3621 H 336.587 -5.59947 -2.45499 0
M  V30 3622 H 340.761 -6.57414 -2.29739 0
M  V30 3623 H 338.388 -7.27759 -2.19706 0
M  V30 3624 N 339.963 1.05934 -1.16686 0
M  V30 3625 C 340.926 2.11669 -0.879144 0
M  V30 3626 C 341.926 1.60294 0.127445 0
M  V30 3627 O 343.116 1.7389 -0.103865 0
M  V30 3628 C 340.248 3.39438 -0.315425 0
M  V30 3629 H 341.441 2.38626 -1.81653 0
M  V30 3630 H 338.994 1.22058 -0.976299 0
M  V30 3631 H 339.729 3.18132 0.629468 0
M  V30 3632 H 339.514 3.78034 -1.04079 0
M  V30 3633 H 341.004 4.17391 -0.132189 0
M  V30 3634 N 341.441 0.965919 1.2453 0
M  V30 3635 C 342.388 0.49402 2.25451 0
M  V30 3636 C 343.358 -0.45948 1.59618 0
M  V30 3637 O 344.543 -0.370238 1.87173 0
M  V30 3638 C 341.683 -0.211359 3.44452 0
M  V30 3639 C 340.796 0.7807 4.24887 0
M  V30 3640 C 339.931 0.0516105 5.31175 0
M  V30 3641 C 338.97 1.03385 6.03306 0
M  V30 3642 N 338.107 0.334887 7.01301 0
M  V30 3643 H 342.947 1.35946 2.65184 0
M  V30 3644 H 340.484 0.681515 1.3036 0
M  V30 3645 H 342.442 -0.637 4.12308 0
M  V30 3646 H 341.072 -1.04077 3.05562 0
M  V30 3647 H 340.124 1.32479 3.56586 0
M  V30 3648 H 341.436 1.52978 4.74762 0
M  V30 3649 H 340.59 -0.432114 6.05159 0
M  V30 3650 H 339.329 -0.730179 4.82203 0
M  V30 3651 H 338.334 1.52847 5.28127 0
M  V30 3652 H 339.559 1.81606 6.54367 0
M  V30 3653 H 337.505 -0.427959 6.54603 0
M  V30 3654 H 337.422 1.02287 7.49048 0
M  V30 3655 H 338.69 -0.126928 7.79397 0
M  V30 3656 N 342.919 -1.39368 0.735821 0
M  V30 3657 C 343.882 -2.2896 0.104874 0
M  V30 3658 C 344.882 -1.46347 -0.666274 0
M  V30 3659 O 346.072 -1.67014 -0.49517 0
M  V30 3660 C 343.204 -3.29857 -0.860656 0
M  V30 3661 H 344.397 -2.86259 0.894205 0
M  V30 3662 H 341.95 -1.48029 0.501704 0
M  V30 3663 H 342.685 -2.77615 -1.67631 0
M  V30 3664 H 342.47 -3.9087 -0.310327 0
M  V30 3665 H 343.96 -3.96893 -1.29867 0
M  V30 3666 N 344.397 -0.483516 -1.5 0
M  V30 3667 C 345.36 0.292965 -2.2732 0
M  V30 3668 C 346.36 0.909499 -1.32608 0
M  V30 3669 O 347.55 0.776745 -1.55924 0
M  V30 3670 C 344.682 1.41854 -3.09984 0
M  V30 3671 H 345.875 -0.385289 -2.97415 0
M  V30 3672 H 343.428 -0.237942 -1.54478 0
M  V30 3673 H 344.163 2.13148 -2.44414 0
M  V30 3674 H 343.948 0.982114 -3.79601 0
M  V30 3675 H 345.438 1.96597 -3.68429 0
M  V30 3676 N 345.875 1.56104 -0.216619 0
M  V30 3677 C 346.825 2.16703 0.708798 0
M  V30 3678 C 347.809 1.11392 1.16106 0
M  V30 3679 O 349.001 1.37395 1.11587 0
M  V30 3680 C 346.13 2.84666 1.91886 0
M  V30 3681 C 345.216 3.97195 1.48651 0
M  V30 3682 N 345.607 4.99959 0.766434 0
M  V30 3683 C 343.905 4.09193 1.77418 0
M  V30 3684 C 344.606 5.79126 0.546659 0
M  V30 3685 N 343.582 5.32315 1.10188 0
M  V30 3686 H 347.384 2.93516 0.150162 0
M  V30 3687 H 344.898 1.6239 -0.0176768 0
M  V30 3688 H 346.895 3.26486 2.59253 0
M  V30 3689 H 345.555 2.09347 2.48202 0
M  V30 3690 H 346.566 5.16197 0.419634 0
M  V30 3691 H 343.243 3.45021 2.35088 0
M  V30 3692 H 344.633 6.71895 -0.026103 0
M  V30 3693 N 347.353 -0.0568162 1.57498 0
M  V30 3694 C 348.316 -1.05038 2.03715 0
M  V30 3695 C 349.316 -1.30709 0.936577 0
M  V30 3696 O 350.506 -1.26178 1.20103 0
M  V30 3697 C 347.638 -2.39034 2.43055 0
M  V30 3698 H 348.831 -0.651715 2.92733 0
M  V30 3699 H 346.384 -0.302947 1.53336 0
M  V30 3700 H 347.119 -2.83703 1.57108 0
M  V30 3701 H 346.904 -2.21739 3.2338 0
M  V30 3702 H 348.394 -3.10421 2.79336 0
M  V30 3703 N 348.832 -1.54138 -0.328536 0
M  V30 3704 C 350.243 -1.63395 -0.903272 0
M  V30 3705 C 350.594 -0.524828 -1.8905 0
M  V30 3706 O 349.719 0.343068 -2.13663 0
M  V30 3707 C 350.314 -2.9618 -1.64507 0
M  V30 3708 C 348.873 -3.0765 -2.1686 0
M  V30 3709 C 348.02 -2.58933 -0.992416 0
M  V30 3710 H 350.971 -1.58344 -0.106253 0
M  V30 3711 H 350.992 -2.86061 -2.50897 0
M  V30 3712 H 350.504 -3.76884 -0.926302 0
M  V30 3713 H 348.605 -2.31611 -2.91868 0
M  V30 3714 H 348.718 -4.1337 -2.42202 0
M  V30 3715 H 347.082 -2.14706 -1.37016 0
M  V30 3716 H 347.865 -3.42089 -0.288041 0
M  V30 3717 N 350.31 0.590341 -1.46126 0
M  V30 3718 C 351.557 1.34882 -1.5104 0
M  V30 3719 C 351.885 1.93849 -0.159021 0
M  V30 3720 O 351.14 1.76544 0.844436 0
M  V30 3721 C 351.439 2.5032 -2.55097 0
M  V30 3722 C 351.105 2.09394 -3.99331 0
M  V30 3723 C 349.767 1.97947 -4.38601 0
M  V30 3724 C 352.119 1.77712 -4.89967 0
M  V30 3725 C 349.447 1.53065 -5.66381 0
M  V30 3726 C 351.799 1.34312 -6.18177 0
M  V30 3727 C 350.463 1.21436 -6.56361 0
M  V30 3728 H 349.733 0.493568 -0.552695 0
M  V30 3729 H 352.38 0.665539 -1.79563 0
M  V30 3730 H 350.685 3.24062 -2.20207 0
M  V30 3731 H 352.382 3.08541 -2.56132 0
M  V30 3732 H 348.972 2.19235 -3.68285 0
M  V30 3733 H 353.156 1.85445 -4.60352 0
M  V30 3734 H 348.412 1.41733 -5.94745 0
M  V30 3735 H 352.586 1.08849 -6.87841 0
M  V30 3736 H 350.213 0.864345 -7.5527 0
M  V30 3737 N 351.788 1.33704 0.83433 0
M  V30 3738 C 353.037 1.24763 1.58484 0
M  V30 3739 C 353.35 -0.183775 1.94735 0
M  V30 3740 O 354.556 -0.395234 2.68608 0
M  V30 3741 C 353.012 2.18638 2.85876 0
M  V30 3742 C 352.62 3.66974 2.56971 0
M  V30 3743 C 354.364 2.18581 3.63899 0
M  V30 3744 C 352.271 4.5275 3.80488 0
M  V30 3745 H 351.201 0.463425 0.594772 0
M  V30 3746 H 353.852 1.58797 0.919551 0
M  V30 3747 H 352.234 1.77542 3.5397 0
M  V30 3748 H 353.408 4.16538 1.9706 0
M  V30 3749 H 351.723 3.69366 1.92244 0
M  V30 3750 H 354.32 2.79894 4.55591 0
M  V30 3751 H 354.663 1.18207 3.99165 0
M  V30 3752 H 355.196 2.58062 3.02735 0
M  V30 3753 H 351.935 5.54017 3.5035 0
M  V30 3754 H 351.455 4.07927 4.39722 0
M  V30 3755 H 353.134 4.66784 4.4802 0
M  V30 3756 N 353.266 -1.05314 1.17247 0
M  V30 3757 C 354.491 -1.82509 0.985148 0
M  V30 3758 C 354.916 -1.82343 -0.461788 0
M  V30 3759 O 354.274 -1.23151 -1.33055 0
M  V30 3760 C 354.322 -3.26566 1.52929 0
M  V30 3761 O 353.426 -4.05666 0.742225 0
M  V30 3762 H 352.767 -0.564347 0.349869 0
M  V30 3763 H 355.297 -1.32718 1.55715 0
M  V30 3764 H 355.307 -3.77369 1.55103 0
M  V30 3765 H 353.982 -3.26001 2.58256 0
M  V30 3766 H 352.559 -3.64397 0.791794 0
M  V30 3767 N 354.744 -0.972509 -1.24016 0
M  V30 3768 C 355.694 -0.477561 -2.22942 0
M  V30 3769 C 356.678 0.44308 -1.54679 0
M  V30 3770 O 357.87 0.273219 -1.74879 0
M  V30 3771 C 354.999 0.226348 -3.42553 0
M  V30 3772 C 354.085 -0.713403 -4.18057 0
M  V30 3773 N 354.476 -1.8527 -4.70647 0
M  V30 3774 C 352.774 -0.525145 -4.42898 0
M  V30 3775 C 353.475 -2.44089 -5.28011 0
M  V30 3776 N 352.451 -1.72556 -5.15486 0
M  V30 3777 H 356.253 -1.34678 -2.61226 0
M  V30 3778 H 353.767 -0.832196 -1.39457 0
M  V30 3779 H 355.764 0.598184 -4.12586 0
M  V30 3780 H 354.424 1.09195 -3.05788 0
M  V30 3781 H 355.435 -2.2341 -4.67235 0
M  V30 3782 H 352.112 0.296096 -4.16449 0
M  V30 3783 H 353.502 -3.40259 -5.79374 0
M  V30 3784 N 356.222 1.38976 -0.743202 0
M  V30 3785 C 357.633 1.83123 -0.363732 0
M  V30 3786 C 357.984 1.6205 1.10609 0
M  V30 3787 O 357.109 1.11606 1.854 0
M  V30 3788 C 357.704 3.32439 -0.653408 0
M  V30 3789 C 356.263 3.74974 -0.327338 0
M  V30 3790 C 355.41 2.61878 -0.911875 0
M  V30 3791 H 358.361 1.27852 -0.940191 0
M  V30 3792 H 358.382 3.80432 0.0720031 0
M  V30 3793 H 357.894 3.47745 -1.72323 0
M  V30 3794 H 355.995 3.65252 0.736314 0
M  V30 3795 H 356.108 4.72106 -0.815631 0
M  V30 3796 H 354.472 2.52448 -0.337944 0
M  V30 3797 H 355.255 2.79987 -1.98651 0
M  V30 3798 N 357.7 0.491464 1.49741 0
M  V30 3799 C 358.663 -0.280906 2.27472 0
M  V30 3800 C 359.663 -0.902454 1.33088 0
M  V30 3801 O 360.853 -0.768465 1.56334 0
M  V30 3802 C 357.985 -1.40209 3.10732 0
M  V30 3803 H 359.178 0.401056 2.97206 0
M  V30 3804 H 356.731 0.246131 1.5435 0
M  V30 3805 H 357.466 -2.11849 2.45541 0
M  V30 3806 H 357.251 -0.961969 3.80117 0
M  V30 3807 H 358.741 -1.9464 3.69466 0
M  V30 3808 N 359.178 -1.55987 0.224894 0
M  V30 3809 C 360.088 -2.24066 -0.69511 0
M  V30 3810 C 361.104 -1.24939 -1.21104 0
M  V30 3811 O 362.28 -1.5776 -1.25195 0
M  V30 3812 C 359.345 -2.90983 -1.88493 0
M  V30 3813 C 358.406 -4.05462 -1.41064 0
M  V30 3814 C 357.639 -4.69179 -2.54375 0
M  V30 3815 O 357.862 -4.31895 -3.72589 0
M  V30 3816 O 356.796 -5.58108 -2.25386 0
M  V30 3817 H 360.622 -3.03353 -0.145149 0
M  V30 3818 H 358.207 -1.49399 -0.00569476 0
M  V30 3819 H 360.089 -3.33209 -2.57972 0
M  V30 3820 H 358.764 -2.14653 -2.42293 0
M  V30 3821 H 357.671 -3.67798 -0.683774 0
M  V30 3822 H 359.004 -4.83545 -0.918985 0
M  V30 3823 N 360.656 0.0484629 -1.57525 0
M  V30 3824 C 361.903 0.743125 -1.88372 0
M  V30 3825 C 362.231 1.76383 -0.819715 0
M  V30 3826 O 361.486 1.94855 0.181659 0
M  V30 3827 C 361.785 1.46632 -3.25935 0
M  V30 3828 C 361.451 0.583427 -4.4711 0
M  V30 3829 C 360.113 0.340191 -4.79996 0
M  V30 3830 C 362.465 -0.0273345 -5.21193 0
M  V30 3831 C 359.793 -0.522903 -5.84365 0
M  V30 3832 C 362.145 -0.878017 -6.26477 0
M  V30 3833 C 360.809 -1.1309 -6.5785 0
M  V30 3834 H 360.079 0.271929 -0.689301 0
M  V30 3835 H 362.726 0.00336166 -1.915 0
M  V30 3836 H 361.031 2.2789 -3.18706 0
M  V30 3837 H 362.728 2.00902 -3.47044 0
M  V30 3838 H 359.318 0.783151 -4.21384 0
M  V30 3839 H 363.502 0.147654 -4.9608 0
M  V30 3840 H 358.758 -0.727335 -6.07058 0
M  V30 3841 H 362.932 -1.35789 -6.83033 0
M  V30 3842 H 360.559 -1.80144 -7.38547 0
M  V30 3843 N 362.134 1.5431 0.320358 0
M  V30 3844 C 363.374 1.74395 1.0661 0
M  V30 3845 C 363.738 0.508602 1.85141 0
M  V30 3846 O 364.939 0.586856 2.62316 0
M  V30 3847 C 363.21 2.98619 1.96371 0
M  V30 3848 S 364.769 3.39621 2.77854 0
M  V30 3849 H 361.587 0.613204 0.359863 0
M  V30 3850 H 364.189 1.9249 0.341727 0
M  V30 3851 H 362.893 3.86673 1.3752 0
M  V30 3852 H 362.424 2.83055 2.73209 0
M  V30 3853 H 364.439 2.95172 3.98858 0
M  V30 3854 N 363.613 -0.582584 1.46437 0
M  V30 3855 C 364.563 -1.68654 1.53426 0
M  V30 3856 C 365.547 -1.55971 0.395194 0
M  V30 3857 O 366.739 -1.64884 0.643612 0
M  V30 3858 C 363.868 -3.07439 1.52762 0
M  V30 3859 C 362.954 -3.25418 2.71963 0
M  V30 3860 N 363.345 -3.13556 3.96883 0
M  V30 3861 C 361.643 -3.56357 2.68189 0
M  V30 3862 C 362.344 -3.33543 4.76575 0
M  V30 3863 N 361.32 -3.58704 4.08451 0
M  V30 3864 H 365.122 -1.58014 2.47808 0
M  V30 3865 H 362.636 -0.786617 1.42078 0
M  V30 3866 H 364.633 -3.86671 1.55857 0
M  V30 3867 H 363.293 -3.1921 0.594573 0
M  V30 3868 H 364.304 -2.9142 4.28129 0
M  V30 3869 H 360.981 -3.74812 1.83908 0
M  V30 3870 H 362.371 -3.29555 5.85528 0
M  V30 3871 N 365.091 -1.34144 -0.827227 0
M  V30 3872 C 366.021 -1.28005 -1.95287 0
M  V30 3873 C 367.002 -0.158321 -1.69362 0
M  V30 3874 O 368.187 -0.349987 -1.9102 0
M  V30 3875 C 365.317 -1.03036 -3.31664 0
M  V30 3876 C 364.271 -2.11628 -3.72019 0
M  V30 3877 C 363.597 -1.71854 -5.0633 0
M  V30 3878 C 364.897 -3.53417 -3.8457 0
M  V30 3879 H 366.591 -2.22187 -2.00682 0
M  V30 3880 H 364.137 -1.0696 -0.964135 0
M  V30 3881 H 366.09 -0.973863 -4.09993 0
M  V30 3882 H 364.814 -0.0529391 -3.26557 0
M  V30 3883 H 363.473 -2.16339 -2.95961 0
M  V30 3884 H 363.121 -0.727841 -4.97706 0
M  V30 3885 H 362.821 -2.44531 -5.34302 0
M  V30 3886 H 364.345 -1.67692 -5.87122 0
M  V30 3887 H 365.759 -3.51142 -4.5318 0
M  V30 3888 H 364.156 -4.24679 -4.2399 0
M  V30 3889 H 365.226 -3.91072 -2.86689 0
M  V30 3890 N 366.569 1.04691 -1.17803 0
M  V30 3891 C 367.499 2.14494 -0.92275 0
M  V30 3892 C 368.48 1.69546 0.137179 0
M  V30 3893 O 369.665 1.94195 -0.0141108 0
M  V30 3894 C 366.795 3.44491 -0.440803 0
M  V30 3895 C 365.749 4.03031 -1.4405 0
M  V30 3896 C 365.075 5.28432 -0.81631 0
M  V30 3897 C 366.375 4.39932 -2.81527 0
M  V30 3898 H 368.069 2.36107 -1.84103 0
M  V30 3899 H 365.615 1.1347 -0.886599 0
M  V30 3900 H 367.568 4.2066 -0.249602 0
M  V30 3901 H 366.292 3.22546 0.513025 0
M  V30 3902 H 364.951 3.28937 -1.61853 0
M  V30 3903 H 364.599 5.02792 0.144511 0
M  V30 3904 H 364.299 5.68559 -1.48371 0
M  V30 3905 H 365.823 6.07284 -0.635496 0
M  V30 3906 H 367.237 5.07113 -2.67412 0
M  V30 3907 H 365.634 4.9109 -3.44892 0
M  V30 3908 H 366.704 3.50045 -3.35554 0
M  V30 3909 N 368.047 0.979072 1.23499 0
M  V30 3910 C 369.293 0.648178 1.92163 0
M  V30 3911 C 369.626 -0.816049 1.76222 0
M  V30 3912 O 368.901 -1.58849 1.12237 0
M  V30 3913 C 369.184 1.03773 3.44824 0
M  V30 3914 C 369.037 2.55948 3.69879 0
M  V30 3915 C 370.356 0.580653 4.36253 0
M  V30 3916 H 367.475 0.236952 0.69787 0
M  V30 3917 H 370.117 1.22012 1.45647 0
M  V30 3918 H 368.267 0.551058 3.84572 0
M  V30 3919 H 369.939 3.12179 3.3962 0
M  V30 3920 H 368.182 2.98641 3.14636 0
M  V30 3921 H 368.853 2.78255 4.76737 0
M  V30 3922 H 371.329 0.998465 4.03943 0
M  V30 3923 H 370.205 0.881663 5.41773 0
M  V30 3924 H 370.466 -0.519052 4.39042 0
M  V30 3925 N 369.525 -1.3858 0.750561 0
M  V30 3926 C 370.488 -2.28836 0.129152 0
M  V30 3927 C 371.488 -1.47045 -0.650714 0
M  V30 3928 O 372.678 -1.6753 -0.477428 0
M  V30 3929 C 369.81 -3.30751 -0.825622 0
M  V30 3930 H 371.003 -2.85294 0.924516 0
M  V30 3931 H 368.556 -1.47489 0.517376 0
M  V30 3932 H 369.291 -2.79378 -1.64677 0
M  V30 3933 H 369.076 -3.91177 -0.268852 0
M  V30 3934 H 370.566 -3.98249 -1.2565 0
M  V30 3935 N 371.003 -0.499398 -1.49478 0
M  V30 3936 C 371.933 0.269244 -2.31943 0
M  V30 3937 C 372.914 0.964054 -1.40143 0
M  V30 3938 O 374.099 0.955767 -1.69052 0
M  V30 3939 C 371.229 1.33504 -3.20615 0
M  V30 3940 C 370.183 0.760202 -4.21195 0
M  V30 3941 C 369.509 1.9264 -4.98792 0
M  V30 3942 C 370.809 -0.247661 -5.21712 0
M  V30 3943 H 372.503 -0.419082 -2.96452 0
M  V30 3944 H 370.049 -0.202988 -1.42562 0
M  V30 3945 H 372.002 1.88048 -3.77115 0
M  V30 3946 H 370.726 2.05253 -2.54045 0
M  V30 3947 H 369.385 0.23653 -3.65836 0
M  V30 3948 H 369.033 2.63154 -4.28671 0
M  V30 3949 H 368.733 1.54785 -5.66847 0
M  V30 3950 H 370.257 2.4762 -5.58137 0
M  V30 3951 H 371.671 0.209579 -5.72917 0
M  V30 3952 H 370.068 -0.541962 -5.97648 0
M  V30 3953 H 371.138 -1.16409 -4.7072 0
M  V30 3954 N 372.481 1.55866 -0.233164 0
M  V30 3955 C 373.428 2.20796 0.67215 0
M  V30 3956 C 374.398 1.16731 1.18166 0
M  V30 3957 O 375.583 1.45129 1.23864 0
M  V30 3958 C 372.723 2.90072 1.86955 0
M  V30 3959 C 371.836 4.08759 1.39786 0
M  V30 3960 C 370.971 4.65787 2.55374 0
M  V30 3961 C 370.01 5.76752 2.04998 0
M  V30 3962 N 369.147 6.28021 3.13901 0
M  V30 3963 H 373.987 2.9779 0.111749 0
M  V30 3964 H 371.524 1.47036 0.0434007 0
M  V30 3965 H 373.482 3.28428 2.57276 0
M  V30 3966 H 372.112 2.15575 2.40265 0
M  V30 3967 H 371.164 3.7581 0.589173 0
M  V30 3968 H 372.476 4.88906 0.98856 0
M  V30 3969 H 371.63 5.06646 3.33758 0
M  V30 3970 H 370.369 3.84828 2.99598 0
M  V30 3971 H 369.374 5.35383 1.25079 0
M  V30 3972 H 370.599 6.59553 1.61759 0
M  V30 3973 H 368.545 5.49971 3.57586 0
M  V30 3974 H 368.462 7.03323 2.7726 0
M  V30 3975 H 369.73 6.73538 3.92386 0
M  V30 3976 N 373.959 -0.0401083 1.57549 0
M  V30 3977 C 374.891 -1.07149 2.02612 0
M  V30 3978 C 375.904 -1.33126 0.937085 0
M  V30 3979 O 377.093 -1.30808 1.21456 0
M  V30 3980 C 374.193 -2.41561 2.37701 0
M  V30 3981 C 373.366 -2.35096 3.68848 0
M  V30 3982 C 372.425 -3.51867 3.91249 0
M  V30 3983 O 371.451 -3.3186 4.62447 0
M  V30 3984 N 372.653 -4.73351 3.36035 0
M  V30 3985 H 375.418 -0.687485 2.91708 0
M  V30 3986 H 372.979 -0.228248 1.60283 0
M  V30 3987 H 374.971 -3.18379 2.49833 0
M  V30 3988 H 373.541 -2.71846 1.54332 0
M  V30 3989 H 372.761 -1.4345 3.67173 0
M  V30 3990 H 374.049 -2.27908 4.54901 0
M  V30 3991 H 373.447 -4.92507 2.78304 0
M  V30 3992 H 372.004 -5.47572 3.53565 0
M  V30 3993 N 375.437 -1.54477 -0.31217 0
M  V30 3994 C 376.853 -1.45442 -0.657185 0
M  V30 3995 C 377.053 -0.63653 -1.91182 0
M  V30 3996 O 376.109 -0.139815 -2.52113 0
M  V30 3997 C 377.422 -2.89287 -0.82058 0
M  V30 3998 C 378.97 -2.9926 -0.917188 0
M  V30 3999 C 379.445 -4.44279 -1.11267 0
M  V30 4000 N 380.936 -4.4794 -1.17914 0
M  V30 4001 C 381.671 -5.57318 -1.34848 0
M  V30 4002 N 381.167 -6.76642 -1.48752 0
M  V30 4003 N 382.96 -5.44986 -1.37647 0
M  V30 4004 H 375.111 -2.06129 0.512313 0
M  V30 4005 H 377.374 -0.933088 0.167485 0
M  V30 4006 H 377.08 -3.51687 0.0302604 0
M  V30 4007 H 376.954 -3.36061 -1.71298 0
M  V30 4008 H 379.341 -2.36981 -1.75852 0
M  V30 4009 H 379.422 -2.558 -0.00101257 0
M  V30 4010 H 379.066 -5.07149 -0.27614 0
M  V30 4011 H 378.996 -4.85359 -2.04289 0
M  V30 4012 H 381.487 -3.61969 -1.08567 0
M  V30 4013 H 381.8 -7.55758 -1.61397 0
M  V30 4014 H 380.145 -6.79529 -1.45828 0
M  V30 4015 H 383.336 -4.50715 -1.26388 0
M  V30 4016 H 383.509 -6.3028 -1.50501 0
M  V30 4017 N 376.915 0.57481 -1.46744 0
M  V30 4018 C 378.161 1.3347 -1.52688 0
M  V30 4019 C 378.494 1.93353 -0.181229 0
M  V30 4020 O 377.769 1.76912 0.808237 0
M  V30 4021 C 378.052 2.45811 -2.63152 0
M  V30 4022 C 377.905 1.90912 -4.07275 0
M  V30 4023 C 379.224 3.47822 -2.69644 0
M  V30 4024 H 376.343 0.483935 -0.555856 0
M  V30 4025 H 378.985 0.644968 -1.78718 0
M  V30 4026 H 377.135 3.04646 -2.41088 0
M  V30 4027 H 378.807 1.36473 -4.4065 0
M  V30 4028 H 377.05 1.21691 -4.16382 0
M  V30 4029 H 377.721 2.72042 -4.80309 0
M  V30 4030 H 380.197 2.9888 -2.895 0
M  V30 4031 H 379.073 4.23876 -3.48742 0
M  V30 4032 H 379.334 4.05555 -1.76005 0
M  V30 4033 O 378.432 1.44602 0.719209 0
M  V30 4034 H 379.123 1.36947 1.36986 0
M  V30 END ATOM
M  V30 BEGIN BOND
M  V30 END BOND
M  V30 END CTAB
M  END
$$$$
