drugbank_target|Q9Y5K8 V-type proton ATPase subunit D (DB01133)
 OpenBabel12092121233D

  0  0  0     0  0            999 V3000
M  V30 BEGIN CTAB
M  V30 COUNTS 4075 4095 0 0 0
M  V30 BEGIN ATOM
M  V30 1 H -0.908 1.98254 -0.117106 0
M  V30 2 N 0 1.576 0 0
M  V30 3 C 0.933 2.03868 1.02534 0
M  V30 4 C 1.911 0.928543 1.3348 0
M  V30 5 O 3.095 1.19667 1.45644 0
M  V30 6 C 0.222 2.43627 2.35294 0
M  V30 7 C -0.732 3.65373 2.2001 0
M  V30 8 S 0.101 5.13292 1.52614 0
M  V30 9 C 1.257 5.56322 2.86805 0
M  V30 10 H 1.49 2.90518 0.631377 0
M  V30 11 H -0.977 1.52953 0.210867 0
M  V30 12 H 0.981 2.67203 3.11629 0
M  V30 13 H -0.358 1.57376 2.7183 0
M  V30 14 H -1.165 3.90944 3.18086 0
M  V30 15 H -1.563 3.418 1.51819 0
M  V30 16 H 0.729 5.58782 3.83104 0
M  V30 17 H 1.672 6.56266 2.65933 0
M  V30 18 H 2.08 4.83886 2.90714 0
M  V30 19 N 1.4781 -0.272755 1.55222 0
M  V30 20 C 2.7031 -1.02683 1.80197 0
M  V30 21 C 3.1281 -1.79142 0.573551 0
M  V30 22 O 2.4861 -1.74917 -0.476849 0
M  V30 23 C 2.5341 -1.9609 3.02624 0
M  V30 24 O 1.6381 -3.04863 2.77727 0
M  V30 25 H 0.9791 -0.293557 0.595584 0
M  V30 26 H 3.5091 -0.30159 2.02365 0
M  V30 27 H 3.5191 -2.38039 3.31363 0
M  V30 28 H 2.1941 -1.39851 3.91682 0
M  V30 29 H 0.7711 -2.67228 2.60084 0
M  V30 30 N 2.9562 -1.48159 -0.537278 0
M  V30 31 C 4.2042 -1.55497 -1.29094 0
M  V30 32 C 4.5252 -0.227454 -1.93669 0
M  V30 33 O 3.7952 0.750386 -1.80959 0
M  V30 34 H 2.3752 -0.572832 -0.47945 0
M  V30 35 H 5.0372 -1.84579 -0.625818 0
M  V30 36 H 4.1332 -2.33216 -2.07405 0
M  V30 37 N 4.4343 0.785586 -1.36625 0
M  V30 38 C 5.3813 1.89838 -1.31264 0
M  V30 39 C 6.3513 1.65115 -0.180633 0
M  V30 40 O 7.5363 1.87222 -0.36777 0
M  V30 41 C 4.6763 3.26706 -1.11163 0
M  V30 42 C 3.7893 3.63476 -2.33472 0
M  V30 43 C 2.9243 4.89481 -2.06353 0
M  V30 44 C 1.9633 5.18941 -3.24602 0
M  V30 45 N 1.1003 6.36131 -2.97123 0
M  V30 46 H 5.9403 1.93756 -2.26413 0
M  V30 47 H 3.4773 0.947454 -1.12524 0
M  V30 48 H 5.4353 4.05639 -0.975337 0
M  V30 49 H 4.0653 3.222 -0.196674 0
M  V30 50 H 3.1173 2.79636 -2.57891 0
M  V30 51 H 4.4293 3.81193 -3.21704 0
M  V30 52 H 3.5833 5.76288 -1.89675 0
M  V30 53 H 2.3223 4.73841 -1.15437 0
M  V30 54 H 1.3273 4.30615 -3.41834 0
M  V30 55 H 2.5523 5.36498 -4.16349 0
M  V30 56 H 0.4983 6.21875 -2.08823 0
M  V30 57 H 0.4153 6.54198 -3.78894 0
M  V30 58 H 1.6833 7.2591 -2.84033 0
M  V30 59 N 5.9124 1.20967 1.01018 0
M  V30 60 C 7.1894 0.93264 1.71934 0
M  V30 61 C 7.5694 -0.55692 2.03621 0
M  V30 62 O 6.9174 -1.52035 1.7058 0
M  V30 63 C 7.1274 1.81233 2.98254 0
M  V30 64 C 8.4754 2.05804 3.71389 0
M  V30 65 O 9.4994 1.78539 3.08225 0
M  V30 66 O 8.3584 2.51888 4.84989 0
M  V30 67 H 5.4524 0.349272 0.749625 0
M  V30 68 H 7.9984 1.31871 1.06808 0
M  V30 69 H 6.7704 2.82067 2.71208 0
M  V30 70 H 6.3934 1.42674 3.7112 0
M  V30 71 N 7.3905 -1.2043 1.01659 0
M  V30 72 C 8.8065 -1.41852 0.731442 0
M  V30 73 C 9.0065 -1.89358 -0.688898 0
M  V30 74 O 8.0625 -2.06247 -1.45666 0
M  V30 75 C 9.3755 -2.44019 1.75714 0
M  V30 76 C 10.9235 -2.57785 1.77527 0
M  V30 77 C 11.3985 -3.63194 2.79023 0
M  V30 78 N 12.8895 -3.70678 2.77763 0
M  V30 79 C 13.6245 -4.51897 3.52954 0
M  V30 80 N 13.1205 -5.36921 4.37821 0
M  V30 81 N 14.9135 -4.4643 3.41551 0
M  V30 82 H 7.0645 -0.879093 1.93354 0
M  V30 83 H 9.3275 -0.448425 0.835236 0
M  V30 84 H 9.0335 -2.1611 2.77469 0
M  V30 85 H 8.9075 -3.43007 1.56927 0
M  V30 86 H 11.2945 -2.85023 0.764569 0
M  V30 87 H 11.3755 -1.58992 2.00387 0
M  V30 88 H 11.0195 -3.36699 3.80258 0
M  V30 89 H 10.9495 -4.61609 2.53425 0
M  V30 90 H 13.4405 -3.09944 2.16201 0
M  V30 91 H 13.7535 -5.95981 4.91962 0
M  V30 92 H 12.0985 -5.36424 4.41899 0
M  V30 93 H 15.2895 -3.79042 2.74672 0
M  V30 94 H 15.4625 -5.09491 4.00404 0
M  V30 95 N 8.8686 -0.792821 -1.36206 0
M  V30 96 C 10.1176 -0.363353 -1.984 0
M  V30 97 C 10.4306 1.07172 -1.63626 0
M  V30 98 O 11.6366 1.60362 -2.19081 0
M  V30 99 C 10.0926 -0.59872 -3.54885 0
M  V30 100 C 9.7006 -2.04543 -3.9858 0
M  V30 101 C 11.4446 -0.233926 -4.23855 0
M  V30 102 C 9.3516 -2.22727 -5.47856 0
M  V30 103 H 8.2816 -0.13212 -0.742334 0
M  V30 104 H 10.9326 -0.974935 -1.55458 0
M  V30 105 H 9.3146 0.0826222 -3.95914 0
M  V30 106 H 10.4886 -2.76345 -3.68741 0
M  V30 107 H 8.8036 -2.36879 -3.42458 0
M  V30 108 H 11.4006 -0.348027 -5.33566 0
M  V30 109 H 11.7436 0.818351 -4.08177 0
M  V30 110 H 12.2766 -0.868639 -3.882 0
M  V30 111 H 9.0156 -3.2635 -5.68486 0
M  V30 112 H 8.5356 -1.55434 -5.7931 0
M  V30 113 H 10.2146 -2.03607 -6.14128 0
M  V30 114 N 10.3467 1.47872 -0.545128 0
M  V30 115 C 11.2567 2.33633 0.212746 0
M  V30 116 C 12.2727 1.4744 0.923983 0
M  V30 117 O 13.4487 1.80393 0.895572 0
M  V30 118 C 10.5137 3.23884 1.23693 0
M  V30 119 C 9.5747 4.25961 0.534417 0
M  V30 120 C 8.8077 5.11899 1.5098 0
M  V30 121 O 9.0307 5.00077 2.7437 0
M  V30 122 O 7.9647 5.92831 1.0409 0
M  V30 123 H 11.7907 2.99714 -0.490416 0
M  V30 124 H 9.3757 1.46235 -0.305871 0
M  V30 125 H 11.2577 3.79666 1.82843 0
M  V30 126 H 9.9327 2.60446 1.92222 0
M  V30 127 H 8.8397 3.73972 -0.0979679 0
M  V30 128 H 10.1727 4.92079 -0.109213 0
M  V30 129 N 11.8248 0.280983 1.55075 0
M  V30 130 C 13.0738 -0.334784 1.98902 0
M  V30 131 C 13.3868 -1.56534 1.17288 0
M  V30 132 O 14.5928 -2.25443 1.51287 0
M  V30 133 C 13.0488 -0.646994 3.54037 0
M  V30 134 C 12.6568 0.564085 4.44435 0
M  V30 135 C 14.4008 -1.22506 4.06439 0
M  V30 136 C 12.3078 0.226137 5.90967 0
M  V30 137 H 11.2378 -0.128866 0.742906 0
M  V30 138 H 13.8888 0.386556 1.79382 0
M  V30 139 H 12.2708 -1.42739 3.6938 0
M  V30 140 H 13.4448 1.34082 4.40861 0
M  V30 141 H 11.7598 1.0594 4.02698 0
M  V30 142 H 14.3568 -1.49182 5.13468 0
M  V30 143 H 14.6998 -2.16085 3.55827 0
M  V30 144 H 15.2328 -0.50682 3.94558 0
M  V30 145 H 11.9718 1.12996 6.45687 0
M  V30 146 H 11.4918 -0.513717 5.97596 0
M  V30 147 H 13.1708 -0.179539 6.46751 0
M  V30 148 N 13.3029 -1.57598 0.00835791 0
M  V30 149 C 14.5499 -1.90928 -0.674732 0
M  V30 150 C 14.8779 -0.88277 -1.73313 0
M  V30 151 O 14.1329 0.111294 -1.95383 0
M  V30 152 C 14.4319 -3.3101 -1.34787 0
M  V30 153 C 14.0979 -4.48922 -0.421861 0
M  V30 154 C 12.7599 -4.8091 -0.166927 0
M  V30 155 C 15.1119 -5.20755 0.215211 0
M  V30 156 C 12.4399 -5.821 0.733232 0
M  V30 157 C 14.7919 -6.22905 1.1033 0
M  V30 158 C 13.4559 -6.53346 1.36733 0
M  V30 159 H 12.7259 -0.698656 -0.246902 0
M  V30 160 H 15.3729 -1.91387 0.0656779 0
M  V30 161 H 13.6779 -3.26714 -2.16253 0
M  V30 162 H 15.3749 -3.54061 -1.8826 0
M  V30 163 H 11.9649 -4.23934 -0.630729 0
M  V30 164 H 16.1489 -4.9629 0.0312829 0
M  V30 165 H 11.4049 -6.04042 0.945712 0
M  V30 166 H 15.5789 -6.77694 1.60325 0
M  V30 167 H 13.2059 -7.31573 2.06652 0
M  V30 168 N 14.781 0.264519 -1.55364 0
M  V30 169 C 16.192 0.834936 -1.6699 0
M  V30 170 C 16.543 1.86718 -0.602552 0
M  V30 171 O 15.668 2.14899 0.254425 0
M  V30 172 C 16.263 1.5212 -3.02729 0
M  V30 173 C 14.822 2.03954 -3.16354 0
M  V30 174 C 13.969 0.884498 -2.62815 0
M  V30 175 H 16.92 0.0406869 -1.58648 0
M  V30 176 H 16.941 2.38853 -2.96191 0
M  V30 177 H 16.453 0.769668 -3.80392 0
M  V30 178 H 14.554 2.82041 -2.43482 0
M  V30 179 H 14.667 2.24902 -4.23032 0
M  V30 180 H 13.031 1.2802 -2.20188 0
M  V30 181 H 13.814 0.14634 -3.42988 0
M  V30 182 N 16.2591 1.48442 0.529413 0
M  V30 183 C 17.4841 1.60406 1.31471 0
M  V30 184 C 17.9091 0.264738 1.86228 0
M  V30 185 O 17.2671 -0.763668 1.64432 0
M  V30 186 C 17.3151 2.65419 2.44101 0
M  V30 187 O 16.4191 2.22618 3.47153 0
M  V30 188 H 15.7601 0.537863 0.389357 0
M  V30 189 H 18.2901 1.94432 0.636965 0
M  V30 190 H 18.3001 2.86709 2.90279 0
M  V30 191 H 16.9751 3.62652 2.03608 0
M  V30 192 H 15.5521 2.11543 3.0709 0
M  V30 193 N 17.7372 -0.778329 1.37039 0
M  V30 194 C 19.1532 -1.07796 1.17695 0
M  V30 195 C 19.3532 -2.01498 0.00860115 0
M  V30 196 O 18.4092 -2.43901 -0.653352 0
M  V30 197 C 19.7222 -1.68178 2.49272 0
M  V30 198 C 21.2702 -1.80467 2.55735 0
M  V30 199 C 21.7452 -2.44263 3.87427 0
M  V30 200 N 23.2362 -2.51721 3.88833 0
M  V30 201 C 23.9712 -3.01919 4.87476 0
M  V30 202 N 23.4672 -3.5234 5.96513 0
M  V30 203 N 25.2602 -3.00733 4.74885 0
M  V30 204 H 17.4112 -0.156032 2.11826 0
M  V30 205 H 19.6742 -0.131844 0.938787 0
M  V30 206 H 19.3802 -1.06796 3.35093 0
M  V30 207 H 19.2542 -2.67554 2.65885 0
M  V30 208 H 21.6412 -2.40984 1.70325 0
M  V30 209 H 21.7222 -0.798656 2.43013 0
M  V30 210 H 21.3662 -1.84388 4.73248 0
M  V30 211 H 21.2962 -3.45458 3.9745 0
M  V30 212 H 23.7872 -2.1603 3.10063 0
M  V30 213 H 24.1002 -3.89027 6.67741 0
M  V30 214 H 22.4452 -3.50462 6.00168 0
M  V30 215 H 25.6362 -2.60638 3.88826 0
M  V30 216 H 25.8092 -3.39545 5.51918 0
M  V30 217 N 19.2153 -1.21501 -1.00376 0
M  V30 218 C 20.1483 -0.918669 -2.08892 0
M  V30 219 C 21.1263 0.134277 -1.62045 0
M  V30 220 O 22.3103 0.00504255 -1.88499 0
M  V30 221 C 19.4373 -0.379645 -3.36566 0
M  V30 222 C 18.4833 -1.41559 -4.02323 0
M  V30 223 S 19.3163 -2.98521 -4.44574 0
M  V30 224 C 20.4723 -2.46228 -5.75433 0
M  V30 225 H 20.7053 -1.83761 -2.33707 0
M  V30 226 H 18.2383 -1.04489 -1.13673 0
M  V30 227 H 20.1963 -0.0752195 -4.10431 0
M  V30 228 H 18.8573 0.518008 -3.09799 0
M  V30 229 H 18.0503 -0.988076 -4.9422 0
M  V30 230 H 17.6523 -1.66815 -3.34737 0
M  V30 231 H 19.9443 -1.86791 -6.51241 0
M  V30 232 H 20.8873 -3.36572 -6.22997 0
M  V30 233 H 21.2953 -1.87894 -5.32312 0
M  V30 234 N 20.6934 1.19889 -1.02296 0
M  V30 235 C 21.6564 2.21116 -0.603351 0
M  V30 236 C 22.6564 1.5738 0.329884 0
M  V30 237 O 23.8464 1.73802 0.117702 0
M  V30 238 C 20.9784 3.40696 0.117992 0
M  V30 239 H 22.1714 2.59754 -1.49893 0
M  V30 240 H 19.7244 1.33463 -0.813468 0
M  V30 241 H 20.4594 3.07569 1.0282 0
M  V30 242 H 20.2444 3.88188 -0.552511 0
M  V30 243 H 21.7344 4.15692 0.398696 0
M  V30 244 N 22.1715 0.800033 1.35784 0
M  V30 245 C 23.1035 0.163596 2.28615 0
M  V30 246 C 24.1165 -0.633317 1.49976 0
M  V30 247 O 25.3055 -0.466754 1.72289 0
M  V30 248 C 22.4055 -0.790958 3.29541 0
M  V30 249 C 21.5785 -0.0418255 4.3738 0
M  V30 250 C 20.6375 -0.91389 5.18203 0
M  V30 251 O 19.6635 -0.367234 5.68014 0
M  V30 252 N 20.8655 -2.23682 5.35674 0
M  V30 253 H 23.6305 0.96105 2.83873 0
M  V30 254 H 21.1915 0.654894 1.48063 0
M  V30 255 H 23.1835 -1.37844 3.80501 0
M  V30 256 H 21.7535 -1.48925 2.74846 0
M  V30 257 H 20.9735 0.726813 3.87442 0
M  V30 258 H 22.2615 0.474719 5.06581 0
M  V30 259 H 21.6595 -2.70497 4.96838 0
M  V30 260 H 20.2165 -2.77369 5.89839 0
M  V30 261 N 23.6496 -1.47581 0.552962 0
M  V30 262 C 24.8776 -2.06875 0.0320556 0
M  V30 263 C 25.2926 -1.40625 -1.25976 0
M  V30 264 O 24.6496 -0.501349 -1.75479 0
M  V30 265 C 24.7006 -3.61092 -0.17167 0
M  V30 266 O 24.4216 -4.24858 1.06899 0
M  V30 267 C 25.9226 -4.37242 -0.730344 0
M  V30 268 H 23.1426 -0.669561 0.043915 0
M  V30 269 H 25.6866 -1.89646 0.765163 0
M  V30 270 H 23.8416 -3.7785 -0.854894 0
M  V30 271 H 24.2556 -5.17334 0.864059 0
M  V30 272 H 25.7296 -5.45842 -0.822203 0
M  V30 273 H 26.2066 -4.03235 -1.74064 0
M  V30 274 H 26.8126 -4.25219 -0.0829543 0
M  V30 275 N 25.1277 -0.289203 -1.54924 0
M  V30 276 C 26.3767 0.324231 -1.99077 0
M  V30 277 C 26.6897 1.5591 -1.18117 0
M  V30 278 O 27.8957 2.24637 -1.52481 0
M  V30 279 C 26.3517 0.628209 -3.54375 0
M  V30 280 C 25.9597 -0.587647 -4.44129 0
M  V30 281 C 27.7037 1.20349 -4.07083 0
M  V30 282 C 25.6107 -0.257475 -5.90839 0
M  V30 283 H 24.5407 0.124924 -0.743579 0
M  V30 284 H 27.1917 -0.396063 -1.79175 0
M  V30 285 H 25.5737 1.40778 -3.70132 0
M  V30 286 H 26.7477 -1.36418 -4.40144 0
M  V30 287 H 25.0627 -1.08074 -4.0213 0
M  V30 288 H 27.6597 1.46456 -5.14252 0
M  V30 289 H 28.0027 2.14195 -3.56968 0
M  V30 290 H 28.5357 0.485889 -3.94821 0
M  V30 291 H 25.2747 -1.16419 -6.45079 0
M  V30 292 H 24.7947 0.482018 -5.9786 0
M  V30 293 H 26.4737 0.145238 -6.46837 0
M  V30 294 N 26.6058 1.57591 -0.0167156 0
M  V30 295 C 27.5388 2.04944 1.00366 0
M  V30 296 C 28.5168 0.942648 1.32487 0
M  V30 297 O 29.7008 1.21205 1.44367 0
M  V30 298 C 26.8278 2.46109 2.32697 0
M  V30 299 C 25.8738 3.67686 2.16123 0
M  V30 300 S 26.7068 5.14882 1.47161 0
M  V30 301 C 27.8628 5.59332 2.80888 0
M  V30 302 H 28.0958 2.91172 0.600528 0
M  V30 303 H 25.6288 1.53168 0.194632 0
M  V30 304 H 27.5868 2.70493 3.08778 0
M  V30 305 H 26.2478 1.6025 2.70146 0
M  V30 306 H 25.4408 3.94296 3.13922 0
M  V30 307 H 25.0428 3.43391 1.48185 0
M  V30 308 H 27.3348 5.62814 3.77156 0
M  V30 309 H 28.2778 6.5905 2.58958 0
M  V30 310 H 28.6858 4.86942 2.85565 0
M  V30 311 N 28.0839 -0.256276 1.55502 0
M  V30 312 C 29.0309 -1.31714 1.89526 0
M  V30 313 C 30.0009 -1.4828 0.748479 0
M  V30 314 O 31.1859 -1.62416 1.00128 0
M  V30 315 C 28.3259 -2.66933 2.18725 0
M  V30 316 C 27.4389 -2.58452 3.4616 0
M  V30 317 C 26.5739 -3.85961 3.64976 0
M  V30 318 C 25.6129 -3.72059 4.86044 0
M  V30 319 N 24.7499 -4.9144 5.01429 0
M  V30 320 H 29.5899 -1.01998 2.80001 0
M  V30 321 H 27.1269 -0.492413 1.38613 0
M  V30 322 H 29.0849 -3.4563 2.33657 0
M  V30 323 H 27.7149 -2.94816 1.31466 0
M  V30 324 H 26.7669 -1.71374 3.3961 0
M  V30 325 H 28.0789 -2.44085 4.34999 0
M  V30 326 H 27.2329 -4.73101 3.79816 0
M  V30 327 H 25.9719 -4.03215 2.74353 0
M  V30 328 H 24.9769 -2.83302 4.7119 0
M  V30 329 H 26.2019 -3.56309 5.78118 0
M  V30 330 H 24.1479 -5.09072 4.13741 0
M  V30 331 H 24.0649 -4.79668 5.84341 0
M  V30 332 H 25.3329 -5.80104 5.20672 0
M  V30 333 N 29.562 -1.4872 -0.521534 0
M  V30 334 C 30.525 -1.63379 -1.60748 0
M  V30 335 C 31.525 -0.50661 -1.52611 0
M  V30 336 O 32.715 -0.772601 -1.5613 0
M  V30 337 C 29.847 -1.61192 -3.00383 0
M  V30 338 H 31.04 -2.60217 -1.49087 0
M  V30 339 H 28.593 -1.37444 -0.744235 0
M  V30 340 H 29.328 -0.65863 -3.17541 0
M  V30 341 H 29.113 -2.43032 -3.07698 0
M  V30 342 H 30.603 -1.7466 -3.7932 0
M  V30 343 N 31.0401 0.771051 -1.3745 0
M  V30 344 C 32.4561 1.07171 -1.18265 0
M  V30 345 C 32.6561 2.01491 -0.019287 0
M  V30 346 O 31.7121 2.44244 0.640408 0
M  V30 347 C 33.0251 1.66854 -2.50161 0
M  V30 348 C 34.5731 1.79109 -2.56689 0
M  V30 349 C 35.0481 2.42205 -3.88717 0
M  V30 350 N 36.5391 2.49655 -3.90162 0
M  V30 351 C 37.2741 2.9933 -4.8907 0
M  V30 352 N 36.7701 3.49172 -5.98374 0
M  V30 353 N 38.5631 2.9821 -4.76474 0
M  V30 354 H 30.7141 0.144796 -2.11906 0
M  V30 355 H 32.9771 0.126863 -0.939473 0
M  V30 356 H 32.6831 1.05017 -3.35655 0
M  V30 357 H 32.5571 2.6614 -2.673 0
M  V30 358 H 34.9441 2.40077 -1.71601 0
M  V30 359 H 35.0251 0.785757 -2.43433 0
M  V30 360 H 34.6691 1.81875 -4.74219 0
M  V30 361 H 34.5991 3.43345 -3.99276 0
M  V30 362 H 37.0901 2.14383 -3.11205 0
M  V30 363 H 37.4031 3.8548 -6.69795 0
M  V30 364 H 35.7481 3.47275 -6.02018 0
M  V30 365 H 38.9391 2.58572 -3.90203 0
M  V30 366 H 39.1121 3.36613 -5.53711 0
M  V30 367 N 32.5182 1.22032 0.997298 0
M  V30 368 C 33.4482 1.01065 2.10495 0
M  V30 369 C 34.4292 -0.0669542 1.69968 0
M  V30 370 O 35.6142 0.0943987 1.9397 0
M  V30 371 C 32.7442 0.582874 3.42374 0
M  V30 372 C 31.6982 1.60592 3.96729 0
M  V30 373 C 31.0242 1.03412 5.24605 0
M  V30 374 C 32.3242 2.99478 4.27914 0
M  V30 375 H 34.0182 1.93708 2.28292 0
M  V30 376 H 31.5642 0.932761 1.09707 0
M  V30 377 H 33.5172 0.423332 4.19268 0
M  V30 378 H 32.2412 -0.379213 3.24391 0
M  V30 379 H 30.9002 1.75316 3.21963 0
M  V30 380 H 30.5482 0.063518 5.0296 0
M  V30 381 H 30.2482 1.71754 5.61938 0
M  V30 382 H 31.7722 0.886066 6.04137 0
M  V30 383 H 33.1862 2.88153 4.95622 0
M  V30 384 H 31.5832 3.64903 4.76409 0
M  V30 385 H 32.6532 3.49742 3.3587 0
M  V30 386 N 33.9963 -1.19345 1.0293 0
M  V30 387 C 34.9433 -2.2258 0.610464 0
M  V30 388 C 35.9133 -1.6179 -0.375946 0
M  V30 389 O 37.0983 -1.88844 -0.272511 0
M  V30 390 C 34.2383 -3.45085 -0.0321473 0
M  V30 391 C 33.3513 -4.20258 1.00035 0
M  V30 392 C 32.4863 -5.3019 0.32746 0
M  V30 393 C 31.5253 -5.97121 1.34584 0
M  V30 394 N 30.6623 -6.98615 0.698726 0
M  V30 395 H 35.5023 -2.57764 1.49538 0
M  V30 396 H 33.0393 -1.26644 0.748311 0
M  V30 397 H 34.9973 -4.15061 -0.421966 0
M  V30 398 H 33.6273 -3.10555 -0.88064 0
M  V30 399 H 32.6793 -3.49223 1.50823 0
M  V30 400 H 33.9913 -4.66175 1.77433 0
M  V30 401 H 33.1453 -6.06587 -0.11718 0
M  V30 402 H 31.8843 -4.85345 -0.478713 0
M  V30 403 H 30.8893 -5.19474 1.80074 0
M  V30 404 H 32.1143 -6.4405 2.15352 0
M  V30 405 H 30.0603 -6.55942 -0.0873471 0
M  V30 406 H 29.9773 -7.42724 1.41058 0
M  V30 407 H 31.2453 -7.79004 0.278102 0
M  V30 408 N 35.4744 -0.807222 -1.35358 0
M  V30 409 C 36.7224 -0.387122 -1.98358 0
M  V30 410 C 37.0434 1.04942 -1.64354 0
M  V30 411 O 36.3134 1.72615 -0.926339 0
M  V30 412 H 34.8934 -0.140154 -0.733734 0
M  V30 413 H 37.5554 -1.0332 -1.6526 0
M  V30 414 H 36.6514 -0.493352 -3.08176 0
M  V30 415 N 36.9525 1.47285 -0.560781 0
M  V30 416 C 37.9155 2.28535 0.174488 0
M  V30 417 C 38.9155 1.37153 0.839388 0
M  V30 418 O 40.1055 1.59748 0.694702 0
M  V30 419 C 37.2375 3.16934 1.25561 0
M  V30 420 H 38.4305 2.95012 -0.539262 0
M  V30 421 H 35.9835 1.53034 -0.317865 0
M  V30 422 H 36.7185 2.55157 2.00164 0
M  V30 423 H 36.5035 3.8419 0.783604 0
M  V30 424 H 37.9935 3.78143 1.77193 0
M  V30 425 N 38.4306 0.297415 1.54768 0
M  V30 426 C 39.3626 -0.613881 2.20826 0
M  V30 427 C 40.3756 -1.10032 1.19987 0
M  V30 428 O 41.5646 -1.01839 1.46598 0
M  V30 429 C 38.6646 -1.852 2.83821 0
M  V30 430 C 37.8376 -1.50865 4.10559 0
M  V30 431 C 36.8966 -2.60154 4.57391 0
M  V30 432 O 35.9226 -2.25398 5.2267 0
M  V30 433 N 37.1246 -3.90629 4.29406 0
M  V30 434 H 39.8896 -0.048389 2.99661 0
M  V30 435 H 37.4506 0.11946 1.61459 0
M  V30 436 H 39.4426 -2.57652 3.12086 0
M  V30 437 H 38.0126 -2.32597 2.08847 0
M  V30 438 H 37.2326 -0.616925 3.89343 0
M  V30 439 H 38.5206 -1.25458 4.9309 0
M  V30 440 H 37.9186 -4.21677 3.77101 0
M  V30 441 H 36.4756 -4.59391 4.62388 0
M  V30 442 N 39.9087 -1.5758 0.0250728 0
M  V30 443 C 41.1367 -1.9593 -0.664747 0
M  V30 444 C 41.5517 -0.901352 -1.65895 0
M  V30 445 O 40.9087 0.117255 -1.82123 0
M  V30 446 C 40.9597 -3.34342 -1.37468 0
M  V30 447 O 40.6807 -4.36079 -0.420324 0
M  V30 448 C 42.1817 -3.873 -2.1567 0
M  V30 449 H 39.4017 -0.645405 -0.183557 0
M  V30 450 H 41.9457 -2.04329 0.0836372 0
M  V30 451 H 40.1007 -3.27175 -2.0745 0
M  V30 452 H 40.5147 -5.16297 -0.923991 0
M  V30 453 H 41.9887 -4.86504 -2.60803 0
M  V30 454 H 42.4657 -3.21331 -2.99405 0
M  V30 455 H 43.0717 -3.97723 -1.50654 0
M  V30 456 N 41.3868 0.248026 -1.55636 0
M  V30 457 C 42.6348 0.974295 -1.77065 0
M  V30 458 C 42.9558 1.85897 -0.588849 0
M  V30 459 O 42.2258 1.91868 0.395407 0
M  V30 460 H 40.8058 0.362733 -0.653019 0
M  V30 461 H 43.4678 0.266244 -1.93073 0
M  V30 462 H 42.5638 1.59667 -2.68166 0
M  V30 463 N 42.8649 1.48995 0.513639 0
M  V30 464 C 44.2809 1.35478 0.843682 0
M  V30 465 C 44.4809 0.378213 1.97919 0
M  V30 466 O 43.5369 -0.194689 2.51748 0
M  V30 467 C 44.8499 2.75901 1.1958 0
M  V30 468 C 46.3979 2.84509 1.30474 0
M  V30 469 C 46.8729 4.25671 1.69021 0
M  V30 470 N 48.3639 4.28422 1.76094 0
M  V30 471 C 49.0989 5.34601 2.07338 0
M  V30 472 N 48.5949 6.5104 2.36894 0
M  V30 473 N 50.3879 5.22007 2.08483 0
M  V30 474 H 42.5389 2.11092 -0.235328 0
M  V30 475 H 44.8019 0.947039 -0.0426669 0
M  V30 476 H 44.5079 3.49001 0.434913 0
M  V30 477 H 44.3819 3.10467 2.1422 0
M  V30 478 H 46.7689 2.11655 2.05637 0
M  V30 479 H 46.8499 2.53542 0.339155 0
M  V30 480 H 46.4939 4.99048 0.944135 0
M  V30 481 H 46.4239 4.54094 2.66658 0
M  V30 482 H 48.9149 3.44441 1.55464 0
M  V30 483 H 49.2279 7.2779 2.59887 0
M  V30 484 H 47.5729 6.54287 2.34378 0
M  V30 485 H 50.7639 4.30051 1.84861 0
M  V30 486 H 50.9369 6.04854 2.325 0
M  V30 487 N 44.343 -0.763751 1.37857 0
M  V30 488 C 45.291 -1.89864 1.34367 0
M  V30 489 C 46.285 -1.67816 0.231143 0
M  V30 490 O 47.491 -1.75508 0.399617 0
M  V30 491 H 43.866 -0.624501 0.41893 0
M  V30 492 H 45.837 -1.89925 2.30155 0
M  V30 493 C 44.586 -3.27227 1.1755 0
M  V30 494 H 43.909 -3.44773 2.02414 0
M  V30 495 H 45.349 -4.06911 1.1916 0
M  V30 496 C 43.808 -3.36692 -0.118311 0
M  V30 497 O 44.338 -3.86374 -1.09902 0
M  V30 498 N 42.544 -2.90092 -0.171717 0
M  V30 499 H 42.091 -2.49853 0.627012 0
M  V30 500 H 42.049 -2.96806 -1.03699 0
M  V30 501 N 45.8211 -1.22559 -0.990812 0
M  V30 502 C 46.7511 -1.0218 -2.09956 0
M  V30 503 C 47.7321 0.0579394 -1.70001 0
M  V30 504 O 48.9171 -0.104684 -1.93918 0
M  V30 505 C 46.0471 -0.601023 -3.4206 0
M  V30 506 C 45.0011 -1.62694 -3.95872 0
M  V30 507 C 44.3271 -1.06193 -5.24049 0
M  V30 508 C 45.6271 -3.01743 -4.2632 0
M  V30 509 H 47.3211 -1.94916 -2.27262 0
M  V30 510 H 44.8671 -0.938566 -1.09211 0
M  V30 511 H 46.8201 -0.445561 -4.19038 0
M  V30 512 H 45.5441 0.362005 -3.24588 0
M  V30 513 H 44.2031 -1.77021 -3.21028 0
M  V30 514 H 43.8511 -0.0901903 -5.02919 0
M  V30 515 H 43.5511 -1.74732 -5.61019 0
M  V30 516 H 45.0751 -0.918092 -6.03658 0
M  V30 517 H 46.4891 -2.90777 -4.94087 0
M  V30 518 H 44.8861 -3.67425 -4.74467 0
M  V30 519 H 45.9561 -3.51518 -3.34011 0
M  V30 520 N 47.2992 1.18797 -1.03562 0
M  V30 521 C 48.2292 2.24472 -0.643019 0
M  V30 522 C 49.2102 1.66433 0.351283 0
M  V30 523 O 50.3952 1.92803 0.232505 0
M  V30 524 C 47.5252 3.473 4.24935e-05 0
M  V30 525 C 46.4792 4.18055 -0.917257 0
M  V30 526 C 45.8052 5.34519 -0.138941 0
M  V30 527 C 47.1052 4.72109 -2.23407 0
M  V30 528 H 48.7992 2.57566 -1.52643 0
M  V30 529 H 46.3452 1.23806 -0.735394 0
M  V30 530 H 48.2982 4.20426 0.286383 0
M  V30 531 H 47.0222 3.13424 0.918299 0
M  V30 532 H 45.6812 3.46821 -1.1879 0
M  V30 533 H 45.3292 4.96891 0.781562 0
M  V30 534 H 45.0292 5.82794 -0.750005 0
M  V30 535 H 46.5532 6.10438 0.1405 0
M  V30 536 H 47.9672 5.36955 -2.00879 0
M  V30 537 H 46.3642 5.30897 -2.79765 0
M  V30 538 H 47.4342 3.89807 -2.88407 0
M  V30 539 N 48.7773 0.814389 1.34928 0
M  V30 540 C 49.7243 0.22822 2.29669 0
M  V30 541 C 50.6943 -0.642164 1.53184 0
M  V30 542 O 51.8793 -0.585605 1.81591 0
M  V30 543 C 49.0193 -0.61089 3.3965 0
M  V30 544 C 48.1323 0.280792 4.31086 0
M  V30 545 C 47.2673 -0.567067 5.28165 0
M  V30 546 C 46.3063 0.324531 6.11239 0
M  V30 547 N 45.4433 -0.483756 7.00431 0
M  V30 548 H 50.2833 1.04153 2.79206 0
M  V30 549 H 47.8203 0.525133 1.37407 0
M  V30 550 H 49.7783 -1.11263 4.0209 0
M  V30 551 H 48.4083 -1.38939 2.91369 0
M  V30 552 H 47.4603 0.900688 3.69583 0
M  V30 553 H 48.7723 0.966723 4.89342 0
M  V30 554 H 47.9263 -1.13363 5.96015 0
M  V30 555 H 46.6653 -1.28654 4.70425 0
M  V30 556 H 45.6703 0.903298 5.42329 0
M  V30 557 H 46.8953 1.04198 6.71059 0
M  V30 558 H 44.8413 -1.18706 6.45171 0
M  V30 559 H 44.7583 0.143965 7.55863 0
M  V30 560 H 46.0263 -1.03334 7.7262 0
M  V30 561 N 50.2554 -1.46986 0.568584 0
M  V30 562 C 51.2024 -2.30153 -0.172707 0
M  V30 563 C 52.1724 -1.39759 -0.897586 0
M  V30 564 O 53.3574 -1.68716 -0.891044 0
M  V30 565 C 50.4974 -3.23952 -1.1895 0
M  V30 566 C 49.6104 -4.29441 -0.469517 0
M  V30 567 C 48.7454 -5.1038 -1.47259 0
M  V30 568 C 47.7844 -6.07632 -0.738225 0
M  V30 569 N 46.9214 -6.8149 -1.68868 0
M  V30 570 H 51.7614 -2.93019 0.542596 0
M  V30 571 H 49.2984 -1.44422 0.279401 0
M  V30 572 H 51.2564 -3.76767 -1.79173 0
M  V30 573 H 49.8864 -2.62926 -1.87269 0
M  V30 574 H 48.9384 -3.79594 0.247467 0
M  V30 575 H 50.2504 -4.98689 0.105241 0
M  V30 576 H 49.4044 -5.67402 -2.14803 0
M  V30 577 H 48.1434 -4.4106 -2.08128 0
M  V30 578 H 47.1484 -5.49778 -0.0489293 0
M  V30 579 H 48.3734 -6.78966 -0.135129 0
M  V30 580 H 46.3194 -6.14891 -2.28573 0
M  V30 581 H 46.2364 -7.46948 -1.16636 0
M  V30 582 H 47.5044 -7.43078 -2.3549 0
M  V30 583 N 51.7335 -0.305618 -1.54608 0
M  V30 584 C 52.6805 0.568421 -2.23691 0
M  V30 585 C 53.6505 1.12592 -1.22116 0
M  V30 586 O 54.8355 1.16959 -1.50749 0
M  V30 587 C 51.9755 1.7322 -2.98477 0
M  V30 588 C 51.0885 1.20566 -4.14835 0
M  V30 589 C 50.2235 2.33368 -4.77193 0
M  V30 590 C 49.2625 1.7787 -5.85686 0
M  V30 591 N 48.3995 2.84263 -6.4198 0
M  V30 592 H 53.2395 -0.0272867 -2.97988 0
M  V30 593 H 50.7765 -0.0252363 -1.47078 0
M  V30 594 H 52.7345 2.41675 -3.40072 0
M  V30 595 H 51.3645 2.29947 -2.26548 0
M  V30 596 H 50.4165 0.413223 -3.78149 0
M  V30 597 H 51.7285 0.759417 -4.92985 0
M  V30 598 H 50.8825 3.09761 -5.21664 0
M  V30 599 H 49.6215 2.8132 -3.98385 0
M  V30 600 H 48.6265 0.99968 -5.40635 0
M  V30 601 H 49.8515 1.30816 -6.66381 0
M  V30 602 H 47.7975 3.31541 -5.66053 0
M  V30 603 H 47.7145 2.44149 -7.15491 0
M  V30 604 H 48.9825 3.6054 -6.91109 0
M  V30 605 N 53.2116 1.57565 -0.0334293 0
M  V30 606 C 54.4366 1.96689 0.657895 0
M  V30 607 C 54.8616 0.910057 1.64619 0
M  V30 608 O 54.2196 -0.128598 1.80843 0
M  V30 609 C 54.2676 3.34905 1.33683 0
M  V30 610 O 53.3716 3.31574 2.45219 0
M  V30 611 H 52.7126 0.641205 0.172489 0
M  V30 612 H 55.2426 2.04372 -0.0965621 0
M  V30 613 H 55.2526 3.71234 1.69262 0
M  V30 614 H 53.9276 4.11366 0.612411 0
M  V30 615 H 52.5046 3.06968 2.11719 0
M  V30 616 N 54.6897 -0.239769 1.55765 0
M  V30 617 C 55.9667 -0.990056 1.68693 0
M  V30 618 C 56.3467 -2.03107 0.5754 0
M  V30 619 O 55.6947 -2.24604 -0.42017 0
M  V30 620 C 55.9047 -1.61696 3.09282 0
M  V30 621 C 57.2527 -2.11613 3.6811 0
M  V30 622 O 58.2767 -1.71624 3.12127 0
M  V30 623 O 57.1357 -2.85057 4.66267 0
M  V30 624 H 54.2297 -0.461299 0.686391 0
M  V30 625 H 56.7757 -0.232991 1.68093 0
M  V30 626 H 55.5477 -0.864357 3.81634 0
M  V30 627 H 55.1707 -2.44005 3.13923 0
M  V30 628 N 56.1678 -1.49265 -0.50573 0
M  V30 629 C 57.1308 -1.65075 -1.59006 0
M  V30 630 C 58.1308 -0.522768 -1.52065 0
M  V30 631 O 59.3208 -0.789117 -1.55302 0
M  V30 632 C 56.4528 -1.64369 -2.98656 0
M  V30 633 H 57.6458 -2.61784 -1.46319 0
M  V30 634 H 55.1988 -1.38226 -0.729616 0
M  V30 635 H 55.9338 -0.692272 -3.16825 0
M  V30 636 H 55.7188 -2.46282 -3.05103 0
M  V30 637 H 57.2088 -1.78674 -3.77446 0
M  V30 638 N 57.6459 0.756429 -1.3826 0
M  V30 639 C 58.5759 1.88374 -1.37976 0
M  V30 640 C 59.5569 1.68311 -0.246082 0
M  V30 641 O 60.7419 1.88944 -0.44874 0
M  V30 642 C 57.8719 3.25864 -1.20125 0
M  V30 643 C 56.8259 3.60523 -2.30666 0
M  V30 644 C 56.1519 4.9672 -1.97923 0
M  V30 645 C 57.4519 3.65692 -3.72916 0
M  V30 646 H 59.1459 1.88869 -2.32312 0
M  V30 647 H 56.6919 0.907272 -1.11824 0
M  V30 648 H 58.6449 4.0438 -1.18552 0
M  V30 649 H 57.3689 3.25841 -0.222498 0
M  V30 650 H 56.0279 2.84324 -2.3142 0
M  V30 651 H 55.6759 4.93253 -0.985393 0
M  V30 652 H 55.3759 5.20878 -2.71955 0
M  V30 653 H 56.8999 5.77618 -1.97964 0
M  V30 654 H 58.3139 4.34328 -3.74208 0
M  V30 655 H 56.7109 4.01358 -4.4613 0
M  V30 656 H 57.7809 2.65987 -4.05436 0
M  V30 657 N 59.124 1.23083 0.984299 0
M  V30 658 C 60.352 1.08714 1.76037 0
M  V30 659 C 60.767 -0.361691 1.85303 0
M  V30 660 O 60.124 -1.25034 1.32939 0
M  V30 661 C 60.175 1.70206 3.18923 0
M  V30 662 O 59.896 3.09423 3.10144 0
M  V30 663 C 61.397 1.61227 4.12941 0
M  V30 664 H 58.617 0.380664 0.552572 0
M  V30 665 H 61.161 1.62853 1.23689 0
M  V30 666 H 59.316 1.20109 3.6831 0
M  V30 667 H 59.73 3.39188 4.00065 0
M  V30 668 H 61.204 2.08962 5.10919 0
M  V30 669 H 61.681 0.570375 4.35481 0
M  V30 670 H 62.287 2.10671 3.69456 0
M  V30 671 N 60.6021 -1.18246 1.0419 0
M  V30 672 C 61.5321 -2.24127 0.654914 0
M  V30 673 C 62.5131 -1.66617 -0.342451 0
M  V30 674 O 63.6981 -1.92924 -0.222277 0
M  V30 675 C 60.8281 -3.47295 0.0183757 0
M  V30 676 C 59.7821 -4.17563 0.939414 0
M  V30 677 C 59.1081 -5.34438 0.167286 0
M  V30 678 C 60.4081 -4.70917 2.25908 0
M  V30 679 H 62.1021 -2.56753 1.54007 0
M  V30 680 H 59.6481 -1.23414 0.74195 0
M  V30 681 H 61.6011 -4.20572 -0.264082 0
M  V30 682 H 60.3251 -3.13907 -0.901664 0
M  V30 683 H 58.9841 -3.46186 1.20628 0
M  V30 684 H 58.6321 -4.97298 -0.7552 0
M  V30 685 H 58.3321 -5.82388 0.780901 0
M  V30 686 H 59.8561 -6.10504 -0.108125 0
M  V30 687 H 61.2701 -5.35882 2.03724 0
M  V30 688 H 59.6671 -5.29406 2.82577 0
M  V30 689 H 60.7371 -3.88272 2.9047 0
M  V30 690 N 62.0802 -0.821533 -1.34494 0
M  V30 691 C 63.4962 -0.507117 -1.51329 0
M  V30 692 C 63.6962 0.968964 -1.76673 0
M  V30 693 O 62.7522 1.75348 -1.81685 0
M  V30 694 C 64.0652 -1.36544 -2.67911 0
M  V30 695 C 65.6132 -1.36242 -2.81793 0
M  V30 696 C 66.0882 -2.2052 -4.01416 0
M  V30 697 N 67.5792 -2.18136 -4.08621 0
M  V30 698 C 68.3142 -2.80095 -5.00334 0
M  V30 699 N 67.8102 -3.51039 -5.9728 0
M  V30 700 N 69.6032 -2.69656 -4.93196 0
M  V30 701 H 61.7542 -1.77729 -1.16302 0
M  V30 702 H 64.0172 -0.757291 -0.570276 0
M  V30 703 H 63.7232 -2.41361 -2.55808 0
M  V30 704 H 63.5972 -1.02917 -3.62888 0
M  V30 705 H 65.9842 -0.322041 -2.93338 0
M  V30 706 H 66.0652 -1.73866 -1.87628 0
M  V30 707 H 65.7092 -3.24607 -3.90631 0
M  V30 708 H 65.6392 -1.80247 -4.94791 0
M  V30 709 H 68.1302 -1.6653 -3.39229 0
M  V30 710 H 68.4432 -3.95565 -6.63889 0
M  V30 711 H 66.7882 -3.55145 -5.97409 0
M  V30 712 H 69.9792 -2.13808 -4.16418 0
M  V30 713 H 70.1522 -3.1823 -5.64476 0
M  V30 714 N 63.5583 1.46682 -0.576371 0
M  V30 715 C 64.8053 2.02412 -0.0595339 0
M  V30 716 C 65.1333 1.44859 1.29793 0
M  V30 717 O 64.3883 0.601099 1.8624 0
M  V30 718 C 64.6873 3.57345 0.062886 0
M  V30 719 C 64.3533 4.33908 -1.22616 0
M  V30 720 C 63.0153 4.54544 -1.57933 0
M  V30 721 C 65.3673 4.77919 -2.07948 0
M  V30 722 C 62.6953 5.16444 -2.78393 0
M  V30 723 C 65.0473 5.41149 -3.27629 0
M  V30 724 C 63.7113 5.60014 -3.63236 0
M  V30 725 H 62.9813 0.74068 -0.021785 0
M  V30 726 H 65.6283 1.76128 -0.751735 0
M  V30 727 H 63.9333 3.82729 0.838178 0
M  V30 728 H 65.6303 3.98136 0.478439 0
M  V30 729 H 62.2203 4.18138 -0.941202 0
M  V30 730 H 66.4043 4.61738 -1.81967 0
M  V30 731 H 61.6603 5.29242 -3.06126 0
M  V30 732 H 65.8343 5.74211 -3.94023 0
M  V30 733 H 63.4613 6.07748 -4.56669 0
M  V30 734 N 65.0364 0.313813 1.54444 0
M  V30 735 C 66.4524 -0.0391619 1.59552 0
M  V30 736 C 66.6524 -1.51322 1.33056 0
M  V30 737 O 65.7084 -2.26782 1.11022 0
M  V30 738 C 67.0214 0.370302 2.98411 0
M  V30 739 C 68.5694 0.320139 3.11358 0
M  V30 740 C 69.0444 0.704617 4.52547 0
M  V30 741 N 70.5354 0.657645 4.58508 0
M  V30 742 C 71.2704 0.927453 5.6585 0
M  V30 743 N 70.7664 1.26389 6.81174 0
M  V30 744 N 72.5594 0.853662 5.5558 0
M  V30 745 H 64.7104 1.27433 1.69925 0
M  V30 746 H 66.9734 0.517511 0.794284 0
M  V30 747 H 66.6794 1.39694 3.22767 0
M  V30 748 H 66.5534 -0.269619 3.76235 0
M  V30 749 H 68.9404 -0.697275 2.86744 0
M  V30 750 H 69.0214 0.99486 2.35661 0
M  V30 751 H 68.6654 1.7199 4.77893 0
M  V30 752 H 68.5954 0.00768843 5.26599 0
M  V30 753 H 71.0864 0.409067 3.75679 0
M  V30 754 H 71.3994 1.4554 7.58972 0
M  V30 755 H 69.7444 1.30206 6.82694 0
M  V30 756 H 72.9354 0.590383 4.64362 0
M  V30 757 H 73.1084 1.0673 6.3915 0
M  V30 758 N 66.5145 -1.57545 0.0417849 0
M  V30 759 C 67.4465 -2.07904 -0.964799 0
M  V30 760 C 68.4595 -1.00497 -1.28079 0
M  V30 761 O 69.6485 -1.28087 -1.24322 0
M  V30 762 C 66.7485 -2.49928 -2.28887 0
M  V30 763 C 65.9215 -3.80562 -2.15619 0
M  V30 764 C 64.9805 -4.08999 -3.31069 0
M  V30 765 O 64.0065 -4.79061 -3.0739 0
M  V30 766 N 65.2085 -3.6017 -4.55256 0
M  V30 767 H 67.9735 -2.94886 -0.535029 0
M  V30 768 H 65.5345 -1.61252 -0.144681 0
M  V30 769 H 67.5265 -2.66034 -3.04972 0
M  V30 770 H 66.0965 -1.68245 -2.63463 0
M  V30 771 H 65.3165 -3.74129 -1.24183 0
M  V30 772 H 66.6045 -4.66126 -2.03971 0
M  V30 773 H 66.0025 -3.03512 -4.77386 0
M  V30 774 H 64.5595 -3.81532 -5.28466 0
M  V30 775 N 67.9926 0.231505 -1.5589 0
M  V30 776 C 69.2416 0.955346 -1.7764 0
M  V30 777 C 69.5546 1.85893 -0.608546 0
M  V30 778 O 70.7606 2.62067 -0.70943 0
M  V30 779 C 69.2166 1.74886 -3.14552 0
M  V30 780 C 68.8246 0.891915 -4.39032 0
M  V30 781 C 70.5686 2.46452 -3.45633 0
M  V30 782 C 68.4756 1.68221 -5.66971 0
M  V30 783 H 67.4056 0.360446 -0.662265 0
M  V30 784 H 70.0566 0.209516 -1.823 0
M  V30 785 H 68.4386 2.53723 -3.04041 0
M  V30 786 H 69.6126 0.144793 -4.60572 0
M  V30 787 H 67.9276 0.288863 -4.15397 0
M  V30 788 H 70.5246 3.06061 -4.38441 0
M  V30 789 H 70.8676 3.18841 -2.67668 0
M  V30 790 H 71.4006 1.74613 -3.57428 0
M  V30 791 H 68.1396 1.00178 -6.478 0
M  V30 792 H 67.6596 2.4042 -5.49507 0
M  V30 793 H 69.3386 2.24544 -6.06786 0
M  V30 794 N 69.4707 1.49531 0.497807 0
M  V30 795 C 70.4007 1.6935 1.60757 0
M  V30 796 C 71.3817 0.542218 1.61227 0
M  V30 797 O 72.5667 0.778417 1.77917 0
M  V30 798 C 69.6967 1.76298 2.99226 0
M  V30 799 C 68.6507 2.91248 3.13622 0
M  V30 800 C 67.9767 2.83312 4.53474 0
M  V30 801 C 69.2767 4.3214 2.93346 0
M  V30 802 H 70.9707 2.62263 1.44425 0
M  V30 803 H 68.5167 1.26208 0.693367 0
M  V30 804 H 70.4697 1.88749 3.76765 0
M  V30 805 H 69.1937 0.799871 3.16654 0
M  V30 806 H 67.8527 2.78404 2.38509 0
M  V30 807 H 67.5007 1.84902 4.67782 0
M  V30 808 H 67.2007 3.60465 4.64046 0
M  V30 809 H 68.7247 2.97775 5.33069 0
M  V30 810 H 70.1387 4.45649 3.60652 0
M  V30 811 H 68.5357 5.1054 3.15387 0
M  V30 812 H 69.6057 4.46363 1.89441 0
M  V30 813 N 70.9488 -0.749086 1.3866 0
M  V30 814 C 71.8958 -1.86291 1.36251 0
M  V30 815 C 72.8658 -1.64578 0.224347 0
M  V30 816 O 74.0508 -1.86181 0.417279 0
M  V30 817 C 71.1908 -3.23644 1.19786 0
M  V30 818 C 70.3038 -3.57158 2.43027 0
M  V30 819 C 69.4388 -4.83838 2.19258 0
M  V30 820 C 68.4778 -5.10152 3.38247 0
M  V30 821 N 67.6148 -6.28029 3.13884 0
M  V30 822 H 72.4548 -1.87685 2.3147 0
M  V30 823 H 69.9918 -0.917287 1.14997 0
M  V30 824 H 71.9498 -4.0291 1.08254 0
M  V30 825 H 70.5798 -3.21566 0.282031 0
M  V30 826 H 69.6318 -2.72701 2.65214 0
M  V30 827 H 70.9438 -3.7253 3.31697 0
M  V30 828 H 70.0978 -5.71057 2.04888 0
M  V30 829 H 68.8368 -4.70614 1.2796 0
M  V30 830 H 67.8418 -4.21401 3.53131 0
M  V30 831 H 69.0668 -5.25271 4.30427 0
M  V30 832 H 67.0128 -6.1612 2.25238 0
M  V30 833 H 66.9298 -6.43922 3.96106 0
M  V30 834 H 68.1978 -7.18124 3.03179 0
M  V30 835 N 72.4269 -1.23603 -0.977757 0
M  V30 836 C 73.3739 -1.01954 -2.07061 0
M  V30 837 C 74.3439 0.0638697 -1.65977 0
M  V30 838 O 75.5289 -0.0887624 -1.90593 0
M  V30 839 C 72.6689 -0.619658 -3.39491 0
M  V30 840 C 71.7819 -1.77547 -3.93829 0
M  V30 841 C 70.9169 -1.32212 -5.14484 0
M  V30 842 C 69.9559 -2.44852 -5.60994 0
M  V30 843 N 69.0929 -2.00456 -6.72876 0
M  V30 844 H 73.9329 -1.95495 -2.24913 0
M  V30 845 H 71.4699 -0.973861 -1.10247 0
M  V30 846 H 73.4279 -0.368898 -4.15566 0
M  V30 847 H 72.0579 0.278752 -3.21594 0
M  V30 848 H 71.1099 -2.14016 -3.14486 0
M  V30 849 H 72.4219 -2.62219 -4.24314 0
M  V30 850 H 71.5759 -1.02965 -5.97899 0
M  V30 851 H 70.3149 -0.445808 -4.85658 0
M  V30 852 H 69.3199 -2.74871 -4.76157 0
M  V30 853 H 70.5449 -3.33024 -5.91837 0
M  V30 854 H 68.4909 -1.15208 -6.45804 0
M  V30 855 H 68.4079 -2.78687 -7.02759 0
M  V30 856 H 69.6759 -1.7432 -7.59758 0
M  V30 857 N 73.905 1.17692 -1.04816 0
M  V30 858 C 75.154 1.87192 -0.751132 0
M  V30 859 C 75.467 1.8169 0.724441 0
M  V30 860 O 76.673 2.46625 1.13527 0
M  V30 861 C 75.129 3.35857 -1.29338 0
M  V30 862 C 74.737 3.4987 -2.79812 0
M  V30 863 C 76.481 4.10709 -1.07322 0
M  V30 864 C 74.388 4.92536 -3.27356 0
M  V30 865 H 73.318 0.701162 -0.277288 0
M  V30 866 H 75.969 1.32932 -1.26496 0
M  V30 867 H 74.351 3.89631 -0.707376 0
M  V30 868 H 75.525 3.06332 -3.44235 0
M  V30 869 H 73.84 2.88433 -3.00325 0
M  V30 870 H 76.437 5.15952 -1.4035 0
M  V30 871 H 76.78 4.16299 -0.0108001 0
M  V30 872 H 77.313 3.6313 -1.62423 0
M  V30 873 H 74.052 4.92119 -4.33012 0
M  V30 874 H 73.572 5.3676 -2.67673 0
M  V30 875 H 75.251 5.61288 -3.21815 0
M  V30 876 N 75.3831 0.828654 1.34056 0
M  V30 877 C 76.6321 0.415828 1.97367 0
M  V30 878 C 76.9451 -1.02796 1.6641 0
M  V30 879 O 78.1511 -1.54497 2.23255 0
M  V30 880 C 76.6071 0.692601 3.53173 0
M  V30 881 C 76.2151 2.15038 3.93017 0
M  V30 882 C 77.9591 0.346222 4.23086 0
M  V30 883 C 75.8661 2.37174 5.41758 0
M  V30 884 H 74.7961 0.151755 0.738571 0
M  V30 885 H 77.4471 1.01581 1.52819 0
M  V30 886 H 75.8291 0.0223764 3.95994 0
M  V30 887 H 77.0031 2.86024 3.61285 0
M  V30 888 H 75.3181 2.45875 3.36057 0
M  V30 889 H 77.9151 0.48937 5.32456 0
M  V30 890 H 78.2581 -0.709842 4.10204 0
M  V30 891 H 78.7911 0.971258 3.85761 0
M  V30 892 H 75.5301 3.41308 5.59633 0
M  V30 893 H 75.0501 1.70738 5.74986 0
M  V30 894 H 76.7291 2.19818 6.08514 0
M  V30 895 N 76.8612 -1.46375 0.584142 0
M  V30 896 C 77.7712 -2.34115 -0.150728 0
M  V30 897 C 78.7872 -1.49838 -0.884567 0
M  V30 898 O 79.9632 -1.82704 -0.847429 0
M  V30 899 C 77.0282 -3.2705 -1.15062 0
M  V30 900 C 76.0892 -4.27228 -0.421293 0
M  V30 901 C 75.3222 -5.15722 -1.37355 0
M  V30 902 O 75.5452 -5.07176 -2.61014 0
M  V30 903 O 74.4792 -5.95383 -0.883355 0
M  V30 904 H 78.3052 -2.98309 0.569708 0
M  V30 905 H 75.8902 -1.45373 0.344535 0
M  V30 906 H 77.7722 -3.84381 -1.72712 0
M  V30 907 H 76.4472 -2.65451 -1.8525 0
M  V30 908 H 75.3542 -3.7358 0.197085 0
M  V30 909 H 76.6872 -4.91616 0.239641 0
M  V30 910 N 78.3393 -0.321999 -1.54275 0
M  V30 911 C 79.5673 0.283052 -2.04955 0
M  V30 912 C 79.9823 1.45904 -1.19823 0
M  V30 913 O 79.3393 1.81063 -0.228545 0
M  V30 914 C 79.3903 0.719028 -3.54277 0
M  V30 915 O 79.1113 -0.410175 -4.36176 0
M  V30 916 C 80.6123 1.38705 -4.21041 0
M  V30 917 H 77.8323 0.0584616 -0.668448 0
M  V30 918 H 80.3763 -0.467734 -1.99079 0
M  V30 919 H 78.5313 1.41979 -3.60445 0
M  V30 920 H 78.9453 -0.0669416 -5.24457 0
M  V30 921 H 80.4193 1.64306 -5.2698 0
M  V30 922 H 80.8963 2.33385 -3.72059 0
M  V30 923 H 81.5023 0.728906 -4.19007 0
M  V30 924 N 79.8174 1.5752 -0.0501392 0
M  V30 925 C 80.7644 2.1147 0.924603 0
M  V30 926 C 81.7344 1.02182 1.30951 0
M  V30 927 O 82.9194 1.29723 1.39916 0
M  V30 928 C 80.0594 2.66337 2.19451 0
M  V30 929 C 79.1724 3.89708 1.86418 0
M  V30 930 C 78.3074 4.32893 3.07859 0
M  V30 931 C 77.3464 5.48967 2.70742 0
M  V30 932 N 76.4834 5.87211 3.84874 0
M  V30 933 H 81.3234 2.94465 0.457639 0
M  V30 934 H 78.8604 1.45531 0.214266 0
M  V30 935 H 80.8184 2.96247 2.93758 0
M  V30 936 H 79.4484 1.86141 2.63726 0
M  V30 937 H 78.5004 3.66396 1.02264 0
M  V30 938 H 79.8124 4.74074 1.55096 0
M  V30 939 H 78.9664 4.6435 3.90466 0
M  V30 940 H 77.7054 3.47336 3.42358 0
M  V30 941 H 76.7104 5.17183 1.86551 0
M  V30 942 H 77.9354 6.3624 2.37436 0
M  V30 943 H 75.8814 5.04607 4.19175 0
M  V30 944 H 75.7984 6.66266 3.57247 0
M  V30 945 H 77.0664 6.23282 4.68123 0
M  V30 946 N 81.2955 -0.223234 1.56011 0
M  V30 947 C 82.2285 -1.30377 1.87289 0
M  V30 948 C 83.2065 -1.45286 0.730112 0
M  V30 949 O 84.3905 -1.61126 0.978302 0
M  V30 950 C 81.5175 -2.67431 2.07843 0
M  V30 951 C 80.5635 -2.69546 3.30526 0
M  V30 952 S 81.3965 -2.23781 4.865 0
M  V30 953 C 82.5525 -3.62714 5.10088 0
M  V30 954 H 82.7855 -1.03652 2.78646 0
M  V30 955 H 80.3185 -0.425393 1.48424 0
M  V30 956 H 82.2765 -3.46336 2.20368 0
M  V30 957 H 80.9375 -2.91381 1.17285 0
M  V30 958 H 80.1305 -3.70255 3.41947 0
M  V30 959 H 79.7325 -1.98703 3.16849 0
M  V30 960 H 82.0245 -4.58391 4.98883 0
M  V30 961 H 82.9675 -3.5621 6.11981 0
M  V30 962 H 83.3755 -3.56323 4.37829 0
M  V30 963 N 82.7736 -1.49793 -0.48987 0
M  V30 964 C 83.7036 -1.70201 -1.59856 0
M  V30 965 C 84.6846 -0.55076 -1.60937 0
M  V30 966 O 85.8696 -0.787841 -1.77501 0
M  V30 967 C 82.9996 -1.77882 -2.98287 0
M  V30 968 C 81.9536 -2.92907 -3.12073 0
M  V30 969 C 81.2796 -2.85712 -4.51965 0
M  V30 970 C 82.5796 -4.3369 -2.91051 0
M  V30 971 H 84.2736 -2.63025 -1.43032 0
M  V30 972 H 81.8196 -1.26574 -0.686664 0
M  V30 973 H 83.7726 -1.90744 -3.75759 0
M  V30 974 H 82.4966 -0.816653 -3.16225 0
M  V30 975 H 81.1556 -2.79665 -2.37029 0
M  V30 976 H 80.8036 -1.8738 -4.66795 0
M  V30 977 H 80.5036 -3.62921 -4.62128 0
M  V30 978 H 82.0276 -3.00598 -5.31482 0
M  V30 979 H 83.4416 -4.47555 -3.58284 0
M  V30 980 H 81.8386 -5.12205 -3.12675 0
M  V30 981 H 82.9086 -4.47362 -1.87071 0
M  V30 982 N 84.2517 0.741722 -1.39055 0
M  V30 983 C 85.1847 1.86416 -1.31622 0
M  V30 984 C 86.1627 1.61473 -0.191076 0
M  V30 985 O 87.3467 1.84825 -0.370399 0
M  V30 986 C 84.4737 3.22266 -1.04221 0
M  V30 987 C 83.5197 3.66079 -2.18834 0
M  V30 988 S 84.3527 3.7623 -3.81066 0
M  V30 989 C 85.5087 5.14881 -3.55877 0
M  V30 990 H 85.7417 1.92437 -2.26617 0
M  V30 991 H 83.2747 0.905907 -1.25031 0
M  V30 992 H 85.2327 4.00714 -0.890964 0
M  V30 993 H 83.8937 3.1391 -0.109237 0
M  V30 994 H 83.0867 4.64648 -1.95238 0
M  V30 995 H 82.6887 2.94817 -2.30128 0
M  V30 996 H 84.9807 6.01006 -3.12726 0
M  V30 997 H 85.9237 5.43503 -4.53884 0
M  V30 998 H 86.3317 4.84239 -2.90126 0
M  V30 999 N 85.7298 1.2412 0.971189 0
M  V30 1000 C 86.9778 1.07668 1.71032 0
M  V30 1001 C 87.2988 -0.385797 1.91146 0
M  V30 1002 O 86.5688 -1.27569 1.4867 0
M  V30 1003 H 85.1488 0.395429 0.633755 0
M  V30 1004 H 87.8108 1.55984 1.16855 0
M  V30 1005 H 86.9068 1.57195 2.69622 0
M  V30 1006 N 87.2079 -1.17134 1.05439 0
M  V30 1007 C 88.1179 -2.24878 0.668365 0
M  V30 1008 C 89.1339 -1.71186 -0.311687 0
M  V30 1009 O 90.3099 -2.00738 -0.163161 0
M  V30 1010 C 87.3749 -3.46662 0.051648 0
M  V30 1011 C 86.4359 -4.15429 1.08246 0
M  V30 1012 C 85.6689 -5.31399 0.495082 0
M  V30 1013 O 85.8919 -5.66153 -0.694743 0
M  V30 1014 O 84.8259 -5.89187 1.23056 0
M  V30 1015 H 88.6519 -2.60189 1.56637 0
M  V30 1016 H 86.2369 -1.24482 0.826104 0
M  V30 1017 H 88.1189 -4.20394 -0.290966 0
M  V30 1018 H 86.7939 -3.13142 -0.819971 0
M  V30 1019 H 85.7009 -3.43704 1.47711 0
M  V30 1020 H 87.0339 -4.52982 1.92532 0
M  V30 1021 N 88.686 -0.835752 -1.33615 0
M  V30 1022 C 89.932 -0.430596 -1.98176 0
M  V30 1023 C 90.265 1.00684 -1.66061 0
M  V30 1024 O 89.54 1.70339 -0.938877 0
M  V30 1025 C 89.823 -0.648065 -3.5422 0
M  V30 1026 C 89.676 -2.13255 -3.96033 0
M  V30 1027 C 90.995 -0.0922113 -4.40003 0
M  V30 1028 H 88.114 -0.157924 -0.719881 0
M  V30 1029 H 90.756 -1.05069 -1.58305 0
M  V30 1030 H 88.906 -0.120237 -3.88314 0
M  V30 1031 H 90.578 -2.725 -3.72211 0
M  V30 1032 H 88.821 -2.61823 -3.45878 0
M  V30 1033 H 89.492 -2.23547 -5.04708 0
M  V30 1034 H 91.968 -0.543343 -4.12537 0
M  V30 1035 H 90.844 -0.274083 -5.48215 0
M  V30 1036 H 91.105 1.00378 -4.30554 0
M  V30 1037 N 90.1641 1.46063 -0.591896 0
M  V30 1038 C 91.0971 2.27452 0.184617 0
M  V30 1039 C 92.0751 1.36188 0.888351 0
M  V30 1040 O 93.2591 1.65606 0.90039 0
M  V30 1041 C 90.3861 3.14162 1.26571 0
M  V30 1042 C 89.4321 4.21255 0.666814 0
M  V30 1043 S 90.2651 5.33034 -0.513345 0
M  V30 1044 C 91.4211 6.23311 0.56872 0
M  V30 1045 H 91.6541 2.92963 -0.505939 0
M  V30 1046 H 89.1871 1.49676 -0.379014 0
M  V30 1047 H 91.1451 3.6468 1.88463 0
M  V30 1048 H 89.8061 2.47946 1.92826 0
M  V30 1049 H 88.9991 4.81788 1.47974 0
M  V30 1050 H 88.6011 3.73797 0.123359 0
M  V30 1051 H 90.8931 6.61758 1.45198 0
M  V30 1052 H 91.8361 7.081 -7.23824e-05 0
M  V30 1053 H 92.2441 5.57646 0.876996 0
M  V30 1054 N 91.6422 0.330177 1.54103 0
M  V30 1055 C 93.0582 -0.0222371 1.59585 0
M  V30 1056 C 93.2582 -1.49902 1.34654 0
M  V30 1057 O 92.3142 -2.25592 1.13421 0
M  V30 1058 C 93.6272 0.401932 2.98002 0
M  V30 1059 C 95.1752 0.353145 3.11001 0
M  V30 1060 C 95.6502 0.752576 4.51775 0
M  V30 1061 N 97.1412 0.706239 4.57784 0
M  V30 1062 C 97.8762 0.987417 5.64834 0
M  V30 1063 N 97.3722 1.33607 6.79795 0
M  V30 1064 N 99.1652 0.91254 5.54643 0
M  V30 1065 H 91.3162 1.29228 1.68564 0
M  V30 1066 H 93.5792 0.525906 0.78875 0
M  V30 1067 H 93.2852 1.4311 3.21267 0
M  V30 1068 H 93.1592 -0.229699 3.765 0
M  V30 1069 H 95.5462 -0.666822 2.87467 0
M  V30 1070 H 95.6272 1.0198 2.34593 0
M  V30 1071 H 95.2712 1.77049 4.76042 0
M  V30 1072 H 95.2012 0.0635409 5.26562 0
M  V30 1073 H 97.6922 0.44889 3.75224 0
M  V30 1074 H 98.0052 1.53582 7.57385 0
M  V30 1075 H 96.3502 1.37439 6.81275 0
M  V30 1076 H 99.5412 0.639601 4.6371 0
M  V30 1077 H 99.7142 1.13503 6.37982 0
M  V30 1078 N 93.1203 -1.57491 0.0584922 0
M  V30 1079 C 94.0303 -2.15448 -0.928414 0
M  V30 1080 C 95.0463 -1.11416 -1.3365 0
M  V30 1081 O 96.2223 -1.4362 -1.41193 0
M  V30 1082 C 93.2873 -2.69393 -2.18239 0
M  V30 1083 C 92.3483 -3.88249 -1.83196 0
M  V30 1084 C 91.5813 -4.39613 -3.02616 0
M  V30 1085 O 91.8043 -3.90023 -4.16219 0
M  V30 1086 O 90.7383 -5.31111 -2.83204 0
M  V30 1087 H 94.5643 -3.00112 -0.465483 0
M  V30 1088 H 92.1493 -1.48499 -0.163826 0
M  V30 1089 H 94.0313 -3.04026 -2.91798 0
M  V30 1090 H 92.7063 -1.87796 -2.63656 0
M  V30 1091 H 91.6133 -3.58492 -1.06931 0
M  V30 1092 H 92.9463 -4.71098 -1.42573 0
M  V30 1093 N 94.5984 0.214957 -1.56127 0
M  V30 1094 C 95.5614 1.24997 -1.92116 0
M  V30 1095 C 96.5614 1.39467 -0.800344 0
M  V30 1096 O 97.7514 1.37619 -1.06802 0
M  V30 1097 C 94.8834 2.62271 -2.17777 0
M  V30 1098 H 96.0764 0.942875 -2.84693 0
M  V30 1099 H 93.6294 0.455654 -1.49511 0
M  V30 1100 H 94.3644 2.98068 -1.27773 0
M  V30 1101 H 94.1494 2.53143 -2.99434 0
M  V30 1102 H 95.6394 3.36946 -2.46693 0
M  V30 1103 N 96.0765 1.50051 0.48192 0
M  V30 1104 C 97.0395 1.67584 1.5636 0
M  V30 1105 C 98.0395 0.546894 1.51214 0
M  V30 1106 O 99.2295 0.813725 1.54026 0
M  V30 1107 C 96.3615 1.691 2.96003 0
M  V30 1108 H 97.5545 2.64078 1.42136 0
M  V30 1109 H 95.1075 1.39369 0.707533 0
M  V30 1110 H 95.8425 0.742589 3.15684 0
M  V30 1111 H 95.6275 2.51105 3.01146 0
M  V30 1112 H 97.1175 1.84656 3.74556 0
M  V30 1113 N 97.5546 -0.734337 1.39446 0
M  V30 1114 C 98.8016 -1.49391 1.36706 0
M  V30 1115 C 99.1296 -1.94465 -0.0367813 0
M  V30 1116 O 98.3846 -1.67154 -1.01774 0
M  V30 1117 C 98.6836 -2.74711 2.28623 0
M  V30 1118 C 98.3496 -2.48501 3.76242 0
M  V30 1119 C 97.0116 -2.41062 4.16464 0
M  V30 1120 C 99.3636 -2.26098 4.69606 0
M  V30 1121 C 96.6916 -2.09262 5.48112 0
M  V30 1122 C 99.0436 -1.95814 6.01531 0
M  V30 1123 C 97.7076 -1.86845 6.40816 0
M  V30 1124 H 96.9776 -0.546661 0.500243 0
M  V30 1125 H 99.6246 -0.842788 1.71957 0
M  V30 1126 H 97.9296 -3.44569 1.86492 0
M  V30 1127 H 99.6266 -3.32741 2.23796 0
M  V30 1128 H 96.2166 -2.55169 3.44364 0
M  V30 1129 H 100.401 -2.30812 4.39363 0
M  V30 1130 H 95.6566 -2.00841 5.77471 0
M  V30 1131 H 99.8306 -1.77488 6.73403 0
M  V30 1132 H 97.4576 -1.6197 7.42745 0
M  V30 1133 N 99.0327 -1.24633 -0.964593 0
M  V30 1134 C 100.258 -1.11596 -1.74818 0
M  V30 1135 C 100.683 0.32723 -1.85232 0
M  V30 1136 O 100.041 1.23695 -1.32549 0
M  V30 1137 C 100.089 -1.76397 -3.1451 0
M  V30 1138 O 99.1927 -1.03685 -3.99153 0
M  V30 1139 H 98.5337 -0.390196 -0.537255 0
M  V30 1140 H 101.064 -1.65002 -1.20977 0
M  V30 1141 H 101.074 -1.8228 -3.65018 0
M  V30 1142 H 99.7487 -2.81401 -3.06246 0
M  V30 1143 H 98.3257 -1.05611 -3.57632 0
M  V30 1144 N 100.511 1.16574 -1.06058 0
M  V30 1145 C 101.441 2.23057 -0.690488 0
M  V30 1146 C 102.422 1.67141 0.315901 0
M  V30 1147 O 103.607 1.93253 0.191556 0
M  V30 1148 C 100.737 3.47222 -0.073625 0
M  V30 1149 C 99.6908 4.16016 -1.00573 0
M  V30 1150 C 99.0168 5.34104 -0.252289 0
M  V30 1151 C 100.317 4.67264 -2.33371 0
M  V30 1152 H 102.011 2.54271 -1.58072 0
M  V30 1153 H 99.5568 1.22218 -0.76149 0
M  V30 1154 H 101.51 4.20939 0.19714 0
M  V30 1155 H 100.234 3.15302 0.85161 0
M  V30 1156 H 98.8928 3.44223 -1.2612 0
M  V30 1157 H 98.5408 4.98437 0.675988 0
M  V30 1158 H 98.2408 5.81072 -0.873455 0
M  V30 1159 H 99.7648 6.10599 0.0109857 0
M  V30 1160 H 101.179 5.32573 -2.12223 0
M  V30 1161 H 99.5758 5.24843 -2.90963 0
M  V30 1162 H 100.646 3.83602 -2.96611 0
M  V30 1163 N 101.989 0.842826 1.3317 0
M  V30 1164 C 102.952 0.284065 2.27433 0
M  V30 1165 C 103.952 -0.54948 1.5112 0
M  V30 1166 O 105.142 -0.362699 1.70382 0
M  V30 1167 C 102.274 -0.599384 3.35589 0
M  V30 1168 H 103.467 1.11589 2.78366 0
M  V30 1169 H 101.02 0.616221 1.4364 0
M  V30 1170 H 101.755 -1.45349 2.89904 0
M  V30 1171 H 101.54 -0.00291266 3.921 0
M  V30 1172 H 103.03 -0.983488 4.05854 0
M  V30 1173 N 103.467 -1.45747 0.599634 0
M  V30 1174 C 104.377 -2.34262 -0.125888 0
M  V30 1175 C 105.393 -1.50768 -0.868625 0
M  V30 1176 O 106.569 -1.83592 -0.828003 0
M  V30 1177 C 103.634 -3.28252 -1.11587 0
M  V30 1178 C 102.695 -4.27651 -0.375956 0
M  V30 1179 C 101.928 -5.1715 -1.31877 0
M  V30 1180 O 102.151 -5.09916 -2.55621 0
M  V30 1181 O 101.085 -5.96286 -0.820157 0
M  V30 1182 H 104.911 -2.97688 0.601315 0
M  V30 1183 H 102.496 -1.44999 0.359934 0
M  V30 1184 H 104.378 -3.86191 -1.68626 0
M  V30 1185 H 103.053 -2.67401 -1.82424 0
M  V30 1186 H 101.96 -3.7335 0.236698 0
M  V30 1187 H 103.293 -4.91334 0.29177 0
M  V30 1188 N 104.945 -0.338344 -1.53925 0
M  V30 1189 C 105.908 0.508299 -2.23493 0
M  V30 1190 C 106.908 1.03175 -1.23335 0
M  V30 1191 O 108.098 0.921826 -1.47811 0
M  V30 1192 C 105.23 1.70754 -2.95052 0
M  V30 1193 H 106.423 -0.100058 -2.99733 0
M  V30 1194 H 103.976 -0.0896198 -1.56043 0
M  V30 1195 H 104.711 2.35474 -2.22986 0
M  V30 1196 H 104.496 1.33946 -3.68512 0
M  V30 1197 H 105.986 2.30818 -3.48013 0
M  V30 1198 N 106.423 1.57458 -0.0668435 0
M  V30 1199 C 107.37 2.12439 0.902122 0
M  V30 1200 C 108.34 1.03565 1.2986 0
M  V30 1201 O 109.525 1.312 1.38532 0
M  V30 1202 C 106.665 2.6865 2.16614 0
M  V30 1203 C 105.778 3.91663 1.82274 0
M  V30 1204 C 104.913 4.36134 3.0325 0
M  V30 1205 C 103.952 5.51808 2.64904 0
M  V30 1206 N 103.089 5.9126 3.78624 0
M  V30 1207 H 107.929 2.94934 0.426382 0
M  V30 1208 H 105.466 1.4575 0.198819 0
M  V30 1209 H 107.424 2.99346 2.90599 0
M  V30 1210 H 106.054 1.88928 2.61737 0
M  V30 1211 H 105.106 3.6746 0.983719 0
M  V30 1212 H 106.418 4.75693 1.50059 0
M  V30 1213 H 105.572 4.68465 3.85519 0
M  V30 1214 H 104.311 3.50948 3.38655 0
M  V30 1215 H 103.316 5.19133 1.81055 0
M  V30 1216 H 104.541 6.38722 2.30675 0
M  V30 1217 H 102.487 5.09024 4.138 0
M  V30 1218 H 102.404 6.70018 3.5016 0
M  V30 1219 H 103.672 6.28212 4.61486 0
M  V30 1220 N 107.901 -0.206675 1.56239 0
M  V30 1221 C 109.148 -0.928842 1.79941 0
M  V30 1222 C 109.476 -1.83734 0.638131 0
M  V30 1223 O 108.731 -1.92039 -0.376746 0
M  V30 1224 C 109.03 -1.78675 3.09532 0
M  V30 1225 C 108.696 -1.03022 4.38973 0
M  V30 1226 C 107.358 -0.821302 4.74139 0
M  V30 1227 C 109.71 -0.497081 5.18824 0
M  V30 1228 C 107.038 -0.0675719 5.86661 0
M  V30 1229 C 109.39 0.24338 6.32132 0
M  V30 1230 C 108.054 0.463422 6.65889 0
M  V30 1231 H 107.324 -0.339887 0.658451 0
M  V30 1232 H 109.971 -0.195977 1.90495 0
M  V30 1233 H 108.276 -2.58794 2.94165 0
M  V30 1234 H 109.973 -2.34792 3.25075 0
M  V30 1235 H 106.563 -1.20306 4.11369 0
M  V30 1236 H 110.747 -0.645921 4.92079 0
M  V30 1237 H 106.003 0.112995 6.11296 0
M  V30 1238 H 110.177 0.66393 6.93228 0
M  V30 1239 H 107.804 1.04938 7.52922 0
M  V30 1240 N 109.379 -1.50304 -0.473955 0
M  V30 1241 C 110.607 -1.64902 -1.24959 0
M  V30 1242 C 111.022 -0.331198 -1.85872 0
M  V30 1243 O 110.379 0.68652 -1.69095 0
M  V30 1244 C 110.43 -2.73803 -2.36038 0
M  V30 1245 O 110.151 -4.00477 -1.77624 0
M  V30 1246 C 111.652 -2.99349 -3.26964 0
M  V30 1247 H 108.872 -0.554383 -0.378022 0
M  V30 1248 H 111.416 -1.9651 -0.566054 0
M  V30 1249 H 109.571 -2.44898 -3.00173 0
M  V30 1250 H 109.985 -4.60678 -2.5075 0
M  V30 1251 H 111.459 -3.79217 -4.01121 0
M  V30 1252 H 111.936 -2.10307 -3.85574 0
M  V30 1253 H 112.542 -3.29774 -2.68569 0
M  V30 1254 N 110.857 0.726932 -1.39834 0
M  V30 1255 C 111.82 1.82269 -1.38962 0
M  V30 1256 C 112.82 1.58248 -0.285334 0
M  V30 1257 O 114.01 1.65499 -0.54366 0
M  V30 1258 C 111.142 3.20186 -1.17019 0
M  V30 1259 H 112.335 1.84443 -2.36476 0
M  V30 1260 H 109.888 0.931416 -1.25516 0
M  V30 1261 H 110.623 3.23669 -0.202204 0
M  V30 1262 H 110.408 3.3902 -1.96998 0
M  V30 1263 H 111.898 4.00235 -1.1917 0
M  V30 1264 N 112.336 1.25143 0.95797 0
M  V30 1265 C 113.584 1.09476 1.69881 0
M  V30 1266 C 113.905 -0.365502 1.91544 0
M  V30 1267 O 113.175 -1.25985 1.50015 0
M  V30 1268 H 111.755 0.402128 0.629525 0
M  V30 1269 H 114.417 1.57214 1.15194 0
M  V30 1270 H 113.513 1.60046 2.6794 0
M  V30 1271 N 113.814 -1.1601 1.06675 0
M  V30 1272 C 115.091 -1.82679 0.699114 0
M  V30 1273 C 115.471 -1.94559 -0.819137 0
M  V30 1274 O 114.819 -1.49169 -1.73092 0
M  V30 1275 C 115.029 -3.19445 1.40555 0
M  V30 1276 C 116.377 -3.95171 1.55323 0
M  V30 1277 O 117.401 -3.28976 1.36577 0
M  V30 1278 O 116.26 -5.13833 1.86112 0
M  V30 1279 H 113.354 -0.788954 0.247951 0
M  V30 1280 H 115.9 -1.23179 1.16726 0
M  V30 1281 H 114.672 -3.05856 2.44065 0
M  V30 1282 H 114.295 -3.86625 0.927733 0
M  V30 1283 N 115.292 -0.849877 -1.32721 0
M  V30 1284 C 116.539 -0.450923 -1.97416 0
M  V30 1285 C 116.867 0.992376 -1.67279 0
M  V30 1286 O 116.122 1.71048 -0.950845 0
M  V30 1287 C 116.421 -0.631272 -3.51781 0
M  V30 1288 C 116.087 -2.04432 -4.01894 0
M  V30 1289 C 114.749 -2.4308 -4.1529 0
M  V30 1290 C 117.101 -2.96679 -4.28522 0
M  V30 1291 C 114.429 -3.73257 -4.52654 0
M  V30 1292 C 116.781 -4.26349 -4.67343 0
M  V30 1293 C 115.445 -4.64939 -4.78945 0
M  V30 1294 H 114.715 -0.165004 -0.722395 0
M  V30 1295 H 117.362 -1.07901 -1.58207 0
M  V30 1296 H 115.667 0.0800767 -3.91718 0
M  V30 1297 H 117.364 -0.302709 -3.99856 0
M  V30 1298 H 113.954 -1.73419 -3.91949 0
M  V30 1299 H 118.138 -2.68054 -4.17685 0
M  V30 1300 H 113.394 -4.02946 -4.59831 0
M  V30 1301 H 117.568 -4.97895 -4.86902 0
M  V30 1302 H 115.195 -5.65855 -5.07654 0
M  V30 1303 N 116.77 1.45427 -0.607355 0
M  V30 1304 C 117.995 2.07124 -0.107006 0
M  V30 1305 C 118.42 1.44906 1.19933 0
M  V30 1306 O 117.778 0.541687 1.73019 0
M  V30 1307 C 117.826 3.60595 0.0194119 0
M  V30 1308 O 116.93 3.98285 1.0697 0
M  V30 1309 H 116.271 0.659868 -0.0739597 0
M  V30 1310 H 118.801 1.86683 -0.837297 0
M  V30 1311 H 118.811 4.07419 0.2177 0
M  V30 1312 H 117.486 4.05266 -0.934453 0
M  V30 1313 H 116.063 3.63133 0.847889 0
M  V30 1314 N 118.248 0.346503 1.53744 0
M  V30 1315 C 119.476 -0.25041 2.05379 0
M  V30 1316 C 119.891 -1.43979 1.22129 0
M  V30 1317 O 119.248 -1.80677 0.257321 0
M  V30 1318 C 119.299 -0.662575 3.55376 0
M  V30 1319 O 119.02 0.479515 4.35468 0
M  V30 1320 C 120.521 -1.31989 4.23195 0
M  V30 1321 H 117.741 -0.0478198 0.669294 0
M  V30 1322 H 120.285 0.499346 1.9831 0
M  V30 1323 H 118.44 -1.36227 3.62658 0
M  V30 1324 H 118.854 0.15037 5.24284 0
M  V30 1325 H 120.328 -1.55902 5.29527 0
M  V30 1326 H 120.805 -2.27436 3.75725 0
M  V30 1327 H 121.411 -0.662154 4.20114 0
M  V30 1328 N 119.726 -1.57421 0.075193 0
M  V30 1329 C 120.954 -1.97946 -0.602076 0
M  V30 1330 C 121.369 -0.953674 -1.62943 0
M  V30 1331 O 120.726 0.0592551 -1.82404 0
M  V30 1332 C 120.777 -3.38546 -1.26762 0
M  V30 1333 O 120.498 -4.37195 -0.281376 0
M  V30 1334 C 121.999 -3.93966 -2.03239 0
M  V30 1335 H 119.219 -0.650918 -0.162931 0
M  V30 1336 H 121.763 -2.03959 0.148601 0
M  V30 1337 H 119.918 -3.33609 -1.96936 0
M  V30 1338 H 120.332 -5.18975 -0.759267 0
M  V30 1339 H 121.806 -4.94555 -2.45193 0
M  V30 1340 H 122.283 -3.30693 -2.8903 0
M  V30 1341 H 122.889 -4.02315 -1.37924 0
M  V30 1342 N 121.204 0.198386 -1.56346 0
M  V30 1343 C 122.45 0.920648 -1.80698 0
M  V30 1344 C 122.783 1.83045 -0.648697 0
M  V30 1345 O 122.058 1.91308 0.350925 0
M  V30 1346 C 122.341 1.73971 -3.15287 0
M  V30 1347 C 122.194 0.85485 -4.41602 0
M  V30 1348 C 123.513 2.71296 -3.46535 0
M  V30 1349 H 120.632 0.333261 -0.657348 0
M  V30 1350 H 123.274 0.188198 -1.89066 0
M  V30 1351 H 121.424 2.36416 -3.08285 0
M  V30 1352 H 123.096 0.245362 -4.60647 0
M  V30 1353 H 121.339 0.161398 -4.335 0
M  V30 1354 H 122.01 1.46286 -5.32264 0
M  V30 1355 H 124.486 2.18983 -3.53816 0
M  V30 1356 H 123.362 3.2569 -4.41834 0
M  V30 1357 H 123.623 3.5018 -2.69864 0
M  V30 1358 N 122.682 1.50554 0.465978 0
M  V30 1359 C 123.931 1.61038 1.21448 0
M  V30 1360 C 124.244 0.31865 1.92987 0
M  V30 1361 O 125.45 0.302469 2.6981 0
M  V30 1362 C 123.906 2.84283 2.20706 0
M  V30 1363 C 123.514 4.20352 1.54946 0
M  V30 1364 C 125.258 3.04115 2.96166 0
M  V30 1365 C 123.165 5.34778 2.5252 0
M  V30 1366 H 122.095 0.599718 0.457005 0
M  V30 1367 H 124.746 1.7699 0.484424 0
M  V30 1368 H 123.128 2.61901 2.97025 0
M  V30 1369 H 124.302 4.53008 0.843811 0
M  V30 1370 H 122.617 4.06167 0.917475 0
M  V30 1371 H 125.214 3.86774 3.69202 0
M  V30 1372 H 125.557 2.16045 3.55852 0
M  V30 1373 H 126.09 3.26702 2.26959 0
M  V30 1374 H 122.829 6.25018 1.97566 0
M  V30 1375 H 122.349 5.06534 3.21222 0
M  V30 1376 H 124.028 5.65561 3.14245 0
M  V30 1377 N 124.16 -0.719506 1.40217 0
M  V30 1378 C 125.092 -1.84428 1.36084 0
M  V30 1379 C 126.105 -1.60597 0.266913 0
M  V30 1380 O 127.294 -1.70544 0.526983 0
M  V30 1381 C 124.394 -3.20757 1.094 0
M  V30 1382 C 123.567 -3.71817 2.30372 0
M  V30 1383 C 122.626 -4.86748 1.99907 0
M  V30 1384 O 121.652 -4.99603 2.72737 0
M  V30 1385 N 122.854 -5.7226 0.974635 0
M  V30 1386 H 125.619 -1.88473 2.33019 0
M  V30 1387 H 123.18 -0.900885 1.3452 0
M  V30 1388 H 125.172 -3.95235 0.870116 0
M  V30 1389 H 123.742 -3.11884 0.211452 0
M  V30 1390 H 122.962 -2.88514 2.68614 0
M  V30 1391 H 124.25 -4.02666 3.11026 0
M  V30 1392 H 123.648 -5.6448 0.371368 0
M  V30 1393 H 122.205 -6.46739 0.810656 0
M  V30 1394 N 125.638 -1.25649 -0.95132 0
M  V30 1395 C 126.586 -1.06118 -2.06982 0
M  V30 1396 C 127.58 0.00889169 -1.69398 0
M  V30 1397 O 128.786 -0.146988 -1.79399 0
M  V30 1398 H 125.161 -0.326248 -0.677544 0
M  V30 1399 H 127.132 -2.00932 -2.2061 0
M  V30 1400 C 125.881 -0.700145 -3.40578 0
M  V30 1401 H 125.204 -1.51537 -3.69968 0
M  V30 1402 H 126.644 -0.603211 -4.19687 0
M  V30 1403 C 125.103 0.59403 -3.31622 0
M  V30 1404 O 125.633 1.63522 -3.66911 0
M  V30 1405 N 123.839 0.58089 -2.84735 0
M  V30 1406 H 123.386 -0.266783 -2.56215 0
M  V30 1407 H 123.344 1.44695 -2.79125 0
M  V30 1408 N 127.117 1.15442 -1.07289 0
M  V30 1409 C 128.363 1.86489 -0.796846 0
M  V30 1410 C 128.696 1.82078 0.675371 0
M  V30 1411 O 127.971 1.24346 1.4956 0
M  V30 1412 C 128.254 3.35626 -1.30489 0
M  V30 1413 C 128.107 3.48673 -2.84161 0
M  V30 1414 C 129.426 4.30357 -0.920907 0
M  V30 1415 H 126.545 0.677144 -0.290939 0
M  V30 1416 H 129.187 1.35633 -1.33056 0
M  V30 1417 H 127.337 3.79068 -0.850883 0
M  V30 1418 H 129.009 3.14099 -3.37846 0
M  V30 1419 H 127.252 2.90253 -3.22391 0
M  V30 1420 H 127.923 4.53453 -3.14777 0
M  V30 1421 H 130.399 3.94871 -1.3121 0
M  V30 1422 H 129.275 5.33193 -1.30372 0
M  V30 1423 H 129.536 4.4176 0.173226 0
M  V30 1424 N 128.595 0.856903 1.32268 0
M  V30 1425 C 129.543 0.291987 2.3076 0
M  V30 1426 C 130.537 -0.585857 1.58947 0
M  V30 1427 O 131.743 -0.47341 1.73663 0
M  V30 1428 H 128.118 0.075721 0.748178 0
M  V30 1429 H 130.089 1.13687 2.75895 0
M  V30 1430 C 128.838 -0.502869 3.44044 0
M  V30 1431 H 128.161 0.163328 3.99466 0
M  V30 1432 H 129.601 -0.863691 4.1511 0
M  V30 1433 C 128.06 -1.68898 2.91505 0
M  V30 1434 O 128.59 -2.78811 2.89184 0
M  V30 1435 N 126.796 -1.51679 2.47875 0
M  V30 1436 H 126.343 -0.622666 2.49961 0
M  V30 1437 H 126.301 -2.31184 2.13076 0
M  V30 1438 N 130.073 -1.45103 0.615059 0
M  V30 1439 C 131.02 -2.30586 -0.0993978 0
M  V30 1440 C 131.99 -1.42544 -0.852669 0
M  V30 1441 O 133.175 -1.71465 -0.836917 0
M  V30 1442 C 130.315 -3.27572 -1.08583 0
M  V30 1443 C 129.428 -4.30717 -0.332656 0
M  V30 1444 C 128.563 -5.14807 -1.30947 0
M  V30 1445 C 127.602 -6.09673 -0.544538 0
M  V30 1446 N 126.739 -6.86517 -1.47101 0
M  V30 1447 H 131.579 -2.91144 0.635542 0
M  V30 1448 H 129.116 -1.4346 0.325206 0
M  V30 1449 H 131.074 -3.82276 -1.67095 0
M  V30 1450 H 129.704 -2.68751 -1.78809 0
M  V30 1451 H 128.756 -3.78615 0.368107 0
M  V30 1452 H 130.068 -4.98102 0.263842 0
M  V30 1453 H 129.222 -5.73948 -1.96643 0
M  V30 1454 H 127.961 -4.47458 -1.9399 0
M  V30 1455 H 126.966 -5.49656 0.126003 0
M  V30 1456 H 128.191 -6.79052 0.080947 0
M  V30 1457 H 126.137 -6.21851 -2.08895 0
M  V30 1458 H 126.054 -7.50281 -0.928137 0
M  V30 1459 H 127.322 -7.50194 -2.11731 0
M  V30 1460 N 131.551 -0.354651 -1.53558 0
M  V30 1461 C 132.514 0.484566 -2.24019 0
M  V30 1462 C 133.514 1.01861 -1.24422 0
M  V30 1463 O 134.704 0.906097 -1.4878 0
M  V30 1464 C 131.836 1.67615 -2.96847 0
M  V30 1465 H 133.029 -0.131843 -2.9961 0
M  V30 1466 H 130.582 -0.106165 -1.55939 0
M  V30 1467 H 131.317 2.33095 -2.25471 0
M  V30 1468 H 131.102 1.30029 -3.69912 0
M  V30 1469 H 132.592 2.27114 -3.50441 0
M  V30 1470 N 133.029 1.57378 -0.0835403 0
M  V30 1471 C 133.961 2.10389 0.909338 0
M  V30 1472 C 134.974 1.03858 1.25369 0
M  V30 1473 O 136.163 1.31338 1.20882 0
M  V30 1474 C 133.263 2.55908 2.2218 0
M  V30 1475 C 132.436 3.86145 2.05453 0
M  V30 1476 C 131.495 4.17633 3.20108 0
M  V30 1477 O 130.521 4.87043 2.94581 0
M  V30 1478 N 131.723 3.72113 4.45547 0
M  V30 1479 H 134.488 2.962 0.456657 0
M  V30 1480 H 132.049 1.61579 0.101877 0
M  V30 1481 H 134.041 2.74027 2.97811 0
M  V30 1482 H 132.611 1.75171 2.58909 0
M  V30 1483 H 131.831 3.7729 1.1422 0
M  V30 1484 H 133.119 4.7137 1.91541 0
M  V30 1485 H 132.517 3.16062 4.69171 0
M  V30 1486 H 131.074 3.95409 5.18165 0
M  V30 1487 N 134.507 -0.190092 1.56449 0
M  V30 1488 C 135.753 -0.911052 1.81184 0
M  V30 1489 C 136.086 -1.82699 0.658396 0
M  V30 1490 O 135.361 -1.91491 -0.340775 0
M  V30 1491 C 135.644 -1.72297 3.16205 0
M  V30 1492 C 135.497 -0.831419 4.42049 0
M  V30 1493 C 136.816 -2.69454 3.47969 0
M  V30 1494 H 133.935 -0.32977 0.659106 0
M  V30 1495 H 136.577 -0.178169 1.89163 0
M  V30 1496 H 134.727 -2.34778 3.09534 0
M  V30 1497 H 136.399 -0.220929 4.60771 0
M  V30 1498 H 134.642 -0.138406 4.33579 0
M  V30 1499 H 135.313 -1.43461 5.33032 0
M  V30 1500 H 137.789 -2.17104 3.54972 0
M  V30 1501 H 136.665 -3.23342 4.43555 0
M  V30 1502 H 136.926 -3.48744 2.71717 0
M  V30 1503 N 135.985 -1.50799 -0.457987 0
M  V30 1504 C 136.932 -1.70617 -1.5543 0
M  V30 1505 C 137.902 -0.547562 -1.56815 0
M  V30 1506 O 139.087 -0.779647 -1.74144 0
M  V30 1507 C 136.227 -1.81831 -2.93311 0
M  V30 1508 C 135.34 -3.09278 -3.01615 0
M  V30 1509 C 134.475 -3.11209 -4.30491 0
M  V30 1510 C 133.514 -4.33055 -4.32585 0
M  V30 1511 N 132.651 -4.32652 -5.52952 0
M  V30 1512 H 137.491 -2.64207 -1.37836 0
M  V30 1513 H 135.028 -1.30959 -0.669937 0
M  V30 1514 H 136.986 -1.86314 -3.73287 0
M  V30 1515 H 135.616 -0.916685 -3.0951 0
M  V30 1516 H 134.668 -3.14203 -2.1443 0
M  V30 1517 H 135.98 -3.99233 -2.99022 0
M  V30 1518 H 135.134 -3.14494 -5.18824 0
M  V30 1519 H 133.873 -2.19106 -4.35711 0
M  V30 1520 H 132.878 -4.29969 -3.42647 0
M  V30 1521 H 134.103 -5.264 -4.29046 0
M  V30 1522 H 132.049 -3.43409 -5.58933 0
M  V30 1523 H 131.966 -5.16392 -5.52155 0
M  V30 1524 H 133.234 -4.40101 -6.43375 0
M  V30 1525 N 137.463 0.71206 -1.40597 0
M  V30 1526 C 138.712 1.46754 -1.38369 0
M  V30 1527 C 139.025 1.95598 0.0097839 0
M  V30 1528 O 140.231 2.71059 0.154677 0
M  V30 1529 C 138.687 2.65289 -2.43207 0
M  V30 1530 C 138.295 2.23301 -3.88382 0
M  V30 1531 C 140.039 3.43008 -2.50091 0
M  V30 1532 C 137.946 3.38696 -4.84808 0
M  V30 1533 H 136.876 0.55118 -0.514506 0
M  V30 1534 H 139.527 0.774616 -1.66349 0
M  V30 1535 H 137.909 3.36769 -2.08332 0
M  V30 1536 H 139.083 1.59218 -4.32419 0
M  V30 1537 H 137.398 1.58618 -3.85006 0
M  V30 1538 H 139.995 4.28881 -3.1932 0
M  V30 1539 H 140.338 3.87065 -1.53253 0
M  V30 1540 H 140.871 2.78574 -2.83974 0
M  V30 1541 H 137.61 2.99668 -5.82992 0
M  V30 1542 H 137.13 4.01683 -4.45433 0
M  V30 1543 H 138.809 4.04712 -5.04794 0
M  V30 1544 N 138.941 1.26152 0.944643 0
M  V30 1545 C 140.357 1.03189 1.21754 0
M  V30 1546 C 140.557 -0.245112 2.00004 0
M  V30 1547 O 139.613 -0.955176 2.33736 0
M  V30 1548 C 140.926 2.26119 1.98219 0
M  V30 1549 C 142.474 2.30984 2.11224 0
M  V30 1550 C 142.949 3.53597 2.91089 0
M  V30 1551 N 144.44 3.54053 2.98664 0
M  V30 1552 C 145.175 4.45593 3.60881 0
M  V30 1553 N 144.671 5.47416 4.24626 0
M  V30 1554 N 146.464 4.33252 3.58119 0
M  V30 1555 H 138.615 2.08177 0.421437 0
M  V30 1556 H 140.878 0.914723 0.248969 0
M  V30 1557 H 140.584 3.18984 1.48128 0
M  V30 1558 H 140.458 2.3009 2.98895 0
M  V30 1559 H 142.845 1.38635 2.60508 0
M  V30 1560 H 142.926 2.31026 1.09821 0
M  V30 1561 H 142.57 4.46273 2.42493 0
M  V30 1562 H 142.5 3.50802 3.92741 0
M  V30 1563 H 144.991 2.80403 2.53343 0
M  V30 1564 H 145.304 6.13459 4.69987 0
M  V30 1565 H 143.649 5.51278 4.23223 0
M  V30 1566 H 146.84 3.52924 3.0751 0
M  V30 1567 H 147.013 5.04786 4.06319 0
M  V30 1568 N 140.419 -1.14872 1.07899 0
M  V30 1569 C 141.382 -2.17986 0.708161 0
M  V30 1570 C 142.382 -1.58775 -0.25442 0
M  V30 1571 O 143.572 -1.74166 -0.034645 0
M  V30 1572 C 140.704 -3.40871 0.0446929 0
M  V30 1573 H 141.897 -2.52306 1.62116 0
M  V30 1574 H 139.45 -1.2943 0.876218 0
M  V30 1575 H 140.185 -3.12124 -0.880281 0
M  V30 1576 H 139.97 -3.8511 0.737091 0
M  V30 1577 H 141.46 -4.17121 -0.19991 0
M  V30 1578 N 141.898 -0.863906 -1.31812 0
M  V30 1579 C 142.845 -0.313303 -2.28664 0
M  V30 1580 C 143.815 0.584868 -1.55462 0
M  V30 1581 O 145 0.517805 -1.83639 0
M  V30 1582 C 142.14 0.48441 -3.41683 0
M  V30 1583 C 141.253 -0.440594 -4.29747 0
M  V30 1584 C 140.388 0.370652 -5.29905 0
M  V30 1585 C 139.427 -0.551164 -6.09613 0
M  V30 1586 N 138.564 0.223462 -7.01744 0
M  V30 1587 H 143.404 -1.14444 -2.75148 0
M  V30 1588 H 140.941 -0.575769 -1.35364 0
M  V30 1589 H 142.899 0.962627 -4.05943 0
M  V30 1590 H 141.529 1.28029 -2.96325 0
M  V30 1591 H 140.581 -1.03724 -3.65986 0
M  V30 1592 H 141.893 -1.14767 -4.85417 0
M  V30 1593 H 141.047 0.911638 -5.99812 0
M  V30 1594 H 139.786 1.11105 -4.74876 0
M  V30 1595 H 138.791 -1.10396 -5.38603 0
M  V30 1596 H 140.016 -1.29032 -6.66729 0
M  V30 1597 H 137.962 0.946787 -6.49132 0
M  V30 1598 H 137.879 -0.424399 -7.54808 0
M  V30 1599 H 139.147 0.745876 -7.75923 0
M  V30 1600 N 143.376 1.44774 -0.622745 0
M  V30 1601 C 144.323 2.30635 0.0871679 0
M  V30 1602 C 145.293 1.42994 0.845097 0
M  V30 1603 O 146.478 1.71907 0.827812 0
M  V30 1604 C 143.618 3.28144 1.06844 0
M  V30 1605 C 142.731 4.30888 0.309809 0
M  V30 1606 C 141.866 5.15494 1.28215 0
M  V30 1607 C 140.905 6.09953 0.512198 0
M  V30 1608 N 140.042 6.87287 1.43458 0
M  V30 1609 H 144.882 2.90803 -0.650974 0
M  V30 1610 H 142.419 1.43286 -0.33281 0
M  V30 1611 H 144.377 3.83157 1.65066 0
M  V30 1612 H 143.007 2.69695 1.77382 0
M  V30 1613 H 142.059 3.78414 -0.388181 0
M  V30 1614 H 143.371 4.97955 -0.290254 0
M  V30 1615 H 142.525 5.74983 1.93596 0
M  V30 1616 H 141.264 4.48481 1.91614 0
M  V30 1617 H 140.269 5.49581 -0.155151 0
M  V30 1618 H 141.494 6.78999 -0.116958 0
M  V30 1619 H 139.44 6.2295 2.05594 0
M  V30 1620 H 139.357 7.50763 0.888335 0
M  V30 1621 H 140.625 7.51306 2.07749 0
M  V30 1622 N 144.854 0.36279 1.53368 0
M  V30 1623 C 146.131 -0.284021 1.93527 0
M  V30 1624 C 146.511 -1.66628 1.29608 0
M  V30 1625 O 145.859 -2.23942 0.45413 0
M  V30 1626 C 146.069 -0.337028 3.47369 0
M  V30 1627 C 147.417 -0.578708 4.20638 0
M  V30 1628 O 148.441 -0.418352 3.53735 0
M  V30 1629 O 147.3 -0.89074 5.39192 0
M  V30 1630 H 144.394 -0.169743 0.809393 0
M  V30 1631 H 146.94 0.41537 1.64538 0
M  V30 1632 H 145.712 0.632217 3.86159 0
M  V30 1633 H 145.335 -1.08243 3.82582 0
M  V30 1634 N 146.332 -1.57332 0.0918853 0
M  V30 1635 C 147.28 -2.15075 -0.885747 0
M  V30 1636 C 148.274 -1.09277 -1.29441 0
M  V30 1637 O 149.48 -1.27627 -1.26931 0
M  V30 1638 H 145.855 -0.687966 -0.303656 0
M  V30 1639 H 147.826 -2.96047 -0.373995 0
M  V30 1640 C 146.575 -2.74325 -2.13638 0
M  V30 1641 H 145.898 -3.55418 -1.8308 0
M  V30 1642 H 147.338 -3.183 -2.80109 0
M  V30 1643 C 145.797 -1.70062 -2.90827 0
M  V30 1644 O 146.327 -1.13763 -3.85254 0
M  V30 1645 N 144.533 -1.40628 -2.54307 0
M  V30 1646 H 144.08 -1.866 -1.7759 0
M  V30 1647 H 144.038 -0.711043 -3.06254 0
M  V30 1648 N 147.81 0.181792 -1.56548 0
M  V30 1649 C 149.056 0.901431 -1.81665 0
M  V30 1650 C 149.389 1.82347 -0.668075 0
M  V30 1651 O 148.664 1.91669 0.330615 0
M  V30 1652 C 148.947 1.70618 -3.17115 0
M  V30 1653 C 148.8 0.807964 -4.42484 0
M  V30 1654 C 150.119 2.67605 -3.49393 0
M  V30 1655 H 147.238 0.32627 -0.660846 0
M  V30 1656 H 149.88 0.168134 -1.89255 0
M  V30 1657 H 148.03 2.33133 -3.10775 0
M  V30 1658 H 149.702 0.19649 -4.60881 0
M  V30 1659 H 147.945 0.115411 -4.33646 0
M  V30 1660 H 148.616 1.40632 -5.33785 0
M  V30 1661 H 151.092 2.15218 -3.56118 0
M  V30 1662 H 149.968 3.20985 -4.45264 0
M  V30 1663 H 150.229 3.47298 -2.73563 0
M  V30 1664 N 149.288 1.51039 0.449983 0
M  V30 1665 C 150.251 1.70863 1.5277 0
M  V30 1666 C 151.251 0.578846 1.5002 0
M  V30 1667 O 152.441 0.846213 1.52266 0
M  V30 1668 C 149.573 1.75341 2.9235 0
M  V30 1669 H 150.766 2.67034 1.36502 0
M  V30 1670 H 148.319 1.40838 0.677812 0
M  V30 1671 H 149.054 0.809383 3.14037 0
M  V30 1672 H 148.839 2.57436 2.95752 0
M  V30 1673 H 150.329 1.92559 3.70555 0
M  V30 1674 N 150.766 -0.704594 1.40972 0
M  V30 1675 C 152.014 -1.46169 1.39568 0
M  V30 1676 C 152.335 -1.95 0.00253745 0
M  V30 1677 O 151.605 -1.71095 -0.954114 0
M  V30 1678 H 150.185 -0.542326 0.513704 0
M  V30 1679 H 152.847 -0.834553 1.76128 0
M  V30 1680 H 151.943 -2.32922 2.07735 0
M  V30 1681 N 152.244 -1.26651 -0.937939 0
M  V30 1682 C 153.49 -1.12553 -1.687 0
M  V30 1683 C 153.823 0.329782 -1.91379 0
M  V30 1684 O 153.098 1.24202 -1.4968 0
M  V30 1685 C 153.381 -1.89862 -3.05981 0
M  V30 1686 C 153.234 -3.43318 -2.90607 0
M  V30 1687 C 154.553 -1.69499 -4.0615 0
M  V30 1688 H 151.672 -0.410257 -0.612257 0
M  V30 1689 H 154.314 -1.55685 -1.08913 0
M  V30 1690 H 152.464 -1.53204 -3.57017 0
M  V30 1691 H 154.136 -3.89747 -2.46769 0
M  V30 1692 H 152.379 -3.70179 -2.26164 0
M  V30 1693 H 153.05 -3.92642 -3.8799 0
M  V30 1694 H 155.526 -2.01442 -3.64088 0
M  V30 1695 H 154.402 -2.26002 -5.00214 0
M  V30 1696 H 154.663 -0.640365 -4.37438 0
M  V30 1697 N 153.722 1.14298 -1.08507 0
M  V30 1698 C 154.95 1.89219 -0.836876 0
M  V30 1699 C 155.365 1.78638 0.611054 0
M  V30 1700 O 154.722 1.14643 1.41998 0
M  V30 1701 C 154.773 3.39158 -1.25116 0
M  V30 1702 O 154.494 3.49449 -2.64229 0
M  V30 1703 C 155.995 4.31073 -1.03398 0
M  V30 1704 H 153.215 0.599328 -0.301739 0
M  V30 1705 H 155.759 1.44746 -1.44461 0
M  V30 1706 H 153.914 3.81251 -0.687514 0
M  V30 1707 H 154.328 4.42589 -2.81452 0
M  V30 1708 H 155.802 5.34646 -1.37323 0
M  V30 1709 H 156.279 4.3919 0.0289259 0
M  V30 1710 H 156.885 3.94738 -1.58311 0
M  V30 1711 N 155.201 0.870884 1.31352 0
M  V30 1712 C 156.131 0.343096 2.30966 0
M  V30 1713 C 157.112 -0.566507 1.60389 0
M  V30 1714 O 158.297 -0.483336 1.88089 0
M  V30 1715 C 155.427 -0.455487 3.443 0
M  V30 1716 C 154.381 0.361103 4.26474 0
M  V30 1717 C 153.707 -0.563221 5.31725 0
M  V30 1718 C 155.007 1.59566 4.97329 0
M  V30 1719 H 156.701 1.17548 2.75359 0
M  V30 1720 H 154.247 0.566686 1.32381 0
M  V30 1721 H 156.2 -0.83525 4.13039 0
M  V30 1722 H 154.924 -1.32139 2.98675 0
M  V30 1723 H 153.583 0.722825 3.59403 0
M  V30 1724 H 153.231 -1.42643 4.82351 0
M  V30 1725 H 152.931 -0.0207409 5.87596 0
M  V30 1726 H 154.455 -0.939808 6.03324 0
M  V30 1727 H 155.869 1.28728 5.58661 0
M  V30 1728 H 154.266 2.07728 5.63 0
M  V30 1729 H 155.336 2.34798 4.24262 0
M  V30 1730 N 156.679 -1.44442 0.630414 0
M  V30 1731 C 158.09 -1.85434 0.217063 0
M  V30 1732 C 158.441 -1.52748 -1.23136 0
M  V30 1733 O 157.566 -0.965205 -1.93682 0
M  V30 1734 C 158.161 -3.36581 0.387168 0
M  V30 1735 C 156.72 -3.76389 0.0283297 0
M  V30 1736 C 155.867 -2.68296 0.700889 0
M  V30 1737 H 158.818 -1.34919 0.83562 0
M  V30 1738 H 158.839 -3.78657 -0.374086 0
M  V30 1739 H 158.351 -3.60339 1.44144 0
M  V30 1740 H 156.452 -3.58246 -1.02423 0
M  V30 1741 H 156.565 -4.77095 0.437892 0
M  V30 1742 H 154.929 -2.54335 0.136267 0
M  V30 1743 H 155.712 -2.94887 1.75774 0
M  V30 1744 N 158.157 -0.370918 -1.53173 0
M  V30 1745 C 159.403 0.217423 -2.01631 0
M  V30 1746 C 159.736 1.47983 -1.25756 0
M  V30 1747 O 159.011 1.91274 -0.352764 0
M  V30 1748 C 159.294 0.503982 -3.56556 0
M  V30 1749 C 159.147 -0.77243 -4.43118 0
M  V30 1750 C 160.466 1.30234 -4.20389 0
M  V30 1751 H 157.585 0.0775486 -0.732909 0
M  V30 1752 H 160.227 -0.496863 -1.83388 0
M  V30 1753 H 158.377 1.11248 -3.72231 0
M  V30 1754 H 160.049 -1.4098 -4.39229 0
M  V30 1755 H 158.292 -1.39167 -4.10871 0
M  V30 1756 H 158.963 -0.526815 -5.4948 0
M  V30 1757 H 161.439 0.787546 -4.08579 0
M  V30 1758 H 160.315 1.47158 -5.28806 0
M  V30 1759 H 160.576 2.31237 -3.76805 0
M  V30 1760 N 159.635 1.57281 -0.100228 0
M  V30 1761 C 160.882 1.94537 0.562268 0
M  V30 1762 C 161.21 0.982315 1.67871 0
M  V30 1763 O 160.465 0.00280936 1.957 0
M  V30 1764 C 160.764 3.38305 1.15259 0
M  V30 1765 C 160.43 4.50618 0.159409 0
M  V30 1766 C 159.092 4.81066 -0.113741 0
M  V30 1767 C 161.444 5.18615 -0.518461 0
M  V30 1768 C 158.772 5.76835 -1.07137 0
M  V30 1769 C 161.124 6.15412 -1.46459 0
M  V30 1770 C 159.788 6.44262 -1.74592 0
M  V30 1771 H 159.058 0.711863 0.205748 0
M  V30 1772 H 161.705 1.90679 -0.17715 0
M  V30 1773 H 160.01 3.38766 1.96836 0
M  V30 1774 H 161.707 3.64435 1.67297 0
M  V30 1775 H 158.297 4.2689 0.382491 0
M  V30 1776 H 162.481 4.95264 -0.320581 0
M  V30 1777 H 157.737 5.975 -1.29628 0
M  V30 1778 H 161.911 6.67194 -1.99564 0
M  V30 1779 H 159.538 7.1828 -2.48953 0
M  V30 1780 N 161.113 -0.173488 1.56642 0
M  V30 1781 C 162.023 -1.23482 1.99473 0
M  V30 1782 C 163.039 -1.48567 0.905752 0
M  V30 1783 O 164.215 -1.60758 1.21321 0
M  V30 1784 C 161.28 -2.55444 2.34413 0
M  V30 1785 C 160.341 -2.38241 3.57127 0
M  V30 1786 C 159.574 -3.63909 3.90392 0
M  V30 1787 O 159.797 -4.68996 3.24653 0
M  V30 1788 O 158.731 -3.58149 4.83749 0
M  V30 1789 H 162.557 -0.901279 2.90018 0
M  V30 1790 H 160.142 -0.380185 1.44482 0
M  V30 1791 H 162.024 -3.33292 2.57865 0
M  V30 1792 H 160.699 -2.88382 1.4703 0
M  V30 1793 H 159.606 -1.58431 3.38896 0
M  V30 1794 H 160.939 -2.10228 4.45045 0
M  V30 1795 N 162.591 -1.51276 -0.441967 0
M  V30 1796 C 163.541 -1.6864 -1.53442 0
M  V30 1797 C 164.525 -0.540444 -1.51552 0
M  V30 1798 O 165.717 -0.796157 -1.58083 0
M  V30 1799 C 162.846 -1.8106 -2.91672 0
M  V30 1800 C 161.932 -3.01424 -2.98336 0
M  V30 1801 N 162.323 -4.2467 -2.74752 0
M  V30 1802 C 160.621 -3.00584 -3.29493 0
M  V30 1803 C 161.322 -5.05891 -2.87139 0
M  V30 1804 N 160.298 -4.40442 -3.18609 0
M  V30 1805 H 164.1 -2.61598 -1.33954 0
M  V30 1806 H 161.614 -1.4886 -0.6492 0
M  V30 1807 H 163.611 -1.91609 -3.70259 0
M  V30 1808 H 162.271 -0.892795 -3.12185 0
M  V30 1809 H 163.282 -4.53691 -2.49769 0
M  V30 1810 H 159.959 -2.18417 -3.55809 0
M  V30 1811 H 161.349 -6.13983 -2.72899 0
M  V30 1812 N 164.069 0.697108 -1.41344 0
M  V30 1813 C 165.299 1.48377 -1.43763 0
M  V30 1814 C 165.707 1.89156 -0.0408726 0
M  V30 1815 O 165.05 1.57239 0.949812 0
M  V30 1816 C 165.112 2.7781 -2.2817 0
M  V30 1817 C 164.776 2.59244 -3.76353 0
M  V30 1818 C 165.773 2.25292 -4.68551 0
M  V30 1819 C 163.458 2.74933 -4.20378 0
M  V30 1820 C 165.452 2.07264 -6.02761 0
M  V30 1821 C 163.139 2.56521 -5.54653 0
M  V30 1822 C 164.137 2.22737 -6.4566 0
M  V30 1823 O 163.825 2.04485 -7.77458 0
M  V30 1824 H 163.557 0.463842 -0.491759 0
M  V30 1825 H 166.111 0.865934 -1.86255 0
M  V30 1826 H 164.341 3.41995 -1.8049 0
M  V30 1827 H 166.03 3.39608 -2.22309 0
M  V30 1828 H 166.796 2.12787 -4.35829 0
M  V30 1829 H 162.675 3.00213 -3.49848 0
M  V30 1830 H 166.219 1.80817 -6.73759 0
M  V30 1831 H 162.116 2.68616 -5.86955 0
M  V30 1832 H 162.884 2.1926 -7.88586 0
M  V30 1833 N 165.547 1.27147 0.931209 0
M  V30 1834 C 166.497 1.06227 2.01742 0
M  V30 1835 C 167.481 -0.00859065 1.60898 0
M  V30 1836 O 168.673 0.209537 1.75755 0
M  V30 1837 C 165.802 0.707787 3.35924 0
M  V30 1838 C 164.888 1.81661 3.83223 0
M  V30 1839 N 165.279 3.05564 4.03069 0
M  V30 1840 C 163.577 1.70249 4.12227 0
M  V30 1841 C 164.278 3.77697 4.42403 0
M  V30 1842 N 163.254 3.0544 4.49675 0
M  V30 1843 H 167.056 2.00261 2.15111 0
M  V30 1844 H 164.57 1.1781 1.11779 0
M  V30 1845 H 166.567 0.539043 4.134 0
M  V30 1846 H 165.227 -0.224964 3.2392 0
M  V30 1847 H 166.238 3.41363 3.89476 0
M  V30 1848 H 162.915 0.840329 4.08956 0
M  V30 1849 H 164.305 4.84168 4.65866 0
M  V30 1850 N 167.025 -1.13721 1.09112 0
M  V30 1851 C 167.935 -2.22638 0.73957 0
M  V30 1852 C 168.951 -1.72091 -0.257068 0
M  V30 1853 O 170.127 -2.01155 -0.0992154 0
M  V30 1854 C 167.192 -3.46322 0.16191 0
M  V30 1855 C 166.253 -4.11775 1.21408 0
M  V30 1856 C 165.486 -5.29555 0.663891 0
M  V30 1857 O 165.709 -5.68077 -0.514274 0
M  V30 1858 O 164.643 -5.84973 1.41738 0
M  V30 1859 H 168.469 -2.55074 1.64836 0
M  V30 1860 H 166.054 -1.21791 0.865289 0
M  V30 1861 H 167.936 -4.21107 -0.157073 0
M  V30 1862 H 166.611 -3.15593 -0.719932 0
M  V30 1863 H 165.518 -3.3883 1.58571 0
M  V30 1864 H 166.851 -4.46627 2.06845 0
M  V30 1865 N 168.503 -0.877838 -1.30888 0
M  V30 1866 C 169.751 -0.491723 -1.96027 0
M  V30 1867 C 170.072 0.960827 -1.69685 0
M  V30 1868 O 169.342 1.67462 -1.01654 0
M  V30 1869 H 167.922 -0.17885 -0.725273 0
M  V30 1870 H 170.584 -1.11935 -1.59551 0
M  V30 1871 H 169.68 -0.656016 -3.05128 0
M  V30 1872 N 169.982 1.44106 -0.638065 0
M  V30 1873 C 171.21 2.06336 -0.152615 0
M  V30 1874 C 171.625 1.47731 1.17563 0
M  V30 1875 O 170.982 0.602806 1.72257 0
M  V30 1876 C 171.033 3.61479 -0.0391491 0
M  V30 1877 O 170.754 4.17903 -1.31487 0
M  V30 1878 C 172.255 4.40757 0.474176 0
M  V30 1879 H 169.475 0.665862 -0.0828776 0
M  V30 1880 H 172.019 1.84862 -0.87443 0
M  V30 1881 H 170.174 3.82191 0.633142 0
M  V30 1882 H 170.588 5.11416 -1.16421 0
M  V30 1883 H 172.062 5.49707 0.502562 0
M  V30 1884 H 172.539 4.12697 1.50258 0
M  V30 1885 H 173.145 4.24979 -0.165102 0
M  V30 1886 N 171.46 0.379036 1.52974 0
M  V30 1887 C 172.737 -0.263479 1.93817 0
M  V30 1888 C 173.117 -1.65244 1.31368 0
M  V30 1889 O 172.465 -2.23448 0.477856 0
M  V30 1890 C 172.675 -0.300166 3.47707 0
M  V30 1891 C 174.023 -0.534061 4.21228 0
M  V30 1892 O 175.047 -0.38081 3.54159 0
M  V30 1893 O 173.906 -0.833501 5.40106 0
M  V30 1894 H 171 -0.161149 0.811147 0
M  V30 1895 H 173.546 0.432798 1.64088 0
M  V30 1896 H 172.318 0.673138 3.85467 0
M  V30 1897 H 171.941 -1.04179 3.83709 0
M  V30 1898 N 172.938 -1.57226 0.108567 0
M  V30 1899 C 174.163 -1.99604 -0.563303 0
M  V30 1900 C 174.588 -0.987563 -1.6009 0
M  V30 1901 O 173.946 0.0421687 -1.81251 0
M  V30 1902 C 173.994 -3.40902 -1.17552 0
M  V30 1903 O 173.098 -3.42896 -2.2912 0
M  V30 1904 H 172.439 -0.648704 -0.1417 0
M  V30 1905 H 174.969 -2.03679 0.193961 0
M  V30 1906 H 174.979 -3.78886 -1.51357 0
M  V30 1907 H 173.654 -4.1382 -0.415445 0
M  V30 1908 H 172.231 -3.1672 -1.96832 0
M  V30 1909 N 174.416 0.165178 -1.56732 0
M  V30 1910 C 175.646 0.894919 -1.86212 0
M  V30 1911 C 176.054 1.76066 -0.692627 0
M  V30 1912 O 175.397 1.80387 0.347303 0
M  V30 1913 C 175.459 1.8174 -3.10179 0
M  V30 1914 C 175.123 1.13064 -4.42793 0
M  V30 1915 C 176.12 0.493169 -5.17556 0
M  V30 1916 C 173.805 1.12556 -4.89527 0
M  V30 1917 C 175.799 -0.140209 -6.37246 0
M  V30 1918 C 173.486 0.488366 -6.09145 0
M  V30 1919 C 174.484 -0.143411 -6.82849 0
M  V30 1920 O 174.172 -0.77055 -8.00199 0
M  V30 1921 H 173.904 0.265114 -0.621844 0
M  V30 1922 H 176.458 0.168242 -2.0471 0
M  V30 1923 H 174.688 2.58455 -2.87642 0
M  V30 1924 H 176.377 2.4175 -3.26055 0
M  V30 1925 H 177.143 0.489023 -4.82528 0
M  V30 1926 H 173.022 1.60672 -4.32094 0
M  V30 1927 H 176.566 -0.633932 -6.94714 0
M  V30 1928 H 172.463 0.490116 -6.43637 0
M  V30 1929 H 173.231 -0.670408 -8.1575 0
M  V30 1930 N 175.894 1.51508 0.433938 0
M  V30 1931 C 176.804 1.75917 1.5521 0
M  V30 1932 C 177.82 0.643545 1.61662 0
M  V30 1933 O 178.996 0.926183 1.7884 0
M  V30 1934 C 176.061 1.88213 2.91164 0
M  V30 1935 C 175.122 3.12074 2.94802 0
M  V30 1936 C 174.355 3.23774 4.24271 0
M  V30 1937 O 174.578 2.4133 5.16833 0
M  V30 1938 O 173.512 4.16774 4.34262 0
M  V30 1939 H 177.338 2.70777 1.37527 0
M  V30 1940 H 174.923 1.36051 0.617293 0
M  V30 1941 H 176.805 1.98267 3.71845 0
M  V30 1942 H 175.48 0.965413 3.08968 0
M  V30 1943 H 174.387 3.07497 2.13065 0
M  V30 1944 H 175.72 4.03446 2.81943 0
M  V30 1945 N 177.372 -0.689602 1.41712 0
M  V30 1946 C 178.302 -1.81577 1.46806 0
M  V30 1947 C 179.283 -1.66945 0.326105 0
M  V30 1948 O 180.468 -1.86588 0.538377 0
M  V30 1949 C 177.598 -3.19762 1.35535 0
M  V30 1950 C 176.552 -3.49107 2.47605 0
M  V30 1951 C 175.878 -4.86711 2.21397 0
M  V30 1952 C 177.178 -3.47483 3.89939 0
M  V30 1953 H 178.872 -1.7757 2.41058 0
M  V30 1954 H 176.418 -0.852887 1.16025 0
M  V30 1955 H 178.371 -3.98263 1.3771 0
M  V30 1956 H 177.095 -3.24409 0.377708 0
M  V30 1957 H 175.754 -2.72959 2.44722 0
M  V30 1958 H 175.402 -4.8799 1.21961 0
M  V30 1959 H 175.102 -5.0731 2.96497 0
M  V30 1960 H 176.626 -5.67515 2.25297 0
M  V30 1961 H 178.04 -4.1598 3.94505 0
M  V30 1962 H 176.437 -3.79615 4.64771 0
M  V30 1963 H 177.507 -2.46341 4.17665 0
M  V30 1964 N 178.85 -1.27639 -0.924453 0
M  V30 1965 C 180.078 -1.16989 -1.70649 0
M  V30 1966 C 180.493 0.272869 -1.86818 0
M  V30 1967 O 179.85 1.18549 -1.38753 0
M  V30 1968 C 179.901 -1.85229 -3.10439 0
M  V30 1969 O 179.622 -3.23868 -2.95028 0
M  V30 1970 C 181.123 -1.80746 -4.04779 0
M  V30 1971 H 178.343 -0.406595 -0.53378 0
M  V30 1972 H 180.887 -1.68569 -1.15778 0
M  V30 1973 H 179.042 -1.37545 -3.6216 0
M  V30 1974 H 179.456 -3.57889 -3.83426 0
M  V30 1975 H 180.93 -2.33101 -5.00368 0
M  V30 1976 H 181.407 -0.777499 -4.32263 0
M  V30 1977 H 182.013 -2.28059 -3.58984 0
M  V30 1978 N 180.328 1.1314 -1.09713 0
M  V30 1979 C 181.576 1.84119 -0.833338 0
M  V30 1980 C 181.897 1.84097 0.642904 0
M  V30 1981 O 181.167 1.29881 1.46655 0
M  V30 1982 H 179.747 0.681766 -0.305293 0
M  V30 1983 H 182.409 1.37038 -1.38588 0
M  V30 1984 H 181.505 2.88543 -1.18951 0
M  V30 1985 N 181.806 0.884767 1.30421 0
M  V30 1986 C 182.736 0.367574 2.30589 0
M  V30 1987 C 183.717 -0.549464 1.60981 0
M  V30 1988 O 184.902 -0.46336 1.88591 0
M  V30 1989 C 182.032 -0.418944 3.44764 0
M  V30 1990 C 180.986 0.406316 4.26067 0
M  V30 1991 C 180.312 -0.506793 5.32293 0
M  V30 1992 C 181.612 1.64832 4.95608 0
M  V30 1993 H 183.306 1.20462 2.74097 0
M  V30 1994 H 180.852 0.580695 1.31772 0
M  V30 1995 H 182.805 -0.791395 4.13902 0
M  V30 1996 H 181.529 -1.28964 3.0006 0
M  V30 1997 H 180.188 0.760903 3.58617 0
M  V30 1998 H 179.836 -1.37519 4.83836 0
M  V30 1999 H 179.536 0.0415828 5.87585 0
M  V30 2000 H 181.06 -0.875764 6.04287 0
M  V30 2001 H 182.474 1.34646 5.57264 0
M  V30 2002 H 180.871 2.13688 5.60765 0
M  V30 2003 H 181.941 2.39284 4.21748 0
M  V30 2004 N 183.284 -1.43765 0.645699 0
M  V30 2005 C 184.247 -2.29163 -0.0409488 0
M  V30 2006 C 185.247 -1.41813 -0.757996 0
M  V30 2007 O 186.437 -1.63527 -0.600382 0
M  V30 2008 C 183.569 -3.23716 -1.06869 0
M  V30 2009 H 184.762 -2.91366 0.710345 0
M  V30 2010 H 182.315 -1.5092 0.406547 0
M  V30 2011 H 183.05 -2.66393 -1.84947 0
M  V30 2012 H 182.835 -3.88105 -0.558277 0
M  V30 2013 H 184.325 -3.87831 -1.54845 0
M  V30 2014 N 184.763 -0.387143 -1.52771 0
M  V30 2015 C 186.179 -0.037007 -1.59557 0
M  V30 2016 C 186.379 1.44801 -1.40124 0
M  V30 2017 O 185.435 2.21227 -1.21716 0
M  V30 2018 C 186.748 -0.512256 -2.96305 0
M  V30 2019 C 188.296 -0.468328 -3.09476 0
M  V30 2020 C 188.771 -0.919731 -4.4867 0
M  V30 2021 N 190.262 -0.875656 -4.54848 0
M  V30 2022 C 190.997 -1.19637 -5.6078 0
M  V30 2023 N 190.493 -1.58745 -6.74368 0
M  V30 2024 N 192.286 -1.11776 -5.50874 0
M  V30 2025 H 184.437 -1.35395 -1.63652 0
M  V30 2026 H 186.7 -0.554818 -0.768688 0
M  V30 2027 H 186.406 -1.54935 -3.15734 0
M  V30 2028 H 186.28 0.089805 -3.77093 0
M  V30 2029 H 188.667 0.559671 -2.89744 0
M  V30 2030 H 188.748 -1.10616 -2.30646 0
M  V30 2031 H 188.392 -1.94595 -4.69143 0
M  V30 2032 H 188.322 -0.258927 -5.25963 0
M  V30 2033 H 190.813 -0.587843 -3.733 0
M  V30 2034 H 191.126 -1.81586 -7.51163 0
M  V30 2035 H 189.471 -1.6263 -6.75705 0
M  V30 2036 H 192.662 -0.811264 -4.61016 0
M  V30 2037 H 192.835 -1.37103 -6.3333 0
M  V30 2038 N 186.241 1.57166 -0.116904 0
M  V30 2039 C 187.489 1.94737 0.540533 0
M  V30 2040 C 187.81 1.00096 1.67349 0
M  V30 2041 O 187.08 0.0568854 1.95817 0
M  V30 2042 H 185.66 0.718981 0.202669 0
M  V30 2043 H 188.322 1.94017 -0.185353 0
M  V30 2044 H 187.418 2.97719 0.936483 0
M  V30 2045 N 187.719 -0.156864 1.56817 0
M  V30 2046 C 188.967 -0.869404 1.82444 0
M  V30 2047 C 189.288 -1.82147 0.69623 0
M  V30 2048 O 188.558 -1.93847 -0.28287 0
M  V30 2049 H 187.138 -0.324043 0.673056 0
M  V30 2050 H 189.8 -0.153224 1.94297 0
M  V30 2051 H 188.896 -1.43761 2.77019 0
M  V30 2052 N 189.197 -1.51736 -0.425897 0
M  V30 2053 C 190.107 -1.76738 -1.54275 0
M  V30 2054 C 191.123 -0.65211 -1.61318 0
M  V30 2055 O 192.299 -0.935654 -1.78346 0
M  V30 2056 C 189.364 -1.89755 -2.90162 0
M  V30 2057 C 188.425 -3.13633 -2.93143 0
M  V30 2058 C 187.658 -3.2602 -4.22548 0
M  V30 2059 O 187.881 -2.44067 -5.15546 0
M  V30 2060 O 186.815 -4.19071 -4.32046 0
M  V30 2061 H 190.641 -2.71502 -1.36089 0
M  V30 2062 H 188.226 -1.36376 -0.610069 0
M  V30 2063 H 190.108 -2.00236 -3.70788 0
M  V30 2064 H 188.783 -0.981785 -3.08452 0
M  V30 2065 H 187.69 -3.08622 -2.11431 0
M  V30 2066 H 189.023 -4.04936 -2.798 0
M  V30 2067 N 190.675 0.682077 -1.42076 0
M  V30 2068 C 191.607 1.80755 -1.40926 0
M  V30 2069 C 192.62 1.59833 -0.309398 0
M  V30 2070 O 193.809 1.69087 -0.572014 0
M  V30 2071 C 190.909 3.17744 -1.17865 0
M  V30 2072 C 190.082 3.65578 -2.40149 0
M  V30 2073 C 189.141 4.81277 -2.12742 0
M  V30 2074 O 188.167 4.92197 -2.85887 0
M  V30 2075 N 189.369 5.69474 -1.12602 0
M  V30 2076 H 192.134 1.82229 -2.37935 0
M  V30 2077 H 189.695 0.864903 -1.36861 0
M  V30 2078 H 191.687 3.9279 -0.9746 0
M  V30 2079 H 190.257 3.11214 -0.294068 0
M  V30 2080 H 189.477 2.81291 -2.76169 0
M  V30 2081 H 190.765 3.94278 -3.21593 0
M  V30 2082 H 190.163 5.63297 -0.520899 0
M  V30 2083 H 188.72 6.44363 -0.981842 0
M  V30 2084 N 192.153 1.28127 0.917671 0
M  V30 2085 C 193.083 1.14248 2.03641 0
M  V30 2086 C 194.064 0.0412748 1.7005 0
M  V30 2087 O 195.249 0.217566 1.92977 0
M  V30 2088 C 192.379 0.799431 3.37974 0
M  V30 2089 C 191.333 1.85497 3.85713 0
M  V30 2090 C 190.659 1.36565 5.16966 0
M  V30 2091 C 191.959 3.26085 4.08002 0
M  V30 2092 H 193.653 2.07835 2.15511 0
M  V30 2093 H 191.199 1.00064 1.03553 0
M  V30 2094 H 193.152 0.689114 4.15727 0
M  V30 2095 H 191.876 -0.172145 3.26146 0
M  V30 2096 H 190.535 1.95437 3.10161 0
M  V30 2097 H 190.183 0.383253 5.01538 0
M  V30 2098 H 189.883 2.07143 5.49878 0
M  V30 2099 H 191.407 1.26848 5.97279 0
M  V30 2100 H 192.821 3.19089 4.76293 0
M  V30 2101 H 191.218 3.94462 4.52238 0
M  V30 2102 H 192.288 3.70394 3.12948 0
M  V30 2103 N 193.631 -1.12557 1.10312 0
M  V30 2104 C 194.594 -2.16434 0.75424 0
M  V30 2105 C 195.594 -1.59278 -0.220685 0
M  V30 2106 O 196.784 -1.742 0.00230591 0
M  V30 2107 C 193.916 -3.40699 0.116987 0
M  V30 2108 H 195.109 -2.48811 1.67431 0
M  V30 2109 H 192.662 -1.27542 0.903475 0
M  V30 2110 H 193.397 -3.13921 -0.813877 0
M  V30 2111 H 193.182 -3.83459 0.818613 0
M  V30 2112 H 194.672 -4.17451 -0.111387 0
M  V30 2113 N 195.109 -0.891671 -1.2995 0
M  V30 2114 C 196.056 -0.361736 -2.27948 0
M  V30 2115 C 197.026 0.551761 -1.56668 0
M  V30 2116 O 198.211 0.478736 -1.84696 0
M  V30 2117 C 195.351 0.411825 -3.42634 0
M  V30 2118 C 194.464 -0.531651 -4.28716 0
M  V30 2119 C 193.599 0.258167 -5.30572 0
M  V30 2120 C 192.638 -0.680349 -6.08307 0
M  V30 2121 N 191.775 0.0745613 -7.0206 0
M  V30 2122 H 196.615 -1.20254 -2.72659 0
M  V30 2123 H 194.152 -0.604352 -1.34112 0
M  V30 2124 H 196.11 0.876304 -4.07893 0
M  V30 2125 H 194.74 1.21715 -2.98974 0
M  V30 2126 H 193.792 -1.11463 -3.63703 0
M  V30 2127 H 195.104 -1.25038 -4.82874 0
M  V30 2128 H 194.258 0.784204 -6.0161 0
M  V30 2129 H 192.997 1.01008 -4.77126 0
M  V30 2130 H 192.002 -1.21796 -5.3614 0
M  V30 2131 H 193.227 -1.43145 -6.63842 0
M  V30 2132 H 191.173 0.808883 -6.50994 0
M  V30 2133 H 191.09 -0.584409 -7.53738 0
M  V30 2134 H 192.358 0.581123 -7.77331 0
M  V30 2135 N 196.587 1.43421 -0.653314 0
M  V30 2136 C 197.517 2.33487 0.0246656 0
M  V30 2137 C 198.498 1.49475 0.811863 0
M  V30 2138 O 199.683 1.78139 0.773322 0
M  V30 2139 C 196.813 3.32841 0.99166 0
M  V30 2140 C 195.767 4.26842 0.314568 0
M  V30 2141 C 195.093 5.16236 1.39302 0
M  V30 2142 C 196.393 5.16243 -0.793095 0
M  V30 2143 H 198.087 2.90427 -0.727481 0
M  V30 2144 H 195.633 1.39649 -0.351287 0
M  V30 2145 H 197.586 3.94747 1.47487 0
M  V30 2146 H 196.31 2.74158 1.77497 0
M  V30 2147 H 194.969 3.663 -0.148199 0
M  V30 2148 H 194.617 4.53891 2.16776 0
M  V30 2149 H 194.317 5.79948 0.945223 0
M  V30 2150 H 195.841 5.81015 1.87759 0
M  V30 2151 H 197.255 5.71958 -0.392039 0
M  V30 2152 H 195.652 5.88676 -1.16536 0
M  V30 2153 H 196.722 4.55927 -1.65103 0
M  V30 2154 N 198.065 0.39524 1.52563 0
M  V30 2155 C 199.012 -0.437036 2.26624 0
M  V30 2156 C 199.982 -1.05281 1.28472 0
M  V30 2157 O 201.167 -1.07971 1.57311 0
M  V30 2158 C 198.307 -1.55524 3.08069 0
M  V30 2159 C 197.42 -0.961745 4.21158 0
M  V30 2160 C 196.555 -2.05149 4.89987 0
M  V30 2161 C 195.594 -1.4342 5.95061 0
M  V30 2162 N 194.731 -2.46351 6.57462 0
M  V30 2163 H 199.571 0.200976 2.97322 0
M  V30 2164 H 197.108 0.110944 1.46681 0
M  V30 2165 H 199.066 -2.21437 3.53584 0
M  V30 2166 H 197.696 -2.16348 2.3957 0
M  V30 2167 H 196.748 -0.192048 3.79915 0
M  V30 2168 H 198.06 -0.470701 4.96574 0
M  V30 2169 H 197.214 -2.78819 5.38837 0
M  V30 2170 H 195.953 -2.57615 4.14109 0
M  V30 2171 H 194.958 -0.682774 5.45544 0
M  V30 2172 H 196.183 -0.917416 6.72875 0
M  V30 2173 H 194.129 -2.97975 5.8442 0
M  V30 2174 H 194.046 -2.02019 7.28508 0
M  V30 2175 H 195.314 -3.19633 7.10954 0
M  V30 2176 N 199.544 -1.57102 0.125237 0
M  V30 2177 C 200.96 -1.57915 -0.231322 0
M  V30 2178 C 201.16 -1.13833 -1.66266 0
M  V30 2179 O 200.216 -0.828581 -2.38518 0
M  V30 2180 C 201.529 -3.00699 0.00766489 0
M  V30 2181 C 203.077 -3.12947 -0.0577483 0
M  V30 2182 C 203.552 -4.57742 0.153626 0
M  V30 2183 N 205.043 -4.63092 0.0998073 0
M  V30 2184 C 205.778 -5.72905 0.238174 0
M  V30 2185 N 205.274 -6.91445 0.433057 0
M  V30 2186 N 207.067 -5.6182 0.177308 0
M  V30 2187 H 199.218 -1.84055 1.06007 0
M  V30 2188 H 201.481 -0.850905 0.417929 0
M  V30 2189 H 201.187 -3.3726 0.997431 0
M  V30 2190 H 201.061 -3.70236 -0.721452 0
M  V30 2191 H 203.448 -2.7624 -1.03804 0
M  V30 2192 H 203.529 -2.4594 0.70335 0
M  V30 2193 H 203.173 -4.95149 1.13092 0
M  V30 2194 H 203.103 -5.22848 -0.627534 0
M  V30 2195 H 205.594 -3.77871 -0.047051 0
M  V30 2196 H 205.907 -7.70985 0.529332 0
M  V30 2197 H 204.252 -6.93415 0.469109 0
M  V30 2198 H 207.443 -4.68093 0.0259748 0
M  V30 2199 H 207.616 -6.47357 0.288582 0
M  V30 2200 N 201.022 0.148545 -1.56898 0
M  V30 2201 C 201.97 1.20265 -1.99096 0
M  V30 2202 C 202.964 1.44559 -0.883123 0
M  V30 2203 O 204.17 1.4487 -1.0683 0
M  V30 2204 H 200.545 0.404786 -0.63376 0
M  V30 2205 H 202.516 0.82004 -2.86911 0
M  V30 2206 C 201.265 2.52886 -2.3863 0
M  V30 2207 H 200.588 2.35021 -3.23427 0
M  V30 2208 H 202.028 3.25274 -2.7198 0
M  V30 2209 C 200.487 3.13315 -1.23837 0
M  V30 2210 O 201.017 3.98077 -0.538268 0
M  V30 2211 N 199.223 2.72742 -1.00301 0
M  V30 2212 H 198.77 2.03912 -1.5741 0
M  V30 2213 H 198.728 3.13507 -0.236838 0
M  V30 2214 N 202.5 1.5196 0.417844 0
M  V30 2215 C 203.73 1.69181 1.18581 0
M  V30 2216 C 204.138 0.397104 1.84986 0
M  V30 2217 O 203.481 -0.636011 1.72339 0
M  V30 2218 C 203.543 2.76497 2.29759 0
M  V30 2219 C 203.207 4.18514 1.83563 0
M  V30 2220 C 204.204 5.02648 1.32821 0
M  V30 2221 C 201.889 4.64708 1.90661 0
M  V30 2222 C 203.883 6.31044 0.897894 0
M  V30 2223 C 201.57 5.93096 1.47241 0
M  V30 2224 C 202.568 6.76093 0.968891 0
M  V30 2225 O 202.256 8.02078 0.540924 0
M  V30 2226 H 201.988 0.570457 0.362705 0
M  V30 2227 H 204.542 1.99249 0.498885 0
M  V30 2228 H 202.772 2.41786 3.01789 0
M  V30 2229 H 204.461 2.82403 2.91553 0
M  V30 2230 H 205.227 4.68154 1.26716 0
M  V30 2231 H 201.106 4.00216 2.28797 0
M  V30 2232 H 204.65 6.95776 0.504192 0
M  V30 2233 H 200.547 6.271 1.53022 0
M  V30 2234 H 201.315 8.15794 0.66502 0
M  V30 2235 N 203.978 -0.674533 1.42435 0
M  V30 2236 C 204.941 -1.76986 1.45632 0
M  V30 2237 C 205.941 -1.5708 0.343871 0
M  V30 2238 O 207.131 -1.63367 0.604709 0
M  V30 2239 C 204.263 -3.15623 1.28822 0
M  V30 2240 H 205.456 -1.75539 2.43158 0
M  V30 2241 H 203.009 -0.884189 1.28887 0
M  V30 2242 H 203.744 -3.22696 0.322193 0
M  V30 2243 H 203.529 -3.31475 2.09444 0
M  V30 2244 H 205.019 -3.95537 1.33942 0
M  V30 2245 N 205.456 -1.28612 -0.910864 0
M  V30 2246 C 206.403 -1.12786 -2.01365 0
M  V30 2247 C 207.373 -0.024201 -1.66082 0
M  V30 2248 O 208.558 -0.189667 -1.89855 0
M  V30 2249 C 205.698 -0.798743 -3.35729 0
M  V30 2250 C 204.811 -1.98173 -3.83864 0
M  V30 2251 C 203.946 -1.59298 -5.06752 0
M  V30 2252 C 202.985 -2.74245 -5.47226 0
M  V30 2253 N 202.122 -2.35842 -6.61304 0
M  V30 2254 H 206.962 -2.07142 -2.14234 0
M  V30 2255 H 204.499 -1.03093 -1.0493 0
M  V30 2256 H 206.457 -0.588662 -4.13026 0
M  V30 2257 H 205.087 0.10789 -3.2262 0
M  V30 2258 H 204.139 -2.30386 -3.02699 0
M  V30 2259 H 205.451 -2.84343 -4.09818 0
M  V30 2260 H 204.605 -1.34513 -5.916 0
M  V30 2261 H 203.344 -0.702618 -4.82612 0
M  V30 2262 H 202.349 -2.99725 -4.60918 0
M  V30 2263 H 203.574 -3.63928 -5.73353 0
M  V30 2264 H 201.52 -1.49279 -6.38789 0
M  V30 2265 H 201.437 -3.15546 -6.86998 0
M  V30 2266 H 202.705 -2.14348 -7.4945 0
M  V30 2267 N 206.934 1.1197 -1.10907 0
M  V30 2268 C 207.897 2.16031 -0.765707 0
M  V30 2269 C 208.897 1.59393 0.212235 0
M  V30 2270 O 210.087 1.74196 -0.0115441 0
M  V30 2271 C 207.219 3.40632 -0.135053 0
M  V30 2272 H 208.412 2.47919 -1.68748 0
M  V30 2273 H 205.965 1.27061 -0.910226 0
M  V30 2274 H 206.7 3.14348 0.797218 0
M  V30 2275 H 206.485 3.8302 -0.838937 0
M  V30 2276 H 207.975 4.17505 0.0892469 0
M  V30 2277 N 208.412 0.89855 1.29475 0
M  V30 2278 C 209.658 0.524658 1.95896 0
M  V30 2279 C 209.991 -0.926468 1.70676 0
M  V30 2280 O 209.266 -1.65665 1.01908 0
M  V30 2281 C 209.549 0.81633 3.50725 0
M  V30 2282 C 209.402 2.31907 3.85408 0
M  V30 2283 C 210.721 0.302038 4.39062 0
M  V30 2284 H 207.84 0.19209 0.711527 0
M  V30 2285 H 210.482 1.12502 1.53112 0
M  V30 2286 H 208.632 0.305369 3.87298 0
M  V30 2287 H 210.304 2.89949 3.58786 0
M  V30 2288 H 208.547 2.78027 3.32992 0
M  V30 2289 H 209.218 2.47373 4.93468 0
M  V30 2290 H 211.694 0.739551 4.09475 0
M  V30 2291 H 210.57 0.535331 5.46283 0
M  V30 2292 H 210.831 -0.797216 4.34853 0
M  V30 2293 N 209.89 -1.43072 0.660911 0
M  V30 2294 C 210.8 -2.34585 -0.0264163 0
M  V30 2295 C 211.816 -1.54316 -0.803898 0
M  V30 2296 O 212.992 -1.86939 -0.749391 0
M  V30 2297 C 210.057 -3.32689 -0.975639 0
M  V30 2298 C 209.118 -4.2886 -0.194236 0
M  V30 2299 C 208.351 -5.22278 -1.09825 0
M  V30 2300 O 208.574 -5.20299 -2.33763 0
M  V30 2301 O 207.508 -5.99228 -0.566513 0
M  V30 2302 H 211.334 -2.94869 0.727034 0
M  V30 2303 H 208.919 -1.43342 0.42111 0
M  V30 2304 H 210.801 -3.92995 -1.52094 0
M  V30 2305 H 209.476 -2.74898 -1.70918 0
M  V30 2306 H 208.383 -3.72011 0.394835 0
M  V30 2307 H 209.716 -4.89655 0.499899 0
M  V30 2308 N 211.368 -0.403325 -1.52352 0
M  V30 2309 C 212.298 0.416205 -2.29761 0
M  V30 2310 C 213.279 1.05123 -1.33728 0
M  V30 2311 O 214.464 1.06134 -1.62632 0
M  V30 2312 C 211.594 1.53624 -3.11475 0
M  V30 2313 C 210.548 1.02653 -4.15507 0
M  V30 2314 C 209.874 2.23971 -4.85532 0
M  V30 2315 C 211.174 0.08463 -5.22231 0
M  V30 2316 H 212.868 -0.229701 -2.98518 0
M  V30 2317 H 210.414 -0.111913 -1.43564 0
M  V30 2318 H 212.367 2.1165 -3.64393 0
M  V30 2319 H 211.091 2.20994 -2.40477 0
M  V30 2320 H 209.75 0.46871 -3.63591 0
M  V30 2321 H 209.398 2.89883 -4.11068 0
M  V30 2322 H 209.098 1.90521 -5.55856 0
M  V30 2323 H 210.622 2.82614 -5.41259 0
M  V30 2324 H 212.036 0.573509 -5.70424 0
M  V30 2325 H 210.433 -0.160783 -5.99885 0
M  V30 2326 H 211.503 -0.86237 -4.7717 0
M  V30 2327 N 212.846 1.57033 -0.133567 0
M  V30 2328 C 213.776 2.1909 0.807567 0
M  V30 2329 C 214.757 1.13517 1.26681 0
M  V30 2330 O 215.942 1.41809 1.32679 0
M  V30 2331 C 213.072 2.80188 2.05212 0
M  V30 2332 C 212.026 3.91471 1.73015 0
M  V30 2333 C 211.352 4.39443 3.04622 0
M  V30 2334 C 212.652 5.12886 0.987168 0
M  V30 2335 H 214.346 2.97988 0.290403 0
M  V30 2336 H 211.892 1.43335 0.138239 0
M  V30 2337 H 213.845 3.22264 2.71521 0
M  V30 2338 H 212.569 1.98601 2.59278 0
M  V30 2339 H 211.228 3.49993 1.0909 0
M  V30 2340 H 210.876 3.54695 3.56651 0
M  V30 2341 H 210.576 5.14495 2.83847 0
M  V30 2342 H 212.1 4.8418 3.72024 0
M  V30 2343 H 213.514 5.51891 1.55208 0
M  V30 2344 H 211.911 5.93615 0.87985 0
M  V30 2345 H 212.981 4.84894 -0.0235286 0
M  V30 2346 N 214.325 -0.140222 1.56975 0
M  V30 2347 C 215.571 -0.852949 1.83991 0
M  V30 2348 C 215.904 -1.80512 0.716187 0
M  V30 2349 O 215.179 -1.92479 -0.279681 0
M  V30 2350 C 215.462 -1.6215 3.21527 0
M  V30 2351 C 215.315 -0.690363 4.4447 0
M  V30 2352 C 216.634 -2.58247 3.56366 0
M  V30 2353 H 213.753 -0.308634 0.669264 0
M  V30 2354 H 216.395 -0.117898 1.89634 0
M  V30 2355 H 214.545 -2.24812 3.16847 0
M  V30 2356 H 216.217 -0.0742264 4.6124 0
M  V30 2357 H 214.46 -0.000396433 4.338 0
M  V30 2358 H 215.131 -1.2643 5.37326 0
M  V30 2359 H 217.607 -2.05701 3.61699 0
M  V30 2360 H 216.483 -3.09067 4.53617 0
M  V30 2361 H 216.744 -3.39923 2.82674 0
M  V30 2362 N 215.803 -1.52179 -0.40978 0
M  V30 2363 C 216.713 -1.78364 -1.52392 0
M  V30 2364 C 217.729 -0.669183 -1.60617 0
M  V30 2365 O 218.905 -0.954518 -1.77344 0
M  V30 2366 C 215.97 -1.92822 -2.88133 0
M  V30 2367 C 215.031 -3.16725 -2.898 0
M  V30 2368 C 214.264 -3.30483 -4.19067 0
M  V30 2369 O 214.487 -2.49522 -5.12928 0
M  V30 2370 O 213.421 -4.2363 -4.27576 0
M  V30 2371 H 217.247 -2.72931 -1.33201 0
M  V30 2372 H 214.832 -1.37016 -0.59557 0
M  V30 2373 H 216.714 -2.04157 -3.68643 0
M  V30 2374 H 215.389 -1.01444 -3.07393 0
M  V30 2375 H 214.296 -3.10848 -2.08146 0
M  V30 2376 H 215.629 -4.07881 -2.75489 0
M  V30 2377 N 217.281 0.66697 -1.42791 0
M  V30 2378 C 218.211 1.79218 -1.49677 0
M  V30 2379 C 219.192 1.66405 -0.352623 0
M  V30 2380 O 220.377 1.85708 -0.567993 0
M  V30 2381 C 217.507 3.17565 -1.40605 0
M  V30 2382 C 216.461 3.45124 -2.53127 0
M  V30 2383 C 215.787 4.83127 -2.29112 0
M  V30 2384 C 217.087 3.41236 -3.95418 0
M  V30 2385 H 218.781 1.73713 -2.43853 0
M  V30 2386 H 216.327 0.83432 -1.17367 0
M  V30 2387 H 218.28 3.96022 -1.44029 0
M  V30 2388 H 217.004 3.23767 -0.429271 0
M  V30 2389 H 215.663 2.69031 -2.49034 0
M  V30 2390 H 215.311 4.85988 -1.29709 0
M  V30 2391 H 215.011 5.02528 -3.04531 0
M  V30 2392 H 216.535 5.63859 -2.34297 0
M  V30 2393 H 217.949 4.09651 -4.01073 0
M  V30 2394 H 216.346 3.72173 -4.70752 0
M  V30 2395 H 217.416 2.39665 -4.21532 0
M  V30 2396 N 218.759 1.29093 0.90403 0
M  V30 2397 C 219.722 1.1386 1.98919 0
M  V30 2398 C 220.722 0.0753457 1.60623 0
M  V30 2399 O 221.912 0.321931 1.71199 0
M  V30 2400 C 219.044 0.740198 3.32767 0
M  V30 2401 H 220.237 2.10246 2.13861 0
M  V30 2402 H 217.79 1.12218 1.08797 0
M  V30 2403 H 218.525 -0.223997 3.23525 0
M  V30 2404 H 218.31 1.50838 3.61926 0
M  V30 2405 H 219.8 0.656546 4.12407 0
M  V30 2406 N 220.237 -1.11381 1.11499 0
M  V30 2407 C 221.462 -1.87475 0.887019 0
M  V30 2408 C 221.887 -1.79639 -0.557796 0
M  V30 2409 O 221.245 -1.15924 -1.39396 0
M  V30 2410 C 221.293 -3.34213 1.35403 0
M  V30 2411 O 220.397 -4.0903 0.526146 0
M  V30 2412 H 219.738 -0.582099 0.319463 0
M  V30 2413 H 222.268 -1.40785 1.48461 0
M  V30 2414 H 222.278 -3.8506 1.34881 0
M  V30 2415 H 220.953 -3.39232 2.40612 0
M  V30 2416 H 219.53 -3.68082 0.597522 0
M  V30 2417 N 221.715 -0.905404 -1.28997 0
M  V30 2418 C 222.645 -0.404212 -2.29975 0
M  V30 2419 C 223.626 0.523784 -1.61835 0
M  V30 2420 O 224.811 0.433298 -1.89304 0
M  V30 2421 C 221.941 0.364042 -3.45387 0
M  V30 2422 C 220.895 -0.474048 -4.25367 0
M  V30 2423 C 220.221 0.422045 -5.33032 0
M  V30 2424 C 221.521 -1.72696 -4.92923 0
M  V30 2425 H 223.215 -1.24807 -2.72146 0
M  V30 2426 H 220.761 -0.601585 -1.30832 0
M  V30 2427 H 222.714 0.725447 -4.15109 0
M  V30 2428 H 221.438 1.24174 -3.02074 0
M  V30 2429 H 220.097 -0.81786 -3.57361 0
M  V30 2430 H 219.745 1.29804 -4.85963 0
M  V30 2431 H 219.445 -0.135057 -5.87445 0
M  V30 2432 H 220.969 0.779517 -6.05604 0
M  V30 2433 H 222.383 -1.43495 -5.55051 0
M  V30 2434 H 220.78 -2.22582 -5.57295 0
M  V30 2435 H 221.85 -2.45964 -4.17887 0
M  V30 2436 N 223.193 1.4272 -0.668489 0
M  V30 2437 C 224.125 2.2914 0.052613 0
M  V30 2438 C 225.138 1.43339 0.771857 0
M  V30 2439 O 226.327 1.67123 0.627067 0
M  V30 2440 C 223.427 3.20618 1.09804 0
M  V30 2441 C 222.6 4.35039 0.45389 0
M  V30 2442 C 221.659 5.07282 1.39825 0
M  V30 2443 O 220.685 5.62024 0.900978 0
M  V30 2444 N 221.887 5.12206 2.73176 0
M  V30 2445 H 224.652 2.91668 -0.689209 0
M  V30 2446 H 222.213 1.53577 -0.512422 0
M  V30 2447 H 224.205 3.65815 1.73094 0
M  V30 2448 H 222.775 2.59585 1.74167 0
M  V30 2449 H 221.995 3.92567 -0.358396 0
M  V30 2450 H 223.283 5.088 0.00486972 0
M  V30 2451 H 222.681 4.6913 3.16122 0
M  V30 2452 H 221.238 5.61069 3.31729 0
M  V30 2453 N 224.671 0.411399 1.52136 0
M  V30 2454 C 225.899 -0.163076 2.06256 0
M  V30 2455 C 226.314 -1.3867 1.28125 0
M  V30 2456 O 225.671 -1.79423 0.333721 0
M  V30 2457 C 225.722 -0.511252 3.57867 0
M  V30 2458 O 225.443 0.66378 4.33042 0
M  V30 2459 C 226.944 -1.13921 4.28412 0
M  V30 2460 H 224.164 -0.0193897 0.67072 0
M  V30 2461 H 226.708 0.583007 1.96013 0
M  V30 2462 H 224.863 -1.20723 3.6811 0
M  V30 2463 H 225.277 0.372601 5.23175 0
M  V30 2464 H 226.751 -1.33302 5.35663 0
M  V30 2465 H 227.228 -2.11296 3.85033 0
M  V30 2466 H 227.834 -0.483373 4.22544 0
M  V30 2467 N 226.149 -1.5696 0.141893 0
M  V30 2468 C 227.374 -2.00754 -0.520838 0
M  V30 2469 C 227.799 -1.0213 -1.57959 0
M  V30 2470 O 227.157 0.00371324 -1.813 0
M  V30 2471 C 227.205 -3.43318 -1.10294 0
M  V30 2472 O 226.309 -3.47679 -2.21795 0
M  V30 2473 H 225.65 -0.651564 -0.127908 0
M  V30 2474 H 228.18 -2.03221 0.23712 0
M  V30 2475 H 228.19 -3.82012 -1.43287 0
M  V30 2476 H 226.865 -4.14608 -0.327574 0
M  V30 2477 H 225.442 -3.20824 -1.9007 0
M  V30 2478 N 227.627 0.131896 -1.57047 0
M  V30 2479 C 228.874 0.841932 -1.84168 0
M  V30 2480 C 229.202 1.8048 -0.725066 0
M  V30 2481 O 228.457 1.93618 0.284692 0
M  V30 2482 C 228.756 1.63703 -3.17704 0
M  V30 2483 C 228.422 0.81961 -4.43388 0
M  V30 2484 C 227.084 0.594148 -4.77518 0
M  V30 2485 C 229.436 0.248977 -5.20605 0
M  V30 2486 C 226.764 -0.212409 -5.86315 0
M  V30 2487 C 229.116 -0.544701 -6.30251 0
M  V30 2488 C 227.78 -0.780599 -6.6292 0
M  V30 2489 H 227.05 0.308085 -0.673917 0
M  V30 2490 H 229.697 0.104867 -1.91213 0
M  V30 2491 H 228.002 2.44464 -3.06177 0
M  V30 2492 H 229.699 2.19015 -3.35907 0
M  V30 2493 H 226.289 1.00542 -4.16641 0
M  V30 2494 H 230.473 0.410408 -4.946 0
M  V30 2495 H 225.729 -0.404524 -6.1006 0
M  V30 2496 H 229.903 -0.993922 -6.89271 0
M  V30 2497 H 227.53 -1.40742 -7.47058 0
M  V30 2498 N 229.106 1.52395 0.401703 0
M  V30 2499 C 230.352 1.67065 1.14966 0
M  V30 2500 C 230.685 0.403052 1.89971 0
M  V30 2501 O 229.96 -0.598774 1.85054 0
M  V30 2502 C 230.243 2.8975 2.13815 0
M  V30 2503 C 230.096 4.26578 1.42658 0
M  V30 2504 C 231.415 3.07965 3.14397 0
M  V30 2505 H 228.534 0.607968 0.416587 0
M  V30 2506 H 231.176 1.84965 0.434511 0
M  V30 2507 H 229.326 2.74619 2.74803 0
M  V30 2508 H 230.998 4.53451 0.847329 0
M  V30 2509 H 229.241 4.27639 0.72849 0
M  V30 2510 H 229.912 5.08483 2.14823 0
M  V30 2511 H 232.388 3.22043 2.63491 0
M  V30 2512 H 231.264 3.95308 3.80819 0
M  V30 2513 H 231.525 2.21611 3.82545 0
M  V30 2514 N 230.584 -0.659388 1.43143 0
M  V30 2515 C 231.812 -1.44723 1.47861 0
M  V30 2516 C 232.227 -1.88563 0.0945886 0
M  V30 2517 O 231.584 -1.59108 -0.893915 0
M  V30 2518 C 231.635 -2.68627 2.41913 0
M  V30 2519 O 231.356 -2.26623 3.74932 0
M  V30 2520 C 232.857 -3.62045 2.55809 0
M  V30 2521 H 230.077 -0.444801 0.502387 0
M  V30 2522 H 232.621 -0.808916 1.87821 0
M  V30 2523 H 230.776 -3.28613 2.05164 0
M  V30 2524 H 231.19 -3.06745 4.2545 0
M  V30 2525 H 232.664 -4.45666 3.25708 0
M  V30 2526 H 233.141 -4.08981 1.60099 0
M  V30 2527 H 233.747 -3.07944 2.93344 0
M  V30 2528 N 232.062 -1.29571 -0.897171 0
M  V30 2529 C 232.992 -1.17473 -2.01798 0
M  V30 2530 C 233.973 -0.068323 -1.69963 0
M  V30 2531 O 235.158 -0.248239 -1.92607 0
M  V30 2532 C 232.288 -0.853099 -3.36659 0
M  V30 2533 C 231.242 -1.9161 -3.82713 0
M  V30 2534 C 230.568 -1.44773 -5.14728 0
M  V30 2535 C 231.868 -3.32535 -4.02763 0
M  V30 2536 H 233.562 -2.11237 -2.12177 0
M  V30 2537 H 231.108 -1.01699 -1.01948 0
M  V30 2538 H 233.061 -0.755165 -4.14578 0
M  V30 2539 H 231.785 0.120236 -3.26379 0
M  V30 2540 H 230.444 -2.00346 -3.07013 0
M  V30 2541 H 230.092 -0.462995 -5.00865 0
M  V30 2542 H 229.792 -2.15865 -5.46513 0
M  V30 2543 H 231.316 -1.36334 -5.95185 0
M  V30 2544 H 232.73 -3.26626 -4.71156 0
M  V30 2545 H 231.127 -4.01607 -4.45905 0
M  V30 2546 H 232.197 -3.75326 -3.07016 0
M  V30 2547 N 233.54 1.10788 -1.12088 0
M  V30 2548 C 234.817 1.79136 -0.785476 0
M  V30 2549 C 235.197 1.98246 0.725377 0
M  V30 2550 O 234.545 1.57258 1.65778 0
M  V30 2551 C 234.755 3.12375 -1.55636 0
M  V30 2552 C 236.103 3.8731 -1.74001 0
M  V30 2553 O 237.127 3.22085 -1.52117 0
M  V30 2554 O 235.986 5.04369 -2.10415 0
M  V30 2555 H 233.08 0.776226 -0.285311 0
M  V30 2556 H 235.626 1.1747 -1.2247 0
M  V30 2557 H 234.398 2.93863 -2.5838 0
M  V30 2558 H 234.021 3.81758 -1.11114 0
M  V30 2559 N 235.018 0.912232 1.28515 0
M  V30 2560 C 235.928 0.404506 2.31086 0
M  V30 2561 C 236.944 -0.50707 1.66448 0
M  V30 2562 O 238.12 -0.393624 1.97516 0
M  V30 2563 C 235.185 -0.348572 3.44943 0
M  V30 2564 C 234.246 0.59604 4.25142 0
M  V30 2565 C 233.479 -0.121194 5.33562 0
M  V30 2566 O 233.702 -1.34317 5.5436 0
M  V30 2567 O 232.636 0.542716 5.99448 0
M  V30 2568 H 236.462 1.25579 2.76521 0
M  V30 2569 H 234.047 0.676998 1.33181 0
M  V30 2570 H 235.929 -0.77395 4.14232 0
M  V30 2571 H 234.604 -1.17571 3.01594 0
M  V30 2572 H 233.511 1.07079 3.58448 0
M  V30 2573 H 234.844 1.38995 4.72167 0
M  V30 2574 N 236.496 -1.42363 0.676048 0
M  V30 2575 C 237.459 -2.29199 0.00766941 0
M  V30 2576 C 238.459 -1.43389 -0.727745 0
M  V30 2577 O 239.649 -1.64764 -0.56556 0
M  V30 2578 C 236.781 -3.2591 -0.999785 0
M  V30 2579 H 237.974 -2.89794 0.771988 0
M  V30 2580 H 235.527 -1.50024 0.438468 0
M  V30 2581 H 236.262 -2.70256 -1.79255 0
M  V30 2582 H 236.047 -3.89202 -0.475829 0
M  V30 2583 H 237.537 -3.91028 -1.46583 0
M  V30 2584 N 237.974 -0.419461 -1.51915 0
M  V30 2585 C 239.223 0.154346 -2.01109 0
M  V30 2586 C 239.536 1.45338 -1.30905 0
M  V30 2587 O 240.742 2.10906 -1.7097 0
M  V30 2588 C 239.198 0.325615 -3.58424 0
M  V30 2589 C 238.806 -0.961934 -4.37551 0
M  V30 2590 C 240.55 0.854155 -4.15818 0
M  V30 2591 C 238.457 -0.757287 -5.86531 0
M  V30 2592 H 237.387 0.0614563 -0.751491 0
M  V30 2593 H 240.038 -0.54649 -1.75173 0
M  V30 2594 H 238.42 1.08903 -3.80731 0
M  V30 2595 H 239.594 -1.7323 -4.26999 0
M  V30 2596 H 237.909 -1.41766 -3.91524 0
M  V30 2597 H 240.506 1.02346 -5.24814 0
M  V30 2598 H 240.849 1.83172 -3.73837 0
M  V30 2599 H 241.382 0.149528 -3.97519 0
M  V30 2600 H 238.121 -1.70671 -6.32892 0
M  V30 2601 H 237.641 -0.0264061 -5.99794 0
M  V30 2602 H 239.32 -0.403482 -6.45741 0
M  V30 2603 N 239.452 1.56882 -0.150215 0
M  V30 2604 C 240.399 2.16922 0.788244 0
M  V30 2605 C 241.369 1.10303 1.24187 0
M  V30 2606 O 242.554 1.38359 1.31383 0
M  V30 2607 C 239.694 2.79754 2.02068 0
M  V30 2608 C 238.807 4.00775 1.61257 0
M  V30 2609 C 237.942 4.51595 2.79705 0
M  V30 2610 C 236.981 5.65074 2.35282 0
M  V30 2611 N 236.118 6.10499 3.4675 0
M  V30 2612 H 240.958 2.96779 0.269444 0
M  V30 2613 H 238.495 1.46599 0.12128 0
M  V30 2614 H 240.453 3.14329 2.74323 0
M  V30 2615 H 239.083 2.02536 2.51354 0
M  V30 2616 H 238.135 3.72158 0.787553 0
M  V30 2617 H 239.447 4.82978 1.24633 0
M  V30 2618 H 238.601 4.88242 3.60145 0
M  V30 2619 H 237.34 3.68406 3.19576 0
M  V30 2620 H 236.345 5.28 1.53283 0
M  V30 2621 H 237.57 6.50052 1.96493 0
M  V30 2622 H 235.516 5.30243 3.86236 0
M  V30 2623 H 235.433 6.87637 3.14152 0
M  V30 2624 H 236.701 6.51791 4.27537 0
M  V30 2625 N 240.93 -0.123565 1.57115 0
M  V30 2626 C 242.179 -0.830704 1.83799 0
M  V30 2627 C 242.492 -1.81259 0.735158 0
M  V30 2628 O 243.698 -2.56558 0.888278 0
M  V30 2629 C 242.154 -1.52802 3.25852 0
M  V30 2630 C 241.762 -0.587356 4.44133 0
M  V30 2631 C 243.506 -2.22056 3.61789 0
M  V30 2632 C 241.413 -1.28764 5.77212 0
M  V30 2633 H 240.343 -0.313967 0.685522 0
M  V30 2634 H 242.994 -0.0834359 1.8331 0
M  V30 2635 H 241.376 -2.32175 3.20797 0
M  V30 2636 H 242.55 0.172829 4.60476 0
M  V30 2637 H 240.865 -0.00201892 4.164 0
M  V30 2638 H 243.462 -2.75131 4.58483 0
M  V30 2639 H 243.805 -2.99644 2.88997 0
M  V30 2640 H 244.338 -1.49576 3.68608 0
M  V30 2641 H 241.077 -0.55314 6.53162 0
M  V30 2642 H 240.597 -2.01995 5.64764 0
M  V30 2643 H 242.276 -1.8221 6.20813 0
M  V30 2644 N 242.408 -1.52605 -0.393616 0
M  V30 2645 C 243.636 -1.71294 -1.16043 0
M  V30 2646 C 244.051 -0.429259 -1.83855 0
M  V30 2647 O 243.408 0.595921 -1.72496 0
M  V30 2648 C 243.459 -2.8593 -2.21193 0
M  V30 2649 O 243.18 -4.09329 -1.56146 0
M  V30 2650 C 244.681 -3.16259 -3.10636 0
M  V30 2651 H 241.901 -0.573641 -0.348104 0
M  V30 2652 H 244.445 -1.99234 -0.461092 0
M  V30 2653 H 242.6 -2.60465 -2.86769 0
M  V30 2654 H 243.014 -4.73323 -2.25978 0
M  V30 2655 H 244.488 -3.99946 -3.80456 0
M  V30 2656 H 244.965 -2.3045 -3.73884 0
M  V30 2657 H 245.571 -3.43547 -2.50711 0
M  V30 2658 N 243.887 0.651787 -1.4349 0
M  V30 2659 C 244.835 1.78586 -1.49029 0
M  V30 2660 C 245.829 1.65448 -0.363767 0
M  V30 2661 O 247.035 1.71777 -0.537821 0
M  V30 2662 H 243.41 0.589236 -0.467231 0
M  V30 2663 H 245.381 1.71035 -2.44519 0
M  V30 2664 C 244.13 3.16851 -1.43181 0
M  V30 2665 H 243.453 3.27598 -2.29171 0
M  V30 2666 H 244.893 3.96156 -1.51118 0
M  V30 2667 C 243.352 3.36568 -0.149616 0
M  V30 2668 O 243.882 3.93885 0.788509 0
M  V30 2669 N 242.088 2.90539 -0.0593484 0
M  V30 2670 H 241.635 2.4408 -0.823575 0
M  V30 2671 H 241.593 3.04108 0.797853 0
M  V30 2672 N 245.365 1.30045 0.890287 0
M  V30 2673 C 246.781 1.08261 1.17268 0
M  V30 2674 C 246.981 -0.160063 2.00863 0
M  V30 2675 O 246.037 -0.855181 2.37577 0
M  V30 2676 C 247.35 2.34323 1.8845 0
M  V30 2677 C 248.898 2.39735 2.01237 0
M  V30 2678 C 249.373 3.65625 2.7583 0
M  V30 2679 N 250.864 3.66402 2.83379 0
M  V30 2680 C 251.599 4.60498 3.41657 0
M  V30 2681 N 251.095 5.64933 4.01026 0
M  V30 2682 N 252.888 4.48051 3.39421 0
M  V30 2683 H 245.039 2.09777 0.332762 0
M  V30 2684 H 247.302 0.92446 0.209948 0
M  V30 2685 H 247.008 3.2498 1.34465 0
M  V30 2686 H 246.882 2.4256 2.88867 0
M  V30 2687 H 249.269 1.4956 2.54393 0
M  V30 2688 H 249.35 2.35476 0.999232 0
M  V30 2689 H 248.994 4.56156 2.23347 0
M  V30 2690 H 248.924 3.67144 3.77509 0
M  V30 2691 H 251.415 2.90896 2.41222 0
M  V30 2692 H 251.728 6.32841 4.43545 0
M  V30 2693 H 250.073 5.68732 3.99461 0
M  V30 2694 H 253.264 3.65649 2.92264 0
M  V30 2695 H 253.437 5.21565 3.84544 0
M  V30 2696 N 246.843 -1.10192 1.12674 0
M  V30 2697 C 248.259 -1.34235 0.863317 0
M  V30 2698 C 248.459 -1.95062 -0.505277 0
M  V30 2699 O 247.515 -2.19192 -1.25345 0
M  V30 2700 C 248.828 -2.2616 1.98172 0
M  V30 2701 C 250.376 -2.3969 2.0129 0
M  V30 2702 C 250.851 -3.34946 3.1237 0
M  V30 2703 N 252.342 -3.42515 3.11829 0
M  V30 2704 C 253.077 -4.16199 3.94419 0
M  V30 2705 N 252.573 -4.92747 4.87004 0
M  V30 2706 N 254.366 -4.11843 3.82547 0
M  V30 2707 H 246.517 -0.690798 2.00853 0
M  V30 2708 H 248.78 -0.366774 0.874174 0
M  V30 2709 H 248.486 -1.8868 2.96804 0
M  V30 2710 H 248.36 -3.26488 1.88906 0
M  V30 2711 H 250.747 -2.76438 1.03276 0
M  V30 2712 H 250.828 -1.39169 2.14629 0
M  V30 2713 H 250.472 -2.98923 4.10619 0
M  V30 2714 H 250.402 -4.35353 2.96269 0
M  V30 2715 H 252.893 -2.87926 2.44759 0
M  V30 2716 H 253.206 -5.46376 5.46528 0
M  V30 2717 H 251.551 -4.91862 4.91016 0
M  V30 2718 H 254.742 -3.51136 3.0955 0
M  V30 2719 H 254.915 -4.69007 4.47142 0
M  V30 2720 N 248.321 -0.919034 -1.28029 0
M  V30 2721 C 249.567 -0.555757 -1.95036 0
M  V30 2722 C 249.9 0.899198 -1.72128 0
M  V30 2723 O 249.175 1.64023 -1.04531 0
M  V30 2724 C 249.458 -0.872024 -3.49382 0
M  V30 2725 C 249.311 -2.3801 -3.81669 0
M  V30 2726 C 250.63 -0.37185 -4.38526 0
M  V30 2727 H 247.749 -0.203386 -0.708381 0
M  V30 2728 H 250.391 -1.14924 -1.51303 0
M  V30 2729 H 248.541 -0.366946 -3.86763 0
M  V30 2730 H 250.213 -2.9562 -3.54128 0
M  V30 2731 H 248.456 -2.83289 -3.28526 0
M  V30 2732 H 249.127 -2.55192 -4.8947 0
M  V30 2733 H 251.603 -0.804602 -4.08247 0
M  V30 2734 H 250.479 -0.622173 -5.45362 0
M  V30 2735 H 250.74 0.727934 -4.36066 0
M  V30 2736 N 249.799 1.42003 -0.683588 0
M  V30 2737 C 250.747 2.326 0.000815408 0
M  V30 2738 C 251.741 1.50308 0.781278 0
M  V30 2739 O 252.947 1.66322 0.688251 0
M  V30 2740 H 249.322 0.751758 0.0190616 0
M  V30 2741 H 251.293 2.88011 -0.780528 0
M  V30 2742 C 250.042 3.34978 0.93195 0
M  V30 2743 H 249.365 3.98345 0.340817 0
M  V30 2744 H 250.805 4.00936 1.37936 0
M  V30 2745 C 249.264 2.67925 2.04249 0
M  V30 2746 O 249.794 2.51788 3.12995 0
M  V30 2747 N 248 2.2681 1.81675 0
M  V30 2748 H 247.547 2.40135 0.932363 0
M  V30 2749 H 247.505 1.8228 2.56167 0
M  V30 2750 N 251.277 0.427512 1.51691 0
M  V30 2751 C 252.24 -0.377132 2.26076 0
M  V30 2752 C 253.24 -0.958089 1.29141 0
M  V30 2753 O 254.43 -0.83408 1.52934 0
M  V30 2754 C 251.562 -1.53262 3.04506 0
M  V30 2755 H 252.755 0.27464 2.9864 0
M  V30 2756 H 250.308 0.180445 1.55255 0
M  V30 2757 H 251.043 -2.22072 2.36335 0
M  V30 2758 H 250.828 -1.12232 3.75694 0
M  V30 2759 H 252.318 -2.10135 3.60878 0
M  V30 2760 N 252.755 -1.56801 0.158532 0
M  V30 2761 C 254.004 -1.95665 -0.489702 0
M  V30 2762 C 254.317 -1.04654 -1.65248 0
M  V30 2763 O 255.523 -1.33146 -2.3661 0
M  V30 2764 C 253.979 -3.47874 -0.922582 0
M  V30 2765 C 253.587 -4.47489 0.213893 0
M  V30 2766 C 255.331 -3.95583 -1.53996 0
M  V30 2767 C 253.238 -5.90921 -0.237903 0
M  V30 2768 H 252.168 -0.730516 -0.186716 0
M  V30 2769 H 254.819 -1.81861 0.244722 0
M  V30 2770 H 253.201 -3.57051 -1.71261 0
M  V30 2771 H 254.375 -4.50017 0.991036 0
M  V30 2772 H 252.69 -4.09764 0.740407 0
M  V30 2773 H 255.287 -5.0019 -1.8898 0
M  V30 2774 H 255.63 -3.37789 -2.43319 0
M  V30 2775 H 256.163 -3.8937 -0.814611 0
M  V30 2776 H 252.902 -6.52559 0.620236 0
M  V30 2777 H 252.422 -5.91729 -0.980676 0
M  V30 2778 H 254.101 -6.43352 -0.686067 0
M  V30 2779 N 254.233 0.115231 -1.57178 0
M  V30 2780 C 255.143 1.15994 -2.03918 0
M  V30 2781 C 256.159 1.45103 -0.960268 0
M  V30 2782 O 257.335 1.56144 -1.27204 0
M  V30 2783 C 254.4 2.46568 -2.43732 0
M  V30 2784 C 253.461 2.24822 -3.65723 0
M  V30 2785 C 252.694 3.4917 -4.03629 0
M  V30 2786 O 252.917 4.56623 -3.41835 0
M  V30 2787 O 251.851 3.39949 -4.96708 0
M  V30 2788 H 255.677 0.793019 -2.93164 0
M  V30 2789 H 253.262 0.3263 -1.45793 0
M  V30 2790 H 255.144 3.23492 -2.70057 0
M  V30 2791 H 253.819 2.82726 -1.57631 0
M  V30 2792 H 252.726 1.45744 -3.44542 0
M  V30 2793 H 254.059 1.93566 -4.52541 0
M  V30 2794 N 255.711 1.52812 0.385517 0
M  V30 2795 C 256.661 1.74219 1.47078 0
M  V30 2796 C 257.645 0.59632 1.49442 0
M  V30 2797 O 258.837 0.85428 1.5502 0
M  V30 2798 C 255.966 1.9176 2.84751 0
M  V30 2799 C 255.052 3.12289 2.86943 0
M  V30 2800 N 255.443 4.34575 2.58802 0
M  V30 2801 C 253.741 3.12605 3.1811 0
M  V30 2802 C 254.442 5.162 2.68166 0
M  V30 2803 N 253.418 4.51964 3.02043 0
M  V30 2804 H 257.22 2.6639 1.24152 0
M  V30 2805 H 254.734 1.51166 0.593504 0
M  V30 2806 H 256.731 2.05218 3.62893 0
M  V30 2807 H 255.391 1.00805 3.08656 0
M  V30 2808 H 256.402 4.62649 2.32759 0
M  V30 2809 H 253.079 2.31472 3.47458 0
M  V30 2810 H 254.469 6.23689 2.49923 0
M  V30 2811 N 257.189 -0.644168 1.43834 0
M  V30 2812 C 258.435 -1.40603 1.46146 0
M  V30 2813 C 258.768 -1.93997 0.0887717 0
M  V30 2814 O 258.043 -1.72854 -0.891724 0
M  V30 2815 C 258.326 -2.58086 2.51124 0
M  V30 2816 C 258.179 -2.10126 3.97702 0
M  V30 2817 C 259.498 -3.60291 2.52742 0
M  V30 2818 H 256.617 -0.509905 0.532134 0
M  V30 2819 H 259.259 -0.729502 1.75437 0
M  V30 2820 H 257.409 -3.15801 2.26278 0
M  V30 2821 H 259.081 -1.57342 4.33637 0
M  V30 2822 H 257.324 -1.41419 4.10101 0
M  V30 2823 H 257.995 -2.94649 4.66783 0
M  V30 2824 H 260.471 -3.12352 2.7491 0
M  V30 2825 H 259.347 -4.40032 3.28121 0
M  V30 2826 H 259.608 -4.1349 1.56455 0
M  V30 2827 N 258.668 -1.30515 -0.883378 0
M  V30 2828 C 259.917 -1.18795 -1.63005 0
M  V30 2829 C 260.23 0.255923 -1.93919 0
M  V30 2830 O 261.436 0.494654 -2.66956 0
M  V30 2831 C 259.892 -2.07878 -2.93794 0
M  V30 2832 C 259.5 -3.57184 -2.70414 0
M  V30 2833 C 261.244 -2.04924 -3.71761 0
M  V30 2834 C 259.151 -4.38317 -3.97029 0
M  V30 2835 H 258.081 -0.441031 -0.611562 0
M  V30 2836 H 260.732 -1.55275 -0.977854 0
M  V30 2837 H 259.114 -1.64283 -3.60315 0
M  V30 2838 H 260.288 -4.08937 -2.12384 0
M  V30 2839 H 258.603 -3.61976 -2.0582 0
M  V30 2840 H 261.2 -2.62792 -4.65665 0
M  V30 2841 H 261.543 -1.0331 -4.03277 0
M  V30 2842 H 262.076 -2.46649 -3.12104 0
M  V30 2843 H 258.815 -5.40632 -3.70671 0
M  V30 2844 H 258.335 -3.91326 -4.54559 0
M  V30 2845 H 260.014 -4.49834 -4.65036 0
M  V30 2846 N 260.146 1.09593 -1.13257 0
M  V30 2847 C 261.395 1.81105 -0.887917 0
M  V30 2848 C 261.708 1.86563 0.587672 0
M  V30 2849 O 262.914 2.54367 0.949204 0
M  V30 2850 C 261.37 3.25338 -1.53895 0
M  V30 2851 C 260.978 3.28151 -3.04994 0
M  V30 2852 C 262.722 4.01617 -1.37492 0
M  V30 2853 C 260.629 4.66897 -3.6299 0
M  V30 2854 H 259.559 0.678661 -0.328534 0
M  V30 2855 H 262.21 1.23183 -1.36008 0
M  V30 2856 H 260.592 3.8331 -0.994446 0
M  V30 2857 H 261.766 2.79953 -3.66009 0
M  V30 2858 H 260.081 2.65361 -3.20893 0
M  V30 2859 H 262.678 5.04119 -1.78235 0
M  V30 2860 H 263.021 4.15072 -0.31957 0
M  V30 2861 H 263.554 3.50082 -1.88912 0
M  V30 2862 H 260.293 4.58643 -4.68323 0
M  V30 2863 H 259.813 5.15426 -3.06752 0
M  V30 2864 H 261.492 5.3587 -3.62563 0
M  V30 2865 N 261.624 0.925811 1.2754 0
M  V30 2866 C 263.035 0.610102 1.7645 0
M  V30 2867 C 263.386 -0.874723 1.75622 0
M  V30 2868 O 262.511 -1.68444 1.35851 0
M  V30 2869 C 263.106 1.10073 3.20421 0
M  V30 2870 C 261.665 0.835723 3.67005 0
M  V30 2871 C 260.812 1.26054 2.46993 0
M  V30 2872 H 263.763 1.10579 1.13833 0
M  V30 2873 H 263.784 0.447557 3.77859 0
M  V30 2874 H 263.296 2.18143 3.20991 0
M  V30 2875 H 261.397 -0.231249 3.71882 0
M  V30 2876 H 261.51 1.45193 4.56569 0
M  V30 2877 H 259.874 0.679111 2.45479 0
M  V30 2878 H 260.657 2.34984 2.50275 0
M  V30 2879 N 263.102 -1.41638 0.69111 0
M  V30 2880 C 264.518 -1.55435 0.362224 0
M  V30 2881 C 264.718 -1.66754 -1.13117 0
M  V30 2882 O 263.774 -1.64348 -1.91692 0
M  V30 2883 C 265.087 -2.79588 1.10684 0
M  V30 2884 C 266.635 -2.9338 1.09075 0
M  V30 2885 C 267.11 -4.20414 1.81703 0
M  V30 2886 N 268.601 -4.27362 1.7865 0
M  V30 2887 C 269.336 -5.24507 2.31689 0
M  V30 2888 N 268.832 -6.27708 2.93179 0
M  V30 2889 N 270.625 -5.16416 2.2197 0
M  V30 2890 H 262.776 -1.32536 1.65976 0
M  V30 2891 H 265.039 -0.639115 0.700168 0
M  V30 2892 H 264.745 -2.77419 2.16175 0
M  V30 2893 H 264.619 -3.70973 0.682545 0
M  V30 2894 H 267.006 -2.95067 0.0441238 0
M  V30 2895 H 267.087 -2.0318 1.55407 0
M  V30 2896 H 266.731 -4.19488 2.86343 0
M  V30 2897 H 266.661 -5.09578 1.32808 0
M  V30 2898 H 269.152 -3.53415 1.33815 0
M  V30 2899 H 269.465 -6.98217 3.31229 0
M  V30 2900 H 267.81 -6.28223 2.97255 0
M  V30 2901 H 271.001 -4.34716 1.73607 0
M  V30 2902 H 271.174 -5.91958 2.63609 0
M  V30 2903 N 264.58 -0.43555 -1.51462 0
M  V30 2904 C 265.829 0.133007 -2.01261 0
M  V30 2905 C 266.142 1.43942 -1.32439 0
M  V30 2906 O 267.348 2.09081 -1.73198 0
M  V30 2907 C 265.804 0.287581 -3.58749 0
M  V30 2908 C 265.412 -1.00829 -4.36506 0
M  V30 2909 C 267.156 0.810004 -4.167 0
M  V30 2910 C 265.063 -0.819454 -5.85695 0
M  V30 2911 H 263.993 0.0534822 -0.752101 0
M  V30 2912 H 266.644 -0.565038 -1.74584 0
M  V30 2913 H 265.026 1.04859 -3.81865 0
M  V30 2914 H 266.2 -1.77749 -4.25138 0
M  V30 2915 H 264.515 -1.45911 -3.89999 0
M  V30 2916 H 267.112 0.967743 -5.2587 0
M  V30 2917 H 267.455 1.79196 -3.75758 0
M  V30 2918 H 267.988 0.107357 -3.97655 0
M  V30 2919 H 264.727 -1.77374 -6.31046 0
M  V30 2920 H 264.247 -0.0900208 -5.99732 0
M  V30 2921 H 265.926 -0.471949 -6.45276 0
M  V30 2922 N 266.058 1.56714 -0.166846 0
M  V30 2923 C 266.968 2.21331 0.777791 0
M  V30 2924 C 267.984 1.20358 1.25658 0
M  V30 2925 O 269.16 1.53005 1.30964 0
M  V30 2926 C 266.225 2.83787 1.99163 0
M  V30 2927 C 265.286 3.99947 1.56016 0
M  V30 2928 C 264.519 4.59415 2.71613 0
M  V30 2929 O 264.742 4.17769 3.88362 0
M  V30 2930 O 263.676 5.49359 2.45945 0
M  V30 2931 H 267.502 3.02605 0.257636 0
M  V30 2932 H 265.087 1.49275 0.0611393 0
M  V30 2933 H 266.969 3.23405 2.70161 0
M  V30 2934 H 265.644 2.05513 2.50092 0
M  V30 2935 H 264.551 3.65007 0.819809 0
M  V30 2936 H 265.884 4.79801 1.09782 0
M  V30 2937 N 267.536 -0.106894 1.57237 0
M  V30 2938 C 268.952 -0.46078 1.52804 0
M  V30 2939 C 269.152 -1.81184 0.881746 0
M  V30 2940 O 268.208 -2.48102 0.469224 0
M  V30 2941 C 269.521 -0.434127 2.9755 0
M  V30 2942 C 271.069 -0.516821 3.08704 0
M  V30 2943 C 271.544 -0.520436 4.55033 0
M  V30 2944 N 273.035 -0.58153 4.59535 0
M  V30 2945 C 273.77 -0.605973 5.70189 0
M  V30 2946 N 273.266 -0.587331 6.90306 0
M  V30 2947 N 275.059 -0.649895 5.5833 0
M  V30 2948 H 267.21 0.778203 1.9763 0
M  V30 2949 H 269.473 0.288403 0.903066 0
M  V30 2950 H 269.179 0.491197 3.48253 0
M  V30 2951 H 269.053 -1.25748 3.55622 0
M  V30 2952 H 271.44 -1.43256 2.57995 0
M  V30 2953 H 271.521 0.334449 2.53604 0
M  V30 2954 H 271.165 0.391313 5.0639 0
M  V30 2955 H 271.095 -1.38876 5.07958 0
M  V30 2956 H 273.586 -0.60161 3.73081 0
M  V30 2957 H 273.899 -0.60894 7.70397 0
M  V30 2958 H 272.244 -0.554564 6.92784 0
M  V30 2959 H 275.435 -0.661907 4.63397 0
M  V30 2960 H 275.608 -0.665476 6.44574 0
M  V30 2961 N 269.014 -1.53014 -0.377408 0
M  V30 2962 C 270.242 -1.72515 -1.14219 0
M  V30 2963 C 270.657 -0.448735 -1.8339 0
M  V30 2964 O 270.014 0.577592 -1.73119 0
M  V30 2965 C 270.065 -2.8826 -2.18148 0
M  V30 2966 O 269.786 -4.10962 -1.51795 0
M  V30 2967 C 271.287 -3.19536 -3.07264 0
M  V30 2968 H 268.507 -0.577301 -0.342001 0
M  V30 2969 H 271.051 -1.99712 -0.439935 0
M  V30 2970 H 269.206 -2.63492 -2.83991 0
M  V30 2971 H 269.62 -4.75693 -2.20945 0
M  V30 2972 H 271.094 -4.03959 -3.76193 0
M  V30 2973 H 271.571 -2.34403 -3.71419 0
M  V30 2974 H 272.177 -3.46186 -2.47053 0
M  V30 2975 N 270.492 0.636531 -1.44174 0
M  V30 2976 C 271.422 1.76003 -1.53444 0
M  V30 2977 C 272.403 1.65619 -0.387841 0
M  V30 2978 O 273.588 1.84461 -0.607257 0
M  V30 2979 C 270.718 3.14511 -1.4731 0
M  V30 2980 C 269.672 3.39677 -2.60391 0
M  V30 2981 C 268.998 4.78159 -2.39308 0
M  V30 2982 C 270.298 3.32772 -4.02567 0
M  V30 2983 H 271.992 1.68501 -2.47483 0
M  V30 2984 H 269.538 0.809237 -1.19111 0
M  V30 2985 H 271.491 3.92878 -1.52397 0
M  V30 2986 H 270.215 3.22783 -0.49785 0
M  V30 2987 H 268.874 2.63688 -2.54684 0
M  V30 2988 H 268.522 4.83128 -1.39988 0
M  V30 2989 H 268.222 4.95956 -3.15122 0
M  V30 2990 H 269.746 5.58762 -2.46205 0
M  V30 2991 H 271.16 4.01051 -4.09672 0
M  V30 2992 H 269.557 3.62104 -4.7854 0
M  V30 2993 H 270.627 2.30669 -4.2652 0
M  V30 2994 N 271.97 1.30982 0.876444 0
M  V30 2995 C 272.933 1.18054 1.96459 0
M  V30 2996 C 273.933 0.109399 1.60427 0
M  V30 2997 O 275.123 0.358173 1.70478 0
M  V30 2998 C 272.255 0.810616 3.31122 0
M  V30 2999 H 273.448 2.14735 2.09354 0
M  V30 3000 H 271.001 1.145 1.06392 0
M  V30 3001 H 271.736 -0.155322 3.23928 0
M  V30 3002 H 271.521 1.58481 3.58645 0
M  V30 3003 H 273.011 0.743876 4.10921 0
M  V30 3004 N 273.449 -1.08991 1.13837 0
M  V30 3005 C 274.679 -1.84743 0.924859 0
M  V30 3006 C 275.087 -1.81629 -0.529874 0
M  V30 3007 O 274.43 -1.21397 -1.37872 0
M  V30 3008 C 274.492 -3.33568 1.34061 0
M  V30 3009 C 274.156 -3.60425 2.80968 0
M  V30 3010 C 275.153 -3.55771 3.79108 0
M  V30 3011 C 272.838 -3.88627 3.18236 0
M  V30 3012 C 274.832 -3.78939 5.12527 0
M  V30 3013 C 272.519 -4.11449 4.51833 0
M  V30 3014 C 273.517 -4.06598 5.48787 0
M  V30 3015 O 273.205 -4.28826 6.79973 0
M  V30 3016 H 272.937 -0.590258 0.329502 0
M  V30 3017 H 275.491 -1.38598 1.51591 0
M  V30 3018 H 273.721 -3.80442 0.692853 0
M  V30 3019 H 275.41 -3.90743 1.09886 0
M  V30 3020 H 276.176 -3.34005 3.51661 0
M  V30 3021 H 272.055 -3.91526 2.43369 0
M  V30 3022 H 275.599 -3.75068 5.88192 0
M  V30 3023 H 271.496 -4.32698 4.79002 0
M  V30 3024 H 272.264 -4.46264 6.86142 0
M  V30 3025 N 274.927 -0.932562 -1.27047 0
M  V30 3026 C 276.176 -0.571351 -1.93439 0
M  V30 3027 C 276.489 0.892467 -1.74053 0
M  V30 3028 O 277.695 1.36267 -2.34826 0
M  V30 3029 C 276.151 -0.97106 -3.46552 0
M  V30 3030 C 275.759 -2.4559 -3.74686 0
M  V30 3031 C 277.503 -0.681333 -4.18997 0
M  V30 3032 C 275.41 -2.79475 -5.21198 0
M  V30 3033 H 274.34 -0.209966 -0.724176 0
M  V30 3034 H 276.991 -1.13403 -1.44263 0
M  V30 3035 H 275.373 -0.336983 -3.94564 0
M  V30 3036 H 276.547 -3.13829 -3.37414 0
M  V30 3037 H 274.862 -2.71802 -3.15456 0
M  V30 3038 H 277.459 -0.910939 -5.26883 0
M  V30 3039 H 277.802 0.381628 -4.14547 0
M  V30 3040 H 278.335 -1.27473 -3.76823 0
M  V30 3041 H 275.074 -3.847 -5.30741 0
M  V30 3042 H 274.594 -2.1589 -5.596 0
M  V30 3043 H 276.273 -2.67478 -5.89122 0
M  V30 3044 N 276.405 1.4127 -0.698611 0
M  V30 3045 C 277.654 2.00408 -0.227949 0
M  V30 3046 C 277.967 1.55981 1.18023 0
M  V30 3047 O 279.173 2.07699 1.74852 0
M  V30 3048 C 277.629 3.58129 -0.356636 0
M  V30 3049 C 277.237 4.11536 -1.77037 0
M  V30 3050 C 278.981 4.24466 0.0540969 0
M  V30 3051 C 276.888 5.61701 -1.85055 0
M  V30 3052 H 275.818 0.749586 -0.0814657 0
M  V30 3053 H 278.469 1.61713 -0.867249 0
M  V30 3054 H 276.851 3.94442 0.350965 0
M  V30 3055 H 278.025 3.86636 -2.50698 0
M  V30 3056 H 276.34 3.57736 -2.13105 0
M  V30 3057 H 278.937 5.34698 0.0146723 0
M  V30 3058 H 279.28 4.01687 1.09332 0
M  V30 3059 H 279.813 3.93198 -0.603337 0
M  V30 3060 H 276.552 5.89312 -2.8704 0
M  V30 3061 H 276.072 5.88519 -1.15783 0
M  V30 3062 H 277.751 6.26524 -1.61484 0
M  V30 3063 N 277.883 0.443576 1.51229 0
M  V30 3064 C 279.111 -0.11929 2.06556 0
M  V30 3065 C 279.526 -1.35921 1.31038 0
M  V30 3066 O 278.883 -1.78675 0.371704 0
M  V30 3067 C 278.934 -0.435228 3.5887 0
M  V30 3068 O 278.655 0.755486 4.31537 0
M  V30 3069 C 280.156 -1.04808 4.30732 0
M  V30 3070 H 277.376 -0.0051584 0.67098 0
M  V30 3071 H 279.92 0.624453 1.94733 0
M  V30 3072 H 278.075 -1.12887 3.70588 0
M  V30 3073 H 278.489 0.483491 5.22267 0
M  V30 3074 H 279.963 -1.2191 5.3837 0
M  V30 3075 H 280.44 -2.03081 3.89429 0
M  V30 3076 H 281.046 -0.393637 4.23474 0
M  V30 3077 N 279.361 -1.56624 0.175154 0
M  V30 3078 C 280.271 -2.21741 -0.766042 0
M  V30 3079 C 281.287 -1.21023 -1.25018 0
M  V30 3080 O 282.463 -1.53697 -1.3015 0
M  V30 3081 C 279.528 -2.84839 -1.97655 0
M  V30 3082 C 278.589 -4.00769 -1.53892 0
M  V30 3083 C 277.822 -4.60849 -2.69173 0
M  V30 3084 O 278.045 -4.19823 -3.86141 0
M  V30 3085 O 276.979 -5.50655 -2.43028 0
M  V30 3086 H 280.805 -3.02738 -0.241585 0
M  V30 3087 H 278.39 -1.49305 -0.053222 0
M  V30 3088 H 280.272 -3.24834 -2.68442 0
M  V30 3089 H 278.947 -2.06836 -2.48999 0
M  V30 3090 H 277.854 -3.65436 -0.80044 0
M  V30 3091 H 279.187 -4.80376 -1.07236 0
M  V30 3092 N 280.839 0.0985539 -1.57292 0
M  V30 3093 C 281.769 1.12064 -2.04851 0
M  V30 3094 C 282.75 1.41981 -0.936767 0
M  V30 3095 O 283.935 1.52071 -1.20781 0
M  V30 3096 C 281.065 2.44144 -2.47004 0
M  V30 3097 C 280.019 2.28643 -3.6181 0
M  V30 3098 C 279.345 3.65869 -3.89929 0
M  V30 3099 C 280.645 1.72986 -4.92822 0
M  V30 3100 H 282.339 0.724979 -2.9049 0
M  V30 3101 H 279.885 0.34729 -1.39749 0
M  V30 3102 H 281.838 3.15914 -2.78884 0
M  V30 3103 H 280.562 2.85639 -1.5836 0
M  V30 3104 H 279.221 1.59318 -3.30172 0
M  V30 3105 H 278.869 4.04885 -2.98458 0
M  V30 3106 H 278.569 3.56344 -4.67218 0
M  V30 3107 H 280.093 4.39112 -4.2428 0
M  V30 3108 H 281.507 2.34593 -5.23105 0
M  V30 3109 H 279.904 1.74229 -5.74251 0
M  V30 3110 H 280.974 0.689007 -4.7998 0
M  V30 3111 N 282.317 1.53212 0.369288 0
M  V30 3112 C 283.594 1.59815 1.12776 0
M  V30 3113 C 283.974 0.403402 2.0721 0
M  V30 3114 O 283.322 -0.606667 2.20299 0
M  V30 3115 C 283.532 2.94664 1.87013 0
M  V30 3116 C 284.88 3.49109 2.41677 0
M  V30 3117 O 285.904 2.96669 1.97144 0
M  V30 3118 O 284.763 4.40775 3.23079 0
M  V30 3119 H 281.857 0.645376 0.517125 0
M  V30 3120 H 284.403 1.65553 0.37285 0
M  V30 3121 H 283.175 3.73061 1.18071 0
M  V30 3122 H 282.798 2.92401 2.69421 0
M  V30 3123 N 283.795 -0.628877 1.44509 0
M  V30 3124 C 284.705 -1.7694 1.54044 0
M  V30 3125 C 285.721 -1.68705 0.425987 0
M  V30 3126 O 286.897 -1.89442 0.683656 0
M  V30 3127 C 283.962 -3.13332 1.48405 0
M  V30 3128 C 283.023 -3.33181 2.70719 0
M  V30 3129 C 282.256 -4.63067 2.6534 0
M  V30 3130 O 282.479 -5.44017 1.71469 0
M  V30 3131 O 281.413 -4.85167 3.56226 0
M  V30 3132 H 285.239 -1.71848 2.50403 0
M  V30 3133 H 282.824 -0.790378 1.26781 0
M  V30 3134 H 284.706 -3.94634 1.47791 0
M  V30 3135 H 283.381 -3.1896 0.551898 0
M  V30 3136 H 282.288 -2.51549 2.769 0
M  V30 3137 H 283.621 -3.32416 3.62988 0
M  V30 3138 N 285.273 -1.31445 -0.869486 0
M  V30 3139 C 286.689 -1.10113 -1.15531 0
M  V30 3140 C 286.889 0.128087 -2.01092 0
M  V30 3141 O 285.945 0.817276 -2.38908 0
M  V30 3142 C 287.258 -2.37291 -1.84698 0
M  V30 3143 C 288.806 -2.42906 -1.97397 0
M  V30 3144 C 289.281 -3.69967 -2.69979 0
M  V30 3145 N 290.772 -3.70864 -2.77514 0
M  V30 3146 C 291.507 -4.65875 -3.34287 0
M  V30 3147 N 291.003 -5.71242 -3.91988 0
M  V30 3148 N 292.796 -4.53394 -3.3225 0
M  V30 3149 H 284.947 -2.1028 -0.299347 0
M  V30 3150 H 287.21 -0.927683 -0.195214 0
M  V30 3151 H 286.916 -3.27078 -1.29278 0
M  V30 3152 H 286.79 -2.47125 -2.84972 0
M  V30 3153 H 289.177 -1.53588 -2.51982 0
M  V30 3154 H 289.258 -2.37036 -0.961643 0
M  V30 3155 H 288.902 -4.59652 -2.16062 0
M  V30 3156 H 288.832 -3.73103 -3.7162 0
M  V30 3157 H 291.323 -2.94697 -2.36563 0
M  V30 3158 H 291.636 -6.39817 -4.33421 0
M  V30 3159 H 289.981 -5.75015 -3.90362 0
M  V30 3160 H 293.172 -3.70252 -2.8641 0
M  V30 3161 H 293.345 -5.27617 -3.76197 0
M  V30 3162 N 286.751 1.08385 -1.14413 0
M  V30 3163 C 287.661 2.18856 -0.844951 0
M  V30 3164 C 288.677 1.73121 0.174668 0
M  V30 3165 O 289.853 2.014 0.00312857 0
M  V30 3166 C 286.918 3.45155 -0.32696 0
M  V30 3167 C 285.979 4.05513 -1.40916 0
M  V30 3168 C 285.212 5.25784 -0.915793 0
M  V30 3169 O 285.435 5.69884 0.242651 0
M  V30 3170 O 284.369 5.77545 -1.69487 0
M  V30 3171 H 288.195 2.46919 -1.76818 0
M  V30 3172 H 285.78 1.17524 -0.922411 0
M  V30 3173 H 287.662 4.21377 -0.0440211 0
M  V30 3174 H 286.337 3.18668 0.568539 0
M  V30 3175 H 285.244 3.30879 -1.74556 0
M  V30 3176 H 286.577 4.3625 -2.27919 0
M  V30 3177 N 288.23 0.939286 1.26551 0
M  V30 3178 C 289.646 0.641304 1.46149 0
M  V30 3179 C 289.846 -0.805964 1.84679 0
M  V30 3180 O 288.902 -1.58278 1.96734 0
M  V30 3181 C 290.215 1.6011 2.54529 0
M  V30 3182 C 291.763 1.6106 2.68382 0
M  V30 3183 C 292.238 2.55765 3.79932 0
M  V30 3184 N 293.729 2.5404 3.87322 0
M  V30 3185 C 294.464 3.24004 4.73085 0
M  V30 3186 N 293.96 4.03388 5.63249 0
M  V30 3187 N 295.753 3.12965 4.66914 0
M  V30 3188 H 287.904 1.87478 0.998285 0
M  V30 3189 H 290.167 0.805559 0.499779 0
M  V30 3190 H 289.873 2.63412 2.33039 0
M  V30 3191 H 289.747 1.35171 3.52149 0
M  V30 3192 H 292.134 0.584835 2.89247 0
M  V30 3193 H 292.215 1.90053 1.71212 0
M  V30 3194 H 291.859 3.58458 3.5982 0
M  V30 3195 H 291.789 2.24063 4.76554 0
M  V30 3196 H 294.28 1.96396 3.22858 0
M  V30 3197 H 294.593 4.5373 6.25579 0
M  V30 3198 H 292.938 4.07489 5.63008 0
M  V30 3199 H 296.129 2.50432 3.95476 0
M  V30 3200 H 296.302 3.67759 5.33533 0
M  V30 3201 N 289.708 -1.40897 0.706093 0
M  V30 3202 C 290.618 -2.3455 0.0482286 0
M  V30 3203 C 291.634 -1.56796 -0.754396 0
M  V30 3204 O 292.81 -1.89228 -0.689538 0
M  V30 3205 C 289.875 -3.35625 -0.869303 0
M  V30 3206 C 288.936 -4.29261 -0.0576994 0
M  V30 3207 C 288.169 -5.25508 -0.931531 0
M  V30 3208 O 288.392 -5.27472 -2.17092 0
M  V30 3209 O 287.326 -6.00727 -0.375587 0
M  V30 3210 H 291.152 -2.92407 0.820476 0
M  V30 3211 H 288.737 -1.4193 0.4665 0
M  V30 3212 H 290.619 -3.97635 -1.39514 0
M  V30 3213 H 289.294 -2.80196 -1.62086 0
M  V30 3214 H 288.201 -3.70566 0.512988 0
M  V30 3215 H 289.534 -4.87817 0.655426 0
M  V30 3216 N 291.186 -0.45159 -1.50991 0
M  V30 3217 C 292.096 0.358431 -2.31846 0
M  V30 3218 C 293.112 1.01438 -1.41373 0
M  V30 3219 O 294.288 1.00663 -1.74439 0
M  V30 3220 C 291.353 1.43704 -3.15515 0
M  V30 3221 C 290.414 0.799742 -4.21785 0
M  V30 3222 C 289.647 1.82696 -5.01456 0
M  V30 3223 O 289.87 3.05105 -4.81941 0
M  V30 3224 O 288.804 1.40958 -5.85162 0
M  V30 3225 H 292.63 -0.302032 -3.02194 0
M  V30 3226 H 290.215 -0.213825 -1.47862 0
M  V30 3227 H 292.097 2.06227 -3.67489 0
M  V30 3228 H 290.772 2.08133 -2.47916 0
M  V30 3229 H 289.679 0.136084 -3.73852 0
M  V30 3230 H 291.012 0.198718 -4.91799 0
M  V30 3231 N 292.664 1.56529 -0.183458 0
M  V30 3232 C 293.911 1.97244 0.458357 0
M  V30 3233 C 294.239 1.06992 1.62428 0
M  V30 3234 O 293.494 0.106542 1.9541 0
M  V30 3235 C 293.793 3.43939 0.971637 0
M  V30 3236 C 293.459 4.5083 -0.0796784 0
M  V30 3237 C 292.121 4.79786 -0.368584 0
M  V30 3238 C 294.473 5.15138 -0.792638 0
M  V30 3239 C 291.801 5.70345 -1.37563 0
M  V30 3240 C 294.153 6.06784 -1.78875 0
M  V30 3241 C 292.817 6.34102 -2.08497 0
M  V30 3242 H 292.087 0.721768 0.167725 0
M  V30 3243 H 294.734 1.89472 -0.277976 0
M  V30 3244 H 293.039 3.48724 1.78602 0
M  V30 3245 H 294.736 3.72791 1.47744 0
M  V30 3246 H 291.326 4.28317 0.155668 0
M  V30 3247 H 295.51 4.92868 -0.582659 0
M  V30 3248 H 290.766 5.89789 -1.61118 0
M  V30 3249 H 294.94 6.55677 -2.3465 0
M  V30 3250 H 292.567 7.04074 -2.86678 0
M  V30 3251 N 294.142 -0.090211 1.57342 0
M  V30 3252 C 295.372 -0.805055 1.90269 0
M  V30 3253 C 295.78 -1.72561 0.775842 0
M  V30 3254 O 295.123 -1.81839 -0.260843 0
M  V30 3255 C 295.185 -1.66734 3.18497 0
M  V30 3256 C 294.849 -0.918092 4.47683 0
M  V30 3257 C 295.846 -0.245674 5.19319 0
M  V30 3258 C 293.531 -0.890724 4.94339 0
M  V30 3259 C 295.525 0.444088 6.35851 0
M  V30 3260 C 293.212 -0.197179 6.10782 0
M  V30 3261 C 294.21 0.469044 6.81388 0
M  V30 3262 O 293.898 1.15146 7.95611 0
M  V30 3263 H 293.63 -0.235143 0.633785 0
M  V30 3264 H 296.184 -0.0703805 2.05279 0
M  V30 3265 H 294.414 -2.44437 2.99646 0
M  V30 3266 H 296.103 -2.25919 3.37217 0
M  V30 3267 H 296.869 -0.258246 4.84312 0
M  V30 3268 H 292.748 -1.39873 4.39268 0
M  V30 3269 H 296.292 0.964667 6.90898 0
M  V30 3270 H 292.189 -0.18247 6.45242 0
M  V30 3271 H 292.957 1.05885 8.11622 0
M  V30 3272 N 295.62 -1.53406 -0.361157 0
M  V30 3273 C 297.036 -1.43277 -0.703124 0
M  V30 3274 C 297.236 -0.575384 -1.9311 0
M  V30 3275 O 296.292 -0.0595362 -2.5243 0
M  V30 3276 C 297.605 -2.8653 -0.9122 0
M  V30 3277 C 299.153 -2.96191 -1.01193 0
M  V30 3278 C 299.628 -4.40514 -1.25345 0
M  V30 3279 N 301.119 -4.43962 -1.32105 0
M  V30 3280 C 301.854 -5.52746 -1.5251 0
M  V30 3281 N 301.35 -6.71567 -1.70203 0
M  V30 3282 N 303.143 -5.40331 -1.54916 0
M  V30 3283 H 295.294 -2.07654 0.446475 0
M  V30 3284 H 297.557 -0.937944 0.137715 0
M  V30 3285 H 297.263 -3.51605 -0.0816414 0
M  V30 3286 H 297.137 -3.30441 -1.81903 0
M  V30 3287 H 299.524 -2.31266 -1.83303 0
M  V30 3288 H 299.605 -2.55667 -0.0823929 0
M  V30 3289 H 299.249 -5.06014 -0.437346 0
M  V30 3290 H 299.179 -4.78614 -2.19627 0
M  V30 3291 H 301.67 -3.58332 -1.20028 0
M  V30 3292 H 301.983 -7.50241 -1.85359 0
M  V30 3293 H 300.328 -6.74545 -1.67373 0
M  V30 3294 H 303.519 -4.46465 -1.40663 0
M  V30 3295 H 303.692 -6.25173 -1.70477 0
M  V30 3296 N 297.098 0.621204 -1.44841 0
M  V30 3297 C 298.028 1.74366 -1.55303 0
M  V30 3298 C 299.009 1.65199 -0.405385 0
M  V30 3299 O 300.194 1.83807 -0.626787 0
M  V30 3300 C 297.324 3.12931 -1.50637 0
M  V30 3301 C 296.278 3.36896 -2.63979 0
M  V30 3302 C 295.604 4.75594 -2.44366 0
M  V30 3303 C 296.904 3.28483 -4.06074 0
M  V30 3304 H 298.598 1.65867 -2.49256 0
M  V30 3305 H 296.144 0.796558 -1.19962 0
M  V30 3306 H 298.097 3.9124 -1.56555 0
M  V30 3307 H 296.821 3.22237 -0.532057 0
M  V30 3308 H 295.48 2.60972 -2.57467 0
M  V30 3309 H 295.128 4.81616 -1.45105 0
M  V30 3310 H 294.828 4.92586 -3.20364 0
M  V30 3311 H 296.352 5.5612 -2.52117 0
M  V30 3312 H 297.766 3.96684 -4.13902 0
M  V30 3313 H 296.163 3.57008 -4.82354 0
M  V30 3314 H 297.233 2.26133 -4.28943 0
M  V30 3315 N 298.576 1.31904 0.862503 0
M  V30 3316 C 299.523 1.20182 1.9704 0
M  V30 3317 C 300.493 0.0858247 1.65878 0
M  V30 3318 O 301.678 0.26 1.8902 0
M  V30 3319 C 298.818 0.922797 3.32533 0
M  V30 3320 C 297.931 2.12284 3.76244 0
M  V30 3321 C 297.066 1.77996 5.00491 0
M  V30 3322 C 296.105 2.94366 5.36671 0
M  V30 3323 N 295.242 2.60223 6.52095 0
M  V30 3324 H 300.082 2.14951 2.06398 0
M  V30 3325 H 297.619 1.06917 1.01031 0
M  V30 3326 H 299.577 0.741548 4.10557 0
M  V30 3327 H 298.207 0.0119227 3.22798 0
M  V30 3328 H 297.259 2.41461 2.9394 0
M  V30 3329 H 298.571 2.99357 3.98982 0
M  V30 3330 H 297.725 1.56377 5.862 0
M  V30 3331 H 296.464 0.881252 4.79672 0
M  V30 3332 H 295.469 3.16625 4.49476 0
M  V30 3333 H 296.694 3.84957 5.59451 0
M  V30 3334 H 294.64 1.72884 6.32809 0
M  V30 3335 H 294.557 3.40827 6.74814 0
M  V30 3336 H 295.825 2.42016 7.40978 0
M  V30 3337 N 300.054 -1.07777 1.14986 0
M  V30 3338 C 301.001 -2.14867 0.842672 0
M  V30 3339 C 301.971 -1.6486 -0.202552 0
M  V30 3340 O 303.156 -1.90668 -0.0710568 0
M  V30 3341 C 300.296 -3.43486 0.333363 0
M  V30 3342 C 299.409 -4.07306 1.43965 0
M  V30 3343 C 298.544 -5.23744 0.886914 0
M  V30 3344 C 297.583 -5.79517 1.97043 0
M  V30 3345 N 296.72 -6.87291 1.4344 0
M  V30 3346 H 301.56 -2.40485 1.75986 0
M  V30 3347 H 299.097 -1.1801 0.878179 0
M  V30 3348 H 301.055 -4.17195 0.0198163 0
M  V30 3349 H 299.685 -3.18133 -0.546916 0
M  V30 3350 H 298.737 -3.31293 1.86946 0
M  V30 3351 H 300.049 -4.44771 2.25788 0
M  V30 3352 H 299.203 -6.04419 0.525651 0
M  V30 3353 H 297.942 -4.87685 0.0377957 0
M  V30 3354 H 296.947 -4.97491 2.34057 0
M  V30 3355 H 298.172 -6.17632 2.82325 0
M  V30 3356 H 296.118 -6.5318 0.607567 0
M  V30 3357 H 296.035 -7.23617 2.18895 0
M  V30 3358 H 297.303 -7.71682 1.10124 0
M  V30 3359 N 301.532 -0.945985 -1.26051 0
M  V30 3360 C 302.781 -0.591836 -1.92822 0
M  V30 3361 C 303.094 0.873956 -1.7499 0
M  V30 3362 O 304.3 1.33769 -2.36259 0
M  V30 3363 C 302.756 -1.00776 -3.45503 0
M  V30 3364 C 302.364 -2.4955 -3.7206 0
M  V30 3365 C 304.108 -0.725735 -4.1825 0
M  V30 3366 C 302.015 -2.84988 -5.18205 0
M  V30 3367 H 300.945 -0.217635 -0.721908 0
M  V30 3368 H 303.596 -1.14927 -1.43052 0
M  V30 3369 H 301.978 -0.378812 -3.94184 0
M  V30 3370 H 303.152 -3.1739 -3.34066 0
M  V30 3371 H 301.467 -2.75133 -3.12555 0
M  V30 3372 H 304.064 -0.966771 -5.25887 0
M  V30 3373 H 304.407 0.337639 -4.14929 0
M  V30 3374 H 304.94 -1.31463 -3.7545 0
M  V30 3375 H 301.679 -3.90307 -5.26631 0
M  V30 3376 H 301.199 -2.21813 -5.57278 0
M  V30 3377 H 302.878 -2.73712 -5.86252 0
M  V30 3378 N 303.011 1.40521 -0.713556 0
M  V30 3379 C 303.943 2.29191 -0.0203126 0
M  V30 3380 C 304.956 1.45723 0.725864 0
M  V30 3381 O 306.145 1.69033 0.573581 0
M  V30 3382 C 303.245 3.2395 0.995486 0
M  V30 3383 C 302.418 4.36262 0.315256 0
M  V30 3384 C 301.477 5.11474 1.23616 0
M  V30 3385 O 300.503 5.64606 0.721719 0
M  V30 3386 N 301.705 5.20638 2.56743 0
M  V30 3387 H 304.47 2.89327 -0.781652 0
M  V30 3388 H 302.031 1.51869 -0.561022 0
M  V30 3389 H 304.023 3.71137 1.61368 0
M  V30 3390 H 302.593 2.64995 1.6582 0
M  V30 3391 H 301.813 3.91228 -0.483106 0
M  V30 3392 H 303.101 5.08558 -0.157004 0
M  V30 3393 H 302.499 4.7895 3.01037 0
M  V30 3394 H 301.056 5.71339 3.13712 0
M  V30 3395 N 304.489 0.459591 1.5075 0
M  V30 3396 C 305.399 -0.34613 2.32033 0
M  V30 3397 C 306.415 -1.00686 1.41909 0
M  V30 3398 O 307.591 -0.997361 1.7497 0
M  V30 3399 C 304.656 -1.42029 3.16273 0
M  V30 3400 C 303.717 -0.777362 4.22203 0
M  V30 3401 C 302.95 -1.80034 5.02418 0
M  V30 3402 O 303.173 -3.02544 4.83553 0
M  V30 3403 O 302.107 -1.37853 5.85901 0
M  V30 3404 H 305.933 0.318054 3.0203 0
M  V30 3405 H 303.518 0.221663 1.47746 0
M  V30 3406 H 305.4 -2.04275 3.68578 0
M  V30 3407 H 304.075 -2.06815 2.49016 0
M  V30 3408 H 302.982 -0.116256 3.73919 0
M  V30 3409 H 304.315 -0.172634 4.91897 0
M  V30 3410 N 305.967 -1.56429 0.191757 0
M  V30 3411 C 306.914 -2.18936 -0.730454 0
M  V30 3412 C 307.884 -1.13557 -1.21219 0
M  V30 3413 O 309.069 -1.41794 -1.27668 0
M  V30 3414 C 306.209 -2.85013 -1.9458 0
M  V30 3415 C 305.322 -4.04909 -1.50574 0
M  V30 3416 C 304.457 -4.58853 -2.67634 0
M  V30 3417 C 303.496 -5.71114 -2.20217 0
M  V30 3418 N 302.633 -6.19478 -3.30442 0
M  V30 3419 H 307.473 -2.97389 -0.190664 0
M  V30 3420 H 305.01 -1.46869 -0.0823694 0
M  V30 3421 H 306.968 -3.21492 -2.65893 0
M  V30 3422 H 305.598 -2.09129 -2.45896 0
M  V30 3423 H 304.65 -3.74115 -0.688605 0
M  V30 3424 H 305.962 -4.86113 -1.11784 0
M  V30 3425 H 305.116 -4.97619 -3.47074 0
M  V30 3426 H 303.855 -3.76749 -3.09696 0
M  V30 3427 H 302.86 -5.31879 -1.3923 0
M  V30 3428 H 304.085 -6.55033 -1.79189 0
M  V30 3429 H 302.031 -5.40297 -3.72041 0
M  V30 3430 H 301.948 -6.95725 -2.9581 0
M  V30 3431 H 303.216 -6.62898 -4.10106 0
M  V30 3432 N 307.445 0.0818655 -1.57387 0
M  V30 3433 C 308.392 1.09834 -2.0299 0
M  V30 3434 C 309.362 1.39043 -0.908639 0
M  V30 3435 O 310.547 1.50282 -1.17559 0
M  V30 3436 C 307.687 2.40971 -2.47037 0
M  V30 3437 C 306.8 2.18379 -3.7274 0
M  V30 3438 C 305.935 3.43008 -4.0561 0
M  V30 3439 C 304.974 3.15736 -5.24383 0
M  V30 3440 N 304.111 4.32667 -5.52941 0
M  V30 3441 H 308.951 0.702472 -2.89602 0
M  V30 3442 H 306.488 0.33531 -1.43227 0
M  V30 3443 H 308.446 3.1752 -2.70623 0
M  V30 3444 H 307.076 2.78379 -1.63417 0
M  V30 3445 H 306.128 1.32569 -3.56552 0
M  V30 3446 H 307.44 1.94227 -4.59431 0
M  V30 3447 H 306.594 4.27958 -4.30043 0
M  V30 3448 H 305.333 3.70225 -3.17466 0
M  V30 3449 H 304.338 2.2918 -4.99757 0
M  V30 3450 H 305.563 2.8985 -6.14136 0
M  V30 3451 H 303.509 4.59935 -4.67756 0
M  V30 3452 H 303.426 4.11753 -6.34031 0
M  V30 3453 H 304.694 5.18644 -5.81918 0
M  V30 3454 N 308.923 1.53595 0.353017 0
M  V30 3455 C 309.87 1.80919 1.43308 0
M  V30 3456 C 310.84 0.654288 1.5267 0
M  V30 3457 O 312.025 0.897759 1.6836 0
M  V30 3458 C 309.165 2.01605 2.80089 0
M  V30 3459 C 308.278 3.29321 2.79593 0
M  V30 3460 C 307.413 3.40125 4.0803 0
M  V30 3461 C 306.452 4.61826 4.01725 0
M  V30 3462 N 305.589 4.69716 5.21834 0
M  V30 3463 H 310.429 2.73074 1.19308 0
M  V30 3464 H 307.966 1.35263 0.578131 0
M  V30 3465 H 309.924 2.11586 3.59565 0
M  V30 3466 H 308.554 1.12772 3.0246 0
M  V30 3467 H 307.606 3.28229 1.92276 0
M  V30 3468 H 308.918 4.18884 2.70809 0
M  V30 3469 H 308.072 3.49488 4.95927 0
M  V30 3470 H 306.811 2.48601 4.19582 0
M  V30 3471 H 305.816 4.52552 3.12213 0
M  V30 3472 H 307.041 5.54705 3.91764 0
M  V30 3473 H 304.987 3.81097 5.33948 0
M  V30 3474 H 304.904 5.53202 5.1527 0
M  V30 3475 H 306.172 4.83376 6.11529 0
M  V30 3476 N 310.401 -0.613514 1.45168 0
M  V30 3477 C 311.65 -1.36874 1.4815 0
M  V30 3478 C 311.963 -1.952 0.124982 0
M  V30 3479 O 313.169 -2.71481 0.0324176 0
M  V30 3480 C 311.625 -2.47905 2.60904 0
M  V30 3481 C 311.233 -1.96016 4.02842 0
M  V30 3482 C 312.977 -3.24965 2.73126 0
M  V30 3483 C 310.884 -3.04494 5.06988 0
M  V30 3484 H 309.814 -0.514428 0.551253 0
M  V30 3485 H 312.465 -0.658182 1.7129 0
M  V30 3486 H 310.847 -3.21618 2.31037 0
M  V30 3487 H 312.021 -1.29051 4.4236 0
M  V30 3488 H 310.336 -1.31719 3.95018 0
M  V30 3489 H 312.933 -4.05865 3.48106 0
M  V30 3490 H 313.276 -3.75588 1.79553 0
M  V30 3491 H 313.809 -2.5835 3.0249 0
M  V30 3492 H 310.548 -2.58795 6.0225 0
M  V30 3493 H 310.068 -3.70044 4.72046 0
M  V30 3494 H 311.747 -3.68976 5.31475 0
M  V30 3495 N 311.879 -1.3236 -0.855495 0
M  V30 3496 C 312.809 -1.23833 -1.97958 0
M  V30 3497 C 313.79 -0.122361 -1.69659 0
M  V30 3498 O 314.975 -0.30939 -1.9172 0
M  V30 3499 C 312.105 -0.959772 -3.33775 0
M  V30 3500 C 311.059 -2.03689 -3.76424 0
M  V30 3501 C 310.385 -1.61075 -5.09862 0
M  V30 3502 C 311.685 -3.4518 -3.9198 0
M  V30 3503 H 313.379 -2.1788 -2.0535 0
M  V30 3504 H 310.925 -1.04891 -0.986605 0
M  V30 3505 H 312.878 -0.886678 -4.11966 0
M  V30 3506 H 311.602 0.0163404 -3.26596 0
M  V30 3507 H 310.261 -2.10012 -3.00484 0
M  V30 3508 H 309.909 -0.622107 -4.99138 0
M  V30 3509 H 309.609 -2.33143 -5.39368 0
M  V30 3510 H 311.133 -1.55201 -5.90546 0
M  V30 3511 H 312.547 -3.4145 -4.60526 0
M  V30 3512 H 310.944 -4.1559 -4.32903 0
M  V30 3513 H 312.014 -3.84903 -2.94919 0
M  V30 3514 N 313.357 1.07166 -1.15556 0
M  V30 3515 C 314.304 2.14417 -0.854055 0
M  V30 3516 C 315.274 1.64965 0.193806 0
M  V30 3517 O 316.459 1.90703 0.0609443 0
M  V30 3518 C 313.599 3.43304 -0.351574 0
M  V30 3519 C 312.712 4.06537 -1.46123 0
M  V30 3520 C 311.847 5.23266 -0.914677 0
M  V30 3521 C 310.886 5.78464 -2.00114 0
M  V30 3522 N 310.023 6.86521 -1.47083 0
M  V30 3523 H 314.863 2.39548 -1.77259 0
M  V30 3524 H 312.4 1.17543 -0.884425 0
M  V30 3525 H 314.358 4.17179 -0.0419409 0
M  V30 3526 H 312.988 3.18419 0.530037 0
M  V30 3527 H 312.04 3.30297 -1.88701 0
M  V30 3528 H 313.352 4.43567 -2.28144 0
M  V30 3529 H 312.506 6.04131 -0.557698 0
M  V30 3530 H 311.245 4.87658 -0.0636583 0
M  V30 3531 H 310.25 4.96243 -2.36692 0
M  V30 3532 H 311.475 6.16126 -2.85597 0
M  V30 3533 H 309.421 6.52849 -0.642198 0
M  V30 3534 H 309.338 7.22446 -2.22729 0
M  V30 3535 H 310.606 7.71087 -1.14215 0
M  V30 3536 N 314.835 0.952656 1.25548 0
M  V30 3537 C 315.745 0.47782 2.29682 0
M  V30 3538 C 316.761 -0.453859 1.67977 0
M  V30 3539 O 317.937 -0.330587 1.98668 0
M  V30 3540 C 315.002 -0.238655 3.45878 0
M  V30 3541 C 314.063 0.730994 4.23031 0
M  V30 3542 C 313.296 0.0486165 5.33678 0
M  V30 3543 O 313.519 -1.16612 5.58353 0
M  V30 3544 O 312.453 0.733152 5.97418 0
M  V30 3545 H 316.279 1.34312 2.72386 0
M  V30 3546 H 313.864 0.719026 1.30959 0
M  V30 3547 H 315.746 -0.641774 4.16484 0
M  V30 3548 H 314.421 -1.07916 3.05181 0
M  V30 3549 H 313.328 1.18428 3.5486 0
M  V30 3550 H 314.661 1.53946 4.67506 0
M  V30 3551 N 316.313 -1.40141 0.720998 0
M  V30 3552 C 317.26 -2.30688 0.071919 0
M  V30 3553 C 318.23 -1.48476 -0.744584 0
M  V30 3554 O 319.415 -1.77201 -0.707423 0
M  V30 3555 C 316.555 -3.34724 -0.839855 0
M  V30 3556 C 315.668 -4.31998 -0.0122438 0
M  V30 3557 C 314.803 -5.23102 -0.923995 0
M  V30 3558 C 313.842 -6.12033 -0.0907969 0
M  V30 3559 N 312.979 -6.95537 -0.957718 0
M  V30 3560 H 317.819 -2.85628 0.849755 0
M  V30 3561 H 315.356 -1.40653 0.430726 0
M  V30 3562 H 317.314 -3.93618 -1.38279 0
M  V30 3563 H 315.944 -2.81274 -1.58381 0
M  V30 3564 H 314.996 -3.74841 0.64794 0
M  V30 3565 H 316.308 -4.94772 0.632595 0
M  V30 3566 H 315.462 -5.86953 -1.53527 0
M  V30 3567 H 314.201 -4.60615 -1.60264 0
M  V30 3568 H 313.206 -5.47207 0.533377 0
M  V30 3569 H 314.431 -6.76581 0.584428 0
M  V30 3570 H 312.377 -6.35633 -1.62192 0
M  V30 3571 H 312.294 -7.55099 -0.36904 0
M  V30 3572 H 313.562 -7.63832 -1.555 0
M  V30 3573 N 317.792 -0.46758 -1.50504 0
M  V30 3574 C 319.017 0.0886943 -2.0721 0
M  V30 3575 C 319.442 1.33057 -1.32956 0
M  V30 3576 O 318.8 1.77354 -0.376197 0
M  V30 3577 C 318.848 0.359202 -3.58806 0
M  V30 3578 O 317.952 1.44034 -3.8643 0
M  V30 3579 H 317.293 -0.0114349 -0.663902 0
M  V30 3580 H 319.823 -0.657613 -1.93744 0
M  V30 3581 H 319.833 0.600742 -4.03553 0
M  V30 3582 H 318.508 -0.548311 -4.1227 0
M  V30 3583 H 317.085 1.18638 -3.53524 0
M  V30 3584 N 319.27 1.56325 -0.20005 0
M  V30 3585 C 320.18 2.22931 0.730668 0
M  V30 3586 C 321.196 1.22997 1.23076 0
M  V30 3587 O 322.372 1.55748 1.27689 0
M  V30 3588 C 319.437 2.87948 1.93098 0
M  V30 3589 C 318.498 4.03166 1.47497 0
M  V30 3590 C 317.731 4.65073 2.61807 0
M  V30 3591 O 317.954 4.25913 3.79413 0
M  V30 3592 O 316.888 5.54452 2.34237 0
M  V30 3593 H 320.714 3.03084 0.193391 0
M  V30 3594 H 318.299 1.49371 0.0294621 0
M  V30 3595 H 320.181 3.29063 2.6324 0
M  V30 3596 H 318.856 2.10771 2.45677 0
M  V30 3597 H 317.763 3.66664 0.742201 0
M  V30 3598 H 319.096 4.82022 0.995796 0
M  V30 3599 N 320.748 -0.0735177 1.57428 0
M  V30 3600 C 321.695 -1.08756 2.0357 0
M  V30 3601 C 322.665 -1.38559 0.916 0
M  V30 3602 O 323.85 -1.49656 1.18354 0
M  V30 3603 C 320.99 -2.39657 2.48311 0
M  V30 3604 C 320.103 -2.16399 3.73892 0
M  V30 3605 C 319.238 -3.40852 4.07423 0
M  V30 3606 C 318.277 -3.1295 5.2605 0
M  V30 3607 N 317.414 -4.29729 5.55228 0
M  V30 3608 H 322.254 -0.687104 2.8997 0
M  V30 3609 H 319.791 -0.327709 1.43403 0
M  V30 3610 H 321.749 -3.16081 2.72303 0
M  V30 3611 H 320.379 -2.77508 1.64891 0
M  V30 3612 H 319.431 -1.30676 3.57251 0
M  V30 3613 H 320.743 -1.91788 4.60455 0
M  V30 3614 H 319.897 -4.25671 4.32306 0
M  V30 3615 H 318.636 -3.68537 3.19425 0
M  V30 3616 H 317.641 -2.26526 5.00965 0
M  V30 3617 H 318.866 -2.86589 6.15665 0
M  V30 3618 H 316.812 -4.57448 4.70188 0
M  V30 3619 H 316.729 -4.08385 6.36206 0
M  V30 3620 H 317.997 -5.1555 5.84661 0
M  V30 3621 N 322.226 -1.5378 -0.344866 0
M  V30 3622 C 323.503 -1.61589 -1.10219 0
M  V30 3623 C 323.883 -0.436316 -2.06542 0
M  V30 3624 O 323.231 0.571543 -2.21237 0
M  V30 3625 C 323.441 -2.97602 -1.82301 0
M  V30 3626 C 324.789 -3.5291 -2.36093 0
M  V30 3627 O 325.813 -2.99768 -1.924 0
M  V30 3628 O 324.672 -4.45859 -3.16026 0
M  V30 3629 H 321.766 -0.653522 -0.506792 0
M  V30 3630 H 324.312 -1.66126 -0.346465 0
M  V30 3631 H 323.084 -3.74893 -1.12121 0
M  V30 3632 H 322.707 -2.9665 -2.64735 0
M  V30 3633 N 323.704 0.605807 -1.45491 0
M  V30 3634 C 324.634 1.72709 -1.57143 0
M  V30 3635 C 325.615 1.6476 -0.422884 0
M  V30 3636 O 326.8 1.83132 -0.646247 0
M  V30 3637 C 323.93 3.11316 -1.53948 0
M  V30 3638 C 322.884 3.34077 -2.67537 0
M  V30 3639 C 322.21 4.72975 -2.49397 0
M  V30 3640 C 323.51 3.24158 -4.09535 0
M  V30 3641 H 325.204 1.63214 -2.51001 0
M  V30 3642 H 322.75 0.78379 -1.208 0
M  V30 3643 H 324.703 3.89557 -1.60696 0
M  V30 3644 H 323.427 3.21655 -0.566205 0
M  V30 3645 H 322.086 2.58227 -2.6022 0
M  V30 3646 H 321.734 4.8005 -1.50205 0
M  V30 3647 H 321.434 4.8916 -3.25571 0
M  V30 3648 H 322.958 5.53414 -2.58002 0
M  V30 3649 H 324.372 3.92271 -4.18086 0
M  V30 3650 H 322.769 3.51872 -4.86113 0
M  V30 3651 H 323.839 2.2157 -4.31317 0
M  V30 3652 N 325.182 1.32811 0.848464 0
M  V30 3653 C 326.092 1.24278 1.98978 0
M  V30 3654 C 327.108 0.155176 1.73307 0
M  V30 3655 O 328.284 0.376999 1.9784 0
M  V30 3656 C 325.349 0.972444 3.32783 0
M  V30 3657 C 324.41 2.14911 3.71634 0
M  V30 3658 C 323.643 1.89157 4.99054 0
M  V30 3659 O 323.866 0.837165 5.64223 0
M  V30 3660 O 322.8 2.75433 5.35183 0
M  V30 3661 H 326.626 2.20238 2.09115 0
M  V30 3662 H 324.211 1.12762 0.980052 0
M  V30 3663 H 326.093 0.838432 4.12975 0
M  V30 3664 H 324.768 0.043051 3.23671 0
M  V30 3665 H 323.675 2.33862 2.91992 0
M  V30 3666 H 325.008 3.06151 3.85399 0
M  V30 3667 N 326.66 -1.06551 1.16123 0
M  V30 3668 C 327.592 -2.13908 0.823171 0
M  V30 3669 C 328.605 -1.61926 -0.16843 0
M  V30 3670 O 329.794 -1.78412 0.055962 0
M  V30 3671 C 326.894 -3.38283 0.204424 0
M  V30 3672 C 326.067 -4.19589 1.23548 0
M  V30 3673 C 325.126 -5.2233 0.637011 0
M  V30 3674 O 324.152 -5.54034 1.30516 0
M  V30 3675 N 325.354 -5.77621 -0.577474 0
M  V30 3676 H 328.119 -2.43508 1.74711 0
M  V30 3677 H 325.68 -1.2253 1.05821 0
M  V30 3678 H 327.672 -4.0416 -0.208909 0
M  V30 3679 H 326.242 -3.06329 -0.623012 0
M  V30 3680 H 325.462 -3.49406 1.82507 0
M  V30 3681 H 326.75 -4.70718 1.93137 0
M  V30 3682 H 326.148 -5.54125 -1.13853 0
M  V30 3683 H 324.705 -6.45087 -0.933053 0
M  V30 3684 N 328.138 -0.959301 -1.25041 0
M  V30 3685 C 329.554 -0.664474 -1.4511 0
M  V30 3686 C 329.754 0.776481 -1.85938 0
M  V30 3687 O 328.81 1.55128 -1.99227 0
M  V30 3688 C 330.123 -1.64139 -2.5195 0
M  V30 3689 C 331.671 -1.65309 -2.65786 0
M  V30 3690 C 332.146 -2.61777 -3.75815 0
M  V30 3691 N 333.637 -2.60169 -3.83231 0
M  V30 3692 C 334.372 -3.31489 -4.6787 0
M  V30 3693 N 333.868 -4.12298 -5.56761 0
M  V30 3694 N 335.661 -3.20354 -4.61876 0
M  V30 3695 H 327.812 -1.89043 -0.968332 0
M  V30 3696 H 330.075 -0.813408 -0.4869 0
M  V30 3697 H 329.781 -2.67086 -2.28819 0
M  V30 3698 H 329.655 -1.40756 -3.49954 0
M  V30 3699 H 332.042 -0.630778 -2.8828 0
M  V30 3700 H 332.123 -1.92753 -1.68167 0
M  V30 3701 H 331.767 -3.64137 -3.54071 0
M  V30 3702 H 331.697 -2.31616 -4.72929 0
M  V30 3703 H 334.188 -2.01507 -3.19692 0
M  V30 3704 H 334.501 -4.63625 -6.18281 0
M  V30 3705 H 332.846 -4.16395 -5.56454 0
M  V30 3706 H 336.037 -2.56692 -3.91442 0
M  V30 3707 H 336.21 -3.76201 -5.27614 0
M  V30 3708 N 329.616 1.39756 -0.72842 0
M  V30 3709 C 331.032 1.5442 -0.403308 0
M  V30 3710 C 331.232 1.69694 1.08656 0
M  V30 3711 O 330.288 1.69373 1.87267 0
M  V30 3712 C 331.601 2.76555 -1.18058 0
M  V30 3713 C 333.149 2.90384 -1.16815 0
M  V30 3714 C 333.624 4.15449 -1.92785 0
M  V30 3715 N 335.115 4.22475 -1.89918 0
M  V30 3716 C 335.85 5.1818 -2.45514 0
M  V30 3717 N 335.346 6.19714 -3.09719 0
M  V30 3718 N 337.139 5.1035 -2.35584 0
M  V30 3719 H 329.29 1.28089 -1.69431 0
M  V30 3720 H 331.553 0.620327 -0.716867 0
M  V30 3721 H 331.259 2.7159 -2.23455 0
M  V30 3722 H 331.133 3.69033 -0.780662 0
M  V30 3723 H 333.52 2.94846 -0.12234 0
M  V30 3724 H 333.601 1.98988 -1.6074 0
M  V30 3725 H 333.245 4.11749 -2.97364 0
M  V30 3726 H 333.175 5.05877 -1.46272 0
M  V30 3727 H 335.666 3.49743 -1.43138 0
M  V30 3728 H 335.979 6.8919 -3.49625 0
M  V30 3729 H 334.324 6.20121 -3.13807 0
M  V30 3730 H 337.515 4.2996 -1.85072 0
M  V30 3731 H 337.688 5.84761 -2.79211 0
M  V30 3732 N 331.094 0.475555 1.50254 0
M  V30 3733 C 332.057 -0.305016 2.27161 0
M  V30 3734 C 333.057 -0.916519 1.32123 0
M  V30 3735 O 334.247 -0.785003 1.5551 0
M  V30 3736 C 331.379 -1.43496 3.09227 0
M  V30 3737 H 332.572 0.369511 2.97615 0
M  V30 3738 H 330.125 0.229747 1.54602 0
M  V30 3739 H 330.86 -2.14441 2.43281 0
M  V30 3740 H 330.645 -1.00223 3.79075 0
M  V30 3741 H 332.135 -1.98548 3.67381 0
M  V30 3742 N 332.573 -1.56217 0.208337 0
M  V30 3743 C 333.536 -2.18455 -0.693557 0
M  V30 3744 C 334.536 -1.14268 -1.13135 0
M  V30 3745 O 335.726 -1.39577 -1.0423 0
M  V30 3746 C 332.858 -2.79727 -1.94848 0
M  V30 3747 H 334.051 -2.99519 -0.15114 0
M  V30 3748 H 331.604 -1.56245 -0.041287 0
M  V30 3749 H 332.339 -2.02497 -2.53309 0
M  V30 3750 H 332.124 -3.56009 -1.64316 0
M  V30 3751 H 333.614 -3.27475 -2.59133 0
M  V30 3752 N 334.051 0.0651679 -1.57465 0
M  V30 3753 C 335.299 0.761555 -1.87202 0
M  V30 3754 C 335.62 1.77778 -0.801243 0
M  V30 3755 O 334.89 1.95166 0.16937 0
M  V30 3756 H 333.47 0.284251 -0.690804 0
M  V30 3757 H 336.132 0.0396827 -1.9486 0
M  V30 3758 H 335.228 1.27365 -2.84929 0
M  V30 3759 N 335.529 1.53961 0.336706 0
M  V30 3760 C 336.439 1.85432 1.43708 0
M  V30 3761 C 337.455 0.745053 1.57242 0
M  V30 3762 O 338.631 1.03804 1.72588 0
M  V30 3763 C 335.696 2.06349 2.78605 0
M  V30 3764 C 334.757 3.30191 2.74358 0
M  V30 3765 C 333.99 3.50101 4.02822 0
M  V30 3766 O 334.213 2.7371 5.00439 0
M  V30 3767 O 333.147 4.43547 4.06878 0
M  V30 3768 H 336.973 2.78975 1.20028 0
M  V30 3769 H 334.558 1.39701 0.52952 0
M  V30 3770 H 336.44 2.21513 3.58483 0
M  V30 3771 H 335.115 1.15995 3.02203 0
M  V30 3772 H 334.022 3.20425 1.93078 0
M  V30 3773 H 335.355 4.2056 2.55715 0
M  V30 3774 N 337.007 -0.598083 1.45811 0
M  V30 3775 C 338.253 -1.35882 1.50545 0
M  V30 3776 C 338.586 -1.93616 0.150445 0
M  V30 3777 O 337.861 -1.75604 -0.83628 0
M  V30 3778 C 338.144 -2.49966 2.59208 0
M  V30 3779 C 337.997 -1.97367 4.04186 0
M  V30 3780 C 339.316 -3.52068 2.64076 0
M  V30 3781 H 336.435 -0.492717 0.548087 0
M  V30 3782 H 339.077 -0.673319 1.77669 0
M  V30 3783 H 337.227 -3.08443 2.3621 0
M  V30 3784 H 338.899 -1.43466 4.38423 0
M  V30 3785 H 337.142 -1.283 4.14393 0
M  V30 3786 H 337.813 -2.79649 4.75921 0
M  V30 3787 H 340.289 -3.03448 2.84708 0
M  V30 3788 H 339.165 -4.2937 3.41954 0
M  V30 3789 H 339.426 -4.08304 1.69531 0
M  V30 3790 N 338.485 -1.33259 -0.841409 0
M  V30 3791 C 339.415 -1.25926 -1.96634 0
M  V30 3792 C 340.396 -0.140349 -1.6952 0
M  V30 3793 O 341.581 -0.329707 -1.91381 0
M  V30 3794 C 338.711 -0.99512 -3.32738 0
M  V30 3795 C 337.665 -2.0767 -3.74242 0
M  V30 3796 C 336.991 -1.66474 -5.08125 0
M  V30 3797 C 338.291 -3.49318 -3.88297 0
M  V30 3798 H 339.985 -2.20046 -2.03027 0
M  V30 3799 H 337.531 -1.05931 -0.975425 0
M  V30 3800 H 339.484 -0.930323 -4.11002 0
M  V30 3801 H 338.208 -0.0183004 -3.26595 0
M  V30 3802 H 336.867 -2.13187 -2.98239 0
M  V30 3803 H 336.515 -0.675012 -4.9845 0
M  V30 3804 H 336.215 -2.3885 -5.36865 0
M  V30 3805 H 337.739 -1.61455 -5.88867 0
M  V30 3806 H 339.153 -3.46316 -4.56879 0
M  V30 3807 H 337.55 -4.20158 -4.28471 0
M  V30 3808 H 338.62 -3.8801 -2.9082 0
M  V30 3809 N 339.963 1.05934 -1.16686 0
M  V30 3810 C 340.873 2.17014 -0.891183 0
M  V30 3811 C 341.889 1.73453 0.137907 0
M  V30 3812 O 343.065 2.01361 -0.039592 0
M  V30 3813 C 340.13 3.44384 -0.400099 0
M  V30 3814 C 339.191 4.02433 -1.49486 0
M  V30 3815 C 338.424 5.23723 -1.02711 0
M  V30 3816 O 338.647 5.7027 0.121716 0
M  V30 3817 O 337.581 5.7382 -1.81699 0
M  V30 3818 H 341.407 2.43113 -1.82015 0
M  V30 3819 H 338.992 1.15541 -0.947132 0
M  V30 3820 H 340.874 4.21189 -0.133392 0
M  V30 3821 H 339.549 3.19802 0.500817 0
M  V30 3822 H 338.456 3.27102 -1.81535 0
M  V30 3823 H 339.789 4.31317 -2.37121 0
M  V30 3824 N 341.441 0.965919 1.2453 0
M  V30 3825 C 342.852 0.665929 1.7442 0
M  V30 3826 C 343.203 -0.818407 1.78316 0
M  V30 3827 O 342.328 -1.64037 1.41141 0
M  V30 3828 C 342.923 1.20211 3.16757 0
M  V30 3829 C 341.482 0.952059 3.6416 0
M  V30 3830 C 340.629 1.33848 2.42858 0
M  V30 3831 H 343.58 1.14144 1.10258 0
M  V30 3832 H 343.601 0.567544 3.76244 0
M  V30 3833 H 343.113 2.28244 3.13889 0
M  V30 3834 H 341.214 -0.112821 3.72429 0
M  V30 3835 H 341.327 1.59645 4.51719 0
M  V30 3836 H 339.691 0.756864 2.43195 0
M  V30 3837 H 340.474 2.42827 2.42673 0
M  V30 3838 N 342.919 -1.39368 0.735821 0
M  V30 3839 C 343.882 -2.2896 0.104874 0
M  V30 3840 C 344.882 -1.46347 -0.666274 0
M  V30 3841 O 346.072 -1.67014 -0.49517 0
M  V30 3842 C 343.204 -3.29857 -0.860656 0
M  V30 3843 H 344.397 -2.86259 0.894205 0
M  V30 3844 H 341.95 -1.48029 0.501704 0
M  V30 3845 H 342.685 -2.77615 -1.67631 0
M  V30 3846 H 342.47 -3.9087 -0.310327 0
M  V30 3847 H 343.96 -3.96893 -1.29867 0
M  V30 3848 N 344.397 -0.483516 -1.5 0
M  V30 3849 C 345.345 0.318061 -2.30415 0
M  V30 3850 C 346.339 0.978988 -1.38247 0
M  V30 3851 O 347.545 0.908673 -1.55381 0
M  V30 3852 H 343.92 0.121419 -0.742133 0
M  V30 3853 H 345.891 -0.380403 -2.95965 0
M  V30 3854 C 344.64 1.38013 -3.19136 0
M  V30 3855 H 343.963 0.880952 -3.89973 0
M  V30 3856 H 345.403 1.91332 -3.78375 0
M  V30 3857 C 343.862 2.38884 -2.37563 0
M  V30 3858 O 344.392 3.44412 -2.06744 0
M  V30 3859 N 342.598 2.10912 -1.99911 0
M  V30 3860 H 342.145 1.25118 -2.25174 0
M  V30 3861 H 342.103 2.78635 -1.45636 0
M  V30 3862 N 345.875 1.56104 -0.216619 0
M  V30 3863 C 346.805 2.23063 0.690296 0
M  V30 3864 C 347.786 1.20072 1.20485 0
M  V30 3865 O 348.971 1.48643 1.24976 0
M  V30 3866 C 346.101 2.90672 1.90072 0
M  V30 3867 C 345.055 4.00092 1.5202 0
M  V30 3868 C 344.381 4.54972 2.80899 0
M  V30 3869 C 345.681 5.17398 0.71391 0
M  V30 3870 H 347.375 2.99109 0.132038 0
M  V30 3871 H 344.921 1.43866 0.0620664 0
M  V30 3872 H 346.874 3.36204 2.54057 0
M  V30 3873 H 345.598 2.12066 2.48386 0
M  V30 3874 H 344.257 3.55283 0.903839 0
M  V30 3875 H 343.905 3.73102 3.37348 0
M  V30 3876 H 343.605 5.28817 2.56176 0
M  V30 3877 H 345.129 5.0322 3.45836 0
M  V30 3878 H 346.543 5.59342 1.25735 0
M  V30 3879 H 344.94 5.97444 0.563951 0
M  V30 3880 H 346.01 4.84088 -0.280527 0
M  V30 3881 N 347.353 -0.0568162 1.57498 0
M  V30 3882 C 348.283 -1.06593 2.0775 0
M  V30 3883 C 349.264 -1.39448 0.974082 0
M  V30 3884 O 350.449 -1.48815 1.24771 0
M  V30 3885 C 347.579 -2.37509 2.5339 0
M  V30 3886 C 346.533 -2.1897 3.67745 0
M  V30 3887 C 345.859 -3.55402 3.99492 0
M  V30 3888 C 347.159 -1.59859 4.97235 0
M  V30 3889 H 348.853 -0.647706 2.9231 0
M  V30 3890 H 346.399 -0.310116 1.40621 0
M  V30 3891 H 348.352 -3.08409 2.87162 0
M  V30 3892 H 347.076 -2.8134 1.65878 0
M  V30 3893 H 345.735 -1.50508 3.3428 0
M  V30 3894 H 345.383 -3.9683 3.09088 0
M  V30 3895 H 345.083 -3.43831 4.76502 0
M  V30 3896 H 346.607 -4.27708 4.35773 0
M  V30 3897 H 348.021 -2.20642 5.29141 0
M  V30 3898 H 346.418 -1.58942 5.78669 0
M  V30 3899 H 347.488 -0.561506 4.81638 0
M  V30 3900 N 348.832 -1.54138 -0.328536 0
M  V30 3901 C 349.795 -1.82462 -1.38709 0
M  V30 3902 C 350.795 -0.696229 -1.44946 0
M  V30 3903 O 351.985 -0.964535 -1.4506 0
M  V30 3904 C 349.117 -1.98018 -2.77492 0
M  V30 3905 H 350.31 -2.77037 -1.14851 0
M  V30 3906 H 347.863 -1.45779 -0.563751 0
M  V30 3907 H 348.598 -1.05637 -3.06613 0
M  V30 3908 H 348.383 -2.80124 -2.74359 0
M  V30 3909 H 349.873 -2.21396 -3.54081 0
M  V30 3910 N 350.31 0.590341 -1.46126 0
M  V30 3911 C 351.22 1.72793 -1.58681 0
M  V30 3912 C 352.236 1.67516 -0.470566 0
M  V30 3913 O 353.412 1.87562 -0.733642 0
M  V30 3914 C 350.477 3.09287 -1.5666 0
M  V30 3915 C 349.538 3.25886 -2.79458 0
M  V30 3916 C 348.771 4.55869 -2.77524 0
M  V30 3917 O 348.994 5.3928 -1.85832 0
M  V30 3918 O 347.928 4.75552 -3.68964 0
M  V30 3919 H 351.754 1.65149 -2.54872 0
M  V30 3920 H 349.339 0.756486 -1.28832 0
M  V30 3921 H 351.221 3.90577 -1.58202 0
M  V30 3922 H 349.896 3.17385 -0.636271 0
M  V30 3923 H 348.803 2.44119 -2.83472 0
M  V30 3924 H 350.136 3.22675 -3.71674 0
M  V30 3925 N 351.788 1.33704 0.83433 0
M  V30 3926 C 352.698 1.26382 1.97648 0
M  V30 3927 C 353.714 0.173548 1.73132 0
M  V30 3928 O 354.89 0.397962 1.97429 0
M  V30 3929 C 351.955 1.00769 3.31733 0
M  V30 3930 C 351.016 2.1884 3.69334 0
M  V30 3931 C 350.249 1.9444 4.9702 0
M  V30 3932 O 350.472 0.896961 5.63303 0
M  V30 3933 O 349.406 2.81093 5.32231 0
M  V30 3934 H 353.232 2.22444 2.06767 0
M  V30 3935 H 350.817 1.13795 0.968037 0
M  V30 3936 H 352.699 0.882186 4.12062 0
M  V30 3937 H 351.374 0.0773783 3.23608 0
M  V30 3938 H 350.281 2.36946 2.89495 0
M  V30 3939 H 351.614 3.10221 3.82131 0
M  V30 3940 N 353.266 -1.05314 1.17247 0
M  V30 3941 C 354.213 -2.13031 0.888058 0
M  V30 3942 C 355.183 -1.65253 -0.167537 0
M  V30 3943 O 356.368 -1.90775 -0.0305974 0
M  V30 3944 C 353.508 -3.42702 0.406147 0
M  V30 3945 C 352.621 -4.04161 1.52572 0
M  V30 3946 C 351.756 -5.21744 0.997808 0
M  V30 3947 C 350.795 -5.75207 2.09291 0
M  V30 3948 N 349.932 -6.84094 1.57986 0
M  V30 3949 H 354.772 -2.36698 1.81048 0
M  V30 3950 H 352.309 -1.16121 0.903013 0
M  V30 3951 H 354.267 -4.17059 0.108305 0
M  V30 3952 H 352.897 -3.19222 -0.479313 0
M  V30 3953 H 351.949 -3.27253 1.93931 0
M  V30 3954 H 353.261 -4.39881 2.35172 0
M  V30 3955 H 352.415 -6.03168 0.653739 0
M  V30 3956 H 351.154 -4.87495 0.141232 0
M  V30 3957 H 350.159 -4.92414 2.44557 0
M  V30 3958 H 351.384 -6.11505 2.95362 0
M  V30 3959 H 349.33 -6.51745 0.74598 0
M  V30 3960 H 349.247 -7.18811 2.34195 0
M  V30 3961 H 350.515 -7.69172 1.26468 0
M  V30 3962 N 354.744 -0.972509 -1.24016 0
M  V30 3963 C 356.021 -0.553733 -1.87598 0
M  V30 3964 C 356.401 0.969158 -1.87538 0
M  V30 3965 O 355.749 1.84255 -1.35139 0
M  V30 3966 C 355.959 -1.15076 -3.29482 0
M  V30 3967 C 357.307 -1.23862 -4.06132 0
M  V30 3968 O 358.331 -1.10363 -3.38672 0
M  V30 3969 O 357.19 -1.45252 -5.26844 0
M  V30 3970 H 354.284 -0.185331 -0.805966 0
M  V30 3971 H 356.83 -1.06709 -1.31952 0
M  V30 3972 H 355.602 -2.19333 -3.2405 0
M  V30 3973 H 355.225 -0.621746 -3.92709 0
M  V30 3974 N 356.222 1.38976 -0.743202 0
M  V30 3975 C 357.132 2.3434 -0.110399 0
M  V30 3976 C 358.148 1.58741 0.712559 0
M  V30 3977 O 359.324 1.9099 0.639125 0
M  V30 3978 C 356.389 3.37812 0.780012 0
M  V30 3979 C 355.45 4.29263 -0.0561319 0
M  V30 3980 C 354.683 5.27793 0.791875 0
M  V30 3981 O 354.906 5.33043 2.03031 0
M  V30 3982 O 353.84 6.01512 0.216183 0
M  V30 3983 H 357.666 2.90129 -0.897714 0
M  V30 3984 H 355.251 1.40643 -0.503966 0
M  V30 3985 H 357.133 4.01194 1.28923 0
M  V30 3986 H 355.808 2.84395 1.546 0
M  V30 3987 H 354.715 3.69076 -0.611056 0
M  V30 3988 H 356.048 4.85907 -0.784531 0
M  V30 3989 N 357.7 0.491464 1.49741 0
M  V30 3990 C 358.977 -0.118984 1.95238 0
M  V30 3991 C 359.357 -1.55044 1.43264 0
M  V30 3992 O 358.705 -2.19287 0.642287 0
M  V30 3993 C 358.915 -0.0414187 3.48975 0
M  V30 3994 C 360.263 -0.220133 4.24029 0
M  V30 3995 O 361.287 -0.117055 3.56008 0
M  V30 3996 O 360.146 -0.430567 5.44801 0
M  V30 3997 H 357.24 -0.100536 0.820866 0
M  V30 3998 H 359.786 0.553322 1.60426 0
M  V30 3999 H 358.558 0.957214 3.79412 0
M  V30 4000 H 358.181 -0.754292 3.9038 0
M  V30 4001 N 359.178 -1.55987 0.224894 0
M  V30 4002 C 360.108 -2.23426 -0.678457 0
M  V30 4003 C 361.089 -1.20709 -1.19847 0
M  V30 4004 O 362.274 -1.49304 -1.24186 0
M  V30 4005 C 359.404 -2.91676 -1.88527 0
M  V30 4006 C 358.358 -4.00893 -1.49896 0
M  V30 4007 C 357.684 -4.56455 -2.78483 0
M  V30 4008 C 358.984 -5.17769 -0.686461 0
M  V30 4009 H 360.678 -2.99175 -0.116173 0
M  V30 4010 H 358.224 -1.43897 -0.054436 0
M  V30 4011 H 360.177 -3.37547 -2.5227 0
M  V30 4012 H 358.901 -2.1338 -2.47258 0
M  V30 4013 H 357.56 -3.55758 -0.884985 0
M  V30 4014 H 357.208 -3.74886 -3.35365 0
M  V30 4015 H 356.908 -5.30169 -2.53368 0
M  V30 4016 H 358.432 -5.05047 -3.43162 0
M  V30 4017 H 359.846 -5.60001 -1.22767 0
M  V30 4018 H 358.243 -5.97735 -0.532259 0
M  V30 4019 H 359.313 -4.83932 0.306196 0
M  V30 4020 N 360.656 0.0484629 -1.57525 0
M  V30 4021 C 361.586 1.0549 -2.08313 0
M  V30 4022 C 362.567 1.38929 -0.981463 0
M  V30 4023 O 363.752 1.48151 -1.25558 0
M  V30 4024 C 360.882 2.36162 -2.54646 0
M  V30 4025 C 359.836 2.17016 -3.68901 0
M  V30 4026 C 359.162 3.53278 -4.01371 0
M  V30 4027 C 360.462 1.57219 -4.98076 0
M  V30 4028 H 362.156 0.632195 -2.92649 0
M  V30 4029 H 359.702 0.302654 -1.40784 0
M  V30 4030 H 361.655 3.06882 -2.88793 0
M  V30 4031 H 360.379 2.80456 -1.67368 0
M  V30 4032 H 359.038 1.48733 -3.35073 0
M  V30 4033 H 358.686 3.95185 -3.11188 0
M  V30 4034 H 358.386 3.41299 -4.78318 0
M  V30 4035 H 359.91 4.25391 -4.38035 0
M  V30 4036 H 361.324 2.17832 -5.30304 0
M  V30 4037 H 359.721 1.55871 -5.79503 0
M  V30 4038 H 360.791 0.535956 -4.81929 0
M  V30 4039 N 362.134 1.5431 0.320358 0
M  V30 4040 C 363.381 1.72668 1.05792 0
M  V30 4041 C 363.709 0.502084 1.87908 0
M  V30 4042 O 362.964 -0.516149 1.88771 0
M  V30 4043 C 363.263 2.95639 2.00828 0
M  V30 4044 C 362.929 4.30265 1.34843 0
M  V30 4045 C 361.591 4.66865 1.16578 0
M  V30 4046 C 363.943 5.13801 0.875095 0
M  V30 4047 C 361.271 5.84597 0.496336 0
M  V30 4048 C 363.623 6.32219 0.219463 0
M  V30 4049 C 362.287 6.67495 0.0246915 0
M  V30 4050 H 361.557 0.631837 0.387121 0
M  V30 4051 H 364.204 1.88552 0.334735 0
M  V30 4052 H 362.509 2.74456 2.79609 0
M  V30 4053 H 364.206 3.07038 2.57932 0
M  V30 4054 H 360.796 4.01472 1.50061 0
M  V30 4055 H 364.98 4.86039 1.00398 0
M  V30 4056 H 360.236 6.10486 0.334264 0
M  V30 4057 H 364.41 6.96227 -0.155291 0
M  V30 4058 H 362.037 7.5858 -0.496065 0
M  V30 4059 N 363.613 -0.582584 1.46437 0
M  V30 4060 C 364.523 -1.71949 1.59595 0
M  V30 4061 C 365.539 -1.67264 0.479443 0
M  V30 4062 O 366.715 -1.87171 0.743579 0
M  V30 4063 C 363.78 -3.08452 1.58298 0
M  V30 4064 C 362.841 -3.244 2.81182 0
M  V30 4065 C 362.074 -4.54391 2.79937 0
M  V30 4066 O 362.297 -5.38287 1.8869 0
M  V30 4067 O 361.231 -4.73588 3.71481 0
M  V30 4068 H 365.057 -1.63795 2.55744 0
M  V30 4069 H 362.642 -0.749643 1.29231 0
M  V30 4070 H 364.524 -3.89732 1.60271 0
M  V30 4071 H 363.199 -3.17043 0.653094 0
M  V30 4072 H 362.106 -2.42613 2.84763 0
M  V30 4073 H 363.439 -3.20699 3.7338 0
M  V30 4074 O 365.13 -1.44218 -0.726867 0
M  V30 4075 H 365.821 -1.36218 -1.37711 0
M  V30 END ATOM
M  V30 BEGIN BOND
M  V30 END BOND
M  V30 END CTAB
M  END
$$$$
