drugbank_target|Q02750 Dual specificity mitogen-activated protein kinase kinase 1 (DB02152; DB03115; DB05239; DB06616; DB06892; DB07046; DB07101; DB08130; DB08208; DB08911; DB11689)
 OpenBabel12092119423D

  0  0  0     0  0            999 V3000
M  V30 BEGIN CTAB
M  V30 COUNTS 6127 6191 0 0 0
M  V30 BEGIN ATOM
M  V30 1 H -0.908 1.98254 -0.117106 0
M  V30 2 N 0 1.576 0 0
M  V30 3 C 0.933 2.03868 1.02534 0
M  V30 4 C 1.911 0.928543 1.3348 0
M  V30 5 O 3.095 1.19667 1.45644 0
M  V30 6 C 0.222 2.43627 2.35294 0
M  V30 7 C -0.732 3.65373 2.2001 0
M  V30 8 S 0.101 5.13292 1.52614 0
M  V30 9 C 1.257 5.56322 2.86805 0
M  V30 10 H 1.49 2.90518 0.631377 0
M  V30 11 H -0.977 1.52953 0.210867 0
M  V30 12 H 0.981 2.67203 3.11629 0
M  V30 13 H -0.358 1.57376 2.7183 0
M  V30 14 H -1.165 3.90944 3.18086 0
M  V30 15 H -1.563 3.418 1.51819 0
M  V30 16 H 0.729 5.58782 3.83104 0
M  V30 17 H 1.672 6.56266 2.65933 0
M  V30 18 H 2.08 4.83886 2.90714 0
M  V30 19 N 1.4781 -0.272755 1.55222 0
M  V30 20 C 2.8891 -0.84378 1.66545 0
M  V30 21 C 3.2401 -1.87035 0.592641 0
M  V30 22 O 2.3651 -2.14761 -0.265818 0
M  V30 23 C 2.9601 -1.53723 3.01918 0
M  V30 24 C 1.5191 -2.05628 3.15268 0
M  V30 25 C 0.6661 -0.898424 2.62343 0
M  V30 26 H 3.6171 -0.0490998 1.58624 0
M  V30 27 H 3.6381 -2.40421 2.94921 0
M  V30 28 H 3.1501 -0.78983 3.79978 0
M  V30 29 H 1.2511 -2.83329 2.41983 0
M  V30 30 H 1.3641 -2.27142 4.21833 0
M  V30 31 H -0.2719 -1.29186 2.19506 0
M  V30 32 H 0.5111 -0.164528 3.42906 0
M  V30 33 N 2.9562 -1.48159 -0.537278 0
M  V30 34 C 3.9032 -1.62138 -1.64256 0
M  V30 35 C 4.8732 -0.463668 -1.59497 0
M  V30 36 O 6.0582 -0.686241 -1.78032 0
M  V30 37 C 3.1982 -1.66028 -3.02537 0
M  V30 38 C 2.3112 -2.92855 -3.17585 0
M  V30 39 C 1.4462 -2.87952 -4.46382 0
M  V30 40 C 0.4852 -4.09516 -4.54932 0
M  V30 41 N -0.3778 -4.02733 -5.75109 0
M  V30 42 H 4.4622 -2.56529 -1.51647 0
M  V30 43 H 1.9992 -1.27224 -0.738414 0
M  V30 44 H 3.9572 -1.66265 -3.82638 0
M  V30 45 H 2.5872 -0.751331 -3.13934 0
M  V30 46 H 1.6392 -3.02395 -2.30784 0
M  V30 47 H 2.9512 -3.82822 -3.19764 0
M  V30 48 H 2.1052 -2.8655 -5.34765 0
M  V30 49 H 0.8442 -1.95702 -4.46712 0
M  V30 50 H -0.1508 -4.11201 -3.64957 0
M  V30 51 H 1.0742 -5.02917 -4.56346 0
M  V30 52 H -0.9798 -3.13299 -5.76351 0
M  V30 53 H -1.0628 -4.86397 -5.78752 0
M  V30 54 H 0.2052 -4.05379 -6.65799 0
M  V30 55 N 4.4343 0.785586 -1.36625 0
M  V30 56 C 5.3813 1.89838 -1.31264 0
M  V30 57 C 6.3513 1.65115 -0.180633 0
M  V30 58 O 7.5363 1.87222 -0.36777 0
M  V30 59 C 4.6763 3.26706 -1.11163 0
M  V30 60 C 3.7893 3.63476 -2.33472 0
M  V30 61 C 2.9243 4.89481 -2.06353 0
M  V30 62 C 1.9633 5.18941 -3.24602 0
M  V30 63 N 1.1003 6.36131 -2.97123 0
M  V30 64 H 5.9403 1.93756 -2.26413 0
M  V30 65 H 3.4773 0.947454 -1.12524 0
M  V30 66 H 5.4353 4.05639 -0.975337 0
M  V30 67 H 4.0653 3.222 -0.196674 0
M  V30 68 H 3.1173 2.79636 -2.57891 0
M  V30 69 H 4.4293 3.81193 -3.21704 0
M  V30 70 H 3.5833 5.76288 -1.89675 0
M  V30 71 H 2.3223 4.73841 -1.15437 0
M  V30 72 H 1.3273 4.30615 -3.41834 0
M  V30 73 H 2.5523 5.36498 -4.16349 0
M  V30 74 H 0.4983 6.21875 -2.08823 0
M  V30 75 H 0.4153 6.54198 -3.78894 0
M  V30 76 H 1.6833 7.2591 -2.84033 0
M  V30 77 N 5.9124 1.20967 1.01018 0
M  V30 78 C 6.8594 0.964281 2.09691 0
M  V30 79 C 7.8294 -0.107853 1.65749 0
M  V30 80 O 9.0144 0.0381987 1.90762 0
M  V30 81 C 6.1544 0.52943 3.41015 0
M  V30 82 C 5.2674 1.67043 3.98398 0
M  V30 83 C 4.4024 1.18525 5.17808 0
M  V30 84 C 3.4414 2.29892 5.67288 0
M  V30 85 N 2.5784 1.82546 6.77954 0
M  V30 86 H 7.4184 1.89463 2.30017 0
M  V30 87 H 4.9554 0.944289 1.1279 0
M  V30 88 H 6.9134 0.258588 4.16398 0
M  V30 89 H 5.5434 -0.363919 3.20742 0
M  V30 90 H 4.5954 2.05603 3.20049 0
M  V30 91 H 5.9074 2.50877 4.31117 0
M  V30 92 H 5.0614 0.870762 6.00419 0
M  V30 93 H 3.8004 0.316887 4.86669 0
M  V30 94 H 2.8054 2.6215 4.83278 0
M  V30 95 H 4.0304 3.17216 6.00459 0
M  V30 96 H 1.9764 0.980454 6.48632 0
M  V30 97 H 1.8934 2.59956 7.09901 0
M  V30 98 H 3.1614 1.54115 7.64113 0
M  V30 99 N 7.3905 -1.2043 1.01659 0
M  V30 100 C 8.8015 -1.71517 0.737482 0
M  V30 101 C 9.1525 -1.81547 -0.743973 0
M  V30 102 O 8.2775 -1.47803 -1.58061 0
M  V30 103 C 8.8725 -3.11515 1.33206 0
M  V30 104 C 7.4315 -3.59912 1.10183 0
M  V30 105 C 6.5785 -2.37116 1.43776 0
M  V30 106 H 9.5295 -1.05444 1.18606 0
M  V30 107 H 9.5505 -3.73575 0.722636 0
M  V30 108 H 9.0625 -3.04182 2.41028 0
M  V30 109 H 7.1635 -3.72577 0.0412756 0
M  V30 110 H 7.2765 -4.44731 1.78188 0
M  V30 111 H 5.6405 -2.39857 0.856778 0
M  V30 112 H 6.4235 -2.32424 2.52654 0
M  V30 113 N 8.8686 -0.792821 -1.36206 0
M  V30 114 C 10.0966 -0.378825 -2.03402 0
M  V30 115 C 10.5116 1.00586 -1.59774 0
M  V30 116 O 9.8686 1.64574 -0.788764 0
M  V30 117 C 9.9196 -0.43683 -3.58851 0
M  V30 118 O 9.6406 -1.76691 -4.00889 0
M  V30 119 C 11.1416 -0.0138943 -4.43298 0
M  V30 120 H 8.3616 -0.155673 -0.652692 0
M  V30 121 H 10.9056 -1.07261 -1.74113 0
M  V30 122 H 9.0606 0.208575 -3.86838 0
M  V30 123 H 9.4746 -1.72011 -4.95492 0
M  V30 124 H 10.9486 -0.105615 -5.51899 0
M  V30 125 H 11.4256 1.03915 -4.2673 0
M  V30 126 H 12.0316 -0.63192 -4.20579 0
M  V30 127 N 10.3467 1.47872 -0.545128 0
M  V30 128 C 11.7577 1.86384 -0.108581 0
M  V30 129 C 12.1087 1.45309 1.31832 0
M  V30 130 O 11.2337 0.850641 1.9898 0
M  V30 131 C 11.8287 3.38265 -0.190274 0
M  V30 132 C 10.3877 3.75914 0.191164 0
M  V30 133 C 9.5347 2.71926 -0.543273 0
M  V30 134 H 12.4857 1.39561 -0.755537 0
M  V30 135 H 12.5067 3.75831 0.594217 0
M  V30 136 H 12.0187 3.6813 -1.2289 0
M  V30 137 H 10.1197 3.51665 1.23136 0
M  V30 138 H 10.2327 4.78836 -0.158987 0
M  V30 139 H 8.5967 2.54697 0.0122495 0
M  V30 140 H 9.3797 3.04634 -1.58282 0
M  V30 141 N 11.8248 0.280983 1.55075 0
M  V30 142 C 13.0738 -0.334784 1.98902 0
M  V30 143 C 13.3868 -1.56534 1.17288 0
M  V30 144 O 14.5928 -2.25443 1.51287 0
M  V30 145 C 13.0488 -0.646994 3.54037 0
M  V30 146 C 12.6568 0.564085 4.44435 0
M  V30 147 C 14.4008 -1.22506 4.06439 0
M  V30 148 C 12.3078 0.226137 5.90967 0
M  V30 149 H 11.2378 -0.128866 0.742906 0
M  V30 150 H 13.8888 0.386556 1.79382 0
M  V30 151 H 12.2708 -1.42739 3.6938 0
M  V30 152 H 13.4448 1.34082 4.40861 0
M  V30 153 H 11.7598 1.0594 4.02698 0
M  V30 154 H 14.3568 -1.49182 5.13468 0
M  V30 155 H 14.6998 -2.16085 3.55827 0
M  V30 156 H 15.2328 -0.50682 3.94558 0
M  V30 157 H 11.9718 1.12996 6.45687 0
M  V30 158 H 11.4918 -0.513717 5.97596 0
M  V30 159 H 13.1708 -0.179539 6.46751 0
M  V30 160 N 13.3029 -1.57598 0.00835791 0
M  V30 161 C 14.2349 -2.05811 -1.00868 0
M  V30 162 C 15.2479 -0.977579 -1.30182 0
M  V30 163 O 16.4369 -1.25421 -1.27011 0
M  V30 164 C 13.5369 -2.45016 -2.34137 0
M  V30 165 C 12.7099 -3.75903 -2.23643 0
M  V30 166 C 11.7689 -4.01884 -3.3967 0
M  V30 167 O 10.7949 -4.72433 -3.17483 0
M  V30 168 N 11.9969 -3.50432 -4.62793 0
M  V30 169 H 14.7619 -2.93684 -0.597458 0
M  V30 170 H 12.3229 -1.60909 -0.178852 0
M  V30 171 H 14.3149 -2.59506 -3.10546 0
M  V30 172 H 12.8849 -1.62618 -2.66972 0
M  V30 173 H 12.1049 -3.7141 -1.32091 0
M  V30 174 H 13.3929 -4.61695 -2.13812 0
M  V30 175 H 12.7909 -2.93317 -4.83716 0
M  V30 176 H 11.3479 -3.70236 -5.3644 0
M  V30 177 N 14.781 0.264519 -1.55364 0
M  V30 178 C 15.711 1.33121 -1.91836 0
M  V30 179 C 16.692 1.51101 -0.781192 0
M  V30 180 O 17.877 1.64003 -1.04003 0
M  V30 181 C 15.007 2.68921 -2.19769 0
M  V30 182 C 13.961 2.65661 -3.35571 0
M  V30 183 C 13.287 4.05093 -3.49004 0
M  V30 184 C 14.587 2.24187 -4.71739 0
M  V30 185 H 16.281 1.02844 -2.81182 0
M  V30 186 H 13.827 0.493286 -1.35287 0
M  V30 187 H 15.78 3.43663 -2.43872 0
M  V30 188 H 14.504 3.00799 -1.27231 0
M  V30 189 H 13.163 1.93377 -3.1145 0
M  V30 190 H 12.811 4.34206 -2.53917 0
M  V30 191 H 12.511 4.03804 -4.26868 0
M  V30 192 H 14.035 4.81561 -3.75408 0
M  V30 193 H 15.449 2.88654 -4.9533 0
M  V30 194 H 13.846 2.34044 -5.52579 0
M  V30 195 H 14.916 1.19327 -4.69988 0
M  V30 196 N 16.2591 1.48442 0.529413 0
M  V30 197 C 17.2071 1.63452 1.65487 0
M  V30 198 C 18.2011 0.500955 1.61823 0
M  V30 199 O 19.4071 0.679695 1.66674 0
M  V30 200 H 15.7821 0.514905 0.548066 0
M  V30 201 H 17.7531 2.57975 1.49971 0
M  V30 202 C 16.5021 1.69196 3.03756 0
M  V30 203 H 15.8251 2.55784 3.07269 0
M  V30 204 H 17.2651 1.83743 3.82119 0
M  V30 205 C 15.7241 0.430765 3.34135 0
M  V30 206 O 16.2541 -0.4561 3.99102 0
M  V30 207 N 14.4601 0.302293 2.89023 0
M  V30 208 H 14.0071 1.02496 2.36331 0
M  V30 209 H 13.9651 -0.540546 3.09718 0
M  V30 210 N 17.7372 -0.778329 1.37039 0
M  V30 211 C 19.1482 -1.35421 1.28523 0
M  V30 212 C 19.4992 -1.96075 -0.0700901 0
M  V30 213 O 18.6242 -1.93352 -0.971801 0
M  V30 214 C 19.2192 -2.46211 2.32735 0
M  V30 215 C 17.7782 -2.99585 2.27873 0
M  V30 216 C 16.9252 -1.72748 2.16918 0
M  V30 217 H 19.8762 -0.5791 1.47757 0
M  V30 218 H 19.8972 -3.2552 1.9702 0
M  V30 219 H 19.4092 -2.02036 3.31365 0
M  V30 220 H 17.5102 -3.48152 1.32745 0
M  V30 221 H 17.6232 -3.55646 3.21018 0
M  V30 222 H 15.9872 -1.95416 1.63354 0
M  V30 223 H 16.7702 -1.30686 3.17452 0
M  V30 224 N 19.2153 -1.21501 -1.00376 0
M  V30 225 C 20.1783 -0.976927 -2.07337 0
M  V30 226 C 21.1783 0.0525322 -1.60714 0
M  V30 227 O 22.3683 -0.184869 -1.73216 0
M  V30 228 C 19.5003 -0.473423 -3.37597 0
M  V30 229 H 20.6933 -1.92587 -2.29892 0
M  V30 230 H 18.2463 -1.03217 -1.17371 0
M  V30 231 H 18.9813 0.480379 -3.20722 0
M  V30 232 H 18.7663 -1.216 -3.72768 0
M  V30 233 H 20.2563 -0.32675 -4.1632 0
M  V30 234 N 20.6934 1.19889 -1.02296 0
M  V30 235 C 22.1044 1.71124 -0.746568 0
M  V30 236 C 22.4554 1.81939 0.734335 0
M  V30 237 O 21.5804 1.48639 1.57275 0
M  V30 238 C 22.1754 3.10804 -1.34857 0
M  V30 239 C 20.7344 3.59323 -1.1209 0
M  V30 240 C 19.8814 2.3635 -1.45031 0
M  V30 241 H 22.8324 1.04813 -1.19163 0
M  V30 242 H 22.8534 3.73186 -0.742437 0
M  V30 243 H 22.3654 3.029 -2.42638 0
M  V30 244 H 20.4664 3.7255 -0.0610337 0
M  V30 245 H 20.5794 4.4378 -1.80544 0
M  V30 246 H 18.9434 2.39399 -0.869487 0
M  V30 247 H 19.7264 2.31081 -2.53883 0
M  V30 248 N 22.1715 0.800033 1.35784 0
M  V30 249 C 23.4485 0.30088 1.93272 0
M  V30 250 C 23.8285 -1.20857 1.73081 0
M  V30 251 O 23.1765 -2.00502 1.09596 0
M  V30 252 C 23.3865 0.70511 3.41803 0
M  V30 253 C 24.7345 0.690871 4.18942 0
M  V30 254 O 25.7585 0.646244 3.50289 0
M  V30 255 O 24.6175 0.74332 5.41421 0
M  V30 256 H 21.7115 0.0771605 0.823393 0
M  V30 257 H 24.2575 0.88329 1.449 0
M  V30 258 H 23.0295 1.74571 3.50201 0
M  V30 259 H 22.6525 0.0971541 3.97481 0
M  V30 260 N 23.6496 -1.47581 0.552962 0
M  V30 261 C 24.8976 -2.02082 0.0272703 0
M  V30 262 C 25.2186 -1.4301 -1.32563 0
M  V30 263 O 24.4886 -0.603745 -1.86365 0
M  V30 264 H 23.0686 -0.746966 0.00709182 0
M  V30 265 H 25.7306 -1.81033 0.722008 0
M  V30 266 H 24.8266 -3.12034 -0.0639951 0
M  V30 267 N 25.1277 -0.289203 -1.54924 0
M  V30 268 C 26.3527 0.329299 -2.04769 0
M  V30 269 C 26.7777 1.4763 -1.16564 0
M  V30 270 O 26.1357 1.80527 -0.167186 0
M  V30 271 C 26.1837 0.774438 -3.52186 0
M  V30 272 O 25.2877 1.88038 -3.67036 0
M  V30 273 H 24.6287 0.0659259 -0.660719 0
M  V30 274 H 27.1587 -0.42761 -2.00082 0
M  V30 275 H 27.1687 1.06642 -3.93816 0
M  V30 276 H 25.8437 -0.0646707 -4.1585 0
M  V30 277 H 24.4207 1.58985 -3.3731 0
M  V30 278 N 26.6058 1.57591 -0.0167156 0
M  V30 279 C 27.5688 2.08393 0.954204 0
M  V30 280 C 28.5688 0.996531 1.26198 0
M  V30 281 O 29.7588 1.25858 1.20438 0
M  V30 282 C 26.8908 2.5394 2.27436 0
M  V30 283 H 28.0838 2.95455 0.514451 0
M  V30 284 H 25.6368 1.54582 0.231089 0
M  V30 285 H 26.3718 1.70171 2.76066 0
M  V30 286 H 26.1568 3.33371 2.06412 0
M  V30 287 H 27.6468 2.93512 2.97053 0
M  V30 288 N 28.0839 -0.256276 1.55502 0
M  V30 289 C 29.3299 -0.987079 1.77157 0
M  V30 290 C 29.6629 -1.85327 0.580315 0
M  V30 291 O 28.9379 -1.89874 -0.421686 0
M  V30 292 C 29.2209 -1.85553 3.08613 0
M  V30 293 C 29.0739 -1.01816 4.38125 0
M  V30 294 C 30.3929 -2.8397 3.36228 0
M  V30 295 H 27.5119 -0.357428 0.644526 0
M  V30 296 H 30.1539 -0.258239 1.88237 0
M  V30 297 H 28.3039 -2.47695 2.99298 0
M  V30 298 H 29.9759 -0.416159 4.59419 0
M  V30 299 H 28.2189 -0.322178 4.32602 0
M  V30 300 H 28.8899 -1.65939 5.26468 0
M  V30 301 H 31.3659 -2.31964 3.45445 0
M  V30 302 H 30.2419 -3.41864 4.29442 0
M  V30 303 H 30.5029 -3.59955 2.56681 0
M  V30 304 N 29.562 -1.4872 -0.521534 0
M  V30 305 C 30.51 -1.64328 -1.64618 0
M  V30 306 C 31.504 -0.50953 -1.61555 0
M  V30 307 O 32.71 -0.688525 -1.66311 0
M  V30 308 H 29.085 -0.517805 -0.545328 0
M  V30 309 H 31.056 -2.58767 -1.48601 0
M  V30 310 C 29.805 -1.70805 -3.02855 0
M  V30 311 H 29.128 -2.5741 -3.05909 0
M  V30 312 H 30.568 -1.85766 -3.81139 0
M  V30 313 C 29.027 -0.448479 -3.33902 0
M  V30 314 O 29.557 0.434928 -3.99339 0
M  V30 315 N 27.763 -0.317616 -2.88859 0
M  V30 316 H 27.31 -1.03748 -2.35784 0
M  V30 317 H 27.268 0.524113 -3.10001 0
M  V30 318 N 31.0401 0.771051 -1.3745 0
M  V30 319 C 32.2881 1.52661 -1.32435 0
M  V30 320 C 32.6091 1.9479 0.0905024 0
M  V30 321 O 31.8791 1.66348 1.03466 0
M  V30 322 H 30.4591 0.566218 -0.487244 0
M  V30 323 H 33.1211 0.917636 -1.71946 0
M  V30 324 H 32.2171 2.42568 -1.96385 0
M  V30 325 N 32.5182 1.22032 0.997298 0
M  V30 326 C 33.7462 1.06841 1.7718 0
M  V30 327 C 34.1612 -0.381325 1.84909 0
M  V30 328 O 33.5182 -1.26437 1.31605 0
M  V30 329 C 33.5692 1.66814 3.20711 0
M  V30 330 O 33.2902 3.06116 3.13408 0
M  V30 331 C 34.7912 1.56838 4.14628 0
M  V30 332 H 32.0112 0.374782 0.556578 0
M  V30 333 H 34.5552 1.61532 1.2541 0
M  V30 334 H 32.7102 1.16196 3.69564 0
M  V30 335 H 33.1242 3.34926 4.0364 0
M  V30 336 H 34.5982 2.03532 5.13107 0
M  V30 337 H 35.0752 0.524155 4.36061 0
M  V30 338 H 35.6812 2.06741 3.7167 0
M  V30 339 N 33.9963 -1.19345 1.0293 0
M  V30 340 C 35.2213 -1.93538 0.745511 0
M  V30 341 C 35.6463 -1.75007 -0.689511 0
M  V30 342 O 35.0043 -1.05265 -1.47611 0
M  V30 343 C 35.0523 -3.43336 1.10239 0
M  V30 344 O 34.1563 -4.11806 0.221289 0
M  V30 345 H 33.4973 -0.604193 0.275404 0
M  V30 346 H 36.0273 -1.5141 1.37609 0
M  V30 347 H 36.0373 -3.94004 1.05947 0
M  V30 348 H 34.7123 -3.56146 2.14786 0
M  V30 349 H 33.2893 -3.715 0.322842 0
M  V30 350 N 35.4744 -0.807222 -1.35358 0
M  V30 351 C 36.6994 -0.399309 -2.0352 0
M  V30 352 C 37.1244 0.981986 -1.60433 0
M  V30 353 O 36.4824 1.63601 -0.781299 0
M  V30 354 C 36.5304 -0.491552 -3.57234 0
M  V30 355 O 35.6344 0.494754 -4.09421 0
M  V30 356 H 34.9754 -0.166682 -0.642739 0
M  V30 357 H 37.5054 -1.09328 -1.72941 0
M  V30 358 H 37.5154 -0.361588 -4.06395 0
M  V30 359 H 36.1904 -1.49907 -3.87944 0
M  V30 360 H 34.7674 0.324977 -3.71481 0
M  V30 361 N 36.9525 1.47285 -0.560781 0
M  V30 362 C 37.9155 2.28535 0.174488 0
M  V30 363 C 38.9155 1.37153 0.839388 0
M  V30 364 O 40.1055 1.59748 0.694702 0
M  V30 365 C 37.2375 3.16934 1.25561 0
M  V30 366 H 38.4305 2.95012 -0.539262 0
M  V30 367 H 35.9835 1.53034 -0.317865 0
M  V30 368 H 36.7185 2.55157 2.00164 0
M  V30 369 H 36.5035 3.8419 0.783604 0
M  V30 370 H 37.9935 3.78143 1.77193 0
M  V30 371 N 38.4306 0.297415 1.54768 0
M  V30 372 C 39.3406 -0.58983 2.27064 0
M  V30 373 C 40.3566 -1.15144 1.30453 0
M  V30 374 O 41.5326 -1.17699 1.63428 0
M  V30 375 C 38.5976 -1.74714 2.9946 0
M  V30 376 C 37.6586 -1.21997 4.11601 0
M  V30 377 C 36.8916 -2.32212 4.80535 0
M  V30 378 O 37.1146 -3.52036 4.48806 0
M  V30 379 O 36.0486 -1.99106 5.68014 0
M  V30 380 H 39.8746 -0.00348199 3.037 0
M  V30 381 H 37.4596 0.0640035 1.49263 0
M  V30 382 H 39.3416 -2.42147 3.44881 0
M  V30 383 H 38.0166 -2.32016 2.25722 0
M  V30 384 H 36.9236 -0.511458 3.70587 0
M  V30 385 H 38.2566 -0.692419 4.87305 0
M  V30 386 N 39.9087 -1.5758 0.0250728 0
M  V30 387 C 41.1367 -1.9593 -0.664747 0
M  V30 388 C 41.5517 -0.901352 -1.65895 0
M  V30 389 O 40.9087 0.117255 -1.82123 0
M  V30 390 C 40.9597 -3.34342 -1.37468 0
M  V30 391 O 40.6807 -4.36079 -0.420324 0
M  V30 392 C 42.1817 -3.873 -2.1567 0
M  V30 393 H 39.4017 -0.645405 -0.183557 0
M  V30 394 H 41.9457 -2.04329 0.0836372 0
M  V30 395 H 40.1007 -3.27175 -2.0745 0
M  V30 396 H 40.5147 -5.16297 -0.923991 0
M  V30 397 H 41.9887 -4.86504 -2.60803 0
M  V30 398 H 42.4657 -3.21331 -2.99405 0
M  V30 399 H 43.0717 -3.97723 -1.50654 0
M  V30 400 N 41.3868 0.248026 -1.55636 0
M  V30 401 C 42.3348 1.32683 -1.91045 0
M  V30 402 C 43.3288 1.49883 -0.789401 0
M  V30 403 O 44.5348 1.51371 -0.974007 0
M  V30 404 H 40.9098 0.444272 -0.606734 0
M  V30 405 H 42.8808 1.00085 -2.81115 0
M  V30 406 C 41.6298 2.6755 -2.22064 0
M  V30 407 H 40.9528 2.55114 -3.07826 0
M  V30 408 H 42.3928 3.41912 -2.50743 0
M  V30 409 C 40.8518 3.20556 -1.0366 0
M  V30 410 O 41.3818 4.00695 -0.284016 0
M  V30 411 N 39.5878 2.78568 -0.82753 0
M  V30 412 H 39.1348 2.1351 -1.44123 0
M  V30 413 H 39.0928 3.14378 -0.0369803 0
M  V30 414 N 42.8649 1.48995 0.513639 0
M  V30 415 C 43.7949 1.67636 1.62544 0
M  V30 416 C 44.7759 0.525087 1.61793 0
M  V30 417 O 45.9609 0.759502 1.78732 0
M  V30 418 C 43.0909 1.73114 3.01079 0
M  V30 419 C 42.0449 2.87905 3.16693 0
M  V30 420 C 41.3709 2.78486 4.56453 0
M  V30 421 C 42.6709 4.29005 2.97913 0
M  V30 422 H 44.3649 2.60716 1.47198 0
M  V30 423 H 41.9109 1.25465 0.706714 0
M  V30 424 H 43.8639 1.84742 3.78746 0
M  V30 425 H 42.5879 0.766241 3.17484 0
M  V30 426 H 41.2469 2.75859 2.41448 0
M  V30 427 H 40.8949 1.7993 4.69717 0
M  V30 428 H 40.5949 3.55523 4.67843 0
M  V30 429 H 42.1189 2.92104 5.36197 0
M  V30 430 H 43.5329 4.41798 3.65359 0
M  V30 431 H 41.9299 5.07166 3.20785 0
M  V30 432 H 42.9999 4.44329 1.94165 0
M  V30 433 N 44.343 -0.763751 1.37857 0
M  V30 434 C 45.253 -1.90817 1.36478 0
M  V30 435 C 46.269 -1.71997 0.263248 0
M  V30 436 O 47.445 -1.95095 0.499979 0
M  V30 437 C 44.51 -3.2605 1.17864 0
M  V30 438 C 43.571 -3.57467 2.3773 0
M  V30 439 C 42.804 -4.86249 2.19995 0
M  V30 440 O 43.027 -5.57884 1.18836 0
M  V30 441 O 41.961 -5.16911 3.08361 0
M  V30 442 H 45.787 -1.94933 2.32884 0
M  V30 443 H 43.372 -0.907619 1.1867 0
M  V30 444 H 45.254 -4.06924 1.09504 0
M  V30 445 H 43.929 -3.22769 0.245372 0
M  V30 446 H 42.836 -2.76796 2.51664 0
M  V30 447 H 44.169 -3.655 3.29652 0
M  V30 448 N 45.8211 -1.22559 -0.990812 0
M  V30 449 C 46.7841 -0.998863 -2.0629 0
M  V30 450 C 47.7841 0.0354834 -1.60761 0
M  V30 451 O 48.9741 -0.203231 -1.7301 0
M  V30 452 C 46.1061 -0.509203 -3.37076 0
M  V30 453 H 47.2991 -1.95014 -2.27837 0
M  V30 454 H 44.8521 -1.04456 -1.16269 0
M  V30 455 H 45.5871 0.446335 -3.21214 0
M  V30 456 H 45.3721 -1.25547 -3.71457 0
M  V30 457 H 46.8621 -0.370888 -4.1595 0
M  V30 458 N 47.2992 1.18797 -1.03562 0
M  V30 459 C 48.2292 2.24472 -0.643019 0
M  V30 460 C 49.2102 1.66433 0.351283 0
M  V30 461 O 50.3952 1.92803 0.232505 0
M  V30 462 C 47.5252 3.473 4.24935e-05 0
M  V30 463 C 46.4792 4.18055 -0.917257 0
M  V30 464 C 45.8052 5.34519 -0.138941 0
M  V30 465 C 47.1052 4.72109 -2.23407 0
M  V30 466 H 48.7992 2.57566 -1.52643 0
M  V30 467 H 46.3452 1.23806 -0.735394 0
M  V30 468 H 48.2982 4.20426 0.286383 0
M  V30 469 H 47.0222 3.13424 0.918299 0
M  V30 470 H 45.6812 3.46821 -1.1879 0
M  V30 471 H 45.3292 4.96891 0.781562 0
M  V30 472 H 45.0292 5.82794 -0.750005 0
M  V30 473 H 46.5532 6.10438 0.1405 0
M  V30 474 H 47.9672 5.36955 -2.00879 0
M  V30 475 H 46.3642 5.30897 -2.79765 0
M  V30 476 H 47.4342 3.89807 -2.88407 0
M  V30 477 N 48.7773 0.814389 1.34928 0
M  V30 478 C 49.7093 0.187834 2.28429 0
M  V30 479 C 50.7223 -0.617374 1.5064 0
M  V30 480 O 51.9113 -0.448454 1.72775 0
M  V30 481 C 49.0113 -0.755962 3.30361 0
M  V30 482 C 48.1843 0.00456686 4.374 0
M  V30 483 C 47.2433 -0.858876 5.19143 0
M  V30 484 O 46.2693 -0.306968 5.68372 0
M  V30 485 N 47.4713 -2.17988 5.38016 0
M  V30 486 H 50.2363 0.991105 2.82838 0
M  V30 487 H 47.7973 0.670561 1.4736 0
M  V30 488 H 49.7893 -1.338 3.81942 0
M  V30 489 H 48.3593 -1.46001 2.7641 0
M  V30 490 H 47.5793 0.767865 3.86649 0
M  V30 491 H 48.8673 0.528422 5.06049 0
M  V30 492 H 48.2653 -2.65212 4.99679 0
M  V30 493 H 46.8223 -2.71098 5.92747 0
M  V30 494 N 50.2554 -1.46986 0.568584 0
M  V30 495 C 51.2024 -2.30153 -0.172707 0
M  V30 496 C 52.1724 -1.39759 -0.897586 0
M  V30 497 O 53.3574 -1.68716 -0.891044 0
M  V30 498 C 50.4974 -3.23952 -1.1895 0
M  V30 499 C 49.6104 -4.29441 -0.469517 0
M  V30 500 C 48.7454 -5.1038 -1.47259 0
M  V30 501 C 47.7844 -6.07632 -0.738225 0
M  V30 502 N 46.9214 -6.8149 -1.68868 0
M  V30 503 H 51.7614 -2.93019 0.542596 0
M  V30 504 H 49.2984 -1.44422 0.279401 0
M  V30 505 H 51.2564 -3.76767 -1.79173 0
M  V30 506 H 49.8864 -2.62926 -1.87269 0
M  V30 507 H 48.9384 -3.79594 0.247467 0
M  V30 508 H 50.2504 -4.98689 0.105241 0
M  V30 509 H 49.4044 -5.67402 -2.14803 0
M  V30 510 H 48.1434 -4.4106 -2.08128 0
M  V30 511 H 47.1484 -5.49778 -0.0489293 0
M  V30 512 H 48.3734 -6.78966 -0.135129 0
M  V30 513 H 46.3194 -6.14891 -2.28573 0
M  V30 514 H 46.2364 -7.46948 -1.16636 0
M  V30 515 H 47.5044 -7.43078 -2.3549 0
M  V30 516 N 51.7335 -0.305618 -1.54608 0
M  V30 517 C 52.6805 0.568421 -2.23691 0
M  V30 518 C 53.6505 1.12592 -1.22116 0
M  V30 519 O 54.8355 1.16959 -1.50749 0
M  V30 520 C 51.9755 1.7322 -2.98477 0
M  V30 521 C 51.0885 1.20566 -4.14835 0
M  V30 522 C 50.2235 2.33368 -4.77193 0
M  V30 523 C 49.2625 1.7787 -5.85686 0
M  V30 524 N 48.3995 2.84263 -6.4198 0
M  V30 525 H 53.2395 -0.0272867 -2.97988 0
M  V30 526 H 50.7765 -0.0252363 -1.47078 0
M  V30 527 H 52.7345 2.41675 -3.40072 0
M  V30 528 H 51.3645 2.29947 -2.26548 0
M  V30 529 H 50.4165 0.413223 -3.78149 0
M  V30 530 H 51.7285 0.759417 -4.92985 0
M  V30 531 H 50.8825 3.09761 -5.21664 0
M  V30 532 H 49.6215 2.8132 -3.98385 0
M  V30 533 H 48.6265 0.99968 -5.40635 0
M  V30 534 H 49.8515 1.30816 -6.66381 0
M  V30 535 H 47.7975 3.31541 -5.66053 0
M  V30 536 H 47.7145 2.44149 -7.15491 0
M  V30 537 H 48.9825 3.6054 -6.91109 0
M  V30 538 N 53.2116 1.57565 -0.0334293 0
M  V30 539 C 54.1416 2.13511 0.945265 0
M  V30 540 C 55.1226 1.05231 1.33643 0
M  V30 541 O 56.3076 1.33084 1.41429 0
M  V30 542 C 53.4376 2.6657 2.22616 0
M  V30 543 C 52.3916 3.79676 1.97561 0
M  V30 544 C 51.7176 4.1918 3.31952 0
M  V30 545 C 53.0176 5.0557 1.31135 0
M  V30 546 H 54.7116 2.95538 0.479325 0
M  V30 547 H 52.2576 1.42166 0.229115 0
M  V30 548 H 54.2106 3.04344 2.91466 0
M  V30 549 H 52.9346 1.8171 2.71384 0
M  V30 550 H 51.5936 3.42347 1.31127 0
M  V30 551 H 51.2416 3.31296 3.78487 0
M  V30 552 H 50.9416 4.95402 3.15992 0
M  V30 553 H 52.4656 4.59541 4.02063 0
M  V30 554 H 53.8796 5.40903 1.89992 0
M  V30 555 H 52.2766 5.86818 1.25559 0
M  V30 556 H 53.3466 4.84062 0.284894 0
M  V30 557 N 54.6897 -0.239769 1.55765 0
M  V30 558 C 55.5997 -1.31831 1.94056 0
M  V30 559 C 56.6157 -1.52275 0.841925 0
M  V30 560 O 57.7917 -1.65759 1.14394 0
M  V30 561 C 54.8567 -2.65156 2.23368 0
M  V30 562 C 53.9177 -2.53173 3.46701 0
M  V30 563 C 53.1507 -3.8014 3.74606 0
M  V30 564 O 53.3737 -4.82343 3.04469 0
M  V30 565 O 52.3077 -3.78344 4.68123 0
M  V30 566 H 56.1337 -1.02347 2.85935 0
M  V30 567 H 53.7187 -0.441123 1.42739 0
M  V30 568 H 55.6007 -3.43929 2.43497 0
M  V30 569 H 54.2757 -2.94358 1.34666 0
M  V30 570 H 53.1827 -1.72662 3.31871 0
M  V30 571 H 54.5157 -2.28915 4.35728 0
M  V30 572 N 56.1678 -1.49265 -0.50573 0
M  V30 573 C 57.0778 -1.68312 -1.63427 0
M  V30 574 C 58.0938 -0.565682 -1.64548 0
M  V30 575 O 59.2698 -0.839801 -1.83055 0
M  V30 576 C 56.3348 -1.74107 -2.99813 0
M  V30 577 C 55.3958 -2.97653 -3.09356 0
M  V30 578 C 54.6288 -3.03163 -4.39236 0
M  V30 579 O 54.8518 -2.16396 -5.27758 0
M  V30 580 O 53.7858 -3.9558 -4.53652 0
M  V30 581 H 57.6118 -2.63907 -1.50289 0
M  V30 582 H 55.1968 -1.32951 -0.681502 0
M  V30 583 H 57.0788 -1.803 -3.80881 0
M  V30 584 H 55.7538 -0.816901 -3.13223 0
M  V30 585 H 54.6608 -2.96981 -2.27493 0
M  V30 586 H 55.9938 -3.89535 -3.00871 0
M  V30 587 N 57.6459 0.756429 -1.3826 0
M  V30 588 C 58.5759 1.88374 -1.37976 0
M  V30 589 C 59.5569 1.68311 -0.246082 0
M  V30 590 O 60.7419 1.88944 -0.44874 0
M  V30 591 C 57.8719 3.25864 -1.20125 0
M  V30 592 C 56.8259 3.60523 -2.30666 0
M  V30 593 C 56.1519 4.9672 -1.97923 0
M  V30 594 C 57.4519 3.65692 -3.72916 0
M  V30 595 H 59.1459 1.88869 -2.32312 0
M  V30 596 H 56.6919 0.907272 -1.11824 0
M  V30 597 H 58.6449 4.0438 -1.18552 0
M  V30 598 H 57.3689 3.25841 -0.222498 0
M  V30 599 H 56.0279 2.84324 -2.3142 0
M  V30 600 H 55.6759 4.93253 -0.985393 0
M  V30 601 H 55.3759 5.20878 -2.71955 0
M  V30 602 H 56.8999 5.77618 -1.97964 0
M  V30 603 H 58.3139 4.34328 -3.74208 0
M  V30 604 H 56.7109 4.01358 -4.4613 0
M  V30 605 H 57.7809 2.65987 -4.05436 0
M  V30 606 N 59.124 1.23083 0.984299 0
M  V30 607 C 60.034 1.02515 2.11016 0
M  V30 608 C 61.05 -0.0291702 1.73976 0
M  V30 609 O 62.226 0.165434 2.00719 0
M  V30 610 C 59.291 0.614673 3.41208 0
M  V30 611 C 58.352 1.74359 3.92297 0
M  V30 612 C 57.585 1.35261 5.16275 0
M  V30 613 O 57.808 0.235136 5.69915 0
M  V30 614 O 56.742 2.17227 5.61334 0
M  V30 615 H 60.568 1.96862 2.31255 0
M  V30 616 H 58.153 1.01753 1.09392 0
M  V30 617 H 60.035 0.396518 4.1953 0
M  V30 618 H 58.71 -0.299851 3.22308 0
M  V30 619 H 57.617 2.01635 3.1511 0
M  V30 620 H 58.95 2.63629 4.15645 0
M  V30 621 N 60.6021 -1.18246 1.0419 0
M  V30 622 C 61.5321 -2.24127 0.654914 0
M  V30 623 C 62.5131 -1.66617 -0.342451 0
M  V30 624 O 63.6981 -1.92924 -0.222277 0
M  V30 625 C 60.8281 -3.47295 0.0183757 0
M  V30 626 C 59.7821 -4.17563 0.939414 0
M  V30 627 C 59.1081 -5.34438 0.167286 0
M  V30 628 C 60.4081 -4.70917 2.25908 0
M  V30 629 H 62.1021 -2.56753 1.54007 0
M  V30 630 H 59.6481 -1.23414 0.74195 0
M  V30 631 H 61.6011 -4.20572 -0.264082 0
M  V30 632 H 60.3251 -3.13907 -0.901664 0
M  V30 633 H 58.9841 -3.46186 1.20628 0
M  V30 634 H 58.6321 -4.97298 -0.7552 0
M  V30 635 H 58.3321 -5.82388 0.780901 0
M  V30 636 H 59.8561 -6.10504 -0.108125 0
M  V30 637 H 61.2701 -5.35882 2.03724 0
M  V30 638 H 59.6671 -5.29406 2.82577 0
M  V30 639 H 60.7371 -3.88272 2.9047 0
M  V30 640 N 62.0802 -0.821533 -1.34494 0
M  V30 641 C 63.3572 -0.33159 -1.92769 0
M  V30 642 C 63.7372 1.18088 -1.74981 0
M  V30 643 O 63.0852 1.98733 -1.12772 0
M  V30 644 C 63.2952 -0.759398 -3.40638 0
M  V30 645 C 64.6432 -0.757433 -4.1779 0
M  V30 646 O 65.6672 -0.70189 -3.49216 0
M  V30 647 O 64.5262 -0.829361 -5.4017 0
M  V30 648 H 61.6202 -0.0902502 -0.822061 0
M  V30 649 H 64.1662 -0.906231 -1.43477 0
M  V30 650 H 62.9382 -1.8012 -3.47379 0
M  V30 651 H 62.5612 -0.160378 -3.97276 0
M  V30 652 N 63.5583 1.46682 -0.576371 0
M  V30 653 C 64.4683 2.34032 0.163141 0
M  V30 654 C 65.4843 1.49367 0.892501 0
M  V30 655 O 66.6603 1.82252 0.857106 0
M  V30 656 C 63.7253 3.26435 1.16795 0
M  V30 657 C 62.7863 4.26998 0.443944 0
M  V30 658 C 62.0193 5.14986 1.40088 0
M  V30 659 O 62.2423 5.05785 2.637 0
M  V30 660 O 61.1763 5.94906 0.914917 0
M  V30 661 H 65.0023 2.98607 -0.55388 0
M  V30 662 H 62.5873 1.45554 -0.336821 0
M  V30 663 H 64.4693 3.83459 1.74748 0
M  V30 664 H 63.1443 2.64465 1.86655 0
M  V30 665 H 62.0513 3.7368 -0.177271 0
M  V30 666 H 63.3843 4.91736 -0.213566 0
M  V30 667 N 65.0364 0.313813 1.54444 0
M  V30 668 C 65.9684 -0.590425 2.21465 0
M  V30 669 C 66.9814 -1.08753 1.21147 0
M  V30 670 O 68.1704 -1.00278 1.4767 0
M  V30 671 C 65.2704 -1.82179 2.85769 0
M  V30 672 C 64.4434 -1.46502 4.12136 0
M  V30 673 C 63.5024 -2.55288 4.60124 0
M  V30 674 O 62.5284 -2.19842 5.25032 0
M  V30 675 N 63.7304 -3.86053 4.33525 0
M  V30 676 H 66.4954 -0.0166033 2.99695 0
M  V30 677 H 64.0564 0.136578 1.61323 0
M  V30 678 H 66.0484 -2.54328 3.14801 0
M  V30 679 H 64.6184 -2.30369 2.11303 0
M  V30 680 H 63.8384 -0.575595 3.89975 0
M  V30 681 H 65.1264 -1.20221 4.94393 0
M  V30 682 H 64.5244 -4.17654 3.81552 0
M  V30 683 H 63.0814 -4.54461 4.67235 0
M  V30 684 N 66.5145 -1.57545 0.0417849 0
M  V30 685 C 67.4465 -2.07904 -0.964799 0
M  V30 686 C 68.4595 -1.00497 -1.28079 0
M  V30 687 O 69.6485 -1.28087 -1.24322 0
M  V30 688 C 66.7485 -2.49928 -2.28887 0
M  V30 689 C 65.9215 -3.80562 -2.15619 0
M  V30 690 C 64.9805 -4.08999 -3.31069 0
M  V30 691 O 64.0065 -4.79061 -3.0739 0
M  V30 692 N 65.2085 -3.6017 -4.55256 0
M  V30 693 H 67.9735 -2.94886 -0.535029 0
M  V30 694 H 65.5345 -1.61252 -0.144681 0
M  V30 695 H 67.5265 -2.66034 -3.04972 0
M  V30 696 H 66.0965 -1.68245 -2.63463 0
M  V30 697 H 65.3165 -3.74129 -1.24183 0
M  V30 698 H 66.6045 -4.66126 -2.03971 0
M  V30 699 H 66.0025 -3.03512 -4.77386 0
M  V30 700 H 64.5595 -3.81532 -5.28466 0
M  V30 701 N 67.9926 0.231505 -1.5589 0
M  V30 702 C 69.4086 0.580748 -1.48659 0
M  V30 703 C 69.6086 1.87617 -0.73498 0
M  V30 704 O 68.6646 2.51046 -0.270586 0
M  V30 705 C 69.9776 0.669202 -2.93159 0
M  V30 706 C 71.5256 0.760499 -3.03621 0
M  V30 707 C 72.0006 0.880383 -4.49459 0
M  V30 708 N 73.4916 0.944861 -4.53461 0
M  V30 709 C 74.2266 1.05716 -5.63571 0
M  V30 710 N 73.7226 1.13403 -6.83456 0
M  V30 711 N 75.5156 1.09152 -5.514 0
M  V30 712 H 67.6666 -0.618695 -2.03189 0
M  V30 713 H 69.9296 -0.215728 -0.923128 0
M  V30 714 H 69.6356 -0.212904 -3.51055 0
M  V30 715 H 69.5096 1.5361 -3.44505 0
M  V30 716 H 71.8966 1.63305 -2.45796 0
M  V30 717 H 71.9776 -0.131864 -2.5546 0
M  V30 718 H 71.6216 0.0123284 -5.07899 0
M  V30 719 H 71.5516 1.78802 -4.95316 0
M  V30 720 H 74.0426 0.896176 -3.6712 0
M  V30 721 H 74.3556 1.21921 -7.63122 0
M  V30 722 H 72.7006 1.10333 -6.86186 0
M  V30 723 H 75.8916 1.02805 -4.56671 0
M  V30 724 H 76.0646 1.17558 -6.37247 0
M  V30 725 N 69.4707 1.49531 0.497807 0
M  V30 726 C 70.4177 1.66436 1.59899 0
M  V30 727 C 71.3877 0.505793 1.58212 0
M  V30 728 O 72.5727 0.733202 1.7615 0
M  V30 729 C 69.7127 1.7399 2.98029 0
M  V30 730 C 68.8257 3.01172 3.09708 0
M  V30 731 C 67.9607 2.99686 4.38591 0
M  V30 732 C 66.9997 4.21434 4.43914 0
M  V30 733 N 66.1367 4.1784 5.64229 0
M  V30 734 H 70.9767 2.60459 1.44793 0
M  V30 735 H 68.5137 1.29137 0.704423 0
M  V30 736 H 70.4717 1.76352 3.78095 0
M  V30 737 H 69.1017 0.834301 3.11832 0
M  V30 738 H 68.1537 3.08408 2.22685 0
M  V30 739 H 69.4657 3.91165 3.09502 0
M  V30 740 H 68.6197 3.00628 5.2698 0
M  V30 741 H 67.3587 2.07477 4.41367 0
M  V30 742 H 66.3637 4.20733 3.53926 0
M  V30 743 H 67.5887 5.14839 4.42851 0
M  V30 744 H 65.5347 3.28469 5.67841 0
M  V30 745 H 65.4517 5.01571 5.65652 0
M  V30 746 H 66.7197 4.22889 6.54817 0
M  V30 747 N 70.9488 -0.749086 1.3866 0
M  V30 748 C 72.3648 -1.05276 1.19955 0
M  V30 749 C 72.5648 -2.01435 0.05134 0
M  V30 750 O 71.6208 -2.45232 -0.60147 0
M  V30 751 C 72.9338 -1.62853 2.52783 0
M  V30 752 C 74.4818 -1.75002 2.59506 0
M  V30 753 C 74.9568 -2.35991 3.92521 0
M  V30 754 N 76.4478 -2.43416 3.94085 0
M  V30 755 C 77.1828 -2.91511 4.9377 0
M  V30 756 N 76.6788 -3.39608 6.03853 0
M  V30 757 N 78.4718 -2.90592 4.81157 0
M  V30 758 H 70.6228 -0.111066 2.12109 0
M  V30 759 H 72.8858 -0.111901 0.941373 0
M  V30 760 H 72.5918 -0.99664 3.37283 0
M  V30 761 H 72.4658 -2.61854 2.715 0
M  V30 762 H 74.8528 -2.37317 1.75398 0
M  V30 763 H 74.9338 -0.74693 2.44652 0
M  V30 764 H 74.5778 -1.74308 4.77053 0
M  V30 765 H 74.5078 -3.3695 4.04688 0
M  V30 766 H 76.9988 -2.09405 3.14576 0
M  V30 767 H 77.3118 -3.74775 6.75843 0
M  V30 768 H 75.6568 -3.37653 6.07466 0
M  V30 769 H 78.8478 -2.52332 3.94267 0
M  V30 770 H 79.0208 -3.27762 5.58996 0
M  V30 771 N 72.4269 -1.23603 -0.977757 0
M  V30 772 C 73.3569 -1.04401 -2.0886 0
M  V30 773 C 74.3379 0.0399052 -1.70053 0
M  V30 774 O 75.5229 -0.125246 -1.93796 0
M  V30 775 C 72.6529 -0.637269 -3.41403 0
M  V30 776 C 71.6069 -1.66883 -3.94124 0
M  V30 777 C 70.9329 -1.11745 -5.22893 0
M  V30 778 C 72.2329 -3.06247 -4.23096 0
M  V30 779 H 73.9269 -1.97316 -2.25182 0
M  V30 780 H 71.4729 -0.950096 -1.08209 0
M  V30 781 H 73.4259 -0.48998 -4.18542 0
M  V30 782 H 72.1499 0.327557 -3.24953 0
M  V30 783 H 70.8089 -1.80416 -3.19133 0
M  V30 784 H 70.4569 -0.143527 -5.02795 0
M  V30 785 H 70.1569 -1.80672 -5.59134 0
M  V30 786 H 71.6809 -0.982067 -6.02651 0
M  V30 787 H 73.0949 -2.96001 -4.90975 0
M  V30 788 H 71.4919 -3.72436 -4.70544 0
M  V30 789 H 72.5619 -3.55041 -3.30263 0
M  V30 790 N 73.905 1.17692 -1.04816 0
M  V30 791 C 74.815 2.25229 -0.65643 0
M  V30 792 C 75.831 1.71018 0.320761 0
M  V30 793 O 77.007 2.00649 0.173805 0
M  V30 794 C 74.072 3.46684 -0.0332629 0
M  V30 795 C 73.133 4.15997 -1.06042 0
M  V30 796 C 72.366 5.31654 -0.466893 0
M  V30 797 O 72.589 5.65777 0.724758 0
M  V30 798 O 71.523 5.89831 -1.1993 0
M  V30 799 H 75.349 2.61016 -1.55255 0
M  V30 800 H 72.934 1.24919 -0.81949 0
M  V30 801 H 74.816 4.20234 0.313256 0
M  V30 802 H 73.491 3.12703 0.836566 0
M  V30 803 H 72.398 3.44482 -1.45886 0
M  V30 804 H 73.731 4.53996 -1.90127 0
M  V30 805 N 75.3831 0.828654 1.34056 0
M  V30 806 C 76.3461 0.259927 2.27721 0
M  V30 807 C 77.3461 -0.565478 1.50529 0
M  V30 808 O 78.5361 -0.38075 1.69988 0
M  V30 809 C 75.6681 -0.634944 3.34935 0
M  V30 810 H 76.8611 1.0863 2.79534 0
M  V30 811 H 74.4141 0.600951 1.44285 0
M  V30 812 H 75.1491 -1.48416 2.88346 0
M  V30 813 H 74.9341 -0.0444999 3.92075 0
M  V30 814 H 76.4241 -1.02648 4.04788 0
M  V30 815 N 76.8612 -1.46375 0.584142 0
M  V30 816 C 78.1082 -2.02378 0.0702675 0
M  V30 817 C 78.4362 -1.45545 -1.29023 0
M  V30 818 O 77.6912 -0.610967 -1.85918 0
M  V30 819 C 77.9902 -3.57373 -0.0439342 0
M  V30 820 C 77.6562 -4.33252 1.24915 0
M  V30 821 C 76.3182 -4.53701 1.60341 0
M  V30 822 C 78.6702 -4.7681 2.1048 0
M  V30 823 C 75.9982 -5.1496 2.81128 0
M  V30 824 C 78.3502 -5.39404 3.30494 0
M  V30 825 C 77.0142 -5.5808 3.66201 0
M  V30 826 H 76.2842 -0.740554 0.0257127 0
M  V30 827 H 78.9312 -1.75727 0.761065 0
M  V30 828 H 77.2362 -3.83169 -0.817869 0
M  V30 829 H 78.9332 -3.98384 -0.457318 0
M  V30 830 H 75.5232 -4.17633 0.963364 0
M  V30 831 H 79.7072 -4.60766 1.84414 0
M  V30 832 H 74.9632 -5.27611 3.08928 0
M  V30 833 H 79.1372 -5.72114 3.97063 0
M  V30 834 H 76.7642 -6.05318 4.59885 0
M  V30 835 N 78.3393 -0.321999 -1.54275 0
M  V30 836 C 79.2693 0.537411 -2.27231 0
M  V30 837 C 80.2503 1.12064 -1.27968 0
M  V30 838 O 81.4353 1.14606 -1.56777 0
M  V30 839 C 78.5653 1.69919 -3.02894 0
M  V30 840 C 77.5193 1.24534 -4.09482 0
M  V30 841 C 76.8453 2.49394 -4.72977 0
M  V30 842 C 78.1453 0.361335 -5.21049 0
M  V30 843 H 79.8393 -0.0711406 -2.99315 0
M  V30 844 H 77.3853 -0.0356555 -1.43956 0
M  V30 845 H 79.3383 2.30668 -3.52662 0
M  V30 846 H 78.0623 2.33431 -2.28424 0
M  V30 847 H 76.7213 0.660782 -3.60596 0
M  V30 848 H 76.3693 3.11265 -3.95124 0
M  V30 849 H 76.0693 2.19718 -5.44975 0
M  V30 850 H 77.5933 3.10908 -5.25517 0
M  V30 851 H 79.0073 0.875072 -5.66582 0
M  V30 852 H 77.4043 0.157428 -5.99893 0
M  V30 853 H 78.4743 -0.60822 -4.8107 0
M  V30 854 N 79.8174 1.5752 -0.0501392 0
M  V30 855 C 81.0454 1.96963 0.633492 0
M  V30 856 C 81.4604 0.927631 1.6444 0
M  V30 857 O 80.8174 -0.0882665 1.82286 0
M  V30 858 C 80.8684 3.36487 1.32132 0
M  V30 859 O 80.5894 4.36693 0.350894 0
M  V30 860 C 82.0904 3.90682 2.09481 0
M  V30 861 H 79.3104 0.648244 0.173266 0
M  V30 862 H 81.8544 2.0417 -0.116134 0
M  V30 863 H 80.0094 3.30434 2.02218 0
M  V30 864 H 80.4234 5.17702 0.841735 0
M  V30 865 H 81.8974 4.90591 2.5303 0
M  V30 866 H 82.3744 3.26053 2.94255 0
M  V30 867 H 82.9804 4.00069 1.44307 0
M  V30 868 N 81.2955 -0.223234 1.56011 0
M  V30 869 C 82.2275 -1.30006 1.88762 0
M  V30 870 C 83.2405 -1.43129 0.775746 0
M  V30 871 O 84.4295 -1.44057 1.05403 0
M  V30 872 C 81.5295 -2.67589 2.07965 0
M  V30 873 C 80.7025 -2.76434 3.38973 0
M  V30 874 C 79.7615 -3.95019 3.47629 0
M  V30 875 O 78.7875 -3.83436 4.20672 0
M  V30 876 N 79.9895 -5.09249 2.78649 0
M  V30 877 H 82.7545 -1.02238 2.81722 0
M  V30 878 H 80.3155 -0.413278 1.56536 0
M  V30 879 H 82.3075 -3.45297 2.11073 0
M  V30 880 H 80.8775 -2.87964 1.21638 0
M  V30 881 H 80.0975 -1.85216 3.47978 0
M  V30 882 H 81.3855 -2.79313 4.25278 0
M  V30 883 H 80.7835 -5.21556 2.19081 0
M  V30 884 H 79.3405 -5.85007 2.8742 0
M  V30 885 N 82.7736 -1.49793 -0.48987 0
M  V30 886 C 83.7206 -1.67281 -1.59014 0
M  V30 887 C 84.6906 -0.514177 -1.57941 0
M  V30 888 O 85.8756 -0.742533 -1.75759 0
M  V30 889 C 83.0156 -1.75569 -2.97102 0
M  V30 890 C 82.1286 -3.0281 -3.08107 0
M  V30 891 C 81.2636 -3.02008 -4.36995 0
M  V30 892 C 80.3026 -4.23782 -4.41673 0
M  V30 893 N 79.4396 -4.20826 -5.62005 0
M  V30 894 H 84.2796 -2.61224 -1.43409 0
M  V30 895 H 81.8166 -1.29508 -0.697565 0
M  V30 896 H 83.7746 -1.78354 -3.77155 0
M  V30 897 H 82.4046 -0.850827 -3.11385 0
M  V30 898 H 81.4566 -3.09584 -2.21047 0
M  V30 899 H 82.7686 -3.92801 -3.07423 0
M  V30 900 H 81.9226 -3.03418 -5.25378 0
M  V30 901 H 80.6616 -2.09815 -4.4026 0
M  V30 902 H 79.6666 -4.22604 -3.5169 0
M  V30 903 H 80.8916 -5.17181 -4.40115 0
M  V30 904 H 78.8376 -3.31476 -5.66091 0
M  V30 905 H 78.7546 -5.04564 -5.62984 0
M  V30 906 H 80.0226 -4.26355 -6.52565 0
M  V30 907 N 84.2517 0.741722 -1.39055 0
M  V30 908 C 85.1837 1.8657 -1.33133 0
M  V30 909 C 86.1967 1.61001 -0.241329 0
M  V30 910 O 87.3857 1.7136 -0.499784 0
M  V30 911 C 84.4857 3.22457 -1.04283 0
M  V30 912 C 83.6587 3.75435 -2.24427 0
M  V30 913 C 82.7177 4.89867 -1.92138 0
M  V30 914 O 81.7437 5.03879 -2.64754 0
M  V30 915 N 82.9457 5.73738 -0.88347 0
M  V30 916 H 85.7107 1.92156 -2.29991 0
M  V30 917 H 83.2717 0.922172 -1.3307 0
M  V30 918 H 85.2637 3.9657 -0.807128 0
M  V30 919 H 83.8337 3.12181 -0.161807 0
M  V30 920 H 83.0537 2.92751 -2.6399 0
M  V30 921 H 84.3417 4.07563 -3.04581 0
M  V30 922 H 83.7397 5.64999 -0.281517 0
M  V30 923 H 82.2967 6.47947 -0.707662 0
M  V30 924 N 85.7298 1.2412 0.971189 0
M  V30 925 C 86.6768 1.0305 2.06517 0
M  V30 926 C 87.6468 -0.0550666 1.66009 0
M  V30 927 O 88.8318 0.0988688 1.90544 0
M  V30 928 C 85.9718 0.637653 3.39158 0
M  V30 929 C 85.0848 1.79633 3.92882 0
M  V30 930 C 84.2198 1.34939 5.13775 0
M  V30 931 C 83.2588 2.47823 5.59687 0
M  V30 932 N 82.3958 2.04022 6.71803 0
M  V30 933 H 87.2358 1.96685 2.23873 0
M  V30 934 H 84.7728 0.979694 1.09729 0
M  V30 935 H 86.7308 0.390931 4.15364 0
M  V30 936 H 85.3608 -0.261693 3.21737 0
M  V30 937 H 84.4128 2.15681 3.13346 0
M  V30 938 H 85.7248 2.64466 4.22918 0
M  V30 939 H 84.8788 1.06134 5.97345 0
M  V30 940 H 83.6178 0.471557 4.85415 0
M  V30 941 H 82.6228 2.77392 4.74693 0
M  V30 942 H 83.8478 3.36158 5.90063 0
M  V30 943 H 81.7938 1.18632 6.45184 0
M  V30 944 H 81.7108 2.82409 7.01271 0
M  V30 945 H 82.9788 1.78347 7.58823 0
M  V30 946 N 87.2079 -1.17134 1.05439 0
M  V30 947 C 88.4539 -1.87733 0.767077 0
M  V30 948 C 88.7869 -1.8098 -0.704253 0
M  V30 949 O 88.0619 -1.21951 -1.5152 0
M  V30 950 C 88.3449 -3.37659 1.25133 0
M  V30 951 C 88.1979 -3.53149 2.78578 0
M  V30 952 C 89.5169 -4.31768 0.852324 0
M  V30 953 H 86.6359 -0.681687 0.280129 0
M  V30 954 H 89.2779 -1.37732 1.30881 0
M  V30 955 H 87.4279 -3.80373 0.790469 0
M  V30 956 H 89.0999 -3.19434 3.32806 0
M  V30 957 H 87.3429 -2.95345 3.17732 0
M  V30 958 H 88.0139 -4.58403 3.07523 0
M  V30 959 H 90.4899 -3.96909 1.24911 0
M  V30 960 H 89.3659 -5.35199 1.21873 0
M  V30 961 H 89.6269 -4.41429 -0.243485 0
M  V30 962 N 88.686 -0.835752 -1.33615 0
M  V30 963 C 89.934 -0.429109 -1.97492 0
M  V30 964 C 90.255 1.01433 -1.66543 0
M  V30 965 O 89.525 1.70611 -0.962744 0
M  V30 966 H 88.105 -0.155686 -0.730596 0
M  V30 967 H 90.767 -1.06802 -1.63031 0
M  V30 968 H 89.863 -0.55861 -3.0706 0
M  V30 969 N 90.1641 1.46063 -0.591896 0
M  V30 970 C 91.0741 2.34192 0.13831 0
M  V30 971 C 92.0901 1.50305 0.876608 0
M  V30 972 O 93.2661 1.8315 0.837728 0
M  V30 973 C 90.3311 3.27656 1.13326 0
M  V30 974 C 89.3921 4.27445 0.39863 0
M  V30 975 C 88.6251 5.16443 1.34618 0
M  V30 976 O 88.8481 5.08553 2.58321 0
M  V30 977 O 87.7821 5.95843 0.851768 0
M  V30 978 H 91.6081 2.98002 -0.58552 0
M  V30 979 H 89.1931 1.45188 -0.352239 0
M  V30 980 H 91.0751 3.85291 1.70671 0
M  V30 981 H 89.7501 2.6643 1.83839 0
M  V30 982 H 88.6571 3.73471 -0.216895 0
M  V30 983 H 89.9901 4.91482 -0.265709 0
M  V30 984 N 91.6422 0.330177 1.54103 0
M  V30 985 C 92.5722 -0.525353 2.27513 0
M  V30 986 C 93.5532 -1.11383 1.2856 0
M  V30 987 O 94.7382 -1.13773 1.57383 0
M  V30 988 C 91.8682 -1.6831 3.03791 0
M  V30 989 C 90.8222 -1.2236 4.10137 0
M  V30 990 C 90.1482 -2.46882 4.74293 0
M  V30 991 C 91.4482 -0.333697 5.21233 0
M  V30 992 H 93.1422 0.087013 2.99274 0
M  V30 993 H 90.6882 0.0432893 1.43935 0
M  V30 994 H 92.6412 -2.28795 3.5388 0
M  V30 995 H 91.3652 -2.32216 2.29659 0
M  V30 996 H 90.0242 -0.64165 3.60941 0
M  V30 997 H 89.6722 -3.09165 3.96769 0
M  V30 998 H 89.3722 -2.16825 5.46133 0
M  V30 999 H 90.8962 -3.08117 5.27159 0
M  V30 1000 H 92.3102 -0.845013 5.67038 0
M  V30 1001 H 90.7072 -0.125612 5.99969 0
M  V30 1002 H 91.7772 0.633724 4.80741 0
M  V30 1003 N 93.1203 -1.57491 0.0584922 0
M  V30 1004 C 94.0673 -2.11958 -0.913376 0
M  V30 1005 C 95.0373 -1.02875 -1.30407 0
M  V30 1006 O 96.2223 -1.30464 -1.39226 0
M  V30 1007 C 93.3623 -2.67497 -2.18035 0
M  V30 1008 C 92.4753 -3.90691 -1.84349 0
M  V30 1009 C 91.6103 -4.3452 -3.05559 0
M  V30 1010 C 90.6493 -5.50395 -2.67827 0
M  V30 1011 N 89.7863 -5.89244 -3.81754 0
M  V30 1012 H 94.6263 -2.94704 -0.442017 0
M  V30 1013 H 92.1633 -1.45643 -0.206545 0
M  V30 1014 H 94.1213 -2.978 -2.92183 0
M  V30 1015 H 92.7513 -1.87537 -2.62735 0
M  V30 1016 H 91.8033 -3.66934 -1.00319 0
M  V30 1017 H 93.1153 -4.7489 -1.5258 0
M  V30 1018 H 92.2693 -4.66414 -3.87998 0
M  V30 1019 H 91.0083 -3.49147 -3.40511 0
M  V30 1020 H 90.0133 -5.18165 -1.83806 0
M  V30 1021 H 91.2383 -6.3749 -2.34059 0
M  V30 1022 H 89.1843 -5.06823 -4.16493 0
M  V30 1023 H 89.1013 -6.68151 -3.53708 0
M  V30 1024 H 90.3693 -6.25756 -4.64811 0
M  V30 1025 N 94.5984 0.214957 -1.56127 0
M  V30 1026 C 95.8754 0.963093 -1.70247 0
M  V30 1027 C 96.2554 2.02166 -0.60764 0
M  V30 1028 O 95.6034 2.25244 0.384385 0
M  V30 1029 C 95.8134 1.56756 -3.11815 0
M  V30 1030 C 97.1614 2.0573 -3.7143 0
M  V30 1031 O 98.1854 1.66637 -3.14818 0
M  V30 1032 O 97.0444 2.77603 -4.70743 0
M  V30 1033 H 94.1384 0.450321 -0.693643 0
M  V30 1034 H 96.6844 0.206219 -1.68442 0
M  V30 1035 H 95.4564 0.803533 -3.82961 0
M  V30 1036 H 95.0794 2.3898 -3.17765 0
M  V30 1037 N 96.0765 1.50051 0.48192 0
M  V30 1038 C 97.3535 1.51009 1.2432 0
M  V30 1039 C 97.7335 0.248587 2.09631 0
M  V30 1040 O 97.0815 -0.768409 2.15192 0
M  V30 1041 C 97.2915 2.79981 2.08355 0
M  V30 1042 C 98.6395 3.3022 2.66908 0
M  V30 1043 O 99.6635 2.81228 2.18607 0
M  V30 1044 O 98.5225 4.15595 3.54884 0
M  V30 1045 H 95.6165 0.605239 0.563573 0
M  V30 1046 H 98.1625 1.62332 0.494627 0
M  V30 1047 H 96.9345 3.63275 1.45419 0
M  V30 1048 H 96.5575 2.7161 2.90368 0
M  V30 1049 N 97.5546 -0.734337 1.39446 0
M  V30 1050 C 98.8316 -1.48579 1.27215 0
M  V30 1051 C 99.2116 -2.1077 -0.117968 0
M  V30 1052 O 98.5596 -1.98646 -1.12924 0
M  V30 1053 C 98.7696 -2.53667 2.39696 0
M  V30 1054 C 100.118 -3.20031 2.79044 0
M  V30 1055 O 101.142 -2.6398 2.39151 0
M  V30 1056 O 100.001 -4.21455 3.47905 0
M  V30 1057 H 97.0946 -0.659816 0.49857 0
M  V30 1058 H 99.6406 -0.768106 1.51322 0
M  V30 1059 H 98.4126 -2.06096 3.32626 0
M  V30 1060 H 98.0356 -3.32994 2.17258 0
M  V30 1061 N 99.0327 -1.24633 -0.964593 0
M  V30 1062 C 100.28 -1.08788 -1.70796 0
M  V30 1063 C 100.608 0.372783 -1.90894 0
M  V30 1064 O 99.8627 1.29167 -1.47018 0
M  V30 1065 C 100.162 -1.7763 -3.10133 0
M  V30 1066 C 99.8277 -3.27557 -3.09866 0
M  V30 1067 C 98.4897 -3.6846 -3.09501 0
M  V30 1068 C 100.842 -4.23389 -3.03959 0
M  V30 1069 C 98.1697 -5.03624 -3.00965 0
M  V30 1070 C 100.522 -5.58565 -2.96965 0
M  V30 1071 C 99.1857 -5.98809 -2.9493 0
M  V30 1072 H 98.4557 -0.398084 -0.624988 0
M  V30 1073 H 101.103 -1.54777 -1.12767 0
M  V30 1074 H 99.4077 -1.24044 -3.71645 0
M  V30 1075 H 101.105 -1.62832 -3.66451 0
M  V30 1076 H 97.6947 -2.95006 -3.10917 0
M  V30 1077 H 101.879 -3.92787 -3.03368 0
M  V30 1078 H 97.1347 -5.33998 -2.97752 0
M  V30 1079 H 101.309 -6.32523 -2.91354 0
M  V30 1080 H 98.9357 -7.03505 -2.88071 0
M  V30 1081 N 100.511 1.16574 -1.06058 0
M  V30 1082 C 101.421 2.2452 -0.680282 0
M  V30 1083 C 102.437 1.71348 0.302604 0
M  V30 1084 O 103.613 2.00822 0.152513 0
M  V30 1085 C 100.678 3.46629 -0.0700315 0
M  V30 1086 C 99.7388 4.14849 -1.10448 0
M  V30 1087 C 98.9718 5.31129 -0.523256 0
M  V30 1088 O 99.1948 5.66514 0.664709 0
M  V30 1089 O 98.1288 5.88526 -1.26179 0
M  V30 1090 H 101.955 2.59355 -1.58015 0
M  V30 1091 H 99.5398 1.24043 -0.832694 0
M  V30 1092 H 101.422 4.20543 0.268667 0
M  V30 1093 H 100.097 3.13573 0.803353 0
M  V30 1094 H 99.0038 3.42916 -1.49532 0
M  V30 1095 H 100.337 4.51954 -1.94931 0
M  V30 1096 N 101.989 0.842826 1.3317 0
M  V30 1097 C 102.936 0.276885 2.29133 0
M  V30 1098 C 103.906 -0.609527 1.54512 0
M  V30 1099 O 105.091 -0.546955 1.82792 0
M  V30 1100 C 102.231 -0.538707 3.40869 0
M  V30 1101 C 101.344 0.372169 4.30394 0
M  V30 1102 C 100.479 -0.454908 5.29249 0
M  V30 1103 C 99.5179 0.45411 6.10413 0
M  V30 1104 N 98.6549 -0.335075 7.013 0
M  V30 1105 H 103.495 1.10052 2.76934 0
M  V30 1106 H 101.032 0.554161 1.36262 0
M  V30 1107 H 102.99 -1.02709 4.0436 0
M  V30 1108 H 101.62 -1.32727 2.9425 0
M  V30 1109 H 100.672 0.97888 3.6759 0
M  V30 1110 H 101.984 1.0703 4.87182 0
M  V30 1111 H 101.138 -1.00695 5.98285 0
M  V30 1112 H 99.8769 -1.18646 4.73048 0
M  V30 1113 H 98.8819 1.01813 5.40291 0
M  V30 1114 H 100.107 1.18409 6.68697 0
M  V30 1115 H 98.0529 -1.04994 6.47543 0
M  V30 1116 H 97.9699 0.304262 7.55387 0
M  V30 1117 H 99.2379 -0.869224 7.74638 0
M  V30 1118 N 103.467 -1.45747 0.599634 0
M  V30 1119 C 104.716 -2.01502 0.0893511 0
M  V30 1120 C 105.029 -1.4748 -1.28488 0
M  V30 1121 O 106.235 -1.95161 -1.88745 0
M  V30 1122 C 104.691 -3.59735 0.109082 0
M  V30 1123 C 104.299 -4.22754 1.48267 0
M  V30 1124 C 106.043 -4.23085 -0.346374 0
M  V30 1125 C 103.95 -5.73115 1.45921 0
M  V30 1126 H 102.88 -0.753417 0.0296347 0
M  V30 1127 H 105.531 -1.67303 0.753788 0
M  V30 1128 H 103.913 -3.91087 -0.621854 0
M  V30 1129 H 105.087 -4.02987 2.23468 0
M  V30 1130 H 103.402 -3.71567 1.87955 0
M  V30 1131 H 105.999 -5.33327 -0.38298 0
M  V30 1132 H 106.342 -3.93201 -1.36743 0
M  V30 1133 H 106.875 -3.9642 0.331038 0
M  V30 1134 H 103.614 -6.07685 2.45762 0
M  V30 1135 H 103.134 -5.95097 0.749665 0
M  V30 1136 H 104.813 -6.3616 1.17941 0
M  V30 1137 N 104.945 -0.338344 -1.53925 0
M  V30 1138 C 106.17 0.263987 -2.05713 0
M  V30 1139 C 106.595 1.43847 -1.21201 0
M  V30 1140 O 105.953 1.79904 -0.224535 0
M  V30 1141 C 106.001 0.662 -3.54471 0
M  V30 1142 O 105.105 1.76265 -3.72833 0
M  V30 1143 H 104.446 0.0448722 -0.662482 0
M  V30 1144 H 106.976 -0.491048 -1.9862 0
M  V30 1145 H 106.986 0.940594 -3.9701 0
M  V30 1146 H 105.661 -0.196937 -4.15433 0
M  V30 1147 H 104.238 1.48173 -3.42198 0
M  V30 1148 N 106.423 1.57458 -0.0668435 0
M  V30 1149 C 107.333 2.15937 0.916975 0
M  V30 1150 C 108.349 1.12123 1.33058 0
M  V30 1151 O 109.525 1.44366 1.40429 0
M  V30 1152 C 106.59 2.70547 2.16807 0
M  V30 1153 C 105.651 3.89215 1.81135 0
M  V30 1154 C 104.884 4.41211 3.0028 0
M  V30 1155 O 105.107 3.92225 4.14144 0
M  V30 1156 O 104.041 5.32605 2.80384 0
M  V30 1157 H 107.867 3.00354 0.449561 0
M  V30 1158 H 105.452 1.48584 0.155949 0
M  V30 1159 H 107.334 3.0557 2.90181 0
M  V30 1160 H 106.009 1.89192 2.62656 0
M  V30 1161 H 104.916 3.59054 1.05028 0
M  V30 1162 H 106.249 4.71848 1.40073 0
M  V30 1163 N 107.901 -0.206675 1.56239 0
M  V30 1164 C 108.831 -1.25909 1.96645 0
M  V30 1165 C 109.812 -1.48097 0.836734 0
M  V30 1166 O 110.997 -1.6003 1.10019 0
M  V30 1167 C 108.127 -2.6058 2.29599 0
M  V30 1168 C 107.081 -2.53024 3.452 0
M  V30 1169 C 106.407 -3.91861 3.63798 0
M  V30 1170 C 107.707 -2.06524 4.79734 0
M  V30 1171 H 109.401 -0.923369 2.84806 0
M  V30 1172 H 106.947 -0.442735 1.37025 0
M  V30 1173 H 108.9 -3.34375 2.56459 0
M  V30 1174 H 107.624 -2.95869 1.38307 0
M  V30 1175 H 106.283 -1.81684 3.18412 0
M  V30 1176 H 105.931 -4.24483 2.69857 0
M  V30 1177 H 105.631 -3.87683 4.4156 0
M  V30 1178 H 107.155 -4.67296 3.93022 0
M  V30 1179 H 108.569 -2.70072 5.05702 0
M  V30 1180 H 106.966 -2.13374 5.60885 0
M  V30 1181 H 108.036 -1.01802 4.74093 0
M  V30 1182 N 109.379 -1.50304 -0.473955 0
M  V30 1183 C 110.627 -1.60832 -1.22382 0
M  V30 1184 C 110.948 -0.30939 -1.9253 0
M  V30 1185 O 110.218 0.67296 -1.83978 0
M  V30 1186 H 108.798 -0.592652 -0.454723 0
M  V30 1187 H 111.46 -1.87068 -0.546968 0
M  V30 1188 H 110.556 -2.41803 -1.97327 0
M  V30 1189 N 110.857 0.726932 -1.39834 0
M  V30 1190 C 111.82 1.82269 -1.38962 0
M  V30 1191 C 112.82 1.58248 -0.285334 0
M  V30 1192 O 114.01 1.65499 -0.54366 0
M  V30 1193 C 111.142 3.20186 -1.17019 0
M  V30 1194 H 112.335 1.84443 -2.36476 0
M  V30 1195 H 109.888 0.931416 -1.25516 0
M  V30 1196 H 110.623 3.23669 -0.202204 0
M  V30 1197 H 110.408 3.3902 -1.96998 0
M  V30 1198 H 111.898 4.00235 -1.1917 0
M  V30 1199 N 112.336 1.25143 0.95797 0
M  V30 1200 C 113.584 1.09476 1.69881 0
M  V30 1201 C 113.905 -0.365502 1.91544 0
M  V30 1202 O 113.175 -1.25985 1.50015 0
M  V30 1203 H 111.755 0.402128 0.629525 0
M  V30 1204 H 114.417 1.57214 1.15194 0
M  V30 1205 H 113.513 1.60046 2.6794 0
M  V30 1206 N 113.814 -1.1601 1.06675 0
M  V30 1207 C 114.762 -2.22586 0.675157 0
M  V30 1208 C 115.756 -1.66525 -0.310766 0
M  V30 1209 O 116.962 -1.79145 -0.175215 0
M  V30 1210 H 113.337 -0.724855 0.200223 0
M  V30 1211 H 115.308 -2.52899 1.58381 0
M  V30 1212 C 114.057 -3.47604 0.0817162 0
M  V30 1213 H 113.38 -3.91058 0.831484 0
M  V30 1214 H 114.82 -4.23718 -0.154708 0
M  V30 1215 C 113.279 -3.15718 -1.17576 0
M  V30 1216 O 113.809 -3.31878 -2.26318 0
M  V30 1217 N 112.015 -2.69816 -1.07923 0
M  V30 1218 H 111.562 -2.56866 -0.194293 0
M  V30 1219 H 111.52 -2.48855 -1.92141 0
M  V30 1220 N 115.292 -0.849877 -1.32721 0
M  V30 1221 C 116.54 -0.450032 -1.97026 0
M  V30 1222 C 116.861 0.996604 -1.67609 0
M  V30 1223 O 116.131 1.6958 -0.980786 0
M  V30 1224 H 114.711 -0.163426 -0.728904 0
M  V30 1225 H 117.373 -1.08526 -1.6189 0
M  V30 1226 H 116.469 -0.591146 -3.0645 0
M  V30 1227 N 116.77 1.45427 -0.607355 0
M  V30 1228 C 118.018 2.01841 -0.102253 0
M  V30 1229 C 118.339 1.47832 1.27164 0
M  V30 1230 O 117.609 0.672497 1.83995 0
M  V30 1231 H 116.189 0.746188 -0.0348101 0
M  V30 1232 H 118.851 1.78229 -0.7887 0
M  V30 1233 H 117.947 3.12057 -0.0518585 0
M  V30 1234 N 118.248 0.346503 1.53744 0
M  V30 1235 C 119.494 -0.249473 2.0126 0
M  V30 1236 C 119.827 -1.49965 1.23386 0
M  V30 1237 O 119.102 -1.91811 0.32229 0
M  V30 1238 C 119.385 -0.560643 3.55709 0
M  V30 1239 C 119.238 0.701836 4.44291 0
M  V30 1240 C 120.557 -1.36905 4.18264 0
M  V30 1241 H 117.676 -0.0891987 0.731582 0
M  V30 1242 H 120.318 0.467624 1.84156 0
M  V30 1243 H 118.468 -1.17156 3.70414 0
M  V30 1244 H 120.14 1.33974 4.41417 0
M  V30 1245 H 118.383 1.32612 4.13033 0
M  V30 1246 H 119.054 0.43933 5.50249 0
M  V30 1247 H 121.53 -0.852448 4.07275 0
M  V30 1248 H 120.406 -1.55553 5.26398 0
M  V30 1249 H 120.667 -2.37203 3.73078 0
M  V30 1250 N 119.726 -1.57421 0.075193 0
M  V30 1251 C 120.972 -1.93905 -0.594025 0
M  V30 1252 C 121.305 -0.955701 -1.69056 0
M  V30 1253 O 120.58 0.0145373 -1.94495 0
M  V30 1254 C 120.863 -3.40638 -1.1678 0
M  V30 1255 C 120.716 -4.49733 -0.0776792 0
M  V30 1256 C 122.035 -3.88259 -2.07228 0
M  V30 1257 H 119.154 -0.705105 -0.214466 0
M  V30 1258 H 121.796 -1.8947 0.141854 0
M  V30 1259 H 119.946 -3.44549 -1.79494 0
M  V30 1260 H 121.618 -4.57942 0.555573 0
M  V30 1261 H 119.861 -4.29751 0.591286 0
M  V30 1262 H 120.532 -5.49549 -0.519603 0
M  V30 1263 H 123.008 -3.86376 -1.54445 0
M  V30 1264 H 121.884 -4.91533 -2.44308 0
M  V30 1265 H 122.145 -3.26396 -2.98191 0
M  V30 1266 N 121.204 0.198386 -1.56346 0
M  V30 1267 C 122.451 0.919286 -1.80431 0
M  V30 1268 C 122.779 1.83393 -0.647866 0
M  V30 1269 O 122.034 1.92236 0.366556 0
M  V30 1270 C 122.333 1.77031 -3.10475 0
M  V30 1271 C 121.999 1.00693 -4.39513 0
M  V30 1272 C 120.661 0.796145 -4.74568 0
M  V30 1273 C 123.013 0.469559 -5.19081 0
M  V30 1274 C 120.341 0.0364588 -5.86689 0
M  V30 1275 C 122.693 -0.2769 -6.31994 0
M  V30 1276 C 121.357 -0.49873 -6.65634 0
M  V30 1277 H 120.627 0.336391 -0.660244 0
M  V30 1278 H 123.274 0.185872 -1.90596 0
M  V30 1279 H 121.579 2.5723 -2.95533 0
M  V30 1280 H 123.276 2.33065 -3.26315 0
M  V30 1281 H 119.866 1.18122 -4.12001 0
M  V30 1282 H 124.05 0.619816 -4.92414 0
M  V30 1283 H 119.306 -0.145412 -6.11227 0
M  V30 1284 H 123.48 -0.700684 -6.92866 0
M  V30 1285 H 121.107 -1.0893 -7.52355 0
M  V30 1286 N 122.682 1.50554 0.465978 0
M  V30 1287 C 123.629 1.6979 1.56333 0
M  V30 1288 C 124.599 0.539239 1.57103 0
M  V30 1289 O 125.784 0.770401 1.74555 0
M  V30 1290 C 122.924 1.80273 2.94271 0
M  V30 1291 C 122.037 3.07674 3.0325 0
M  V30 1292 C 121.172 3.08922 4.32135 0
M  V30 1293 C 120.211 4.30755 4.34875 0
M  V30 1294 N 119.348 4.29714 5.55239 0
M  V30 1295 H 124.188 2.63472 1.39235 0
M  V30 1296 H 121.725 1.30602 0.676873 0
M  V30 1297 H 123.683 1.84332 3.74269 0
M  V30 1298 H 122.313 0.900258 3.09992 0
M  V30 1299 H 121.365 3.13062 2.16094 0
M  V30 1300 H 122.677 3.97642 3.01135 0
M  V30 1301 H 121.831 3.11738 5.20485 0
M  V30 1302 H 120.57 2.16792 4.36866 0
M  V30 1303 H 119.575 4.28146 3.44922 0
M  V30 1304 H 120.8 5.24117 4.31831 0
M  V30 1305 H 118.746 3.4044 5.60746 0
M  V30 1306 H 118.663 5.13456 5.54886 0
M  V30 1307 H 119.931 4.36683 6.457 0
M  V30 1308 N 124.16 -0.719506 1.40217 0
M  V30 1309 C 125.406 -1.48152 1.38488 0
M  V30 1310 C 125.739 -1.94195 -0.0141867 0
M  V30 1311 O 125.014 -1.67884 -0.982096 0
M  V30 1312 C 125.297 -2.71035 2.37091 0
M  V30 1313 C 125.15 -2.30912 3.86005 0
M  V30 1314 C 126.469 -3.73182 2.33288 0
M  V30 1315 H 123.588 -0.537395 0.504357 0
M  V30 1316 H 126.23 -0.821472 1.71324 0
M  V30 1317 H 124.38 -3.27352 2.0922 0
M  V30 1318 H 126.052 -1.80107 4.24687 0
M  V30 1319 H 124.295 -1.62958 4.02029 0
M  V30 1320 H 124.966 -3.18978 4.50508 0
M  V30 1321 H 127.442 -3.26485 2.57966 0
M  V30 1322 H 126.318 -4.56806 3.04334 0
M  V30 1323 H 126.579 -4.21202 1.34317 0
M  V30 1324 N 125.638 -1.25649 -0.95132 0
M  V30 1325 C 126.863 -1.13443 -1.73624 0
M  V30 1326 C 127.288 0.307565 -1.85568 0
M  V30 1327 O 126.646 1.22282 -1.33854 0
M  V30 1328 C 126.694 -1.79723 -3.12621 0
M  V30 1329 O 125.798 -1.07912 -3.98031 0
M  V30 1330 H 125.139 -0.395872 -0.533086 0
M  V30 1331 H 127.669 -1.66276 -1.1922 0
M  V30 1332 H 127.679 -1.86141 -3.63064 0
M  V30 1333 H 126.354 -2.84633 -3.03244 0
M  V30 1334 H 124.931 -1.09398 -3.56492 0
M  V30 1335 N 127.117 1.15442 -1.07289 0
M  V30 1336 C 128.067 2.18164 -0.662467 0
M  V30 1337 C 129.051 1.57845 0.312074 0
M  V30 1338 O 130.243 1.76552 0.125905 0
M  V30 1339 C 127.372 3.43246 -0.0611295 0
M  V30 1340 C 126.458 4.1062 -1.06077 0
M  V30 1341 N 126.849 4.53491 -2.24008 0
M  V30 1342 C 125.147 4.36949 -0.893964 0
M  V30 1343 C 125.848 5.05731 -2.87422 0
M  V30 1344 N 124.824 4.99236 -2.15091 0
M  V30 1345 H 128.626 2.49038 -1.56068 0
M  V30 1346 H 126.14 1.32003 -0.945988 0
M  V30 1347 H 128.137 4.16145 0.250792 0
M  V30 1348 H 126.797 3.13854 0.832207 0
M  V30 1349 H 127.808 4.46898 -2.6173 0
M  V30 1350 H 124.485 4.17466 -0.0534693 0
M  V30 1351 H 125.875 5.48865 -3.87553 0
M  V30 1352 N 128.595 0.856903 1.32268 0
M  V30 1353 C 129.542 0.301172 2.28827 0
M  V30 1354 C 130.512 -0.593104 1.5515 0
M  V30 1355 O 131.697 -0.527537 1.83362 0
M  V30 1356 C 128.837 -0.502523 3.41422 0
M  V30 1357 C 127.95 0.417797 4.29975 0
M  V30 1358 C 127.085 -0.398749 5.29701 0
M  V30 1359 C 126.124 0.518827 6.09897 0
M  V30 1360 N 125.261 -0.260674 7.01616 0
M  V30 1361 H 130.101 1.12983 2.75751 0
M  V30 1362 H 127.638 0.568582 1.35667 0
M  V30 1363 H 129.596 -0.984141 4.05426 0
M  V30 1364 H 128.226 -1.29599 2.95642 0
M  V30 1365 H 127.278 1.01781 3.66531 0
M  V30 1366 H 128.59 1.12191 4.86019 0
M  V30 1367 H 127.744 -0.943435 5.9932 0
M  V30 1368 H 126.483 -1.13622 4.7428 0
M  V30 1369 H 125.488 1.07538 5.39181 0
M  V30 1370 H 126.713 1.25495 6.67404 0
M  V30 1371 H 124.659 -0.981198 6.4862 0
M  V30 1372 H 124.576 0.384364 7.55022 0
M  V30 1373 H 125.844 -0.787014 7.75517 0
M  V30 1374 N 130.073 -1.45103 0.615059 0
M  V30 1375 C 131.484 -1.85654 0.197383 0
M  V30 1376 C 131.835 -1.51433 -1.24749 0
M  V30 1377 O 130.96 -0.944608 -1.94695 0
M  V30 1378 C 131.555 -3.36972 0.351448 0
M  V30 1379 C 130.114 -3.76398 -0.011593 0
M  V30 1380 C 129.261 -2.69024 0.672394 0
M  V30 1381 H 132.212 -1.35797 0.821263 0
M  V30 1382 H 132.233 -3.78239 -0.414227 0
M  V30 1383 H 131.745 -3.61847 1.40314 0
M  V30 1384 H 129.846 -3.5714 -1.06217 0
M  V30 1385 H 129.959 -4.77532 0.387265 0
M  V30 1386 H 128.323 -2.54465 0.109284 0
M  V30 1387 H 129.106 -2.96735 1.72636 0
M  V30 1388 N 131.551 -0.354651 -1.53558 0
M  V30 1389 C 132.776 0.242153 -2.05981 0
M  V30 1390 C 133.201 1.42553 -1.2272 0
M  V30 1391 O 132.559 1.79656 -0.243604 0
M  V30 1392 C 132.607 0.624367 -3.55154 0
M  V30 1393 O 131.711 1.72301 -3.74681 0
M  V30 1394 H 131.052 0.0378432 -0.662921 0
M  V30 1395 H 133.582 -0.512087 -1.98088 0
M  V30 1396 H 133.592 0.898433 -3.97985 0
M  V30 1397 H 132.267 -0.240989 -4.15201 0
M  V30 1398 H 130.844 1.44535 -3.4375 0
M  V30 1399 N 133.029 1.57378 -0.0835403 0
M  V30 1400 C 134.277 1.93547 0.581718 0
M  V30 1401 C 134.598 0.96524 1.69435 0
M  V30 1402 O 133.868 0.0153369 1.95894 0
M  V30 1403 H 132.448 0.714521 0.217874 0
M  V30 1404 H 135.11 1.94366 -0.144158 0
M  V30 1405 H 134.206 2.95665 0.999423 0
M  V30 1406 N 134.507 -0.190092 1.56449 0
M  V30 1407 C 135.437 -1.23816 1.97969 0
M  V30 1408 C 136.418 -1.47201 0.852395 0
M  V30 1409 O 137.603 -1.58854 1.1171 0
M  V30 1410 C 134.733 -2.5813 2.3235 0
M  V30 1411 C 133.687 -2.49348 3.47864 0
M  V30 1412 C 133.013 -3.8798 3.67934 0
M  V30 1413 C 134.313 -2.01424 4.81898 0
M  V30 1414 H 136.007 -0.89311 2.85769 0
M  V30 1415 H 133.553 -0.428177 1.37487 0
M  V30 1416 H 135.506 -3.31637 2.59991 0
M  V30 1417 H 134.23 -2.94386 1.41438 0
M  V30 1418 H 132.889 -1.78297 3.20321 0
M  V30 1419 H 132.537 -4.21597 2.74344 0
M  V30 1420 H 132.237 -3.82978 4.45648 0
M  V30 1421 H 133.761 -4.63101 3.97957 0
M  V30 1422 H 135.175 -2.64693 5.08538 0
M  V30 1423 H 133.572 -2.07413 5.63116 0
M  V30 1424 H 134.642 -0.967677 4.75146 0
M  V30 1425 N 135.985 -1.50799 -0.457987 0
M  V30 1426 C 137.231 -1.62683 -1.21088 0
M  V30 1427 C 137.564 -0.332268 -1.91336 0
M  V30 1428 O 136.839 0.667043 -1.82704 0
M  V30 1429 C 137.122 -2.81615 -2.24422 0
M  V30 1430 C 136.975 -4.20989 -1.58392 0
M  V30 1431 C 138.294 -2.96085 -3.2561 0
M  V30 1432 H 135.413 -0.592087 -0.438864 0
M  V30 1433 H 138.055 -1.83225 -0.50286 0
M  V30 1434 H 136.205 -2.64231 -2.84806 0
M  V30 1435 H 137.877 -4.49994 -1.01504 0
M  V30 1436 H 136.12 -4.24641 -0.886704 0
M  V30 1437 H 136.791 -5.0016 -2.33547 0
M  V30 1438 H 139.267 -3.12042 -2.75262 0
M  V30 1439 H 138.143 -3.80902 -3.95228 0
M  V30 1440 H 138.404 -2.0726 -3.90507 0
M  V30 1441 N 137.463 0.71206 -1.40597 0
M  V30 1442 C 138.396 1.83582 -1.35546 0
M  V30 1443 C 139.374 1.61032 -0.225284 0
M  V30 1444 O 140.558 1.83998 -0.409519 0
M  V30 1445 C 137.685 3.19983 -1.11034 0
M  V30 1446 C 136.731 3.61355 -2.2655 0
M  V30 1447 S 137.564 3.68062 -3.88961 0
M  V30 1448 C 138.72 5.07216 -3.66719 0
M  V30 1449 H 138.953 1.87586 -2.30648 0
M  V30 1450 H 136.486 0.879182 -1.26924 0
M  V30 1451 H 138.444 3.98734 -0.975761 0
M  V30 1452 H 137.105 3.13608 -0.175798 0
M  V30 1453 H 136.298 4.60403 -2.0505 0
M  V30 1454 H 135.9 2.8987 -2.36329 0
M  V30 1455 H 138.192 5.94238 -3.25404 0
M  V30 1456 H 139.135 5.33753 -4.6531 0
M  V30 1457 H 139.543 4.77976 -3.00332 0
M  V30 1458 N 138.941 1.26152 0.944643 0
M  V30 1459 C 139.904 1.07474 2.0244 0
M  V30 1460 C 140.904 0.0242064 1.60782 0
M  V30 1461 O 142.094 0.267302 1.72137 0
M  V30 1462 C 139.226 0.633956 3.34953 0
M  V30 1463 H 140.419 2.03336 2.20442 0
M  V30 1464 H 137.972 1.087 1.12312 0
M  V30 1465 H 138.707 -0.326811 3.22649 0
M  V30 1466 H 138.492 1.39247 3.66542 0
M  V30 1467 H 139.982 0.52501 4.14287 0
M  V30 1468 N 140.419 -1.14872 1.07899 0
M  V30 1469 C 141.835 -1.37776 0.805606 0
M  V30 1470 C 142.035 -1.92743 -0.587555 0
M  V30 1471 O 141.091 -2.13678 -1.34528 0
M  V30 1472 C 142.404 -2.34361 1.88402 0
M  V30 1473 C 143.952 -2.48012 1.90942 0
M  V30 1474 C 144.427 -3.47893 2.97883 0
M  V30 1475 N 145.918 -3.55433 2.97021 0
M  V30 1476 C 146.653 -4.32553 3.76412 0
M  V30 1477 N 146.149 -5.12959 4.65666 0
M  V30 1478 N 147.942 -4.27697 3.64735 0
M  V30 1479 H 140.093 -0.775365 1.97742 0
M  V30 1480 H 142.356 -0.403521 0.857831 0
M  V30 1481 H 142.062 -2.01098 2.88535 0
M  V30 1482 H 141.936 -3.34206 1.74889 0
M  V30 1483 H 144.323 -2.8057 0.914579 0
M  V30 1484 H 144.404 -1.48147 2.08534 0
M  V30 1485 H 144.048 -3.16069 3.97571 0
M  V30 1486 H 143.978 -4.47527 2.77538 0
M  V30 1487 H 146.469 -2.98048 2.32326 0
M  V30 1488 H 146.782 -5.69065 5.22862 0
M  V30 1489 H 145.127 -5.12245 4.69712 0
M  V30 1490 H 148.318 -3.63949 2.94378 0
M  V30 1491 H 148.491 -4.8755 4.26848 0
M  V30 1492 N 141.898 -0.863906 -1.31812 0
M  V30 1493 C 142.845 -0.313303 -2.28664 0
M  V30 1494 C 143.815 0.584868 -1.55462 0
M  V30 1495 O 145 0.517805 -1.83639 0
M  V30 1496 C 142.14 0.48441 -3.41683 0
M  V30 1497 C 141.253 -0.440594 -4.29747 0
M  V30 1498 C 140.388 0.370652 -5.29905 0
M  V30 1499 C 139.427 -0.551164 -6.09613 0
M  V30 1500 N 138.564 0.223462 -7.01744 0
M  V30 1501 H 143.404 -1.14444 -2.75148 0
M  V30 1502 H 140.941 -0.575769 -1.35364 0
M  V30 1503 H 142.899 0.962627 -4.05943 0
M  V30 1504 H 141.529 1.28029 -2.96325 0
M  V30 1505 H 140.581 -1.03724 -3.65986 0
M  V30 1506 H 141.893 -1.14767 -4.85417 0
M  V30 1507 H 141.047 0.911638 -5.99812 0
M  V30 1508 H 139.786 1.11105 -4.74876 0
M  V30 1509 H 138.791 -1.10396 -5.38603 0
M  V30 1510 H 140.016 -1.29032 -6.66729 0
M  V30 1511 H 137.962 0.946787 -6.49132 0
M  V30 1512 H 137.879 -0.424399 -7.54808 0
M  V30 1513 H 139.147 0.745876 -7.75923 0
M  V30 1514 N 143.376 1.44774 -0.622745 0
M  V30 1515 C 144.306 2.33382 0.0741861 0
M  V30 1516 C 145.287 1.47719 0.843387 0
M  V30 1517 O 146.472 1.76458 0.810934 0
M  V30 1518 C 143.602 3.30663 1.06204 0
M  V30 1519 C 142.556 4.26079 0.405037 0
M  V30 1520 C 141.882 5.13165 1.5022 0
M  V30 1521 C 143.182 5.1781 -0.683414 0
M  V30 1522 H 144.876 2.91905 -0.665713 0
M  V30 1523 H 142.422 1.40363 -0.321587 0
M  V30 1524 H 144.375 3.9153 1.55827 0
M  V30 1525 H 143.099 2.70331 1.83272 0
M  V30 1526 H 141.758 3.66532 -0.0704683 0
M  V30 1527 H 141.406 4.49191 2.26355 0
M  V30 1528 H 141.106 5.77812 1.06803 0
M  V30 1529 H 142.63 5.76902 2.00041 0
M  V30 1530 H 144.044 5.72661 -0.270631 0
M  V30 1531 H 142.441 5.91015 -1.04023 0
M  V30 1532 H 143.511 4.59326 -1.55395 0
M  V30 1533 N 144.854 0.36279 1.53368 0
M  V30 1534 C 146.103 -0.22888 2.00397 0
M  V30 1535 C 146.416 -1.50096 1.25421 0
M  V30 1536 O 147.622 -2.17106 1.63025 0
M  V30 1537 C 146.078 -0.458417 3.56969 0
M  V30 1538 C 145.686 0.798877 4.4082 0
M  V30 1539 C 147.43 -1.00789 4.12361 0
M  V30 1540 C 145.337 0.539078 5.88938 0
M  V30 1541 H 144.267 -0.089305 0.748693 0
M  V30 1542 H 146.918 0.481099 1.77081 0
M  V30 1543 H 145.3 -1.22959 3.76427 0
M  V30 1544 H 146.474 1.57262 4.33134 0
M  V30 1545 H 144.789 1.27137 3.96516 0
M  V30 1546 H 147.386 -1.21754 5.20653 0
M  V30 1547 H 147.729 -1.9692 3.66781 0
M  V30 1548 H 148.262 -0.296961 3.9669 0
M  V30 1549 H 145.001 1.47064 6.3879 0
M  V30 1550 H 144.521 -0.196222 5.99479 0
M  V30 1551 H 146.2 0.163542 6.46793 0
M  V30 1552 N 146.332 -1.57332 0.0918853 0
M  V30 1553 C 147.282 -2.10385 -0.87876 0
M  V30 1554 C 148.266 -1.01814 -1.24591 0
M  V30 1555 O 149.458 -1.28093 -1.22152 0
M  V30 1556 C 146.587 -2.68517 -2.13901 0
M  V30 1557 C 145.673 -3.84126 -1.79744 0
M  V30 1558 N 146.064 -4.92288 -1.1613 0
M  V30 1559 C 144.362 -3.93801 -2.09373 0
M  V30 1560 C 145.063 -5.7295 -1.00513 0
M  V30 1561 N 144.039 -5.21876 -1.5214 0
M  V30 1562 H 147.841 -2.91395 -0.38293 0
M  V30 1563 H 145.355 -1.62017 -0.111423 0
M  V30 1564 H 147.352 -3.04852 -2.84378 0
M  V30 1565 H 146.012 -1.88961 -2.64053 0
M  V30 1566 H 147.023 -5.1123 -0.828504 0
M  V30 1567 H 143.7 -3.25249 -2.61762 0
M  V30 1568 H 145.09 -6.69978 -0.507902 0
M  V30 1569 N 147.81 0.181792 -1.56548 0
M  V30 1570 C 148.74 1.22765 -1.98623 0
M  V30 1571 C 149.721 1.46747 -0.860189 0
M  V30 1572 O 150.906 1.58259 -1.12551 0
M  V30 1573 C 148.036 2.56894 -2.33715 0
M  V30 1574 C 146.99 2.475 -3.49182 0
M  V30 1575 C 146.316 3.86023 -3.69986 0
M  V30 1576 C 147.616 1.98866 -4.82959 0
M  V30 1577 H 149.31 0.877942 -2.86239 0
M  V30 1578 H 146.856 0.42088 -1.37712 0
M  V30 1579 H 148.809 3.30253 -2.61746 0
M  V30 1580 H 147.533 2.93632 -1.42997 0
M  V30 1581 H 146.192 1.76596 -3.21262 0
M  V30 1582 H 145.84 4.20136 -2.76576 0
M  V30 1583 H 145.54 3.80609 -4.47672 0
M  V30 1584 H 147.064 4.60984 -4.00407 0
M  V30 1585 H 148.478 2.61992 -5.09934 0
M  V30 1586 H 146.875 2.04424 -5.64208 0
M  V30 1587 H 147.945 0.942465 -4.75653 0
M  V30 1588 N 149.288 1.51039 0.449983 0
M  V30 1589 C 150.198 1.74261 1.57067 0
M  V30 1590 C 151.214 0.626363 1.62335 0
M  V30 1591 O 152.39 0.907162 1.79812 0
M  V30 1592 C 149.455 1.85114 2.93144 0
M  V30 1593 C 148.516 3.0893 2.98095 0
M  V30 1594 C 147.749 3.19256 4.27681 0
M  V30 1595 O 147.972 2.35835 5.19363 0
M  V30 1596 O 146.906 4.12144 4.38658 0
M  V30 1597 H 150.732 2.69303 1.40391 0
M  V30 1598 H 148.317 1.35389 0.631688 0
M  V30 1599 H 150.199 1.94311 3.73926 0
M  V30 1600 H 148.874 0.932588 3.09975 0
M  V30 1601 H 147.781 3.0522 2.16314 0
M  V30 1602 H 149.114 4.00433 2.86206 0
M  V30 1603 N 150.766 -0.704594 1.40972 0
M  V30 1604 C 152.015 -1.46018 1.39146 0
M  V30 1605 C 152.328 -1.956 0.000589254 0
M  V30 1606 O 153.534 -2.71137 -0.1403 0
M  V30 1607 C 151.99 -2.63996 2.4461 0
M  V30 1608 C 151.598 -2.21238 3.89561 0
M  V30 1609 C 153.342 -3.41677 2.51907 0
M  V30 1610 C 151.249 -3.3612 4.86598 0
M  V30 1611 H 150.179 -0.548444 0.517422 0
M  V30 1612 H 152.83 -0.765784 1.66757 0
M  V30 1613 H 151.212 -3.3566 2.10115 0
M  V30 1614 H 152.386 -1.56923 4.33257 0
M  V30 1615 H 150.701 -1.56574 3.85841 0
M  V30 1616 H 153.298 -4.27182 3.2159 0
M  V30 1617 H 153.641 -3.86247 1.55303 0
M  V30 1618 H 154.174 -2.77064 2.85448 0
M  V30 1619 H 150.913 -2.96572 5.84573 0
M  V30 1620 H 150.433 -3.99315 4.47557 0
M  V30 1621 H 152.112 -4.02029 5.06934 0
M  V30 1622 N 152.244 -1.26651 -0.937939 0
M  V30 1623 C 153.191 -1.0849 -2.03712 0
M  V30 1624 C 154.161 0.011033 -1.66096 0
M  V30 1625 O 155.346 -0.149353 -1.90215 0
M  V30 1626 C 152.486 -0.72735 -3.37348 0
M  V30 1627 C 151.599 -1.89986 -3.87981 0
M  V30 1628 C 150.734 -1.48513 -5.10017 0
M  V30 1629 C 149.773 -2.62575 -5.5292 0
M  V30 1630 N 148.91 -2.21762 -6.66158 0
M  V30 1631 H 153.75 -2.02551 -2.18579 0
M  V30 1632 H 151.287 -1.00844 -1.07093 0
M  V30 1633 H 153.245 -0.50092 -4.14182 0
M  V30 1634 H 151.875 0.176298 -3.22318 0
M  V30 1635 H 150.927 -2.23913 -3.07518 0
M  V30 1636 H 152.239 -2.75586 -4.15757 0
M  V30 1637 H 151.393 -1.21934 -5.94321 0
M  V30 1638 H 150.132 -0.60009 -4.83994 0
M  V30 1639 H 149.137 -2.8988 -4.67172 0
M  V30 1640 H 150.362 -3.51685 -5.80943 0
M  V30 1641 H 148.308 -1.35696 -6.41812 0
M  V30 1642 H 148.225 -3.00903 -6.93537 0
M  V30 1643 H 149.493 -1.98403 -7.53828 0
M  V30 1644 N 153.722 1.14298 -1.08507 0
M  V30 1645 C 155.133 1.66926 -0.836227 0
M  V30 1646 C 155.484 1.85576 0.63686 0
M  V30 1647 O 154.609 1.56767 1.49175 0
M  V30 1648 C 155.204 3.03219 -1.51142 0
M  V30 1649 C 153.763 3.52876 -1.30979 0
M  V30 1650 C 152.91 2.2833 -1.57356 0
M  V30 1651 H 155.861 0.983491 -1.24552 0
M  V30 1652 H 155.882 3.68726 -0.939211 0
M  V30 1653 H 155.394 2.89612 -2.58353 0
M  V30 1654 H 153.495 3.71703 -0.258429 0
M  V30 1655 H 153.608 4.33586 -2.03814 0
M  V30 1656 H 151.972 2.34454 -0.995164 0
M  V30 1657 H 152.755 2.17298 -2.65775 0
M  V30 1658 N 155.201 0.870884 1.31352 0
M  V30 1659 C 156.164 0.332243 2.26779 0
M  V30 1660 C 157.164 -0.517302 1.52252 0
M  V30 1661 O 158.354 -0.326477 1.71113 0
M  V30 1662 C 155.486 -0.528066 3.36785 0
M  V30 1663 H 156.679 1.17469 2.75937 0
M  V30 1664 H 154.232 0.64655 1.423 0
M  V30 1665 H 154.967 -1.39167 2.92922 0
M  V30 1666 H 154.752 0.0802582 3.92018 0
M  V30 1667 H 156.242 -0.897179 4.07849 0
M  V30 1668 N 156.679 -1.44442 0.630414 0
M  V30 1669 C 157.928 -2.01267 0.132073 0
M  V30 1670 C 158.241 -1.50172 -1.25331 0
M  V30 1671 O 159.447 -1.9912 -1.84562 0
M  V30 1672 C 157.903 -3.59422 0.185362 0
M  V30 1673 C 157.511 -4.19514 1.57201 0
M  V30 1674 C 159.255 -4.23724 -0.256553 0
M  V30 1675 C 157.162 -5.69891 1.58045 0
M  V30 1676 H 156.092 -0.752619 0.0456092 0
M  V30 1677 H 158.743 -1.65666 0.789106 0
M  V30 1678 H 157.125 -3.92318 -0.538759 0
M  V30 1679 H 158.299 -3.98156 2.31966 0
M  V30 1680 H 156.614 -3.67496 1.95795 0
M  V30 1681 H 159.211 -5.34019 -0.269767 0
M  V30 1682 H 159.554 -3.96013 -1.28372 0
M  V30 1683 H 160.087 -3.95629 0.41505 0
M  V30 1684 H 156.826 -6.02336 2.58597 0
M  V30 1685 H 156.346 -5.93373 0.875725 0
M  V30 1686 H 158.025 -6.33515 1.31408 0
M  V30 1687 N 158.157 -0.370918 -1.53173 0
M  V30 1688 C 159.573 -0.0200818 -1.59587 0
M  V30 1689 C 159.773 1.46279 -1.38581 0
M  V30 1690 O 158.829 2.22506 -1.19363 0
M  V30 1691 C 160.142 -0.4808 -2.96831 0
M  V30 1692 C 161.69 -0.435477 -3.09956 0
M  V30 1693 C 162.165 -0.872092 -4.4962 0
M  V30 1694 N 163.656 -0.827364 -4.55751 0
M  V30 1695 C 164.391 -1.13683 -5.62018 0
M  V30 1696 N 163.887 -1.51584 -6.76014 0
M  V30 1697 N 165.68 -1.05927 -5.52029 0
M  V30 1698 H 157.831 -1.33652 -1.65079 0
M  V30 1699 H 160.094 -0.546634 -0.774529 0
M  V30 1700 H 159.8 -1.51577 -3.1736 0
M  V30 1701 H 159.674 0.129796 -3.76977 0
M  V30 1702 H 162.061 0.590371 -2.89134 0
M  V30 1703 H 162.142 -1.08164 -2.31806 0
M  V30 1704 H 161.786 -1.89608 -4.71181 0
M  V30 1705 H 161.716 -0.203127 -5.26208 0
M  V30 1706 H 164.207 -0.548216 -3.73902 0
M  V30 1707 H 164.52 -1.73609 -7.53047 0
M  V30 1708 H 162.865 -1.55454 -6.77391 0
M  V30 1709 H 166.056 -0.762321 -4.61851 0
M  V30 1710 H 166.229 -1.30378 -6.34749 0
M  V30 1711 N 159.635 1.57281 -0.100228 0
M  V30 1712 C 160.583 2.15542 0.874328 0
M  V30 1713 C 161.577 1.09962 1.28859 0
M  V30 1714 O 162.783 1.28298 1.26252 0
M  V30 1715 H 159.158 0.689567 0.300003 0
M  V30 1716 H 161.129 2.96241 0.35829 0
M  V30 1717 C 159.878 2.75454 2.1218 0
M  V30 1718 H 159.201 3.56384 1.81193 0
M  V30 1719 H 160.641 3.19781 2.78417 0
M  V30 1720 C 159.1 1.71602 2.89921 0
M  V30 1721 O 159.63 1.15804 3.84646 0
M  V30 1722 N 157.836 1.41975 2.53558 0
M  V30 1723 H 157.383 1.87539 1.76598 0
M  V30 1724 H 157.341 0.727274 3.05873 0
M  V30 1725 N 161.113 -0.173488 1.56642 0
M  V30 1726 C 162.045 -1.23935 1.92802 0
M  V30 1727 C 163.058 -1.40589 0.820889 0
M  V30 1728 O 164.247 -1.40631 1.09933 0
M  V30 1729 C 161.347 -2.60837 2.16373 0
M  V30 1730 C 160.52 -2.6551 3.47596 0
M  V30 1731 C 159.579 -3.8376 3.60021 0
M  V30 1732 O 158.605 -3.69859 4.32658 0
M  V30 1733 N 159.807 -5.00127 2.94709 0
M  V30 1734 H 162.572 -0.932236 2.84832 0
M  V30 1735 H 160.133 -0.363268 1.57772 0
M  V30 1736 H 162.125 -3.38407 2.21952 0
M  V30 1737 H 160.695 -2.83948 1.30738 0
M  V30 1738 H 159.915 -1.74052 3.53694 0
M  V30 1739 H 161.203 -2.65641 4.33949 0
M  V30 1740 H 160.601 -5.14322 2.35563 0
M  V30 1741 H 159.158 -5.75567 3.05886 0
M  V30 1742 N 162.591 -1.51276 -0.441967 0
M  V30 1743 C 163.84 -1.6295 -1.18871 0
M  V30 1744 C 164.153 -0.349312 -1.92456 0
M  V30 1745 O 165.359 -0.345355 -2.69295 0
M  V30 1746 C 163.815 -2.87759 -2.16155 0
M  V30 1747 C 163.423 -4.22764 -1.48239 0
M  V30 1748 C 165.167 -3.08788 -2.91291 0
M  V30 1749 C 163.074 -5.38728 -2.4398 0
M  V30 1750 H 162.004 -0.606913 -0.447406 0
M  V30 1751 H 164.655 -1.77739 -0.456205 0
M  V30 1752 H 163.037 -2.66593 -2.92821 0
M  V30 1753 H 164.211 -4.54293 -0.771635 0
M  V30 1754 H 162.526 -4.07575 -0.852741 0
M  V30 1755 H 165.123 -3.92599 -3.63002 0
M  V30 1756 H 165.466 -2.21679 -3.5237 0
M  V30 1757 H 165.999 -3.30272 -2.21733 0
M  V30 1758 H 162.738 -6.28082 -1.87598 0
M  V30 1759 H 162.258 -5.1158 -3.13123 0
M  V30 1760 H 163.937 -5.70489 -3.05207 0
M  V30 1761 N 164.069 0.697108 -1.41344 0
M  V30 1762 C 165.318 1.45279 -1.39918 0
M  V30 1763 C 165.631 1.95597 -0.0109624 0
M  V30 1764 O 166.837 2.71208 0.125919 0
M  V30 1765 C 165.293 2.62695 -2.46007 0
M  V30 1766 C 164.901 2.19169 -3.90729 0
M  V30 1767 C 166.645 3.40336 -2.53715 0
M  V30 1768 C 164.552 3.33535 -4.88373 0
M  V30 1769 H 163.482 0.545692 -0.520323 0
M  V30 1770 H 166.133 0.756929 -1.67161 0
M  V30 1771 H 164.515 3.34541 -2.11892 0
M  V30 1772 H 165.689 1.54623 -4.34083 0
M  V30 1773 H 164.004 1.54525 -3.86666 0
M  V30 1774 H 166.601 4.2547 -3.2385 0
M  V30 1775 H 166.944 3.85418 -1.5735 0
M  V30 1776 H 167.477 2.75546 -2.86913 0
M  V30 1777 H 164.216 2.93468 -5.86137 0
M  V30 1778 H 163.736 3.96936 -4.49668 0
M  V30 1779 H 165.415 3.99335 -5.09059 0
M  V30 1780 N 165.547 1.27147 0.931209 0
M  V30 1781 C 166.963 1.04475 1.20653 0
M  V30 1782 C 167.163 -0.223885 2.00252 0
M  V30 1783 O 166.219 -0.930332 2.34736 0
M  V30 1784 C 167.532 2.28209 1.95809 0
M  V30 1785 C 169.08 2.33211 2.08762 0
M  V30 1786 C 169.555 3.56665 2.87323 0
M  V30 1787 N 171.046 3.57201 2.94892 0
M  V30 1788 C 171.781 4.49395 3.56134 0
M  V30 1789 N 171.277 5.51889 4.18796 0
M  V30 1790 N 173.07 4.37026 3.53504 0
M  V30 1791 H 165.221 2.08612 0.399333 0
M  V30 1792 H 167.484 0.917312 0.239253 0
M  V30 1793 H 167.19 3.20538 1.44736 0
M  V30 1794 H 167.064 2.33247 2.96438 0
M  V30 1795 H 169.451 1.41391 2.59023 0
M  V30 1796 H 169.532 2.32178 1.07364 0
M  V30 1797 H 169.176 4.4882 2.37746 0
M  V30 1798 H 169.106 3.54948 3.88998 0
M  V30 1799 H 171.597 2.83074 2.50354 0
M  V30 1800 H 171.91 6.18409 4.63454 0
M  V30 1801 H 170.255 5.55735 4.17353 0
M  V30 1802 H 173.446 3.56166 3.03749 0
M  V30 1803 H 173.619 5.09067 4.00942 0
M  V30 1804 N 167.025 -1.13721 1.09112 0
M  V30 1805 C 167.935 -2.22638 0.73957 0
M  V30 1806 C 168.951 -1.72091 -0.257068 0
M  V30 1807 O 170.127 -2.01155 -0.0992154 0
M  V30 1808 C 167.192 -3.46322 0.16191 0
M  V30 1809 C 166.253 -4.11775 1.21408 0
M  V30 1810 C 165.486 -5.29555 0.663891 0
M  V30 1811 O 165.709 -5.68077 -0.514274 0
M  V30 1812 O 164.643 -5.84973 1.41738 0
M  V30 1813 H 168.469 -2.55074 1.64836 0
M  V30 1814 H 166.054 -1.21791 0.865289 0
M  V30 1815 H 167.936 -4.21107 -0.157073 0
M  V30 1816 H 166.611 -3.15593 -0.719932 0
M  V30 1817 H 165.518 -3.3883 1.58571 0
M  V30 1818 H 166.851 -4.46627 2.06845 0
M  V30 1819 N 168.503 -0.877838 -1.30888 0
M  V30 1820 C 169.433 -0.35534 -2.3078 0
M  V30 1821 C 170.414 0.557994 -1.60687 0
M  V30 1822 O 171.599 0.473355 -1.88343 0
M  V30 1823 C 168.729 0.437221 -3.44537 0
M  V30 1824 C 167.683 -0.383715 -4.26276 0
M  V30 1825 C 167.009 0.535014 -5.32017 0
M  V30 1826 C 168.309 -1.62201 -4.96476 0
M  V30 1827 H 170.003 -1.19007 -2.74732 0
M  V30 1828 H 167.549 -0.573698 -1.32078 0
M  V30 1829 H 169.502 0.813334 -4.13477 0
M  V30 1830 H 168.226 1.30553 -2.99372 0
M  V30 1831 H 166.885 -0.741874 -3.59015 0
M  V30 1832 H 166.533 1.40083 -4.831 0
M  V30 1833 H 166.233 -0.0104211 -5.87599 0
M  V30 1834 H 167.757 0.907799 -6.03814 0
M  V30 1835 H 169.171 -1.31689 -5.5797 0
M  V30 1836 H 167.568 -2.10711 -5.61891 0
M  V30 1837 H 168.638 -2.37044 -4.23011 0
M  V30 1838 N 169.982 1.44106 -0.638065 0
M  V30 1839 C 170.914 2.28976 0.101205 0
M  V30 1840 C 171.927 1.4167 0.802088 0
M  V30 1841 O 173.116 1.65755 0.662375 0
M  V30 1842 C 170.216 3.18217 1.16581 0
M  V30 1843 C 169.389 4.33978 0.546066 0
M  V30 1844 C 168.448 5.04202 1.50554 0
M  V30 1845 O 167.474 5.59986 1.01999 0
M  V30 1846 N 168.676 5.06296 2.8398 0
M  V30 1847 H 171.441 2.93064 -0.627186 0
M  V30 1848 H 169.002 1.54629 -0.479731 0
M  V30 1849 H 170.994 3.62061 1.80815 0
M  V30 1850 H 169.564 2.55833 1.79634 0
M  V30 1851 H 168.784 3.93239 -0.275046 0
M  V30 1852 H 170.072 5.08675 0.112793 0
M  V30 1853 H 169.47 4.62319 3.26002 0
M  V30 1854 H 168.027 5.53907 3.43556 0
M  V30 1855 N 171.46 0.379036 1.52974 0
M  V30 1856 C 172.706 -0.206727 2.01744 0
M  V30 1857 C 173.039 -1.47314 1.26539 0
M  V30 1858 O 172.314 -1.91084 0.362903 0
M  V30 1859 C 172.597 -0.485066 3.56818 0
M  V30 1860 C 172.45 0.795919 4.42702 0
M  V30 1861 C 173.769 -1.28003 4.21074 0
M  V30 1862 H 170.888 -0.0736607 0.73331 0
M  V30 1863 H 173.53 0.506581 1.83122 0
M  V30 1864 H 171.68 -1.09272 3.72816 0
M  V30 1865 H 173.352 1.43307 4.38476 0
M  V30 1866 H 171.595 1.41344 4.10127 0
M  V30 1867 H 172.266 0.555947 5.49193 0
M  V30 1868 H 174.742 -0.765867 4.08991 0
M  V30 1869 H 173.618 -1.44352 5.29579 0
M  V30 1870 H 173.879 -2.29236 3.78026 0
M  V30 1871 N 172.938 -1.57226 0.108567 0
M  V30 1872 C 173.868 -2.17778 -0.84232 0
M  V30 1873 C 174.849 -1.11487 -1.2847 0
M  V30 1874 O 176.034 -1.39681 -1.34918 0
M  V30 1875 C 173.164 -2.76888 -2.09644 0
M  V30 1876 C 172.118 -3.88669 -1.79221 0
M  V30 1877 C 171.444 -4.34541 -3.11574 0
M  V30 1878 C 172.744 -5.11251 -1.06864 0
M  V30 1879 H 174.438 -2.97489 -0.337774 0
M  V30 1880 H 171.984 -1.43097 -0.161025 0
M  V30 1881 H 173.937 -3.17904 -2.76614 0
M  V30 1882 H 172.661 -1.94451 -2.62405 0
M  V30 1883 H 171.32 -3.48213 -1.14644 0
M  V30 1884 H 170.968 -3.48977 -3.62249 0
M  V30 1885 H 170.668 -5.09914 -2.91996 0
M  V30 1886 H 172.192 -4.782 -3.7968 0
M  V30 1887 H 173.606 -5.49352 -1.63968 0
M  V30 1888 H 172.003 -5.9214 -0.974178 0
M  V30 1889 H 173.073 -4.8487 -0.0536168 0
M  V30 1890 N 174.416 0.165178 -1.56732 0
M  V30 1891 C 175.366 1.20917 -1.93295 0
M  V30 1892 C 176.35 1.39488 -0.801985 0
M  V30 1893 O 177.542 1.41356 -1.06525 0
M  V30 1894 C 174.671 2.54718 -2.3016 0
M  V30 1895 C 173.757 2.39815 -3.49785 0
M  V30 1896 N 174.148 1.94637 -4.66851 0
M  V30 1897 C 172.446 2.70623 -3.54513 0
M  V30 1898 C 173.147 1.92344 -5.4898 0
M  V30 1899 N 172.123 2.34978 -4.9019 0
M  V30 1900 H 175.925 0.851675 -2.81289 0
M  V30 1901 H 173.439 0.373399 -1.58049 0
M  V30 1902 H 175.436 3.30165 -2.54552 0
M  V30 1903 H 174.096 2.91265 -1.43508 0
M  V30 1904 H 175.107 1.6488 -4.90953 0
M  V30 1905 H 171.784 3.11167 -2.78354 0
M  V30 1906 H 173.174 1.5906 -6.52801 0
M  V30 1907 N 175.894 1.51508 0.433938 0
M  V30 1908 C 176.804 1.75917 1.5521 0
M  V30 1909 C 177.82 0.643545 1.61662 0
M  V30 1910 O 178.996 0.926183 1.7884 0
M  V30 1911 C 176.061 1.88213 2.91164 0
M  V30 1912 C 175.122 3.12074 2.94802 0
M  V30 1913 C 174.355 3.23774 4.24271 0
M  V30 1914 O 174.578 2.4133 5.16833 0
M  V30 1915 O 173.512 4.16774 4.34262 0
M  V30 1916 H 177.338 2.70777 1.37527 0
M  V30 1917 H 174.923 1.36051 0.617293 0
M  V30 1918 H 176.805 1.98267 3.71845 0
M  V30 1919 H 175.48 0.965413 3.08968 0
M  V30 1920 H 174.387 3.07497 2.13065 0
M  V30 1921 H 175.72 4.03446 2.81943 0
M  V30 1922 N 177.372 -0.689602 1.41712 0
M  V30 1923 C 178.612 -1.46184 1.42862 0
M  V30 1924 C 178.976 -1.91962 0.0382204 0
M  V30 1925 O 180.177 -2.68694 -0.0755019 0
M  V30 1926 C 178.448 -2.6371 2.4123 0
M  V30 1927 S 180.007 -3.52768 2.6096 0
M  V30 1928 H 176.825 -0.49947 0.506015 0
M  V30 1929 H 179.427 -0.804107 1.78198 0
M  V30 1930 H 178.131 -2.28293 3.41044 0
M  V30 1931 H 177.662 -3.3437 2.07269 0
M  V30 1932 H 179.677 -4.59146 1.88148 0
M  V30 1933 N 178.85 -1.27639 -0.924453 0
M  V30 1934 C 179.798 -1.10485 -2.04685 0
M  V30 1935 C 180.792 -0.0270421 -1.69378 0
M  V30 1936 O 181.998 -0.185008 -1.79047 0
M  V30 1937 H 178.373 -0.340546 -0.670472 0
M  V30 1938 H 180.344 -2.05566 -2.16298 0
M  V30 1939 C 179.093 -0.772229 -3.39016 0
M  V30 1940 H 178.416 -1.59351 -3.66671 0
M  V30 1941 H 179.856 -0.692097 -4.18313 0
M  V30 1942 C 178.315 0.523554 -3.32807 0
M  V30 1943 O 178.845 1.55702 -3.70297 0
M  V30 1944 N 177.051 0.520363 -2.85903 0
M  V30 1945 H 176.598 -0.32107 -2.55591 0
M  V30 1946 H 176.556 1.38742 -2.82131 0
M  V30 1947 N 180.328 1.1314 -1.09713 0
M  V30 1948 C 181.553 1.88862 -0.857081 0
M  V30 1949 C 181.978 1.78729 0.586304 0
M  V30 1950 O 181.336 1.13692 1.41222 0
M  V30 1951 C 181.384 3.36325 -1.30069 0
M  V30 1952 O 180.488 4.09815 -0.461007 0
M  V30 1953 H 179.829 0.587108 -0.310162 0
M  V30 1954 H 182.359 1.43129 -1.46203 0
M  V30 1955 H 182.369 3.87157 -1.28738 0
M  V30 1956 H 181.044 3.43017 -2.35185 0
M  V30 1957 H 179.621 3.68986 -0.538888 0
M  V30 1958 N 181.806 0.884767 1.30421 0
M  V30 1959 C 183.217 0.553656 1.78302 0
M  V30 1960 C 183.568 -0.930153 1.7275 0
M  V30 1961 O 182.693 -1.72681 1.30423 0
M  V30 1962 C 183.288 0.998234 3.2376 0
M  V30 1963 C 181.847 0.71854 3.69478 0
M  V30 1964 C 180.994 1.18132 2.50879 0
M  V30 1965 H 183.945 1.06901 1.17294 0
M  V30 1966 H 183.966 0.327118 3.79091 0
M  V30 1967 H 183.478 2.0782 3.27769 0
M  V30 1968 H 181.579 -0.349444 3.70958 0
M  V30 1969 H 181.692 1.30595 4.60958 0
M  V30 1970 H 180.056 0.600669 2.47516 0
M  V30 1971 H 180.839 2.26902 2.57624 0
M  V30 1972 N 183.284 -1.43765 0.645699 0
M  V30 1973 C 184.514 -2.05953 0.163318 0
M  V30 1974 C 184.922 -1.48432 -1.17322 0
M  V30 1975 O 184.265 -0.607295 -1.73371 0
M  V30 1976 C 184.327 -3.59499 -0.0103065 0
M  V30 1977 C 183.991 -4.39563 1.25035 0
M  V30 1978 C 184.988 -4.72108 2.17739 0
M  V30 1979 C 182.673 -4.79697 1.48983 0
M  V30 1980 C 184.667 -5.43688 3.3269 0
M  V30 1981 C 182.354 -5.51023 2.64229 0
M  V30 1982 C 183.352 -5.8294 3.55908 0
M  V30 1983 O 183.04 -6.5281 4.69142 0
M  V30 1984 H 182.772 -0.670798 0.0836986 0
M  V30 1985 H 185.326 -1.85384 0.884407 0
M  V30 1986 H 183.556 -3.78613 -0.78669 0
M  V30 1987 H 185.245 -4.03408 -0.449087 0
M  V30 1988 H 186.011 -4.41627 2.00476 0
M  V30 1989 H 181.89 -4.54266 0.785078 0
M  V30 1990 H 185.434 -5.68517 4.04269 0
M  V30 1991 H 181.331 -5.8092 2.81429 0
M  V30 1992 H 182.099 -6.71288 4.6831 0
M  V30 1993 N 184.763 -0.387143 -1.52771 0
M  V30 1994 C 186.012 0.19697 -2.00736 0
M  V30 1995 C 186.325 1.48082 -1.27793 0
M  V30 1996 O 187.531 2.14485 -1.66458 0
M  V30 1997 C 185.987 0.401568 -3.57653 0
M  V30 1998 C 185.595 -0.868907 -4.39493 0
M  V30 1999 C 187.339 0.942164 -4.13912 0
M  V30 2000 C 185.246 -0.632705 -5.88006 0
M  V30 2001 H 184.176 0.0773827 -0.750019 0
M  V30 2002 H 186.827 -0.50921 -1.76293 0
M  V30 2003 H 185.209 1.16954 -3.78335 0
M  V30 2004 H 186.383 -1.64133 -4.30577 0
M  V30 2005 H 184.698 -1.33429 -3.94443 0
M  V30 2006 H 187.295 1.13455 -5.22525 0
M  V30 2007 H 187.638 1.9106 -3.69867 0
M  V30 2008 H 188.171 0.233814 -3.97112 0
M  V30 2009 H 184.91 -1.57208 -6.36369 0
M  V30 2010 H 184.43 0.100825 -5.99715 0
M  V30 2011 H 186.109 -0.26642 -6.46451 0
M  V30 2012 N 186.241 1.57166 -0.116904 0
M  V30 2013 C 187.487 1.95412 0.542405 0
M  V30 2014 C 187.82 1.00019 1.66463 0
M  V30 2015 O 187.095 0.0370346 1.94465 0
M  V30 2016 C 187.378 3.43615 1.07708 0
M  V30 2017 C 187.231 4.49781 -0.0415868 0
M  V30 2018 C 188.55 3.93616 1.96861 0
M  V30 2019 H 185.669 0.710543 0.195696 0
M  V30 2020 H 188.311 1.89027 -0.192038 0
M  V30 2021 H 186.461 3.49187 1.70296 0
M  V30 2022 H 188.133 4.56308 -0.676793 0
M  V30 2023 H 186.376 4.28033 -0.705019 0
M  V30 2024 H 187.047 5.50733 0.373717 0
M  V30 2025 H 189.523 3.90335 1.44146 0
M  V30 2026 H 188.399 4.97838 2.3119 0
M  V30 2027 H 188.66 3.34188 2.89432 0
M  V30 2028 N 187.719 -0.156864 1.56817 0
M  V30 2029 C 188.967 -0.869404 1.82444 0
M  V30 2030 C 189.288 -1.82147 0.69623 0
M  V30 2031 O 188.558 -1.93847 -0.28287 0
M  V30 2032 H 187.138 -0.324043 0.673056 0
M  V30 2033 H 189.8 -0.153224 1.94297 0
M  V30 2034 H 188.896 -1.43761 2.77019 0
M  V30 2035 N 189.197 -1.51736 -0.425897 0
M  V30 2036 C 190.444 -1.6497 -1.17436 0
M  V30 2037 C 190.772 -0.371445 -1.9092 0
M  V30 2038 O 190.027 0.644963 -1.84767 0
M  V30 2039 C 190.326 -2.81103 -2.20717 0
M  V30 2040 C 189.992 -4.19954 -1.64162 0
M  V30 2041 C 188.654 -4.57725 -1.48462 0
M  V30 2042 C 191.006 -5.06552 -1.22696 0
M  V30 2043 C 188.334 -5.79789 -0.897873 0
M  V30 2044 C 190.686 -6.29205 -0.654464 0
M  V30 2045 C 189.35 -6.6574 -0.484456 0
M  V30 2046 H 188.62 -0.603668 -0.429727 0
M  V30 2047 H 191.267 -1.85798 -0.463829 0
M  V30 2048 H 189.572 -2.54542 -2.97852 0
M  V30 2049 H 191.269 -2.8854 -2.78471 0
M  V30 2050 H 187.859 -3.90181 -1.77361 0
M  V30 2051 H 192.043 -4.77968 -1.33642 0
M  V30 2052 H 187.299 -6.06733 -0.75402 0
M  V30 2053 H 191.473 -6.95643 -0.324694 0
M  V30 2054 H 189.1 -7.60195 -0.0276833 0
M  V30 2055 N 190.675 0.682077 -1.42076 0
M  V30 2056 C 191.905 1.46844 -1.45329 0
M  V30 2057 C 192.313 1.89102 -0.0609328 0
M  V30 2058 O 191.656 1.58238 0.933082 0
M  V30 2059 C 191.718 2.75375 -2.31104 0
M  V30 2060 C 191.382 2.55238 -3.79081 0
M  V30 2061 C 192.379 2.20309 -4.70914 0
M  V30 2062 C 190.064 2.70459 -4.2327 0
M  V30 2063 C 192.058 2.00859 -6.04925 0
M  V30 2064 C 189.745 2.50624 -5.57343 0
M  V30 2065 C 190.743 2.15876 -6.47986 0
M  V30 2066 O 190.431 1.96227 -7.79583 0
M  V30 2067 H 190.163 0.4586 -0.496651 0
M  V30 2068 H 192.717 0.846131 -1.87162 0
M  V30 2069 H 190.947 3.40061 -1.84107 0
M  V30 2070 H 192.636 3.37231 -2.25898 0
M  V30 2071 H 193.402 2.08153 -4.38061 0
M  V30 2072 H 189.281 2.96485 -3.53012 0
M  V30 2073 H 192.825 1.7366 -6.75639 0
M  V30 2074 H 188.722 2.62375 -5.89771 0
M  V30 2075 H 189.49 2.10883 -7.90867 0
M  V30 2076 N 192.153 1.28127 0.917671 0
M  V30 2077 C 193.401 1.14825 1.66312 0
M  V30 2078 C 193.722 -0.304379 1.9261 0
M  V30 2079 O 192.992 -1.21149 1.53947 0
M  V30 2080 H 191.572 0.421953 0.616413 0
M  V30 2081 H 194.234 1.608 1.10134 0
M  V30 2082 H 193.33 1.68489 2.62712 0
M  V30 2083 N 193.631 -1.12557 1.10312 0
M  V30 2084 C 194.594 -2.16434 0.75424 0
M  V30 2085 C 195.594 -1.59278 -0.220685 0
M  V30 2086 O 196.784 -1.742 0.00230591 0
M  V30 2087 C 193.916 -3.40699 0.116987 0
M  V30 2088 H 195.109 -2.48811 1.67431 0
M  V30 2089 H 192.662 -1.27542 0.903475 0
M  V30 2090 H 193.397 -3.13921 -0.813877 0
M  V30 2091 H 193.182 -3.83459 0.818613 0
M  V30 2092 H 194.672 -4.17451 -0.111387 0
M  V30 2093 N 195.109 -0.891671 -1.2995 0
M  V30 2094 C 196.356 -0.513501 -1.95881 0
M  V30 2095 C 196.684 0.938655 -1.70351 0
M  V30 2096 O 195.939 1.67936 -1.00478 0
M  V30 2097 C 196.238 -0.742868 -3.49594 0
M  V30 2098 C 195.904 -2.17114 -3.95186 0
M  V30 2099 C 194.566 -2.56169 -4.07346 0
M  V30 2100 C 196.918 -3.10162 -4.18866 0
M  V30 2101 C 194.246 -3.87469 -4.4055 0
M  V30 2102 C 196.598 -4.41001 -4.53542 0
M  V30 2103 C 195.262 -4.79941 -4.63911 0
M  V30 2104 H 194.532 -0.187903 -0.71678 0
M  V30 2105 H 197.179 -1.1288 -1.54694 0
M  V30 2106 H 195.484 -0.044586 -3.91775 0
M  V30 2107 H 197.181 -0.429767 -3.9869 0
M  V30 2108 H 193.771 -1.85801 -3.86233 0
M  V30 2109 H 197.955 -2.81206 -4.08946 0
M  V30 2110 H 193.211 -4.17371 -4.46779 0
M  V30 2111 H 197.385 -5.13133 -4.70815 0
M  V30 2112 H 195.012 -5.81719 -4.89395 0
M  V30 2113 N 196.587 1.43421 -0.653314 0
M  V30 2114 C 197.817 2.05864 -0.174238 0
M  V30 2115 C 198.225 1.49052 1.16534 0
M  V30 2116 O 197.568 0.616481 1.73047 0
M  V30 2117 C 197.63 3.59499 -0.00875873 0
M  V30 2118 C 197.294 4.38893 -1.27364 0
M  V30 2119 C 198.291 4.70947 -2.20239 0
M  V30 2120 C 195.976 4.789 -1.51525 0
M  V30 2121 C 197.97 5.41916 -3.35568 0
M  V30 2122 C 195.657 5.49614 -2.67147 0
M  V30 2123 C 196.655 5.81044 -3.58994 0
M  V30 2124 O 196.343 6.50313 -4.72597 0
M  V30 2125 H 196.075 0.670345 -0.0872549 0
M  V30 2126 H 198.629 1.84913 -0.894226 0
M  V30 2127 H 196.859 3.79025 0.7666 0
M  V30 2128 H 198.548 4.0364 0.427687 0
M  V30 2129 H 199.314 4.40558 -2.02815 0
M  V30 2130 H 195.193 4.53843 -0.809158 0
M  V30 2131 H 198.737 5.66365 -4.07279 0
M  V30 2132 H 194.634 5.79419 -2.84505 0
M  V30 2133 H 195.402 6.68795 -4.71864 0
M  V30 2134 N 198.065 0.39524 1.52563 0
M  V30 2135 C 199.29 -0.187456 2.06551 0
M  V30 2136 C 199.715 -1.39249 1.26457 0
M  V30 2137 O 199.073 -1.78947 0.291151 0
M  V30 2138 C 199.121 -0.529985 3.56684 0
M  V30 2139 O 198.225 -1.62307 3.79118 0
M  V30 2140 H 197.566 -0.0202537 0.663691 0
M  V30 2141 H 200.096 0.564426 1.96661 0
M  V30 2142 H 200.106 -0.792598 4.00227 0
M  V30 2143 H 198.781 0.350987 4.14416 0
M  V30 2144 H 197.358 -1.3537 3.47461 0
M  V30 2145 N 199.544 -1.57102 0.125237 0
M  V30 2146 C 200.821 -1.86953 -0.575142 0
M  V30 2147 C 201.201 -1.02749 -1.84407 0
M  V30 2148 O 200.549 -0.108144 -2.28244 0
M  V30 2149 C 200.759 -3.38198 -0.861583 0
M  V30 2150 C 202.107 -4.06937 -1.21192 0
M  V30 2151 O 203.131 -3.43252 -0.951645 0
M  V30 2152 O 201.99 -5.19364 -1.70068 0
M  V30 2153 H 199.084 -0.774147 -0.290906 0
M  V30 2154 H 201.63 -1.68942 0.160211 0
M  V30 2155 H 200.402 -3.91282 0.0373647 0
M  V30 2156 H 200.025 -3.61661 -1.65188 0
M  V30 2157 N 201.022 0.148545 -1.56898 0
M  V30 2158 C 202.27 0.859717 -1.82902 0
M  V30 2159 C 202.591 1.81775 -0.70588 0
M  V30 2160 O 201.861 1.93994 0.272586 0
M  V30 2161 H 200.441 0.320469 -0.674766 0
M  V30 2162 H 203.103 0.142918 -1.94375 0
M  V30 2163 H 202.199 1.4229 -2.77777 0
M  V30 2164 N 202.5 1.5196 0.417844 0
M  V30 2165 C 203.41 1.77554 1.53336 0
M  V30 2166 C 204.426 0.660655 1.6097 0
M  V30 2167 O 205.602 0.945099 1.77848 0
M  V30 2168 C 202.667 1.91291 2.89152 0
M  V30 2169 C 201.728 3.15183 2.91475 0
M  V30 2170 C 200.961 3.28256 4.20813 0
M  V30 2171 O 201.184 2.46798 5.14244 0
M  V30 2172 O 200.118 4.21356 4.29817 0
M  V30 2173 H 203.944 2.7222 1.34647 0
M  V30 2174 H 201.529 1.36698 0.602828 0
M  V30 2175 H 203.411 2.02199 3.69721 0
M  V30 2176 H 202.086 0.998129 3.07927 0
M  V30 2177 H 200.993 3.09739 2.09791 0
M  V30 2178 H 202.326 4.06414 2.77648 0
M  V30 2179 N 203.978 -0.674533 1.42435 0
M  V30 2180 C 205.227 -1.43034 1.42212 0
M  V30 2181 C 205.54 -1.95555 0.0420788 0
M  V30 2182 O 206.746 -2.71374 -0.0827558 0
M  V30 2183 C 205.202 -2.58748 2.50155 0
M  V30 2184 C 204.81 -2.12925 3.94166 0
M  V30 2185 C 206.554 -3.36257 2.59098 0
M  V30 2186 C 204.461 -3.25723 4.93618 0
M  V30 2187 H 203.391 -0.537345 0.528939 0
M  V30 2188 H 206.042 -0.73024 1.68344 0
M  V30 2189 H 204.424 -3.31128 2.17188 0
M  V30 2190 H 205.598 -1.47697 4.36488 0
M  V30 2191 H 203.913 -1.48354 3.89076 0
M  V30 2192 H 206.51 -4.20264 3.30578 0
M  V30 2193 H 206.853 -3.82866 1.63461 0
M  V30 2194 H 207.386 -2.70947 2.9126 0
M  V30 2195 H 204.125 -2.84105 5.90732 0
M  V30 2196 H 203.645 -3.89732 4.55926 0
M  V30 2197 H 205.324 -3.91186 5.15347 0
M  V30 2198 N 205.456 -1.28612 -0.910864 0
M  V30 2199 C 206.681 -1.1891 -1.69927 0
M  V30 2200 C 207.106 0.248372 -1.86453 0
M  V30 2201 O 206.464 1.17961 -1.37676 0
M  V30 2202 C 206.512 -1.89578 -3.06745 0
M  V30 2203 O 205.616 -1.20521 -3.94396 0
M  V30 2204 H 204.957 -0.412632 -0.520222 0
M  V30 2205 H 207.487 -1.69985 -1.1387 0
M  V30 2206 H 207.497 -1.97597 -3.56958 0
M  V30 2207 H 206.172 -2.94136 -2.94035 0
M  V30 2208 H 204.749 -1.20684 -3.52831 0
M  V30 2209 N 206.934 1.1197 -1.10907 0
M  V30 2210 C 208.183 1.82947 -0.849302 0
M  V30 2211 C 208.496 1.85275 0.627112 0
M  V30 2212 O 209.702 2.52296 1.00295 0
M  V30 2213 C 208.158 3.28529 -1.46959 0
M  V30 2214 C 207.766 3.34546 -2.97965 0
M  V30 2215 C 209.51 4.04443 -1.28942 0
M  V30 2216 C 207.417 4.74491 -3.53004 0
M  V30 2217 H 206.347 0.685477 -0.314065 0
M  V30 2218 H 208.998 1.2604 -1.33365 0
M  V30 2219 H 207.38 3.85333 -0.912917 0
M  V30 2220 H 208.554 2.87654 -3.59989 0
M  V30 2221 H 206.869 2.72108 -3.15192 0
M  V30 2222 H 209.466 5.07787 -1.67502 0
M  V30 2223 H 209.809 4.15656 -0.231456 0
M  V30 2224 H 210.342 3.5401 -1.81443 0
M  V30 2225 H 207.081 4.68474 -4.58489 0
M  V30 2226 H 206.601 5.21816 -2.9575 0
M  V30 2227 H 208.28 5.4344 -3.51115 0
M  V30 2228 N 208.412 0.89855 1.29475 0
M  V30 2229 C 209.652 0.530771 1.97388 0
M  V30 2230 C 210.016 -0.905832 1.69289 0
M  V30 2231 O 211.217 -1.38042 2.30646 0
M  V30 2232 C 209.488 0.81369 3.48014 0
M  V30 2233 S 211.047 0.550048 4.35339 0
M  V30 2234 H 207.865 0.196956 0.683176 0
M  V30 2235 H 210.467 1.16074 1.57312 0
M  V30 2236 H 209.171 1.85749 3.65958 0
M  V30 2237 H 208.702 0.171795 3.93025 0
M  V30 2238 H 210.717 -0.605423 4.92493 0
M  V30 2239 N 209.89 -1.43072 0.660911 0
M  V30 2240 C 210.823 -2.28074 -0.0758862 0
M  V30 2241 C 211.801 -1.40271 -0.822362 0
M  V30 2242 O 212.985 -1.69713 -0.820352 0
M  V30 2243 C 210.112 -3.19843 -1.11437 0
M  V30 2244 C 209.158 -4.23957 -0.465069 0
M  V30 2245 S 209.991 -5.29978 0.767078 0
M  V30 2246 C 211.147 -6.25314 -0.270682 0
M  V30 2247 H 211.38 -2.90216 0.645139 0
M  V30 2248 H 208.913 -1.47697 0.449995 0
M  V30 2249 H 210.871 -3.73257 -1.70849 0
M  V30 2250 H 209.532 -2.56863 -1.80776 0
M  V30 2251 H 208.725 -4.88299 -1.24819 0
M  V30 2252 H 208.327 -3.73959 0.0551242 0
M  V30 2253 H 210.619 -6.67932 -1.13459 0
M  V30 2254 H 211.562 -7.07293 0.337916 0
M  V30 2255 H 211.97 -5.61195 -0.609937 0
M  V30 2256 N 211.368 -0.403325 -1.52352 0
M  V30 2257 C 212.278 0.432009 -2.30588 0
M  V30 2258 C 213.294 1.05884 -1.38075 0
M  V30 2259 O 214.47 1.06161 -1.71148 0
M  V30 2260 C 211.535 1.53669 -3.10784 0
M  V30 2261 C 210.596 0.933525 -4.19027 0
M  V30 2262 C 209.829 1.98557 -4.9539 0
M  V30 2263 O 210.052 3.20283 -4.71991 0
M  V30 2264 O 208.986 1.59504 -5.80381 0
M  V30 2265 H 212.812 -0.205739 -3.03002 0
M  V30 2266 H 210.397 -0.166675 -1.48467 0
M  V30 2267 H 212.279 2.17814 -3.60742 0
M  V30 2268 H 210.954 2.15915 -2.41169 0
M  V30 2269 H 209.861 0.254954 -3.7323 0
M  V30 2270 H 211.194 0.35508 -4.90918 0
M  V30 2271 N 212.846 1.57033 -0.133567 0
M  V30 2272 C 213.796 2.12641 0.822671 0
M  V30 2273 C 214.78 1.05081 1.21847 0
M  V30 2274 O 215.972 1.31287 1.18713 0
M  V30 2275 C 213.101 2.74094 2.06706 0
M  V30 2276 C 212.187 3.88757 1.69497 0
M  V30 2277 N 212.578 4.95194 1.03037 0
M  V30 2278 C 210.876 3.99213 1.98859 0
M  V30 2279 C 211.577 5.75414 0.852873 0
M  V30 2280 N 210.553 5.25726 1.3825 0
M  V30 2281 H 214.355 2.92308 0.305537 0
M  V30 2282 H 211.869 1.62256 0.0684276 0
M  V30 2283 H 213.866 3.12285 2.76195 0
M  V30 2284 H 212.526 1.95896 2.5895 0
M  V30 2285 H 213.537 5.13247 0.692669 0
M  V30 2286 H 210.214 3.32075 2.53047 0
M  V30 2287 H 211.604 6.71089 0.330091 0
M  V30 2288 N 214.325 -0.140222 1.56975 0
M  V30 2289 C 215.258 -1.20266 1.93936 0
M  V30 2290 C 216.236 -1.41212 0.806099 0
M  V30 2291 O 217.42 -1.55713 1.06234 0
M  V30 2292 C 214.547 -2.56037 2.21726 0
M  V30 2293 C 213.593 -2.51646 3.44349 0
M  V30 2294 S 214.426 -1.97678 4.97678 0
M  V30 2295 C 215.582 -3.35165 5.28597 0
M  V30 2296 H 215.815 -0.887358 2.83749 0
M  V30 2297 H 213.348 -0.346119 1.50471 0
M  V30 2298 H 215.306 -3.34167 2.38416 0
M  V30 2299 H 213.967 -2.84755 1.32566 0
M  V30 2300 H 213.16 -3.51608 3.61092 0
M  V30 2301 H 212.762 -1.81628 3.26936 0
M  V30 2302 H 215.054 -4.31302 5.2248 0
M  V30 2303 H 215.997 -3.23269 6.30002 0
M  V30 2304 H 216.405 -3.32614 4.56101 0
M  V30 2305 N 215.803 -1.52179 -0.40978 0
M  V30 2306 C 217.08 -1.56769 -1.16974 0
M  V30 2307 C 217.46 -0.348322 -2.08206 0
M  V30 2308 O 216.808 0.664862 -2.18613 0
M  V30 2309 C 217.018 -2.89603 -1.9476 0
M  V30 2310 C 218.366 -3.42579 -2.50849 0
M  V30 2311 O 219.39 -2.91338 -2.04941 0
M  V30 2312 O 218.249 -4.32054 -3.34652 0
M  V30 2313 H 215.343 -0.631439 -0.534054 0
M  V30 2314 H 217.889 -1.64507 -0.416613 0
M  V30 2315 H 216.661 -3.698 -1.27921 0
M  V30 2316 H 216.284 -2.85155 -2.77079 0
M  V30 2317 N 217.281 0.66697 -1.42791 0
M  V30 2318 C 218.529 1.42417 -1.43394 0
M  V30 2319 C 218.85 1.94925 -0.0542373 0
M  V30 2320 O 218.12 1.73564 0.908415 0
M  V30 2321 H 216.7 0.528515 -0.527902 0
M  V30 2322 H 219.362 0.787562 -1.78279 0
M  V30 2323 H 218.458 2.27333 -2.13837 0
M  V30 2324 N 218.759 1.29093 0.90403 0
M  V30 2325 C 220.007 1.16583 1.65085 0
M  V30 2326 C 220.328 -0.283933 1.92922 0
M  V30 2327 O 219.598 -1.19509 1.55224 0
M  V30 2328 H 218.178 0.428467 0.611903 0
M  V30 2329 H 220.84 1.61959 1.08422 0
M  V30 2330 H 219.936 1.71266 2.6091 0
M  V30 2331 N 220.237 -1.11381 1.11499 0
M  V30 2332 C 221.462 -1.87475 0.887019 0
M  V30 2333 C 221.887 -1.79639 -0.557796 0
M  V30 2334 O 221.245 -1.15924 -1.39396 0
M  V30 2335 C 221.293 -3.34213 1.35403 0
M  V30 2336 O 220.397 -4.0903 0.526146 0
M  V30 2337 H 219.738 -0.582099 0.319463 0
M  V30 2338 H 222.268 -1.40785 1.48461 0
M  V30 2339 H 222.278 -3.8506 1.34881 0
M  V30 2340 H 220.953 -3.39232 2.40612 0
M  V30 2341 H 219.53 -3.68082 0.597522 0
M  V30 2342 N 221.715 -0.905404 -1.28997 0
M  V30 2343 C 222.645 -0.404212 -2.29975 0
M  V30 2344 C 223.626 0.523784 -1.61835 0
M  V30 2345 O 224.811 0.433298 -1.89304 0
M  V30 2346 C 221.941 0.364042 -3.45387 0
M  V30 2347 C 220.895 -0.474048 -4.25367 0
M  V30 2348 C 220.221 0.422045 -5.33032 0
M  V30 2349 C 221.521 -1.72696 -4.92923 0
M  V30 2350 H 223.215 -1.24807 -2.72146 0
M  V30 2351 H 220.761 -0.601585 -1.30832 0
M  V30 2352 H 222.714 0.725447 -4.15109 0
M  V30 2353 H 221.438 1.24174 -3.02074 0
M  V30 2354 H 220.097 -0.81786 -3.57361 0
M  V30 2355 H 219.745 1.29804 -4.85963 0
M  V30 2356 H 219.445 -0.135057 -5.87445 0
M  V30 2357 H 220.969 0.779517 -6.05604 0
M  V30 2358 H 222.383 -1.43495 -5.55051 0
M  V30 2359 H 220.78 -2.22582 -5.57295 0
M  V30 2360 H 221.85 -2.45964 -4.17887 0
M  V30 2361 N 223.193 1.4272 -0.668489 0
M  V30 2362 C 224.47 1.95248 -0.117373 0
M  V30 2363 C 224.85 1.60919 1.36632 0
M  V30 2364 O 224.198 0.902095 2.09939 0
M  V30 2365 C 224.408 3.46927 -0.379806 0
M  V30 2366 C 225.756 4.23588 -0.292923 0
M  V30 2367 O 226.78 3.5482 -0.313204 0
M  V30 2368 O 225.639 5.46017 -0.229697 0
M  V30 2369 H 222.733 0.827 0.00079152 0
M  V30 2370 H 225.279 1.52581 -0.742783 0
M  V30 2371 H 224.051 3.65096 -1.40786 0
M  V30 2372 H 223.674 3.96627 0.277923 0
M  V30 2373 N 224.671 0.411399 1.52136 0
M  V30 2374 C 225.603 -0.448386 2.24771 0
M  V30 2375 C 226.616 -1.00828 1.27818 0
M  V30 2376 O 227.805 -0.906841 1.53749 0
M  V30 2377 C 224.905 -1.63636 2.96777 0
M  V30 2378 C 224.078 -1.19995 4.20618 0
M  V30 2379 C 223.137 -2.25509 4.75428 0
M  V30 2380 O 222.163 -1.86007 5.3795 0
M  V30 2381 N 223.365 -3.577 4.57199 0
M  V30 2382 H 226.13 0.174025 2.99194 0
M  V30 2383 H 223.691 0.238897 1.60128 0
M  V30 2384 H 225.683 -2.33793 3.30338 0
M  V30 2385 H 224.253 -2.16465 2.25526 0
M  V30 2386 H 223.473 -0.326421 3.92846 0
M  V30 2387 H 224.761 -0.885365 5.01038 0
M  V30 2388 H 224.159 -3.92543 4.07341 0
M  V30 2389 H 222.716 -4.23827 4.95191 0
M  V30 2390 N 226.149 -1.5696 0.141893 0
M  V30 2391 C 227.395 -1.9625 -0.511248 0
M  V30 2392 C 227.728 -1.02654 -1.64851 0
M  V30 2393 O 227.003 -0.0679676 -1.94381 0
M  V30 2394 C 227.286 -3.45285 -1.02227 0
M  V30 2395 C 227.139 -4.49658 0.113138 0
M  V30 2396 C 228.458 -3.96698 -1.90574 0
M  V30 2397 H 225.577 -0.713567 -0.184367 0
M  V30 2398 H 228.219 -1.88698 0.222087 0
M  V30 2399 H 226.369 -3.51852 -1.64719 0
M  V30 2400 H 228.041 -4.55174 0.749302 0
M  V30 2401 H 226.284 -4.26857 0.773026 0
M  V30 2402 H 226.955 -5.51258 -0.286053 0
M  V30 2403 H 229.431 -3.92578 -1.37918 0
M  V30 2404 H 228.307 -5.01453 -2.2324 0
M  V30 2405 H 228.568 -3.3875 -2.84079 0
M  V30 2406 N 227.627 0.131896 -1.57047 0
M  V30 2407 C 228.557 1.16384 -2.02428 0
M  V30 2408 C 229.538 1.43936 -0.90644 0
M  V30 2409 O 230.723 1.54599 -1.17528 0
M  V30 2410 C 227.853 2.49328 -2.4177 0
M  V30 2411 C 226.807 2.36266 -3.56879 0
M  V30 2412 C 226.133 3.74057 -3.8208 0
M  V30 2413 C 227.433 1.834 -4.89042 0
M  V30 2414 H 229.127 0.786433 -2.88887 0
M  V30 2415 H 226.673 0.376855 -1.38981 0
M  V30 2416 H 228.626 3.21759 -2.7212 0
M  V30 2417 H 227.35 2.88934 -1.52266 0
M  V30 2418 H 226.009 1.66286 -3.26718 0
M  V30 2419 H 225.657 4.11125 -2.89803 0
M  V30 2420 H 225.357 3.66174 -4.59554 0
M  V30 2421 H 226.881 4.48012 -4.1487 0
M  V30 2422 H 228.295 2.45636 -5.18011 0
M  V30 2423 H 226.692 1.8637 -5.70426 0
M  V30 2424 H 227.762 0.790662 -4.7841 0
M  V30 2425 N 229.106 1.52395 0.401703 0
M  V30 2426 C 230.053 1.76268 1.48991 0
M  V30 2427 C 231.023 0.605386 1.54675 0
M  V30 2428 O 232.208 0.843742 1.7113 0
M  V30 2429 C 229.348 1.92592 2.86361 0
M  V30 2430 C 228.461 3.20259 2.89928 0
M  V30 2431 C 227.596 3.26972 4.18644 0
M  V30 2432 C 226.635 4.48812 4.16214 0
M  V30 2433 N 225.772 4.52877 5.36514 0
M  V30 2434 H 230.612 2.6914 1.27935 0
M  V30 2435 H 228.149 1.33355 0.620871 0
M  V30 2436 H 230.107 2.0004 3.66115 0
M  V30 2437 H 228.737 1.03093 3.05895 0
M  V30 2438 H 227.789 3.21945 2.02621 0
M  V30 2439 H 229.101 4.10056 2.83999 0
M  V30 2440 H 228.255 3.33533 5.06794 0
M  V30 2441 H 226.994 2.35126 4.27278 0
M  V30 2442 H 225.999 4.4239 3.26453 0
M  V30 2443 H 227.224 5.41961 4.09213 0
M  V30 2444 H 225.17 3.63917 5.45802 0
M  V30 2445 H 225.087 5.36529 5.32609 0
M  V30 2446 H 226.355 4.63676 6.26597 0
M  V30 2447 N 230.584 -0.659388 1.43143 0
M  V30 2448 C 231.531 -1.77249 1.47822 0
M  V30 2449 C 232.501 -1.62818 0.328558 0
M  V30 2450 O 233.686 -1.83151 0.534838 0
M  V30 2451 C 230.826 -3.15371 1.40126 0
M  V30 2452 C 229.939 -3.4098 2.65249 0
M  V30 2453 C 229.074 -4.68915 2.49584 0
M  V30 2454 C 228.113 -4.87608 3.70006 0
M  V30 2455 N 227.25 -6.06796 3.53189 0
M  V30 2456 H 232.09 -1.72584 2.42938 0
M  V30 2457 H 229.627 -0.842297 1.20598 0
M  V30 2458 H 231.585 -3.9521 1.33659 0
M  V30 2459 H 230.215 -3.19121 0.485964 0
M  V30 2460 H 229.267 -2.55282 2.8202 0
M  V30 2461 H 230.579 -3.50681 3.54717 0
M  V30 2462 H 229.733 -5.56871 2.4079 0
M  V30 2463 H 228.472 -4.61524 1.5763 0
M  V30 2464 H 227.477 -3.9809 3.79215 0
M  V30 2465 H 228.702 -4.96834 4.62961 0
M  V30 2466 H 226.648 -6.00549 2.63965 0
M  V30 2467 H 226.565 -6.17428 4.36255 0
M  V30 2468 H 227.833 -6.9739 3.48236 0
M  V30 2469 N 232.062 -1.29571 -0.897171 0
M  V30 2470 C 233.025 -1.14913 -1.98312 0
M  V30 2471 C 234.025 -0.0838629 -1.60581 0
M  V30 2472 O 235.215 -0.331006 -1.71026 0
M  V30 2473 C 232.347 -0.757835 -3.3237 0
M  V30 2474 H 233.54 -2.11377 -2.12743 0
M  V30 2475 H 231.093 -1.12793 -1.08201 0
M  V30 2476 H 231.828 0.206837 -3.2364 0
M  V30 2477 H 231.613 -1.52755 -3.61121 0
M  V30 2478 H 233.103 -0.678408 -4.12053 0
M  V30 2479 N 233.54 1.10788 -1.12088 0
M  V30 2480 C 234.788 1.8231 -0.872205 0
M  V30 2481 C 235.109 1.85419 0.603709 0
M  V30 2482 O 234.379 1.32963 1.43867 0
M  V30 2483 H 232.959 0.675137 -0.319686 0
M  V30 2484 H 235.621 1.34068 -1.41463 0
M  V30 2485 H 234.717 2.85955 -1.25045 0
M  V30 2486 N 235.018 0.912232 1.28515 0
M  V30 2487 C 236.434 0.610159 1.47476 0
M  V30 2488 C 236.634 -0.844955 1.82928 0
M  V30 2489 O 235.69 -1.62416 1.93332 0
M  V30 2490 C 237.003 1.54675 2.57868 0
M  V30 2491 C 238.551 1.55331 2.71738 0
M  V30 2492 C 239.026 2.47649 3.85272 0
M  V30 2493 N 240.517 2.45767 3.92623 0
M  V30 2494 C 241.252 3.13896 4.79851 0
M  V30 2495 N 240.748 3.9135 5.71679 0
M  V30 2496 N 242.541 3.02991 4.73448 0
M  V30 2497 H 234.692 1.85318 1.03783 0
M  V30 2498 H 236.955 0.794777 0.516753 0
M  V30 2499 H 236.661 2.5841 2.38574 0
M  V30 2500 H 236.535 1.27671 3.54937 0
M  V30 2501 H 238.922 0.52335 2.90422 0
M  V30 2502 H 239.003 1.86378 1.75205 0
M  V30 2503 H 238.647 3.50745 3.67342 0
M  V30 2504 H 238.577 2.13904 4.81199 0
M  V30 2505 H 241.068 1.89503 3.26951 0
M  V30 2506 H 241.381 4.40359 6.35062 0
M  V30 2507 H 239.726 3.95455 5.71524 0
M  V30 2508 H 242.917 2.41987 4.007 0
M  V30 2509 H 243.09 3.5636 5.41213 0
M  V30 2510 N 236.496 -1.42363 0.676048 0
M  V30 2511 C 237.745 -2.00745 0.196037 0
M  V30 2512 C 238.058 -1.54083 -1.20489 0
M  V30 2513 O 239.264 -2.04891 -1.78134 0
M  V30 2514 C 237.72 -3.58651 0.299616 0
M  V30 2515 C 237.328 -4.143 1.70468 0
M  V30 2516 C 239.072 -4.24326 -0.121619 0
M  V30 2517 C 236.979 -5.64574 1.76096 0
M  V30 2518 H 235.909 -0.750787 0.0695301 0
M  V30 2519 H 238.56 -1.63072 0.841412 0
M  V30 2520 H 236.942 -3.93833 -0.413673 0
M  V30 2521 H 238.116 -3.90575 2.44515 0
M  V30 2522 H 236.431 -3.61081 2.07387 0
M  V30 2523 H 239.028 -5.34607 -0.0997362 0
M  V30 2524 H 239.371 -3.99897 -1.15708 0
M  V30 2525 H 239.904 -3.94108 0.540706 0
M  V30 2526 H 236.643 -5.93804 2.77628 0
M  V30 2527 H 236.163 -5.90286 1.06406 0
M  V30 2528 H 237.842 -6.29013 1.51496 0
M  V30 2529 N 237.974 -0.419461 -1.51915 0
M  V30 2530 C 239.385 0.0477853 -1.86639 0
M  V30 2531 C 239.736 1.43531 -1.33766 0
M  V30 2532 O 238.861 2.05401 -0.68113 0
M  V30 2533 C 239.456 0.0934885 -3.38671 0
M  V30 2534 C 238.015 0.505097 -3.72996 0
M  V30 2535 C 237.162 -0.313792 -2.75519 0
M  V30 2536 H 240.113 -0.636088 -1.45395 0
M  V30 2537 H 240.134 0.906667 -3.6954 0
M  V30 2538 H 239.646 -0.916501 -3.77123 0
M  V30 2539 H 237.747 1.52135 -3.40126 0
M  V30 2540 H 237.86 0.242309 -4.78487 0
M  V30 2541 H 236.224 0.225363 -2.53701 0
M  V30 2542 H 237.007 -1.32232 -3.16812 0
M  V30 2543 N 239.452 1.56882 -0.150215 0
M  V30 2544 C 240.362 2.20494 0.801222 0
M  V30 2545 C 241.378 1.19019 1.26927 0
M  V30 2546 O 242.554 1.51607 1.32579 0
M  V30 2547 C 239.619 2.81659 2.02161 0
M  V30 2548 C 238.68 3.9827 1.60249 0
M  V30 2549 C 237.913 4.56508 2.7647 0
M  V30 2550 O 238.136 4.13627 3.92771 0
M  V30 2551 O 237.07 5.46719 2.51757 0
M  V30 2552 H 240.896 3.02315 0.289717 0
M  V30 2553 H 238.481 1.49202 0.0769684 0
M  V30 2554 H 240.363 3.20522 2.73576 0
M  V30 2555 H 239.038 2.02849 2.52258 0
M  V30 2556 H 237.945 3.64117 0.858477 0
M  V30 2557 H 239.278 4.78609 1.14864 0
M  V30 2558 N 240.93 -0.123565 1.57115 0
M  V30 2559 C 241.862 -1.17739 1.96648 0
M  V30 2560 C 242.875 -1.37906 0.865201 0
M  V30 2561 O 244.064 -1.37062 1.14351 0
M  V30 2562 C 241.164 -2.53821 2.24562 0
M  V30 2563 C 240.337 -2.54317 3.55867 0
M  V30 2564 C 239.396 -3.72112 3.72047 0
M  V30 2565 O 238.422 -3.55907 4.44206 0
M  V30 2566 N 239.624 -4.90498 3.10471 0
M  V30 2567 H 242.389 -0.841147 2.87654 0
M  V30 2568 H 239.95 -0.31289 1.58848 0
M  V30 2569 H 241.942 -3.31175 2.32606 0
M  V30 2570 H 240.512 -2.79645 1.39705 0
M  V30 2571 H 239.732 -1.62711 3.59053 0
M  V30 2572 H 241.02 -2.51701 4.42181 0
M  V30 2573 H 240.418 -5.06567 2.51806 0
M  V30 2574 H 238.975 -5.65544 3.24043 0
M  V30 2575 N 242.408 -1.52605 -0.393616 0
M  V30 2576 C 243.657 -1.66649 -1.13627 0
M  V30 2577 C 243.97 -0.410364 -1.91247 0
M  V30 2578 O 245.176 -0.430854 -2.68059 0
M  V30 2579 C 243.632 -2.9449 -2.06891 0
M  V30 2580 C 243.24 -4.27266 -1.34714 0
M  V30 2581 C 244.984 -3.17899 -2.81319 0
M  V30 2582 C 242.891 -5.46217 -2.26717 0
M  V30 2583 H 241.821 -0.62084 -0.427871 0
M  V30 2584 H 244.472 -1.791 -0.399428 0
M  V30 2585 H 242.854 -2.75774 -2.84191 0
M  V30 2586 H 244.028 -4.56518 -0.626714 0
M  V30 2587 H 242.343 -4.10081 -0.722643 0
M  V30 2588 H 244.94 -4.03949 -3.50328 0
M  V30 2589 H 245.283 -2.32777 -3.45139 0
M  V30 2590 H 245.816 -3.37159 -2.11113 0
M  V30 2591 H 242.555 -6.33733 -1.67521 0
M  V30 2592 H 242.075 -5.21283 -2.96689 0
M  V30 2593 H 243.754 -5.7991 -2.86903 0
M  V30 2594 N 243.887 0.651787 -1.4349 0
M  V30 2595 C 244.817 1.77621 -1.51569 0
M  V30 2596 C 245.798 1.66022 -0.370253 0
M  V30 2597 O 246.983 1.85095 -0.587658 0
M  V30 2598 C 244.113 3.16056 -1.43966 0
M  V30 2599 C 243.067 3.4242 -2.56774 0
M  V30 2600 C 242.393 4.8067 -2.34223 0
M  V30 2601 C 243.693 3.37023 -3.99015 0
M  V30 2602 H 245.387 1.71117 -2.45681 0
M  V30 2603 H 242.933 0.821825 -1.18246 0
M  V30 2604 H 244.886 3.94472 -1.48221 0
M  V30 2605 H 243.61 3.23293 -0.463586 0
M  V30 2606 H 242.269 2.66375 -2.51873 0
M  V30 2607 H 241.917 4.84585 -1.34856 0
M  V30 2608 H 241.617 4.9927 -3.09844 0
M  V30 2609 H 243.141 5.61342 -2.40265 0
M  V30 2610 H 244.555 4.05374 -4.05395 0
M  V30 2611 H 242.952 3.67159 -4.74673 0
M  V30 2612 H 244.022 2.3518 -4.2405 0
M  V30 2613 N 245.365 1.30045 0.890287 0
M  V30 2614 C 246.613 1.18327 1.63839 0
M  V30 2615 C 246.934 -0.263455 1.93212 0
M  V30 2616 O 246.204 -1.17856 1.56482 0
M  V30 2617 H 244.784 0.434933 0.607324 0
M  V30 2618 H 247.446 1.631 1.06698 0
M  V30 2619 H 246.542 1.74024 2.59079 0
M  V30 2620 N 246.843 -1.10192 1.12674 0
M  V30 2621 C 247.79 -2.16606 0.796906 0
M  V30 2622 C 248.76 -1.64394 -0.237476 0
M  V30 2623 O 249.945 -1.90474 -0.111484 0
M  V30 2624 C 247.085 -3.44116 0.26043 0
M  V30 2625 C 246.198 -4.10268 1.35293 0
M  V30 2626 C 245.333 -5.25507 0.775621 0
M  V30 2627 C 244.372 -5.83567 1.84706 0
M  V30 2628 N 243.509 -6.90179 1.28829 0
M  V30 2629 H 248.349 -2.44163 1.70846 0
M  V30 2630 H 245.886 -1.19846 0.85295 0
M  V30 2631 H 247.844 -4.17143 -0.0686814 0
M  V30 2632 H 246.474 -3.16901 -0.614274 0
M  V30 2633 H 245.526 -3.35184 1.79877 0
M  V30 2634 H 246.838 -4.4946 2.16303 0
M  V30 2635 H 245.992 -6.05398 0.397327 0
M  V30 2636 H 244.731 -4.87656 -0.0656581 0
M  V30 2637 H 243.736 -5.02344 2.23452 0
M  V30 2638 H 244.961 -6.23482 2.69161 0
M  V30 2639 H 242.907 -6.54322 0.468881 0
M  V30 2640 H 242.824 -7.28097 2.03497 0
M  V30 2641 H 244.092 -7.73844 0.937311 0
M  V30 2642 N 248.321 -0.919034 -1.28029 0
M  V30 2643 C 249.567 -0.555757 -1.95036 0
M  V30 2644 C 249.9 0.899198 -1.72128 0
M  V30 2645 O 249.175 1.64023 -1.04531 0
M  V30 2646 C 249.458 -0.872024 -3.49382 0
M  V30 2647 C 249.311 -2.3801 -3.81669 0
M  V30 2648 C 250.63 -0.37185 -4.38526 0
M  V30 2649 H 247.749 -0.203386 -0.708381 0
M  V30 2650 H 250.391 -1.14924 -1.51303 0
M  V30 2651 H 248.541 -0.366946 -3.86763 0
M  V30 2652 H 250.213 -2.9562 -3.54128 0
M  V30 2653 H 248.456 -2.83289 -3.28526 0
M  V30 2654 H 249.127 -2.55192 -4.8947 0
M  V30 2655 H 251.603 -0.804602 -4.08247 0
M  V30 2656 H 250.479 -0.622173 -5.45362 0
M  V30 2657 H 250.74 0.727934 -4.36066 0
M  V30 2658 N 249.799 1.42003 -0.683588 0
M  V30 2659 C 251.024 2.06265 -0.216647 0
M  V30 2660 C 251.449 1.51059 1.12083 0
M  V30 2661 O 250.807 0.632638 1.69904 0
M  V30 2662 C 250.855 3.60191 -0.171759 0
M  V30 2663 O 249.959 4.03396 0.857069 0
M  V30 2664 H 249.3 0.65502 -0.108834 0
M  V30 2665 H 251.83 1.81982 -0.935077 0
M  V30 2666 H 251.84 4.08 0.0014303 0
M  V30 2667 H 250.515 3.99743 -1.14796 0
M  V30 2668 H 249.092 3.67117 0.654208 0
M  V30 2669 N 251.277 0.427512 1.51691 0
M  V30 2670 C 252.526 -0.143679 2.01188 0
M  V30 2671 C 252.839 -1.44642 1.31674 0
M  V30 2672 O 254.045 -2.09997 1.72086 0
M  V30 2673 C 252.501 -0.306602 3.58592 0
M  V30 2674 C 252.109 0.985125 4.37035 0
M  V30 2675 C 253.853 -0.832091 4.16265 0
M  V30 2676 C 251.76 0.788382 5.86122 0
M  V30 2677 H 250.69 -0.0574701 0.751807 0
M  V30 2678 H 253.341 0.555772 1.74881 0
M  V30 2679 H 251.723 -1.06882 3.81303 0
M  V30 2680 H 252.897 1.75492 4.26074 0
M  V30 2681 H 251.212 1.4384 3.90767 0
M  V30 2682 H 253.809 -0.995617 5.25349 0
M  V30 2683 H 254.152 -1.81186 3.74803 0
M  V30 2684 H 254.685 -0.128444 3.97593 0
M  V30 2685 H 251.424 1.74025 6.31978 0
M  V30 2686 H 250.944 0.0582143 5.99772 0
M  V30 2687 H 252.623 0.437722 6.45518 0
M  V30 2688 N 252.755 -1.56801 0.158532 0
M  V30 2689 C 253.718 -2.16138 -0.762705 0
M  V30 2690 C 254.718 -1.1061 -1.16713 0
M  V30 2691 O 255.908 -1.36191 -1.08617 0
M  V30 2692 C 253.04 -2.73386 -2.03649 0
M  V30 2693 H 254.233 -2.98886 -0.246354 0
M  V30 2694 H 251.786 -1.56035 -0.0909744 0
M  V30 2695 H 252.521 -1.94335 -2.59623 0
M  V30 2696 H 252.306 -3.50601 -1.75559 0
M  V30 2697 H 253.796 -3.19065 -2.6942 0
M  V30 2698 N 254.233 0.115231 -1.57178 0
M  V30 2699 C 255.479 0.82357 -1.85325 0
M  V30 2700 C 255.812 1.79349 -0.744814 0
M  V30 2701 O 255.087 1.92899 0.249024 0
M  V30 2702 C 255.37 1.57014 -3.24066 0
M  V30 2703 C 255.223 0.619565 -4.45513 0
M  V30 2704 C 256.542 2.52545 -3.60429 0
M  V30 2705 H 253.661 0.297948 -0.674089 0
M  V30 2706 H 256.303 0.0877138 -1.89797 0
M  V30 2707 H 254.453 2.19742 -3.20383 0
M  V30 2708 H 256.125 0.000837639 -4.613 0
M  V30 2709 H 254.368 -0.0686174 -4.33746 0
M  V30 2710 H 255.039 1.17866 -5.3927 0
M  V30 2711 H 257.515 1.9992 -3.64926 0
M  V30 2712 H 256.391 3.01811 -4.58477 0
M  V30 2713 H 256.652 3.35383 -2.88047 0
M  V30 2714 N 255.711 1.52812 0.385517 0
M  V30 2715 C 256.96 1.67249 1.12741 0
M  V30 2716 C 257.273 0.4205 1.91027 0
M  V30 2717 O 258.479 0.445064 2.67827 0
M  V30 2718 C 256.935 2.95583 2.05326 0
M  V30 2719 C 256.543 4.27974 1.32447 0
M  V30 2720 C 258.287 3.19386 2.7963 0
M  V30 2721 C 256.194 5.47412 2.23818 0
M  V30 2722 H 255.124 0.6231 0.424573 0
M  V30 2723 H 257.775 1.79309 0.389924 0
M  V30 2724 H 256.157 2.77277 2.82725 0
M  V30 2725 H 257.331 4.56844 0.602495 0
M  V30 2726 H 255.646 4.10459 0.700885 0
M  V30 2727 H 258.243 4.05801 3.48181 0
M  V30 2728 H 258.586 2.34604 3.43899 0
M  V30 2729 H 259.119 3.38274 2.09322 0
M  V30 2730 H 255.858 6.34612 1.64157 0
M  V30 2731 H 255.378 5.22849 2.93921 0
M  V30 2732 H 257.057 5.81423 2.83824 0
M  V30 2733 N 257.189 -0.644168 1.43834 0
M  V30 2734 C 258.136 -1.75671 1.49694 0
M  V30 2735 C 259.106 -1.6246 0.345809 0
M  V30 2736 O 260.291 -1.82573 0.554234 0
M  V30 2737 C 257.431 -3.13867 1.43463 0
M  V30 2738 C 256.544 -3.38147 2.6885 0
M  V30 2739 C 255.679 -4.66241 2.54544 0
M  V30 2740 C 254.718 -4.83657 3.75157 0
M  V30 2741 N 253.855 -6.03016 3.59605 0
M  V30 2742 H 258.695 -1.69998 2.44754 0
M  V30 2743 H 256.232 -0.829458 1.21484 0
M  V30 2744 H 258.19 -3.9377 1.37843 0
M  V30 2745 H 256.82 -3.18588 0.519783 0
M  V30 2746 H 255.872 -2.52276 2.84712 0
M  V30 2747 H 257.184 -3.46899 3.58417 0
M  V30 2748 H 256.338 -5.54285 2.46683 0
M  V30 2749 H 255.077 -4.59826 1.62516 0
M  V30 2750 H 254.082 -3.94046 3.83416 0
M  V30 2751 H 255.307 -4.91896 4.68204 0
M  V30 2752 H 253.253 -5.97715 2.7032 0
M  V30 2753 H 253.17 -6.12766 4.42779 0
M  V30 2754 H 254.438 -6.93657 3.55613 0
M  V30 2755 N 258.668 -1.30515 -0.883378 0
M  V30 2756 C 259.916 -1.19194 -1.63209 0
M  V30 2757 C 260.237 0.253205 -1.93349 0
M  V30 2758 O 259.507 1.17025 -1.57105 0
M  V30 2759 H 258.087 -0.438148 -0.605009 0
M  V30 2760 H 260.749 -1.63663 -1.05832 0
M  V30 2761 H 259.845 -1.75396 -2.58153 0
M  V30 2762 N 260.146 1.09593 -1.13257 0
M  V30 2763 C 261.076 2.18214 -0.830946 0
M  V30 2764 C 262.057 1.68812 0.208966 0
M  V30 2765 O 263.242 1.9408 0.0682666 0
M  V30 2766 C 260.372 3.46051 -0.294296 0
M  V30 2767 C 259.326 4.08778 -1.26826 0
M  V30 2768 C 258.652 5.31419 -0.591449 0
M  V30 2769 C 259.952 4.51476 -2.62615 0
M  V30 2770 H 261.646 2.43703 -1.73923 0
M  V30 2771 H 259.192 1.17128 -0.837675 0
M  V30 2772 H 261.145 4.2134 -0.0709606 0
M  V30 2773 H 259.869 3.20079 0.649366 0
M  V30 2774 H 258.528 3.35505 -1.47756 0
M  V30 2775 H 258.176 5.01727 0.357633 0
M  V30 2776 H 257.876 5.74341 -1.24123 0
M  V30 2777 H 259.4 6.09433 -0.377355 0
M  V30 2778 H 260.814 5.17999 -2.45663 0
M  V30 2779 H 259.211 5.05277 -3.23752 0
M  V30 2780 H 260.281 3.63962 -3.20406 0
M  V30 2781 N 261.624 0.925811 1.2754 0
M  V30 2782 C 262.852 0.581509 1.9856 0
M  V30 2783 C 263.267 -0.840041 1.69082 0
M  V30 2784 O 262.624 -1.55805 0.950312 0
M  V30 2785 C 262.675 0.795589 3.52637 0
M  V30 2786 O 262.396 2.16121 3.81082 0
M  V30 2787 C 263.897 0.459744 4.4091 0
M  V30 2788 H 261.117 0.220538 0.633722 0
M  V30 2789 H 263.661 1.24232 1.6244 0
M  V30 2790 H 261.816 0.18161 3.86974 0
M  V30 2791 H 262.23 2.2098 4.75676 0
M  V30 2792 H 263.704 0.660244 5.48037 0
M  V30 2793 H 264.181 -0.604625 4.35018 0
M  V30 2794 H 264.787 1.05178 4.12089 0
M  V30 2795 N 263.102 -1.41638 0.69111 0
M  V30 2796 C 264.332 -2.0533 0.228758 0
M  V30 2797 C 264.74 -1.52089 -1.12541 0
M  V30 2798 O 264.083 -0.662145 -1.71351 0
M  V30 2799 C 264.145 -3.59349 0.10407 0
M  V30 2800 C 263.809 -4.35362 1.38956 0
M  V30 2801 C 264.806 -4.64942 2.32648 0
M  V30 2802 C 262.491 -4.74714 1.64169 0
M  V30 2803 C 264.485 -5.32828 3.49818 0
M  V30 2804 C 262.172 -5.42338 2.81625 0
M  V30 2805 C 263.17 -5.71322 3.74273 0
M  V30 2806 O 262.858 -6.37554 4.89673 0
M  V30 2807 H 262.59 -0.667796 0.104997 0
M  V30 2808 H 265.144 -1.82477 0.942938 0
M  V30 2809 H 263.374 -3.80924 -0.665839 0
M  V30 2810 H 265.063 -4.04633 -0.320519 0
M  V30 2811 H 265.829 -4.35025 2.14425 0
M  V30 2812 H 261.708 -4.51538 0.929202 0
M  V30 2813 H 265.252 -5.55368 4.22152 0
M  V30 2814 H 261.149 -5.71673 2.99768 0
M  V30 2815 H 261.917 -6.56049 4.8943 0
M  V30 2816 N 264.58 -0.43555 -1.51462 0
M  V30 2817 C 265.51 0.367376 -2.30592 0
M  V30 2818 C 266.491 1.02263 -1.35928 0
M  V30 2819 O 267.676 1.02661 -1.64847 0
M  V30 2820 C 264.806 1.46983 -3.14664 0
M  V30 2821 C 263.76 0.938161 -4.17591 0
M  V30 2822 C 263.086 2.13622 -4.90173 0
M  V30 2823 C 264.386 -0.0261621 -5.22293 0
M  V30 2824 H 266.08 -0.292969 -2.97963 0
M  V30 2825 H 263.626 -0.14234 -1.43295 0
M  V30 2826 H 265.579 2.03873 -3.688 0
M  V30 2827 H 264.303 2.15843 -2.4511 0
M  V30 2828 H 262.962 0.391481 -3.64504 0
M  V30 2829 H 262.61 2.81098 -4.17124 0
M  V30 2830 H 262.31 1.78688 -5.59772 0
M  V30 2831 H 263.834 2.7107 -5.47132 0
M  V30 2832 H 265.248 0.452384 -5.71512 0
M  V30 2833 H 263.645 -0.287992 -5.99409 0
M  V30 2834 H 264.715 -0.963391 -4.75233 0
M  V30 2835 N 266.058 1.56714 -0.166846 0
M  V30 2836 C 267.474 1.58473 0.189372 0
M  V30 2837 C 267.674 1.18201 1.63189 0
M  V30 2838 O 266.73 0.891528 2.36237 0
M  V30 2839 C 268.043 3.00573 -0.0873872 0
M  V30 2840 C 269.591 3.1299 -0.0252443 0
M  V30 2841 C 270.066 4.57174 -0.274934 0
M  V30 2842 N 271.557 4.62665 -0.222553 0
M  V30 2843 C 272.292 5.72072 -0.389985 0
M  V30 2844 N 271.788 6.90054 -0.616229 0
M  V30 2845 N 273.581 5.61153 -0.326202 0
M  V30 2846 H 265.732 1.8118 -1.10849 0
M  V30 2847 H 267.995 0.839525 -0.440342 0
M  V30 2848 H 267.701 3.34497 -1.0865 0
M  V30 2849 H 267.575 3.72019 0.623037 0
M  V30 2850 H 269.962 2.78895 0.96444 0
M  V30 2851 H 270.043 2.43989 -0.768309 0
M  V30 2852 H 269.687 4.91976 -1.26181 0
M  V30 2853 H 269.617 5.24328 0.48869 0
M  V30 2854 H 272.108 3.77863 -0.0531512 0
M  V30 2855 H 272.421 7.69311 -0.733559 0
M  V30 2856 H 270.766 6.91927 -0.652791 0
M  V30 2857 H 273.957 4.67859 -0.150072 0
M  V30 2858 H 274.13 6.46364 -0.460116 0
M  V30 2859 N 267.536 -0.106894 1.57237 0
M  V30 2860 C 268.446 -1.14911 2.0453 0
M  V30 2861 C 269.462 -1.44592 0.96795 0
M  V30 2862 O 270.638 -1.55468 1.2803 0
M  V30 2863 C 267.703 -2.45272 2.45036 0
M  V30 2864 C 266.764 -2.22879 3.66911 0
M  V30 2865 C 265.997 -3.47024 4.05475 0
M  V30 2866 O 266.22 -4.54804 3.44252 0
M  V30 2867 O 265.154 -3.3731 4.98504 0
M  V30 2868 H 268.98 -0.777461 2.9358 0
M  V30 2869 H 266.565 -0.318563 1.45964 0
M  V30 2870 H 268.447 -3.22055 2.71769 0
M  V30 2871 H 267.122 -2.81886 1.59129 0
M  V30 2872 H 266.029 -1.43915 3.45311 0
M  V30 2873 H 267.362 -1.91163 4.53561 0
M  V30 2874 N 269.014 -1.53014 -0.377408 0
M  V30 2875 C 269.961 -1.78616 -1.46168 0
M  V30 2876 C 270.931 -0.629917 -1.53692 0
M  V30 2877 O 272.116 -0.870861 -1.69766 0
M  V30 2878 C 269.256 -1.97123 -2.8326 0
M  V30 2879 C 268.369 -3.24831 -2.84796 0
M  V30 2880 C 267.504 -3.33591 -4.13389 0
M  V30 2881 C 266.543 -4.55377 -4.09021 0
M  V30 2882 N 265.68 -4.61355 -5.29241 0
M  V30 2883 H 270.52 -2.71142 -1.23637 0
M  V30 2884 H 268.057 -1.34326 -0.599577 0
M  V30 2885 H 270.015 -2.05839 -3.62886 0
M  V30 2886 H 268.645 -1.07946 -3.04216 0
M  V30 2887 H 267.697 -3.25128 -1.97474 0
M  V30 2888 H 269.009 -4.14523 -2.77439 0
M  V30 2889 H 268.163 -3.41554 -5.01424 0
M  V30 2890 H 266.902 -2.41894 -4.23484 0
M  V30 2891 H 265.907 -4.47527 -3.19373 0
M  V30 2892 H 267.132 -5.48402 -4.00539 0
M  V30 2893 H 265.078 -3.72554 -5.39944 0
M  V30 2894 H 264.995 -5.44935 -5.24006 0
M  V30 2895 H 266.263 -4.73586 -6.19141 0
M  V30 2896 N 270.492 0.636531 -1.44174 0
M  V30 2897 C 271.442 1.74233 -1.47061 0
M  V30 2898 C 272.426 1.57331 -0.337034 0
M  V30 2899 O 273.618 1.67159 -0.581973 0
M  V30 2900 C 270.747 3.12897 -1.41246 0
M  V30 2901 C 269.833 3.35288 -2.59698 0
M  V30 2902 N 270.224 3.2807 -3.84972 0
M  V30 2903 C 268.522 3.66065 -2.54778 0
M  V30 2904 C 269.223 3.51001 -4.63867 0
M  V30 2905 N 268.199 3.73616 -3.94857 0
M  V30 2906 H 272.001 1.67103 -2.41773 0
M  V30 2907 H 269.515 0.838806 -1.3906 0
M  V30 2908 H 271.512 3.92189 -1.41398 0
M  V30 2909 H 270.172 3.21197 -0.47569 0
M  V30 2910 H 271.183 3.07109 -4.17019 0
M  V30 2911 H 267.86 3.81379 -1.6987 0
M  V30 2912 H 269.25 3.51059 -5.72894 0
M  V30 2913 N 271.97 1.30982 0.876444 0
M  V30 2914 C 272.917 1.18085 1.98304 0
M  V30 2915 C 273.887 0.0682263 1.6596 0
M  V30 2916 O 275.072 0.239937 1.89285 0
M  V30 2917 C 272.212 0.887475 3.33493 0
M  V30 2918 C 271.325 2.08281 3.78475 0
M  V30 2919 C 270.46 1.72678 5.0235 0
M  V30 2920 C 269.499 2.88657 5.39762 0
M  V30 2921 N 268.636 2.53292 6.54819 0
M  V30 2922 H 273.476 2.1275 2.08666 0
M  V30 2923 H 271.013 1.05839 1.02159 0
M  V30 2924 H 272.971 0.697961 4.1132 0
M  V30 2925 H 271.601 -0.022315 3.22792 0
M  V30 2926 H 270.653 2.3833 2.96484 0
M  V30 2927 H 271.965 2.95108 4.02135 0
M  V30 2928 H 271.119 1.50151 5.87826 0
M  V30 2929 H 269.858 0.830327 4.8058 0
M  V30 2930 H 268.863 3.1184 4.52809 0
M  V30 2931 H 270.088 3.79002 5.63502 0
M  V30 2932 H 268.034 1.66163 6.34607 0
M  V30 2933 H 267.951 3.3365 6.7839 0
M  V30 2934 H 269.219 2.34143 7.43503 0
M  V30 2935 N 273.449 -1.08991 1.13837 0
M  V30 2936 C 274.698 -1.80631 0.897509 0
M  V30 2937 C 275.011 -1.86872 -0.57777 0
M  V30 2938 O 276.217 -2.54866 -0.935701 0
M  V30 2939 C 274.673 -3.24517 1.55618 0
M  V30 2940 C 274.281 -3.26529 3.0673 0
M  V30 2941 C 276.025 -4.00882 1.3962 0
M  V30 2942 C 273.932 -4.64965 3.65461 0
M  V30 2943 H 272.862 -0.67691 0.332129 0
M  V30 2944 H 275.513 -1.2246 1.3666 0
M  V30 2945 H 273.895 -3.82778 1.01476 0
M  V30 2946 H 275.069 -2.78008 3.67489 0
M  V30 2947 H 273.384 -2.63656 3.22296 0
M  V30 2948 H 275.981 -5.03167 1.80906 0
M  V30 2949 H 276.324 -4.14896 0.341578 0
M  V30 2950 H 276.857 -3.49075 1.90766 0
M  V30 2951 H 273.596 -4.56153 4.70749 0
M  V30 2952 H 273.116 -5.13792 3.09481 0
M  V30 2953 H 274.795 -5.3394 3.654 0
M  V30 2954 N 274.927 -0.932562 -1.27047 0
M  V30 2955 C 275.86 -0.379774 -2.25018 0
M  V30 2956 C 276.838 0.526587 -1.53837 0
M  V30 2957 O 278.022 0.465992 -1.82649 0
M  V30 2958 C 275.149 0.455187 -3.35627 0
M  V30 2959 C 274.195 -0.388428 -4.24728 0
M  V30 2960 S 275.028 -1.80701 -5.04091 0
M  V30 2961 C 276.184 -0.979865 -6.18182 0
M  V30 2962 H 276.417 -1.2101 -2.71558 0
M  V30 2963 H 273.95 -0.735078 -1.35779 0
M  V30 2964 H 275.908 0.931052 -3.99802 0
M  V30 2965 H 274.569 1.26009 -2.87716 0
M  V30 2966 H 273.762 0.25089 -5.03375 0
M  V30 2967 H 273.364 -0.798649 -3.65373 0
M  V30 2968 H 275.656 -0.218115 -6.77149 0
M  V30 2969 H 276.599 -1.73951 -6.86401 0
M  V30 2970 H 277.007 -0.51973 -5.62102 0
M  V30 2971 N 276.405 1.4127 -0.698611 0
M  V30 2972 C 277.355 2.27997 -0.0119836 0
M  V30 2973 C 278.339 1.42363 0.749765 0
M  V30 2974 O 279.531 1.65607 0.624758 0
M  V30 2975 C 276.66 3.30702 0.921458 0
M  V30 2976 C 275.746 4.23814 0.155796 0
M  V30 2977 N 276.137 4.98572 -0.852015 0
M  V30 2978 C 274.435 4.44284 0.390836 0
M  V30 2979 C 275.136 5.66744 -1.3106 0
M  V30 2980 N 274.112 5.39867 -0.635944 0
M  V30 2981 H 277.914 2.83232 -0.784649 0
M  V30 2982 H 275.428 1.53518 -0.529711 0
M  V30 2983 H 277.425 3.91661 1.42854 0
M  V30 2984 H 276.085 2.77028 1.69369 0
M  V30 2985 H 277.096 5.03024 -1.23235 0
M  V30 2986 H 273.773 4.01614 1.14071 0
M  V30 2987 H 275.163 6.36672 -2.14707 0
M  V30 2988 N 277.883 0.443576 1.51229 0
M  V30 2989 C 279.299 0.0962001 1.5931 0
M  V30 2990 C 279.499 -1.39501 1.45402 0
M  V30 2991 O 278.555 -2.16557 1.29843 0
M  V30 2992 C 279.868 0.621875 2.94199 0
M  V30 2993 C 281.416 0.582865 3.07525 0
M  V30 2994 C 281.891 1.08562 4.44948 0
M  V30 2995 N 283.382 1.04387 4.51284 0
M  V30 2996 C 284.117 1.40368 5.55954 0
M  V30 2997 N 283.613 1.83664 6.68011 0
M  V30 2998 N 285.406 1.32145 5.46346 0
M  V30 2999 H 277.557 1.41376 1.58514 0
M  V30 3000 H 279.82 0.582965 0.747567 0
M  V30 3001 H 279.526 1.66546 3.09767 0
M  V30 3002 H 279.4 0.0502125 3.77167 0
M  V30 3003 H 281.787 -0.451749 2.91622 0
M  V30 3004 H 281.868 1.191 2.26382 0
M  V30 3005 H 281.512 2.11873 4.61598 0
M  V30 3006 H 281.442 0.453956 5.2464 0
M  V30 3007 H 283.933 0.725986 3.70861 0
M  V30 3008 H 284.246 2.0934 7.43906 0
M  V30 3009 H 282.591 1.87596 6.69203 0
M  V30 3010 H 285.782 0.981808 4.57688 0
M  V30 3011 H 285.955 1.60514 6.27805 0
M  V30 3012 N 279.361 -1.56624 0.175154 0
M  V30 3013 C 280.638 -1.88688 -0.515373 0
M  V30 3014 C 281.018 -1.08564 -1.81044 0
M  V30 3015 O 280.366 -0.180703 -2.27784 0
M  V30 3016 C 280.576 -3.40768 -0.753552 0
M  V30 3017 C 281.924 -4.10587 -1.08184 0
M  V30 3018 O 282.948 -3.46106 -0.841961 0
M  V30 3019 O 281.807 -5.24512 -1.53459 0
M  V30 3020 H 278.901 -0.78301 -0.26613 0
M  V30 3021 H 281.447 -1.68347 0.213877 0
M  V30 3022 H 280.219 -3.90965 0.161829 0
M  V30 3023 H 279.842 -3.66733 -1.53598 0
M  V30 3024 N 280.839 0.0985539 -1.57292 0
M  V30 3025 C 282.085 0.803867 -1.86188 0
M  V30 3026 C 282.418 1.78549 -0.763794 0
M  V30 3027 O 281.693 1.93153 0.22855 0
M  V30 3028 C 281.976 1.53568 -3.25713 0
M  V30 3029 C 281.829 0.572277 -4.46145 0
M  V30 3030 C 283.148 2.48708 -3.63087 0
M  V30 3031 H 280.267 0.290781 -0.677211 0
M  V30 3032 H 282.909 0.0675783 -1.8988 0
M  V30 3033 H 281.059 2.16332 -3.22696 0
M  V30 3034 H 282.731 -0.0480894 -4.61275 0
M  V30 3035 H 280.974 -0.114618 -4.33649 0
M  V30 3036 H 281.645 1.12139 -5.40489 0
M  V30 3037 H 284.121 1.96039 -3.67026 0
M  V30 3038 H 282.997 2.96932 -4.61652 0
M  V30 3039 H 283.258 3.32309 -2.91588 0
M  V30 3040 N 282.317 1.53212 0.369288 0
M  V30 3041 C 283.264 1.79388 1.45219 0
M  V30 3042 C 284.234 0.638059 1.53356 0
M  V30 3043 O 285.419 0.879852 1.69302 0
M  V30 3044 C 282.559 1.98623 2.82211 0
M  V30 3045 C 281.672 3.26337 2.8307 0
M  V30 3046 C 280.807 3.35779 4.11614 0
M  V30 3047 C 279.846 4.5754 4.06601 0
M  V30 3048 N 278.983 4.64155 5.26787 0
M  V30 3049 H 283.823 2.71794 1.22198 0
M  V30 3050 H 281.36 1.34642 0.592444 0
M  V30 3051 H 283.318 2.07761 3.61789 0
M  V30 3052 H 281.948 1.09558 3.03639 0
M  V30 3053 H 281 3.26171 1.95747 0
M  V30 3054 H 282.312 4.15988 2.75237 0
M  V30 3055 H 281.466 3.44208 4.99606 0
M  V30 3056 H 280.205 2.44137 4.22195 0
M  V30 3057 H 279.21 4.49215 3.16996 0
M  V30 3058 H 280.435 5.50519 3.97625 0
M  V30 3059 H 278.381 3.75413 5.3796 0
M  V30 3060 H 278.298 5.47706 5.21109 0
M  V30 3061 H 279.566 4.76863 6.16621 0
M  V30 3062 N 283.795 -0.628877 1.44509 0
M  V30 3063 C 285.206 -1.21054 1.42137 0
M  V30 3064 C 285.557 -1.95715 0.137881 0
M  V30 3065 O 284.682 -2.02554 -0.761645 0
M  V30 3066 C 285.277 -2.20189 2.57493 0
M  V30 3067 C 283.836 -2.73777 2.58308 0
M  V30 3068 C 282.983 -1.48813 2.33987 0
M  V30 3069 H 285.934 -0.41942 1.53057 0
M  V30 3070 H 285.955 -3.02833 2.30375 0
M  V30 3071 H 285.467 -1.6582 3.50892 0
M  V30 3072 H 283.568 -3.32142 1.68856 0
M  V30 3073 H 283.681 -3.19662 3.56865 0
M  V30 3074 H 282.045 -1.77024 1.83124 0
M  V30 3075 H 282.828 -0.963442 3.29504 0
M  V30 3076 N 285.273 -1.31445 -0.869486 0
M  V30 3077 C 286.498 -1.24256 -1.66058 0
M  V30 3078 C 286.923 0.188928 -1.87149 0
M  V30 3079 O 286.281 1.13522 -1.4136 0
M  V30 3080 C 286.329 -1.9924 -3.00559 0
M  V30 3081 O 285.433 -1.33007 -3.90362 0
M  V30 3082 H 284.774 -0.428973 -0.506831 0
M  V30 3083 H 287.304 -1.73521 -1.08404 0
M  V30 3084 H 287.314 -2.08854 -3.50491 0
M  V30 3085 H 285.989 -3.03342 -2.84528 0
M  V30 3086 H 284.566 -1.31848 -3.48813 0
M  V30 3087 N 286.751 1.08385 -1.14413 0
M  V30 3088 C 287.699 2.17406 -0.826888 0
M  V30 3089 C 288.693 1.6827 0.195312 0
M  V30 3090 O 289.899 1.79927 0.0513892 0
M  V30 3091 H 286.274 0.70934 -0.249681 0
M  V30 3092 H 288.245 2.41388 -1.75426 0
M  V30 3093 C 286.994 3.46215 -0.320979 0
M  V30 3094 H 286.317 3.84401 -1.0989 0
M  V30 3095 H 287.757 4.23777 -0.137549 0
M  V30 3096 C 286.216 3.23067 0.955472 0
M  V30 3097 O 286.746 3.4668 2.02918 0
M  V30 3098 N 284.952 2.7661 0.890798 0
M  V30 3099 H 284.499 2.57594 0.0168815 0
M  V30 3100 H 284.457 2.61501 1.74542 0
M  V30 3101 N 288.23 0.939286 1.26551 0
M  V30 3102 C 289.479 0.581601 1.93133 0
M  V30 3103 C 289.792 -0.883224 1.74524 0
M  V30 3104 O 290.998 -1.3502 2.35546 0
M  V30 3105 C 289.454 0.989425 3.46032 0
M  V30 3106 C 289.062 2.47573 3.73379 0
M  V30 3107 C 290.806 0.703544 4.18629 0
M  V30 3108 C 288.713 2.82235 5.19709 0
M  V30 3109 H 287.643 0.213803 0.723052 0
M  V30 3110 H 290.294 1.14167 1.4366 0
M  V30 3111 H 288.676 0.357902 3.94379 0
M  V30 3112 H 289.85 3.15614 3.35744 0
M  V30 3113 H 288.165 2.73471 3.1401 0
M  V30 3114 H 290.762 0.938869 5.26393 0
M  V30 3115 H 291.105 -0.359639 4.14744 0
M  V30 3116 H 291.638 1.2947 3.76141 0
M  V30 3117 H 288.377 3.87509 5.28694 0
M  V30 3118 H 287.897 2.18854 5.58447 0
M  V30 3119 H 289.576 2.70599 5.87695 0
M  V30 3120 N 289.708 -1.40897 0.706093 0
M  V30 3121 C 290.638 -2.33418 0.0620085 0
M  V30 3122 C 291.619 -1.52385 -0.755827 0
M  V30 3123 O 292.804 -1.80886 -0.706674 0
M  V30 3124 C 289.934 -3.36293 -0.867445 0
M  V30 3125 C 288.888 -4.27716 -0.155932 0
M  V30 3126 C 288.214 -5.2105 -1.20046 0
M  V30 3127 C 289.514 -5.12944 0.984149 0
M  V30 3128 H 291.208 -2.87527 0.83477 0
M  V30 3129 H 288.754 -1.38249 0.402875 0
M  V30 3130 H 290.707 -3.99949 -1.32735 0
M  V30 3131 H 289.431 -2.80556 -1.67199 0
M  V30 3132 H 288.09 -3.65498 0.284047 0
M  V30 3133 H 287.738 -4.61624 -1.99781 0
M  V30 3134 H 287.438 -5.83056 -0.729328 0
M  V30 3135 H 288.962 -5.87584 -1.66066 0
M  V30 3136 H 290.376 -5.70109 0.604048 0
M  V30 3137 H 288.773 -5.83945 1.38304 0
M  V30 3138 H 289.843 -4.49485 1.81911 0
M  V30 3139 N 291.186 -0.45159 -1.50991 0
M  V30 3140 C 292.432 0.110237 -2.025 0
M  V30 3141 C 292.765 1.41109 -1.33424 0
M  V30 3142 O 292.04 1.89135 -0.453659 0
M  V30 3143 C 292.323 0.314271 -3.58726 0
M  V30 3144 C 292.176 -1.00623 -4.38401 0
M  V30 3145 C 293.495 1.07767 -4.26702 0
M  V30 3146 H 290.614 0.0385897 -0.735989 0
M  V30 3147 H 293.256 -0.593374 -1.80497 0
M  V30 3148 H 291.406 0.913601 -3.77605 0
M  V30 3149 H 293.078 -1.64064 -4.31139 0
M  V30 3150 H 291.321 -1.6075 -4.02917 0
M  V30 3151 H 291.992 -0.817341 -5.45915 0
M  V30 3152 H 294.468 0.56986 -4.12179 0
M  V30 3153 H 293.344 1.18921 -5.35863 0
M  V30 3154 H 293.605 2.10939 -3.88532 0
M  V30 3155 N 292.664 1.56529 -0.183458 0
M  V30 3156 C 293.612 2.19873 0.758845 0
M  V30 3157 C 294.606 1.16638 1.22849 0
M  V30 3158 O 295.812 1.3481 1.19274 0
M  V30 3159 H 292.187 0.7045 0.263029 0
M  V30 3160 H 294.158 2.97724 0.200755 0
M  V30 3161 C 292.907 2.86314 1.9728 0
M  V30 3162 H 292.23 3.65487 1.62047 0
M  V30 3163 H 293.67 3.3409 2.61075 0
M  V30 3164 C 292.129 1.86729 2.80418 0
M  V30 3165 O 292.659 1.36031 3.77966 0
M  V30 3166 N 290.865 1.55216 2.45675 0
M  V30 3167 H 290.412 1.96636 1.66409 0
M  V30 3168 H 290.37 0.888388 3.01588 0
M  V30 3169 N 294.142 -0.090211 1.57342 0
M  V30 3170 C 295.367 -0.810082 1.90925 0
M  V30 3171 C 295.792 -1.71248 0.778187 0
M  V30 3172 O 295.15 -1.79278 -0.269991 0
M  V30 3173 C 295.198 -1.59529 3.23393 0
M  V30 3174 O 294.302 -2.70461 3.11327 0
M  V30 3175 H 293.643 -0.222231 0.625707 0
M  V30 3176 H 296.173 -0.0639716 2.045 0
M  V30 3177 H 296.183 -1.97847 3.5682 0
M  V30 3178 H 294.858 -0.933055 4.05299 0
M  V30 3179 H 293.435 -2.35135 2.89423 0
M  V30 3180 N 295.62 -1.53406 -0.361157 0
M  V30 3181 C 297.036 -1.43277 -0.703124 0
M  V30 3182 C 297.236 -0.575384 -1.9311 0
M  V30 3183 O 296.292 -0.0595362 -2.5243 0
M  V30 3184 C 297.605 -2.8653 -0.9122 0
M  V30 3185 C 299.153 -2.96191 -1.01193 0
M  V30 3186 C 299.628 -4.40514 -1.25345 0
M  V30 3187 N 301.119 -4.43962 -1.32105 0
M  V30 3188 C 301.854 -5.52746 -1.5251 0
M  V30 3189 N 301.35 -6.71567 -1.70203 0
M  V30 3190 N 303.143 -5.40331 -1.54916 0
M  V30 3191 H 295.294 -2.07654 0.446475 0
M  V30 3192 H 297.557 -0.937944 0.137715 0
M  V30 3193 H 297.263 -3.51605 -0.0816414 0
M  V30 3194 H 297.137 -3.30441 -1.81903 0
M  V30 3195 H 299.524 -2.31266 -1.83303 0
M  V30 3196 H 299.605 -2.55667 -0.0823929 0
M  V30 3197 H 299.249 -5.06014 -0.437346 0
M  V30 3198 H 299.179 -4.78614 -2.19627 0
M  V30 3199 H 301.67 -3.58332 -1.20028 0
M  V30 3200 H 301.983 -7.50241 -1.85359 0
M  V30 3201 H 300.328 -6.74545 -1.67373 0
M  V30 3202 H 303.519 -4.46465 -1.40663 0
M  V30 3203 H 303.692 -6.25173 -1.70477 0
M  V30 3204 N 297.098 0.621204 -1.44841 0
M  V30 3205 C 298.346 1.37783 -1.47852 0
M  V30 3206 C 298.667 1.94653 -0.116224 0
M  V30 3207 O 297.937 1.76367 0.852737 0
M  V30 3208 H 296.517 0.511453 -0.544449 0
M  V30 3209 H 299.179 0.730446 -1.80694 0
M  V30 3210 H 298.275 2.20414 -2.20961 0
M  V30 3211 N 298.576 1.31904 0.862503 0
M  V30 3212 C 299.486 1.22161 2.00285 0
M  V30 3213 C 300.502 0.136785 1.73462 0
M  V30 3214 O 301.678 0.355994 1.98229 0
M  V30 3215 C 298.743 0.937093 3.33796 0
M  V30 3216 C 297.804 2.10957 3.73893 0
M  V30 3217 C 297.037 1.83853 5.01033 0
M  V30 3218 O 297.26 0.777274 5.65079 0
M  V30 3219 O 296.194 2.69741 5.38074 0
M  V30 3220 H 300.02 2.18008 2.11439 0
M  V30 3221 H 297.605 1.11716 0.991957 0
M  V30 3222 H 299.487 0.794583 4.13841 0
M  V30 3223 H 298.162 0.00871894 3.23699 0
M  V30 3224 H 297.069 2.30752 2.94456 0
M  V30 3225 H 298.402 3.02046 3.88625 0
M  V30 3226 N 300.054 -1.07777 1.14986 0
M  V30 3227 C 301.303 -1.79669 0.916617 0
M  V30 3228 C 301.616 -1.87474 -0.557917 0
M  V30 3229 O 302.822 -2.55845 -0.908617 0
M  V30 3230 C 301.278 -3.22848 1.59051 0
M  V30 3231 C 300.886 -3.23257 3.10176 0
M  V30 3232 C 302.63 -3.99379 1.43864 0
M  V30 3233 C 300.537 -4.61063 3.70372 0
M  V30 3234 H 299.467 -0.673349 0.33929 0
M  V30 3235 H 302.118 -1.21003 1.37951 0
M  V30 3236 H 300.5 -3.8168 1.0553 0
M  V30 3237 H 301.674 -2.74095 3.70417 0
M  V30 3238 H 299.989 -2.60222 3.25074 0
M  V30 3239 H 302.586 -5.0122 1.86232 0
M  V30 3240 H 302.929 -4.14511 0.385564 0
M  V30 3241 H 303.462 -3.47032 1.94457 0
M  V30 3242 H 300.201 -4.51135 4.7556 0
M  V30 3243 H 299.721 -5.1048 3.14913 0
M  V30 3244 H 301.4 -5.30034 3.71043 0
M  V30 3245 N 301.532 -0.945985 -1.26051 0
M  V30 3246 C 302.479 -0.45809 -2.26208 0
M  V30 3247 C 303.449 0.484816 -1.58867 0
M  V30 3248 O 304.634 0.399969 -1.86561 0
M  V30 3249 C 301.774 0.266131 -3.44072 0
M  V30 3250 C 300.887 -0.713005 -4.26075 0
M  V30 3251 C 300.022 0.0329013 -5.3119 0
M  V30 3252 C 299.061 -0.93774 -6.04874 0
M  V30 3253 N 298.198 -0.223274 -7.01745 0
M  V30 3254 H 303.038 -1.3171 -2.67313 0
M  V30 3255 H 300.575 -0.66069 -1.31428 0
M  V30 3256 H 302.533 0.702514 -4.11243 0
M  V30 3257 H 301.163 1.08925 -3.03867 0
M  V30 3258 H 300.215 -1.26789 -3.58648 0
M  V30 3259 H 301.527 -1.45406 -4.77136 0
M  V30 3260 H 300.681 0.528335 -6.04395 0
M  V30 3261 H 299.42 0.806801 -4.8098 0
M  V30 3262 H 298.425 -1.44425 -5.30492 0
M  V30 3263 H 299.65 -1.71172 -6.57173 0
M  V30 3264 H 297.596 0.532046 -6.53839 0
M  V30 3265 H 297.513 -0.90357 -7.50581 0
M  V30 3266 H 298.781 0.250907 -7.79096 0
M  V30 3267 N 303.011 1.40521 -0.713556 0
M  V30 3268 C 303.941 2.33381 -0.0743864 0
M  V30 3269 C 304.922 1.52784 0.747735 0
M  V30 3270 O 306.107 1.81258 0.697071 0
M  V30 3271 C 303.237 3.36748 0.849598 0
M  V30 3272 C 302.191 4.27793 0.133247 0
M  V30 3273 C 301.517 5.21679 1.17281 0
M  V30 3274 C 302.817 5.12415 -1.01134 0
M  V30 3275 H 304.511 2.87081 -0.850007 0
M  V30 3276 H 302.057 1.38034 -0.410201 0
M  V30 3277 H 304.01 4.00648 1.30612 0
M  V30 3278 H 302.734 2.81439 1.65709 0
M  V30 3279 H 301.393 3.65342 -0.303426 0
M  V30 3280 H 301.041 4.62677 1.9733 0
M  V30 3281 H 300.741 5.83435 0.698397 0
M  V30 3282 H 302.265 5.88456 1.62947 0
M  V30 3283 H 303.679 5.69781 -0.634274 0
M  V30 3284 H 302.076 5.83203 -1.41399 0
M  V30 3285 H 303.146 4.48514 -1.84292 0
M  V30 3286 N 304.489 0.459591 1.5075 0
M  V30 3287 C 305.729 -0.09824 2.04164 0
M  V30 3288 C 306.093 -1.3801 1.33481 0
M  V30 3289 O 307.294 -2.01959 1.77387 0
M  V30 3290 C 305.565 -0.289467 3.56226 0
M  V30 3291 S 307.124 -0.807507 4.31306 0
M  V30 3292 H 303.942 -0.0213845 0.710678 0
M  V30 3293 H 306.544 0.624098 1.85271 0
M  V30 3294 H 305.248 0.649461 4.05229 0
M  V30 3295 H 304.779 -1.03825 3.79452 0
M  V30 3296 H 306.794 -2.0824 4.50389 0
M  V30 3297 N 305.967 -1.56429 0.191757 0
M  V30 3298 C 307.244 -1.89224 -0.495332 0
M  V30 3299 C 307.624 -1.10478 -1.79883 0
M  V30 3300 O 306.972 -0.204852 -2.2758 0
M  V30 3301 C 307.182 -3.41548 -0.717367 0
M  V30 3302 C 308.53 -4.11711 -1.03823 0
M  V30 3303 O 309.554 -3.4698 -0.805204 0
M  V30 3304 O 308.413 -5.2611 -1.47887 0
M  V30 3305 H 305.507 -0.785788 -0.25781 0
M  V30 3306 H 308.053 -1.68111 0.231721 0
M  V30 3307 H 306.825 -3.90772 0.203287 0
M  V30 3308 H 306.448 -3.68342 -1.497 0
M  V30 3309 N 307.445 0.0818655 -1.57387 0
M  V30 3310 C 308.692 0.782914 -1.86753 0
M  V30 3311 C 309.02 1.78082 -0.782118 0
M  V30 3312 O 308.275 1.94426 0.22295 0
M  V30 3313 C 308.574 1.53513 -3.22752 0
M  V30 3314 C 308.24 0.678134 -4.45771 0
M  V30 3315 C 306.902 0.441929 -4.79166 0
M  V30 3316 C 309.254 0.0832243 -5.21134 0
M  V30 3317 C 306.582 -0.398833 -5.85343 0
M  V30 3318 C 308.934 -0.744935 -6.28199 0
M  V30 3319 C 307.598 -0.991107 -6.60101 0
M  V30 3320 H 306.868 0.286489 -0.683378 0
M  V30 3321 H 309.515 0.0439808 -1.91449 0
M  V30 3322 H 307.82 2.34599 -3.138 0
M  V30 3323 H 309.517 2.08218 -3.42705 0
M  V30 3324 H 306.107 0.872357 -4.19628 0
M  V30 3325 H 310.291 0.252847 -4.95655 0
M  V30 3326 H 305.547 -0.598405 -6.08465 0
M  V30 3327 H 309.721 -1.21271 -6.8576 0
M  V30 3328 H 307.348 -1.64437 -7.42202 0
M  V30 3329 N 308.923 1.53595 0.353017 0
M  V30 3330 C 310.171 1.70049 1.09215 0
M  V30 3331 C 310.492 0.461406 1.89463 0
M  V30 3332 O 309.762 -0.524633 1.88744 0
M  V30 3333 H 308.342 0.626912 0.40619 0
M  V30 3334 H 311.004 1.90822 0.396585 0
M  V30 3335 H 310.1 2.56718 1.77488 0
M  V30 3336 N 310.401 -0.613514 1.45168 0
M  V30 3337 C 311.647 -1.37471 1.49096 0
M  V30 3338 C 311.98 -1.93765 0.129901 0
M  V30 3339 O 311.255 -1.74707 -0.854858 0
M  V30 3340 C 311.538 -2.52701 2.56542 0
M  V30 3341 C 311.391 -2.01643 4.0207 0
M  V30 3342 C 312.71 -3.54849 2.60327 0
M  V30 3343 H 309.829 -0.498502 0.54283 0
M  V30 3344 H 312.471 -0.692125 1.76945 0
M  V30 3345 H 310.621 -3.10931 2.32926 0
M  V30 3346 H 312.293 -1.48108 4.36877 0
M  V30 3347 H 310.536 -1.32688 4.13009 0
M  V30 3348 H 311.207 -2.84681 4.72928 0
M  V30 3349 H 313.683 -3.0645 2.81474 0
M  V30 3350 H 312.559 -4.32973 3.37381 0
M  V30 3351 H 312.82 -4.10079 1.6519 0
M  V30 3352 N 311.879 -1.3236 -0.855495 0
M  V30 3353 C 313.104 -1.2601 -1.64731 0
M  V30 3354 C 313.529 0.169068 -1.87339 0
M  V30 3355 O 312.887 1.12016 -1.42556 0
M  V30 3356 C 312.935 -2.02417 -2.98429 0
M  V30 3357 O 312.039 -1.3714 -3.8893 0
M  V30 3358 H 311.38 -0.434325 -0.502253 0
M  V30 3359 H 313.91 -1.74661 -1.06558 0
M  V30 3360 H 313.92 -2.12559 -3.48257 0
M  V30 3361 H 312.595 -3.06343 -2.81295 0
M  V30 3362 H 311.172 -1.3554 -3.47395 0
M  V30 3363 N 313.357 1.07166 -1.15556 0
M  V30 3364 C 314.605 1.79443 -0.929764 0
M  V30 3365 C 314.926 1.87246 0.544414 0
M  V30 3366 O 314.196 1.37473 1.39564 0
M  V30 3367 H 312.776 0.664625 -0.341003 0
M  V30 3368 H 315.438 1.29499 -1.45657 0
M  V30 3369 H 314.534 2.81832 -1.34079 0
M  V30 3370 N 314.835 0.952656 1.25548 0
M  V30 3371 C 315.767 0.428609 2.25157 0
M  V30 3372 C 316.78 -0.454428 1.56329 0
M  V30 3373 O 317.969 -0.263023 1.76552 0
M  V30 3374 C 315.069 -0.401972 3.36508 0
M  V30 3375 C 314.242 0.467601 4.34893 0
M  V30 3376 C 313.301 -0.30445 5.25319 0
M  V30 3377 O 312.327 0.296473 5.68427 0
M  V30 3378 N 313.529 -1.59805 5.5807 0
M  V30 3379 H 316.294 1.28497 2.70756 0
M  V30 3380 H 313.855 0.822798 1.39433 0
M  V30 3381 H 315.847 -0.926134 3.9396 0
M  V30 3382 H 314.417 -1.15918 2.90313 0
M  V30 3383 H 313.637 1.17288 3.76347 0
M  V30 3384 H 314.925 1.06119 4.97611 0
M  V30 3385 H 314.323 -2.10823 5.24948 0
M  V30 3386 H 312.88 -2.06822 6.18116 0
M  V30 3387 N 316.313 -1.40141 0.720998 0
M  V30 3388 C 317.243 -2.33339 0.0867621 0
M  V30 3389 C 318.224 -1.53178 -0.739622 0
M  V30 3390 O 319.409 -1.81625 -0.687449 0
M  V30 3391 C 316.539 -3.37194 -0.831728 0
M  V30 3392 C 315.493 -4.27857 -0.110558 0
M  V30 3393 C 314.819 -5.22294 -1.14513 0
M  V30 3394 C 316.119 -5.11872 1.0385 0
M  V30 3395 H 317.813 -2.86626 0.865219 0
M  V30 3396 H 315.359 -1.37814 0.417516 0
M  V30 3397 H 317.312 -4.01335 -1.28485 0
M  V30 3398 H 316.036 -2.82314 -1.64214 0
M  V30 3399 H 314.695 -3.65176 0.322797 0
M  V30 3400 H 314.343 -4.63717 -1.94874 0
M  V30 3401 H 314.043 -5.83797 -0.667446 0
M  V30 3402 H 315.567 -5.89312 -1.59824 0
M  V30 3403 H 316.981 -5.69436 0.664482 0
M  V30 3404 H 315.378 -5.82445 1.4449 0
M  V30 3405 H 316.448 -4.4753 1.86668 0
M  V30 3406 N 317.792 -0.46758 -1.50504 0
M  V30 3407 C 319.041 0.0902868 -2.01498 0
M  V30 3408 C 319.354 1.411 -1.35463 0
M  V30 3409 O 320.56 2.0536 -1.77594 0
M  V30 3410 C 319.016 0.21142 -3.59278 0
M  V30 3411 C 318.624 -1.10065 -4.34269 0
M  V30 3412 C 320.368 0.721433 -4.18325 0
M  V30 3413 C 318.275 -0.943505 -5.83825 0
M  V30 3414 H 317.205 0.037517 -0.753066 0
M  V30 3415 H 319.856 -0.601943 -1.73346 0
M  V30 3416 H 318.238 0.967352 -3.84003 0
M  V30 3417 H 319.412 -1.86726 -4.21272 0
M  V30 3418 H 317.727 -1.5415 -3.86816 0
M  V30 3419 H 320.324 0.85598 -5.27804 0
M  V30 3420 H 320.667 1.71186 -3.79475 0
M  V30 3421 H 321.2 0.0229843 -3.97793 0
M  V30 3422 H 317.939 -1.90719 -6.27141 0
M  V30 3423 H 317.459 -0.217213 -5.99407 0
M  V30 3424 H 319.138 -0.608715 -6.4413 0
M  V30 3425 N 319.27 1.56325 -0.20005 0
M  V30 3426 C 320.547 1.89484 0.48529 0
M  V30 3427 C 320.927 1.1143 1.79294 0
M  V30 3428 O 320.275 0.216919 2.27468 0
M  V30 3429 C 320.485 3.41923 0.699243 0
M  V30 3430 C 321.833 4.12256 1.01638 0
M  V30 3431 O 322.857 3.47402 0.786792 0
M  V30 3432 O 321.716 5.26887 1.45095 0
M  V30 3433 H 318.81 0.787144 0.253639 0
M  V30 3434 H 321.356 1.67985 -0.240633 0
M  V30 3435 H 320.128 3.90658 -0.224008 0
M  V30 3436 H 319.751 3.69131 1.47744 0
M  V30 3437 N 320.748 -0.0735177 1.57428 0
M  V30 3438 C 321.973 -0.789787 1.91774 0
M  V30 3439 C 322.398 -1.70413 0.796306 0
M  V30 3440 O 321.756 -1.79555 -0.250961 0
M  V30 3441 C 321.804 -1.5609 3.25067 0
M  V30 3442 O 320.908 -2.67144 3.14178 0
M  V30 3443 H 320.249 -0.215582 0.628029 0
M  V30 3444 H 322.779 -0.0422781 2.04556 0
M  V30 3445 H 322.789 -1.94052 3.58898 0
M  V30 3446 H 321.464 -0.890015 4.06265 0
M  V30 3447 H 320.041 -2.32052 2.91901 0
M  V30 3448 N 322.226 -1.5378 -0.344866 0
M  V30 3449 C 323.159 -1.7649 -1.4466 0
M  V30 3450 C 324.137 -0.613954 -1.50563 0
M  V30 3451 O 325.321 -0.84896 -1.683 0
M  V30 3452 C 322.448 -1.86235 -2.82903 0
M  V30 3453 C 321.494 -3.08375 -2.94631 0
M  V30 3454 S 322.327 -4.67457 -2.61236 0
M  V30 3455 C 323.483 -4.80079 -4.0159 0
M  V30 3456 H 323.716 -2.69661 -1.2518 0
M  V30 3457 H 321.249 -1.44632 -0.540455 0
M  V30 3458 H 323.207 -1.92535 -3.62547 0
M  V30 3459 H 321.868 -0.940786 -2.9968 0
M  V30 3460 H 321.061 -3.11865 -3.95925 0
M  V30 3461 H 320.663 -3.00294 -2.22934 0
M  V30 3462 H 322.955 -4.61407 -4.96094 0
M  V30 3463 H 323.898 -5.82168 -4.03095 0
M  V30 3464 H 324.306 -4.08544 -3.89554 0
M  V30 3465 N 323.704 0.605807 -1.45491 0
M  V30 3466 C 324.667 1.69836 -1.5391 0
M  V30 3467 C 325.667 1.55261 -0.418424 0
M  V30 3468 O 326.857 1.60296 -0.681965 0
M  V30 3469 C 323.989 3.09117 -1.43734 0
M  V30 3470 H 325.182 1.63738 -2.51257 0
M  V30 3471 H 322.735 0.821689 -1.32959 0
M  V30 3472 H 323.47 3.20791 -0.475788 0
M  V30 3473 H 323.255 3.21104 -2.25021 0
M  V30 3474 H 324.745 3.88696 -1.52661 0
M  V30 3475 N 325.182 1.32811 0.848464 0
M  V30 3476 C 326.13 1.22231 1.97895 0
M  V30 3477 C 327.124 0.125749 1.68933 0
M  V30 3478 O 328.33 0.289083 1.77663 0
M  V30 3479 H 324.705 0.379058 0.649476 0
M  V30 3480 H 326.676 2.17828 2.03945 0
M  V30 3481 C 325.425 0.968572 3.33937 0
M  V30 3482 H 324.748 1.80458 3.56756 0
M  V30 3483 H 326.188 0.934808 4.13567 0
M  V30 3484 C 324.647 -0.328628 3.35293 0
M  V30 3485 O 325.177 -1.33848 3.78745 0
M  V30 3486 N 323.383 -0.352788 2.88451 0
M  V30 3487 H 322.93 0.469541 2.53285 0
M  V30 3488 H 322.888 -1.22057 2.89741 0
M  V30 3489 N 326.66 -1.06551 1.16123 0
M  V30 3490 C 327.885 -1.83544 0.965735 0
M  V30 3491 C 328.31 -1.81843 -0.481102 0
M  V30 3492 O 327.668 -1.21732 -1.34354 0
M  V30 3493 C 327.716 -3.28169 1.49457 0
M  V30 3494 O 326.82 -4.0643 0.699157 0
M  V30 3495 H 326.161 -0.568026 0.343864 0
M  V30 3496 H 328.691 -1.34362 1.54299 0
M  V30 3497 H 328.701 -3.78992 1.51092 0
M  V30 3498 H 327.376 -3.28722 2.54784 0
M  V30 3499 H 325.953 -3.65216 0.7531 0
M  V30 3500 N 328.138 -0.959301 -1.25041 0
M  V30 3501 C 329.385 -0.616611 -1.92884 0
M  V30 3502 C 329.713 0.847036 -1.75087 0
M  V30 3503 O 328.968 1.62374 -1.09239 0
M  V30 3504 C 329.267 -0.927136 -3.45165 0
M  V30 3505 C 328.933 -2.37757 -3.83122 0
M  V30 3506 C 327.595 -2.77402 -3.93194 0
M  V30 3507 C 329.947 -3.31929 -4.01836 0
M  V30 3508 C 327.275 -4.10277 -4.19392 0
M  V30 3509 C 329.627 -4.64423 -4.29528 0
M  V30 3510 C 328.291 -5.03857 -4.37818 0
M  V30 3511 H 327.561 -0.225634 -0.705812 0
M  V30 3512 H 330.208 -1.20921 -1.48493 0
M  V30 3513 H 328.513 -0.252195 -3.90987 0
M  V30 3514 H 330.21 -0.6405 -3.95852 0
M  V30 3515 H 326.8 -2.06013 -3.75841 0
M  V30 3516 H 330.984 -3.02488 -3.93465 0
M  V30 3517 H 326.24 -4.40467 -4.24027 0
M  V30 3518 H 330.414 -5.37369 -4.42953 0
M  V30 3519 H 328.041 -6.06843 -4.57871 0
M  V30 3520 N 329.616 1.39756 -0.72842 0
M  V30 3521 C 330.862 2.00942 -0.273892 0
M  V30 3522 C 331.195 1.57656 1.13394 0
M  V30 3523 O 330.47 0.802434 1.77176 0
M  V30 3524 C 330.753 3.58211 -0.368346 0
M  V30 3525 C 330.606 4.11534 -1.81548 0
M  V30 3526 C 331.925 4.39372 0.253054 0
M  V30 3527 H 329.044 0.730047 -0.100996 0
M  V30 3528 H 331.686 1.66056 -0.923337 0
M  V30 3529 H 329.836 3.88061 0.184588 0
M  V30 3530 H 331.508 3.92431 -2.42478 0
M  V30 3531 H 329.751 3.65341 -2.33898 0
M  V30 3532 H 330.422 5.20682 -1.83288 0
M  V30 3533 H 332.898 4.15527 -0.218224 0
M  V30 3534 H 331.774 5.48677 0.156585 0
M  V30 3535 H 332.035 4.21358 1.33826 0
M  V30 3536 N 331.094 0.475555 1.50254 0
M  V30 3537 C 332.342 -0.077738 2.0195 0
M  V30 3538 C 332.663 -1.39813 1.35931 0
M  V30 3539 O 331.933 -1.89249 0.506123 0
M  V30 3540 H 330.513 -0.031719 0.746326 0
M  V30 3541 H 333.175 0.626995 1.84539 0
M  V30 3542 H 332.271 -0.225995 3.11281 0
M  V30 3543 N 332.573 -1.56217 0.208337 0
M  V30 3544 C 333.801 -2.02337 -0.43215 0
M  V30 3545 C 334.216 -1.08834 -1.54275 0
M  V30 3546 O 333.573 -0.0955462 -1.8225 0
M  V30 3547 C 333.624 -3.48072 -0.976138 0
M  V30 3548 O 333.345 -4.38007 0.0901621 0
M  V30 3549 C 334.846 -4.09773 -1.69119 0
M  V30 3550 H 332.066 -0.662385 -0.10718 0
M  V30 3551 H 334.61 -2.01966 0.320923 0
M  V30 3552 H 332.765 -3.49099 -1.67954 0
M  V30 3553 H 333.179 -5.23543 -0.316701 0
M  V30 3554 H 334.653 -5.13556 -2.02397 0
M  V30 3555 H 335.13 -3.53999 -2.59964 0
M  V30 3556 H 335.736 -4.12556 -1.03332 0
M  V30 3557 N 334.051 0.0651679 -1.57465 0
M  V30 3558 C 335.467 0.420105 -1.53972 0
M  V30 3559 C 335.667 1.78782 -0.929474 0
M  V30 3560 O 334.723 2.46771 -0.534839 0
M  V30 3561 C 336.036 0.355084 -2.98596 0
M  V30 3562 C 337.584 0.434792 -3.09965 0
M  V30 3563 C 338.059 0.399609 -4.56253 0
M  V30 3564 N 339.55 0.459488 -4.60915 0
M  V30 3565 C 340.285 0.454584 -5.71595 0
M  V30 3566 N 339.781 0.404102 -6.9162 0
M  V30 3567 N 341.574 0.501635 -5.59857 0
M  V30 3568 H 333.725 -0.830328 -1.95498 0
M  V30 3569 H 335.988 -0.312244 -0.895102 0
M  V30 3570 H 335.694 -0.583357 -3.46828 0
M  V30 3571 H 335.568 1.16275 -3.58831 0
M  V30 3572 H 337.955 1.36366 -2.61703 0
M  V30 3573 H 338.036 -0.40157 -2.52628 0
M  V30 3574 H 337.68 -0.525436 -5.05175 0
M  V30 3575 H 337.61 1.25359 -5.11461 0
M  V30 3576 H 340.101 0.502482 -3.74544 0
M  V30 3577 H 340.414 0.404468 -7.71741 0
M  V30 3578 H 338.759 0.37069 -6.94011 0
M  V30 3579 H 341.95 0.538812 -4.64989 0
M  V30 3580 H 342.123 0.494345 -6.46112 0
M  V30 3581 N 335.529 1.53961 0.336706 0
M  V30 3582 C 336.754 1.75797 1.10046 0
M  V30 3583 C 337.179 0.498985 1.81361 0
M  V30 3584 O 336.537 -0.548769 1.72795 0
M  V30 3585 C 336.585 2.94257 2.08436 0
M  V30 3586 O 335.689 2.64883 3.16087 0
M  V30 3587 H 335.03 0.582936 0.317934 0
M  V30 3588 H 337.56 2.00945 0.38501 0
M  V30 3589 H 337.57 3.21237 2.51537 0
M  V30 3590 H 336.245 3.85564 1.55927 0
M  V30 3591 H 334.822 2.48812 2.77753 0
M  V30 3592 N 337.007 -0.598083 1.45811 0
M  V30 3593 C 338.237 -1.38121 1.53643 0
M  V30 3594 C 338.645 -1.88425 0.171081 0
M  V30 3595 O 337.988 -1.63409 -0.839237 0
M  V30 3596 C 338.05 -2.61432 2.46766 0
M  V30 3597 C 337.714 -2.32702 3.93318 0
M  V30 3598 C 338.711 -1.92479 4.82957 0
M  V30 3599 C 336.396 -2.45321 4.38318 0
M  V30 3600 C 338.39 -1.65248 6.15607 0
M  V30 3601 C 336.077 -2.17703 5.71007 0
M  V30 3602 C 337.075 -1.7773 6.5947 0
M  V30 3603 O 336.763 -1.50441 7.89698 0
M  V30 3604 H 336.495 -0.428863 0.522544 0
M  V30 3605 H 339.049 -0.73557 1.91777 0
M  V30 3606 H 337.279 -3.28749 2.0362 0
M  V30 3607 H 338.968 -3.23487 2.45175 0
M  V30 3608 H 339.734 -1.82258 4.49452 0
M  V30 3609 H 335.613 -2.75399 3.69697 0
M  V30 3610 H 339.157 -1.33973 6.84614 0
M  V30 3611 H 335.054 -2.27544 6.04065 0
M  V30 3612 H 335.822 -1.64415 8.01817 0
M  V30 3613 N 338.485 -1.33259 -0.841409 0
M  V30 3614 C 339.418 -1.1764 -1.95541 0
M  V30 3615 C 340.396 -0.072501 -1.62438 0
M  V30 3616 O 341.58 -0.23427 -1.87039 0
M  V30 3617 C 338.707 -0.803794 -3.29024 0
M  V30 3618 C 337.753 -1.91482 -3.81099 0
M  V30 3619 S 338.586 -3.52538 -4.03085 0
M  V30 3620 C 339.742 -3.17279 -5.39523 0
M  V30 3621 H 339.975 -2.11941 -2.08491 0
M  V30 3622 H 337.508 -1.18072 -0.9949 0
M  V30 3623 H 339.466 -0.595592 -4.06156 0
M  V30 3624 H 338.127 0.120574 -3.13868 0
M  V30 3625 H 337.32 -1.60742 -4.7768 0
M  V30 3626 H 336.922 -2.07956 -3.10854 0
M  V30 3627 H 339.214 -2.67946 -6.22263 0
M  V30 3628 H 340.157 -4.1293 -5.75234 0
M  V30 3629 H 340.565 -2.53943 -5.04156 0
M  V30 3630 N 339.963 1.05934 -1.16686 0
M  V30 3631 C 341.188 1.83029 -0.975455 0
M  V30 3632 C 341.613 1.82096 0.471452 0
M  V30 3633 O 340.971 1.22443 1.33706 0
M  V30 3634 C 341.019 3.27372 -1.51195 0
M  V30 3635 O 340.123 4.06054 -0.720701 0
M  V30 3636 H 339.464 0.566194 -0.346872 0
M  V30 3637 H 341.994 1.33541 -1.55009 0
M  V30 3638 H 342.004 3.78186 -1.53099 0
M  V30 3639 H 340.679 3.27366 -2.56523 0
M  V30 3640 H 339.256 3.64812 -0.772458 0
M  V30 3641 N 341.441 0.965919 1.2453 0
M  V30 3642 C 342.852 0.665929 1.7442 0
M  V30 3643 C 343.203 -0.818407 1.78316 0
M  V30 3644 O 342.328 -1.64037 1.41141 0
M  V30 3645 C 342.923 1.20211 3.16757 0
M  V30 3646 C 341.482 0.952059 3.6416 0
M  V30 3647 C 340.629 1.33848 2.42858 0
M  V30 3648 H 343.58 1.14144 1.10258 0
M  V30 3649 H 343.601 0.567544 3.76244 0
M  V30 3650 H 343.113 2.28244 3.13889 0
M  V30 3651 H 341.214 -0.112821 3.72429 0
M  V30 3652 H 341.327 1.59645 4.51719 0
M  V30 3653 H 339.691 0.756864 2.43195 0
M  V30 3654 H 340.474 2.42827 2.42673 0
M  V30 3655 N 342.919 -1.39368 0.735821 0
M  V30 3656 C 343.829 -2.34395 0.0979693 0
M  V30 3657 C 344.845 -1.58361 -0.720968 0
M  V30 3658 O 346.021 -1.90648 -0.649245 0
M  V30 3659 C 343.086 -3.37393 -0.797916 0
M  V30 3660 C 342.147 -4.29287 0.0333662 0
M  V30 3661 C 341.38 -5.27365 -0.819854 0
M  V30 3662 O 341.603 -5.31959 -2.05855 0
M  V30 3663 O 340.537 -6.01389 -0.248079 0
M  V30 3664 H 344.363 -2.90601 0.882315 0
M  V30 3665 H 341.948 -1.40909 0.4965 0
M  V30 3666 H 343.83 -4.00505 -1.31048 0
M  V30 3667 H 342.505 -2.83571 -1.56106 0
M  V30 3668 H 341.412 -3.69395 0.591475 0
M  V30 3669 H 342.745 -4.86317 0.758752 0
M  V30 3670 N 344.397 -0.483516 -1.5 0
M  V30 3671 C 345.813 -0.138404 -1.58999 0
M  V30 3672 C 346.013 1.35597 -1.4905 0
M  V30 3673 O 345.069 2.13039 -1.35539 0
M  V30 3674 C 346.382 -0.699658 -2.92447 0
M  V30 3675 C 347.93 -0.664195 -3.05872 0
M  V30 3676 C 348.405 -1.20321 -4.41913 0
M  V30 3677 N 349.896 -1.16315 -4.48358 0
M  V30 3678 C 350.631 -1.55058 -5.52037 0
M  V30 3679 N 350.127 -2.01311 -6.62907 0
M  V30 3680 N 351.92 -1.46584 -5.42651 0
M  V30 3681 H 344.071 -1.45529 -1.5471 0
M  V30 3682 H 346.334 -0.60258 -0.731848 0
M  V30 3683 H 346.04 -1.747 -3.05242 0
M  V30 3684 H 345.914 -0.150194 -3.76901 0
M  V30 3685 H 348.301 0.374272 -2.92717 0
M  V30 3686 H 348.382 -1.25061 -2.23144 0
M  V30 3687 H 348.026 -2.24037 -4.55818 0
M  V30 3688 H 347.956 -0.592896 -5.23252 0
M  V30 3689 H 350.447 -0.824058 -3.68806 0
M  V30 3690 H 350.76 -2.2899 -7.38095 0
M  V30 3691 H 349.105 -2.05273 -6.63994 0
M  V30 3692 H 352.296 -1.10281 -4.54924 0
M  V30 3693 H 352.469 -1.77103 -6.23329 0
M  V30 3694 N 345.875 1.56104 -0.216619 0
M  V30 3695 C 346.805 2.23063 0.690296 0
M  V30 3696 C 347.786 1.20072 1.20485 0
M  V30 3697 O 348.971 1.48643 1.24976 0
M  V30 3698 C 346.101 2.90672 1.90072 0
M  V30 3699 C 345.055 4.00092 1.5202 0
M  V30 3700 C 344.381 4.54972 2.80899 0
M  V30 3701 C 345.681 5.17398 0.71391 0
M  V30 3702 H 347.375 2.99109 0.132038 0
M  V30 3703 H 344.921 1.43866 0.0620664 0
M  V30 3704 H 346.874 3.36204 2.54057 0
M  V30 3705 H 345.598 2.12066 2.48386 0
M  V30 3706 H 344.257 3.55283 0.903839 0
M  V30 3707 H 343.905 3.73102 3.37348 0
M  V30 3708 H 343.605 5.28817 2.56176 0
M  V30 3709 H 345.129 5.0322 3.45836 0
M  V30 3710 H 346.543 5.59342 1.25735 0
M  V30 3711 H 344.94 5.97444 0.563951 0
M  V30 3712 H 346.01 4.84088 -0.280527 0
M  V30 3713 N 347.353 -0.0568162 1.57498 0
M  V30 3714 C 348.285 -1.09292 2.01464 0
M  V30 3715 C 349.298 -1.34112 0.922913 0
M  V30 3716 O 350.487 -1.32089 1.20062 0
M  V30 3717 C 347.587 -2.44068 2.35125 0
M  V30 3718 C 346.76 -2.38995 3.66333 0
M  V30 3719 C 345.819 -3.55997 3.87495 0
M  V30 3720 O 344.845 -3.36746 4.58901 0
M  V30 3721 N 346.047 -4.76888 3.30996 0
M  V30 3722 H 348.812 -0.718386 2.90963 0
M  V30 3723 H 346.373 -0.245235 1.60032 0
M  V30 3724 H 348.365 -3.21011 2.46443 0
M  V30 3725 H 346.935 -2.73468 1.5144 0
M  V30 3726 H 346.155 -1.47336 3.65631 0
M  V30 3727 H 347.443 -2.3272 4.52458 0
M  V30 3728 H 346.841 -4.95431 2.73065 0
M  V30 3729 H 345.398 -5.51291 3.47738 0
M  V30 3730 N 348.832 -1.54138 -0.328536 0
M  V30 3731 C 350.08 -1.71765 -1.06496 0
M  V30 3732 C 350.401 -0.49149 -1.88704 0
M  V30 3733 O 349.671 0.494539 -1.89555 0
M  V30 3734 H 348.251 -0.633295 -0.396164 0
M  V30 3735 H 350.913 -1.91429 -0.366176 0
M  V30 3736 H 350.009 -2.5951 -1.73381 0
M  V30 3737 N 350.31 0.590341 -1.46126 0
M  V30 3738 C 351.538 1.37504 -1.54597 0
M  V30 3739 C 351.953 1.87897 -0.184447 0
M  V30 3740 O 351.31 1.63192 0.816984 0
M  V30 3741 C 351.361 2.56779 -2.54454 0
M  V30 3742 O 351.082 2.08476 -3.85317 0
M  V30 3743 C 352.583 3.49427 -2.72792 0
M  V30 3744 H 349.803 0.420325 -0.523037 0
M  V30 3745 H 352.347 0.718383 -1.91467 0
M  V30 3746 H 350.502 3.1845 -2.20609 0
M  V30 3747 H 350.916 2.86097 -4.396 0
M  V30 3748 H 352.39 4.29619 -3.466 0
M  V30 3749 H 352.867 4.00876 -1.79429 0
M  V30 3750 H 353.473 2.93598 -3.07702 0
M  V30 3751 N 351.788 1.33704 0.83433 0
M  V30 3752 C 352.738 1.20899 1.93306 0
M  V30 3753 C 353.722 0.110783 1.60518 0
M  V30 3754 O 354.914 0.339331 1.73717 0
M  V30 3755 C 352.043 0.955018 3.29749 0
M  V30 3756 C 351.129 2.09587 3.68692 0
M  V30 3757 N 351.52 3.34621 3.79292 0
M  V30 3758 C 349.818 2.00358 3.98463 0
M  V30 3759 C 350.519 4.09472 4.13167 0
M  V30 3760 N 349.495 3.37954 4.25779 0
M  V30 3761 H 353.297 2.15665 1.99664 0
M  V30 3762 H 350.811 1.25777 1.02732 0
M  V30 3763 H 352.808 0.844208 4.08263 0
M  V30 3764 H 351.468 0.0159317 3.24696 0
M  V30 3765 H 352.479 3.69313 3.63082 0
M  V30 3766 H 349.156 1.14137 4.01596 0
M  V30 3767 H 350.546 5.17391 4.28668 0
M  V30 3768 N 353.266 -1.05314 1.17247 0
M  V30 3769 C 354.496 -1.81707 0.983166 0
M  V30 3770 C 354.904 -1.83222 -0.471822 0
M  V30 3771 O 354.247 -1.25721 -1.3394 0
M  V30 3772 C 354.309 -3.29134 1.44606 0
M  V30 3773 C 353.973 -3.51304 2.92292 0
M  V30 3774 C 354.97 -3.4353 3.90235 0
M  V30 3775 C 352.655 -3.78306 3.30439 0
M  V30 3776 C 354.649 -3.62442 5.24323 0
M  V30 3777 C 352.336 -3.96866 4.64694 0
M  V30 3778 C 353.334 -3.88933 5.61445 0
M  V30 3779 O 353.022 -4.06976 6.93272 0
M  V30 3780 H 352.754 -0.579476 0.348114 0
M  V30 3781 H 355.308 -1.33705 1.55924 0
M  V30 3782 H 353.538 -3.78046 0.813537 0
M  V30 3783 H 355.227 -3.87049 1.22262 0
M  V30 3784 H 355.993 -3.22648 3.62109 0
M  V30 3785 H 351.872 -3.83585 2.55702 0
M  V30 3786 H 355.416 -3.56165 5.99827 0
M  V30 3787 H 351.313 -4.1724 4.92525 0
M  V30 3788 H 352.081 -4.24209 6.99992 0
M  V30 3789 N 354.744 -0.972509 -1.24016 0
M  V30 3790 C 355.969 -0.654417 -1.96805 0
M  V30 3791 C 356.394 0.770398 -1.716 0
M  V30 3792 O 355.752 1.52361 -0.982647 0
M  V30 3793 C 355.8 -0.941031 -3.48105 0
M  V30 3794 O 354.904 -0.0289472 -4.1239 0
M  V30 3795 H 354.245 -0.24692 -0.616382 0
M  V30 3796 H 356.775 -1.30396 -1.57664 0
M  V30 3797 H 356.785 -0.87452 -3.98517 0
M  V30 3798 H 355.46 -1.97939 -3.65777 0
M  V30 3799 H 354.037 -0.149192 -3.72601 0
M  V30 3800 N 356.222 1.38976 -0.743202 0
M  V30 3801 C 357.468 2.0064 -0.295189 0
M  V30 3802 C 357.801 1.5885 1.11716 0
M  V30 3803 O 357.076 0.821181 1.76315 0
M  V30 3804 C 357.359 3.578 -0.406318 0
M  V30 3805 C 357.212 4.09586 -1.85903 0
M  V30 3806 C 358.531 4.39616 0.206439 0
M  V30 3807 H 355.65 0.728935 -0.108733 0
M  V30 3808 H 358.292 1.65067 -0.940897 0
M  V30 3809 H 356.442 3.88235 0.143419 0
M  V30 3810 H 358.114 3.89837 -2.46627 0
M  V30 3811 H 356.357 3.6284 -2.3776 0
M  V30 3812 H 357.028 5.18708 -1.888 0
M  V30 3813 H 359.504 4.15273 -0.262283 0
M  V30 3814 H 358.38 5.48812 0.0983819 0
M  V30 3815 H 358.641 4.22754 1.2935 0
M  V30 3816 N 357.7 0.491464 1.49741 0
M  V30 3817 C 358.632 -0.328609 2.26832 0
M  V30 3818 C 359.645 -0.939113 1.32983 0
M  V30 3819 O 360.834 -0.824067 1.58339 0
M  V30 3820 C 357.934 -1.47675 3.05033 0
M  V30 3821 C 357.107 -0.975305 4.26388 0
M  V30 3822 C 356.166 -1.99991 4.86714 0
M  V30 3823 O 355.192 -1.57229 5.47054 0
M  V30 3824 N 356.394 -3.32962 4.75517 0
M  V30 3825 H 359.159 0.332377 2.97851 0
M  V30 3826 H 356.72 0.323441 1.58636 0
M  V30 3827 H 358.712 -2.15954 3.42266 0
M  V30 3828 H 357.282 -2.04206 2.36683 0
M  V30 3829 H 356.502 -0.117723 3.94024 0
M  V30 3830 H 357.79 -0.618531 5.05026 0
M  V30 3831 H 357.188 -3.70399 4.27576 0
M  V30 3832 H 355.745 -3.96982 5.16961 0
M  V30 3833 N 359.178 -1.55987 0.224894 0
M  V30 3834 C 360.403 -2.03232 -0.41369 0
M  V30 3835 C 360.828 -1.10359 -1.52323 0
M  V30 3836 O 360.186 -0.092395 -1.81064 0
M  V30 3837 C 360.234 -3.48682 -0.919405 0
M  V30 3838 O 359.338 -3.58947 -2.03054 0
M  V30 3839 H 358.679 -0.657428 -0.0931903 0
M  V30 3840 H 361.209 -2.01679 0.34451 0
M  V30 3841 H 361.219 -3.8907 -1.22835 0
M  V30 3842 H 359.894 -4.15761 -0.107339 0
M  V30 3843 H 358.471 -3.30448 -1.72796 0
M  V30 3844 N 360.656 0.0484629 -1.57525 0
M  V30 3845 C 361.933 0.777447 -1.79486 0
M  V30 3846 C 362.313 1.94597 -0.818251 0
M  V30 3847 O 361.661 2.28047 0.143767 0
M  V30 3848 C 361.871 1.22864 -3.26658 0
M  V30 3849 C 363.219 1.65251 -3.91123 0
M  V30 3850 O 364.243 1.32372 -3.3069 0
M  V30 3851 O 363.102 2.26207 -4.97486 0
M  V30 3852 H 360.196 0.374357 -0.737419 0
M  V30 3853 H 362.742 0.0267359 -1.69679 0
M  V30 3854 H 361.514 0.393589 -3.89316 0
M  V30 3855 H 361.137 2.03996 -3.41279 0
M  V30 3856 N 362.134 1.5431 0.320358 0
M  V30 3857 C 363.383 1.7188 1.05546 0
M  V30 3858 C 363.696 0.501143 1.89071 0
M  V30 3859 O 364.902 0.558258 2.65699 0
M  V30 3860 C 363.358 3.04025 1.92605 0
M  V30 3861 C 362.966 4.33207 1.14176 0
M  V30 3862 C 364.71 3.30959 2.65832 0
M  V30 3863 C 362.617 5.56412 2.00399 0
M  V30 3864 H 361.547 0.640547 0.397763 0
M  V30 3865 H 364.198 1.80802 0.313522 0
M  V30 3866 H 362.58 2.89019 2.7071 0
M  V30 3867 H 363.754 4.58989 0.40819 0
M  V30 3868 H 362.069 4.13062 0.526165 0
M  V30 3869 H 364.666 4.20203 3.30656 0
M  V30 3870 H 365.009 2.48979 3.33639 0
M  V30 3871 H 365.542 3.46847 1.94787 0
M  V30 3872 H 362.281 6.41004 1.37094 0
M  V30 3873 H 361.801 5.34844 2.7148 0
M  V30 3874 H 363.48 5.92938 2.58908 0
M  V30 3875 N 363.613 -0.582584 1.46437 0
M  V30 3876 C 364.859 -1.34064 1.52965 0
M  V30 3877 C 365.214 -1.91566 0.178968 0
M  V30 3878 O 364.507 -1.73526 -0.812365 0
M  V30 3879 C 364.701 -2.48964 2.56421 0
M  V30 3880 C 364.53 -2.02717 4.01417 0
M  V30 3881 C 363.3 -1.87728 4.69134 0
M  V30 3882 C 365.498 -1.58675 4.8921 0
M  V30 3883 N 363.48 -1.35554 5.98747 0
M  V30 3884 C 364.851 -1.18093 6.08649 0
M  V30 3885 C 366.906 -1.46494 4.75861 0
M  V30 3886 C 365.609 -0.665427 7.16215 0
M  V30 3887 C 367.635 -0.96347 5.83499 0
M  V30 3888 C 366.997 -0.567432 7.02111 0
M  V30 3889 H 363.096 -0.483551 0.614575 0
M  V30 3890 H 365.68 -0.663309 1.83053 0
M  V30 3891 H 363.851 -3.1426 2.28244 0
M  V30 3892 H 365.583 -3.15913 2.52944 0
M  V30 3893 H 362.338 -2.09678 4.24655 0
M  V30 3894 H 362.762 -1.11628 6.67734 0
M  V30 3895 H 367.404 -1.75731 3.8455 0
M  V30 3896 H 365.122 -0.360639 8.07295 0
M  V30 3897 H 368.708 -0.873129 5.75211 0
M  V30 3898 H 367.588 -0.185389 7.83981 0
M  V30 3899 N 365.091 -1.34144 -0.827227 0
M  V30 3900 C 366.316 -1.29476 -1.62021 0
M  V30 3901 C 366.741 0.129292 -1.87655 0
M  V30 3902 O 366.099 1.08967 -1.449 0
M  V30 3903 C 366.147 -2.08702 -2.94068 0
M  V30 3904 O 365.251 -1.45359 -3.85933 0
M  V30 3905 H 364.592 -0.444881 -0.492927 0
M  V30 3906 H 367.122 -1.76882 -1.02829 0
M  V30 3907 H 367.132 -2.19898 -3.43669 0
M  V30 3908 H 365.807 -3.12241 -2.74734 0
M  V30 3909 H 364.384 -1.42879 -3.44442 0
M  V30 3910 N 366.569 1.04691 -1.17803 0
M  V30 3911 C 367.502 2.12068 -0.842765 0
M  V30 3912 C 368.48 1.61455 0.192608 0
M  V30 3913 O 369.664 1.88359 0.072995 0
M  V30 3914 C 366.791 3.37715 -0.258063 0
M  V30 3915 C 365.837 4.07164 -1.26962 0
M  V30 3916 S 366.67 4.55047 -2.82299 0
M  V30 3917 C 367.826 5.83935 -2.25323 0
M  V30 3918 H 368.059 2.4018 -1.75217 0
M  V30 3919 H 365.592 1.17366 -1.00323 0
M  V30 3920 H 367.55 4.10435 0.0727935 0
M  V30 3921 H 366.211 3.0773 0.629357 0
M  V30 3922 H 365.404 4.9746 -0.809263 0
M  V30 3923 H 365.006 3.40533 -1.54639 0
M  V30 3924 H 367.298 6.57552 -1.63192 0
M  V30 3925 H 368.241 6.34725 -3.13894 0
M  V30 3926 H 368.649 5.3874 -1.68582 0
M  V30 3927 N 368.047 0.979072 1.23499 0
M  V30 3928 C 369.295 0.645941 1.91499 0
M  V30 3929 C 369.616 -0.822948 1.76784 0
M  V30 3930 O 368.886 -1.58854 1.14639 0
M  V30 3931 H 367.466 0.235919 0.708767 0
M  V30 3932 H 370.128 1.2426 1.50152 0
M  V30 3933 H 369.224 0.896411 2.9895 0
M  V30 3934 N 369.525 -1.3858 0.750561 0
M  V30 3935 C 370.455 -2.33102 0.136237 0
M  V30 3936 C 371.436 -1.54713 -0.706965 0
M  V30 3937 O 372.621 -1.83043 -0.648769 0
M  V30 3938 C 369.751 -3.38882 -0.760017 0
M  V30 3939 C 368.705 -4.27995 -0.0197785 0
M  V30 3940 C 368.031 -5.24605 -1.03408 0
M  V30 3941 C 369.331 -5.09554 1.14684 0
M  V30 3942 H 371.025 -2.84726 0.925822 0
M  V30 3943 H 368.571 -1.36898 0.446654 0
M  V30 3944 H 370.524 -4.0397 -1.19943 0
M  V30 3945 H 369.248 -2.85734 -1.58189 0
M  V30 3946 H 367.907 -3.64409 0.400184 0
M  V30 3947 H 367.555 -4.67746 -1.84994 0
M  V30 3948 H 367.255 -5.85081 -0.543464 0
M  V30 3949 H 368.779 -5.9257 -1.47288 0
M  V30 3950 H 370.193 -5.67899 0.785118 0
M  V30 3951 H 368.59 -5.7925 1.56812 0
M  V30 3952 H 369.66 -4.4347 1.96118 0
M  V30 3953 N 371.003 -0.499398 -1.49478 0
M  V30 3954 C 372.228 0.044722 -2.07352 0
M  V30 3955 C 372.653 1.30207 -1.35749 0
M  V30 3956 O 372.011 1.76516 -0.413732 0
M  V30 3957 C 372.059 0.283013 -3.59488 0
M  V30 3958 O 371.163 1.35804 -3.89398 0
M  V30 3959 H 370.504 -0.0255147 -0.66351 0
M  V30 3960 H 373.034 -0.698561 -1.92305 0
M  V30 3961 H 373.044 0.515007 -4.04737 0
M  V30 3962 H 371.719 -0.635636 -4.11014 0
M  V30 3963 H 370.296 1.11113 -3.55961 0
M  V30 3964 N 372.481 1.55866 -0.233164 0
M  V30 3965 C 373.411 2.23783 0.666599 0
M  V30 3966 C 374.392 1.21343 1.19205 0
M  V30 3967 O 375.577 1.4996 1.23392 0
M  V30 3968 C 372.707 2.92671 1.86978 0
M  V30 3969 C 371.661 4.01682 1.47768 0
M  V30 3970 C 370.987 4.57926 2.76058 0
M  V30 3971 C 372.287 5.18126 0.658993 0
M  V30 3972 H 373.981 2.99232 0.100306 0
M  V30 3973 H 371.527 1.43924 0.046804 0
M  V30 3974 H 373.48 3.3888 2.50476 0
M  V30 3975 H 372.204 2.14688 2.46123 0
M  V30 3976 H 370.863 3.56222 0.866106 0
M  V30 3977 H 370.511 3.76659 3.33372 0
M  V30 3978 H 370.211 5.31505 2.50552 0
M  V30 3979 H 371.735 5.06859 3.40479 0
M  V30 3980 H 373.149 5.60644 1.19795 0
M  V30 3981 H 371.546 5.98009 0.500552 0
M  V30 3982 H 372.616 4.83763 -0.331856 0
M  V30 3983 N 373.959 -0.0401083 1.57549 0
M  V30 3984 C 375.205 -0.734211 1.89043 0
M  V30 3985 C 375.538 -1.75591 0.829535 0
M  V30 3986 O 374.813 -1.93868 -0.156706 0
M  V30 3987 C 375.096 -1.41374 3.31188 0
M  V30 3988 C 374.949 -0.406299 4.47961 0
M  V30 3989 C 376.268 -2.35061 3.72068 0
M  V30 3990 H 373.387 -0.265447 0.687537 0
M  V30 3991 H 376.029 0.00294087 1.9 0
M  V30 3992 H 374.179 -2.04206 3.30503 0
M  V30 3993 H 375.851 0.219255 4.60779 0
M  V30 3994 H 374.094 0.275485 4.32924 0
M  V30 3995 H 374.765 -0.920022 5.44279 0
M  V30 3996 H 377.241 -1.82282 3.74049 0
M  V30 3997 H 376.117 -2.79593 4.72355 0
M  V30 3998 H 376.378 -3.21258 3.0372 0
M  V30 3999 N 375.437 -1.54477 -0.31217 0
M  V30 4000 C 376.347 -1.87695 -1.4074 0
M  V30 4001 C 377.363 -0.769975 -1.56036 0
M  V30 4002 O 378.539 -1.06537 -1.70915 0
M  V30 4003 C 375.604 -2.10755 -2.75287 0
M  V30 4004 C 374.665 -3.34514 -2.69071 0
M  V30 4005 C 373.898 -3.56465 -3.97201 0
M  V30 4006 O 374.121 -2.81637 -4.96021 0
M  V30 4007 O 373.055 -4.49964 -3.9977 0
M  V30 4008 H 376.881 -2.80849 -1.15574 0
M  V30 4009 H 374.466 -1.40526 -0.507228 0
M  V30 4010 H 376.348 -2.27188 -3.54913 0
M  V30 4011 H 375.023 -1.20788 -3.0032 0
M  V30 4012 H 373.93 -3.23456 -1.87955 0
M  V30 4013 H 375.263 -4.24575 -2.48992 0
M  V30 4014 N 376.915 0.57481 -1.46744 0
M  V30 4015 C 377.848 1.69827 -1.52427 0
M  V30 4016 C 378.826 1.58151 -0.377744 0
M  V30 4017 O 380.01 1.79257 -0.58303 0
M  V30 4018 C 377.137 3.07943 -1.41027 0
M  V30 4019 C 376.183 3.38116 -2.59961 0
M  V30 4020 S 377.016 3.29313 -4.22272 0
M  V30 4021 C 378.172 4.69953 -4.13394 0
M  V30 4022 H 378.405 1.64748 -2.47478 0
M  V30 4023 H 375.938 0.754203 -1.34726 0
M  V30 4024 H 377.896 3.87619 -1.35137 0
M  V30 4025 H 376.557 3.10504 -0.473909 0
M  V30 4026 H 375.75 4.38762 -2.47999 0
M  V30 4027 H 375.352 2.66024 -2.62882 0
M  V30 4028 H 377.644 5.60517 -3.80562 0
M  V30 4029 H 378.587 4.86972 -5.14066 0
M  V30 4030 H 378.995 4.47174 -3.44522 0
M  V30 4031 N 378.394 1.34581 0.820102 0
M  V30 4032 C 379.357 1.2628 1.91275 0
M  V30 4033 C 380.357 0.177344 1.59819 0
M  V30 4034 O 381.547 0.430156 1.68806 0
M  V30 4035 C 378.679 0.950327 3.27386 0
M  V30 4036 H 379.872 2.23421 2.00057 0
M  V30 4037 H 377.425 1.1891 1.0144 0
M  V30 4038 H 378.16 -0.0177938 3.24295 0
M  V30 4039 H 377.945 1.73549 3.51601 0
M  V30 4040 H 379.435 0.917492 4.07396 0
M  V30 4041 N 379.872 -1.04064 1.18357 0
M  V30 4042 C 381.118 -1.77528 0.980397 0
M  V30 4043 C 381.451 -1.87948 -0.48879 0
M  V30 4044 O 380.726 -1.3876 -1.36293 0
M  V30 4045 C 381.009 -3.20797 1.63588 0
M  V30 4046 C 380.862 -3.1832 3.17793 0
M  V30 4047 C 382.181 -4.18911 1.34914 0
M  V30 4048 H 379.3 -0.644443 0.357578 0
M  V30 4049 H 381.942 -1.2156 1.46024 0
M  V30 4050 H 380.092 -3.68586 1.22788 0
M  V30 4051 H 381.764 -2.78521 3.67728 0
M  V30 4052 H 380.007 -2.56351 3.49952 0
M  V30 4053 H 380.678 -4.19489 3.58794 0
M  V30 4054 H 383.154 -3.7967 1.70265 0
M  V30 4055 H 382.03 -5.17374 1.83346 0
M  V30 4056 H 382.291 -4.41262 0.272027 0
M  V30 4057 N 381.35 -0.985608 -1.22978 0
M  V30 4058 C 382.598 -0.656087 -1.91154 0
M  V30 4059 C 382.919 0.813561 -1.77218 0
M  V30 4060 O 382.189 1.58244 -1.1548 0
M  V30 4061 H 380.769 -0.239674 -0.707506 0
M  V30 4062 H 383.431 -1.25054 -1.49491 0
M  V30 4063 H 382.527 -0.912253 -2.9847 0
M  V30 4064 N 382.828 1.3818 -0.7579 0
M  V30 4065 C 384.244 1.5353 -0.435972 0
M  V30 4066 C 384.444 1.71961 1.05032 0
M  V30 4067 O 383.5 1.73307 1.83633 0
M  V30 4068 C 384.813 2.73989 -1.23898 0
M  V30 4069 C 386.361 2.87841 -1.22949 0
M  V30 4070 C 386.836 4.11266 -2.01554 0
M  V30 4071 N 388.327 4.18352 -1.98837 0
M  V30 4072 C 389.062 5.12856 -2.5645 0
M  V30 4073 N 388.558 6.13005 -3.22794 0
M  V30 4074 N 390.351 5.05238 -2.46356 0
M  V30 4075 H 382.502 1.24467 -1.7211 0
M  V30 4076 H 384.765 0.604982 -0.729864 0
M  V30 4077 H 384.471 2.66789 -2.29165 0
M  V30 4078 H 384.345 3.67294 -0.858764 0
M  V30 4079 H 386.732 2.9452 -0.184854 0
M  V30 4080 H 386.813 1.95534 -1.64924 0
M  V30 4081 H 386.457 4.05349 -3.06031 0
M  V30 4082 H 386.387 5.02661 -1.5697 0
M  V30 4083 H 388.878 3.46628 -1.50524 0
M  V30 4084 H 389.191 6.81619 -3.64165 0
M  V30 4085 H 387.536 6.13325 -3.2689 0
M  V30 4086 H 390.727 4.25938 -1.9415 0
M  V30 4087 H 390.9 5.78707 -2.91552 0
M  V30 4088 N 384.306 0.507319 1.49211 0
M  V30 4089 C 385.536 -0.0315292 2.06576 0
M  V30 4090 C 385.944 -1.30791 1.36713 0
M  V30 4091 O 385.287 -1.78324 0.441181 0
M  V30 4092 C 385.349 -0.349104 3.57801 0
M  V30 4093 C 385.013 0.830475 4.49391 0
M  V30 4094 C 386.01 1.72271 4.90529 0
M  V30 4095 C 383.695 1.03107 4.91604 0
M  V30 4096 C 385.689 2.79964 5.72625 0
M  V30 4097 C 383.376 2.11116 5.73475 0
M  V30 4098 C 384.374 2.99379 6.1389 0
M  V30 4099 O 384.062 4.05523 6.94123 0
M  V30 4100 H 383.794 0.0201002 0.675701 0
M  V30 4101 H 386.348 0.705737 1.92895 0
M  V30 4102 H 384.578 -1.14005 3.69513 0
M  V30 4103 H 386.267 -0.827319 3.97379 0
M  V30 4104 H 387.033 1.57958 4.58557 0
M  V30 4105 H 382.912 0.353417 4.59643 0
M  V30 4106 H 386.456 3.48884 6.04091 0
M  V30 4107 H 382.353 2.25421 6.0486 0
M  V30 4108 H 383.121 4.02953 7.1244 0
M  V30 4109 N 385.784 -1.5574 0.241426 0
M  V30 4110 C 387.195 -1.84842 -0.262755 0
M  V30 4111 C 387.546 -1.16317 -1.58003 0
M  V30 4112 O 386.671 -0.439653 -2.11887 0
M  V30 4113 C 387.266 -3.35332 -0.483523 0
M  V30 4114 C 385.825 -3.6468 -0.931977 0
M  V30 4115 C 384.972 -2.77299 -0.0061151 0
M  V30 4116 H 387.923 -1.51761 0.464129 0
M  V30 4117 H 387.944 -3.56615 -1.32688 0
M  V30 4118 H 387.456 -3.85178 0.47537 0
M  V30 4119 H 385.557 -3.20307 -1.90353 0
M  V30 4120 H 385.67 -4.72498 -0.792628 0
M  V30 4121 H 384.034 -2.49408 -0.516503 0
M  V30 4122 H 384.817 -3.2995 0.948052 0
M  V30 4123 N 387.262 0.0317525 -1.57568 0
M  V30 4124 C 388.511 0.722131 -1.8833 0
M  V30 4125 C 388.824 1.76664 -0.839587 0
M  V30 4126 O 390.03 2.50942 -1.03635 0
M  V30 4127 C 388.486 1.33544 -3.34207 0
M  V30 4128 C 388.094 0.327415 -4.46802 0
M  V30 4129 C 389.838 2.00585 -3.7412 0
M  V30 4130 C 387.745 0.948915 -5.83738 0
M  V30 4131 H 386.675 0.273466 -0.702661 0
M  V30 4132 H 389.326 -0.0235811 -1.83485 0
M  V30 4133 H 387.708 2.13077 -3.33788 0
M  V30 4134 H 388.882 -0.441006 -4.58685 0
M  V30 4135 H 387.197 -0.240758 -4.15703 0
M  V30 4136 H 389.794 2.47932 -4.73744 0
M  V30 4137 H 390.137 2.82285 -3.05975 0
M  V30 4138 H 390.67 1.27831 -3.76702 0
M  V30 4139 H 387.409 0.171387 -6.55276 0
M  V30 4140 H 386.929 1.68724 -5.7558 0
M  V30 4141 H 388.608 1.45705 -6.3038 0
M  V30 4142 N 388.74 1.54641 0.303973 0
M  V30 4143 C 390.151 1.64811 0.877163 0
M  V30 4144 C 390.502 0.554838 1.88191 0
M  V30 4145 O 389.627 -0.309033 2.14182 0
M  V30 4146 C 390.222 2.9876 1.59775 0
M  V30 4147 C 388.781 3.11061 2.11938 0
M  V30 4148 C 387.928 2.60479 0.951097 0
M  V30 4149 H 390.879 1.58493 0.0810486 0
M  V30 4150 H 390.9 2.90017 2.46314 0
M  V30 4151 H 390.412 3.7831 0.866226 0
M  V30 4152 H 388.513 2.36225 2.88146 0
M  V30 4153 H 388.626 4.17171 2.35595 0
M  V30 4154 H 386.99 2.16859 1.33583 0
M  V30 4155 H 387.773 3.42504 0.233581 0
M  V30 4156 N 390.218 -0.567019 1.47046 0
M  V30 4157 C 391.629 -1.14916 1.47143 0
M  V30 4158 C 391.98 -1.94954 0.220767 0
M  V30 4159 O 391.105 -2.05602 -0.67505 0
M  V30 4160 C 391.7 -2.09069 2.666 0
M  V30 4161 C 390.259 -2.62575 2.69687 0
M  V30 4162 C 389.406 -1.38755 2.40088 0
M  V30 4163 H 392.357 -0.354126 1.54699 0
M  V30 4164 H 392.378 -2.92789 2.43011 0
M  V30 4165 H 391.89 -1.50789 3.57609 0
M  V30 4166 H 389.991 -3.24681 1.82792 0
M  V30 4167 H 390.104 -3.04239 3.70102 0
M  V30 4168 H 388.468 -1.69098 1.90468 0
M  V30 4169 H 389.251 -0.822822 3.33293 0
M  V30 4170 N 391.696 -1.35014 -0.812953 0
M  V30 4171 C 393.107 -1.25035 -1.38648 0
M  V30 4172 C 393.458 0.119967 -1.95833 0
M  V30 4173 O 392.583 1.02069 -1.90816 0
M  V30 4174 C 393.178 -2.26394 -2.52054 0
M  V30 4175 C 391.737 -2.20175 -3.05287 0
M  V30 4176 C 390.884 -2.12451 -1.78213 0
M  V30 4177 H 393.835 -1.46235 -0.616516 0
M  V30 4178 H 393.856 -1.88672 -3.30429 0
M  V30 4179 H 393.368 -3.26116 -2.10404 0
M  V30 4180 H 391.469 -1.23841 -3.51417 0
M  V30 4181 H 391.582 -3.11863 -3.63701 0
M  V30 4182 H 389.946 -1.58328 -1.9951 0
M  V30 4183 H 390.729 -3.14024 -1.38723 0
M  V30 4184 N 393.175 1.03435 -1.18907 0
M  V30 4185 C 394.452 1.73778 -0.89781 0
M  V30 4186 C 394.832 2.02458 0.597832 0
M  V30 4187 O 394.18 1.67482 1.55441 0
M  V30 4188 C 394.39 3.01845 -1.75187 0
M  V30 4189 C 395.738 3.7546 -1.9828 0
M  V30 4190 O 396.762 3.11759 -1.72293 0
M  V30 4191 O 395.621 4.89966 -2.42065 0
M  V30 4192 H 392.715 0.75651 -0.334098 0
M  V30 4193 H 395.261 1.09444 -1.29693 0
M  V30 4194 H 394.033 2.76836 -2.76545 0
M  V30 4195 H 393.656 3.73919 -1.35167 0
M  V30 4196 N 394.653 0.992116 1.22453 0
M  V30 4197 C 395.616 0.546883 2.2258 0
M  V30 4198 C 396.616 -0.369829 1.56489 0
M  V30 4199 O 397.806 -0.161896 1.73446 0
M  V30 4200 C 394.938 -0.204659 3.40285 0
M  V30 4201 H 396.131 1.43234 2.63484 0
M  V30 4202 H 393.684 0.779239 1.3549 0
M  V30 4203 H 394.419 -1.10614 3.04853 0
M  V30 4204 H 394.204 0.45354 3.89468 0
M  V30 4205 H 395.694 -0.504358 4.14543 0
M  V30 4206 N 396.131 -1.37776 0.765217 0
M  V30 4207 C 397.078 -2.30342 0.145274 0
M  V30 4208 C 398.048 -1.5077 -0.696971 0
M  V30 4209 O 399.233 -1.79362 -0.650689 0
M  V30 4210 C 396.373 -3.37227 -0.732939 0
M  V30 4211 C 395.486 -4.31819 0.125199 0
M  V30 4212 C 394.621 -5.25777 -0.757107 0
M  V30 4213 C 393.66 -6.12012 0.103963 0
M  V30 4214 N 392.797 -6.98232 -0.735953 0
M  V30 4215 H 397.637 -2.8278 0.940195 0
M  V30 4216 H 395.174 -1.39211 0.475255 0
M  V30 4217 H 397.132 -3.97818 -1.25686 0
M  V30 4218 H 395.762 -2.86171 -1.49353 0
M  V30 4219 H 394.814 -3.7259 0.766865 0
M  V30 4220 H 396.126 -4.92509 0.789683 0
M  V30 4221 H 395.28 -5.91541 -1.34776 0
M  V30 4222 H 394.019 -4.65481 -1.45529 0
M  V30 4223 H 393.024 -5.45233 0.707197 0
M  V30 4224 H 394.249 -6.74379 0.799381 0
M  V30 4225 H 392.195 -6.40472 -1.41887 0
M  V30 4226 H 392.112 -7.55891 -0.128624 0
M  V30 4227 H 393.38 -7.68393 -1.31121 0
M  V30 4228 N 397.609 -0.515225 -1.4894 0
M  V30 4229 C 398.519 0.259774 -2.33157 0
M  V30 4230 C 399.535 0.953501 -1.45548 0
M  V30 4231 O 400.711 0.931735 -1.78552 0
M  V30 4232 C 397.776 1.30193 -3.21326 0
M  V30 4233 C 396.837 0.620129 -4.24797 0
M  V30 4234 C 396.07 1.61263 -5.08753 0
M  V30 4235 O 396.293 2.84389 -4.94448 0
M  V30 4236 O 395.227 1.16013 -5.90614 0
M  V30 4237 H 399.053 -0.429932 -3.00641 0
M  V30 4238 H 396.638 -0.276346 -1.46822 0
M  V30 4239 H 398.52 1.90455 -3.75905 0
M  V30 4240 H 397.195 1.97431 -2.56521 0
M  V30 4241 H 396.102 -0.0226019 -3.74093 0
M  V30 4242 H 397.435 -0.0100493 -4.92199 0
M  V30 4243 N 399.087 1.5561 -0.249682 0
M  V30 4244 C 400.017 2.24477 0.642826 0
M  V30 4245 C 400.998 1.22601 1.17911 0
M  V30 4246 O 402.183 1.5126 1.21795 0
M  V30 4247 C 399.313 2.94638 1.83863 0
M  V30 4248 C 398.267 4.03227 1.435 0
M  V30 4249 C 397.593 4.60828 2.71186 0
M  V30 4250 C 398.893 5.18796 0.604002 0
M  V30 4251 H 400.587 2.99321 0.0685625 0
M  V30 4252 H 398.133 1.43965 0.0315363 0
M  V30 4253 H 400.086 3.41517 2.46868 0
M  V30 4254 H 398.81 2.17287 2.43832 0
M  V30 4255 H 397.469 3.57121 0.828275 0
M  V30 4256 H 397.117 3.80174 3.29358 0
M  V30 4257 H 396.817 5.34132 2.44901 0
M  V30 4258 H 398.341 5.10442 3.35084 0
M  V30 4259 H 399.755 5.61883 1.13842 0
M  V30 4260 H 398.152 5.98506 0.437097 0
M  V30 4261 H 399.222 4.83384 -0.383147 0
M  V30 4262 N 400.565 -0.0233959 1.57583 0
M  V30 4263 C 401.475 -1.03907 2.10334 0
M  V30 4264 C 402.491 -1.39257 1.04323 0
M  V30 4265 O 403.667 -1.48462 1.36091 0
M  V30 4266 C 400.732 -2.31938 2.57693 0
M  V30 4267 C 399.793 -2.03117 3.78209 0
M  V30 4268 C 399.026 -3.25043 4.233 0
M  V30 4269 O 399.249 -4.35916 3.67876 0
M  V30 4270 O 398.183 -3.10411 5.15683 0
M  V30 4271 H 402.009 -0.620748 2.97288 0
M  V30 4272 H 399.594 -0.240743 1.47448 0
M  V30 4273 H 401.476 -3.07196 2.88458 0
M  V30 4274 H 400.151 -2.73055 1.73847 0
M  V30 4275 H 399.058 -1.25408 3.52454 0
M  V30 4276 H 400.391 -1.66852 4.63056 0
M  V30 4277 N 402.043 -1.548 -0.295768 0
M  V30 4278 C 402.973 -1.89115 -1.36959 0
M  V30 4279 C 403.954 -0.75059 -1.52644 0
M  V30 4280 O 405.139 -1.00678 -1.66065 0
M  V30 4281 C 402.269 -2.14307 -2.73295 0
M  V30 4282 C 401.223 -3.30151 -2.72368 0
M  V30 4283 C 400.549 -3.40772 -4.12042 0
M  V30 4284 C 401.849 -4.67126 -2.33646 0
M  V30 4285 H 403.543 -2.79053 -1.08488 0
M  V30 4286 H 401.089 -1.34266 -0.520443 0
M  V30 4287 H 403.042 -2.36898 -3.48507 0
M  V30 4288 H 401.766 -1.21145 -3.03301 0
M  V30 4289 H 400.425 -3.0749 -1.99613 0
M  V30 4290 H 400.073 -2.45117 -4.39234 0
M  V30 4291 H 399.773 -4.18645 -4.12322 0
M  V30 4292 H 401.297 -3.6563 -4.89027 0
M  V30 4293 H 402.711 -4.89414 -2.98575 0
M  V30 4294 H 401.108 -5.47751 -2.45129 0
M  V30 4295 H 402.178 -4.67489 -1.28772 0
M  V30 4296 N 403.521 0.559213 -1.47345 0
M  V30 4297 C 404.454 1.68201 -1.5422 0
M  V30 4298 C 405.432 1.57742 -0.394497 0
M  V30 4299 O 406.616 1.78628 -0.60201 0
M  V30 4300 C 403.743 3.0643 -1.44285 0
M  V30 4301 C 402.789 3.3534 -2.63532 0
M  V30 4302 S 403.622 3.24816 -4.25741 0
M  V30 4303 C 404.778 4.65542 -4.18355 0
M  V30 4304 H 405.011 1.62114 -2.49211 0
M  V30 4305 H 402.544 0.739871 -1.35519 0
M  V30 4306 H 404.502 3.86164 -1.3924 0
M  V30 4307 H 403.163 3.09984 -0.506816 0
M  V30 4308 H 402.356 4.36107 -2.52639 0
M  V30 4309 H 401.958 2.63221 -2.65689 0
M  V30 4310 H 404.25 5.56449 -3.86485 0
M  V30 4311 H 405.193 4.81493 -5.19202 0
M  V30 4312 H 405.601 4.43495 -3.49246 0
M  V30 4313 N 404.999 1.35443 0.805782 0
M  V30 4314 C 406.246 1.28761 1.56291 0
M  V30 4315 C 406.574 -0.137747 1.94012 0
M  V30 4316 O 405.829 -1.1032 1.61642 0
M  V30 4317 C 406.128 2.14045 2.86216 0
M  V30 4318 C 405.794 3.62826 2.67709 0
M  V30 4319 C 404.456 4.0338 2.6237 0
M  V30 4320 C 406.808 4.57227 2.50186 0
M  V30 4321 C 404.136 5.36501 2.37451 0
M  V30 4322 C 406.488 5.90547 2.26797 0
M  V30 4323 C 405.152 6.30245 2.1988 0
M  V30 4324 H 404.422 0.471171 0.571908 0
M  V30 4325 H 407.069 1.67347 0.930974 0
M  V30 4326 H 405.374 1.68342 3.53791 0
M  V30 4327 H 407.071 2.0621 3.43917 0
M  V30 4328 H 403.661 3.30644 2.72713 0
M  V30 4329 H 407.845 4.2678 2.53323 0
M  V30 4330 H 403.101 5.66259 2.30567 0
M  V30 4331 H 407.275 6.63274 2.12228 0
M  V30 4332 H 404.902 7.33328 2.00333 0
M  V30 4333 N 406.477 -1.02803 1.19454 0
M  V30 4334 C 407.725 -1.75869 0.995722 0
M  V30 4335 C 408.046 -1.89138 -0.474543 0
M  V30 4336 O 407.316 -1.42558 -1.34366 0
M  V30 4337 H 405.896 -0.651511 0.365435 0
M  V30 4338 H 408.558 -1.24004 1.50363 0
M  V30 4339 H 407.654 -2.76661 1.44447 0
M  V30 4340 N 407.956 -0.998596 -1.21925 0
M  V30 4341 C 409.196 -0.685948 -1.92546 0
M  V30 4342 C 409.56 0.768441 -1.75952 0
M  V30 4343 O 410.761 1.19277 -2.40887 0
M  V30 4344 C 409.032 -1.08767 -3.40448 0
M  V30 4345 S 410.591 -0.894251 -4.29591 0
M  V30 4346 H 407.409 -0.250622 -0.665364 0
M  V30 4347 H 410.011 -1.28207 -1.47591 0
M  V30 4348 H 408.715 -2.14242 -3.50041 0
M  V30 4349 H 408.246 -0.48357 -3.90417 0
M  V30 4350 H 410.261 0.212149 -4.95746 0
M  V30 4351 N 409.434 1.37368 -0.772513 0
M  V30 4352 C 410.366 2.28899 -0.117502 0
M  V30 4353 C 411.379 1.4867 0.663405 0
M  V30 4354 O 412.568 1.71314 0.501372 0
M  V30 4355 C 409.668 3.2788 0.857192 0
M  V30 4356 C 408.841 4.37207 0.129938 0
M  V30 4357 C 407.9 5.16257 1.01811 0
M  V30 4358 O 406.926 5.67159 0.481601 0
M  V30 4359 N 408.128 5.31058 2.3443 0
M  V30 4360 H 410.893 2.85752 -0.903662 0
M  V30 4361 H 408.454 1.49353 -0.62493 0
M  V30 4362 H 410.446 3.77647 1.45482 0
M  V30 4363 H 409.016 2.7179 1.54432 0
M  V30 4364 H 408.236 3.88827 -0.648605 0
M  V30 4365 H 409.524 5.07434 -0.372559 0
M  V30 4366 H 408.922 4.91287 2.80452 0
M  V30 4367 H 407.479 5.84131 2.89197 0
M  V30 4368 N 410.912 0.523116 1.48665 0
M  V30 4369 C 412.158 -0.0134963 2.02796 0
M  V30 4370 C 412.491 -1.34582 1.40004 0
M  V30 4371 O 411.766 -1.86756 0.543381 0
M  V30 4372 C 412.049 -0.14276 3.59817 0
M  V30 4373 C 411.902 1.21425 4.331 0
M  V30 4374 C 413.221 -0.872856 4.31357 0
M  V30 4375 H 410.34 -0.00343074 0.736992 0
M  V30 4376 H 412.982 0.678816 1.7746 0
M  V30 4377 H 411.132 -0.732401 3.81534 0
M  V30 4378 H 412.804 1.84447 4.2282 0
M  V30 4379 H 411.047 1.79791 3.94788 0
M  V30 4380 H 411.718 1.07687 5.41394 0
M  V30 4381 H 414.194 -0.372555 4.14429 0
M  V30 4382 H 413.07 -0.932185 5.40927 0
M  V30 4383 H 413.331 -1.92161 3.98154 0
M  V30 4384 N 412.39 -1.55475 0.257931 0
M  V30 4385 C 413.3 -2.2549 -0.647425 0
M  V30 4386 C 414.316 -1.2748 -1.18427 0
M  V30 4387 O 415.492 -1.6038 -1.2182 0
M  V30 4388 C 412.557 -2.94916 -1.82278 0
M  V30 4389 C 411.618 -4.08363 -1.32432 0
M  V30 4390 C 410.851 -4.74469 -2.44366 0
M  V30 4391 O 411.074 -4.39701 -3.63344 0
M  V30 4392 O 410.008 -5.62763 -2.13497 0
M  V30 4393 H 413.834 -3.03593 -0.0807707 0
M  V30 4394 H 411.419 -1.49377 0.0259962 0
M  V30 4395 H 413.301 -3.38606 -2.50846 0
M  V30 4396 H 411.976 -2.19744 -2.37685 0
M  V30 4397 H 410.883 -3.69166 -0.605605 0
M  V30 4398 H 412.216 -4.85385 -0.816211 0
M  V30 4399 N 413.868 0.0150385 -1.57593 0
M  V30 4400 C 415.116 0.701613 -1.8953 0
M  V30 4401 C 415.437 1.75139 -0.857396 0
M  V30 4402 O 414.707 1.95607 0.107194 0
M  V30 4403 H 413.287 0.26213 -0.699498 0
M  V30 4404 H 415.949 -0.0223304 -1.94887 0
M  V30 4405 H 415.045 1.18236 -2.88837 0
M  V30 4406 N 415.346 1.54954 0.287554 0
M  V30 4407 C 416.623 1.65569 1.04146 0
M  V30 4408 C 417.003 0.512672 2.0478 0
M  V30 4409 O 416.351 -0.489038 2.23205 0
M  V30 4410 C 416.561 3.04163 1.71131 0
M  V30 4411 C 417.909 3.61429 2.22832 0
M  V30 4412 O 418.933 3.06702 1.81141 0
M  V30 4413 O 417.792 4.57281 2.9926 0
M  V30 4414 H 414.886 0.671881 0.482188 0
M  V30 4415 H 417.432 1.67297 0.28457 0
M  V30 4416 H 416.204 3.78796 0.981303 0
M  V30 4417 H 415.827 3.06271 2.53543 0
M  V30 4418 N 416.824 -0.551391 1.4764 0
M  V30 4419 C 417.787 -1.64007 1.60107 0
M  V30 4420 C 418.787 -1.53601 0.47576 0
M  V30 4421 O 419.977 -1.57655 0.740988 0
M  V30 4422 C 417.109 -3.03569 1.55108 0
M  V30 4423 H 418.302 -1.543 2.57161 0
M  V30 4424 H 415.855 -0.771776 1.35917 0
M  V30 4425 H 416.59 -3.18804 0.594519 0
M  V30 4426 H 416.375 -3.12532 2.36783 0
M  V30 4427 H 417.865 -3.82762 1.66982 0
M  V30 4428 N 418.302 -1.35869 -0.798587 0
M  V30 4429 C 419.265 -1.29307 -1.89242 0
M  V30 4430 C 420.265 -0.202747 -1.59517 0
M  V30 4431 O 421.455 -0.456957 -1.681 0
M  V30 4432 C 418.587 -1.00229 -3.25833 0
M  V30 4433 H 419.78 -2.26576 -1.96478 0
M  V30 4434 H 417.333 -1.20509 -0.995358 0
M  V30 4435 H 418.068 -0.033801 -3.24282 0
M  V30 4436 H 417.853 -1.79121 -3.48795 0
M  V30 4437 H 419.343 -0.98219 -4.05885 0
M  V30 4438 N 419.78 1.02168 -1.19998 0
M  V30 4439 C 420.69 2.14069 -0.959774 0
M  V30 4440 C 421.706 1.73804 0.082655 0
M  V30 4441 O 422.882 2.01133 -0.103633 0
M  V30 4442 C 419.947 3.42936 -0.509459 0
M  V30 4443 C 419.008 3.97474 -1.62213 0
M  V30 4444 C 418.241 5.2019 -1.19321 0
M  V30 4445 O 418.464 5.70369 -0.0597726 0
M  V30 4446 O 417.398 5.67749 -1.99863 0
M  V30 4447 H 421.224 2.37199 -1.89658 0
M  V30 4448 H 418.809 1.12469 -0.983411 0
M  V30 4449 H 420.691 4.20551 -0.267322 0
M  V30 4450 H 419.366 3.21234 0.398821 0
M  V30 4451 H 418.273 3.21161 -1.9185 0
M  V30 4452 H 419.606 4.23555 -2.50723 0
M  V30 4453 N 421.258 1.00505 1.21394 0
M  V30 4454 C 422.486 0.706609 1.9446 0
M  V30 4455 C 422.901 -0.73081 1.74082 0
M  V30 4456 O 422.258 -1.49446 1.04747 0
M  V30 4457 C 422.309 1.01824 3.46863 0
M  V30 4458 O 422.03 2.39919 3.66566 0
M  V30 4459 C 423.531 0.739216 4.37093 0
M  V30 4460 H 420.751 0.260394 0.618414 0
M  V30 4461 H 423.295 1.34311 1.54211 0
M  V30 4462 H 421.45 0.427343 3.85036 0
M  V30 4463 H 421.864 2.50784 4.6066 0
M  V30 4464 H 423.338 1.00744 5.42729 0
M  V30 4465 H 423.815 -0.326746 4.37983 0
M  V30 4466 H 424.421 1.31173 4.04566 0
M  V30 4467 N 422.737 -1.36956 0.779787 0
M  V30 4468 C 424.148 -1.82094 0.412156 0
M  V30 4469 C 424.499 -1.64926 -1.06273 0
M  V30 4470 O 423.624 -1.16483 -1.82375 0
M  V30 4471 C 424.219 -3.3059 0.741319 0
M  V30 4472 C 422.778 -3.73974 0.426641 0
M  V30 4473 C 421.925 -2.59368 0.980987 0
M  V30 4474 H 424.876 -1.25314 0.973758 0
M  V30 4475 H 424.897 -3.80489 0.028887 0
M  V30 4476 H 424.409 -3.43054 1.81482 0
M  V30 4477 H 422.51 -3.67076 -0.639215 0
M  V30 4478 H 422.623 -4.69778 0.940515 0
M  V30 4479 H 420.987 -2.51463 0.404757 0
M  V30 4480 H 421.77 -2.74621 2.06005 0
M  V30 4481 N 424.215 -0.530993 -1.48385 0
M  V30 4482 C 425.626 -0.0907905 -1.86479 0
M  V30 4483 C 425.977 1.33213 -1.44044 0
M  V30 4484 O 425.102 1.99783 -0.831615 0
M  V30 4485 C 425.697 -0.157987 -3.38431 0
M  V30 4486 C 424.256 0.227026 -3.75715 0
M  V30 4487 C 423.403 -0.5173 -2.72432 0
M  V30 4488 H 426.354 -0.742186 -1.40276 0
M  V30 4489 H 426.375 0.630053 -3.75247 0
M  V30 4490 H 425.887 -1.19372 -3.69286 0
M  V30 4491 H 423.988 1.26486 -3.50474 0
M  V30 4492 H 424.101 -0.113288 -4.78966 0
M  V30 4493 H 422.465 0.0365527 -2.54674 0
M  V30 4494 H 423.248 -1.55368 -3.0613 0
M  V30 4495 N 425.693 1.55336 -0.266172 0
M  V30 4496 C 427.109 1.59356 0.0882065 0
M  V30 4497 C 427.309 1.2834 1.55342 0
M  V30 4498 O 426.365 1.03996 2.30089 0
M  V30 4499 C 427.678 2.99409 -0.278364 0
M  V30 4500 C 429.226 3.12196 -0.224243 0
M  V30 4501 C 429.701 4.545 -0.565123 0
M  V30 4502 N 431.192 4.60313 -0.51634 0
M  V30 4503 C 431.927 5.68434 -0.753013 0
M  V30 4504 N 431.423 6.84738 -1.05383 0
M  V30 4505 N 433.216 5.57942 -0.682414 0
M  V30 4506 H 425.367 1.73764 -1.22147 0
M  V30 4507 H 427.63 0.809822 -0.492841 0
M  V30 4508 H 427.336 3.2691 -1.29703 0
M  V30 4509 H 427.21 3.75228 0.385186 0
M  V30 4510 H 429.597 2.84464 0.78512 0
M  V30 4511 H 429.678 2.38609 -0.921922 0
M  V30 4512 H 429.322 4.82956 -1.57213 0
M  V30 4513 H 429.252 5.26374 0.154248 0
M  V30 4514 H 431.743 3.7676 -0.29335 0
M  V30 4515 H 432.056 7.63088 -1.22133 0
M  V30 4516 H 430.401 6.86375 -1.09151 0
M  V30 4517 H 433.592 4.65958 -0.44731 0
M  V30 4518 H 433.765 6.4213 -0.870248 0
M  V30 4519 N 427.171 -0.0066808 1.57599 0
M  V30 4520 C 428.582 -0.550379 1.78403 0
M  V30 4521 C 428.933 -1.74339 0.900014 0
M  V30 4522 O 428.058 -2.16166 0.100713 0
M  V30 4523 C 428.653 -1.00523 3.23544 0
M  V30 4524 C 427.212 -1.49428 3.45468 0
M  V30 4525 C 426.359 -0.442444 2.73748 0
M  V30 4526 H 429.31 0.219508 1.57175 0
M  V30 4527 H 429.331 -1.87157 3.31289 0
M  V30 4528 H 428.843 -0.136735 3.87859 0
M  V30 4529 H 426.944 -2.3839 2.86358 0
M  V30 4530 H 427.057 -1.52635 4.54136 0
M  V30 4531 H 425.421 -0.902578 2.38171 0
M  V30 4532 H 426.204 0.416973 3.40758 0
M  V30 4533 N 428.649 -1.55105 -0.279332 0
M  V30 4534 C 430.065 -1.46803 -0.626187 0
M  V30 4535 C 430.265 -0.676939 -1.89789 0
M  V30 4536 O 429.321 -0.19326 -2.51759 0
M  V30 4537 C 430.634 -2.90962 -0.759034 0
M  V30 4538 C 432.182 -3.01138 -0.853504 0
M  V30 4539 C 432.657 -4.46539 -1.01818 0
M  V30 4540 N 434.148 -4.50341 -1.08386 0
M  V30 4541 C 434.883 -5.60053 -1.22996 0
M  V30 4542 N 434.379 -6.79645 -1.34366 0
M  V30 4543 N 436.172 -5.47783 -1.26056 0
M  V30 4544 H 428.323 -2.04996 0.555921 0
M  V30 4545 H 430.586 -0.929325 0.187239 0
M  V30 4546 H 430.292 -3.51544 0.104852 0
M  V30 4547 H 430.166 -3.39619 -1.64131 0
M  V30 4548 H 432.553 -2.40658 -1.70786 0
M  V30 4549 H 432.634 -2.55745 0.0532466 0
M  V30 4550 H 432.278 -5.0762 -0.168504 0
M  V30 4551 H 432.208 -4.89583 -1.93948 0
M  V30 4552 H 434.699 -3.64191 -1.00864 0
M  V30 4553 H 435.012 -7.59012 -1.4533 0
M  V30 4554 H 433.357 -6.82469 -1.31382 0
M  V30 4555 H 436.548 -4.53294 -1.168 0
M  V30 4556 H 436.721 -6.33331 -1.37098 0
M  V30 4557 N 430.127 0.543554 -1.4793 0
M  V30 4558 C 431.355 1.32516 -1.58894 0
M  V30 4559 C 431.77 1.87215 -0.244131 0
M  V30 4560 O 431.127 1.65709 0.764652 0
M  V30 4561 C 431.178 2.48554 -2.62494 0
M  V30 4562 O 430.899 1.96112 -3.91755 0
M  V30 4563 C 432.4 3.40572 -2.8377 0
M  V30 4564 H 429.62 0.403472 -0.536145 0
M  V30 4565 H 432.164 0.657106 -1.93655 0
M  V30 4566 H 430.319 3.1127 -2.30629 0
M  V30 4567 H 430.733 2.71967 -4.4848 0
M  V30 4568 H 432.207 4.18375 -3.60093 0
M  V30 4569 H 432.684 3.94965 -1.92092 0
M  V30 4570 H 433.29 2.8366 -3.16887 0
M  V30 4571 N 431.605 1.3629 0.791371 0
M  V30 4572 C 433.016 1.27225 1.36641 0
M  V30 4573 C 433.367 -0.0887968 1.95999 0
M  V30 4574 O 432.492 -0.990207 1.92416 0
M  V30 4575 C 433.087 2.30375 2.48421 0
M  V30 4576 C 431.646 2.25004 3.01746 0
M  V30 4577 C 430.793 2.15259 1.7481 0
M  V30 4578 H 433.744 1.47198 0.593173 0
M  V30 4579 H 433.765 1.93905 3.27385 0
M  V30 4580 H 433.277 3.29422 2.05189 0
M  V30 4581 H 431.378 1.29417 3.49403 0
M  V30 4582 H 431.491 3.1761 3.58693 0
M  V30 4583 H 429.855 1.61482 1.96966 0
M  V30 4584 H 430.638 3.16191 1.33709 0
M  V30 4585 N 433.083 -1.0153 1.20538 0
M  V30 4586 C 434.331 -1.74803 1.01432 0
M  V30 4587 C 434.652 -1.8963 -0.454456 0
M  V30 4588 O 433.922 -1.43975 -1.32846 0
M  V30 4589 H 432.502 -0.647598 0.372324 0
M  V30 4590 H 435.164 -1.22402 1.5167 0
M  V30 4591 H 434.26 -2.75114 1.47373 0
M  V30 4592 N 434.561 -1.01147 -1.20859 0
M  V30 4593 C 435.977 -0.725422 -1.42161 0
M  V30 4594 C 436.177 0.696919 -1.89064 0
M  V30 4595 O 435.233 1.46539 -2.05627 0
M  V30 4596 C 436.546 -1.74678 -2.44761 0
M  V30 4597 C 438.094 -1.76433 -2.58535 0
M  V30 4598 C 438.569 -2.77481 -3.64374 0
M  V30 4599 N 440.06 -2.76189 -3.71852 0
M  V30 4600 C 440.795 -3.51035 -4.53389 0
M  V30 4601 N 440.291 -4.35541 -5.38773 0
M  V30 4602 N 442.084 -3.39655 -4.47873 0
M  V30 4603 H 434.235 -1.92979 -0.887282 0
M  V30 4604 H 436.498 -0.833327 -0.451962 0
M  V30 4605 H 436.204 -2.76551 -2.17285 0
M  V30 4606 H 436.078 -1.55472 -3.43669 0
M  V30 4607 H 438.465 -0.75248 -2.85345 0
M  V30 4608 H 438.546 -1.99712 -1.5984 0
M  V30 4609 H 438.19 -3.78827 -3.38308 0
M  V30 4610 H 438.12 -2.51466 -4.6268 0
M  V30 4611 H 440.611 -2.14885 -3.10858 0
M  V30 4612 H 440.924 -4.89432 -5.98061 0
M  V30 4613 H 439.269 -4.39621 -5.38292 0
M  V30 4614 H 442.46 -2.73063 -3.80203 0
M  V30 4615 H 442.633 -3.9824 -5.11184 0
M  V30 4616 N 436.039 1.36541 -0.78704 0
M  V30 4617 C 437.45 1.81873 -0.421807 0
M  V30 4618 C 437.801 1.65487 1.05397 0
M  V30 4619 O 436.926 1.17448 1.81755 0
M  V30 4620 C 437.521 3.30192 -0.758841 0
M  V30 4621 C 436.08 3.73743 -0.446468 0
M  V30 4622 C 435.227 2.58844 -0.994728 0
M  V30 4623 H 438.178 1.24796 -0.98039 0
M  V30 4624 H 438.199 3.80468 -0.0490648 0
M  V30 4625 H 437.711 3.42087 -1.83299 0
M  V30 4626 H 435.812 3.6741 0.619739 0
M  V30 4627 H 435.925 4.69272 -0.965415 0
M  V30 4628 H 434.289 2.51245 -0.418087 0
M  V30 4629 H 435.072 2.73525 -2.07458 0
M  V30 4630 N 437.518 0.538854 1.48102 0
M  V30 4631 C 438.448 -0.207654 2.32575 0
M  V30 4632 C 439.429 -0.926559 1.4265 0
M  V30 4633 O 440.614 -0.91061 1.71527 0
M  V30 4634 C 437.744 -1.24957 3.24042 0
M  V30 4635 C 436.698 -0.648263 4.23062 0
M  V30 4636 C 436.024 -1.79348 5.03725 0
M  V30 4637 C 437.324 0.385897 5.20872 0
M  V30 4638 H 439.018 0.497534 2.95237 0
M  V30 4639 H 436.564 0.240715 1.41974 0
M  V30 4640 H 438.517 -1.77983 3.81969 0
M  V30 4641 H 437.241 -1.98446 2.59397 0
M  V30 4642 H 435.9 -0.139452 3.66335 0
M  V30 4643 H 435.548 -2.51696 4.35498 0
M  V30 4644 H 435.248 -1.39702 5.70751 0
M  V30 4645 H 436.772 -2.32735 5.64506 0
M  V30 4646 H 438.186 -0.057607 5.73271 0
M  V30 4647 H 436.583 0.700227 5.96001 0
M  V30 4648 H 437.653 1.28848 4.67468 0
M  V30 4649 N 438.996 -1.55193 0.274407 0
M  V30 4650 C 440.221 -2.04446 -0.348824 0
M  V30 4651 C 440.646 -1.15149 -1.48735 0
M  V30 4652 O 440.004 -0.149952 -1.80679 0
M  V30 4653 C 440.052 -3.51431 -0.808009 0
M  V30 4654 O 439.156 -3.65225 -1.91531 0
M  V30 4655 H 438.497 -0.66006 -0.0722276 0
M  V30 4656 H 441.027 -2.00481 0.408498 0
M  V30 4657 H 441.037 -3.92781 -1.10395 0
M  V30 4658 H 439.712 -4.15892 0.0249865 0
M  V30 4659 H 438.289 -3.35778 -1.62196 0
M  V30 4660 N 440.474 -0.00167713 -1.576 0
M  V30 4661 C 441.699 0.69739 -1.95323 0
M  V30 4662 C 442.124 1.6642 -0.876706 0
M  V30 4663 O 441.482 1.80548 0.165007 0
M  V30 4664 C 441.53 1.40403 -3.32144 0
M  V30 4665 O 440.634 2.5185 -3.26566 0
M  V30 4666 H 439.975 0.185373 -0.637599 0
M  V30 4667 H 442.505 -0.0553665 -2.04525 0
M  V30 4668 H 442.515 1.76707 -3.67748 0
M  V30 4669 H 441.19 0.695167 -4.10049 0
M  V30 4670 H 439.767 2.17861 -3.0264 0
M  V30 4671 N 441.952 1.55251 0.271103 0
M  V30 4672 C 443.182 1.79713 1.01916 0
M  V30 4673 C 443.59 0.571613 1.80359 0
M  V30 4674 O 442.933 -0.468853 1.77616 0
M  V30 4675 C 442.995 2.97138 2.02359 0
M  V30 4676 C 442.659 4.34104 1.42837 0
M  V30 4677 C 443.656 5.13019 0.843071 0
M  V30 4678 C 441.341 4.80765 1.455 0
M  V30 4679 C 443.335 6.36729 0.292333 0
M  V30 4680 C 441.022 6.0443 0.900402 0
M  V30 4681 C 442.02 6.8225 0.32007 0
M  V30 4682 O 441.708 8.03582 -0.226031 0
M  V30 4683 H 441.44 0.602431 0.306681 0
M  V30 4684 H 443.994 2.03097 0.306701 0
M  V30 4685 H 442.224 2.6945 2.77369 0
M  V30 4686 H 443.913 3.08907 2.63309 0
M  V30 4687 H 444.679 4.781 0.815178 0
M  V30 4688 H 440.558 4.20202 1.89609 0
M  V30 4689 H 444.102 6.97414 -0.161274 0
M  V30 4690 H 439.999 6.3883 0.925541 0
M  V30 4691 H 440.767 8.18418 -0.115572 0
M  V30 4692 N 443.43 -0.535701 1.48216 0
M  V30 4693 C 444.678 -1.28928 1.55634 0
M  V30 4694 C 444.999 -1.93645 0.229514 0
M  V30 4695 O 444.269 -1.81038 -0.74846 0
M  V30 4696 H 442.849 -0.47884 0.573342 0
M  V30 4697 H 445.511 -0.623853 1.84646 0
M  V30 4698 H 444.607 -2.07157 2.33436 0
M  V30 4699 N 444.908 -1.36708 -0.784132 0
M  V30 4700 C 445.841 -1.25827 -1.90375 0
M  V30 4701 C 446.819 -0.141331 -1.61985 0
M  V30 4702 O 448.003 -0.313389 -1.85877 0
M  V30 4703 C 445.13 -0.942621 -3.25319 0
M  V30 4704 C 444.176 -2.07474 -3.72635 0
M  V30 4705 S 445.009 -3.69317 -3.8777 0
M  V30 4706 C 446.165 -3.39876 -5.25581 0
M  V30 4707 H 446.398 -2.20593 -1.99314 0
M  V30 4708 H 443.931 -1.22186 -0.943926 0
M  V30 4709 H 445.889 -0.767321 -4.03265 0
M  V30 4710 H 444.55 -0.0126566 -3.14097 0
M  V30 4711 H 443.743 -1.80858 -4.70432 0
M  V30 4712 H 443.345 -2.20953 -3.01754 0
M  V30 4713 H 445.637 -2.94097 -6.10339 0
M  V30 4714 H 446.58 -4.36956 -5.57203 0
M  V30 4715 H 446.988 -2.75098 -4.92931 0
M  V30 4716 N 446.386 1.0089 -1.21074 0
M  V30 4717 C 447.663 1.71834 -0.934469 0
M  V30 4718 C 448.043 2.0368 0.554753 0
M  V30 4719 O 447.391 1.70742 1.51854 0
M  V30 4720 C 447.601 2.98061 -1.8155 0
M  V30 4721 C 448.949 3.7117 -2.06199 0
M  V30 4722 O 449.973 3.08034 -1.78867 0
M  V30 4723 O 448.832 4.84721 -2.52404 0
M  V30 4724 H 445.926 0.749253 -0.35007 0
M  V30 4725 H 448.472 1.06668 -1.31985 0
M  V30 4726 H 447.244 2.70908 -2.82355 0
M  V30 4727 H 446.867 3.70968 -1.43068 0
M  V30 4728 N 447.864 1.01787 1.20321 0
M  V30 4729 C 449.089 0.727009 1.9424 0
M  V30 4730 C 449.514 -0.706179 1.74341 0
M  V30 4731 O 448.872 -1.48609 1.03852 0
M  V30 4732 C 448.92 1.06958 3.44372 0
M  V30 4733 O 448.024 0.181983 4.11998 0
M  V30 4734 H 447.365 0.269626 0.606793 0
M  V30 4735 H 449.895 1.36158 1.52716 0
M  V30 4736 H 449.905 1.02182 3.94997 0
M  V30 4737 H 448.58 2.11378 3.58179 0
M  V30 4738 H 447.157 0.287378 3.71791 0
M  V30 4739 N 449.342 -1.36122 0.79427 0
M  V30 4740 C 450.758 -1.5232 0.476525 0
M  V30 4741 C 450.958 -1.74685 -1.00436 0
M  V30 4742 O 450.014 -1.78115 -1.78973 0
M  V30 4743 C 451.327 -2.70607 1.31119 0
M  V30 4744 C 452.875 -2.8448 1.30537 0
M  V30 4745 C 453.35 -4.05778 2.12387 0
M  V30 4746 N 454.841 -4.12933 2.09859 0
M  V30 4747 C 455.576 -5.05876 2.69957 0
M  V30 4748 N 455.072 -6.04232 3.38934 0
M  V30 4749 N 456.865 -4.98528 2.59665 0
M  V30 4750 H 449.016 -1.1986 1.75349 0
M  V30 4751 H 451.279 -0.585418 0.745647 0
M  V30 4752 H 450.985 -2.60619 2.36158 0
M  V30 4753 H 450.859 -3.64888 0.955843 0
M  V30 4754 H 453.246 -2.93927 0.262876 0
M  V30 4755 H 453.327 -1.91093 1.70051 0
M  V30 4756 H 452.971 -3.97092 3.1667 0
M  V30 4757 H 452.901 -4.98323 1.70242 0
M  V30 4758 H 455.392 -3.42515 1.59662 0
M  V30 4759 H 455.705 -6.71724 3.82109 0
M  V30 4760 H 454.05 -6.04443 3.43036 0
M  V30 4761 H 457.241 -4.20641 2.05375 0
M  V30 4762 H 457.414 -5.70773 3.06793 0
M  V30 4763 N 450.82 -0.546701 -1.47814 0
M  V30 4764 C 452.231 -0.110564 -1.86372 0
M  V30 4765 C 452.582 1.31678 -1.45449 0
M  V30 4766 O 451.707 1.98889 -0.852758 0
M  V30 4767 C 452.302 -0.193873 -3.38245 0
M  V30 4768 C 450.861 0.187164 -3.75934 0
M  V30 4769 C 450.008 -0.546166 -2.71868 0
M  V30 4770 H 452.959 -0.757022 -1.39481 0
M  V30 4771 H 452.98 0.590218 -3.75895 0
M  V30 4772 H 452.492 -1.23282 -3.67999 0
M  V30 4773 H 450.593 1.22762 -3.51796 0
M  V30 4774 H 450.706 -0.164083 -4.78819 0
M  V30 4775 H 449.07 0.00953904 -2.54698 0
M  V30 4776 H 449.853 -1.58606 -3.04465 0
M  V30 4777 N 452.299 1.55045 -0.282633 0
M  V30 4778 C 453.71 1.85473 0.213655 0
M  V30 4779 C 454.061 1.20465 1.54863 0
M  V30 4780 O 453.186 0.495676 2.10647 0
M  V30 4781 C 453.781 3.36496 0.394445 0
M  V30 4782 C 452.34 3.67022 0.834961 0
M  V30 4783 C 451.487 2.77218 -0.0674081 0
M  V30 4784 H 454.438 1.50478 -0.504202 0
M  V30 4785 H 454.459 3.60007 1.23186 0
M  V30 4786 H 453.971 3.83782 -0.577326 0
M  V30 4787 H 452.072 3.25241 1.81794 0
M  V30 4788 H 452.185 4.74433 0.667075 0
M  V30 4789 H 450.549 2.5069 0.450196 0
M  V30 4790 H 451.332 3.2732 -1.0352 0
M  V30 4791 N 453.777 0.010035 1.57597 0
M  V30 4792 C 454.71 -1.01234 2.04516 0
M  V30 4793 C 455.688 -1.32886 0.937024 0
M  V30 4794 O 456.872 -1.44879 1.20592 0
M  V30 4795 C 453.999 -2.33738 2.45121 0
M  V30 4796 C 453.045 -2.17679 3.66767 0
M  V30 4797 S 453.878 -1.49343 5.14254 0
M  V30 4798 C 455.034 -2.83256 5.58137 0
M  V30 4799 H 455.267 -0.612866 2.90914 0
M  V30 4800 H 452.8 -0.201124 1.53084 0
M  V30 4801 H 454.758 -3.09922 2.69182 0
M  V30 4802 H 453.419 -2.70823 1.59103 0
M  V30 4803 H 452.612 -3.1559 3.92962 0
M  V30 4804 H 452.214 -1.4964 3.42759 0
M  V30 4805 H 454.506 -3.79538 5.6121 0
M  V30 4806 H 455.449 -2.61749 6.57946 0
M  V30 4807 H 455.857 -2.87627 4.85727 0
M  V30 4808 N 455.255 -1.55392 -0.262866 0
M  V30 4809 C 456.218 -1.88181 -1.30846 0
M  V30 4810 C 457.218 -0.757079 -1.41862 0
M  V30 4811 O 458.408 -1.02519 -1.40838 0
M  V30 4812 C 455.54 -2.09609 -2.68844 0
M  V30 4813 H 456.733 -2.81659 -1.02997 0
M  V30 4814 H 454.286 -1.48039 -0.501414 0
M  V30 4815 H 455.021 -1.18547 -3.01856 0
M  V30 4816 H 454.806 -2.91508 -2.62231 0
M  V30 4817 H 456.296 -2.36215 -3.44372 0
M  V30 4818 N 456.733 0.527833 -1.48498 0
M  V30 4819 C 457.982 1.28003 -1.55878 0
M  V30 4820 C 458.295 1.9414 -0.238577 0
M  V30 4821 O 459.501 2.7083 -0.190643 0
M  V30 4822 C 457.957 2.32272 -2.74914 0
M  V30 4823 C 457.565 1.72196 -4.13585 0
M  V30 4824 C 459.309 3.08488 -2.91608 0
M  V30 4825 C 457.216 2.74417 -5.23879 0
M  V30 4826 H 456.146 0.481413 -0.580308 0
M  V30 4827 H 458.797 0.557195 -1.74836 0
M  V30 4828 H 457.179 3.07601 -2.49395 0
M  V30 4829 H 458.353 1.03041 -4.49132 0
M  V30 4830 H 456.668 1.08464 -4.02025 0
M  V30 4831 H 459.265 3.84879 -3.71177 0
M  V30 4832 H 459.608 3.64481 -2.01145 0
M  V30 4833 H 460.141 2.40274 -3.17038 0
M  V30 4834 H 456.88 2.23242 -6.16314 0
M  V30 4835 H 456.4 3.41893 -4.92818 0
M  V30 4836 H 458.079 3.37362 -5.52083 0
M  V30 4837 N 458.211 1.37122 0.776871 0
M  V30 4838 C 459.458 1.32047 1.53524 0
M  V30 4839 C 459.786 -0.0965631 1.9426 0
M  V30 4840 O 459.041 -1.06866 1.63945 0
M  V30 4841 C 459.34 2.20068 2.81611 0
M  V30 4842 C 459.006 3.68423 2.59953 0
M  V30 4843 C 457.668 4.08854 2.53755 0
M  V30 4844 C 460.02 4.62431 2.40431 0
M  V30 4845 C 457.348 5.41417 2.26018 0
M  V30 4846 C 459.7 5.95225 2.14219 0
M  V30 4847 C 458.364 6.34767 2.06462 0
M  V30 4848 H 457.634 0.483196 0.561785 0
M  V30 4849 H 460.281 1.69284 0.895268 0
M  V30 4850 H 458.586 1.75809 3.50141 0
M  V30 4851 H 460.283 2.13458 3.39465 0
M  V30 4852 H 456.873 3.36354 2.65638 0
M  V30 4853 H 461.057 4.32057 2.44213 0
M  V30 4854 H 456.313 5.71022 2.18504 0
M  V30 4855 H 460.487 6.67626 1.98112 0
M  V30 4856 H 458.114 7.37413 1.84733 0
M  V30 4857 N 459.689 -1.00246 1.21608 0
M  V30 4858 C 460.599 -2.12515 0.993709 0
M  V30 4859 C 461.615 -1.73913 -0.0549939 0
M  V30 4860 O 462.791 -2.00943 0.135619 0
M  V30 4861 C 459.856 -3.42083 0.563953 0
M  V30 4862 C 458.917 -3.94843 1.68516 0
M  V30 4863 C 458.15 -5.18226 1.27582 0
M  V30 4864 O 458.373 -5.70201 0.150506 0
M  V30 4865 O 457.307 -5.64497 2.0887 0
M  V30 4866 H 461.133 -2.34152 1.93407 0
M  V30 4867 H 458.718 -1.10891 1.00118 0
M  V30 4868 H 460.6 -4.20073 0.334194 0
M  V30 4869 H 459.275 -3.21828 -0.347665 0
M  V30 4870 H 458.182 -3.18068 1.96935 0
M  V30 4871 H 459.515 -4.19512 2.5743 0
M  V30 4872 N 461.167 -1.02423 -1.1978 0
M  V30 4873 C 462.097 -0.62157 -2.25075 0
M  V30 4874 C 463.078 0.367148 -1.6609 0
M  V30 4875 O 464.263 0.250892 -1.92573 0
M  V30 4876 C 461.393 0.0331826 -3.47284 0
M  V30 4877 C 460.347 -0.877323 -4.18912 0
M  V30 4878 C 459.673 -0.0879296 -5.34628 0
M  V30 4879 C 460.973 -2.18892 -4.74219 0
M  V30 4880 H 462.667 -1.50179 -2.59011 0
M  V30 4881 H 460.213 -0.723547 -1.24502 0
M  V30 4882 H 462.166 0.326488 -4.20133 0
M  V30 4883 H 460.89 0.948164 -3.12534 0
M  V30 4884 H 459.549 -1.15475 -3.47938 0
M  V30 4885 H 459.197 0.828941 -4.96123 0
M  V30 4886 H 458.897 -0.694359 -5.83483 0
M  V30 4887 H 460.421 0.198743 -6.10276 0
M  V30 4888 H 461.835 -1.95746 -5.38847 0
M  V30 4889 H 460.232 -2.74686 -5.33542 0
M  V30 4890 H 461.302 -2.84674 -3.92541 0
M  V30 4891 N 462.645 1.35699 -0.801477 0
M  V30 4892 C 463.575 2.32436 -0.222658 0
M  V30 4893 C 464.556 1.5723 0.649057 0
M  V30 4894 O 465.741 1.85324 0.580387 0
M  V30 4895 C 462.871 3.41469 0.633719 0
M  V30 4896 C 461.825 4.27774 -0.139083 0
M  V30 4897 C 461.151 5.28082 0.838666 0
M  V30 4898 C 462.451 5.04946 -1.33517 0
M  V30 4899 H 464.145 2.81094 -1.03086 0
M  V30 4900 H 461.691 1.35146 -0.497155 0
M  V30 4901 H 463.644 4.08143 1.04868 0
M  V30 4902 H 462.368 2.91408 1.47475 0
M  V30 4903 H 461.027 3.62673 -0.535156 0
M  V30 4904 H 460.675 4.7429 1.67506 0
M  V30 4905 H 460.375 5.86695 0.32594 0
M  V30 4906 H 461.899 5.97628 1.25194 0
M  V30 4907 H 463.313 5.64593 -0.995349 0
M  V30 4908 H 461.71 5.7303 -1.78202 0
M  V30 4909 H 462.78 4.35886 -2.12442 0
M  V30 4910 N 464.123 0.554532 1.47522 0
M  V30 4911 C 465.4 -0.0360704 1.95567 0
M  V30 4912 C 465.78 -1.48828 1.49711 0
M  V30 4913 O 465.128 -2.16366 0.734717 0
M  V30 4914 C 465.338 0.106631 3.48837 0
M  V30 4915 C 466.686 -0.0400899 4.24581 0
M  V30 4916 O 467.71 0.0340453 3.56184 0
M  V30 4917 O 466.569 -0.199111 5.46137 0
M  V30 4918 H 463.663 -0.0656294 0.824392 0
M  V30 4919 H 466.209 0.620867 1.57935 0
M  V30 4920 H 464.981 1.11727 3.7501 0
M  V30 4921 H 464.604 -0.58804 3.93227 0
M  V30 4922 N 465.601 -1.54893 0.290851 0
M  V30 4923 C 466.831 -2.04047 -0.323818 0
M  V30 4924 C 467.239 -1.16809 -1.48837 0
M  V30 4925 O 466.582 -0.184145 -1.82775 0
M  V30 4926 C 466.644 -3.49248 -0.852395 0
M  V30 4927 C 466.308 -4.56623 0.185557 0
M  V30 4928 C 467.305 -5.09985 1.01053 0
M  V30 4929 C 464.99 -5.01252 0.324332 0
M  V30 4930 C 466.984 -6.06507 1.96031 0
M  V30 4931 C 464.671 -5.97596 1.27757 0
M  V30 4932 C 465.669 -6.50107 2.09405 0
M  V30 4933 O 465.357 -7.44565 3.03114 0
M  V30 4934 H 465.089 -0.671735 -0.0758129 0
M  V30 4935 H 467.643 -2.00947 0.425393 0
M  V30 4936 H 465.873 -3.49639 -1.65195 0
M  V30 4937 H 467.562 -3.81654 -1.38185 0
M  V30 4938 H 468.328 -4.76307 0.914129 0
M  V30 4939 H 464.207 -4.60015 -0.301213 0
M  V30 4940 H 467.751 -6.47418 2.598 0
M  V30 4941 H 463.648 -6.30691 1.37473 0
M  V30 4942 H 464.416 -7.62334 2.97976 0
M  V30 4943 N 467.08 -0.0183926 -1.57589 0
M  V30 4944 C 468.329 0.66185 -1.90532 0
M  V30 4945 C 468.642 1.73904 -0.895366 0
M  V30 4946 O 469.848 2.47518 -1.11566 0
M  V30 4947 C 468.304 1.22844 -3.38286 0
M  V30 4948 C 467.912 0.185103 -4.47617 0
M  V30 4949 C 469.656 1.88581 -3.80312 0
M  V30 4950 C 467.563 0.762723 -5.86461 0
M  V30 4951 H 466.493 0.250972 -0.711006 0
M  V30 4952 H 469.144 -0.0819435 -1.83317 0
M  V30 4953 H 467.526 2.0235 -3.40398 0
M  V30 4954 H 468.7 -0.58671 -4.5705 0
M  V30 4955 H 467.015 -0.372889 -4.14727 0
M  V30 4956 H 469.612 2.32735 -4.81392 0
M  V30 4957 H 469.955 2.72408 -3.14801 0
M  V30 4958 H 470.488 1.15782 -3.80578 0
M  V30 4959 H 467.227 -0.0371713 -6.55489 0
M  V30 4960 H 466.747 1.50327 -5.80656 0
M  V30 4961 H 468.426 1.25576 -6.34697 0
M  V30 4962 N 468.558 1.5553 0.254621 0
M  V30 4963 C 469.804 1.77262 0.985193 0
M  V30 4964 C 470.137 0.582286 1.85265 0
M  V30 4965 O 469.412 -0.419666 1.89919 0
M  V30 4966 C 469.695 3.0881 1.85225 0
M  V30 4967 C 469.548 4.38233 1.0135 0
M  V30 4968 C 470.867 3.3653 2.83612 0
M  V30 4969 H 467.986 0.644906 0.356742 0
M  V30 4970 H 470.628 1.88264 0.256236 0
M  V30 4971 H 468.778 2.99562 2.47376 0
M  V30 4972 H 470.45 4.59463 0.411269 0
M  V30 4973 H 468.693 4.32636 0.317574 0
M  V30 4974 H 469.364 5.26644 1.65379 0
M  V30 4975 H 471.84 3.45691 2.31596 0
M  V30 4976 H 470.716 4.29805 3.41407 0
M  V30 4977 H 470.977 2.57064 3.59681 0
M  V30 4978 N 470.036 -0.519951 1.48776 0
M  V30 4979 C 470.984 -1.64443 1.64503 0
M  V30 4980 C 471.978 -1.61501 0.511248 0
M  V30 4981 O 473.184 -1.66238 0.690294 0
M  V30 4982 H 469.559 -0.544776 0.518385 0
M  V30 4983 H 471.53 -1.48325 2.58925 0
M  V30 4984 C 470.279 -3.02673 1.71127 0
M  V30 4985 H 469.602 -3.05635 2.57735 0
M  V30 4986 H 471.042 -3.80941 1.86172 0
M  V30 4987 C 469.501 -3.33854 0.452032 0
M  V30 4988 O 470.031 -3.99385 -0.430678 0
M  V30 4989 N 468.237 -2.88825 0.32069 0
M  V30 4990 H 467.784 -2.35674 1.03998 0
M  V30 4991 H 467.742 -3.10056 -0.520814 0
M  V30 4992 N 471.514 -1.37532 -0.769588 0
M  V30 4993 C 472.424 -1.35668 -1.91393 0
M  V30 4994 C 473.44 -0.255954 -1.72107 0
M  V30 4995 O 474.616 -0.491704 -1.95305 0
M  V30 4996 C 471.681 -1.16481 -3.26547 0
M  V30 4997 C 470.742 -2.36212 -3.58472 0
M  V30 4998 C 469.975 -2.17932 -4.87177 0
M  V30 4999 O 470.198 -1.1647 -5.58382 0
M  V30 5000 O 469.132 -3.06167 -5.18214 0
M  V30 5001 H 472.958 -2.32055 -1.95918 0
M  V30 5002 H 470.543 -1.18284 -0.912641 0
M  V30 5003 H 472.425 -1.07778 -4.07384 0
M  V30 5004 H 471.1 -0.231687 -3.2287 0
M  V30 5005 H 470.007 -2.50488 -2.77861 0
M  V30 5006 H 471.34 -3.281 -3.66894 0
M  V30 5007 N 472.992 0.995999 -1.22138 0
M  V30 5008 C 474.403 1.54961 -1.04135 0
M  V30 5009 C 474.754 1.92159 0.396147 0
M  V30 5010 O 473.879 1.74435 1.28069 0
M  V30 5011 C 474.474 2.81581 -1.88408 0
M  V30 5012 C 473.033 3.33396 -1.74712 0
M  V30 5013 C 472.18 2.06509 -1.85066 0
M  V30 5014 H 475.131 0.817436 -1.36028 0
M  V30 5015 H 475.152 3.53822 -1.39966 0
M  V30 5016 H 474.664 2.54476 -2.93025 0
M  V30 5017 H 472.765 3.65416 -0.728159 0
M  V30 5018 H 472.878 4.04208 -2.57202 0
M  V30 5019 H 471.242 2.19925 -1.28472 0
M  V30 5020 H 472.025 1.81804 -2.91208 0
M  V30 5021 N 474.47 1.03057 1.19235 0
M  V30 5022 C 475.881 0.757449 1.70645 0
M  V30 5023 C 476.232 -0.722735 1.82403 0
M  V30 5024 O 475.357 -1.56325 1.49638 0
M  V30 5025 C 475.952 1.36833 3.09939 0
M  V30 5026 C 474.511 1.14375 3.58602 0
M  V30 5027 C 473.658 1.46533 2.35422 0
M  V30 5028 H 476.609 1.19828 1.04052 0
M  V30 5029 H 476.63 0.766184 3.72706 0
M  V30 5030 H 476.142 2.44562 3.01349 0
M  V30 5031 H 474.243 0.0847542 3.72504 0
M  V30 5032 H 474.356 1.83366 4.42622 0
M  V30 5033 H 472.72 0.884712 2.38841 0
M  V30 5034 H 473.503 2.55349 2.2946 0
M  V30 5035 N 475.948 -1.35272 0.808662 0
M  V30 5036 C 477.359 -1.81179 0.450688 0
M  V30 5037 C 477.71 -1.67143 -1.02751 0
M  V30 5038 O 476.835 -1.20325 -1.79864 0
M  V30 5039 C 477.43 -3.28943 0.811275 0
M  V30 5040 C 475.989 -3.72985 0.505871 0
M  V30 5041 C 475.136 -2.57229 1.03578 0
M  V30 5042 H 478.087 -1.2322 1.00012 0
M  V30 5043 H 478.108 -3.80342 0.109588 0
M  V30 5044 H 477.62 -3.39127 1.88718 0
M  V30 5045 H 475.721 -3.68349 -0.561209 0
M  V30 5046 H 475.834 -4.67677 1.03995 0
M  V30 5047 H 474.198 -2.50548 0.458005 0
M  V30 5048 H 474.981 -2.7019 2.11784 0
M  V30 5049 N 477.426 -0.562348 -1.47226 0
M  V30 5050 C 478.373 0.182461 -2.30078 0
M  V30 5051 C 479.343 0.903503 -1.39377 0
M  V30 5052 O 480.528 0.898188 -1.68337 0
M  V30 5053 C 477.668 1.20322 -3.23445 0
M  V30 5054 C 476.781 0.487717 -4.29238 0
M  V30 5055 C 475.916 1.49422 -5.09752 0
M  V30 5056 C 474.955 0.763976 -6.07314 0
M  V30 5057 N 474.092 1.71755 -6.80768 0
M  V30 5058 H 478.932 -0.530169 -2.93246 0
M  V30 5059 H 476.469 -0.273276 -1.44539 0
M  V30 5060 H 478.427 1.80768 -3.76004 0
M  V30 5061 H 477.057 1.88382 -2.6213 0
M  V30 5062 H 476.109 -0.231374 -3.79696 0
M  V30 5063 H 477.421 -0.0841003 -4.98729 0
M  V30 5064 H 476.575 2.17206 -5.66486 0
M  V30 5065 H 475.314 2.09995 -4.40174 0
M  V30 5066 H 474.319 0.0722344 -5.49753 0
M  V30 5067 H 475.544 0.16391 -6.78902 0
M  V30 5068 H 473.49 2.31177 -6.13916 0
M  V30 5069 H 473.407 1.19802 -7.46447 0
M  V30 5070 H 474.675 2.38638 -7.42073 0
M  V30 5071 N 478.904 1.54736 -0.299062 0
M  V30 5072 C 479.834 2.26409 0.571085 0
M  V30 5073 C 480.815 1.2629 1.13951 0
M  V30 5074 O 482 1.55059 1.16921 0
M  V30 5075 C 479.13 3.00338 1.74396 0
M  V30 5076 C 478.084 4.07588 1.30599 0
M  V30 5077 C 477.41 4.69222 2.56387 0
M  V30 5078 C 478.71 5.20455 0.438645 0
M  V30 5079 H 480.404 2.99388 -0.0266991 0
M  V30 5080 H 477.95 1.43993 -0.0142812 0
M  V30 5081 H 479.903 3.49198 2.35878 0
M  V30 5082 H 478.627 2.24934 2.36796 0
M  V30 5083 H 477.286 3.59575 0.71424 0
M  V30 5084 H 476.934 3.9046 3.17097 0
M  V30 5085 H 476.634 5.41653 2.27784 0
M  V30 5086 H 478.158 5.20844 3.18675 0
M  V30 5087 H 479.572 5.65221 0.959085 0
M  V30 5088 H 477.969 5.99594 0.246466 0
M  V30 5089 H 479.039 4.8192 -0.536738 0
M  V30 5090 N 480.382 0.0267497 1.57577 0
M  V30 5091 C 481.793 -0.512413 1.79531 0
M  V30 5092 C 482.144 -1.72391 0.936791 0
M  V30 5093 O 481.269 -2.15903 0.146543 0
M  V30 5094 C 481.864 -0.936378 3.25603 0
M  V30 5095 C 480.423 -1.42067 3.4856 0
M  V30 5096 C 479.57 -0.384278 2.74624 0
M  V30 5097 H 482.521 0.252797 1.56674 0
M  V30 5098 H 482.542 -1.80088 3.35184 0
M  V30 5099 H 482.054 -0.0544332 3.88062 0
M  V30 5100 H 480.155 -2.32262 2.9135 0
M  V30 5101 H 480.268 -1.42968 4.57271 0
M  V30 5102 H 478.632 -0.851855 2.40032 0
M  V30 5103 H 479.415 0.489159 3.39797 0
M  V30 5104 N 481.861 -1.55662 -0.24637 0
M  V30 5105 C 483.086 -1.81914 -0.996093 0
M  V30 5106 C 483.511 -0.603875 -1.78143 0
M  V30 5107 O 482.869 0.447091 -1.75701 0
M  V30 5108 C 482.917 -3.05908 -1.90925 0
M  V30 5109 O 482.021 -2.82861 -3.00105 0
M  V30 5110 H 481.362 -0.600481 -0.283406 0
M  V30 5111 H 483.892 -2.02848 -0.267199 0
M  V30 5112 H 483.902 -3.35356 -2.3238 0
M  V30 5113 H 482.577 -3.93999 -1.33183 0
M  V30 5114 H 481.154 -2.64583 -2.62775 0
M  V30 5115 N 483.339 0.512053 -1.4905 0
M  V30 5116 C 484.587 1.26436 -1.57665 0
M  V30 5117 C 484.908 1.93255 -0.260293 0
M  V30 5118 O 484.178 1.82206 0.719564 0
M  V30 5119 H 482.758 0.469658 -0.580888 0
M  V30 5120 H 485.42 0.594398 -1.85615 0
M  V30 5121 H 484.516 2.03417 -2.36702 0
M  V30 5122 N 484.817 1.37938 0.762283 0
M  V30 5123 C 486.063 1.33866 1.52341 0
M  V30 5124 C 486.396 -0.0738961 1.94059 0
M  V30 5125 O 485.671 -1.03326 1.64785 0
M  V30 5126 C 485.954 2.28644 2.78197 0
M  V30 5127 C 485.807 3.78722 2.42672 0
M  V30 5128 C 487.126 2.21702 3.80179 0
M  V30 5129 H 484.245 0.487593 0.55265 0
M  V30 5130 H 486.887 1.68717 0.873767 0
M  V30 5131 H 485.037 1.99055 3.33631 0
M  V30 5132 H 486.709 4.18948 1.93081 0
M  V30 5133 H 484.952 3.96827 1.75244 0
M  V30 5134 H 485.623 4.40486 3.3268 0
M  V30 5135 H 488.099 2.47805 3.34263 0
M  V30 5136 H 486.975 2.90143 4.65949 0
M  V30 5137 H 487.236 1.21301 4.25133 0
M  V30 5138 N 486.295 -0.989507 1.22664 0
M  V30 5139 C 487.542 -1.72953 1.05325 0
M  V30 5140 C 487.87 -1.90104 -0.411168 0
M  V30 5141 O 487.125 -1.44386 -1.32103 0
M  V30 5142 C 487.424 -3.13649 1.71345 0
M  V30 5143 C 487.09 -3.16403 3.21248 0
M  V30 5144 C 485.752 -3.16862 3.62149 0
M  V30 5145 C 488.104 -3.12428 4.17179 0
M  V30 5146 C 485.432 -3.11051 4.97458 0
M  V30 5147 C 487.784 -3.08159 5.52468 0
M  V30 5148 C 486.448 -3.06935 5.92746 0
M  V30 5149 H 485.718 -0.632881 0.385412 0
M  V30 5150 H 488.365 -1.15863 1.52473 0
M  V30 5151 H 486.67 -3.74069 1.16532 0
M  V30 5152 H 488.367 -3.69658 1.55416 0
M  V30 5153 H 484.957 -3.16798 2.88682 0
M  V30 5154 H 489.141 -3.11221 3.86595 0
M  V30 5155 H 484.397 -3.0845 5.27891 0
M  V30 5156 H 488.571 -3.04039 6.26525 0
M  V30 5157 H 486.198 -3.02186 6.97558 0
M  V30 5158 N 487.773 -1.03688 -1.18687 0
M  V30 5159 C 488.998 -0.757819 -1.93059 0
M  V30 5160 C 489.423 0.678353 -1.75442 0
M  V30 5161 O 488.781 1.46938 -1.06203 0
M  V30 5162 C 488.829 -1.12423 -3.42627 0
M  V30 5163 O 487.933 -0.247505 -4.11657 0
M  V30 5164 H 487.274 -0.279245 -0.602427 0
M  V30 5165 H 489.804 -1.3857 -1.5053 0
M  V30 5166 H 489.814 -1.08454 -3.93322 0
M  V30 5167 H 488.489 -2.17049 -3.54771 0
M  V30 5168 H 487.066 -0.34649 -3.71287 0
M  V30 5169 N 489.251 1.34841 -0.815825 0
M  V30 5170 C 490.181 2.32187 -0.247298 0
M  V30 5171 C 491.162 1.5791 0.632344 0
M  V30 5172 O 492.347 1.8593 0.560698 0
M  V30 5173 C 489.477 3.42122 0.597466 0
M  V30 5174 C 488.431 4.27602 -0.184446 0
M  V30 5175 C 487.757 5.28942 0.782609 0
M  V30 5176 C 489.057 5.03502 -1.38865 0
M  V30 5177 H 490.751 2.79985 -1.06061 0
M  V30 5178 H 488.297 1.34611 -0.511461 0
M  V30 5179 H 490.25 4.09232 1.00533 0
M  V30 5180 H 488.974 2.92956 1.44376 0
M  V30 5181 H 487.633 3.62085 -0.573592 0
M  V30 5182 H 487.281 4.7604 1.62466 0
M  V30 5183 H 486.981 5.87008 0.263695 0
M  V30 5184 H 488.505 5.98922 1.18848 0
M  V30 5185 H 489.919 5.63506 -1.05518 0
M  V30 5186 H 488.316 5.71108 -1.8427 0
M  V30 5187 H 489.386 4.33608 -2.17054 0
M  V30 5188 N 490.729 0.570148 1.46925 0
M  V30 5189 C 491.639 -0.173061 2.33961 0
M  V30 5190 C 492.655 -0.898825 1.48987 0
M  V30 5191 O 493.831 -0.864825 1.81887 0
M  V30 5192 C 490.896 -1.18177 3.25937 0
M  V30 5193 C 489.957 -0.462041 4.26806 0
M  V30 5194 C 489.19 -1.4227 5.14388 0
M  V30 5195 O 489.413 -2.65842 5.04662 0
M  V30 5196 O 488.347 -0.940127 5.94513 0
M  V30 5197 H 492.173 0.541216 2.98839 0
M  V30 5198 H 489.758 0.330647 1.45695 0
M  V30 5199 H 491.64 -1.76372 3.82715 0
M  V30 5200 H 490.315 -1.87774 2.63671 0
M  V30 5201 H 489.222 0.161429 3.73752 0
M  V30 5202 H 490.555 0.192719 4.91823 0
M  V30 5203 N 492.207 -1.54576 0.307264 0
M  V30 5204 C 493.454 -2.00263 -0.300167 0
M  V30 5205 C 493.782 -1.19561 -1.53413 0
M  V30 5206 O 493.037 -0.261487 -1.93945 0
M  V30 5207 C 493.336 -3.50572 -0.695253 0
M  V30 5208 C 493.002 -4.48771 0.437679 0
M  V30 5209 C 491.664 -4.7534 0.748681 0
M  V30 5210 C 494.016 -5.0721 1.19949 0
M  V30 5211 C 491.344 -5.5761 1.8245 0
M  V30 5212 C 493.696 -5.90651 2.26527 0
M  V30 5213 C 492.36 -6.15528 2.58227 0
M  V30 5214 H 491.63 -0.732814 -0.109839 0
M  V30 5215 H 494.277 -1.86664 0.427661 0
M  V30 5216 H 492.582 -3.61814 -1.50326 0
M  V30 5217 H 494.279 -3.83352 -1.17653 0
M  V30 5218 H 490.869 -4.282 0.185187 0
M  V30 5219 H 495.053 -4.86679 0.972474 0
M  V30 5220 H 490.309 -5.75121 2.07476 0
M  V30 5221 H 494.483 -6.34957 2.86011 0
M  V30 5222 H 492.11 -6.79066 3.4172 0
M  V30 5223 N 493.685 -0.035106 -1.57561 0
M  V30 5224 C 494.617 0.973604 -2.07494 0
M  V30 5225 C 495.63 1.28504 -0.999534 0
M  V30 5226 O 496.819 1.24864 -1.27559 0
M  V30 5227 C 493.919 2.29945 -2.48955 0
M  V30 5228 C 493.092 2.1723 -3.79644 0
M  V30 5229 C 492.151 3.328 -4.07592 0
M  V30 5230 O 491.177 3.09418 -4.77754 0
M  V30 5231 N 492.379 4.56779 -3.58236 0
M  V30 5232 H 495.144 0.547525 -2.94656 0
M  V30 5233 H 492.705 0.151515 -1.61189 0
M  V30 5234 H 494.697 3.06097 -2.64739 0
M  V30 5235 H 493.267 2.64173 -1.67126 0
M  V30 5236 H 492.487 1.25768 -3.73599 0
M  V30 5237 H 493.775 2.05945 -4.65257 0
M  V30 5238 H 493.173 4.78668 -3.01485 0
M  V30 5239 H 491.73 5.30079 -3.79288 0
M  V30 5240 N 495.163 1.55791 0.238111 0
M  V30 5241 C 496.44 1.68798 0.98826 0
M  V30 5242 C 496.82 0.577562 2.03045 0
M  V30 5243 O 496.168 -0.41778 2.24648 0
M  V30 5244 C 496.378 3.09454 1.61367 0
M  V30 5245 C 497.726 3.68335 2.11221 0
M  V30 5246 O 498.75 3.1231 1.71292 0
M  V30 5247 O 497.609 4.6657 2.84561 0
M  V30 5248 H 494.703 0.686881 0.460568 0
M  V30 5249 H 497.249 1.68118 0.231202 0
M  V30 5250 H 496.021 3.81726 0.860295 0
M  V30 5251 H 495.644 3.14182 2.4367 0
M  V30 5252 N 496.642 -0.504142 1.49319 0
M  V30 5253 C 497.889 -1.25846 1.58647 0
M  V30 5254 C 498.217 -1.92592 0.27177 0
M  V30 5255 O 497.472 -1.81167 -0.74007 0
M  V30 5256 C 497.771 -2.35021 2.69258 0
M  V30 5257 C 497.437 -1.85755 4.1086 0
M  V30 5258 C 496.099 -1.72038 4.49395 0
M  V30 5259 C 498.451 -1.48844 4.99495 0
M  V30 5260 C 495.779 -1.19783 5.74342 0
M  V30 5261 C 498.131 -0.980422 6.24956 0
M  V30 5262 C 496.795 -0.829622 6.62324 0
M  V30 5263 H 496.065 -0.460505 0.580531 0
M  V30 5264 H 498.712 -0.559716 1.83138 0
M  V30 5265 H 497.017 -3.10672 2.38726 0
M  V30 5266 H 498.714 -2.93083 2.73685 0
M  V30 5267 H 495.304 -1.9739 3.80441 0
M  V30 5268 H 499.488 -1.5829 4.70381 0
M  V30 5269 H 494.744 -1.06817 6.01997 0
M  V30 5270 H 498.918 -0.685608 6.93017 0
M  V30 5271 H 496.545 -0.42253 7.59025 0
M  V30 5272 N 498.12 -1.38341 -0.754957 0
M  V30 5273 C 499.366 -1.34672 -1.51628 0
M  V30 5274 C 499.699 0.0636036 -1.94096 0
M  V30 5275 O 498.974 1.0245 -1.6533 0
M  V30 5276 C 499.257 -2.30116 -2.76981 0
M  V30 5277 C 499.11 -3.80003 -2.4066 0
M  V30 5278 C 500.429 -2.23715 -3.78998 0
M  V30 5279 H 497.548 -0.490517 -0.550056 0
M  V30 5280 H 500.19 -1.69178 -0.864807 0
M  V30 5281 H 498.34 -2.00821 -3.3257 0
M  V30 5282 H 500.012 -4.19966 -1.90856 0
M  V30 5283 H 498.255 -3.97751 -1.73137 0
M  V30 5284 H 498.926 -4.42244 -3.30339 0
M  V30 5285 H 501.402 -2.49574 -3.32945 0
M  V30 5286 H 500.278 -2.9261 -4.64403 0
M  V30 5287 H 500.539 -1.23554 -4.24484 0
M  V30 5288 N 499.598 0.982988 -1.23187 0
M  V30 5289 C 500.546 2.09616 -1.00817 0
M  V30 5290 C 501.54 1.6932 0.0519995 0
M  V30 5291 O 502.746 1.79715 -0.101284 0
M  V30 5292 H 499.121 0.685628 -0.308899 0
M  V30 5293 H 501.092 2.25652 -1.95253 0
M  V30 5294 C 499.841 3.42249 -0.613243 0
M  V30 5295 H 499.164 3.73705 -1.42073 0
M  V30 5296 H 500.604 4.21086 -0.496208 0
M  V30 5297 C 499.063 3.30002 0.678233 0
M  V30 5298 O 499.593 3.6263 1.72807 0
M  V30 5299 N 497.799 2.83164 0.653165 0
M  V30 5300 H 497.346 2.56811 -0.201492 0
M  V30 5301 H 497.304 2.75352 1.51752 0
M  V30 5302 N 501.076 1.04316 1.18135 0
M  V30 5303 C 502.023 0.636398 2.21853 0
M  V30 5304 C 502.993 -0.357039 1.62217 0
M  V30 5305 O 504.178 -0.250453 1.89149 0
M  V30 5306 C 501.318 0.00812779 3.45099 0
M  V30 5307 C 500.431 1.04933 4.19062 0
M  V30 5308 C 499.566 0.389313 5.29771 0
M  V30 5309 C 498.605 1.41544 5.9551 0
M  V30 5310 N 497.742 0.78021 6.97751 0
M  V30 5311 H 502.582 1.52536 2.56002 0
M  V30 5312 H 500.119 0.76304 1.25762 0
M  V30 5313 H 502.077 -0.373497 4.15525 0
M  V30 5314 H 500.707 -0.844336 3.11562 0
M  V30 5315 H 499.759 1.54888 3.47439 0
M  V30 5316 H 501.071 1.82862 4.64072 0
M  V30 5317 H 500.225 -0.0463805 6.06682 0
M  V30 5318 H 498.964 -0.422038 4.8587 0
M  V30 5319 H 497.969 1.86124 5.17337 0
M  V30 5320 H 499.194 2.22854 6.41493 0
M  V30 5321 H 497.14 -0.0107899 6.55999 0
M  V30 5322 H 497.057 1.49716 7.41027 0
M  V30 5323 H 498.325 0.368996 7.78626 0
M  V30 5324 N 502.554 -1.34406 0.822964 0
M  V30 5325 C 503.794 -2.00103 0.416915 0
M  V30 5326 C 504.158 -1.63826 -1.00125 0
M  V30 5327 O 505.359 -2.22367 -1.51018 0
M  V30 5328 C 503.63 -3.52101 0.613151 0
M  V30 5329 S 505.189 -4.37774 0.299956 0
M  V30 5330 H 502.007 -0.69333 0.157527 0
M  V30 5331 H 504.609 -1.63698 1.06879 0
M  V30 5332 H 503.313 -3.75991 1.64496 0
M  V30 5333 H 502.844 -3.93364 -0.0534554 0
M  V30 5334 H 504.859 -4.8822 -0.886336 0
M  V30 5335 N 504.032 -0.577932 -1.46621 0
M  V30 5336 C 504.962 0.145917 -2.33044 0
M  V30 5337 C 505.943 0.888412 -1.45056 0
M  V30 5338 O 507.128 0.864812 -1.73881 0
M  V30 5339 C 504.258 1.16322 -3.27241 0
M  V30 5340 C 503.212 0.535868 -4.24632 0
M  V30 5341 C 502.538 1.65929 -5.08303 0
M  V30 5342 C 503.838 -0.523861 -5.19666 0
M  V30 5343 H 505.532 -0.575636 -2.93814 0
M  V30 5344 H 503.078 -0.278272 -1.41286 0
M  V30 5345 H 505.031 1.67793 -3.86553 0
M  V30 5346 H 503.755 1.91498 -2.64567 0
M  V30 5347 H 502.414 0.0422759 -3.66576 0
M  V30 5348 H 502.062 2.40061 -4.42018 0
M  V30 5349 H 501.762 1.2452 -5.74255 0
M  V30 5350 H 503.286 2.17686 -5.70478 0
M  V30 5351 H 504.7 -0.0944059 -5.73222 0
M  V30 5352 H 503.097 -0.858 -5.93935 0
M  V30 5353 H 504.167 -1.41197 -4.63887 0
M  V30 5354 N 505.51 1.54411 -0.315457 0
M  V30 5355 C 506.759 1.99599 0.290395 0
M  V30 5356 C 507.072 1.20746 1.53882 0
M  V30 5357 O 508.278 1.56272 2.22017 0
M  V30 5358 C 506.734 3.5539 0.56797 0
M  V30 5359 C 506.342 4.43068 -0.662945 0
M  V30 5360 C 508.086 4.09067 1.13422 0
M  V30 5361 C 505.993 5.90317 -0.357722 0
M  V30 5362 H 504.923 0.745592 0.112286 0
M  V30 5363 H 507.574 1.78477 -0.426418 0
M  V30 5364 H 505.956 3.72468 1.34476 0
M  V30 5365 H 507.13 4.37765 -1.43869 0
M  V30 5366 H 505.445 4.00238 -1.14884 0
M  V30 5367 H 508.042 5.16663 1.37707 0
M  V30 5368 H 508.385 3.60552 2.08106 0
M  V30 5369 H 508.918 3.95589 0.418805 0
M  V30 5370 H 505.657 6.4301 -1.27351 0
M  V30 5371 H 505.177 5.98592 0.380472 0
M  V30 5372 H 506.856 6.4699 0.0354284 0
M  V30 5373 N 506.988 0.0434614 1.5754 0
M  V30 5374 C 507.935 -0.93356 2.11077 0
M  V30 5375 C 508.905 -1.31383 1.01626 0
M  V30 5376 O 510.09 -1.40465 1.29129 0
M  V30 5377 C 507.23 -2.20578 2.65404 0
M  V30 5378 C 506.343 -1.88068 3.88914 0
M  V30 5379 C 505.478 -3.09691 4.31584 0
M  V30 5380 C 504.517 -2.73067 5.47815 0
M  V30 5381 N 503.654 -3.87359 5.85574 0
M  V30 5382 H 508.494 -0.470118 2.94268 0
M  V30 5383 H 506.031 -0.220434 1.45439 0
M  V30 5384 H 507.989 -2.95011 2.94999 0
M  V30 5385 H 506.619 -2.64513 1.85021 0
M  V30 5386 H 505.671 -1.03816 3.6596 0
M  V30 5387 H 506.983 -1.57104 4.73413 0
M  V30 5388 H 506.137 -3.92431 4.62691 0
M  V30 5389 H 504.876 -3.43827 3.45882 0
M  V30 5390 H 503.881 -1.88742 5.16388 0
M  V30 5391 H 505.106 -2.40131 6.35227 0
M  V30 5392 H 503.052 -4.21311 5.02825 0
M  V30 5393 H 502.969 -3.60068 6.64746 0
M  V30 5394 H 504.237 -4.70761 6.21292 0
M  V30 5395 N 508.466 -1.55915 -0.229846 0
M  V30 5396 C 509.414 -1.9258 -1.30444 0
M  V30 5397 C 510.408 -0.806839 -1.48951 0
M  V30 5398 O 511.614 -0.991606 -1.50224 0
M  V30 5399 H 507.989 -0.611878 -0.437161 0
M  V30 5400 H 509.96 -2.82264 -0.96797 0
M  V30 5401 C 508.709 -2.25171 -2.6494 0
M  V30 5402 H 508.032 -3.10782 -2.51504 0
M  V30 5403 H 509.472 -2.54716 -3.38963 0
M  V30 5404 C 507.931 -1.07394 -3.19324 0
M  V30 5405 O 508.461 -0.330759 -4.00336 0
M  V30 5406 N 506.667 -0.859984 -2.77584 0
M  V30 5407 H 506.214 -1.46605 -2.11813 0
M  V30 5408 H 506.172 -0.0736671 -3.14314 0
M  V30 5409 N 509.944 0.496216 -1.49584 0
M  V30 5410 C 511.355 1.07765 -1.52459 0
M  V30 5411 C 511.706 1.93679 -0.31353 0
M  V30 5412 O 510.831 2.08588 0.576186 0
M  V30 5413 C 511.426 1.96111 -2.76271 0
M  V30 5414 C 509.985 2.49409 -2.81908 0
M  V30 5415 C 509.132 1.27142 -2.46435 0
M  V30 5416 H 512.083 0.279914 -1.56212 0
M  V30 5417 H 512.104 2.80862 -2.56704 0
M  V30 5418 H 511.616 1.33555 -3.64396 0
M  V30 5419 H 509.717 3.1559 -1.98074 0
M  V30 5420 H 509.83 2.86234 -3.84196 0
M  V30 5421 H 508.194 1.59818 -1.98319 0
M  V30 5422 H 508.977 0.662866 -3.3684 0
M  V30 5423 N 511.423 1.38739 0.74761 0
M  V30 5424 C 512.386 1.36241 1.84312 0
M  V30 5425 C 513.386 0.261811 1.58654 0
M  V30 5426 O 514.576 0.519031 1.66288 0
M  V30 5427 C 511.708 1.12253 3.21888 0
M  V30 5428 H 512.901 2.33712 1.87933 0
M  V30 5429 H 510.454 1.2412 0.949946 0
M  V30 5430 H 511.189 0.154133 3.23934 0
M  V30 5431 H 510.974 1.91943 3.41907 0
M  V30 5432 H 512.464 1.13215 4.0196 0
M  V30 5433 N 512.901 -0.976442 1.23707 0
M  V30 5434 C 513.811 -2.10359 1.03856 0
M  V30 5435 C 514.827 -1.73991 -0.0180919 0
M  V30 5436 O 516.003 -2.0061 0.178211 0
M  V30 5437 C 513.068 -3.40809 0.636387 0
M  V30 5438 C 512.129 -3.91179 1.76854 0
M  V30 5439 C 511.362 -5.15404 1.38546 0
M  V30 5440 O 511.585 -5.69754 0.27142 0
M  V30 5441 O 510.519 -5.5994 2.20797 0
M  V30 5442 H 514.345 -2.29997 1.98331 0
M  V30 5443 H 511.93 -1.08742 1.02448 0
M  V30 5444 H 513.812 -4.19269 0.423223 0
M  V30 5445 H 512.487 -3.22493 -0.279322 0
M  V30 5446 H 511.394 -3.13819 2.03638 0
M  V30 5447 H 512.727 -4.13958 2.6627 0
M  V30 5448 N 514.379 -1.04941 -1.1758 0
M  V30 5449 C 515.795 -0.770282 -1.39781 0
M  V30 5450 C 515.995 0.636417 -1.91186 0
M  V30 5451 O 515.051 1.39923 -2.10185 0
M  V30 5452 C 516.364 -1.82376 -2.3908 0
M  V30 5453 C 517.912 -1.84569 -2.52791 0
M  V30 5454 C 518.387 -2.88933 -3.55361 0
M  V30 5455 N 519.878 -2.8788 -3.62877 0
M  V30 5456 C 520.613 -3.65282 -4.41992 0
M  V30 5457 N 520.109 -4.52461 -5.24643 0
M  V30 5458 N 521.902 -3.53732 -4.36841 0
M  V30 5459 H 514.053 -1.95705 -0.825438 0
M  V30 5460 H 516.316 -0.847284 -0.425222 0
M  V30 5461 H 516.022 -2.83323 -2.08376 0
M  V30 5462 H 515.896 -1.66327 -3.38549 0
M  V30 5463 H 518.283 -0.842879 -2.82807 0
M  V30 5464 H 518.364 -2.04696 -1.53406 0
M  V30 5465 H 518.008 -3.89398 -3.26085 0
M  V30 5466 H 517.938 -2.66059 -4.54445 0
M  V30 5467 H 520.429 -2.24666 -3.03864 0
M  V30 5468 H 520.742 -5.08211 -5.82187 0
M  V30 5469 H 519.087 -4.56524 -5.24033 0
M  V30 5470 H 522.278 -2.85021 -3.71323 0
M  V30 5471 H 522.451 -4.14302 -4.98255 0
M  V30 5472 N 515.857 1.33968 -0.830081 0
M  V30 5473 C 516.82 2.27694 -0.26235 0
M  V30 5474 C 517.82 1.50589 0.563876 0
M  V30 5475 O 519.01 1.70028 0.378941 0
M  V30 5476 C 516.142 3.35002 0.63138 0
M  V30 5477 H 517.335 2.79419 -1.08928 0
M  V30 5478 H 514.888 1.44221 -0.602486 0
M  V30 5479 H 515.623 2.88504 1.48109 0
M  V30 5480 H 515.408 3.92079 0.0403276 0
M  V30 5481 H 516.898 4.04897 1.02217 0
M  V30 5482 N 517.335 0.585699 1.46312 0
M  V30 5483 C 518.612 0.00542031 1.95599 0
M  V30 5484 C 518.992 -1.45619 1.52834 0
M  V30 5485 O 518.34 -2.14759 0.780446 0
M  V30 5486 C 518.55 0.180601 3.48532 0
M  V30 5487 C 519.898 0.049979 4.24571 0
M  V30 5488 O 520.922 0.109589 3.56031 0
M  V30 5489 O 519.781 -0.0832226 5.46437 0
M  V30 5490 H 516.875 -0.0481281 0.825598 0
M  V30 5491 H 519.421 0.654227 1.56582 0
M  V30 5492 H 518.193 1.19657 3.72556 0
M  V30 5493 H 517.816 -0.504498 3.94386 0
M  V30 5494 N 518.813 -1.54241 0.323641 0
M  V30 5495 C 519.743 -2.27289 -0.534993 0
M  V30 5496 C 520.724 -1.28087 -1.11927 0
M  V30 5497 O 521.909 -1.56899 -1.14439 0
M  V30 5498 C 519.039 -3.03075 -1.69596 0
M  V30 5499 C 517.993 -4.09614 -1.24098 0
M  V30 5500 C 517.319 -4.73242 -2.4889 0
M  V30 5501 C 518.619 -5.21087 -0.355789 0
M  V30 5502 H 520.313 -2.99308 0.0743257 0
M  V30 5503 H 517.859 -1.43952 0.0371874 0
M  V30 5504 H 519.812 -3.52907 -2.30293 0
M  V30 5505 H 518.536 -2.28673 -2.33187 0
M  V30 5506 H 517.195 -3.60666 -0.656945 0
M  V30 5507 H 516.843 -3.95455 -3.10845 0
M  V30 5508 H 516.543 -5.45209 -2.19138 0
M  V30 5509 H 518.067 -5.25848 -3.10348 0
M  V30 5510 H 519.481 -5.66675 -0.869042 0
M  V30 5511 H 517.878 -5.9991 -0.151045 0
M  V30 5512 H 518.948 -4.81005 0.613339 0
M  V30 5513 N 520.291 -0.0518155 -1.57515 0
M  V30 5514 C 521.238 0.922352 -2.11569 0
M  V30 5515 C 522.208 1.30842 -1.02321 0
M  V30 5516 O 523.393 1.39778 -1.29872 0
M  V30 5517 C 520.533 2.19167 -2.6657 0
M  V30 5518 C 519.646 1.86003 -3.89906 0
M  V30 5519 C 518.781 3.07398 -4.33221 0
M  V30 5520 C 517.82 2.70158 -5.49255 0
M  V30 5521 N 516.957 3.84248 -5.8762 0
M  V30 5522 H 521.797 0.454506 -2.94514 0
M  V30 5523 H 519.334 0.212718 -1.45554 0
M  V30 5524 H 521.292 2.93443 -2.96559 0
M  V30 5525 H 519.922 2.63528 -1.86421 0
M  V30 5526 H 518.974 1.01874 -3.66505 0
M  V30 5527 H 520.286 1.54592 -4.74239 0
M  V30 5528 H 519.44 3.89972 -4.64765 0
M  V30 5529 H 518.179 3.41988 -3.477 0
M  V30 5530 H 517.184 1.86001 -5.17382 0
M  V30 5531 H 518.409 2.36759 -6.36492 0
M  V30 5532 H 516.355 4.18638 -5.05053 0
M  V30 5533 H 516.272 3.56538 -6.66646 0
M  V30 5534 H 517.54 4.6746 -6.2378 0
M  V30 5535 N 521.769 1.56035 0.221574 0
M  V30 5536 C 522.701 1.889 1.29805 0
M  V30 5537 C 523.714 0.777269 1.43047 0
M  V30 5538 O 524.903 1.05557 1.43945 0
M  V30 5539 C 522.003 2.0825 2.67367 0
M  V30 5540 C 521.176 3.39267 2.76073 0
M  V30 5541 C 520.235 3.48049 3.94649 0
M  V30 5542 O 519.261 4.2108 3.82988 0
M  V30 5543 N 520.463 2.79191 5.08953 0
M  V30 5544 H 523.228 2.81831 1.01938 0
M  V30 5545 H 520.789 1.5658 0.411612 0
M  V30 5546 H 522.781 2.11441 3.45072 0
M  V30 5547 H 521.351 1.21944 2.87834 0
M  V30 5548 H 520.571 3.48175 1.84846 0
M  V30 5549 H 521.859 4.25575 2.7886 0
M  V30 5550 H 521.257 2.19635 5.21322 0
M  V30 5551 H 519.814 2.88043 5.84701 0
M  V30 5552 N 523.247 -0.488276 1.49845 0
M  V30 5553 C 524.177 -1.59675 1.70371 0
M  V30 5554 C 525.158 -1.60878 0.552473 0
M  V30 5555 O 526.343 -1.77417 0.78973 0
M  V30 5556 C 523.473 -2.98098 1.782 0
M  V30 5557 C 522.427 -3.11761 2.93239 0
M  V30 5558 C 521.753 -4.51661 2.86193 0
M  V30 5559 C 523.053 -2.90589 4.33999 0
M  V30 5560 H 524.747 -1.42752 2.63177 0
M  V30 5561 H 522.293 -0.685317 1.26647 0
M  V30 5562 H 524.246 -3.75555 1.91144 0
M  V30 5563 H 522.97 -3.16138 0.820018 0
M  V30 5564 H 521.629 -2.36732 2.79917 0
M  V30 5565 H 521.277 -4.66595 1.87877 0
M  V30 5566 H 520.977 -4.61742 3.63412 0
M  V30 5567 H 522.501 -5.31162 3.01163 0
M  V30 5568 H 523.915 -3.57807 4.47936 0
M  V30 5569 H 522.312 -3.1213 5.12538 0
M  V30 5570 H 523.382 -1.86595 4.4756 0
M  V30 5571 N 524.725 -1.39134 -0.740242 0
M  V30 5572 C 525.658 -1.3182 -1.86276 0
M  V30 5573 C 526.636 -0.192794 -1.61453 0
M  V30 5574 O 527.82 -0.372365 -1.84786 0
M  V30 5575 C 524.947 -1.04564 -3.22155 0
M  V30 5576 C 523.993 -2.19224 -3.65846 0
M  V30 5577 S 524.826 -3.81466 -3.75824 0
M  V30 5578 C 525.982 -3.56425 -5.14502 0
M  V30 5579 H 526.215 -2.26822 -1.92195 0
M  V30 5580 H 523.748 -1.25127 -0.904576 0
M  V30 5581 H 525.706 -0.895228 -4.00619 0
M  V30 5582 H 524.367 -0.112578 -3.13898 0
M  V30 5583 H 523.56 -1.95732 -4.6444 0
M  V30 5584 H 523.162 -2.30441 -2.94572 0
M  V30 5585 H 525.454 -3.13366 -6.00673 0
M  V30 5586 H 526.397 -4.54462 -5.43019 0
M  V30 5587 H 526.805 -2.90641 -4.8393 0
M  V30 5588 N 526.204 0.969867 -1.24223 0
M  V30 5589 C 527.45 1.7151 -1.08223 0
M  V30 5590 C 527.783 1.90478 0.37838 0
M  V30 5591 O 527.058 1.4647 1.27971 0
M  V30 5592 C 527.341 3.10714 -1.82013 0
M  V30 5593 C 527.194 2.9925 -3.35811 0
M  V30 5594 C 528.513 4.10332 -1.59108 0
M  V30 5595 H 525.632 0.622499 -0.394543 0
M  V30 5596 H 528.274 1.1284 -1.52863 0
M  V30 5597 H 526.424 3.608 -1.44068 0
M  V30 5598 H 528.096 2.56608 -3.83341 0
M  V30 5599 H 526.339 2.35512 -3.64303 0
M  V30 5600 H 527.01 3.97857 -3.82641 0
M  V30 5601 H 529.486 3.69097 -1.92111 0
M  V30 5602 H 528.362 5.05804 -2.13198 0
M  V30 5603 H 528.623 4.38926 -0.528832 0
M  V30 5604 N 527.682 1.05563 1.17022 0
M  V30 5605 C 528.632 0.630007 2.19123 0
M  V30 5606 C 529.616 -0.335472 1.57364 0
M  V30 5607 O 530.808 -0.1521 1.76345 0
M  V30 5608 C 527.937 0.0101676 3.43298 0
M  V30 5609 C 527.023 0.999698 4.12149 0
M  V30 5610 N 527.414 2.17251 4.56766 0
M  V30 5611 C 525.712 0.829 4.38228 0
M  V30 5612 C 526.413 2.79883 5.09942 0
M  V30 5613 N 525.389 2.07656 5.02374 0
M  V30 5614 H 529.191 1.52353 2.51328 0
M  V30 5615 H 526.705 0.926288 1.33393 0
M  V30 5616 H 528.702 -0.312541 4.15727 0
M  V30 5617 H 527.362 -0.878707 3.12584 0
M  V30 5618 H 528.373 2.55067 4.50734 0
M  V30 5619 H 525.05 -0.00850974 4.17499 0
M  V30 5620 H 526.44 3.79362 5.54558 0
M  V30 5621 N 529.16 -1.33526 0.837174 0
M  V30 5622 C 530.123 -2.27551 0.274421 0
M  V30 5623 C 531.123 -1.50886 -0.555881 0
M  V30 5624 O 532.313 -1.70227 -0.369918 0
M  V30 5625 C 529.445 -3.35332 -0.613605 0
M  V30 5626 H 530.638 -2.78837 1.10408 0
M  V30 5627 H 528.191 -1.439 0.610126 0
M  V30 5628 H 528.926 -2.89285 -1.46577 0
M  V30 5629 H 528.711 -3.92095 -0.0195341 0
M  V30 5630 H 530.201 -4.05433 -1.00068 0
M  V30 5631 N 530.638 -0.59345 -1.46 0
M  V30 5632 C 531.885 -0.0831523 -2.02329 0
M  V30 5633 C 532.213 1.28093 -1.46364 0
M  V30 5634 O 531.468 1.85526 -0.622793 0
M  V30 5635 C 531.767 0.021178 -3.57394 0
M  V30 5636 C 531.433 -1.27671 -4.32448 0
M  V30 5637 C 530.095 -1.63227 -4.5267 0
M  V30 5638 C 532.447 -2.13511 -4.7546 0
M  V30 5639 C 529.775 -2.84401 -5.1316 0
M  V30 5640 C 532.127 -3.33922 -5.37289 0
M  V30 5641 C 530.791 -3.69747 -5.55737 0
M  V30 5642 H 530.061 -0.0304276 -0.740375 0
M  V30 5643 H 532.708 -0.772239 -1.75239 0
M  V30 5644 H 531.013 0.793454 -3.83682 0
M  V30 5645 H 532.71 0.431942 -3.98667 0
M  V30 5646 H 529.3 -0.989937 -4.17011 0
M  V30 5647 H 533.484 -1.87344 -4.59582 0
M  V30 5648 H 528.74 -3.12282 -5.25633 0
M  V30 5649 H 532.914 -4.00698 -5.69574 0
M  V30 5650 H 530.541 -4.6373 -6.02377 0
M  V30 5651 N 532.116 1.54067 -0.331816 0
M  V30 5652 C 533.365 1.99895 0.269209 0
M  V30 5653 C 533.678 1.22371 1.52593 0
M  V30 5654 O 534.884 1.58618 2.20347 0
M  V30 5655 C 533.34 3.55972 0.530244 0
M  V30 5656 C 532.948 4.4234 -0.709901 0
M  V30 5657 C 534.692 4.10247 1.09077 0
M  V30 5658 C 532.599 5.89905 -0.420312 0
M  V30 5659 H 531.529 0.746741 0.104371 0
M  V30 5660 H 534.18 1.78014 -0.445324 0
M  V30 5661 H 532.562 3.73873 1.30518 0
M  V30 5662 H 533.736 4.36215 -1.48504 0
M  V30 5663 H 532.051 3.98997 -1.19123 0
M  V30 5664 H 534.648 5.18095 1.32219 0
M  V30 5665 H 534.991 3.62739 2.0427 0
M  V30 5666 H 535.524 3.96011 0.376824 0
M  V30 5667 H 532.263 6.41623 -1.34164 0
M  V30 5668 H 531.783 5.98962 0.316962 0
M  V30 5669 H 533.462 6.46991 -0.0331956 0
M  V30 5670 N 533.594 0.0601682 1.57485 0
M  V30 5671 C 534.541 -0.91112 2.12055 0
M  V30 5672 C 535.511 -1.30298 1.03013 0
M  V30 5673 O 536.696 -1.39087 1.30612 0
M  V30 5674 C 533.836 -2.1775 2.67729 0
M  V30 5675 C 532.949 -1.83933 3.90887 0
M  V30 5676 C 532.084 -3.05096 4.34845 0
M  V30 5677 C 531.123 -2.67241 5.5068 0
M  V30 5678 N 530.26 -3.81127 5.8965 0
M  V30 5679 H 535.1 -0.43888 2.9475 0
M  V30 5680 H 532.637 -0.204995 1.45665 0
M  V30 5681 H 534.595 -2.91866 2.98111 0
M  V30 5682 H 533.225 -2.62535 1.87816 0
M  V30 5683 H 532.277 -0.999287 3.6704 0
M  V30 5684 H 533.589 -1.52074 4.75052 0
M  V30 5685 H 532.743 -3.87502 4.66827 0
M  V30 5686 H 531.482 -3.40139 3.49509 0
M  V30 5687 H 530.487 -1.83254 5.18361 0
M  V30 5688 H 531.712 -2.3338 6.37738 0
M  V30 5689 H 529.658 -4.15954 5.07266 0
M  V30 5690 H 529.575 -3.52997 6.68528 0
M  V30 5691 H 530.843 -4.64145 6.2625 0
M  V30 5692 N 535.072 -1.5615 -0.213296 0
M  V30 5693 C 536.488 -1.49327 -0.56336 0
M  V30 5694 C 536.688 -0.756826 -1.86747 0
M  V30 5695 O 535.744 -0.299866 -2.50713 0
M  V30 5696 C 537.057 -2.9392 -0.634944 0
M  V30 5697 C 538.605 -3.04487 -0.725013 0
M  V30 5698 C 539.08 -4.50456 -0.82787 0
M  V30 5699 N 540.571 -4.54533 -0.891876 0
M  V30 5700 C 541.306 -5.64766 -0.991315 0
M  V30 5701 N 540.802 -6.84733 -1.05419 0
M  V30 5702 N 542.595 -5.52637 -1.02709 0
M  V30 5703 H 534.746 -2.02453 0.642366 0
M  V30 5704 H 537.009 -0.920548 0.226487 0
M  V30 5705 H 536.715 -3.50783 0.253859 0
M  V30 5706 H 536.589 -3.46274 -1.49579 0
M  V30 5707 H 538.976 -2.47685 -1.60425 0
M  V30 5708 H 539.057 -2.55289 0.161669 0
M  V30 5709 H 538.701 -5.07878 0.0469464 0
M  V30 5710 H 538.631 -4.97369 -1.73009 0
M  V30 5711 H 541.122 -3.68141 -0.85327 0
M  V30 5712 H 541.435 -7.64493 -1.13007 0
M  V30 5713 H 539.78 -6.87427 -1.02318 0
M  V30 5714 H 542.971 -4.5784 -0.974687 0
M  V30 5715 H 543.144 -6.38576 -1.10113 0
M  V30 5716 N 536.55 0.480323 -1.50102 0
M  V30 5717 C 537.775 1.26126 -1.64642 0
M  V30 5718 C 538.2 1.85257 -0.325823 0
M  V30 5719 O 537.558 1.66854 0.709194 0
M  V30 5720 C 537.606 2.35243 -2.73301 0
M  V30 5721 O 536.71 3.39646 -2.33911 0
M  V30 5722 H 536.051 0.371463 -0.550374 0
M  V30 5723 H 538.581 0.572696 -1.96421 0
M  V30 5724 H 538.591 2.80695 -2.96098 0
M  V30 5725 H 537.266 1.91574 -3.6915 0
M  V30 5726 H 535.843 2.99969 -2.21525 0
M  V30 5727 N 538.028 1.39524 0.732853 0
M  V30 5728 C 539.305 1.27373 1.48444 0
M  V30 5729 C 539.685 -0.115725 2.10783 0
M  V30 5730 O 539.033 -1.12713 1.98766 0
M  V30 5731 C 539.243 2.39966 2.53412 0
M  V30 5732 C 540.591 2.79384 3.19733 0
M  V30 5733 O 541.615 2.39431 2.63725 0
M  V30 5734 O 540.474 3.48353 4.21085 0
M  V30 5735 H 537.568 0.499272 0.659285 0
M  V30 5736 H 540.114 1.51403 0.766496 0
M  V30 5737 H 538.886 3.32845 2.05742 0
M  V30 5738 H 538.509 2.17612 3.32762 0
M  V30 5739 N 539.506 -0.963266 1.24736 0
M  V30 5740 C 540.469 -2.04013 1.04457 0
M  V30 5741 C 541.469 -1.608 0.000335555 0
M  V30 5742 O 542.659 -1.72515 0.241719 0
M  V30 5743 C 539.791 -3.35858 0.584162 0
M  V30 5744 H 540.984 -2.23436 2.00041 0
M  V30 5745 H 538.537 -1.13914 1.07021 0
M  V30 5746 H 539.272 -3.22128 -0.374673 0
M  V30 5747 H 539.057 -3.68568 1.3379 0
M  V30 5748 H 540.547 -4.1502 0.463451 0
M  V30 5749 N 540.985 -1.06182 -1.16461 0
M  V30 5750 C 541.895 -0.682671 -2.24448 0
M  V30 5751 C 542.911 0.30078 -1.71381 0
M  V30 5752 O 544.087 0.150376 -2.00838 0
M  V30 5753 C 541.152 -0.0737202 -3.46622 0
M  V30 5754 C 540.213 -1.10889 -4.14731 0
M  V30 5755 C 539.446 -0.528908 -5.31073 0
M  V30 5756 O 539.669 0.65868 -5.66584 0
M  V30 5757 O 538.603 -1.26805 -5.88391 0
M  V30 5758 H 542.429 -1.58291 -2.59187 0
M  V30 5759 H 540.014 -0.834013 -1.23954 0
M  V30 5760 H 541.896 0.264192 -4.20571 0
M  V30 5761 H 540.571 0.800015 -3.13658 0
M  V30 5762 H 539.478 -1.49896 -3.42756 0
M  V30 5763 H 540.811 -1.95412 -4.51747 0
M  V30 5764 N 542.463 1.3308 -0.844243 0
M  V30 5765 C 543.373 2.32876 -0.283922 0
M  V30 5766 C 544.389 1.63589 0.592846 0
M  V30 5767 O 545.565 1.95205 0.495693 0
M  V30 5768 C 542.63 3.42667 0.527283 0
M  V30 5769 C 541.691 4.27664 -0.374394 0
M  V30 5770 C 540.924 5.32212 0.39819 0
M  V30 5771 O 541.147 5.46635 1.62932 0
M  V30 5772 O 540.081 6.01458 -0.2306 0
M  V30 5773 H 543.907 2.82671 -1.11045 0
M  V30 5774 H 541.492 1.36518 -0.606903 0
M  V30 5775 H 543.374 4.09652 0.988078 0
M  V30 5776 H 542.049 2.95079 1.33078 0
M  V30 5777 H 540.956 3.63526 -0.883144 0
M  V30 5778 H 542.289 4.78749 -1.1428 0
M  V30 5779 N 543.941 0.601185 1.45683 0
M  V30 5780 C 545.187 0.0940202 2.02582 0
M  V30 5781 C 545.52 -1.26972 1.46941 0
M  V30 5782 O 544.795 -1.83613 0.641612 0
M  V30 5783 C 545.078 0.0481715 3.60068 0
M  V30 5784 C 544.931 1.44212 4.26055 0
M  V30 5785 C 546.25 -0.642975 4.35378 0
M  V30 5786 H 543.369 0.0356404 0.736138 0
M  V30 5787 H 546.011 0.771929 1.73612 0
M  V30 5788 H 544.161 -0.529128 3.8488 0
M  V30 5789 H 545.833 2.06601 4.12449 0
M  V30 5790 H 544.076 2.00465 3.84703 0
M  V30 5791 H 544.747 1.36234 5.34925 0
M  V30 5792 H 547.223 -0.152351 4.15821 0
M  V30 5793 H 546.099 -0.644141 5.45107 0
M  V30 5794 H 546.36 -1.70785 4.0778 0
M  V30 5795 N 545.419 -1.53889 0.339982 0
M  V30 5796 C 546.696 -1.93084 -0.312719 0
M  V30 5797 C 547.076 -1.2712 -1.68534 0
M  V30 5798 O 546.424 -0.420835 -2.24591 0
M  V30 5799 C 546.634 -3.4683 -0.388558 0
M  V30 5800 C 547.982 -4.19732 -0.641088 0
M  V30 5801 O 549.006 -3.53075 -0.470818 0
M  V30 5802 O 547.865 -5.3781 -0.970685 0
M  V30 5803 H 544.959 -0.806784 -0.18174 0
M  V30 5804 H 547.505 -1.65137 0.390898 0
M  V30 5805 H 546.277 -3.87055 0.574821 0
M  V30 5806 H 545.9 -3.80933 -1.1391 0
M  V30 5807 N 546.897 -0.0685191 -1.57451 0
M  V30 5808 C 548.144 0.601348 -1.93365 0
M  V30 5809 C 548.472 1.69816 -0.948294 0
M  V30 5810 O 547.727 1.95666 0.0366199 0
M  V30 5811 C 548.026 1.22051 -3.35914 0
M  V30 5812 C 547.692 0.250165 -4.50205 0
M  V30 5813 C 546.354 -0.0167954 -4.81197 0
M  V30 5814 C 548.706 -0.413867 -5.19554 0
M  V30 5815 C 546.034 -0.95493 -5.78876 0
M  V30 5816 C 548.386 -1.3403 -6.18238 0
M  V30 5817 C 547.05 -1.61576 -6.47649 0
M  V30 5818 H 546.32 0.220049 -0.707573 0
M  V30 5819 H 548.967 -0.138697 -1.90997 0
M  V30 5820 H 547.272 2.03622 -3.34732 0
M  V30 5821 H 548.969 1.74605 -3.6099 0
M  V30 5822 H 545.559 0.468421 -4.26033 0
M  V30 5823 H 549.743 -0.220733 -4.95809 0
M  V30 5824 H 544.999 -1.17563 -5.99991 0
M  V30 5825 H 549.173 -1.86081 -6.71079 0
M  V30 5826 H 546.8 -2.34431 -7.2315 0
M  V30 5827 N 548.375 1.56261 0.205012 0
M  V30 5828 C 549.338 1.92908 1.23771 0
M  V30 5829 C 550.338 0.809208 1.38955 0
M  V30 5830 O 551.528 1.07676 1.36936 0
M  V30 5831 C 548.66 2.19442 2.60879 0
M  V30 5832 H 549.853 2.85287 0.924728 0
M  V30 5833 H 547.406 1.49798 0.446125 0
M  V30 5834 H 548.141 1.29668 2.97248 0
M  V30 5835 H 547.926 3.0104 2.51232 0
M  V30 5836 H 549.416 2.48833 3.35368 0
M  V30 5837 N 549.853 -0.472356 1.50355 0
M  V30 5838 C 551.101 -1.22211 1.60962 0
M  V30 5839 C 551.422 -1.92497 0.311439 0
M  V30 5840 O 550.692 -1.8405 -0.671002 0
M  V30 5841 H 549.272 -0.454092 0.593135 0
M  V30 5842 H 551.934 -0.544977 1.87126 0
M  V30 5843 H 551.03 -1.9707 2.42012 0
M  V30 5844 N 551.331 -1.39911 -0.725443 0
M  V30 5845 C 552.577 -1.38862 -1.48624 0
M  V30 5846 C 552.932 0.0125913 -1.92396 0
M  V30 5847 O 552.225 0.981046 -1.64578 0
M  V30 5848 C 552.419 -2.30368 -2.7325 0
M  V30 5849 C 552.248 -3.79247 -2.41665 0
M  V30 5850 C 551.018 -4.48119 -2.3349 0
M  V30 5851 C 553.216 -4.70988 -2.06579 0
M  V30 5852 N 551.198 -5.82282 -1.94476 0
M  V30 5853 C 552.569 -5.93873 -1.78087 0
M  V30 5854 C 554.624 -4.58917 -1.9313 0
M  V30 5855 C 553.327 -7.06036 -1.37499 0
M  V30 5856 C 555.353 -5.71012 -1.53946 0
M  V30 5857 C 554.715 -6.92976 -1.26345 0
M  V30 5858 H 550.814 -0.563394 -0.54232 0
M  V30 5859 H 553.398 -1.75542 -0.842213 0
M  V30 5860 H 551.569 -1.95831 -3.35417 0
M  V30 5861 H 553.301 -2.20245 -3.39521 0
M  V30 5862 H 550.056 -4.01677 -2.50904 0
M  V30 5863 H 550.48 -6.53307 -1.77535 0
M  V30 5864 H 555.122 -3.65149 -2.13134 0
M  V30 5865 H 552.84 -7.99697 -1.16237 0
M  V30 5866 H 556.426 -5.63664 -1.44132 0
M  V30 5867 H 555.306 -7.78243 -0.964787 0
M  V30 5868 N 552.809 0.956637 -1.25245 0
M  V30 5869 C 553.739 2.07058 -1.07931 0
M  V30 5870 C 554.72 1.70096 0.0110361 0
M  V30 5871 O 555.905 1.93555 -0.158121 0
M  V30 5872 C 553.035 3.40272 -0.695124 0
M  V30 5873 C 551.989 3.91235 -1.73549 0
M  V30 5874 C 551.315 5.20921 -1.20604 0
M  V30 5875 C 552.615 4.17837 -3.13385 0
M  V30 5876 H 554.309 2.218 -2.01109 0
M  V30 5877 H 551.855 1.06581 -0.968326 0
M  V30 5878 H 553.808 4.1765 -0.560949 0
M  V30 5879 H 552.532 3.25462 0.272355 0
M  V30 5880 H 551.191 3.16025 -1.85807 0
M  V30 5881 H 550.839 5.02479 -0.228846 0
M  V30 5882 H 550.539 5.55987 -1.90136 0
M  V30 5883 H 552.063 6.00897 -1.08421 0
M  V30 5884 H 553.477 4.8588 -3.04292 0
M  V30 5885 H 551.874 4.64154 -3.80369 0
M  V30 5886 H 552.944 3.2419 -3.60595 0
M  V30 5887 N 554.287 1.06798 1.15896 0
M  V30 5888 C 555.527 0.797041 1.8822 0
M  V30 5889 C 555.891 -0.664549 1.80133 0
M  V30 5890 O 557.092 -1.0503 2.47431 0
M  V30 5891 C 555.363 1.28431 3.33527 0
M  V30 5892 S 556.922 1.14319 4.23647 0
M  V30 5893 H 553.74 0.288988 0.649621 0
M  V30 5894 H 556.342 1.36594 1.39865 0
M  V30 5895 H 555.046 2.34286 3.36954 0
M  V30 5896 H 554.577 0.710371 3.86933 0
M  V30 5897 H 556.592 0.0772467 4.9614 0
M  V30 5898 N 555.766 -1.3263 0.851289 0
M  V30 5899 C 556.991 -2.02097 0.466006 0
M  V30 5900 C 557.416 -1.63574 -0.928709 0
M  V30 5901 O 556.774 -0.834665 -1.60944 0
M  V30 5902 C 556.822 -3.55425 0.608737 0
M  V30 5903 O 555.926 -4.10827 -0.359878 0
M  V30 5904 H 555.267 -0.636911 0.187724 0
M  V30 5905 H 557.797 -1.69253 1.14955 0
M  V30 5906 H 557.807 -4.04986 0.495006 0
M  V30 5907 H 556.482 -3.82806 1.62581 0
M  V30 5908 H 555.059 -3.72349 -0.202666 0
M  V30 5909 N 557.244 -0.608902 -1.45362 0
M  V30 5910 C 558.472 -0.111013 -2.06602 0
M  V30 5911 C 558.887 1.20516 -1.45332 0
M  V30 5912 O 558.244 1.73437 -0.567978 0
M  V30 5913 C 558.295 0.033688 -3.61484 0
M  V30 5914 O 558.016 -1.23041 -4.20467 0
M  V30 5915 C 559.517 0.562882 -4.39712 0
M  V30 5916 H 556.737 -0.0694453 -0.667397 0
M  V30 5917 H 559.281 -0.837008 -1.86586 0
M  V30 5918 H 557.436 0.710016 -3.80838 0
M  V30 5919 H 557.85 -1.06094 -5.13658 0
M  V30 5920 H 559.324 0.613213 -5.48583 0
M  V30 5921 H 559.801 1.58543 -4.09586 0
M  V30 5922 H 560.407 -0.0794454 -4.25226 0
M  V30 5923 N 558.722 1.53707 -0.348139 0
M  V30 5924 C 559.971 2.0017 0.247992 0
M  V30 5925 C 560.284 1.23983 1.51286 0
M  V30 5926 O 561.49 1.60946 2.18652 0
M  V30 5927 C 559.946 3.56515 0.492459 0
M  V30 5928 C 559.554 4.41562 -0.756777 0
M  V30 5929 C 561.298 4.11381 1.0472 0
M  V30 5930 C 559.205 5.89426 -0.482856 0
M  V30 5931 H 558.135 0.747806 0.0964452 0
M  V30 5932 H 560.786 1.77532 -0.464179 0
M  V30 5933 H 559.168 3.75236 1.26545 0
M  V30 5934 H 560.342 4.34615 -1.53122 0
M  V30 5935 H 558.657 3.97711 -1.23348 0
M  V30 5936 H 561.254 5.19468 1.26717 0
M  V30 5937 H 561.597 3.64885 2.00411 0
M  V30 5938 H 562.13 3.96389 0.334801 0
M  V30 5939 H 558.869 6.40164 -1.40962 0
M  V30 5940 H 558.389 5.99264 0.253416 0
M  V30 5941 H 560.068 6.4692 -0.101816 0
M  V30 5942 N 560.2 0.0768682 1.57412 0
M  V30 5943 C 561.448 -0.589918 1.93299 0
M  V30 5944 C 561.769 -1.69842 0.958049 0
M  V30 5945 O 561.039 -1.95899 0.00703261 0
M  V30 5946 H 559.619 -0.220901 0.713591 0
M  V30 5947 H 562.281 0.135917 1.94425 0
M  V30 5948 H 561.377 -1.01195 2.95239 0
M  V30 5949 N 561.678 -1.56367 -0.196722 0
M  V30 5950 C 562.608 -1.97442 -1.24655 0
M  V30 5951 C 563.589 -0.846147 -1.47561 0
M  V30 5952 O 564.774 -1.11035 -1.59326 0
M  V30 5953 C 561.904 -2.31253 -2.59112 0
M  V30 5954 C 560.858 -3.46804 -2.50821 0
M  V30 5955 C 560.184 -3.66286 -3.89536 0
M  V30 5956 C 561.484 -4.8104 -2.03465 0
M  V30 5957 H 563.178 -2.85388 -0.905216 0
M  V30 5958 H 560.724 -1.37304 -0.434002 0
M  V30 5959 H 562.677 -2.58583 -3.32736 0
M  V30 5960 H 561.401 -1.40188 -2.94983 0
M  V30 5961 H 560.06 -3.19563 -1.79653 0
M  V30 5962 H 559.708 -2.72555 -4.22756 0
M  V30 5963 H 559.408 -4.4402 -3.84864 0
M  V30 5964 H 560.932 -3.9599 -4.64784 0
M  V30 5965 H 562.346 -5.07411 -2.66846 0
M  V30 5966 H 560.743 -5.62232 -2.09798 0
M  V30 5967 H 561.813 -4.74732 -0.98781 0
M  V30 5968 N 563.156 0.464375 -1.50603 0
M  V30 5969 C 564.104 1.58224 -1.70493 0
M  V30 5970 C 565.098 1.59492 -0.570836 0
M  V30 5971 O 566.304 1.63561 -0.751517 0
M  V30 5972 H 562.679 0.525161 -0.538247 0
M  V30 5973 H 564.65 1.38613 -2.64252 0
M  V30 5974 C 563.399 2.96113 -1.82243 0
M  V30 5975 H 562.722 2.95858 -2.68901 0
M  V30 5976 H 564.162 3.73769 -2.00182 0
M  V30 5977 C 562.621 3.31946 -0.575628 0
M  V30 5978 O 563.151 4.00708 0.282152 0
M  V30 5979 N 561.357 2.87436 -0.427665 0
M  V30 5980 H 560.904 2.31652 -1.12674 0
M  V30 5981 H 560.862 3.11776 0.405379 0
M  V30 5982 N 564.634 1.40294 0.718013 0
M  V30 5983 C 565.566 1.36281 1.84283 0
M  V30 5984 C 566.579 0.268621 1.60569 0
M  V30 5985 O 567.768 0.528798 1.70487 0
M  V30 5986 C 564.868 1.09741 3.2064 0
M  V30 5987 C 564.041 2.30767 3.71571 0
M  V30 5988 C 563.1 2.00424 4.86535 0
M  V30 5989 O 562.126 2.73268 4.99313 0
M  V30 5990 N 563.328 0.980724 5.72156 0
M  V30 5991 H 566.093 2.3322 1.88225 0
M  V30 5992 H 563.654 1.34616 0.899453 0
M  V30 5993 H 565.646 0.874322 3.95143 0
M  V30 5994 H 564.216 0.214771 3.11861 0
M  V30 5995 H 563.436 2.68921 2.88228 0
M  V30 5996 H 564.724 3.11455 4.02335 0
M  V30 5997 H 564.122 0.377375 5.6444 0
M  V30 5998 H 562.679 0.817538 6.46653 0
M  V30 5999 N 566.112 -0.949982 1.2575 0
M  V30 6000 C 567.523 -1.50989 1.09815 0
M  V30 6001 C 567.874 -1.93497 -0.324556 0
M  V30 6002 O 566.999 -1.79068 -1.21506 0
M  V30 6003 C 567.594 -2.74394 1.98729 0
M  V30 6004 C 566.153 -3.26682 1.86965 0
M  V30 6005 C 565.3 -1.99498 1.92603 0
M  V30 6006 H 568.251 -0.766387 1.38968 0
M  V30 6007 H 568.272 -3.48383 1.53001 0
M  V30 6008 H 567.784 -2.43425 3.02268 0
M  V30 6009 H 565.885 -3.62461 0.863279 0
M  V30 6010 H 565.998 -3.94383 2.72027 0
M  V30 6011 H 564.362 -2.15005 1.36546 0
M  V30 6012 H 565.145 -1.70871 2.97755 0
M  V30 6013 N 567.59 -1.07411 -1.15328 0
M  V30 6014 C 568.815 -0.818856 -1.90551 0
M  V30 6015 C 569.24 0.622194 -1.77512 0
M  V30 6016 O 568.598 1.43484 -1.10824 0
M  V30 6017 C 568.646 -1.23267 -3.38877 0
M  V30 6018 O 567.75 -0.378345 -4.10661 0
M  V30 6019 H 567.091 -0.29827 -0.593238 0
M  V30 6020 H 569.621 -1.43289 -1.46046 0
M  V30 6021 H 569.631 -1.20912 -3.89672 0
M  V30 6022 H 568.306 -2.28226 -3.47686 0
M  V30 6023 H 566.883 -0.464437 -3.69996 0
M  V30 6024 N 569.068 1.32177 -0.85831 0
M  V30 6025 C 570.296 2.01313 -0.477582 0
M  V30 6026 C 570.711 1.6449 0.926736 0
M  V30 6027 O 570.068 0.868096 1.60531 0
M  V30 6028 C 570.119 3.56293 -0.611337 0
M  V30 6029 O 569.84 3.91794 -1.96034 0
M  V30 6030 C 571.341 4.42702 -0.230093 0
M  V30 6031 H 568.561 0.644323 -0.187322 0
M  V30 6032 H 571.105 1.68674 -1.15626 0
M  V30 6033 H 569.26 3.87395 0.0196494 0
M  V30 6034 H 569.674 4.86513 -1.95973 0
M  V30 6035 H 571.148 5.50727 -0.374674 0
M  V30 6036 H 571.625 4.3129 0.829779 0
M  V30 6037 H 572.231 4.16997 -0.836302 0
M  V30 6038 N 570.547 0.616602 1.45037 0
M  V30 6039 C 571.958 0.199359 1.85633 0
M  V30 6040 C 572.309 -1.24588 1.51566 0
M  V30 6041 O 571.434 -1.94594 0.94668 0
M  V30 6042 C 572.029 0.355033 3.36935 0
M  V30 6043 C 570.588 -0.00758748 3.76399 0
M  V30 6044 C 569.735 0.675256 2.68953 0
M  V30 6045 H 572.686 0.822708 1.3571 0
M  V30 6046 H 572.707 -0.410201 3.78282 0
M  V30 6047 H 572.219 1.40699 3.61698 0
M  V30 6048 H 570.32 -1.05837 3.57252 0
M  V30 6049 H 570.433 0.392346 4.77491 0
M  V30 6050 H 568.797 0.111992 2.54454 0
M  V30 6051 H 569.58 1.72952 2.96551 0
M  V30 6052 N 572.025 -1.5352 0.356285 0
M  V30 6053 C 573.253 -2.05534 -0.237328 0
M  V30 6054 C 573.668 -1.23043 -1.43199 0
M  V30 6055 O 573.025 -0.268821 -1.80509 0
M  V30 6056 C 573.076 -3.55791 -0.639933 0
M  V30 6057 O 572.797 -4.35154 0.507233 0
M  V30 6058 C 574.298 -4.24027 -1.29292 0
M  V30 6059 H 571.518 -0.669585 -0.0435572 0
M  V30 6060 H 574.062 -1.97988 0.511963 0
M  V30 6061 H 572.217 -3.63518 -1.33915 0
M  V30 6062 H 572.631 -5.24178 0.18375 0
M  V30 6063 H 574.105 -5.30509 -1.52527 0
M  V30 6064 H 574.582 -3.77166 -2.25039 0
M  V30 6065 H 575.188 -4.20527 -0.63539 0
M  V30 6066 N 573.503 -0.0852151 -1.57369 0
M  V30 6067 C 574.453 0.88767 -2.10011 0
M  V30 6068 C 575.437 1.25021 -1.01285 0
M  V30 6069 O 576.629 1.22694 -1.27574 0
M  V30 6070 C 573.758 2.15037 -2.67608 0
M  V30 6071 C 572.844 1.81371 -3.83361 0
M  V30 6072 N 573.235 1.18216 -4.91791 0
M  V30 6073 C 571.533 2.11041 -3.92909 0
M  V30 6074 C 572.234 1.02941 -5.72519 0
M  V30 6075 N 571.21 1.54351 -5.21226 0
M  V30 6076 H 575.012 0.395279 -2.9123 0
M  V30 6077 H 572.526 0.11829 -1.61969 0
M  V30 6078 H 574.523 2.85667 -3.03644 0
M  V30 6079 H 573.183 2.64851 -1.8784 0
M  V30 6080 H 574.194 0.850168 -5.10874 0
M  V30 6081 H 570.871 2.63138 -3.24136 0
M  V30 6082 H 572.261 0.536298 -6.69756 0
M  V30 6083 N 574.981 1.5647 0.188427 0
M  V30 6084 C 575.944 1.9421 1.21718 0
M  V30 6085 C 576.944 0.823901 1.38089 0
M  V30 6086 O 578.134 1.09122 1.35787 0
M  V30 6087 C 575.266 2.22197 2.58537 0
M  V30 6088 H 576.459 2.86252 0.894418 0
M  V30 6089 H 574.012 1.50263 0.430211 0
M  V30 6090 H 574.747 1.32814 2.95856 0
M  V30 6091 H 574.532 3.03688 2.48025 0
M  V30 6092 H 576.022 2.52376 3.3271 0
M  V30 6093 N 576.459 -0.456382 1.50847 0
M  V30 6094 C 577.422 -1.53493 1.70213 0
M  V30 6095 C 578.422 -1.50264 0.572481 0
M  V30 6096 O 579.612 -1.52623 0.839751 0
M  V30 6097 C 576.744 -2.93091 1.741 0
M  V30 6098 H 577.937 -1.37633 2.66453 0
M  V30 6099 H 575.49 -0.683776 1.4055 0
M  V30 6100 H 576.225 -3.14378 0.796063 0
M  V30 6101 H 576.01 -2.9684 2.5618 0
M  V30 6102 H 577.5 -3.71368 1.90987 0
M  V30 6103 N 577.937 -1.40673 -0.710563 0
M  V30 6104 C 579.185 -1.38947 -1.46759 0
M  V30 6105 C 579.506 0.00572879 -1.94999 0
M  V30 6106 O 578.776 0.961358 -1.70689 0
M  V30 6107 H 577.356 -0.5114 -0.544499 0
M  V30 6108 H 580.018 -1.75773 -0.842012 0
M  V30 6109 H 579.114 -2.06745 -2.33801 0
M  V30 6110 N 579.415 0.9433 -1.26252 0
M  V30 6111 C 580.661 1.69175 -1.11837 0
M  V30 6112 C 580.994 1.91238 0.337891 0
M  V30 6113 O 580.269 1.49152 1.24836 0
M  V30 6114 C 580.552 3.06783 -1.88563 0
M  V30 6115 C 580.405 2.9206 -3.42083 0
M  V30 6116 C 581.724 4.06865 -1.67776 0
M  V30 6117 H 578.843 0.61399 -0.407658 0
M  V30 6118 H 581.485 1.09572 -1.55222 0
M  V30 6119 H 579.635 3.57663 -1.51689 0
M  V30 6120 H 581.307 2.48419 -3.88698 0
M  V30 6121 H 579.55 2.27731 -3.69217 0
M  V30 6122 H 580.221 3.89651 -3.90994 0
M  V30 6123 H 582.697 3.64939 -1.99897 0
M  V30 6124 H 581.573 5.01168 -2.23879 0
M  V30 6125 H 581.834 4.37705 -0.621816 0
M  V30 6126 O 580.932 1.20358 1.07685 0
M  V30 6127 H 581.623 0.957266 1.68393 0
M  V30 END ATOM
M  V30 BEGIN BOND
M  V30 END BOND
M  V30 END CTAB
M  END
$$$$
