drugbank_target|P0ABP8 Purine nucleoside phosphorylase DeoD-type (DB02066; DB02113; DB02896; DB02934; DB02947; DB03172; DB03528; DB03735; DB03952; DB03986; DB04198; DB04335; DB04441)
 OpenBabel12092120033D

  0  0  0     0  0            999 V3000
M  V30 BEGIN CTAB
M  V30 COUNTS 3632 3661 0 0 0
M  V30 BEGIN ATOM
M  V30 1 H -0.908 1.98254 -0.117106 0
M  V30 2 N 0 1.576 0 0
M  V30 3 C 0.933 2.03868 1.02534 0
M  V30 4 C 1.911 0.928543 1.3348 0
M  V30 5 O 3.095 1.19667 1.45644 0
M  V30 6 C 0.222 2.43627 2.35294 0
M  V30 7 C -0.732 3.65373 2.2001 0
M  V30 8 S 0.101 5.13292 1.52614 0
M  V30 9 C 1.257 5.56322 2.86805 0
M  V30 10 H 1.49 2.90518 0.631377 0
M  V30 11 H -0.977 1.52953 0.210867 0
M  V30 12 H 0.981 2.67203 3.11629 0
M  V30 13 H -0.358 1.57376 2.7183 0
M  V30 14 H -1.165 3.90944 3.18086 0
M  V30 15 H -1.563 3.418 1.51819 0
M  V30 16 H 0.729 5.58782 3.83104 0
M  V30 17 H 1.672 6.56266 2.65933 0
M  V30 18 H 2.08 4.83886 2.90714 0
M  V30 19 N 1.4781 -0.272755 1.55222 0
M  V30 20 C 2.4411 -1.32041 1.87344 0
M  V30 21 C 3.4411 -1.42342 0.74803 0
M  V30 22 O 4.6311 -1.41488 1.0162 0
M  V30 23 C 1.7631 -2.70173 2.07893 0
M  V30 24 H 2.9561 -1.04789 2.80997 0
M  V30 25 H 0.5091 -0.51083 1.47717 0
M  V30 26 H 1.2441 -3.02605 1.16622 0
M  V30 27 H 1.0291 -2.64082 2.89833 0
M  V30 28 H 2.5191 -3.45869 2.34017 0
M  V30 29 N 2.9562 -1.48159 -0.537278 0
M  V30 30 C 4.1842 -1.59454 -1.31841 0
M  V30 31 C 4.5992 -0.252065 -1.8711 0
M  V30 32 O 3.9562 0.757621 -1.66031 0
M  V30 33 C 4.0072 -2.63546 -2.47439 0
M  V30 34 O 3.7282 -3.92583 -1.94449 0
M  V30 35 C 5.2292 -2.85212 -3.39366 0
M  V30 36 H 2.4492 -0.53785 -0.401196 0
M  V30 37 H 4.9932 -1.93932 -0.648891 0
M  V30 38 H 3.1482 -2.31946 -3.1029 0
M  V30 39 H 3.5622 -4.49629 -2.70063 0
M  V30 40 H 5.0362 -3.61863 -4.16844 0
M  V30 41 H 5.5132 -1.93765 -3.94147 0
M  V30 42 H 6.1192 -3.18086 -2.82314 0
M  V30 43 N 4.4343 0.785586 -1.36625 0
M  V30 44 C 5.8453 1.36101 -1.27803 0
M  V30 45 C 6.1963 1.96035 0.0804875 0
M  V30 46 O 5.3213 1.92834 0.982042 0
M  V30 47 C 5.9163 2.47442 -2.31426 0
M  V30 48 C 4.4753 3.00789 -2.26281 0
M  V30 49 C 3.6223 1.73896 -2.15999 0
M  V30 50 H 6.5733 0.586928 -1.47448 0
M  V30 51 H 6.5943 3.2656 -1.95291 0
M  V30 52 H 6.1063 2.03791 -3.30289 0
M  V30 53 H 4.2073 3.48851 -1.30896 0
M  V30 54 H 4.3203 3.57343 -3.19128 0
M  V30 55 H 2.6843 1.9628 -1.62316 0
M  V30 56 H 3.4673 1.32368 -3.16755 0
M  V30 57 N 5.9124 1.20967 1.01018 0
M  V30 58 C 6.8624 0.93182 2.08089 0
M  V30 59 C 7.8464 -0.110898 1.60517 0
M  V30 60 O 9.0384 0.0973392 1.76732 0
M  V30 61 C 6.1674 0.492719 3.39746 0
M  V30 62 C 5.2534 1.56922 3.94 0
M  V30 63 N 5.6444 2.79312 4.21686 0
M  V30 64 C 3.9424 1.43688 4.2222 0
M  V30 65 C 4.6434 3.48797 4.65527 0
M  V30 66 N 3.6194 2.76224 4.68189 0
M  V30 67 H 7.4214 1.86175 2.27412 0
M  V30 68 H 4.9354 1.10463 1.19045 0
M  V30 69 H 6.9324 0.275044 4.15992 0
M  V30 70 H 5.5924 -0.430509 3.21833 0
M  V30 71 H 6.6034 3.15903 4.10397 0
M  V30 72 H 3.2804 0.578548 4.13472 0
M  V30 73 H 4.6704 4.53561 4.95714 0
M  V30 74 N 7.3905 -1.2043 1.01659 0
M  V30 75 C 8.6395 -1.89118 0.701237 0
M  V30 76 C 8.9525 -1.79705 -0.772358 0
M  V30 77 O 10.1585 -2.43528 -1.20026 0
M  V30 78 C 8.6145 -3.39168 1.20388 0
M  V30 79 C 8.2225 -3.57166 2.70438 0
M  V30 80 C 9.9665 -4.1341 0.963953 0
M  V30 81 C 7.8735 -5.01042 3.14183 0
M  V30 82 H 6.8035 -0.708267 0.2586 0
M  V30 83 H 9.4545 -1.36239 1.22927 0
M  V30 84 H 7.8365 -3.91369 0.603824 0
M  V30 85 H 9.0105 -3.15351 3.35992 0
M  V30 86 H 7.3255 -2.96294 2.92572 0
M  V30 87 H 9.9225 -5.19491 1.26621 0
M  V30 88 H 10.2655 -4.16181 -0.099578 0
M  V30 89 H 10.7985 -3.67309 1.52738 0
M  V30 90 H 7.5375 -5.03426 4.19812 0
M  V30 91 H 7.0575 -5.43668 2.53348 0
M  V30 92 H 8.7365 -5.69623 3.0682 0
M  V30 93 N 8.8686 -0.792821 -1.36206 0
M  V30 94 C 9.8166 -0.181555 -2.3189 0
M  V30 95 C 10.8106 0.661025 -1.55971 0
M  V30 96 O 12.0166 0.555728 -1.71206 0
M  V30 97 H 8.3916 -0.0399382 -0.750939 0
M  V30 98 H 10.3626 -1.00394 -2.81005 0
M  V30 99 C 9.1116 0.666444 -3.41253 0
M  V30 100 H 8.4346 0.0274489 -3.99791 0
M  V30 101 H 9.8746 1.06076 -4.10517 0
M  V30 102 C 8.3336 1.82614 -2.83114 0
M  V30 103 O 8.8636 2.9229 -2.75553 0
M  V30 104 N 7.0696 1.63333 -2.40356 0
M  V30 105 H 6.6166 0.741217 -2.46706 0
M  V30 106 H 6.5746 2.41087 -2.01803 0
M  V30 107 N 10.3467 1.47872 -0.545128 0
M  V30 108 C 11.3097 2.28337 0.198717 0
M  V30 109 C 12.3097 1.36255 0.853888 0
M  V30 110 O 13.4997 1.59003 0.711606 0
M  V30 111 C 10.6317 3.15585 1.28915 0
M  V30 112 H 11.8247 2.95567 -0.507941 0
M  V30 113 H 9.3777 1.53362 -0.301616 0
M  V30 114 H 10.1127 2.53019 2.02859 0
M  V30 115 H 9.8977 3.83337 0.824309 0
M  V30 116 H 11.3877 3.76243 1.81194 0
M  V30 117 N 11.8248 0.280983 1.55075 0
M  V30 118 C 12.7348 -0.61388 2.26426 0
M  V30 119 C 13.7508 -1.16521 1.29224 0
M  V30 120 O 14.9268 -1.19426 1.62171 0
M  V30 121 C 11.9918 -1.7788 2.9759 0
M  V30 122 C 11.0528 -1.26355 4.10284 0
M  V30 123 C 10.2858 -2.37295 4.78045 0
M  V30 124 O 10.5088 -3.56777 4.45047 0
M  V30 125 O 9.4428 -2.05119 5.65871 0
M  V30 126 H 13.2688 -0.0356932 3.03679 0
M  V30 127 H 10.8538 0.0481686 1.49322 0
M  V30 128 H 12.7358 -2.45791 3.42293 0
M  V30 129 H 11.4108 -2.34397 2.23249 0
M  V30 130 H 10.3178 -0.550735 3.70024 0
M  V30 131 H 11.6508 -0.744065 4.86543 0
M  V30 132 N 13.3029 -1.57598 0.00835791 0
M  V30 133 C 14.2359 -2.04409 -1.01451 0
M  V30 134 C 15.2139 -0.935609 -1.32985 0
M  V30 135 O 16.3979 -1.20437 -1.45007 0
M  V30 136 C 13.5249 -2.44872 -2.33999 0
M  V30 137 C 12.5709 -3.66535 -2.18069 0
M  V30 138 S 13.4039 -5.14095 -1.4989 0
M  V30 139 C 14.5599 -5.57835 -2.8385 0
M  V30 140 H 14.7929 -2.90849 -0.615961 0
M  V30 141 H 12.3259 -1.53063 -0.202752 0
M  V30 142 H 14.2839 -2.68852 -3.10208 0
M  V30 143 H 12.9449 -1.58815 -2.70992 0
M  V30 144 H 12.1379 -3.92626 -3.16008 0
M  V30 145 H 11.7399 -3.426 -1.50004 0
M  V30 146 H 14.0319 -5.60806 -3.80136 0
M  V30 147 H 14.9749 -6.57667 -2.62449 0
M  V30 148 H 15.3829 -4.85421 -2.88144 0
M  V30 149 N 14.781 0.264519 -1.55364 0
M  V30 150 C 16.029 0.993021 -1.76021 0
M  V30 151 C 16.35 1.86511 -0.569099 0
M  V30 152 O 15.62 1.91438 0.415735 0
M  V30 153 H 14.2 0.369639 -0.649135 0
M  V30 154 H 16.862 0.286707 -1.9278 0
M  V30 155 H 15.958 1.62502 -2.66457 0
M  V30 156 N 16.2591 1.48442 0.529413 0
M  V30 157 C 17.5361 1.46978 1.29062 0
M  V30 158 C 17.9161 0.181769 2.10316 0
M  V30 159 O 17.2641 -0.836481 2.12639 0
M  V30 160 C 17.4741 2.7321 2.17157 0
M  V30 161 C 18.8221 3.21562 2.77278 0
M  V30 162 O 19.8461 2.74131 2.27444 0
M  V30 163 O 18.7051 4.04094 3.67927 0
M  V30 164 H 15.7991 0.587003 0.582543 0
M  V30 165 H 18.3451 1.60676 0.546021 0
M  V30 166 H 17.1171 3.58465 1.56903 0
M  V30 167 H 16.7401 2.62235 2.98862 0
M  V30 168 N 17.7372 -0.778329 1.37039 0
M  V30 169 C 18.9842 -1.53665 1.31884 0
M  V30 170 C 19.3122 -1.9425 -0.0986303 0
M  V30 171 O 18.5672 -1.63832 -1.07041 0
M  V30 172 C 18.8662 -2.81845 2.19768 0
M  V30 173 C 18.5322 -2.60345 3.68146 0
M  V30 174 C 17.1942 -2.5419 4.08584 0
M  V30 175 C 19.5462 -2.40923 4.62175 0
M  V30 176 C 16.8742 -2.26594 5.41177 0
M  V30 177 C 19.2262 -2.14852 5.94997 0
M  V30 178 C 17.8902 -2.07137 6.34547 0
M  V30 179 H 17.1602 -0.562299 0.482598 0
M  V30 180 H 19.8072 -0.897069 1.69189 0
M  V30 181 H 18.1122 -3.50328 1.75436 0
M  V30 182 H 19.8092 -3.39692 2.13097 0
M  V30 183 H 16.3992 -2.65996 3.36072 0
M  V30 184 H 20.5832 -2.44673 4.31797 0
M  V30 185 H 15.8392 -2.19111 5.70789 0
M  V30 186 H 20.0132 -1.98822 6.67415 0
M  V30 187 H 17.6402 -1.85518 7.37216 0
M  V30 188 N 19.2153 -1.21501 -1.00376 0
M  V30 189 C 20.1783 -0.976927 -2.07337 0
M  V30 190 C 21.1783 0.0525322 -1.60714 0
M  V30 191 O 22.3683 -0.184869 -1.73216 0
M  V30 192 C 19.5003 -0.473423 -3.37597 0
M  V30 193 H 20.6933 -1.92587 -2.29892 0
M  V30 194 H 18.2463 -1.03217 -1.17371 0
M  V30 195 H 18.9813 0.480379 -3.20722 0
M  V30 196 H 18.7663 -1.216 -3.72768 0
M  V30 197 H 20.2563 -0.32675 -4.1632 0
M  V30 198 N 20.6934 1.19889 -1.02296 0
M  V30 199 C 21.9704 1.85148 -0.630832 0
M  V30 200 C 22.3504 1.91385 0.890782 0
M  V30 201 O 21.6984 1.42642 1.78509 0
M  V30 202 C 21.9084 3.24442 -1.28602 0
M  V30 203 C 23.2564 4.00663 -1.4055 0
M  V30 204 O 24.2804 3.33818 -1.24273 0
M  V30 205 O 23.1394 5.20387 -1.66913 0
M  V30 206 H 20.2334 0.797613 -0.218499 0
M  V30 207 H 22.7794 1.27427 -1.12074 0
M  V30 208 H 21.5514 3.14704 -2.32545 0
M  V30 209 H 21.1744 3.89802 -0.7836 0
M  V30 210 N 22.1715 0.800033 1.35784 0
M  V30 211 C 23.4175 0.377901 1.99248 0
M  V30 212 C 23.7505 -1.05052 1.63333 0
M  V30 213 O 23.0255 -1.72768 0.893385 0
M  V30 214 C 23.3085 0.553922 3.55814 0
M  V30 215 C 23.1615 2.0268 4.01548 0
M  V30 216 C 24.4805 -0.0244802 4.40093 0
M  V30 217 H 21.5995 0.138782 0.723815 0
M  V30 218 H 24.2415 1.00835 1.61035 0
M  V30 219 H 22.3915 0.0172398 3.88496 0
M  V30 220 H 24.0635 2.62536 3.79305 0
M  V30 221 H 22.3065 2.5256 3.52698 0
M  V30 222 H 22.9775 2.10087 5.10458 0
M  V30 223 H 25.4535 0.433775 4.13833 0
M  V30 224 H 24.3295 0.128637 5.48749 0
M  V30 225 H 24.5905 -1.11758 4.27741 0
M  V30 226 N 23.6496 -1.47581 0.552962 0
M  V30 227 C 24.8956 -2.02782 0.0273648 0
M  V30 228 C 25.2286 -1.42687 -1.31734 0
M  V30 229 O 24.5036 -0.580897 -1.85623 0
M  V30 230 C 24.7866 -3.60031 -0.0702371 0
M  V30 231 C 24.6396 -4.30566 1.30126 0
M  V30 232 C 25.9586 -4.33028 -0.785771 0
M  V30 233 H 23.0776 -0.736912 0.0114185 0
M  V30 234 H 25.7196 -1.76056 0.714432 0
M  V30 235 H 23.8696 -3.82932 -0.655382 0
M  V30 236 H 25.5416 -4.19018 1.92929 0
M  V30 237 H 23.7846 -3.91086 1.87709 0
M  V30 238 H 24.4556 -5.39114 1.18573 0
M  V30 239 H 26.9316 -4.15095 -0.288982 0
M  V30 240 H 25.8076 -5.42695 -0.823013 0
M  V30 241 H 26.0686 -4.01945 -1.841 0
M  V30 242 N 25.1277 -0.289203 -1.54924 0
M  V30 243 C 26.0577 0.58549 -2.2604 0
M  V30 244 C 27.0387 1.14753 -1.25562 0
M  V30 245 O 28.2237 1.17906 -1.54311 0
M  V30 246 C 25.3537 1.76305 -2.99222 0
M  V30 247 C 24.3077 1.33191 -4.06748 0
M  V30 248 C 23.6337 2.5937 -4.6758 0
M  V30 249 C 24.9337 0.471775 -5.20165 0
M  V30 250 H 26.6277 -0.00763532 -2.99399 0
M  V30 251 H 24.1737 -0.00511229 -1.43999 0
M  V30 252 H 26.1267 2.38097 -3.47689 0
M  V30 253 H 24.8507 2.38223 -2.23422 0
M  V30 254 H 23.5097 0.737121 -3.59113 0
M  V30 255 H 23.1577 3.19576 -3.88433 0
M  V30 256 H 22.8577 2.31228 -5.40192 0
M  V30 257 H 24.3817 3.21985 -5.18804 0
M  V30 258 H 25.7957 0.995056 -5.64599 0
M  V30 259 H 24.1927 0.284639 -5.99425 0
M  V30 260 H 25.2627 -0.506041 -4.82252 0
M  V30 261 N 26.6058 1.57591 -0.0167156 0
M  V30 262 C 27.5388 2.04944 1.00366 0
M  V30 263 C 28.5168 0.942648 1.32487 0
M  V30 264 O 29.7008 1.21205 1.44367 0
M  V30 265 C 26.8278 2.46109 2.32697 0
M  V30 266 C 25.8738 3.67686 2.16123 0
M  V30 267 S 26.7068 5.14882 1.47161 0
M  V30 268 C 27.8628 5.59332 2.80888 0
M  V30 269 H 28.0958 2.91172 0.600528 0
M  V30 270 H 25.6288 1.53168 0.194632 0
M  V30 271 H 27.5868 2.70493 3.08778 0
M  V30 272 H 26.2478 1.6025 2.70146 0
M  V30 273 H 25.4408 3.94296 3.13922 0
M  V30 274 H 25.0428 3.43391 1.48185 0
M  V30 275 H 27.3348 5.62814 3.77156 0
M  V30 276 H 28.2778 6.5905 2.58958 0
M  V30 277 H 28.6858 4.86942 2.85565 0
M  V30 278 N 28.0839 -0.256276 1.55502 0
M  V30 279 C 29.4949 -0.826068 1.67431 0
M  V30 280 C 29.8459 -1.86396 0.612446 0
M  V30 281 O 28.9709 -2.15031 -0.243025 0
M  V30 282 C 29.5659 -1.50512 3.03532 0
M  V30 283 C 28.1249 -2.02273 3.17431 0
M  V30 284 C 27.2719 -0.870548 2.63281 0
M  V30 285 H 30.2229 -0.0322728 1.58667 0
M  V30 286 H 30.2439 -2.37279 2.97454 0
M  V30 287 H 29.7559 -0.749484 3.80794 0
M  V30 288 H 27.8569 -2.80746 2.44974 0
M  V30 289 H 27.9699 -2.22655 4.24219 0
M  V30 290 H 26.3339 -1.26851 2.20864 0
M  V30 291 H 27.1169 -0.128149 3.43061 0
M  V30 292 N 29.562 -1.4872 -0.521534 0
M  V30 293 C 30.81 -1.56857 -1.27437 0
M  V30 294 C 31.131 -0.247982 -1.93417 0
M  V30 295 O 30.401 0.731151 -1.81744 0
M  V30 296 H 28.981 -0.577885 -0.473347 0
M  V30 297 H 31.643 -1.85233 -0.606205 0
M  V30 298 H 30.739 -2.35402 -2.0492 0
M  V30 299 N 31.0401 0.771051 -1.3745 0
M  V30 300 C 32.3171 1.519 -1.23231 0
M  V30 301 C 32.6971 2.10383 0.173809 0
M  V30 302 O 32.0451 1.95583 1.18151 0
M  V30 303 C 32.2551 2.59933 -2.32886 0
M  V30 304 C 33.6031 3.27316 -2.70461 0
M  V30 305 O 34.6271 2.70228 -2.32068 0
M  V30 306 O 33.4861 4.30531 -3.36608 0
M  V30 307 H 30.5801 0.672803 -0.480901 0
M  V30 308 H 33.1261 0.807957 -1.49232 0
M  V30 309 H 31.8981 2.14842 -3.27045 0
M  V30 310 H 31.5211 3.38637 -2.08353 0
M  V30 311 N 32.5182 1.22032 0.997298 0
M  V30 312 C 33.9292 1.0397 1.55071 0
M  V30 313 C 34.2802 -0.398192 1.92117 0
M  V30 314 O 33.4052 -1.28254 1.74298 0
M  V30 315 C 34.0002 1.88109 2.81781 0
M  V30 316 C 32.5592 1.74357 3.33581 0
M  V30 317 C 31.7062 1.84846 2.06706 0
M  V30 318 H 34.6572 1.35941 0.818883 0
M  V30 319 H 34.6782 1.39589 3.53971 0
M  V30 320 H 34.1902 2.92754 2.54787 0
M  V30 321 H 32.2912 0.72427 3.65493 0
M  V30 322 H 32.4042 2.56772 4.04481 0
M  V30 323 H 30.7682 1.28238 2.20062 0
M  V30 324 H 31.5512 2.91014 1.82114 0
M  V30 325 N 33.9963 -1.19345 1.0293 0
M  V30 326 C 34.9263 -2.2481 0.631105 0
M  V30 327 C 35.9073 -1.66245 -0.360104 0
M  V30 328 O 37.0923 -1.92677 -0.242726 0
M  V30 329 C 34.2223 -3.47295 -0.0184607 0
M  V30 330 C 33.1763 -4.18536 0.895073 0
M  V30 331 C 32.5023 -5.34586 0.110592 0
M  V30 332 C 33.8023 -4.73287 2.209 0
M  V30 333 H 35.4963 -2.58372 1.51275 0
M  V30 334 H 33.0423 -1.24194 0.728818 0
M  V30 335 H 34.9953 -4.20268 -0.308675 0
M  V30 336 H 33.7193 -3.12933 -0.934907 0
M  V30 337 H 32.3783 -3.47446 1.16949 0
M  V30 338 H 32.0263 -4.96469 -0.807902 0
M  V30 339 H 31.7263 -5.83183 0.719087 0
M  V30 340 H 33.2503 -6.10355 -0.172871 0
M  V30 341 H 34.6643 -5.38013 1.98028 0
M  V30 342 H 33.0613 -5.32373 2.76946 0
M  V30 343 H 34.1313 -3.91331 2.86336 0
M  V30 344 N 35.4744 -0.807222 -1.35358 0
M  V30 345 C 36.8904 -0.491038 -1.51858 0
M  V30 346 C 37.0904 0.987648 -1.75635 0
M  V30 347 O 36.1464 1.77265 -1.79815 0
M  V30 348 C 37.4594 -1.33695 -2.69344 0
M  V30 349 C 39.0074 -1.33246 -2.83222 0
M  V30 350 C 39.4824 -2.1625 -4.03733 0
M  V30 351 N 40.9734 -2.1379 -4.10911 0
M  V30 352 C 41.7084 -2.74772 -5.03277 0
M  V30 353 N 41.2044 -3.44684 -6.0097 0
M  V30 354 N 42.9974 -2.6441 -4.96028 0
M  V30 355 H 35.1484 -1.76485 -1.18181 0
M  V30 356 H 37.4114 -0.751199 -0.578276 0
M  V30 357 H 37.1174 -2.38634 -2.58354 0
M  V30 358 H 36.9914 -0.990618 -3.6396 0
M  V30 359 H 39.3784 -0.290911 -2.93663 0
M  V30 360 H 39.4594 -1.71866 -1.89461 0
M  V30 361 H 39.1034 -3.20445 -3.94052 0
M  V30 362 H 39.0334 -1.74989 -4.96675 0
M  V30 363 H 41.5244 -1.62923 -3.40976 0
M  V30 364 H 41.8374 -3.88501 -6.68047 0
M  V30 365 H 40.1824 -3.48788 -6.01142 0
M  V30 366 H 43.3734 -2.0938 -4.18662 0
M  V30 367 H 43.5464 -3.12225 -5.6782 0
M  V30 368 N 36.9525 1.47285 -0.560781 0
M  V30 369 C 37.9155 2.28535 0.174488 0
M  V30 370 C 38.9155 1.37153 0.839388 0
M  V30 371 O 40.1055 1.59748 0.694702 0
M  V30 372 C 37.2375 3.16934 1.25561 0
M  V30 373 H 38.4305 2.95012 -0.539262 0
M  V30 374 H 35.9835 1.53034 -0.317865 0
M  V30 375 H 36.7185 2.55157 2.00164 0
M  V30 376 H 36.5035 3.8419 0.783604 0
M  V30 377 H 37.9935 3.78143 1.77193 0
M  V30 378 N 38.4306 0.297415 1.54768 0
M  V30 379 C 39.3776 -0.580276 2.23386 0
M  V30 380 C 40.3476 -1.13238 1.21517 0
M  V30 381 O 41.5326 -1.17757 1.50126 0
M  V30 382 C 38.6726 -1.74801 2.97555 0
M  V30 383 C 37.7856 -1.22764 4.1419 0
M  V30 384 C 36.9206 -2.35895 4.75949 0
M  V30 385 C 35.9596 -1.80974 5.84735 0
M  V30 386 N 35.0966 -2.87664 6.40464 0
M  V30 387 H 39.9366 0.0114833 2.97998 0
M  V30 388 H 37.4736 0.0174361 1.4709 0
M  V30 389 H 39.4316 -2.43475 3.38786 0
M  V30 390 H 38.0616 -2.31145 2.25326 0
M  V30 391 H 37.1136 -0.433271 3.77924 0
M  V30 392 H 38.4256 -0.785551 4.92575 0
M  V30 393 H 37.5796 -3.12523 5.20014 0
M  V30 394 H 36.3186 -2.83429 3.96887 0
M  V30 395 H 35.3236 -1.02834 5.40097 0
M  V30 396 H 36.5486 -1.34348 6.65678 0
M  V30 397 H 34.4946 -3.34538 5.64287 0
M  V30 398 H 34.4116 -2.4794 7.14186 0
M  V30 399 H 35.6796 -3.642 6.89187 0
M  V30 400 N 39.9087 -1.5758 0.0250728 0
M  V30 401 C 41.1387 -1.95646 -0.663783 0
M  V30 402 C 41.5467 -0.899935 -1.66427 0
M  V30 403 O 40.8897 0.127191 -1.83259 0
M  V30 404 C 40.9517 -3.29835 -1.43 0
M  V30 405 C 40.6157 -4.53197 -0.588305 0
M  V30 406 C 41.6127 -5.19726 0.13469 0
M  V30 407 C 39.2977 -4.99529 -0.526897 0
M  V30 408 C 41.2917 -6.30902 0.90781 0
M  V30 409 C 38.9787 -6.10589 0.24993 0
M  V30 410 C 39.9767 -6.76134 0.965994 0
M  V30 411 O 39.6647 -7.85062 1.7301 0
M  V30 412 H 39.3967 -0.649282 -0.188174 0
M  V30 413 H 41.9507 -2.05245 0.0799006 0
M  V30 414 H 40.1807 -3.16716 -2.21873 0
M  V30 415 H 41.8697 -3.52833 -2.00658 0
M  V30 416 H 42.6357 -4.84904 0.0965562 0
M  V30 417 H 38.5147 -4.48319 -1.07381 0
M  V30 418 H 42.0587 -6.81995 1.46724 0
M  V30 419 H 37.9557 -6.44849 0.289795 0
M  V30 420 H 38.7237 -8.01708 1.64944 0
M  V30 421 N 41.3868 0.248026 -1.55636 0
M  V30 422 C 42.6358 0.974134 -1.76617 0
M  V30 423 C 42.9488 1.86528 -0.588796 0
M  V30 424 O 44.1548 2.62805 -0.681594 0
M  V30 425 C 42.6108 1.78213 -3.12679 0
M  V30 426 C 42.2188 0.93843 -4.38061 0
M  V30 427 C 43.9628 2.50104 -3.42999 0
M  V30 428 C 41.8698 1.74225 -5.65155 0
M  V30 429 H 40.7998 0.36745 -0.658405 0
M  V30 430 H 43.4508 0.22884 -1.82067 0
M  V30 431 H 41.8328 2.56933 -3.01333 0
M  V30 432 H 43.0068 0.193635 -4.60393 0
M  V30 433 H 41.3218 0.332905 -4.15067 0
M  V30 434 H 43.9188 3.10694 -4.3517 0
M  V30 435 H 44.2618 3.21662 -2.64271 0
M  V30 436 H 44.7948 1.78395 -3.55556 0
M  V30 437 H 41.5338 1.07043 -6.46701 0
M  V30 438 H 41.0538 2.46235 -5.46926 0
M  V30 439 H 42.7328 2.30967 -6.0437 0
M  V30 440 N 42.8649 1.48995 0.513639 0
M  V30 441 C 43.8279 1.64229 1.59879 0
M  V30 442 C 44.8279 0.514696 1.5234 0
M  V30 443 O 46.0179 0.78087 1.55718 0
M  V30 444 C 43.1499 1.62783 2.99524 0
M  V30 445 H 44.3429 2.61004 1.47705 0
M  V30 446 H 41.8959 1.37837 0.736936 0
M  V30 447 H 42.6309 0.675461 3.17188 0
M  V30 448 H 42.4159 2.4466 3.06404 0
M  V30 449 H 43.9059 1.76669 3.78388 0
M  V30 450 N 44.343 -0.763751 1.37857 0
M  V30 451 C 45.253 -1.90817 1.36478 0
M  V30 452 C 46.269 -1.71997 0.263248 0
M  V30 453 O 47.445 -1.95095 0.499979 0
M  V30 454 C 44.51 -3.2605 1.17864 0
M  V30 455 C 43.571 -3.57467 2.3773 0
M  V30 456 C 42.804 -4.86249 2.19995 0
M  V30 457 O 43.027 -5.57884 1.18836 0
M  V30 458 O 41.961 -5.16911 3.08361 0
M  V30 459 H 45.787 -1.94933 2.32884 0
M  V30 460 H 43.372 -0.907619 1.1867 0
M  V30 461 H 45.254 -4.06924 1.09504 0
M  V30 462 H 43.929 -3.22769 0.245372 0
M  V30 463 H 42.836 -2.76796 2.51664 0
M  V30 464 H 44.169 -3.655 3.29652 0
M  V30 465 N 45.8211 -1.22559 -0.990812 0
M  V30 466 C 47.0491 -1.07779 -1.76611 0
M  V30 467 C 47.4641 0.371513 -1.85109 0
M  V30 468 O 46.8211 1.25737 -1.32274 0
M  V30 469 C 46.8721 -1.68512 -3.19822 0
M  V30 470 O 46.5931 -3.07774 -3.1178 0
M  V30 471 C 48.0941 -1.59035 -4.13791 0
M  V30 472 H 45.3141 -0.377729 -0.554583 0
M  V30 473 H 47.8581 -1.62195 -1.24551 0
M  V30 474 H 46.0131 -1.18154 -3.68942 0
M  V30 475 H 46.4271 -3.37062 -4.01858 0
M  V30 476 H 47.9011 -2.0625 -5.1202 0
M  V30 477 H 48.3781 -0.547273 -4.35777 0
M  V30 478 H 48.9841 -2.08709 -3.70568 0
M  V30 479 N 47.2992 1.18797 -1.03562 0
M  V30 480 C 48.5462 1.8865 -0.736023 0
M  V30 481 C 48.8742 1.80041 0.735889 0
M  V30 482 O 48.1292 1.19179 1.55225 0
M  V30 483 C 48.4282 3.38692 -1.14117 0
M  V30 484 C 48.0942 3.67504 -2.6125 0
M  V30 485 C 46.7562 3.75078 -3.01447 0
M  V30 486 C 49.1082 3.80293 -3.56408 0
M  V30 487 C 46.4362 3.92915 -4.35701 0
M  V30 488 C 48.7882 3.99645 -4.90374 0
M  V30 489 C 47.4522 4.05453 -5.30249 0
M  V30 490 H 46.7222 0.690321 -0.26933 0
M  V30 491 H 49.3692 1.40641 -1.29971 0
M  V30 492 H 47.6742 3.88645 -0.496202 0
M  V30 493 H 49.3712 3.91072 -0.886789 0
M  V30 494 H 45.9612 3.62223 -2.29113 0
M  V30 495 H 50.1452 3.73779 -3.26501 0
M  V30 496 H 45.4012 3.95653 -4.66121 0
M  V30 497 H 49.5752 4.08482 -5.64017 0
M  V30 498 H 47.2022 4.19027 -6.34288 0
M  V30 499 N 48.7773 0.814389 1.34928 0
M  V30 500 C 49.7073 0.244827 2.32213 0
M  V30 501 C 50.6883 -0.634024 1.57842 0
M  V30 502 O 51.8733 -0.562676 1.8587 0
M  V30 503 C 49.0033 -0.601106 3.42058 0
M  V30 504 C 47.9573 0.179896 4.27622 0
M  V30 505 C 47.2833 -0.788237 5.28858 0
M  V30 506 C 48.5833 1.38329 5.03649 0
M  V30 507 H 50.2773 1.05763 2.80097 0
M  V30 508 H 47.8233 0.510029 1.34665 0
M  V30 509 H 49.7763 -1.00968 4.09125 0
M  V30 510 H 48.5003 -1.44688 2.92802 0
M  V30 511 H 47.1593 0.569739 3.62146 0
M  V30 512 H 46.8073 -1.62973 4.75866 0
M  V30 513 H 46.5073 -0.269942 5.8698 0
M  V30 514 H 48.0313 -1.19485 5.98795 0
M  V30 515 H 49.4453 1.04918 5.63618 0
M  V30 516 H 47.8423 1.83662 5.71304 0
M  V30 517 H 48.9123 2.16592 4.33839 0
M  V30 518 N 50.2554 -1.46986 0.568584 0
M  V30 519 C 51.1654 -2.33942 -0.17555 0
M  V30 520 C 52.1814 -1.48891 -0.90041 0
M  V30 521 O 53.3574 -1.81794 -0.86676 0
M  V30 522 C 50.4224 -3.25811 -1.18524 0
M  V30 523 C 49.4834 -4.26757 -0.466582 0
M  V30 524 C 48.7164 -5.14236 -1.42817 0
M  V30 525 O 48.9394 -5.04379 -2.66379 0
M  V30 526 O 47.8734 -5.94412 -0.946453 0
M  V30 527 H 51.6994 -2.98896 0.538036 0
M  V30 528 H 49.2844 -1.4573 0.329097 0
M  V30 529 H 51.1664 -3.82527 -1.76779 0
M  V30 530 H 49.8414 -2.63471 -1.88055 0
M  V30 531 H 48.7484 -3.73769 0.157451 0
M  V30 532 H 50.0814 -4.91843 0.187485 0
M  V30 533 N 51.7335 -0.305618 -1.54608 0
M  V30 534 C 53.0105 0.355652 -1.92339 0
M  V30 535 C 53.3905 1.71324 -1.23335 0
M  V30 536 O 52.7385 2.25473 -0.370702 0
M  V30 537 C 52.9485 0.46572 -3.45879 0
M  V30 538 C 54.2965 0.734426 -4.182 0
M  V30 539 O 55.3205 0.54935 -3.51938 0
M  V30 540 O 54.1795 1.09024 -5.35515 0
M  V30 541 H 51.2735 0.199666 -0.802535 0
M  V30 542 H 53.8195 -0.354017 -1.65966 0
M  V30 543 H 52.5915 -0.488461 -3.88239 0
M  V30 544 H 52.2145 1.22367 -3.78301 0
M  V30 545 N 53.2116 1.57565 -0.0334293 0
M  V30 546 C 54.1746 2.09393 0.932048 0
M  V30 547 C 55.1746 1.00986 1.25134 0
M  V30 548 O 56.3646 1.27129 1.19096 0
M  V30 549 C 53.4966 2.56338 2.2473 0
M  V30 550 H 54.6896 2.95984 0.483085 0
M  V30 551 H 52.2426 1.54819 0.21468 0
M  V30 552 H 52.9776 1.7309 2.74245 0
M  V30 553 H 52.7626 3.35542 2.02865 0
M  V30 554 H 54.2526 2.96646 2.93923 0
M  V30 555 N 54.6897 -0.239769 1.55765 0
M  V30 556 C 56.1057 -0.588624 1.48349 0
M  V30 557 C 56.3057 -1.88005 0.72502 0
M  V30 558 O 55.3617 -2.51186 0.257269 0
M  V30 559 C 56.6747 -0.68474 2.928 0
M  V30 560 C 58.2227 -0.77659 3.03213 0
M  V30 561 C 58.6977 -0.904207 4.48986 0
M  V30 562 N 60.1887 -0.968896 4.52953 0
M  V30 563 C 60.9237 -1.08703 5.63002 0
M  V30 564 N 60.4197 -1.17026 6.82845 0
M  V30 565 N 62.2127 -1.12074 5.50814 0
M  V30 566 H 54.3637 0.607911 2.03515 0
M  V30 567 H 56.6267 0.21083 0.924259 0
M  V30 568 H 56.3327 0.194284 3.51163 0
M  V30 569 H 56.2067 -1.55435 3.43686 0
M  V30 570 H 58.5937 -1.64606 2.44926 0
M  V30 571 H 58.6747 0.118315 2.55526 0
M  V30 572 H 58.3187 -0.0392633 5.07885 0
M  V30 573 H 58.2487 -1.81426 4.9436 0
M  V30 574 H 60.7397 -0.915633 3.6664 0
M  V30 575 H 61.0527 -1.25966 7.62465 0
M  V30 576 H 59.3977 -1.13971 6.85591 0
M  V30 577 H 62.5887 -1.05226 4.5612 0
M  V30 578 H 62.7617 -1.20936 6.36615 0
M  V30 579 N 56.1678 -1.49265 -0.50573 0
M  V30 580 C 57.0778 -1.68312 -1.63427 0
M  V30 581 C 58.0938 -0.565682 -1.64548 0
M  V30 582 O 59.2698 -0.839801 -1.83055 0
M  V30 583 C 56.3348 -1.74107 -2.99813 0
M  V30 584 C 55.3958 -2.97653 -3.09356 0
M  V30 585 C 54.6288 -3.03163 -4.39236 0
M  V30 586 O 54.8518 -2.16396 -5.27758 0
M  V30 587 O 53.7858 -3.9558 -4.53652 0
M  V30 588 H 57.6118 -2.63907 -1.50289 0
M  V30 589 H 55.1968 -1.32951 -0.681502 0
M  V30 590 H 57.0788 -1.803 -3.80881 0
M  V30 591 H 55.7538 -0.816901 -3.13223 0
M  V30 592 H 54.6608 -2.96981 -2.27493 0
M  V30 593 H 55.9938 -3.89535 -3.00871 0
M  V30 594 N 57.6459 0.756429 -1.3826 0
M  V30 595 C 58.8919 1.51772 -1.34511 0
M  V30 596 C 59.2249 1.94089 0.0656691 0
M  V30 597 O 58.4999 1.65221 1.02626 0
M  V30 598 C 58.7829 2.77226 -2.29821 0
M  V30 599 C 58.6359 2.41065 -3.79747 0
M  V30 600 C 59.9549 3.79236 -2.23312 0
M  V30 601 H 57.0739 0.550578 -0.489931 0
M  V30 602 H 59.7159 0.866607 -1.69086 0
M  V30 603 H 57.8659 3.32784 -2.00467 0
M  V30 604 H 59.5379 1.91303 -4.19763 0
M  V30 605 H 57.7809 1.7356 -3.97567 0
M  V30 606 H 58.4519 3.3081 -4.41892 0
M  V30 607 H 60.9279 3.3321 -2.49219 0
M  V30 608 H 59.8039 4.64714 -2.92116 0
M  V30 609 H 60.0649 4.24615 -1.23102 0
M  V30 610 N 59.124 1.23083 0.984299 0
M  V30 611 C 60.072 1.00593 2.09723 0
M  V30 612 C 61.066 -0.0538014 1.69315 0
M  V30 613 O 62.272 0.0993719 1.79725 0
M  V30 614 H 58.647 0.30817 0.685956 0
M  V30 615 H 60.618 1.95012 2.2586 0
M  V30 616 C 59.367 0.609601 3.42314 0
M  V30 617 H 58.69 1.41675 3.73856 0
M  V30 618 H 60.13 0.491726 4.21139 0
M  V30 619 C 58.589 -0.681745 3.2993 0
M  V30 620 O 59.119 -1.73192 3.62446 0
M  V30 621 N 57.325 -0.656178 2.83095 0
M  V30 622 H 56.872 0.198759 2.56832 0
M  V30 623 H 56.83 -1.52044 2.75191 0
M  V30 624 N 60.6021 -1.18246 1.0419 0
M  V30 625 C 61.5501 -2.23968 0.627792 0
M  V30 626 C 62.5441 -1.65828 -0.346019 0
M  V30 627 O 63.7501 -1.78733 -0.213175 0
M  V30 628 H 60.1251 -0.728939 0.184802 0
M  V30 629 H 62.0961 -2.56202 1.52981 0
M  V30 630 C 60.8451 -3.47699 0.00796591 0
M  V30 631 H 60.1681 -3.92734 0.748347 0
M  V30 632 H 61.6081 -4.23294 -0.24455 0
M  V30 633 C 60.0671 -3.13153 -1.24246 0
M  V30 634 O 60.5971 -3.27003 -2.33307 0
M  V30 635 N 58.8031 -2.67467 -1.13622 0
M  V30 636 H 58.3501 -2.56396 -0.248734 0
M  V30 637 H 58.3081 -2.44724 -1.97377 0
M  V30 638 N 62.0802 -0.821533 -1.34494 0
M  V30 639 C 63.3262 -0.409552 -1.98622 0
M  V30 640 C 63.6592 1.0244 -1.64984 0
M  V30 641 O 62.9342 1.71325 -0.920758 0
M  V30 642 C 63.2172 -0.610458 -3.54888 0
M  V30 643 C 63.0702 -2.09043 -3.98273 0
M  V30 644 C 64.3892 -0.0455379 -4.40076 0
M  V30 645 H 61.5082 -0.15028 -0.721516 0
M  V30 646 H 64.1502 -1.03384 -1.59411 0
M  V30 647 H 62.3002 -0.079044 -3.8842 0
M  V30 648 H 63.9722 -2.68537 -3.75081 0
M  V30 649 H 62.2152 -2.58139 -3.48635 0
M  V30 650 H 62.8862 -2.18182 -5.07051 0
M  V30 651 H 65.3622 -0.499557 -4.1309 0
M  V30 652 H 64.2382 -0.215922 -5.48475 0
M  V30 653 H 64.4992 1.04939 -4.29465 0
M  V30 654 N 63.5583 1.46682 -0.576371 0
M  V30 655 C 64.9743 1.57822 -0.237562 0
M  V30 656 C 65.1743 1.57237 1.26011 0
M  V30 657 O 64.2303 1.48596 2.04146 0
M  V30 658 C 65.5433 2.87499 -0.881168 0
M  V30 659 C 67.0913 3.01119 -0.85417 0
M  V30 660 C 67.5663 4.33524 -1.4772 0
M  V30 661 N 69.0573 4.40207 -1.44125 0
M  V30 662 C 69.7923 5.4126 -1.89276 0
M  V30 663 N 69.2883 6.49021 -2.42371 0
M  V30 664 N 71.0813 5.32422 -1.80231 0
M  V30 665 H 63.2323 1.45306 -1.54919 0
M  V30 666 H 65.4953 0.692733 -0.647167 0
M  V30 667 H 65.2013 2.9372 -1.93447 0
M  V30 668 H 65.0753 3.75224 -0.385592 0
M  V30 669 H 67.4623 2.94485 0.190491 0
M  V30 670 H 67.5433 2.14887 -1.3877 0
M  V30 671 H 67.1873 4.40916 -2.52103 0
M  V30 672 H 67.1173 5.1852 -0.918947 0
M  V30 673 H 69.6083 3.62931 -1.05307 0
M  V30 674 H 69.9213 7.2233 -2.74698 0
M  V30 675 H 68.2663 6.49858 -2.46393 0
M  V30 676 H 71.4573 4.47137 -1.38514 0
M  V30 677 H 71.6303 6.11034 -2.15735 0
M  V30 678 N 65.0364 0.313813 1.54444 0
M  V30 679 C 66.2844 -0.291099 1.99993 0
M  V30 680 C 66.6054 -1.53418 1.20366 0
M  V30 681 O 65.8754 -1.93544 0.302927 0
M  V30 682 H 64.4554 -0.110552 0.738774 0
M  V30 683 H 67.1174 0.428106 1.9014 0
M  V30 684 H 66.2134 -0.554268 3.07139 0
M  V30 685 N 66.5145 -1.57545 0.0417849 0
M  V30 686 C 67.4475 -2.06514 -0.970928 0
M  V30 687 C 68.4255 -0.963607 -1.30971 0
M  V30 688 O 69.6095 -1.23486 -1.4242 0
M  V30 689 C 66.7365 -2.4978 -2.28752 0
M  V30 690 C 65.7825 -3.71078 -2.10246 0
M  V30 691 S 66.6155 -5.17158 -1.38952 0
M  V30 692 C 67.7715 -5.6373 -2.71954 0
M  V30 693 H 68.0045 -2.9209 -0.554129 0
M  V30 694 H 65.5375 -1.53459 -0.17024 0
M  V30 695 H 67.4955 -2.75371 -3.04435 0
M  V30 696 H 66.1565 -1.64527 -2.67562 0
M  V30 697 H 65.3495 -3.9924 -3.07609 0
M  V30 698 H 64.9515 -3.45705 -1.42704 0
M  V30 699 H 67.2435 -5.68743 -3.68154 0
M  V30 700 H 68.1865 -6.63086 -2.4844 0
M  V30 701 H 68.5945 -4.91424 -2.77782 0
M  V30 702 N 67.9926 0.231505 -1.5589 0
M  V30 703 C 68.9226 1.29022 -1.94617 0
M  V30 704 C 69.9036 1.4941 -0.813067 0
M  V30 705 O 71.0886 1.6176 -1.07459 0
M  V30 706 C 68.2186 2.64199 -2.25424 0
M  V30 707 C 67.1726 2.58484 -3.41131 0
M  V30 708 C 66.4986 3.97599 -3.57518 0
M  V30 709 C 67.7986 2.1413 -4.76388 0
M  V30 710 H 69.4926 0.968563 -2.83301 0
M  V30 711 H 67.0386 0.464479 -1.36303 0
M  V30 712 H 68.9916 3.38413 -2.51107 0
M  V30 713 H 67.7156 2.98032 -1.33583 0
M  V30 714 H 66.3746 1.86727 -3.15481 0
M  V30 715 H 66.0226 4.28723 -2.6307 0
M  V30 716 H 65.7226 3.94659 -4.35337 0
M  V30 717 H 67.2466 4.7349 -3.85538 0
M  V30 718 H 68.6606 2.78083 -5.01341 0
M  V30 719 H 67.0576 2.2227 -5.57419 0
M  V30 720 H 68.1276 1.09331 -4.72414 0
M  V30 721 N 69.4707 1.49531 0.497807 0
M  V30 722 C 70.7187 1.58865 1.24926 0
M  V30 723 C 71.0397 0.278721 1.92998 0
M  V30 724 O 70.3097 -0.702144 1.82885 0
M  V30 725 H 68.8897 0.585343 0.464094 0
M  V30 726 H 71.5517 1.86174 0.57666 0
M  V30 727 H 70.6477 2.38633 2.01149 0
M  V30 728 N 70.9488 -0.749086 1.3866 0
M  V30 729 C 72.1958 -1.50833 1.35114 0
M  V30 730 C 72.5238 -1.94415 -0.0574049 0
M  V30 731 O 71.7788 -1.66065 -1.03541 0
M  V30 732 C 72.0778 -2.7712 2.25697 0
M  V30 733 C 71.7438 -2.52477 3.73585 0
M  V30 734 C 70.4058 -2.45466 4.13884 0
M  V30 735 C 72.7578 -2.31066 4.67181 0
M  V30 736 C 70.0858 -2.15064 5.45861 0
M  V30 737 C 72.4378 -2.02183 5.9942 0
M  V30 738 C 71.1018 -1.93631 6.38798 0
M  V30 739 H 70.3718 -0.551936 0.494416 0
M  V30 740 H 73.0188 -0.860979 1.71054 0
M  V30 741 H 71.3238 -3.46528 1.82827 0
M  V30 742 H 73.0208 -3.35096 2.20254 0
M  V30 743 H 69.6108 -2.58807 3.41638 0
M  V30 744 H 73.7948 -2.35459 4.3689 0
M  V30 745 H 69.0508 -2.06954 5.75308 0
M  V30 746 H 73.2248 -1.8462 6.71482 0
M  V30 747 H 70.8518 -1.69839 7.40985 0
M  V30 748 N 72.4269 -1.23603 -0.977757 0
M  V30 749 C 73.6549 -1.09646 -1.75458 0
M  V30 750 C 74.0699 0.351859 -1.85492 0
M  V30 751 O 73.4269 1.24327 -1.336 0
M  V30 752 C 73.4779 -1.71895 -3.18016 0
M  V30 753 O 73.1989 -3.11063 -3.08498 0
M  V30 754 C 74.6999 -1.63415 -4.12081 0
M  V30 755 H 71.9199 -0.38359 -0.550545 0
M  V30 756 H 74.4639 -1.63507 -1.22824 0
M  V30 757 H 72.6189 -1.22061 -3.67668 0
M  V30 758 H 73.0329 -3.41305 -3.9826 0
M  V30 759 H 74.5069 -2.11669 -5.09804 0
M  V30 760 H 74.9839 -0.593462 -4.35172 0
M  V30 761 H 75.5899 -2.12628 -3.68334 0
M  V30 762 N 73.905 1.17692 -1.04816 0
M  V30 763 C 75.153 1.87488 -0.754497 0
M  V30 764 C 75.474 1.81205 0.720407 0
M  V30 765 O 74.744 1.23544 1.52032 0
M  V30 766 H 73.324 0.694101 -0.276102 0
M  V30 767 H 75.986 1.42793 -1.32651 0
M  V30 768 H 75.082 2.93328 -1.06606 0
M  V30 769 N 75.3831 0.828654 1.34056 0
M  V30 770 C 76.6111 0.43262 2.02326 0
M  V30 771 C 77.0261 -0.963147 1.62385 0
M  V30 772 O 76.3831 -1.62425 0.832121 0
M  V30 773 C 76.4341 0.53182 3.57567 0
M  V30 774 O 76.1551 1.87258 3.96063 0
M  V30 775 C 77.6561 0.131422 4.43105 0
M  V30 776 H 74.8761 0.172923 0.648335 0
M  V30 777 H 77.4201 1.1184 1.71208 0
M  V30 778 H 75.5751 -0.105938 3.87255 0
M  V30 779 H 75.9891 1.85087 4.90758 0
M  V30 780 H 77.4631 0.251904 5.51425 0
M  V30 781 H 77.9401 -0.925645 4.29335 0
M  V30 782 H 78.5461 0.743207 4.18756 0
M  V30 783 N 76.8612 -1.46375 0.584142 0
M  V30 784 C 78.0912 -2.06461 0.0758195 0
M  V30 785 C 78.4992 -1.43322 -1.23512 0
M  V30 786 O 77.8422 -0.533216 -1.75791 0
M  V30 787 C 77.9042 -3.59131 -0.162773 0
M  V30 788 C 77.5682 -4.4447 1.06279 0
M  V30 789 C 78.5652 -4.80918 1.97519 0
M  V30 790 C 76.2502 -4.85584 1.28504 0
M  V30 791 C 78.2442 -5.57309 3.09331 0
M  V30 792 C 75.9312 -5.61734 2.4062 0
M  V30 793 C 76.9292 -5.9751 3.30863 0
M  V30 794 O 76.6172 -6.72121 4.41032 0
M  V30 795 H 76.3492 -0.673745 0.0551725 0
M  V30 796 H 78.9032 -1.88969 0.804984 0
M  V30 797 H 77.1332 -3.74936 -0.946565 0
M  V30 798 H 78.8222 -4.0114 -0.619782 0
M  V30 799 H 79.5882 -4.49732 1.81565 0
M  V30 800 H 75.4672 -4.57187 0.591702 0
M  V30 801 H 79.0112 -5.85152 3.79793 0
M  V30 802 H 74.9082 -5.92334 2.56537 0
M  V30 803 H 75.6762 -6.90547 4.39417 0
M  V30 804 N 78.3393 -0.321999 -1.54275 0
M  V30 805 C 79.2863 0.544664 -2.24281 0
M  V30 806 C 80.2563 1.1129 -1.23303 0
M  V30 807 O 81.4413 1.15354 -1.51981 0
M  V30 808 C 78.5813 1.70045 -3.00298 0
M  V30 809 C 77.6943 1.16159 -4.1609 0
M  V30 810 C 76.8293 2.28293 -4.79641 0
M  V30 811 C 75.8683 1.71648 -5.8754 0
M  V30 812 N 75.0053 2.77438 -6.44959 0
M  V30 813 H 79.8453 -0.0588907 -2.97942 0
M  V30 814 H 77.3823 -0.0408345 -1.47043 0
M  V30 815 H 79.3403 2.38054 -3.42616 0
M  V30 816 H 77.9703 2.27531 -2.28975 0
M  V30 817 H 77.0223 0.373092 -3.78566 0
M  V30 818 H 78.3343 0.707087 -4.93763 0
M  V30 819 H 77.4883 3.0421 -5.2492 0
M  V30 820 H 76.2273 2.77079 -4.01346 0
M  V30 821 H 75.2323 0.942282 -5.41665 0
M  V30 822 H 76.4573 1.23741 -6.67731 0
M  V30 823 H 74.4033 3.25519 -5.69538 0
M  V30 824 H 74.3203 2.36547 -7.1804 0
M  V30 825 H 75.5883 3.53189 -6.94894 0
M  V30 826 N 79.8174 1.5752 -0.0501392 0
M  V30 827 C 81.0654 1.9227 0.622642 0
M  V30 828 C 81.3864 0.929083 1.71444 0
M  V30 829 O 80.6564 -0.0262186 1.95882 0
M  V30 830 H 79.2364 0.709739 0.232981 0
M  V30 831 H 81.8984 1.94628 -0.102898 0
M  V30 832 H 80.9944 2.93479 1.06191 0
M  V30 833 N 81.2955 -0.223234 1.56011 0
M  V30 834 C 82.7115 -0.572856 1.48965 0
M  V30 835 C 82.9115 -1.87225 0.74492 0
M  V30 836 O 81.9675 -2.50899 0.283896 0
M  V30 837 C 83.2805 -0.653646 2.9351 0
M  V30 838 C 84.8285 -0.744386 3.0402 0
M  V30 839 C 85.3035 -0.856535 4.49919 0
M  V30 840 N 86.7945 -0.9208 4.53955 0
M  V30 841 C 87.5295 -1.02726 5.64123 0
M  V30 842 N 87.0255 -1.09777 6.84047 0
M  V30 843 N 88.8185 -1.06226 5.51971 0
M  V30 844 H 80.9695 0.629462 2.02858 0
M  V30 845 H 83.2325 0.220621 0.921971 0
M  V30 846 H 82.9385 0.231518 3.50937 0
M  V30 847 H 82.8125 -1.51781 3.45315 0
M  V30 848 H 85.1995 -1.61999 2.46658 0
M  V30 849 H 85.2805 0.14541 2.55386 0
M  V30 850 H 84.9245 0.0146069 5.07898 0
M  V30 851 H 84.8545 -1.76172 4.96257 0
M  V30 852 H 87.3455 -0.876694 3.6759 0
M  V30 853 H 87.6585 -1.17872 7.63758 0
M  V30 854 H 86.0035 -1.06693 6.86762 0
M  V30 855 H 89.1945 -1.00382 4.5721 0
M  V30 856 H 89.3675 -1.14177 6.37862 0
M  V30 857 N 82.7736 -1.49793 -0.48987 0
M  V30 858 C 83.7206 -1.67281 -1.59014 0
M  V30 859 C 84.6906 -0.514177 -1.57941 0
M  V30 860 O 85.8756 -0.742533 -1.75759 0
M  V30 861 C 83.0156 -1.75569 -2.97102 0
M  V30 862 C 82.1286 -3.0281 -3.08107 0
M  V30 863 C 81.2636 -3.02008 -4.36995 0
M  V30 864 C 80.3026 -4.23782 -4.41673 0
M  V30 865 N 79.4396 -4.20826 -5.62005 0
M  V30 866 H 84.2796 -2.61224 -1.43409 0
M  V30 867 H 81.8166 -1.29508 -0.697565 0
M  V30 868 H 83.7746 -1.78354 -3.77155 0
M  V30 869 H 82.4046 -0.850827 -3.11385 0
M  V30 870 H 81.4566 -3.09584 -2.21047 0
M  V30 871 H 82.7686 -3.92801 -3.07423 0
M  V30 872 H 81.9226 -3.03418 -5.25378 0
M  V30 873 H 80.6616 -2.09815 -4.4026 0
M  V30 874 H 79.6666 -4.22604 -3.5169 0
M  V30 875 H 80.8916 -5.17181 -4.40115 0
M  V30 876 H 78.8376 -3.31476 -5.66091 0
M  V30 877 H 78.7546 -5.04564 -5.62984 0
M  V30 878 H 80.0226 -4.26355 -6.52565 0
M  V30 879 N 84.2517 0.741722 -1.39055 0
M  V30 880 C 85.5007 1.49656 -1.35225 0
M  V30 881 C 85.8137 1.95533 0.0512708 0
M  V30 882 O 87.0197 2.7067 0.212138 0
M  V30 883 C 85.4757 2.70389 -2.37525 0
M  V30 884 C 85.0837 2.31489 -3.83558 0
M  V30 885 C 86.8277 3.48236 -2.42759 0
M  V30 886 C 84.7347 3.48903 -4.77515 0
M  V30 887 H 83.6647 0.56197 -0.502699 0
M  V30 888 H 86.3157 0.809727 -1.64668 0
M  V30 889 H 84.6977 3.41113 -2.01142 0
M  V30 890 H 85.8717 1.68354 -4.28945 0
M  V30 891 H 84.1867 1.66749 -3.81554 0
M  V30 892 H 86.7837 4.35558 -3.1015 0
M  V30 893 H 87.1267 3.90229 -1.45008 0
M  V30 894 H 87.6597 2.84535 -2.78002 0
M  V30 895 H 84.3987 3.11966 -5.76504 0
M  V30 896 H 83.9187 4.11041 -4.36813 0
M  V30 897 H 85.5977 4.15328 -4.96096 0
M  V30 898 N 85.7298 1.2412 0.971189 0
M  V30 899 C 86.9548 1.10667 1.75407 0
M  V30 900 C 87.3798 -0.337048 1.85056 0
M  V30 901 O 86.7378 -1.24396 1.31892 0
M  V30 902 C 86.7858 1.74726 3.15441 0
M  V30 903 O 85.8898 1.01566 3.99697 0
M  V30 904 H 85.2308 0.387341 0.539317 0
M  V30 905 H 87.7608 1.64358 1.2185 0
M  V30 906 H 87.7708 1.80341 3.6598 0
M  V30 907 H 86.4458 2.79773 3.07734 0
M  V30 908 H 85.0228 1.03713 3.58187 0
M  V30 909 N 87.2079 -1.17134 1.05439 0
M  V30 910 C 88.4539 -1.87733 0.767077 0
M  V30 911 C 88.7869 -1.8098 -0.704253 0
M  V30 912 O 88.0619 -1.21951 -1.5152 0
M  V30 913 C 88.3449 -3.37659 1.25133 0
M  V30 914 C 88.1979 -3.53149 2.78578 0
M  V30 915 C 89.5169 -4.31768 0.852324 0
M  V30 916 H 86.6359 -0.681687 0.280129 0
M  V30 917 H 89.2779 -1.37732 1.30881 0
M  V30 918 H 87.4279 -3.80373 0.790469 0
M  V30 919 H 89.0999 -3.19434 3.32806 0
M  V30 920 H 87.3429 -2.95345 3.17732 0
M  V30 921 H 88.0139 -4.58403 3.07523 0
M  V30 922 H 90.4899 -3.96909 1.24911 0
M  V30 923 H 89.3659 -5.35199 1.21873 0
M  V30 924 H 89.6269 -4.41429 -0.243485 0
M  V30 925 N 88.686 -0.835752 -1.33615 0
M  V30 926 C 89.619 -0.211815 -2.27215 0
M  V30 927 C 90.597 0.639249 -1.49507 0
M  V30 928 O 91.781 0.600193 -1.78689 0
M  V30 929 C 88.908 0.702893 -3.31326 0
M  V30 930 C 87.954 -0.0723049 -4.26439 0
M  V30 931 S 88.787 -1.42811 -5.16106 0
M  V30 932 C 89.943 -0.518613 -6.23748 0
M  V30 933 H 90.176 -1.00533 -2.79786 0
M  V30 934 H 87.709 -0.632336 -1.40858 0
M  V30 935 H 89.667 1.22505 -3.91794 0
M  V30 936 H 88.328 1.47004 -2.77576 0
M  V30 937 H 87.521 0.62359 -5.00127 0
M  V30 938 H 87.123 -0.525424 -3.70291 0
M  V30 939 H 89.415 0.284778 -6.76901 0
M  V30 940 H 90.358 -1.22556 -6.97413 0
M  V30 941 H 90.766 -0.101344 -5.64409 0
M  V30 942 N 90.1641 1.46063 -0.591896 0
M  V30 943 C 91.4121 2.01938 -0.0808391 0
M  V30 944 C 91.7331 1.46475 1.28725 0
M  V30 945 O 91.0031 0.652944 1.84698 0
M  V30 946 H 89.5831 0.746516 -0.0268938 0
M  V30 947 H 92.2451 1.79055 -0.769752 0
M  V30 948 H 91.3411 3.12094 -0.0187578 0
M  V30 949 N 91.6422 0.330177 1.54103 0
M  V30 950 C 92.5922 -0.548456 2.21305 0
M  V30 951 C 93.5762 -1.07651 1.19583 0
M  V30 952 O 94.7682 -1.01243 1.45186 0
M  V30 953 C 91.8972 -1.70559 2.97934 0
M  V30 954 C 90.9832 -1.19212 4.07 0
M  V30 955 N 91.3742 -0.398831 5.04225 0
M  V30 956 C 89.6722 -1.47024 4.2107 0
M  V30 957 C 90.3732 -0.121761 5.81573 0
M  V30 958 N 89.3492 -0.709722 5.38947 0
M  V30 959 H 93.1512 0.0648483 2.93828 0
M  V30 960 H 90.6652 0.136363 1.61826 0
M  V30 961 H 92.6622 -2.34688 3.44568 0
M  V30 962 H 91.3222 -2.32231 2.26934 0
M  V30 963 H 92.3332 -0.0410869 5.17884 0
M  V30 964 H 89.0102 -2.09232 3.61287 0
M  V30 965 H 90.4002 0.517298 6.69906 0
M  V30 966 N 93.1203 -1.57491 0.0584922 0
M  V30 967 C 94.3683 -1.92597 -0.612436 0
M  V30 968 C 94.6893 -0.938162 -1.70949 0
M  V30 969 O 93.9593 0.0158301 -1.95894 0
M  V30 970 H 92.5393 -0.710964 -0.229214 0
M  V30 971 H 95.2013 -1.94571 0.113218 0
M  V30 972 H 94.2973 -2.94038 -1.04633 0
M  V30 973 N 94.5984 0.214957 -1.56127 0
M  V30 974 C 95.5314 1.29382 -1.87977 0
M  V30 975 C 96.5094 1.44897 -0.737807 0
M  V30 976 O 97.6934 1.60605 -0.986833 0
M  V30 977 C 94.8204 2.66325 -2.09258 0
M  V30 978 C 93.8664 2.67789 -3.31951 0
M  V30 979 S 94.6994 2.21198 -4.8768 0
M  V30 980 C 95.8554 3.60003 -5.12004 0
M  V30 981 H 96.0884 1.02173 -2.79192 0
M  V30 982 H 93.6214 0.417516 -1.48648 0
M  V30 983 H 95.5794 3.45162 -2.22201 0
M  V30 984 H 94.2404 2.90755 -1.18829 0
M  V30 985 H 93.4334 3.68436 -3.43906 0
M  V30 986 H 93.0354 1.9702 -3.17898 0
M  V30 987 H 95.3274 4.55739 -5.01307 0
M  V30 988 H 96.2704 3.52959 -6.13861 0
M  V30 989 H 96.6784 3.53996 -4.39712 0
M  V30 990 N 96.0765 1.50051 0.48192 0
M  V30 991 C 97.3245 1.60181 1.23234 0
M  V30 992 C 97.6455 0.299176 1.92691 0
M  V30 993 O 96.9155 -0.682708 1.83619 0
M  V30 994 H 95.4955 0.590232 0.457859 0
M  V30 995 H 98.1575 1.86775 0.556881 0
M  V30 996 H 97.2535 2.40753 1.98607 0
M  V30 997 N 97.5546 -0.734337 1.39446 0
M  V30 998 C 98.8036 -1.48937 1.36017 0
M  V30 999 C 99.1166 -1.95557 -0.0409005 0
M  V30 1000 O 100.323 -2.70779 -0.19778 0
M  V30 1001 C 98.7786 -2.69125 2.38955 0
M  V30 1002 C 98.3866 -2.29452 3.8478 0
M  V30 1003 C 100.131 -3.46944 2.44603 0
M  V30 1004 C 98.0376 -3.46366 4.79358 0
M  V30 1005 H 96.9676 -0.559296 0.505672 0
M  V30 1006 H 99.6186 -0.800983 1.65095 0
M  V30 1007 H 98.0006 -3.40041 2.02948 0
M  V30 1008 H 99.1746 -1.66077 4.29831 0
M  V30 1009 H 97.4896 -1.64723 3.82433 0
M  V30 1010 H 100.087 -4.33907 3.12456 0
M  V30 1011 H 100.43 -3.89454 1.47076 0
M  V30 1012 H 100.963 -2.83056 2.79507 0
M  V30 1013 H 97.7016 -3.08905 5.78151 0
M  V30 1014 H 97.2216 -4.08719 4.38986 0
M  V30 1015 H 98.9006 -4.12691 4.98292 0
M  V30 1016 N 99.0327 -1.24633 -0.964593 0
M  V30 1017 C 100.444 -1.08045 -1.5226 0
M  V30 1018 C 100.795 0.347116 -1.93105 0
M  V30 1019 O 99.9197 1.23588 -1.77637 0
M  V30 1020 C 100.515 -1.95514 -2.76695 0
M  V30 1021 C 99.0737 -1.8314 -3.28841 0
M  V30 1022 C 98.2207 -1.90262 -2.01732 0
M  V30 1023 H 101.172 -1.38064 -0.782553 0
M  V30 1024 H 101.193 -1.48925 -3.50145 0
M  V30 1025 H 100.705 -2.99407 -2.46936 0
M  V30 1026 H 98.8057 -0.82092 -3.63444 0
M  V30 1027 H 98.9187 -2.67406 -3.97531 0
M  V30 1028 H 97.2827 -1.34027 -2.16584 0
M  V30 1029 H 98.0657 -2.9574 -1.74334 0
M  V30 1030 N 100.511 1.16574 -1.06058 0
M  V30 1031 C 101.736 1.91493 -0.796562 0
M  V30 1032 C 102.161 1.76773 0.642868 0
M  V30 1033 O 101.519 1.09142 1.44768 0
M  V30 1034 C 101.567 3.40293 -1.19303 0
M  V30 1035 O 100.671 4.11074 -0.330394 0
M  V30 1036 H 100.012 0.596678 -0.291326 0
M  V30 1037 H 102.542 1.47708 -1.41575 0
M  V30 1038 H 102.552 3.91057 -1.16356 0
M  V30 1039 H 101.227 3.50326 -2.24153 0
M  V30 1040 H 99.8038 3.70513 -0.421225 0
M  V30 1041 N 101.989 0.842826 1.3317 0
M  V30 1042 C 103.229 0.446574 1.99462 0
M  V30 1043 C 103.593 -0.976818 1.65295 0
M  V30 1044 O 104.794 -1.477 2.24584 0
M  V30 1045 C 103.065 0.665353 3.51152 0
M  V30 1046 S 104.624 0.364911 4.3728 0
M  V30 1047 H 101.442 0.167803 0.690915 0
M  V30 1048 H 104.044 1.09297 1.62094 0
M  V30 1049 H 102.748 1.7006 3.73507 0
M  V30 1050 H 102.279 0.00494568 3.934 0
M  V30 1051 H 104.294 -0.813761 4.89482 0
M  V30 1052 N 103.467 -1.45747 0.599634 0
M  V30 1053 C 104.692 -2.07178 0.0960198 0
M  V30 1054 C 105.117 -1.44268 -1.207 0
M  V30 1055 O 104.475 -0.532503 -1.73303 0
M  V30 1056 C 104.523 -3.60579 -0.0385348 0
M  V30 1057 O 103.627 -3.97713 -1.0908 0
M  V30 1058 H 102.968 -0.660251 0.0704593 0
M  V30 1059 H 105.498 -1.87124 0.827385 0
M  V30 1060 H 105.508 -4.07298 -0.239304 0
M  V30 1061 H 104.183 -4.05756 0.912947 0
M  V30 1062 H 102.76 -3.62678 -0.867135 0
M  V30 1063 N 104.945 -0.338344 -1.53925 0
M  V30 1064 C 106.194 0.260732 -2.00008 0
M  V30 1065 C 106.507 1.52073 -1.23017 0
M  V30 1066 O 107.713 2.19672 -1.5955 0
M  V30 1067 C 106.169 0.51515 -3.56194 0
M  V30 1068 C 105.777 -0.728645 -4.42035 0
M  V30 1069 C 107.521 1.07337 -4.10706 0
M  V30 1070 C 105.428 -0.445315 -5.89721 0
M  V30 1071 H 104.358 0.101205 -0.747177 0
M  V30 1072 H 107.009 -0.452866 -1.77824 0
M  V30 1073 H 105.391 1.28932 -3.74423 0
M  V30 1074 H 106.565 -1.50352 -4.35581 0
M  V30 1075 H 104.88 -1.20813 -3.98489 0
M  V30 1076 H 107.477 1.30022 -5.18651 0
M  V30 1077 H 107.82 2.0273 -3.63602 0
M  V30 1078 H 108.353 0.360034 -3.96167 0
M  V30 1079 H 105.092 -1.36883 -6.41049 0
M  V30 1080 H 104.612 0.291569 -5.99091 0
M  V30 1081 H 106.291 -0.0606218 -6.46972 0
M  V30 1082 N 106.423 1.57458 -0.0668435 0
M  V30 1083 C 107.653 1.97337 0.611677 0
M  V30 1084 C 108.061 0.943744 1.63982 0
M  V30 1085 O 107.404 -0.0785584 1.83532 0
M  V30 1086 C 107.466 3.33511 1.34205 0
M  V30 1087 C 107.13 4.54598 0.467941 0
M  V30 1088 C 108.127 5.19186 -0.272439 0
M  V30 1089 C 105.812 5.0075 0.39427 0
M  V30 1090 C 107.806 6.28274 -1.07476 0
M  V30 1091 C 105.493 6.09711 -0.411729 0
M  V30 1092 C 106.491 6.73335 -1.14492 0
M  V30 1093 O 106.179 7.80199 -1.93763 0
M  V30 1094 H 105.911 0.654042 0.170893 0
M  V30 1095 H 108.465 2.04961 -0.134289 0
M  V30 1096 H 106.695 3.22487 2.13398 0
M  V30 1097 H 108.384 3.58029 1.91233 0
M  V30 1098 H 109.15 4.84477 -0.225086 0
M  V30 1099 H 105.029 4.51009 0.954569 0
M  V30 1100 H 108.573 6.77866 -1.64755 0
M  V30 1101 H 104.47 6.43854 -0.460664 0
M  V30 1102 H 105.238 7.97053 -1.86142 0
M  V30 1103 N 107.901 -0.206675 1.56239 0
M  V30 1104 C 109.129 -0.945345 1.8404 0
M  V30 1105 C 109.544 -1.77336 0.647885 0
M  V30 1106 O 108.901 -1.78425 -0.383511 0
M  V30 1107 C 108.952 -1.8509 3.10522 0
M  V30 1108 O 108.673 -1.05634 4.25174 0
M  V30 1109 C 110.174 -2.70222 3.51418 0
M  V30 1110 H 107.394 -0.276372 0.61144 0
M  V30 1111 H 109.938 -0.217417 2.03341 0
M  V30 1112 H 108.093 -2.53259 2.93153 0
M  V30 1113 H 108.507 -1.67238 4.97124 0
M  V30 1114 H 109.981 -3.29438 4.42916 0
M  V30 1115 H 110.458 -3.43358 2.73864 0
M  V30 1116 H 111.064 -2.07443 3.71278 0
M  V30 1117 N 109.379 -1.50304 -0.473955 0
M  V30 1118 C 110.326 -1.68959 -1.57231 0
M  V30 1119 C 111.296 -0.530899 -1.57387 0
M  V30 1120 O 112.481 -0.761133 -1.74961 0
M  V30 1121 C 109.621 -1.7871 -2.95223 0
M  V30 1122 C 108.734 -3.06061 -3.04878 0
M  V30 1123 C 107.869 -3.06626 -4.33767 0
M  V30 1124 C 106.908 -4.28443 -4.37154 0
M  V30 1125 N 106.045 -4.26763 -5.5751 0
M  V30 1126 H 110.885 -2.6273 -1.40631 0
M  V30 1127 H 108.422 -1.30241 -0.683789 0
M  V30 1128 H 110.38 -1.82344 -3.75242 0
M  V30 1129 H 109.01 -0.883806 -3.10465 0
M  V30 1130 H 108.062 -3.11911 -2.17751 0
M  V30 1131 H 109.374 -3.96039 -3.0324 0
M  V30 1132 H 108.528 -3.08973 -5.22131 0
M  V30 1133 H 107.267 -2.14473 -4.3801 0
M  V30 1134 H 106.272 -4.2631 -3.47188 0
M  V30 1135 H 107.497 -5.2182 -4.34605 0
M  V30 1136 H 105.443 -3.37462 -5.62544 0
M  V30 1137 H 105.36 -5.10507 -5.57601 0
M  V30 1138 H 106.628 -4.33253 -6.48006 0
M  V30 1139 N 110.857 0.726932 -1.39834 0
M  V30 1140 C 111.767 1.87131 -1.41489 0
M  V30 1141 C 112.783 1.71239 -0.308757 0
M  V30 1142 O 113.959 1.93701 -0.551529 0
M  V30 1143 C 111.024 3.22811 -1.26468 0
M  V30 1144 C 110.085 3.51039 -2.47124 0
M  V30 1145 C 109.318 4.80245 -2.3281 0
M  V30 1146 O 109.541 5.54537 -1.33585 0
M  V30 1147 O 108.475 5.08554 -3.21957 0
M  V30 1148 H 112.301 1.8869 -2.3797 0
M  V30 1149 H 109.886 0.875837 -1.21035 0
M  V30 1150 H 111.768 4.03877 -1.20255 0
M  V30 1151 H 110.443 3.22005 -0.330862 0
M  V30 1152 H 109.35 2.70027 -2.58914 0
M  V30 1153 H 110.683 3.56632 -3.39227 0
M  V30 1154 N 112.336 1.25143 0.95797 0
M  V30 1155 C 113.266 1.07711 2.07173 0
M  V30 1156 C 114.247 -0.0128462 1.70095 0
M  V30 1157 O 115.432 0.156061 1.93572 0
M  V30 1158 C 112.562 0.691503 3.40346 0
M  V30 1159 C 111.516 1.73132 3.9142 0
M  V30 1160 C 110.842 1.20049 5.21049 0
M  V30 1161 C 112.142 3.1294 4.1817 0
M  V30 1162 H 113.836 2.00873 2.22014 0
M  V30 1163 H 111.382 0.967191 1.06684 0
M  V30 1164 H 113.335 0.556505 4.17709 0
M  V30 1165 H 112.059 -0.275819 3.25433 0
M  V30 1166 H 110.718 1.8547 3.16222 0
M  V30 1167 H 110.366 0.223499 5.02503 0
M  V30 1168 H 110.066 1.89545 5.56189 0
M  V30 1169 H 111.59 1.07782 6.01012 0
M  V30 1170 H 113.004 3.03775 4.86203 0
M  V30 1171 H 111.401 3.79875 4.64559 0
M  V30 1172 H 112.471 3.6025 3.24573 0
M  V30 1173 N 113.814 -1.1601 1.06675 0
M  V30 1174 C 115.063 -1.85973 0.780818 0
M  V30 1175 C 115.376 -1.82819 -0.695444 0
M  V30 1176 O 116.582 -2.484 -1.09589 0
M  V30 1177 C 115.038 -3.33757 1.34665 0
M  V30 1178 C 114.646 -3.45374 2.85343 0
M  V30 1179 C 116.39 -4.0895 1.13843 0
M  V30 1180 C 114.297 -4.87266 3.35151 0
M  V30 1181 H 113.227 -0.696661 0.288407 0
M  V30 1182 H 115.878 -1.30903 1.28595 0
M  V30 1183 H 114.26 -3.88456 0.769274 0
M  V30 1184 H 115.434 -3.00816 3.49065 0
M  V30 1185 H 113.749 -2.83619 3.04876 0
M  V30 1186 H 116.346 -5.13654 1.4854 0
M  V30 1187 H 116.689 -4.16229 0.0770282 0
M  V30 1188 H 117.222 -3.605 1.68179 0
M  V30 1189 H 113.961 -4.85168 4.40786 0
M  V30 1190 H 113.481 -5.32433 2.76179 0
M  V30 1191 H 115.16 -5.56097 3.30704 0
M  V30 1192 N 115.292 -0.849877 -1.32721 0
M  V30 1193 C 116.52 -0.464754 -2.01613 0
M  V30 1194 C 116.935 0.937191 -1.63897 0
M  V30 1195 O 116.292 1.61081 -0.857856 0
M  V30 1196 C 116.343 -0.588638 -3.56675 0
M  V30 1197 O 116.064 -1.93535 -3.93034 0
M  V30 1198 C 117.565 -0.2019 -4.4284 0
M  V30 1199 H 114.785 -0.183215 -0.645502 0
M  V30 1200 H 117.329 -1.1455 -1.69407 0
M  V30 1201 H 115.484 0.0443159 -3.87375 0
M  V30 1202 H 115.898 -1.92871 -4.87751 0
M  V30 1203 H 117.372 -0.339599 -5.50954 0
M  V30 1204 H 117.849 0.857224 -4.30753 0
M  V30 1205 H 118.455 -0.809733 -4.17521 0
M  V30 1206 N 116.77 1.45427 -0.607355 0
M  V30 1207 C 118.047 1.9557 -0.0344566 0
M  V30 1208 C 118.427 1.54979 1.43334 0
M  V30 1209 O 117.775 0.812241 2.13576 0
M  V30 1210 C 117.985 3.48226 -0.232321 0
M  V30 1211 C 119.333 4.2445 -0.113001 0
M  V30 1212 O 120.357 3.55829 -0.162431 0
M  V30 1213 O 119.216 5.465 0.00209442 0
M  V30 1214 H 116.31 0.826222 0.0358667 0
M  V30 1215 H 118.856 1.55594 -0.6774 0
M  V30 1216 H 117.628 3.70739 -1.25174 0
M  V30 1217 H 117.251 3.95092 0.445896 0
M  V30 1218 N 118.248 0.346503 1.53744 0
M  V30 1219 C 119.495 -0.249104 2.00962 0
M  V30 1220 C 119.823 -1.5032 1.23426 0
M  V30 1221 O 119.078 -1.93217 0.310761 0
M  V30 1222 C 119.377 -0.605809 3.52228 0
M  V30 1223 C 119.043 0.551747 4.47512 0
M  V30 1224 C 117.705 0.86941 4.73281 0
M  V30 1225 C 120.057 1.32818 5.03993 0
M  V30 1226 C 117.385 1.96582 5.52786 0
M  V30 1227 C 119.737 2.41486 5.84694 0
M  V30 1228 C 118.401 2.73808 6.08757 0
M  V30 1229 H 117.671 -0.0911538 0.735372 0
M  V30 1230 H 120.318 0.475027 1.85515 0
M  V30 1231 H 118.623 -1.4107 3.65522 0
M  V30 1232 H 120.32 -1.07858 3.86222 0
M  V30 1233 H 116.91 0.294102 4.2759 0
M  V30 1234 H 121.094 1.09602 4.84047 0
M  V30 1235 H 116.35 2.22045 5.69654 0
M  V30 1236 H 120.524 3.02078 6.27473 0
M  V30 1237 H 118.151 3.58892 6.7015 0
M  V30 1238 N 119.726 -1.57421 0.075193 0
M  V30 1239 C 120.974 -1.93236 -0.591974 0
M  V30 1240 C 121.295 -0.956241 -1.69944 0
M  V30 1241 O 120.565 -0.00494792 -1.95899 0
M  V30 1242 H 119.145 -0.713355 -0.22166 0
M  V30 1243 H 121.807 -1.9444 0.133848 0
M  V30 1244 H 120.903 -2.95131 -1.01509 0
M  V30 1245 N 121.204 0.198386 -1.56346 0
M  V30 1246 C 122.45 0.920648 -1.80698 0
M  V30 1247 C 122.783 1.83045 -0.648697 0
M  V30 1248 O 122.058 1.91308 0.350925 0
M  V30 1249 C 122.341 1.73971 -3.15287 0
M  V30 1250 C 122.194 0.85485 -4.41602 0
M  V30 1251 C 123.513 2.71296 -3.46535 0
M  V30 1252 H 120.632 0.333261 -0.657348 0
M  V30 1253 H 123.274 0.188198 -1.89066 0
M  V30 1254 H 121.424 2.36416 -3.08285 0
M  V30 1255 H 123.096 0.245362 -4.60647 0
M  V30 1256 H 121.339 0.161398 -4.335 0
M  V30 1257 H 122.01 1.46286 -5.32264 0
M  V30 1258 H 124.486 2.18983 -3.53816 0
M  V30 1259 H 123.362 3.2569 -4.41834 0
M  V30 1260 H 123.623 3.5018 -2.69864 0
M  V30 1261 N 122.682 1.50554 0.465978 0
M  V30 1262 C 123.629 1.6979 1.56333 0
M  V30 1263 C 124.599 0.539239 1.57103 0
M  V30 1264 O 125.784 0.770401 1.74555 0
M  V30 1265 C 122.924 1.80273 2.94271 0
M  V30 1266 C 122.037 3.07674 3.0325 0
M  V30 1267 C 121.172 3.08922 4.32135 0
M  V30 1268 C 120.211 4.30755 4.34875 0
M  V30 1269 N 119.348 4.29714 5.55239 0
M  V30 1270 H 124.188 2.63472 1.39235 0
M  V30 1271 H 121.725 1.30602 0.676873 0
M  V30 1272 H 123.683 1.84332 3.74269 0
M  V30 1273 H 122.313 0.900258 3.09992 0
M  V30 1274 H 121.365 3.13062 2.16094 0
M  V30 1275 H 122.677 3.97642 3.01135 0
M  V30 1276 H 121.831 3.11738 5.20485 0
M  V30 1277 H 120.57 2.16792 4.36866 0
M  V30 1278 H 119.575 4.28146 3.44922 0
M  V30 1279 H 120.8 5.24117 4.31831 0
M  V30 1280 H 118.746 3.4044 5.60746 0
M  V30 1281 H 118.663 5.13456 5.54886 0
M  V30 1282 H 119.931 4.36683 6.457 0
M  V30 1283 N 124.16 -0.719506 1.40217 0
M  V30 1284 C 125.107 -1.83359 1.40172 0
M  V30 1285 C 126.077 -1.64065 0.259206 0
M  V30 1286 O 127.262 -1.85254 0.456677 0
M  V30 1287 C 124.402 -3.2103 1.26624 0
M  V30 1288 C 123.515 -3.51923 2.50548 0
M  V30 1289 C 122.65 -4.79079 2.29471 0
M  V30 1290 C 121.689 -5.02863 3.48992 0
M  V30 1291 N 120.826 -6.2123 3.27135 0
M  V30 1292 H 125.666 -1.82733 2.35399 0
M  V30 1293 H 123.203 -0.892688 1.16917 0
M  V30 1294 H 125.161 -4.00524 1.16776 0
M  V30 1295 H 123.791 -3.20895 0.350176 0
M  V30 1296 H 122.843 -2.67014 2.70939 0
M  V30 1297 H 124.155 -3.6541 3.39525 0
M  V30 1298 H 123.309 -5.66582 2.16955 0
M  V30 1299 H 122.048 -4.67794 1.37913 0
M  V30 1300 H 121.053 -4.13816 3.6199 0
M  V30 1301 H 122.278 -5.16023 4.41472 0
M  V30 1302 H 120.224 -6.11204 2.38256 0
M  V30 1303 H 120.141 -6.35375 4.09675 0
M  V30 1304 H 121.409 -7.11532 3.18344 0
M  V30 1305 N 125.638 -1.25649 -0.95132 0
M  V30 1306 C 126.887 -1.09988 -1.69073 0
M  V30 1307 C 127.2 0.358355 -1.92289 0
M  V30 1308 O 128.406 0.635466 -2.63958 0
M  V30 1309 C 126.862 -1.92012 -3.044 0
M  V30 1310 C 126.47 -3.42347 -2.88968 0
M  V30 1311 C 128.214 -1.8493 -3.82101 0
M  V30 1312 C 126.121 -4.16655 -4.19705 0
M  V30 1313 H 125.051 -0.407993 -0.63408 0
M  V30 1314 H 127.702 -1.49873 -1.05879 0
M  V30 1315 H 126.084 -1.44952 -3.68517 0
M  V30 1316 H 127.258 -3.97104 -2.33762 0
M  V30 1317 H 125.573 -3.50557 -2.24719 0
M  V30 1318 H 128.17 -2.37739 -4.78941 0
M  V30 1319 H 128.513 -0.817883 -4.08187 0
M  V30 1320 H 129.046 -2.29758 -3.2474 0
M  V30 1321 H 125.785 -5.20224 -3.98807 0
M  V30 1322 H 125.305 -3.66681 -4.74663 0
M  V30 1323 H 126.984 -4.24551 -4.88227 0
M  V30 1324 N 127.117 1.15442 -1.07289 0
M  V30 1325 C 128.366 1.85557 -0.790669 0
M  V30 1326 C 128.679 1.83186 0.685739 0
M  V30 1327 O 129.885 2.48977 1.0827 0
M  V30 1328 C 128.341 3.33038 -1.36433 0
M  V30 1329 C 127.949 3.43856 -2.8717 0
M  V30 1330 C 129.693 4.0834 -1.1601 0
M  V30 1331 C 127.6 4.85482 -3.3773 0
M  V30 1332 H 126.53 0.695122 -0.292098 0
M  V30 1333 H 129.181 1.30219 -1.29287 0
M  V30 1334 H 127.563 3.88043 -0.789864 0
M  V30 1335 H 128.737 2.98961 -3.50655 0
M  V30 1336 H 127.052 2.81998 -3.06376 0
M  V30 1337 H 129.649 5.12859 -1.51262 0
M  V30 1338 H 129.992 4.16182 -0.0991007 0
M  V30 1339 H 130.525 3.59603 -1.70089 0
M  V30 1340 H 127.264 4.82823 -4.43353 0
M  V30 1341 H 126.784 5.30961 -2.78999 0
M  V30 1342 H 128.463 5.54335 -3.33648 0
M  V30 1343 N 128.595 0.856903 1.32268 0
M  V30 1344 C 130.011 0.547061 1.49931 0
M  V30 1345 C 130.211 -0.921781 1.7918 0
M  V30 1346 O 129.267 -1.70469 1.8627 0
M  V30 1347 C 130.58 1.43599 2.64196 0
M  V30 1348 C 132.128 1.43665 2.78081 0
M  V30 1349 C 132.603 2.31085 3.95428 0
M  V30 1350 N 134.094 2.28893 4.02694 0
M  V30 1351 C 134.829 2.93262 4.92732 0
M  V30 1352 N 134.325 3.66751 5.87763 0
M  V30 1353 N 136.118 2.82638 4.85873 0
M  V30 1354 H 128.269 1.8075 1.11549 0
M  V30 1355 H 130.532 0.772144 0.549997 0
M  V30 1356 H 130.238 2.48058 2.49319 0
M  V30 1357 H 130.112 1.12502 3.60032 0
M  V30 1358 H 132.499 0.399701 2.92381 0
M  V30 1359 H 132.58 1.7878 1.82952 0
M  V30 1360 H 132.224 3.34849 3.81888 0
M  V30 1361 H 132.154 1.93302 4.89839 0
M  V30 1362 H 134.645 1.75466 3.34694 0
M  V30 1363 H 134.958 4.13027 6.53168 0
M  V30 1364 H 133.303 3.70859 5.87783 0
M  V30 1365 H 136.494 2.24774 4.10602 0
M  V30 1366 H 136.667 3.33084 5.55841 0
M  V30 1367 N 130.073 -1.45103 0.615059 0
M  V30 1368 C 131.319 -2.02483 0.113347 0
M  V30 1369 C 131.652 -1.48146 -1.25564 0
M  V30 1370 O 130.927 -0.659104 -1.82992 0
M  V30 1371 C 131.21 -3.60005 0.0825278 0
M  V30 1372 C 131.063 -4.2466 1.48271 0
M  V30 1373 C 132.382 -4.35972 -0.601401 0
M  V30 1374 H 129.501 -0.735764 0.0426632 0
M  V30 1375 H 132.143 -1.72868 0.788461 0
M  V30 1376 H 130.293 -3.85367 -0.492378 0
M  V30 1377 H 131.965 -4.10458 2.10527 0
M  V30 1378 H 130.208 -3.82772 2.04127 0
M  V30 1379 H 130.879 -5.336 1.41332 0
M  V30 1380 H 133.355 -4.15947 -0.112666 0
M  V30 1381 H 132.231 -5.45697 -0.592097 0
M  V30 1382 H 132.492 -4.09391 -1.66887 0
M  V30 1383 N 131.551 -0.354651 -1.53558 0
M  V30 1384 C 132.799 0.237972 -2.00694 0
M  V30 1385 C 133.12 1.50173 -1.24391 0
M  V30 1386 O 132.39 1.92673 -0.354135 0
M  V30 1387 H 130.97 0.0909256 -0.741446 0
M  V30 1388 H 133.632 -0.478368 -1.88938 0
M  V30 1389 H 132.728 0.47264 -3.085 0
M  V30 1390 N 133.029 1.57378 -0.0835403 0
M  V30 1391 C 134.254 1.98682 0.594987 0
M  V30 1392 C 134.679 0.961969 1.61641 0
M  V30 1393 O 134.037 -0.0709989 1.81161 0
M  V30 1394 C 134.085 3.38988 1.2296 0
M  V30 1395 O 133.189 3.39208 2.34546 0
M  V30 1396 H 132.53 0.646368 0.152002 0
M  V30 1397 H 135.06 2.03961 -0.161533 0
M  V30 1398 H 135.07 3.76431 1.57366 0
M  V30 1399 H 133.745 4.13107 0.481228 0
M  V30 1400 H 132.322 3.13548 2.01846 0
M  V30 1401 N 134.507 -0.190092 1.56449 0
M  V30 1402 C 135.747 -0.916414 1.82705 0
M  V30 1403 C 136.111 -1.80235 0.661763 0
M  V30 1404 O 137.312 -2.56484 0.80433 0
M  V30 1405 C 135.583 -1.70691 3.14005 0
M  V30 1406 S 137.142 -2.48457 3.61683 0
M  V30 1407 H 133.96 -0.307281 0.64117 0
M  V30 1408 H 136.562 -0.179433 1.94675 0
M  V30 1409 H 135.266 -1.04677 3.96826 0
M  V30 1410 H 134.797 -2.48562 3.04927 0
M  V30 1411 H 136.812 -3.72756 3.27517 0
M  V30 1412 N 135.985 -1.50799 -0.457987 0
M  V30 1413 C 137.233 -1.62121 -1.2067 0
M  V30 1414 C 137.554 -0.329793 -1.92191 0
M  V30 1415 O 136.824 0.653409 -1.84682 0
M  V30 1416 H 135.404 -0.597441 -0.448411 0
M  V30 1417 H 138.066 -1.87637 -0.527096 0
M  V30 1418 H 137.162 -2.43882 -1.94751 0
M  V30 1419 N 137.463 0.71206 -1.40597 0
M  V30 1420 C 138.426 1.80785 -1.40888 0
M  V30 1421 C 139.426 1.57937 -0.302103 0
M  V30 1422 O 140.616 1.64913 -0.561182 0
M  V30 1423 C 137.748 3.18927 -1.20409 0
M  V30 1424 H 138.941 1.81924 -2.38419 0
M  V30 1425 H 136.494 0.91805 -1.26497 0
M  V30 1426 H 137.229 3.23436 -0.236522 0
M  V30 1427 H 137.014 3.36911 -2.00582 0
M  V30 1428 H 138.504 3.98949 -1.23408 0
M  V30 1429 N 138.941 1.26152 0.944643 0
M  V30 1430 C 140.187 1.11657 1.69294 0
M  V30 1431 C 140.52 -0.339926 1.91202 0
M  V30 1432 O 139.795 -1.24994 1.49019 0
M  V30 1433 C 140.078 1.88236 3.06984 0
M  V30 1434 C 139.931 3.41772 2.92424 0
M  V30 1435 C 141.25 1.67343 4.07043 0
M  V30 1436 H 138.369 0.407004 0.614424 0
M  V30 1437 H 141.011 1.55106 1.09737 0
M  V30 1438 H 139.161 1.51308 3.57824 0
M  V30 1439 H 140.833 3.88433 2.48832 0
M  V30 1440 H 139.076 3.68974 2.28124 0
M  V30 1441 H 139.747 3.90579 3.90067 0
M  V30 1442 H 142.223 1.99509 3.65151 0
M  V30 1443 H 141.099 2.23346 5.01406 0
M  V30 1444 H 141.36 0.617158 4.37771 0
M  V30 1445 N 140.419 -1.14872 1.07899 0
M  V30 1446 C 141.349 -2.2193 0.725887 0
M  V30 1447 C 142.33 -1.67622 -0.28927 0
M  V30 1448 O 143.515 -1.93533 -0.160787 0
M  V30 1449 C 140.645 -3.47061 0.128856 0
M  V30 1450 C 139.599 -4.14363 1.07178 0
M  V30 1451 C 138.925 -5.33636 0.337229 0
M  V30 1452 C 140.225 -4.63492 2.40775 0
M  V30 1453 H 141.919 -2.51724 1.62097 0
M  V30 1454 H 139.465 -1.20991 0.780838 0
M  V30 1455 H 141.418 -4.21199 -0.130147 0
M  V30 1456 H 140.142 -3.16617 -0.80134 0
M  V30 1457 H 138.801 -3.42173 1.3158 0
M  V30 1458 H 138.449 -4.99449 -0.596606 0
M  V30 1459 H 138.149 -5.79609 0.965788 0
M  V30 1460 H 139.673 -6.10539 0.0861567 0
M  V30 1461 H 141.087 -5.2913 2.20669 0
M  V30 1462 H 139.484 -5.20148 2.99276 0
M  V30 1463 H 140.554 -3.78834 3.02676 0
M  V30 1464 N 141.898 -0.863906 -1.31812 0
M  V30 1465 C 143.309 -0.52522 -1.7916 0
M  V30 1466 C 143.66 0.957518 -1.71248 0
M  V30 1467 O 142.785 1.74734 -1.27659 0
M  V30 1468 C 143.38 -0.9466 -3.25307 0
M  V30 1469 C 141.939 -0.659668 -3.70574 0
M  V30 1470 C 141.086 -1.14126 -2.52726 0
M  V30 1471 H 144.037 -1.05022 -1.1898 0
M  V30 1472 H 144.058 -0.266766 -3.79564 0
M  V30 1473 H 143.57 -2.02579 -3.31034 0
M  V30 1474 H 141.671 0.408416 -3.70355 0
M  V30 1475 H 141.784 -1.23245 -4.62977 0
M  V30 1476 H 140.148 -0.561216 -2.4844 0
M  V30 1477 H 140.931 -2.22775 -2.61201 0
M  V30 1478 N 143.376 1.44774 -0.622745 0
M  V30 1479 C 144.326 2.2774 0.108889 0
M  V30 1480 C 145.31 1.38189 0.824175 0
M  V30 1481 O 146.502 1.62063 0.711664 0
M  V30 1482 C 143.631 3.25353 1.09546 0
M  V30 1483 C 142.717 4.22392 0.380232 0
M  V30 1484 N 143.108 5.02388 -0.586535 0
M  V30 1485 C 141.406 4.41588 0.625792 0
M  V30 1486 C 142.107 5.72894 -1.00834 0
M  V30 1487 N 141.083 5.42479 -0.348878 0
M  V30 1488 H 144.885 2.86993 -0.63341 0
M  V30 1489 H 142.399 1.5611 -0.447589 0
M  V30 1490 H 144.396 3.83538 1.63414 0
M  V30 1491 H 143.056 2.6766 1.83815 0
M  V30 1492 H 144.067 5.0885 -0.963975 0
M  V30 1493 H 140.744 3.95003 1.352 0
M  V30 1494 H 142.134 6.47158 -1.80656 0
M  V30 1495 N 144.854 0.36279 1.53368 0
M  V30 1496 C 146.1 -0.228113 2.01513 0
M  V30 1497 C 146.433 -1.48648 1.2497 0
M  V30 1498 O 145.708 -1.91459 0.342616 0
M  V30 1499 C 145.991 -0.522884 3.56284 0
M  V30 1500 C 145.844 0.74892 4.43521 0
M  V30 1501 C 147.163 -1.32461 4.19693 0
M  V30 1502 H 144.282 -0.0814343 0.732487 0
M  V30 1503 H 146.924 0.48713 1.83649 0
M  V30 1504 H 145.074 -1.1322 3.71636 0
M  V30 1505 H 146.746 1.38648 4.39971 0
M  V30 1506 H 144.989 1.36986 4.11603 0
M  V30 1507 H 145.66 0.497667 5.49752 0
M  V30 1508 H 148.136 -0.809203 4.08156 0
M  V30 1509 H 147.012 -1.49961 5.28018 0
M  V30 1510 H 147.273 -2.33232 3.75573 0
M  V30 1511 N 146.332 -1.57332 0.0918853 0
M  V30 1512 C 147.279 -2.13847 -0.868211 0
M  V30 1513 C 148.249 -1.05618 -1.28196 0
M  V30 1514 O 149.434 -1.33387 -1.36427 0
M  V30 1515 C 146.574 -2.72062 -2.12312 0
M  V30 1516 C 145.687 -3.94514 -1.7602 0
M  V30 1517 C 144.822 -4.40903 -2.96273 0
M  V30 1518 C 143.861 -5.55953 -2.56092 0
M  V30 1519 N 142.998 -5.97209 -3.69169 0
M  V30 1520 H 147.838 -2.95575 -0.379406 0
M  V30 1521 H 145.375 -1.46048 -0.175606 0
M  V30 1522 H 147.333 -3.03931 -2.858 0
M  V30 1523 H 145.963 -1.93068 -2.58698 0
M  V30 1524 H 145.015 -3.68979 -0.925135 0
M  V30 1525 H 146.327 -4.7802 -1.42472 0
M  V30 1526 H 145.481 -4.74539 -3.78018 0
M  V30 1527 H 144.22 -3.56291 -3.33029 0
M  V30 1528 H 143.225 -5.21948 -1.72773 0
M  V30 1529 H 144.45 -6.42311 -2.20484 0
M  V30 1530 H 142.396 -5.15543 -4.05649 0
M  V30 1531 H 142.313 -6.75504 -3.39456 0
M  V30 1532 H 143.581 -6.35475 -4.51434 0
M  V30 1533 N 147.81 0.181792 -1.56548 0
M  V30 1534 C 148.74 1.22765 -1.98623 0
M  V30 1535 C 149.721 1.46747 -0.860189 0
M  V30 1536 O 150.906 1.58259 -1.12551 0
M  V30 1537 C 148.036 2.56894 -2.33715 0
M  V30 1538 C 146.99 2.475 -3.49182 0
M  V30 1539 C 146.316 3.86023 -3.69986 0
M  V30 1540 C 147.616 1.98866 -4.82959 0
M  V30 1541 H 149.31 0.877942 -2.86239 0
M  V30 1542 H 146.856 0.42088 -1.37712 0
M  V30 1543 H 148.809 3.30253 -2.61746 0
M  V30 1544 H 147.533 2.93632 -1.42997 0
M  V30 1545 H 146.192 1.76596 -3.21262 0
M  V30 1546 H 145.84 4.20136 -2.76576 0
M  V30 1547 H 145.54 3.80609 -4.47672 0
M  V30 1548 H 147.064 4.60984 -4.00407 0
M  V30 1549 H 148.478 2.61992 -5.09934 0
M  V30 1550 H 146.875 2.04424 -5.64208 0
M  V30 1551 H 147.945 0.942465 -4.75653 0
M  V30 1552 N 149.288 1.51039 0.449983 0
M  V30 1553 C 150.704 1.38934 0.785462 0
M  V30 1554 C 150.904 0.461817 1.96136 0
M  V30 1555 O 149.96 -0.0877389 2.52348 0
M  V30 1556 C 151.273 2.80724 1.0777 0
M  V30 1557 C 152.821 2.89787 1.1829 0
M  V30 1558 C 153.296 4.32457 1.50815 0
M  V30 1559 N 154.787 4.35505 1.57764 0
M  V30 1560 C 155.522 5.42914 1.84477 0
M  V30 1561 N 155.018 6.60502 2.09068 0
M  V30 1562 N 156.811 5.3038 1.86155 0
M  V30 1563 H 148.962 2.09904 -0.324647 0
M  V30 1564 H 151.225 0.944378 -0.0827957 0
M  V30 1565 H 150.931 3.50531 0.286498 0
M  V30 1566 H 150.805 3.19273 2.00859 0
M  V30 1567 H 153.192 2.20186 1.96474 0
M  V30 1568 H 153.273 2.54752 0.231314 0
M  V30 1569 H 152.917 5.02603 0.731622 0
M  V30 1570 H 152.847 4.64995 2.47158 0
M  V30 1571 H 155.338 3.50724 1.40715 0
M  V30 1572 H 155.651 7.38158 2.28785 0
M  V30 1573 H 153.996 6.63639 2.06416 0
M  V30 1574 H 157.187 4.37505 1.66454 0
M  V30 1575 H 157.36 6.1417 2.06637 0
M  V30 1576 N 150.766 -0.704594 1.40972 0
M  V30 1577 C 152.043 -1.45847 1.30338 0
M  V30 1578 C 152.423 -2.10973 -0.0732344 0
M  V30 1579 O 151.771 -2.00997 -1.08685 0
M  V30 1580 C 151.981 -2.48525 2.45023 0
M  V30 1581 C 153.329 -3.1404 2.8577 0
M  V30 1582 O 154.353 -2.58848 2.44696 0
M  V30 1583 O 153.212 -4.13981 3.56766 0
M  V30 1584 H 150.306 -0.649092 0.512454 0
M  V30 1585 H 152.852 -0.735836 1.52917 0
M  V30 1586 H 151.624 -1.98994 3.36923 0
M  V30 1587 H 151.247 -3.2831 2.24272 0
M  V30 1588 N 152.244 -1.26651 -0.937939 0
M  V30 1589 C 153.49 -1.12553 -1.687 0
M  V30 1590 C 153.823 0.329782 -1.91379 0
M  V30 1591 O 153.098 1.24202 -1.4968 0
M  V30 1592 C 153.381 -1.89862 -3.05981 0
M  V30 1593 C 153.234 -3.43318 -2.90607 0
M  V30 1594 C 154.553 -1.69499 -4.0615 0
M  V30 1595 H 151.672 -0.410257 -0.612257 0
M  V30 1596 H 154.314 -1.55685 -1.08913 0
M  V30 1597 H 152.464 -1.53204 -3.57017 0
M  V30 1598 H 154.136 -3.89747 -2.46769 0
M  V30 1599 H 152.379 -3.70179 -2.26164 0
M  V30 1600 H 153.05 -3.92642 -3.8799 0
M  V30 1601 H 155.526 -2.01442 -3.64088 0
M  V30 1602 H 154.402 -2.26002 -5.00214 0
M  V30 1603 H 154.663 -0.640365 -4.37438 0
M  V30 1604 N 153.722 1.14298 -1.08507 0
M  V30 1605 C 154.968 1.85633 -0.816581 0
M  V30 1606 C 155.301 1.82784 0.656021 0
M  V30 1607 O 154.576 1.25926 1.48233 0
M  V30 1608 C 154.859 3.34223 -1.34041 0
M  V30 1609 C 154.712 3.45639 -2.87843 0
M  V30 1610 C 156.031 4.29356 -0.9665 0
M  V30 1611 H 153.15 0.67402 -0.298104 0
M  V30 1612 H 155.792 1.34214 -1.34487 0
M  V30 1613 H 153.942 3.78144 -0.89104 0
M  V30 1614 H 155.614 3.10498 -3.41158 0
M  V30 1615 H 153.857 2.86817 -3.25451 0
M  V30 1616 H 154.528 4.50089 -3.19569 0
M  V30 1617 H 157.004 3.93457 -1.35391 0
M  V30 1618 H 155.88 5.3178 -1.3602 0
M  V30 1619 H 156.141 4.41919 0.126362 0
M  V30 1620 N 155.201 0.870884 1.31352 0
M  V30 1621 C 156.45 0.478408 1.95944 0
M  V30 1622 C 156.763 -0.974493 1.69597 0
M  V30 1623 O 157.969 -1.47316 2.28058 0
M  V30 1624 C 156.425 0.804609 3.50791 0
M  V30 1625 C 156.033 2.27433 3.85977 0
M  V30 1626 C 157.777 0.480648 4.2177 0
M  V30 1627 C 155.684 2.5429 5.33939 0
M  V30 1628 H 154.614 0.175175 0.733369 0
M  V30 1629 H 157.265 1.06391 1.4951 0
M  V30 1630 H 155.647 0.148347 3.95722 0
M  V30 1631 H 156.821 2.97373 3.52002 0
M  V30 1632 H 155.136 2.56442 3.28065 0
M  V30 1633 H 157.733 0.658519 5.30629 0
M  V30 1634 H 158.076 -0.578979 4.12254 0
M  V30 1635 H 158.609 1.09349 3.82476 0
M  V30 1636 H 155.348 3.58939 5.48491 0
M  V30 1637 H 154.868 1.88945 5.69263 0
M  V30 1638 H 156.547 2.39066 6.01212 0
M  V30 1639 N 156.679 -1.44442 0.630414 0
M  V30 1640 C 157.927 -2.01653 0.134351 0
M  V30 1641 C 158.248 -1.49836 -1.24796 0
M  V30 1642 O 157.518 -0.701684 -1.82902 0
M  V30 1643 H 156.098 -0.74554 0.0466769 0
M  V30 1644 H 158.76 -1.76952 0.816955 0
M  V30 1645 H 157.856 -3.11935 0.101498 0
M  V30 1646 N 158.157 -0.370918 -1.53173 0
M  V30 1647 C 159.09 0.516727 -2.22273 0
M  V30 1648 C 160.068 1.07877 -1.21661 0
M  V30 1649 O 161.252 1.13389 -1.50583 0
M  V30 1650 C 158.379 1.71346 -2.92161 0
M  V30 1651 C 157.425 1.27838 -4.0689 0
M  V30 1652 S 158.258 0.275217 -5.34792 0
M  V30 1653 C 159.414 1.47816 -6.08195 0
M  V30 1654 H 159.647 -0.0701054 -2.97217 0
M  V30 1655 H 157.18 -0.155038 -1.5362 0
M  V30 1656 H 159.138 2.39988 -3.3304 0
M  V30 1657 H 157.799 2.27156 -2.16931 0
M  V30 1658 H 156.992 2.17141 -4.54825 0
M  V30 1659 H 156.594 0.671105 -3.6793 0
M  V30 1660 H 158.886 2.40831 -6.33251 0
M  V30 1661 H 159.829 1.04008 -7.0042 0
M  V30 1662 H 160.237 1.68663 -5.38714 0
M  V30 1663 N 159.635 1.57281 -0.100228 0
M  V30 1664 C 160.883 1.94153 0.561157 0
M  V30 1665 C 161.204 0.983157 1.68401 0
M  V30 1666 O 160.474 0.0361132 1.95867 0
M  V30 1667 H 159.054 0.716791 0.210283 0
M  V30 1668 H 161.716 1.94202 -0.164765 0
M  V30 1669 H 160.812 2.96709 0.968008 0
M  V30 1670 N 161.113 -0.173488 1.56642 0
M  V30 1671 C 162.076 -1.19859 1.95362 0
M  V30 1672 C 163.076 -1.37296 0.83704 0
M  V30 1673 O 164.266 -1.34739 1.10413 0
M  V30 1674 C 161.398 -2.56405 2.24654 0
M  V30 1675 H 162.591 -0.867062 2.87092 0
M  V30 1676 H 160.144 -0.415853 1.50666 0
M  V30 1677 H 160.879 -2.94576 1.35631 0
M  V30 1678 H 160.664 -2.45115 3.06041 0
M  V30 1679 H 162.154 -3.30287 2.5554 0
M  V30 1680 N 162.591 -1.51276 -0.441967 0
M  V30 1681 C 163.831 -1.65372 -1.20132 0
M  V30 1682 C 164.195 -0.359871 -1.88597 0
M  V30 1683 O 165.396 -0.376551 -2.66149 0
M  V30 1684 C 163.667 -2.8207 -2.1948 0
M  V30 1685 S 165.226 -3.16467 -3.03964 0
M  V30 1686 H 162.044 -0.582669 -0.407453 0
M  V30 1687 H 164.646 -1.89166 -0.493609 0
M  V30 1688 H 163.35 -3.74523 -1.67812 0
M  V30 1689 H 162.881 -2.6045 -2.94838 0
M  V30 1690 H 164.896 -2.62543 -4.21053 0
M  V30 1691 N 164.069 0.697108 -1.41344 0
M  V30 1692 C 165.297 1.48593 -1.43972 0
M  V30 1693 C 165.712 1.88747 -0.0445612 0
M  V30 1694 O 165.069 1.56682 0.935785 0
M  V30 1695 C 165.12 2.74946 -2.34706 0
M  V30 1696 O 164.841 2.36484 -3.68791 0
M  V30 1697 C 166.342 3.687 -2.46121 0
M  V30 1698 H 163.562 0.457964 -0.490418 0
M  V30 1699 H 166.106 0.858429 -1.8561 0
M  V30 1700 H 164.261 3.33937 -1.9638 0
M  V30 1701 H 164.675 3.17918 -4.17167 0
M  V30 1702 H 166.149 4.54145 -3.13777 0
M  V30 1703 H 166.626 4.13081 -1.49199 0
M  V30 1704 H 167.232 3.15613 -2.85076 0
M  V30 1705 N 165.547 1.27147 0.931209 0
M  V30 1706 C 166.824 1.0401 1.65654 0
M  V30 1707 C 167.204 -0.426297 2.06751 0
M  V30 1708 O 166.552 -1.40879 1.79904 0
M  V30 1709 C 166.762 1.99834 2.86125 0
M  V30 1710 C 168.11 2.29007 3.57549 0
M  V30 1711 O 169.134 1.97779 2.96246 0
M  V30 1712 O 167.993 2.82222 4.67989 0
M  V30 1713 H 165.087 0.396239 0.725895 0
M  V30 1714 H 167.633 1.38397 0.982056 0
M  V30 1715 H 166.405 2.98744 2.52721 0
M  V30 1716 H 166.028 1.65987 3.61295 0
M  V30 1717 N 167.025 -1.13721 1.09112 0
M  V30 1718 C 168.25 -1.89314 0.847053 0
M  V30 1719 C 168.675 -1.78416 -0.595774 0
M  V30 1720 O 168.033 -1.12942 -1.41823 0
M  V30 1721 C 168.081 -3.3701 1.28284 0
M  V30 1722 O 167.185 -4.10054 0.439267 0
M  V30 1723 H 166.526 -0.588745 0.307044 0
M  V30 1724 H 169.056 -1.43902 1.45442 0
M  V30 1725 H 169.066 -3.87834 1.26683 0
M  V30 1726 H 167.741 -3.4426 2.33363 0
M  V30 1727 H 166.318 -3.69266 0.519312 0
M  V30 1728 N 168.503 -0.877838 -1.30888 0
M  V30 1729 C 169.45 -0.337538 -2.28318 0
M  V30 1730 C 170.42 0.568346 -1.56074 0
M  V30 1731 O 171.605 0.498298 -1.84178 0
M  V30 1732 C 168.745 0.448142 -3.42178 0
M  V30 1733 C 167.858 -0.48615 -4.29256 0
M  V30 1734 C 166.993 0.314427 -5.30269 0
M  V30 1735 C 166.032 -0.615791 -6.08995 0
M  V30 1736 N 165.169 0.14902 -7.01942 0
M  V30 1737 H 170.009 -1.17356 -2.73919 0
M  V30 1738 H 167.546 -0.590094 -1.34745 0
M  V30 1739 H 169.504 0.919517 -4.06941 0
M  V30 1740 H 168.134 1.24879 -2.97666 0
M  V30 1741 H 167.186 -1.076 -3.64865 0
M  V30 1742 H 168.498 -1.19909 -4.84173 0
M  V30 1743 H 167.652 0.847969 -6.00745 0
M  V30 1744 H 166.391 1.06062 -4.76027 0
M  V30 1745 H 165.396 -1.16102 -5.37401 0
M  V30 1746 H 166.621 -1.36097 -6.65323 0
M  V30 1747 H 164.567 0.877884 -6.50099 0
M  V30 1748 H 164.484 -0.504433 -7.54315 0
M  V30 1749 H 165.752 0.663537 -7.76671 0
M  V30 1750 N 169.982 1.44106 -0.638065 0
M  V30 1751 C 171.228 2.02277 -0.145546 0
M  V30 1752 C 171.561 1.50125 1.23191 0
M  V30 1753 O 170.836 0.688133 1.8192 0
M  V30 1754 C 171.119 3.59829 -0.139791 0
M  V30 1755 C 170.972 4.22247 -1.55008 0
M  V30 1756 C 172.291 4.36873 0.531966 0
M  V30 1757 H 169.41 0.734992 -0.0543632 0
M  V30 1758 H 172.052 1.71592 -0.815863 0
M  V30 1759 H 170.202 3.86102 0.431007 0
M  V30 1760 H 171.874 4.07057 -2.1703 0
M  V30 1761 H 170.117 3.79476 -2.10191 0
M  V30 1762 H 170.788 5.31284 -1.49804 0
M  V30 1763 H 173.264 4.16074 0.0464781 0
M  V30 1764 H 172.14 5.4657 0.505206 0
M  V30 1765 H 172.401 4.11995 1.60352 0
M  V30 1766 N 171.46 0.379036 1.52974 0
M  V30 1767 C 172.408 -0.476033 2.27677 0
M  V30 1768 C 173.402 -1.0719 1.31174 0
M  V30 1769 O 174.608 -1.01355 1.48752 0
M  V30 1770 H 170.983 -0.172255 0.732006 0
M  V30 1771 H 172.954 0.175615 2.97883 0
M  V30 1772 C 171.703 -1.5967 3.0887 0
M  V30 1773 H 171.026 -1.1475 3.82978 0
M  V30 1774 H 172.466 -2.16943 3.64296 0
M  V30 1775 C 170.925 -2.54682 2.20542 0
M  V30 1776 O 171.455 -3.57836 1.82527 0
M  V30 1777 N 169.661 -2.24183 1.84907 0
M  V30 1778 H 169.208 -1.40333 2.1602 0
M  V30 1779 H 169.166 -2.88006 1.26096 0
M  V30 1780 N 172.938 -1.57226 0.108567 0
M  V30 1781 C 174.354 -1.5766 -0.248058 0
M  V30 1782 C 174.554 -1.12063 -1.67464 0
M  V30 1783 O 173.61 -0.803236 -2.39383 0
M  V30 1784 C 174.923 -3.0069 -0.0242287 0
M  V30 1785 C 176.471 -3.12868 -0.0909372 0
M  V30 1786 C 176.946 -4.57879 0.105067 0
M  V30 1787 N 178.437 -4.63172 0.0506846 0
M  V30 1788 C 179.172 -5.73126 0.177396 0
M  V30 1789 N 178.668 -6.91866 0.359696 0
M  V30 1790 N 180.461 -5.61977 0.117709 0
M  V30 1791 H 172.612 -1.85169 1.04049 0
M  V30 1792 H 174.875 -0.85529 0.40888 0
M  V30 1793 H 174.581 -3.38299 0.961604 0
M  V30 1794 H 174.455 -3.6945 -0.76068 0
M  V30 1795 H 176.842 -2.75124 -1.06729 0
M  V30 1796 H 176.923 -2.46672 0.677225 0
M  V30 1797 H 176.567 -4.96321 1.07834 0
M  V30 1798 H 176.497 -5.22153 -0.682954 0
M  V30 1799 H 178.988 -3.778 -0.0871266 0
M  V30 1800 H 179.301 -7.71503 0.447529 0
M  V30 1801 H 177.646 -6.93874 0.395536 0
M  V30 1802 H 180.837 -4.68094 -0.0236741 0
M  V30 1803 H 181.01 -6.47627 0.219905 0
M  V30 1804 N 174.416 0.165178 -1.56732 0
M  V30 1805 C 175.665 0.879143 -1.81532 0
M  V30 1806 C 175.978 1.83144 -0.686842 0
M  V30 1807 O 177.184 2.58823 -0.819944 0
M  V30 1808 C 175.64 1.61388 -3.21686 0
M  V30 1809 C 175.248 0.704904 -4.4242 0
M  V30 1810 C 176.992 2.3157 -3.55774 0
M  V30 1811 C 174.899 1.44022 -5.73595 0
M  V30 1812 H 173.829 0.332033 -0.676957 0
M  V30 1813 H 176.48 0.132008 -1.83025 0
M  V30 1814 H 174.862 2.40599 -3.14529 0
M  V30 1815 H 176.036 -0.0506815 -4.60772 0
M  V30 1816 H 174.351 0.112419 -4.16248 0
M  V30 1817 H 176.948 2.8719 -4.51028 0
M  V30 1818 H 177.291 3.07201 -2.8095 0
M  V30 1819 H 177.824 1.59297 -3.64513 0
M  V30 1820 H 174.563 0.72612 -6.51466 0
M  V30 1821 H 174.083 2.16898 -5.5921 0
M  V30 1822 H 175.762 1.98606 -6.15764 0
M  V30 1823 N 175.894 1.51508 0.433938 0
M  V30 1824 C 177.31 1.39759 0.770682 0
M  V30 1825 C 177.51 0.482594 1.95636 0
M  V30 1826 O 176.566 -0.0609691 2.52426 0
M  V30 1827 C 177.879 2.81851 1.04787 0
M  V30 1828 C 179.427 2.91025 1.1521 0
M  V30 1829 C 179.902 4.34032 1.46219 0
M  V30 1830 N 181.393 4.37154 1.53136 0
M  V30 1831 C 182.128 5.4484 1.78709 0
M  V30 1832 N 181.624 6.62682 2.02051 0
M  V30 1833 N 183.417 5.32324 1.80519 0
M  V30 1834 H 175.568 2.09548 -0.346892 0
M  V30 1835 H 177.831 0.943446 -0.0928074 0
M  V30 1836 H 177.537 3.50815 0.249304 0
M  V30 1837 H 177.411 3.21386 1.97461 0
M  V30 1838 H 179.798 2.22257 1.94128 0
M  V30 1839 H 179.879 2.54983 0.204281 0
M  V30 1840 H 179.523 5.03351 0.678274 0
M  V30 1841 H 179.453 4.6759 2.42212 0
M  V30 1842 H 181.944 3.52197 1.36987 0
M  V30 1843 H 182.257 7.40543 2.20943 0
M  V30 1844 H 180.602 6.65791 1.99366 0
M  V30 1845 H 183.793 4.39246 1.61805 0
M  V30 1846 H 183.966 6.16328 2.00111 0
M  V30 1847 N 177.372 -0.689602 1.41712 0
M  V30 1848 C 178.619 -1.44966 1.4139 0
M  V30 1849 C 178.947 -1.94484 0.025105 0
M  V30 1850 O 178.202 -1.70307 -0.964048 0
M  V30 1851 C 178.501 -2.67298 2.37247 0
M  V30 1852 C 178.167 -2.36405 3.83958 0
M  V30 1853 C 176.829 -2.27691 4.23923 0
M  V30 1854 C 179.181 -2.11043 4.76561 0
M  V30 1855 C 176.509 -1.91719 5.54492 0
M  V30 1856 C 178.861 -1.76578 6.07456 0
M  V30 1857 C 177.525 -1.66363 6.46436 0
M  V30 1858 H 176.795 -0.53047 0.517381 0
M  V30 1859 H 179.442 -0.787655 1.74552 0
M  V30 1860 H 177.747 -3.38461 1.9736 0
M  V30 1861 H 179.444 -3.25452 2.34269 0
M  V30 1862 H 176.034 -2.44085 3.52308 0
M  V30 1863 H 180.218 -2.16717 4.46483 0
M  V30 1864 H 175.474 -1.82367 5.83568 0
M  V30 1865 H 179.648 -1.55974 6.78708 0
M  V30 1866 H 177.275 -1.38258 7.47522 0
M  V30 1867 N 178.85 -1.27639 -0.924453 0
M  V30 1868 C 179.797 -1.10644 -2.0255 0
M  V30 1869 C 180.767 -0.00658438 -1.66099 0
M  V30 1870 O 181.952 -0.16952 -1.90045 0
M  V30 1871 C 179.092 -0.76309 -3.36557 0
M  V30 1872 C 178.205 -1.94091 -3.85944 0
M  V30 1873 C 177.34 -1.53914 -5.08413 0
M  V30 1874 C 176.379 -2.68425 -5.50104 0
M  V30 1875 N 175.516 -2.28815 -6.63768 0
M  V30 1876 H 180.356 -2.04858 -2.16419 0
M  V30 1877 H 177.893 -1.01974 -1.06017 0
M  V30 1878 H 179.851 -0.544822 -4.13627 0
M  V30 1879 H 178.481 0.142102 -3.22487 0
M  V30 1880 H 177.533 -2.27162 -3.05125 0
M  V30 1881 H 178.845 -2.7998 -4.12811 0
M  V30 1882 H 177.999 -1.28231 -5.92994 0
M  V30 1883 H 176.738 -0.651391 -4.8333 0
M  V30 1884 H 175.743 -2.94819 -4.64071 0
M  V30 1885 H 176.968 -3.57826 -5.7718 0
M  V30 1886 H 174.914 -1.42495 -6.40337 0
M  V30 1887 H 174.831 -3.08242 -6.90306 0
M  V30 1888 H 176.099 -2.06387 -7.51681 0
M  V30 1889 N 180.328 1.1314 -1.09713 0
M  V30 1890 C 181.605 1.80762 -0.747302 0
M  V30 1891 C 181.985 1.96663 0.767265 0
M  V30 1892 O 181.333 1.53706 1.69076 0
M  V30 1893 C 181.543 3.15606 -1.48975 0
M  V30 1894 C 182.891 3.90914 -1.65746 0
M  V30 1895 O 183.915 3.25239 -1.45251 0
M  V30 1896 O 182.774 5.08718 -1.9967 0
M  V30 1897 H 179.868 0.782103 -0.268782 0
M  V30 1898 H 182.414 1.20041 -1.19951 0
M  V30 1899 H 181.186 2.99278 -2.52088 0
M  V30 1900 H 180.809 3.84029 -1.02991 0
M  V30 1901 N 181.806 0.884767 1.30421 0
M  V30 1902 C 182.756 0.322846 2.25703 0
M  V30 1903 C 183.74 -0.548582 1.51259 0
M  V30 1904 O 184.932 -0.39304 1.72581 0
M  V30 1905 C 182.061 -0.461787 3.4018 0
M  V30 1906 C 181.147 0.423717 4.21978 0
M  V30 1907 N 181.538 1.52408 4.82292 0
M  V30 1908 C 179.836 0.218795 4.45463 0
M  V30 1909 C 180.537 2.07136 5.43571 0
M  V30 1910 N 179.513 1.36635 5.26148 0
M  V30 1911 H 183.315 1.16363 2.69883 0
M  V30 1912 H 180.829 0.73415 1.44859 0
M  V30 1913 H 182.826 -0.880985 4.07485 0
M  V30 1914 H 181.486 -1.30001 2.9754 0
M  V30 1915 H 182.497 1.90693 4.81515 0
M  V30 1916 H 179.174 -0.582275 4.1342 0
M  V30 1917 H 180.564 2.99538 6.01437 0
M  V30 1918 N 183.284 -1.43765 0.645699 0
M  V30 1919 C 184.561 -1.9541 0.0862963 0
M  V30 1920 C 184.941 -1.58725 -1.39175 0
M  V30 1921 O 184.289 -0.868581 -2.11348 0
M  V30 1922 C 184.499 -3.47488 0.324565 0
M  V30 1923 C 185.847 -4.24001 0.225497 0
M  V30 1924 O 186.871 -3.55274 0.256715 0
M  V30 1925 O 185.73 -5.46313 0.142801 0
M  V30 1926 H 182.824 -0.826882 -0.0139483 0
M  V30 1927 H 185.37 -1.53743 0.718415 0
M  V30 1928 H 184.142 -3.67289 1.3496 0
M  V30 1929 H 183.765 -3.96135 -0.340987 0
M  V30 1930 N 184.763 -0.387143 -1.52771 0
M  V30 1931 C 186.01 0.195735 -2.01552 0
M  V30 1932 C 186.338 1.46995 -1.27369 0
M  V30 1933 O 185.593 1.92325 -0.361879 0
M  V30 1934 C 185.892 0.512209 -3.53711 0
M  V30 1935 C 185.558 -0.670202 -4.45891 0
M  V30 1936 C 184.22 -0.994586 -4.70809 0
M  V30 1937 C 186.572 -1.46134 -5.00294 0
M  V30 1938 C 183.9 -2.11169 -5.4738 0
M  V30 1939 C 186.252 -2.56903 -5.78086 0
M  V30 1940 C 184.916 -2.89852 -6.01284 0
M  V30 1941 H 184.186 0.0716246 -0.73753 0
M  V30 1942 H 186.833 -0.524046 -1.8419 0
M  V30 1943 H 185.138 1.31329 -3.69134 0
M  V30 1944 H 186.835 0.975804 -3.88946 0
M  V30 1945 H 183.425 -0.407366 -4.2666 0
M  V30 1946 H 187.609 -1.22397 -4.80971 0
M  V30 1947 H 182.865 -2.3707 -5.63567 0
M  V30 1948 H 187.039 -3.18608 -6.19243 0
M  V30 1949 H 184.666 -3.76533 -6.60399 0
M  V30 1950 N 186.241 1.57166 -0.116904 0
M  V30 1951 C 187.204 2.14039 0.819742 0
M  V30 1952 C 188.204 1.07477 1.19605 0
M  V30 1953 O 189.394 1.33263 1.1219 0
M  V30 1954 C 186.526 2.67891 2.10826 0
M  V30 1955 H 187.719 2.98128 0.325511 0
M  V30 1956 H 185.272 1.55739 0.132312 0
M  V30 1957 H 186.007 1.87384 2.64685 0
M  V30 1958 H 185.792 3.45823 1.84793 0
M  V30 1959 H 187.282 3.11809 2.77785 0
M  V30 1960 N 187.719 -0.156864 1.56817 0
M  V30 1961 C 188.682 -1.17781 1.96622 0
M  V30 1962 C 189.682 -1.36401 0.851555 0
M  V30 1963 O 190.872 -1.33561 1.11836 0
M  V30 1964 C 188.004 -2.54008 2.27361 0
M  V30 1965 H 189.197 -0.836564 2.87996 0
M  V30 1966 H 186.75 -0.39985 1.51099 0
M  V30 1967 H 187.485 -2.9312 1.38748 0
M  V30 1968 H 187.27 -2.41856 3.08623 0
M  V30 1969 H 188.76 -3.27558 2.59029 0
M  V30 1970 N 189.197 -1.51736 -0.425897 0
M  V30 1971 C 190.446 -1.64201 -1.17136 0
M  V30 1972 C 190.759 -0.369705 -1.92074 0
M  V30 1973 O 191.965 -0.373898 -2.68913 0
M  V30 1974 C 190.421 -2.90035 -2.13091 0
M  V30 1975 C 190.029 -4.24312 -1.43747 0
M  V30 1976 C 191.773 -3.1186 -2.87999 0
M  V30 1977 C 189.68 -5.41285 -2.38253 0
M  V30 1978 H 188.61 -0.611624 -0.440944 0
M  V30 1979 H 191.261 -1.78212 -0.437328 0
M  V30 1980 H 189.643 -2.69684 -2.89977 0
M  V30 1981 H 190.817 -4.55086 -0.723408 0
M  V30 1982 H 189.132 -4.08456 -0.809465 0
M  V30 1983 H 191.729 -3.96427 -3.58817 0
M  V30 1984 H 192.072 -2.25403 -3.49999 0
M  V30 1985 H 192.605 -3.32605 -2.18217 0
M  V30 1986 H 189.344 -6.30037 -1.80925 0
M  V30 1987 H 188.864 -5.14872 -3.0768 0
M  V30 1988 H 190.543 -5.73694 -2.99139 0
M  V30 1989 N 190.675 0.682077 -1.42076 0
M  V30 1990 C 191.638 1.77756 -1.44691 0
M  V30 1991 C 192.638 1.5726 -0.335535 0
M  V30 1992 O 193.828 1.63686 -0.596037 0
M  V30 1993 C 190.96 3.16301 -1.27146 0
M  V30 1994 H 192.153 1.76826 -2.42224 0
M  V30 1995 H 189.706 0.891012 -1.28416 0
M  V30 1996 H 190.441 3.22862 -0.305075 0
M  V30 1997 H 190.226 3.32581 -2.07683 0
M  V30 1998 H 191.716 3.96241 -1.31843 0
M  V30 1999 N 192.153 1.28127 0.917671 0
M  V30 2000 C 193.43 1.05761 1.64542 0
M  V30 2001 C 193.81 -0.404344 2.07191 0
M  V30 2002 O 193.158 -1.38963 1.81388 0
M  V30 2003 C 193.368 2.02857 2.83989 0
M  V30 2004 C 194.716 2.32786 3.551 0
M  V30 2005 O 195.74 2.0091 2.94132 0
M  V30 2006 O 194.599 2.87169 4.64969 0
M  V30 2007 H 191.693 0.403916 0.721652 0
M  V30 2008 H 194.239 1.39431 0.967322 0
M  V30 2009 H 193.011 3.01407 2.49538 0
M  V30 2010 H 192.634 1.69809 3.59514 0
M  V30 2011 N 193.631 -1.12557 1.10312 0
M  V30 2012 C 194.878 -1.84038 0.844759 0
M  V30 2013 C 195.206 -1.84026 -0.629668 0
M  V30 2014 O 194.461 -1.28026 -1.48013 0
M  V30 2015 C 194.76 -3.31462 1.33669 0
M  V30 2016 C 194.426 -3.51647 2.82232 0
M  V30 2017 C 193.088 -3.56864 3.22802 0
M  V30 2018 C 195.44 -3.58867 3.77974 0
M  V30 2019 C 192.768 -3.66844 4.57867 0
M  V30 2020 C 195.12 -3.70375 5.1284 0
M  V30 2021 C 193.784 -3.73848 5.52986 0
M  V30 2022 H 193.054 -0.673444 0.309119 0
M  V30 2023 H 195.701 -1.32824 1.37949 0
M  V30 2024 H 194.006 -3.85091 0.721949 0
M  V30 2025 H 195.703 -3.85236 1.11329 0
M  V30 2026 H 192.293 -3.48249 2.49842 0
M  V30 2027 H 196.477 -3.54107 3.47738 0
M  V30 2028 H 191.733 -3.67804 4.88396 0
M  V30 2029 H 195.907 -3.74904 5.86873 0
M  V30 2030 H 193.534 -3.81333 6.57639 0
M  V30 2031 N 195.109 -0.891671 -1.2995 0
M  V30 2032 C 196.386 -0.433307 -1.9074 0
M  V30 2033 C 196.766 1.08646 -1.80995 0
M  V30 2034 O 196.114 1.92476 -1.23147 0
M  V30 2035 C 196.324 -0.938895 -3.36134 0
M  V30 2036 C 197.672 -0.977829 -4.13187 0
M  V30 2037 O 198.696 -0.886015 -3.45005 0
M  V30 2038 O 197.555 -1.11453 -5.35015 0
M  V30 2039 H 194.649 -0.133699 -0.816121 0
M  V30 2040 H 197.195 -0.981011 -1.38471 0
M  V30 2041 H 195.967 -1.98281 -3.37343 0
M  V30 2042 H 195.59 -0.37074 -3.95868 0
M  V30 2043 N 196.587 1.43421 -0.653314 0
M  V30 2044 C 197.52 2.2803 0.0879804 0
M  V30 2045 C 198.498 1.39833 0.82979 0
M  V30 2046 O 199.682 1.69275 0.829341 0
M  V30 2047 C 196.809 3.19247 1.13132 0
M  V30 2048 C 195.855 4.23704 0.487546 0
M  V30 2049 S 196.688 5.30377 -0.738961 0
M  V30 2050 C 197.844 6.25162 0.30384 0
M  V30 2051 H 198.077 2.90554 -0.629739 0
M  V30 2052 H 195.61 1.47934 -0.442156 0
M  V30 2053 H 197.568 3.72346 1.72827 0
M  V30 2054 H 196.229 2.55901 1.82136 0
M  V30 2055 H 195.422 4.87631 1.27407 0
M  V30 2056 H 195.024 3.73983 -0.0352915 0
M  V30 2057 H 197.316 6.67321 1.17 0
M  V30 2058 H 198.259 7.07463 -0.300402 0
M  V30 2059 H 198.667 5.60864 0.63969 0
M  V30 2060 N 198.065 0.39524 1.52563 0
M  V30 2061 C 199.311 -0.185318 2.01952 0
M  V30 2062 C 199.644 -1.45964 1.28095 0
M  V30 2063 O 198.919 -1.90689 0.38315 0
M  V30 2064 C 199.202 -0.447193 3.57312 0
M  V30 2065 C 199.055 0.842828 4.41833 0
M  V30 2066 C 200.374 -1.23529 4.22408 0
M  V30 2067 H 197.493 -0.0658788 0.73405 0
M  V30 2068 H 200.135 0.525975 1.82575 0
M  V30 2069 H 198.285 -1.05312 3.73954 0
M  V30 2070 H 199.957 1.4795 4.36931 0
M  V30 2071 H 198.2 1.45686 4.08605 0
M  V30 2072 H 198.871 0.614165 5.48573 0
M  V30 2073 H 201.347 -0.722445 4.0978 0
M  V30 2074 H 200.223 -1.38727 5.3108 0
M  V30 2075 H 200.484 -2.25213 3.80436 0
M  V30 2076 N 199.544 -1.57102 0.125237 0
M  V30 2077 C 200.96 -1.57915 -0.231322 0
M  V30 2078 C 201.16 -1.13833 -1.66266 0
M  V30 2079 O 200.216 -0.828581 -2.38518 0
M  V30 2080 C 201.529 -3.00699 0.00766489 0
M  V30 2081 C 203.077 -3.12947 -0.0577483 0
M  V30 2082 C 203.552 -4.57742 0.153626 0
M  V30 2083 N 205.043 -4.63092 0.0998073 0
M  V30 2084 C 205.778 -5.72905 0.238174 0
M  V30 2085 N 205.274 -6.91445 0.433057 0
M  V30 2086 N 207.067 -5.6182 0.177308 0
M  V30 2087 H 199.218 -1.84055 1.06007 0
M  V30 2088 H 201.481 -0.850905 0.417929 0
M  V30 2089 H 201.187 -3.3726 0.997431 0
M  V30 2090 H 201.061 -3.70236 -0.721452 0
M  V30 2091 H 203.448 -2.7624 -1.03804 0
M  V30 2092 H 203.529 -2.4594 0.70335 0
M  V30 2093 H 203.173 -4.95149 1.13092 0
M  V30 2094 H 203.103 -5.22848 -0.627534 0
M  V30 2095 H 205.594 -3.77871 -0.047051 0
M  V30 2096 H 205.907 -7.70985 0.529332 0
M  V30 2097 H 204.252 -6.93415 0.469109 0
M  V30 2098 H 207.443 -4.68093 0.0259748 0
M  V30 2099 H 207.616 -6.47357 0.288582 0
M  V30 2100 N 201.022 0.148545 -1.56898 0
M  V30 2101 C 201.97 1.20265 -1.99096 0
M  V30 2102 C 202.964 1.44559 -0.883123 0
M  V30 2103 O 204.17 1.4487 -1.0683 0
M  V30 2104 H 200.545 0.404786 -0.63376 0
M  V30 2105 H 202.516 0.82004 -2.86911 0
M  V30 2106 C 201.265 2.52886 -2.3863 0
M  V30 2107 H 200.588 2.35021 -3.23427 0
M  V30 2108 H 202.028 3.25274 -2.7198 0
M  V30 2109 C 200.487 3.13315 -1.23837 0
M  V30 2110 O 201.017 3.98077 -0.538268 0
M  V30 2111 N 199.223 2.72742 -1.00301 0
M  V30 2112 H 198.77 2.03912 -1.5741 0
M  V30 2113 H 198.728 3.13507 -0.236838 0
M  V30 2114 N 202.5 1.5196 0.417844 0
M  V30 2115 C 203.463 1.74065 1.49111 0
M  V30 2116 C 204.463 0.610537 1.48758 0
M  V30 2117 O 205.653 0.87832 1.50437 0
M  V30 2118 C 202.785 1.81502 2.88565 0
M  V30 2119 H 203.978 2.69869 1.30807 0
M  V30 2120 H 201.531 1.42244 0.647785 0
M  V30 2121 H 202.266 0.875813 3.1225 0
M  V30 2122 H 202.051 2.63651 2.90225 0
M  V30 2123 H 203.541 2.00376 3.66387 0
M  V30 2124 N 203.978 -0.674533 1.42435 0
M  V30 2125 C 205.224 -1.43671 1.43131 0
M  V30 2126 C 205.557 -1.94142 0.0476021 0
M  V30 2127 O 204.832 -1.70924 -0.928188 0
M  V30 2128 C 205.115 -2.63355 2.45594 0
M  V30 2129 C 204.968 -2.18514 3.93156 0
M  V30 2130 C 206.287 -3.65571 2.45043 0
M  V30 2131 H 203.406 -0.521077 0.521198 0
M  V30 2132 H 206.048 -0.766551 1.7385 0
M  V30 2133 H 204.198 -3.2053 2.19528 0
M  V30 2134 H 205.87 -1.66504 4.30202 0
M  V30 2135 H 204.113 -1.50086 4.07009 0
M  V30 2136 H 204.784 -3.04484 4.60428 0
M  V30 2137 H 207.26 -3.18113 2.68223 0
M  V30 2138 H 206.136 -4.46893 3.18713 0
M  V30 2139 H 206.397 -4.16716 1.47649 0
M  V30 2140 N 205.456 -1.28612 -0.910864 0
M  V30 2141 C 206.733 -1.06632 -1.63979 0
M  V30 2142 C 207.113 0.393351 -2.07403 0
M  V30 2143 O 206.461 1.37999 -1.82122 0
M  V30 2144 C 206.671 -2.0436 -2.8291 0
M  V30 2145 C 208.019 -2.34666 -3.5386 0
M  V30 2146 O 209.043 -2.02467 -2.93062 0
M  V30 2147 O 207.902 -2.89631 -4.63439 0
M  V30 2148 H 204.996 -0.407737 -0.7195 0
M  V30 2149 H 207.542 -1.39942 -0.959914 0
M  V30 2150 H 206.314 -3.02727 -2.47936 0
M  V30 2151 H 205.937 -1.71714 -3.58609 0
M  V30 2152 N 206.934 1.1197 -1.10907 0
M  V30 2153 C 207.897 2.16031 -0.765707 0
M  V30 2154 C 208.897 1.59393 0.212235 0
M  V30 2155 O 210.087 1.74196 -0.0115441 0
M  V30 2156 C 207.219 3.40632 -0.135053 0
M  V30 2157 H 208.412 2.47919 -1.68748 0
M  V30 2158 H 205.965 1.27061 -0.910226 0
M  V30 2159 H 206.7 3.14348 0.797218 0
M  V30 2160 H 206.485 3.8302 -0.838937 0
M  V30 2161 H 207.975 4.17505 0.0892469 0
M  V30 2162 N 208.412 0.89855 1.29475 0
M  V30 2163 C 209.375 0.380272 2.26023 0
M  V30 2164 C 210.375 -0.484891 1.53315 0
M  V30 2165 O 211.565 -0.290108 1.71767 0
M  V30 2166 C 208.697 -0.45651 3.3783 0
M  V30 2167 H 209.89 1.23295 2.73383 0
M  V30 2168 H 207.443 0.676589 1.40897 0
M  V30 2169 H 208.178 -1.32922 2.95808 0
M  V30 2170 H 207.963 0.163393 3.91759 0
M  V30 2171 H 209.453 -0.810466 4.0966 0
M  V30 2172 N 209.89 -1.43072 0.660911 0
M  V30 2173 C 210.837 -2.30785 -0.0259884 0
M  V30 2174 C 211.807 -1.45184 -0.806888 0
M  V30 2175 O 212.992 -1.74041 -0.781943 0
M  V30 2176 C 210.132 -3.30861 -0.981067 0
M  V30 2177 C 209.245 -4.31558 -0.195458 0
M  V30 2178 C 208.38 -5.18712 -1.14503 0
M  V30 2179 C 207.419 -6.11097 -0.350299 0
M  V30 2180 N 206.556 -6.90849 -1.25186 0
M  V30 2181 H 211.396 -2.88975 0.727846 0
M  V30 2182 H 208.933 -1.42353 0.370682 0
M  V30 2183 H 210.891 -3.87399 -1.54849 0
M  V30 2184 H 209.521 -2.74304 -1.70169 0
M  V30 2185 H 208.573 -3.77252 0.488374 0
M  V30 2186 H 209.885 -4.9701 0.422176 0
M  V30 2187 H 209.039 -5.79914 -1.78284 0
M  V30 2188 H 207.778 -4.53404 -1.79656 0
M  V30 2189 H 206.783 -5.48976 0.300808 0
M  V30 2190 H 208.008 -6.7845 0.296941 0
M  V30 2191 H 205.954 -6.28182 -1.89005 0
M  V30 2192 H 205.871 -7.52854 -0.688971 0
M  V30 2193 H 207.139 -7.5655 -1.87757 0
M  V30 2194 N 211.368 -0.403325 -1.52352 0
M  V30 2195 C 212.331 0.413051 -2.25447 0
M  V30 2196 C 213.331 0.978513 -1.276 0
M  V30 2197 O 214.521 0.858305 -1.51587 0
M  V30 2198 C 211.653 1.58087 -3.02029 0
M  V30 2199 H 212.846 -0.227094 -2.99039 0
M  V30 2200 H 210.399 -0.155722 -1.55522 0
M  V30 2201 H 211.134 2.25804 -2.32772 0
M  V30 2202 H 210.919 1.18195 -3.73861 0
M  V30 2203 H 212.409 2.1585 -3.57489 0
M  V30 2204 N 212.846 1.57033 -0.133567 0
M  V30 2205 C 213.776 2.1909 0.807567 0
M  V30 2206 C 214.757 1.13517 1.26681 0
M  V30 2207 O 215.942 1.41809 1.32679 0
M  V30 2208 C 213.072 2.80188 2.05212 0
M  V30 2209 C 212.026 3.91471 1.73015 0
M  V30 2210 C 211.352 4.39443 3.04622 0
M  V30 2211 C 212.652 5.12886 0.987168 0
M  V30 2212 H 214.346 2.97988 0.290403 0
M  V30 2213 H 211.892 1.43335 0.138239 0
M  V30 2214 H 213.845 3.22264 2.71521 0
M  V30 2215 H 212.569 1.98601 2.59278 0
M  V30 2216 H 211.228 3.49993 1.0909 0
M  V30 2217 H 210.876 3.54695 3.56651 0
M  V30 2218 H 210.576 5.14495 2.83847 0
M  V30 2219 H 212.1 4.8418 3.72024 0
M  V30 2220 H 213.514 5.51891 1.55208 0
M  V30 2221 H 211.911 5.93615 0.87985 0
M  V30 2222 H 212.981 4.84894 -0.0235286 0
M  V30 2223 N 214.325 -0.140222 1.56975 0
M  V30 2224 C 215.573 -0.850005 1.83356 0
M  V30 2225 C 215.894 -1.81399 0.71551 0
M  V30 2226 O 215.164 -1.94136 -0.262294 0
M  V30 2227 H 213.744 -0.316886 0.676456 0
M  V30 2228 H 216.406 -0.132608 1.94448 0
M  V30 2229 H 215.502 -1.40814 2.78528 0
M  V30 2230 N 215.803 -1.52179 -0.40978 0
M  V30 2231 C 217.052 -1.65434 -1.15388 0
M  V30 2232 C 217.365 -0.390056 -1.91671 0
M  V30 2233 O 218.571 -0.402399 -2.68501 0
M  V30 2234 C 217.027 -2.92279 -2.10003 0
M  V30 2235 C 216.635 -4.25813 -1.39239 0
M  V30 2236 C 218.379 -3.14897 -2.84675 0
M  V30 2237 C 216.286 -5.43782 -2.32498 0
M  V30 2238 H 215.216 -0.616267 -0.434432 0
M  V30 2239 H 217.867 -1.78666 -0.418401 0
M  V30 2240 H 216.249 -2.72744 -2.871 0
M  V30 2241 H 217.423 -4.55828 -0.675099 0
M  V30 2242 H 215.738 -4.09292 -0.766097 0
M  V30 2243 H 218.335 -4.0021 -3.54593 0
M  V30 2244 H 218.678 -2.29103 -3.47588 0
M  V30 2245 H 219.211 -3.34901 -2.14677 0
M  V30 2246 H 215.95 -6.3192 -1.74233 0
M  V30 2247 H 215.47 -5.18106 -3.02201 0
M  V30 2248 H 217.149 -5.76834 -2.93038 0
M  V30 2249 N 217.281 0.66697 -1.42791 0
M  V30 2250 C 218.558 1.4234 -1.34159 0
M  V30 2251 C 218.938 2.11093 0.0172729 0
M  V30 2252 O 218.286 2.03808 1.03318 0
M  V30 2253 C 218.496 2.41942 -2.51526 0
M  V30 2254 C 219.844 3.06353 -2.93995 0
M  V30 2255 O 220.868 2.52269 -2.51473 0
M  V30 2256 O 219.727 4.04376 -3.67617 0
M  V30 2257 H 216.821 0.635277 -0.529483 0
M  V30 2258 H 219.367 0.695034 -1.54814 0
M  V30 2259 H 218.139 1.89991 -3.42081 0
M  V30 2260 H 217.762 3.22249 -2.32898 0
M  V30 2261 N 218.759 1.29093 0.90403 0
M  V30 2262 C 219.722 1.1386 1.98919 0
M  V30 2263 C 220.722 0.0753457 1.60623 0
M  V30 2264 O 221.912 0.321931 1.71199 0
M  V30 2265 C 219.044 0.740198 3.32767 0
M  V30 2266 H 220.237 2.10246 2.13861 0
M  V30 2267 H 217.79 1.12218 1.08797 0
M  V30 2268 H 218.525 -0.223997 3.23525 0
M  V30 2269 H 218.31 1.50838 3.61926 0
M  V30 2270 H 219.8 0.656546 4.12407 0
M  V30 2271 N 220.237 -1.11381 1.11499 0
M  V30 2272 C 221.653 -1.35143 0.849031 0
M  V30 2273 C 221.853 -1.94515 -0.525938 0
M  V30 2274 O 220.909 -2.1785 -1.27662 0
M  V30 2275 C 222.222 -2.28249 1.95762 0
M  V30 2276 C 223.77 -2.41812 1.98736 0
M  V30 2277 C 224.245 -3.3824 3.088 0
M  V30 2278 N 225.736 -3.45803 3.08179 0
M  V30 2279 C 226.471 -4.20358 3.89982 0
M  V30 2280 N 225.967 -4.97884 4.8175 0
M  V30 2281 N 227.76 -4.15877 3.78157 0
M  V30 2282 H 219.911 -0.712062 2.00109 0
M  V30 2283 H 222.174 -0.376025 0.870235 0
M  V30 2284 H 221.88 -1.91817 2.94787 0
M  V30 2285 H 221.754 -3.28473 1.85433 0
M  V30 2286 H 224.141 -2.77518 1.00338 0
M  V30 2287 H 224.222 -1.41437 2.13141 0
M  V30 2288 H 223.866 -3.03261 4.07425 0
M  V30 2289 H 223.796 -4.38471 2.91635 0
M  V30 2290 H 226.287 -2.90506 2.41691 0
M  V30 2291 H 226.6 -5.52142 5.40702 0
M  V30 2292 H 224.945 -4.97043 4.85771 0
M  V30 2293 H 228.136 -3.544 3.05808 0
M  V30 2294 H 228.309 -4.73723 4.42143 0
M  V30 2295 N 221.715 -0.905404 -1.28997 0
M  V30 2296 C 222.961 -0.535039 -1.95615 0
M  V30 2297 C 223.294 0.917404 -1.71165 0
M  V30 2298 O 222.569 1.65123 -1.02785 0
M  V30 2299 C 222.852 -0.834918 -3.50287 0
M  V30 2300 C 222.705 -2.33948 -3.84172 0
M  V30 2301 C 224.024 -0.325318 -4.38896 0
M  V30 2302 H 221.143 -0.195861 -0.710498 0
M  V30 2303 H 223.785 -1.13313 -1.52513 0
M  V30 2304 H 221.935 -0.325904 -3.87131 0
M  V30 2305 H 223.607 -2.91847 -3.57243 0
M  V30 2306 H 221.85 -2.79789 -3.31513 0
M  V30 2307 H 222.521 -2.49987 -4.92149 0
M  V30 2308 H 224.997 -0.761256 -4.09077 0
M  V30 2309 H 223.873 -0.564295 -5.45992 0
M  V30 2310 H 224.134 0.774144 -4.35269 0
M  V30 2311 N 223.193 1.4272 -0.668489 0
M  V30 2312 C 224.441 2.01226 -0.187769 0
M  V30 2313 C 224.762 1.53092 1.2078 0
M  V30 2314 O 224.032 0.74993 1.80977 0
M  V30 2315 H 222.612 0.744041 -0.0664272 0
M  V30 2316 H 225.274 1.74723 -0.863583 0
M  V30 2317 H 224.37 3.11556 -0.184166 0
M  V30 2318 N 224.671 0.411399 1.52136 0
M  V30 2319 C 225.619 -0.427633 2.28635 0
M  V30 2320 C 226.613 -1.04383 1.33419 0
M  V30 2321 O 227.819 -0.981772 1.50868 0
M  V30 2322 H 224.194 -0.156689 0.735495 0
M  V30 2323 H 226.165 0.238761 2.97443 0
M  V30 2324 C 224.914 -1.53082 3.12188 0
M  V30 2325 H 224.237 -1.06601 3.85326 0
M  V30 2326 H 225.677 -2.09167 3.68816 0
M  V30 2327 C 224.136 -2.49946 2.25895 0
M  V30 2328 O 224.666 -3.53884 1.90076 0
M  V30 2329 N 222.872 -2.2021 1.8962 0
M  V30 2330 H 222.419 -1.35719 2.18948 0
M  V30 2331 H 222.377 -2.85266 1.32176 0
M  V30 2332 N 226.149 -1.5696 0.141893 0
M  V30 2333 C 227.079 -2.19516 -0.795936 0
M  V30 2334 C 228.06 -1.14187 -1.26077 0
M  V30 2335 O 229.245 -1.42511 -1.31925 0
M  V30 2336 C 226.375 -2.81272 -2.03723 0
M  V30 2337 C 225.329 -3.92384 -1.70936 0
M  V30 2338 C 224.655 -4.41052 -3.02287 0
M  V30 2339 C 225.955 -5.13403 -0.959954 0
M  V30 2340 H 227.649 -2.98138 -0.274596 0
M  V30 2341 H 225.195 -1.43406 -0.130636 0
M  V30 2342 H 227.148 -3.237 -2.69808 0
M  V30 2343 H 225.872 -1.99973 -2.58221 0
M  V30 2344 H 224.531 -3.50566 -1.07232 0
M  V30 2345 H 224.179 -3.56582 -3.54765 0
M  V30 2346 H 223.879 -5.15993 -2.81114 0
M  V30 2347 H 225.403 -4.86146 -3.69451 0
M  V30 2348 H 226.817 -5.52706 -1.52279 0
M  V30 2349 H 225.214 -5.94073 -0.848357 0
M  V30 2350 H 226.284 -4.84875 0.0492434 0
M  V30 2351 N 227.627 0.131896 -1.57047 0
M  V30 2352 C 228.874 0.841932 -1.84168 0
M  V30 2353 C 229.202 1.8048 -0.725066 0
M  V30 2354 O 228.457 1.93618 0.284692 0
M  V30 2355 C 228.756 1.63703 -3.17704 0
M  V30 2356 C 228.422 0.81961 -4.43388 0
M  V30 2357 C 227.084 0.594148 -4.77518 0
M  V30 2358 C 229.436 0.248977 -5.20605 0
M  V30 2359 C 226.764 -0.212409 -5.86315 0
M  V30 2360 C 229.116 -0.544701 -6.30251 0
M  V30 2361 C 227.78 -0.780599 -6.6292 0
M  V30 2362 H 227.05 0.308085 -0.673917 0
M  V30 2363 H 229.697 0.104867 -1.91213 0
M  V30 2364 H 228.002 2.44464 -3.06177 0
M  V30 2365 H 229.699 2.19015 -3.35907 0
M  V30 2366 H 226.289 1.00542 -4.16641 0
M  V30 2367 H 230.473 0.410408 -4.946 0
M  V30 2368 H 225.729 -0.404524 -6.1006 0
M  V30 2369 H 229.903 -0.993922 -6.89271 0
M  V30 2370 H 227.53 -1.40742 -7.47058 0
M  V30 2371 N 229.106 1.52395 0.401703 0
M  V30 2372 C 230.331 1.70972 1.17403 0
M  V30 2373 C 230.756 0.421615 1.83314 0
M  V30 2374 O 230.114 -0.621564 1.70312 0
M  V30 2375 C 230.162 2.85151 2.20728 0
M  V30 2376 O 229.266 2.51238 3.27037 0
M  V30 2377 H 228.607 0.568927 0.342372 0
M  V30 2378 H 231.137 1.99131 0.469891 0
M  V30 2379 H 231.147 3.10279 2.64936 0
M  V30 2380 H 229.822 3.78603 1.7214 0
M  V30 2381 H 228.399 2.36808 2.88057 0
M  V30 2382 N 230.584 -0.659388 1.43143 0
M  V30 2383 C 231.547 -1.75432 1.47501 0
M  V30 2384 C 232.547 -1.56707 0.360512 0
M  V30 2385 O 233.737 -1.62717 0.622002 0
M  V30 2386 C 230.869 -3.14239 1.32162 0
M  V30 2387 H 232.062 -1.7295 2.45006 0
M  V30 2388 H 229.615 -0.870469 1.29817 0
M  V30 2389 H 230.35 -3.22336 0.356401 0
M  V30 2390 H 230.135 -3.29235 2.12948 0
M  V30 2391 H 231.625 -3.94094 1.3813 0
M  V30 2392 N 232.062 -1.29571 -0.897171 0
M  V30 2393 C 233.339 -1.08365 -1.62839 0
M  V30 2394 C 233.719 0.371331 -2.07808 0
M  V30 2395 O 233.067 1.3606 -1.83576 0
M  V30 2396 C 233.277 -2.0735 -2.80726 0
M  V30 2397 C 234.625 -2.38406 -3.51351 0
M  V30 2398 O 235.649 -2.05564 -2.90898 0
M  V30 2399 O 234.508 -2.9453 -4.60341 0
M  V30 2400 H 231.602 -0.415345 -0.715134 0
M  V30 2401 H 234.148 -1.40952 -0.945018 0
M  V30 2402 H 232.92 -3.05339 -2.44711 0
M  V30 2403 H 232.543 -1.75507 -3.56767 0
M  V30 2404 N 233.54 1.10788 -1.12088 0
M  V30 2405 C 234.47 2.19083 -0.807755 0
M  V30 2406 C 235.451 1.6858 0.226859 0
M  V30 2407 O 236.636 1.93997 0.0888475 0
M  V30 2408 C 233.766 3.46344 -0.257576 0
M  V30 2409 C 232.72 4.101 -1.22483 0
M  V30 2410 C 232.046 5.32016 -0.535052 0
M  V30 2411 C 233.346 4.54236 -2.57811 0
M  V30 2412 H 235.04 2.45534 -1.71328 0
M  V30 2413 H 232.586 1.1801 -0.825205 0
M  V30 2414 H 234.539 4.21392 -0.0262679 0
M  V30 2415 H 233.263 3.19373 0.683278 0
M  V30 2416 H 231.922 3.37054 -1.44189 0
M  V30 2417 H 231.57 5.01319 0.410827 0
M  V30 2418 H 231.27 5.75625 -1.18024 0
M  V30 2419 H 232.794 6.09799 -0.312695 0
M  V30 2420 H 234.208 5.20575 -2.40155 0
M  V30 2421 H 232.605 5.08682 -3.18375 0
M  V30 2422 H 233.675 3.6734 -3.16528 0
M  V30 2423 N 235.018 0.912232 1.28515 0
M  V30 2424 C 236.265 0.544599 1.95039 0
M  V30 2425 C 236.593 -0.911435 1.71823 0
M  V30 2426 O 235.848 -1.66317 1.03137 0
M  V30 2427 C 236.147 0.798392 3.48368 0
M  V30 2428 C 235.813 2.23374 3.91682 0
M  V30 2429 C 234.475 2.62617 4.03219 0
M  V30 2430 C 236.827 3.16786 4.13879 0
M  V30 2431 C 234.155 3.94429 4.3433 0
M  V30 2432 C 236.507 4.48161 4.46469 0
M  V30 2433 C 235.171 4.8726 4.56217 0
M  V30 2434 H 234.441 0.199283 0.7137 0
M  V30 2435 H 237.088 1.15327 1.52879 0
M  V30 2436 H 235.393 0.106908 3.91654 0
M  V30 2437 H 237.09 0.493141 3.97956 0
M  V30 2438 H 233.68 1.91922 3.83228 0
M  V30 2439 H 237.864 2.87677 4.0442 0
M  V30 2440 H 233.12 4.24426 4.40082 0
M  V30 2441 H 237.294 5.20559 4.62592 0
M  V30 2442 H 234.921 5.89431 4.80078 0
M  V30 2443 N 236.496 -1.42363 0.676048 0
M  V30 2444 C 237.726 -2.05561 0.206967 0
M  V30 2445 C 238.134 -1.50887 -1.14148 0
M  V30 2446 O 237.477 -0.643933 -1.72044 0
M  V30 2447 C 237.539 -3.5944 0.0659508 0
M  V30 2448 C 237.203 -4.36812 1.34331 0
M  V30 2449 C 238.2 -4.67383 2.27704 0
M  V30 2450 C 235.885 -4.76429 1.59125 0
M  V30 2451 C 237.879 -5.36509 3.44147 0
M  V30 2452 C 235.566 -5.45294 2.75857 0
M  V30 2453 C 236.564 -5.75259 3.68193 0
M  V30 2454 O 236.252 -6.42712 4.82883 0
M  V30 2455 H 235.984 -0.668872 0.0979084 0
M  V30 2456 H 238.538 -1.83467 0.923531 0
M  V30 2457 H 236.768 -3.80197 -0.706204 0
M  V30 2458 H 238.457 -4.0427 -0.363418 0
M  V30 2459 H 239.223 -4.37275 2.09799 0
M  V30 2460 H 235.102 -4.52498 0.881258 0
M  V30 2461 H 238.646 -5.59814 4.16238 0
M  V30 2462 H 234.543 -5.7482 2.93688 0
M  V30 2463 H 235.311 -6.61204 4.82444 0
M  V30 2464 N 237.974 -0.419461 -1.51915 0
M  V30 2465 C 239.199 0.154572 -2.06823 0
M  V30 2466 C 239.624 1.3722 -1.28656 0
M  V30 2467 O 238.982 1.78461 -0.319583 0
M  V30 2468 C 239.03 0.473172 -3.57482 0
M  V30 2469 O 238.134 1.56255 -3.81652 0
M  V30 2470 H 237.475 0.0096924 -0.663929 0
M  V30 2471 H 240.005 -0.595642 -1.95738 0
M  V30 2472 H 240.015 0.728825 -4.01438 0
M  V30 2473 H 238.69 -0.416873 -4.13805 0
M  V30 2474 H 237.267 1.29825 -3.49571 0
M  V30 2475 N 239.452 1.56882 -0.150215 0
M  V30 2476 C 240.863 1.82995 0.370076 0
M  V30 2477 C 241.214 1.06907 1.64515 0
M  V30 2478 O 240.339 0.315369 2.1409 0
M  V30 2479 C 240.934 3.31942 0.678208 0
M  V30 2480 C 239.493 3.58625 1.14301 0
M  V30 2481 C 238.64 2.76792 0.167778 0
M  V30 2482 H 241.591 1.54209 -0.374858 0
M  V30 2483 H 241.612 3.48272 1.53254 0
M  V30 2484 H 241.124 3.87294 -0.249991 0
M  V30 2485 H 239.225 3.08664 2.08704 0
M  V30 2486 H 239.338 4.67073 1.06676 0
M  V30 2487 H 237.702 2.45972 0.661037 0
M  V30 2488 H 238.485 3.34916 -0.754069 0
M  V30 2489 N 240.93 -0.123565 1.57115 0
M  V30 2490 C 242.207 -0.862196 1.75572 0
M  V30 2491 C 242.587 -1.98279 0.724475 0
M  V30 2492 O 241.935 -2.27102 -0.252407 0
M  V30 2493 C 242.145 -1.38309 3.20424 0
M  V30 2494 C 243.493 -1.83724 3.82793 0
M  V30 2495 O 244.517 -1.47999 3.23998 0
M  V30 2496 O 243.376 -2.49685 4.86127 0
M  V30 2497 H 240.47 -0.409113 0.718718 0
M  V30 2498 H 243.016 -0.107661 1.69358 0
M  V30 2499 H 241.788 -0.578889 3.86994 0
M  V30 2500 H 241.411 -2.20046 3.31158 0
M  V30 2501 N 242.408 -1.52605 -0.393616 0
M  V30 2502 C 243.656 -1.67093 -1.13685 0
M  V30 2503 C 243.977 -0.411011 -1.90619 0
M  V30 2504 O 243.247 0.574491 -1.87287 0
M  V30 2505 H 241.827 -0.615923 -0.422668 0
M  V30 2506 H 244.489 -1.89704 -0.447039 0
M  V30 2507 H 243.585 -2.51922 -1.84232 0
M  V30 2508 N 243.887 0.651787 -1.4349 0
M  V30 2509 C 244.797 1.79368 -1.5121 0
M  V30 2510 C 245.813 1.69361 -0.399093 0
M  V30 2511 O 246.989 1.90505 -0.653431 0
M  V30 2512 C 244.054 3.15653 -1.43401 0
M  V30 2513 C 243.115 3.37446 -2.65384 0
M  V30 2514 C 242.348 4.67229 -2.57939 0
M  V30 2515 O 242.571 5.46676 -1.62792 0
M  V30 2516 O 241.505 4.90773 -3.48462 0
M  V30 2517 H 245.331 1.7581 -2.47638 0
M  V30 2518 H 242.916 0.810447 -1.25507 0
M  V30 2519 H 244.798 3.96935 -1.41494 0
M  V30 2520 H 243.473 3.19798 -0.501085 0
M  V30 2521 H 242.38 2.55923 -2.72863 0
M  V30 2522 H 243.713 3.38148 -3.57654 0
M  V30 2523 N 245.365 1.30045 0.890287 0
M  V30 2524 C 246.298 1.10301 1.99772 0
M  V30 2525 C 247.276 0.0121631 1.62595 0
M  V30 2526 O 248.46 0.16469 1.87779 0
M  V30 2527 C 245.587 0.681125 3.31781 0
M  V30 2528 C 244.633 1.77206 3.87944 0
M  V30 2529 S 245.466 3.37335 4.15891 0
M  V30 2530 C 246.622 2.97036 5.50927 0
M  V30 2531 H 246.855 2.04057 2.16213 0
M  V30 2532 H 244.388 1.14299 1.03804 0
M  V30 2533 H 246.346 0.444439 4.08087 0
M  V30 2534 H 245.007 -0.236981 3.13205 0
M  V30 2535 H 244.2 1.42903 4.83316 0
M  V30 2536 H 243.802 1.96275 3.18358 0
M  V30 2537 H 246.094 2.44666 6.31779 0
M  V30 2538 H 247.037 3.91296 5.90164 0
M  V30 2539 H 247.445 2.35057 5.13233 0
M  V30 2540 N 246.843 -1.10192 1.12674 0
M  V30 2541 C 248.09 -1.82205 0.883606 0
M  V30 2542 C 248.418 -1.8532 -0.590492 0
M  V30 2543 O 247.673 -1.31137 -1.45264 0
M  V30 2544 C 247.972 -3.28552 1.4067 0
M  V30 2545 C 247.638 -3.45582 2.89627 0
M  V30 2546 C 246.3 -3.49937 3.30299 0
M  V30 2547 C 248.652 -3.50768 3.85501 0
M  V30 2548 C 245.98 -3.57049 4.65546 0
M  V30 2549 C 248.332 -3.59414 5.20581 0
M  V30 2550 C 246.996 -3.62034 5.60792 0
M  V30 2551 H 246.266 -0.666735 0.323334 0
M  V30 2552 H 248.913 -1.29868 1.40736 0
M  V30 2553 H 247.218 -3.83473 0.80347 0
M  V30 2554 H 248.915 -3.82788 1.19475 0
M  V30 2555 H 245.505 -3.42871 2.57172 0
M  V30 2556 H 249.689 -3.46651 3.55171 0
M  V30 2557 H 244.945 -3.57361 4.96088 0
M  V30 2558 H 249.119 -3.62371 5.94693 0
M  V30 2559 H 246.746 -3.67298 6.6558 0
M  V30 2560 N 248.321 -0.919034 -1.28029 0
M  V30 2561 C 249.598 -0.473668 -1.89778 0
M  V30 2562 C 249.978 1.04783 -1.83259 0
M  V30 2563 O 249.326 1.8982 -1.27202 0
M  V30 2564 C 249.536 -1.00998 -3.34066 0
M  V30 2565 C 250.884 -1.06525 -4.1102 0
M  V30 2566 O 251.908 -0.958996 -3.43048 0
M  V30 2567 O 250.767 -1.22776 -5.3253 0
M  V30 2568 H 247.861 -0.15098 -0.813101 0
M  V30 2569 H 250.407 -1.01016 -1.36359 0
M  V30 2570 H 249.179 -2.05392 -3.33061 0
M  V30 2571 H 248.802 -0.454626 -3.94992 0
M  V30 2572 N 249.799 1.42003 -0.683588 0
M  V30 2573 C 251.045 2.01712 -0.209825 0
M  V30 2574 C 251.378 1.53968 1.18353 0
M  V30 2575 O 250.653 0.745661 1.79639 0
M  V30 2576 C 250.936 3.59202 -0.254197 0
M  V30 2577 C 250.789 4.17102 -1.68363 0
M  V30 2578 C 252.108 4.38344 0.392709 0
M  V30 2579 H 249.227 0.732891 -0.0777189 0
M  V30 2580 H 251.869 1.68909 -0.87004 0
M  V30 2581 H 250.019 3.87278 0.307954 0
M  V30 2582 H 251.691 3.99946 -2.29871 0
M  V30 2583 H 249.934 3.72597 -2.22157 0
M  V30 2584 H 250.605 5.26249 -1.6663 0
M  V30 2585 H 253.081 4.16011 -0.0859162 0
M  V30 2586 H 251.957 5.47901 0.331063 0
M  V30 2587 H 252.218 4.16887 1.47164 0
M  V30 2588 N 251.277 0.427512 1.51691 0
M  V30 2589 C 252.21 -0.433876 2.24037 0
M  V30 2590 C 253.188 -1.03287 1.25581 0
M  V30 2591 O 254.372 -1.07722 1.54688 0
M  V30 2592 C 251.499 -1.60385 2.98319 0
M  V30 2593 C 250.545 -1.12648 4.11355 0
M  V30 2594 S 251.378 -0.076543 5.35445 0
M  V30 2595 C 252.534 -1.25141 6.13262 0
M  V30 2596 H 252.767 0.180367 2.96752 0
M  V30 2597 H 250.3 0.211946 1.52938 0
M  V30 2598 H 252.258 -2.27462 3.41718 0
M  V30 2599 H 250.919 -2.18948 2.25213 0
M  V30 2600 H 250.112 -2.0011 4.62571 0
M  V30 2601 H 249.714 -0.534088 3.70167 0
M  V30 2602 H 252.006 -2.17162 6.41753 0
M  V30 2603 H 252.949 -0.779411 7.03797 0
M  V30 2604 H 253.357 -1.48553 5.44603 0
M  V30 2605 N 252.755 -1.56801 0.158532 0
M  V30 2606 C 253.665 -2.20916 -0.789518 0
M  V30 2607 C 254.681 -1.1969 -1.26294 0
M  V30 2608 O 255.857 -1.52308 -1.31773 0
M  V30 2609 C 252.922 -2.82727 -2.00665 0
M  V30 2610 C 251.983 -3.99114 -1.58134 0
M  V30 2611 C 251.216 -4.57968 -2.74045 0
M  V30 2612 O 251.439 -4.15704 -3.90572 0
M  V30 2613 O 250.373 -5.48047 -2.48855 0
M  V30 2614 H 254.199 -3.02464 -0.273681 0
M  V30 2615 H 251.784 -1.4924 -0.0690548 0
M  V30 2616 H 253.666 -3.21968 -2.71872 0
M  V30 2617 H 252.341 -2.04184 -2.51179 0
M  V30 2618 H 251.248 -3.64567 -0.839155 0
M  V30 2619 H 252.581 -4.79212 -1.12325 0
M  V30 2620 N 254.233 0.115231 -1.57178 0
M  V30 2621 C 255.18 1.14115 -2.00615 0
M  V30 2622 C 256.15 1.40939 -0.878941 0
M  V30 2623 O 257.335 1.52741 -1.14345 0
M  V30 2624 C 254.475 2.46156 -2.4187 0
M  V30 2625 C 253.588 2.26236 -3.68024 0
M  V30 2626 C 252.723 3.51534 -3.98243 0
M  V30 2627 C 251.762 3.26787 -5.17568 0
M  V30 2628 N 250.899 4.44298 -5.43639 0
M  V30 2629 H 255.739 0.763743 -2.88047 0
M  V30 2630 H 253.276 0.365615 -1.42484 0
M  V30 2631 H 255.234 3.23189 -2.63827 0
M  V30 2632 H 253.864 2.81783 -1.57475 0
M  V30 2633 H 252.916 1.40102 -3.5366 0
M  V30 2634 H 254.228 2.03929 -4.55208 0
M  V30 2635 H 253.382 4.36984 -4.20868 0
M  V30 2636 H 252.121 3.76876 -3.09541 0
M  V30 2637 H 251.126 2.39729 -4.94783 0
M  V30 2638 H 252.351 3.02812 -6.0785 0
M  V30 2639 H 250.297 4.69754 -4.57895 0
M  V30 2640 H 250.214 4.25109 -6.25154 0
M  V30 2641 H 251.482 5.3087 -5.70786 0
M  V30 2642 N 255.711 1.52812 0.385517 0
M  V30 2643 C 256.941 1.71658 1.14966 0
M  V30 2644 C 257.349 0.436253 1.84102 0
M  V30 2645 O 256.692 -0.599313 1.73649 0
M  V30 2646 C 256.754 2.81309 2.23843 0
M  V30 2647 C 256.418 4.22313 1.74644 0
M  V30 2648 C 257.415 5.05352 1.22129 0
M  V30 2649 C 255.1 4.68648 1.80761 0
M  V30 2650 C 257.094 6.32807 0.763838 0
M  V30 2651 C 254.781 5.96086 1.34627 0
M  V30 2652 C 255.779 6.77996 0.825264 0
M  V30 2653 O 255.467 8.03045 0.370669 0
M  V30 2654 H 255.199 0.578022 0.350523 0
M  V30 2655 H 257.753 2.00263 0.456509 0
M  V30 2656 H 255.983 2.48133 2.96592 0
M  V30 2657 H 257.672 2.88524 2.85497 0
M  V30 2658 H 258.438 4.70736 1.16758 0
M  V30 2659 H 254.317 4.04979 2.20256 0
M  V30 2660 H 257.861 6.96689 0.356494 0
M  V30 2661 H 253.758 6.30205 1.39686 0
M  V30 2662 H 254.526 8.17021 0.491829 0
M  V30 2663 N 257.189 -0.644168 1.43834 0
M  V30 2664 C 258.437 -1.40117 1.45642 0
M  V30 2665 C 258.758 -1.94814 0.0852413 0
M  V30 2666 O 258.028 -1.74988 -0.880688 0
M  V30 2667 H 256.608 -0.52005 0.536243 0
M  V30 2668 H 259.27 -0.7591 1.7951 0
M  V30 2669 H 258.366 -2.23902 2.17427 0
M  V30 2670 N 258.668 -1.30515 -0.883378 0
M  V30 2671 C 259.917 -1.18795 -1.63005 0
M  V30 2672 C 260.23 0.255923 -1.93919 0
M  V30 2673 O 261.436 0.494654 -2.66956 0
M  V30 2674 C 259.892 -2.07878 -2.93794 0
M  V30 2675 C 259.5 -3.57184 -2.70414 0
M  V30 2676 C 261.244 -2.04924 -3.71761 0
M  V30 2677 C 259.151 -4.38317 -3.97029 0
M  V30 2678 H 258.081 -0.441031 -0.611562 0
M  V30 2679 H 260.732 -1.55275 -0.977854 0
M  V30 2680 H 259.114 -1.64283 -3.60315 0
M  V30 2681 H 260.288 -4.08937 -2.12384 0
M  V30 2682 H 258.603 -3.61976 -2.0582 0
M  V30 2683 H 261.2 -2.62792 -4.65665 0
M  V30 2684 H 261.543 -1.0331 -4.03277 0
M  V30 2685 H 262.076 -2.46649 -3.12104 0
M  V30 2686 H 258.815 -5.40632 -3.70671 0
M  V30 2687 H 258.335 -3.91326 -4.54559 0
M  V30 2688 H 260.014 -4.49834 -4.65036 0
M  V30 2689 N 260.146 1.09593 -1.13257 0
M  V30 2690 C 261.076 2.18214 -0.830946 0
M  V30 2691 C 262.057 1.68812 0.208966 0
M  V30 2692 O 263.242 1.9408 0.0682666 0
M  V30 2693 C 260.372 3.46051 -0.294296 0
M  V30 2694 C 259.326 4.08778 -1.26826 0
M  V30 2695 C 258.652 5.31419 -0.591449 0
M  V30 2696 C 259.952 4.51476 -2.62615 0
M  V30 2697 H 261.646 2.43703 -1.73923 0
M  V30 2698 H 259.192 1.17128 -0.837675 0
M  V30 2699 H 261.145 4.2134 -0.0709606 0
M  V30 2700 H 259.869 3.20079 0.649366 0
M  V30 2701 H 258.528 3.35505 -1.47756 0
M  V30 2702 H 258.176 5.01727 0.357633 0
M  V30 2703 H 257.876 5.74341 -1.24123 0
M  V30 2704 H 259.4 6.09433 -0.377355 0
M  V30 2705 H 260.814 5.17999 -2.45663 0
M  V30 2706 H 259.211 5.05277 -3.23752 0
M  V30 2707 H 260.281 3.63962 -3.20406 0
M  V30 2708 N 261.624 0.925811 1.2754 0
M  V30 2709 C 262.872 0.564138 1.94067 0
M  V30 2710 C 263.193 -0.897188 1.73134 0
M  V30 2711 O 262.463 -1.63573 1.07799 0
M  V30 2712 H 261.043 0.205645 0.718136 0
M  V30 2713 H 263.705 1.1778 1.55287 0
M  V30 2714 H 262.801 0.76881 3.02483 0
M  V30 2715 N 263.102 -1.41638 0.69111 0
M  V30 2716 C 264.348 -2.01598 0.220519 0
M  V30 2717 C 264.681 -1.54594 -1.17535 0
M  V30 2718 O 263.956 -0.755177 -1.79241 0
M  V30 2719 C 264.239 -3.59062 0.273243 0
M  V30 2720 C 264.092 -4.16203 1.70573 0
M  V30 2721 C 265.411 -4.38546 -0.369457 0
M  V30 2722 H 262.53 -0.732468 0.0816045 0
M  V30 2723 H 265.172 -1.68445 0.878986 0
M  V30 2724 H 263.322 -3.87435 -0.287411 0
M  V30 2725 H 264.994 -3.98722 2.31989 0
M  V30 2726 H 263.237 -3.71414 2.2413 0
M  V30 2727 H 263.908 -5.25358 1.69419 0
M  V30 2728 H 266.384 -4.1596 0.107977 0
M  V30 2729 H 265.26 -5.48069 -0.302002 0
M  V30 2730 H 265.521 -4.17662 -1.44951 0
M  V30 2731 N 264.58 -0.43555 -1.51462 0
M  V30 2732 C 265.49 0.383001 -2.31453 0
M  V30 2733 C 266.506 1.02931 -1.4029 0
M  V30 2734 O 267.682 1.02507 -1.73362 0
M  V30 2735 C 264.747 1.47043 -3.13973 0
M  V30 2736 C 263.808 0.844433 -4.20913 0
M  V30 2737 C 263.041 1.88004 -4.9949 0
M  V30 2738 O 263.264 3.10199 -4.78678 0
M  V30 2739 O 262.198 1.47157 -5.83634 0
M  V30 2740 H 266.024 -0.269964 -3.02498 0
M  V30 2741 H 263.609 -0.19813 -1.4808 0
M  V30 2742 H 265.491 2.10113 -3.65281 0
M  V30 2743 H 264.166 2.10751 -2.45695 0
M  V30 2744 H 263.073 0.175729 -3.73687 0
M  V30 2745 H 264.406 0.250869 -4.9156 0
M  V30 2746 N 266.058 1.56714 -0.166846 0
M  V30 2747 C 266.991 2.13577 0.80375 0
M  V30 2748 C 267.969 1.06464 1.22899 0
M  V30 2749 O 269.153 1.34413 1.32157 0
M  V30 2750 C 266.28 2.67168 2.0818 0
M  V30 2751 C 265.326 3.86612 1.80093 0
M  V30 2752 S 266.159 5.26565 0.97416 0
M  V30 2753 C 267.315 5.83558 2.26297 0
M  V30 2754 H 267.548 2.9557 0.320267 0
M  V30 2755 H 265.081 1.54326 0.0477555 0
M  V30 2756 H 267.039 2.98692 2.8159 0
M  V30 2757 H 265.7 1.85269 2.53642 0
M  V30 2758 H 264.893 4.22422 2.7491 0
M  V30 2759 H 264.495 3.55951 1.14781 0
M  V30 2760 H 266.787 5.962 3.21795 0
M  V30 2761 H 267.73 6.80731 1.94962 0
M  V30 2762 H 268.138 5.11944 2.37853 0
M  V30 2763 N 267.536 -0.106894 1.57237 0
M  V30 2764 C 268.446 -1.14911 2.0453 0
M  V30 2765 C 269.462 -1.44592 0.96795 0
M  V30 2766 O 270.638 -1.55468 1.2803 0
M  V30 2767 C 267.703 -2.45272 2.45036 0
M  V30 2768 C 266.764 -2.22879 3.66911 0
M  V30 2769 C 265.997 -3.47024 4.05475 0
M  V30 2770 O 266.22 -4.54804 3.44252 0
M  V30 2771 O 265.154 -3.3731 4.98504 0
M  V30 2772 H 268.98 -0.777461 2.9358 0
M  V30 2773 H 266.565 -0.318563 1.45964 0
M  V30 2774 H 268.447 -3.22055 2.71769 0
M  V30 2775 H 267.122 -2.81886 1.59129 0
M  V30 2776 H 266.029 -1.43915 3.45311 0
M  V30 2777 H 267.362 -1.91163 4.53561 0
M  V30 2778 N 269.014 -1.53014 -0.377408 0
M  V30 2779 C 269.977 -1.77957 -1.44444 0
M  V30 2780 C 270.977 -0.649763 -1.47087 0
M  V30 2781 O 272.167 -0.917897 -1.48055 0
M  V30 2782 C 269.299 -1.89089 -2.83651 0
M  V30 2783 H 270.492 -2.73243 -1.23606 0
M  V30 2784 H 268.045 -1.43912 -0.609844 0
M  V30 2785 H 268.78 -0.958293 -3.09818 0
M  V30 2786 H 268.565 -2.71254 -2.83132 0
M  V30 2787 H 270.055 -2.1002 -3.60945 0
M  V30 2788 N 270.492 0.636531 -1.44174 0
M  V30 2789 C 271.455 1.73063 -1.50273 0
M  V30 2790 C 272.455 1.56113 -0.385397 0
M  V30 2791 O 273.645 1.61707 -0.64781 0
M  V30 2792 C 270.777 3.12096 -1.37145 0
M  V30 2793 H 271.97 1.69031 -2.47727 0
M  V30 2794 H 269.523 0.849706 -1.31186 0
M  V30 2795 H 270.258 3.21728 -0.407636 0
M  V30 2796 H 270.043 3.25805 -2.18159 0
M  V30 2797 H 271.533 3.91846 -1.44382 0
M  V30 2798 N 271.97 1.30982 0.876444 0
M  V30 2799 C 273.218 1.20058 1.62575 0
M  V30 2800 C 273.539 -0.242947 1.93481 0
M  V30 2801 O 272.809 -1.1619 1.57724 0
M  V30 2802 H 271.389 0.44135 0.602677 0
M  V30 2803 H 274.051 1.64222 1.04962 0
M  V30 2804 H 273.147 1.76762 2.57219 0
M  V30 2805 N 273.449 -1.08991 1.13837 0
M  V30 2806 C 274.698 -1.80631 0.897509 0
M  V30 2807 C 275.011 -1.86872 -0.57777 0
M  V30 2808 O 276.217 -2.54866 -0.935701 0
M  V30 2809 C 274.673 -3.24517 1.55618 0
M  V30 2810 C 274.281 -3.26529 3.0673 0
M  V30 2811 C 276.025 -4.00882 1.3962 0
M  V30 2812 C 273.932 -4.64965 3.65461 0
M  V30 2813 H 272.862 -0.67691 0.332129 0
M  V30 2814 H 275.513 -1.2246 1.3666 0
M  V30 2815 H 273.895 -3.82778 1.01476 0
M  V30 2816 H 275.069 -2.78008 3.67489 0
M  V30 2817 H 273.384 -2.63656 3.22296 0
M  V30 2818 H 275.981 -5.03167 1.80906 0
M  V30 2819 H 276.324 -4.14896 0.341578 0
M  V30 2820 H 276.857 -3.49075 1.90766 0
M  V30 2821 H 273.596 -4.56153 4.70749 0
M  V30 2822 H 273.116 -5.13792 3.09481 0
M  V30 2823 H 274.795 -5.3394 3.654 0
M  V30 2824 N 274.927 -0.932562 -1.27047 0
M  V30 2825 C 276.157 -0.591173 -1.97961 0
M  V30 2826 C 276.565 0.836219 -1.69717 0
M  V30 2827 O 275.908 1.56801 -0.957036 0
M  V30 2828 C 275.97 -0.743082 -3.51736 0
M  V30 2829 C 275.634 -2.1435 -4.03613 0
M  V30 2830 C 276.631 -3.11815 -4.16014 0
M  V30 2831 C 274.316 -2.46175 -4.37839 0
M  V30 2832 C 276.31 -4.39211 -4.61923 0
M  V30 2833 C 273.997 -3.73806 -4.83438 0
M  V30 2834 C 274.995 -4.70137 -4.95439 0
M  V30 2835 O 274.683 -5.95496 -5.40037 0
M  V30 2836 H 274.415 -0.222375 -0.638377 0
M  V30 2837 H 276.969 -1.25317 -1.62742 0
M  V30 2838 H 275.199 -0.0239739 -3.86693 0
M  V30 2839 H 276.888 -0.40603 -4.03864 0
M  V30 2840 H 277.654 -2.88549 -3.89826 0
M  V30 2841 H 273.533 -1.71936 -4.27737 0
M  V30 2842 H 277.077 -5.14404 -4.71205 0
M  V30 2843 H 272.974 -3.96888 -5.09068 0
M  V30 2844 H 273.742 -5.98554 -5.58279 0
M  V30 2845 N 276.405 1.4127 -0.698611 0
M  V30 2846 C 277.653 2.00782 -0.230409 0
M  V30 2847 C 277.974 1.5562 1.17505 0
M  V30 2848 O 277.244 0.78815 1.79346 0
M  V30 2849 H 275.824 0.742464 -0.0821944 0
M  V30 2850 H 278.486 1.72852 -0.90045 0
M  V30 2851 H 277.582 3.11095 -0.25021 0
M  V30 2852 N 277.883 0.443576 1.51229 0
M  V30 2853 C 279.129 -0.120975 2.02439 0
M  V30 2854 C 279.462 -1.41815 1.32674 0
M  V30 2855 O 278.737 -1.89373 0.443622 0
M  V30 2856 C 279.02 -0.333291 3.58554 0
M  V30 2857 C 278.873 0.982968 4.38928 0
M  V30 2858 C 280.192 -1.10028 4.26124 0
M  V30 2859 H 277.311 -0.0424923 0.735774 0
M  V30 2860 H 279.953 0.583794 1.80809 0
M  V30 2861 H 278.103 -0.933614 3.77115 0
M  V30 2862 H 279.775 1.61775 4.32003 0
M  V30 2863 H 278.018 1.58611 4.03763 0
M  V30 2864 H 278.689 0.788379 5.46341 0
M  V30 2865 H 281.165 -0.591711 4.11871 0
M  V30 2866 H 280.041 -1.21761 5.35225 0
M  V30 2867 H 280.302 -2.12996 3.87408 0
M  V30 2868 N 279.361 -1.56624 0.175154 0
M  V30 2869 C 280.324 -2.16934 -0.739738 0
M  V30 2870 C 281.324 -1.11842 -1.15533 0
M  V30 2871 O 282.514 -1.37335 -1.07167 0
M  V30 2872 C 279.646 -2.75531 -2.00738 0
M  V30 2873 H 280.839 -2.99131 -0.214639 0
M  V30 2874 H 278.392 -1.56123 -0.0744197 0
M  V30 2875 H 279.127 -1.97078 -2.57548 0
M  V30 2876 H 278.912 -3.52444 -1.71831 0
M  V30 2877 H 280.402 -3.21904 -2.66021 0
M  V30 2878 N 280.839 0.0985539 -1.57292 0
M  V30 2879 C 281.802 1.10402 -2.00858 0
M  V30 2880 C 282.802 1.33146 -0.901593 0
M  V30 2881 O 283.992 1.29318 -1.16716 0
M  V30 2882 C 281.124 2.45394 -2.36632 0
M  V30 2883 H 282.317 0.729099 -2.90902 0
M  V30 2884 H 279.87 0.343495 -1.52479 0
M  V30 2885 H 280.605 2.87769 -1.49531 0
M  V30 2886 H 280.39 2.30235 -3.17387 0
M  V30 2887 H 281.88 3.17718 -2.71007 0
M  V30 2888 N 282.317 1.53212 0.369288 0
M  V30 2889 C 283.227 1.82342 1.47609 0
M  V30 2890 C 284.243 0.711532 1.58787 0
M  V30 2891 O 285.419 1.0012 1.74751 0
M  V30 2892 C 282.484 2.00393 2.8292 0
M  V30 2893 C 281.545 3.24297 2.81301 0
M  V30 2894 C 280.778 3.41478 4.10157 0
M  V30 2895 O 281.001 2.63033 5.06132 0
M  V30 2896 O 279.935 4.34817 4.16194 0
M  V30 2897 H 283.761 2.76366 1.25918 0
M  V30 2898 H 281.346 1.38547 0.559034 0
M  V30 2899 H 283.228 2.13859 3.63101 0
M  V30 2900 H 281.903 1.09559 3.04596 0
M  V30 2901 H 280.81 3.16257 1.99831 0
M  V30 2902 H 282.143 4.15041 2.64578 0
M  V30 2903 N 283.795 -0.628877 1.44509 0
M  V30 2904 C 285.042 -1.38839 1.47411 0
M  V30 2905 C 285.37 -1.94202 0.10757 0
M  V30 2906 O 284.625 -1.74243 -0.890947 0
M  V30 2907 C 284.924 -2.56995 2.48371 0
M  V30 2908 C 284.59 -2.19908 3.93639 0
M  V30 2909 C 283.252 -2.09506 4.33198 0
M  V30 2910 C 285.604 -1.9064 4.85083 0
M  V30 2911 C 282.932 -1.68028 5.62124 0
M  V30 2912 C 285.284 -1.50655 6.14399 0
M  V30 2913 C 283.948 -1.38796 6.5291 0
M  V30 2914 H 283.218 -0.508048 0.539414 0
M  V30 2915 H 285.865 -0.712913 1.77735 0
M  V30 2916 H 284.17 -3.29786 2.11538 0
M  V30 2917 H 285.867 -3.15223 2.47861 0
M  V30 2918 H 282.457 -2.28922 3.62343 0
M  V30 2919 H 286.641 -1.97585 4.55273 0
M  V30 2920 H 281.897 -1.57452 5.90778 0
M  V30 2921 H 286.071 -1.27048 6.84713 0
M  V30 2922 H 283.698 -1.06429 7.52713 0
M  V30 2923 N 285.273 -1.31445 -0.869486 0
M  V30 2924 C 286.521 -1.20918 -1.61936 0
M  V30 2925 C 286.842 0.232683 -1.93607 0
M  V30 2926 O 286.112 1.15352 -1.58338 0
M  V30 2927 H 284.692 -0.44454 -0.600328 0
M  V30 2928 H 287.354 -1.64776 -1.0409 0
M  V30 2929 H 286.45 -1.78124 -2.56278 0
M  V30 2930 N 286.751 1.08385 -1.14413 0
M  V30 2931 C 287.714 2.13486 -0.834048 0
M  V30 2932 C 288.714 1.59988 0.161418 0
M  V30 2933 O 289.904 1.74071 -0.0669575 0
M  V30 2934 C 287.036 3.4003 -0.243354 0
M  V30 2935 H 288.229 2.42425 -1.7655 0
M  V30 2936 H 285.782 1.24101 -0.950189 0
M  V30 2937 H 286.517 3.16726 0.696807 0
M  V30 2938 H 286.302 3.80157 -0.960367 0
M  V30 2939 H 287.792 4.17577 -0.0436242 0
M  V30 2940 N 288.23 0.939286 1.26551 0
M  V30 2941 C 289.177 0.446088 2.26448 0
M  V30 2942 C 290.147 -0.493234 1.58608 0
M  V30 2943 O 291.332 -0.409857 1.86346 0
M  V30 2944 C 288.472 -0.284375 3.43926 0
M  V30 2945 C 287.585 0.690399 4.26448 0
M  V30 2946 C 286.72 -0.0610712 5.31165 0
M  V30 2947 C 285.759 0.905649 6.05363 0
M  V30 2948 N 284.896 0.186055 7.01853 0
M  V30 2949 H 289.736 1.30291 2.68008 0
M  V30 2950 H 287.273 0.65371 1.31776 0
M  V30 2951 H 289.231 -0.724313 4.10864 0
M  V30 2952 H 287.861 -1.10535 3.03285 0
M  V30 2953 H 286.913 1.24885 3.59316 0
M  V30 2954 H 288.225 1.42873 4.779 0
M  V30 2955 H 287.379 -0.56038 6.04106 0
M  V30 2956 H 286.118 -0.832297 4.80546 0
M  V30 2957 H 285.123 1.4161 5.3125 0
M  V30 2958 H 286.348 1.67685 6.58072 0
M  V30 2959 H 284.294 -0.566714 6.53548 0
M  V30 2960 H 284.211 0.863752 7.51049 0
M  V30 2961 H 285.479 -0.292221 7.78952 0
M  V30 2962 N 289.708 -1.40897 0.706093 0
M  V30 2963 C 290.671 -2.29131 0.0562841 0
M  V30 2964 C 291.671 -1.44901 -0.697166 0
M  V30 2965 O 292.861 -1.65926 -0.530484 0
M  V30 2966 C 289.993 -3.27957 -0.93043 0
M  V30 2967 H 291.186 -2.88091 0.833284 0
M  V30 2968 H 288.739 -1.4906 0.470192 0
M  V30 2969 H 289.474 -2.73997 -1.73482 0
M  V30 2970 H 289.259 -3.90124 -0.393166 0
M  V30 2971 H 290.749 -3.94049 -1.38256 0
M  V30 2972 N 291.186 -0.45159 -1.50991 0
M  V30 2973 C 292.116 0.342898 -2.30969 0
M  V30 2974 C 293.097 1.00815 -1.37005 0
M  V30 2975 O 294.282 1.00907 -1.65926 0
M  V30 2976 C 291.412 1.43637 -3.16205 0
M  V30 2977 C 290.366 0.893818 -4.18563 0
M  V30 2978 C 289.692 2.08411 -4.92411 0
M  V30 2979 C 290.992 -0.0815568 -5.22236 0
M  V30 2980 H 292.686 -0.324556 -2.97636 0
M  V30 2981 H 290.232 -0.157531 -1.43136 0
M  V30 2982 H 292.185 1.9995 -3.70942 0
M  V30 2983 H 290.909 2.13232 -2.47386 0
M  V30 2984 H 289.568 0.352798 -3.64898 0
M  V30 2985 H 289.216 2.76658 -4.20082 0
M  V30 2986 H 288.916 1.72741 -5.61636 0
M  V30 2987 H 290.44 2.65251 -5.49976 0
M  V30 2988 H 291.854 0.391742 -5.7196 0
M  V30 2989 H 290.251 -0.351551 -5.99069 0
M  V30 2990 H 291.321 -1.01374 -4.74185 0
M  V30 2991 N 292.664 1.56529 -0.183458 0
M  V30 2992 C 293.892 2.01623 0.464285 0
M  V30 2993 C 294.307 1.06366 1.55986 0
M  V30 2994 O 293.664 0.0665398 1.82379 0
M  V30 2995 C 293.715 3.46475 1.03139 0
M  V30 2996 O 293.436 4.38095 -0.0204675 0
M  V30 2997 C 294.937 4.0703 1.75617 0
M  V30 2998 H 292.157 0.660596 0.117704 0
M  V30 2999 H 294.701 2.02451 -0.288751 0
M  V30 3000 H 292.856 3.46383 1.73486 0
M  V30 3001 H 293.27 5.22973 0.399952 0
M  V30 3002 H 294.744 5.10271 2.10542 0
M  V30 3003 H 295.221 3.49819 2.65563 0
M  V30 3004 H 295.827 4.1086 1.09882 0
M  V30 3005 N 294.142 -0.090211 1.57342 0
M  V30 3006 C 295.391 -0.791531 1.8552 0
M  V30 3007 C 295.704 -1.79659 0.773441 0
M  V30 3008 O 296.91 -2.54616 0.942497 0
M  V30 3009 C 295.366 -1.45856 3.2902 0
M  V30 3010 C 294.974 -0.493017 4.45279 0
M  V30 3011 C 296.718 -2.14332 3.66418 0
M  V30 3012 C 294.625 -1.16491 5.79814 0
M  V30 3013 H 293.555 -0.299356 0.692027 0
M  V30 3014 H 296.206 -0.0445343 1.83446 0
M  V30 3015 H 294.588 -2.25318 3.2565 0
M  V30 3016 H 295.762 0.270464 4.60006 0
M  V30 3017 H 294.077 0.0863061 4.16311 0
M  V30 3018 H 296.674 -2.65344 4.64216 0
M  V30 3019 H 297.017 -2.93447 2.95287 0
M  V30 3020 H 297.55 -1.41724 3.71698 0
M  V30 3021 H 294.289 -0.41447 6.54188 0
M  V30 3022 H 293.809 -1.8997 5.68921 0
M  V30 3023 H 295.488 -1.69001 6.24538 0
M  V30 3024 N 295.62 -1.53406 -0.361157 0
M  V30 3025 C 296.86 -1.71507 -1.11197 0
M  V30 3026 C 297.224 -0.459337 -1.86425 0
M  V30 3027 O 298.425 -0.517102 -2.63779 0
M  V30 3028 C 296.696 -2.93307 -2.0422 0
M  V30 3029 S 298.255 -3.32135 -2.86761 0
M  V30 3030 H 295.073 -0.603448 -0.375995 0
M  V30 3031 H 297.675 -1.91516 -0.392642 0
M  V30 3032 H 296.379 -3.82891 -1.47724 0
M  V30 3033 H 295.91 -2.75712 -2.80618 0
M  V30 3034 H 297.925 -2.84493 -4.06544 0
M  V30 3035 N 297.098 0.621204 -1.44841 0
M  V30 3036 C 298.326 1.40752 -1.51646 0
M  V30 3037 C 298.741 1.88246 -0.144549 0
M  V30 3038 O 298.098 1.61422 0.851416 0
M  V30 3039 C 298.149 2.62119 -2.4895 0
M  V30 3040 O 297.87 2.16602 -3.80808 0
M  V30 3041 C 299.371 3.55135 -2.65319 0
M  V30 3042 H 296.591 0.431325 -0.514004 0
M  V30 3043 H 299.135 0.758835 -1.899 0
M  V30 3044 H 297.29 3.23058 -2.13805 0
M  V30 3045 H 297.704 2.95358 -4.33433 0
M  V30 3046 H 299.178 4.36874 -3.37409 0
M  V30 3047 H 299.655 4.04592 -1.70886 0
M  V30 3048 H 300.261 3.00058 -3.01405 0
M  V30 3049 N 298.576 1.31904 0.862503 0
M  V30 3050 C 299.822 1.22197 1.61851 0
M  V30 3051 C 300.155 -0.217641 1.92977 0
M  V30 3052 O 299.43 -1.15264 1.56666 0
M  V30 3053 C 299.713 2.07378 2.94391 0
M  V30 3054 C 299.566 3.59678 2.70096 0
M  V30 3055 C 300.885 1.92891 3.95577 0
M  V30 3056 H 298.004 0.445255 0.587296 0
M  V30 3057 H 300.646 1.6177 0.99651 0
M  V30 3058 H 298.796 1.73758 3.47477 0
M  V30 3059 H 300.468 4.03472 2.23625 0
M  V30 3060 H 298.711 3.82735 2.04197 0
M  V30 3061 H 299.382 4.14595 3.64438 0
M  V30 3062 H 301.858 2.22327 3.51724 0
M  V30 3063 H 300.734 2.54781 4.86187 0
M  V30 3064 H 300.995 0.894315 4.3296 0
M  V30 3065 N 300.054 -1.07777 1.14986 0
M  V30 3066 C 301.279 -1.84558 0.946213 0
M  V30 3067 C 301.704 -1.81323 -0.500362 0
M  V30 3068 O 301.062 -1.20301 -1.35637 0
M  V30 3069 C 301.11 -3.29736 1.45968 0
M  V30 3070 O 300.214 -4.07149 0.65601 0
M  V30 3071 H 299.555 -0.571641 0.33782 0
M  V30 3072 H 302.085 -1.35991 1.52865 0
M  V30 3073 H 302.095 -3.80574 1.47063 0
M  V30 3074 H 300.77 -3.31406 2.51283 0
M  V30 3075 H 299.347 -3.65994 0.714322 0
M  V30 3076 N 301.532 -0.945985 -1.26051 0
M  V30 3077 C 302.809 -0.513816 -1.88731 0
M  V30 3078 C 303.189 1.00872 -1.8544 0
M  V30 3079 O 302.537 1.8708 -1.312 0
M  V30 3080 C 302.747 -1.08062 -3.31849 0
M  V30 3081 C 304.095 -1.1522 -4.08668 0
M  V30 3082 O 305.119 -1.03155 -3.40936 0
M  V30 3083 O 303.978 -1.34044 -5.29806 0
M  V30 3084 H 301.072 -0.168193 -0.809716 0
M  V30 3085 H 303.618 -1.03886 -1.34186 0
M  V30 3086 H 302.39 -2.1241 -3.2863 0
M  V30 3087 H 302.013 -0.538307 -3.93939 0
M  V30 3088 N 303.011 1.40521 -0.713556 0
M  V30 3089 C 303.961 2.27971 -0.036165 0
M  V30 3090 C 304.945 1.43151 0.734623 0
M  V30 3091 O 306.137 1.66261 0.607158 0
M  V30 3092 C 303.266 3.31661 0.886331 0
M  V30 3093 C 302.352 4.23955 0.110836 0
M  V30 3094 N 302.743 4.97641 -0.904847 0
M  V30 3095 C 301.041 4.44674 0.343692 0
M  V30 3096 C 301.742 5.65322 -1.37064 0
M  V30 3097 N 300.718 5.39162 -0.693168 0
M  V30 3098 H 304.52 2.82384 -0.814645 0
M  V30 3099 H 302.034 1.52948 -0.545963 0
M  V30 3100 H 304.031 3.93154 1.38692 0
M  V30 3101 H 302.691 2.78808 1.66421 0
M  V30 3102 H 303.702 5.01689 -1.28563 0
M  V30 3103 H 300.379 4.02801 1.09805 0
M  V30 3104 H 301.769 6.34359 -2.21447 0
M  V30 3105 N 304.489 0.459591 1.5075 0
M  V30 3106 C 305.738 -0.100971 2.01447 0
M  V30 3107 C 306.051 -1.41816 1.34713 0
M  V30 3108 O 307.257 -2.06299 1.76502 0
M  V30 3109 C 305.713 -0.23047 3.59161 0
M  V30 3110 C 305.321 1.0776 4.34847 0
M  V30 3111 C 307.065 -0.743608 4.17936 0
M  V30 3112 C 304.972 0.91253 5.84317 0
M  V30 3113 H 303.902 -0.0415102 0.752856 0
M  V30 3114 H 306.553 0.592742 1.73663 0
M  V30 3115 H 304.935 -0.987703 3.83485 0
M  V30 3116 H 306.109 1.8449 4.22256 0
M  V30 3117 H 304.424 1.52097 3.87628 0
M  V30 3118 H 307.021 -0.883959 5.27343 0
M  V30 3119 H 307.364 -1.73196 3.78562 0
M  V30 3120 H 307.897 -0.04408 3.97776 0
M  V30 3121 H 304.636 1.87391 6.28144 0
M  V30 3122 H 304.156 0.185422 5.99513 0
M  V30 3123 H 305.835 0.574547 6.44444 0
M  V30 3124 N 305.967 -1.56429 0.191757 0
M  V30 3125 C 307.383 -1.58754 -0.164137 0
M  V30 3126 C 307.583 -1.20782 -1.61288 0
M  V30 3127 O 306.639 -0.928999 -2.34789 0
M  V30 3128 C 307.952 -3.00396 0.135195 0
M  V30 3129 C 309.5 -3.1291 0.0750351 0
M  V30 3130 C 309.975 -4.56679 0.347632 0
M  V30 3131 N 311.466 -4.62252 0.296131 0
M  V30 3132 C 312.201 -5.71379 0.480948 0
M  V30 3133 N 311.697 -6.88986 0.725933 0
M  V30 3134 N 313.49 -5.60563 0.415435 0
M  V30 3135 H 305.641 -1.79393 1.13718 0
M  V30 3136 H 307.904 -0.832414 0.453643 0
M  V30 3137 H 307.61 -3.32726 1.13958 0
M  V30 3138 H 307.484 -3.72963 -0.563773 0
M  V30 3139 H 309.871 -2.80394 -0.919948 0
M  V30 3140 H 309.952 -2.42736 0.807029 0
M  V30 3141 H 309.596 -4.89907 1.33992 0
M  V30 3142 H 309.526 -5.25039 -0.405212 0
M  V30 3143 H 312.017 -3.7773 0.113259 0
M  V30 3144 H 312.33 -7.68046 0.855857 0
M  V30 3145 H 310.675 -6.90801 0.762788 0
M  V30 3146 H 313.866 -4.67561 0.224486 0
M  V30 3147 H 314.039 -6.45551 0.562889 0
M  V30 3148 N 307.445 0.0818655 -1.57387 0
M  V30 3149 C 308.673 0.796108 -1.9097 0
M  V30 3150 C 309.088 1.71626 -0.786757 0
M  V30 3151 O 308.445 1.80908 0.240513 0
M  V30 3152 C 308.496 1.59829 -3.24248 0
M  V30 3153 O 308.217 0.715131 -4.32224 0
M  V30 3154 C 309.718 2.41442 -3.7178 0
M  V30 3155 H 306.938 0.22691 -0.631469 0
M  V30 3156 H 309.482 0.0551439 -2.04426 0
M  V30 3157 H 307.637 2.29163 -3.12351 0
M  V30 3158 H 308.051 1.27205 -5.08841 0
M  V30 3159 H 309.525 2.932 -4.67694 0
M  V30 3160 H 310.002 3.2051 -3.00283 0
M  V30 3161 H 310.608 1.77283 -3.86589 0
M  V30 3162 N 308.923 1.53595 0.353017 0
M  V30 3163 C 309.873 1.77299 1.43349 0
M  V30 3164 C 310.857 0.627884 1.48143 0
M  V30 3165 O 312.049 0.88697 1.53173 0
M  V30 3166 C 309.178 1.97757 2.80619 0
M  V30 3167 C 308.264 3.18305 2.80254 0
M  V30 3168 N 308.655 4.39967 2.49526 0
M  V30 3169 C 306.953 3.19283 3.11407 0
M  V30 3170 C 307.654 5.21772 2.57156 0
M  V30 3171 N 306.63 4.58269 2.92388 0
M  V30 3172 H 310.432 2.68963 1.18474 0
M  V30 3173 H 307.946 1.52391 0.561306 0
M  V30 3174 H 309.943 2.1287 3.58458 0
M  V30 3175 H 308.603 1.07329 3.06448 0
M  V30 3176 H 309.614 4.67482 2.22893 0
M  V30 3177 H 306.291 2.3879 3.4247 0
M  V30 3178 H 307.681 6.2885 2.36638 0
M  V30 3179 N 310.401 -0.613514 1.45168 0
M  V30 3180 C 311.311 -1.75296 1.55912 0
M  V30 3181 C 312.327 -1.68244 0.443856 0
M  V30 3182 O 313.503 -1.88706 0.70371 0
M  V30 3183 C 310.568 -3.1174 1.5172 0
M  V30 3184 C 309.629 -3.30291 2.74238 0
M  V30 3185 C 308.862 -4.60226 2.70236 0
M  V30 3186 O 309.085 -5.42168 1.77229 0
M  V30 3187 O 308.019 -4.81361 3.61352 0
M  V30 3188 H 311.845 -1.69183 2.52212 0
M  V30 3189 H 309.43 -0.776886 1.27612 0
M  V30 3190 H 311.312 -3.93044 1.51968 0
M  V30 3191 H 309.987 -3.18357 0.585697 0
M  V30 3192 H 308.894 -2.48598 2.79553 0
M  V30 3193 H 310.227 -3.28547 3.66494 0
M  V30 3194 N 311.879 -1.3236 -0.855495 0
M  V30 3195 C 312.811 -1.17052 -1.97057 0
M  V30 3196 C 313.824 -0.10574 -1.62456 0
M  V30 3197 O 315.013 -0.354619 -1.74942 0
M  V30 3198 C 312.113 -0.769305 -3.30053 0
M  V30 3199 C 311.286 -1.9222 -3.929 0
M  V30 3200 C 310.345 -1.50466 -5.04228 0
M  V30 3201 O 309.371 -2.21655 -5.24269 0
M  V30 3202 N 310.573 -0.400209 -5.79119 0
M  V30 3203 H 313.338 -2.13103 -2.1073 0
M  V30 3204 H 310.899 -1.24885 -1.0303 0
M  V30 3205 H 312.891 -0.472407 -4.01933 0
M  V30 3206 H 311.461 0.100025 -3.1244 0
M  V30 3207 H 310.681 -2.38563 -3.13817 0
M  V30 3208 H 311.969 -2.69403 -4.31624 0
M  V30 3209 H 311.367 0.192319 -5.65373 0
M  V30 3210 H 309.924 -0.162912 -6.51596 0
M  V30 3211 N 313.357 1.07166 -1.15556 0
M  V30 3212 C 314.585 1.83514 -0.955519 0
M  V30 3213 C 315 1.82163 0.49621 0
M  V30 3214 O 314.357 1.23441 1.34419 0
M  V30 3215 C 314.408 3.30515 -1.46432 0
M  V30 3216 O 314.129 3.31937 -2.85918 0
M  V30 3217 C 315.63 4.23625 -1.30603 0
M  V30 3218 H 312.85 0.578926 -0.339244 0
M  V30 3219 H 315.394 1.35265 -1.53374 0
M  V30 3220 H 313.549 3.76106 -0.928584 0
M  V30 3221 H 313.963 4.23794 -3.09029 0
M  V30 3222 H 315.437 5.24831 -1.71047 0
M  V30 3223 H 315.914 4.38485 -0.250441 0
M  V30 3224 H 316.52 3.83871 -1.83094 0
M  V30 3225 N 314.835 0.952656 1.25548 0
M  V30 3226 C 316.063 0.623496 1.97282 0
M  V30 3227 C 316.478 -0.803987 1.70826 0
M  V30 3228 O 315.835 -1.53755 0.983147 0
M  V30 3229 C 315.886 0.870209 3.5087 0
M  V30 3230 O 315.607 2.24156 3.76412 0
M  V30 3231 C 317.108 0.553164 4.39835 0
M  V30 3232 H 314.328 0.233931 0.628902 0
M  V30 3233 H 316.872 1.27649 1.59768 0
M  V30 3234 H 315.027 0.263652 3.86502 0
M  V30 3235 H 315.441 2.31021 4.70882 0
M  V30 3236 H 316.915 0.776342 5.46513 0
M  V30 3237 H 317.392 -0.512215 4.36203 0
M  V30 3238 H 317.998 1.13896 4.09766 0
M  V30 3239 N 316.313 -1.40141 0.720998 0
M  V30 3240 C 317.276 -2.29058 0.0805834 0
M  V30 3241 C 318.276 -1.45632 -0.681758 0
M  V30 3242 O 319.466 -1.6648 -0.512856 0
M  V30 3243 C 316.598 -3.28925 -0.895593 0
M  V30 3244 H 317.791 -2.87191 0.863793 0
M  V30 3245 H 315.344 -1.48553 0.485975 0
M  V30 3246 H 316.079 -2.75822 -1.70566 0
M  V30 3247 H 315.864 -3.90519 -0.351766 0
M  V30 3248 H 317.354 -3.95494 -1.34069 0
M  V30 3249 N 317.792 -0.46758 -1.50504 0
M  V30 3250 C 318.755 0.317059 -2.26996 0
M  V30 3251 C 319.755 0.923513 -1.31635 0
M  V30 3252 O 320.945 0.793239 -1.55091 0
M  V30 3253 C 318.077 1.45134 -3.08462 0
M  V30 3254 H 319.27 -0.353723 -2.97807 0
M  V30 3255 H 316.823 -0.221545 -1.54722 0
M  V30 3256 H 317.558 2.15728 -2.4214 0
M  V30 3257 H 317.343 1.02232 -3.78538 0
M  V30 3258 H 318.833 2.00493 -3.66323 0
M  V30 3259 N 319.27 1.56325 -0.20005 0
M  V30 3260 C 320.18 2.22931 0.730668 0
M  V30 3261 C 321.196 1.22997 1.23076 0
M  V30 3262 O 322.372 1.55748 1.27689 0
M  V30 3263 C 319.437 2.87948 1.93098 0
M  V30 3264 C 318.498 4.03166 1.47497 0
M  V30 3265 C 317.731 4.65073 2.61807 0
M  V30 3266 O 317.954 4.25913 3.79413 0
M  V30 3267 O 316.888 5.54452 2.34237 0
M  V30 3268 H 320.714 3.03084 0.193391 0
M  V30 3269 H 318.299 1.49371 0.0294621 0
M  V30 3270 H 320.181 3.29063 2.6324 0
M  V30 3271 H 318.856 2.10771 2.45677 0
M  V30 3272 H 317.763 3.66664 0.742201 0
M  V30 3273 H 319.096 4.82022 0.995796 0
M  V30 3274 N 320.748 -0.0735177 1.57428 0
M  V30 3275 C 322.164 -0.428264 1.53747 0
M  V30 3276 C 322.364 -1.79272 0.91998 0
M  V30 3277 O 321.42 -2.47051 0.521745 0
M  V30 3278 C 322.733 -0.370914 2.98404 0
M  V30 3279 C 324.281 -0.451224 3.0973 0
M  V30 3280 C 324.756 -0.4238 4.56035 0
M  V30 3281 N 326.247 -0.483925 4.60665 0
M  V30 3282 C 326.982 -0.484891 5.71346 0
M  V30 3283 N 326.478 -0.440775 6.91396 0
M  V30 3284 N 328.271 -0.531319 5.59583 0
M  V30 3285 H 320.422 0.819949 1.95935 0
M  V30 3286 H 322.685 0.307493 0.896745 0
M  V30 3287 H 322.391 0.564956 3.47133 0
M  V30 3288 H 322.265 -1.18176 3.5821 0
M  V30 3289 H 324.652 -1.37752 2.60976 0
M  V30 3290 H 324.733 0.388167 2.52838 0
M  V30 3291 H 324.377 0.498638 5.05446 0
M  V30 3292 H 324.307 -1.2807 5.10789 0
M  V30 3293 H 326.798 -0.522338 3.74273 0
M  V30 3294 H 327.111 -0.44539 7.71515 0
M  V30 3295 H 325.456 -0.40749 6.93804 0
M  V30 3296 H 328.647 -0.563464 4.64696 0
M  V30 3297 H 328.82 -0.528603 6.4584 0
M  V30 3298 N 322.226 -1.5378 -0.344866 0
M  V30 3299 C 323.158 -1.77988 -1.44406 0
M  V30 3300 C 324.171 -0.661138 -1.48771 0
M  V30 3301 O 325.36 -0.937842 -1.51877 0
M  V30 3302 C 322.46 -1.86345 -2.8307 0
M  V30 3303 C 321.633 -3.16256 -3.0216 0
M  V30 3304 C 320.692 -3.15588 -4.21059 0
M  V30 3305 O 319.718 -3.89314 -4.15239 0
M  V30 3306 N 320.92 -2.37864 -5.29529 0
M  V30 3307 H 323.685 -2.72839 -1.24012 0
M  V30 3308 H 321.246 -1.52814 -0.534737 0
M  V30 3309 H 323.238 -1.83351 -3.60783 0
M  V30 3310 H 321.808 -0.986858 -2.96614 0
M  V30 3311 H 321.028 -3.32385 -2.11929 0
M  V30 3312 H 322.316 -4.0207 -3.11797 0
M  V30 3313 H 321.714 -1.77514 -5.37127 0
M  V30 3314 H 320.271 -2.40668 -6.05741 0
M  V30 3315 N 323.704 0.605807 -1.45491 0
M  V30 3316 C 324.932 1.39136 -1.5313 0
M  V30 3317 C 325.347 1.88082 -0.164507 0
M  V30 3318 O 324.704 1.62316 0.834247 0
M  V30 3319 C 324.755 2.59463 -2.51716 0
M  V30 3320 O 324.476 2.12551 -3.83084 0
M  V30 3321 C 325.977 3.52301 -2.6907 0
M  V30 3322 H 323.197 0.425849 -0.51855 0
M  V30 3323 H 325.741 0.73865 -1.90694 0
M  V30 3324 H 323.896 3.20772 -2.17219 0
M  V30 3325 H 324.31 2.90744 -4.36541 0
M  V30 3326 H 325.784 4.33271 -3.42024 0
M  V30 3327 H 326.261 4.02757 -1.75167 0
M  V30 3328 H 326.867 2.96845 -3.04571 0
M  V30 3329 N 325.182 1.32811 0.848464 0
M  V30 3330 C 326.41 1.26739 1.63538 0
M  V30 3331 C 326.825 -0.163484 1.88091 0
M  V30 3332 O 326.182 -1.10258 1.45429 0
M  V30 3333 C 326.233 2.03013 2.99112 0
M  V30 3334 O 325.954 3.40518 2.75643 0
M  V30 3335 C 327.455 2.04038 3.93552 0
M  V30 3336 H 324.675 0.437024 0.509167 0
M  V30 3337 H 327.219 1.75033 1.05753 0
M  V30 3338 H 325.374 1.58426 3.53525 0
M  V30 3339 H 325.788 3.79635 3.61908 0
M  V30 3340 H 327.262 2.61877 4.85926 0
M  V30 3341 H 327.739 1.0282 4.26995 0
M  V30 3342 H 328.345 2.486 3.45077 0
M  V30 3343 N 326.66 -1.06551 1.16123 0
M  V30 3344 C 327.907 -1.79302 0.941126 0
M  V30 3345 C 328.235 -1.87105 -0.531235 0
M  V30 3346 O 327.49 -1.35692 -1.41018 0
M  V30 3347 C 327.789 -3.23911 1.51052 0
M  V30 3348 C 327.455 -3.36193 3.00475 0
M  V30 3349 C 326.117 -3.39252 3.41265 0
M  V30 3350 C 328.469 -3.38326 3.96465 0
M  V30 3351 C 325.797 -3.42057 4.76669 0
M  V30 3352 C 328.149 -3.4267 5.31752 0
M  V30 3353 C 326.813 -3.4401 5.72026 0
M  V30 3354 H 326.083 -0.656111 0.344382 0
M  V30 3355 H 328.73 -1.25325 1.44796 0
M  V30 3356 H 327.035 -3.80723 0.925063 0
M  V30 3357 H 328.732 -3.78793 1.31593 0
M  V30 3358 H 325.322 -3.34516 2.6795 0
M  V30 3359 H 329.506 -3.35176 3.6602 0
M  V30 3360 H 324.762 -3.41398 5.07206 0
M  V30 3361 H 328.936 -3.43268 6.05921 0
M  V30 3362 H 326.563 -3.45937 6.76928 0
M  V30 3363 N 328.138 -0.959301 -1.25041 0
M  V30 3364 C 329.086 -0.474437 -2.2771 0
M  V30 3365 C 330.08 0.457697 -1.631 0
M  V30 3366 O 331.286 0.333912 -1.76876 0
M  V30 3367 H 327.661 -0.134936 -0.739795 0
M  V30 3368 H 329.632 -1.35251 -2.65988 0
M  V30 3369 C 328.381 0.227884 -3.46952 0
M  V30 3370 H 327.704 -0.480248 -3.96905 0
M  V30 3371 H 329.144 0.531091 -4.20661 0
M  V30 3372 C 327.603 1.452 -3.04004 0
M  V30 3373 O 328.133 2.54949 -3.10426 0
M  V30 3374 N 326.339 1.31502 -2.59144 0
M  V30 3375 H 325.886 0.422065 -2.54119 0
M  V30 3376 H 325.844 2.13521 -2.30773 0
M  V30 3377 N 329.616 1.39756 -0.72842 0
M  V30 3378 C 330.893 1.94574 -0.200079 0
M  V30 3379 C 331.273 1.66569 1.29684 0
M  V30 3380 O 330.621 0.990326 2.05924 0
M  V30 3381 C 330.831 3.45004 -0.526608 0
M  V30 3382 C 332.179 4.21965 -0.472318 0
M  V30 3383 O 333.203 3.53173 -0.463413 0
M  V30 3384 O 332.062 5.44552 -0.461075 0
M  V30 3385 H 329.156 0.826289 -0.0342851 0
M  V30 3386 H 331.702 1.49293 -0.806829 0
M  V30 3387 H 330.474 3.58796 -1.56144 0
M  V30 3388 H 330.097 3.97449 0.109449 0
M  V30 3389 N 331.094 0.475555 1.50254 0
M  V30 3390 C 332.027 -0.362381 2.25304 0
M  V30 3391 C 333.005 -0.992393 1.28803 0
M  V30 3392 O 334.189 -1.02746 1.58036 0
M  V30 3393 C 331.316 -1.50813 3.03271 0
M  V30 3394 C 330.362 -0.995044 4.1473 0
M  V30 3395 S 331.195 0.0938436 5.35418 0
M  V30 3396 C 332.351 -1.05567 6.16933 0
M  V30 3397 H 332.584 0.274686 2.96028 0
M  V30 3398 H 330.117 0.260495 1.52187 0
M  V30 3399 H 332.075 -2.16476 3.48781 0
M  V30 3400 H 330.736 -2.11672 2.32064 0
M  V30 3401 H 329.929 -1.85293 4.68703 0
M  V30 3402 H 329.531 -0.416052 3.71679 0
M  V30 3403 H 331.823 -1.96636 6.48337 0
M  V30 3404 H 332.766 -0.555109 7.05921 0
M  V30 3405 H 333.174 -1.31151 5.49053 0
M  V30 3406 N 332.573 -1.56217 0.208337 0
M  V30 3407 C 333.822 -1.97124 -0.427204 0
M  V30 3408 C 334.135 -1.09859 -1.61835 0
M  V30 3409 O 335.341 -1.40606 -2.32255 0
M  V30 3410 C 333.797 -3.50633 -0.811442 0
M  V30 3411 C 333.405 -4.46582 0.35615 0
M  V30 3412 C 335.149 -4.00282 -1.41332 0
M  V30 3413 C 333.056 -5.91379 -0.0497852 0
M  V30 3414 H 331.986 -0.736086 -0.163381 0
M  V30 3415 H 334.637 -1.8099 0.302456 0
M  V30 3416 H 333.019 -3.62319 -1.59815 0
M  V30 3417 H 334.193 -4.46636 1.1337 0
M  V30 3418 H 332.508 -4.07202 0.870396 0
M  V30 3419 H 335.105 -5.0595 -1.72972 0
M  V30 3420 H 335.448 -3.45359 -2.32449 0
M  V30 3421 H 335.981 -3.91764 -0.690323 0
M  V30 3422 H 332.72 -6.50255 0.827529 0
M  V30 3423 H 332.24 -5.94549 -0.791926 0
M  V30 3424 H 333.919 -6.45209 -0.481042 0
M  V30 3425 N 334.051 0.0651679 -1.57465 0
M  V30 3426 C 334.998 1.07675 -2.04144 0
M  V30 3427 C 335.968 1.38071 -0.923335 0
M  V30 3428 O 337.153 1.49026 -1.19146 0
M  V30 3429 C 334.293 2.38337 -2.49579 0
M  V30 3430 C 333.406 2.14413 -3.75035 0
M  V30 3431 C 332.541 3.38686 -4.09225 0
M  V30 3432 C 331.58 3.10156 -5.27702 0
M  V30 3433 N 330.717 4.26778 -5.57499 0
M  V30 3434 H 335.557 0.671716 -2.90331 0
M  V30 3435 H 333.094 0.3201 -1.43575 0
M  V30 3436 H 335.052 3.14632 -2.73975 0
M  V30 3437 H 333.682 2.7663 -1.6636 0
M  V30 3438 H 332.734 1.2878 -3.57939 0
M  V30 3439 H 334.046 1.89344 -4.61466 0
M  V30 3440 H 333.2 4.23373 -4.34558 0
M  V30 3441 H 331.939 3.66837 -3.21374 0
M  V30 3442 H 330.944 2.23866 -5.02159 0
M  V30 3443 H 332.169 2.8332 -6.17176 0
M  V30 3444 H 330.115 4.54948 -4.72608 0
M  V30 3445 H 330.032 4.05005 -6.38362 0
M  V30 3446 H 331.3 5.12443 -5.87386 0
M  V30 3447 N 335.529 1.53961 0.336706 0
M  V30 3448 C 336.778 1.70751 1.07363 0
M  V30 3449 C 337.091 0.481061 1.89592 0
M  V30 3450 O 338.297 0.530046 2.66276 0
M  V30 3451 C 336.753 3.01965 1.95818 0
M  V30 3452 C 336.361 4.31971 1.18764 0
M  V30 3453 C 338.105 3.28121 2.69327 0
M  V30 3454 C 336.012 5.54255 2.06289 0
M  V30 3455 H 334.942 0.636292 0.404535 0
M  V30 3456 H 337.593 1.80459 0.332681 0
M  V30 3457 H 335.975 2.86132 2.7376 0
M  V30 3458 H 337.149 4.5853 0.456849 0
M  V30 3459 H 335.464 4.12481 0.569946 0
M  V30 3460 H 338.061 4.16673 3.35094 0
M  V30 3461 H 338.404 2.45426 3.36261 0
M  V30 3462 H 338.937 3.44762 1.98454 0
M  V30 3463 H 335.676 6.39513 1.43885 0
M  V30 3464 H 335.196 5.31935 2.77138 0
M  V30 3465 H 336.875 5.90159 2.65182 0
M  V30 3466 N 337.007 -0.598083 1.45811 0
M  V30 3467 C 337.97 -1.69018 1.54808 0
M  V30 3468 C 338.97 -1.55037 0.426652 0
M  V30 3469 O 340.16 -1.59932 0.690456 0
M  V30 3470 C 337.292 -3.0835 1.45371 0
M  V30 3471 H 338.485 -1.62403 2.52121 0
M  V30 3472 H 336.038 -0.814626 1.33392 0
M  V30 3473 H 336.773 -3.20534 0.492793 0
M  V30 3474 H 336.558 -3.19907 2.26721 0
M  V30 3475 H 338.048 -3.8788 1.54721 0
M  V30 3476 N 338.485 -1.33259 -0.841409 0
M  V30 3477 C 339.415 -1.25926 -1.96634 0
M  V30 3478 C 340.396 -0.140349 -1.6952 0
M  V30 3479 O 341.581 -0.329707 -1.91381 0
M  V30 3480 C 338.711 -0.99512 -3.32738 0
M  V30 3481 C 337.665 -2.0767 -3.74242 0
M  V30 3482 C 336.991 -1.66474 -5.08125 0
M  V30 3483 C 338.291 -3.49318 -3.88297 0
M  V30 3484 H 339.985 -2.20046 -2.03027 0
M  V30 3485 H 337.531 -1.05931 -0.975425 0
M  V30 3486 H 339.484 -0.930323 -4.11002 0
M  V30 3487 H 338.208 -0.0183004 -3.26595 0
M  V30 3488 H 336.867 -2.13187 -2.98239 0
M  V30 3489 H 336.515 -0.675012 -4.9845 0
M  V30 3490 H 336.215 -2.3885 -5.36865 0
M  V30 3491 H 337.739 -1.61455 -5.88867 0
M  V30 3492 H 339.153 -3.46316 -4.56879 0
M  V30 3493 H 337.55 -4.20158 -4.28471 0
M  V30 3494 H 338.62 -3.8801 -2.9082 0
M  V30 3495 N 339.963 1.05934 -1.16686 0
M  V30 3496 C 340.873 2.17014 -0.891183 0
M  V30 3497 C 341.889 1.73453 0.137907 0
M  V30 3498 O 343.065 2.01361 -0.039592 0
M  V30 3499 C 340.13 3.44384 -0.400099 0
M  V30 3500 C 339.191 4.02433 -1.49486 0
M  V30 3501 C 338.424 5.23723 -1.02711 0
M  V30 3502 O 338.647 5.7027 0.121716 0
M  V30 3503 O 337.581 5.7382 -1.81699 0
M  V30 3504 H 341.407 2.43113 -1.82015 0
M  V30 3505 H 338.992 1.15541 -0.947132 0
M  V30 3506 H 340.874 4.21189 -0.133392 0
M  V30 3507 H 339.549 3.19802 0.500817 0
M  V30 3508 H 338.456 3.27102 -1.81535 0
M  V30 3509 H 339.789 4.31317 -2.37121 0
M  V30 3510 N 341.441 0.965919 1.2453 0
M  V30 3511 C 342.666 0.643971 1.97149 0
M  V30 3512 C 343.091 -0.779487 1.71189 0
M  V30 3513 O 342.449 -1.5288 0.974553 0
M  V30 3514 C 342.497 0.922557 3.48599 0
M  V30 3515 O 341.601 0.00707672 4.12399 0
M  V30 3516 H 340.942 0.243647 0.617683 0
M  V30 3517 H 343.472 1.29558 1.58353 0
M  V30 3518 H 343.482 0.853373 3.98976 0
M  V30 3519 H 342.157 1.95996 3.66822 0
M  V30 3520 H 340.734 0.12943 3.72675 0
M  V30 3521 N 342.919 -1.39368 0.735821 0
M  V30 3522 C 344.165 -2.00794 0.284544 0
M  V30 3523 C 344.498 -1.58255 -1.12557 0
M  V30 3524 O 343.773 -0.811819 -1.76748 0
M  V30 3525 C 344.056 -3.58011 0.387337 0
M  V30 3526 C 343.909 -4.10566 1.83728 0
M  V30 3527 C 345.228 -4.395 -0.22975 0
M  V30 3528 H 342.347 -0.729501 0.104866 0
M  V30 3529 H 344.989 -1.65564 0.93213 0
M  V30 3530 H 343.139 -3.88154 -0.164006 0
M  V30 3531 H 344.811 -3.91139 2.44556 0
M  V30 3532 H 343.054 -3.64095 2.35833 0
M  V30 3533 H 343.725 -5.19702 1.86047 0
M  V30 3534 H 346.201 -4.15406 0.240257 0
M  V30 3535 H 345.077 -5.48752 -0.127485 0
M  V30 3536 H 345.338 -4.22062 -1.3159 0
M  V30 3537 N 344.397 -0.483516 -1.5 0
M  V30 3538 C 345.327 0.293829 -2.31644 0
M  V30 3539 C 346.308 0.978864 -1.39112 0
M  V30 3540 O 347.493 0.973644 -1.68029 0
M  V30 3541 C 344.623 1.36897 -3.19181 0
M  V30 3542 C 343.577 0.804833 -4.20365 0
M  V30 3543 C 342.903 1.9792 -4.96721 0
M  V30 3544 C 344.203 -0.192313 -5.21946 0
M  V30 3545 H 345.897 -0.387616 -2.9688 0
M  V30 3546 H 343.443 -0.187856 -1.42769 0
M  V30 3547 H 345.396 1.92037 -3.751 0
M  V30 3548 H 344.12 2.07936 -2.51853 0
M  V30 3549 H 342.779 0.275319 -3.65565 0
M  V30 3550 H 342.427 2.67686 -4.25856 0
M  V30 3551 H 342.127 1.60789 -5.65173 0
M  V30 3552 H 343.651 2.53526 -5.55479 0
M  V30 3553 H 345.065 0.270333 -5.72662 0
M  V30 3554 H 343.462 -0.478543 -5.98189 0
M  V30 3555 H 344.532 -1.11409 -4.71928 0
M  V30 3556 N 345.875 1.56104 -0.216619 0
M  V30 3557 C 346.805 2.23063 0.690296 0
M  V30 3558 C 347.786 1.20072 1.20485 0
M  V30 3559 O 348.971 1.48643 1.24976 0
M  V30 3560 C 346.101 2.90672 1.90072 0
M  V30 3561 C 345.055 4.00092 1.5202 0
M  V30 3562 C 344.381 4.54972 2.80899 0
M  V30 3563 C 345.681 5.17398 0.71391 0
M  V30 3564 H 347.375 2.99109 0.132038 0
M  V30 3565 H 344.921 1.43866 0.0620664 0
M  V30 3566 H 346.874 3.36204 2.54057 0
M  V30 3567 H 345.598 2.12066 2.48386 0
M  V30 3568 H 344.257 3.55283 0.903839 0
M  V30 3569 H 343.905 3.73102 3.37348 0
M  V30 3570 H 343.605 5.28817 2.56176 0
M  V30 3571 H 345.129 5.0322 3.45836 0
M  V30 3572 H 346.543 5.59342 1.25735 0
M  V30 3573 H 344.94 5.97444 0.563951 0
M  V30 3574 H 346.01 4.84088 -0.280527 0
M  V30 3575 N 347.353 -0.0568162 1.57498 0
M  V30 3576 C 348.601 -0.751617 1.87604 0
M  V30 3577 C 348.922 -1.77351 0.81066 0
M  V30 3578 O 348.192 -1.95254 -0.159018 0
M  V30 3579 H 346.772 -0.280583 0.692302 0
M  V30 3580 H 349.434 -0.0293483 1.94878 0
M  V30 3581 H 348.53 -1.25852 2.856 0
M  V30 3582 N 348.832 -1.54138 -0.328536 0
M  V30 3583 C 350.109 -1.62749 -1.08499 0
M  V30 3584 C 350.489 -0.458198 -2.06067 0
M  V30 3585 O 349.837 0.548046 -2.2183 0
M  V30 3586 C 350.047 -2.99519 -1.79135 0
M  V30 3587 C 351.395 -3.55394 -2.32337 0
M  V30 3588 O 352.419 -3.01792 -1.89209 0
M  V30 3589 O 351.278 -4.49186 -3.11279 0
M  V30 3590 H 348.372 -0.65886 -0.499832 0
M  V30 3591 H 350.918 -1.66484 -0.328826 0
M  V30 3592 H 349.69 -3.76061 -1.08139 0
M  V30 3593 H 349.313 -2.99441 -2.61574 0
M  V30 3594 N 350.31 0.590341 -1.46126 0
M  V30 3595 C 351.257 1.69994 -1.56111 0
M  V30 3596 C 352.227 1.61065 -0.405867 0
M  V30 3597 O 353.412 1.8039 -0.621613 0
M  V30 3598 C 350.552 3.08326 -1.55013 0
M  V30 3599 C 349.665 3.27936 -2.81215 0
M  V30 3600 C 348.8 4.56473 -2.71673 0
M  V30 3601 C 347.839 4.694 -3.92849 0
M  V30 3602 N 346.976 5.89254 -3.81738 0
M  V30 3603 H 351.816 1.60797 -2.50895 0
M  V30 3604 H 349.353 0.783799 -1.24479 0
M  V30 3605 H 351.311 3.88383 -1.52362 0
M  V30 3606 H 349.941 3.16439 -0.637667 0
M  V30 3607 H 348.993 2.41536 -2.93879 0
M  V30 3608 H 350.305 3.33357 -3.71045 0
M  V30 3609 H 349.459 5.44748 -2.67085 0
M  V30 3610 H 348.198 4.53477 -1.7947 0
M  V30 3611 H 347.203 3.79544 -3.97777 0
M  V30 3612 H 348.428 4.7418 -4.86138 0
M  V30 3613 H 346.374 5.87271 -2.92317 0
M  V30 3614 H 346.291 5.95911 -4.65217 0
M  V30 3615 H 347.559 6.79981 -3.81112 0
M  V30 3616 N 351.788 1.33704 0.83433 0
M  V30 3617 C 352.698 1.26382 1.97648 0
M  V30 3618 C 353.714 0.173548 1.73132 0
M  V30 3619 O 354.89 0.397962 1.97429 0
M  V30 3620 C 351.955 1.00769 3.31733 0
M  V30 3621 C 351.016 2.1884 3.69334 0
M  V30 3622 C 350.249 1.9444 4.9702 0
M  V30 3623 O 350.472 0.896961 5.63303 0
M  V30 3624 O 349.406 2.81093 5.32231 0
M  V30 3625 H 353.232 2.22444 2.06767 0
M  V30 3626 H 350.817 1.13795 0.968037 0
M  V30 3627 H 352.699 0.882186 4.12062 0
M  V30 3628 H 351.374 0.0773783 3.23608 0
M  V30 3629 H 350.281 2.36946 2.89495 0
M  V30 3630 H 351.614 3.10221 3.82131 0
M  V30 3631 O 353.305 -0.972346 1.28948 0
M  V30 3632 H 353.996 -1.59791 1.09484 0
M  V30 END ATOM
M  V30 BEGIN BOND
M  V30 END BOND
M  V30 END CTAB
M  END
$$$$
