drugbank_target|P9WN25 Group 1 truncated hemoglobin GlbN (DB01826; DB03317)
 OpenBabel12092120223D

  0  0  0     0  0            999 V3000
M  V30 BEGIN CTAB
M  V30 COUNTS 2041 2061 0 0 0
M  V30 BEGIN ATOM
M  V30 1 H -0.908 1.98254 -0.117106 0
M  V30 2 N 0 1.576 0 0
M  V30 3 C 0.933 2.03868 1.02534 0
M  V30 4 C 1.911 0.928543 1.3348 0
M  V30 5 O 3.095 1.19667 1.45644 0
M  V30 6 C 0.222 2.43627 2.35294 0
M  V30 7 C -0.732 3.65373 2.2001 0
M  V30 8 S 0.101 5.13292 1.52614 0
M  V30 9 C 1.257 5.56322 2.86805 0
M  V30 10 H 1.49 2.90518 0.631377 0
M  V30 11 H -0.977 1.52953 0.210867 0
M  V30 12 H 0.981 2.67203 3.11629 0
M  V30 13 H -0.358 1.57376 2.7183 0
M  V30 14 H -1.165 3.90944 3.18086 0
M  V30 15 H -1.563 3.418 1.51819 0
M  V30 16 H 0.729 5.58782 3.83104 0
M  V30 17 H 1.672 6.56266 2.65933 0
M  V30 18 H 2.08 4.83886 2.90714 0
M  V30 19 N 1.4781 -0.272755 1.55222 0
M  V30 20 C 2.7261 -1.00234 1.75492 0
M  V30 21 C 3.0471 -1.8681 0.5592 0
M  V30 22 O 2.3171 -1.91215 -0.425882 0
M  V30 23 H 0.8971 -0.373076 0.647166 0
M  V30 24 H 3.5591 -0.296926 1.92625 0
M  V30 25 H 2.6551 -1.63913 2.65592 0
M  V30 26 N 2.9562 -1.48159 -0.537278 0
M  V30 27 C 3.8862 -1.65029 -1.6519 0
M  V30 28 C 4.8672 -0.499281 -1.62607 0
M  V30 29 O 6.0522 -0.730972 -1.79918 0
M  V30 30 C 3.1822 -1.68303 -3.03795 0
M  V30 31 C 2.1362 -2.8283 -3.21234 0
M  V30 32 C 1.4622 -2.71189 -4.60826 0
M  V30 33 C 2.7622 -4.24211 -3.04701 0
M  V30 34 H 4.4562 -2.58341 -1.51328 0
M  V30 35 H 2.0022 -1.24325 -0.726585 0
M  V30 36 H 3.9552 -1.78693 -3.81637 0
M  V30 37 H 2.6792 -0.715635 -3.18663 0
M  V30 38 H 1.3382 -2.71983 -2.45807 0
M  V30 39 H 0.9862 -1.72435 -4.7252 0
M  V30 40 H 0.6862 -3.48035 -4.7344 0
M  V30 41 H 2.2102 -2.83537 -5.40777 0
M  V30 42 H 3.6242 -4.3593 -3.72341 0
M  V30 43 H 2.0212 -5.01998 -3.28813 0
M  V30 44 H 3.0912 -4.41184 -2.01209 0
M  V30 45 N 4.4343 0.785586 -1.36625 0
M  V30 46 C 5.3643 1.91259 -1.33949 0
M  V30 47 C 6.3453 1.68795 -0.210325 0
M  V30 48 O 7.5303 1.89854 -0.408561 0
M  V30 49 C 4.6603 3.28339 -1.13186 0
M  V30 50 C 3.6143 3.65335 -2.22967 0
M  V30 51 C 2.9403 5.00806 -1.87342 0
M  V30 52 C 4.2403 3.7352 -3.65075 0
M  V30 53 H 5.9343 1.93755 -2.28253 0
M  V30 54 H 3.4803 0.930788 -1.09874 0
M  V30 55 H 5.4333 4.06804 -1.09948 0
M  V30 56 H 4.1573 3.2624 -0.153332 0
M  V30 57 H 2.8163 2.89169 -2.25337 0
M  V30 58 H 2.4643 4.95233 -0.880545 0
M  V30 59 H 2.1643 5.26529 -2.60846 0
M  V30 60 H 3.6883 5.81687 -1.85667 0
M  V30 61 H 5.1023 4.42168 -3.64911 0
M  V30 62 H 3.4993 4.10731 -4.37516 0
M  V30 63 H 4.5693 2.74527 -3.99703 0
M  V30 64 N 5.9124 1.20967 1.01018 0
M  V30 65 C 7.1374 1.0503 1.78839 0
M  V30 66 C 7.5624 -0.395752 1.8389 0
M  V30 67 O 6.9204 -1.28529 1.27867 0
M  V30 68 C 6.9684 1.64602 3.2084 0
M  V30 69 O 6.0724 0.887988 4.02726 0
M  V30 70 H 5.4134 0.369987 0.551367 0
M  V30 71 H 7.9434 1.60399 1.27018 0
M  V30 72 H 7.9534 1.68607 3.71532 0
M  V30 73 H 6.6284 2.69841 3.16479 0
M  V30 74 H 5.2054 0.922648 3.61305 0
M  V30 75 N 7.3905 -1.2043 1.01659 0
M  V30 76 C 8.8065 -1.41852 0.731442 0
M  V30 77 C 9.0065 -1.89358 -0.688898 0
M  V30 78 O 8.0625 -2.06247 -1.45666 0
M  V30 79 C 9.3755 -2.44019 1.75714 0
M  V30 80 C 10.9235 -2.57785 1.77527 0
M  V30 81 C 11.3985 -3.63194 2.79023 0
M  V30 82 N 12.8895 -3.70678 2.77763 0
M  V30 83 C 13.6245 -4.51897 3.52954 0
M  V30 84 N 13.1205 -5.36921 4.37821 0
M  V30 85 N 14.9135 -4.4643 3.41551 0
M  V30 86 H 7.0645 -0.879093 1.93354 0
M  V30 87 H 9.3275 -0.448425 0.835236 0
M  V30 88 H 9.0335 -2.1611 2.77469 0
M  V30 89 H 8.9075 -3.43007 1.56927 0
M  V30 90 H 11.2945 -2.85023 0.764569 0
M  V30 91 H 11.3755 -1.58992 2.00387 0
M  V30 92 H 11.0195 -3.36699 3.80258 0
M  V30 93 H 10.9495 -4.61609 2.53425 0
M  V30 94 H 13.4405 -3.09944 2.16201 0
M  V30 95 H 13.7535 -5.95981 4.91962 0
M  V30 96 H 12.0985 -5.36424 4.41899 0
M  V30 97 H 15.2895 -3.79042 2.74672 0
M  V30 98 H 15.4625 -5.09491 4.00404 0
M  V30 99 N 8.8686 -0.792821 -1.36206 0
M  V30 100 C 9.7986 -0.207853 -2.32573 0
M  V30 101 C 10.7796 0.659055 -1.56813 0
M  V30 102 O 11.9646 0.592176 -1.84951 0
M  V30 103 C 9.0946 0.655449 -3.41059 0
M  V30 104 C 8.0486 -0.111842 -4.27854 0
M  V30 105 C 7.3746 0.872274 -5.27537 0
M  V30 106 C 8.6746 -1.30299 -5.05786 0
M  V30 107 H 10.3686 -1.01294 -2.81744 0
M  V30 108 H 7.9146 -0.48854 -1.3546 0
M  V30 109 H 9.8676 1.07464 -4.07467 0
M  V30 110 H 8.5916 1.49328 -2.90463 0
M  V30 111 H 7.2506 -0.512053 -3.63006 0
M  V30 112 H 6.8986 1.70523 -4.73214 0
M  V30 113 H 6.5986 0.363291 -5.86476 0
M  V30 114 H 8.1226 1.28996 -5.96818 0
M  V30 115 H 9.5366 -0.959379 -5.65216 0
M  V30 116 H 7.9336 -1.7455 -5.74154 0
M  V30 117 H 9.0036 -2.09663 -4.37229 0
M  V30 118 N 10.3467 1.47872 -0.545128 0
M  V30 119 C 11.7627 1.5829 -0.204032 0
M  V30 120 C 11.9627 1.54529 1.29317 0
M  V30 121 O 11.0187 1.44232 2.07252 0
M  V30 122 C 12.3317 2.89304 -0.819987 0
M  V30 123 C 13.8797 3.02864 -0.790105 0
M  V30 124 C 14.3547 4.3656 -1.38491 0
M  V30 125 N 15.8457 4.43165 -1.34755 0
M  V30 126 C 16.5807 5.45153 -1.77753 0
M  V30 127 N 16.0767 6.54016 -2.2855 0
M  V30 128 N 17.8697 5.36125 -1.68897 0
M  V30 129 H 10.0207 1.4856 -1.51802 0
M  V30 130 H 12.2837 0.706305 -0.632327 0
M  V30 131 H 11.9897 2.97757 -1.87173 0
M  V30 132 H 11.8637 3.75957 -0.305915 0
M  V30 133 H 14.2507 2.94014 0.252913 0
M  V30 134 H 14.3317 2.17782 -1.34181 0
M  V30 135 H 13.9757 4.46164 -2.42693 0
M  V30 136 H 13.9057 5.20353 -0.808754 0
M  V30 137 H 16.3967 3.65083 -0.975855 0
M  V30 138 H 16.7097 7.27994 -2.59314 0
M  V30 139 H 15.0547 6.54938 -2.32553 0
M  V30 140 H 18.2457 4.49975 -1.28998 0
M  V30 141 H 18.4187 6.15472 -2.02726 0
M  V30 142 N 11.8248 0.280983 1.55075 0
M  V30 143 C 12.7718 -0.603937 2.22758 0
M  V30 144 C 13.7418 -1.1452 1.20309 0
M  V30 145 O 14.9268 -1.19343 1.48869 0
M  V30 146 C 12.0668 -1.77947 2.95684 0
M  V30 147 C 11.1798 -1.2715 4.12864 0
M  V30 148 C 10.3148 -2.4093 4.7342 0
M  V30 149 C 9.3538 -1.87165 5.82783 0
M  V30 150 N 8.4908 -2.94441 6.37377 0
M  V30 151 H 13.3308 -0.020124 2.97993 0
M  V30 152 H 10.8678 0.00183425 1.471 0
M  V30 153 H 12.8258 -2.47055 3.36184 0
M  V30 154 H 11.4558 -2.33522 2.22861 0
M  V30 155 H 10.5078 -0.473331 3.77444 0
M  V30 156 H 11.8198 -0.837751 4.91715 0
M  V30 157 H 10.9738 -3.18021 5.1667 0
M  V30 158 H 9.7128 -2.87623 3.93859 0
M  V30 159 H 8.7178 -1.08556 5.38976 0
M  V30 160 H 9.9428 -1.41401 6.64216 0
M  V30 161 H 7.8888 -3.40505 5.60707 0
M  V30 162 H 7.8058 -2.55501 7.11516 0
M  V30 163 H 9.0738 -3.71489 6.85285 0
M  V30 164 N 13.3029 -1.57598 0.00835791 0
M  V30 165 C 14.7189 -1.55764 -0.347822 0
M  V30 166 C 14.9189 -1.01186 -1.74252 0
M  V30 167 O 13.9749 -0.649371 -2.44007 0
M  V30 168 C 15.2879 -2.99927 -0.215407 0
M  V30 169 C 16.8359 -3.11656 -0.289725 0
M  V30 170 C 17.3109 -4.57621 -0.18634 0
M  V30 171 N 18.8019 -4.62557 -0.243978 0
M  V30 172 C 19.5369 -5.73094 -0.18745 0
M  V30 173 N 19.0329 -6.92753 -0.0810331 0
M  V30 174 N 20.8259 -5.61588 -0.239925 0
M  V30 175 H 12.9769 -1.91411 0.92062 0
M  V30 176 H 15.2399 -0.879562 0.353659 0
M  V30 177 H 14.9459 -3.43729 0.744512 0
M  V30 178 H 14.8199 -3.63865 -0.994097 0
M  V30 179 H 17.2069 -2.67779 -1.24009 0
M  V30 180 H 17.2879 -2.5048 0.51898 0
M  V30 181 H 16.9319 -5.02174 0.760519 0
M  V30 182 H 16.8619 -5.16752 -1.01364 0
M  V30 183 H 19.3529 -3.76481 -0.327217 0
M  V30 184 H 19.6659 -7.72787 -0.0440241 0
M  V30 185 H 18.0109 -6.94984 -0.0465419 0
M  V30 186 H 21.2019 -4.66996 -0.321317 0
M  V30 187 H 21.3749 -6.47714 -0.192407 0
M  V30 188 N 14.781 0.264519 -1.55364 0
M  V30 189 C 15.691 1.34902 -1.91934 0
M  V30 190 C 16.707 1.53595 -0.817593 0
M  V30 191 O 17.883 1.67558 -1.11742 0
M  V30 192 C 14.948 2.68676 -2.19121 0
M  V30 193 C 14.009 2.58657 -3.4263 0
M  V30 194 C 13.242 3.86051 -3.68511 0
M  V30 195 O 13.465 4.87126 -2.96757 0
M  V30 196 O 12.399 3.85744 -4.62045 0
M  V30 197 H 16.225 1.06883 -2.8427 0
M  V30 198 H 13.81 0.463775 -1.42019 0
M  V30 199 H 15.692 3.47759 -2.37995 0
M  V30 200 H 14.367 2.96463 -1.29966 0
M  V30 201 H 13.274 1.7792 -3.29082 0
M  V30 202 H 14.607 2.35818 -4.32031 0
M  V30 203 N 16.2591 1.48442 0.529413 0
M  V30 204 C 17.6701 1.5002 1.11134 0
M  V30 205 C 18.0211 0.27031 1.94329 0
M  V30 206 O 17.1461 -0.622507 2.07253 0
M  V30 207 C 17.7411 2.71834 2.02217 0
M  V30 208 C 16.3001 2.76283 2.55627 0
M  V30 209 C 15.4471 2.43542 1.326 0
M  V30 210 H 18.3981 1.5555 0.314641 0
M  V30 211 H 18.4191 2.50384 2.8651 0
M  V30 212 H 17.9311 3.61331 1.41639 0
M  V30 213 H 16.0321 1.90995 3.19924 0
M  V30 214 H 16.1451 3.77725 2.94721 0
M  V30 215 H 14.5091 1.94709 1.64196 0
M  V30 216 H 15.2921 3.3528 0.737734 0
M  V30 217 N 17.7372 -0.778329 1.37039 0
M  V30 218 C 18.9862 -1.53189 1.3121 0
M  V30 219 C 19.2992 -1.95328 -0.103095 0
M  V30 220 O 20.5052 -2.70012 -0.283826 0
M  V30 221 C 18.9612 -2.76591 2.30272 0
M  V30 222 C 18.5692 -2.41577 3.77286 0
M  V30 223 C 20.3132 -3.5455 2.33441 0
M  V30 224 C 18.2202 -3.61441 4.68096 0
M  V30 225 H 17.1502 -0.5751 0.487622 0
M  V30 226 H 19.8012 -0.853101 1.62464 0
M  V30 227 H 18.1832 -3.46326 1.92027 0
M  V30 228 H 19.3572 -1.79668 4.2433 0
M  V30 229 H 17.6722 -1.76806 3.76999 0
M  V30 230 H 20.2692 -4.43628 2.98493 0
M  V30 231 H 20.6122 -3.93936 1.34611 0
M  V30 232 H 21.1452 -2.91805 2.7036 0
M  V30 233 H 17.8842 -3.27142 5.6803 0
M  V30 234 H 17.4042 -4.22478 4.25761 0
M  V30 235 H 19.0832 -4.28335 4.8491 0
M  V30 236 N 19.2153 -1.21501 -1.00376 0
M  V30 237 C 20.4403 -1.05977 -1.78279 0
M  V30 238 C 20.8653 0.385994 -1.84097 0
M  V30 239 O 20.2233 1.27849 -1.28547 0
M  V30 240 C 20.2713 -1.66302 -3.19963 0
M  V30 241 O 19.3753 -0.909333 -4.0225 0
M  V30 242 H 18.7163 -0.372906 -0.549397 0
M  V30 243 H 21.2463 -1.6107 -1.26165 0
M  V30 244 H 21.2563 -1.70574 -3.70632 0
M  V30 245 H 19.9313 -2.71515 -3.15043 0
M  V30 246 H 18.5083 -0.941795 -3.60811 0
M  V30 247 N 20.6934 1.19889 -1.02296 0
M  V30 248 C 21.9424 1.88743 -0.711257 0
M  V30 249 C 22.2554 1.80112 0.762817 0
M  V30 250 O 23.4614 2.44161 1.18733 0
M  V30 251 C 21.9174 3.38525 -1.22185 0
M  V30 252 C 21.5254 3.55727 -2.72328 0
M  V30 253 C 23.2694 4.12893 -0.985864 0
M  V30 254 C 21.1764 4.99369 -3.16835 0
M  V30 255 H 20.1064 0.706885 -0.262353 0
M  V30 256 H 22.7574 1.35586 -1.23648 0
M  V30 257 H 21.1394 3.91044 -0.624571 0
M  V30 258 H 22.3134 3.13564 -3.3766 0
M  V30 259 H 20.6284 2.94739 -2.9414 0
M  V30 260 H 23.2254 5.18813 -1.29374 0
M  V30 261 H 23.5684 4.16228 0.0775055 0
M  V30 262 H 24.1014 3.66494 -1.54684 0
M  V30 263 H 20.8404 5.01193 -4.22476 0
M  V30 264 H 20.3604 5.42317 -2.56228 0
M  V30 265 H 22.0394 5.67988 -3.09837 0
M  V30 266 N 22.1715 0.800033 1.35784 0
M  V30 267 C 23.4015 0.389041 2.02904 0
M  V30 268 C 23.8095 -1.0027 1.60445 0
M  V30 269 O 23.1525 -1.65633 0.794453 0
M  V30 270 C 23.2145 0.385495 3.57427 0
M  V30 271 C 22.8785 1.72662 4.23127 0
M  V30 272 C 23.8755 2.68385 4.4527 0
M  V30 273 C 21.5605 2.00883 4.60381 0
M  V30 274 C 23.5545 3.90517 5.03761 0
M  V30 275 C 21.2415 3.2328 5.18588 0
M  V30 276 C 22.2395 4.17915 5.40218 0
M  V30 277 O 21.9275 5.38153 5.97199 0
M  V30 278 H 21.6595 0.157032 0.657508 0
M  V30 279 H 24.2135 1.08311 1.74522 0
M  V30 280 H 22.4435 -0.365128 3.84972 0
M  V30 281 H 24.1325 -0.00228296 4.059 0
M  V30 282 H 24.8985 2.47872 4.16874 0
M  V30 283 H 20.7775 1.28037 4.42863 0
M  V30 284 H 24.3215 4.64395 5.2056 0
M  V30 285 H 20.2185 3.43667 5.4641 0
M  V30 286 H 20.9865 5.3936 6.15656 0
M  V30 287 N 23.6496 -1.47581 0.552962 0
M  V30 288 C 24.9266 -1.95563 -0.0381515 0
M  V30 289 C 25.3066 -1.49552 -1.48988 0
M  V30 290 O 24.6546 -0.732414 -2.16444 0
M  V30 291 C 24.8646 -3.48848 0.102919 0
M  V30 292 C 26.2126 -4.24577 -0.0446082 0
M  V30 293 O 27.2366 -3.56187 0.0302548 0
M  V30 294 O 26.0956 -5.46116 -0.204923 0
M  V30 295 H 23.1896 -0.824321 -0.0665067 0
M  V30 296 H 25.7356 -1.58001 0.619186 0
M  V30 297 H 24.5076 -3.75129 1.11328 0
M  V30 298 H 24.1306 -3.93165 -0.592224 0
M  V30 299 N 25.1277 -0.289203 -1.54924 0
M  V30 300 C 26.0747 0.592115 -2.23075 0
M  V30 301 C 27.0447 1.13881 -1.20915 0
M  V30 302 O 28.2297 1.18551 -1.495 0
M  V30 303 C 25.3697 1.76376 -2.96623 0
M  V30 304 C 24.4827 1.24959 -4.13533 0
M  V30 305 C 23.6177 2.38416 -4.74691 0
M  V30 306 C 22.6567 1.84072 -5.83767 0
M  V30 307 N 21.7937 2.91057 -6.38929 0
M  V30 308 H 26.6337 0.00432038 -2.98 0
M  V30 309 H 24.1707 -0.00963529 -1.47097 0
M  V30 310 H 26.1287 2.45268 -3.3749 0
M  V30 311 H 24.7587 2.32337 -2.24097 0
M  V30 312 H 23.8107 0.453307 -3.77689 0
M  V30 313 H 25.1227 0.811662 -4.92152 0
M  V30 314 H 24.2767 3.15276 -5.18349 0
M  V30 315 H 23.0157 2.8553 -3.95378 0
M  V30 316 H 22.0207 1.05697 -5.39545 0
M  V30 317 H 23.2457 1.37877 -6.64956 0
M  V30 318 H 21.1917 3.37526 -5.62505 0
M  V30 319 H 21.1087 2.51724 -7.12861 0
M  V30 320 H 22.3767 3.6785 -6.87246 0
M  V30 321 N 26.6058 1.57591 -0.0167156 0
M  V30 322 C 27.8548 1.90461 0.663877 0
M  V30 323 C 28.1678 0.893515 1.73999 0
M  V30 324 O 29.3738 1.11302 2.47637 0
M  V30 325 C 27.8298 3.38155 1.23204 0
M  V30 326 C 27.4378 4.47597 0.189866 0
M  V30 327 C 29.1818 3.80111 1.88986 0
M  V30 328 C 27.0888 5.86379 0.768964 0
M  V30 329 H 26.0188 0.710738 0.251729 0
M  V30 330 H 28.6698 1.83326 -0.0799926 0
M  V30 331 H 27.0518 3.40182 2.02712 0
M  V30 332 H 28.2258 4.57112 -0.581846 0
M  V30 333 H 26.5408 4.14766 -0.368475 0
M  V30 334 H 29.1378 4.81145 2.33247 0
M  V30 335 H 29.4808 3.14511 2.72743 0
M  V30 336 H 30.0138 3.80454 1.16187 0
M  V30 337 H 26.7528 6.55493 -0.0301957 0
M  V30 338 H 26.2728 5.80496 1.50945 0
M  V30 339 H 27.9518 6.34563 1.26251 0
M  V30 340 N 28.0839 -0.256276 1.55502 0
M  V30 341 C 29.3319 -0.983672 1.76545 0
M  V30 342 C 29.6529 -1.86206 0.578982 0
M  V30 343 O 28.9229 -1.91656 -0.405577 0
M  V30 344 H 27.5029 -0.366191 0.651086 0
M  V30 345 H 30.1649 -0.276479 1.92929 0
M  V30 346 H 29.2609 -1.61087 2.67315 0
M  V30 347 N 29.562 -1.4872 -0.521534 0
M  V30 348 C 30.81 -1.56857 -1.27437 0
M  V30 349 C 31.131 -0.247982 -1.93417 0
M  V30 350 O 30.401 0.731151 -1.81744 0
M  V30 351 H 28.981 -0.577885 -0.473347 0
M  V30 352 H 31.643 -1.85233 -0.606205 0
M  V30 353 H 30.739 -2.35402 -2.0492 0
M  V30 354 N 31.0401 0.771051 -1.3745 0
M  V30 355 C 31.9901 1.87456 -1.29785 0
M  V30 356 C 32.9741 1.59827 -0.185541 0
M  V30 357 O 34.1661 1.71945 -0.419997 0
M  V30 358 C 31.2951 3.24935 -1.1078 0
M  V30 359 C 30.3811 3.58514 -2.26558 0
M  V30 360 N 30.7721 3.6327 -3.5195 0
M  V30 361 C 29.0701 3.88683 -2.18727 0
M  V30 362 C 29.7711 3.93616 -4.283 0
M  V30 363 N 28.7471 4.09551 -3.57448 0
M  V30 364 H 32.5491 1.89386 -2.24745 0
M  V30 365 H 30.0631 0.967531 -1.30432 0
M  V30 366 H 32.0601 4.03881 -1.03374 0
M  V30 367 H 30.7201 3.24268 -0.16738 0
M  V30 368 H 31.7311 3.45458 -3.85848 0
M  V30 369 H 28.4081 3.95834 -1.32746 0
M  V30 370 H 29.7981 4.04066 -5.36824 0
M  V30 371 N 32.5182 1.22032 0.997298 0
M  V30 372 C 33.4282 1.00271 2.12092 0
M  V30 373 C 34.4442 -0.047621 1.73935 0
M  V30 374 O 35.6202 0.144136 2.00884 0
M  V30 375 C 32.6852 0.578449 3.4184 0
M  V30 376 C 31.7462 1.70189 3.94125 0
M  V30 377 C 30.9792 1.29778 5.17681 0
M  V30 378 O 31.2022 0.174676 5.70132 0
M  V30 379 O 30.1362 2.11261 5.63607 0
M  V30 380 H 33.9622 1.94398 2.3333 0
M  V30 381 H 31.5472 1.00587 1.10465 0
M  V30 382 H 33.4292 0.351998 4.19927 0
M  V30 383 H 32.1042 -0.334019 3.21972 0
M  V30 384 H 31.0112 1.98282 3.1723 0
M  V30 385 H 32.3442 2.59206 4.18417 0
M  V30 386 N 33.9963 -1.19345 1.0293 0
M  V30 387 C 34.9593 -2.20793 0.615069 0
M  V30 388 C 35.9593 -1.57553 -0.321533 0
M  V30 389 O 37.1493 -1.73862 -0.108483 0
M  V30 390 C 34.2813 -3.40754 -0.0999222 0
M  V30 391 H 35.4743 -2.58955 1.51269 0
M  V30 392 H 33.0273 -1.3303 0.820534 0
M  V30 393 H 33.7623 -3.0811 -1.01187 0
M  V30 394 H 33.5473 -3.87889 0.57309 0
M  V30 395 H 35.0373 -4.15898 -0.376645 0
M  V30 396 N 35.4744 -0.807222 -1.35358 0
M  V30 397 C 36.7234 -0.384376 -1.98004 0
M  V30 398 C 37.0364 1.0543 -1.64754 0
M  V30 399 O 38.2424 1.58029 -2.20769 0
M  V30 400 C 36.6984 -0.636326 -3.5423 0
M  V30 401 C 36.3064 -2.08759 -3.96388 0
M  V30 402 C 38.0504 -0.278869 -4.23583 0
M  V30 403 C 35.9574 -2.28525 -5.45463 0
M  V30 404 H 34.8874 -0.139986 -0.740891 0
M  V30 405 H 37.5384 -0.991369 -1.54415 0
M  V30 406 H 35.9204 0.0406256 -3.95979 0
M  V30 407 H 37.0944 -2.8024 -3.6579 0
M  V30 408 H 35.4094 -2.40497 -3.39926 0
M  V30 409 H 38.0064 -0.404599 -5.33167 0
M  V30 410 H 38.3494 0.775012 -4.09022 0
M  V30 411 H 38.8824 -0.909764 -3.87257 0
M  V30 412 H 35.6214 -3.32361 -5.64992 0
M  V30 413 H 35.1414 -1.61569 -5.77629 0
M  V30 414 H 36.8204 -2.10109 -6.11934 0
M  V30 415 N 36.9525 1.47285 -0.560781 0
M  V30 416 C 37.8625 2.33846 0.187954 0
M  V30 417 C 38.8785 1.48412 0.908293 0
M  V30 418 O 40.0545 1.81332 0.876388 0
M  V30 419 C 37.1195 3.25178 1.2025 0
M  V30 420 C 36.1805 4.26504 0.489208 0
M  V30 421 C 35.4135 5.13472 1.45542 0
M  V30 422 O 35.6365 5.02959 2.6905 0
M  V30 423 O 34.5705 5.93902 0.977963 0
M  V30 424 H 38.3965 2.99177 -0.522177 0
M  V30 425 H 35.9815 1.45903 -0.321364 0
M  V30 426 H 37.8635 3.81584 1.78805 0
M  V30 427 H 36.5385 2.6247 1.89449 0
M  V30 428 H 35.4455 3.73847 -0.137627 0
M  V30 429 H 36.7785 4.91935 -0.161399 0
M  V30 430 N 38.4306 0.297415 1.54768 0
M  V30 431 C 39.6766 -0.313376 2.00364 0
M  V30 432 C 40.0096 -1.53815 1.18553 0
M  V30 433 O 39.2846 -1.92739 0.261103 0
M  V30 434 C 39.5676 -0.673525 3.53745 0
M  V30 435 C 39.4206 0.560133 4.46299 0
M  V30 436 C 40.7396 -1.50143 4.13697 0
M  V30 437 H 37.8586 -0.112428 0.728374 0
M  V30 438 H 40.5006 0.4088 1.8555 0
M  V30 439 H 38.6506 -1.28881 3.665 0
M  V30 440 H 40.3226 1.19863 4.45455 0
M  V30 441 H 38.5656 1.19405 4.17043 0
M  V30 442 H 39.2366 0.26405 5.51368 0
M  V30 443 H 41.7126 -0.981588 4.04356 0
M  V30 444 H 40.5886 -1.72221 5.21182 0
M  V30 445 H 40.8496 -2.48952 3.65343 0
M  V30 446 N 39.9087 -1.5758 0.0250728 0
M  V30 447 C 41.1547 -1.91917 -0.655413 0
M  V30 448 C 41.4877 -0.901433 -1.72011 0
M  V30 449 O 40.7627 0.0764069 -1.9435 0
M  V30 450 C 41.0457 -3.36751 -1.27558 0
M  V30 451 C 40.8987 -4.49258 -0.220719 0
M  V30 452 C 42.2177 -3.81469 -2.19475 0
M  V30 453 H 39.3367 -0.697925 -0.23679 0
M  V30 454 H 41.9787 -1.89825 0.0815036 0
M  V30 455 H 40.1287 -3.38664 -1.90365 0
M  V30 456 H 41.8007 -4.59478 0.409601 0
M  V30 457 H 40.0437 -4.31415 0.454264 0
M  V30 458 H 40.7147 -5.47618 -0.694175 0
M  V30 459 H 43.1907 -3.81266 -1.66659 0
M  V30 460 H 42.0667 -4.83512 -2.59822 0
M  V30 461 H 42.3277 -3.16744 -3.08424 0
M  V30 462 N 41.3868 0.248026 -1.55636 0
M  V30 463 C 42.6328 0.97767 -1.77678 0
M  V30 464 C 42.9658 1.85016 -0.590135 0
M  V30 465 O 42.2408 1.90095 0.411611 0
M  V30 466 C 42.5238 1.83914 -3.09593 0
M  V30 467 C 42.3768 0.99491 -4.38659 0
M  V30 468 C 43.6958 2.82183 -3.37729 0
M  V30 469 H 40.8148 0.354005 -0.646413 0
M  V30 470 H 43.4568 0.248253 -1.88371 0
M  V30 471 H 41.6068 2.46104 -3.00608 0
M  V30 472 H 43.2788 0.391789 -4.59633 0
M  V30 473 H 41.5218 0.299231 -4.32767 0
M  V30 474 H 42.1928 1.63145 -5.2734 0
M  V30 475 H 44.6688 2.30129 -3.4667 0
M  V30 476 H 43.5448 3.39582 -4.31249 0
M  V30 477 H 43.8058 3.58588 -2.58586 0
M  V30 478 N 42.8649 1.48995 0.513639 0
M  V30 479 C 43.7749 1.67443 1.64317 0
M  V30 480 C 44.7909 0.556947 1.64846 0
M  V30 481 O 45.9669 0.830082 1.83498 0
M  V30 482 C 43.0319 1.72515 3.00732 0
M  V30 483 C 42.0929 2.96009 3.1093 0
M  V30 484 C 41.3259 3.00829 4.40837 0
M  V30 485 O 41.5489 2.13594 5.28898 0
M  V30 486 O 40.4829 3.93168 4.55744 0
M  V30 487 H 44.3089 2.63106 1.51687 0
M  V30 488 H 41.8939 1.32588 0.688543 0
M  V30 489 H 43.7759 1.78277 3.81831 0
M  V30 490 H 42.4509 0.800278 3.13651 0
M  V30 491 H 41.3579 2.9577 2.29065 0
M  V30 492 H 42.6909 3.87934 3.02933 0
M  V30 493 N 44.343 -0.763751 1.37857 0
M  V30 494 C 45.62 -1.51244 1.24035 0
M  V30 495 C 46 -2.10472 -0.162649 0
M  V30 496 O 45.348 -1.96206 -1.17112 0
M  V30 497 C 45.558 -2.58694 2.34261 0
M  V30 498 C 46.906 -3.25878 2.72193 0
M  V30 499 O 47.93 -2.68993 2.33497 0
M  V30 500 O 46.789 -4.2874 3.38887 0
M  V30 501 H 43.883 -0.670243 0.484462 0
M  V30 502 H 46.429 -0.800031 1.49658 0
M  V30 503 H 45.201 -2.13105 3.2818 0
M  V30 504 H 44.824 -3.37527 2.10146 0
M  V30 505 N 45.8211 -1.22559 -0.990812 0
M  V30 506 C 47.0681 -1.05141 -1.73065 0
M  V30 507 C 47.3961 0.413191 -1.9006 0
M  V30 508 O 46.6511 1.32257 -1.44245 0
M  V30 509 C 46.9501 -1.71011 -3.13831 0
M  V30 510 C 46.6161 -3.20911 -3.16745 0
M  V30 511 C 45.2781 -3.61812 -3.17247 0
M  V30 512 C 47.6301 -4.16846 -3.12872 0
M  V30 513 C 44.9581 -4.97127 -3.1158 0
M  V30 514 C 47.3101 -5.5214 -3.08746 0
M  V30 515 C 45.9741 -5.92419 -3.07565 0
M  V30 516 H 45.2441 -0.384738 -0.633291 0
M  V30 517 H 47.8911 -1.5235 -1.16025 0
M  V30 518 H 46.1961 -1.16133 -3.74193 0
M  V30 519 H 47.8931 -1.55023 -3.69823 0
M  V30 520 H 44.4831 -2.88344 -3.17105 0
M  V30 521 H 48.6671 -3.86263 -3.11632 0
M  V30 522 H 43.9231 -5.27562 -3.09012 0
M  V30 523 H 48.0971 -6.26201 -3.04705 0
M  V30 524 H 45.7241 -6.97236 -3.02929 0
M  V30 525 N 47.2992 1.18797 -1.03562 0
M  V30 526 C 48.5292 1.92319 -0.754773 0
M  V30 527 C 48.9372 1.7612 0.691248 0
M  V30 528 O 48.2802 1.08491 1.48241 0
M  V30 529 C 48.3422 3.44284 -1.03484 0
M  V30 530 C 48.0062 3.84258 -2.47376 0
M  V30 531 C 49.0032 3.88459 -3.45537 0
M  V30 532 C 46.6882 4.15701 -2.81954 0
M  V30 533 C 48.6822 4.23545 -4.76328 0
M  V30 534 C 46.3692 4.50458 -4.12954 0
M  V30 535 C 47.3672 4.54356 -5.09951 0
M  V30 536 O 47.0552 4.88305 -6.38603 0
M  V30 537 H 46.7872 0.617527 -0.275021 0
M  V30 538 H 49.3412 1.51683 -1.38497 0
M  V30 539 H 47.5712 3.85135 -0.347513 0
M  V30 540 H 49.2602 3.99049 -0.7426 0
M  V30 541 H 50.0262 3.6431 -3.20162 0
M  V30 542 H 45.9052 4.11847 -2.0713 0
M  V30 543 H 49.4492 4.26502 -5.52035 0
M  V30 544 H 45.3462 4.74067 -4.38099 0
M  V30 545 H 46.1142 5.06227 -6.43177 0
M  V30 546 N 48.7773 0.814389 1.34928 0
M  V30 547 C 50.0233 0.399013 1.98836 0
M  V30 548 C 50.3563 -1.03314 1.64438 0
M  V30 549 O 49.6313 -1.71811 0.911659 0
M  V30 550 C 49.9143 0.591629 3.55207 0
M  V30 551 C 49.7673 2.06928 3.99376 0
M  V30 552 C 51.0863 0.022199 4.40094 0
M  V30 553 H 48.2053 0.146451 0.722303 0
M  V30 554 H 50.8473 1.02537 1.59957 0
M  V30 555 H 48.9973 0.0584441 3.88456 0
M  V30 556 H 50.6693 2.66544 3.76499 0
M  V30 557 H 48.9123 2.56287 3.49999 0
M  V30 558 H 49.5833 2.1549 5.08201 0
M  V30 559 H 52.0593 0.477643 4.13349 0
M  V30 560 H 50.9353 0.186832 5.48582 0
M  V30 561 H 51.1963 -1.07215 4.28902 0
M  V30 562 N 50.2554 -1.46986 0.568584 0
M  V30 563 C 51.6714 -1.57946 0.229189 0
M  V30 564 C 51.8714 -1.56567 -1.26843 0
M  V30 565 O 50.9274 -1.47511 -2.04931 0
M  V30 566 C 52.2404 -2.87963 0.865909 0
M  V30 567 C 53.7884 -3.01568 0.838188 0
M  V30 568 C 54.2634 -4.34301 1.45419 0
M  V30 569 N 55.7544 -4.40965 1.41788 0
M  V30 570 C 56.4894 -5.42256 1.86403 0
M  V30 571 N 55.9854 -6.50297 2.38926 0
M  V30 572 N 57.7784 -5.3337 1.77405 0
M  V30 573 H 49.9294 -1.46126 1.54146 0
M  V30 574 H 52.1924 -0.696156 0.643484 0
M  V30 575 H 51.8984 -2.94742 1.91886 0
M  V30 576 H 51.7724 -3.75423 0.365687 0
M  V30 577 H 54.1594 -2.94379 -0.206106 0
M  V30 578 H 54.2404 -2.1562 1.37629 0
M  V30 579 H 53.8844 -4.42247 2.49761 0
M  V30 580 H 53.8144 -5.19 0.891435 0
M  V30 581 H 56.3054 -3.63484 1.03381 0
M  V30 582 H 56.6184 -7.23777 2.70863 0
M  V30 583 H 54.9634 -6.51155 2.42944 0
M  V30 584 H 58.1544 -4.47865 1.3614 0
M  V30 585 H 58.3274 -6.12169 2.12492 0
M  V30 586 N 51.7335 -0.305618 -1.54608 0
M  V30 587 C 52.9795 0.302746 -2.00528 0
M  V30 588 C 53.3125 1.53184 -1.19367 0
M  V30 589 O 52.5875 1.92598 -0.271321 0
M  V30 590 C 52.8705 0.654756 -3.54097 0
M  V30 591 C 52.7235 -0.583793 -4.45995 0
M  V30 592 C 54.0425 1.47947 -4.14487 0
M  V30 593 H 51.1615 0.108564 -0.72896 0
M  V30 594 H 53.8035 -0.418634 -1.85331 0
M  V30 595 H 51.9535 1.26935 -3.67178 0
M  V30 596 H 53.6255 -1.22224 -4.44814 0
M  V30 597 H 51.8685 -1.21615 -4.16404 0
M  V30 598 H 52.5395 -0.293287 -5.5122 0
M  V30 599 H 55.0155 0.96013 -4.04871 0
M  V30 600 H 53.8915 1.69454 -5.22088 0
M  V30 601 H 54.1525 2.47011 -3.66658 0
M  V30 602 N 53.2116 1.57565 -0.0334293 0
M  V30 603 C 54.1416 2.13511 0.945265 0
M  V30 604 C 55.1226 1.05231 1.33643 0
M  V30 605 O 56.3076 1.33084 1.41429 0
M  V30 606 C 53.4376 2.6657 2.22616 0
M  V30 607 C 52.3916 3.79676 1.97561 0
M  V30 608 C 51.7176 4.1918 3.31952 0
M  V30 609 C 53.0176 5.0557 1.31135 0
M  V30 610 H 54.7116 2.95538 0.479325 0
M  V30 611 H 52.2576 1.42166 0.229115 0
M  V30 612 H 54.2106 3.04344 2.91466 0
M  V30 613 H 52.9346 1.8171 2.71384 0
M  V30 614 H 51.5936 3.42347 1.31127 0
M  V30 615 H 51.2416 3.31296 3.78487 0
M  V30 616 H 50.9416 4.95402 3.15992 0
M  V30 617 H 52.4656 4.59541 4.02063 0
M  V30 618 H 53.8796 5.40903 1.89992 0
M  V30 619 H 52.2766 5.86818 1.25559 0
M  V30 620 H 53.3466 4.84062 0.284894 0
M  V30 621 N 54.6897 -0.239769 1.55765 0
M  V30 622 C 55.6527 -1.28038 1.90103 0
M  V30 623 C 56.6527 -1.40723 0.778055 0
M  V30 624 O 57.8427 -1.39301 1.04599 0
M  V30 625 C 54.9747 -2.65702 2.13577 0
M  V30 626 H 56.1677 -0.988048 2.83157 0
M  V30 627 H 53.7207 -0.479382 1.48767 0
M  V30 628 H 54.4557 -3.00063 1.23015 0
M  V30 629 H 54.2407 -2.57875 2.95369 0
M  V30 630 H 55.7307 -3.40828 2.41301 0
M  V30 631 N 56.1678 -1.49265 -0.50573 0
M  V30 632 C 57.4448 -1.49012 -1.26707 0
M  V30 633 C 57.8248 -0.215205 -2.1 0
M  V30 634 O 57.1728 0.802547 -2.13943 0
M  V30 635 C 57.3828 -2.7663 -2.12783 0
M  V30 636 C 58.7308 -3.25932 -2.72127 0
M  V30 637 O 59.7548 -2.77715 -2.23054 0
M  V30 638 O 58.6138 -4.09897 -3.61451 0
M  V30 639 H 55.7078 -0.596197 -0.57313 0
M  V30 640 H 58.2538 -1.61524 -0.52039 0
M  V30 641 H 57.0258 -3.60916 -1.5118 0
M  V30 642 H 56.6488 -2.66956 -2.94653 0
M  V30 643 N 57.6459 0.756429 -1.3826 0
M  V30 644 C 58.9229 1.50584 -1.24835 0
M  V30 645 C 59.3029 2.10556 0.151485 0
M  V30 646 O 58.6509 1.96825 1.1607 0
M  V30 647 C 58.8609 2.57448 -2.3563 0
M  V30 648 C 60.2089 3.24429 -2.73917 0
M  V30 649 O 61.2329 2.67751 -2.34921 0
M  V30 650 O 60.0919 4.26937 -3.41156 0
M  V30 651 H 57.1859 0.667664 -0.48801 0
M  V30 652 H 59.7319 0.792083 -1.5008 0
M  V30 653 H 58.5039 2.11362 -3.29305 0
M  V30 654 H 58.1269 3.36408 -2.11933 0
M  V30 655 N 59.124 1.23083 0.984299 0
M  V30 656 C 60.056 0.96636 2.07832 0
M  V30 657 C 61.069 -0.0582135 1.62696 0
M  V30 658 O 62.258 0.176843 1.77622 0
M  V30 659 C 59.358 0.433397 3.36117 0
M  V30 660 C 58.531 1.51722 4.10243 0
M  V30 661 C 57.59 0.989821 5.16807 0
M  V30 662 O 56.616 1.67794 5.43906 0
M  V30 663 N 57.818 -0.184367 5.80207 0
M  V30 664 H 60.583 1.90824 2.31098 0
M  V30 665 H 58.144 1.13888 1.1507 0
M  V30 666 H 60.136 0.065699 4.04647 0
M  V30 667 H 58.706 -0.413806 3.09849 0
M  V30 668 H 57.926 2.05786 3.36223 0
M  V30 669 H 59.214 2.24619 4.56534 0
M  V30 670 H 58.612 -0.760062 5.60571 0
M  V30 671 H 57.169 -0.493366 6.4993 0
M  V30 672 N 60.6021 -1.18246 1.0419 0
M  V30 673 C 61.5321 -2.24127 0.654914 0
M  V30 674 C 62.5131 -1.66617 -0.342451 0
M  V30 675 O 63.6981 -1.92924 -0.222277 0
M  V30 676 C 60.8281 -3.47295 0.0183757 0
M  V30 677 C 59.7821 -4.17563 0.939414 0
M  V30 678 C 59.1081 -5.34438 0.167286 0
M  V30 679 C 60.4081 -4.70917 2.25908 0
M  V30 680 H 62.1021 -2.56753 1.54007 0
M  V30 681 H 59.6481 -1.23414 0.74195 0
M  V30 682 H 61.6011 -4.20572 -0.264082 0
M  V30 683 H 60.3251 -3.13907 -0.901664 0
M  V30 684 H 58.9841 -3.46186 1.20628 0
M  V30 685 H 58.6321 -4.97298 -0.7552 0
M  V30 686 H 58.3321 -5.82388 0.780901 0
M  V30 687 H 59.8561 -6.10504 -0.108125 0
M  V30 688 H 61.2701 -5.35882 2.03724 0
M  V30 689 H 59.6671 -5.29406 2.82577 0
M  V30 690 H 60.7371 -3.88272 2.9047 0
M  V30 691 N 62.0802 -0.821533 -1.34494 0
M  V30 692 C 63.3052 -0.420873 -2.03085 0
M  V30 693 C 63.7302 0.964915 -1.61465 0
M  V30 694 O 63.0882 1.62763 -0.798607 0
M  V30 695 C 63.1362 -0.529414 -3.56693 0
M  V30 696 O 62.2402 0.451302 -4.09923 0
M  V30 697 H 61.5812 -0.173489 -0.640935 0
M  V30 698 H 64.1112 -1.11157 -1.71771 0
M  V30 699 H 64.1212 -0.404671 -4.05988 0
M  V30 700 H 62.7962 -1.54014 -3.86332 0
M  V30 701 H 61.3732 0.285558 -3.71805 0
M  V30 702 N 63.5583 1.46682 -0.576371 0
M  V30 703 C 64.5213 2.28707 0.150239 0
M  V30 704 C 65.5213 1.38035 0.824794 0
M  V30 705 O 66.7113 1.60476 0.677719 0
M  V30 706 C 63.8433 3.18248 1.22192 0
M  V30 707 H 65.0363 2.94423 -0.570521 0
M  V30 708 H 62.5893 1.52688 -0.334078 0
M  V30 709 H 63.3243 2.57265 1.97447 0
M  V30 710 H 63.1093 3.85 0.742812 0
M  V30 711 H 64.5993 3.80001 1.73172 0
M  V30 712 N 65.0364 0.313813 1.54444 0
M  V30 713 C 66.2834 -0.291675 2.00388 0
M  V30 714 C 66.6114 -1.52904 1.2021 0
M  V30 715 O 65.8664 -1.93833 0.269707 0
M  V30 716 C 66.1654 -0.680386 3.50864 0
M  V30 717 C 65.8314 0.456699 4.48581 0
M  V30 718 C 64.4934 0.768824 4.75018 0
M  V30 719 C 66.8454 1.22098 5.06697 0
M  V30 720 C 64.1734 1.84812 5.56831 0
M  V30 721 C 66.5254 2.29029 5.89685 0
M  V30 722 C 65.1894 2.60834 6.14428 0
M  V30 723 H 64.4594 -0.106732 0.733273 0
M  V30 724 H 67.1064 0.43557 1.86481 0
M  V30 725 H 65.4114 -1.48791 3.62448 0
M  V30 726 H 67.1084 -1.16026 3.83847 0
M  V30 727 H 63.6984 0.203337 4.28117 0
M  V30 728 H 67.8824 0.993096 4.86263 0
M  V30 729 H 63.1384 2.09912 5.74236 0
M  V30 730 H 67.3124 2.887 6.33739 0
M  V30 731 H 64.9394 3.44596 6.77612 0
M  V30 732 N 66.5145 -1.57545 0.0417849 0
M  V30 733 C 67.7615 -1.92317 -0.634082 0
M  V30 734 C 68.0895 -0.919334 -1.71402 0
M  V30 735 O 67.3445 0.0698253 -1.95575 0
M  V30 736 C 67.6435 -3.33794 -1.27735 0
M  V30 737 C 67.3095 -4.49716 -0.326543 0
M  V30 738 C 65.9715 -4.81156 -0.0648814 0
M  V30 739 C 68.3235 -5.20182 0.325623 0
M  V30 740 C 65.6515 -5.80414 0.856539 0
M  V30 741 C 68.0035 -6.20424 1.23518 0
M  V30 742 C 66.6675 -6.50298 1.5056 0
M  V30 743 H 65.9375 -0.703736 -0.232027 0
M  V30 744 H 68.5845 -1.91205 0.106259 0
M  V30 745 H 66.8895 -3.31228 -2.09274 0
M  V30 746 H 68.5865 -3.57975 -1.80707 0
M  V30 747 H 65.1765 -4.25176 -0.540665 0
M  V30 748 H 69.3605 -4.96112 0.136546 0
M  V30 749 H 64.6165 -6.019 1.07363 0
M  V30 750 H 68.7905 -6.74141 1.74664 0
M  V30 751 H 66.4175 -7.27025 2.22123 0
M  V30 752 N 67.9926 0.231505 -1.5589 0
M  V30 753 C 69.2176 0.978689 -1.82856 0
M  V30 754 C 69.6426 1.77559 -0.620846 0
M  V30 755 O 69.0006 1.76119 0.430305 0
M  V30 756 C 69.0486 1.87997 -3.07716 0
M  V30 757 O 68.1526 2.97393 -2.85712 0
M  V30 758 H 67.4936 0.277663 -0.603158 0
M  V30 759 H 70.0236 0.24783 -2.03093 0
M  V30 760 H 70.0336 2.2917 -3.37558 0
M  V30 761 H 68.7086 1.29417 -3.95252 0
M  V30 762 H 67.2856 2.60238 -2.67078 0
M  V30 763 N 69.4707 1.49531 0.497807 0
M  V30 764 C 70.7187 1.58865 1.24926 0
M  V30 765 C 71.0397 0.278721 1.92998 0
M  V30 766 O 70.3097 -0.702144 1.82885 0
M  V30 767 H 68.8897 0.585343 0.464094 0
M  V30 768 H 71.5517 1.86174 0.57666 0
M  V30 769 H 70.6477 2.38633 2.01149 0
M  V30 770 N 70.9488 -0.749086 1.3866 0
M  V30 771 C 72.1768 -1.53834 1.38358 0
M  V30 772 C 72.5918 -1.88783 -0.0255219 0
M  V30 773 O 71.9488 -1.53101 -0.993292 0
M  V30 774 C 71.9998 -2.83468 2.2434 0
M  V30 775 O 71.7208 -2.50008 3.5976 0
M  V30 776 C 73.2218 -3.7758 2.32267 0
M  V30 777 H 70.4418 -0.47585 0.473083 0
M  V30 778 H 72.9858 -0.926726 1.82297 0
M  V30 779 H 71.1408 -3.40995 1.83851 0
M  V30 780 H 71.5548 -3.33182 4.05081 0
M  V30 781 H 73.0288 -4.65478 2.96706 0
M  V30 782 H 73.5058 -4.18334 1.33765 0
M  V30 783 H 74.1118 -3.25976 2.73166 0
M  V30 784 N 72.4269 -1.23603 -0.977757 0
M  V30 785 C 73.3749 -1.01704 -2.09187 0
M  V30 786 C 74.3689 0.0448214 -1.69341 0
M  V30 787 O 75.5749 -0.108902 -1.7967 0
M  V30 788 H 71.9499 -0.311803 -0.684312 0
M  V30 789 H 73.9209 -1.96207 -2.24823 0
M  V30 790 C 72.6699 -0.627746 -3.41986 0
M  V30 791 H 71.9929 -1.43656 -3.73099 0
M  V30 792 H 73.4329 -0.514053 -4.20872 0
M  V30 793 C 71.8919 0.664238 -3.30287 0
M  V30 794 O 72.4219 1.71268 -3.6336 0
M  V30 795 N 70.6279 0.641156 -2.83439 0
M  V30 796 H 70.1749 -0.212376 -2.56723 0
M  V30 797 H 70.1329 1.50583 -2.75993 0
M  V30 798 N 73.905 1.17692 -1.04816 0
M  V30 799 C 74.838 2.20436 -0.590173 0
M  V30 800 C 75.816 1.58115 0.379244 0
M  V30 801 O 77 1.86228 0.291762 0
M  V30 802 C 74.127 3.38424 0.136817 0
M  V30 803 C 73.173 4.19176 -0.787023 0
M  V30 804 S 74.006 4.84815 -2.27409 0
M  V30 805 C 75.162 6.06195 -1.55817 0
M  V30 806 H 75.395 2.58944 -1.46067 0
M  V30 807 H 72.928 1.28246 -0.859784 0
M  V30 808 H 74.886 4.06798 0.550076 0
M  V30 809 H 73.547 2.98312 0.983299 0
M  V30 810 H 72.74 5.03499 -0.224681 0
M  V30 811 H 72.342 3.56219 -1.13947 0
M  V30 812 H 74.634 6.72078 -0.855387 0
M  V30 813 H 75.577 6.6695 -2.37873 0
M  V30 814 H 75.985 5.54701 -1.04722 0
M  V30 815 N 75.3831 0.828654 1.34056 0
M  V30 816 C 76.6081 0.431637 2.02859 0
M  V30 817 C 77.0331 -0.956339 1.61975 0
M  V30 818 O 76.3911 -1.62338 0.807228 0
M  V30 819 C 76.4391 0.548323 3.56407 0
M  V30 820 O 75.5431 -0.429556 4.10157 0
M  V30 821 H 74.8841 0.176886 0.640006 0
M  V30 822 H 77.4141 1.12066 1.71179 0
M  V30 823 H 77.4241 0.426196 4.05768 0
M  V30 824 H 76.0991 1.5606 3.8551 0
M  V30 825 H 74.6761 -0.265836 3.71951 0
M  V30 826 N 76.8612 -1.46375 0.584142 0
M  V30 827 C 78.2772 -1.57694 0.245929 0
M  V30 828 C 78.4772 -1.57903 -1.25175 0
M  V30 829 O 77.5332 -1.49676 -2.03355 0
M  V30 830 C 78.8462 -2.87028 0.896402 0
M  V30 831 C 80.3942 -3.00662 0.870127 0
M  V30 832 C 80.8692 -4.32734 1.50017 0
M  V30 833 N 82.3602 -4.39436 1.46458 0
M  V30 834 C 83.0952 -5.40248 1.92144 0
M  V30 835 N 82.5912 -6.47726 2.4581 0
M  V30 836 N 84.3842 -5.31459 1.83052 0
M  V30 837 H 76.5352 -1.44483 1.55687 0
M  V30 838 H 78.7982 -0.689291 0.650831 0
M  V30 839 H 78.5042 -2.9269 1.95002 0
M  V30 840 H 78.3782 -3.75014 0.405486 0
M  V30 841 H 80.7652 -2.94581 -0.174871 0
M  V30 842 H 80.8462 -2.14148 1.39908 0
M  V30 843 H 80.4902 -4.39573 2.54437 0
M  V30 844 H 80.4202 -5.18025 0.946432 0
M  V30 845 H 82.9112 -3.62367 1.07231 0
M  V30 846 H 83.2242 -7.20863 2.78525 0
M  V30 847 H 81.5692 -6.48542 2.49836 0
M  V30 848 H 84.7602 -4.46396 1.40883 0
M  V30 849 H 84.9332 -6.09881 2.18973 0
M  V30 850 N 78.3393 -0.321999 -1.54275 0
M  V30 851 C 79.2693 0.537411 -2.27231 0
M  V30 852 C 80.2503 1.12064 -1.27968 0
M  V30 853 O 81.4353 1.14606 -1.56777 0
M  V30 854 C 78.5653 1.69919 -3.02894 0
M  V30 855 C 77.5193 1.24534 -4.09482 0
M  V30 856 C 76.8453 2.49394 -4.72977 0
M  V30 857 C 78.1453 0.361335 -5.21049 0
M  V30 858 H 79.8393 -0.0711406 -2.99315 0
M  V30 859 H 77.3853 -0.0356555 -1.43956 0
M  V30 860 H 79.3383 2.30668 -3.52662 0
M  V30 861 H 78.0623 2.33431 -2.28424 0
M  V30 862 H 76.7213 0.660782 -3.60596 0
M  V30 863 H 76.3693 3.11265 -3.95124 0
M  V30 864 H 76.0693 2.19718 -5.44975 0
M  V30 865 H 77.5933 3.10908 -5.25517 0
M  V30 866 H 79.0073 0.875072 -5.66582 0
M  V30 867 H 77.4043 0.157428 -5.99893 0
M  V30 868 H 78.4743 -0.60822 -4.8107 0
M  V30 869 N 79.8174 1.5752 -0.0501392 0
M  V30 870 C 80.7644 2.1147 0.924603 0
M  V30 871 C 81.7344 1.02182 1.30951 0
M  V30 872 O 82.9194 1.29723 1.39916 0
M  V30 873 C 80.0594 2.66337 2.19451 0
M  V30 874 C 79.1724 3.89708 1.86418 0
M  V30 875 C 78.3074 4.32893 3.07859 0
M  V30 876 C 77.3464 5.48967 2.70742 0
M  V30 877 N 76.4834 5.87211 3.84874 0
M  V30 878 H 81.3234 2.94465 0.457639 0
M  V30 879 H 78.8604 1.45531 0.214266 0
M  V30 880 H 80.8184 2.96247 2.93758 0
M  V30 881 H 79.4484 1.86141 2.63726 0
M  V30 882 H 78.5004 3.66396 1.02264 0
M  V30 883 H 79.8124 4.74074 1.55096 0
M  V30 884 H 78.9664 4.6435 3.90466 0
M  V30 885 H 77.7054 3.47336 3.42358 0
M  V30 886 H 76.7104 5.17183 1.86551 0
M  V30 887 H 77.9354 6.3624 2.37436 0
M  V30 888 H 75.8814 5.04607 4.19175 0
M  V30 889 H 75.7984 6.66266 3.57247 0
M  V30 890 H 77.0664 6.23282 4.68123 0
M  V30 891 N 81.2955 -0.223234 1.56011 0
M  V30 892 C 82.5435 -0.946003 1.78592 0
M  V30 893 C 82.8645 -1.84936 0.618349 0
M  V30 894 O 82.1345 -1.92473 -0.364833 0
M  V30 895 H 80.7145 -0.352298 0.658707 0
M  V30 896 H 83.3765 -0.235494 1.93472 0
M  V30 897 H 82.4725 -1.55381 2.70672 0
M  V30 898 N 82.7736 -1.49793 -0.48987 0
M  V30 899 C 83.7206 -1.67281 -1.59014 0
M  V30 900 C 84.6906 -0.514177 -1.57941 0
M  V30 901 O 85.8756 -0.742533 -1.75759 0
M  V30 902 C 83.0156 -1.75569 -2.97102 0
M  V30 903 C 82.1286 -3.0281 -3.08107 0
M  V30 904 C 81.2636 -3.02008 -4.36995 0
M  V30 905 C 80.3026 -4.23782 -4.41673 0
M  V30 906 N 79.4396 -4.20826 -5.62005 0
M  V30 907 H 84.2796 -2.61224 -1.43409 0
M  V30 908 H 81.8166 -1.29508 -0.697565 0
M  V30 909 H 83.7746 -1.78354 -3.77155 0
M  V30 910 H 82.4046 -0.850827 -3.11385 0
M  V30 911 H 81.4566 -3.09584 -2.21047 0
M  V30 912 H 82.7686 -3.92801 -3.07423 0
M  V30 913 H 81.9226 -3.03418 -5.25378 0
M  V30 914 H 80.6616 -2.09815 -4.4026 0
M  V30 915 H 79.6666 -4.22604 -3.5169 0
M  V30 916 H 80.8916 -5.17181 -4.40115 0
M  V30 917 H 78.8376 -3.31476 -5.66091 0
M  V30 918 H 78.7546 -5.04564 -5.62984 0
M  V30 919 H 80.0226 -4.26355 -6.52565 0
M  V30 920 N 84.2517 0.741722 -1.39055 0
M  V30 921 C 85.1837 1.8657 -1.33133 0
M  V30 922 C 86.1967 1.61001 -0.241329 0
M  V30 923 O 87.3857 1.7136 -0.499784 0
M  V30 924 C 84.4857 3.22457 -1.04283 0
M  V30 925 C 83.6587 3.75435 -2.24427 0
M  V30 926 C 82.7177 4.89867 -1.92138 0
M  V30 927 O 81.7437 5.03879 -2.64754 0
M  V30 928 N 82.9457 5.73738 -0.88347 0
M  V30 929 H 85.7107 1.92156 -2.29991 0
M  V30 930 H 83.2717 0.922172 -1.3307 0
M  V30 931 H 85.2637 3.9657 -0.807128 0
M  V30 932 H 83.8337 3.12181 -0.161807 0
M  V30 933 H 83.0537 2.92751 -2.6399 0
M  V30 934 H 84.3417 4.07563 -3.04581 0
M  V30 935 H 83.7397 5.64999 -0.281517 0
M  V30 936 H 82.2967 6.47947 -0.707662 0
M  V30 937 N 85.7298 1.2412 0.971189 0
M  V30 938 C 86.9758 1.08041 1.71625 0
M  V30 939 C 87.3088 -0.380407 1.90438 0
M  V30 940 O 86.5838 -1.28127 1.46334 0
M  V30 941 C 86.8668 1.81682 3.10908 0
M  V30 942 C 86.7198 3.35493 2.99608 0
M  V30 943 C 88.0388 1.58671 4.10501 0
M  V30 944 H 85.1578 0.39388 0.622919 0
M  V30 945 H 87.7998 1.52743 1.13003 0
M  V30 946 H 85.9498 1.43684 3.60953 0
M  V30 947 H 87.6218 3.83068 2.57015 0
M  V30 948 H 85.8648 3.64052 2.35899 0
M  V30 949 H 86.5358 3.82217 3.98264 0
M  V30 950 H 89.0118 1.91719 3.69301 0
M  V30 951 H 87.8878 2.1266 5.06031 0
M  V30 952 H 88.1488 0.524161 4.38982 0
M  V30 953 N 87.2079 -1.17134 1.05439 0
M  V30 954 C 88.1179 -2.24878 0.668365 0
M  V30 955 C 89.1339 -1.71186 -0.311687 0
M  V30 956 O 90.3099 -2.00738 -0.163161 0
M  V30 957 C 87.3749 -3.46662 0.051648 0
M  V30 958 C 86.4359 -4.15429 1.08246 0
M  V30 959 C 85.6689 -5.31399 0.495082 0
M  V30 960 O 85.8919 -5.66153 -0.694743 0
M  V30 961 O 84.8259 -5.89187 1.23056 0
M  V30 962 H 88.6519 -2.60189 1.56637 0
M  V30 963 H 86.2369 -1.24482 0.826104 0
M  V30 964 H 88.1189 -4.20394 -0.290966 0
M  V30 965 H 86.7939 -3.13142 -0.819971 0
M  V30 966 H 85.7009 -3.43704 1.47711 0
M  V30 967 H 87.0339 -4.52982 1.92532 0
M  V30 968 N 88.686 -0.835752 -1.33615 0
M  V30 969 C 89.933 -0.429959 -1.97883 0
M  V30 970 C 90.261 1.01006 -1.66217 0
M  V30 971 O 89.516 1.72047 -0.93265 0
M  V30 972 C 89.815 -0.593925 -3.52431 0
M  V30 973 C 89.481 -2.00158 -4.04039 0
M  V30 974 C 88.143 -2.38662 -4.17844 0
M  V30 975 C 90.495 -2.92117 -4.31644 0
M  V30 976 C 87.823 -3.68435 -4.56588 0
M  V30 977 C 90.175 -4.21368 -4.71838 0
M  V30 978 C 88.839 -4.59833 -4.83849 0
M  V30 979 H 88.109 -0.157333 -0.724104 0
M  V30 980 H 90.756 -1.06217 -1.59343 0
M  V30 981 H 89.061 0.121619 -3.91611 0
M  V30 982 H 90.758 -0.260282 -4.00154 0
M  V30 983 H 87.348 -1.69252 -3.93766 0
M  V30 984 H 91.532 -2.63608 -4.20505 0
M  V30 985 H 86.788 -3.98046 -4.64079 0
M  V30 986 H 90.962 -4.92703 -4.92155 0
M  V30 987 H 88.589 -5.60438 -5.13627 0
M  V30 988 N 90.1641 1.46063 -0.591896 0
M  V30 989 C 91.4111 2.02338 -0.0809991 0
M  V30 990 C 91.7391 1.46228 1.28249 0
M  V30 991 O 90.9941 0.620818 1.85592 0
M  V30 992 C 91.2931 3.57391 0.0249813 0
M  V30 993 C 90.9591 4.32583 -1.27211 0
M  V30 994 C 89.6211 4.52844 -1.62745 0
M  V30 995 C 91.9731 4.75687 -2.13005 0
M  V30 996 C 89.3011 5.13462 -2.83855 0
M  V30 997 C 91.6531 5.37644 -3.3335 0
M  V30 998 C 90.3171 5.5613 -3.69155 0
M  V30 999 H 89.5871 0.740407 -0.0296397 0
M  V30 1000 H 92.2341 1.75321 -0.770374 0
M  V30 1001 H 90.5391 3.83597 0.797537 0
M  V30 1002 H 92.2361 3.98621 0.436184 0
M  V30 1003 H 88.8261 4.17116 -0.985499 0
M  V30 1004 H 93.0101 4.59782 -1.86855 0
M  V30 1005 H 88.2661 5.25965 -3.11722 0
M  V30 1006 H 92.4401 5.7 -4.00092 0
M  V30 1007 H 90.0671 6.0287 -4.63089 0
M  V30 1008 N 91.6422 0.330177 1.54103 0
M  V30 1009 C 92.6052 -0.520144 2.2322 0
M  V30 1010 C 93.6052 -1.03828 1.22786 0
M  V30 1011 O 94.7952 -0.929652 1.4732 0
M  V30 1012 C 91.9272 -1.72317 2.94142 0
M  V30 1013 H 93.1202 0.0841605 2.99782 0
M  V30 1014 H 90.6732 0.0813433 1.56088 0
M  V30 1015 H 91.4082 -2.36653 2.21734 0
M  V30 1016 H 91.1932 -1.35898 3.67796 0
M  V30 1017 H 92.6832 -2.3266 3.46784 0
M  V30 1018 N 93.1203 -1.57491 0.0584922 0
M  V30 1019 C 94.0833 -2.1085 -0.898617 0
M  V30 1020 C 95.0833 -1.02964 -1.23511 0
M  V30 1021 O 96.2733 -1.29007 -1.17059 0
M  V30 1022 C 93.4053 -2.59881 -2.20623 0
M  V30 1023 H 94.5983 -2.96715 -0.435936 0
M  V30 1024 H 92.1513 -1.55141 -0.190023 0
M  V30 1025 H 92.8863 -1.77431 -2.71457 0
M  V30 1026 H 92.6713 -3.38727 -1.97501 0
M  V30 1027 H 94.1613 -3.01285 -2.89166 0
M  V30 1028 N 94.5984 0.214957 -1.56127 0
M  V30 1029 C 95.5614 1.24997 -1.92116 0
M  V30 1030 C 96.5614 1.39467 -0.800344 0
M  V30 1031 O 97.7514 1.37619 -1.06802 0
M  V30 1032 C 94.8834 2.62271 -2.17777 0
M  V30 1033 H 96.0764 0.942875 -2.84693 0
M  V30 1034 H 93.6294 0.455654 -1.49511 0
M  V30 1035 H 94.3644 2.98068 -1.27773 0
M  V30 1036 H 94.1494 2.53143 -2.99434 0
M  V30 1037 H 95.6394 3.36946 -2.46693 0
M  V30 1038 N 96.0765 1.50051 0.48192 0
M  V30 1039 C 97.0065 1.71046 1.58951 0
M  V30 1040 C 97.9875 0.559288 1.60642 0
M  V30 1041 O 99.1725 0.797243 1.77081 0
M  V30 1042 C 96.3025 1.79462 2.97339 0
M  V30 1043 C 95.2565 2.94558 3.10515 0
M  V30 1044 C 94.5825 2.88105 4.50444 0
M  V30 1045 C 95.8825 4.35227 2.88747 0
M  V30 1046 H 97.5765 2.6378 1.41635 0
M  V30 1047 H 95.1225 1.26936 0.679942 0
M  V30 1048 H 97.0755 1.92734 3.74742 0
M  V30 1049 H 95.7995 0.833412 3.15788 0
M  V30 1050 H 94.4585 2.80918 2.35543 0
M  V30 1051 H 94.1065 1.89853 4.65795 0
M  V30 1052 H 93.8065 3.65366 4.60197 0
M  V30 1053 H 95.3305 3.03412 5.29881 0
M  V30 1054 H 96.7445 4.49449 3.55905 0
M  V30 1055 H 95.1415 5.13856 3.09955 0
M  V30 1056 H 96.2115 4.48347 1.84696 0
M  V30 1057 N 97.5546 -0.734337 1.39446 0
M  V30 1058 C 98.8026 -1.49096 1.36436 0
M  V30 1059 C 99.1236 -1.94961 -0.0388255 0
M  V30 1060 O 98.3936 -1.69033 -0.990191 0
M  V30 1061 H 96.9736 -0.5531 0.502085 0
M  V30 1062 H 99.6356 -0.871725 1.74319 0
M  V30 1063 H 98.7316 -2.37276 2.02747 0
M  V30 1064 N 99.0327 -1.24633 -0.964593 0
M  V30 1065 C 100.281 -1.08573 -1.70459 0
M  V30 1066 C 100.602 0.375655 -1.91347 0
M  V30 1067 O 99.8717 1.26779 -1.49345 0
M  V30 1068 H 98.4517 -0.398784 -0.631649 0
M  V30 1069 H 101.114 -1.56601 -1.16026 0
M  V30 1070 H 100.21 -1.58623 -2.68785 0
M  V30 1071 N 100.511 1.16574 -1.06058 0
M  V30 1072 C 101.922 1.68662 -0.800632 0
M  V30 1073 C 102.273 1.84184 0.67608 0
M  V30 1074 O 101.398 1.53568 1.52466 0
M  V30 1075 C 101.993 3.06356 -1.44676 0
M  V30 1076 C 100.552 3.55575 -1.23465 0
M  V30 1077 C 99.6988 2.31616 -1.52477 0
M  V30 1078 H 102.65 1.00969 -1.22438 0
M  V30 1079 H 102.671 3.70636 -0.860788 0
M  V30 1080 H 102.183 2.95027 -2.52152 0
M  V30 1081 H 100.284 3.72167 -0.179527 0
M  V30 1082 H 100.397 4.37812 -1.94571 0
M  V30 1083 H 98.7608 2.36512 -0.945209 0
M  V30 1084 H 99.5438 2.22887 -2.61106 0
M  V30 1085 N 101.989 0.842826 1.3317 0
M  V30 1086 C 102.899 0.281444 2.32906 0
M  V30 1087 C 103.915 -0.594587 1.63526 0
M  V30 1088 O 105.091 -0.49777 1.95152 0
M  V30 1089 C 102.156 -0.530929 3.42611 0
M  V30 1090 C 101.217 0.369843 4.27704 0
M  V30 1091 C 100.45 -0.403853 5.3217 0
M  V30 1092 O 100.673 -1.63513 5.46461 0
M  V30 1093 O 99.6069 0.224199 6.01482 0
M  V30 1094 H 103.433 1.10744 2.82789 0
M  V30 1095 H 101.018 0.60545 1.36582 0
M  V30 1096 H 102.9 -0.992437 4.09547 0
M  V30 1097 H 101.575 -1.33392 2.94938 0
M  V30 1098 H 100.482 0.879275 3.6362 0
M  V30 1099 H 101.815 1.13771 4.78871 0
M  V30 1100 N 103.467 -1.45747 0.599634 0
M  V30 1101 C 104.878 -1.85853 0.177681 0
M  V30 1102 C 105.229 -1.50102 -1.26348 0
M  V30 1103 O 104.354 -0.923905 -1.95686 0
M  V30 1104 C 104.949 -3.37326 0.315688 0
M  V30 1105 C 103.508 -3.76365 -0.0515144 0
M  V30 1106 C 102.655 -2.69722 0.643822 0
M  V30 1107 H 105.606 -1.36661 0.806814 0
M  V30 1108 H 105.627 -3.77778 -0.454321 0
M  V30 1109 H 105.139 -3.63315 1.36468 0
M  V30 1110 H 103.24 -3.55993 -1.09999 0
M  V30 1111 H 103.353 -4.77916 0.336594 0
M  V30 1112 H 101.717 -2.54567 0.0822881 0
M  V30 1113 H 102.5 -2.98549 1.6948 0
M  V30 1114 N 104.945 -0.338344 -1.53925 0
M  V30 1115 C 106.175 0.260919 -2.04946 0
M  V30 1116 C 106.583 1.45174 -1.2133 0
M  V30 1117 O 105.926 1.82122 -0.240262 0
M  V30 1118 C 105.988 0.744596 -3.51704 0
M  V30 1119 C 105.652 -0.325883 -4.55837 0
M  V30 1120 C 106.649 -1.16687 -5.06636 0
M  V30 1121 C 104.334 -0.478317 -5.00017 0
M  V30 1122 C 106.328 -2.14588 -6.00192 0
M  V30 1123 C 104.015 -1.46073 -5.93385 0
M  V30 1124 C 105.013 -2.29297 -6.4336 0
M  V30 1125 O 104.701 -3.25867 -7.34892 0
M  V30 1126 H 104.433 0.0551207 -0.673749 0
M  V30 1127 H 106.987 -0.486984 -1.99544 0
M  V30 1128 H 105.217 1.54366 -3.54553 0
M  V30 1129 H 106.906 1.26383 -3.85723 0
M  V30 1130 H 107.672 -1.06016 -4.73271 0
M  V30 1131 H 103.551 0.159613 -4.60724 0
M  V30 1132 H 107.095 -2.79585 -6.39123 0
M  V30 1133 H 102.992 -1.56802 -6.26166 0
M  V30 1134 H 103.76 -3.21278 -7.5281 0
M  V30 1135 N 106.423 1.57458 -0.0668435 0
M  V30 1136 C 107.651 1.97624 0.612565 0
M  V30 1137 C 108.066 0.94502 1.63447 0
M  V30 1138 O 107.423 -0.0689276 1.8237 0
M  V30 1139 C 107.474 3.37869 1.28555 0
M  V30 1140 O 107.195 4.3704 0.304557 0
M  V30 1141 C 108.696 3.92882 2.05325 0
M  V30 1142 H 105.916 0.650045 0.166381 0
M  V30 1143 H 108.46 2.04035 -0.137782 0
M  V30 1144 H 106.615 3.3256 1.98702 0
M  V30 1145 H 107.029 5.18565 0.786779 0
M  V30 1146 H 108.503 4.93247 2.47812 0
M  V30 1147 H 108.98 3.29156 2.9078 0
M  V30 1148 H 109.586 4.01577 1.40056 0
M  V30 1149 N 107.901 -0.206675 1.56239 0
M  V30 1150 C 109.149 -0.927007 1.79586 0
M  V30 1151 C 109.47 -1.8427 0.637929 0
M  V30 1152 O 108.74 -1.92849 -0.344398 0
M  V30 1153 H 107.32 -0.345292 0.662407 0
M  V30 1154 H 109.982 -0.21496 1.93711 0
M  V30 1155 H 109.078 -1.52501 2.72305 0
M  V30 1156 N 109.379 -1.50304 -0.473955 0
M  V30 1157 C 110.342 -1.6841 -1.55469 0
M  V30 1158 C 111.342 -0.554905 -1.50922 0
M  V30 1159 O 112.532 -0.821882 -1.53593 0
M  V30 1160 C 109.664 -1.70667 -2.95102 0
M  V30 1161 H 110.857 -2.64828 -1.40733 0
M  V30 1162 H 108.41 -1.39742 -0.700132 0
M  V30 1163 H 109.145 -0.75932 -3.15285 0
M  V30 1164 H 108.93 -2.52698 -2.9981 0
M  V30 1165 H 110.42 -1.8664 -3.73571 0
M  V30 1166 N 110.857 0.726932 -1.39834 0
M  V30 1167 C 112.268 1.30558 -1.3346 0
M  V30 1168 C 112.619 1.962 -0.00273003 0
M  V30 1169 O 111.744 1.96826 0.899371 0
M  V30 1170 C 112.339 2.37404 -2.41713 0
M  V30 1171 C 110.898 2.90921 -2.38835 0
M  V30 1172 C 110.045 1.64578 -2.2318 0
M  V30 1173 H 112.996 0.523862 -1.49804 0
M  V30 1174 H 113.017 3.17984 -2.08966 0
M  V30 1175 H 112.529 1.89599 -3.38635 0
M  V30 1176 H 110.63 3.42985 -1.45575 0
M  V30 1177 H 110.743 3.43487 -3.33997 0
M  V30 1178 H 109.107 1.89219 -1.70494 0
M  V30 1179 H 109.89 1.18814 -3.22084 0
M  V30 1180 N 112.336 1.25143 0.95797 0
M  V30 1181 C 113.269 0.995565 2.05338 0
M  V30 1182 C 114.247 -0.0740423 1.62431 0
M  V30 1183 O 115.431 0.0649212 1.88388 0
M  V30 1184 C 112.558 0.504298 3.34925 0
M  V30 1185 C 111.604 1.56393 3.96792 0
M  V30 1186 S 112.437 3.14815 4.33188 0
M  V30 1187 C 113.593 2.67415 5.65898 0
M  V30 1188 H 113.826 1.92309 2.26726 0
M  V30 1189 H 111.359 1.08635 1.09716 0
M  V30 1190 H 113.317 0.227497 4.09869 0
M  V30 1191 H 111.978 -0.402671 3.11508 0
M  V30 1192 H 111.171 1.17082 4.90212 0
M  V30 1193 H 110.773 1.79124 3.28315 0
M  V30 1194 H 113.065 2.10833 6.4386 0
M  V30 1195 H 114.008 3.59463 6.10076 0
M  V30 1196 H 114.416 2.07521 5.24972 0
M  V30 1197 N 113.814 -1.1601 1.06675 0
M  V30 1198 C 114.761 -2.20525 0.680967 0
M  V30 1199 C 115.731 -1.62904 -0.324283 0
M  V30 1200 O 116.916 -1.89615 -0.212294 0
M  V30 1201 C 114.056 -3.45013 0.0776551 0
M  V30 1202 C 113.169 -4.16863 1.13355 0
M  V30 1203 C 112.304 -5.2888 0.49597 0
M  V30 1204 C 111.343 -5.92537 1.53513 0
M  V30 1205 N 110.48 -6.96038 0.920631 0
M  V30 1206 H 115.32 -2.52876 1.57663 0
M  V30 1207 H 112.857 -1.24199 0.788223 0
M  V30 1208 H 114.815 -4.16193 -0.289704 0
M  V30 1209 H 113.445 -3.132 -0.781393 0
M  V30 1210 H 112.497 -3.44248 1.61857 0
M  V30 1211 H 113.809 -4.60294 1.92174 0
M  V30 1212 H 112.963 -6.06653 0.0758604 0
M  V30 1213 H 111.702 -4.86622 -0.324062 0
M  V30 1214 H 110.707 -5.13482 1.9651 0
M  V30 1215 H 111.932 -6.36873 2.35733 0
M  V30 1216 H 109.878 -6.55888 0.12138 0
M  V30 1217 H 109.795 -7.3786 1.64616 0
M  V30 1218 H 111.063 -7.77725 0.525795 0
M  V30 1219 N 115.292 -0.849877 -1.32721 0
M  V30 1220 C 116.224 -0.248332 -2.27851 0
M  V30 1221 C 117.237 0.577218 -1.52224 0
M  V30 1222 O 118.426 0.402489 -1.73903 0
M  V30 1223 C 115.526 0.668107 -3.32249 0
M  V30 1224 C 114.699 -0.120534 -4.37234 0
M  V30 1225 C 113.758 0.720932 -5.21238 0
M  V30 1226 O 112.784 0.156166 -5.68986 0
M  V30 1227 N 113.986 2.03647 -5.43607 0
M  V30 1228 H 116.751 -1.06575 -2.80111 0
M  V30 1229 H 114.312 -0.709395 -1.45531 0
M  V30 1230 H 116.304 1.23627 -3.85355 0
M  V30 1231 H 114.874 1.38621 -2.80184 0
M  V30 1232 H 114.094 -0.870108 -3.84477 0
M  V30 1233 H 115.382 -0.662406 -5.0447 0
M  V30 1234 H 114.78 2.51871 -5.06535 0
M  V30 1235 H 113.337 2.55287 -5.99727 0
M  V30 1236 N 116.77 1.45427 -0.607355 0
M  V30 1237 C 118.016 2.0254 -0.102607 0
M  V30 1238 C 118.349 1.47478 1.26348 0
M  V30 1239 O 117.624 0.64939 1.83339 0
M  V30 1240 C 117.907 3.60044 -0.0634347 0
M  V30 1241 C 117.76 4.2544 -1.46017 0
M  V30 1242 C 119.079 4.35646 0.624514 0
M  V30 1243 H 116.198 0.73598 -0.0387607 0
M  V30 1244 H 118.84 1.73284 -0.779282 0
M  V30 1245 H 116.99 3.85101 0.512808 0
M  V30 1246 H 118.662 4.11569 -2.08347 0
M  V30 1247 H 116.905 3.83849 -2.02094 0
M  V30 1248 H 117.576 5.34342 -1.385 0
M  V30 1249 H 120.052 4.15882 0.134723 0
M  V30 1250 H 118.928 5.45376 0.621028 0
M  V30 1251 H 119.189 4.08501 1.69055 0
M  V30 1252 N 118.248 0.346503 1.53744 0
M  V30 1253 C 119.198 -0.524953 2.21874 0
M  V30 1254 C 120.182 -1.06376 1.20718 0
M  V30 1255 O 121.374 -0.996972 1.46251 0
M  V30 1256 C 118.503 -1.6739 2.99726 0
M  V30 1257 C 117.589 -1.14888 4.08242 0
M  V30 1258 N 117.98 -0.345329 5.0462 0
M  V30 1259 C 116.278 -1.4255 4.22606 0
M  V30 1260 C 116.979 -0.0600706 5.81669 0
M  V30 1261 N 115.955 -0.65252 5.39669 0
M  V30 1262 H 119.757 0.0960091 2.93743 0
M  V30 1263 H 117.271 0.15352 1.61673 0
M  V30 1264 H 119.268 -2.3102 3.47038 0
M  V30 1265 H 117.928 -2.29811 2.29384 0
M  V30 1266 H 118.939 0.0138439 5.17898 0
M  V30 1267 H 115.616 -2.05389 3.63486 0
M  V30 1268 H 117.006 0.588321 6.69319 0
M  V30 1269 N 119.726 -1.57421 0.075193 0
M  V30 1270 C 120.658 -2.09904 -0.920483 0
M  V30 1271 C 121.671 -1.03191 -1.25918 0
M  V30 1272 O 122.86 -1.30695 -1.21577 0
M  V30 1273 C 119.96 -2.54726 -2.23534 0
M  V30 1274 C 119.133 -3.8505 -2.07498 0
M  V30 1275 C 118.192 -4.15929 -3.22319 0
M  V30 1276 O 117.218 -4.85474 -2.9716 0
M  V30 1277 N 118.42 -3.69745 -4.47514 0
M  V30 1278 H 121.185 -2.95954 -0.472359 0
M  V30 1279 H 118.746 -1.61523 -0.110444 0
M  V30 1280 H 120.738 -2.72443 -2.9926 0
M  V30 1281 H 119.308 -1.73795 -2.59835 0
M  V30 1282 H 118.528 -3.76679 -1.16219 0
M  V30 1283 H 119.816 -4.70348 -1.94038 0
M  V30 1284 H 119.214 -3.13569 -4.7084 0
M  V30 1285 H 117.771 -3.92655 -5.20255 0
M  V30 1286 N 121.204 0.198386 -1.56346 0
M  V30 1287 C 122.452 0.91747 -1.80075 0
M  V30 1288 C 122.773 1.83929 -0.647692 0
M  V30 1289 O 122.043 1.93029 0.334166 0
M  V30 1290 H 120.623 0.341774 -0.664228 0
M  V30 1291 H 123.285 0.204684 -1.93822 0
M  V30 1292 H 122.381 1.51055 -2.7311 0
M  V30 1293 N 122.682 1.50554 0.465978 0
M  V30 1294 C 124.098 1.38093 0.800154 0
M  V30 1295 C 124.298 0.440988 1.96615 0
M  V30 1296 O 123.354 -0.114499 2.5224 0
M  V30 1297 C 124.667 2.79565 1.10742 0
M  V30 1298 C 126.215 2.88516 1.21357 0
M  V30 1299 C 126.69 4.30833 1.55393 0
M  V30 1300 N 128.181 4.33807 1.62375 0
M  V30 1301 C 128.916 5.40927 1.90225 0
M  V30 1302 N 128.412 6.58247 2.16062 0
M  V30 1303 N 130.205 5.28376 1.9177 0
M  V30 1304 H 122.356 2.10237 -0.302366 0
M  V30 1305 H 124.619 0.945203 -0.0727746 0
M  V30 1306 H 124.325 3.50208 0.323661 0
M  V30 1307 H 124.199 3.17125 2.04234 0
M  V30 1308 H 126.586 2.1809 1.98799 0
M  V30 1309 H 126.667 2.54492 0.258321 0
M  V30 1310 H 126.311 5.01799 0.784889 0
M  V30 1311 H 126.241 4.62347 2.52076 0
M  V30 1312 H 128.732 3.49212 1.44427 0
M  V30 1313 H 129.045 7.3569 2.36601 0
M  V30 1314 H 127.39 6.61413 2.13444 0
M  V30 1315 H 130.581 4.35715 1.71085 0
M  V30 1316 H 130.754 6.11944 2.13139 0
M  V30 1317 N 124.16 -0.719506 1.40217 0
M  V30 1318 C 125.408 -1.47641 1.3801 0
M  V30 1319 C 125.729 -1.94992 -0.018145 0
M  V30 1320 O 124.999 -1.70073 -0.972207 0
M  V30 1321 H 123.579 -0.547744 0.507923 0
M  V30 1322 H 126.241 -0.853187 1.75233 0
M  V30 1323 H 125.337 -2.35112 2.05253 0
M  V30 1324 N 125.638 -1.25649 -0.95132 0
M  V30 1325 C 126.887 -1.09988 -1.69073 0
M  V30 1326 C 127.2 0.358355 -1.92289 0
M  V30 1327 O 128.406 0.635466 -2.63958 0
M  V30 1328 C 126.862 -1.92012 -3.044 0
M  V30 1329 C 126.47 -3.42347 -2.88968 0
M  V30 1330 C 128.214 -1.8493 -3.82101 0
M  V30 1331 C 126.121 -4.16655 -4.19705 0
M  V30 1332 H 125.051 -0.407993 -0.63408 0
M  V30 1333 H 127.702 -1.49873 -1.05879 0
M  V30 1334 H 126.084 -1.44952 -3.68517 0
M  V30 1335 H 127.258 -3.97104 -2.33762 0
M  V30 1336 H 125.573 -3.50557 -2.24719 0
M  V30 1337 H 128.17 -2.37739 -4.78941 0
M  V30 1338 H 128.513 -0.817883 -4.08187 0
M  V30 1339 H 129.046 -2.29758 -3.2474 0
M  V30 1340 H 125.785 -5.20224 -3.98807 0
M  V30 1341 H 125.305 -3.66681 -4.74663 0
M  V30 1342 H 126.984 -4.24551 -4.88227 0
M  V30 1343 N 127.117 1.15442 -1.07289 0
M  V30 1344 C 128.345 1.90096 -0.81676 0
M  V30 1345 C 128.76 1.7798 0.629966 0
M  V30 1346 O 128.117 1.1313 1.43206 0
M  V30 1347 C 128.168 3.40466 -1.21512 0
M  V30 1348 O 127.889 3.52232 -2.60508 0
M  V30 1349 C 129.39 4.32145 -0.988198 0
M  V30 1350 H 126.61 0.602495 -0.295366 0
M  V30 1351 H 129.154 1.4627 -1.42918 0
M  V30 1352 H 127.309 3.81958 -0.647039 0
M  V30 1353 H 127.723 4.45549 -2.76742 0
M  V30 1354 H 129.197 5.36072 -1.31645 0
M  V30 1355 H 129.674 4.39135 0.0755063 0
M  V30 1356 H 130.28 3.96395 -1.54115 0
M  V30 1357 N 128.595 0.856903 1.32268 0
M  V30 1358 C 129.528 0.247937 2.26849 0
M  V30 1359 C 130.506 -0.615382 1.50505 0
M  V30 1360 O 131.69 -0.571689 1.79622 0
M  V30 1361 C 128.817 -0.650093 3.32403 0
M  V30 1362 C 127.863 0.140138 4.2627 0
M  V30 1363 S 128.696 1.51004 5.13769 0
M  V30 1364 C 129.852 0.61778 6.22844 0
M  V30 1365 H 130.085 1.04971 2.78152 0
M  V30 1366 H 127.618 0.654665 1.39834 0
M  V30 1367 H 129.576 -1.16256 3.93694 0
M  V30 1368 H 128.237 -1.4257 2.7988 0
M  V30 1369 H 127.43 -0.543945 5.01056 0
M  V30 1370 H 127.032 0.584267 3.69408 0
M  V30 1371 H 129.324 -0.177053 6.77269 0
M  V30 1372 H 130.267 1.33636 6.95375 0
M  V30 1373 H 130.675 0.191124 5.64176 0
M  V30 1374 N 130.073 -1.45103 0.615059 0
M  V30 1375 C 131.023 -2.27679 -0.120966 0
M  V30 1376 C 132.007 -1.3775 -0.831491 0
M  V30 1377 O 133.199 -1.61683 -0.720249 0
M  V30 1378 C 130.328 -3.24767 -1.1127 0
M  V30 1379 C 129.414 -4.22184 -0.402627 0
M  V30 1380 N 129.805 -5.02692 0.559884 0
M  V30 1381 C 128.103 -4.4125 -0.649202 0
M  V30 1382 C 128.804 -5.73421 0.977942 0
M  V30 1383 N 127.78 -5.42657 0.320104 0
M  V30 1384 H 131.582 -2.87325 0.618181 0
M  V30 1385 H 129.096 -1.56345 0.439304 0
M  V30 1386 H 131.093 -3.82666 -1.65446 0
M  V30 1387 H 129.753 -2.66682 -1.85232 0
M  V30 1388 H 130.764 -5.09354 0.936976 0
M  V30 1389 H 127.441 -3.9428 -1.37293 0
M  V30 1390 H 128.831 -6.48107 1.77222 0
M  V30 1391 N 131.551 -0.354651 -1.53558 0
M  V30 1392 C 132.501 0.513179 -2.2215 0
M  V30 1393 C 133.485 1.05734 -1.21281 0
M  V30 1394 O 134.677 0.989202 -1.46778 0
M  V30 1395 C 131.806 1.65798 -3.00609 0
M  V30 1396 C 130.892 1.12722 -4.08845 0
M  V30 1397 N 131.283 0.318563 -5.04796 0
M  V30 1398 C 129.581 1.40307 -4.23356 0
M  V30 1399 C 130.282 0.0292224 -5.81693 0
M  V30 1400 N 129.258 0.623891 -5.40008 0
M  V30 1401 H 133.06 -0.111586 -2.93688 0
M  V30 1402 H 130.574 -0.162091 -1.61589 0
M  V30 1403 H 132.571 2.29176 -3.48258 0
M  V30 1404 H 131.231 2.28591 -2.306 0
M  V30 1405 H 132.242 -0.0413091 -5.17884 0
M  V30 1406 H 128.919 2.03458 -3.6457 0
M  V30 1407 H 130.309 -0.623808 -6.68998 0
M  V30 1408 N 133.029 1.57378 -0.0835403 0
M  V30 1409 C 134.276 1.9393 0.58287 0
M  V30 1410 C 134.604 0.964455 1.68904 0
M  V30 1411 O 133.859 -0.0179474 1.95692 0
M  V30 1412 C 134.158 3.37063 1.1884 0
M  V30 1413 C 133.824 4.50424 0.207194 0
M  V30 1414 C 132.486 4.81159 -0.0627115 0
M  V30 1415 C 134.838 5.19136 -0.463426 0
M  V30 1416 C 132.166 5.77939 -1.01012 0
M  V30 1417 C 134.518 6.16931 -1.39924 0
M  V30 1418 C 133.182 6.46078 -1.67749 0
M  V30 1419 H 132.452 0.70964 0.213287 0
M  V30 1420 H 135.099 1.90856 -0.156916 0
M  V30 1421 H 133.404 3.3666 2.00418 0
M  V30 1422 H 135.101 3.6264 1.71153 0
M  V30 1423 H 131.691 4.2646 0.427747 0
M  V30 1424 H 135.875 4.95576 -0.268034 0
M  V30 1425 H 131.131 5.98842 -1.23283 0
M  V30 1426 H 135.305 6.69273 -1.92476 0
M  V30 1427 H 132.932 7.2088 -2.41321 0
M  V30 1428 N 134.507 -0.190092 1.56449 0
M  V30 1429 C 135.732 -0.929864 1.85387 0
M  V30 1430 C 136.157 -1.7585 0.667704 0
M  V30 1431 O 135.515 -1.77198 -0.383459 0
M  V30 1432 C 135.563 -1.79773 3.12593 0
M  V30 1433 O 134.667 -2.89713 2.93496 0
M  V30 1434 H 134.008 -0.261574 0.610307 0
M  V30 1435 H 136.538 -0.193896 2.03679 0
M  V30 1436 H 136.548 -2.20139 3.43515 0
M  V30 1437 H 135.223 -1.18892 3.98544 0
M  V30 1438 H 133.8 -2.53065 2.73884 0
M  V30 1439 N 135.985 -1.50799 -0.457987 0
M  V30 1440 C 136.915 -1.73553 -1.5621 0
M  V30 1441 C 137.896 -0.584774 -1.59732 0
M  V30 1442 O 139.081 -0.825314 -1.7579 0
M  V30 1443 C 136.211 -1.84169 -2.94447 0
M  V30 1444 C 135.165 -2.99461 -3.0579 0
M  V30 1445 C 134.491 -2.95235 -4.45803 0
M  V30 1446 C 135.791 -4.39766 -2.81786 0
M  V30 1447 H 137.485 -2.66 -1.37421 0
M  V30 1448 H 135.031 -1.28002 -0.659662 0
M  V30 1449 H 136.984 -1.98672 -3.71628 0
M  V30 1450 H 135.708 -0.883545 -3.14422 0
M  V30 1451 H 134.367 -2.8463 -2.31044 0
M  V30 1452 H 134.015 -1.97239 -4.62715 0
M  V30 1453 H 133.715 -3.72642 -4.54326 0
M  V30 1454 H 135.239 -3.11803 -5.24987 0
M  V30 1455 H 136.653 -4.55054 -3.4871 0
M  V30 1456 H 135.05 -5.18722 -3.0174 0
M  V30 1457 H 136.12 -4.51229 -1.7754 0
M  V30 1458 N 137.463 0.71206 -1.40597 0
M  V30 1459 C 138.709 1.47416 -1.39271 0
M  V30 1460 C 139.042 1.942 0.00388791 0
M  V30 1461 O 138.317 1.68403 0.973179 0
M  V30 1462 C 138.6 2.69774 -2.38525 0
M  V30 1463 C 138.453 2.28861 -3.87224 0
M  V30 1464 C 139.772 3.71939 -2.35264 0
M  V30 1465 H 136.891 0.534713 -0.5072 0
M  V30 1466 H 139.533 0.812375 -1.71757 0
M  V30 1467 H 137.683 3.26238 -2.10953 0
M  V30 1468 H 139.355 1.77852 -4.25636 0
M  V30 1469 H 137.598 1.60824 -4.02887 0
M  V30 1470 H 138.269 3.16584 -4.52193 0
M  V30 1471 H 140.745 3.25113 -2.59694 0
M  V30 1472 H 139.621 4.55186 -3.06753 0
M  V30 1473 H 139.882 4.20484 -1.36549 0
M  V30 1474 N 138.941 1.26152 0.944643 0
M  V30 1475 C 139.904 1.07474 2.0244 0
M  V30 1476 C 140.904 0.0242064 1.60782 0
M  V30 1477 O 142.094 0.267302 1.72137 0
M  V30 1478 C 139.226 0.633956 3.34953 0
M  V30 1479 H 140.419 2.03336 2.20442 0
M  V30 1480 H 137.972 1.087 1.12312 0
M  V30 1481 H 138.707 -0.326811 3.22649 0
M  V30 1482 H 138.492 1.39247 3.66542 0
M  V30 1483 H 139.982 0.52501 4.14287 0
M  V30 1484 N 140.419 -1.14872 1.07899 0
M  V30 1485 C 141.667 -1.85422 0.803941 0
M  V30 1486 C 141.988 -1.83051 -0.67211 0
M  V30 1487 O 141.258 -1.27532 -1.48703 0
M  V30 1488 H 139.838 -0.686537 0.294408 0
M  V30 1489 H 142.5 -1.39226 1.3639 0
M  V30 1490 H 141.596 -2.90399 1.14346 0
M  V30 1491 N 141.898 -0.863906 -1.31812 0
M  V30 1492 C 142.848 -0.286898 -2.26188 0
M  V30 1493 C 143.832 0.572577 -1.50367 0
M  V30 1494 O 145.024 0.420447 -1.71934 0
M  V30 1495 C 142.153 0.515849 -3.39402 0
M  V30 1496 C 141.239 -0.356531 -4.22599 0
M  V30 1497 N 141.63 -1.44716 -4.84656 0
M  V30 1498 C 139.928 -0.147898 -4.45755 0
M  V30 1499 C 140.629 -1.98462 -5.46798 0
M  V30 1500 N 139.605 -1.28247 -5.28255 0
M  V30 1501 H 143.407 -1.12055 -2.717 0
M  V30 1502 H 140.921 -0.711012 -1.46008 0
M  V30 1503 H 142.918 0.945701 -4.06032 0
M  V30 1504 H 141.578 1.34718 -2.95434 0
M  V30 1505 H 142.589 -1.83008 -4.84488 0
M  V30 1506 H 139.266 0.647973 -4.12441 0
M  V30 1507 H 140.656 -2.89932 -6.06126 0
M  V30 1508 N 143.376 1.44774 -0.622745 0
M  V30 1509 C 144.306 2.33382 0.0741861 0
M  V30 1510 C 145.287 1.47719 0.843387 0
M  V30 1511 O 146.472 1.76458 0.810934 0
M  V30 1512 C 143.602 3.30663 1.06204 0
M  V30 1513 C 142.556 4.26079 0.405037 0
M  V30 1514 C 141.882 5.13165 1.5022 0
M  V30 1515 C 143.182 5.1781 -0.683414 0
M  V30 1516 H 144.876 2.91905 -0.665713 0
M  V30 1517 H 142.422 1.40363 -0.321587 0
M  V30 1518 H 144.375 3.9153 1.55827 0
M  V30 1519 H 143.099 2.70331 1.83272 0
M  V30 1520 H 141.758 3.66532 -0.0704683 0
M  V30 1521 H 141.406 4.49191 2.26355 0
M  V30 1522 H 141.106 5.77812 1.06803 0
M  V30 1523 H 142.63 5.76902 2.00041 0
M  V30 1524 H 144.044 5.72661 -0.270631 0
M  V30 1525 H 142.441 5.91015 -1.04023 0
M  V30 1526 H 143.511 4.59326 -1.55395 0
M  V30 1527 N 144.854 0.36279 1.53368 0
M  V30 1528 C 145.817 -0.472679 2.24273 0
M  V30 1529 C 146.817 -1.012 1.24961 0
M  V30 1530 O 148.007 -0.898194 1.49259 0
M  V30 1531 C 145.139 -1.66039 2.97731 0
M  V30 1532 H 146.332 0.14773 2.99536 0
M  V30 1533 H 143.885 0.114434 1.55881 0
M  V30 1534 H 144.62 -2.31896 2.26704 0
M  V30 1535 H 144.405 -1.28066 3.70596 0
M  V30 1536 H 145.895 -2.25252 3.51641 0
M  V30 1537 N 146.332 -1.57332 0.0918853 0
M  V30 1538 C 147.609 -1.85691 -0.614668 0
M  V30 1539 C 147.989 -0.988146 -1.86545 0
M  V30 1540 O 147.337 -0.0597055 -2.28422 0
M  V30 1541 C 147.547 -3.36294 -0.933126 0
M  V30 1542 C 148.895 -4.04275 -1.29796 0
M  V30 1543 O 149.919 -3.41157 -1.02424 0
M  V30 1544 O 148.778 -5.1564 -1.81047 0
M  V30 1545 H 145.872 -0.767802 -0.307261 0
M  V30 1546 H 148.418 -1.69244 0.12434 0
M  V30 1547 H 147.19 -3.91273 -0.0456404 0
M  V30 1548 H 146.813 -3.58076 -1.72822 0
M  V30 1549 N 147.81 0.181792 -1.56548 0
M  V30 1550 C 148.773 1.20894 -1.94724 0
M  V30 1551 C 149.773 1.37738 -0.829747 0
M  V30 1552 O 150.963 1.35323 -1.09697 0
M  V30 1553 C 148.095 2.57593 -2.23291 0
M  V30 1554 H 149.288 0.882275 -2.86629 0
M  V30 1555 H 146.841 0.423838 -1.50444 0
M  V30 1556 H 147.576 2.95291 -1.34067 0
M  V30 1557 H 147.361 2.46735 -3.04736 0
M  V30 1558 H 148.851 3.31637 -2.53785 0
M  V30 1559 N 149.288 1.51039 0.449983 0
M  V30 1560 C 150.218 1.74379 1.55288 0
M  V30 1561 C 151.199 0.593236 1.5942 0
M  V30 1562 O 152.384 0.834625 1.7535 0
M  V30 1563 C 149.514 1.85728 2.93466 0
M  V30 1564 C 148.468 3.01078 3.04197 0
M  V30 1565 C 147.794 2.97595 4.44231 0
M  V30 1566 C 149.094 4.41254 2.7945 0
M  V30 1567 H 150.788 2.66725 1.36008 0
M  V30 1568 H 148.334 1.2835 0.652864 0
M  V30 1569 H 150.287 2.0064 3.70569 0
M  V30 1570 H 149.011 0.900207 3.13949 0
M  V30 1571 H 147.67 2.85851 2.29531 0
M  V30 1572 H 147.318 1.99691 4.61663 0
M  V30 1573 H 147.018 3.75046 4.52343 0
M  V30 1574 H 148.542 3.14583 5.23326 0
M  V30 1575 H 149.956 4.56897 3.46292 0
M  V30 1576 H 148.353 5.20315 2.98985 0
M  V30 1577 H 149.423 4.52164 1.75144 0
M  V30 1578 N 150.766 -0.704594 1.40972 0
M  V30 1579 C 151.994 -1.49354 1.43182 0
M  V30 1580 C 152.409 -1.88768 0.0345508 0
M  V30 1581 O 151.766 -1.56184 -0.944081 0
M  V30 1582 C 151.817 -2.76187 2.33244 0
M  V30 1583 O 151.538 -2.38436 3.67532 0
M  V30 1584 C 153.039 -3.7 2.44162 0
M  V30 1585 H 150.259 -0.460559 0.487982 0
M  V30 1586 H 152.803 -0.868261 1.85153 0
M  V30 1587 H 150.958 -3.34974 1.94606 0
M  V30 1588 H 151.372 -3.20126 4.15475 0
M  V30 1589 H 152.846 -4.55803 3.11364 0
M  V30 1590 H 153.323 -4.13867 1.47006 0
M  V30 1591 H 153.929 -3.17121 2.83398 0
M  V30 1592 N 152.244 -1.26651 -0.937939 0
M  V30 1593 C 153.207 -1.08546 -2.01867 0
M  V30 1594 C 154.207 -0.0327327 -1.60767 0
M  V30 1595 O 155.397 -0.276427 -1.71993 0
M  V30 1596 C 152.529 -0.651711 -3.34613 0
M  V30 1597 H 153.722 -2.04502 -2.1936 0
M  V30 1598 H 151.275 -1.09294 -1.11734 0
M  V30 1599 H 152.01 0.309696 -3.22818 0
M  V30 1600 H 151.795 -1.41189 -3.65798 0
M  V30 1601 H 153.285 -0.546973 -4.14002 0
M  V30 1602 N 153.722 1.14298 -1.08507 0
M  V30 1603 C 154.685 2.17607 -0.719711 0
M  V30 1604 C 155.685 1.58907 0.245997 0
M  V30 1605 O 156.875 1.74181 0.0254081 0
M  V30 1606 C 154.007 3.40842 -0.0627695 0
M  V30 1607 H 155.2 2.51443 -1.63452 0
M  V30 1608 H 152.753 1.28963 -0.88307 0
M  V30 1609 H 153.488 3.12587 0.863716 0
M  V30 1610 H 153.273 3.84713 -0.757504 0
M  V30 1611 H 154.763 4.17221 0.177786 0
M  V30 1612 N 155.201 0.870884 1.31352 0
M  V30 1613 C 156.449 0.48132 1.96285 0
M  V30 1614 C 156.77 -0.969813 1.69173 0
M  V30 1615 O 156.04 -1.67998 1.00764 0
M  V30 1616 H 154.62 0.175002 0.726212 0
M  V30 1617 H 157.282 1.11087 1.60143 0
M  V30 1618 H 156.378 0.639825 3.05471 0
M  V30 1619 N 156.679 -1.44442 0.630414 0
M  V30 1620 C 157.925 -2.02351 0.134816 0
M  V30 1621 C 158.258 -1.4947 -1.23986 0
M  V30 1622 O 157.533 -0.678475 -1.82283 0
M  V30 1623 C 157.816 -3.59898 0.120707 0
M  V30 1624 C 157.669 -4.23063 1.52767 0
M  V30 1625 C 158.988 -4.36585 -0.555127 0
M  V30 1626 H 156.107 -0.73527 0.0504646 0
M  V30 1627 H 158.749 -1.72022 0.806751 0
M  V30 1628 H 156.899 -3.85868 -0.451477 0
M  V30 1629 H 158.571 -4.08202 2.14869 0
M  V30 1630 H 156.814 -3.80586 2.08175 0
M  V30 1631 H 157.485 -5.32071 1.46984 0
M  V30 1632 H 159.961 -4.16044 -0.0685429 0
M  V30 1633 H 158.837 -5.46294 -0.534185 0
M  V30 1634 H 159.098 -4.11138 -1.62535 0
M  V30 1635 N 158.157 -0.370918 -1.53173 0
M  V30 1636 C 159.568 0.107139 -1.86392 0
M  V30 1637 C 159.919 1.47714 -1.29132 0
M  V30 1638 O 159.044 2.07464 -0.615439 0
M  V30 1639 C 159.639 0.201187 -3.38202 0
M  V30 1640 C 158.198 0.623507 -3.712 0
M  V30 1641 C 157.345 -0.225978 -2.76378 0
M  V30 1642 H 160.296 -0.58951 -1.47345 0
M  V30 1643 H 160.317 1.02377 -3.66468 0
M  V30 1644 H 159.829 -0.796058 -3.79848 0
M  V30 1645 H 157.93 1.62879 -3.35114 0
M  V30 1646 H 158.043 0.394414 -4.77474 0
M  V30 1647 H 156.407 0.305962 -2.52856 0
M  V30 1648 H 157.19 -1.22086 -3.20858 0
M  V30 1649 N 159.635 1.57281 -0.100228 0
M  V30 1650 C 160.86 1.99302 0.573881 0
M  V30 1651 C 161.285 0.979059 1.60611 0
M  V30 1652 O 160.643 -0.0517803 1.81226 0
M  V30 1653 C 160.691 3.40274 1.19358 0
M  V30 1654 O 159.795 3.41676 2.30935 0
M  V30 1655 H 159.136 0.647944 0.145138 0
M  V30 1656 H 161.666 2.03779 -0.183156 0
M  V30 1657 H 161.676 3.78078 1.53365 0
M  V30 1658 H 160.351 4.13594 0.437385 0
M  V30 1659 H 158.928 3.15672 1.98509 0
M  V30 1660 N 161.113 -0.173488 1.56642 0
M  V30 1661 C 162.023 -1.23482 1.99473 0
M  V30 1662 C 163.039 -1.48567 0.905752 0
M  V30 1663 O 164.215 -1.60758 1.21321 0
M  V30 1664 C 161.28 -2.55444 2.34413 0
M  V30 1665 C 160.341 -2.38241 3.57127 0
M  V30 1666 C 159.574 -3.63909 3.90392 0
M  V30 1667 O 159.797 -4.68996 3.24653 0
M  V30 1668 O 158.731 -3.58149 4.83749 0
M  V30 1669 H 162.557 -0.901279 2.90018 0
M  V30 1670 H 160.142 -0.380185 1.44482 0
M  V30 1671 H 162.024 -3.33292 2.57865 0
M  V30 1672 H 160.699 -2.88382 1.4703 0
M  V30 1673 H 159.606 -1.58431 3.38896 0
M  V30 1674 H 160.939 -2.10228 4.45045 0
M  V30 1675 N 162.591 -1.51276 -0.441967 0
M  V30 1676 C 163.819 -1.67516 -1.21434 0
M  V30 1677 C 164.234 -0.37055 -1.85128 0
M  V30 1678 O 163.591 0.650498 -1.70513 0
M  V30 1679 C 163.642 -2.78748 -2.30177 0
M  V30 1680 O 163.363 -4.04154 -1.69089 0
M  V30 1681 C 164.864 -3.06217 -3.20541 0
M  V30 1682 H 162.084 -0.562276 -0.366178 0
M  V30 1683 H 164.628 -1.97666 -0.524244 0
M  V30 1684 H 162.783 -2.5121 -2.94911 0
M  V30 1685 H 163.197 -4.65894 -2.40922 0
M  V30 1686 H 164.671 -3.8764 -3.92987 0
M  V30 1687 H 165.148 -2.18439 -3.81026 0
M  V30 1688 H 165.754 -3.35397 -2.61513 0
M  V30 1689 N 164.069 0.697108 -1.41344 0
M  V30 1690 C 165.318 1.45279 -1.39918 0
M  V30 1691 C 165.631 1.95597 -0.0109624 0
M  V30 1692 O 166.837 2.71208 0.125919 0
M  V30 1693 C 165.293 2.62695 -2.46007 0
M  V30 1694 C 164.901 2.19169 -3.90729 0
M  V30 1695 C 166.645 3.40336 -2.53715 0
M  V30 1696 C 164.552 3.33535 -4.88373 0
M  V30 1697 H 163.482 0.545692 -0.520323 0
M  V30 1698 H 166.133 0.756929 -1.67161 0
M  V30 1699 H 164.515 3.34541 -2.11892 0
M  V30 1700 H 165.689 1.54623 -4.34083 0
M  V30 1701 H 164.004 1.54525 -3.86666 0
M  V30 1702 H 166.601 4.2547 -3.2385 0
M  V30 1703 H 166.944 3.85418 -1.5735 0
M  V30 1704 H 167.477 2.75546 -2.86913 0
M  V30 1705 H 164.216 2.93468 -5.86137 0
M  V30 1706 H 163.736 3.96936 -4.49668 0
M  V30 1707 H 165.415 3.99335 -5.09059 0
M  V30 1708 N 165.547 1.27147 0.931209 0
M  V30 1709 C 166.775 1.16082 1.71267 0
M  V30 1710 C 167.19 -0.282772 1.8667 0
M  V30 1711 O 166.547 -1.19283 1.38122 0
M  V30 1712 C 166.598 1.8358 3.11417 0
M  V30 1713 O 166.319 3.22299 2.96741 0
M  V30 1714 C 167.82 1.78597 4.05732 0
M  V30 1715 H 165.04 0.403758 0.535929 0
M  V30 1716 H 167.584 1.67953 1.16671 0
M  V30 1717 H 165.739 1.35623 3.62885 0
M  V30 1718 H 166.153 3.55851 3.85319 0
M  V30 1719 H 167.627 2.30444 5.01597 0
M  V30 1720 H 168.104 0.754564 4.3267 0
M  V30 1721 H 168.71 2.26152 3.60188 0
M  V30 1722 N 167.025 -1.13721 1.09112 0
M  V30 1723 C 167.935 -2.22638 0.73957 0
M  V30 1724 C 168.951 -1.72091 -0.257068 0
M  V30 1725 O 170.127 -2.01155 -0.0992154 0
M  V30 1726 C 167.192 -3.46322 0.16191 0
M  V30 1727 C 166.253 -4.11775 1.21408 0
M  V30 1728 C 165.486 -5.29555 0.663891 0
M  V30 1729 O 165.709 -5.68077 -0.514274 0
M  V30 1730 O 164.643 -5.84973 1.41738 0
M  V30 1731 H 168.469 -2.55074 1.64836 0
M  V30 1732 H 166.054 -1.21791 0.865289 0
M  V30 1733 H 167.936 -4.21107 -0.157073 0
M  V30 1734 H 166.611 -3.15593 -0.719932 0
M  V30 1735 H 165.518 -3.3883 1.58571 0
M  V30 1736 H 166.851 -4.46627 2.06845 0
M  V30 1737 N 168.503 -0.877838 -1.30888 0
M  V30 1738 C 169.752 -0.488793 -1.95688 0
M  V30 1739 C 170.065 0.965485 -1.70111 0
M  V30 1740 O 171.271 1.46104 -2.28836 0
M  V30 1741 C 169.727 -0.823201 -3.50359 0
M  V30 1742 C 169.335 -2.29477 -3.84765 0
M  V30 1743 C 171.079 -0.503009 -4.21509 0
M  V30 1744 C 168.986 -2.57118 -5.32583 0
M  V30 1745 H 167.916 -0.179062 -0.732429 0
M  V30 1746 H 170.567 -1.07183 -1.48943 0
M  V30 1747 H 168.949 -0.169331 -3.95638 0
M  V30 1748 H 170.123 -2.99236 -3.5042 0
M  V30 1749 H 168.438 -2.58178 -3.267 0
M  V30 1750 H 171.035 -0.68665 -5.30273 0
M  V30 1751 H 171.378 0.557109 -4.12555 0
M  V30 1752 H 171.911 -1.11376 -3.8189 0
M  V30 1753 H 168.65 -3.61843 -5.4658 0
M  V30 1754 H 168.17 -1.91961 -5.68253 0
M  V30 1755 H 169.849 -2.42251 -5.99936 0
M  V30 1756 N 169.982 1.44106 -0.638065 0
M  V30 1757 C 170.912 2.33448 0.0494287 0
M  V30 1758 C 171.893 1.48606 0.827672 0
M  V30 1759 O 173.078 1.77308 0.792173 0
M  V30 1760 C 170.208 3.31771 1.02691 0
M  V30 1761 C 169.162 4.26485 0.359823 0
M  V30 1762 C 168.488 5.14729 1.44769 0
M  V30 1763 C 169.788 5.17056 -0.738296 0
M  V30 1764 H 171.482 2.91183 -0.696636 0
M  V30 1765 H 169.028 1.40014 -0.336456 0
M  V30 1766 H 170.981 3.93161 1.51666 0
M  V30 1767 H 169.705 2.7226 1.80395 0
M  V30 1768 H 168.364 3.66437 -0.10934 0
M  V30 1769 H 168.012 4.51566 2.21578 0
M  V30 1770 H 167.712 5.78913 1.00668 0
M  V30 1771 H 169.236 5.78991 1.93911 0
M  V30 1772 H 170.65 5.72342 -0.331354 0
M  V30 1773 H 169.047 5.89879 -1.10286 0
M  V30 1774 H 170.117 4.57652 -1.60258 0
M  V30 1775 N 171.46 0.379036 1.52974 0
M  V30 1776 C 172.708 -0.206014 2.01047 0
M  V30 1777 C 173.029 -1.48175 1.26765 0
M  V30 1778 O 172.299 -1.92085 0.384743 0
M  V30 1779 H 170.879 -0.0791184 0.742798 0
M  V30 1780 H 173.541 0.508366 1.88153 0
M  V30 1781 H 172.637 -0.423501 3.09213 0
M  V30 1782 N 172.938 -1.57226 0.108567 0
M  V30 1783 C 174.184 -1.95121 -0.552761 0
M  V30 1784 C 174.517 -0.991345 -1.66991 0
M  V30 1785 O 173.792 -0.0267211 -1.94482 0
M  V30 1786 C 174.075 -3.43039 -1.09528 0
M  V30 1787 C 173.928 -4.49797 0.0177332 0
M  V30 1788 C 175.247 -3.92567 -1.98945 0
M  V30 1789 H 172.366 -0.709496 -0.199461 0
M  V30 1790 H 175.008 -1.89126 0.182011 0
M  V30 1791 H 173.158 -3.48279 -1.72146 0
M  V30 1792 H 174.83 -4.56661 0.652584 0
M  V30 1793 H 173.073 -4.284 0.682309 0
M  V30 1794 H 173.744 -5.50528 -0.402919 0
M  V30 1795 H 176.22 -3.89565 -1.46214 0
M  V30 1796 H 175.096 -4.96605 -2.33827 0
M  V30 1797 H 175.357 -3.32648 -2.91201 0
M  V30 1798 N 174.416 0.165178 -1.56732 0
M  V30 1799 C 175.665 0.879143 -1.81532 0
M  V30 1800 C 175.978 1.83144 -0.686842 0
M  V30 1801 O 177.184 2.58823 -0.819944 0
M  V30 1802 C 175.64 1.61388 -3.21686 0
M  V30 1803 C 175.248 0.704904 -4.4242 0
M  V30 1804 C 176.992 2.3157 -3.55774 0
M  V30 1805 C 174.899 1.44022 -5.73595 0
M  V30 1806 H 173.829 0.332033 -0.676957 0
M  V30 1807 H 176.48 0.132008 -1.83025 0
M  V30 1808 H 174.862 2.40599 -3.14529 0
M  V30 1809 H 176.036 -0.0506815 -4.60772 0
M  V30 1810 H 174.351 0.112419 -4.16248 0
M  V30 1811 H 176.948 2.8719 -4.51028 0
M  V30 1812 H 177.291 3.07201 -2.8095 0
M  V30 1813 H 177.824 1.59297 -3.64513 0
M  V30 1814 H 174.563 0.72612 -6.51466 0
M  V30 1815 H 174.083 2.16898 -5.5921 0
M  V30 1816 H 175.762 1.98606 -6.15764 0
M  V30 1817 N 175.894 1.51508 0.433938 0
M  V30 1818 C 176.857 1.72473 1.50949 0
M  V30 1819 C 177.857 0.594725 1.49398 0
M  V30 1820 O 179.047 0.862315 1.5136 0
M  V30 1821 C 176.179 1.78431 2.90474 0
M  V30 1822 H 177.372 2.68467 1.33662 0
M  V30 1823 H 174.925 1.41549 0.662836 0
M  V30 1824 H 175.66 0.842645 3.13161 0
M  V30 1825 H 175.445 2.60558 2.93005 0
M  V30 1826 H 176.935 1.96479 3.68491 0
M  V30 1827 N 177.372 -0.689602 1.41712 0
M  V30 1828 C 178.783 -1.26973 1.36875 0
M  V30 1829 C 179.134 -1.96124 0.054748 0
M  V30 1830 O 178.259 -1.99141 -0.84687 0
M  V30 1831 C 178.854 -2.30912 2.47922 0
M  V30 1832 C 177.413 -2.84486 2.46464 0
M  V30 1833 C 176.56 -1.58603 2.27465 0
M  V30 1834 H 179.511 -0.48396 1.51141 0
M  V30 1835 H 179.532 -3.12331 2.17323 0
M  V30 1836 H 179.044 -1.80554 3.43543 0
M  V30 1837 H 177.145 -3.39005 1.54617 0
M  V30 1838 H 177.258 -3.34511 3.42986 0
M  V30 1839 H 175.622 -1.84632 1.75451 0
M  V30 1840 H 176.405 -1.10233 3.25121 0
M  V30 1841 N 178.85 -1.27639 -0.924453 0
M  V30 1842 C 179.78 -1.13166 -2.04244 0
M  V30 1843 C 180.761 -0.032256 -1.70069 0
M  V30 1844 O 181.946 -0.207328 -1.9309 0
M  V30 1845 C 179.076 -0.781496 -3.38393 0
M  V30 1846 C 178.03 -1.83449 -3.86692 0
M  V30 1847 C 177.356 -1.33822 -5.17683 0
M  V30 1848 C 178.656 -3.23917 -4.09726 0
M  V30 1849 H 180.35 -2.06689 -2.1661 0
M  V30 1850 H 177.896 -0.995136 -1.04082 0
M  V30 1851 H 179.849 -0.667057 -4.16087 0
M  V30 1852 H 178.573 0.189439 -3.2605 0
M  V30 1853 H 177.232 -1.93789 -3.11193 0
M  V30 1854 H 176.88 -0.35665 -5.01734 0
M  V30 1855 H 176.58 -2.04224 -5.50968 0
M  V30 1856 H 178.104 -1.23679 -5.97943 0
M  V30 1857 H 179.518 -3.16559 -4.77978 0
M  V30 1858 H 177.915 -3.92059 -4.54324 0
M  V30 1859 H 178.985 -3.68729 -3.14908 0
M  V30 1860 N 180.328 1.1314 -1.09713 0
M  V30 1861 C 181.291 2.16831 -0.742751 0
M  V30 1862 C 182.291 1.59159 0.229129 0
M  V30 1863 O 183.481 1.74199 0.00693237 0
M  V30 1864 C 180.613 3.40756 -0.0989168 0
M  V30 1865 H 181.806 2.49695 -1.66109 0
M  V30 1866 H 179.359 1.2802 -0.896699 0
M  V30 1867 H 180.094 3.13485 0.830514 0
M  V30 1868 H 179.879 3.83888 -0.798265 0
M  V30 1869 H 181.369 4.17386 0.133524 0
M  V30 1870 N 181.806 0.884767 1.30421 0
M  V30 1871 C 183.052 0.503851 1.96441 0
M  V30 1872 C 183.385 -0.944518 1.69684 0
M  V30 1873 O 182.66 -1.66737 1.00145 0
M  V30 1874 C 182.943 0.779085 3.51571 0
M  V30 1875 C 182.796 2.27807 3.87846 0
M  V30 1876 C 184.115 0.255452 4.39358 0
M  V30 1877 H 181.234 0.184533 0.713524 0
M  V30 1878 H 183.876 1.10872 1.54297 0
M  V30 1879 H 182.026 0.264274 3.876 0
M  V30 1880 H 183.698 2.86127 3.61841 0
M  V30 1881 H 181.941 2.74479 3.35922 0
M  V30 1882 H 182.612 2.42125 4.96064 0
M  V30 1883 H 185.088 0.696079 4.10236 0
M  V30 1884 H 183.964 0.477361 5.4682 0
M  V30 1885 H 184.225 -0.843293 4.33983 0
M  V30 1886 N 183.284 -1.43765 0.645699 0
M  V30 1887 C 184.561 -1.9541 0.0862963 0
M  V30 1888 C 184.941 -1.58725 -1.39175 0
M  V30 1889 O 184.289 -0.868581 -2.11348 0
M  V30 1890 C 184.499 -3.47488 0.324565 0
M  V30 1891 C 185.847 -4.24001 0.225497 0
M  V30 1892 O 186.871 -3.55274 0.256715 0
M  V30 1893 O 185.73 -5.46313 0.142801 0
M  V30 1894 H 182.824 -0.826882 -0.0139483 0
M  V30 1895 H 185.37 -1.53743 0.718415 0
M  V30 1896 H 184.142 -3.67289 1.3496 0
M  V30 1897 H 183.765 -3.96135 -0.340987 0
M  V30 1898 N 184.763 -0.387143 -1.52771 0
M  V30 1899 C 186.009 0.196025 -2.0185 0
M  V30 1900 C 186.342 1.46641 -1.27319 0
M  V30 1901 O 185.617 1.90889 -0.373032 0
M  V30 1902 C 185.9 0.466136 -3.5707 0
M  V30 1903 C 185.753 -0.819385 -4.42274 0
M  V30 1904 C 187.072 1.25768 -4.21747 0
M  V30 1905 H 184.191 0.0697708 -0.73369 0
M  V30 1906 H 186.833 -0.516286 -1.82851 0
M  V30 1907 H 184.983 1.07293 -3.7339 0
M  V30 1908 H 186.655 -1.4563 -4.37709 0
M  V30 1909 H 184.898 -1.43517 -4.09372 0
M  V30 1910 H 185.569 -0.585065 -5.48891 0
M  V30 1911 H 188.045 0.744167 -4.09391 0
M  V30 1912 H 186.921 1.41541 -5.30337 0
M  V30 1913 H 187.182 2.27228 -3.79236 0
M  V30 1914 N 186.241 1.57166 -0.116904 0
M  V30 1915 C 187.469 1.99473 0.549383 0
M  V30 1916 C 187.884 0.996541 1.60357 0
M  V30 1917 O 187.241 -0.0108731 1.82497 0
M  V30 1918 C 187.292 3.41788 1.17741 0
M  V30 1919 O 187.013 4.37788 0.165362 0
M  V30 1920 C 188.514 3.99216 1.92722 0
M  V30 1921 H 185.734 0.655009 0.145616 0
M  V30 1922 H 188.278 2.03494 -0.202625 0
M  V30 1923 H 186.433 3.38713 1.88021 0
M  V30 1924 H 186.847 5.20806 0.621403 0
M  V30 1925 H 188.321 5.00882 2.31995 0
M  V30 1926 H 188.798 3.3824 2.80161 0
M  V30 1927 H 189.404 4.0583 1.27209 0
M  V30 1928 N 187.719 -0.156864 1.56817 0
M  V30 1929 C 188.944 -0.890331 1.87318 0
M  V30 1930 C 189.369 -1.74394 0.704855 0
M  V30 1931 O 188.727 -1.77972 -0.345786 0
M  V30 1932 C 188.775 -1.73102 3.16336 0
M  V30 1933 O 187.879 -2.83422 2.99576 0
M  V30 1934 H 187.22 -0.24857 0.615718 0
M  V30 1935 H 189.75 -0.150649 2.04045 0
M  V30 1936 H 189.76 -2.12803 3.48107 0
M  V30 1937 H 188.435 -1.10412 4.00976 0
M  V30 1938 H 187.012 -2.47199 2.7919 0
M  V30 1939 N 189.197 -1.51736 -0.425897 0
M  V30 1940 C 190.445 -1.64644 -1.17204 0
M  V30 1941 C 190.766 -0.370486 -1.91448 0
M  V30 1942 O 190.036 0.614088 -1.86026 0
M  V30 1943 H 188.616 -0.606819 -0.435638 0
M  V30 1944 H 191.278 -1.88713 -0.487177 0
M  V30 1945 H 190.374 -2.47958 -1.89534 0
M  V30 1946 N 190.675 0.682077 -1.42076 0
M  V30 1947 C 191.585 1.82535 -1.47371 0
M  V30 1948 C 192.601 1.7017 -0.363079 0
M  V30 1949 O 193.777 1.91848 -0.612875 0
M  V30 1950 C 190.842 3.18624 -1.36674 0
M  V30 1951 C 189.903 3.42999 -2.58167 0
M  V30 1952 C 189.136 4.72595 -2.4797 0
M  V30 1953 O 189.359 5.50006 -1.5116 0
M  V30 1954 O 188.293 4.98054 -3.37974 0
M  V30 1955 H 192.119 1.81023 -2.43853 0
M  V30 1956 H 189.704 0.836887 -1.2376 0
M  V30 1957 H 191.586 3.99847 -1.33043 0
M  V30 1958 H 190.261 3.20789 -0.433138 0
M  V30 1959 H 189.168 2.61653 -2.67373 0
M  V30 1960 H 190.501 3.45659 -3.50401 0
M  V30 1961 N 192.153 1.28127 0.917671 0
M  V30 1962 C 193.378 1.18007 1.70555 0
M  V30 1963 C 193.803 -0.258257 1.86319 0
M  V30 1964 O 193.161 -1.1869 1.37049 0
M  V30 1965 C 193.209 1.87948 3.07746 0
M  V30 1966 O 192.313 1.18427 3.9503 0
M  V30 1967 H 191.654 0.409867 0.522403 0
M  V30 1968 H 194.184 1.69379 1.1477 0
M  V30 1969 H 194.194 1.95701 3.58001 0
M  V30 1970 H 192.869 2.92573 2.95591 0
M  V30 1971 H 191.446 1.18811 3.53466 0
M  V30 1972 N 193.631 -1.12557 1.10312 0
M  V30 1973 C 194.859 -1.87864 0.866873 0
M  V30 1974 C 195.274 -1.79588 -0.582557 0
M  V30 1975 O 194.631 -1.16887 -1.40156 0
M  V30 1976 C 194.682 -3.37125 1.30496 0
M  V30 1977 O 194.403 -3.45201 2.69755 0
M  V30 1978 C 195.904 -4.29373 1.10243 0
M  V30 1979 H 193.124 -0.594452 0.311236 0
M  V30 1980 H 195.668 -1.42429 1.46745 0
M  V30 1981 H 193.823 -3.80109 0.748081 0
M  V30 1982 H 194.237 -4.38056 2.88457 0
M  V30 1983 H 195.711 -5.32394 1.45811 0
M  V30 1984 H 196.188 -4.39181 0.0409492 0
M  V30 1985 H 196.794 -3.92169 1.64571 0
M  V30 1986 N 195.109 -0.891671 -1.2995 0
M  V30 1987 C 196.337 -0.52866 -2.00032 0
M  V30 1988 C 196.752 0.884574 -1.66795 0
M  V30 1989 O 196.109 1.5827 -0.908669 0
M  V30 1990 C 196.16 -0.701814 -3.54622 0
M  V30 1991 O 195.881 -2.05942 -3.86678 0
M  V30 1992 C 197.382 -0.342683 -4.41973 0
M  V30 1993 H 194.602 -0.203659 -0.639347 0
M  V30 1994 H 197.146 -1.19881 -1.65677 0
M  V30 1995 H 195.301 -0.0789468 -3.8732 0
M  V30 1996 H 195.715 -2.08291 -4.81368 0
M  V30 1997 H 197.189 -0.514709 -5.49595 0
M  V30 1998 H 197.666 0.71975 -4.33262 0
M  V30 1999 H 198.272 -0.942154 -4.14733 0
M  V30 2000 N 196.587 1.43421 -0.653314 0
M  V30 2001 C 197.55 2.29182 0.0287951 0
M  V30 2002 C 198.55 1.42213 0.750465 0
M  V30 2003 O 199.74 1.63843 0.591701 0
M  V30 2004 C 196.872 3.24278 1.05151 0
M  V30 2005 H 198.065 2.90985 -0.725786 0
M  V30 2006 H 195.618 1.50702 -0.414545 0
M  V30 2007 H 196.353 2.6737 1.83532 0
M  V30 2008 H 196.138 3.88396 0.537687 0
M  V30 2009 H 197.628 3.88647 1.52786 0
M  V30 2010 N 198.065 0.39524 1.52563 0
M  V30 2011 C 199.476 -0.0774719 1.86539 0
M  V30 2012 C 199.827 -1.45641 1.31466 0
M  V30 2013 O 198.952 -2.06459 0.648367 0
M  V30 2014 C 199.547 -0.147356 3.38479 0
M  V30 2015 C 198.106 -0.564373 3.72145 0
M  V30 2016 C 197.253 0.269919 2.75983 0
M  V30 2017 H 200.204 0.612876 1.46388 0
M  V30 2018 H 200.225 -0.965343 3.68051 0
M  V30 2019 H 199.737 0.856387 3.78534 0
M  V30 2020 H 197.838 -1.57527 3.37663 0
M  V30 2021 H 197.951 -0.318402 4.78041 0
M  V30 2022 H 196.315 -0.265696 2.5331 0
M  V30 2023 H 197.098 1.27175 3.18875 0
M  V30 2024 N 199.544 -1.57102 0.125237 0
M  V30 2025 C 200.79 -1.95697 -0.532035 0
M  V30 2026 C 201.123 -1.009 -1.6593 0
M  V30 2027 O 200.398 -0.047347 -1.94442 0
M  V30 2028 C 200.681 -3.44181 -1.05884 0
M  V30 2029 C 200.534 -4.49752 0.0654392 0
M  V30 2030 C 201.853 -3.94655 -1.9477 0
M  V30 2031 H 198.972 -0.711571 -0.191925 0
M  V30 2032 H 201.614 -1.88923 0.20206 0
M  V30 2033 H 199.764 -3.50085 -1.68442 0
M  V30 2034 H 201.436 -4.55943 0.700982 0
M  V30 2035 H 199.679 -4.27653 0.727709 0
M  V30 2036 H 200.35 -5.50924 -0.344505 0
M  V30 2037 H 202.826 -3.91094 -1.42074 0
M  V30 2038 H 201.702 -4.99057 -2.28546 0
M  V30 2039 H 201.963 -3.35718 -2.87656 0
M  V30 2040 O 201.061 0.0139771 -1.61494 0
M  V30 2041 H 201.752 0.632534 -1.83081 0
M  V30 END ATOM
M  V30 BEGIN BOND
M  V30 END BOND
M  V30 END CTAB
M  END
$$$$
