drugbank_target|Q8N4C8 Misshapen-like kinase 1 (DB12010)
 OpenBabel12092121173D

  0  0  0     0  0            999 V3000
M  V30 BEGIN CTAB
M  V30 COUNTS 20920 21161 0 0 0
M  V30 BEGIN ATOM
M  V30 1 H -0.908 1.98254 -0.117106 0
M  V30 2 N 0 1.576 0 0
M  V30 3 C 0.933 2.03868 1.02534 0
M  V30 4 C 1.911 0.928543 1.3348 0
M  V30 5 O 3.095 1.19667 1.45644 0
M  V30 6 C 0.222 2.43627 2.35294 0
M  V30 7 C -0.732 3.65373 2.2001 0
M  V30 8 S 0.101 5.13292 1.52614 0
M  V30 9 C 1.257 5.56322 2.86805 0
M  V30 10 H 1.49 2.90518 0.631377 0
M  V30 11 H -0.977 1.52953 0.210867 0
M  V30 12 H 0.981 2.67203 3.11629 0
M  V30 13 H -0.358 1.57376 2.7183 0
M  V30 14 H -1.165 3.90944 3.18086 0
M  V30 15 H -1.563 3.418 1.51819 0
M  V30 16 H 0.729 5.58782 3.83104 0
M  V30 17 H 1.672 6.56266 2.65933 0
M  V30 18 H 2.08 4.83886 2.90714 0
M  V30 19 N 1.4781 -0.272755 1.55222 0
M  V30 20 C 2.7261 -1.00234 1.75492 0
M  V30 21 C 3.0471 -1.8681 0.5592 0
M  V30 22 O 2.3171 -1.91215 -0.425882 0
M  V30 23 H 0.8971 -0.373076 0.647166 0
M  V30 24 H 3.5591 -0.296926 1.92625 0
M  V30 25 H 2.6551 -1.63913 2.65592 0
M  V30 26 N 2.9562 -1.48159 -0.537278 0
M  V30 27 C 4.2332 -1.46291 -1.29839 0
M  V30 28 C 4.6132 -0.170613 -2.10409 0
M  V30 29 O 3.9612 0.847746 -2.12192 0
M  V30 30 C 4.1712 -2.72055 -2.18603 0
M  V30 31 C 5.5192 -3.20087 -2.7898 0
M  V30 32 O 6.5432 -2.72921 -2.28894 0
M  V30 33 O 5.4022 -4.02138 -3.70064 0
M  V30 34 H 2.4962 -0.583906 -0.585647 0
M  V30 35 H 5.0422 -1.60384 -0.554534 0
M  V30 36 H 3.8142 -3.57628 -1.58801 0
M  V30 37 H 3.4372 -2.60646 -3.00249 0
M  V30 38 N 4.4343 0.785586 -1.36625 0
M  V30 39 C 5.8453 1.36101 -1.27803 0
M  V30 40 C 6.1963 1.96035 0.0804875 0
M  V30 41 O 5.3213 1.92834 0.982042 0
M  V30 42 C 5.9163 2.47442 -2.31426 0
M  V30 43 C 4.4753 3.00789 -2.26281 0
M  V30 44 C 3.6223 1.73896 -2.15999 0
M  V30 45 H 6.5733 0.586928 -1.47448 0
M  V30 46 H 6.5943 3.2656 -1.95291 0
M  V30 47 H 6.1063 2.03791 -3.30289 0
M  V30 48 H 4.2073 3.48851 -1.30896 0
M  V30 49 H 4.3203 3.57343 -3.19128 0
M  V30 50 H 2.6843 1.9628 -1.62316 0
M  V30 51 H 3.4673 1.32368 -3.16755 0
M  V30 52 N 5.9124 1.20967 1.01018 0
M  V30 53 C 6.8754 0.965918 2.07853 0
M  V30 54 C 7.8754 -0.0610545 1.60684 0
M  V30 55 O 9.0654 0.175681 1.73312 0
M  V30 56 C 6.1974 0.455513 3.37843 0
M  V30 57 H 7.3904 1.91365 2.3091 0
M  V30 58 H 4.9434 1.02594 1.17916 0
M  V30 59 H 5.6784 -0.497381 3.20463 0
M  V30 60 H 5.4634 1.19622 3.73407 0
M  V30 61 H 6.9534 0.304667 4.16487 0
M  V30 62 N 7.3905 -1.2043 1.01659 0
M  V30 63 C 8.8015 -1.71517 0.737482 0
M  V30 64 C 9.1525 -1.81547 -0.743973 0
M  V30 65 O 8.2775 -1.47803 -1.58061 0
M  V30 66 C 8.8725 -3.11515 1.33206 0
M  V30 67 C 7.4315 -3.59912 1.10183 0
M  V30 68 C 6.5785 -2.37116 1.43776 0
M  V30 69 H 9.5295 -1.05444 1.18606 0
M  V30 70 H 9.5505 -3.73575 0.722636 0
M  V30 71 H 9.0625 -3.04182 2.41028 0
M  V30 72 H 7.1635 -3.72577 0.0412756 0
M  V30 73 H 7.2765 -4.44731 1.78188 0
M  V30 74 H 5.6405 -2.39857 0.856778 0
M  V30 75 H 6.4235 -2.32424 2.52654 0
M  V30 76 N 8.8686 -0.792821 -1.36206 0
M  V30 77 C 9.8316 -0.199459 -2.2833 0
M  V30 78 C 10.8316 0.605189 -1.48977 0
M  V30 79 O 12.0216 0.425685 -1.68919 0
M  V30 80 C 9.1536 0.723523 -3.33134 0
M  V30 81 H 10.3466 -1.01181 -2.82316 0
M  V30 82 H 7.8996 -0.562485 -1.45828 0
M  V30 83 H 8.6346 1.56008 -2.84309 0
M  V30 84 H 8.4196 0.148436 -3.91819 0
M  V30 85 H 9.9096 1.13344 -4.01924 0
M  V30 86 N 10.3467 1.47872 -0.545128 0
M  V30 87 C 11.7627 1.5829 -0.204032 0
M  V30 88 C 11.9627 1.54529 1.29317 0
M  V30 89 O 11.0187 1.44232 2.07252 0
M  V30 90 C 12.3317 2.89304 -0.819987 0
M  V30 91 C 13.8797 3.02864 -0.790105 0
M  V30 92 C 14.3547 4.3656 -1.38491 0
M  V30 93 N 15.8457 4.43165 -1.34755 0
M  V30 94 C 16.5807 5.45153 -1.77753 0
M  V30 95 N 16.0767 6.54016 -2.2855 0
M  V30 96 N 17.8697 5.36125 -1.68897 0
M  V30 97 H 10.0207 1.4856 -1.51802 0
M  V30 98 H 12.2837 0.706305 -0.632327 0
M  V30 99 H 11.9897 2.97757 -1.87173 0
M  V30 100 H 11.8637 3.75957 -0.305915 0
M  V30 101 H 14.2507 2.94014 0.252913 0
M  V30 102 H 14.3317 2.17782 -1.34181 0
M  V30 103 H 13.9757 4.46164 -2.42693 0
M  V30 104 H 13.9057 5.20353 -0.808754 0
M  V30 105 H 16.3967 3.65083 -0.975855 0
M  V30 106 H 16.7097 7.27994 -2.59314 0
M  V30 107 H 15.0547 6.54938 -2.32553 0
M  V30 108 H 18.2457 4.49975 -1.28998 0
M  V30 109 H 18.4187 6.15472 -2.02726 0
M  V30 110 N 11.8248 0.280983 1.55075 0
M  V30 111 C 13.0498 -0.340154 2.04592 0
M  V30 112 C 13.4748 -1.48246 1.15779 0
M  V30 113 O 12.8328 -1.80614 0.15761 0
M  V30 114 C 12.8808 -0.793104 3.5177 0
M  V30 115 O 11.9848 -1.89981 3.66034 0
M  V30 116 H 11.3258 -0.0694289 0.66036 0
M  V30 117 H 13.8558 0.416993 2.00306 0
M  V30 118 H 13.8658 -1.08729 3.93245 0
M  V30 119 H 12.5408 0.0426163 4.15878 0
M  V30 120 H 11.1178 -1.60771 3.36463 0
M  V30 121 N 13.3029 -1.57598 0.00835791 0
M  V30 122 C 14.2329 -2.1198 -0.979113 0
M  V30 123 C 15.2139 -1.03091 -1.35301 0
M  V30 124 O 16.3989 -1.30818 -1.43528 0
M  V30 125 C 13.5289 -2.62995 -2.26828 0
M  V30 126 C 12.4829 -3.76485 -2.03576 0
M  V30 127 C 11.8089 -4.13846 -3.38579 0
M  V30 128 C 13.1089 -5.0342 -1.39161 0
M  V30 129 H 14.8029 -2.94738 -0.526281 0
M  V30 130 H 12.3489 -1.41783 -0.251704 0
M  V30 131 H 14.3019 -2.99669 -2.96271 0
M  V30 132 H 13.0259 -1.7737 -2.7424 0
M  V30 133 H 11.6849 -3.40217 -1.36557 0
M  V30 134 H 11.3329 -3.25232 -3.83709 0
M  V30 135 H 11.0329 -4.90312 -3.23834 0
M  V30 136 H 12.5569 -4.53086 -4.09323 0
M  V30 137 H 13.9709 -5.37812 -1.98573 0
M  V30 138 H 12.3679 -5.84746 -1.34878 0
M  V30 139 H 13.4379 -4.83548 -0.361868 0
M  V30 140 N 14.781 0.264519 -1.55364 0
M  V30 141 C 16.058 1.01677 -1.67096 0
M  V30 142 C 16.438 2.03996 -0.543015 0
M  V30 143 O 15.786 2.23907 0.45585 0
M  V30 144 C 15.996 1.66596 -3.0667 0
M  V30 145 C 17.344 2.17442 -3.64697 0
M  V30 146 O 18.368 1.76568 -3.09358 0
M  V30 147 O 17.227 2.92439 -4.61673 0
M  V30 148 H 14.321 0.472161 -0.678965 0
M  V30 149 H 16.867 0.259703 -1.67701 0
M  V30 150 H 15.639 0.924962 -3.80211 0
M  V30 151 H 15.262 2.48968 -3.10001 0
M  V30 152 N 16.2591 1.48442 0.529413 0
M  V30 153 C 17.5361 1.46978 1.29062 0
M  V30 154 C 17.9161 0.181769 2.10316 0
M  V30 155 O 17.2641 -0.836481 2.12639 0
M  V30 156 C 17.4741 2.7321 2.17157 0
M  V30 157 C 18.8221 3.21562 2.77278 0
M  V30 158 O 19.8461 2.74131 2.27444 0
M  V30 159 O 18.7051 4.04094 3.67927 0
M  V30 160 H 15.7991 0.587003 0.582543 0
M  V30 161 H 18.3451 1.60676 0.546021 0
M  V30 162 H 17.1171 3.58465 1.56903 0
M  V30 163 H 16.7401 2.62235 2.98862 0
M  V30 164 N 17.7372 -0.778329 1.37039 0
M  V30 165 C 18.9862 -1.53189 1.3121 0
M  V30 166 C 19.2992 -1.95328 -0.103095 0
M  V30 167 O 20.5052 -2.70012 -0.283826 0
M  V30 168 C 18.9612 -2.76591 2.30272 0
M  V30 169 C 18.5692 -2.41577 3.77286 0
M  V30 170 C 20.3132 -3.5455 2.33441 0
M  V30 171 C 18.2202 -3.61441 4.68096 0
M  V30 172 H 17.1502 -0.5751 0.487622 0
M  V30 173 H 19.8012 -0.853101 1.62464 0
M  V30 174 H 18.1832 -3.46326 1.92027 0
M  V30 175 H 19.3572 -1.79668 4.2433 0
M  V30 176 H 17.6722 -1.76806 3.76999 0
M  V30 177 H 20.2692 -4.43628 2.98493 0
M  V30 178 H 20.6122 -3.93936 1.34611 0
M  V30 179 H 21.1452 -2.91805 2.7036 0
M  V30 180 H 17.8842 -3.27142 5.6803 0
M  V30 181 H 17.4042 -4.22478 4.25761 0
M  V30 182 H 19.0832 -4.28335 4.8491 0
M  V30 183 N 19.2153 -1.21501 -1.00376 0
M  V30 184 C 20.4923 -0.941745 -1.71437 0
M  V30 185 C 20.8723 0.546114 -2.03914 0
M  V30 186 O 20.2203 1.51128 -1.71384 0
M  V30 187 C 20.4303 -1.82812 -2.97289 0
M  V30 188 C 21.7783 -2.07771 -3.70292 0
M  V30 189 O 22.8023 -1.80171 -3.07273 0
M  V30 190 O 21.6613 -2.54456 -4.83647 0
M  V30 191 H 18.7553 -0.353243 -0.747762 0
M  V30 192 H 21.3013 -1.32436 -1.06108 0
M  V30 193 H 20.0733 -2.83501 -2.69709 0
M  V30 194 H 19.6963 -1.4464 -3.70358 0
M  V30 195 N 20.6934 1.19889 -1.02296 0
M  V30 196 C 21.6234 2.25141 -0.619174 0
M  V30 197 C 22.6044 1.66051 0.368915 0
M  V30 198 O 23.7894 1.92546 0.252941 0
M  V30 199 C 20.9194 3.4728 0.0368783 0
M  V30 200 C 19.8734 4.19005 -0.872865 0
M  V30 201 C 19.1994 5.34637 -0.0822402 0
M  V30 202 C 20.4994 4.74452 -2.18387 0
M  V30 203 H 22.1934 2.59171 -1.49903 0
M  V30 204 H 19.7394 1.24579 -0.722222 0
M  V30 205 H 21.6924 4.20098 0.330958 0
M  V30 206 H 20.4164 3.12433 0.95149 0
M  V30 207 H 19.0754 3.48061 -1.15105 0
M  V30 208 H 18.7234 4.96034 0.83422 0
M  V30 209 H 18.4234 5.83557 -0.688149 0
M  V30 210 H 19.9474 6.10255 0.205238 0
M  V30 211 H 21.3614 5.39055 -1.95172 0
M  V30 212 H 19.7584 5.33834 -2.74119 0
M  V30 213 H 20.8284 3.92844 -2.84257 0
M  V30 214 N 22.1715 0.800033 1.35784 0
M  V30 215 C 23.3965 0.388511 2.03729 0
M  V30 216 C 23.8215 -0.990481 1.5991 0
M  V30 217 O 23.1795 -1.64013 0.772612 0
M  V30 218 C 23.2275 0.4726 3.5749 0
M  V30 219 O 22.3315 -0.51646 4.09153 0
M  V30 220 H 21.6725 0.163271 0.643614 0
M  V30 221 H 24.2025 1.0841 1.73518 0
M  V30 222 H 24.2125 0.34003 4.06581 0
M  V30 223 H 22.8875 1.47848 3.88734 0
M  V30 224 H 21.4645 -0.344673 3.71304 0
M  V30 225 N 23.6496 -1.47581 0.552962 0
M  V30 226 C 24.6126 -2.28439 -0.186605 0
M  V30 227 C 25.6126 -1.36706 -0.84665 0
M  V30 228 O 26.8026 -1.59378 -0.703164 0
M  V30 229 C 23.9346 -3.16264 -1.2724 0
M  V30 230 H 25.1276 -2.95294 0.523609 0
M  V30 231 H 22.6806 -1.532 0.309745 0
M  V30 232 H 23.4156 -2.54091 -2.01514 0
M  V30 233 H 23.2006 -3.83769 -0.803968 0
M  V30 234 H 24.6906 -3.77198 -1.79196 0
M  V30 235 N 25.1277 -0.289203 -1.54924 0
M  V30 236 C 26.0577 0.58549 -2.2604 0
M  V30 237 C 27.0387 1.14753 -1.25562 0
M  V30 238 O 28.2237 1.17906 -1.54311 0
M  V30 239 C 25.3537 1.76305 -2.99222 0
M  V30 240 C 24.3077 1.33191 -4.06748 0
M  V30 241 C 23.6337 2.5937 -4.6758 0
M  V30 242 C 24.9337 0.471775 -5.20165 0
M  V30 243 H 26.6277 -0.00763532 -2.99399 0
M  V30 244 H 24.1737 -0.00511229 -1.43999 0
M  V30 245 H 26.1267 2.38097 -3.47689 0
M  V30 246 H 24.8507 2.38223 -2.23422 0
M  V30 247 H 23.5097 0.737121 -3.59113 0
M  V30 248 H 23.1577 3.19576 -3.88433 0
M  V30 249 H 22.8577 2.31228 -5.40192 0
M  V30 250 H 24.3817 3.21985 -5.18804 0
M  V30 251 H 25.7957 0.995056 -5.64599 0
M  V30 252 H 24.1927 0.284639 -5.99425 0
M  V30 253 H 25.2627 -0.506041 -4.82252 0
M  V30 254 N 26.6058 1.57591 -0.0167156 0
M  V30 255 C 28.0218 1.55946 0.339557 0
M  V30 256 C 28.2218 1.02109 1.73713 0
M  V30 257 O 27.2778 0.662303 2.43659 0
M  V30 258 C 28.5908 3.00037 0.199499 0
M  V30 259 C 30.1388 3.11805 0.273193 0
M  V30 260 C 30.6138 4.57713 0.162068 0
M  V30 261 N 32.1048 4.6268 0.219444 0
M  V30 262 C 32.8398 5.73185 0.157054 0
M  V30 263 N 32.3358 6.92786 0.0442936 0
M  V30 264 N 34.1288 5.61707 0.21014 0
M  V30 265 H 26.2798 1.90921 -0.930758 0
M  V30 266 H 28.5428 0.877674 -0.358319 0
M  V30 267 H 28.2488 3.4333 -0.76273 0
M  V30 268 H 28.1228 3.64387 0.974786 0
M  V30 269 H 30.5098 2.68433 1.22587 0
M  V30 270 H 30.5908 2.50201 -0.532256 0
M  V30 271 H 30.2348 5.01763 -0.78714 0
M  V30 272 H 30.1648 5.17283 0.986222 0
M  V30 273 H 32.6558 3.76649 0.307246 0
M  V30 274 H 32.9688 7.728 0.00304069 0
M  V30 275 H 31.3138 6.94999 0.00968457 0
M  V30 276 H 34.5048 4.6716 0.296546 0
M  V30 277 H 34.6778 6.47807 0.158054 0
M  V30 278 N 28.0839 -0.256276 1.55502 0
M  V30 279 C 29.3609 -1.00789 1.67633 0
M  V30 280 C 29.7409 -2.03706 0.553826 0
M  V30 281 O 29.0889 -2.24145 -0.443969 0
M  V30 282 C 29.2989 -1.64968 3.07549 0
M  V30 283 C 30.6469 -2.15505 3.65845 0
M  V30 284 O 31.6709 -1.74925 3.1029 0
M  V30 285 O 30.5299 -2.89986 4.63217 0
M  V30 286 H 27.6239 -0.468553 0.681459 0
M  V30 287 H 30.1699 -0.250806 1.67836 0
M  V30 288 H 28.9419 -0.904785 3.80696 0
M  V30 289 H 28.5649 -2.47321 3.11317 0
M  V30 290 N 29.562 -1.4872 -0.521534 0
M  V30 291 C 30.973 -1.50607 -1.10337 0
M  V30 292 C 31.324 -0.280612 -1.94183 0
M  V30 293 O 30.449 0.611507 -2.0758 0
M  V30 294 C 31.044 -2.72903 -2.00772 0
M  V30 295 C 29.603 -2.77634 -2.54158 0
M  V30 296 C 28.75 -2.44241 -1.31307 0
M  V30 297 H 31.701 -1.55714 -0.306388 0
M  V30 298 H 31.722 -2.519 -2.85178 0
M  V30 299 H 31.234 -3.62077 -1.39721 0
M  V30 300 H 29.335 -1.92689 -3.18907 0
M  V30 301 H 29.448 -3.79283 -2.92714 0
M  V30 302 H 27.812 -1.95577 -1.63161 0
M  V30 303 H 28.595 -3.35666 -0.719943 0
M  V30 304 N 31.0401 0.771051 -1.3745 0
M  V30 305 C 32.0031 1.86598 -1.33093 0
M  V30 306 C 33.0031 1.59076 -0.234845 0
M  V30 307 O 34.1931 1.67145 -0.490732 0
M  V30 308 C 31.3251 3.23747 -1.06773 0
M  V30 309 H 32.5181 1.91873 -2.30488 0
M  V30 310 H 30.0711 0.970876 -1.2249 0
M  V30 311 H 30.8061 3.24148 -0.099129 0
M  V30 312 H 30.5911 3.45115 -1.86112 0
M  V30 313 H 32.0811 4.03824 -1.06377 0
M  V30 314 N 32.5182 1.22032 0.997298 0
M  V30 315 C 33.7662 1.04016 1.73278 0
M  V30 316 C 34.0872 -0.426255 1.90284 0
M  V30 317 O 33.3572 -1.30694 1.45931 0
M  V30 318 H 31.9372 0.381897 0.642 0
M  V30 319 H 34.5992 1.5347 1.20137 0
M  V30 320 H 33.6952 1.51441 2.72896 0
M  V30 321 N 33.9963 -1.19345 1.0293 0
M  V30 322 C 35.2453 -1.88363 0.721256 0
M  V30 323 C 35.5583 -1.80514 -0.753254 0
M  V30 324 O 36.7643 -2.44788 -1.17436 0
M  V30 325 C 35.2203 -3.37872 1.23978 0
M  V30 326 C 34.8283 -3.54278 2.74211 0
M  V30 327 C 36.5723 -4.12365 1.00775 0
M  V30 328 C 34.4793 -4.97682 3.19479 0
M  V30 329 H 33.4093 -0.705484 0.266098 0
M  V30 330 H 36.0603 -1.34928 1.24365 0
M  V30 331 H 34.4423 -3.90707 0.6453 0
M  V30 332 H 35.6163 -3.11769 3.39318 0
M  V30 333 H 33.9313 -2.93174 2.95699 0
M  V30 334 H 36.5283 -5.18119 1.32123 0
M  V30 335 H 36.8713 -4.16263 -0.0554308 0
M  V30 336 H 37.4043 -3.65668 1.56625 0
M  V30 337 H 34.1433 -4.98945 4.25128 0
M  V30 338 H 33.6633 -5.4095 2.591 0
M  V30 339 H 35.3423 -5.66337 3.12845 0
M  V30 340 N 35.4744 -0.807222 -1.35358 0
M  V30 341 C 36.7214 -0.387888 -1.9875 0
M  V30 342 C 37.0494 1.04509 -1.64037 0
M  V30 343 O 36.3044 1.73986 -0.895946 0
M  V30 344 C 36.6034 -0.519036 -3.53611 0
M  V30 345 C 36.2694 -1.91542 -4.08194 0
M  V30 346 C 34.9314 -2.29745 -4.22813 0
M  V30 347 C 37.2834 -2.82896 -4.37744 0
M  V30 348 C 34.6114 -3.58668 -4.643 0
M  V30 349 C 36.9634 -4.11265 -4.8067 0
M  V30 350 C 35.6274 -4.49466 -4.93494 0
M  V30 351 H 34.8974 -0.141938 -0.727279 0
M  V30 352 H 37.5444 -1.02814 -1.6156 0
M  V30 353 H 35.8494 0.204658 -3.91265 0
M  V30 354 H 37.5464 -0.175345 -4.00616 0
M  V30 355 H 34.1364 -1.60862 -3.97268 0
M  V30 356 H 38.3204 -2.54629 -4.26002 0
M  V30 357 H 33.5764 -3.88113 -4.72418 0
M  V30 358 H 37.7504 -4.82153 -5.02496 0
M  V30 359 H 35.3774 -5.49418 -5.25399 0
M  V30 360 N 36.9525 1.47285 -0.560781 0
M  V30 361 C 37.8625 2.33846 0.187954 0
M  V30 362 C 38.8785 1.48412 0.908293 0
M  V30 363 O 40.0545 1.81332 0.876388 0
M  V30 364 C 37.1195 3.25178 1.2025 0
M  V30 365 C 36.1805 4.26504 0.489208 0
M  V30 366 C 35.4135 5.13472 1.45542 0
M  V30 367 O 35.6365 5.02959 2.6905 0
M  V30 368 O 34.5705 5.93902 0.977963 0
M  V30 369 H 38.3965 2.99177 -0.522177 0
M  V30 370 H 35.9815 1.45903 -0.321364 0
M  V30 371 H 37.8635 3.81584 1.78805 0
M  V30 372 H 36.5385 2.6247 1.89449 0
M  V30 373 H 35.4455 3.73847 -0.137627 0
M  V30 374 H 36.7785 4.91935 -0.161399 0
M  V30 375 N 38.4306 0.297415 1.54768 0
M  V30 376 C 39.3606 -0.573494 2.26348 0
M  V30 377 C 40.3416 -1.14085 1.26169 0
M  V30 378 O 41.5266 -1.17086 1.54934 0
M  V30 379 C 38.6566 -1.74716 3.00153 0
M  V30 380 C 37.6106 -1.31032 4.07449 0
M  V30 381 C 36.9366 -2.56887 4.68949 0
M  V30 382 C 38.2366 -0.444183 5.20408 0
M  V30 383 H 39.9306 0.0235131 2.99391 0
M  V30 384 H 37.4766 0.0127488 1.43994 0
M  V30 385 H 39.4296 -2.3625 3.48947 0
M  V30 386 H 38.1536 -2.37035 2.24682 0
M  V30 387 H 36.8126 -0.718066 3.59499 0
M  V30 388 H 36.4606 -3.17512 3.90122 0
M  V30 389 H 36.1606 -2.2836 5.41411 0
M  V30 390 H 37.6846 -3.19229 5.20505 0
M  V30 391 H 39.0986 -0.9651 5.65118 0
M  V30 392 H 37.4956 -0.252846 5.99567 0
M  V30 393 H 38.5656 0.531609 4.81977 0
M  V30 394 N 39.9087 -1.5758 0.0250728 0
M  V30 395 C 41.1547 -1.91917 -0.655413 0
M  V30 396 C 41.4877 -0.901433 -1.72011 0
M  V30 397 O 40.7627 0.0764069 -1.9435 0
M  V30 398 C 41.0457 -3.36751 -1.27558 0
M  V30 399 C 40.8987 -4.49258 -0.220719 0
M  V30 400 C 42.2177 -3.81469 -2.19475 0
M  V30 401 H 39.3367 -0.697925 -0.23679 0
M  V30 402 H 41.9787 -1.89825 0.0815036 0
M  V30 403 H 40.1287 -3.38664 -1.90365 0
M  V30 404 H 41.8007 -4.59478 0.409601 0
M  V30 405 H 40.0437 -4.31415 0.454264 0
M  V30 406 H 40.7147 -5.47618 -0.694175 0
M  V30 407 H 43.1907 -3.81266 -1.66659 0
M  V30 408 H 42.0667 -4.83512 -2.59822 0
M  V30 409 H 42.3277 -3.16744 -3.08424 0
M  V30 410 N 41.3868 0.248026 -1.55636 0
M  V30 411 C 42.2968 1.32859 -1.93354 0
M  V30 412 C 43.3128 1.52719 -0.833838 0
M  V30 413 O 44.4888 1.66363 -1.13513 0
M  V30 414 C 41.5538 2.66337 -2.21958 0
M  V30 415 C 40.6148 2.55008 -3.45354 0
M  V30 416 C 39.8478 3.82121 -3.72584 0
M  V30 417 O 40.0708 4.83951 -3.01907 0
M  V30 418 O 39.0048 3.80822 -4.6611 0
M  V30 419 H 42.8308 1.03862 -2.85388 0
M  V30 420 H 40.4158 0.448686 -1.42503 0
M  V30 421 H 42.2978 3.45216 -2.4167 0
M  V30 422 H 40.9728 2.95068 -1.33103 0
M  V30 423 H 39.8798 1.7442 -3.30951 0
M  V30 424 H 41.2128 2.31222 -4.34508 0
M  V30 425 N 42.8649 1.48995 0.513639 0
M  V30 426 C 44.1109 1.58076 1.27042 0
M  V30 427 C 44.4439 0.261026 1.92438 0
M  V30 428 O 43.7189 -0.734393 1.80103 0
M  V30 429 C 44.0019 2.73091 2.34719 0
M  V30 430 C 43.8549 4.14821 1.73907 0
M  V30 431 C 45.1739 2.83796 3.36375 0
M  V30 432 H 42.2929 0.575391 0.460536 0
M  V30 433 H 44.9349 1.81232 0.570516 0
M  V30 434 H 43.0849 2.53479 2.94416 0
M  V30 435 H 44.7569 4.45917 1.18135 0
M  V30 436 H 42.9999 4.21058 1.0437 0
M  V30 437 H 43.6709 4.91147 2.51949 0
M  V30 438 H 46.1469 3.01611 2.86653 0
M  V30 439 H 45.0229 3.65971 4.09093 0
M  V30 440 H 45.2839 1.92624 3.9793 0
M  V30 441 N 44.343 -0.763751 1.37857 0
M  V30 442 C 45.589 -1.52483 1.33704 0
M  V30 443 C 45.922 -1.94051 -0.0759612 0
M  V30 444 O 45.197 -1.64675 -1.03501 0
M  V30 445 C 45.48 -2.78441 2.28348 0
M  V30 446 C 45.333 -2.43075 3.78463 0
M  V30 447 C 46.652 -3.80415 2.21298 0
M  V30 448 H 43.771 -0.553169 0.487005 0
M  V30 449 H 46.413 -0.875562 1.68624 0
M  V30 450 H 44.563 -3.33842 1.987 0
M  V30 451 H 46.235 -1.93527 4.18742 0
M  V30 452 H 44.478 -1.75666 3.96641 0
M  V30 453 H 45.149 -3.33149 4.40132 0
M  V30 454 H 47.625 -3.34527 2.47449 0
M  V30 455 H 46.501 -4.66257 2.89647 0
M  V30 456 H 46.762 -4.25262 1.20849 0
M  V30 457 N 45.8211 -1.22559 -0.990812 0
M  V30 458 C 47.0691 -1.04933 -1.72724 0
M  V30 459 C 47.3901 0.416158 -1.90508 0
M  V30 460 O 46.6601 1.29918 -1.46622 0
M  V30 461 H 45.2401 -0.385296 -0.639965 0
M  V30 462 H 47.9021 -1.54105 -1.19322 0
M  V30 463 H 46.9981 -1.52886 -2.72089 0
M  V30 464 N 47.2992 1.18797 -1.03562 0
M  V30 465 C 48.2472 2.24297 -0.615905 0
M  V30 466 C 49.2412 1.65643 0.354808 0
M  V30 467 O 50.4472 1.78618 0.22265 0
M  V30 468 H 46.8222 0.729909 -0.180934 0
M  V30 469 H 48.7932 2.5701 -1.5162 0
M  V30 470 C 47.5422 3.47698 0.0104735 0
M  V30 471 H 46.8652 3.93125 -0.727509 0
M  V30 472 H 48.3052 4.23159 0.266995 0
M  V30 473 C 46.7642 3.12489 1.25905 0
M  V30 474 O 47.2942 3.25761 2.35038 0
M  V30 475 N 45.5002 2.6686 1.15039 0
M  V30 476 H 45.0472 2.56261 0.262328 0
M  V30 477 H 45.0052 2.43674 1.98672 0
M  V30 478 N 48.7773 0.814389 1.34928 0
M  V30 479 C 50.0253 0.397636 1.9815 0
M  V30 480 C 50.3463 -1.04069 1.64908 0
M  V30 481 O 49.6163 -1.72121 0.93548 0
M  V30 482 H 48.1963 0.144043 0.732981 0
M  V30 483 H 50.8583 1.04195 1.6471 0
M  V30 484 H 49.9543 0.509688 3.0791 0
M  V30 485 N 50.2554 -1.46986 0.568584 0
M  V30 486 C 51.4834 -2.0683 0.0539956 0
M  V30 487 C 51.8984 -1.41953 -1.24478 0
M  V30 488 O 51.2554 -0.519933 -1.74937 0
M  V30 489 C 51.3064 -3.61254 -0.133362 0
M  V30 490 O 51.0274 -4.237 1.11399 0
M  V30 491 C 52.5284 -4.37992 -0.683927 0
M  V30 492 H 49.7484 -0.669058 0.0510141 0
M  V30 493 H 52.2924 -1.88824 0.785234 0
M  V30 494 H 50.4474 -3.78735 -0.81477 0
M  V30 495 H 50.8614 -5.16388 0.91888 0
M  V30 496 H 52.3354 -5.46684 -0.764263 0
M  V30 497 H 52.8124 -4.05058 -1.69778 0
M  V30 498 H 53.4184 -4.25283 -0.0378494 0
M  V30 499 N 51.7335 -0.305618 -1.54608 0
M  V30 500 C 52.9635 0.304333 -2.04346 0
M  V30 501 C 53.3715 1.47715 -1.18224 0
M  V30 502 O 52.7145 1.82591 -0.201577 0
M  V30 503 C 52.7765 0.819031 -3.50046 0
M  V30 504 C 52.4405 -0.22912 -4.56425 0
M  V30 505 C 53.4375 -1.05914 -5.08997 0
M  V30 506 C 51.1225 -0.372148 -5.0092 0
M  V30 507 C 53.1165 -2.01809 -6.04609 0
M  V30 508 C 50.8035 -1.33454 -5.9635 0
M  V30 509 C 51.8015 -2.15599 -6.48079 0
M  V30 510 O 51.4895 -3.10205 -7.41639 0
M  V30 511 H 51.2215 0.0693996 -0.672428 0
M  V30 512 H 53.7755 -0.444548 -2.00532 0
M  V30 513 H 52.0055 1.61852 -3.51199 0
M  V30 514 H 53.6945 1.34537 -3.82955 0
M  V30 515 H 54.4605 -0.959538 -4.75413 0
M  V30 516 H 50.3395 0.257304 -4.60281 0
M  V30 517 H 53.8835 -2.65966 -6.44909 0
M  V30 518 H 49.7805 -1.43485 -6.29351 0
M  V30 519 H 50.5485 -3.05237 -7.59455 0
M  V30 520 N 53.2116 1.57565 -0.0334293 0
M  V30 521 C 54.4596 1.91598 0.642999 0
M  V30 522 C 54.7806 0.910847 1.7242 0
M  V30 523 O 54.0506 -0.0469931 1.95844 0
M  V30 524 H 52.6306 0.707228 0.240496 0
M  V30 525 H 55.2926 1.94726 -0.0822488 0
M  V30 526 H 54.3886 2.92336 1.09298 0
M  V30 527 N 54.6897 -0.239769 1.55765 0
M  V30 528 C 55.6217 -1.32001 1.87372 0
M  V30 529 C 56.6347 -1.43944 0.760522 0
M  V30 530 O 57.8237 -1.45167 1.0387 0
M  V30 531 C 54.9237 -2.69779 2.05115 0
M  V30 532 C 54.0967 -2.80014 3.36022 0
M  V30 533 C 53.1557 -3.98684 3.4342 0
M  V30 534 O 52.1817 -3.87877 4.16582 0
M  V30 535 N 53.3837 -5.12176 2.73232 0
M  V30 536 H 56.1487 -1.0522 2.80622 0
M  V30 537 H 53.7097 -0.429857 1.56089 0
M  V30 538 H 55.7017 -3.47517 2.07399 0
M  V30 539 H 54.2717 -2.89237 1.18577 0
M  V30 540 H 53.4917 -1.88896 3.45994 0
M  V30 541 H 54.7797 -2.83808 4.22292 0
M  V30 542 H 54.1777 -5.2385 2.13536 0
M  V30 543 H 52.7347 -5.88022 2.81199 0
M  V30 544 N 56.1678 -1.49265 -0.50573 0
M  V30 545 C 57.4138 -1.58748 -1.26202 0
M  V30 546 C 57.7468 -0.271227 -1.92297 0
M  V30 547 O 57.0218 0.724831 -1.80489 0
M  V30 548 C 57.3048 -2.74332 -2.33268 0
M  V30 549 C 57.1578 -4.15737 -1.71705 0
M  V30 550 C 58.4768 -2.85576 -3.34865 0
M  V30 551 H 55.5958 -0.577826 -0.457478 0
M  V30 552 H 58.2378 -1.81532 -0.560897 0
M  V30 553 H 56.3878 -2.55036 -2.93068 0
M  V30 554 H 58.0598 -4.46537 -1.15769 0
M  V30 555 H 56.3028 -4.21605 -1.02135 0
M  V30 556 H 56.9738 -4.92477 -2.49341 0
M  V30 557 H 59.4498 -3.03127 -2.8505 0
M  V30 558 H 58.3258 -3.68135 -4.07146 0
M  V30 559 H 58.5868 -1.94732 -3.96903 0
M  V30 560 N 57.6459 0.756429 -1.3826 0
M  V30 561 C 58.8759 1.54341 -1.3734 0
M  V30 562 C 59.2839 1.89159 0.0393917 0
M  V30 563 O 58.6269 1.5307 1.01565 0
M  V30 564 C 58.6889 2.87238 -2.16182 0
M  V30 565 C 58.3529 2.74973 -3.65019 0
M  V30 566 C 59.3499 2.44962 -4.58574 0
M  V30 567 C 57.0349 2.92515 -4.08338 0
M  V30 568 C 59.0289 2.32642 -5.93428 0
M  V30 569 C 56.7159 2.79815 -5.43274 0
M  V30 570 C 57.7139 2.49921 -6.35632 0
M  V30 571 O 57.4019 2.37275 -7.68086 0
M  V30 572 H 57.1339 0.484281 -0.471643 0
M  V30 573 H 59.6879 0.944152 -1.82414 0
M  V30 574 H 57.9179 3.49342 -1.65822 0
M  V30 575 H 59.6069 3.48731 -2.07705 0
M  V30 576 H 60.3729 2.31081 -4.26412 0
M  V30 577 H 56.2519 3.14781 -3.368 0
M  V30 578 H 59.7959 2.0923 -6.65484 0
M  V30 579 H 55.6929 2.93269 -5.75034 0
M  V30 580 H 56.4609 2.52509 -7.78577 0
M  V30 581 N 59.124 1.23083 0.984299 0
M  V30 582 C 60.071 1.00854 2.07598 0
M  V30 583 C 61.041 -0.0726709 1.65941 0
M  V30 584 O 62.226 0.0786535 1.90638 0
M  V30 585 C 59.366 0.601645 3.39815 0
M  V30 586 C 58.479 1.75456 3.94765 0
M  V30 587 C 57.614 1.29482 5.15177 0
M  V30 588 C 56.653 2.41873 5.62284 0
M  V30 589 N 55.79 1.96885 6.73929 0
M  V30 590 H 60.63 1.943 2.25946 0
M  V30 591 H 58.167 0.968001 1.10762 0
M  V30 592 H 60.125 0.346854 4.15756 0
M  V30 593 H 58.755 -0.295803 3.21442 0
M  V30 594 H 57.807 2.12346 3.15616 0
M  V30 595 H 59.119 2.59965 4.25699 0
M  V30 596 H 58.273 0.997923 5.98437 0
M  V30 597 H 57.012 0.420046 4.85888 0
M  V30 598 H 56.017 2.72342 4.77608 0
M  V30 599 H 57.242 3.29881 5.93595 0
M  V30 600 H 55.188 1.11782 6.46406 0
M  V30 601 H 55.105 2.74956 7.04227 0
M  V30 602 H 56.373 1.70289 7.60672 0
M  V30 603 N 60.6021 -1.18246 1.0419 0
M  V30 604 C 61.8501 -1.87886 0.744543 0
M  V30 605 C 62.1711 -1.8082 -0.730006 0
M  V30 606 O 61.4411 -1.22736 -1.52685 0
M  V30 607 H 60.0211 -0.695556 0.272417 0
M  V30 608 H 62.6831 -1.43494 1.31892 0
M  V30 609 H 61.7791 -2.9389 1.05049 0
M  V30 610 N 62.0802 -0.821533 -1.34494 0
M  V30 611 C 63.4962 -0.507117 -1.51329 0
M  V30 612 C 63.6962 0.968964 -1.76673 0
M  V30 613 O 62.7522 1.75348 -1.81685 0
M  V30 614 C 64.0652 -1.36544 -2.67911 0
M  V30 615 C 65.6132 -1.36242 -2.81793 0
M  V30 616 C 66.0882 -2.2052 -4.01416 0
M  V30 617 N 67.5792 -2.18136 -4.08621 0
M  V30 618 C 68.3142 -2.80095 -5.00334 0
M  V30 619 N 67.8102 -3.51039 -5.9728 0
M  V30 620 N 69.6032 -2.69656 -4.93196 0
M  V30 621 H 61.7542 -1.77729 -1.16302 0
M  V30 622 H 64.0172 -0.757291 -0.570276 0
M  V30 623 H 63.7232 -2.41361 -2.55808 0
M  V30 624 H 63.5972 -1.02917 -3.62888 0
M  V30 625 H 65.9842 -0.322041 -2.93338 0
M  V30 626 H 66.0652 -1.73866 -1.87628 0
M  V30 627 H 65.7092 -3.24607 -3.90631 0
M  V30 628 H 65.6392 -1.80247 -4.94791 0
M  V30 629 H 68.1302 -1.6653 -3.39229 0
M  V30 630 H 68.4432 -3.95565 -6.63889 0
M  V30 631 H 66.7882 -3.55145 -5.97409 0
M  V30 632 H 69.9792 -2.13808 -4.16418 0
M  V30 633 H 70.1522 -3.1823 -5.64476 0
M  V30 634 N 63.5583 1.46682 -0.576371 0
M  V30 635 C 64.5083 2.27278 0.181288 0
M  V30 636 C 65.4923 1.35497 0.867721 0
M  V30 637 O 66.6843 1.59717 0.762863 0
M  V30 638 C 63.8133 3.21703 1.19841 0
M  V30 639 C 62.8993 4.20969 0.51442 0
M  V30 640 N 63.2903 5.03999 -0.426407 0
M  V30 641 C 61.5883 4.39373 0.765963 0
M  V30 642 C 62.2893 5.75812 -0.825565 0
M  V30 643 N 61.2653 5.43315 -0.176116 0
M  V30 644 H 65.0673 2.88863 -0.541785 0
M  V30 645 H 62.5813 1.57455 -0.397697 0
M  V30 646 H 64.5783 3.78145 1.75533 0
M  V30 647 H 63.2383 2.61677 1.92238 0
M  V30 648 H 64.2493 5.11659 -0.8016 0
M  V30 649 H 60.9263 3.90502 1.47698 0
M  V30 650 H 62.3163 6.52577 -1.59976 0
M  V30 651 N 65.0364 0.313813 1.54444 0
M  V30 652 C 66.2824 -0.292108 2.00685 0
M  V30 653 C 66.6154 -1.52548 1.20177 0
M  V30 654 O 65.8904 -1.92452 0.281531 0
M  V30 655 C 66.1734 -0.635968 3.5444 0
M  V30 656 C 66.0264 0.607437 4.4568 0
M  V30 657 C 67.3454 -1.45747 4.15266 0
M  V30 658 H 64.4644 -0.104697 0.729526 0
M  V30 659 H 67.1064 0.428457 1.85106 0
M  V30 660 H 65.2564 -1.24986 3.67846 0
M  V30 661 H 66.9284 1.24581 4.44159 0
M  V30 662 H 65.1714 1.23822 4.15753 0
M  V30 663 H 65.8424 0.322515 5.51057 0
M  V30 664 H 68.3184 -0.938645 4.05375 0
M  V30 665 H 67.1944 -1.66683 5.2298 0
M  V30 666 H 67.4554 -2.45063 3.67963 0
M  V30 667 N 66.5145 -1.57545 0.0417849 0
M  V30 668 C 67.4615 -2.10977 -0.935805 0
M  V30 669 C 68.4315 -1.01486 -1.31491 0
M  V30 670 O 69.6165 -1.2898 -1.40602 0
M  V30 671 C 66.7565 -2.65169 -2.2086 0
M  V30 672 C 65.8695 -3.88714 -1.88482 0
M  V30 673 C 65.0045 -4.31254 -3.1015 0
M  V30 674 C 64.0435 -5.47524 -2.7365 0
M  V30 675 N 63.1805 -5.85162 -3.87982 0
M  V30 676 H 68.0205 -2.94218 -0.473249 0
M  V30 677 H 65.5575 -1.45415 -0.221981 0
M  V30 678 H 67.5155 -2.94685 -2.95325 0
M  V30 679 H 66.1455 -1.8474 -2.64709 0
M  V30 680 H 65.1975 -3.65849 -1.04205 0
M  V30 681 H 66.5095 -4.73245 -1.57608 0
M  V30 682 H 65.6635 -4.62273 -3.92923 0
M  V30 683 H 64.4025 -3.45516 -3.44195 0
M  V30 684 H 63.4075 -5.16187 -1.89291 0
M  V30 685 H 64.6325 -6.34971 -2.40807 0
M  V30 686 H 62.5785 -5.02377 -4.21846 0
M  V30 687 H 62.4955 -6.64362 -3.60775 0
M  V30 688 H 63.7635 -6.20791 -4.71422 0
M  V30 689 N 67.9926 0.231505 -1.5589 0
M  V30 690 C 69.2206 0.974505 -1.82513 0
M  V30 691 C 69.6356 1.78344 -0.619591 0
M  V30 692 O 68.9926 1.77792 0.411848 0
M  V30 693 C 69.0436 1.90007 -3.07538 0
M  V30 694 O 68.7646 1.12385 -4.2344 0
M  V30 695 C 70.2656 2.75779 -3.47075 0
M  V30 696 H 67.4856 0.286065 -0.606966 0
M  V30 697 H 70.0296 0.249739 -2.02969 0
M  V30 698 H 68.1846 2.57891 -2.89086 0
M  V30 699 H 68.5986 1.75125 -4.944 0
M  V30 700 H 70.0726 3.36443 -4.37619 0
M  V30 701 H 70.5496 3.47672 -2.68367 0
M  V30 702 H 71.1556 2.13323 -3.67931 0
M  V30 703 N 69.4707 1.49531 0.497807 0
M  V30 704 C 70.7187 1.58865 1.24926 0
M  V30 705 C 71.0397 0.278721 1.92998 0
M  V30 706 O 70.3097 -0.702144 1.82885 0
M  V30 707 H 68.8897 0.585343 0.464094 0
M  V30 708 H 71.5517 1.86174 0.57666 0
M  V30 709 H 70.6477 2.38633 2.01149 0
M  V30 710 N 70.9488 -0.749086 1.3866 0
M  V30 711 C 71.8808 -1.87273 1.32142 0
M  V30 712 C 72.8938 -1.61127 0.232787 0
M  V30 713 O 74.0828 -1.71623 0.49069 0
M  V30 714 C 71.1828 -3.23005 1.02571 0
M  V30 715 C 70.3558 -3.7662 2.22433 0
M  V30 716 C 69.4148 -4.90879 1.89537 0
M  V30 717 O 68.4408 -5.05276 2.62078 0
M  V30 718 N 69.6428 -5.74198 0.853031 0
M  V30 719 H 72.4078 -1.93373 2.28969 0
M  V30 720 H 69.9688 -0.929216 1.32579 0
M  V30 721 H 71.9608 -3.96992 0.786085 0
M  V30 722 H 70.5308 -3.12262 0.145249 0
M  V30 723 H 69.7508 -2.94147 2.62434 0
M  V30 724 H 71.0388 -4.09173 3.02415 0
M  V30 725 H 70.4368 -5.6514 0.25155 0
M  V30 726 H 68.9938 -6.48313 0.67329 0
M  V30 727 N 72.4269 -1.23603 -0.977757 0
M  V30 728 C 73.3569 -1.04401 -2.0886 0
M  V30 729 C 74.3379 0.0399052 -1.70053 0
M  V30 730 O 75.5229 -0.125246 -1.93796 0
M  V30 731 C 72.6529 -0.637269 -3.41403 0
M  V30 732 C 71.6069 -1.66883 -3.94124 0
M  V30 733 C 70.9329 -1.11745 -5.22893 0
M  V30 734 C 72.2329 -3.06247 -4.23096 0
M  V30 735 H 73.9269 -1.97316 -2.25182 0
M  V30 736 H 71.4729 -0.950096 -1.08209 0
M  V30 737 H 73.4259 -0.48998 -4.18542 0
M  V30 738 H 72.1499 0.327557 -3.24953 0
M  V30 739 H 70.8089 -1.80416 -3.19133 0
M  V30 740 H 70.4569 -0.143527 -5.02795 0
M  V30 741 H 70.1569 -1.80672 -5.59134 0
M  V30 742 H 71.6809 -0.982067 -6.02651 0
M  V30 743 H 73.0949 -2.96001 -4.90975 0
M  V30 744 H 71.4919 -3.72436 -4.70544 0
M  V30 745 H 72.5619 -3.55041 -3.30263 0
M  V30 746 N 73.905 1.17692 -1.04816 0
M  V30 747 C 74.868 2.19787 -0.650117 0
M  V30 748 C 75.868 1.58044 0.296427 0
M  V30 749 O 77.058 1.74012 0.0808097 0
M  V30 750 C 74.19 3.40869 0.0456987 0
M  V30 751 H 75.383 2.56516 -1.5537 0
M  V30 752 H 72.936 1.31708 -0.841594 0
M  V30 753 H 73.671 3.09681 0.962726 0
M  V30 754 H 73.456 3.86928 -0.634727 0
M  V30 755 H 74.946 4.16445 0.310432 0
M  V30 756 N 75.3831 0.828654 1.34056 0
M  V30 757 C 76.3461 0.259927 2.27721 0
M  V30 758 C 77.3461 -0.565478 1.50529 0
M  V30 759 O 78.5361 -0.38075 1.69988 0
M  V30 760 C 75.6681 -0.634944 3.34935 0
M  V30 761 H 76.8611 1.0863 2.79534 0
M  V30 762 H 74.4141 0.600951 1.44285 0
M  V30 763 H 75.1491 -1.48416 2.88346 0
M  V30 764 H 74.9341 -0.0444999 3.92075 0
M  V30 765 H 76.4241 -1.02648 4.04788 0
M  V30 766 N 76.8612 -1.46375 0.584142 0
M  V30 767 C 78.1102 -2.01585 0.0679741 0
M  V30 768 C 78.4232 -1.46109 -1.30045 0
M  V30 769 O 79.6292 -1.93148 -1.90804 0
M  V30 770 C 78.0852 -3.5983 0.0709207 0
M  V30 771 C 77.6932 -4.24303 1.43775 0
M  V30 772 C 79.4372 -4.22693 -0.391228 0
M  V30 773 C 77.3442 -5.74631 1.39834 0
M  V30 774 H 76.2742 -0.753689 0.0216421 0
M  V30 775 H 78.9252 -1.68093 0.736001 0
M  V30 776 H 77.3072 -3.90405 -0.663299 0
M  V30 777 H 78.4812 -4.05335 2.19181 0
M  V30 778 H 76.7962 -3.73539 1.84004 0
M  V30 779 H 79.3932 -5.3289 -0.439524 0
M  V30 780 H 79.7362 -3.91728 -1.40906 0
M  V30 781 H 80.2692 -3.96749 0.288974 0
M  V30 782 H 77.0082 -6.10258 2.39303 0
M  V30 783 H 76.5282 -5.95858 0.686505 0
M  V30 784 H 78.2072 -6.37375 1.11187 0
M  V30 785 N 78.3393 -0.321999 -1.54275 0
M  V30 786 C 79.2863 0.544664 -2.24281 0
M  V30 787 C 80.2563 1.1129 -1.23303 0
M  V30 788 O 81.4413 1.15354 -1.51981 0
M  V30 789 C 78.5813 1.70045 -3.00298 0
M  V30 790 C 77.6943 1.16159 -4.1609 0
M  V30 791 C 76.8293 2.28293 -4.79641 0
M  V30 792 C 75.8683 1.71648 -5.8754 0
M  V30 793 N 75.0053 2.77438 -6.44959 0
M  V30 794 H 79.8453 -0.0588907 -2.97942 0
M  V30 795 H 77.3823 -0.0408345 -1.47043 0
M  V30 796 H 79.3403 2.38054 -3.42616 0
M  V30 797 H 77.9703 2.27531 -2.28975 0
M  V30 798 H 77.0223 0.373092 -3.78566 0
M  V30 799 H 78.3343 0.707087 -4.93763 0
M  V30 800 H 77.4883 3.0421 -5.2492 0
M  V30 801 H 76.2273 2.77079 -4.01346 0
M  V30 802 H 75.2323 0.942282 -5.41665 0
M  V30 803 H 76.4573 1.23741 -6.67731 0
M  V30 804 H 74.4033 3.25519 -5.69538 0
M  V30 805 H 74.3203 2.36547 -7.1804 0
M  V30 806 H 75.5883 3.53189 -6.94894 0
M  V30 807 N 79.8174 1.5752 -0.0501392 0
M  V30 808 C 81.0634 1.92936 0.624798 0
M  V30 809 C 81.3964 0.928685 1.70555 0
M  V30 810 O 80.6714 -0.0454779 1.94447 0
M  V30 811 C 80.9544 3.38737 1.22185 0
M  V30 812 C 80.8074 4.49552 0.149218 0
M  V30 813 C 82.1264 3.84913 2.13378 0
M  V30 814 H 79.2454 0.701604 0.225657 0
M  V30 815 H 81.8874 1.89671 -0.111693 0
M  V30 816 H 80.0374 3.4165 1.84953 0
M  V30 817 H 81.7094 4.58768 -0.482648 0
M  V30 818 H 79.9524 4.30638 -0.522841 0
M  V30 819 H 80.6234 5.48653 0.606966 0
M  V30 820 H 83.0994 3.8387 1.60572 0
M  V30 821 H 81.9754 4.87584 2.52097 0
M  V30 822 H 82.2364 3.21611 3.03346 0
M  V30 823 N 81.2955 -0.223234 1.56011 0
M  V30 824 C 82.2285 -1.30377 1.87289 0
M  V30 825 C 83.2065 -1.45286 0.730112 0
M  V30 826 O 84.3905 -1.61126 0.978302 0
M  V30 827 C 81.5175 -2.67431 2.07843 0
M  V30 828 C 80.5635 -2.69546 3.30526 0
M  V30 829 S 81.3965 -2.23781 4.865 0
M  V30 830 C 82.5525 -3.62714 5.10088 0
M  V30 831 H 82.7855 -1.03652 2.78646 0
M  V30 832 H 80.3185 -0.425393 1.48424 0
M  V30 833 H 82.2765 -3.46336 2.20368 0
M  V30 834 H 80.9375 -2.91381 1.17285 0
M  V30 835 H 80.1305 -3.70255 3.41947 0
M  V30 836 H 79.7325 -1.98703 3.16849 0
M  V30 837 H 82.0245 -4.58391 4.98883 0
M  V30 838 H 82.9675 -3.5621 6.11981 0
M  V30 839 H 83.3755 -3.56323 4.37829 0
M  V30 840 N 82.7736 -1.49793 -0.48987 0
M  V30 841 C 84.0506 -1.50348 -1.25119 0
M  V30 842 C 84.4306 -0.237466 -2.0976 0
M  V30 843 O 83.7786 0.77981 -2.14782 0
M  V30 844 C 83.9886 -2.78872 -2.09837 0
M  V30 845 C 85.3366 -3.288 -2.68655 0
M  V30 846 O 86.3606 -2.80065 -2.20096 0
M  V30 847 O 85.2196 -4.13707 -3.57083 0
M  V30 848 H 82.3136 -0.602242 -0.566775 0
M  V30 849 H 84.8596 -1.62067 -0.503229 0
M  V30 850 H 83.6316 -3.62499 -1.47343 0
M  V30 851 H 83.2546 -2.70066 -2.91805 0
M  V30 852 N 84.2517 0.741722 -1.39055 0
M  V30 853 C 85.4977 1.50336 -1.36113 0
M  V30 854 C 85.8307 1.94148 0.0450796 0
M  V30 855 O 85.1057 1.66301 1.00868 0
M  V30 856 C 85.3887 2.74773 -2.32749 0
M  V30 857 C 85.2417 2.37023 -3.82283 0
M  V30 858 C 86.5607 3.76846 -2.27322 0
M  V30 859 H 83.6797 0.545351 -0.495743 0
M  V30 860 H 86.3217 0.848624 -1.69995 0
M  V30 861 H 84.4717 3.30639 -2.03986 0
M  V30 862 H 86.1437 1.8684 -4.21768 0
M  V30 863 H 84.3867 1.69334 -3.99385 0
M  V30 864 H 85.0577 3.26104 -4.45376 0
M  V30 865 H 87.5337 3.30548 -2.5274 0
M  V30 866 H 86.4097 4.6159 -2.97028 0
M  V30 867 H 86.6707 4.23286 -1.27599 0
M  V30 868 N 85.7298 1.2412 0.971189 0
M  V30 869 C 86.9578 1.10575 1.74874 0
M  V30 870 C 87.3728 -0.342017 1.85676 0
M  V30 871 O 86.7298 -1.23617 1.34258 0
M  V30 872 C 86.7808 1.73579 3.171 0
M  V30 873 O 86.5018 3.12695 3.06844 0
M  V30 874 C 88.0028 1.65598 4.11208 0
M  V30 875 H 85.2228 0.386504 0.548503 0
M  V30 876 H 87.7668 1.64156 1.21955 0
M  V30 877 H 85.9218 1.24009 3.67016 0
M  V30 878 H 86.3358 3.43412 3.96445 0
M  V30 879 H 87.8098 2.1437 5.08674 0
M  V30 880 H 88.2868 0.616532 4.34851 0
M  V30 881 H 88.8928 2.14578 3.67201 0
M  V30 882 N 87.2079 -1.17134 1.05439 0
M  V30 883 C 88.1179 -2.24878 0.668365 0
M  V30 884 C 89.1339 -1.71186 -0.311687 0
M  V30 885 O 90.3099 -2.00738 -0.163161 0
M  V30 886 C 87.3749 -3.46662 0.051648 0
M  V30 887 C 86.4359 -4.15429 1.08246 0
M  V30 888 C 85.6689 -5.31399 0.495082 0
M  V30 889 O 85.8919 -5.66153 -0.694743 0
M  V30 890 O 84.8259 -5.89187 1.23056 0
M  V30 891 H 88.6519 -2.60189 1.56637 0
M  V30 892 H 86.2369 -1.24482 0.826104 0
M  V30 893 H 88.1189 -4.20394 -0.290966 0
M  V30 894 H 86.7939 -3.13142 -0.819971 0
M  V30 895 H 85.7009 -3.43704 1.47711 0
M  V30 896 H 87.0339 -4.52982 1.92532 0
M  V30 897 N 88.686 -0.835752 -1.33615 0
M  V30 898 C 89.963 -0.352017 -1.92406 0
M  V30 899 C 90.343 1.16225 -1.76224 0
M  V30 900 O 89.691 1.97526 -1.14873 0
M  V30 901 C 89.901 -0.795485 -3.39813 0
M  V30 902 C 91.249 -0.801703 -4.16963 0
M  V30 903 O 92.273 -0.738889 -3.48452 0
M  V30 904 O 91.132 -0.886607 -5.3926 0
M  V30 905 H 88.226 -0.0989641 -0.821057 0
M  V30 906 H 90.772 -0.921397 -1.42507 0
M  V30 907 H 89.544 -1.83795 -3.45449 0
M  V30 908 H 89.167 -0.202505 -3.97084 0
M  V30 909 N 90.1641 1.46063 -0.591896 0
M  V30 910 C 91.0741 2.34192 0.13831 0
M  V30 911 C 92.0901 1.50305 0.876608 0
M  V30 912 O 93.2661 1.8315 0.837728 0
M  V30 913 C 90.3311 3.27656 1.13326 0
M  V30 914 C 89.3921 4.27445 0.39863 0
M  V30 915 C 88.6251 5.16443 1.34618 0
M  V30 916 O 88.8481 5.08553 2.58321 0
M  V30 917 O 87.7821 5.95843 0.851768 0
M  V30 918 H 91.6081 2.98002 -0.58552 0
M  V30 919 H 89.1931 1.45188 -0.352239 0
M  V30 920 H 91.0751 3.85291 1.70671 0
M  V30 921 H 89.7501 2.6643 1.83839 0
M  V30 922 H 88.6571 3.73471 -0.216895 0
M  V30 923 H 89.9901 4.91482 -0.265709 0
M  V30 924 N 91.6422 0.330177 1.54103 0
M  V30 925 C 92.5522 -0.541534 2.28264 0
M  V30 926 C 93.5682 -1.12351 1.32866 0
M  V30 927 O 94.7442 -1.14206 1.65888 0
M  V30 928 C 91.8092 -1.68322 3.03098 0
M  V30 929 C 90.8702 -1.13238 4.14096 0
M  V30 930 C 90.1032 -2.21966 4.85352 0
M  V30 931 O 90.3262 -3.42437 4.56172 0
M  V30 932 O 89.2602 -1.87013 5.7211 0
M  V30 933 H 93.0862 0.060938 3.03639 0
M  V30 934 H 90.6712 0.09565 1.49093 0
M  V30 935 H 92.5532 -2.34777 3.49939 0
M  V30 936 H 91.2282 -2.27176 2.30593 0
M  V30 937 H 90.1352 -0.432736 3.71589 0
M  V30 938 H 91.4682 -0.588898 4.88664 0
M  V30 939 N 93.1203 -1.57491 0.0584922 0
M  V30 940 C 94.0303 -2.15448 -0.928414 0
M  V30 941 C 95.0463 -1.11416 -1.3365 0
M  V30 942 O 96.2223 -1.4362 -1.41193 0
M  V30 943 C 93.2873 -2.69393 -2.18239 0
M  V30 944 C 92.3483 -3.88249 -1.83196 0
M  V30 945 C 91.5813 -4.39613 -3.02616 0
M  V30 946 O 91.8043 -3.90023 -4.16219 0
M  V30 947 O 90.7383 -5.31111 -2.83204 0
M  V30 948 H 94.5643 -3.00112 -0.465483 0
M  V30 949 H 92.1493 -1.48499 -0.163826 0
M  V30 950 H 94.0313 -3.04026 -2.91798 0
M  V30 951 H 92.7063 -1.87796 -2.63656 0
M  V30 952 H 91.6133 -3.58492 -1.06931 0
M  V30 953 H 92.9463 -4.71098 -1.42573 0
M  V30 954 N 94.5984 0.214957 -1.56127 0
M  V30 955 C 95.5084 1.28727 -1.96129 0
M  V30 956 C 96.5244 1.50916 -0.866044 0
M  V30 957 O 97.7004 1.63918 -1.17016 0
M  V30 958 C 94.7654 2.61569 -2.27558 0
M  V30 959 C 93.8264 2.47625 -3.50685 0
M  V30 960 C 93.0594 3.74132 -3.80606 0
M  V30 961 O 93.2824 4.77438 -3.12104 0
M  V30 962 O 92.2164 3.70849 -4.74083 0
M  V30 963 H 96.0424 0.977855 -2.87527 0
M  V30 964 H 93.6274 0.418358 -1.43423 0
M  V30 965 H 95.5094 3.40012 -2.48938 0
M  V30 966 H 94.1844 2.92178 -1.39332 0
M  V30 967 H 93.0914 1.67361 -3.34576 0
M  V30 968 H 94.4244 2.21954 -4.39315 0
M  V30 969 N 96.0765 1.50051 0.48192 0
M  V30 970 C 97.3255 1.59741 1.23149 0
M  V30 971 C 97.6385 0.298163 1.93314 0
M  V30 972 O 98.8445 0.273835 2.70116 0
M  V30 973 C 97.3005 2.81926 2.23708 0
M  V30 974 C 96.9085 4.18685 1.59396 0
M  V30 975 C 98.6525 3.00956 2.99375 0
M  V30 976 C 96.5595 5.3207 2.58178 0
M  V30 977 H 95.4895 0.594838 0.46334 0
M  V30 978 H 98.1405 1.76467 0.503169 0
M  V30 979 H 96.5225 2.58736 2.99786 0
M  V30 980 H 97.6965 4.52088 0.891811 0
M  V30 981 H 96.0115 4.05171 0.960503 0
M  V30 982 H 98.6085 3.82836 3.73283 0
M  V30 983 H 98.9515 2.12258 3.58123 0
M  V30 984 H 99.4845 3.24277 2.30411 0
M  V30 985 H 96.2235 6.22888 2.04184 0
M  V30 986 H 95.7435 5.03098 3.26577 0
M  V30 987 H 97.4225 5.62196 3.20225 0
M  V30 988 N 97.5546 -0.734337 1.39446 0
M  V30 989 C 98.5016 -1.84835 1.38219 0
M  V30 990 C 99.4716 -1.64331 0.24179 0
M  V30 991 O 100.657 -1.85728 0.437002 0
M  V30 992 C 97.7966 -3.22355 1.23212 0
M  V30 993 C 96.9096 -3.5456 2.46801 0
M  V30 994 C 96.0446 -4.81485 2.24377 0
M  V30 995 C 95.0836 -5.06536 3.43639 0
M  V30 996 N 94.2206 -6.24665 3.20528 0
M  V30 997 H 99.0606 -1.85219 2.33448 0
M  V30 998 H 96.5976 -0.905039 1.15963 0
M  V30 999 H 98.5556 -4.0174 1.12522 0
M  V30 1000 H 97.1856 -3.21248 0.316121 0
M  V30 1001 H 96.2376 -2.69872 2.68092 0
M  V30 1002 H 97.5496 -3.6899 3.3563 0
M  V30 1003 H 96.7036 -5.68852 2.10933 0
M  V30 1004 H 95.4426 -4.6923 1.32944 0
M  V30 1005 H 94.4476 -4.17632 3.5758 0
M  V30 1006 H 95.6726 -5.20676 4.35974 0
M  V30 1007 H 93.6186 -6.13696 2.3176 0
M  V30 1008 H 93.5356 -6.39685 4.02913 0
M  V30 1009 H 94.8036 -7.14868 3.10779 0
M  V30 1010 N 99.0327 -1.24633 -0.964593 0
M  V30 1011 C 99.9647 -0.999302 -2.06268 0
M  V30 1012 C 100.978 0.0323226 -1.62768 0
M  V30 1013 O 102.167 -0.205079 -1.77318 0
M  V30 1014 C 99.2667 -0.486816 -3.35385 0
M  V30 1015 C 98.4397 -1.5823 -4.07777 0
M  V30 1016 C 97.4987 -1.07191 -5.15166 0
M  V30 1017 O 96.5247 -1.76426 -5.41168 0
M  V30 1018 N 97.7267 0.0920373 -5.80427 0
M  V30 1019 H 100.492 -1.94477 -2.28033 0
M  V30 1020 H 98.0527 -1.15704 -1.13244 0
M  V30 1021 H 100.045 -0.130066 -4.04491 0
M  V30 1022 H 98.6147 0.364459 -3.10468 0
M  V30 1023 H 97.8347 -2.11109 -3.32906 0
M  V30 1024 H 99.1227 -2.31854 -4.52903 0
M  V30 1025 H 98.5207 0.670784 -5.61709 0
M  V30 1026 H 97.0777 0.389905 -6.50633 0
M  V30 1027 N 100.511 1.16574 -1.06058 0
M  V30 1028 C 101.421 2.2452 -0.680282 0
M  V30 1029 C 102.437 1.71348 0.302604 0
M  V30 1030 O 103.613 2.00822 0.152513 0
M  V30 1031 C 100.678 3.46629 -0.0700315 0
M  V30 1032 C 99.7388 4.14849 -1.10448 0
M  V30 1033 C 98.9718 5.31129 -0.523256 0
M  V30 1034 O 99.1948 5.66514 0.664709 0
M  V30 1035 O 98.1288 5.88526 -1.26179 0
M  V30 1036 H 101.955 2.59355 -1.58015 0
M  V30 1037 H 99.5398 1.24043 -0.832694 0
M  V30 1038 H 101.422 4.20543 0.268667 0
M  V30 1039 H 100.097 3.13573 0.803353 0
M  V30 1040 H 99.0038 3.42916 -1.49532 0
M  V30 1041 H 100.337 4.51954 -1.94931 0
M  V30 1042 N 101.989 0.842826 1.3317 0
M  V30 1043 C 103.238 0.436738 1.96915 0
M  V30 1044 C 103.551 -1.01025 1.67491 0
M  V30 1045 O 104.757 -1.5212 2.24881 0
M  V30 1046 C 103.213 0.730021 3.52418 0
M  V30 1047 C 102.821 2.19195 3.90714 0
M  V30 1048 C 104.565 0.391076 4.22695 0
M  V30 1049 C 102.472 2.42907 5.39212 0
M  V30 1050 H 101.402 0.15958 0.736919 0
M  V30 1051 H 104.053 1.03196 1.51733 0
M  V30 1052 H 102.435 0.0643755 3.95948 0
M  V30 1053 H 103.609 2.8984 3.58231 0
M  V30 1054 H 101.924 2.49425 3.33431 0
M  V30 1055 H 104.521 0.545817 5.31907 0
M  V30 1056 H 104.864 -0.666294 4.10933 0
M  V30 1057 H 105.397 1.01212 3.84709 0
M  V30 1058 H 102.136 3.47224 5.55982 0
M  V30 1059 H 101.656 1.76827 5.73142 0
M  V30 1060 H 103.335 2.2626 6.06148 0
M  V30 1061 N 103.467 -1.45747 0.599634 0
M  V30 1062 C 104.415 -2.322 -0.136426 0
M  V30 1063 C 105.409 -1.45497 -0.867583 0
M  V30 1064 O 106.615 -1.62027 -0.78405 0
M  V30 1065 H 102.99 -0.749368 -0.0628588 0
M  V30 1066 H 104.961 -2.92072 0.611281 0
M  V30 1067 C 103.71 -3.28974 -1.12567 0
M  V30 1068 H 103.033 -3.9568 -0.572484 0
M  V30 1069 H 104.473 -3.92212 -1.61077 0
M  V30 1070 C 102.932 -2.55561 -2.19523 0
M  V30 1071 O 103.462 -2.33111 -3.27143 0
M  V30 1072 N 101.668 -2.15832 -1.94589 0
M  V30 1073 H 101.215 -2.3429 -1.07078 0
M  V30 1074 H 101.173 -1.67034 -2.66359 0
M  V30 1075 N 104.945 -0.338344 -1.53925 0
M  V30 1076 C 105.878 0.563758 -2.21127 0
M  V30 1077 C 106.856 1.10433 -1.19345 0
M  V30 1078 O 108.04 1.16557 -1.48144 0
M  V30 1079 C 105.167 1.77505 -2.88461 0
M  V30 1080 C 104.213 1.3644 -4.04087 0
M  V30 1081 S 105.046 0.388593 -5.34088 0
M  V30 1082 C 106.202 1.60683 -6.04923 0
M  V30 1083 H 106.435 -0.00704546 -2.97299 0
M  V30 1084 H 103.968 -0.122418 -1.53914 0
M  V30 1085 H 105.926 2.46999 -3.27875 0
M  V30 1086 H 104.587 2.31706 -2.12064 0
M  V30 1087 H 103.78 2.26739 -4.50117 0
M  V30 1088 H 103.382 0.748998 -3.66423 0
M  V30 1089 H 105.674 2.54209 -6.28 0
M  V30 1090 H 106.617 1.18842 -6.98056 0
M  V30 1091 H 107.025 1.80052 -5.35015 0
M  V30 1092 N 106.423 1.57458 -0.0668435 0
M  V30 1093 C 107.353 2.15468 0.899764 0
M  V30 1094 C 108.334 1.08042 1.31381 0
M  V30 1095 O 109.519 1.36054 1.38574 0
M  V30 1096 C 106.649 2.71232 2.16911 0
M  V30 1097 C 105.603 3.83781 1.89463 0
M  V30 1098 C 104.929 4.26127 3.22986 0
M  V30 1099 C 106.229 5.08238 1.20381 0
M  V30 1100 H 107.923 2.96488 0.416529 0
M  V30 1101 H 105.469 1.4262 0.198908 0
M  V30 1102 H 107.422 3.10458 2.84945 0
M  V30 1103 H 106.146 1.87426 2.67468 0
M  V30 1104 H 104.805 3.45051 1.23836 0
M  V30 1105 H 104.453 3.39249 3.71374 0
M  V30 1106 H 104.153 5.01993 3.05413 0
M  V30 1107 H 105.677 4.67966 3.92225 0
M  V30 1108 H 107.091 5.44811 1.78475 0
M  V30 1109 H 105.488 5.89349 1.13083 0
M  V30 1110 H 106.558 4.84558 0.182153 0
M  V30 1111 N 107.901 -0.206675 1.56239 0
M  V30 1112 C 108.848 -1.25617 1.93621 0
M  V30 1113 C 109.818 -1.45824 0.795274 0
M  V30 1114 O 111.003 -1.59148 1.05245 0
M  V30 1115 C 108.143 -2.59839 2.27107 0
M  V30 1116 C 107.256 -2.47308 3.54207 0
M  V30 1117 C 106.391 -3.74155 3.7707 0
M  V30 1118 C 105.43 -3.56407 4.97635 0
M  V30 1119 N 104.567 -4.75238 5.1681 0
M  V30 1120 H 109.407 -0.930383 2.83104 0
M  V30 1121 H 106.944 -0.448065 1.4011 0
M  V30 1122 H 108.902 -3.38021 2.44535 0
M  V30 1123 H 107.532 -2.90485 1.40778 0
M  V30 1124 H 106.584 -1.60483 3.4489 0
M  V30 1125 H 107.896 -2.30122 4.42544 0
M  V30 1126 H 107.05 -4.60778 3.94675 0
M  V30 1127 H 105.789 -3.94282 2.87042 0
M  V30 1128 H 104.794 -2.68168 4.79964 0
M  V30 1129 H 106.019 -3.37736 5.89161 0
M  V30 1130 H 103.965 -4.95651 4.29728 0
M  V30 1131 H 103.882 -4.60835 5.99306 0
M  V30 1132 H 105.15 -5.63246 5.38864 0
M  V30 1133 N 109.379 -1.50304 -0.473955 0
M  V30 1134 C 110.326 -1.68959 -1.57231 0
M  V30 1135 C 111.296 -0.530899 -1.57387 0
M  V30 1136 O 112.481 -0.761133 -1.74961 0
M  V30 1137 C 109.621 -1.7871 -2.95223 0
M  V30 1138 C 108.734 -3.06061 -3.04878 0
M  V30 1139 C 107.869 -3.06626 -4.33767 0
M  V30 1140 C 106.908 -4.28443 -4.37154 0
M  V30 1141 N 106.045 -4.26763 -5.5751 0
M  V30 1142 H 110.885 -2.6273 -1.40631 0
M  V30 1143 H 108.422 -1.30241 -0.683789 0
M  V30 1144 H 110.38 -1.82344 -3.75242 0
M  V30 1145 H 109.01 -0.883806 -3.10465 0
M  V30 1146 H 108.062 -3.11911 -2.17751 0
M  V30 1147 H 109.374 -3.96039 -3.0324 0
M  V30 1148 H 108.528 -3.08973 -5.22131 0
M  V30 1149 H 107.267 -2.14473 -4.3801 0
M  V30 1150 H 106.272 -4.2631 -3.47188 0
M  V30 1151 H 107.497 -5.2182 -4.34605 0
M  V30 1152 H 105.443 -3.37462 -5.62544 0
M  V30 1153 H 105.36 -5.10507 -5.57601 0
M  V30 1154 H 106.628 -4.33253 -6.48006 0
M  V30 1155 N 110.857 0.726932 -1.39834 0
M  V30 1156 C 112.087 1.51393 -1.40583 0
M  V30 1157 C 112.495 1.892 -0.000740625 0
M  V30 1158 O 111.838 1.55189 0.982951 0
M  V30 1159 C 111.9 2.82588 -2.22226 0
M  V30 1160 C 111.564 2.67169 -3.70769 0
M  V30 1161 C 112.561 2.3518 -4.63666 0
M  V30 1162 C 110.246 2.83788 -4.14451 0
M  V30 1163 C 112.24 2.20002 -5.98229 0
M  V30 1164 C 109.927 2.68229 -5.49087 0
M  V30 1165 C 110.925 2.36382 -6.4079 0
M  V30 1166 O 110.613 2.2093 -7.72946 0
M  V30 1167 H 110.345 0.474168 -0.48181 0
M  V30 1168 H 112.899 0.905247 -1.84376 0
M  V30 1169 H 111.129 3.45746 -1.73195 0
M  V30 1170 H 112.818 3.44247 -2.15055 0
M  V30 1171 H 113.584 2.21984 -4.31217 0
M  V30 1172 H 109.463 3.07566 -3.43401 0
M  V30 1173 H 113.007 1.95067 -6.69772 0
M  V30 1174 H 108.904 2.81006 -5.81125 0
M  V30 1175 H 109.672 2.35937 -7.83757 0
M  V30 1176 N 112.336 1.25143 0.95797 0
M  V30 1177 C 113.561 1.12521 1.74223 0
M  V30 1178 C 113.986 -0.317402 1.85403 0
M  V30 1179 O 113.344 -1.2299 1.33204 0
M  V30 1180 C 113.392 1.78062 3.1357 0
M  V30 1181 O 112.496 1.058 3.98598 0
M  V30 1182 H 111.837 0.39304 0.535178 0
M  V30 1183 H 114.367 1.65641 1.201 0
M  V30 1184 H 114.377 1.84213 3.64046 0
M  V30 1185 H 113.052 2.83021 3.04749 0
M  V30 1186 H 111.629 1.07506 3.57067 0
M  V30 1187 N 113.814 -1.1601 1.06675 0
M  V30 1188 C 114.764 -2.18512 0.650888 0
M  V30 1189 C 115.748 -1.57677 -0.320441 0
M  V30 1190 O 116.94 -1.76482 -0.135266 0
M  V30 1191 C 114.069 -3.43273 0.0429255 0
M  V30 1192 C 113.155 -4.11176 1.03898 0
M  V30 1193 N 113.546 -4.54672 2.216 0
M  V30 1194 C 111.844 -4.37417 0.870779 0
M  V30 1195 C 112.545 -5.07248 2.84736 0
M  V30 1196 N 111.521 -5.0037 2.12441 0
M  V30 1197 H 115.323 -2.49863 1.54745 0
M  V30 1198 H 112.837 -1.32503 0.938975 0
M  V30 1199 H 114.834 -4.16006 -0.272857 0
M  V30 1200 H 113.494 -3.13408 -0.84884 0
M  V30 1201 H 114.505 -4.4828 2.59356 0
M  V30 1202 H 111.182 -4.17488 0.0313293 0
M  V30 1203 H 112.572 -5.50912 3.84636 0
M  V30 1204 N 115.292 -0.849877 -1.32721 0
M  V30 1205 C 116.242 -0.262892 -2.26479 0
M  V30 1206 C 117.226 0.588493 -1.49752 0
M  V30 1207 O 118.418 0.438659 -1.71478 0
M  V30 1208 C 115.547 0.551818 -3.38836 0
M  V30 1209 C 114.633 -0.311689 -4.22953 0
M  V30 1210 N 115.024 -1.39567 -4.86163 0
M  V30 1211 C 113.322 -0.100611 -4.45887 0
M  V30 1212 C 114.023 -1.92651 -5.48872 0
M  V30 1213 N 112.999 -1.22637 -5.29586 0
M  V30 1214 H 116.801 -1.09166 -2.72873 0
M  V30 1215 H 114.315 -0.695486 -1.46754 0
M  V30 1216 H 116.312 0.988713 -4.05006 0
M  V30 1217 H 114.972 1.37844 -2.93988 0
M  V30 1218 H 115.983 -1.77859 -4.86402 0
M  V30 1219 H 112.66 0.691681 -4.11731 0
M  V30 1220 H 114.05 -2.83487 -6.09167 0
M  V30 1221 N 116.77 1.45427 -0.607355 0
M  V30 1222 C 118.186 1.57283 -0.270985 0
M  V30 1223 C 118.386 1.59875 1.22647 0
M  V30 1224 O 117.442 1.52893 2.00948 0
M  V30 1225 C 118.755 2.85566 -0.941952 0
M  V30 1226 C 120.303 2.9924 -0.917849 0
M  V30 1227 C 120.778 4.30293 -1.56882 0
M  V30 1228 N 122.269 4.37051 -1.5343 0
M  V30 1229 C 123.004 5.37123 -2.00715 0
M  V30 1230 N 122.5 6.43734 -2.56084 0
M  V30 1231 N 124.293 5.28479 -1.91484 0
M  V30 1232 H 116.444 1.41988 -1.57966 0
M  V30 1233 H 118.707 0.67885 -0.661715 0
M  V30 1234 H 118.413 2.8955 -1.99633 0
M  V30 1235 H 118.287 3.74322 -0.465096 0
M  V30 1236 H 120.674 2.94822 0.127984 0
M  V30 1237 H 120.755 2.11895 -1.43297 0
M  V30 1238 H 120.399 4.35469 -2.61398 0
M  V30 1239 H 120.329 5.16454 -1.02873 0
M  V30 1240 H 122.82 3.60615 -1.12982 0
M  V30 1241 H 123.133 7.16341 -2.89958 0
M  V30 1242 H 121.478 6.44485 -2.60122 0
M  V30 1243 H 124.669 4.44098 -1.47967 0
M  V30 1244 H 124.842 6.0632 -2.28648 0
M  V30 1245 N 118.248 0.346503 1.53744 0
M  V30 1246 C 119.196 -0.52422 2.26616 0
M  V30 1247 C 120.19 -1.09948 1.28871 0
M  V30 1248 O 121.396 -1.04488 1.46568 0
M  V30 1249 H 117.771 -0.187743 0.728187 0
M  V30 1250 H 119.742 0.11239 2.98188 0
M  V30 1251 C 118.491 -1.66186 3.05414 0
M  V30 1252 H 117.814 -1.22848 3.80458 0
M  V30 1253 H 119.254 -2.24622 3.59612 0
M  V30 1254 C 117.713 -2.59302 2.1509 0
M  V30 1255 O 118.243 -3.61628 1.74895 0
M  V30 1256 N 116.449 -2.28055 1.8011 0
M  V30 1257 H 115.996 -1.44883 2.12994 0
M  V30 1258 H 115.954 -2.90615 1.19958 0
M  V30 1259 N 119.726 -1.57421 0.075193 0
M  V30 1260 C 120.975 -1.92794 -0.592731 0
M  V30 1261 C 121.288 -0.957478 -1.70563 0
M  V30 1262 O 122.494 -1.20417 -2.43335 0
M  V30 1263 C 120.95 -3.42495 -1.10569 0
M  V30 1264 C 120.558 -4.47994 -0.0236121 0
M  V30 1265 C 122.302 -3.86864 -1.74748 0
M  V30 1266 C 120.209 -5.88829 -0.550803 0
M  V30 1267 H 119.139 -0.719591 -0.225177 0
M  V30 1268 H 121.79 -1.82902 0.147978 0
M  V30 1269 H 120.172 -3.47471 -1.89947 0
M  V30 1270 H 121.346 -4.54637 0.751099 0
M  V30 1271 H 119.661 -4.13113 0.522159 0
M  V30 1272 H 122.258 -4.8947 -2.15229 0
M  V30 1273 H 122.601 -3.24417 -2.60882 0
M  V30 1274 H 123.134 -3.84504 -1.01986 0
M  V30 1275 H 119.873 -6.54929 0.273457 0
M  V30 1276 H 119.393 -5.85698 -1.29296 0
M  V30 1277 H 121.072 -6.38811 -1.02613 0
M  V30 1278 N 121.204 0.198386 -1.56346 0
M  V30 1279 C 122.167 1.22952 -1.93431 0
M  V30 1280 C 123.167 1.38611 -0.815092 0
M  V30 1281 O 124.357 1.36479 -1.08255 0
M  V30 1282 C 121.489 2.59946 -2.20546 0
M  V30 1283 H 122.682 0.912626 -2.85677 0
M  V30 1284 H 120.235 0.43977 -1.49986 0
M  V30 1285 H 120.97 2.96696 -1.30927 0
M  V30 1286 H 120.755 2.49953 -3.02102 0
M  V30 1287 H 122.245 3.3431 -2.50253 0
M  V30 1288 N 122.682 1.50554 0.465978 0
M  V30 1289 C 123.91 1.65563 1.24083 0
M  V30 1290 C 124.325 0.341051 1.85694 0
M  V30 1291 O 123.682 -0.677543 1.69457 0
M  V30 1292 C 123.733 2.75051 2.34583 0
M  V30 1293 O 123.454 4.01413 1.75497 0
M  V30 1294 C 124.955 3.01078 3.25372 0
M  V30 1295 H 122.175 0.55638 0.375077 0
M  V30 1296 H 124.719 1.96807 0.555624 0
M  V30 1297 H 122.874 2.46486 2.9887 0
M  V30 1298 H 123.288 4.62002 2.48303 0
M  V30 1299 H 124.762 3.81339 3.99105 0
M  V30 1300 H 125.239 2.12349 3.84453 0
M  V30 1301 H 125.845 3.31194 2.66816 0
M  V30 1302 N 124.16 -0.719506 1.40217 0
M  V30 1303 C 125.39 -1.50646 1.41384 0
M  V30 1304 C 125.798 -1.89197 0.0107743 0
M  V30 1305 O 125.141 -1.55709 -0.974708 0
M  V30 1306 C 125.203 -2.81405 2.23722 0
M  V30 1307 C 124.867 -2.65199 3.72181 0
M  V30 1308 C 125.864 -2.32717 4.64907 0
M  V30 1309 C 123.549 -2.81586 4.1595 0
M  V30 1310 C 125.543 -2.16827 5.99387 0
M  V30 1311 C 123.23 -2.65313 5.50502 0
M  V30 1312 C 124.228 -2.32981 6.42035 0
M  V30 1313 O 123.916 -2.16827 7.74107 0
M  V30 1314 H 123.648 -0.471606 0.484318 0
M  V30 1315 H 126.202 -0.895456 1.84853 0
M  V30 1316 H 124.432 -3.44823 1.75026 0
M  V30 1317 H 126.121 -3.43102 2.16878 0
M  V30 1318 H 126.887 -2.19694 4.32388 0
M  V30 1319 H 122.766 -3.0574 3.45027 0
M  V30 1320 H 126.31 -1.91513 6.70797 0
M  V30 1321 H 122.207 -2.7792 5.82607 0
M  V30 1322 H 122.975 -2.31778 7.84998 0
M  V30 1323 N 125.638 -1.25649 -0.95132 0
M  V30 1324 C 126.868 -1.13179 -1.72841 0
M  V30 1325 C 127.276 0.316827 -1.86528 0
M  V30 1326 O 126.619 1.22948 -1.3649 0
M  V30 1327 C 126.681 -1.71644 -3.15878 0
M  V30 1328 C 126.345 -3.20667 -3.25609 0
M  V30 1329 C 127.342 -4.17616 -3.09666 0
M  V30 1330 C 125.027 -3.6094 -3.49324 0
M  V30 1331 C 127.021 -5.52817 -3.17289 0
M  V30 1332 C 124.708 -4.96278 -3.56584 0
M  V30 1333 C 125.706 -5.92025 -3.40581 0
M  V30 1334 O 125.394 -7.24899 -3.47528 0
M  V30 1335 H 125.126 -0.395389 -0.54831 0
M  V30 1336 H 127.68 -1.66566 -1.20187 0
M  V30 1337 H 125.91 -1.12707 -3.69911 0
M  V30 1338 H 127.599 -1.54225 -3.75459 0
M  V30 1339 H 128.365 -3.87842 -2.91211 0
M  V30 1340 H 124.244 -2.86907 -3.6084 0
M  V30 1341 H 127.788 -6.2753 -3.04716 0
M  V30 1342 H 123.685 -5.25716 -3.74556 0
M  V30 1343 H 124.453 -7.33039 -3.64138 0
M  V30 1344 N 127.117 1.15442 -1.07289 0
M  V30 1345 C 128.365 1.85845 -0.794096 0
M  V30 1346 C 128.686 1.82692 0.681809 0
M  V30 1347 O 127.956 1.26741 1.49377 0
M  V30 1348 H 126.536 0.688089 -0.290763 0
M  V30 1349 H 129.198 1.39947 -1.3565 0
M  V30 1350 H 128.294 2.91001 -1.12804 0
M  V30 1351 N 128.595 0.856903 1.32268 0
M  V30 1352 C 129.558 0.308171 2.27119 0
M  V30 1353 C 130.558 -0.533421 1.51695 0
M  V30 1354 O 131.748 -0.344607 1.70757 0
M  V30 1355 C 128.88 -0.563757 3.36206 0
M  V30 1356 H 130.073 1.14535 2.77167 0
M  V30 1357 H 127.626 0.631421 1.42978 0
M  V30 1358 H 128.361 -1.42266 2.91429 0
M  V30 1359 H 128.146 0.0386749 3.92081 0
M  V30 1360 H 129.636 -0.940386 4.06874 0
M  V30 1361 N 130.073 -1.45103 0.615059 0
M  V30 1362 C 131.32 -2.02183 0.113179 0
M  V30 1363 C 131.648 -1.48249 -1.25906 0
M  V30 1364 O 130.903 -0.650265 -1.84581 0
M  V30 1365 C 131.202 -3.57386 0.0318797 0
M  V30 1366 C 130.868 -4.30505 1.34077 0
M  V30 1367 C 129.53 -4.50197 1.69929 0
M  V30 1368 C 131.882 -4.72238 2.20546 0
M  V30 1369 C 129.21 -5.08881 2.91988 0
M  V30 1370 C 131.562 -5.32272 3.41861 0
M  V30 1371 C 130.226 -5.50187 3.77956 0
M  V30 1372 H 129.496 -0.739842 0.0414151 0
M  V30 1373 H 132.143 -1.74073 0.798168 0
M  V30 1374 H 130.448 -3.84817 -0.736409 0
M  V30 1375 H 132.145 -3.99264 -0.372712 0
M  V30 1376 H 128.735 -4.15496 1.05173 0
M  V30 1377 H 132.919 -4.56751 1.94146 0
M  V30 1378 H 128.175 -5.20939 3.2005 0
M  V30 1379 H 132.349 -5.63563 4.09109 0
M  V30 1380 H 129.976 -5.95427 4.72622 0
M  V30 1381 N 131.551 -0.354651 -1.53558 0
M  V30 1382 C 132.8 0.239504 -2.00273 0
M  V30 1383 C 133.113 1.50759 -1.24623 0
M  V30 1384 O 134.319 2.17968 -1.61871 0
M  V30 1385 C 132.775 0.477341 -3.5672 0
M  V30 1386 C 132.383 -0.775488 -4.41237 0
M  V30 1387 C 134.127 1.02975 -4.11821 0
M  V30 1388 C 132.034 -0.507838 -5.89216 0
M  V30 1389 H 130.964 0.0932743 -0.748208 0
M  V30 1390 H 133.615 -0.471701 -1.77334 0
M  V30 1391 H 131.997 1.24953 -3.7577 0
M  V30 1392 H 133.171 -1.54963 -4.33962 0
M  V30 1393 H 131.486 -1.25033 -3.97185 0
M  V30 1394 H 134.083 1.24513 -5.2 0
M  V30 1395 H 134.426 1.98862 -3.65731 0
M  V30 1396 H 134.959 0.317994 -3.96527 0
M  V30 1397 H 131.698 -1.43674 -6.39561 0
M  V30 1398 H 131.218 0.228011 -5.99366 0
M  V30 1399 H 132.897 -0.129238 -6.46871 0
M  V30 1400 N 133.029 1.57378 -0.0835403 0
M  V30 1401 C 133.976 2.13384 0.879539 0
M  V30 1402 C 134.946 1.04936 1.28754 0
M  V30 1403 O 136.131 1.32662 1.37133 0
M  V30 1404 C 133.271 2.70932 2.13752 0
M  V30 1405 C 132.384 3.93575 1.7811 0
M  V30 1406 C 131.519 4.39326 2.98607 0
M  V30 1407 C 130.558 5.54587 2.59037 0
M  V30 1408 N 129.695 5.95243 3.72331 0
M  V30 1409 H 134.535 2.9537 0.395076 0
M  V30 1410 H 132.072 1.45953 0.183349 0
M  V30 1411 H 134.03 3.02411 2.87408 0
M  V30 1412 H 132.66 1.91693 2.59718 0
M  V30 1413 H 131.712 3.68483 0.94469 0
M  V30 1414 H 133.024 4.77258 1.45005 0
M  V30 1415 H 132.178 4.72528 3.80529 0
M  V30 1416 H 130.917 3.5452 3.34913 0
M  V30 1417 H 129.922 5.21024 1.75539 0
M  V30 1418 H 131.147 6.41133 2.23887 0
M  V30 1419 H 129.093 5.13385 4.08378 0
M  V30 1420 H 129.01 6.73694 3.43034 0
M  V30 1421 H 130.278 6.33072 4.54797 0
M  V30 1422 N 134.507 -0.190092 1.56449 0
M  V30 1423 C 135.454 -1.23557 1.94942 0
M  V30 1424 C 136.424 -1.44972 0.810696 0
M  V30 1425 O 137.609 -1.58023 1.06927 0
M  V30 1426 C 134.749 -2.57416 2.2985 0
M  V30 1427 C 133.862 -2.43537 3.5681 0
M  V30 1428 C 132.997 -3.70134 3.81017 0
M  V30 1429 C 132.036 -3.51109 5.01387 0
M  V30 1430 N 131.173 -4.6973 5.21822 0
M  V30 1431 H 136.013 -0.900304 2.84075 0
M  V30 1432 H 133.55 -0.43318 1.40577 0
M  V30 1433 H 135.508 -3.35409 2.48106 0
M  V30 1434 H 134.138 -2.88975 1.43852 0
M  V30 1435 H 133.19 -1.56816 3.46573 0
M  V30 1436 H 134.502 -2.25415 4.4496 0
M  V30 1437 H 133.656 -4.56566 3.9954 0
M  V30 1438 H 132.395 -3.91215 2.91207 0
M  V30 1439 H 131.4 -2.63063 4.82782 0
M  V30 1440 H 132.625 -3.31468 5.9271 0
M  V30 1441 H 130.571 -4.91065 4.34961 0
M  V30 1442 H 130.488 -4.54452 6.0416 0
M  V30 1443 H 131.756 -5.57499 5.44808 0
M  V30 1444 N 135.985 -1.50799 -0.457987 0
M  V30 1445 C 137.21 -1.66496 -1.23668 0
M  V30 1446 C 137.635 -0.353288 -1.84752 0
M  V30 1447 O 136.993 0.684346 -1.67888 0
M  V30 1448 C 137.041 -2.76763 -2.3116 0
M  V30 1449 O 136.145 -2.38928 -3.36136 0
M  V30 1450 H 135.486 -0.555828 -0.363252 0
M  V30 1451 H 138.016 -1.9725 -0.543474 0
M  V30 1452 H 138.026 -3.00232 -2.76269 0
M  V30 1453 H 136.701 -3.71954 -1.86073 0
M  V30 1454 H 135.278 -2.25953 -2.96647 0
M  V30 1455 N 137.463 0.71206 -1.40597 0
M  V30 1456 C 138.874 1.29135 -1.34837 0
M  V30 1457 C 139.225 1.96186 -0.0235395 0
M  V30 1458 O 138.35 1.97768 0.878444 0
M  V30 1459 C 138.945 2.34827 -2.44217 0
M  V30 1460 C 137.504 2.88371 -2.41907 0
M  V30 1461 C 136.651 1.62202 -2.24913 0
M  V30 1462 H 139.602 0.507944 -1.50352 0
M  V30 1463 H 139.623 3.15749 -2.12327 0
M  V30 1464 H 139.135 1.85996 -3.40627 0
M  V30 1465 H 137.236 3.41422 -1.49204 0
M  V30 1466 H 137.349 3.39925 -3.37621 0
M  V30 1467 H 135.713 1.874 -1.72492 0
M  V30 1468 H 136.496 1.15391 -3.23326 0
M  V30 1469 N 138.941 1.26152 0.944643 0
M  V30 1470 C 140.352 1.10454 1.50522 0
M  V30 1471 C 140.703 -0.31635 1.93633 0
M  V30 1472 O 139.828 -1.20746 1.79581 0
M  V30 1473 C 140.423 1.99891 2.73549 0
M  V30 1474 C 138.982 1.88348 3.25886 0
M  V30 1475 C 138.129 1.93447 1.9868 0
M  V30 1476 H 141.08 1.39292 0.760489 0
M  V30 1477 H 141.101 1.54477 3.47732 0
M  V30 1478 H 140.613 3.03297 2.42141 0
M  V30 1479 H 138.714 0.878636 3.62092 0
M  V30 1480 H 138.827 2.73696 3.93227 0
M  V30 1481 H 137.191 1.37456 2.14425 0
M  V30 1482 H 137.974 2.98476 1.69607 0
M  V30 1483 N 140.419 -1.14872 1.07899 0
M  V30 1484 C 141.667 -1.85422 0.803941 0
M  V30 1485 C 141.988 -1.83051 -0.67211 0
M  V30 1486 O 141.258 -1.27532 -1.48703 0
M  V30 1487 H 139.838 -0.686537 0.294408 0
M  V30 1488 H 142.5 -1.39226 1.3639 0
M  V30 1489 H 141.596 -2.90399 1.14346 0
M  V30 1490 N 141.898 -0.863906 -1.31812 0
M  V30 1491 C 142.846 -0.30422 -2.30602 0
M  V30 1492 C 143.84 0.577419 -1.59255 0
M  V30 1493 O 145.046 0.464194 -1.73912 0
M  V30 1494 H 141.421 -0.0796877 -0.747766 0
M  V30 1495 H 143.392 -1.15148 -2.75288 0
M  V30 1496 C 142.141 0.484617 -3.44306 0
M  V30 1497 H 141.464 -0.18451 -3.99374 0
M  V30 1498 H 142.904 0.841664 -4.15562 0
M  V30 1499 C 141.363 1.6735 -2.92396 0
M  V30 1500 O 141.893 2.77273 -2.90659 0
M  V30 1501 N 140.099 1.50362 -2.48676 0
M  V30 1502 H 139.646 0.609402 -2.50288 0
M  V30 1503 H 139.604 2.30051 -2.14299 0
M  V30 1504 N 143.376 1.44774 -0.622745 0
M  V30 1505 C 144.653 1.95522 -0.0551974 0
M  V30 1506 C 145.033 1.5649 1.41683 0
M  V30 1507 O 144.381 0.834848 2.12703 0
M  V30 1508 C 144.591 3.4796 -0.269242 0
M  V30 1509 C 145.939 4.24306 -0.158014 0
M  V30 1510 O 146.963 3.55637 -0.200162 0
M  V30 1511 O 145.822 5.46471 -0.0558693 0
M  V30 1512 H 142.916 0.826556 0.0271015 0
M  V30 1513 H 145.462 1.54866 -0.693864 0
M  V30 1514 H 144.234 3.6939 -1.29099 0
M  V30 1515 H 143.857 3.95543 0.403966 0
M  V30 1516 N 144.854 0.36279 1.53368 0
M  V30 1517 C 146.131 -0.284021 1.93527 0
M  V30 1518 C 146.511 -1.66628 1.29608 0
M  V30 1519 O 145.859 -2.23942 0.45413 0
M  V30 1520 C 146.069 -0.337028 3.47369 0
M  V30 1521 C 147.417 -0.578708 4.20638 0
M  V30 1522 O 148.441 -0.418352 3.53735 0
M  V30 1523 O 147.3 -0.89074 5.39192 0
M  V30 1524 H 144.394 -0.169743 0.809393 0
M  V30 1525 H 146.94 0.41537 1.64538 0
M  V30 1526 H 145.712 0.632217 3.86159 0
M  V30 1527 H 145.335 -1.08243 3.82582 0
M  V30 1528 N 146.332 -1.57332 0.0918853 0
M  V30 1529 C 147.264 -2.10869 -0.898168 0
M  V30 1530 C 148.277 -1.04521 -1.24817 0
M  V30 1531 O 149.466 -1.31977 -1.20184 0
M  V30 1532 C 146.566 -2.57083 -2.2082 0
M  V30 1533 C 145.739 -3.87229 -2.03402 0
M  V30 1534 C 144.798 -4.19324 -3.17889 0
M  V30 1535 O 143.824 -4.88598 -2.91994 0
M  V30 1536 N 145.026 -3.74471 -4.43567 0
M  V30 1537 H 147.791 -2.96439 -0.440943 0
M  V30 1538 H 145.352 -1.61631 -0.0933064 0
M  V30 1539 H 147.344 -2.75602 -2.96354 0
M  V30 1540 H 145.914 -1.76541 -2.57977 0
M  V30 1541 H 145.134 -3.7789 -1.12218 0
M  V30 1542 H 146.422 -4.72379 -1.89038 0
M  V30 1543 H 145.82 -3.18546 -4.67488 0
M  V30 1544 H 144.377 -3.98151 -5.16061 0
M  V30 1545 N 147.81 0.181792 -1.56548 0
M  V30 1546 C 148.74 1.22765 -1.98623 0
M  V30 1547 C 149.721 1.46747 -0.860189 0
M  V30 1548 O 150.906 1.58259 -1.12551 0
M  V30 1549 C 148.036 2.56894 -2.33715 0
M  V30 1550 C 146.99 2.475 -3.49182 0
M  V30 1551 C 146.316 3.86023 -3.69986 0
M  V30 1552 C 147.616 1.98866 -4.82959 0
M  V30 1553 H 149.31 0.877942 -2.86239 0
M  V30 1554 H 146.856 0.42088 -1.37712 0
M  V30 1555 H 148.809 3.30253 -2.61746 0
M  V30 1556 H 147.533 2.93632 -1.42997 0
M  V30 1557 H 146.192 1.76596 -3.21262 0
M  V30 1558 H 145.84 4.20136 -2.76576 0
M  V30 1559 H 145.54 3.80609 -4.47672 0
M  V30 1560 H 147.064 4.60984 -4.00407 0
M  V30 1561 H 148.478 2.61992 -5.09934 0
M  V30 1562 H 146.875 2.04424 -5.64208 0
M  V30 1563 H 147.945 0.942465 -4.75653 0
M  V30 1564 N 149.288 1.51039 0.449983 0
M  V30 1565 C 150.534 1.64287 1.19923 0
M  V30 1566 C 150.889 0.348701 1.89214 0
M  V30 1567 O 150.182 -0.654751 1.80065 0
M  V30 1568 C 150.376 2.77556 2.25161 0
M  V30 1569 C 150.205 4.17862 1.66198 0
M  V30 1570 C 148.975 4.83976 1.45243 0
M  V30 1571 C 151.173 5.01388 1.14519 0
M  V30 1572 N 149.155 6.08433 0.817437 0
M  V30 1573 C 150.526 6.16743 0.634705 0
M  V30 1574 C 152.581 4.87008 1.03574 0
M  V30 1575 C 151.284 7.19295 0.0255452 0
M  V30 1576 C 153.31 5.89757 0.440489 0
M  V30 1577 C 152.672 7.04375 -0.0595112 0
M  V30 1578 H 148.771 0.655161 0.426952 0
M  V30 1579 H 151.355 1.88228 0.49781 0
M  V30 1580 H 149.526 2.553 2.92706 0
M  V30 1581 H 151.258 2.80049 2.92155 0
M  V30 1582 H 148.013 4.41627 1.71063 0
M  V30 1583 H 148.437 6.75017 0.517747 0
M  V30 1584 H 153.079 3.9866 1.4082 0
M  V30 1585 H 150.797 8.07302 -0.359071 0
M  V30 1586 H 154.383 5.80698 0.35788 0
M  V30 1587 H 153.263 7.82521 -0.512882 0
M  V30 1588 N 150.766 -0.704594 1.40972 0
M  V30 1589 C 151.696 -1.83124 1.44872 0
M  V30 1590 C 152.677 -1.67281 0.30838 0
M  V30 1591 O 153.862 -1.87149 0.518556 0
M  V30 1592 C 150.992 -3.21181 1.32136 0
M  V30 1593 C 149.946 -3.51714 2.43888 0
M  V30 1594 C 149.272 -4.89032 2.16222 0
M  V30 1595 C 150.572 -3.516 3.86232 0
M  V30 1596 H 152.266 -1.80117 2.39161 0
M  V30 1597 H 149.812 -0.865145 1.15114 0
M  V30 1598 H 151.765 -3.99702 1.33479 0
M  V30 1599 H 150.489 -3.24791 0.343279 0
M  V30 1600 H 149.148 -2.75539 2.41813 0
M  V30 1601 H 148.796 -4.89256 1.16778 0
M  V30 1602 H 148.496 -5.10426 2.911 0
M  V30 1603 H 150.02 -5.69873 2.19265 0
M  V30 1604 H 151.434 -4.2014 3.9007 0
M  V30 1605 H 149.831 -3.84523 4.60719 0
M  V30 1606 H 150.901 -2.50757 4.15029 0
M  V30 1607 N 152.244 -1.26651 -0.937939 0
M  V30 1608 C 153.49 -1.12553 -1.687 0
M  V30 1609 C 153.823 0.329782 -1.91379 0
M  V30 1610 O 153.098 1.24202 -1.4968 0
M  V30 1611 C 153.381 -1.89862 -3.05981 0
M  V30 1612 C 153.234 -3.43318 -2.90607 0
M  V30 1613 C 154.553 -1.69499 -4.0615 0
M  V30 1614 H 151.672 -0.410257 -0.612257 0
M  V30 1615 H 154.314 -1.55685 -1.08913 0
M  V30 1616 H 152.464 -1.53204 -3.57017 0
M  V30 1617 H 154.136 -3.89747 -2.46769 0
M  V30 1618 H 152.379 -3.70179 -2.26164 0
M  V30 1619 H 153.05 -3.92642 -3.8799 0
M  V30 1620 H 155.526 -2.01442 -3.64088 0
M  V30 1621 H 154.402 -2.26002 -5.00214 0
M  V30 1622 H 154.663 -0.640365 -4.37438 0
M  V30 1623 N 153.722 1.14298 -1.08507 0
M  V30 1624 C 154.655 2.18447 -0.660004 0
M  V30 1625 C 155.633 1.59242 0.328749 0
M  V30 1626 O 156.817 1.87062 0.232367 0
M  V30 1627 C 153.944 3.38688 0.0290807 0
M  V30 1628 C 152.99 4.1646 -0.919982 0
M  V30 1629 S 153.823 4.77334 -2.42718 0
M  V30 1630 C 154.979 6.00931 -1.75024 0
M  V30 1631 H 155.212 2.54166 -1.54231 0
M  V30 1632 H 152.745 1.25446 -0.900149 0
M  V30 1633 H 154.703 4.08342 0.420378 0
M  V30 1634 H 153.364 3.01289 0.887895 0
M  V30 1635 H 152.557 5.02529 -0.384751 0
M  V30 1636 H 152.159 3.52414 -1.25223 0
M  V30 1637 H 154.451 6.69017 -1.06877 0
M  V30 1638 H 155.394 6.59044 -2.58971 0
M  V30 1639 H 155.802 5.51089 -1.22317 0
M  V30 1640 N 155.201 0.870884 1.31352 0
M  V30 1641 C 156.111 0.330783 2.32256 0
M  V30 1642 C 157.127 -0.559767 1.6475 0
M  V30 1643 O 158.303 -0.456263 1.96164 0
M  V30 1644 C 155.368 -0.458137 3.4366 0
M  V30 1645 C 154.429 0.460482 4.26823 0
M  V30 1646 C 153.662 -0.290881 5.32907 0
M  V30 1647 O 153.885 -1.51885 5.49806 0
M  V30 1648 O 152.819 0.351732 6.00871 0
M  V30 1649 H 156.645 1.16718 2.80376 0
M  V30 1650 H 154.23 0.634285 1.35267 0
M  V30 1651 H 156.112 -0.905343 4.1156 0
M  V30 1652 H 154.787 -1.27106 2.97701 0
M  V30 1653 H 153.694 0.956207 3.61673 0
M  V30 1654 H 155.027 1.23903 4.7635 0
M  V30 1655 N 156.679 -1.44442 0.630414 0
M  V30 1656 C 157.926 -2.02052 0.134617 0
M  V30 1657 C 158.254 -1.49576 -1.24327 0
M  V30 1658 O 157.509 -0.669806 -1.83881 0
M  V30 1659 C 157.808 -3.57332 0.0697835 0
M  V30 1660 C 157.474 -4.29058 1.38635 0
M  V30 1661 C 156.136 -4.4837 1.74694 0
M  V30 1662 C 158.488 -4.69872 2.25543 0
M  V30 1663 C 155.816 -5.05756 2.97369 0
M  V30 1664 C 158.168 -5.28616 3.47487 0
M  V30 1665 C 156.832 -5.46147 3.8377 0
M  V30 1666 H 156.102 -0.739361 0.0492598 0
M  V30 1667 H 158.749 -1.73217 0.816586 0
M  V30 1668 H 157.054 -3.85577 -0.695553 0
M  V30 1669 H 158.751 -3.99637 -0.330344 0
M  V30 1670 H 155.341 -4.14357 1.09574 0
M  V30 1671 H 159.525 -4.54666 1.98979 0
M  V30 1672 H 154.781 -5.17515 3.25558 0
M  V30 1673 H 158.955 -5.59192 4.15063 0
M  V30 1674 H 156.582 -5.9038 4.7891 0
M  V30 1675 N 158.157 -0.370918 -1.53173 0
M  V30 1676 C 159.397 0.217106 -2.03244 0
M  V30 1677 C 159.761 1.45558 -1.25207 0
M  V30 1678 O 160.962 2.11957 -1.65311 0
M  V30 1679 C 159.233 0.496664 -3.53932 0
M  V30 1680 S 160.792 1.0576 -4.25864 0
M  V30 1681 H 157.61 0.0627827 -0.708223 0
M  V30 1682 H 160.212 -0.515019 -1.88594 0
M  V30 1683 H 158.916 -0.412096 -4.08326 0
M  V30 1684 H 158.447 1.25772 -3.72753 0
M  V30 1685 H 160.462 2.34145 -4.37482 0
M  V30 1686 N 159.635 1.57281 -0.100228 0
M  V30 1687 C 160.883 1.94153 0.561157 0
M  V30 1688 C 161.204 0.983157 1.68401 0
M  V30 1689 O 160.474 0.0361132 1.95867 0
M  V30 1690 H 159.054 0.716791 0.210283 0
M  V30 1691 H 161.716 1.94202 -0.164765 0
M  V30 1692 H 160.812 2.96709 0.968008 0
M  V30 1693 N 161.113 -0.173488 1.56642 0
M  V30 1694 C 162.076 -1.19859 1.95362 0
M  V30 1695 C 163.076 -1.37296 0.83704 0
M  V30 1696 O 164.266 -1.34739 1.10413 0
M  V30 1697 C 161.398 -2.56405 2.24654 0
M  V30 1698 H 162.591 -0.867062 2.87092 0
M  V30 1699 H 160.144 -0.415853 1.50666 0
M  V30 1700 H 160.879 -2.94576 1.35631 0
M  V30 1701 H 160.664 -2.45115 3.06041 0
M  V30 1702 H 162.154 -3.30287 2.5554 0
M  V30 1703 N 162.591 -1.51276 -0.441967 0
M  V30 1704 C 163.839 -1.63392 -1.18943 0
M  V30 1705 C 164.16 -0.350159 -1.9183 0
M  V30 1706 O 163.43 0.633784 -1.85364 0
M  V30 1707 H 162.01 -0.602164 -0.442049 0
M  V30 1708 H 164.672 -1.88186 -0.507165 0
M  V30 1709 H 163.768 -2.45934 -1.92154 0
M  V30 1710 N 164.069 0.697108 -1.41344 0
M  V30 1711 C 165.294 1.49096 -1.44171 0
M  V30 1712 C 165.719 1.88038 -0.0481568 0
M  V30 1713 O 165.077 1.54525 0.948243 0
M  V30 1714 C 165.125 2.73088 -2.3549 0
M  V30 1715 O 164.229 3.70514 -1.81088 0
M  V30 1716 H 163.57 0.448801 -0.489361 0
M  V30 1717 H 166.1 0.856992 -1.85787 0
M  V30 1718 H 166.11 3.21413 -2.51312 0
M  V30 1719 H 164.785 2.44081 -3.36745 0
M  V30 1720 H 163.362 3.29441 -1.74708 0
M  V30 1721 N 165.547 1.27147 0.931209 0
M  V30 1722 C 166.793 1.13446 1.68101 0
M  V30 1723 C 167.126 -0.319628 1.91552 0
M  V30 1724 O 166.401 -1.23407 1.50336 0
M  V30 1725 C 166.684 1.91482 3.0497 0
M  V30 1726 C 166.537 3.44855 2.88782 0
M  V30 1727 C 167.856 1.71651 4.05246 0
M  V30 1728 H 164.975 0.413498 0.610072 0
M  V30 1729 H 167.617 1.56261 1.08086 0
M  V30 1730 H 165.767 1.55095 3.56199 0
M  V30 1731 H 167.439 3.9105 2.44698 0
M  V30 1732 H 165.682 3.71373 2.24198 0
M  V30 1733 H 166.353 3.94694 3.85902 0
M  V30 1734 H 168.829 2.0337 3.63015 0
M  V30 1735 H 167.705 2.28651 4.99009 0
M  V30 1736 H 167.966 0.663555 4.37092 0
M  V30 1737 N 167.025 -1.13721 1.09112 0
M  V30 1738 C 168.253 -1.88773 0.846899 0
M  V30 1739 C 168.668 -1.7896 -0.601572 0
M  V30 1740 O 168.025 -1.15394 -1.41388 0
M  V30 1741 C 168.076 -3.3849 1.26913 0
M  V30 1742 O 167.797 -3.48043 2.66079 0
M  V30 1743 C 169.298 -4.30518 1.05682 0
M  V30 1744 H 166.518 -0.59772 0.304914 0
M  V30 1745 H 169.062 -1.43977 1.45227 0
M  V30 1746 H 167.217 -3.80881 0.707723 0
M  V30 1747 H 167.631 -4.4109 2.83795 0
M  V30 1748 H 169.105 -5.3391 1.40156 0
M  V30 1749 H 169.582 -4.392 -0.00563416 0
M  V30 1750 H 170.188 -3.93893 1.60402 0
M  V30 1751 N 168.503 -0.877838 -1.30888 0
M  V30 1752 C 169.78 -0.413052 -1.91189 0
M  V30 1753 C 170.16 1.1056 -1.79832 0
M  V30 1754 O 169.508 1.93771 -1.21099 0
M  V30 1755 C 169.718 -0.903191 -3.3711 0
M  V30 1756 C 171.066 -0.93395 -4.14201 0
M  V30 1757 O 172.09 -0.849373 -3.45925 0
M  V30 1758 O 170.949 -1.05772 -5.36167 0
M  V30 1759 H 168.043 -0.125035 -0.817493 0
M  V30 1760 H 170.589 -0.966269 -1.39504 0
M  V30 1761 H 169.361 -1.94692 -3.39427 0
M  V30 1762 H 168.984 -0.328732 -3.96239 0
M  V30 1763 N 169.982 1.44106 -0.638065 0
M  V30 1764 C 170.912 2.33448 0.0494287 0
M  V30 1765 C 171.893 1.48606 0.827672 0
M  V30 1766 O 173.078 1.77308 0.792173 0
M  V30 1767 C 170.208 3.31771 1.02691 0
M  V30 1768 C 169.162 4.26485 0.359823 0
M  V30 1769 C 168.488 5.14729 1.44769 0
M  V30 1770 C 169.788 5.17056 -0.738296 0
M  V30 1771 H 171.482 2.91183 -0.696636 0
M  V30 1772 H 169.028 1.40014 -0.336456 0
M  V30 1773 H 170.981 3.93161 1.51666 0
M  V30 1774 H 169.705 2.7226 1.80395 0
M  V30 1775 H 168.364 3.66437 -0.10934 0
M  V30 1776 H 168.012 4.51566 2.21578 0
M  V30 1777 H 167.712 5.78913 1.00668 0
M  V30 1778 H 169.236 5.78991 1.93911 0
M  V30 1779 H 170.65 5.72342 -0.331354 0
M  V30 1780 H 169.047 5.89879 -1.10286 0
M  V30 1781 H 170.117 4.57652 -1.60258 0
M  V30 1782 N 171.46 0.379036 1.52974 0
M  V30 1783 C 172.706 -0.206727 2.01744 0
M  V30 1784 C 173.039 -1.47314 1.26539 0
M  V30 1785 O 172.314 -1.91084 0.362903 0
M  V30 1786 C 172.597 -0.485066 3.56818 0
M  V30 1787 C 172.45 0.795919 4.42702 0
M  V30 1788 C 173.769 -1.28003 4.21074 0
M  V30 1789 H 170.888 -0.0736607 0.73331 0
M  V30 1790 H 173.53 0.506581 1.83122 0
M  V30 1791 H 171.68 -1.09272 3.72816 0
M  V30 1792 H 173.352 1.43307 4.38476 0
M  V30 1793 H 171.595 1.41344 4.10127 0
M  V30 1794 H 172.266 0.555947 5.49193 0
M  V30 1795 H 174.742 -0.765867 4.08991 0
M  V30 1796 H 173.618 -1.44352 5.29579 0
M  V30 1797 H 173.879 -2.29236 3.78026 0
M  V30 1798 N 172.938 -1.57226 0.108567 0
M  V30 1799 C 173.885 -2.14756 -0.845481 0
M  V30 1800 C 174.855 -1.06971 -1.27068 0
M  V30 1801 O 176.04 -1.34827 -1.35005 0
M  V30 1802 C 173.18 -2.74298 -2.09415 0
M  V30 1803 C 172.293 -3.96358 -1.71826 0
M  V30 1804 C 171.428 -4.44021 -2.9158 0
M  V30 1805 C 170.467 -5.58637 -2.50181 0
M  V30 1806 N 169.604 -6.01091 -3.62814 0
M  V30 1807 H 174.444 -2.95961 -0.348035 0
M  V30 1808 H 171.981 -1.46226 -0.160106 0
M  V30 1809 H 173.939 -3.06945 -2.82561 0
M  V30 1810 H 172.569 -1.95801 -2.56636 0
M  V30 1811 H 171.621 -3.69939 -0.885947 0
M  V30 1812 H 172.933 -4.79504 -1.37394 0
M  V30 1813 H 172.087 -4.78522 -3.72963 0
M  V30 1814 H 170.826 -3.59803 -3.29231 0
M  V30 1815 H 169.831 -5.23751 -1.67228 0
M  V30 1816 H 171.056 -6.44613 -2.13659 0
M  V30 1817 H 169.002 -5.19817 -4.00158 0
M  V30 1818 H 168.919 -6.79066 -3.32273 0
M  V30 1819 H 170.187 -6.40227 -4.44668 0
M  V30 1820 N 174.416 0.165178 -1.56732 0
M  V30 1821 C 175.364 1.22369 -1.97809 0
M  V30 1822 C 176.358 1.45488 -0.867741 0
M  V30 1823 O 177.564 1.45995 -1.05288 0
M  V30 1824 H 173.939 0.411486 -0.629431 0
M  V30 1825 H 175.91 0.850425 -2.86025 0
M  V30 1826 C 174.659 2.55403 -2.35934 0
M  V30 1827 H 173.982 2.38438 -3.20916 0
M  V30 1828 H 175.422 3.2814 -2.68514 0
M  V30 1829 C 173.881 3.14611 -1.20506 0
M  V30 1830 O 174.411 3.98626 -0.496016 0
M  V30 1831 N 172.617 2.7379 -0.97403 0
M  V30 1832 H 172.164 2.0557 -1.55238 0
M  V30 1833 H 172.122 3.1374 -0.203573 0
M  V30 1834 N 175.894 1.51508 0.433938 0
M  V30 1835 C 177.122 1.68157 1.20543 0
M  V30 1836 C 177.537 0.380362 1.84929 0
M  V30 1837 O 176.894 -0.641446 1.70856 0
M  V30 1838 C 176.945 2.79965 2.28696 0
M  V30 1839 O 176.666 4.05045 1.66943 0
M  V30 1840 C 178.167 3.07912 3.18912 0
M  V30 1841 H 175.387 0.56421 0.363191 0
M  V30 1842 H 177.931 1.97941 0.513754 0
M  V30 1843 H 176.086 2.5277 2.93574 0
M  V30 1844 H 176.5 4.67165 2.38448 0
M  V30 1845 H 177.974 3.89719 3.90926 0
M  V30 1846 H 178.451 2.20456 3.79863 0
M  V30 1847 H 179.057 3.36779 2.59731 0
M  V30 1848 N 177.372 -0.689602 1.41712 0
M  V30 1849 C 178.319 -1.80345 1.44029 0
M  V30 1850 C 179.289 -1.63478 0.293948 0
M  V30 1851 O 180.474 -1.84244 0.495869 0
M  V30 1852 C 177.614 -3.18272 1.33405 0
M  V30 1853 C 176.727 -3.46529 2.57956 0
M  V30 1854 C 175.862 -4.74103 2.39582 0
M  V30 1855 C 174.901 -4.95347 3.5958 0
M  V30 1856 N 174.038 -6.14151 3.40239 0
M  V30 1857 H 178.878 -1.77698 2.39222 0
M  V30 1858 H 176.415 -0.867688 1.18784 0
M  V30 1859 H 178.373 -3.97956 1.25246 0
M  V30 1860 H 177.003 -3.2008 0.418164 0
M  V30 1861 H 176.055 -2.61207 2.76542 0
M  V30 1862 H 177.367 -3.58126 3.47199 0
M  V30 1863 H 176.521 -5.61853 2.28924 0
M  V30 1864 H 175.26 -4.64763 1.47805 0
M  V30 1865 H 174.265 -4.06044 3.70686 0
M  V30 1866 H 175.49 -5.06542 4.52318 0
M  V30 1867 H 173.436 -6.06013 2.51167 0
M  V30 1868 H 173.353 -6.26543 4.23061 0
M  V30 1869 H 174.621 -7.04619 3.33365 0
M  V30 1870 N 178.85 -1.27639 -0.924453 0
M  V30 1871 C 180.098 -1.13941 -1.66918 0
M  V30 1872 C 180.419 0.314589 -1.92446 0
M  V30 1873 O 179.689 1.21964 -1.53303 0
M  V30 1874 H 178.269 -0.418678 -0.618642 0
M  V30 1875 H 180.931 -1.60213 -1.10985 0
M  V30 1876 H 180.027 -1.67094 -2.63602 0
M  V30 1877 N 180.328 1.1314 -1.09713 0
M  V30 1878 C 181.276 2.20717 -0.733934 0
M  V30 1879 C 182.27 1.6729 0.266506 0
M  V30 1880 O 183.476 1.79547 0.127656 0
M  V30 1881 H 179.851 0.719292 -0.21937 0
M  V30 1882 H 181.822 2.48611 -1.6503 0
M  V30 1883 C 180.571 3.47265 -0.173849 0
M  V30 1884 H 179.894 3.88716 -0.934873 0
M  V30 1885 H 181.334 4.23979 0.0423126 0
M  V30 1886 C 179.793 3.18724 1.09164 0
M  V30 1887 O 180.323 3.37762 2.17439 0
M  V30 1888 N 178.529 2.72583 1.00732 0
M  V30 1889 H 178.076 2.57291 0.126121 0
M  V30 1890 H 178.034 2.53862 1.85476 0
M  V30 1891 N 181.806 0.884767 1.30421 0
M  V30 1892 C 182.769 0.356277 2.26414 0
M  V30 1893 C 183.769 -0.501124 1.52792 0
M  V30 1894 O 184.959 -0.30831 1.7145 0
M  V30 1895 C 182.091 -0.492316 3.37326 0
M  V30 1896 H 183.284 1.20389 2.74675 0
M  V30 1897 H 180.837 0.661607 1.41607 0
M  V30 1898 H 181.572 -1.36052 2.94381 0
M  V30 1899 H 181.357 0.121832 3.91911 0
M  V30 1900 H 182.847 -0.853871 4.08777 0
M  V30 1901 N 183.284 -1.43765 0.645699 0
M  V30 1902 C 184.214 -2.33471 -0.0370477 0
M  V30 1903 C 185.195 -1.49042 -0.819779 0
M  V30 1904 O 186.38 -1.77726 -0.782758 0
M  V30 1905 C 183.51 -3.32311 -1.0093 0
M  V30 1906 C 182.464 -4.2667 -0.337201 0
M  V30 1907 C 181.79 -5.1549 -1.42037 0
M  V30 1908 C 183.09 -5.16657 0.765706 0
M  V30 1909 H 184.784 -2.90809 0.712069 0
M  V30 1910 H 182.33 -1.39834 0.343876 0
M  V30 1911 H 184.283 -3.9396 -1.49578 0
M  V30 1912 H 183.007 -2.73213 -1.78948 0
M  V30 1913 H 181.666 -3.66374 0.128771 0
M  V30 1914 H 181.314 -4.52735 -2.1918 0
M  V30 1915 H 181.014 -5.79438 -0.975966 0
M  V30 1916 H 182.538 -5.80012 -1.90838 0
M  V30 1917 H 183.952 -5.72158 0.361702 0
M  V30 1918 H 182.349 -5.89286 1.13413 0
M  V30 1919 H 183.419 -4.56796 1.62683 0
M  V30 1920 N 184.763 -0.387143 -1.52771 0
M  V30 1921 C 185.71 0.449048 -2.26389 0
M  V30 1922 C 186.68 1.05961 -1.27912 0
M  V30 1923 O 187.865 1.08804 -1.56737 0
M  V30 1924 C 185.005 1.57155 -3.0724 0
M  V30 1925 C 184.118 0.984066 -4.20643 0
M  V30 1926 C 183.253 2.07745 -4.88892 0
M  V30 1927 C 182.292 1.46574 -5.94292 0
M  V30 1928 N 181.429 2.49834 -6.56146 0
M  V30 1929 H 186.269 -0.185205 -2.97424 0
M  V30 1930 H 183.806 -0.103164 -1.46738 0
M  V30 1931 H 185.764 2.23309 -3.52405 0
M  V30 1932 H 184.394 2.17615 -2.38419 0
M  V30 1933 H 183.446 0.212193 -3.79808 0
M  V30 1934 H 184.758 0.497029 -4.96318 0
M  V30 1935 H 183.912 2.81673 -5.3735 0
M  V30 1936 H 182.651 2.59807 -4.12737 0
M  V30 1937 H 181.656 0.711696 -5.45174 0
M  V30 1938 H 182.881 0.953088 -6.72379 0
M  V30 1939 H 180.827 3.0107 -5.82832 0
M  V30 1940 H 180.744 2.05879 -7.27427 0
M  V30 1941 H 182.012 3.23399 -7.09249 0
M  V30 1942 N 186.241 1.57166 -0.116904 0
M  V30 1943 C 187.151 2.18745 0.847812 0
M  V30 1944 C 188.167 1.163 1.29423 0
M  V30 1945 O 189.343 1.48761 1.35765 0
M  V30 1946 C 186.408 2.77307 2.0809 0
M  V30 1947 C 185.469 3.94781 1.68661 0
M  V30 1948 C 184.702 4.50541 2.86091 0
M  V30 1949 O 184.925 4.05202 4.01456 0
M  V30 1950 O 183.859 5.41256 2.63298 0
M  V30 1951 H 187.685 3.01632 0.353778 0
M  V30 1952 H 185.27 1.49005 0.108599 0
M  V30 1953 H 187.152 3.14647 2.80313 0
M  V30 1954 H 185.827 1.97452 2.56504 0
M  V30 1955 H 184.734 3.62214 0.935518 0
M  V30 1956 H 186.067 4.76065 1.24991 0
M  V30 1957 N 187.719 -0.156864 1.56817 0
M  V30 1958 C 188.996 -0.899244 1.73704 0
M  V30 1959 C 189.376 -1.99771 0.682254 0
M  V30 1960 O 188.724 -2.26515 -0.300522 0
M  V30 1961 C 188.934 -1.45075 3.17418 0
M  V30 1962 C 190.282 -1.91802 3.7881 0
M  V30 1963 O 191.306 -1.54838 3.20786 0
M  V30 1964 O 190.165 -2.5994 4.80722 0
M  V30 1965 H 187.259 -0.424267 0.709878 0
M  V30 1966 H 189.805 -0.143561 1.69092 0
M  V30 1967 H 188.577 -0.660846 3.85679 0
M  V30 1968 H 188.2 -2.27021 3.26416 0
M  V30 1969 N 189.197 -1.51736 -0.425897 0
M  V30 1970 C 190.437 -1.66636 -1.18371 0
M  V30 1971 C 190.801 -0.379854 -1.88205 0
M  V30 1972 O 192.002 -0.404758 -2.65735 0
M  V30 1973 C 190.273 -2.84382 -2.16476 0
M  V30 1974 S 191.832 -3.19673 -3.0059 0
M  V30 1975 H 188.65 -0.586957 -0.40125 0
M  V30 1976 H 191.252 -1.89679 -0.473518 0
M  V30 1977 H 189.956 -3.76281 -1.63831 0
M  V30 1978 H 189.487 -2.63562 -2.92059 0
M  V30 1979 H 191.502 -2.66994 -4.18245 0
M  V30 1980 N 190.675 0.682077 -1.42076 0
M  V30 1981 C 191.924 1.43786 -1.41451 0
M  V30 1982 C 192.237 1.95574 -0.0317074 0
M  V30 1983 O 193.443 2.71326 0.0971462 0
M  V30 1984 C 191.899 2.60071 -2.48779 0
M  V30 1985 C 191.507 2.15013 -3.93031 0
M  V30 1986 C 193.251 3.37626 -2.57311 0
M  V30 1987 C 191.158 3.28336 -4.91883 0
M  V30 1988 H 190.088 0.540143 -0.526082 0
M  V30 1989 H 192.739 0.739157 -1.67955 0
M  V30 1990 H 191.121 3.32275 -2.15429 0
M  V30 1991 H 192.295 1.5001 -4.35699 0
M  V30 1992 H 190.61 1.50416 -3.88284 0
M  V30 1993 H 193.207 4.22012 -3.28345 0
M  V30 1994 H 193.55 3.83727 -1.61429 0
M  V30 1995 H 194.083 2.72488 -2.89819 0
M  V30 1996 H 190.822 2.87234 -5.89217 0
M  V30 1997 H 190.342 3.92145 -4.53853 0
M  V30 1998 H 192.021 3.93913 -5.13265 0
M  V30 1999 N 192.153 1.28127 0.917671 0
M  V30 2000 C 193.116 1.11744 2.00115 0
M  V30 2001 C 194.116 0.0583052 1.60694 0
M  V30 2002 O 195.306 0.303755 1.71531 0
M  V30 2003 C 192.438 0.704862 3.33533 0
M  V30 2004 H 193.631 2.07966 2.16079 0
M  V30 2005 H 191.184 1.11058 1.09981 0
M  V30 2006 H 191.919 -0.258299 3.2327 0
M  V30 2007 H 191.704 1.4699 3.63505 0
M  V30 2008 H 193.194 0.612768 4.1308 0
M  V30 2009 N 193.631 -1.12557 1.10312 0
M  V30 2010 C 194.861 -1.87592 0.865617 0
M  V30 2011 C 195.269 -1.79851 -0.587389 0
M  V30 2012 O 194.612 -1.16949 -1.41664 0
M  V30 2013 C 194.674 -3.37665 1.23381 0
M  V30 2014 C 194.338 -3.69181 2.69359 0
M  V30 2015 C 195.335 -3.67652 3.67597 0
M  V30 2016 C 193.02 -3.98555 3.05711 0
M  V30 2017 C 195.014 -3.95053 5.00212 0
M  V30 2018 C 192.701 -4.25616 4.38514 0
M  V30 2019 C 193.699 -4.23851 5.35574 0
M  V30 2020 O 193.387 -4.50242 6.65986 0
M  V30 2021 H 193.119 -0.600442 0.310557 0
M  V30 2022 H 195.673 -1.4335 1.47105 0
M  V30 2023 H 193.903 -3.82454 0.571467 0
M  V30 2024 H 195.592 -3.94041 0.973994 0
M  V30 2025 H 196.358 -3.45024 3.40857 0
M  V30 2026 H 192.237 -3.99071 2.30789 0
M  V30 2027 H 195.781 -3.93591 5.75962 0
M  V30 2028 H 191.678 -4.47718 4.64994 0
M  V30 2029 H 192.446 -4.67867 6.71597 0
M  V30 2030 N 195.109 -0.891671 -1.2995 0
M  V30 2031 C 196.358 -0.509521 -1.95158 0
M  V30 2032 C 196.671 0.947388 -1.71125 0
M  V30 2033 O 197.877 1.43669 -2.30372 0
M  V30 2034 C 196.333 -0.860315 -3.49466 0
M  V30 2035 C 195.941 -2.33545 -3.8231 0
M  V30 2036 C 197.685 -0.547687 -4.20952 0
M  V30 2037 C 195.592 -2.62752 -5.29826 0
M  V30 2038 H 194.522 -0.18682 -0.730489 0
M  V30 2039 H 197.173 -1.08756 -1.47798 0
M  V30 2040 H 195.555 -0.211285 -3.95436 0
M  V30 2041 H 196.729 -3.02936 -3.47227 0
M  V30 2042 H 195.044 -2.61629 -3.23944 0
M  V30 2043 H 197.641 -0.742854 -5.29515 0
M  V30 2044 H 197.984 0.51332 -4.13123 0
M  V30 2045 H 198.517 -1.1542 -3.80688 0
M  V30 2046 H 195.256 -3.6762 -5.42712 0
M  V30 2047 H 194.776 -1.97977 -5.66185 0
M  V30 2048 H 196.455 -2.48601 -5.97333 0
M  V30 2049 N 196.587 1.43421 -0.653314 0
M  V30 2050 C 197.827 2.03689 -0.170346 0
M  V30 2051 C 198.191 1.50427 1.19314 0
M  V30 2052 O 199.392 2.0234 1.76952 0
M  V30 2053 C 197.663 3.56946 -0.180183 0
M  V30 2054 S 199.222 4.38171 0.234925 0
M  V30 2055 H 196.04 0.707345 -0.0719976 0
M  V30 2056 H 198.642 1.75486 -0.86167 0
M  V30 2057 H 197.346 3.93212 -1.17526 0
M  V30 2058 H 196.877 3.89791 0.531675 0
M  V30 2059 H 198.892 4.73808 1.47378 0
M  V30 2060 N 198.065 0.39524 1.52563 0
M  V30 2061 C 199.481 0.0454682 1.59535 0
M  V30 2062 C 199.681 -1.44056 1.4089 0
M  V30 2063 O 198.737 -2.20579 1.22888 0
M  V30 2064 C 200.05 0.527963 2.96029 0
M  V30 2065 C 201.598 0.484733 3.09224 0
M  V30 2066 C 202.073 0.943512 4.48176 0
M  V30 2067 N 203.564 0.899765 4.54377 0
M  V30 2068 C 204.299 1.22609 5.60138 0
M  V30 2069 N 203.795 1.62319 6.73516 0
M  V30 2070 N 205.588 1.14696 5.50274 0
M  V30 2071 H 197.739 1.36261 1.62931 0
M  V30 2072 H 200.002 0.558887 0.765735 0
M  V30 2073 H 199.708 1.56607 3.14908 0
M  V30 2074 H 199.582 -0.0698056 3.77135 0
M  V30 2075 H 201.969 -0.544298 2.90037 0
M  V30 2076 H 202.05 1.11838 2.30056 0
M  V30 2077 H 201.694 1.9708 4.68104 0
M  V30 2078 H 201.624 0.286817 5.25818 0
M  V30 2079 H 204.115 0.607632 3.72983 0
M  V30 2080 H 204.428 1.85567 7.5019 0
M  V30 2081 H 202.773 1.66211 6.74833 0
M  V30 2082 H 205.964 0.835701 4.6058 0
M  V30 2083 H 206.137 1.40459 6.32594 0
M  V30 2084 N 199.544 -1.57102 0.125237 0
M  V30 2085 C 200.454 -2.19191 -0.8362 0
M  V30 2086 C 201.47 -1.16985 -1.28805 0
M  V30 2087 O 202.646 -1.49479 -1.34974 0
M  V30 2088 C 199.711 -2.78407 -2.06617 0
M  V30 2089 C 198.772 -3.9567 -1.66565 0
M  V30 2090 C 198.005 -4.52052 -2.83698 0
M  V30 2091 O 198.228 -4.07326 -3.99302 0
M  V30 2092 O 197.162 -5.42645 -2.60423 0
M  V30 2093 H 200.988 -3.01816 -0.337776 0
M  V30 2094 H 198.573 -1.4906 -0.100695 0
M  V30 2095 H 200.455 -3.16129 -2.7864 0
M  V30 2096 H 199.13 -1.9881 -2.55453 0
M  V30 2097 H 198.037 -3.62705 -0.916296 0
M  V30 2098 H 199.37 -4.76722 -1.22464 0
M  V30 2099 N 201.022 0.148545 -1.56898 0
M  V30 2100 C 202.271 0.85984 -1.82454 0
M  V30 2101 C 202.584 1.82406 -0.706229 0
M  V30 2102 O 203.79 2.57938 -0.847349 0
M  V30 2103 C 202.246 1.57967 -3.2338 0
M  V30 2104 C 201.854 0.65794 -4.43142 0
M  V30 2105 C 203.598 2.27784 -3.58211 0
M  V30 2106 C 201.505 1.3793 -5.75091 0
M  V30 2107 H 200.435 0.324834 -0.68044 0
M  V30 2108 H 203.086 0.112588 -1.83154 0
M  V30 2109 H 201.468 2.37249 -3.17063 0
M  V30 2110 H 202.642 -0.0995497 -4.60692 0
M  V30 2111 H 200.957 0.0682643 -4.16344 0
M  V30 2112 H 203.554 2.8239 -4.54048 0
M  V30 2113 H 203.897 3.04204 -2.84193 0
M  V30 2114 H 204.43 1.55421 -3.66182 0
M  V30 2115 H 201.169 0.656982 -6.52199 0
M  V30 2116 H 200.689 2.10954 -5.61479 0
M  V30 2117 H 202.368 1.92063 -6.17835 0
M  V30 2118 N 202.5 1.5196 0.417844 0
M  V30 2119 C 203.43 1.77634 1.51554 0
M  V30 2120 C 204.411 0.626918 1.58126 0
M  V30 2121 O 205.596 0.871632 1.7354 0
M  V30 2122 C 202.726 1.91911 2.8946 0
M  V30 2123 C 201.68 3.07463 2.97743 0
M  V30 2124 C 201.006 3.06951 4.37819 0
M  V30 2125 C 202.306 4.47082 2.70027 0
M  V30 2126 H 204 2.6955 1.3032 0
M  V30 2127 H 201.546 1.29706 0.625492 0
M  V30 2128 H 203.499 2.08455 3.6623 0
M  V30 2129 H 202.223 0.966598 3.11969 0
M  V30 2130 H 200.882 2.90656 2.23416 0
M  V30 2131 H 200.53 2.09438 4.57323 0
M  V30 2132 H 200.23 3.84556 4.44286 0
M  V30 2133 H 201.754 3.25613 5.16535 0
M  V30 2134 H 203.168 4.6414 3.36522 0
M  V30 2135 H 201.565 5.2654 2.87881 0
M  V30 2136 H 202.635 4.55777 1.65514 0
M  V30 2137 N 203.978 -0.674533 1.42435 0
M  V30 2138 C 205.394 -0.98769 1.25367 0
M  V30 2139 C 205.594 -2.00879 0.158044 0
M  V30 2140 O 204.65 -2.48075 -0.470633 0
M  V30 2141 C 205.963 -1.49224 2.6106 0
M  V30 2142 C 207.511 -1.61 2.68417 0
M  V30 2143 C 207.986 -2.14852 4.04478 0
M  V30 2144 N 209.477 -2.22185 4.06434 0
M  V30 2145 C 210.212 -2.64928 5.08528 0
M  V30 2146 N 209.708 -3.07121 6.21006 0
M  V30 2147 N 211.501 -2.64679 4.95885 0
M  V30 2148 H 203.652 0.00152503 2.124 0
M  V30 2149 H 205.915 -0.0618434 0.945981 0
M  V30 2150 H 205.621 -0.816453 3.42092 0
M  V30 2151 H 205.495 -2.47094 2.84999 0
M  V30 2152 H 207.882 -2.27686 1.87732 0
M  V30 2153 H 207.963 -0.616195 2.48267 0
M  V30 2154 H 207.607 -1.48775 4.85622 0
M  V30 2155 H 207.537 -3.15024 4.2198 0
M  V30 2156 H 210.028 -1.92435 3.25234 0
M  V30 2157 H 210.341 -3.38423 6.94759 0
M  V30 2158 H 208.686 -3.04978 6.24511 0
M  V30 2159 H 211.877 -2.31078 4.07088 0
M  V30 2160 H 212.05 -2.9767 5.75584 0
M  V30 2161 N 205.456 -1.28612 -0.910864 0
M  V30 2162 C 206.704 -1.15705 -1.65701 0
M  V30 2163 C 207.025 0.29416 -1.92769 0
M  V30 2164 O 206.295 1.20331 -1.54588 0
M  V30 2165 H 204.875 -0.425216 -0.614167 0
M  V30 2166 H 207.537 -1.61381 -1.0928 0
M  V30 2167 H 206.633 -1.6988 -2.61815 0
M  V30 2168 N 206.934 1.1197 -1.10907 0
M  V30 2169 C 207.864 2.19928 -0.784473 0
M  V30 2170 C 208.845 1.6833 0.244726 0
M  V30 2171 O 210.03 1.93892 0.109418 0
M  V30 2172 C 207.16 3.46597 -0.220827 0
M  V30 2173 C 206.114 4.11376 -1.18127 0
M  V30 2174 C 205.44 5.32554 -0.478594 0
M  V30 2175 C 206.74 4.56945 -2.52979 0
M  V30 2176 H 208.434 2.47337 -1.68715 0
M  V30 2177 H 205.98 1.18879 -0.812642 0
M  V30 2178 H 207.933 4.21396 0.0184278 0
M  V30 2179 H 206.657 3.1863 0.717113 0
M  V30 2180 H 205.316 3.38564 -1.40606 0
M  V30 2181 H 204.964 5.00856 0.463976 0
M  V30 2182 H 204.664 5.76844 -1.11912 0
M  V30 2183 H 206.188 6.10096 -0.248 0
M  V30 2184 H 207.602 5.23093 -2.3462 0
M  V30 2185 H 205.999 5.1203 -3.12962 0
M  V30 2186 H 207.069 3.70676 -3.12614 0
M  V30 2187 N 208.412 0.89855 1.29475 0
M  V30 2188 C 209.375 0.380272 2.26023 0
M  V30 2189 C 210.375 -0.484891 1.53315 0
M  V30 2190 O 211.565 -0.290108 1.71767 0
M  V30 2191 C 208.697 -0.45651 3.3783 0
M  V30 2192 H 209.89 1.23295 2.73383 0
M  V30 2193 H 207.443 0.676589 1.40897 0
M  V30 2194 H 208.178 -1.32922 2.95808 0
M  V30 2195 H 207.963 0.163393 3.91759 0
M  V30 2196 H 209.453 -0.810466 4.0966 0
M  V30 2197 N 209.89 -1.43072 0.660911 0
M  V30 2198 C 210.84 -2.27948 -0.04847 0
M  V30 2199 C 211.824 -1.40325 -0.787246 0
M  V30 2200 O 213.016 -1.63893 -0.668446 0
M  V30 2201 C 210.145 -3.28143 -1.00881 0
M  V30 2202 C 209.231 -4.23252 -0.268108 0
M  V30 2203 N 209.622 -5.00656 0.719528 0
M  V30 2204 C 207.92 -4.43092 -0.508493 0
M  V30 2205 C 208.621 -5.70019 1.15988 0
M  V30 2206 N 207.597 -5.41364 0.492584 0
M  V30 2207 H 211.399 -2.85213 0.709279 0
M  V30 2208 H 208.913 -1.54869 0.488822 0
M  V30 2209 H 210.91 -3.87736 -1.53188 0
M  V30 2210 H 209.57 -2.7244 -1.76654 0
M  V30 2211 H 210.581 -5.06115 1.09855 0
M  V30 2212 H 207.258 -3.98449 -1.24679 0
M  V30 2213 H 208.648 -6.4214 1.97751 0
M  V30 2214 N 211.368 -0.403325 -1.52352 0
M  V30 2215 C 212.298 0.416205 -2.29761 0
M  V30 2216 C 213.279 1.05123 -1.33728 0
M  V30 2217 O 214.464 1.06134 -1.62632 0
M  V30 2218 C 211.594 1.53624 -3.11475 0
M  V30 2219 C 210.548 1.02653 -4.15507 0
M  V30 2220 C 209.874 2.23971 -4.85532 0
M  V30 2221 C 211.174 0.08463 -5.22231 0
M  V30 2222 H 212.868 -0.229701 -2.98518 0
M  V30 2223 H 210.414 -0.111913 -1.43564 0
M  V30 2224 H 212.367 2.1165 -3.64393 0
M  V30 2225 H 211.091 2.20994 -2.40477 0
M  V30 2226 H 209.75 0.46871 -3.63591 0
M  V30 2227 H 209.398 2.89883 -4.11068 0
M  V30 2228 H 209.098 1.90521 -5.55856 0
M  V30 2229 H 210.622 2.82614 -5.41259 0
M  V30 2230 H 212.036 0.573509 -5.70424 0
M  V30 2231 H 210.433 -0.160783 -5.99885 0
M  V30 2232 H 211.503 -0.86237 -4.7717 0
M  V30 2233 N 212.846 1.57033 -0.133567 0
M  V30 2234 C 213.796 2.12641 0.822671 0
M  V30 2235 C 214.78 1.05081 1.21847 0
M  V30 2236 O 215.972 1.31287 1.18713 0
M  V30 2237 C 213.101 2.74094 2.06706 0
M  V30 2238 C 212.187 3.88757 1.69497 0
M  V30 2239 N 212.578 4.95194 1.03037 0
M  V30 2240 C 210.876 3.99213 1.98859 0
M  V30 2241 C 211.577 5.75414 0.852873 0
M  V30 2242 N 210.553 5.25726 1.3825 0
M  V30 2243 H 214.355 2.92308 0.305537 0
M  V30 2244 H 211.869 1.62256 0.0684276 0
M  V30 2245 H 213.866 3.12285 2.76195 0
M  V30 2246 H 212.526 1.95896 2.5895 0
M  V30 2247 H 213.537 5.13247 0.692669 0
M  V30 2248 H 210.214 3.32075 2.53047 0
M  V30 2249 H 211.604 6.71089 0.330091 0
M  V30 2250 N 214.325 -0.140222 1.56975 0
M  V30 2251 C 215.288 -1.15689 1.97861 0
M  V30 2252 C 216.288 -1.3549 0.865974 0
M  V30 2253 O 217.478 -1.32367 1.13246 0
M  V30 2254 C 214.61 -2.51582 2.30042 0
M  V30 2255 H 215.803 -0.805971 2.88867 0
M  V30 2256 H 213.356 -0.383801 1.51515 0
M  V30 2257 H 214.091 -2.91632 1.41849 0
M  V30 2258 H 213.876 -2.38569 3.11171 0
M  V30 2259 H 215.366 -3.24792 2.62488 0
M  V30 2260 N 215.803 -1.52179 -0.40978 0
M  V30 2261 C 216.753 -1.71857 -1.49831 0
M  V30 2262 C 217.737 -0.572469 -1.50372 0
M  V30 2263 O 218.929 -0.829509 -1.56359 0
M  V30 2264 C 216.058 -1.87206 -2.87765 0
M  V30 2265 C 215.144 -3.07685 -2.91875 0
M  V30 2266 N 215.535 -4.30403 -2.65683 0
M  V30 2267 C 213.833 -3.07505 -3.23043 0
M  V30 2268 C 214.534 -5.11868 -2.76344 0
M  V30 2269 N 213.51 -4.47101 -3.09195 0
M  V30 2270 H 217.312 -2.64381 -1.28375 0
M  V30 2271 H 214.826 -1.50203 -0.617479 0
M  V30 2272 H 216.823 -1.99419 -3.66111 0
M  V30 2273 H 215.483 -0.958814 -3.10221 0
M  V30 2274 H 216.494 -4.58887 -2.4009 0
M  V30 2275 H 213.171 -2.25915 -3.51096 0
M  V30 2276 H 214.561 -6.19634 -2.59814 0
M  V30 2277 N 217.281 0.66697 -1.42791 0
M  V30 2278 C 218.228 1.7803 -1.4688 0
M  V30 2279 C 219.198 1.6299 -0.319919 0
M  V30 2280 O 220.383 1.83432 -0.525118 0
M  V30 2281 C 217.523 3.1611 -1.38451 0
M  V30 2282 C 216.636 3.42381 -2.63437 0
M  V30 2283 C 215.771 4.70232 -2.47094 0
M  V30 2284 C 214.81 4.89564 -3.67415 0
M  V30 2285 N 213.947 6.08661 -3.49966 0
M  V30 2286 H 218.787 1.7387 -2.42019 0
M  V30 2287 H 216.324 0.84868 -1.20149 0
M  V30 2288 H 218.282 3.95914 -1.31561 0
M  V30 2289 H 216.912 3.19374 -0.469033 0
M  V30 2290 H 215.964 2.56774 -2.80662 0
M  V30 2291 H 217.276 3.52557 -3.52853 0
M  V30 2292 H 216.43 5.5814 -2.37834 0
M  V30 2293 H 215.169 4.62353 -1.5518 0
M  V30 2294 H 214.174 4.00096 -3.77099 0
M  V30 2295 H 215.399 4.99282 -4.6032 0
M  V30 2296 H 213.345 6.0194 -2.60776 0
M  V30 2297 H 213.262 6.19733 -4.32975 0
M  V30 2298 H 214.53 6.99226 -3.44532 0
M  V30 2299 N 218.759 1.29093 0.90403 0
M  V30 2300 C 220.005 1.16986 1.65656 0
M  V30 2301 C 220.338 -0.278925 1.92186 0
M  V30 2302 O 219.613 -1.2019 1.5292 0
M  V30 2303 C 219.896 1.97908 3.0084 0
M  V30 2304 C 219.749 3.50903 2.81403 0
M  V30 2305 C 221.068 1.80208 4.01513 0
M  V30 2306 H 218.187 0.426346 0.601164 0
M  V30 2307 H 220.829 1.58518 1.04747 0
M  V30 2308 H 218.979 1.62616 3.52829 0
M  V30 2309 H 220.651 3.96153 2.36348 0
M  V30 2310 H 218.894 3.76045 2.1627 0
M  V30 2311 H 219.565 4.02791 3.77443 0
M  V30 2312 H 222.041 2.11025 3.58619 0
M  V30 2313 H 220.917 2.39184 4.94047 0
M  V30 2314 H 221.178 0.756119 4.35586 0
M  V30 2315 N 220.237 -1.11381 1.11499 0
M  V30 2316 C 221.486 -1.82494 0.858993 0
M  V30 2317 C 221.799 -1.85605 -0.617278 0
M  V30 2318 O 223.005 -2.52824 -0.989552 0
M  V30 2319 C 221.461 -3.27745 1.48699 0
M  V30 2320 C 221.069 -3.32961 2.99735 0
M  V30 2321 C 222.813 -4.03754 1.31085 0
M  V30 2322 C 220.72 -4.72612 3.55516 0
M  V30 2323 H 219.65 -0.683802 0.317696 0
M  V30 2324 H 222.301 -1.25331 1.34031 0
M  V30 2325 H 220.683 -3.84844 0.933339 0
M  V30 2326 H 221.857 -2.85741 3.61509 0
M  V30 2327 H 220.172 -2.70433 3.16631 0
M  V30 2328 H 222.769 -5.06891 1.70192 0
M  V30 2329 H 223.112 -4.15527 0.253496 0
M  V30 2330 H 223.645 -3.53043 1.83318 0
M  V30 2331 H 220.384 -4.66036 4.60967 0
M  V30 2332 H 219.904 -5.2024 2.98513 0
M  V30 2333 H 221.583 -5.4157 3.53992 0
M  V30 2334 N 221.715 -0.905404 -1.28997 0
M  V30 2335 C 222.665 -0.358713 -2.25161 0
M  V30 2336 C 223.649 0.524449 -1.52113 0
M  V30 2337 O 224.841 0.365534 -1.73184 0
M  V30 2338 C 221.97 0.407609 -3.40872 0
M  V30 2339 C 221.056 -0.490797 -4.21251 0
M  V30 2340 N 221.447 -1.60061 -4.79806 0
M  V30 2341 C 219.745 -0.289636 -4.45059 0
M  V30 2342 C 220.446 -2.15757 -5.40207 0
M  V30 2343 N 219.422 -1.44988 -5.23908 0
M  V30 2344 H 223.224 -1.20642 -2.67998 0
M  V30 2345 H 220.738 -0.757103 -1.43672 0
M  V30 2346 H 222.735 0.816046 -4.08835 0
M  V30 2347 H 221.395 1.25251 -2.9957 0
M  V30 2348 H 222.406 -1.98329 -4.7842 0
M  V30 2349 H 219.083 0.51643 -4.14294 0
M  V30 2350 H 220.473 -3.09069 -5.96595 0
M  V30 2351 N 223.193 1.4272 -0.668489 0
M  V30 2352 C 224.609 1.55992 -0.33745 0
M  V30 2353 C 224.809 1.64933 1.15756 0
M  V30 2354 O 223.865 1.61278 1.94282 0
M  V30 2355 C 225.178 2.81314 -1.06222 0
M  V30 2356 C 226.726 2.95078 -1.04394 0
M  V30 2357 C 227.201 4.23252 -1.74991 0
M  V30 2358 N 228.692 4.3015 -1.71829 0
M  V30 2359 C 229.427 5.28127 -2.23315 0
M  V30 2360 N 228.923 6.32293 -2.83156 0
M  V30 2361 N 230.716 5.19882 -2.13726 0
M  V30 2362 H 222.867 1.3516 -1.63846 0
M  V30 2363 H 225.13 0.650174 -0.689912 0
M  V30 2364 H 224.836 2.80823 -2.11734 0
M  V30 2365 H 224.71 3.72012 -0.62344 0
M  V30 2366 H 227.097 2.951 0.0028244 0
M  V30 2367 H 227.178 2.05627 -1.52155 0
M  V30 2368 H 226.822 4.2399 -2.79633 0
M  V30 2369 H 226.752 5.11626 -1.24685 0
M  V30 2370 H 229.243 3.55499 -1.28175 0
M  V30 2371 H 229.556 7.03398 -3.20079 0
M  V30 2372 H 227.901 6.32873 -2.87223 0
M  V30 2373 H 231.092 4.37423 -1.66669 0
M  V30 2374 H 231.265 5.96077 -2.54158 0
M  V30 2375 N 224.671 0.411399 1.52136 0
M  V30 2376 C 225.948 -0.222308 1.94333 0
M  V30 2377 C 226.328 -1.6242 1.34844 0
M  V30 2378 O 225.676 -2.22384 0.525145 0
M  V30 2379 C 225.886 -0.226345 3.48265 0
M  V30 2380 C 227.234 -0.444592 4.22266 0
M  V30 2381 O 228.258 -0.305602 3.54887 0
M  V30 2382 O 227.117 -0.718749 5.41753 0
M  V30 2383 H 224.211 -0.143907 0.814383 0
M  V30 2384 H 226.757 0.467506 1.63133 0
M  V30 2385 H 225.529 0.75475 3.83952 0
M  V30 2386 H 225.152 -0.960163 3.85832 0
M  V30 2387 N 226.149 -1.5696 0.141893 0
M  V30 2388 C 227.398 -1.95135 -0.510427 0
M  V30 2389 C 227.711 -1.02896 -1.66348 0
M  V30 2390 O 228.917 -1.30629 -2.38009 0
M  V30 2391 C 227.373 -3.46876 -0.959427 0
M  V30 2392 C 226.981 -4.47691 0.166419 0
M  V30 2393 C 228.725 -3.93927 -1.58183 0
M  V30 2394 C 226.632 -5.90636 -0.300565 0
M  V30 2395 H 225.562 -0.728494 -0.194454 0
M  V30 2396 H 228.213 -1.8211 0.22542 0
M  V30 2397 H 226.595 -3.55215 -1.75038 0
M  V30 2398 H 227.769 -4.51043 0.94325 0
M  V30 2399 H 226.084 -4.10527 0.696905 0
M  V30 2400 H 228.681 -4.98158 -1.94275 0
M  V30 2401 H 229.024 -3.3519 -2.46888 0
M  V30 2402 H 229.557 -3.88484 -0.855863 0
M  V30 2403 H 226.296 -6.5318 0.550989 0
M  V30 2404 H 225.816 -5.90655 -1.04338 0
M  V30 2405 H 227.495 -6.42588 -0.754265 0
M  V30 2406 N 227.627 0.131896 -1.57047 0
M  V30 2407 C 228.574 1.16236 -1.99393 0
M  V30 2408 C 229.544 1.41863 -0.863943 0
M  V30 2409 O 230.729 1.53946 -1.12718 0
M  V30 2410 C 227.869 2.48708 -2.39245 0
M  V30 2411 C 226.982 2.30127 -3.65603 0
M  V30 2412 C 226.117 3.55738 -3.94492 0
M  V30 2413 C 225.156 3.32259 -5.14073 0
M  V30 2414 N 224.293 4.50039 -5.38896 0
M  V30 2415 H 229.133 0.794251 -2.87221 0
M  V30 2416 H 226.67 0.380707 -1.42088 0
M  V30 2417 H 228.628 3.25969 -2.60384 0
M  V30 2418 H 227.258 2.83437 -1.54478 0
M  V30 2419 H 226.31 1.43845 -3.52154 0
M  V30 2420 H 227.622 2.08746 -4.5302 0
M  V30 2421 H 226.776 4.41423 -4.1621 0
M  V30 2422 H 225.515 3.80138 -3.05526 0
M  V30 2423 H 224.52 2.44963 -4.92212 0
M  V30 2424 H 225.745 3.09242 -6.04604 0
M  V30 2425 H 223.691 4.74584 -4.52886 0
M  V30 2426 H 223.608 4.31716 -6.2061 0
M  V30 2427 H 224.876 5.36895 -5.65123 0
M  V30 2428 N 229.106 1.52395 0.401703 0
M  V30 2429 C 230.354 1.66488 1.14569 0
M  V30 2430 C 230.675 0.400897 1.90835 0
M  V30 2431 O 229.945 -0.584415 1.8698 0
M  V30 2432 H 228.525 0.613672 0.425929 0
M  V30 2433 H 231.187 1.89464 0.457093 0
M  V30 2434 H 230.283 2.50942 1.85566 0
M  V30 2435 N 230.584 -0.659388 1.43143 0
M  V30 2436 C 231.516 -1.7849 1.43784 0
M  V30 2437 C 232.529 -1.5932 0.334787 0
M  V30 2438 O 233.718 -1.68155 0.598842 0
M  V30 2439 C 230.818 -3.15828 1.22906 0
M  V30 2440 C 229.991 -3.61711 2.45934 0
M  V30 2441 C 229.05 -4.77831 2.20371 0
M  V30 2442 O 228.076 -4.87586 2.93681 0
M  V30 2443 N 229.278 -5.67611 1.21647 0
M  V30 2444 H 232.043 -1.7842 2.40803 0
M  V30 2445 H 229.604 -0.84302 1.3822 0
M  V30 2446 H 231.596 -3.91189 1.03697 0
M  V30 2447 H 230.166 -3.10707 0.343542 0
M  V30 2448 H 229.386 -2.76861 2.80609 0
M  V30 2449 H 230.674 -3.89112 3.27825 0
M  V30 2450 H 230.072 -5.62397 0.610449 0
M  V30 2451 H 228.629 -6.42719 1.08423 0
M  V30 2452 N 232.062 -1.29571 -0.897171 0
M  V30 2453 C 233.01 -1.14802 -2.02295 0
M  V30 2454 C 234.004 -0.0629637 -1.69283 0
M  V30 2455 O 235.21 -0.222945 -1.78614 0
M  V30 2456 H 231.585 -0.354692 -0.663097 0
M  V30 2457 H 233.556 -2.10108 -2.11889 0
M  V30 2458 C 232.305 -0.843966 -3.37302 0
M  V30 2459 H 231.628 -1.67093 -3.63208 0
M  V30 2460 H 233.068 -0.780672 -4.16751 0
M  V30 2461 C 231.527 0.452843 -3.33843 0
M  V30 2462 O 232.057 1.47813 -3.73516 0
M  V30 2463 N 230.263 0.459601 -2.86943 0
M  V30 2464 H 229.81 -0.375213 -2.54853 0
M  V30 2465 H 229.768 1.32726 -2.85011 0
M  V30 2466 N 233.54 1.10788 -1.12088 0
M  V30 2467 C 234.786 1.82942 -0.875226 0
M  V30 2468 C 235.119 1.84779 0.597538 0
M  V30 2469 O 234.394 1.30578 1.44152 0
M  V30 2470 C 234.677 3.29789 -1.44606 0
M  V30 2471 C 234.53 3.36307 -2.98693 0
M  V30 2472 C 235.849 4.26064 -1.10261 0
M  V30 2473 H 232.968 0.664195 -0.319397 0
M  V30 2474 H 235.61 1.29867 -1.38689 0
M  V30 2475 H 233.76 3.75118 -1.01089 0
M  V30 2476 H 235.432 2.99487 -3.50864 0
M  V30 2477 H 233.675 2.76318 -3.34411 0
M  V30 2478 H 234.346 4.39694 -3.33726 0
M  V30 2479 H 236.822 3.88951 -1.4784 0
M  V30 2480 H 235.698 5.27183 -1.52869 0
M  V30 2481 H 235.959 4.42098 -0.0142953 0
M  V30 2482 N 235.018 0.912232 1.28515 0
M  V30 2483 C 235.948 0.416403 2.29757 0
M  V30 2484 C 236.929 -0.515194 1.6211 0
M  V30 2485 O 238.114 -0.423253 1.89532 0
M  V30 2486 C 235.244 -0.34572 3.45575 0
M  V30 2487 C 234.198 0.496599 4.25109 0
M  V30 2488 C 233.524 -0.393771 5.33248 0
M  V30 2489 C 234.824 1.75307 4.92001 0
M  V30 2490 H 236.518 1.26249 2.7148 0
M  V30 2491 H 234.064 0.608515 1.30511 0
M  V30 2492 H 236.017 -0.703422 4.15488 0
M  V30 2493 H 234.741 -1.2257 3.02728 0
M  V30 2494 H 233.4 0.8368 3.56922 0
M  V30 2495 H 233.048 -1.27225 4.86644 0
M  V30 2496 H 232.748 0.166209 5.87365 0
M  V30 2497 H 234.272 -0.747389 6.06009 0
M  V30 2498 H 235.686 1.46437 5.54283 0
M  V30 2499 H 234.083 2.25534 5.56106 0
M  V30 2500 H 235.153 2.48176 4.16577 0
M  V30 2501 N 236.496 -1.42363 0.676048 0
M  V30 2502 C 237.426 -2.33497 0.0124832 0
M  V30 2503 C 238.407 -1.50748 -0.787981 0
M  V30 2504 O 239.592 -1.79346 -0.744884 0
M  V30 2505 C 236.722 -3.34377 -0.938582 0
M  V30 2506 C 235.676 -4.27289 -0.246622 0
M  V30 2507 C 235.002 -5.18386 -1.31071 0
M  V30 2508 C 236.302 -5.14916 0.875125 0
M  V30 2509 H 237.996 -2.89233 0.773593 0
M  V30 2510 H 235.542 -1.39073 0.37346 0
M  V30 2511 H 237.495 -3.97044 -1.41188 0
M  V30 2512 H 236.219 -2.76947 -1.73113 0
M  V30 2513 H 234.878 -3.66018 0.206456 0
M  V30 2514 H 234.526 -4.57282 -2.09528 0
M  V30 2515 H 234.226 -5.81378 -0.852839 0
M  V30 2516 H 235.75 -5.83929 -1.78492 0
M  V30 2517 H 237.164 -5.71262 0.482983 0
M  V30 2518 H 235.561 -5.86747 1.25887 0
M  V30 2519 H 236.631 -4.53242 1.72335 0
M  V30 2520 N 237.974 -0.419461 -1.51915 0
M  V30 2521 C 239.202 0.152136 -2.0634 0
M  V30 2522 C 239.617 1.37988 -1.28859 0
M  V30 2523 O 238.974 1.79243 -0.343232 0
M  V30 2524 C 239.025 0.492266 -3.58133 0
M  V30 2525 O 238.746 -0.686736 -4.32684 0
M  V30 2526 C 240.247 1.11648 -4.2901 0
M  V30 2527 H 237.467 0.0158325 -0.670813 0
M  V30 2528 H 240.011 -0.593394 -1.95702 0
M  V30 2529 H 238.166 1.18769 -3.68745 0
M  V30 2530 H 238.58 -0.400341 -5.2297 0
M  V30 2531 H 240.054 1.3046 -5.36362 0
M  V30 2532 H 240.531 2.09251 -3.86148 0
M  V30 2533 H 241.137 0.460958 -4.22795 0
M  V30 2534 N 239.452 1.56882 -0.150215 0
M  V30 2535 C 240.362 2.20494 0.801222 0
M  V30 2536 C 241.378 1.19019 1.26927 0
M  V30 2537 O 242.554 1.51607 1.32579 0
M  V30 2538 C 239.619 2.81659 2.02161 0
M  V30 2539 C 238.68 3.9827 1.60249 0
M  V30 2540 C 237.913 4.56508 2.7647 0
M  V30 2541 O 238.136 4.13627 3.92771 0
M  V30 2542 O 237.07 5.46719 2.51757 0
M  V30 2543 H 240.896 3.02315 0.289717 0
M  V30 2544 H 238.481 1.49202 0.0769684 0
M  V30 2545 H 240.363 3.20522 2.73576 0
M  V30 2546 H 239.038 2.02849 2.52258 0
M  V30 2547 H 237.945 3.64117 0.858477 0
M  V30 2548 H 239.278 4.78609 1.14864 0
M  V30 2549 N 240.93 -0.123565 1.57115 0
M  V30 2550 C 241.878 -1.17082 2.00984 0
M  V30 2551 C 242.872 -1.43136 0.906009 0
M  V30 2552 O 244.078 -1.43152 1.09121 0
M  V30 2553 H 240.453 -0.394653 0.64012 0
M  V30 2554 H 242.424 -0.774292 2.88179 0
M  V30 2555 C 241.173 -2.49057 2.42623 0
M  V30 2556 H 240.496 -2.29846 3.27125 0
M  V30 2557 H 241.936 -3.20906 2.7712 0
M  V30 2558 C 240.395 -3.11305 1.28805 0
M  V30 2559 O 240.925 -3.97171 0.60153 0
M  V30 2560 N 239.131 -2.71111 1.04628 0
M  V30 2561 H 238.678 -2.01382 1.60634 0
M  V30 2562 H 238.636 -3.1309 0.286685 0
M  V30 2563 N 242.408 -1.52605 -0.393616 0
M  V30 2564 C 243.371 -1.76415 -1.46323 0
M  V30 2565 C 244.371 -0.634126 -1.47768 0
M  V30 2566 O 245.561 -0.902142 -1.4902 0
M  V30 2567 C 242.693 -1.8607 -2.85641 0
M  V30 2568 H 243.886 -2.71916 -1.26498 0
M  V30 2569 H 241.439 -1.43257 -0.625073 0
M  V30 2570 H 242.174 -0.925378 -3.10817 0
M  V30 2571 H 241.959 -2.68235 -2.85993 0
M  V30 2572 H 243.449 -2.06179 -3.63153 0
M  V30 2573 N 243.887 0.651787 -1.4349 0
M  V30 2574 C 244.797 1.79368 -1.5121 0
M  V30 2575 C 245.813 1.69361 -0.399093 0
M  V30 2576 O 246.989 1.90505 -0.653431 0
M  V30 2577 C 244.054 3.15653 -1.43401 0
M  V30 2578 C 243.115 3.37446 -2.65384 0
M  V30 2579 C 242.348 4.67229 -2.57939 0
M  V30 2580 O 242.571 5.46676 -1.62792 0
M  V30 2581 O 241.505 4.90773 -3.48462 0
M  V30 2582 H 245.331 1.7581 -2.47638 0
M  V30 2583 H 242.916 0.810447 -1.25507 0
M  V30 2584 H 244.798 3.96935 -1.41494 0
M  V30 2585 H 243.473 3.19798 -0.501085 0
M  V30 2586 H 242.38 2.55923 -2.72863 0
M  V30 2587 H 243.713 3.38148 -3.57654 0
M  V30 2588 N 245.365 1.30045 0.890287 0
M  V30 2589 C 246.611 1.18737 1.64406 0
M  V30 2590 C 246.944 -0.258525 1.92472 0
M  V30 2591 O 246.219 -1.18562 1.54186 0
M  V30 2592 C 246.502 2.01087 2.98724 0
M  V30 2593 C 246.355 3.53867 2.77665 0
M  V30 2594 C 247.674 1.84457 3.9958 0
M  V30 2595 H 244.793 0.432698 0.596608 0
M  V30 2596 H 247.435 1.5962 1.0306 0
M  V30 2597 H 245.585 1.66349 3.51084 0
M  V30 2598 H 247.257 3.98637 2.32133 0
M  V30 2599 H 245.5 3.78318 2.12269 0
M  V30 2600 H 246.171 4.06772 3.7315 0
M  V30 2601 H 248.647 2.14817 3.56361 0
M  V30 2602 H 247.523 2.44411 4.91482 0
M  V30 2603 H 247.784 0.802276 4.3476 0
M  V30 2604 N 246.843 -1.10192 1.12674 0
M  V30 2605 C 247.79 -2.16606 0.796906 0
M  V30 2606 C 248.76 -1.64394 -0.237476 0
M  V30 2607 O 249.945 -1.90474 -0.111484 0
M  V30 2608 C 247.085 -3.44116 0.26043 0
M  V30 2609 C 246.198 -4.10268 1.35293 0
M  V30 2610 C 245.333 -5.25507 0.775621 0
M  V30 2611 C 244.372 -5.83567 1.84706 0
M  V30 2612 N 243.509 -6.90179 1.28829 0
M  V30 2613 H 248.349 -2.44163 1.70846 0
M  V30 2614 H 245.886 -1.19846 0.85295 0
M  V30 2615 H 247.844 -4.17143 -0.0686814 0
M  V30 2616 H 246.474 -3.16901 -0.614274 0
M  V30 2617 H 245.526 -3.35184 1.79877 0
M  V30 2618 H 246.838 -4.4946 2.16303 0
M  V30 2619 H 245.992 -6.05398 0.397327 0
M  V30 2620 H 244.731 -4.87656 -0.0656581 0
M  V30 2621 H 243.736 -5.02344 2.23452 0
M  V30 2622 H 244.961 -6.23482 2.69161 0
M  V30 2623 H 242.907 -6.54322 0.468881 0
M  V30 2624 H 242.824 -7.28097 2.03497 0
M  V30 2625 H 244.092 -7.73844 0.937311 0
M  V30 2626 N 248.321 -0.919034 -1.28029 0
M  V30 2627 C 249.251 -0.428581 -2.29533 0
M  V30 2628 C 250.232 0.50659 -1.62381 0
M  V30 2629 O 251.417 0.413195 -1.89753 0
M  V30 2630 C 248.547 0.327388 -3.45753 0
M  V30 2631 C 247.501 -0.519137 -4.2484 0
M  V30 2632 C 246.827 0.365486 -5.33449 0
M  V30 2633 C 248.127 -1.77914 -4.91064 0
M  V30 2634 H 249.821 -1.27687 -2.70807 0
M  V30 2635 H 247.367 -0.615428 -1.30186 0
M  V30 2636 H 249.32 0.681378 -4.15855 0
M  V30 2637 H 248.044 1.20963 -3.03374 0
M  V30 2638 H 246.703 -0.855717 -3.56473 0
M  V30 2639 H 246.351 1.24642 -4.87312 0
M  V30 2640 H 246.051 -0.197356 -5.87268 0
M  V30 2641 H 247.575 0.715241 -6.06396 0
M  V30 2642 H 248.989 -1.49374 -5.53498 0
M  V30 2643 H 247.386 -2.2848 -5.54903 0
M  V30 2644 H 248.456 -2.50382 -4.15255 0
M  V30 2645 N 249.799 1.42003 -0.683588 0
M  V30 2646 C 251.045 2.01712 -0.209825 0
M  V30 2647 C 251.378 1.53968 1.18353 0
M  V30 2648 O 250.653 0.745661 1.79639 0
M  V30 2649 C 250.936 3.59202 -0.254197 0
M  V30 2650 C 250.789 4.17102 -1.68363 0
M  V30 2651 C 252.108 4.38344 0.392709 0
M  V30 2652 H 249.227 0.732891 -0.0777189 0
M  V30 2653 H 251.869 1.68909 -0.87004 0
M  V30 2654 H 250.019 3.87278 0.307954 0
M  V30 2655 H 251.691 3.99946 -2.29871 0
M  V30 2656 H 249.934 3.72597 -2.22157 0
M  V30 2657 H 250.605 5.26249 -1.6663 0
M  V30 2658 H 253.081 4.16011 -0.0859162 0
M  V30 2659 H 251.957 5.47901 0.331063 0
M  V30 2660 H 252.218 4.16887 1.47164 0
M  V30 2661 N 251.277 0.427512 1.51691 0
M  V30 2662 C 252.554 -0.201684 1.94557 0
M  V30 2663 C 252.934 -1.60981 1.36559 0
M  V30 2664 O 252.282 -2.21814 0.548702 0
M  V30 2665 C 252.492 -0.189394 3.48486 0
M  V30 2666 C 253.84 -0.39978 4.22714 0
M  V30 2667 O 254.864 -0.267945 3.55191 0
M  V30 2668 O 253.723 -0.661249 5.42485 0
M  V30 2669 H 250.817 -0.135261 0.815864 0
M  V30 2670 H 253.363 0.484782 1.62628 0
M  V30 2671 H 252.135 0.795431 3.8313 0
M  V30 2672 H 251.758 -0.919187 3.86829 0
M  V30 2673 N 252.755 -1.56801 0.158532 0
M  V30 2674 C 254.002 -1.9649 -0.489679 0
M  V30 2675 C 254.33 -1.04394 -1.6411 0
M  V30 2676 O 253.585 -0.0754401 -1.95555 0
M  V30 2677 C 253.884 -3.4235 -1.02623 0
M  V30 2678 C 253.55 -4.50899 0.00794526 0
M  V30 2679 C 252.212 -4.80312 0.292207 0
M  V30 2680 C 254.564 -5.16333 0.710584 0
M  V30 2681 C 251.892 -5.72461 1.28472 0
M  V30 2682 C 254.244 -6.09553 1.69199 0
M  V30 2683 C 252.908 -6.37339 1.98383 0
M  V30 2684 H 252.178 -0.719009 -0.179186 0
M  V30 2685 H 254.825 -1.8989 0.247798 0
M  V30 2686 H 253.13 -3.45838 -1.84128 0
M  V30 2687 H 254.827 -3.70393 -1.53656 0
M  V30 2688 H 251.417 -4.28015 -0.22379 0
M  V30 2689 H 255.601 -4.93732 0.504174 0
M  V30 2690 H 250.857 -5.92278 1.51714 0
M  V30 2691 H 255.031 -6.59327 2.24189 0
M  V30 2692 H 252.658 -7.08546 2.7544 0
M  V30 2693 N 254.233 0.115231 -1.57178 0
M  V30 2694 C 255.481 0.820727 -1.84685 0
M  V30 2695 C 255.802 1.80237 -0.744279 0
M  V30 2696 O 255.072 1.94529 0.231375 0
M  V30 2697 H 253.652 0.306084 -0.681411 0
M  V30 2698 H 256.314 0.101656 -1.94635 0
M  V30 2699 H 255.41 1.36366 -2.80733 0
M  V30 2700 N 255.711 1.52812 0.385517 0
M  V30 2701 C 256.957 1.68275 1.13188 0
M  V30 2702 C 257.29 0.423179 1.89533 0
M  V30 2703 O 256.565 -0.579113 1.85679 0
M  V30 2704 C 256.848 2.92001 2.1073 0
M  V30 2705 C 256.701 4.28067 1.38125 0
M  V30 2706 C 258.02 3.11283 3.11113 0
M  V30 2707 H 255.139 0.612352 0.410115 0
M  V30 2708 H 257.781 1.85415 0.414869 0
M  V30 2709 H 255.931 2.77519 2.71874 0
M  V30 2710 H 257.603 4.54324 0.799187 0
M  V30 2711 H 255.846 4.28388 0.683092 0
M  V30 2712 H 256.517 5.10733 2.09417 0
M  V30 2713 H 258.993 3.2482 2.6006 0
M  V30 2714 H 257.869 3.99325 3.76605 0
M  V30 2715 H 258.13 2.25656 3.80173 0
M  V30 2716 N 257.189 -0.644168 1.43834 0
M  V30 2717 C 258.414 -1.43642 1.49605 0
M  V30 2718 C 258.839 -1.8773 0.117913 0
M  V30 2719 O 258.197 -1.57938 -0.890239 0
M  V30 2720 C 258.245 -2.6416 2.45463 0
M  V30 2721 O 257.349 -3.63538 1.94714 0
M  V30 2722 H 256.69 -0.430329 0.50568 0
M  V30 2723 H 259.22 -0.787448 1.8884 0
M  V30 2724 H 259.23 -3.11864 2.63068 0
M  V30 2725 H 257.905 -2.31414 3.45572 0
M  V30 2726 H 256.482 -3.2273 1.86814 0
M  V30 2727 N 258.668 -1.30515 -0.883378 0
M  V30 2728 C 259.631 -1.1701 -1.97082 0
M  V30 2729 C 260.631 -0.10089 -1.60483 0
M  V30 2730 O 261.821 -0.349127 -1.70666 0
M  V30 2731 C 258.953 -0.793045 -3.31547 0
M  V30 2732 H 260.146 -2.13622 -2.10489 0
M  V30 2733 H 257.699 -1.13935 -1.06998 0
M  V30 2734 H 258.434 0.172499 -3.23841 0
M  V30 2735 H 258.219 -1.56576 -3.5948 0
M  V30 2736 H 259.709 -0.722073 -4.1131 0
M  V30 2737 N 260.146 1.09593 -1.13257 0
M  V30 2738 C 261.078 2.16015 -0.766167 0
M  V30 2739 C 262.091 1.61423 0.211303 0
M  V30 2740 O 263.28 1.78498 -0.00863946 0
M  V30 2741 C 260.38 3.38706 -0.114662 0
M  V30 2742 C 259.553 4.22717 -1.12379 0
M  V30 2743 C 258.612 5.23835 -0.498301 0
M  V30 2744 O 257.638 5.573 -1.15781 0
M  V30 2745 N 258.84 5.75886 0.730417 0
M  V30 2746 H 261.605 2.48055 -1.68193 0
M  V30 2747 H 259.166 1.25292 -1.02535 0
M  V30 2748 H 261.158 4.03464 0.315991 0
M  V30 2749 H 259.728 3.04569 0.704011 0
M  V30 2750 H 258.948 3.54122 -1.73179 0
M  V30 2751 H 260.236 4.75673 -1.80589 0
M  V30 2752 H 259.634 5.50911 1.28504 0
M  V30 2753 H 258.191 6.42387 1.10376 0
M  V30 2754 N 261.624 0.925811 1.2754 0
M  V30 2755 C 262.554 0.440748 2.29303 0
M  V30 2756 C 263.535 -0.497971 1.62648 0
M  V30 2757 O 264.72 -0.403126 1.8997 0
M  V30 2758 C 261.85 -0.309048 3.45922 0
M  V30 2759 C 260.804 0.54166 4.24559 0
M  V30 2760 C 260.13 -0.337191 5.33636 0
M  V30 2761 C 261.43 1.80516 4.90114 0
M  V30 2762 H 263.124 1.29121 2.70126 0
M  V30 2763 H 260.67 0.622323 1.29858 0
M  V30 2764 H 262.623 -0.659315 4.1621 0
M  V30 2765 H 261.347 -1.19352 3.04011 0
M  V30 2766 H 260.006 0.874609 3.56014 0
M  V30 2767 H 259.654 -1.22056 4.87966 0
M  V30 2768 H 259.354 0.228497 5.87156 0
M  V30 2769 H 260.878 -0.683072 6.06767 0
M  V30 2770 H 262.292 1.52307 5.52698 0
M  V30 2771 H 260.689 2.3142 5.53683 0
M  V30 2772 H 261.759 2.52581 4.13921 0
M  V30 2773 N 263.102 -1.41638 0.69111 0
M  V30 2774 C 264.379 -1.95036 0.148421 0
M  V30 2775 C 264.759 -1.63072 -1.34055 0
M  V30 2776 O 264.107 -0.93538 -2.08478 0
M  V30 2777 C 264.317 -3.46279 0.434951 0
M  V30 2778 C 265.665 -4.23069 0.360275 0
M  V30 2779 O 266.689 -3.54277 0.369613 0
M  V30 2780 O 265.548 -5.45583 0.316534 0
M  V30 2781 H 262.642 -0.826908 0.0123654 0
M  V30 2782 H 265.188 -1.5138 0.766963 0
M  V30 2783 H 263.96 -3.6281 1.46576 0
M  V30 2784 H 263.583 -3.97019 -0.214787 0
M  V30 2785 N 264.58 -0.43555 -1.51462 0
M  V30 2786 C 265.996 -0.0877501 -1.59359 0
M  V30 2787 C 266.196 1.4027 -1.4466 0
M  V30 2788 O 265.252 2.17243 -1.28693 0
M  V30 2789 C 266.565 -0.606264 -2.94525 0
M  V30 2790 C 268.113 -0.566548 -3.0783 0
M  V30 2791 C 268.588 -1.06201 -4.45517 0
M  V30 2792 N 270.079 -1.01992 -4.51832 0
M  V30 2793 C 270.814 -1.37417 -5.5669 0
M  V30 2794 N 270.31 -1.80119 -6.68976 0
M  V30 2795 N 272.103 -1.29245 -5.47039 0
M  V30 2796 H 264.254 -1.40533 -1.59261 0
M  V30 2797 H 266.517 -0.578992 -0.750648 0
M  V30 2798 H 266.223 -1.64901 -3.10645 0
M  V30 2799 H 266.097 -0.0302097 -3.77188 0
M  V30 2800 H 268.484 0.467208 -2.91378 0
M  V30 2801 H 268.565 -1.17898 -2.2701 0
M  V30 2802 H 268.209 -2.09422 -4.62715 0
M  V30 2803 H 268.139 -0.426127 -5.24873 0
M  V30 2804 H 270.63 -0.706308 -3.71241 0
M  V30 2805 H 270.943 -2.05392 -7.45006 0
M  V30 2806 H 269.288 -1.84044 -6.70189 0
M  V30 2807 H 272.479 -0.957522 -4.58202 0
M  V30 2808 H 272.652 -1.57182 -6.28648 0
M  V30 2809 N 266.058 1.56714 -0.166846 0
M  V30 2810 C 267.286 2.0112 0.485644 0
M  V30 2811 C 267.701 1.04705 1.57106 0
M  V30 2812 O 267.058 0.0471923 1.82439 0
M  V30 2813 C 267.109 3.45361 1.06808 0
M  V30 2814 O 266.83 4.38092 0.0259995 0
M  V30 2815 C 268.331 4.05145 1.79924 0
M  V30 2816 H 265.551 0.65931 0.124704 0
M  V30 2817 H 268.095 2.02746 -0.267262 0
M  V30 2818 H 266.25 3.44524 1.7715 0
M  V30 2819 H 266.664 5.22519 0.455398 0
M  V30 2820 H 268.138 5.08009 2.15942 0
M  V30 2821 H 268.615 3.46982 2.69258 0
M  V30 2822 H 269.221 4.09672 1.14234 0
M  V30 2823 N 267.536 -0.106894 1.57237 0
M  V30 2824 C 268.782 -0.81373 1.85759 0
M  V30 2825 C 269.115 -1.78952 0.754315 0
M  V30 2826 O 268.39 -1.93029 -0.23879 0
M  V30 2827 C 268.673 -1.55293 3.24894 0
M  V30 2828 C 268.526 -0.595929 4.45835 0
M  V30 2829 C 269.845 -2.5063 3.61763 0
M  V30 2830 H 266.964 -0.294369 0.67566 0
M  V30 2831 H 269.606 -0.0776472 1.89841 0
M  V30 2832 H 267.756 -2.1804 3.21544 0
M  V30 2833 H 269.428 0.0236262 4.61294 0
M  V30 2834 H 267.671 0.0916191 4.33703 0
M  V30 2835 H 268.342 -1.15004 5.39887 0
M  V30 2836 H 270.818 -1.97982 3.65981 0
M  V30 2837 H 269.694 -2.99376 4.60071 0
M  V30 2838 H 269.955 -3.3385 2.89821 0
M  V30 2839 N 269.014 -1.53014 -0.377408 0
M  V30 2840 C 270.262 -1.6829 -1.11906 0
M  V30 2841 C 270.583 -0.431206 -1.90173 0
M  V30 2842 O 269.853 0.554595 -1.87886 0
M  V30 2843 H 268.433 -0.620371 -0.416112 0
M  V30 2844 H 271.095 -1.90167 -0.426893 0
M  V30 2845 H 270.191 -2.53862 -1.8155 0
M  V30 2846 N 270.492 0.636531 -1.44174 0
M  V30 2847 C 271.908 0.954104 -1.27941 0
M  V30 2848 C 272.108 2.0039 -0.211248 0
M  V30 2849 O 271.164 2.49236 0.404695 0
M  V30 2850 C 272.477 1.4225 -2.64925 0
M  V30 2851 C 274.025 1.53827 -2.72592 0
M  V30 2852 C 274.5 2.04053 -4.10032 0
M  V30 2853 N 275.991 2.11331 -4.12182 0
M  V30 2854 C 276.726 2.51352 -5.15374 0
M  V30 2855 N 276.222 2.90549 -6.2893 0
M  V30 2856 N 278.015 2.51438 -5.02728 0
M  V30 2857 H 270.166 -0.0578386 -2.12321 0
M  V30 2858 H 272.429 0.0367406 -0.947288 0
M  V30 2859 H 272.135 0.725466 -3.44136 0
M  V30 2860 H 272.009 2.39451 -2.9145 0
M  V30 2861 H 274.396 2.22628 -1.93702 0
M  V30 2862 H 274.477 0.550154 -2.49814 0
M  V30 2863 H 274.121 1.35848 -4.89395 0
M  V30 2864 H 274.051 3.03726 -4.30184 0
M  V30 2865 H 276.542 1.83745 -3.30222 0
M  V30 2866 H 276.855 3.19884 -7.03487 0
M  V30 2867 H 275.2 2.88313 -6.32377 0
M  V30 2868 H 278.391 2.20203 -4.13072 0
M  V30 2869 H 278.564 2.82304 -5.83274 0
M  V30 2870 N 271.97 1.30982 0.876444 0
M  V30 2871 C 273.386 1.09498 1.16113 0
M  V30 2872 C 273.586 -0.13875 2.01022 0
M  V30 2873 O 272.642 -0.829935 2.38471 0
M  V30 2874 C 273.955 2.36308 1.85954 0
M  V30 2875 C 275.503 2.41856 1.98683 0
M  V30 2876 C 275.978 3.6853 2.71937 0
M  V30 2877 N 277.469 3.69387 2.79477 0
M  V30 2878 C 278.204 4.64096 3.36753 0
M  V30 2879 N 277.7 5.69155 3.95012 0
M  V30 2880 N 279.493 4.51626 3.3465 0
M  V30 2881 H 271.644 2.10118 0.310494 0
M  V30 2882 H 273.907 0.926634 0.200131 0
M  V30 2883 H 273.613 3.26388 1.31011 0
M  V30 2884 H 273.487 2.4561 2.86278 0
M  V30 2885 H 275.874 1.52249 2.52793 0
M  V30 2886 H 275.955 2.36523 0.9742 0
M  V30 2887 H 275.599 4.58499 2.18496 0
M  V30 2888 H 275.529 3.71127 3.73593 0
M  V30 2889 H 278.02 2.93438 2.38123 0
M  V30 2890 H 278.333 6.3751 4.36808 0
M  V30 2891 H 276.678 5.72937 3.93406 0
M  V30 2892 H 279.869 3.68728 2.8837 0
M  V30 2893 H 280.042 5.25614 3.7899 0
M  V30 2894 N 273.449 -1.08991 1.13837 0
M  V30 2895 C 274.397 -2.17841 0.815347 0
M  V30 2896 C 275.391 -1.68164 -0.204233 0
M  V30 2897 O 276.597 -1.79897 -0.0609304 0
M  V30 2898 H 272.972 -0.710654 0.245915 0
M  V30 2899 H 274.943 -2.42315 1.74143 0
M  V30 2900 C 273.692 -3.46381 0.302614 0
M  V30 2901 H 273.015 -3.84979 1.0785 0
M  V30 2902 H 274.455 -4.23844 0.115074 0
M  V30 2903 C 272.914 -3.22556 -0.972591 0
M  V30 2904 O 273.444 -3.45599 -2.04754 0
M  V30 2905 N 271.65 -2.76134 -0.905455 0
M  V30 2906 H 271.197 -2.57582 -0.0305421 0
M  V30 2907 H 271.155 -2.60571 -1.75926 0
M  V30 2908 N 274.927 -0.932562 -1.27047 0
M  V30 2909 C 276.155 -0.592031 -1.98249 0
M  V30 2910 C 276.57 0.831062 -1.69525 0
M  V30 2911 O 275.927 1.55299 -0.958561 0
M  V30 2912 C 275.978 -0.814279 -3.5221 0
M  V30 2913 O 275.699 -2.18139 -3.7993 0
M  V30 2914 C 277.2 -0.483121 -4.4066 0
M  V30 2915 H 274.42 -0.223896 -0.632544 0
M  V30 2916 H 276.964 -1.25091 -1.61779 0
M  V30 2917 H 275.119 -0.20213 -3.86872 0
M  V30 2918 H 275.533 -2.235 -4.74498 0
M  V30 2919 H 277.007 -0.689298 -5.47679 0
M  V30 2920 H 277.484 0.581546 -4.35333 0
M  V30 2921 H 278.09 -1.07362 -4.11526 0
M  V30 2922 N 276.405 1.4127 -0.698611 0
M  V30 2923 C 277.652 2.0118 -0.230865 0
M  V30 2924 C 277.98 1.55338 1.17049 0
M  V30 2925 O 277.235 0.756775 1.80475 0
M  V30 2926 C 277.534 3.56592 -0.240192 0
M  V30 2927 C 277.2 4.21955 -1.58948 0
M  V30 2928 C 275.862 4.39524 -1.95887 0
M  V30 2929 C 278.214 4.58576 -2.47704 0
M  V30 2930 C 275.542 4.90992 -3.2116 0
M  V30 2931 C 277.894 5.11435 -3.72313 0
M  V30 2932 C 276.558 5.27215 -4.0939 0
M  V30 2933 H 275.828 0.736169 -0.0844796 0
M  V30 2934 H 278.475 1.69124 -0.8983 0
M  V30 2935 H 276.78 3.88456 0.510797 0
M  V30 2936 H 278.477 4.00758 0.139296 0
M  V30 2937 H 275.067 4.08657 -1.29219 0
M  V30 2938 H 279.251 4.44654 -2.20445 0
M  V30 2939 H 274.507 5.01393 -3.49878 0
M  V30 2940 H 278.681 5.38752 -4.4127 0
M  V30 2941 H 276.308 5.66859 -5.06533 0
M  V30 2942 N 277.883 0.443576 1.51229 0
M  V30 2943 C 279.132 -0.122332 2.01329 0
M  V30 2944 C 279.445 -1.43237 1.33201 0
M  V30 2945 O 280.651 -2.0816 1.74304 0
M  V30 2946 C 279.107 -0.268551 3.58897 0
M  V30 2947 C 278.715 1.03142 4.35965 0
M  V30 2948 C 280.459 -0.787894 4.17124 0
M  V30 2949 C 278.366 0.850504 5.85252 0
M  V30 2950 H 277.296 -0.0494929 0.752374 0
M  V30 2951 H 279.947 0.574289 1.74282 0
M  V30 2952 H 278.329 -1.02832 3.82415 0
M  V30 2953 H 279.503 1.80001 4.24189 0
M  V30 2954 H 277.818 1.47977 3.89219 0
M  V30 2955 H 280.415 -0.939841 5.26375 0
M  V30 2956 H 280.758 -1.77201 3.76703 0
M  V30 2957 H 281.291 -0.0862669 3.97706 0
M  V30 2958 H 278.03 1.80718 6.30096 0
M  V30 2959 H 277.55 0.121825 5.99676 0
M  V30 2960 H 279.229 0.506163 6.45017 0
M  V30 2961 N 279.361 -1.56624 0.175154 0
M  V30 2962 C 280.609 -1.96609 -0.467885 0
M  V30 2963 C 280.93 -1.06238 -1.63519 0
M  V30 2964 O 280.2 -0.129523 -1.95471 0
M  V30 2965 H 278.78 -0.726008 -0.175845 0
M  V30 2966 H 281.442 -1.93195 0.257234 0
M  V30 2967 H 280.538 -3.00989 -0.825342 0
M  V30 2968 N 280.839 0.0985539 -1.57292 0
M  V30 2969 C 282.067 0.816318 -1.90115 0
M  V30 2970 C 282.482 1.72451 -0.768509 0
M  V30 2971 O 281.839 1.80643 0.259687 0
M  V30 2972 C 281.89 1.63259 -3.22535 0
M  V30 2973 O 281.611 0.760934 -4.31441 0
M  V30 2974 C 283.112 2.45372 -3.69199 0
M  V30 2975 H 280.332 0.233595 -0.629027 0
M  V30 2976 H 282.876 0.0768229 -2.04356 0
M  V30 2977 H 281.031 2.32463 -3.09903 0
M  V30 2978 H 281.445 1.32595 -5.07463 0
M  V30 2979 H 282.919 2.98144 -4.64558 0
M  V30 2980 H 283.396 3.23677 -2.96867 0
M  V30 2981 H 284.002 1.81373 -3.84687 0
M  V30 2982 N 282.317 1.53212 0.369288 0
M  V30 2983 C 283.728 1.60943 0.946276 0
M  V30 2984 C 284.079 0.47452 1.90375 0
M  V30 2985 O 283.204 -0.399597 2.12679 0
M  V30 2986 C 283.799 2.91715 1.72302 0
M  V30 2987 C 282.358 3.01792 2.24941 0
M  V30 2988 C 281.505 2.56211 1.06072 0
M  V30 2989 H 284.456 1.58007 0.148198 0
M  V30 2990 H 284.477 2.79309 2.58393 0
M  V30 2991 H 283.989 3.74295 1.0259 0
M  V30 2992 H 282.09 2.23791 2.97906 0
M  V30 2993 H 282.203 4.06803 2.53077 0
M  V30 2994 H 280.567 2.10998 1.4266 0
M  V30 2995 H 281.35 3.41206 0.378639 0
M  V30 2996 N 283.795 -0.628877 1.44509 0
M  V30 2997 C 285.025 -1.41349 1.50678 0
M  V30 2998 C 285.433 -1.88745 0.131075 0
M  V30 2999 O 284.776 -1.61592 -0.87371 0
M  V30 3000 C 284.838 -2.66608 2.41165 0
M  V30 3001 C 284.502 -2.40993 3.88293 0
M  V30 3002 C 285.499 -2.0268 4.78766 0
M  V30 3003 C 283.184 -2.54563 4.33016 0
M  V30 3004 C 285.178 -1.78269 6.11963 0
M  V30 3005 C 282.865 -2.29766 5.6626 0
M  V30 3006 C 283.863 -1.91678 6.55552 0
M  V30 3007 O 283.551 -1.67158 7.86329 0
M  V30 3008 H 283.283 -0.439851 0.51333 0
M  V30 3009 H 285.837 -0.776084 1.90174 0
M  V30 3010 H 284.067 -3.32994 1.96601 0
M  V30 3011 H 285.756 -3.28615 2.38259 0
M  V30 3012 H 286.522 -1.91751 4.45485 0
M  V30 3013 H 282.401 -2.83179 3.63773 0
M  V30 3014 H 285.945 -1.48465 6.81619 0
M  V30 3015 H 281.842 -2.40306 5.99102 0
M  V30 3016 H 282.61 -1.81386 7.98149 0
M  V30 3017 N 285.273 -1.31445 -0.869486 0
M  V30 3018 C 286.519 -1.22347 -1.62489 0
M  V30 3019 C 286.874 0.216204 -1.91181 0
M  V30 3020 O 286.167 1.14977 -1.53268 0
M  V30 3021 C 286.361 -2.00145 -2.96102 0
M  V30 3022 C 286.19 -3.51531 -2.80456 0
M  V30 3023 C 284.96 -4.20882 -2.79618 0
M  V30 3024 C 287.158 -4.46471 -2.5528 0
M  V30 3025 N 285.14 -5.58421 -2.55027 0
M  V30 3026 C 286.511 -5.71682 -2.39957 0
M  V30 3027 C 288.566 -4.35892 -2.40629 0
M  V30 3028 C 287.269 -6.87511 -2.11472 0
M  V30 3029 C 289.295 -5.51505 -2.13532 0
M  V30 3030 C 288.657 -6.75707 -1.98998 0
M  V30 3031 H 284.756 -0.502815 -0.598917 0
M  V30 3032 H 287.34 -1.65639 -1.02332 0
M  V30 3033 H 285.511 -1.59221 -3.54264 0
M  V30 3034 H 287.243 -1.83063 -3.60929 0
M  V30 3035 H 283.998 -3.72857 -2.92018 0
M  V30 3036 H 284.422 -6.30841 -2.45701 0
M  V30 3037 H 289.064 -3.40533 -2.50593 0
M  V30 3038 H 286.782 -7.82897 -2.00245 0
M  V30 3039 H 290.368 -5.45238 -2.02995 0
M  V30 3040 H 289.248 -7.63655 -1.78326 0
M  V30 3041 N 286.751 1.08385 -1.14413 0
M  V30 3042 C 287.684 2.14642 -0.774871 0
M  V30 3043 C 288.662 1.60761 0.243876 0
M  V30 3044 O 289.846 1.88031 0.132883 0
M  V30 3045 C 286.973 3.38366 -0.150491 0
M  V30 3046 C 286.019 4.10997 -1.13945 0
M  V30 3047 S 286.852 4.63797 -2.67679 0
M  V30 3048 C 288.008 5.90808 -2.06631 0
M  V30 3049 H 288.241 2.45633 -1.67487 0
M  V30 3050 H 285.774 1.20498 -0.96538 0
M  V30 3051 H 287.732 4.09996 0.203334 0
M  V30 3052 H 286.393 3.05572 0.72694 0
M  V30 3053 H 285.586 4.99783 -0.65059 0
M  V30 3054 H 285.188 3.4528 -1.43727 0
M  V30 3055 H 287.48 6.62411 -1.4219 0
M  V30 3056 H 288.423 6.4439 -2.93542 0
M  V30 3057 H 288.831 5.4383 -1.51357 0
M  V30 3058 N 288.23 0.939286 1.26551 0
M  V30 3059 C 289.193 0.451987 2.24699 0
M  V30 3060 C 290.193 -0.435869 1.5478 0
M  V30 3061 O 291.383 -0.235314 1.72603 0
M  V30 3062 C 288.515 -0.348801 3.39111 0
M  V30 3063 H 289.708 1.3193 2.69322 0
M  V30 3064 H 287.261 0.721072 1.38673 0
M  V30 3065 H 287.996 -1.23444 2.99887 0
M  V30 3066 H 287.781 0.287945 3.91041 0
M  V30 3067 H 289.271 -0.679726 4.12031 0
M  V30 3068 N 289.708 -1.40897 0.706093 0
M  V30 3069 C 291.119 -1.84023 0.315052 0
M  V30 3070 C 291.47 -1.5906 -1.14866 0
M  V30 3071 O 290.595 -1.06651 -1.88293 0
M  V30 3072 C 291.19 -3.34055 0.565038 0
M  V30 3073 C 289.749 -3.7571 0.227806 0
M  V30 3074 C 288.896 -2.64204 0.842122 0
M  V30 3075 H 291.847 -1.303 0.905963 0
M  V30 3076 H 291.868 -3.80107 -0.172843 0
M  V30 3077 H 291.38 -3.52192 1.63042 0
M  V30 3078 H 289.481 -3.63172 -0.832895 0
M  V30 3079 H 289.594 -4.74103 0.690174 0
M  V30 3080 H 287.958 -2.53255 0.270893 0
M  V30 3081 H 288.741 -2.85155 1.91158 0
M  V30 3082 N 291.186 -0.45159 -1.50991 0
M  V30 3083 C 292.096 0.358431 -2.31846 0
M  V30 3084 C 293.112 1.01438 -1.41373 0
M  V30 3085 O 294.288 1.00663 -1.74439 0
M  V30 3086 C 291.353 1.43704 -3.15515 0
M  V30 3087 C 290.414 0.799742 -4.21785 0
M  V30 3088 C 289.647 1.82696 -5.01456 0
M  V30 3089 O 289.87 3.05105 -4.81941 0
M  V30 3090 O 288.804 1.40958 -5.85162 0
M  V30 3091 H 292.63 -0.302032 -3.02194 0
M  V30 3092 H 290.215 -0.213825 -1.47862 0
M  V30 3093 H 292.097 2.06227 -3.67489 0
M  V30 3094 H 290.772 2.08133 -2.47916 0
M  V30 3095 H 289.679 0.136084 -3.73852 0
M  V30 3096 H 291.012 0.198718 -4.91799 0
M  V30 3097 N 292.664 1.56529 -0.183458 0
M  V30 3098 C 293.91 1.97537 0.459036 0
M  V30 3099 C 294.243 1.06989 1.62071 0
M  V30 3100 O 293.518 0.11948 1.94133 0
M  V30 3101 C 293.801 3.47874 0.930368 0
M  V30 3102 C 293.654 4.492 -0.232317 0
M  V30 3103 C 294.973 4.01612 1.79989 0
M  V30 3104 H 292.092 0.718204 0.165383 0
M  V30 3105 H 294.734 1.88042 -0.272038 0
M  V30 3106 H 292.884 3.56095 1.55333 0
M  V30 3107 H 294.556 4.53027 -0.86972 0
M  V30 3108 H 292.799 4.24657 -0.885928 0
M  V30 3109 H 293.47 5.51823 0.139796 0
M  V30 3110 H 295.946 3.96097 1.27461 0
M  V30 3111 H 294.822 5.07195 2.09867 0
M  V30 3112 H 295.083 3.46163 2.74998 0
M  V30 3113 N 294.142 -0.090211 1.57342 0
M  V30 3114 C 295.391 -0.791531 1.8552 0
M  V30 3115 C 295.704 -1.79659 0.773441 0
M  V30 3116 O 296.91 -2.54616 0.942497 0
M  V30 3117 C 295.366 -1.45856 3.2902 0
M  V30 3118 C 294.974 -0.493017 4.45279 0
M  V30 3119 C 296.718 -2.14332 3.66418 0
M  V30 3120 C 294.625 -1.16491 5.79814 0
M  V30 3121 H 293.555 -0.299356 0.692027 0
M  V30 3122 H 296.206 -0.0445343 1.83446 0
M  V30 3123 H 294.588 -2.25318 3.2565 0
M  V30 3124 H 295.762 0.270464 4.60006 0
M  V30 3125 H 294.077 0.0863061 4.16311 0
M  V30 3126 H 296.674 -2.65344 4.64216 0
M  V30 3127 H 297.017 -2.93447 2.95287 0
M  V30 3128 H 297.55 -1.41724 3.71698 0
M  V30 3129 H 294.289 -0.41447 6.54188 0
M  V30 3130 H 293.809 -1.8997 5.68921 0
M  V30 3131 H 295.488 -1.69001 6.24538 0
M  V30 3132 N 295.62 -1.53406 -0.361157 0
M  V30 3133 C 296.583 -1.79479 -1.42548 0
M  V30 3134 C 297.583 -0.665327 -1.4639 0
M  V30 3135 O 298.773 -0.933549 -1.47073 0
M  V30 3136 C 295.905 -1.92087 -2.8163 0
M  V30 3137 H 297.098 -2.74538 -1.20701 0
M  V30 3138 H 294.651 -1.4455 -0.594546 0
M  V30 3139 H 295.386 -0.991099 -3.08784 0
M  V30 3140 H 295.171 -2.74241 -2.80239 0
M  V30 3141 H 296.661 -2.13836 -3.58697 0
M  V30 3142 N 297.098 0.621204 -1.44841 0
M  V30 3143 C 298.338 1.39201 -1.49674 0
M  V30 3144 C 298.702 1.91561 -0.129764 0
M  V30 3145 O 299.903 2.68748 -0.0527814 0
M  V30 3146 C 298.174 2.519 -2.53537 0
M  V30 3147 S 299.733 3.39916 -2.77494 0
M  V30 3148 H 296.551 0.474758 -0.529269 0
M  V30 3149 H 299.153 0.718171 -1.81831 0
M  V30 3150 H 297.857 2.11761 -3.51547 0
M  V30 3151 H 297.388 3.241 -2.22986 0
M  V30 3152 H 299.403 4.49646 -2.0984 0
M  V30 3153 N 298.576 1.31904 0.862503 0
M  V30 3154 C 299.853 1.12644 1.59908 0
M  V30 3155 C 300.233 -0.316104 2.0872 0
M  V30 3156 O 299.581 -1.31145 1.87118 0
M  V30 3157 C 299.791 2.1472 2.7513 0
M  V30 3158 C 301.139 2.47637 3.44907 0
M  V30 3159 O 302.163 2.13205 2.85346 0
M  V30 3160 O 301.022 3.06632 4.52371 0
M  V30 3161 H 298.116 0.43416 0.703871 0
M  V30 3162 H 300.662 1.43408 0.907314 0
M  V30 3163 H 299.434 3.1172 2.3653 0
M  V30 3164 H 299.057 1.84905 3.51989 0
M  V30 3165 N 300.054 -1.07777 1.14986 0
M  V30 3166 C 300.964 -2.18404 0.856546 0
M  V30 3167 C 301.98 -1.73211 -0.165485 0
M  V30 3168 O 303.156 -2.01399 0.00755219 0
M  V30 3169 C 300.221 -3.44977 0.34526 0
M  V30 3170 C 299.282 -4.0476 1.43065 0
M  V30 3171 C 298.515 -5.25291 0.943663 0
M  V30 3172 O 298.738 -5.70004 -0.212426 0
M  V30 3173 O 297.672 -5.76638 1.72547 0
M  V30 3174 H 301.498 -2.45978 1.78125 0
M  V30 3175 H 299.083 -1.17033 0.928631 0
M  V30 3176 H 300.965 -4.21348 0.0663671 0
M  V30 3177 H 299.64 -3.18965 -0.551631 0
M  V30 3178 H 298.547 -3.29949 1.76309 0
M  V30 3179 H 299.88 -4.35035 2.30229 0
M  V30 3180 N 301.532 -0.945985 -1.26051 0
M  V30 3181 C 302.48 -0.450259 -2.282 0
M  V30 3182 C 303.474 0.47497 -1.62605 0
M  V30 3183 O 304.68 0.352653 -1.76512 0
M  V30 3184 H 301.055 -0.127081 -0.741184 0
M  V30 3185 H 303.026 -1.32422 -2.67408 0
M  V30 3186 C 301.775 0.26467 -3.46691 0
M  V30 3187 H 301.098 -0.438123 -3.97392 0
M  V30 3188 H 302.538 0.575678 -4.20074 0
M  V30 3189 C 300.997 1.48416 -3.02447 0
M  V30 3190 O 301.527 2.58227 -3.07704 0
M  V30 3191 N 299.733 1.34243 -2.57735 0
M  V30 3192 H 299.28 0.448994 -2.53657 0
M  V30 3193 H 299.238 2.15957 -2.28495 0
M  V30 3194 N 303.011 1.40521 -0.713556 0
M  V30 3195 C 304.422 1.83853 -0.324807 0
M  V30 3196 C 304.773 1.59667 1.14021 0
M  V30 3197 O 303.898 1.07649 1.87725 0
M  V30 3198 C 304.493 3.33751 -0.582746 0
M  V30 3199 C 303.052 3.75584 -0.247727 0
M  V30 3200 C 302.199 2.63753 -0.856121 0
M  V30 3201 H 305.15 1.29817 -0.91286 0
M  V30 3202 H 305.171 3.80194 0.152682 0
M  V30 3203 H 304.683 3.51322 -1.64908 0
M  V30 3204 H 302.784 3.63608 0.813624 0
M  V30 3205 H 302.897 4.7373 -0.715307 0
M  V30 3206 H 301.261 2.53108 -0.28432 0
M  V30 3207 H 302.044 2.84137 -1.92668 0
M  V30 3208 N 304.489 0.459591 1.5075 0
M  V30 3209 C 305.766 -0.160371 1.94941 0
M  V30 3210 C 306.146 -1.58048 1.39943 0
M  V30 3211 O 305.494 -2.206 0.595629 0
M  V30 3212 C 305.704 -0.115432 3.48809 0
M  V30 3213 C 307.052 -0.310026 4.23467 0
M  V30 3214 O 308.076 -0.192543 3.55679 0
M  V30 3215 O 306.935 -0.546031 5.43765 0
M  V30 3216 H 304.029 -0.117925 0.818549 0
M  V30 3217 H 306.575 0.519169 1.61563 0
M  V30 3218 H 305.347 0.87652 3.81357 0
M  V30 3219 H 304.97 -0.836928 3.88692 0
M  V30 3220 N 305.967 -1.56429 0.191757 0
M  V30 3221 C 306.93 -2.17707 -0.716688 0
M  V30 3222 C 307.93 -1.13061 -1.14341 0
M  V30 3223 O 309.12 -1.38464 -1.05704 0
M  V30 3224 C 306.252 -2.77644 -1.97804 0
M  V30 3225 H 307.445 -2.99342 -0.1829 0
M  V30 3226 H 304.998 -1.56193 -0.0578566 0
M  V30 3227 H 305.733 -1.99799 -2.55443 0
M  V30 3228 H 305.518 -3.54246 -1.68083 0
M  V30 3229 H 307.008 -3.24708 -2.62592 0
M  V30 3230 N 307.445 0.0818655 -1.57387 0
M  V30 3231 C 308.673 0.796108 -1.9097 0
M  V30 3232 C 309.088 1.71626 -0.786757 0
M  V30 3233 O 308.445 1.80908 0.240513 0
M  V30 3234 C 308.496 1.59829 -3.24248 0
M  V30 3235 O 308.217 0.715131 -4.32224 0
M  V30 3236 C 309.718 2.41442 -3.7178 0
M  V30 3237 H 306.938 0.22691 -0.631469 0
M  V30 3238 H 309.482 0.0551439 -2.04426 0
M  V30 3239 H 307.637 2.29163 -3.12351 0
M  V30 3240 H 308.051 1.27205 -5.08841 0
M  V30 3241 H 309.525 2.932 -4.67694 0
M  V30 3242 H 310.002 3.2051 -3.00283 0
M  V30 3243 H 310.608 1.77283 -3.86589 0
M  V30 3244 N 308.923 1.53595 0.353017 0
M  V30 3245 C 310.153 1.74058 1.11299 0
M  V30 3246 C 310.561 0.475205 1.83135 0
M  V30 3247 O 309.904 -0.562344 1.74881 0
M  V30 3248 C 309.966 2.85994 2.17825 0
M  V30 3249 C 309.63 4.25923 1.65647 0
M  V30 3250 C 310.627 5.07829 1.11383 0
M  V30 3251 C 308.312 4.72377 1.7078 0
M  V30 3252 C 310.306 6.34285 0.629439 0
M  V30 3253 C 307.993 5.98808 1.21953 0
M  V30 3254 C 308.991 6.79594 0.681265 0
M  V30 3255 O 308.679 8.03651 0.200248 0
M  V30 3256 H 308.411 0.585327 0.338183 0
M  V30 3257 H 310.965 2.01186 0.413927 0
M  V30 3258 H 309.195 2.54368 2.91262 0
M  V30 3259 H 310.884 2.94515 2.79313 0
M  V30 3260 H 311.65 4.73107 1.06746 0
M  V30 3261 H 307.529 4.0956 2.11617 0
M  V30 3262 H 311.073 6.97288 0.208636 0
M  V30 3263 H 306.97 6.33026 1.26287 0
M  V30 3264 H 307.738 8.1788 0.318416 0
M  V30 3265 N 310.401 -0.613514 1.45168 0
M  V30 3266 C 311.678 -1.37263 1.39349 0
M  V30 3267 C 312.058 -2.11012 0.0610848 0
M  V30 3268 O 311.406 -2.07502 -0.956825 0
M  V30 3269 C 311.616 -2.3244 2.60332 0
M  V30 3270 C 312.964 -2.9523 3.05163 0
M  V30 3271 O 313.988 -2.42762 2.60663 0
M  V30 3272 O 312.847 -3.90454 3.82372 0
M  V30 3273 H 309.941 -0.615188 0.552696 0
M  V30 3274 H 312.487 -0.637097 1.57287 0
M  V30 3275 H 311.259 -1.77164 3.48896 0
M  V30 3276 H 310.882 -3.13383 2.44698 0
M  V30 3277 N 311.879 -1.3236 -0.855495 0
M  V30 3278 C 313.109 -1.25688 -1.6397 0
M  V30 3279 C 313.517 0.177592 -1.88365 0
M  V30 3280 O 312.86 1.12485 -1.45234 0
M  V30 3281 C 312.922 -1.94602 -3.02275 0
M  V30 3282 C 312.586 -3.43937 -3.00926 0
M  V30 3283 C 313.583 -4.39435 -2.77835 0
M  V30 3284 C 311.268 -3.85858 -3.21588 0
M  V30 3285 C 313.262 -5.74829 -2.75409 0
M  V30 3286 C 310.949 -5.21361 -3.18789 0
M  V30 3287 C 311.947 -6.15658 -2.95727 0
M  V30 3288 O 311.635 -7.48681 -2.928 0
M  V30 3289 H 311.367 -0.434972 -0.51747 0
M  V30 3290 H 313.921 -1.75023 -1.075 0
M  V30 3291 H 312.151 -1.39836 -3.60531 0
M  V30 3292 H 313.84 -1.81651 -3.62985 0
M  V30 3293 H 314.606 -4.08374 -2.6164 0
M  V30 3294 H 310.485 -3.12883 -3.38564 0
M  V30 3295 H 314.029 -6.48404 -2.57328 0
M  V30 3296 H 309.926 -5.52052 -3.34528 0
M  V30 3297 H 310.694 -7.5803 -3.0876 0
M  V30 3298 N 313.357 1.07166 -1.15556 0
M  V30 3299 C 314.773 1.31899 -0.898603 0
M  V30 3300 C 314.973 1.96333 0.453383 0
M  V30 3301 O 314.029 2.22438 1.19489 0
M  V30 3302 C 315.342 2.20826 -2.04099 0
M  V30 3303 C 316.89 2.34269 -2.07574 0
M  V30 3304 C 317.365 3.26546 -3.21141 0
M  V30 3305 N 318.856 3.34127 -3.20801 0
M  V30 3306 C 319.591 4.05595 -4.05315 0
M  V30 3307 N 319.087 4.79661 -4.99897 0
M  V30 3308 N 320.88 4.01555 -3.93332 0
M  V30 3309 H 313.031 0.637302 -2.02613 0
M  V30 3310 H 315.294 0.343468 -0.883591 0
M  V30 3311 H 315 1.80744 -3.01703 0
M  V30 3312 H 314.874 3.21364 -1.97496 0
M  V30 3313 H 317.261 2.73603 -1.10568 0
M  V30 3314 H 317.342 1.33429 -2.18244 0
M  V30 3315 H 316.986 2.87931 -4.184 0
M  V30 3316 H 316.916 4.27345 -3.07708 0
M  V30 3317 H 319.407 2.81336 -2.52306 0
M  V30 3318 H 319.72 5.31694 -5.60822 0
M  V30 3319 H 318.065 4.78671 -5.03884 0
M  V30 3320 H 321.256 3.42806 -3.18751 0
M  V30 3321 H 321.429 4.56987 -4.5942 0
M  V30 3322 N 314.835 0.952656 1.25548 0
M  V30 3323 C 316.06 0.623025 1.97821 0
M  V30 3324 C 316.485 -0.7976 1.70352 0
M  V30 3325 O 315.843 -1.53905 0.958283 0
M  V30 3326 C 315.891 0.885532 3.49558 0
M  V30 3327 O 314.995 -0.0366641 4.12384 0
M  V30 3328 H 314.336 0.237082 0.620232 0
M  V30 3329 H 316.866 1.27871 1.59719 0
M  V30 3330 H 316.876 0.811009 3.99858 0
M  V30 3331 H 315.551 1.92094 3.6888 0
M  V30 3332 H 314.128 0.0898954 3.72792 0
M  V30 3333 N 316.313 -1.40141 0.720998 0
M  V30 3334 C 317.59 -1.94677 0.189757 0
M  V30 3335 C 317.97 -1.65879 -1.30566 0
M  V30 3336 O 317.318 -0.979391 -2.06447 0
M  V30 3337 C 317.528 -3.45279 0.508304 0
M  V30 3338 C 318.876 -4.22209 0.449934 0
M  V30 3339 O 319.9 -3.53413 0.444677 0
M  V30 3340 O 318.759 -5.44788 0.432189 0
M  V30 3341 H 315.853 -0.826459 0.0299026 0
M  V30 3342 H 318.399 -1.49719 0.7989 0
M  V30 3343 H 317.171 -3.59619 1.54239 0
M  V30 3344 H 316.794 -3.97386 -0.130525 0
M  V30 3345 N 317.792 -0.46758 -1.50504 0
M  V30 3346 C 319.041 0.0902868 -2.01498 0
M  V30 3347 C 319.354 1.411 -1.35463 0
M  V30 3348 O 320.56 2.0536 -1.77594 0
M  V30 3349 C 319.016 0.21142 -3.59278 0
M  V30 3350 C 318.624 -1.10065 -4.34269 0
M  V30 3351 C 320.368 0.721433 -4.18325 0
M  V30 3352 C 318.275 -0.943505 -5.83825 0
M  V30 3353 H 317.205 0.037517 -0.753066 0
M  V30 3354 H 319.856 -0.601943 -1.73346 0
M  V30 3355 H 318.238 0.967352 -3.84003 0
M  V30 3356 H 319.412 -1.86726 -4.21272 0
M  V30 3357 H 317.727 -1.5415 -3.86816 0
M  V30 3358 H 320.324 0.85598 -5.27804 0
M  V30 3359 H 320.667 1.71186 -3.79475 0
M  V30 3360 H 321.2 0.0229843 -3.97793 0
M  V30 3361 H 317.939 -1.90719 -6.27141 0
M  V30 3362 H 317.459 -0.217213 -5.99407 0
M  V30 3363 H 319.138 -0.608715 -6.4413 0
M  V30 3364 N 319.27 1.56325 -0.20005 0
M  V30 3365 C 320.516 1.98772 0.431408 0
M  V30 3366 C 320.871 1.0849 1.58895 0
M  V30 3367 O 320.164 0.130331 1.91156 0
M  V30 3368 C 320.358 3.4495 0.935103 0
M  V30 3369 C 320.187 4.49371 -0.172096 0
M  V30 3370 C 318.957 5.0134 -0.631377 0
M  V30 3371 C 321.155 5.04822 -0.982806 0
M  V30 3372 N 319.137 5.89433 -1.71588 0
M  V30 3373 C 320.508 5.89632 -1.91661 0
M  V30 3374 C 322.563 4.87242 -1.02467 0
M  V30 3375 C 321.266 6.58741 -2.88881 0
M  V30 3376 C 323.292 5.57094 -1.98494 0
M  V30 3377 C 322.654 6.41655 -2.90617 0
M  V30 3378 H 318.753 0.771922 0.125144 0
M  V30 3379 H 321.337 1.92266 -0.306883 0
M  V30 3380 H 319.508 3.51946 1.64282 0
M  V30 3381 H 321.24 3.74354 1.53758 0
M  V30 3382 H 317.995 4.73071 -0.223827 0
M  V30 3383 H 318.419 6.38182 -2.25948 0
M  V30 3384 H 323.061 4.21538 -0.326408 0
M  V30 3385 H 320.779 7.23641 -3.5968 0
M  V30 3386 H 324.365 5.45466 -2.0238 0
M  V30 3387 H 323.245 6.94755 -3.63711 0
M  V30 3388 N 320.748 -0.0735177 1.57428 0
M  V30 3389 C 321.973 -0.789787 1.91774 0
M  V30 3390 C 322.398 -1.70413 0.796306 0
M  V30 3391 O 321.756 -1.79555 -0.250961 0
M  V30 3392 C 321.804 -1.5609 3.25067 0
M  V30 3393 O 320.908 -2.67144 3.14178 0
M  V30 3394 H 320.249 -0.215582 0.628029 0
M  V30 3395 H 322.779 -0.0422781 2.04556 0
M  V30 3396 H 322.789 -1.94052 3.58898 0
M  V30 3397 H 321.464 -0.890015 4.06265 0
M  V30 3398 H 320.041 -2.32052 2.91901 0
M  V30 3399 N 322.226 -1.5378 -0.344866 0
M  V30 3400 C 323.156 -1.84662 -1.42906 0
M  V30 3401 C 324.137 -0.701648 -1.54955 0
M  V30 3402 O 325.322 -0.953438 -1.69184 0
M  V30 3403 C 322.452 -2.05503 -2.79974 0
M  V30 3404 C 321.406 -3.21318 -2.82734 0
M  V30 3405 C 320.732 -3.2749 -4.22675 0
M  V30 3406 C 322.032 -4.59456 -2.48389 0
M  V30 3407 H 323.726 -2.75461 -1.17311 0
M  V30 3408 H 321.272 -1.32542 -0.562896 0
M  V30 3409 H 323.225 -2.25691 -3.55867 0
M  V30 3410 H 321.949 -1.11434 -3.07002 0
M  V30 3411 H 320.608 -3.00984 -2.09294 0
M  V30 3412 H 320.256 -2.31019 -4.4681 0
M  V30 3413 H 319.956 -4.05316 -4.25433 0
M  V30 3414 H 321.48 -3.49887 -5.00412 0
M  V30 3415 H 322.894 -4.79667 -3.13995 0
M  V30 3416 H 321.291 -5.39675 -2.62432 0
M  V30 3417 H 322.361 -4.63155 -1.4358 0
M  V30 3418 N 323.704 0.605807 -1.45491 0
M  V30 3419 C 324.952 1.36207 -1.49305 0
M  V30 3420 C 325.273 1.94519 -0.136863 0
M  V30 3421 O 324.543 1.77261 0.833983 0
M  V30 3422 H 323.123 0.50565 -0.549843 0
M  V30 3423 H 325.785 0.711239 -1.81459 0
M  V30 3424 H 324.881 2.18058 -2.23287 0
M  V30 3425 N 325.182 1.32811 0.848464 0
M  V30 3426 C 326.431 1.23075 1.59798 0
M  V30 3427 C 326.744 -0.204419 1.94529 0
M  V30 3428 O 327.95 -0.423701 2.68173 0
M  V30 3429 C 326.406 2.15594 2.88179 0
M  V30 3430 C 326.014 3.64228 2.60849 0
M  V30 3431 C 327.758 2.14709 3.66197 0
M  V30 3432 C 325.665 4.48689 3.85269 0
M  V30 3433 H 324.595 0.457091 0.599653 0
M  V30 3434 H 327.246 1.57813 0.936342 0
M  V30 3435 H 325.628 1.73778 3.55833 0
M  V30 3436 H 326.802 4.14424 2.01467 0
M  V30 3437 H 325.117 3.67306 1.96151 0
M  V30 3438 H 327.714 2.75046 4.58534 0
M  V30 3439 H 328.057 1.13966 4.00397 0
M  V30 3440 H 328.59 2.54837 3.05455 0
M  V30 3441 H 325.329 5.5027 3.56207 0
M  V30 3442 H 324.849 4.03241 4.44024 0
M  V30 3443 H 326.528 4.62006 4.52946 0
M  V30 3444 N 326.66 -1.06551 1.16123 0
M  V30 3445 C 327.888 -1.83005 0.965237 0
M  V30 3446 C 328.303 -1.82423 -0.486542 0
M  V30 3447 O 327.66 -1.24152 -1.33763 0
M  V30 3448 C 327.711 -3.29733 1.48183 0
M  V30 3449 O 327.432 -3.30416 2.87674 0
M  V30 3450 C 328.933 -4.22926 1.32848 0
M  V30 3451 H 326.153 -0.577118 0.342309 0
M  V30 3452 H 328.697 -1.3445 1.54089 0
M  V30 3453 H 326.852 -3.75609 0.948517 0
M  V30 3454 H 327.266 -4.22149 3.11272 0
M  V30 3455 H 328.74 -5.23916 1.73827 0
M  V30 3456 H 329.217 -4.38346 0.273692 0
M  V30 3457 H 329.823 -3.82894 1.85127 0
M  V30 3458 N 328.138 -0.959301 -1.25041 0
M  V30 3459 C 329.101 -0.487677 -2.23952 0
M  V30 3460 C 330.101 0.41119 -1.55454 0
M  V30 3461 O 331.291 0.207825 -1.72956 0
M  V30 3462 C 328.423 0.294807 -3.39623 0
M  V30 3463 H 329.616 -1.36198 -2.67189 0
M  V30 3464 H 327.169 -0.743042 -1.37508 0
M  V30 3465 H 327.904 1.18658 -3.01813 0
M  V30 3466 H 327.689 -0.35012 -3.90534 0
M  V30 3467 H 329.179 0.614089 -4.1306 0
M  V30 3468 N 329.616 1.39756 -0.72842 0
M  V30 3469 C 330.865 1.99879 -0.270407 0
M  V30 3470 C 331.178 1.58449 1.14688 0
M  V30 3471 O 332.384 2.11362 1.70407 0
M  V30 3472 C 330.84 3.57292 -0.43252 0
M  V30 3473 C 330.448 4.07688 -1.85727 0
M  V30 3474 C 332.192 4.24485 -0.0359507 0
M  V30 3475 C 330.099 5.5765 -1.96928 0
M  V30 3476 H 329.029 0.747689 -0.0973472 0
M  V30 3477 H 331.68 1.59837 -0.901355 0
M  V30 3478 H 330.062 3.95097 0.267219 0
M  V30 3479 H 331.236 3.81231 -2.58843 0
M  V30 3480 H 329.551 3.53135 -2.20646 0
M  V30 3481 H 332.148 5.34609 -0.0987484 0
M  V30 3482 H 332.491 4.03915 1.00787 0
M  V30 3483 H 333.024 3.9183 -0.686604 0
M  V30 3484 H 329.763 5.8309 -2.99476 0
M  V30 3485 H 329.283 5.8593 -1.28241 0
M  V30 3486 H 330.962 6.22957 -1.74737 0
M  V30 3487 N 331.094 0.475555 1.50254 0
M  V30 3488 C 332.004 -0.321501 2.32387 0
M  V30 3489 C 333.02 -0.991755 1.42969 0
M  V30 3490 O 334.196 -0.978747 1.76018 0
M  V30 3491 C 331.261 -1.38667 3.17762 0
M  V30 3492 C 330.322 -0.732538 4.23004 0
M  V30 3493 C 329.555 -1.74695 5.04299 0
M  V30 3494 O 329.778 -2.97399 4.86734 0
M  V30 3495 O 328.712 -1.31631 5.8733 0
M  V30 3496 H 332.538 0.350071 3.01676 0
M  V30 3497 H 330.123 0.237321 1.47503 0
M  V30 3498 H 332.005 -2.00354 3.70724 0
M  V30 3499 H 330.68 -2.04163 2.51196 0
M  V30 3500 H 329.587 -0.0765902 3.74022 0
M  V30 3501 H 330.92 -0.120452 4.92053 0
M  V30 3502 N 332.573 -1.56217 0.208337 0
M  V30 3503 C 333.506 -2.15633 -0.746842 0
M  V30 3504 C 334.484 -1.09685 -1.20034 0
M  V30 3505 O 335.668 -1.3787 -1.28547 0
M  V30 3506 C 332.795 -2.72594 -2.01023 0
M  V30 3507 C 331.841 -3.91251 -1.69779 0
M  V30 3508 S 332.674 -5.28962 -0.834209 0
M  V30 3509 C 333.83 -5.89353 -2.10745 0
M  V30 3510 H 334.063 -2.96315 -0.241789 0
M  V30 3511 H 331.596 -1.54398 -0.00682183 0
M  V30 3512 H 333.554 -3.06053 -2.73572 0
M  V30 3513 H 332.215 -1.91929 -2.48641 0
M  V30 3514 H 331.408 -4.29562 -2.63614 0
M  V30 3515 H 331.01 -3.58869 -1.05303 0
M  V30 3516 H 333.302 -6.04522 -3.05875 0
M  V30 3517 H 334.245 -6.85661 -1.76845 0
M  V30 3518 H 334.653 -5.1807 -2.24196 0
M  V30 3519 N 334.051 0.0651679 -1.57465 0
M  V30 3520 C 335.014 1.06117 -2.03155 0
M  V30 3521 C 336.014 1.31204 -0.929632 0
M  V30 3522 O 337.204 1.26813 -1.19432 0
M  V30 3523 C 334.336 2.4032 -2.41783 0
M  V30 3524 H 335.529 0.667231 -2.92383 0
M  V30 3525 H 333.082 0.311075 -1.53173 0
M  V30 3526 H 333.817 2.84532 -1.55601 0
M  V30 3527 H 333.602 2.23451 -3.22199 0
M  V30 3528 H 335.092 3.11898 -2.77685 0
M  V30 3529 N 335.529 1.53961 0.336706 0
M  V30 3530 C 336.439 1.85432 1.43708 0
M  V30 3531 C 337.455 0.745053 1.57242 0
M  V30 3532 O 338.631 1.03804 1.72588 0
M  V30 3533 C 335.696 2.06349 2.78605 0
M  V30 3534 C 334.757 3.30191 2.74358 0
M  V30 3535 C 333.99 3.50101 4.02822 0
M  V30 3536 O 334.213 2.7371 5.00439 0
M  V30 3537 O 333.147 4.43547 4.06878 0
M  V30 3538 H 336.973 2.78975 1.20028 0
M  V30 3539 H 334.558 1.39701 0.52952 0
M  V30 3540 H 336.44 2.21513 3.58483 0
M  V30 3541 H 335.115 1.15995 3.02203 0
M  V30 3542 H 334.022 3.20425 1.93078 0
M  V30 3543 H 335.355 4.2056 2.55715 0
M  V30 3544 N 337.007 -0.598083 1.45811 0
M  V30 3545 C 338.255 -1.35413 1.50026 0
M  V30 3546 C 338.576 -1.94444 0.147177 0
M  V30 3547 O 337.846 -1.77701 -0.824571 0
M  V30 3548 H 336.426 -0.502727 0.552517 0
M  V30 3549 H 339.088 -0.701606 1.81834 0
M  V30 3550 H 338.184 -2.16871 2.2444 0
M  V30 3551 N 338.485 -1.33259 -0.841409 0
M  V30 3552 C 339.448 -1.23221 -1.9326 0
M  V30 3553 C 340.448 -0.151895 -1.60081 0
M  V30 3554 O 341.638 -0.403246 -1.69468 0
M  V30 3555 C 338.77 -0.898123 -3.28856 0
M  V30 3556 H 339.963 -2.2021 -2.03587 0
M  V30 3557 H 337.516 -1.17281 -1.03319 0
M  V30 3558 H 338.251 0.0693841 -3.24226 0
M  V30 3559 H 338.036 -1.67934 -3.54317 0
M  V30 3560 H 339.526 -0.852563 -4.08805 0
M  V30 3561 N 339.963 1.05934 -1.16686 0
M  V30 3562 C 341.374 1.60263 -0.957745 0
M  V30 3563 C 341.725 1.89789 0.49745 0
M  V30 3564 O 340.85 1.67401 1.37135 0
M  V30 3565 C 341.445 2.91172 -1.73218 0
M  V30 3566 C 340.004 3.42188 -1.56794 0
M  V30 3567 C 339.151 2.16028 -1.73859 0
M  V30 3568 H 342.102 0.888392 -1.31504 0
M  V30 3569 H 342.123 3.60744 -1.21014 0
M  V30 3570 H 341.635 2.6965 -2.79124 0
M  V30 3571 H 339.736 3.68762 -0.533437 0
M  V30 3572 H 339.849 4.17273 -2.35414 0
M  V30 3573 H 338.213 2.26426 -1.16633 0
M  V30 3574 H 338.996 1.96985 -2.81161 0
M  V30 3575 N 341.441 0.965919 1.2453 0
M  V30 3576 C 342.852 0.665929 1.7442 0
M  V30 3577 C 343.203 -0.818407 1.78316 0
M  V30 3578 O 342.328 -1.64037 1.41141 0
M  V30 3579 C 342.923 1.20211 3.16757 0
M  V30 3580 C 341.482 0.952059 3.6416 0
M  V30 3581 C 340.629 1.33848 2.42858 0
M  V30 3582 H 343.58 1.14144 1.10258 0
M  V30 3583 H 343.601 0.567544 3.76244 0
M  V30 3584 H 343.113 2.28244 3.13889 0
M  V30 3585 H 341.214 -0.112821 3.72429 0
M  V30 3586 H 341.327 1.59645 4.51719 0
M  V30 3587 H 339.691 0.756864 2.43195 0
M  V30 3588 H 340.474 2.42827 2.42673 0
M  V30 3589 N 342.919 -1.39368 0.735821 0
M  V30 3590 C 343.849 -2.33234 0.111506 0
M  V30 3591 C 344.83 -1.53954 -0.723334 0
M  V30 3592 O 346.015 -1.82344 -0.668147 0
M  V30 3593 C 343.145 -3.38057 -0.795917 0
M  V30 3594 C 342.099 -4.2795 -0.065172 0
M  V30 3595 C 341.425 -5.23479 -1.08967 0
M  V30 3596 C 342.725 -5.10741 1.09273 0
M  V30 3597 H 344.419 -2.85692 0.895571 0
M  V30 3598 H 341.965 -1.37364 0.432109 0
M  V30 3599 H 343.918 -4.02675 -1.24221 0
M  V30 3600 H 342.642 -2.8404 -1.61211 0
M  V30 3601 H 341.301 -3.64813 0.361511 0
M  V30 3602 H 340.949 -4.65758 -1.89944 0
M  V30 3603 H 340.649 -5.84472 -0.605489 0
M  V30 3604 H 342.173 -5.90974 -1.53565 0
M  V30 3605 H 343.587 -5.68699 0.724841 0
M  V30 3606 H 341.984 -5.8088 1.50659 0
M  V30 3607 H 343.054 -4.45525 1.91404 0
M  V30 3608 N 344.397 -0.483516 -1.5 0
M  V30 3609 C 345.637 0.0657469 -2.04294 0
M  V30 3610 C 346.001 1.35869 -1.35659 0
M  V30 3611 O 347.202 1.99111 -1.80578 0
M  V30 3612 C 345.473 0.232758 -3.56641 0
M  V30 3613 S 347.032 0.738788 -4.32536 0
M  V30 3614 H 343.85 0.0100755 -0.710929 0
M  V30 3615 H 346.452 -0.653494 -1.84254 0
M  V30 3616 H 345.156 -0.713847 -4.04144 0
M  V30 3617 H 344.687 0.977751 -3.81056 0
M  V30 3618 H 346.702 2.01048 -4.53645 0
M  V30 3619 N 345.875 1.56104 -0.216619 0
M  V30 3620 C 347.152 1.89988 0.465165 0
M  V30 3621 C 347.532 1.13326 1.78102 0
M  V30 3622 O 346.88 0.241033 2.27225 0
M  V30 3623 C 347.09 3.42646 0.662939 0
M  V30 3624 C 348.438 4.13311 0.972602 0
M  V30 3625 O 349.462 3.48217 0.749901 0
M  V30 3626 O 348.321 5.28396 1.39499 0
M  V30 3627 H 345.415 0.78979 0.245276 0
M  V30 3628 H 347.961 1.67721 -0.258436 0
M  V30 3629 H 346.733 3.90399 -0.26543 0
M  V30 3630 H 346.356 3.70677 1.43821 0
M  V30 3631 N 347.353 -0.0568162 1.57498 0
M  V30 3632 C 348.286 -1.09817 2.00039 0
M  V30 3633 C 349.264 -1.3674 0.879819 0
M  V30 3634 O 350.448 -1.49863 1.14338 0
M  V30 3635 C 347.575 -2.43924 2.34986 0
M  V30 3636 C 346.621 -2.33039 3.57204 0
M  V30 3637 S 347.454 -1.7102 5.07457 0
M  V30 3638 C 348.61 -3.06674 5.45621 0
M  V30 3639 H 348.843 -0.735701 2.88053 0
M  V30 3640 H 346.376 -0.265871 1.52094 0
M  V30 3641 H 348.334 -3.2106 2.55795 0
M  V30 3642 H 346.995 -2.77327 1.47474 0
M  V30 3643 H 346.188 -3.31973 3.79223 0
M  V30 3644 H 345.79 -1.64043 3.36104 0
M  V30 3645 H 348.082 -4.03 5.44608 0
M  V30 3646 H 349.025 -2.8942 6.46252 0
M  V30 3647 H 349.433 -3.07969 4.73091 0
M  V30 3648 N 348.832 -1.54138 -0.328536 0
M  V30 3649 C 349.782 -1.79557 -1.4051 0
M  V30 3650 C 350.766 -0.651373 -1.47126 0
M  V30 3651 O 351.958 -0.911226 -1.51742 0
M  V30 3652 C 349.087 -2.02196 -2.77438 0
M  V30 3653 C 348.173 -3.22724 -2.75155 0
M  V30 3654 N 348.564 -4.43881 -2.42494 0
M  V30 3655 C 346.862 -3.24196 -3.06289 0
M  V30 3656 C 347.563 -5.25797 -2.48822 0
M  V30 3657 N 346.539 -4.62862 -2.8506 0
M  V30 3658 H 350.341 -2.70814 -1.1418 0
M  V30 3659 H 347.855 -1.53265 -0.536991 0
M  V30 3660 H 349.852 -2.18546 -3.55026 0
M  V30 3661 H 348.512 -1.12191 -3.04702 0
M  V30 3662 H 349.523 -4.70969 -2.15428 0
M  V30 3663 H 346.2 -2.44208 -3.38627 0
M  V30 3664 H 347.59 -6.32535 -2.26603 0
M  V30 3665 N 350.31 0.590341 -1.46126 0
M  V30 3666 C 351.721 1.17243 -1.45296 0
M  V30 3667 C 352.072 1.95281 -0.189723 0
M  V30 3668 O 351.197 2.04502 0.707674 0
M  V30 3669 C 351.792 2.13284 -2.6324 0
M  V30 3670 C 350.351 2.66832 -2.65476 0
M  V30 3671 C 349.498 1.42557 -2.3785 0
M  V30 3672 H 352.449 0.378692 -1.54116 0
M  V30 3673 H 352.47 2.96619 -2.38323 0
M  V30 3674 H 351.982 1.56459 -3.55165 0
M  V30 3675 H 350.083 3.27548 -1.77603 0
M  V30 3676 H 350.196 3.10088 -3.65215 0
M  V30 3677 H 348.56 1.72107 -1.87753 0
M  V30 3678 H 349.343 0.875741 -3.31942 0
M  V30 3679 N 351.788 1.33704 0.83433 0
M  V30 3680 C 352.721 1.18675 1.94914 0
M  V30 3681 C 353.699 0.0811145 1.62398 0
M  V30 3682 O 354.883 0.244186 1.86912 0
M  V30 3683 C 352.01 0.821231 3.28593 0
M  V30 3684 C 351.056 1.93501 3.80079 0
M  V30 3685 S 351.889 3.54671 4.01209 0
M  V30 3686 C 353.045 3.20136 5.37833 0
M  V30 3687 H 353.278 2.13043 2.07364 0
M  V30 3688 H 350.811 1.18598 0.988624 0
M  V30 3689 H 352.769 0.617123 4.05835 0
M  V30 3690 H 351.43 -0.103927 3.13928 0
M  V30 3691 H 350.623 1.63273 4.76821 0
M  V30 3692 H 350.225 2.09601 3.09747 0
M  V30 3693 H 352.517 2.71242 6.20833 0
M  V30 3694 H 353.46 4.15975 5.73036 0
M  V30 3695 H 353.868 2.56613 5.02802 0
M  V30 3696 N 353.266 -1.05314 1.17247 0
M  V30 3697 C 354.682 -1.30452 0.919473 0
M  V30 3698 C 354.882 -1.9703 -0.42209 0
M  V30 3699 O 353.938 -2.24311 -1.15935 0
M  V30 3700 C 355.251 -2.17551 2.07586 0
M  V30 3701 C 356.799 -2.30937 2.11275 0
M  V30 3702 C 357.274 -3.21396 3.26296 0
M  V30 3703 N 358.765 -3.28981 3.26076 0
M  V30 3704 C 359.5 -3.99095 4.11716 0
M  V30 3705 N 358.996 -4.71648 5.07465 0
M  V30 3706 N 360.789 -3.95247 3.9967 0
M  V30 3707 H 352.94 -0.604988 2.03602 0
M  V30 3708 H 355.203 -0.329368 0.888944 0
M  V30 3709 H 354.909 -1.75921 3.0454 0
M  V30 3710 H 354.783 -3.18182 2.02584 0
M  V30 3711 H 357.17 -2.71809 1.14907 0
M  V30 3712 H 357.251 -1.2994 2.20339 0
M  V30 3713 H 356.895 -2.81238 4.22927 0
M  V30 3714 H 356.825 -4.22395 3.14467 0
M  V30 3715 H 359.316 -2.77286 2.5675 0
M  V30 3716 H 359.629 -5.22705 5.6921 0
M  V30 3717 H 357.974 -4.70594 5.11435 0
M  V30 3718 H 361.165 -3.37691 3.24164 0
M  V30 3719 H 361.338 -4.4962 4.66632 0
M  V30 3720 N 354.744 -0.972509 -1.24016 0
M  V30 3721 C 355.707 -0.511403 -2.23422 0
M  V30 3722 C 356.707 0.394679 -1.55881 0
M  V30 3723 O 357.897 0.189469 -1.73167 0
M  V30 3724 C 355.029 0.258769 -3.39916 0
M  V30 3725 H 356.222 -1.39024 -2.6573 0
M  V30 3726 H 353.775 -0.757585 -1.36713 0
M  V30 3727 H 354.51 1.1545 -3.03054 0
M  V30 3728 H 354.295 -0.391522 -3.9014 0
M  V30 3729 H 355.785 0.570244 -4.13688 0
M  V30 3730 N 356.222 1.38976 -0.743202 0
M  V30 3731 C 357.152 2.33171 -0.123873 0
M  V30 3732 C 358.133 1.54336 0.71516 0
M  V30 3733 O 359.318 1.82696 0.658467 0
M  V30 3734 C 356.448 3.38474 0.777978 0
M  V30 3735 C 355.402 4.27979 0.0424758 0
M  V30 3736 C 354.728 5.2405 1.06189 0
M  V30 3737 C 356.028 5.10155 -1.1198 0
M  V30 3738 H 357.722 2.85213 -0.910709 0
M  V30 3739 H 355.268 1.37133 -0.439388 0
M  V30 3740 H 357.221 4.03328 1.22084 0
M  V30 3741 H 355.945 2.84891 1.59702 0
M  V30 3742 H 354.604 3.64616 -0.380853 0
M  V30 3743 H 354.252 4.66758 1.87472 0
M  V30 3744 H 353.952 5.84785 0.574485 0
M  V30 3745 H 355.476 5.9178 1.50428 0
M  V30 3746 H 356.89 5.68307 -0.75499 0
M  V30 3747 H 355.287 5.80073 -1.53738 0
M  V30 3748 H 356.357 4.44504 -1.93764 0
M  V30 3749 N 357.7 0.491464 1.49741 0
M  V30 3750 C 358.947 -0.0564256 2.02421 0
M  V30 3751 C 359.275 -1.37872 1.37192 0
M  V30 3752 O 358.53 -1.89375 0.493508 0
M  V30 3753 C 358.829 -0.267329 3.56399 0
M  V30 3754 C 358.495 0.975775 4.40215 0
M  V30 3755 C 357.157 1.31655 4.62839 0
M  V30 3756 C 359.509 1.80251 4.89039 0
M  V30 3757 C 356.837 2.48375 5.31532 0
M  V30 3758 C 359.189 2.96116 5.59015 0
M  V30 3759 C 357.853 3.30585 5.79888 0
M  V30 3760 H 357.123 -0.0206476 0.740712 0
M  V30 3761 H 359.77 0.649686 1.80143 0
M  V30 3762 H 358.075 -1.05588 3.77304 0
M  V30 3763 H 359.772 -0.705549 3.94744 0
M  V30 3764 H 356.362 0.700315 4.2284 0
M  V30 3765 H 360.546 1.55239 4.71396 0
M  V30 3766 H 355.802 2.7533 5.45897 0
M  V30 3767 H 359.976 3.60509 5.95824 0
M  V30 3768 H 357.603 4.21132 6.32892 0
M  V30 3769 N 359.178 -1.55987 0.224894 0
M  V30 3770 C 360.108 -2.23426 -0.678457 0
M  V30 3771 C 361.089 -1.20709 -1.19847 0
M  V30 3772 O 362.274 -1.49304 -1.24186 0
M  V30 3773 C 359.404 -2.91676 -1.88527 0
M  V30 3774 C 358.358 -4.00893 -1.49896 0
M  V30 3775 C 357.684 -4.56455 -2.78483 0
M  V30 3776 C 358.984 -5.17769 -0.686461 0
M  V30 3777 H 360.678 -2.99175 -0.116173 0
M  V30 3778 H 358.224 -1.43897 -0.054436 0
M  V30 3779 H 360.177 -3.37547 -2.5227 0
M  V30 3780 H 358.901 -2.1338 -2.47258 0
M  V30 3781 H 357.56 -3.55758 -0.884985 0
M  V30 3782 H 357.208 -3.74886 -3.35365 0
M  V30 3783 H 356.908 -5.30169 -2.53368 0
M  V30 3784 H 358.432 -5.05047 -3.43162 0
M  V30 3785 H 359.846 -5.60001 -1.22767 0
M  V30 3786 H 358.243 -5.97735 -0.532259 0
M  V30 3787 H 359.313 -4.83932 0.306196 0
M  V30 3788 N 360.656 0.0484629 -1.57525 0
M  V30 3789 C 361.905 0.742065 -1.87553 0
M  V30 3790 C 362.218 1.77545 -0.820802 0
M  V30 3791 O 363.424 2.52027 -1.00967 0
M  V30 3792 C 361.88 1.37081 -3.32771 0
M  V30 3793 C 361.488 0.374786 -4.4643 0
M  V30 3794 C 363.232 2.04542 -3.71972 0
M  V30 3795 C 361.139 1.01077 -5.82698 0
M  V30 3796 H 360.069 0.280903 -0.699721 0
M  V30 3797 H 362.72 -0.00411877 -1.835 0
M  V30 3798 H 361.102 2.16605 -3.31509 0
M  V30 3799 H 362.276 -0.392331 -4.59127 0
M  V30 3800 H 360.591 -0.196653 -4.15935 0
M  V30 3801 H 363.188 2.52943 -4.71088 0
M  V30 3802 H 363.531 2.85515 -3.02964 0
M  V30 3803 H 364.064 1.31819 -3.75325 0
M  V30 3804 H 360.803 0.240878 -6.55057 0
M  V30 3805 H 360.323 1.74819 -5.73758 0
M  V30 3806 H 362.002 1.52383 -6.28799 0
M  V30 3807 N 362.134 1.5431 0.320358 0
M  V30 3808 C 363.545 1.63872 0.894594 0
M  V30 3809 C 363.896 0.534847 1.88769 0
M  V30 3810 O 363.021 -0.331732 2.13842 0
M  V30 3811 C 363.616 2.97049 1.62934 0
M  V30 3812 C 362.175 3.08796 2.15226 0
M  V30 3813 C 361.322 2.59456 0.978671 0
M  V30 3814 H 364.273 1.58398 0.0978544 0
M  V30 3815 H 364.294 2.87388 2.49376 0
M  V30 3816 H 363.806 3.7737 0.906302 0
M  V30 3817 H 361.907 2.33156 2.90636 0
M  V30 3818 H 362.02 4.14649 2.40006 0
M  V30 3819 H 360.384 2.1543 1.35875 0
M  V30 3820 H 361.167 3.42237 0.269895 0
M  V30 3821 N 363.613 -0.582584 1.46437 0
M  V30 3822 C 365.029 -0.905962 1.31394 0
M  V30 3823 C 365.229 -1.99468 0.285476 0
M  V30 3824 O 364.285 -2.50566 -0.311914 0
M  V30 3825 C 365.598 -1.3232 2.70022 0
M  V30 3826 C 367.146 -1.43604 2.78113 0
M  V30 3827 C 367.621 -1.88694 4.17323 0
M  V30 3828 N 369.112 -1.95887 4.19741 0
M  V30 3829 C 369.847 -2.32051 5.24347 0
M  V30 3830 N 369.343 -2.67006 6.39281 0
M  V30 3831 N 371.136 -2.32606 5.11713 0
M  V30 3832 H 363.287 0.1366 2.1196 0
M  V30 3833 H 365.55 -0.00155736 0.947999 0
M  V30 3834 H 365.256 -0.597242 3.46592 0
M  V30 3835 H 365.13 -2.28469 3.00136 0
M  V30 3836 H 367.517 -2.15286 2.01832 0
M  V30 3837 H 367.598 -0.457059 2.51684 0
M  V30 3838 H 367.242 -1.1759 4.941 0
M  V30 3839 H 367.172 -2.8755 4.4116 0
M  V30 3840 H 369.663 -1.71362 3.36814 0
M  V30 3841 H 369.976 -2.93554 7.14875 0
M  V30 3842 H 368.321 -2.64644 6.42642 0
M  V30 3843 H 371.512 -2.04721 4.2096 0
M  V30 3844 H 371.685 -2.60462 5.93349 0
M  V30 3845 N 365.091 -1.34144 -0.827227 0
M  V30 3846 C 366.039 -1.25364 -1.95925 0
M  V30 3847 C 367.033 -0.152608 -1.68711 0
M  V30 3848 O 368.239 -0.317311 -1.77181 0
M  V30 3849 H 364.614 -0.389342 -0.643364 0
M  V30 3850 H 366.585 -2.21045 -2.00454 0
M  V30 3851 C 365.334 -1.02158 -3.32354 0
M  V30 3852 H 364.657 -1.86111 -3.5384 0
M  V30 3853 H 366.097 -1.00048 -4.12027 0
M  V30 3854 C 364.556 0.275244 -3.35774 0
M  V30 3855 O 365.086 1.27806 -3.80826 0
M  V30 3856 N 363.292 0.306853 -2.88975 0
M  V30 3857 H 362.839 -0.509777 -2.52506 0
M  V30 3858 H 362.797 1.17432 -2.91646 0
M  V30 3859 N 366.569 1.04691 -1.17803 0
M  V30 3860 C 367.98 1.59238 -0.974689 0
M  V30 3861 C 368.331 1.90306 0.477292 0
M  V30 3862 O 367.456 1.68846 1.35352 0
M  V30 3863 C 368.051 2.89318 -1.76296 0
M  V30 3864 C 366.61 3.40506 -1.60414 0
M  V30 3865 C 365.757 2.14172 -1.76141 0
M  V30 3866 H 368.708 0.874395 -1.32439 0
M  V30 3867 H 368.729 3.5944 -1.24833 0
M  V30 3868 H 368.241 2.66675 -2.81968 0
M  V30 3869 H 366.342 3.68175 -0.572519 0
M  V30 3870 H 366.455 4.14753 -2.39827 0
M  V30 3871 H 364.819 2.25176 -1.19028 0
M  V30 3872 H 365.602 1.93992 -2.83235 0
M  V30 3873 N 368.047 0.979072 1.23499 0
M  V30 3874 C 369.458 0.684391 1.73704 0
M  V30 3875 C 369.809 -0.799448 1.79174 0
M  V30 3876 O 368.934 -1.62531 1.42873 0
M  V30 3877 C 369.529 1.23564 3.15464 0
M  V30 3878 C 368.088 0.99063 3.6313 0
M  V30 3879 C 367.235 1.36416 2.41425 0
M  V30 3880 H 370.186 1.15307 1.09041 0
M  V30 3881 H 370.207 0.607417 3.7562 0
M  V30 3882 H 369.719 2.31561 3.1145 0
M  V30 3883 H 367.82 -0.0733136 3.72528 0
M  V30 3884 H 367.933 1.64427 4.5 0
M  V30 3885 H 366.297 0.782616 2.42378 0
M  V30 3886 H 367.08 2.45387 2.40083 0
M  V30 3887 N 369.525 -1.3858 0.750561 0
M  V30 3888 C 370.936 -1.82927 0.373438 0
M  V30 3889 C 371.287 -1.62634 -1.09748 0
M  V30 3890 O 370.412 -1.12588 -1.84805 0
M  V30 3891 C 371.007 -3.32088 0.671029 0
M  V30 3892 C 369.566 -3.74795 0.34722 0
M  V30 3893 C 368.713 -2.61391 0.92575 0
M  V30 3894 H 371.664 -1.27351 0.946958 0
M  V30 3895 H 371.685 -3.80465 -0.0518269 0
M  V30 3896 H 371.197 -3.46826 1.74164 0
M  V30 3897 H 369.298 -3.65638 -0.716933 0
M  V30 3898 H 369.411 -4.71667 0.840656 0
M  V30 3899 H 367.775 -2.52265 0.351327 0
M  V30 3900 H 368.558 -2.78929 2.00133 0
M  V30 3901 N 371.003 -0.499398 -1.49478 0
M  V30 3902 C 372.419 -0.155261 -1.58843 0
M  V30 3903 C 372.619 1.34008 -1.50479 0
M  V30 3904 O 371.675 2.11589 -1.37791 0
M  V30 3905 C 372.988 -0.730636 -2.91689 0
M  V30 3906 C 374.536 -0.696599 -3.0515 0
M  V30 3907 C 375.011 -1.25001 -4.40612 0
M  V30 3908 N 376.502 -1.21064 -4.47099 0
M  V30 3909 C 377.237 -1.60905 -5.50361 0
M  V30 3910 N 376.733 -2.08331 -6.60735 0
M  V30 3911 N 378.526 -1.52331 -5.41065 0
M  V30 3912 H 370.677 -1.47162 -1.53158 0
M  V30 3913 H 372.94 -0.610309 -0.725415 0
M  V30 3914 H 372.646 -1.77928 -3.03372 0
M  V30 3915 H 372.52 -0.190161 -3.7672 0
M  V30 3916 H 374.907 0.343204 -2.93097 0
M  V30 3917 H 374.988 -1.2742 -2.21806 0
M  V30 3918 H 374.632 -2.28859 -4.53416 0
M  V30 3919 H 374.562 -0.64836 -5.22593 0
M  V30 3920 H 377.053 -0.863128 -3.67911 0
M  V30 3921 H 377.366 -2.36805 -7.35624 0
M  V30 3922 H 375.711 -2.12304 -6.6178 0
M  V30 3923 H 378.902 -1.151 -4.53729 0
M  V30 3924 H 379.075 -1.83704 -6.21415 0
M  V30 3925 N 372.481 1.55866 -0.233164 0
M  V30 3926 C 373.411 2.23783 0.666599 0
M  V30 3927 C 374.392 1.21343 1.19205 0
M  V30 3928 O 375.577 1.4996 1.23392 0
M  V30 3929 C 372.707 2.92671 1.86978 0
M  V30 3930 C 371.661 4.01682 1.47768 0
M  V30 3931 C 370.987 4.57926 2.76058 0
M  V30 3932 C 372.287 5.18126 0.658993 0
M  V30 3933 H 373.981 2.99232 0.100306 0
M  V30 3934 H 371.527 1.43924 0.046804 0
M  V30 3935 H 373.48 3.3888 2.50476 0
M  V30 3936 H 372.204 2.14688 2.46123 0
M  V30 3937 H 370.863 3.56222 0.866106 0
M  V30 3938 H 370.511 3.76659 3.33372 0
M  V30 3939 H 370.211 5.31505 2.50552 0
M  V30 3940 H 371.735 5.06859 3.40479 0
M  V30 3941 H 373.149 5.60644 1.19795 0
M  V30 3942 H 371.546 5.98009 0.500552 0
M  V30 3943 H 372.616 4.83763 -0.331856 0
M  V30 3944 N 373.959 -0.0401083 1.57549 0
M  V30 3945 C 374.906 -1.04413 2.05831 0
M  V30 3946 C 375.876 -1.36585 0.945184 0
M  V30 3947 O 377.061 -1.47112 1.21502 0
M  V30 3948 C 374.201 -2.34336 2.53339 0
M  V30 3949 C 373.314 -2.08419 3.78398 0
M  V30 3950 C 372.449 -3.32133 4.14561 0
M  V30 3951 C 371.488 -3.01721 5.3257 0
M  V30 3952 N 370.625 -4.17855 5.64218 0
M  V30 3953 H 375.465 -0.625442 2.91363 0
M  V30 3954 H 373.002 -0.297218 1.44066 0
M  V30 3955 H 374.96 -3.10234 2.78946 0
M  V30 3956 H 373.59 -2.73948 1.7074 0
M  V30 3957 H 372.642 -1.23069 3.59942 0
M  V30 3958 H 373.954 -1.81978 4.64419 0
M  V30 3959 H 373.108 -4.16406 4.41238 0
M  V30 3960 H 371.847 -3.61678 3.2717 0
M  V30 3961 H 370.852 -2.15849 5.05657 0
M  V30 3962 H 372.077 -2.73466 6.21605 0
M  V30 3963 H 370.023 -4.47372 4.79786 0
M  V30 3964 H 369.94 -3.94798 6.44725 0
M  V30 3965 H 371.208 -5.03033 5.95465 0
M  V30 3966 N 375.437 -1.54477 -0.31217 0
M  V30 3967 C 376.662 -1.77526 -1.07235 0
M  V30 3968 C 377.087 -0.527775 -1.80544 0
M  V30 3969 O 376.445 0.52121 -1.73646 0
M  V30 3970 C 376.493 -2.97535 -2.03728 0
M  V30 3971 O 375.597 -2.69878 -3.11833 0
M  V30 3972 H 374.938 -0.58792 -0.30862 0
M  V30 3973 H 377.468 -2.01532 -0.352993 0
M  V30 3974 H 377.478 -3.25198 -2.46395 0
M  V30 3975 H 376.153 -3.87996 -1.49774 0
M  V30 3976 H 374.73 -2.53199 -2.7376 0
M  V30 3977 N 376.915 0.57481 -1.46744 0
M  V30 3978 C 377.862 1.68329 -1.57905 0
M  V30 3979 C 378.832 1.60625 -0.422927 0
M  V30 3980 O 380.017 1.79721 -0.640711 0
M  V30 3981 C 377.157 3.06665 -1.58274 0
M  V30 3982 C 376.27 3.24935 -2.84678 0
M  V30 3983 C 375.405 4.53566 -2.76499 0
M  V30 3984 C 374.444 4.65207 -3.97806 0
M  V30 3985 N 373.581 5.85172 -3.87967 0
M  V30 3986 H 378.421 1.58127 -2.52587 0
M  V30 3987 H 375.958 0.770552 -1.25303 0
M  V30 3988 H 377.916 3.86745 -1.56473 0
M  V30 3989 H 376.546 3.15745 -0.671194 0
M  V30 3990 H 375.598 2.38405 -2.96424 0
M  V30 3991 H 376.91 3.29403 -3.7456 0
M  V30 3992 H 376.064 5.41885 -2.72848 0
M  V30 3993 H 374.803 4.51548 -1.8427 0
M  V30 3994 H 373.808 3.75304 -4.0178 0
M  V30 3995 H 375.033 4.68997 -4.9114 0
M  V30 3996 H 372.979 5.84137 -2.98529 0
M  V30 3997 H 372.896 5.90943 -4.71511 0
M  V30 3998 H 374.164 6.759 -3.88303 0
M  V30 3999 N 378.394 1.34581 0.820102 0
M  V30 4000 C 379.341 1.2639 1.93117 0
M  V30 4001 C 380.311 0.138554 1.65521 0
M  V30 4002 O 381.496 0.320004 1.88097 0
M  V30 4003 C 378.636 1.02812 3.29429 0
M  V30 4004 C 377.749 2.24146 3.693 0
M  V30 4005 C 376.884 1.93829 4.94574 0
M  V30 4006 C 375.923 3.1129 5.27034 0
M  V30 4007 N 375.06 2.80838 6.43486 0
M  V30 4008 H 379.9 2.21408 1.99455 0
M  V30 4009 H 377.437 1.10077 0.975784 0
M  V30 4010 H 379.395 0.871788 4.0799 0
M  V30 4011 H 378.025 0.114612 3.22596 0
M  V30 4012 H 377.077 2.50691 2.86109 0
M  V30 4013 H 378.389 3.11899 3.89257 0
M  V30 4014 H 377.543 1.74948 5.80929 0
M  V30 4015 H 376.282 1.03341 4.76626 0
M  V30 4016 H 375.287 3.30764 4.39175 0
M  V30 4017 H 376.512 4.02561 5.4692 0
M  V30 4018 H 374.458 1.92929 6.26988 0
M  V30 4019 H 374.375 3.62123 6.63629 0
M  V30 4020 H 375.643 2.65467 7.32903 0
M  V30 4021 N 379.872 -1.04064 1.18357 0
M  V30 4022 C 381.118 -1.77658 0.990412 0
M  V30 4023 C 381.473 -1.86446 -0.474944 0
M  V30 4024 O 380.766 -1.36153 -1.34807 0
M  V30 4025 C 380.96 -3.20634 1.57888 0
M  V30 4026 C 380.789 -3.25782 3.09994 0
M  V30 4027 C 379.559 -3.34411 3.7881 0
M  V30 4028 C 381.757 -3.13791 4.0748 0
M  V30 4029 N 379.739 -3.28809 5.18418 0
M  V30 4030 C 381.11 -3.15689 5.33611 0
M  V30 4031 C 383.165 -2.97833 3.98998 0
M  V30 4032 C 381.868 -3.03268 6.52243 0
M  V30 4033 C 383.894 -2.86759 5.17227 0
M  V30 4034 C 383.256 -2.893 6.4225 0
M  V30 4035 H 379.355 -0.661901 0.416427 0
M  V30 4036 H 381.939 -1.23968 1.50133 0
M  V30 4037 H 380.11 -3.7267 1.09414 0
M  V30 4038 H 381.842 -3.82525 1.32124 0
M  V30 4039 H 378.597 -3.40144 3.29543 0
M  V30 4040 H 379.021 -3.29448 5.91433 0
M  V30 4041 H 383.663 -2.94698 3.03171 0
M  V30 4042 H 381.381 -3.05156 7.48268 0
M  V30 4043 H 384.967 -2.75465 5.12455 0
M  V30 4044 H 383.847 -2.80818 7.32196 0
M  V30 4045 N 381.35 -0.985608 -1.22978 0
M  V30 4046 C 382.575 -0.675254 -1.961 0
M  V30 4047 C 383 0.752154 -1.72407 0
M  V30 4048 O 382.358 1.5131 -0.998751 0
M  V30 4049 C 382.406 -0.977899 -3.47087 0
M  V30 4050 O 381.51 -0.072685 -4.12336 0
M  V30 4051 H 380.851 -0.253443 -0.613728 0
M  V30 4052 H 383.381 -1.32061 -1.56272 0
M  V30 4053 H 383.391 -0.916739 -3.97567 0
M  V30 4054 H 382.066 -2.01807 -3.63657 0
M  V30 4055 H 380.643 -0.188703 -3.72422 0
M  V30 4056 N 382.828 1.3818 -0.7579 0
M  V30 4057 C 383.775 2.30416 -0.133057 0
M  V30 4058 C 384.745 1.50398 0.704957 0
M  V30 4059 O 385.93 1.79014 0.660192 0
M  V30 4060 C 383.07 3.36834 0.750813 0
M  V30 4061 C 382.183 4.31879 -0.102297 0
M  V30 4062 C 381.318 5.25368 0.784979 0
M  V30 4063 C 380.357 6.12058 -0.0715046 0
M  V30 4064 N 379.494 6.97832 0.772972 0
M  V30 4065 H 384.334 2.83274 -0.925186 0
M  V30 4066 H 381.871 1.39461 -0.467866 0
M  V30 4067 H 383.829 3.97145 1.27794 0
M  V30 4068 H 382.459 2.85374 1.50868 0
M  V30 4069 H 381.511 3.72991 -0.747095 0
M  V30 4070 H 382.823 4.92921 -0.763552 0
M  V30 4071 H 381.977 5.90818 1.37911 0
M  V30 4072 H 380.716 4.64703 1.47996 0
M  V30 4073 H 379.721 5.456 -0.678272 0
M  V30 4074 H 380.946 6.74793 -0.763606 0
M  V30 4075 H 378.892 6.3971 1.45282 0
M  V30 4076 H 378.809 7.55812 0.168709 0
M  V30 4077 H 380.077 7.67687 1.35194 0
M  V30 4078 N 384.306 0.507319 1.49211 0
M  V30 4079 C 385.253 -0.267728 2.29242 0
M  V30 4080 C 386.223 -0.954609 1.35928 0
M  V30 4081 O 387.408 -0.960046 1.64887 0
M  V30 4082 C 384.548 -1.32243 3.18756 0
M  V30 4083 C 383.661 -0.64669 4.27132 0
M  V30 4084 C 382.796 -1.68238 5.03855 0
M  V30 4085 C 381.835 -0.98885 6.0406 0
M  V30 4086 N 380.972 -1.96903 6.73924 0
M  V30 4087 H 385.812 0.420968 2.95012 0
M  V30 4088 H 383.349 0.219443 1.45454 0
M  V30 4089 H 385.307 -1.94599 3.69036 0
M  V30 4090 H 383.937 -1.97981 2.54958 0
M  V30 4091 H 382.989 0.0902926 3.80293 0
M  V30 4092 H 384.301 -0.101058 4.98698 0
M  V30 4093 H 383.455 -2.38081 5.58034 0
M  V30 4094 H 382.194 -2.26187 4.32077 0
M  V30 4095 H 381.199 -0.276222 5.49106 0
M  V30 4096 H 382.424 -0.415767 6.77826 0
M  V30 4097 H 380.37 -2.53803 6.04913 0
M  V30 4098 H 380.287 -1.47423 7.41487 0
M  V30 4099 H 381.555 -2.66015 7.32705 0
M  V30 4100 N 385.784 -1.5574 0.241426 0
M  V30 4101 C 387.031 -1.9881 -0.384836 0
M  V30 4102 C 387.359 -1.12947 -1.58346 0
M  V30 4103 O 386.614 -0.178993 -1.9488 0
M  V30 4104 C 386.913 -3.47308 -0.843317 0
M  V30 4105 C 386.579 -4.50223 0.246946 0
M  V30 4106 C 385.241 -4.78088 0.546399 0
M  V30 4107 C 387.593 -5.11841 0.983282 0
M  V30 4108 C 384.921 -5.64846 1.58636 0
M  V30 4109 C 387.273 -5.99727 2.01272 0
M  V30 4110 C 385.937 -6.25927 2.31888 0
M  V30 4111 H 385.207 -0.727496 -0.140821 0
M  V30 4112 H 387.854 -1.8831 0.348106 0
M  V30 4113 H 386.159 -3.55112 -1.65537 0
M  V30 4114 H 387.856 -3.78017 -1.33806 0
M  V30 4115 H 384.446 -4.286 0.00340639 0
M  V30 4116 H 388.63 -4.90366 0.765182 0
M  V30 4117 H 383.886 -5.83403 1.82896 0
M  V30 4118 H 388.06 -6.46517 2.58823 0
M  V30 4119 H 385.687 -6.92949 3.12611 0
M  V30 4120 N 387.262 0.0317525 -1.57568 0
M  V30 4121 C 388.511 0.722131 -1.8833 0
M  V30 4122 C 388.824 1.76664 -0.839587 0
M  V30 4123 O 390.03 2.50942 -1.03635 0
M  V30 4124 C 388.486 1.33544 -3.34207 0
M  V30 4125 C 388.094 0.327415 -4.46802 0
M  V30 4126 C 389.838 2.00585 -3.7412 0
M  V30 4127 C 387.745 0.948915 -5.83738 0
M  V30 4128 H 386.675 0.273466 -0.702661 0
M  V30 4129 H 389.326 -0.0235811 -1.83485 0
M  V30 4130 H 387.708 2.13077 -3.33788 0
M  V30 4131 H 388.882 -0.441006 -4.58685 0
M  V30 4132 H 387.197 -0.240758 -4.15703 0
M  V30 4133 H 389.794 2.47932 -4.73744 0
M  V30 4134 H 390.137 2.82285 -3.05975 0
M  V30 4135 H 390.67 1.27831 -3.76702 0
M  V30 4136 H 387.409 0.171387 -6.55276 0
M  V30 4137 H 386.929 1.68724 -5.7558 0
M  V30 4138 H 388.608 1.45705 -6.3038 0
M  V30 4139 N 388.74 1.54641 0.303973 0
M  V30 4140 C 390.017 1.64455 1.05896 0
M  V30 4141 C 390.397 0.490923 2.05312 0
M  V30 4142 O 389.745 -0.512685 2.22674 0
M  V30 4143 C 389.955 3.02331 1.74347 0
M  V30 4144 C 391.303 3.59045 2.26653 0
M  V30 4145 O 392.327 3.04764 1.84384 0
M  V30 4146 O 391.186 4.54081 3.04093 0
M  V30 4147 H 388.28 0.666729 0.489287 0
M  V30 4148 H 390.826 1.66986 0.302298 0
M  V30 4149 H 389.598 3.77734 1.02142 0
M  V30 4150 H 389.221 3.03565 2.56777 0
M  V30 4151 N 390.218 -0.567019 1.47046 0
M  V30 4152 C 391.465 -1.32462 1.53167 0
M  V30 4153 C 391.793 -1.93571 0.189841 0
M  V30 4154 O 391.048 -1.77865 -0.816243 0
M  V30 4155 C 391.347 -2.4623 2.59047 0
M  V30 4156 C 391.013 -2.03014 4.02612 0
M  V30 4157 C 389.675 -1.90944 4.41694 0
M  V30 4158 C 392.027 -1.69895 4.92732 0
M  V30 4159 C 389.355 -1.44035 5.68745 0
M  V30 4160 C 391.707 -1.2446 6.20236 0
M  V30 4161 C 390.371 -1.10979 6.5821 0
M  V30 4162 H 389.641 -0.484713 0.560477 0
M  V30 4163 H 392.288 -0.636888 1.80599 0
M  V30 4164 H 390.593 -3.20517 2.25335 0
M  V30 4165 H 392.29 -3.04427 2.61008 0
M  V30 4166 H 388.88 -2.13348 3.71726 0
M  V30 4167 H 393.064 -1.78098 4.63244 0
M  V30 4168 H 388.32 -1.32254 5.96925 0
M  V30 4169 H 392.494 -0.978924 6.89485 0
M  V30 4170 H 390.121 -0.744078 7.5655 0
M  V30 4171 N 391.696 -1.35014 -0.812953 0
M  V30 4172 C 392.945 -1.27269 -1.56479 0
M  V30 4173 C 393.258 0.152771 -1.95002 0
M  V30 4174 O 394.464 0.352451 -2.69203 0
M  V30 4175 C 392.92 -2.23159 -2.82362 0
M  V30 4176 C 392.528 -3.71016 -2.511 0
M  V30 4177 C 394.272 -2.24342 -3.60376 0
M  V30 4178 C 392.179 -4.58746 -3.73237 0
M  V30 4179 H 391.109 -0.472829 -0.587324 0
M  V30 4180 H 393.76 -1.6024 -0.894171 0
M  V30 4181 H 392.142 -1.83151 -3.51101 0
M  V30 4182 H 393.316 -4.1962 -1.90409 0
M  V30 4183 H 391.631 -3.72378 -1.86343 0
M  V30 4184 H 394.228 -2.87107 -4.51081 0
M  V30 4185 H 394.571 -1.24542 -3.97234 0
M  V30 4186 H 395.104 -2.62846 -2.98591 0
M  V30 4187 H 391.843 -5.59521 -3.41492 0
M  V30 4188 H 391.363 -4.14871 -4.33176 0
M  V30 4189 H 393.042 -4.73852 -4.40537 0
M  V30 4190 N 393.175 1.03435 -1.18907 0
M  V30 4191 C 394.452 1.73778 -0.89781 0
M  V30 4192 C 394.832 2.02458 0.597832 0
M  V30 4193 O 394.18 1.67482 1.55441 0
M  V30 4194 C 394.39 3.01845 -1.75187 0
M  V30 4195 C 395.738 3.7546 -1.9828 0
M  V30 4196 O 396.762 3.11759 -1.72293 0
M  V30 4197 O 395.621 4.89966 -2.42065 0
M  V30 4198 H 392.715 0.75651 -0.334098 0
M  V30 4199 H 395.261 1.09444 -1.29693 0
M  V30 4200 H 394.033 2.76836 -2.76545 0
M  V30 4201 H 393.656 3.73919 -1.35167 0
M  V30 4202 N 394.653 0.992116 1.22453 0
M  V30 4203 C 395.881 0.685944 1.95198 0
M  V30 4204 C 396.296 -0.749233 1.73297 0
M  V30 4205 O 395.653 -1.50549 1.03156 0
M  V30 4206 C 395.704 0.981395 3.47924 0
M  V30 4207 O 395.425 2.36018 3.6909 0
M  V30 4208 C 396.926 0.692815 4.37853 0
M  V30 4209 H 394.146 0.253821 0.621141 0
M  V30 4210 H 396.69 1.32668 1.55626 0
M  V30 4211 H 394.845 0.386481 3.85467 0
M  V30 4212 H 395.259 2.45884 4.63294 0
M  V30 4213 H 396.733 0.949818 5.43767 0
M  V30 4214 H 397.21 -0.373181 4.37612 0
M  V30 4215 H 397.816 1.26874 4.05935 0
M  V30 4216 N 396.131 -1.37776 0.765217 0
M  V30 4217 C 397.371 -2.01691 0.331669 0
M  V30 4218 C 397.735 -1.59432 -1.06983 0
M  V30 4219 O 398.936 -2.15761 -1.60314 0
M  V30 4220 C 397.207 -3.54385 0.463261 0
M  V30 4221 S 398.766 -4.38652 0.114011 0
M  V30 4222 H 395.584 -0.699387 0.127979 0
M  V30 4223 H 398.186 -1.68084 0.998396 0
M  V30 4224 H 396.89 -3.82629 1.48401 0
M  V30 4225 H 396.421 -3.92783 -0.220246 0
M  V30 4226 H 398.436 -4.84021 -1.09261 0
M  V30 4227 N 397.609 -0.515225 -1.4894 0
M  V30 4228 C 398.539 0.244628 -2.32215 0
M  V30 4229 C 399.52 0.949136 -1.41157 0
M  V30 4230 O 400.705 0.937783 -1.70057 0
M  V30 4231 C 397.835 1.30096 -3.22013 0
M  V30 4232 C 396.789 0.715486 -4.21977 0
M  V30 4233 C 396.115 1.87339 -5.00808 0
M  V30 4234 C 397.415 -0.302982 -5.2142 0
M  V30 4235 H 399.109 -0.450501 -2.95991 0
M  V30 4236 H 396.655 -0.218098 -1.42339 0
M  V30 4237 H 398.608 1.84037 -3.79089 0
M  V30 4238 H 397.332 2.02547 -2.56207 0
M  V30 4239 H 395.991 0.197715 -3.66066 0
M  V30 4240 H 395.639 2.58592 -4.31438 0
M  V30 4241 H 395.339 1.48764 -5.68457 0
M  V30 4242 H 396.863 2.41686 -5.60732 0
M  V30 4243 H 398.277 0.148802 -5.73107 0
M  V30 4244 H 396.674 -0.60532 -5.97039 0
M  V30 4245 H 397.744 -1.21395 -4.69459 0
M  V30 4246 N 399.087 1.5561 -0.249682 0
M  V30 4247 C 400.336 1.98187 0.37479 0
M  V30 4248 C 400.649 1.14111 1.58865 0
M  V30 4249 O 401.855 1.46714 2.28445 0
M  V30 4250 C 400.311 3.52661 0.718192 0
M  V30 4251 C 399.919 4.45481 -0.474428 0
M  V30 4252 C 401.663 4.03888 1.3067 0
M  V30 4253 C 399.57 5.91303 -0.107026 0
M  V30 4254 H 398.5 0.740159 0.143808 0
M  V30 4255 H 401.151 1.80125 -0.350336 0
M  V30 4256 H 399.533 3.66429 1.50152 0
M  V30 4257 H 400.707 4.43473 -1.25172 0
M  V30 4258 H 399.022 4.04751 -0.978052 0
M  V30 4259 H 401.619 5.10358 1.59496 0
M  V30 4260 H 401.962 3.51401 2.23211 0
M  V30 4261 H 402.495 3.93457 0.586211 0
M  V30 4262 H 399.234 6.47833 -0.999642 0
M  V30 4263 H 398.754 5.9644 0.634013 0
M  V30 4264 H 400.433 6.46258 0.309807 0
M  V30 4265 N 400.565 -0.0233959 1.57583 0
M  V30 4266 C 401.512 -1.02224 2.06927 0
M  V30 4267 C 402.482 -1.35575 0.959617 0
M  V30 4268 O 403.667 -1.45815 1.23055 0
M  V30 4269 C 400.807 -2.31636 2.5581 0
M  V30 4270 C 399.92 -2.04394 3.80588 0
M  V30 4271 C 399.055 -3.27717 4.18061 0
M  V30 4272 C 398.094 -2.96056 5.3574 0
M  V30 4273 N 397.231 -4.11847 5.68618 0
M  V30 4274 H 402.071 -0.594504 2.9201 0
M  V30 4275 H 399.608 -0.281921 1.44373 0
M  V30 4276 H 401.566 -3.07258 2.82221 0
M  V30 4277 H 400.196 -2.72122 1.73636 0
M  V30 4278 H 399.248 -1.19244 3.61227 0
M  V30 4279 H 400.56 -1.77042 4.66323 0
M  V30 4280 H 399.714 -4.11702 4.4563 0
M  V30 4281 H 398.453 -3.58188 3.30988 0
M  V30 4282 H 397.458 -2.10474 5.07918 0
M  V30 4283 H 398.683 -2.66857 6.24471 0
M  V30 4284 H 396.629 -4.42258 4.84504 0
M  V30 4285 H 396.546 -3.87938 6.48876 0
M  V30 4286 H 397.814 -4.96689 6.00766 0
M  V30 4287 N 402.043 -1.548 -0.295768 0
M  V30 4288 C 403.271 -1.78327 -1.04914 0
M  V30 4289 C 403.686 -0.545316 -1.80753 0
M  V30 4290 O 403.043 0.485013 -1.75937 0
M  V30 4291 C 403.094 -2.99418 -2.02561 0
M  V30 4292 O 402.815 -4.18431 -1.29798 0
M  V30 4293 C 404.316 -3.35375 -2.89895 0
M  V30 4294 H 401.536 -0.594618 -0.310918 0
M  V30 4295 H 404.08 -2.01763 -0.333454 0
M  V30 4296 H 402.235 -2.78175 -2.69624 0
M  V30 4297 H 402.649 -4.86736 -1.95419 0
M  V30 4298 H 404.123 -4.23332 -3.54251 0
M  V30 4299 H 404.6 -2.53761 -3.58472 0
M  V30 4300 H 405.206 -3.58796 -2.28355 0
M  V30 4301 N 403.521 0.559213 -1.47345 0
M  V30 4302 C 404.751 1.33999 -1.57251 0
M  V30 4303 C 405.159 1.87905 -0.220978 0
M  V30 4304 O 404.502 1.65577 0.795617 0
M  V30 4305 C 404.564 2.54798 -2.53611 0
M  V30 4306 C 404.228 2.22192 -3.99349 0
M  V30 4307 C 405.225 1.79607 -4.87891 0
M  V30 4308 C 402.91 2.33613 -4.44669 0
M  V30 4309 C 404.904 1.48868 -6.19772 0
M  V30 4310 C 402.591 2.02487 -5.76578 0
M  V30 4311 C 403.589 1.60183 -6.63951 0
M  V30 4312 O 403.277 1.29451 -7.93409 0
M  V30 4313 H 403.009 0.414858 -0.533731 0
M  V30 4314 H 405.563 0.684465 -1.9366 0
M  V30 4315 H 403.793 3.23235 -2.12265 0
M  V30 4316 H 405.482 3.16873 -2.53666 0
M  V30 4317 H 406.248 1.70278 -4.54126 0
M  V30 4318 H 402.127 2.65501 -3.76869 0
M  V30 4319 H 405.671 1.15775 -6.87926 0
M  V30 4320 H 401.568 2.11448 -6.09885 0
M  V30 4321 H 402.336 1.43098 -8.05894 0
M  V30 4322 N 404.999 1.35443 0.805782 0
M  V30 4323 C 405.929 1.31095 1.93226 0
M  V30 4324 C 406.91 0.185244 1.69088 0
M  V30 4325 O 408.095 0.380332 1.90439 0
M  V30 4326 C 405.225 1.08299 3.29983 0
M  V30 4327 C 404.179 2.17519 3.68605 0
M  V30 4328 C 403.505 1.79887 5.03532 0
M  V30 4329 C 404.805 3.5949 3.78898 0
M  V30 4330 H 406.499 2.25352 1.97122 0
M  V30 4331 H 404.045 1.0848 0.946996 0
M  V30 4332 H 405.998 1.03897 4.08391 0
M  V30 4333 H 404.722 0.104885 3.26432 0
M  V30 4334 H 403.381 2.2102 2.92482 0
M  V30 4335 H 403.029 0.80693 4.96485 0
M  V30 4336 H 402.729 2.53001 5.30344 0
M  V30 4337 H 404.253 1.77011 5.84379 0
M  V30 4338 H 405.667 3.58307 4.47536 0
M  V30 4339 H 404.064 4.31371 4.1718 0
M  V30 4340 H 405.134 3.95584 2.80431 0
M  V30 4341 N 406.477 -1.02803 1.19454 0
M  V30 4342 C 407.702 -1.80378 1.02364 0
M  V30 4343 C 408.127 -1.83282 -0.423007 0
M  V30 4344 O 407.485 -1.25945 -1.30413 0
M  V30 4345 C 407.533 -3.23248 1.59821 0
M  V30 4346 O 406.637 -4.04 0.828105 0
M  V30 4347 H 405.978 -0.556799 0.361761 0
M  V30 4348 H 408.508 -1.29385 1.58495 0
M  V30 4349 H 408.518 -3.73994 1.63073 0
M  V30 4350 H 407.193 -3.2045 2.65113 0
M  V30 4351 H 405.77 -3.62635 0.86891 0
M  V30 4352 N 407.956 -0.998596 -1.21925 0
M  V30 4353 C 409.372 -0.710303 -1.42923 0
M  V30 4354 C 409.572 0.716933 -1.88314 0
M  V30 4355 O 408.628 1.48712 -2.04062 0
M  V30 4356 C 409.941 -1.72072 -2.466 0
M  V30 4357 C 411.489 -1.73681 -2.60392 0
M  V30 4358 C 411.964 -2.73601 -3.67296 0
M  V30 4359 N 413.455 -2.7223 -3.7476 0
M  V30 4360 C 414.19 -3.46206 -4.57087 0
M  V30 4361 N 413.686 -4.29802 -5.43362 0
M  V30 4362 N 415.479 -3.34886 -4.51451 0
M  V30 4363 H 407.63 -1.92028 -0.9077 0
M  V30 4364 H 409.893 -0.828487 -0.460775 0
M  V30 4365 H 409.599 -2.74231 -2.20206 0
M  V30 4366 H 409.473 -1.51818 -3.45299 0
M  V30 4367 H 411.86 -0.722173 -2.86127 0
M  V30 4368 H 411.941 -1.98005 -1.61949 0
M  V30 4369 H 411.585 -3.75217 -3.42307 0
M  V30 4370 H 411.515 -2.46545 -4.65321 0
M  V30 4371 H 414.006 -2.11576 -3.1312 0
M  V30 4372 H 414.319 -4.83061 -6.03218 0
M  V30 4373 H 412.664 -4.33887 -5.42925 0
M  V30 4374 H 415.855 -2.69015 -3.83078 0
M  V30 4375 H 416.028 -3.92796 -5.15379 0
M  V30 4376 N 409.434 1.37368 -0.772513 0
M  V30 4377 C 410.845 1.8231 -0.402493 0
M  V30 4378 C 411.196 1.6436 1.07146 0
M  V30 4379 O 410.321 1.15514 1.82991 0
M  V30 4380 C 410.916 3.30979 -0.723776 0
M  V30 4381 C 409.475 3.74195 -0.406802 0
M  V30 4382 C 408.622 2.59885 -0.967218 0
M  V30 4383 H 411.573 1.25829 -0.967099 0
M  V30 4384 H 411.594 3.80499 -0.00870832 0
M  V30 4385 H 411.106 3.44011 -1.7966 0
M  V30 4386 H 409.207 3.66732 0.658673 0
M  V30 4387 H 409.32 4.7027 -0.915588 0
M  V30 4388 H 407.684 2.51674 -0.391416 0
M  V30 4389 H 408.467 2.7571 -2.04546 0
M  V30 4390 N 410.912 0.523116 1.48665 0
M  V30 4391 C 412.323 0.0808997 1.86525 0
M  V30 4392 C 412.674 -1.33975 1.43336 0
M  V30 4393 O 411.799 -2.00221 0.821009 0
M  V30 4394 C 412.394 0.140037 3.3851 0
M  V30 4395 C 410.953 -0.246948 3.75589 0
M  V30 4396 C 410.1 0.502845 2.72703 0
M  V30 4397 H 413.051 0.734736 1.40667 0
M  V30 4398 H 413.072 -0.649945 3.74908 0
M  V30 4399 H 412.584 1.17412 3.69914 0
M  V30 4400 H 410.685 -1.28343 3.49798 0
M  V30 4401 H 410.798 0.0878859 4.79019 0
M  V30 4402 H 409.162 -0.0500581 2.54651 0
M  V30 4403 H 409.945 1.53743 3.0695 0
M  V30 4404 N 412.39 -1.55475 0.257931 0
M  V30 4405 C 413.618 -2.03609 -0.367559 0
M  V30 4406 C 414.033 -1.13687 -1.50734 0
M  V30 4407 O 413.39 -0.153479 -1.81853 0
M  V30 4408 C 413.441 -3.51001 -0.864908 0
M  V30 4409 O 413.162 -4.37499 0.229465 0
M  V30 4410 C 414.663 -4.14946 -1.55997 0
M  V30 4411 H 411.883 -0.665459 -0.0860521 0
M  V30 4412 H 414.427 -2.00843 0.385014 0
M  V30 4413 H 412.582 -3.54266 -1.56762 0
M  V30 4414 H 412.996 -5.24286 -0.14998 0
M  V30 4415 H 414.47 -5.19735 -1.85956 0
M  V30 4416 H 414.947 -3.6209 -2.4857 0
M  V30 4417 H 415.553 -4.15635 -0.901543 0
M  V30 4418 N 413.868 0.0150385 -1.57593 0
M  V30 4419 C 414.778 1.02791 -2.10882 0
M  V30 4420 C 415.794 1.38702 -1.0506 0
M  V30 4421 O 416.97 1.47739 -1.36877 0
M  V30 4422 C 414.035 2.30568 -2.58919 0
M  V30 4423 C 413.096 2.01108 -3.79281 0
M  V30 4424 C 412.329 3.22794 -4.25018 0
M  V30 4425 O 412.552 4.33959 -3.70183 0
M  V30 4426 O 411.486 3.07672 -5.17322 0
M  V30 4427 H 415.312 0.604973 -2.97613 0
M  V30 4428 H 412.897 0.23292 -1.47573 0
M  V30 4429 H 414.779 3.05662 -2.90084 0
M  V30 4430 H 413.454 2.72129 -1.75293 0
M  V30 4431 H 412.361 1.23537 -3.53114 0
M  V30 4432 H 413.694 1.64394 -4.63935 0
M  V30 4433 N 415.346 1.54954 0.287554 0
M  V30 4434 C 416.278 1.83224 1.37701 0
M  V30 4435 C 417.291 0.715898 1.46215 0
M  V30 4436 O 418.48 0.993565 1.48292 0
M  V30 4437 C 415.58 1.96723 2.75959 0
M  V30 4438 C 414.753 3.27253 2.90215 0
M  V30 4439 C 413.812 3.30998 4.09056 0
M  V30 4440 O 412.838 4.04457 4.00503 0
M  V30 4441 N 414.04 2.57353 5.20336 0
M  V30 4442 H 416.805 2.77254 1.138 0
M  V30 4443 H 414.366 1.54694 0.477652 0
M  V30 4444 H 416.358 1.96615 3.5373 0
M  V30 4445 H 414.928 1.09626 2.92747 0
M  V30 4446 H 414.148 3.40022 1.99447 0
M  V30 4447 H 415.436 4.13365 2.96659 0
M  V30 4448 H 414.834 1.97327 5.30169 0
M  V30 4449 H 413.391 2.62984 5.96391 0
M  V30 4450 N 416.824 -0.551391 1.4764 0
M  V30 4451 C 417.754 -1.66757 1.63445 0
M  V30 4452 C 418.735 -1.63077 0.483742 0
M  V30 4453 O 419.92 -1.80607 0.71377 0
M  V30 4454 C 417.05 -3.05387 1.65396 0
M  V30 4455 C 416.004 -3.23918 2.79752 0
M  V30 4456 C 415.33 -4.63393 2.66779 0
M  V30 4457 C 416.63 -3.08735 4.21284 0
M  V30 4458 H 418.324 -1.53786 2.56886 0
M  V30 4459 H 415.87 -0.738415 1.23626 0
M  V30 4460 H 417.823 -3.83325 1.75043 0
M  V30 4461 H 416.547 -3.19332 0.685195 0
M  V30 4462 H 415.206 -2.48391 2.69625 0
M  V30 4463 H 414.854 -4.74144 1.67918 0
M  V30 4464 H 414.554 -4.7674 3.43501 0
M  V30 4465 H 416.078 -5.43458 2.78364 0
M  V30 4466 H 417.492 -3.76484 4.32357 0
M  V30 4467 H 415.889 -3.33588 4.98838 0
M  V30 4468 H 416.959 -2.0541 4.39243 0
M  V30 4469 N 418.302 -1.35869 -0.798587 0
M  V30 4470 C 419.232 -1.32118 -1.92528 0
M  V30 4471 C 420.213 -0.194209 -1.68988 0
M  V30 4472 O 421.398 -0.390426 -1.90235 0
M  V30 4473 C 418.528 -1.10047 -3.29404 0
M  V30 4474 C 417.482 -2.19471 -3.67446 0
M  V30 4475 C 416.808 -1.82555 -5.02571 0
M  V30 4476 C 418.108 -3.61495 -3.76987 0
M  V30 4477 H 419.802 -2.26394 -1.95924 0
M  V30 4478 H 417.348 -1.08981 -0.94123 0
M  V30 4479 H 419.301 -1.06061 -4.07835 0
M  V30 4480 H 418.025 -0.122195 -3.26371 0
M  V30 4481 H 416.684 -2.22568 -2.91306 0
M  V30 4482 H 416.332 -0.833249 -4.9605 0
M  V30 4483 H 416.032 -2.5581 -5.28995 0
M  V30 4484 H 417.556 -1.80108 -5.83432 0
M  V30 4485 H 418.97 -3.60676 -4.4563 0
M  V30 4486 H 417.367 -4.33577 -4.14887 0
M  V30 4487 H 418.437 -3.97065 -2.78329 0
M  V30 4488 N 419.78 1.02168 -1.19998 0
M  V30 4489 C 420.727 2.10601 -0.944228 0
M  V30 4490 C 421.697 1.65639 0.123664 0
M  V30 4491 O 422.882 1.9079 -0.0199941 0
M  V30 4492 C 420.022 3.41504 -0.496865 0
M  V30 4493 C 419.135 3.99973 -1.63234 0
M  V30 4494 C 418.27 5.18915 -1.13579 0
M  V30 4495 C 417.309 5.69456 -2.24468 0
M  V30 4496 N 416.446 6.79665 -1.76068 0
M  V30 4497 H 421.286 2.31814 -1.8726 0
M  V30 4498 H 418.823 1.13686 -0.933483 0
M  V30 4499 H 420.781 4.16626 -0.218843 0
M  V30 4500 H 419.411 3.2038 0.394508 0
M  V30 4501 H 418.463 3.21997 -2.0254 0
M  V30 4502 H 419.775 4.33492 -2.46752 0
M  V30 4503 H 418.929 6.01222 -0.813429 0
M  V30 4504 H 417.668 4.8695 -0.270434 0
M  V30 4505 H 416.673 4.85757 -2.57526 0
M  V30 4506 H 417.898 6.03459 -3.11472 0
M  V30 4507 H 415.844 6.49538 -0.918516 0
M  V30 4508 H 415.761 7.12349 -2.5317 0
M  V30 4509 H 417.029 7.65549 -1.46817 0
M  V30 4510 N 421.258 1.00505 1.21394 0
M  V30 4511 C 422.505 0.687774 1.90462 0
M  V30 4512 C 422.833 -0.78147 1.7811 0
M  V30 4513 O 422.088 -1.58208 1.1519 0
M  V30 4514 C 422.387 1.0546 3.41486 0
M  V30 4515 C 422.053 2.51812 3.74034 0
M  V30 4516 C 420.715 2.91804 3.82628 0
M  V30 4517 C 423.067 3.46614 3.8924 0
M  V30 4518 C 420.395 4.2556 4.03876 0
M  V30 4519 C 422.747 4.80044 4.11995 0
M  V30 4520 C 421.411 5.19759 4.18816 0
M  V30 4521 H 420.681 0.251674 0.696951 0
M  V30 4522 H 423.328 1.26349 1.43903 0
M  V30 4523 H 421.633 0.397133 3.89782 0
M  V30 4524 H 423.33 0.786976 3.93202 0
M  V30 4525 H 419.92 2.1982 3.67936 0
M  V30 4526 H 424.104 3.16883 3.81967 0
M  V30 4527 H 419.36 4.55901 4.07387 0
M  V30 4528 H 423.534 5.53439 4.22704 0
M  V30 4529 H 421.161 6.23418 4.35033 0
M  V30 4530 N 422.737 -1.36956 0.779787 0
M  V30 4531 C 424.148 -1.82094 0.412156 0
M  V30 4532 C 424.499 -1.64926 -1.06273 0
M  V30 4533 O 423.624 -1.16483 -1.82375 0
M  V30 4534 C 424.219 -3.3059 0.741319 0
M  V30 4535 C 422.778 -3.73974 0.426641 0
M  V30 4536 C 421.925 -2.59368 0.980987 0
M  V30 4537 H 424.876 -1.25314 0.973758 0
M  V30 4538 H 424.897 -3.80489 0.028887 0
M  V30 4539 H 424.409 -3.43054 1.81482 0
M  V30 4540 H 422.51 -3.67076 -0.639215 0
M  V30 4541 H 422.623 -4.69778 0.940515 0
M  V30 4542 H 420.987 -2.51463 0.404757 0
M  V30 4543 H 421.77 -2.74621 2.06005 0
M  V30 4544 N 424.215 -0.530993 -1.48385 0
M  V30 4545 C 425.462 0.0027373 -2.025 0
M  V30 4546 C 425.79 1.34186 -1.40799 0
M  V30 4547 O 425.045 1.88 -0.543544 0
M  V30 4548 C 425.344 0.172742 -3.56982 0
M  V30 4549 C 425.01 -1.09215 -4.37473 0
M  V30 4550 C 423.672 -1.43881 -4.59186 0
M  V30 4551 C 426.024 -1.93153 -4.84088 0
M  V30 4552 C 423.352 -2.62381 -5.2476 0
M  V30 4553 C 425.704 -3.10833 -5.50968 0
M  V30 4554 C 424.368 -3.45843 -5.70919 0
M  V30 4555 H 423.638 0.00100165 -0.740999 0
M  V30 4556 H 426.285 -0.697219 -1.78357 0
M  V30 4557 H 424.59 0.955473 -3.79971 0
M  V30 4558 H 426.287 0.600642 -3.96476 0
M  V30 4559 H 422.877 -0.812177 -4.20834 0
M  V30 4560 H 427.061 -1.67683 -4.67115 0
M  V30 4561 H 422.317 -2.89707 -5.38405 0
M  V30 4562 H 426.491 -3.7618 -5.86056 0
M  V30 4563 H 424.118 -4.37764 -6.21503 0
M  V30 4564 N 425.693 1.55336 -0.266172 0
M  V30 4565 C 426.942 1.98574 0.353749 0
M  V30 4566 C 427.255 1.15789 1.57646 0
M  V30 4567 O 428.461 1.49129 2.26876 0
M  V30 4568 C 426.917 3.53403 0.680747 0
M  V30 4569 C 426.525 4.44953 -0.52165 0
M  V30 4570 C 428.269 4.05251 1.26379 0
M  V30 4571 C 426.176 5.91156 -0.169736 0
M  V30 4572 H 425.106 0.741643 0.135949 0
M  V30 4573 H 427.757 1.79743 -0.369421 0
M  V30 4574 H 426.139 3.68001 1.46257 0
M  V30 4575 H 427.313 4.42121 -1.29869 0
M  V30 4576 H 425.628 4.03691 -1.02093 0
M  V30 4577 H 428.225 5.12021 1.54074 0
M  V30 4578 H 428.568 3.53749 2.19471 0
M  V30 4579 H 429.101 3.94057 0.544447 0
M  V30 4580 H 425.84 6.46736 -1.0683 0
M  V30 4581 H 425.36 5.97079 0.570717 0
M  V30 4582 H 427.039 6.4655 0.241245 0
M  V30 4583 N 427.171 -0.0066808 1.57599 0
M  V30 4584 C 428.587 -0.36267 1.55425 0
M  V30 4585 C 428.787 -1.75209 0.995187 0
M  V30 4586 O 427.843 -2.44616 0.626058 0
M  V30 4587 C 429.156 -0.244017 2.99708 0
M  V30 4588 C 430.704 -0.319451 3.11366 0
M  V30 4589 C 431.179 -0.229998 4.57422 0
M  V30 4590 N 432.67 -0.288105 4.62303 0
M  V30 4591 C 433.405 -0.242127 5.72889 0
M  V30 4592 N 432.901 -0.147133 6.92644 0
M  V30 4593 N 434.694 -0.293502 5.61333 0
M  V30 4594 H 426.845 0.902314 1.92281 0
M  V30 4595 H 429.108 0.34525 0.882896 0
M  V30 4596 H 428.814 0.711678 3.44424 0
M  V30 4597 H 428.688 -1.02877 3.629 0
M  V30 4598 H 431.075 -1.26559 2.66584 0
M  V30 4599 H 431.156 0.495055 2.50964 0
M  V30 4600 H 430.8 0.712566 5.02877 0
M  V30 4601 H 430.73 -1.0629 5.15761 0
M  V30 4602 H 433.221 -0.363126 3.76151 0
M  V30 4603 H 433.534 -0.117763 7.7271 0
M  V30 4604 H 431.879 -0.112857 6.94908 0
M  V30 4605 H 435.07 -0.365864 4.66668 0
M  V30 4606 H 435.243 -0.254204 6.47501 0
M  V30 4607 N 428.649 -1.55105 -0.279332 0
M  V30 4608 C 429.926 -1.66119 -1.03267 0
M  V30 4609 C 430.306 -0.523525 -2.04505 0
M  V30 4610 O 429.654 0.477194 -2.23462 0
M  V30 4611 C 429.864 -3.05067 -1.69515 0
M  V30 4612 C 431.212 -3.62606 -2.20912 0
M  V30 4613 O 432.236 -3.07659 -1.79512 0
M  V30 4614 O 431.095 -4.58861 -2.96831 0
M  V30 4615 H 428.189 -0.674429 -0.478618 0
M  V30 4616 H 430.735 -1.67446 -0.275694 0
M  V30 4617 H 429.507 -3.79311 -0.9612 0
M  V30 4618 H 429.13 -3.07611 -2.51915 0
M  V30 4619 N 430.127 0.543554 -1.4793 0
M  V30 4620 C 431.059 1.665 -1.57513 0
M  V30 4621 C 432.072 1.56156 -0.460333 0
M  V30 4622 O 433.261 1.62865 -0.730573 0
M  V30 4623 C 430.361 3.05063 -1.47614 0
M  V30 4624 C 429.534 3.41024 -2.739 0
M  V30 4625 C 428.593 4.58809 -2.57645 0
M  V30 4626 O 427.619 4.62707 -3.31498 0
M  V30 4627 N 428.821 5.56149 -1.66368 0
M  V30 4628 H 431.586 1.5872 -2.5422 0
M  V30 4629 H 429.147 0.730517 -1.44482 0
M  V30 4630 H 431.139 3.81712 -1.34455 0
M  V30 4631 H 429.709 3.06994 -0.589359 0
M  V30 4632 H 428.929 2.53687 -3.01723 0
M  V30 4633 H 430.217 3.61831 -3.57709 0
M  V30 4634 H 429.615 5.55767 -1.05543 0
M  V30 4635 H 428.172 6.32071 -1.59154 0
M  V30 4636 N 431.605 1.3629 0.791371 0
M  V30 4637 C 433.016 1.27225 1.36641 0
M  V30 4638 C 433.367 -0.0887968 1.95999 0
M  V30 4639 O 432.492 -0.990207 1.92416 0
M  V30 4640 C 433.087 2.30375 2.48421 0
M  V30 4641 C 431.646 2.25004 3.01746 0
M  V30 4642 C 430.793 2.15259 1.7481 0
M  V30 4643 H 433.744 1.47198 0.593173 0
M  V30 4644 H 433.765 1.93905 3.27385 0
M  V30 4645 H 433.277 3.29422 2.05189 0
M  V30 4646 H 431.378 1.29417 3.49403 0
M  V30 4647 H 431.491 3.1761 3.58693 0
M  V30 4648 H 429.855 1.61482 1.96966 0
M  V30 4649 H 430.638 3.16191 1.33709 0
M  V30 4650 N 433.083 -1.0153 1.20538 0
M  V30 4651 C 434.311 -1.78746 1.04199 0
M  V30 4652 C 434.726 -1.84323 -0.408733 0
M  V30 4653 O 434.083 -1.29714 -1.28377 0
M  V30 4654 C 434.134 -3.23152 1.62035 0
M  V30 4655 O 433.855 -3.17918 3.0143 0
M  V30 4656 C 435.356 -4.16911 1.50666 0
M  V30 4657 H 432.576 -0.56208 0.366479 0
M  V30 4658 H 435.12 -1.27794 1.59653 0
M  V30 4659 H 433.275 -3.71248 1.10697 0
M  V30 4660 H 433.689 -4.08567 3.28897 0
M  V30 4661 H 435.163 -5.16072 1.95892 0
M  V30 4662 H 435.64 -4.36791 0.459363 0
M  V30 4663 H 436.246 -3.74698 2.01201 0
M  V30 4664 N 434.561 -1.01147 -1.20859 0
M  V30 4665 C 435.471 -0.58686 -2.27141 0
M  V30 4666 C 436.487 0.373198 -1.69951 0
M  V30 4667 O 437.663 0.235423 -2.00019 0
M  V30 4668 C 434.728 0.0733602 -3.46622 0
M  V30 4669 C 433.789 -0.931995 -4.19061 0
M  V30 4670 C 433.022 -0.303186 -5.32838 0
M  V30 4671 O 433.245 0.898395 -5.63281 0
M  V30 4672 O 432.179 -1.01735 -5.9324 0
M  V30 4673 H 436.005 -1.47155 -2.65667 0
M  V30 4674 H 433.59 -0.780689 -1.2738 0
M  V30 4675 H 435.472 0.442333 -4.19072 0
M  V30 4676 H 434.147 0.932329 -3.09983 0
M  V30 4677 H 433.054 -1.35224 -3.48805 0
M  V30 4678 H 434.387 -1.76076 -4.59628 0
M  V30 4679 N 436.039 1.36541 -0.78704 0
M  V30 4680 C 437.455 1.52571 -0.46844 0
M  V30 4681 C 437.655 1.7415 1.01361 0
M  V30 4682 O 436.711 1.77163 1.79915 0
M  V30 4683 C 438.024 2.71299 -1.29682 0
M  V30 4684 C 439.572 2.85169 -1.29027 0
M  V30 4685 C 440.047 4.06898 -2.10233 0
M  V30 4686 N 441.538 4.1404 -2.07666 0
M  V30 4687 C 442.273 5.07301 -2.67271 0
M  V30 4688 N 441.769 6.06021 -3.35724 0
M  V30 4689 N 443.562 4.99898 -2.57018 0
M  V30 4690 H 435.713 1.20788 -1.74711 0
M  V30 4691 H 437.976 0.589364 -0.742532 0
M  V30 4692 H 437.682 2.61868 -2.34773 0
M  V30 4693 H 437.556 3.6539 -0.936479 0
M  V30 4694 H 439.943 2.94062 -0.247284 0
M  V30 4695 H 440.024 1.91992 -1.69035 0
M  V30 4696 H 439.668 3.98766 -3.1456 0
M  V30 4697 H 439.598 4.99218 -1.67597 0
M  V30 4698 H 442.089 3.43357 -1.57843 0
M  V30 4699 H 442.402 6.73741 -3.78541 0
M  V30 4700 H 440.747 6.06253 -3.39826 0
M  V30 4701 H 443.938 4.21724 -2.03142 0
M  V30 4702 H 444.111 5.72392 -3.03761 0
M  V30 4703 N 437.518 0.538854 1.48102 0
M  V30 4704 C 438.45 -0.256278 2.27763 0
M  V30 4705 C 439.463 -0.89633 1.35904 0
M  V30 4706 O 440.652 -0.773275 1.60881 0
M  V30 4707 C 437.752 -1.37896 3.09577 0
M  V30 4708 C 436.925 -0.839159 4.29275 0
M  V30 4709 C 435.984 -1.84405 4.9283 0
M  V30 4710 O 435.01 -1.39746 5.51779 0
M  V30 4711 N 436.212 -3.17666 4.85869 0
M  V30 4712 H 438.977 0.426968 2.96643 0
M  V30 4713 H 436.538 0.373747 1.57527 0
M  V30 4714 H 438.53 -2.04955 3.48963 0
M  V30 4715 H 437.1 -1.96572 2.4306 0
M  V30 4716 H 436.32 0.00769287 3.94199 0
M  V30 4717 H 437.608 -0.457548 5.06739 0
M  V30 4718 H 437.006 -3.56609 4.39143 0
M  V30 4719 H 435.563 -3.80334 5.29329 0
M  V30 4720 N 438.996 -1.55193 0.274407 0
M  V30 4721 C 440.242 -1.99877 -0.343086 0
M  V30 4722 C 440.575 -1.16256 -1.55558 0
M  V30 4723 O 439.85 -0.232462 -1.93106 0
M  V30 4724 C 440.133 -3.52706 -0.725965 0
M  V30 4725 C 439.986 -4.47081 0.493818 0
M  V30 4726 C 441.305 -4.11422 -1.56268 0
M  V30 4727 H 438.424 -0.726625 -0.123229 0
M  V30 4728 H 441.066 -1.86136 0.38121 0
M  V30 4729 H 439.216 -3.64546 -1.34307 0
M  V30 4730 H 440.888 -4.47186 1.13237 0
M  V30 4731 H 439.131 -4.1877 1.13201 0
M  V30 4732 H 439.802 -5.51699 0.18217 0
M  V30 4733 H 442.278 -4.02855 -1.04151 0
M  V30 4734 H 441.154 -5.18568 -1.79939 0
M  V30 4735 H 441.415 -3.61607 -2.54348 0
M  V30 4736 N 440.474 -0.00167713 -1.576 0
M  V30 4737 C 441.89 0.354422 -1.55615 0
M  V30 4738 C 442.09 1.74679 -1.00447 0
M  V30 4739 O 441.146 2.4428 -0.639022 0
M  V30 4740 C 442.459 0.22812 -2.99833 0
M  V30 4741 C 444.007 0.302934 -3.11531 0
M  V30 4742 C 444.482 0.205737 -4.57538 0
M  V30 4743 N 445.973 0.263584 -4.62449 0
M  V30 4744 C 446.708 0.211742 -5.73009 0
M  V30 4745 N 446.204 0.110399 -6.92712 0
M  V30 4746 N 447.997 0.263729 -5.61481 0
M  V30 4747 H 440.148 -0.912498 -1.918 0
M  V30 4748 H 442.411 -0.349928 -0.881053 0
M  V30 4749 H 442.117 -0.729934 -3.44042 0
M  V30 4750 H 441.991 1.00951 -3.6344 0
M  V30 4751 H 444.378 1.25143 -2.67251 0
M  V30 4752 H 444.459 -0.508357 -2.50698 0
M  V30 4753 H 444.103 -0.739225 -5.02492 0
M  V30 4754 H 444.033 1.03554 -5.16318 0
M  V30 4755 H 446.524 0.343173 -3.76339 0
M  V30 4756 H 446.837 0.0767828 -7.72762 0
M  V30 4757 H 445.182 0.0760025 -6.94958 0
M  V30 4758 H 448.373 0.34111 -4.66855 0
M  V30 4759 H 448.546 0.219862 -6.47627 0
M  V30 4760 N 441.952 1.55251 0.271103 0
M  V30 4761 C 443.201 1.75151 1.00025 0
M  V30 4762 C 443.514 0.561041 1.87381 0
M  V30 4763 O 444.72 0.642506 2.63788 0
M  V30 4764 C 443.176 3.09999 1.82835 0
M  V30 4765 C 442.784 4.3662 1.00336 0
M  V30 4766 C 444.528 3.39249 2.55168 0
M  V30 4767 C 442.435 5.62506 1.82595 0
M  V30 4768 H 441.365 0.652877 0.377183 0
M  V30 4769 H 444.016 1.81708 0.255843 0
M  V30 4770 H 442.398 2.97485 2.61378 0
M  V30 4771 H 443.572 4.60055 0.261959 0
M  V30 4772 H 441.887 4.14527 0.394486 0
M  V30 4773 H 444.484 4.3051 3.1712 0
M  V30 4774 H 444.827 2.59467 3.2555 0
M  V30 4775 H 445.36 3.52869 1.83653 0
M  V30 4776 H 442.099 6.45041 1.16631 0
M  V30 4777 H 441.619 5.43211 2.54327 0
M  V30 4778 H 443.298 6.00875 2.39913 0
M  V30 4779 N 443.43 -0.535701 1.48216 0
M  V30 4780 C 444.362 -1.65662 1.58394 0
M  V30 4781 C 445.375 -1.5591 0.468607 0
M  V30 4782 O 446.564 -1.62475 0.7392 0
M  V30 4783 C 443.664 -3.04276 1.4923 0
M  V30 4784 C 442.837 -3.39567 2.75705 0
M  V30 4785 C 441.896 -4.57436 2.60075 0
M  V30 4786 O 440.922 -4.60942 3.33948 0
M  V30 4787 N 442.124 -5.55259 1.69315 0
M  V30 4788 H 444.889 -1.5737 2.55058 0
M  V30 4789 H 442.45 -0.722845 1.44867 0
M  V30 4790 H 444.442 -3.80994 1.36477 0
M  V30 4791 H 443.012 -3.06677 0.605632 0
M  V30 4792 H 442.232 -2.52083 3.03064 0
M  V30 4793 H 443.52 -3.59929 3.59623 0
M  V30 4794 H 442.918 -5.552 1.08489 0
M  V30 4795 H 441.475 -6.31218 1.62504 0
M  V30 4796 N 444.908 -1.36708 -0.784132 0
M  V30 4797 C 445.838 -1.34153 -1.91116 0
M  V30 4798 C 446.819 -0.212121 -1.68772 0
M  V30 4799 O 448.004 -0.410581 -1.8981 0
M  V30 4800 C 445.134 -1.13535 -3.28218 0
M  V30 4801 C 444.088 -2.23356 -3.65097 0
M  V30 4802 C 443.414 -1.87875 -5.00607 0
M  V30 4803 C 444.714 -3.65473 -3.73131 0
M  V30 4804 H 446.408 -2.28459 -1.93512 0
M  V30 4805 H 443.954 -1.09973 -0.929618 0
M  V30 4806 H 445.907 -1.10381 -4.06687 0
M  V30 4807 H 444.631 -0.156804 -3.26223 0
M  V30 4808 H 443.29 -2.25645 -2.88929 0
M  V30 4809 H 442.938 -0.885814 -4.95139 0
M  V30 4810 H 442.638 -2.61406 -5.26252 0
M  V30 4811 H 444.162 -1.86286 -5.81489 0
M  V30 4812 H 445.576 -3.65382 -4.41779 0
M  V30 4813 H 443.973 -4.37953 -4.10265 0
M  V30 4814 H 445.043 -3.99995 -2.74102 0
M  V30 4815 N 446.386 1.0089 -1.21074 0
M  V30 4816 C 447.333 2.09588 -0.966512 0
M  V30 4817 C 448.303 1.65761 0.106089 0
M  V30 4818 O 449.488 1.90758 -0.0402287 0
M  V30 4819 C 446.628 3.40958 -0.533058 0
M  V30 4820 C 445.741 3.9822 -1.67467 0
M  V30 4821 C 444.876 5.17682 -1.19076 0
M  V30 4822 C 443.915 5.67043 -2.30496 0
M  V30 4823 N 443.052 6.77759 -1.83267 0
M  V30 4824 H 447.892 2.29815 -1.89708 0
M  V30 4825 H 445.429 1.12689 -0.945489 0
M  V30 4826 H 447.387 4.1637 -0.263019 0
M  V30 4827 H 446.017 3.20781 0.360505 0
M  V30 4828 H 445.069 3.1983 -2.05944 0
M  V30 4829 H 446.381 4.3085 -2.51336 0
M  V30 4830 H 445.535 6.00326 -0.877151 0
M  V30 4831 H 444.274 4.86635 -0.322066 0
M  V30 4832 H 443.279 4.82999 -2.62664 0
M  V30 4833 H 444.504 6.00121 -3.17855 0
M  V30 4834 H 442.45 6.48527 -0.987356 0
M  V30 4835 H 442.367 7.09624 -2.60711 0
M  V30 4836 H 443.635 7.63949 -1.54928 0
M  V30 4837 N 447.864 1.01787 1.20321 0
M  V30 4838 C 449.141 0.622978 1.85414 0
M  V30 4839 C 449.521 -0.898887 1.91006 0
M  V30 4840 O 448.869 -1.79112 1.41884 0
M  V30 4841 C 449.079 1.27226 3.24984 0
M  V30 4842 C 450.427 1.3885 4.01255 0
M  V30 4843 O 451.451 1.22857 3.34342 0
M  V30 4844 O 450.31 1.64705 5.2109 0
M  V30 4845 H 447.404 0.215116 0.798533 0
M  V30 4846 H 449.95 1.11533 1.27901 0
M  V30 4847 H 448.722 2.31209 3.15687 0
M  V30 4848 H 448.345 0.767069 3.90131 0
M  V30 4849 N 449.342 -1.36122 0.79427 0
M  V30 4850 C 450.292 -2.27373 0.169017 0
M  V30 4851 C 451.276 -1.4719 -0.649913 0
M  V30 4852 O 452.468 -1.69518 -0.50919 0
M  V30 4853 C 449.597 -3.36264 -0.691455 0
M  V30 4854 C 448.683 -4.2388 0.13653 0
M  V30 4855 N 449.074 -4.91519 1.19345 0
M  V30 4856 C 447.372 -4.45921 -0.0838499 0
M  V30 4857 C 448.073 -5.56369 1.6979 0
M  V30 4858 N 447.049 -5.34204 1.00634 0
M  V30 4859 H 450.851 -2.77154 0.977897 0
M  V30 4860 H 448.365 -1.49504 0.634208 0
M  V30 4861 H 450.362 -4.00572 -1.15534 0
M  V30 4862 H 449.022 -2.88037 -1.49883 0
M  V30 4863 H 450.033 -4.9334 1.57594 0
M  V30 4864 H 446.71 -4.08518 -0.861341 0
M  V30 4865 H 448.1 -6.20368 2.58055 0
M  V30 4866 N 450.82 -0.546701 -1.47814 0
M  V30 4867 C 452.069 -0.0166497 -2.01693 0
M  V30 4868 C 452.382 1.33721 -1.42752 0
M  V30 4869 O 453.588 1.95658 -1.8823 0
M  V30 4870 C 452.044 0.0206769 -3.59894 0
M  V30 4871 C 451.652 -1.3293 -4.27824 0
M  V30 4872 C 453.396 0.498674 -4.21561 0
M  V30 4873 C 451.303 -1.25165 -5.78003 0
M  V30 4874 H 450.233 -0.0024541 -0.753996 0
M  V30 4875 H 452.884 -0.692984 -1.69912 0
M  V30 4876 H 451.266 0.76244 -3.88591 0
M  V30 4877 H 452.44 -2.08795 -4.10781 0
M  V30 4878 H 450.755 -1.74438 -3.78101 0
M  V30 4879 H 453.352 0.575 -5.31599 0
M  V30 4880 H 453.695 1.5083 -3.88016 0
M  V30 4881 H 454.228 -0.18791 -3.97356 0
M  V30 4882 H 450.967 -2.23695 -6.1615 0
M  V30 4883 H 450.487 -0.53464 -5.97412 0
M  V30 4884 H 452.166 -0.949299 -6.39998 0
M  V30 4885 N 452.299 1.55045 -0.282633 0
M  V30 4886 C 453.576 1.9179 0.384166 0
M  V30 4887 C 453.956 1.20778 1.73136 0
M  V30 4888 O 453.304 0.33719 2.25998 0
M  V30 4889 C 453.514 3.45149 0.517014 0
M  V30 4890 C 454.862 4.17064 0.796427 0
M  V30 4891 O 455.886 3.51084 0.601535 0
M  V30 4892 O 454.745 5.33837 1.16962 0
M  V30 4893 H 451.839 0.799483 0.211558 0
M  V30 4894 H 454.385 1.66474 -0.32934 0
M  V30 4895 H 453.157 3.88922 -0.430772 0
M  V30 4896 H 452.78 3.76443 1.2797 0
M  V30 4897 N 453.777 0.010035 1.57597 0
M  V30 4898 C 455.193 -0.346164 1.55801 0
M  V30 4899 C 455.393 -1.74144 1.01371 0
M  V30 4900 O 454.449 -2.43938 0.651968 0
M  V30 4901 C 455.762 -0.212216 2.9995 0
M  V30 4902 C 457.31 -0.286409 3.11687 0
M  V30 4903 C 457.785 -0.18147 4.5764 0
M  V30 4904 N 459.276 -0.239056 4.62583 0
M  V30 4905 C 460.011 -0.181351 5.73113 0
M  V30 4906 N 459.507 -0.073661 6.92761 0
M  V30 4907 N 461.3 -0.233949 5.61613 0
M  V30 4908 H 453.451 0.922657 1.91313 0
M  V30 4909 H 455.714 0.354595 0.879185 0
M  V30 4910 H 455.42 0.748169 3.4365 0
M  V30 4911 H 455.294 -0.990224 3.6397 0
M  V30 4912 H 457.681 -1.23724 2.67911 0
M  V30 4913 H 457.762 0.521645 2.50425 0
M  V30 4914 H 457.406 0.765863 5.02093 0
M  V30 4915 H 457.336 -1.00814 5.1686 0
M  V30 4916 H 459.827 -0.32321 3.76515 0
M  V30 4917 H 460.14 -0.0358003 7.72792 0
M  V30 4918 H 458.485 -0.0391461 6.94989 0
M  V30 4919 H 461.676 -0.316347 4.6703 0
M  V30 4920 H 461.849 -0.185514 6.47734 0
M  V30 4921 N 455.255 -1.55392 -0.262866 0
M  V30 4922 C 456.48 -1.80847 -1.01533 0
M  V30 4923 C 456.905 -0.584946 -1.78774 0
M  V30 4924 O 456.263 0.465701 -1.75217 0
M  V30 4925 C 456.311 -3.03866 -1.94159 0
M  V30 4926 O 455.415 -2.79662 -3.03089 0
M  V30 4927 H 454.756 -0.597441 -0.289759 0
M  V30 4928 H 457.286 -2.02553 -0.288698 0
M  V30 4929 H 457.296 -3.32872 -2.35924 0
M  V30 4930 H 455.971 -3.92564 -1.37354 0
M  V30 4931 H 454.548 -2.61781 -2.65566 0
M  V30 4932 N 456.733 0.527833 -1.48498 0
M  V30 4933 C 458.149 0.856571 -1.34666 0
M  V30 4934 C 458.349 1.98271 -0.35931 0
M  V30 4935 O 457.405 2.51551 0.218703 0
M  V30 4936 C 458.718 1.22207 -2.74747 0
M  V30 4937 C 460.266 1.33183 -2.83251 0
M  V30 4938 C 460.741 1.73075 -4.24039 0
M  V30 4939 N 462.232 1.80174 -4.26722 0
M  V30 4940 C 462.967 2.1243 -5.32598 0
M  V30 4941 N 462.463 2.43096 -6.4875 0
M  V30 4942 N 464.256 2.13454 -5.19994 0
M  V30 4943 H 456.407 -0.215174 -2.11307 0
M  V30 4944 H 458.67 -0.0336281 -0.947403 0
M  V30 4945 H 458.376 0.468195 -3.4857 0
M  V30 4946 H 458.25 2.17173 -3.08409 0
M  V30 4947 H 460.637 2.07647 -2.09683 0
M  V30 4948 H 460.718 0.363333 -2.53206 0
M  V30 4949 H 460.362 0.991712 -4.98124 0
M  V30 4950 H 460.292 2.70979 -4.51529 0
M  V30 4951 H 462.783 1.58744 -3.42942 0
M  V30 4952 H 463.096 2.6682 -7.25277 0
M  V30 4953 H 461.441 2.40611 -6.52021 0
M  V30 4954 H 464.632 1.88956 -4.28268 0
M  V30 4955 H 464.805 2.38261 -6.02608 0
M  V30 4956 N 458.211 1.37122 0.776871 0
M  V30 4957 C 459.158 1.3247 1.88998 0
M  V30 4958 C 460.128 0.191143 1.64997 0
M  V30 4959 O 461.313 0.379683 1.86984 0
M  V30 4960 C 458.453 1.13241 3.25992 0
M  V30 4961 C 457.566 2.35782 3.61982 0
M  V30 4962 C 456.701 2.09465 4.88158 0
M  V30 4963 C 455.74 3.279 5.16864 0
M  V30 4964 N 454.877 3.01167 6.34226 0
M  V30 4965 H 459.717 2.27642 1.9231 0
M  V30 4966 H 457.254 1.13125 0.94027 0
M  V30 4967 H 459.212 1.00115 4.0501 0
M  V30 4968 H 457.842 0.217186 3.22069 0
M  V30 4969 H 456.894 2.59666 2.77989 0
M  V30 4970 H 458.206 3.24125 3.79137 0
M  V30 4971 H 457.36 1.93341 5.75069 0
M  V30 4972 H 456.099 1.18452 4.73097 0
M  V30 4973 H 455.104 3.44569 4.2843 0
M  V30 4974 H 456.329 4.19757 5.33836 0
M  V30 4975 H 454.275 2.12779 6.20533 0
M  V30 4976 H 454.192 3.83052 6.51772 0
M  V30 4977 H 455.46 2.88649 7.24087 0
M  V30 4978 N 459.689 -1.00246 1.21608 0
M  V30 4979 C 460.636 -2.09073 0.977613 0
M  V30 4980 C 461.606 -1.65815 -0.097297 0
M  V30 4981 O 462.791 -1.90734 0.0503445 0
M  V30 4982 C 459.931 -3.40671 0.551133 0
M  V30 4983 C 459.044 -3.97326 1.69576 0
M  V30 4984 C 458.179 -5.17043 1.2182 0
M  V30 4985 C 457.218 -5.65813 2.335 0
M  V30 4986 N 456.355 -6.76778 1.86859 0
M  V30 4987 H 461.195 -2.28806 1.90924 0
M  V30 4988 H 458.732 -1.12186 0.951452 0
M  V30 4989 H 460.69 -4.16225 0.285097 0
M  V30 4990 H 459.32 -3.20967 -0.343489 0
M  V30 4991 H 458.372 -3.18734 2.07637 0
M  V30 4992 H 459.684 -4.29511 2.53617 0
M  V30 4993 H 458.838 -5.99852 0.908975 0
M  V30 4994 H 457.577 -4.86458 0.347869 0
M  V30 4995 H 456.582 -4.81599 2.65222 0
M  V30 4996 H 457.807 -5.98427 3.21033 0
M  V30 4997 H 455.753 -6.47994 1.02174 0
M  V30 4998 H 455.67 -7.08231 2.64471 0
M  V30 4999 H 456.938 -7.63116 1.58978 0
M  V30 5000 N 461.167 -1.02423 -1.1978 0
M  V30 5001 C 462.583 -0.740459 -1.41384 0
M  V30 5002 C 462.783 0.676827 -1.89793 0
M  V30 5003 O 461.839 1.4435 -2.0717 0
M  V30 5004 C 463.152 -1.77264 -2.42895 0
M  V30 5005 C 464.7 -1.79165 -2.56649 0
M  V30 5006 C 465.175 -2.8133 -3.6141 0
M  V30 5007 N 466.666 -2.80118 -3.68901 0
M  V30 5008 C 467.401 -3.55824 -4.49641 0
M  V30 5009 N 466.897 -4.41231 -5.34123 0
M  V30 5010 N 468.69 -3.44387 -4.44246 0
M  V30 5011 H 460.841 -1.9391 -0.866764 0
M  V30 5012 H 463.104 -0.838074 -0.443098 0
M  V30 5013 H 462.81 -2.7884 -2.14339 0
M  V30 5014 H 462.684 -1.59108 -3.42001 0
M  V30 5015 H 465.071 -0.782702 -2.84531 0
M  V30 5016 H 465.152 -2.01396 -1.57713 0
M  V30 5017 H 464.796 -3.82394 -3.34271 0
M  V30 5018 H 464.726 -2.56359 -4.59986 0
M  V30 5019 H 467.217 -2.1817 -3.08562 0
M  V30 5020 H 467.53 -4.95747 -5.92836 0
M  V30 5021 H 465.875 -4.45306 -5.33599 0
M  V30 5022 H 469.066 -2.7708 -3.77285 0
M  V30 5023 H 469.239 -4.0364 -5.06931 0
M  V30 5024 N 462.645 1.35699 -0.801477 0
M  V30 5025 C 463.893 1.9852 -0.37871 0
M  V30 5026 C 464.214 1.63907 1.05638 0
M  V30 5027 O 463.484 0.919013 1.73006 0
M  V30 5028 H 462.064 0.734322 -0.137042 0
M  V30 5029 H 464.726 1.65697 -1.02619 0
M  V30 5030 H 463.822 3.08382 -0.480284 0
M  V30 5031 N 464.123 0.554532 1.47522 0
M  V30 5032 C 465.033 -0.197865 2.33764 0
M  V30 5033 C 466.049 -0.914576 1.48025 0
M  V30 5034 O 467.225 -0.884067 1.80959 0
M  V30 5035 C 464.29 -1.21628 3.24665 0
M  V30 5036 C 463.351 -0.507283 4.26292 0
M  V30 5037 C 462.584 -1.47718 5.1285 0
M  V30 5038 O 462.807 -2.7118 5.01814 0
M  V30 5039 O 461.741 -1.00313 5.93482 0
M  V30 5040 H 465.567 0.50949 2.99396 0
M  V30 5041 H 463.152 0.315176 1.46038 0
M  V30 5042 H 465.034 -1.80421 3.80823 0
M  V30 5043 H 463.709 -1.9056 2.61665 0
M  V30 5044 H 462.616 0.121778 3.73902 0
M  V30 5045 H 463.949 0.140544 4.91999 0
M  V30 5046 N 465.601 -1.54893 0.290851 0
M  V30 5047 C 466.548 -2.23138 -0.58974 0
M  V30 5048 C 467.518 -1.21036 -1.13752 0
M  V30 5049 O 468.703 -1.49626 -1.18392 0
M  V30 5050 C 465.843 -2.96811 -1.76061 0
M  V30 5051 C 464.956 -4.13665 -1.24519 0
M  V30 5052 C 464.091 -4.74944 -2.3791 0
M  V30 5053 C 463.13 -5.83963 -1.83451 0
M  V30 5054 N 462.267 -6.39239 -2.90376 0
M  V30 5055 H 467.107 -2.98 -0.00114915 0
M  V30 5056 H 464.644 -1.47096 0.0112006 0
M  V30 5057 H 466.602 -3.37751 -2.44909 0
M  V30 5058 H 465.232 -2.24344 -2.32098 0
M  V30 5059 H 464.284 -3.77737 -0.449288 0
M  V30 5060 H 465.596 -4.92238 -0.806424 0
M  V30 5061 H 464.75 -5.18684 -3.14724 0
M  V30 5062 H 463.489 -3.95682 -2.85109 0
M  V30 5063 H 462.494 -5.39657 -1.05122 0
M  V30 5064 H 463.719 -6.65103 -1.37169 0
M  V30 5065 H 461.665 -5.62864 -3.36927 0
M  V30 5066 H 461.582 -7.13129 -2.50965 0
M  V30 5067 H 462.85 -6.87637 -3.67118 0
M  V30 5068 N 467.08 -0.0183926 -1.57589 0
M  V30 5069 C 467.99 0.982943 -2.13015 0
M  V30 5070 C 469.006 1.36443 -1.07979 0
M  V30 5071 O 470.182 1.44802 -1.3998 0
M  V30 5072 C 467.247 2.25024 -2.63752 0
M  V30 5073 C 466.308 1.93018 -3.83461 0
M  V30 5074 C 465.541 3.13706 -4.31769 0
M  V30 5075 O 465.764 4.2601 -3.79305 0
M  V30 5076 O 464.698 2.96629 -5.23732 0
M  V30 5077 H 468.524 0.541709 -2.9883 0
M  V30 5078 H 466.109 0.201565 -1.48034 0
M  V30 5079 H 467.991 2.99441 -2.96502 0
M  V30 5080 H 466.666 2.68349 -1.81026 0
M  V30 5081 H 465.573 1.16019 -3.55655 0
M  V30 5082 H 466.906 1.54516 -4.67317 0
M  V30 5083 N 468.558 1.5553 0.254621 0
M  V30 5084 C 469.468 1.92789 1.33677 0
M  V30 5085 C 470.484 0.827356 1.53071 0
M  V30 5086 O 471.66 1.12807 1.66843 0
M  V30 5087 C 468.725 2.20827 2.67275 0
M  V30 5088 C 467.786 3.4427 2.5647 0
M  V30 5089 C 467.019 3.70961 3.83697 0
M  V30 5090 O 467.242 2.99852 4.85227 0
M  V30 5091 O 466.176 4.64491 3.82794 0
M  V30 5092 H 470.002 2.84945 1.05071 0
M  V30 5093 H 467.587 1.42312 0.454723 0
M  V30 5094 H 469.469 2.40204 3.46237 0
M  V30 5095 H 468.144 1.31851 2.9563 0
M  V30 5096 H 467.051 3.30209 1.75821 0
M  V30 5097 H 468.384 4.33524 2.33062 0
M  V30 5098 N 470.036 -0.519951 1.48776 0
M  V30 5099 C 471.264 -1.29971 1.60982 0
M  V30 5100 C 471.679 -1.86803 0.273885 0
M  V30 5101 O 471.036 -1.66904 -0.738193 0
M  V30 5102 C 471.087 -2.44346 2.66415 0
M  V30 5103 O 470.808 -1.89855 3.94825 0
M  V30 5104 C 472.309 -3.36014 2.89153 0
M  V30 5105 H 469.529 -0.394891 0.542496 0
M  V30 5106 H 472.073 -0.626214 1.94676 0
M  V30 5107 H 470.228 -3.07562 2.35552 0
M  V30 5108 H 470.642 -2.64798 4.5275 0
M  V30 5109 H 472.116 -4.12593 3.66703 0
M  V30 5110 H 472.593 -3.91859 1.98351 0
M  V30 5111 H 473.199 -2.78582 3.21359 0
M  V30 5112 N 471.514 -1.37532 -0.769588 0
M  V30 5113 C 472.424 -1.35668 -1.91393 0
M  V30 5114 C 473.44 -0.255954 -1.72107 0
M  V30 5115 O 474.616 -0.491704 -1.95305 0
M  V30 5116 C 471.681 -1.16481 -3.26547 0
M  V30 5117 C 470.742 -2.36212 -3.58472 0
M  V30 5118 C 469.975 -2.17932 -4.87177 0
M  V30 5119 O 470.198 -1.1647 -5.58382 0
M  V30 5120 O 469.132 -3.06167 -5.18214 0
M  V30 5121 H 472.958 -2.32055 -1.95918 0
M  V30 5122 H 470.543 -1.18284 -0.912641 0
M  V30 5123 H 472.425 -1.07778 -4.07384 0
M  V30 5124 H 471.1 -0.231687 -3.2287 0
M  V30 5125 H 470.007 -2.50488 -2.77861 0
M  V30 5126 H 471.34 -3.281 -3.66894 0
M  V30 5127 N 472.992 0.995999 -1.22138 0
M  V30 5128 C 474.222 1.76809 -1.06874 0
M  V30 5129 C 474.63 1.85265 0.383866 0
M  V30 5130 O 473.973 1.31969 1.27789 0
M  V30 5131 C 474.035 3.2186 -1.60144 0
M  V30 5132 C 473.699 3.36958 -3.0872 0
M  V30 5133 C 474.696 3.2452 -4.0618 0
M  V30 5134 C 472.381 3.62109 -3.48112 0
M  V30 5135 C 474.375 3.37013 -5.41019 0
M  V30 5136 C 472.062 3.74243 -4.831 0
M  V30 5137 C 473.06 3.61702 -5.79362 0
M  V30 5138 O 472.748 3.73436 -7.119 0
M  V30 5139 H 472.48 0.562207 -0.375365 0
M  V30 5140 H 475.034 1.26113 -1.62125 0
M  V30 5141 H 473.264 3.73734 -0.992981 0
M  V30 5142 H 474.953 3.80775 -1.40589 0
M  V30 5143 H 475.719 3.05004 -3.77091 0
M  V30 5144 H 471.598 3.70949 -2.73712 0
M  V30 5145 H 475.142 3.27141 -6.16137 0
M  V30 5146 H 471.039 3.93266 -5.11872 0
M  V30 5147 H 471.807 3.90328 -7.19435 0
M  V30 5148 N 474.47 1.03057 1.19235 0
M  V30 5149 C 475.38 0.622922 2.26179 0
M  V30 5150 C 476.396 -0.346113 1.70523 0
M  V30 5151 O 477.572 -0.203572 2.00369 0
M  V30 5152 C 474.637 -0.0182063 3.46695 0
M  V30 5153 C 473.698 0.998546 4.17526 0
M  V30 5154 C 472.931 0.387917 5.32288 0
M  V30 5155 O 473.154 -0.808668 5.64639 0
M  V30 5156 O 472.088 1.1116 5.91546 0
M  V30 5157 H 475.914 1.51363 2.63292 0
M  V30 5158 H 473.499 0.800856 1.26122 0
M  V30 5159 H 475.381 -0.375606 4.19723 0
M  V30 5160 H 474.056 -0.882895 3.11427 0
M  V30 5161 H 472.963 1.40756 3.4661 0
M  V30 5162 H 474.296 1.83366 4.56769 0
M  V30 5163 N 475.948 -1.35272 0.808662 0
M  V30 5164 C 477.178 -2.02652 0.401953 0
M  V30 5165 C 477.586 -1.6108 -0.992462 0
M  V30 5166 O 476.929 -0.804984 -1.65123 0
M  V30 5167 C 476.991 -3.57174 0.408246 0
M  V30 5168 C 476.655 -4.22019 1.75353 0
M  V30 5169 C 477.652 -4.43552 2.71215 0
M  V30 5170 C 475.337 -4.59093 2.03811 0
M  V30 5171 C 477.331 -5.01264 3.93717 0
M  V30 5172 C 475.018 -5.16519 3.26576 0
M  V30 5173 C 476.016 -5.37546 4.21347 0
M  V30 5174 O 475.704 -5.93761 5.41944 0
M  V30 5175 H 475.436 -0.656495 0.161216 0
M  V30 5176 H 477.99 -1.73829 1.0942 0
M  V30 5177 H 476.22 -3.85197 -0.340608 0
M  V30 5178 H 477.909 -4.05893 0.0235623 0
M  V30 5179 H 478.675 -4.15288 2.50522 0
M  V30 5180 H 474.554 -4.42039 1.30854 0
M  V30 5181 H 478.098 -5.17592 4.67701 0
M  V30 5182 H 473.995 -5.4421 3.47139 0
M  V30 5183 H 474.763 -6.1221 5.43269 0
M  V30 5184 N 477.426 -0.562348 -1.47226 0
M  V30 5185 C 478.651 -0.0432632 -2.07355 0
M  V30 5186 C 479.076 1.24332 -1.41149 0
M  V30 5187 O 478.434 1.74603 -0.488226 0
M  V30 5188 C 478.482 0.130288 -3.60365 0
M  V30 5189 O 477.586 1.19166 -3.94808 0
M  V30 5190 H 476.927 -0.0536334 -0.66183 0
M  V30 5191 H 479.457 -0.779495 -1.89169 0
M  V30 5192 H 479.467 0.342881 -4.06557 0
M  V30 5193 H 478.142 -0.809389 -4.07948 0
M  V30 5194 H 476.719 0.959153 -3.60354 0
M  V30 5195 N 478.904 1.54736 -0.299062 0
M  V30 5196 C 480.152 1.99706 0.31017 0
M  V30 5197 C 480.473 1.18896 1.54559 0
M  V30 5198 O 479.743 0.284445 1.93824 0
M  V30 5199 H 478.323 0.737686 0.117596 0
M  V30 5200 H 480.985 1.9054 -0.409943 0
M  V30 5201 H 480.081 3.06596 0.58355 0
M  V30 5202 N 480.382 0.0267497 1.57577 0
M  V30 5203 C 481.607 -0.666227 1.96408 0
M  V30 5204 C 482.032 -1.65004 0.903071 0
M  V30 5205 O 481.39 -1.80787 -0.136263 0
M  V30 5206 C 481.438 -1.35101 3.34335 0
M  V30 5207 O 480.542 -2.46623 3.30531 0
M  V30 5208 H 479.883 -0.175206 0.640468 0
M  V30 5209 H 482.413 0.0878977 2.04411 0
M  V30 5210 H 482.423 -1.70834 3.70513 0
M  V30 5211 H 481.098 -0.629844 4.11103 0
M  V30 5212 H 479.675 -2.13019 3.06068 0
M  V30 5213 N 481.861 -1.55662 -0.24637 0
M  V30 5214 C 482.771 -1.93495 -1.32653 0
M  V30 5215 C 483.787 -0.835462 -1.5263 0
M  V30 5216 O 484.963 -1.1369 -1.66242 0
M  V30 5217 C 482.028 -2.22242 -2.66101 0
M  V30 5218 C 481.089 -3.45625 -2.54641 0
M  V30 5219 C 480.322 -3.72991 -3.81724 0
M  V30 5220 O 480.545 -3.02421 -4.8363 0
M  V30 5221 O 479.479 -4.66515 -3.80325 0
M  V30 5222 H 483.305 -2.85498 -1.03559 0
M  V30 5223 H 480.89 -1.42551 -0.44717 0
M  V30 5224 H 482.772 -2.42037 -3.44958 0
M  V30 5225 H 481.447 -1.33417 -2.94926 0
M  V30 5226 H 480.354 -3.31136 -1.74067 0
M  V30 5227 H 481.687 -4.34754 -2.3076 0
M  V30 5228 N 483.339 0.512053 -1.4905 0
M  V30 5229 C 484.249 1.64139 -1.67617 0
M  V30 5230 C 485.265 1.64786 -0.558701 0
M  V30 5231 O 486.441 1.8341 -0.832034 0
M  V30 5232 C 483.506 3.00548 -1.72835 0
M  V30 5233 C 482.567 3.10615 -2.96339 0
M  V30 5234 C 481.8 4.40517 -3.01298 0
M  V30 5235 O 482.023 5.28671 -2.14157 0
M  V30 5236 O 480.957 4.55325 -3.93653 0
M  V30 5237 H 484.783 1.51407 -2.63267 0
M  V30 5238 H 482.368 0.687131 -1.32661 0
M  V30 5239 H 484.25 3.81641 -1.78683 0
M  V30 5240 H 482.925 3.13566 -0.803616 0
M  V30 5241 H 481.832 2.2875 -2.96014 0
M  V30 5242 H 483.165 3.0252 -3.88256 0
M  V30 5243 N 484.817 1.37938 0.762283 0
M  V30 5244 C 485.727 1.36681 1.90671 0
M  V30 5245 C 486.743 0.265078 1.71969 0
M  V30 5246 O 487.919 0.502055 1.95042 0
M  V30 5247 C 484.984 1.18211 3.25925 0
M  V30 5248 C 484.045 2.3811 3.57214 0
M  V30 5249 C 483.278 2.20512 4.86014 0
M  V30 5250 O 483.501 1.19429 5.57757 0
M  V30 5251 O 482.435 3.08911 5.16583 0
M  V30 5252 H 486.261 2.33091 1.94685 0
M  V30 5253 H 483.846 1.18767 0.906356 0
M  V30 5254 H 485.728 1.09937 4.06807 0
M  V30 5255 H 484.403 0.248807 3.22742 0
M  V30 5256 H 483.31 2.51958 2.76529 0
M  V30 5257 H 484.643 3.30041 3.65149 0
M  V30 5258 N 486.295 -0.989507 1.22664 0
M  V30 5259 C 487.572 -1.70326 0.961688 0
M  V30 5260 C 487.952 -2.04537 -0.522279 0
M  V30 5261 O 487.3 -1.73136 -1.49118 0
M  V30 5262 C 487.51 -2.95135 1.86269 0
M  V30 5263 C 488.858 -3.67842 2.12078 0
M  V30 5264 O 489.882 -3.0515 1.83745 0
M  V30 5265 O 488.741 -4.80644 2.60083 0
M  V30 5266 H 485.835 -0.743589 0.361946 0
M  V30 5267 H 488.381 -1.04555 1.33665 0
M  V30 5268 H 487.153 -2.66382 2.8663 0
M  V30 5269 H 486.776 -3.68645 1.48952 0
M  V30 5270 N 487.773 -1.03688 -1.18687 0
M  V30 5271 C 489.05 -0.652397 -1.84399 0
M  V30 5272 C 489.43 0.868386 -1.92412 0
M  V30 5273 O 488.778 1.76832 -1.44716 0
M  V30 5274 C 488.988 -1.3238 -3.22919 0
M  V30 5275 C 490.336 -1.45216 -3.98996 0
M  V30 5276 O 491.36 -1.2816 -3.32345 0
M  V30 5277 O 490.219 -1.72975 -5.18403 0
M  V30 5278 H 487.313 -0.227793 -0.795009 0
M  V30 5279 H 489.859 -1.13553 -1.2611 0
M  V30 5280 H 488.631 -2.36202 -3.11968 0
M  V30 5281 H 488.254 -0.829039 -3.88861 0
M  V30 5282 N 489.251 1.34841 -0.815825 0
M  V30 5283 C 490.476 2.03261 -0.41226 0
M  V30 5284 C 490.901 1.61055 0.971751 0
M  V30 5285 O 490.259 0.7917 1.63101 0
M  V30 5286 C 490.307 3.56914 -0.514289 0
M  V30 5287 O 489.411 4.09728 0.468675 0
M  V30 5288 H 488.752 0.641664 -0.170771 0
M  V30 5289 H 491.282 1.72241 -1.10427 0
M  V30 5290 H 491.292 4.06156 -0.387457 0
M  V30 5291 H 489.967 3.86982 -1.52375 0
M  V30 5292 H 488.544 3.71681 0.301316 0
M  V30 5293 N 490.729 0.570148 1.46925 0
M  V30 5294 C 491.679 -0.190921 2.27199 0
M  V30 5295 C 492.663 -0.873457 1.35128 0
M  V30 5296 O 493.855 -0.769627 1.59392 0
M  V30 5297 C 490.984 -1.21204 3.21192 0
M  V30 5298 C 490.07 -0.532261 4.20747 0
M  V30 5299 N 490.461 0.405038 5.04176 0
M  V30 5300 C 488.759 -0.784582 4.39045 0
M  V30 5301 C 489.46 0.801149 5.76157 0
M  V30 5302 N 488.436 0.153082 5.43384 0
M  V30 5303 H 492.238 0.529535 2.8909 0
M  V30 5304 H 489.752 0.391019 1.57622 0
M  V30 5305 H 491.749 -1.77135 3.77398 0
M  V30 5306 H 490.409 -1.93345 2.6086 0
M  V30 5307 H 491.42 0.779903 5.11994 0
M  V30 5308 H 488.097 -1.49352 3.89872 0
M  V30 5309 H 489.487 1.57208 6.5325 0
M  V30 5310 N 492.207 -1.54576 0.307264 0
M  V30 5311 C 493.455 -1.99867 -0.299574 0
M  V30 5312 C 493.776 -1.19714 -1.53927 0
M  V30 5313 O 493.046 -0.29472 -1.9367 0
M  V30 5314 H 491.626 -0.738299 -0.113683 0
M  V30 5315 H 494.288 -1.9032 0.420042 0
M  V30 5316 H 493.384 -3.06901 -0.567283 0
M  V30 5317 N 493.685 -0.035106 -1.57561 0
M  V30 5318 C 494.595 0.960295 -2.14046 0
M  V30 5319 C 495.611 1.3529 -1.0942 0
M  V30 5320 O 496.787 1.43309 -1.41508 0
M  V30 5321 C 493.852 2.22214 -2.66124 0
M  V30 5322 C 492.913 1.8894 -3.85487 0
M  V30 5323 C 492.146 3.09109 -4.35072 0
M  V30 5324 O 492.369 4.21963 -3.83802 0
M  V30 5325 O 491.303 2.91058 -5.26848 0
M  V30 5326 H 495.129 0.509983 -2.99387 0
M  V30 5327 H 492.714 0.185853 -1.48239 0
M  V30 5328 H 494.596 2.96279 -2.99661 0
M  V30 5329 H 493.271 2.66414 -1.83862 0
M  V30 5330 H 492.178 1.12241 -3.56865 0
M  V30 5331 H 493.511 1.49551 -4.6893 0
M  V30 5332 N 495.163 1.55791 0.238111 0
M  V30 5333 C 496.073 1.94196 1.31625 0
M  V30 5334 C 497.089 0.843545 1.52185 0
M  V30 5335 O 498.265 1.1457 1.65637 0
M  V30 5336 C 495.33 2.2365 2.64918 0
M  V30 5337 C 494.391 3.46971 2.52804 0
M  V30 5338 C 493.624 3.7501 3.79741 0
M  V30 5339 O 493.847 3.04982 4.82019 0
M  V30 5340 O 492.781 4.68525 3.77846 0
M  V30 5341 H 496.607 2.86044 1.02043 0
M  V30 5342 H 494.192 1.42786 0.439603 0
M  V30 5343 H 496.074 2.43863 3.4367 0
M  V30 5344 H 494.749 1.34979 2.94215 0
M  V30 5345 H 493.656 3.32055 1.72309 0
M  V30 5346 H 494.989 4.35971 2.28451 0
M  V30 5347 N 496.642 -0.504142 1.49319 0
M  V30 5348 C 497.89 -1.25598 1.58334 0
M  V30 5349 C 498.211 -1.93114 0.270538 0
M  V30 5350 O 497.481 -1.82585 -0.709891 0
M  V30 5351 H 496.061 -0.466571 0.58337 0
M  V30 5352 H 498.723 -0.584547 1.85928 0
M  V30 5353 H 497.819 -2.02159 2.37778 0
M  V30 5354 N 498.12 -1.38341 -0.754957 0
M  V30 5355 C 499.03 -1.3769 -1.89944 0
M  V30 5356 C 500.046 -0.274194 -1.71826 0
M  V30 5357 O 501.222 -0.512391 -1.94773 0
M  V30 5358 C 498.287 -1.19938 -3.25293 0
M  V30 5359 C 497.348 -2.40001 -3.55946 0
M  V30 5360 C 496.581 -2.23087 -4.84838 0
M  V30 5361 O 496.804 -1.22386 -5.57116 0
M  V30 5362 O 495.738 -3.11646 -5.14937 0
M  V30 5363 H 499.564 -2.3412 -1.93446 0
M  V30 5364 H 497.149 -1.19246 -0.900044 0
M  V30 5365 H 499.031 -1.12093 -4.06218 0
M  V30 5366 H 497.706 -0.265919 -3.22606 0
M  V30 5367 H 496.613 -2.53421 -2.75188 0
M  V30 5368 H 497.946 -3.31973 -3.63394 0
M  V30 5369 N 499.598 0.982988 -1.23187 0
M  V30 5370 C 501.009 1.53847 -1.05773 0
M  V30 5371 C 501.36 1.92568 0.375744 0
M  V30 5372 O 500.485 1.75783 1.26211 0
M  V30 5373 C 501.08 2.79567 -1.91384 0
M  V30 5374 C 499.639 3.31524 -1.78238 0
M  V30 5375 C 498.786 2.04534 -1.87246 0
M  V30 5376 H 501.737 0.802962 -1.36888 0
M  V30 5377 H 501.758 3.52317 -1.43711 0
M  V30 5378 H 501.27 2.51353 -2.95708 0
M  V30 5379 H 499.371 3.64623 -0.766875 0
M  V30 5380 H 499.484 4.01457 -2.61475 0
M  V30 5381 H 497.848 2.1855 -1.30797 0
M  V30 5382 H 498.631 1.78706 -2.9312 0
M  V30 5383 N 501.076 1.04316 1.18135 0
M  V30 5384 C 502.301 0.768047 1.92655 0
M  V30 5385 C 502.726 -0.66904 1.758 0
M  V30 5386 O 502.084 -1.46372 1.06981 0
M  V30 5387 C 502.132 1.14239 3.42026 0
M  V30 5388 O 501.236 0.269333 4.1152 0
M  V30 5389 H 500.577 0.282436 0.600937 0
M  V30 5390 H 503.107 1.39367 1.49793 0
M  V30 5391 H 503.117 1.10538 3.92741 0
M  V30 5392 H 501.792 2.18928 3.53615 0
M  V30 5393 H 500.369 0.366175 3.71098 0
M  V30 5394 N 502.554 -1.34406 0.822964 0
M  V30 5395 C 503.779 -2.0304 0.423034 0
M  V30 5396 C 504.204 -1.61568 -0.963196 0
M  V30 5397 O 503.562 -0.800339 -1.62678 0
M  V30 5398 C 503.61 -3.56636 0.53321 0
M  V30 5399 O 502.714 -4.09971 -0.446939 0
M  V30 5400 H 502.055 -0.64075 0.174171 0
M  V30 5401 H 504.585 -1.71653 1.11339 0
M  V30 5402 H 504.595 -4.05945 0.408991 0
M  V30 5403 H 503.27 -3.86168 1.54425 0
M  V30 5404 H 501.847 -3.71835 -0.281601 0
M  V30 5405 N 504.032 -0.577932 -1.46621 0
M  V30 5406 C 505.281 -0.0594281 -2.01612 0
M  V30 5407 C 505.594 1.30663 -1.45556 0
M  V30 5408 O 506.8 1.91621 -1.92337 0
M  V30 5409 C 505.256 -0.0556666 -3.59857 0
M  V30 5410 C 504.864 -1.41975 -4.24908 0
M  V30 5411 C 506.608 0.409143 -4.22524 0
M  V30 5412 C 504.515 -1.37397 -5.75218 0
M  V30 5413 H 503.445 -0.0184469 -0.753774 0
M  V30 5414 H 506.096 -0.728869 -1.68404 0
M  V30 5415 H 504.478 0.679843 -3.90121 0
M  V30 5416 H 505.652 -2.17461 -4.0626 0
M  V30 5417 H 503.967 -1.82419 -3.74316 0
M  V30 5418 H 506.564 0.46211 -5.32699 0
M  V30 5419 H 506.907 1.42565 -3.91128 0
M  V30 5420 H 507.44 -0.272152 -3.96868 0
M  V30 5421 H 504.179 -2.36714 -6.11267 0
M  V30 5422 H 503.699 -0.661239 -5.96144 0
M  V30 5423 H 505.378 -1.08484 -6.3784 0
M  V30 5424 N 505.51 1.54411 -0.315457 0
M  V30 5425 C 506.443 2.20265 0.596522 0
M  V30 5426 C 507.421 1.17693 1.12192 0
M  V30 5427 O 508.605 1.46397 1.18744 0
M  V30 5428 C 505.732 2.85794 1.81767 0
M  V30 5429 C 504.778 4.02017 1.42424 0
M  V30 5430 S 505.611 5.33452 0.467836 0
M  V30 5431 C 506.767 6.02471 1.69645 0
M  V30 5432 H 507 2.97277 0.0370896 0
M  V30 5433 H 504.533 1.54079 -0.0995562 0
M  V30 5434 H 506.491 3.24172 2.51839 0
M  V30 5435 H 505.152 2.08601 2.34828 0
M  V30 5436 H 504.345 4.46701 2.33396 0
M  V30 5437 H 503.947 3.65271 0.803311 0
M  V30 5438 H 506.239 6.24157 2.63504 0
M  V30 5439 H 507.182 6.96215 1.29192 0
M  V30 5440 H 507.59 5.32284 1.87974 0
M  V30 5441 N 506.988 0.0434614 1.5754 0
M  V30 5442 C 507.936 -0.951465 2.1225 0
M  V30 5443 C 508.93 -1.3274 1.05245 0
M  V30 5444 O 510.136 -1.30795 1.23663 0
M  V30 5445 H 506.511 -0.324667 0.678303 0
M  V30 5446 H 508.482 -0.464855 2.94757 0
M  V30 5447 C 507.231 -2.21972 2.67626 0
M  V30 5448 H 506.554 -1.93923 3.4962 0
M  V30 5449 H 507.994 -2.89765 3.09536 0
M  V30 5450 C 506.453 -2.95919 1.61038 0
M  V30 5451 O 506.983 -3.8857 1.01862 0
M  V30 5452 N 505.189 -2.58511 1.32741 0
M  V30 5453 H 504.736 -1.83244 1.81051 0
M  V30 5454 H 504.694 -3.08296 0.616531 0
M  V30 5455 N 508.466 -1.55915 -0.229846 0
M  V30 5456 C 509.712 -1.78807 -0.956868 0
M  V30 5457 C 510.045 -0.611687 -1.84315 0
M  V30 5458 O 509.32 0.389398 -1.90562 0
M  V30 5459 C 509.603 -3.11718 -1.80288 0
M  V30 5460 C 509.456 -4.3979 -0.943649 0
M  V30 5461 C 510.775 -3.40999 -2.78222 0
M  V30 5462 H 507.894 -0.6505 -0.346437 0
M  V30 5463 H 510.536 -1.88648 -0.226252 0
M  V30 5464 H 508.686 -3.03459 -2.42579 0
M  V30 5465 H 510.358 -4.60059 -0.338121 0
M  V30 5466 H 508.601 -4.33086 -0.248705 0
M  V30 5467 H 509.272 -5.29208 -1.5698 0
M  V30 5468 H 511.748 -3.49332 -2.26067 0
M  V30 5469 H 510.624 -4.35183 -3.34526 0
M  V30 5470 H 510.885 -2.62754 -3.55546 0
M  V30 5471 N 509.944 0.496216 -1.49584 0
M  V30 5472 C 511.355 1.07765 -1.52459 0
M  V30 5473 C 511.706 1.93679 -0.31353 0
M  V30 5474 O 510.831 2.08588 0.576186 0
M  V30 5475 C 511.426 1.96111 -2.76271 0
M  V30 5476 C 509.985 2.49409 -2.81908 0
M  V30 5477 C 509.132 1.27142 -2.46435 0
M  V30 5478 H 512.083 0.279914 -1.56212 0
M  V30 5479 H 512.104 2.80862 -2.56704 0
M  V30 5480 H 511.616 1.33555 -3.64396 0
M  V30 5481 H 509.717 3.1559 -1.98074 0
M  V30 5482 H 509.83 2.86234 -3.84196 0
M  V30 5483 H 508.194 1.59818 -1.98319 0
M  V30 5484 H 508.977 0.662866 -3.3684 0
M  V30 5485 N 511.423 1.38739 0.74761 0
M  V30 5486 C 512.671 1.35007 1.50391 0
M  V30 5487 C 512.992 -0.0574274 1.94915 0
M  V30 5488 O 512.262 -1.00628 1.6808 0
M  V30 5489 H 510.842 0.496784 0.557866 0
M  V30 5490 H 513.504 1.73479 0.888319 0
M  V30 5491 H 512.6 2.00474 2.392 0
M  V30 5492 N 512.901 -0.976442 1.23707 0
M  V30 5493 C 513.811 -2.10359 1.03856 0
M  V30 5494 C 514.827 -1.73991 -0.0180919 0
M  V30 5495 O 516.003 -2.0061 0.178211 0
M  V30 5496 C 513.068 -3.40809 0.636387 0
M  V30 5497 C 512.129 -3.91179 1.76854 0
M  V30 5498 C 511.362 -5.15404 1.38546 0
M  V30 5499 O 511.585 -5.69754 0.27142 0
M  V30 5500 O 510.519 -5.5994 2.20797 0
M  V30 5501 H 514.345 -2.29997 1.98331 0
M  V30 5502 H 511.93 -1.08742 1.02448 0
M  V30 5503 H 513.812 -4.19269 0.423223 0
M  V30 5504 H 512.487 -3.22493 -0.279322 0
M  V30 5505 H 511.394 -3.13819 2.03638 0
M  V30 5506 H 512.727 -4.13958 2.6627 0
M  V30 5507 N 514.379 -1.04941 -1.1758 0
M  V30 5508 C 515.604 -0.778253 -1.92245 0
M  V30 5509 C 516.029 0.659707 -1.76152 0
M  V30 5510 O 515.387 1.45803 -1.07755 0
M  V30 5511 C 515.435 -1.16051 -3.41416 0
M  V30 5512 O 514.539 -0.291153 -4.11371 0
M  V30 5513 H 513.88 -0.285619 -0.599431 0
M  V30 5514 H 516.41 -1.40159 -1.49052 0
M  V30 5515 H 516.42 -1.12619 -3.92149 0
M  V30 5516 H 515.095 -2.208 -3.52449 0
M  V30 5517 H 513.672 -0.385851 -3.70898 0
M  V30 5518 N 515.857 1.33968 -0.830081 0
M  V30 5519 C 517.085 2.0228 -0.434773 0
M  V30 5520 C 517.5 1.62487 0.961419 0
M  V30 5521 O 516.857 0.833849 1.62337 0
M  V30 5522 C 516.908 3.5751 -0.535625 0
M  V30 5523 O 516.629 3.95864 -1.87679 0
M  V30 5524 C 518.13 4.43091 -0.136137 0
M  V30 5525 H 515.35 0.648151 -0.173613 0
M  V30 5526 H 517.894 1.71089 -1.12022 0
M  V30 5527 H 516.049 3.87266 0.101817 0
M  V30 5528 H 516.463 4.9056 -1.85609 0
M  V30 5529 H 517.937 5.51398 -0.257772 0
M  V30 5530 H 518.414 4.29433 0.921076 0
M  V30 5531 H 519.02 4.18677 -0.747662 0
M  V30 5532 N 517.335 0.585699 1.46312 0
M  V30 5533 C 518.265 -0.133556 2.33118 0
M  V30 5534 C 519.246 -0.880707 1.45525 0
M  V30 5535 O 520.431 -0.855579 1.74337 0
M  V30 5536 C 517.561 -1.14585 3.27853 0
M  V30 5537 C 516.515 -0.513341 4.2491 0
M  V30 5538 C 515.841 -1.63231 5.09175 0
M  V30 5539 C 517.141 0.551413 5.19381 0
M  V30 5540 H 518.835 0.59121 2.93505 0
M  V30 5541 H 516.381 0.285761 1.41136 0
M  V30 5542 H 518.334 -1.65741 3.87438 0
M  V30 5543 H 517.058 -1.90093 2.65579 0
M  V30 5544 H 515.717 -0.0228349 3.66593 0
M  V30 5545 H 515.365 -2.37713 4.43285 0
M  V30 5546 H 515.065 -1.21473 5.74907 0
M  V30 5547 H 516.589 -2.14658 5.71624 0
M  V30 5548 H 518.003 0.124804 5.73164 0
M  V30 5549 H 516.4 0.889486 5.93471 0
M  V30 5550 H 517.47 1.43655 4.63132 0
M  V30 5551 N 518.813 -1.54241 0.323641 0
M  V30 5552 C 520.229 -1.59574 -0.0290018 0
M  V30 5553 C 520.429 -1.34017 -1.50472 0
M  V30 5554 O 519.485 -1.12464 -2.26071 0
M  V30 5555 C 520.798 -2.98169 0.389295 0
M  V30 5556 C 522.346 -3.11148 0.339958 0
M  V30 5557 C 522.821 -4.5209 0.733418 0
M  V30 5558 N 524.312 -4.5808 0.686827 0
M  V30 5559 C 525.047 -5.65248 0.963464 0
M  V30 5560 N 524.543 -6.80355 1.30724 0
M  V30 5561 N 526.336 -5.55025 0.88902 0
M  V30 5562 H 518.487 -1.6911 1.28512 0
M  V30 5563 H 520.75 -0.790972 0.522558 0
M  V30 5564 H 520.456 -3.21871 1.41746 0
M  V30 5565 H 520.33 -3.76399 -0.245657 0
M  V30 5566 H 522.717 -2.87182 -0.679002 0
M  V30 5567 H 522.798 -2.35023 1.00985 0
M  V30 5568 H 522.442 -4.76788 1.75029 0
M  V30 5569 H 522.372 -5.26584 0.0412189 0
M  V30 5570 H 524.863 -3.75411 0.43298 0
M  V30 5571 H 525.176 -7.58029 1.5037 0
M  V30 5572 H 523.521 -6.81851 1.3455 0
M  V30 5573 H 526.712 -4.63977 0.619939 0
M  V30 5574 H 526.885 -6.38458 1.10797 0
M  V30 5575 N 520.291 -0.0518155 -1.57515 0
M  V30 5576 C 521.707 0.304735 -1.56664 0
M  V30 5577 C 521.907 1.71395 -1.05953 0
M  V30 5578 O 520.963 2.42123 -0.716414 0
M  V30 5579 C 522.276 0.132614 -3.00407 0
M  V30 5580 C 523.824 0.20367 -3.12337 0
M  V30 5581 C 524.299 0.0600706 -4.57961 0
M  V30 5582 N 525.79 0.116326 -4.63054 0
M  V30 5583 C 526.525 0.0293363 -5.73392 0
M  V30 5584 N 526.021 -0.110038 -6.92713 0
M  V30 5585 N 527.814 0.0849651 -5.62036 0
M  V30 5586 H 519.965 -0.973056 -1.888 0
M  V30 5587 H 522.228 -0.377781 -0.869474 0
M  V30 5588 H 521.934 -0.839019 -3.41546 0
M  V30 5589 H 521.808 0.893376 -3.66468 0
M  V30 5590 H 524.195 1.16578 -2.71097 0
M  V30 5591 H 524.276 -0.587857 -2.48954 0
M  V30 5592 H 523.92 -0.898715 -4.99886 0
M  V30 5593 H 523.85 0.87075 -5.19351 0
M  V30 5594 H 526.341 0.22327 -3.7724 0
M  V30 5595 H 526.654 -0.169104 -7.72615 0
M  V30 5596 H 524.999 -0.145132 -6.94848 0
M  V30 5597 H 528.19 0.192411 -4.67704 0
M  V30 5598 H 528.363 0.0137131 -6.47999 0
M  V30 5599 N 521.769 1.56035 0.221574 0
M  V30 5600 C 522.679 1.95581 1.29558 0
M  V30 5601 C 523.695 0.859639 1.51282 0
M  V30 5602 O 524.871 1.16321 1.64413 0
M  V30 5603 C 521.936 2.26447 2.62531 0
M  V30 5604 C 520.997 3.49632 2.4911 0
M  V30 5605 C 520.23 3.79017 3.75742 0
M  V30 5606 O 520.453 3.10077 4.78757 0
M  V30 5607 O 519.387 4.72507 3.72855 0
M  V30 5608 H 523.213 2.8711 0.990035 0
M  V30 5609 H 520.798 1.43244 0.424434 0
M  V30 5610 H 522.68 2.47494 3.41064 0
M  V30 5611 H 521.355 1.38092 2.92766 0
M  V30 5612 H 520.262 3.33864 1.68777 0
M  V30 5613 H 521.595 4.3837 2.23814 0
M  V30 5614 N 523.247 -0.488276 1.49845 0
M  V30 5615 C 524.494 -1.24157 1.59973 0
M  V30 5616 C 524.822 -1.92293 0.292182 0
M  V30 5617 O 524.077 -1.81942 -0.720813 0
M  V30 5618 C 524.376 -2.32152 2.71735 0
M  V30 5619 C 524.042 -1.81387 4.12807 0
M  V30 5620 C 522.704 -1.67262 4.51195 0
M  V30 5621 C 525.056 -1.43537 5.01045 0
M  V30 5622 C 522.384 -1.13685 5.7558 0
M  V30 5623 C 524.736 -0.914081 6.25961 0
M  V30 5624 C 523.4 -0.759327 6.63167 0
M  V30 5625 H 522.67 -0.454322 0.585383 0
M  V30 5626 H 525.317 -0.540261 1.83721 0
M  V30 5627 H 523.622 -3.08122 2.42008 0
M  V30 5628 H 525.319 -2.90164 2.76778 0
M  V30 5629 H 521.909 -1.93344 3.82513 0
M  V30 5630 H 526.093 -1.53292 4.72033 0
M  V30 5631 H 521.349 -1.00426 6.03096 0
M  V30 5632 H 525.523 -0.612066 6.93705 0
M  V30 5633 H 523.15 -0.342002 7.5943 0
M  V30 5634 N 524.725 -1.39134 -0.740242 0
M  V30 5635 C 525.655 -1.40165 -1.86751 0
M  V30 5636 C 526.636 -0.265708 -1.68012 0
M  V30 5637 O 527.821 -0.47076 -1.88408 0
M  V30 5638 C 524.951 -1.2392 -3.2444 0
M  V30 5639 C 523.905 -2.34858 -3.57807 0
M  V30 5640 C 523.231 -2.03707 -4.94376 0
M  V30 5641 C 524.531 -3.77159 -3.61315 0
M  V30 5642 H 526.225 -2.345 -1.86145 0
M  V30 5643 H 523.771 -1.12875 -0.89416 0
M  V30 5644 H 525.724 -1.23263 -4.02969 0
M  V30 5645 H 524.448 -0.26051 -3.25559 0
M  V30 5646 H 523.107 -2.34723 -2.81604 0
M  V30 5647 H 522.755 -1.04289 -4.9207 0
M  V30 5648 H 522.455 -2.78016 -5.17669 0
M  V30 5649 H 523.979 -2.04691 -5.75268 0
M  V30 5650 H 525.393 -3.79252 -4.29931 0
M  V30 5651 H 523.79 -4.50784 -3.96124 0
M  V30 5652 H 524.86 -4.08513 -2.61238 0
M  V30 5653 N 526.204 0.969867 -1.24223 0
M  V30 5654 C 527.62 1.23809 -1.00716 0
M  V30 5655 C 527.82 1.99469 0.285358 0
M  V30 5656 O 526.876 2.31764 1.00207 0
M  V30 5657 C 528.189 2.02734 -2.2208 0
M  V30 5658 C 529.737 2.15834 -2.26681 0
M  V30 5659 C 530.212 2.98154 -3.47661 0
M  V30 5660 N 531.703 3.05737 -3.47964 0
M  V30 5661 C 532.438 3.69785 -4.38231 0
M  V30 5662 N 531.934 4.35569 -5.3875 0
M  V30 5663 N 533.727 3.66775 -4.25949 0
M  V30 5664 H 525.878 0.463294 -2.07286 0
M  V30 5665 H 528.141 0.267348 -0.909521 0
M  V30 5666 H 527.847 1.54524 -3.15935 0
M  V30 5667 H 527.721 3.0347 -2.24021 0
M  V30 5668 H 530.108 2.63248 -1.33359 0
M  V30 5669 H 530.189 1.14453 -2.28767 0
M  V30 5670 H 529.833 2.51435 -4.41297 0
M  V30 5671 H 529.763 3.99729 -3.42818 0
M  V30 5672 H 532.254 2.58941 -2.75242 0
M  V30 5673 H 532.567 4.82251 -6.03866 0
M  V30 5674 H 530.912 4.34244 -5.42639 0
M  V30 5675 H 534.103 3.14558 -3.46657 0
M  V30 5676 H 534.276 4.16407 -4.96497 0
M  V30 5677 N 527.682 1.05563 1.17022 0
M  V30 5678 C 528.612 0.681026 2.23348 0
M  V30 5679 C 529.593 -0.322983 1.67005 0
M  V30 5680 O 530.778 -0.199746 1.9317 0
M  V30 5681 C 527.908 0.0589053 3.4725 0
M  V30 5682 C 526.862 0.988082 4.16438 0
M  V30 5683 C 526.188 0.229646 5.34207 0
M  V30 5684 C 527.488 2.31388 4.68249 0
M  V30 5685 H 529.182 1.56993 2.54938 0
M  V30 5686 H 526.728 0.756302 1.2254 0
M  V30 5687 H 528.681 -0.214982 4.20851 0
M  V30 5688 H 527.405 -0.864968 3.14938 0
M  V30 5689 H 526.064 1.24659 3.44754 0
M  V30 5690 H 525.712 -0.697111 4.98146 0
M  V30 5691 H 525.412 0.848815 5.81437 0
M  V30 5692 H 526.936 -0.0368694 6.10589 0
M  V30 5693 H 528.35 2.09964 5.33468 0
M  V30 5694 H 526.747 2.88736 5.26072 0
M  V30 5695 H 527.817 2.94982 3.84855 0
M  V30 5696 N 529.16 -1.33526 0.837174 0
M  V30 5697 C 530.092 -2.28077 0.226579 0
M  V30 5698 C 531.105 -1.51666 -0.591717 0
M  V30 5699 O 532.294 -1.73511 -0.419064 0
M  V30 5700 C 529.394 -3.31597 -0.69978 0
M  V30 5701 C 528.567 -4.37329 0.0788067 0
M  V30 5702 C 527.626 -5.20526 -0.770637 0
M  V30 5703 O 526.652 -5.68811 -0.210453 0
M  V30 5704 N 527.854 -5.41639 -2.08825 0
M  V30 5705 H 530.619 -2.81115 1.03897 0
M  V30 5706 H 528.18 -1.46201 0.695476 0
M  V30 5707 H 530.172 -3.84158 -1.27298 0
M  V30 5708 H 528.742 -2.78848 -1.41288 0
M  V30 5709 H 527.962 -3.8529 0.833381 0
M  V30 5710 H 529.25 -5.05079 0.614238 0
M  V30 5711 H 528.648 -5.04108 -2.56693 0
M  V30 5712 H 527.205 -5.97263 -2.60998 0
M  V30 5713 N 530.638 -0.59345 -1.46 0
M  V30 5714 C 531.57 0.171569 -2.28557 0
M  V30 5715 C 532.583 0.845273 -1.39137 0
M  V30 5716 O 533.772 0.713033 -1.6364 0
M  V30 5717 C 530.872 1.26311 -3.14482 0
M  V30 5718 C 530.045 0.679258 -4.32094 0
M  V30 5719 C 529.104 1.65987 -4.99334 0
M  V30 5720 O 528.13 1.19171 -5.56585 0
M  V30 5721 N 529.332 2.99414 -4.97324 0
M  V30 5722 H 532.097 -0.536771 -2.94854 0
M  V30 5723 H 529.658 -0.431954 -1.56031 0
M  V30 5724 H 531.65 1.91863 -3.5633 0
M  V30 5725 H 530.22 1.87416 -2.50188 0
M  V30 5726 H 529.44 -0.153992 -3.93899 0
M  V30 5727 H 530.728 0.26916 -5.08088 0
M  V30 5728 H 530.126 3.40064 -4.52076 0
M  V30 5729 H 528.683 3.60426 -5.4308 0
M  V30 5730 N 532.116 1.54067 -0.331816 0
M  V30 5731 C 533.026 2.28322 0.539104 0
M  V30 5732 C 534.042 1.32985 1.1221 0
M  V30 5733 O 535.218 1.6601 1.1403 0
M  V30 5734 C 532.283 3.03277 1.68 0
M  V30 5735 C 531.344 4.14216 1.12798 0
M  V30 5736 C 530.577 4.85588 2.2145 0
M  V30 5737 O 530.8 4.56536 3.41952 0
M  V30 5738 O 529.734 5.72309 1.86404 0
M  V30 5739 H 533.56 3.03632 -0.0641692 0
M  V30 5740 H 531.145 1.49083 -0.0972365 0
M  V30 5741 H 533.027 3.50189 2.34405 0
M  V30 5742 H 531.702 2.30834 2.2693 0
M  V30 5743 H 530.609 3.71635 0.428782 0
M  V30 5744 H 531.942 4.88727 0.583698 0
M  V30 5745 N 533.594 0.0601682 1.57485 0
M  V30 5746 C 534.542 -0.928899 2.13247 0
M  V30 5747 C 535.536 -1.31616 1.06647 0
M  V30 5748 O 536.742 -1.29476 1.25043 0
M  V30 5749 H 533.117 -0.317455 0.681708 0
M  V30 5750 H 535.088 -0.433566 2.95233 0
M  V30 5751 C 533.837 -2.19121 2.69965 0
M  V30 5752 H 533.16 -1.90204 3.51657 0
M  V30 5753 H 534.6 -2.86465 3.12592 0
M  V30 5754 C 533.059 -2.94195 1.64168 0
M  V30 5755 O 533.589 -3.87468 1.05978 0
M  V30 5756 N 531.795 -2.57089 1.35476 0
M  V30 5757 H 531.342 -1.81314 1.82984 0
M  V30 5758 H 531.3 -3.07624 0.649196 0
M  V30 5759 N 535.072 -1.5615 -0.213296 0
M  V30 5760 C 536.019 -1.93086 -1.26437 0
M  V30 5761 C 536.989 -0.789086 -1.4616 0
M  V30 5762 O 538.174 -1.04569 -1.59593 0
M  V30 5763 C 535.314 -2.26003 -2.608 0
M  V30 5764 C 534.427 -3.53156 -2.48807 0
M  V30 5765 C 533.562 -3.7548 -3.7575 0
M  V30 5766 C 532.601 -4.96119 -3.58514 0
M  V30 5767 N 531.738 -5.14791 -4.77425 0
M  V30 5768 H 536.578 -2.82707 -0.942376 0
M  V30 5769 H 534.115 -1.39919 -0.454001 0
M  V30 5770 H 536.073 -2.431 -3.39055 0
M  V30 5771 H 534.703 -1.39546 -2.91079 0
M  V30 5772 H 533.755 -3.44207 -1.61944 0
M  V30 5773 H 535.067 -4.41565 -2.31996 0
M  V30 5774 H 534.221 -3.92718 -4.62447 0
M  V30 5775 H 532.96 -2.85368 -3.95495 0
M  V30 5776 H 531.965 -4.78823 -2.70201 0
M  V30 5777 H 533.19 -5.87724 -3.40231 0
M  V30 5778 H 531.136 -4.27623 -4.97468 0
M  V30 5779 H 531.053 -5.97347 -4.63371 0
M  V30 5780 H 532.321 -5.36471 -5.65525 0
M  V30 5781 N 536.55 0.480323 -1.50102 0
M  V30 5782 C 537.775 1.26126 -1.64642 0
M  V30 5783 C 538.2 1.85257 -0.325823 0
M  V30 5784 O 537.558 1.66854 0.709194 0
M  V30 5785 C 537.606 2.35243 -2.73301 0
M  V30 5786 O 536.71 3.39646 -2.33911 0
M  V30 5787 H 536.051 0.371463 -0.550374 0
M  V30 5788 H 538.581 0.572696 -1.96421 0
M  V30 5789 H 538.591 2.80695 -2.96098 0
M  V30 5790 H 537.266 1.91574 -3.6915 0
M  V30 5791 H 535.843 2.99969 -2.21525 0
M  V30 5792 N 538.028 1.39524 0.732853 0
M  V30 5793 C 538.976 1.38563 1.86824 0
M  V30 5794 C 539.97 0.268467 1.67259 0
M  V30 5795 O 541.176 0.438613 1.74574 0
M  V30 5796 H 537.551 0.432737 0.615014 0
M  V30 5797 H 539.522 2.34328 1.84751 0
M  V30 5798 C 538.271 1.2481 3.24527 0
M  V30 5799 H 537.594 2.10044 3.40179 0
M  V30 5800 H 539.034 1.28194 4.04156 0
M  V30 5801 C 537.493 -0.0432825 3.36872 0
M  V30 5802 O 538.023 -1.01268 3.88726 0
M  V30 5803 N 536.229 -0.107055 2.90403 0
M  V30 5804 H 535.776 0.682512 2.48394 0
M  V30 5805 H 535.734 -0.970618 2.99042 0
M  V30 5806 N 539.506 -0.963266 1.24736 0
M  V30 5807 C 540.731 -1.74699 1.11781 0
M  V30 5808 C 541.156 -1.85267 -0.325258 0
M  V30 5809 O 540.514 -1.32681 -1.23553 0
M  V30 5810 C 540.562 -3.14322 1.76731 0
M  V30 5811 O 539.666 -3.99043 1.04109 0
M  V30 5812 H 539.007 -0.53684 0.390767 0
M  V30 5813 H 541.537 -1.20801 1.65131 0
M  V30 5814 H 541.547 -3.64824 1.82668 0
M  V30 5815 H 540.222 -3.05946 2.81726 0
M  V30 5816 H 538.799 -3.5752 1.05991 0
M  V30 5817 N 540.985 -1.06182 -1.16461 0
M  V30 5818 C 541.895 -0.682671 -2.24448 0
M  V30 5819 C 542.911 0.30078 -1.71381 0
M  V30 5820 O 544.087 0.150376 -2.00838 0
M  V30 5821 C 541.152 -0.0737202 -3.46622 0
M  V30 5822 C 540.213 -1.10889 -4.14731 0
M  V30 5823 C 539.446 -0.528908 -5.31073 0
M  V30 5824 O 539.669 0.65868 -5.66584 0
M  V30 5825 O 538.603 -1.26805 -5.88391 0
M  V30 5826 H 542.429 -1.58291 -2.59187 0
M  V30 5827 H 540.014 -0.834013 -1.23954 0
M  V30 5828 H 541.896 0.264192 -4.20571 0
M  V30 5829 H 540.571 0.800015 -3.13658 0
M  V30 5830 H 539.478 -1.49896 -3.42756 0
M  V30 5831 H 540.811 -1.95412 -4.51747 0
M  V30 5832 N 542.463 1.3308 -0.844243 0
M  V30 5833 C 543.426 2.27403 -0.286485 0
M  V30 5834 C 544.426 1.51179 0.547872 0
M  V30 5835 O 545.616 1.70421 0.360886 0
M  V30 5836 C 542.748 3.35653 0.595813 0
M  V30 5837 H 543.941 2.78248 -1.11885 0
M  V30 5838 H 541.494 1.43574 -0.617749 0
M  V30 5839 H 542.229 2.90058 1.4504 0
M  V30 5840 H 542.014 3.921 -0.00125994 0
M  V30 5841 H 543.504 4.05958 0.979168 0
M  V30 5842 N 543.941 0.601185 1.45683 0
M  V30 5843 C 544.871 -0.108824 2.33246 0
M  V30 5844 C 545.852 -0.865223 1.46451 0
M  V30 5845 O 547.037 -0.83704 1.75235 0
M  V30 5846 C 544.167 -1.11101 3.2905 0
M  V30 5847 C 543.121 -0.468244 4.25431 0
M  V30 5848 C 542.447 -1.57822 5.10878 0
M  V30 5849 C 543.747 0.606469 5.18767 0
M  V30 5850 H 545.441 0.622306 2.92861 0
M  V30 5851 H 542.987 0.300714 1.40825 0
M  V30 5852 H 544.94 -1.61622 3.89174 0
M  V30 5853 H 543.664 -1.87265 2.67581 0
M  V30 5854 H 542.323 0.0160484 3.66596 0
M  V30 5855 H 541.971 -2.32998 4.45781 0
M  V30 5856 H 541.671 -1.15369 5.76163 0
M  V30 5857 H 543.195 -2.08583 5.73869 0
M  V30 5858 H 544.609 0.185589 5.73 0
M  V30 5859 H 543.006 0.952381 5.92494 0
M  V30 5860 H 544.076 1.48559 4.61582 0
M  V30 5861 N 545.419 -1.53889 0.339982 0
M  V30 5862 C 546.366 -2.24902 -0.518452 0
M  V30 5863 C 547.336 -1.24593 -1.09844 0
M  V30 5864 O 548.521 -1.53317 -1.13572 0
M  V30 5865 C 545.661 -3.02262 -1.66529 0
M  V30 5866 C 544.774 -4.17418 -1.11295 0
M  V30 5867 C 543.909 -4.82273 -2.2268 0
M  V30 5868 C 542.948 -5.89503 -1.6478 0
M  V30 5869 N 542.085 -6.48153 -2.69893 0
M  V30 5870 H 546.925 -2.97853 0.0936579 0
M  V30 5871 H 544.462 -1.46986 0.0579924 0
M  V30 5872 H 546.42 -3.45371 -2.3404 0
M  V30 5873 H 545.05 -2.31614 -2.24844 0
M  V30 5874 H 544.102 -3.78976 -0.328886 0
M  V30 5875 H 545.414 -4.94554 -0.649414 0
M  V30 5876 H 544.568 -5.28435 -2.98063 0
M  V30 5877 H 543.307 -4.04552 -2.72376 0
M  V30 5878 H 542.312 -5.42728 -0.879004 0
M  V30 5879 H 543.537 -6.6913 -1.1594 0
M  V30 5880 H 541.483 -5.73298 -3.1885 0
M  V30 5881 H 541.4 -7.20752 -2.28151 0
M  V30 5882 H 542.668 -6.98968 -3.45056 0
M  V30 5883 N 546.897 -0.0685191 -1.57451 0
M  V30 5884 C 547.829 0.929372 -2.09512 0
M  V30 5885 C 548.842 1.26354 -1.02657 0
M  V30 5886 O 550.031 1.2213 -1.30179 0
M  V30 5887 C 547.131 2.24612 -2.53777 0
M  V30 5888 C 546.304 2.09128 -3.84167 0
M  V30 5889 C 545.363 3.24079 -4.14559 0
M  V30 5890 O 544.389 2.99215 -4.8421 0
M  V30 5891 N 545.591 4.49077 -3.67845 0
M  V30 5892 H 548.356 0.484901 -2.95751 0
M  V30 5893 H 545.917 0.11729 -1.61475 0
M  V30 5894 H 547.909 3.00412 -2.71172 0
M  V30 5895 H 546.479 2.60569 -1.72692 0
M  V30 5896 H 545.699 1.17815 -3.76182 0
M  V30 5897 H 546.987 1.9603 -4.69521 0
M  V30 5898 H 546.385 4.72165 -3.11571 0
M  V30 5899 H 544.942 5.21915 -3.90446 0
M  V30 5900 N 548.375 1.56261 0.205012 0
M  V30 5901 C 549.307 1.90266 1.27795 0
M  V30 5902 C 550.32 0.792397 1.42214 0
M  V30 5903 O 551.509 1.07077 1.42817 0
M  V30 5904 C 548.609 2.11074 2.65143 0
M  V30 5905 C 547.782 3.42176 2.7246 0
M  V30 5906 C 546.841 3.52216 3.90936 0
M  V30 5907 O 545.867 4.25119 3.78501 0
M  V30 5908 N 547.069 2.84573 5.05963 0
M  V30 5909 H 549.834 2.82896 0.989434 0
M  V30 5910 H 547.395 1.57008 0.394981 0
M  V30 5911 H 549.387 2.15089 3.4281 0
M  V30 5912 H 547.957 1.2499 2.86524 0
M  V30 5913 H 547.177 3.50116 1.81142 0
M  V30 5914 H 548.465 4.28509 2.74331 0
M  V30 5915 H 547.863 2.25152 5.18963 0
M  V30 5916 H 546.42 2.94228 5.81613 0
M  V30 5917 N 549.853 -0.472356 1.50355 0
M  V30 5918 C 550.785 -1.58795 1.65278 0
M  V30 5919 C 551.798 -1.53782 0.534313 0
M  V30 5920 O 552.987 -1.59193 0.807446 0
M  V30 5921 C 550.087 -2.97672 1.62001 0
M  V30 5922 C 549.26 -3.27568 2.89859 0
M  V30 5923 C 548.319 -4.45993 2.79242 0
M  V30 5924 O 547.345 -4.46364 3.53197 0
M  V30 5925 N 548.547 -5.47578 1.92713 0
M  V30 5926 H 551.312 -1.46411 2.61503 0
M  V30 5927 H 548.873 -0.660751 1.47803 0
M  V30 5928 H 550.865 -3.74862 1.52513 0
M  V30 5929 H 549.435 -3.03832 0.735159 0
M  V30 5930 H 548.655 -2.39003 3.13483 0
M  V30 5931 H 549.943 -3.44352 3.74565 0
M  V30 5932 H 549.341 -5.50099 1.31939 0
M  V30 5933 H 547.898 -6.23757 1.8913 0
M  V30 5934 N 551.331 -1.39911 -0.725443 0
M  V30 5935 C 552.263 -1.35301 -1.85003 0
M  V30 5936 C 553.276 -0.260102 -1.60709 0
M  V30 5937 O 554.465 -0.519749 -1.70766 0
M  V30 5938 C 551.565 -1.08039 -3.21218 0
M  V30 5939 C 550.738 -2.28793 -3.7279 0
M  V30 5940 C 549.797 -1.97841 -4.87591 0
M  V30 5941 O 548.823 -2.70616 -5.00755 0
M  V30 5942 N 550.025 -0.950367 -5.72668 0
M  V30 5943 H 552.79 -2.32218 -1.89459 0
M  V30 5944 H 550.351 -1.34137 -0.90658 0
M  V30 5945 H 552.343 -0.853354 -3.95601 0
M  V30 5946 H 550.913 -0.198229 -3.11971 0
M  V30 5947 H 550.133 -2.67388 -2.8965 0
M  V30 5948 H 551.421 -3.09317 -4.03981 0
M  V30 5949 H 550.819 -0.347436 -5.64632 0
M  V30 5950 H 549.376 -0.783232 -6.47077 0
M  V30 5951 N 552.809 0.956637 -1.25245 0
M  V30 5952 C 553.739 2.07058 -1.07931 0
M  V30 5953 C 554.72 1.70096 0.0110361 0
M  V30 5954 O 555.905 1.93555 -0.158121 0
M  V30 5955 C 553.035 3.40272 -0.695124 0
M  V30 5956 C 551.989 3.91235 -1.73549 0
M  V30 5957 C 551.315 5.20921 -1.20604 0
M  V30 5958 C 552.615 4.17837 -3.13385 0
M  V30 5959 H 554.309 2.218 -2.01109 0
M  V30 5960 H 551.855 1.06581 -0.968326 0
M  V30 5961 H 553.808 4.1765 -0.560949 0
M  V30 5962 H 552.532 3.25462 0.272355 0
M  V30 5963 H 551.191 3.16025 -1.85807 0
M  V30 5964 H 550.839 5.02479 -0.228846 0
M  V30 5965 H 550.539 5.55987 -1.90136 0
M  V30 5966 H 552.063 6.00897 -1.08421 0
M  V30 5967 H 553.477 4.8588 -3.04292 0
M  V30 5968 H 551.874 4.64154 -3.80369 0
M  V30 5969 H 552.944 3.2419 -3.60595 0
M  V30 5970 N 554.287 1.06798 1.15896 0
M  V30 5971 C 555.219 0.641263 2.20046 0
M  V30 5972 C 556.232 -0.303355 1.59949 0
M  V30 5973 O 557.421 -0.0935478 1.78255 0
M  V30 5974 C 554.521 -0.0794029 3.38807 0
M  V30 5975 C 553.694 0.879986 4.28457 0
M  V30 5976 C 552.753 0.197638 5.25829 0
M  V30 5977 O 551.779 0.836913 5.63014 0
M  V30 5978 N 552.981 -1.05886 5.70761 0
M  V30 5979 H 555.746 1.53718 2.57276 0
M  V30 5980 H 553.307 0.951951 1.30956 0
M  V30 5981 H 555.299 -0.546418 4.00994 0
M  V30 5982 H 553.869 -0.877193 3.0004 0
M  V30 5983 H 553.089 1.52625 3.63454 0
M  V30 5984 H 554.377 1.53065 4.8523 0
M  V30 5985 H 553.775 -1.59828 5.42652 0
M  V30 5986 H 552.332 -1.46965 6.35015 0
M  V30 5987 N 555.766 -1.3263 0.851289 0
M  V30 5988 C 556.698 -2.27824 0.250757 0
M  V30 5989 C 557.711 -1.52285 -0.575598 0
M  V30 5990 O 558.9 -1.73946 -0.400638 0
M  V30 5991 C 556 -3.3232 -0.664571 0
M  V30 5992 C 555.173 -4.37221 0.125187 0
M  V30 5993 C 554.232 -5.21314 -0.715385 0
M  V30 5994 O 553.258 -5.69002 -0.150111 0
M  V30 5995 N 554.46 -5.43823 -2.03069 0
M  V30 5996 H 557.225 -2.79997 1.06873 0
M  V30 5997 H 554.786 -1.45455 0.710943 0
M  V30 5998 H 556.778 -3.85486 -1.23216 0
M  V30 5999 H 555.348 -2.80331 -1.38323 0
M  V30 6000 H 554.568 -3.84384 0.874199 0
M  V30 6001 H 555.856 -5.04399 0.667774 0
M  V30 6002 H 555.254 -5.06803 -2.51332 0
M  V30 6003 H 553.811 -5.99998 -2.54648 0
M  V30 6004 N 557.244 -0.608902 -1.45362 0
M  V30 6005 C 558.176 0.147318 -2.28726 0
M  V30 6006 C 559.189 0.830468 -1.40025 0
M  V30 6007 O 560.378 0.695636 -1.64387 0
M  V30 6008 C 557.478 1.22968 -3.15804 0
M  V30 6009 C 556.651 0.633391 -4.3279 0
M  V30 6010 C 555.71 1.60682 -5.01067 0
M  V30 6011 O 554.736 1.13261 -5.57818 0
M  V30 6012 N 555.938 2.94123 -5.00472 0
M  V30 6013 H 558.703 -0.568014 -2.94268 0
M  V30 6014 H 556.264 -0.448479 -1.55564 0
M  V30 6015 H 558.256 1.88072 -3.58345 0
M  V30 6016 H 556.826 1.84752 -2.52162 0
M  V30 6017 H 556.046 -0.195762 -3.93714 0
M  V30 6018 H 557.334 0.215255 -5.08344 0
M  V30 6019 H 556.732 3.3525 -4.55657 0
M  V30 6020 H 555.289 3.54646 -5.46872 0
M  V30 6021 N 558.722 1.53707 -0.348139 0
M  V30 6022 C 559.654 2.22725 0.540946 0
M  V30 6023 C 560.667 1.2354 1.06027 0
M  V30 6024 O 561.856 1.49867 0.96964 0
M  V30 6025 C 558.956 2.89756 1.75768 0
M  V30 6026 C 558.129 4.15297 1.37285 0
M  V30 6027 C 557.188 4.65697 2.44976 0
M  V30 6028 O 556.214 5.29798 2.08092 0
M  V30 6029 N 557.416 4.42017 3.763 0
M  V30 6030 H 560.181 2.99658 -0.0501592 0
M  V30 6031 H 557.742 1.60979 -0.17248 0
M  V30 6032 H 559.734 3.20388 2.47252 0
M  V30 6033 H 558.304 2.16382 2.25605 0
M  V30 6034 H 557.524 3.9116 0.488584 0
M  V30 6035 H 558.812 4.96948 1.09179 0
M  V30 6036 H 558.21 3.9076 4.09051 0
M  V30 6037 H 556.767 4.77242 4.4394 0
M  V30 6038 N 560.2 0.0768682 1.57412 0
M  V30 6039 C 561.132 -0.918248 2.10002 0
M  V30 6040 C 562.145 -1.25808 1.03325 0
M  V30 6041 O 563.334 -1.21438 1.30824 0
M  V30 6042 C 560.434 -2.23263 2.54964 0
M  V30 6043 C 559.607 -2.07088 3.8527 0
M  V30 6044 C 558.666 -3.21876 4.16272 0
M  V30 6045 O 557.692 -2.96643 4.8579 0
M  V30 6046 N 558.894 -4.4712 3.70221 0
M  V30 6047 H 561.659 -0.469209 2.96004 0
M  V30 6048 H 559.22 -0.108725 1.61535 0
M  V30 6049 H 561.212 -2.9897 2.72762 0
M  V30 6050 H 559.782 -2.59649 1.74072 0
M  V30 6051 H 559.002 -1.15818 3.76802 0
M  V30 6052 H 560.29 -1.93537 4.70554 0
M  V30 6053 H 559.688 -4.70506 3.1407 0
M  V30 6054 H 558.245 -5.19837 3.93209 0
M  V30 6055 N 561.678 -1.56367 -0.196722 0
M  V30 6056 C 563.094 -1.49916 -0.54749 0
M  V30 6057 C 563.294 -0.77659 -1.85934 0
M  V30 6058 O 562.35 -0.32644 -2.50381 0
M  V30 6059 C 563.663 -2.94577 -0.603734 0
M  V30 6060 C 565.211 -3.05239 -0.692677 0
M  V30 6061 C 565.686 -4.51308 -0.780046 0
M  V30 6062 N 567.177 -4.55453 -0.843616 0
M  V30 6063 C 567.912 -5.65786 -0.931358 0
M  V30 6064 N 567.408 -6.85812 -0.981503 0
M  V30 6065 N 569.201 -5.53695 -0.968421 0
M  V30 6066 H 561.352 -2.01761 0.663803 0
M  V30 6067 H 563.615 -0.918094 0.236238 0
M  V30 6068 H 563.321 -3.50494 0.29105 0
M  V30 6069 H 563.195 -3.47841 -1.45898 0
M  V30 6070 H 565.582 -2.49372 -1.57789 0
M  V30 6071 H 565.663 -2.55103 0.188736 0
M  V30 6072 H 565.307 -5.078 0.100811 0
M  V30 6073 H 565.237 -4.99176 -1.67724 0
M  V30 6074 H 567.728 -3.69025 -0.814176 0
M  V30 6075 H 568.041 -7.65648 -1.04892 0
M  V30 6076 H 566.386 -6.88474 -0.950208 0
M  V30 6077 H 569.577 -4.58848 -0.926072 0
M  V30 6078 H 569.75 -6.39708 -1.03334 0
M  V30 6079 N 563.156 0.464375 -1.50603 0
M  V30 6080 C 564.433 1.22549 -1.5245 0
M  V30 6081 C 564.813 2.09327 -0.273035 0
M  V30 6082 O 564.161 2.16074 0.743242 0
M  V30 6083 C 564.371 2.05074 -2.82393 0
M  V30 6084 C 565.719 2.63036 -3.33313 0
M  V30 6085 O 566.743 2.1531 -2.8376 0
M  V30 6086 O 565.602 3.5001 -4.19709 0
M  V30 6087 H 562.696 0.556471 -0.611775 0
M  V30 6088 H 565.242 0.475648 -1.62898 0
M  V30 6089 H 564.014 1.41169 -3.64948 0
M  V30 6090 H 563.637 2.87179 -2.7498 0
M  V30 6091 N 564.634 1.40294 0.718013 0
M  V30 6092 C 566.045 1.34289 1.29705 0
M  V30 6093 C 566.396 0.0152228 1.96194 0
M  V30 6094 O 565.521 -0.88682 1.97394 0
M  V30 6095 C 566.116 2.43219 2.3586 0
M  V30 6096 C 564.675 2.40682 2.89394 0
M  V30 6097 C 563.822 2.24223 1.63154 0
M  V30 6098 H 566.773 1.50135 0.514312 0
M  V30 6099 H 566.794 2.10986 3.16647 0
M  V30 6100 H 566.306 3.39836 1.87439 0
M  V30 6101 H 564.407 1.47756 3.42051 0
M  V30 6102 H 564.52 3.36177 3.41353 0
M  V30 6103 H 562.884 1.71696 1.88129 0
M  V30 6104 H 563.667 3.22834 1.16761 0
M  V30 6105 N 566.112 -0.949982 1.2575 0
M  V30 6106 C 567.022 -2.08109 1.08295 0
M  V30 6107 C 568.038 -1.7399 0.0188181 0
M  V30 6108 O 569.214 -2.00187 0.220724 0
M  V30 6109 C 566.279 -3.39383 0.708534 0
M  V30 6110 C 565.34 -3.8734 1.85111 0
M  V30 6111 C 564.573 -5.12349 1.49447 0
M  V30 6112 O 564.796 -5.6905 0.392212 0
M  V30 6113 O 563.73 -5.5513 2.32624 0
M  V30 6114 H 567.556 -2.25738 2.03165 0
M  V30 6115 H 565.141 -1.06545 1.04731 0
M  V30 6116 H 567.023 -4.18277 0.512061 0
M  V30 6117 H 565.698 -3.23013 -0.210854 0
M  V30 6118 H 564.605 -3.09429 2.10248 0
M  V30 6119 H 565.938 -4.08216 2.74991 0
M  V30 6120 N 567.59 -1.07411 -1.15328 0
M  V30 6121 C 568.553 -0.698914 -2.18284 0
M  V30 6122 C 569.553 0.261149 -1.58665 0
M  V30 6123 O 570.743 0.0420277 -1.74149 0
M  V30 6124 C 567.875 -0.0302427 -3.40887 0
M  V30 6125 H 569.068 -1.61045 -2.52991 0
M  V30 6126 H 566.621 -0.870724 -1.298 0
M  V30 6127 H 567.356 0.893505 -3.11748 0
M  V30 6128 H 567.141 -0.720759 -3.85419 0
M  V30 6129 H 568.631 0.21759 -4.17033 0
M  V30 6130 N 569.068 1.32177 -0.85831 0
M  V30 6131 C 570.018 2.26307 -0.277307 0
M  V30 6132 C 571.002 1.50123 0.578946 0
M  V30 6133 O 572.194 1.71754 0.427731 0
M  V30 6134 C 569.323 3.39181 0.530232 0
M  V30 6135 C 568.409 4.22746 -0.338613 0
M  V30 6136 N 568.8 4.85265 -1.4266 0
M  V30 6137 C 567.098 4.45813 -0.129 0
M  V30 6138 C 567.799 5.47634 -1.96142 0
M  V30 6139 N 566.775 5.28794 -1.26007 0
M  V30 6140 H 570.577 2.72173 -1.10902 0
M  V30 6141 H 568.091 1.46308 -0.704816 0
M  V30 6142 H 570.088 4.05628 0.962904 0
M  V30 6143 H 568.748 2.9486 1.35969 0
M  V30 6144 H 569.759 4.85259 -1.80953 0
M  V30 6145 H 566.436 4.12163 0.665451 0
M  V30 6146 H 567.826 6.0735 -2.8736 0
M  V30 6147 N 570.547 0.616602 1.45037 0
M  V30 6148 C 571.796 0.112861 2.01384 0
M  V30 6149 C 572.109 -1.26758 1.48969 0
M  V30 6150 O 573.315 -1.86454 1.9735 0
M  V30 6151 C 571.771 0.151057 3.59583 0
M  V30 6152 C 571.379 1.53191 4.20995 0
M  V30 6153 C 573.123 -0.296974 4.2346 0
M  V30 6154 C 571.03 1.526 5.71373 0
M  V30 6155 H 569.96 0.0384254 0.75302 0
M  V30 6156 H 572.611 0.773262 1.66412 0
M  V30 6157 H 570.993 -0.57617 3.91786 0
M  V30 6158 H 572.167 2.28156 4.00352 0
M  V30 6159 H 570.482 1.92279 3.69348 0
M  V30 6160 H 573.079 -0.320712 5.33737 0
M  V30 6161 H 573.422 -1.32145 3.9477 0
M  V30 6162 H 573.955 0.377279 3.96007 0
M  V30 6163 H 570.694 2.52837 6.04776 0
M  V30 6164 H 570.214 0.819064 5.94181 0
M  V30 6165 H 571.893 1.25357 6.3474 0
M  V30 6166 N 572.025 -1.5352 0.356285 0
M  V30 6167 C 572.972 -2.25439 -0.494569 0
M  V30 6168 C 573.942 -1.25752 -1.08516 0
M  V30 6169 O 575.127 -1.54513 -1.1194 0
M  V30 6170 C 572.267 -3.04011 -1.63313 0
M  V30 6171 C 571.38 -4.18574 -1.06862 0
M  V30 6172 C 570.515 -4.84607 -2.17552 0
M  V30 6173 C 569.554 -5.91218 -1.58518 0
M  V30 6174 N 568.691 -6.50979 -2.63003 0
M  V30 6175 H 573.531 -2.97737 0.125244 0
M  V30 6176 H 571.068 -1.46916 0.0735789 0
M  V30 6177 H 573.026 -3.47834 -2.30363 0
M  V30 6178 H 571.656 -2.33986 -2.22374 0
M  V30 6179 H 570.708 -3.79303 -0.288672 0
M  V30 6180 H 572.02 -4.95215 -0.596924 0
M  V30 6181 H 571.174 -5.31566 -2.92442 0
M  V30 6182 H 569.913 -4.07418 -2.6807 0
M  V30 6183 H 568.918 -5.4363 -0.821391 0
M  V30 6184 H 570.143 -6.70322 -1.08836 0
M  V30 6185 H 568.089 -5.76648 -3.12751 0
M  V30 6186 H 568.006 -7.23131 -2.20493 0
M  V30 6187 H 569.274 -7.02589 -3.37623 0
M  V30 6188 N 573.503 -0.0852151 -1.57369 0
M  V30 6189 C 574.453 0.88767 -2.10011 0
M  V30 6190 C 575.437 1.25021 -1.01285 0
M  V30 6191 O 576.629 1.22694 -1.27574 0
M  V30 6192 C 573.758 2.15037 -2.67608 0
M  V30 6193 C 572.844 1.81371 -3.83361 0
M  V30 6194 N 573.235 1.18216 -4.91791 0
M  V30 6195 C 571.533 2.11041 -3.92909 0
M  V30 6196 C 572.234 1.02941 -5.72519 0
M  V30 6197 N 571.21 1.54351 -5.21226 0
M  V30 6198 H 575.012 0.395279 -2.9123 0
M  V30 6199 H 572.526 0.11829 -1.61969 0
M  V30 6200 H 574.523 2.85667 -3.03644 0
M  V30 6201 H 573.183 2.64851 -1.8784 0
M  V30 6202 H 574.194 0.850168 -5.10874 0
M  V30 6203 H 570.871 2.63138 -3.24136 0
M  V30 6204 H 572.261 0.536298 -6.69756 0
M  V30 6205 N 574.981 1.5647 0.188427 0
M  V30 6206 C 575.911 1.98101 1.23606 0
M  V30 6207 C 576.892 0.853961 1.47111 0
M  V30 6208 O 578.077 1.11879 1.58735 0
M  V30 6209 C 575.207 2.32624 2.57882 0
M  V30 6210 C 574.161 3.48129 2.48978 0
M  V30 6211 C 573.487 3.68347 3.87588 0
M  V30 6212 C 574.787 4.82112 2.00911 0
M  V30 6213 H 576.481 2.85864 0.890068 0
M  V30 6214 H 574.027 1.37532 0.426714 0
M  V30 6215 H 575.98 2.60343 3.3136 0
M  V30 6216 H 574.704 1.41751 2.94235 0
M  V30 6217 H 573.363 3.20511 1.77956 0
M  V30 6218 H 573.011 2.74793 4.21305 0
M  V30 6219 H 572.711 4.46055 3.82503 0
M  V30 6220 H 574.235 3.98449 4.62678 0
M  V30 6221 H 575.649 5.08819 2.64151 0
M  V30 6222 H 574.046 5.63337 2.06814 0
M  V30 6223 H 575.116 4.75249 0.96262 0
M  V30 6224 N 576.459 -0.456382 1.50847 0
M  V30 6225 C 577.389 -1.56025 1.73719 0
M  V30 6226 C 578.37 -1.5967 0.586473 0
M  V30 6227 O 579.555 -1.75702 0.827185 0
M  V30 6228 C 576.685 -2.94251 1.84483 0
M  V30 6229 C 575.639 -3.05471 2.99786 0
M  V30 6230 C 574.965 -4.45489 2.95709 0
M  V30 6231 C 576.265 -2.81318 4.40065 0
M  V30 6232 H 577.959 -1.37138 2.66146 0
M  V30 6233 H 575.505 -0.658299 1.28072 0
M  V30 6234 H 577.458 -3.71417 1.99067 0
M  V30 6235 H 576.182 -3.14328 0.886891 0
M  V30 6236 H 574.841 -2.30741 2.84876 0
M  V30 6237 H 574.489 -4.62505 1.97732 0
M  V30 6238 H 574.189 -4.53929 3.73125 0
M  V30 6239 H 575.713 -5.24655 3.12362 0
M  V30 6240 H 577.127 -3.48226 4.55425 0
M  V30 6241 H 575.524 -3.01188 5.19043 0
M  V30 6242 H 576.594 -1.7706 4.51418 0
M  V30 6243 N 577.937 -1.40673 -0.710563 0
M  V30 6244 C 578.887 -1.37812 -1.81636 0
M  V30 6245 C 579.871 -0.254853 -1.58869 0
M  V30 6246 O 581.063 -0.494356 -1.69956 0
M  V30 6247 C 578.192 -1.24802 -3.19811 0
M  V30 6248 C 577.278 -2.41931 -3.48325 0
M  V30 6249 N 577.669 -3.67411 -3.47625 0
M  V30 6250 C 575.967 -2.35419 -3.78806 0
M  V30 6251 C 576.668 -4.45008 -3.74623 0
M  V30 6252 N 575.644 -3.74916 -3.93623 0
M  V30 6253 H 579.446 -2.32766 -1.79436 0
M  V30 6254 H 576.96 -1.34516 -0.909909 0
M  V30 6255 H 578.957 -1.20835 -3.99004 0
M  V30 6256 H 577.617 -0.308202 -3.23234 0
M  V30 6257 H 578.628 -4.00503 -3.28356 0
M  V30 6258 H 575.305 -1.4983 -3.89689 0
M  V30 6259 H 576.695 -5.53884 -3.80344 0
M  V30 6260 N 579.415 0.9433 -1.26252 0
M  V30 6261 C 580.347 2.04542 -1.03417 0
M  V30 6262 C 581.36 1.62799 0.0046911 0
M  V30 6263 O 582.549 1.76944 -0.235146 0
M  V30 6264 C 579.649 3.34511 -0.543671 0
M  V30 6265 C 578.822 4.05033 -1.65128 0
M  V30 6266 C 577.881 5.13273 -1.1592 0
M  V30 6267 O 576.907 5.38095 -1.85586 0
M  V30 6268 N 578.109 5.805 -0.00649279 0
M  V30 6269 H 580.874 2.24699 -1.98319 0
M  V30 6270 H 578.435 1.11264 -1.1761 0
M  V30 6271 H 580.427 4.04212 -0.198703 0
M  V30 6272 H 578.997 3.11042 0.311711 0
M  V30 6273 H 578.217 3.29275 -2.16729 0
M  V30 6274 H 579.505 4.48903 -2.39508 0
M  V30 6275 H 578.903 5.62767 0.575347 0
M  V30 6276 H 577.46 6.51201 0.279416 0
M  V30 6277 N 580.893 1.08022 1.14757 0
M  V30 6278 C 582.309 0.807072 1.3769 0
M  V30 6279 C 582.509 -0.585504 1.92806 0
M  V30 6280 O 581.565 -1.34301 2.13821 0
M  V30 6281 C 582.878 1.88651 2.34161 0
M  V30 6282 C 584.426 1.91206 2.47809 0
M  V30 6283 C 584.901 2.98253 3.47576 0
M  V30 6284 N 586.392 2.974 3.55117 0
M  V30 6285 C 587.127 3.76872 4.32152 0
M  V30 6286 N 586.623 4.66212 5.12463 0
M  V30 6287 N 588.416 3.6519 4.27309 0
M  V30 6288 H 580.567 1.97824 0.77326 0
M  V30 6289 H 582.83 0.85826 0.402608 0
M  V30 6290 H 582.536 2.88749 2.00791 0
M  V30 6291 H 582.41 1.75244 3.3402 0
M  V30 6292 H 584.797 0.917564 2.80472 0
M  V30 6293 H 584.878 2.08691 1.47925 0
M  V30 6294 H 584.522 3.97907 3.15646 0
M  V30 6295 H 584.452 2.78014 4.47231 0
M  V30 6296 H 586.943 2.32643 2.97801 0
M  V30 6297 H 587.256 5.23468 5.68508 0
M  V30 6298 H 585.601 4.70257 5.11745 0
M  V30 6299 H 588.792 2.94765 3.63636 0
M  V30 6300 H 588.965 4.27366 4.87095 0
M  V30 6301 N 582.371 -1.3172 0.865308 0
M  V30 6302 C 583.303 -2.27545 0.274906 0
M  V30 6303 C 584.316 -1.52887 -0.559413 0
M  V30 6304 O 585.505 -1.74361 -0.382166 0
M  V30 6305 C 582.605 -3.33006 -0.629286 0
M  V30 6306 C 581.778 -4.37063 0.171553 0
M  V30 6307 C 580.837 -5.22044 -0.660052 0
M  V30 6308 O 579.863 -5.69129 -0.0897527 0
M  V30 6309 N 581.065 -5.45946 -1.97289 0
M  V30 6310 H 583.83 -2.78848 1.09836 0
M  V30 6311 H 581.391 -1.44693 0.726331 0
M  V30 6312 H 583.383 -3.86772 -1.19121 0
M  V30 6313 H 581.953 -2.81782 -1.35342 0
M  V30 6314 H 581.173 -3.83436 0.914919 0
M  V30 6315 H 582.461 -5.03662 0.721235 0
M  V30 6316 H 581.859 -5.0944 -2.45942 0
M  V30 6317 H 580.416 -6.02665 -2.4827 0
M  V30 6318 N 583.85 -0.624285 -1.44708 0
M  V30 6319 C 585.266 -0.289322 -1.56956 0
M  V30 6320 C 585.466 1.20773 -1.61295 0
M  V30 6321 O 584.522 1.9915 -1.55227 0
M  V30 6322 C 585.835 -0.975215 -2.84447 0
M  V30 6323 C 587.383 -0.952709 -2.98148 0
M  V30 6324 C 587.858 -1.61893 -4.28433 0
M  V30 6325 N 589.349 -1.5852 -4.35231 0
M  V30 6326 C 590.084 -2.06969 -5.34744 0
M  V30 6327 N 589.58 -2.63579 -6.40701 0
M  V30 6328 N 591.373 -1.97638 -5.26209 0
M  V30 6329 H 583.524 -1.59612 -1.40135 0
M  V30 6330 H 585.787 -0.669592 -0.671081 0
M  V30 6331 H 585.493 -2.02999 -2.87201 0
M  V30 6332 H 585.367 -0.508749 -3.73753 0
M  V30 6333 H 587.754 0.093568 -2.94952 0
M  V30 6334 H 587.835 -1.4576 -2.10209 0
M  V30 6335 H 587.479 -2.66463 -4.32389 0
M  V30 6336 H 587.409 -1.08893 -5.15218 0
M  V30 6337 H 589.899 -1.17183 -3.59272 0
M  V30 6338 H 590.213 -2.98298 -7.12908 0
M  V30 6339 H 588.558 -2.67626 -6.41406 0
M  V30 6340 H 591.749 -1.5314 -4.42341 0
M  V30 6341 H 591.922 -2.35708 -6.03611 0
M  V30 6342 N 585.328 1.53329 -0.364422 0
M  V30 6343 C 586.744 1.59594 -0.0133165 0
M  V30 6344 C 586.944 1.37959 1.46865 0
M  V30 6345 O 586 1.18418 2.2301 0
M  V30 6346 C 587.313 2.97032 -0.468213 0
M  V30 6347 C 588.861 3.10138 -0.422334 0
M  V30 6348 C 589.336 4.49986 -0.853024 0
M  V30 6349 N 590.827 4.56098 -0.808037 0
M  V30 6350 C 591.562 5.62495 -1.11299 0
M  V30 6351 N 591.058 6.7665 -1.48717 0
M  V30 6352 N 592.851 5.52473 -1.03586 0
M  V30 6353 H 585.002 1.65644 -1.32951 0
M  V30 6354 H 587.265 0.77684 -0.543345 0
M  V30 6355 H 586.971 3.18 -1.5023 0
M  V30 6356 H 586.845 3.76918 0.145775 0
M  V30 6357 H 589.232 2.88881 0.602622 0
M  V30 6358 H 589.313 2.32263 -1.0718 0
M  V30 6359 H 588.957 4.7198 -1.87609 0
M  V30 6360 H 588.887 5.26289 -0.180819 0
M  V30 6361 H 591.378 3.74131 -0.532361 0
M  V30 6362 H 591.691 7.53776 -1.70415 0
M  V30 6363 H 590.036 6.78044 -1.52581 0
M  V30 6364 H 593.227 4.6217 -0.742736 0
M  V30 6365 H 593.4 6.35295 -1.27686 0
M  V30 6366 N 586.806 0.0935595 1.57322 0
M  V30 6367 C 588.055 -0.570191 1.93473 0
M  V30 6368 C 588.368 -1.69434 0.977318 0
M  V30 6369 O 589.574 -2.41914 1.23248 0
M  V30 6370 C 588.03 -1.06564 3.43762 0
M  V30 6371 C 587.638 0.0286723 4.47991 0
M  V30 6372 C 589.382 -1.70221 3.88877 0
M  V30 6373 C 587.289 -0.482046 5.89432 0
M  V30 6374 H 586.219 -0.216764 0.72217 0
M  V30 6375 H 588.87 0.169313 1.82717 0
M  V30 6376 H 587.252 -1.85878 3.49664 0
M  V30 6377 H 588.426 0.804106 4.5373 0
M  V30 6378 H 586.741 0.570336 4.12476 0
M  V30 6379 H 589.338 -2.09502 4.91948 0
M  V30 6380 H 589.681 -2.57078 3.27439 0
M  V30 6381 H 590.214 -0.974919 3.85668 0
M  V30 6382 H 586.953 0.349871 6.54566 0
M  V30 6383 H 586.473 -1.22452 5.87167 0
M  V30 6384 H 588.152 -0.951508 6.39965 0
M  V30 6385 N 588.284 -1.56567 -0.180126 0
M  V30 6386 C 589.194 -1.98947 -1.24327 0
M  V30 6387 C 590.21 -0.899446 -1.4895 0
M  V30 6388 O 591.386 -1.20639 -1.61271 0
M  V30 6389 C 588.451 -2.33328 -2.56435 0
M  V30 6390 C 587.512 -3.56114 -2.39752 0
M  V30 6391 C 586.745 -3.88845 -3.65561 0
M  V30 6392 O 586.968 -3.22662 -4.70368 0
M  V30 6393 O 585.902 -4.82226 -3.60197 0
M  V30 6394 H 589.728 -2.89634 -0.913565 0
M  V30 6395 H 587.313 -1.44319 -0.386306 0
M  V30 6396 H 589.195 -2.5645 -3.34382 0
M  V30 6397 H 587.87 -1.45806 -2.89002 0
M  V30 6398 H 586.777 -3.38221 -1.59866 0
M  V30 6399 H 588.11 -4.4415 -2.12113 0
M  V30 6400 N 589.762 0.448376 -1.51087 0
M  V30 6401 C 590.672 1.56882 -1.74428 0
M  V30 6402 C 591.688 1.62268 -0.62809 0
M  V30 6403 O 592.864 1.79716 -0.909075 0
M  V30 6404 C 589.929 2.92947 -1.85426 0
M  V30 6405 C 588.99 2.97766 -3.09247 0
M  V30 6406 C 588.223 4.27341 -3.19711 0
M  V30 6407 O 588.446 5.19112 -2.36387 0
M  V30 6408 O 587.38 4.38219 -4.12611 0
M  V30 6409 H 591.206 1.40104 -2.69452 0
M  V30 6410 H 588.791 0.630247 -1.35456 0
M  V30 6411 H 590.673 3.73719 -1.94709 0
M  V30 6412 H 589.348 3.09876 -0.935887 0
M  V30 6413 H 588.255 2.15989 -3.0545 0
M  V30 6414 H 589.588 2.8578 -4.00738 0
M  V30 6415 N 591.24 1.41047 0.703093 0
M  V30 6416 C 592.172 1.38228 1.82827 0
M  V30 6417 C 593.185 0.285637 1.60275 0
M  V30 6418 O 594.374 0.54685 1.69917 0
M  V30 6419 C 591.474 1.13136 3.19458 0
M  V30 6420 C 590.647 2.34695 3.69103 0
M  V30 6421 C 589.706 2.05574 4.84382 0
M  V30 6422 O 588.732 2.78549 4.96386 0
M  V30 6423 N 589.934 1.04135 5.71083 0
M  V30 6424 H 592.699 2.35203 1.85741 0
M  V30 6425 H 590.26 1.35562 0.885125 0
M  V30 6426 H 592.252 0.916183 3.94193 0
M  V30 6427 H 590.822 0.247836 3.11616 0
M  V30 6428 H 590.042 2.71963 2.85359 0
M  V30 6429 H 591.33 3.15705 3.99009 0
M  V30 6430 H 590.728 0.43722 5.64008 0
M  V30 6431 H 589.285 0.886078 6.45749 0
M  V30 6432 N 592.718 -0.936591 1.26751 0
M  V30 6433 C 593.665 -2.03597 1.08706 0
M  V30 6434 C 594.635 -1.66097 -0.00926542 0
M  V30 6435 O 595.82 -1.90199 0.151377 0
M  V30 6436 C 592.96 -3.3727 0.73094 0
M  V30 6437 C 592.073 -3.87778 1.90399 0
M  V30 6438 C 591.208 -5.09859 1.49056 0
M  V30 6439 C 590.247 -5.5264 2.63164 0
M  V30 6440 N 589.384 -6.65921 2.22471 0
M  V30 6441 H 594.224 -2.18364 2.02784 0
M  V30 6442 H 591.761 -1.06985 1.00958 0
M  V30 6443 H 593.719 -4.14128 0.505328 0
M  V30 6444 H 592.349 -3.22337 -0.172868 0
M  V30 6445 H 591.401 -3.07279 2.2424 0
M  V30 6446 H 592.713 -4.15464 2.76028 0
M  V30 6447 H 591.867 -5.9419 1.22567 0
M  V30 6448 H 590.606 -4.8393 0.60524 0
M  V30 6449 H 589.611 -4.66863 2.90377 0
M  V30 6450 H 590.836 -5.80568 3.52303 0
M  V30 6451 H 588.782 -6.41667 1.36379 0
M  V30 6452 H 588.699 -6.93216 3.01641 0
M  V30 6453 H 589.967 -7.53616 1.99205 0
M  V30 6454 N 594.196 -1.08629 -1.14182 0
M  V30 6455 C 595.106 -0.730126 -2.22949 0
M  V30 6456 C 596.122 0.26436 -1.7198 0
M  V30 6457 O 597.298 0.107742 -2.01112 0
M  V30 6458 C 594.363 -0.147227 -3.46387 0
M  V30 6459 C 593.424 -1.19662 -4.12286 0
M  V30 6460 C 592.657 -0.641437 -5.29831 0
M  V30 6461 O 592.88 0.538351 -5.67854 0
M  V30 6462 O 591.814 -1.39257 -5.85569 0
M  V30 6463 H 595.64 -1.63753 -2.55771 0
M  V30 6464 H 593.225 -0.860118 -1.22157 0
M  V30 6465 H 595.107 0.174923 -4.21037 0
M  V30 6466 H 593.782 0.733304 -3.15285 0
M  V30 6467 H 592.689 -1.57133 -3.395 0
M  V30 6468 H 594.022 -2.0495 -4.475 0
M  V30 6469 N 595.674 1.31259 -0.872281 0
M  V30 6470 C 596.584 2.32221 -0.333255 0
M  V30 6471 C 597.6 1.6481 0.558013 0
M  V30 6472 O 598.776 1.96212 0.454175 0
M  V30 6473 C 595.841 3.43708 0.454479 0
M  V30 6474 C 594.902 4.26774 -0.465024 0
M  V30 6475 C 594.135 5.32937 0.28521 0
M  V30 6476 O 594.358 5.49968 1.513 0
M  V30 6477 O 593.292 6.00834 -0.358126 0
M  V30 6478 H 597.118 2.80252 -1.17016 0
M  V30 6479 H 594.703 1.352 -0.635724 0
M  V30 6480 H 596.585 4.11656 0.900963 0
M  V30 6481 H 595.26 2.97836 1.26789 0
M  V30 6482 H 594.167 3.61571 -0.960055 0
M  V30 6483 H 595.5 4.76217 -1.2441 0
M  V30 6484 N 597.152 0.631951 1.44375 0
M  V30 6485 C 598.568 0.297642 1.568 0
M  V30 6486 C 598.768 -1.19916 1.61934 0
M  V30 6487 O 597.824 -1.98324 1.56281 0
M  V30 6488 C 599.137 0.990286 2.83926 0
M  V30 6489 C 600.685 0.968507 2.97639 0
M  V30 6490 C 601.16 1.64163 4.27568 0
M  V30 6491 N 602.651 1.60826 4.34384 0
M  V30 6492 C 603.386 2.09802 5.33639 0
M  V30 6493 N 602.882 2.66973 6.39294 0
M  V30 6494 N 604.675 2.00426 5.25153 0
M  V30 6495 H 596.826 1.60353 1.39286 0
M  V30 6496 H 599.089 0.673142 0.667521 0
M  V30 6497 H 598.795 2.04519 2.8612 0
M  V30 6498 H 598.669 0.528563 3.73478 0
M  V30 6499 H 601.056 -0.0779247 2.94997 0
M  V30 6500 H 601.137 1.46873 2.09433 0
M  V30 6501 H 600.781 2.68752 4.3097 0
M  V30 6502 H 600.711 1.11624 5.14634 0
M  V30 6503 H 603.202 1.19087 3.58646 0
M  V30 6504 H 603.515 3.02074 7.11316 0
M  V30 6505 H 601.86 2.71024 6.39977 0
M  V30 6506 H 605.051 1.55483 4.41523 0
M  V30 6507 H 605.224 2.38906 6.02352 0
M  V30 6508 N 598.631 -1.53133 0.372548 0
M  V30 6509 C 600.047 -1.59585 0.02178 0
M  V30 6510 C 600.247 -1.38736 -1.46132 0
M  V30 6511 O 599.303 -1.19599 -2.22379 0
M  V30 6512 C 600.616 -2.9678 0.483959 0
M  V30 6513 C 602.164 -3.09909 0.438775 0
M  V30 6514 C 602.639 -4.49527 0.876876 0
M  V30 6515 N 604.13 -4.55663 0.832214 0
M  V30 6516 C 604.865 -5.61896 1.14281 0
M  V30 6517 N 604.361 -6.75852 1.52303 0
M  V30 6518 N 606.154 -5.51916 1.06515 0
M  V30 6519 H 598.305 -1.64936 1.33827 0
M  V30 6520 H 600.568 -0.773947 0.547458 0
M  V30 6521 H 600.274 -3.17198 1.51915 0
M  V30 6522 H 600.148 -3.7699 -0.125784 0
M  V30 6523 H 602.535 -2.89197 -0.587294 0
M  V30 6524 H 602.616 -2.31691 1.0841 0
M  V30 6525 H 602.26 -4.70979 1.90109 0
M  V30 6526 H 602.19 -5.26186 0.208727 0
M  V30 6527 H 604.681 -3.73844 0.552195 0
M  V30 6528 H 604.994 -7.52862 1.7441 0
M  V30 6529 H 603.339 -6.77226 1.56175 0
M  V30 6530 H 606.53 -4.6177 0.767235 0
M  V30 6531 H 606.703 -6.34609 1.31053 0
M  V30 6532 N 600.109 -0.101901 -1.5727 0
M  V30 6533 C 601.525 0.254739 -1.57554 0
M  V30 6534 C 601.725 1.67937 -1.11352 0
M  V30 6535 O 600.781 2.39722 -0.793081 0
M  V30 6536 C 602.094 0.036975 -3.00677 0
M  V30 6537 C 603.642 0.104199 -3.12827 0
M  V30 6538 C 604.117 -0.0856565 -4.5792 0
M  V30 6539 N 605.608 -0.0310498 -4.6319 0
M  V30 6540 C 606.343 -0.153099 -5.73196 0
M  V30 6541 N 605.839 -0.330364 -6.92012 0
M  V30 6542 N 607.632 -0.0938854 -5.62022 0
M  V30 6543 H 599.783 -1.03263 -1.85609 0
M  V30 6544 H 602.046 -0.405251 -0.857016 0
M  V30 6545 H 601.752 -0.947254 -3.38703 0
M  V30 6546 H 601.626 0.776335 -3.69124 0
M  V30 6547 H 604.013 1.07894 -2.74669 0
M  V30 6548 H 604.094 -0.666762 -2.46957 0
M  V30 6549 H 603.738 -1.05729 -4.96773 0
M  V30 6550 H 603.668 0.705082 -5.21858 0
M  V30 6551 H 606.159 0.103141 -3.77759 0
M  V30 6552 H 606.472 -0.41482 -7.71686 0
M  V30 6553 H 604.817 -0.366119 -6.94035 0
M  V30 6554 H 608.008 0.0435168 -4.6808 0
M  V30 6555 H 608.181 -0.19245 -6.47714 0
M  V30 6556 N 601.587 1.56661 0.17182 0
M  V30 6557 C 602.833 1.82235 0.889845 0
M  V30 6558 C 603.166 0.679673 1.81918 0
M  V30 6559 O 602.441 -0.318404 1.91876 0
M  V30 6560 C 602.724 3.18195 1.68595 0
M  V30 6561 C 602.577 4.42989 0.779773 0
M  V30 6562 C 603.896 3.5109 2.65375 0
M  V30 6563 H 601.015 0.66291 0.322056 0
M  V30 6564 H 603.657 1.89358 0.15608 0
M  V30 6565 H 601.807 3.12253 2.3115 0
M  V30 6566 H 603.479 4.60997 0.16714 0
M  V30 6567 H 601.722 4.33711 0.0877964 0
M  V30 6568 H 602.393 5.3467 1.3723 0
M  V30 6569 H 604.869 3.57482 2.12946 0
M  V30 6570 H 603.745 4.47298 3.18144 0
M  V30 6571 H 604.006 2.75768 3.45549 0
M  V30 6572 N 603.065 -0.440357 1.51323 0
M  V30 6573 C 603.975 -1.55955 1.75258 0
M  V30 6574 C 604.991 -1.61933 0.636687 0
M  V30 6575 O 606.167 -1.79231 0.918593 0
M  V30 6576 C 603.232 -2.9196 1.86977 0
M  V30 6577 C 602.293 -2.96122 3.10822 0
M  V30 6578 C 601.526 -4.2564 3.21973 0
M  V30 6579 O 601.749 -5.17851 2.39137 0
M  V30 6580 O 600.683 -4.36025 4.14929 0
M  V30 6581 H 604.509 -1.38673 2.70191 0
M  V30 6582 H 602.094 -0.623055 1.35788 0
M  V30 6583 H 603.976 -3.72682 1.96688 0
M  V30 6584 H 602.651 -3.09375 0.952307 0
M  V30 6585 H 601.558 -2.14366 3.06591 0
M  V30 6586 H 602.891 -2.83651 4.02247 0
M  V30 6587 N 604.543 -1.41418 -0.695603 0
M  V30 6588 C 605.453 -1.45622 -1.83933 0
M  V30 6589 C 606.469 -0.346825 -1.70508 0
M  V30 6590 O 607.645 -0.59454 -1.92424 0
M  V30 6591 C 604.71 -1.33627 -3.19914 0
M  V30 6592 C 603.771 -2.54882 -3.45447 0
M  V30 6593 C 603.004 -2.43449 -4.7494 0
M  V30 6594 O 603.227 -1.45905 -5.51424 0
M  V30 6595 O 602.161 -3.33206 -5.01256 0
M  V30 6596 H 605.987 -2.42114 -1.83342 0
M  V30 6597 H 603.572 -1.22956 -0.848658 0
M  V30 6598 H 605.454 -1.29221 -4.01098 0
M  V30 6599 H 604.129 -0.402508 -3.21188 0
M  V30 6600 H 603.036 -2.64865 -2.64192 0
M  V30 6601 H 604.369 -3.47087 -3.48987 0
M  V30 6602 N 606.021 0.929856 -1.27246 0
M  V30 6603 C 606.953 2.03434 -1.0558 0
M  V30 6604 C 607.966 1.62795 -0.0125762 0
M  V30 6605 O 609.155 1.76685 -0.2539 0
M  V30 6606 C 606.255 3.33915 -0.57912 0
M  V30 6607 C 605.428 4.03259 -1.69415 0
M  V30 6608 C 604.487 5.12014 -1.21357 0
M  V30 6609 O 603.513 5.36097 -1.91282 0
M  V30 6610 N 604.715 5.8046 -0.0680622 0
M  V30 6611 H 607.48 2.22583 -2.00691 0
M  V30 6612 H 605.041 1.1001 -1.18783 0
M  V30 6613 H 607.033 4.03978 -0.241563 0
M  V30 6614 H 605.603 3.11355 0.278703 0
M  V30 6615 H 604.823 3.26958 -2.20209 0
M  V30 6616 H 606.111 4.46337 -2.44255 0
M  V30 6617 H 605.509 5.63345 0.515626 0
M  V30 6618 H 604.066 6.51461 0.210332 0
M  V30 6619 N 607.499 1.09233 1.13605 0
M  V30 6620 C 608.431 0.687794 2.18637 0
M  V30 6621 C 609.444 -0.26936 1.60556 0
M  V30 6622 O 610.633 -0.0557162 1.78413 0
M  V30 6623 C 607.733 -0.00751901 3.38899 0
M  V30 6624 C 606.906 0.97067 4.26494 0
M  V30 6625 C 605.965 0.309129 5.25291 0
M  V30 6626 O 604.991 0.956149 5.61112 0
M  V30 6627 N 606.193 -0.937555 5.72879 0
M  V30 6628 H 608.958 1.59141 2.53957 0
M  V30 6629 H 606.519 0.979515 1.28907 0
M  V30 6630 H 608.511 -0.461238 4.02063 0
M  V30 6631 H 607.081 -0.813353 3.01833 0
M  V30 6632 H 606.301 1.603 3.60135 0
M  V30 6633 H 607.589 1.63323 4.81875 0
M  V30 6634 H 606.987 -1.48281 5.4592 0
M  V30 6635 H 605.544 -1.33463 6.3799 0
M  V30 6636 N 608.977 -1.30795 0.87923 0
M  V30 6637 C 610.393 -1.48981 0.57243 0
M  V30 6638 C 610.593 -1.80719 -0.891236 0
M  V30 6639 O 609.649 -1.89136 -1.67283 0
M  V30 6640 C 610.962 -2.61721 1.48063 0
M  V30 6641 C 612.51 -2.75603 1.48365 0
M  V30 6642 C 612.985 -3.91449 2.37763 0
M  V30 6643 N 614.476 -3.98751 2.35695 0
M  V30 6644 C 615.211 -4.87684 3.01583 0
M  V30 6645 N 614.707 -5.81454 3.76674 0
M  V30 6646 N 616.5 -4.81005 2.90844 0
M  V30 6647 H 608.651 -1.08465 1.82617 0
M  V30 6648 H 610.914 -0.536813 0.781368 0
M  V30 6649 H 610.62 -2.45073 2.52254 0
M  V30 6650 H 610.494 -3.58071 1.18596 0
M  V30 6651 H 612.881 -2.9166 0.44927 0
M  V30 6652 H 612.962 -1.79891 1.81859 0
M  V30 6653 H 612.606 -3.76149 3.41283 0
M  V30 6654 H 612.536 -4.86487 2.01589 0
M  V30 6655 H 615.027 -3.31668 1.81121 0
M  V30 6656 H 615.34 -6.46063 4.24054 0
M  V30 6657 H 613.685 -5.81403 3.80782 0
M  V30 6658 H 616.876 -4.06728 2.31711 0
M  V30 6659 H 617.049 -5.50107 3.42471 0
M  V30 6660 N 610.455 -0.639598 -1.44038 0
M  V30 6661 C 611.871 -0.305953 -1.5664 0
M  V30 6662 C 612.071 1.19055 -1.62567 0
M  V30 6663 O 611.127 1.97492 -1.57331 0
M  V30 6664 C 612.44 -1.00533 -2.83397 0
M  V30 6665 C 613.988 -0.984278 -2.97121 0
M  V30 6666 C 614.463 -1.66428 -4.26691 0
M  V30 6667 N 615.954 -1.63127 -4.33525 0
M  V30 6668 C 616.689 -2.12629 -5.32519 0
M  V30 6669 N 616.185 -2.70359 -6.3787 0
M  V30 6670 N 617.978 -2.03208 -5.24083 0
M  V30 6671 H 610.129 -1.6109 -1.38434 0
M  V30 6672 H 612.392 -0.676672 -0.663942 0
M  V30 6673 H 612.098 -2.06034 -2.85032 0
M  V30 6674 H 611.972 -0.548362 -3.73193 0
M  V30 6675 H 614.359 0.0622792 -2.95034 0
M  V30 6676 H 614.44 -1.47981 -2.08651 0
M  V30 6677 H 614.084 -2.71034 -4.29538 0
M  V30 6678 H 614.014 -1.14351 -5.14034 0
M  V30 6679 H 616.505 -1.20987 -3.58009 0
M  V30 6680 H 616.818 -3.05842 -7.09704 0
M  V30 6681 H 615.163 -2.74414 -6.38531 0
M  V30 6682 H 618.354 -1.57823 -4.40692 0
M  V30 6683 H 618.527 -2.42097 -6.01077 0
M  V30 6684 N 611.933 1.52934 -0.380664 0
M  V30 6685 C 612.843 2.29921 0.466192 0
M  V30 6686 C 613.859 1.36488 1.07922 0
M  V30 6687 O 615.035 1.69553 1.0869 0
M  V30 6688 C 612.1 3.08468 1.58266 0
M  V30 6689 C 611.161 4.17595 0.995627 0
M  V30 6690 C 610.394 4.92387 2.05889 0
M  V30 6691 O 610.617 4.67184 3.27254 0
M  V30 6692 O 609.551 5.77949 1.68102 0
M  V30 6693 H 613.377 3.03274 -0.160735 0
M  V30 6694 H 610.962 1.48698 -0.144617 0
M  V30 6695 H 612.844 3.57469 2.23145 0
M  V30 6696 H 611.519 2.37937 2.19471 0
M  V30 6697 H 610.426 3.72811 0.310332 0
M  V30 6698 H 611.759 4.90336 0.427918 0
M  V30 6699 N 613.412 0.11024 1.57214 0
M  V30 6700 C 614.828 -0.24638 1.57687 0
M  V30 6701 C 615.028 -1.67344 1.12241 0
M  V30 6702 O 614.084 -2.39298 0.805783 0
M  V30 6703 C 615.397 -0.0210288 3.00693 0
M  V30 6704 C 616.945 -0.0876077 3.12877 0
M  V30 6705 C 617.42 0.10994 4.57868 0
M  V30 6706 N 618.911 0.0556135 4.63167 0
M  V30 6707 C 619.646 0.183495 5.73106 0
M  V30 6708 N 619.142 0.367058 6.91827 0
M  V30 6709 N 620.935 0.123689 5.61964 0
M  V30 6710 H 613.086 1.04246 1.85058 0
M  V30 6711 H 615.349 0.40979 0.854854 0
M  V30 6712 H 615.055 0.965203 3.38196 0
M  V30 6713 H 614.929 -0.756748 3.69531 0
M  V30 6714 H 617.316 -1.06436 2.75237 0
M  V30 6715 H 617.397 0.67985 2.466 0
M  V30 6716 H 617.041 1.08362 4.96206 0
M  V30 6717 H 616.971 -0.677397 5.22225 0
M  V30 6718 H 619.462 -0.0831062 3.77809 0
M  V30 6719 H 619.775 0.455739 7.71455 0
M  V30 6720 H 618.12 0.40292 6.93831 0
M  V30 6721 H 621.311 -0.0186928 4.68096 0
M  V30 6722 H 621.484 0.226797 6.47603 0
M  V30 6723 N 614.89 -1.56749 -0.16351 0
M  V30 6724 C 615.8 -2.00255 -1.2221 0
M  V30 6725 C 616.816 -0.915194 -1.47987 0
M  V30 6726 O 617.992 -1.22342 -1.59982 0
M  V30 6727 C 615.057 -2.36035 -2.53946 0
M  V30 6728 C 614.118 -3.58637 -2.35962 0
M  V30 6729 C 613.351 -3.92701 -3.61416 0
M  V30 6730 O 613.574 -3.27632 -4.66919 0
M  V30 6731 O 612.508 -4.86019 -3.55062 0
M  V30 6732 H 616.334 -2.90586 -0.882794 0
M  V30 6733 H 613.919 -1.44721 -0.370978 0
M  V30 6734 H 615.801 -2.59982 -3.31643 0
M  V30 6735 H 614.476 -1.48863 -2.8744 0
M  V30 6736 H 613.383 -3.39898 -1.5627 0
M  V30 6737 H 614.716 -4.46374 -2.0739 0
M  V30 6738 N 616.368 0.432326 -1.51554 0
M  V30 6739 C 617.3 1.54357 -1.6943 0
M  V30 6740 C 618.313 1.52311 -0.574897 0
M  V30 6741 O 619.502 1.56997 -0.849369 0
M  V30 6742 C 616.602 2.93273 -1.69836 0
M  V30 6743 C 615.775 3.19768 -2.98442 0
M  V30 6744 C 614.834 4.38433 -2.90969 0
M  V30 6745 O 613.86 4.36842 -3.64908 0
M  V30 6746 N 615.062 5.42276 -2.07163 0
M  V30 6747 H 617.827 1.39426 -2.65293 0
M  V30 6748 H 615.388 0.621331 -1.49503 0
M  V30 6749 H 617.38 3.70687 -1.62399 0
M  V30 6750 H 615.95 3.01777 -0.815456 0
M  V30 6751 H 615.17 2.30607 -3.19709 0
M  V30 6752 H 616.458 3.343 -3.83563 0
M  V30 6753 H 615.856 5.46407 -1.46477 0
M  V30 6754 H 614.413 6.18524 -2.05601 0
M  V30 6755 N 617.846 1.41785 0.688094 0
M  V30 6756 C 619.262 1.24419 0.999608 0
M  V30 6757 C 619.462 0.138868 2.01021 0
M  V30 6758 O 618.518 -0.494283 2.47615 0
M  V30 6759 C 619.831 2.59625 1.51709 0
M  V30 6760 C 621.379 2.66869 1.63554 0
M  V30 6761 C 621.854 4.0241 2.18702 0
M  V30 6762 N 623.345 4.04295 2.26053 0
M  V30 6763 C 624.08 5.05977 2.69768 0
M  V30 6764 N 623.576 6.18047 3.13033 0
M  V30 6765 N 625.369 4.93336 2.69398 0
M  V30 6766 H 617.52 2.12392 0.0187427 0
M  V30 6767 H 619.783 0.945347 0.0708673 0
M  V30 6768 H 619.489 3.41297 0.849059 0
M  V30 6769 H 619.363 2.82628 2.49803 0
M  V30 6770 H 621.75 1.8555 2.29467 0
M  V30 6771 H 621.831 2.47668 0.639857 0
M  V30 6772 H 621.475 4.8418 1.53402 0
M  V30 6773 H 621.405 4.18955 3.19037 0
M  V30 6774 H 623.896 3.23383 1.9553 0
M  V30 6775 H 624.209 6.91498 3.45038 0
M  V30 6776 H 622.554 6.21572 3.10923 0
M  V30 6777 H 625.745 4.04865 2.34952 0
M  V30 6778 H 625.918 5.72717 3.03148 0
M  V30 6779 N 619.324 -0.923095 1.27737 0
M  V30 6780 C 620.271 -2.02432 1.1086 0
M  V30 6781 C 621.241 -1.66098 0.00835195 0
M  V30 6782 O 622.426 -1.90027 0.171542 0
M  V30 6783 C 619.566 -3.36476 0.766671 0
M  V30 6784 C 618.679 -3.85737 1.94501 0
M  V30 6785 C 617.814 -5.08249 1.54455 0
M  V30 6786 C 616.853 -5.49818 2.6901 0
M  V30 6787 N 615.99 -6.63524 2.29521 0
M  V30 6788 H 620.83 -2.16201 2.05089 0
M  V30 6789 H 618.367 -1.05909 1.02087 0
M  V30 6790 H 620.325 -4.13569 0.549223 0
M  V30 6791 H 618.955 -3.22502 -0.13867 0
M  V30 6792 H 618.007 -3.04883 2.27487 0
M  V30 6793 H 619.319 -4.12513 2.80419 0
M  V30 6794 H 618.473 -5.92857 1.28862 0
M  V30 6795 H 617.212 -4.83261 0.656534 0
M  V30 6796 H 616.217 -4.63757 2.95313 0
M  V30 6797 H 617.442 -5.76799 3.5844 0
M  V30 6798 H 615.388 -6.40185 1.43177 0
M  V30 6799 H 615.305 -6.89978 3.08977 0
M  V30 6800 H 616.573 -7.51461 2.07187 0
M  V30 6801 N 620.802 -1.09834 -1.13024 0
M  V30 6802 C 621.732 -0.763451 -2.20666 0
M  V30 6803 C 622.713 0.260778 -1.68089 0
M  V30 6804 O 623.898 0.127915 -1.93778 0
M  V30 6805 C 621.028 -0.187744 -3.46792 0
M  V30 6806 C 619.982 -1.14196 -4.12484 0
M  V30 6807 C 619.308 -0.427755 -5.32986 0
M  V30 6808 C 620.608 -2.48607 -4.59338 0
M  V30 6809 H 622.302 -1.66347 -2.48936 0
M  V30 6810 H 619.848 -0.801261 -1.19649 0
M  V30 6811 H 621.801 0.0586375 -4.21359 0
M  V30 6812 H 620.525 0.747485 -3.17931 0
M  V30 6813 H 619.184 -1.37369 -3.3989 0
M  V30 6814 H 618.832 0.511747 -5.0039 0
M  V30 6815 H 618.532 -1.06403 -5.77886 0
M  V30 6816 H 620.056 -0.189772 -6.10305 0
M  V30 6817 H 621.47 -2.29618 -5.25308 0
M  V30 6818 H 619.867 -3.08062 -5.14993 0
M  V30 6819 H 620.937 -3.09062 -3.73642 0
M  V30 6820 N 622.28 1.30327 -0.886154 0
M  V30 6821 C 623.212 2.27079 -0.311072 0
M  V30 6822 C 624.225 1.53758 0.53502 0
M  V30 6823 O 625.414 1.74947 0.354378 0
M  V30 6824 C 622.514 3.33965 0.576228 0
M  V30 6825 C 621.687 4.36735 -0.241064 0
M  V30 6826 C 620.746 5.23028 0.576916 0
M  V30 6827 O 619.772 5.692 -0.000802231 0
M  V30 6828 N 620.974 5.49016 1.88579 0
M  V30 6829 H 623.739 2.77065 -1.14259 0
M  V30 6830 H 621.3 1.43519 -0.749258 0
M  V30 6831 H 623.292 3.88618 1.12953 0
M  V30 6832 H 621.862 2.839 1.30842 0
M  V30 6833 H 621.082 3.81932 -0.975805 0
M  V30 6834 H 622.37 5.02451 -0.801272 0
M  V30 6835 H 621.768 5.13288 2.37806 0
M  V30 6836 H 620.325 6.06539 2.38651 0
M  V30 6837 N 623.758 0.647228 1.43697 0
M  V30 6838 C 624.668 -0.0487997 2.34549 0
M  V30 6839 C 625.684 -0.818586 1.53542 0
M  V30 6840 O 626.86 -0.767195 1.86215 0
M  V30 6841 C 623.925 -1.00734 3.31743 0
M  V30 6842 C 622.986 -0.23515 4.28655 0
M  V30 6843 C 622.219 -1.14803 5.21206 0
M  V30 6844 O 622.442 -2.38717 5.18045 0
M  V30 6845 O 621.376 -0.623667 5.9866 0
M  V30 6846 H 625.202 0.698863 2.9555 0
M  V30 6847 H 622.787 0.407412 1.43738 0
M  V30 6848 H 624.669 -1.55837 3.91526 0
M  V30 6849 H 623.344 -1.73534 2.73254 0
M  V30 6850 H 622.251 0.359319 3.7237 0
M  V30 6851 H 623.584 0.453152 4.9011 0
M  V30 6852 N 625.236 -1.5273 0.388769 0
M  V30 6853 C 626.183 -2.26437 -0.446639 0
M  V30 6854 C 627.153 -1.28025 -1.05824 0
M  V30 6855 O 628.338 -1.56852 -1.08637 0
M  V30 6856 C 625.478 -3.07407 -1.56828 0
M  V30 6857 C 624.591 -4.20747 -0.979589 0
M  V30 6858 C 623.726 -4.89113 -2.07224 0
M  V30 6859 C 622.765 -5.94447 -1.45942 0
M  V30 6860 N 621.902 -6.56411 -2.49135 0
M  V30 6861 H 626.742 -2.97404 0.18837 0
M  V30 6862 H 624.279 -1.46727 0.104725 0
M  V30 6863 H 626.237 -3.52642 -2.22934 0
M  V30 6864 H 624.867 -2.3865 -2.17361 0
M  V30 6865 H 623.919 -3.7983 -0.208151 0
M  V30 6866 H 625.231 -4.9637 -0.491747 0
M  V30 6867 H 624.385 -5.3765 -2.81101 0
M  V30 6868 H 623.124 -4.13013 -2.59368 0
M  V30 6869 H 622.129 -5.4525 -0.705894 0
M  V30 6870 H 623.354 -6.7248 -0.945932 0
M  V30 6871 H 621.3 -5.83152 -3.00449 0
M  V30 6872 H 621.217 -7.27645 -2.05105 0
M  V30 6873 H 622.485 -7.09592 -3.22644 0
M  V30 6874 N 626.714 -0.118576 -1.57153 0
M  V30 6875 C 627.624 0.845484 -2.18835 0
M  V30 6876 C 628.64 1.29299 -1.16438 0
M  V30 6877 O 629.816 1.35607 -1.48905 0
M  V30 6878 C 626.881 2.07795 -2.77529 0
M  V30 6879 C 625.942 1.6824 -3.9496 0
M  V30 6880 C 625.175 2.85612 -4.50845 0
M  V30 6881 O 625.398 4.01025 -4.05629 0
M  V30 6882 O 624.332 2.62721 -5.41536 0
M  V30 6883 H 628.158 0.350568 -3.0167 0
M  V30 6884 H 625.743 0.107013 -1.49016 0
M  V30 6885 H 627.625 2.79978 -3.14945 0
M  V30 6886 H 626.3 2.56294 -1.97725 0
M  V30 6887 H 625.207 0.931663 -3.62313 0
M  V30 6888 H 626.54 1.24484 -4.76198 0
M  V30 6889 N 628.193 1.56834 0.155195 0
M  V30 6890 C 629.125 1.94235 1.21677 0
M  V30 6891 C 630.138 0.83724 1.39621 0
M  V30 6892 O 631.327 1.11567 1.39338 0
M  V30 6893 C 628.427 2.19402 2.58294 0
M  V30 6894 C 627.6 3.50671 2.61436 0
M  V30 6895 C 626.659 3.64475 3.79532 0
M  V30 6896 O 625.685 4.36945 3.64784 0
M  V30 6897 N 626.887 3.00526 4.96653 0
M  V30 6898 H 629.652 2.85901 0.898932 0
M  V30 6899 H 627.213 1.58185 0.34483 0
M  V30 6900 H 629.205 2.25886 3.35794 0
M  V30 6901 H 627.775 1.34042 2.82403 0
M  V30 6902 H 626.995 3.55702 1.69912 0
M  V30 6903 H 628.283 4.3702 2.60559 0
M  V30 6904 H 627.681 2.41549 5.11538 0
M  V30 6905 H 626.238 3.12583 5.71958 0
M  V30 6906 N 629.671 -0.424282 1.51781 0
M  V30 6907 C 630.603 -1.53457 1.70246 0
M  V30 6908 C 631.616 -1.52004 0.582967 0
M  V30 6909 O 632.805 -1.56544 0.857683 0
M  V30 6910 C 629.905 -2.92368 1.71389 0
M  V30 6911 C 629.078 -3.1818 3.00133 0
M  V30 6912 C 628.137 -4.36884 2.9329 0
M  V30 6913 O 627.163 -4.34901 3.67219 0
M  V30 6914 N 628.365 -5.4117 2.10036 0
M  V30 6915 H 631.13 -1.38017 2.66029 0
M  V30 6916 H 628.691 -0.613394 1.4983 0
M  V30 6917 H 630.683 -3.6982 1.64362 0
M  V30 6918 H 629.253 -3.0134 0.831449 0
M  V30 6919 H 628.473 -2.28908 3.20928 0
M  V30 6920 H 629.761 -3.32261 3.85331 0
M  V30 6921 H 629.159 -5.45623 1.49373 0
M  V30 6922 H 627.716 -6.17425 2.08878 0
M  V30 6923 N 631.149 -1.42148 -0.680565 0
M  V30 6924 C 632.565 -1.24947 -0.992995 0
M  V30 6925 C 632.765 -0.149527 -2.00944 0
M  V30 6926 O 631.821 0.481145 -2.47873 0
M  V30 6927 C 633.134 -2.60426 -1.5033 0
M  V30 6928 C 634.682 -2.67733 -1.62137 0
M  V30 6929 C 635.157 -4.03564 -2.16565 0
M  V30 6930 N 636.648 -4.05488 -2.23905 0
M  V30 6931 C 637.383 -5.07401 -2.67081 0
M  V30 6932 N 636.879 -6.19698 -3.09751 0
M  V30 6933 N 638.672 -4.94758 -2.66778 0
M  V30 6934 H 630.823 -2.12399 -0.0074788 0
M  V30 6935 H 633.086 -0.94571 -0.0658529 0
M  V30 6936 H 632.792 -3.41743 -0.830947 0
M  V30 6937 H 632.666 -2.83949 -2.483 0
M  V30 6938 H 635.053 -1.86765 -2.2848 0
M  V30 6939 H 635.134 -2.48004 -0.626713 0
M  V30 6940 H 634.778 -4.84987 -1.50833 0
M  V30 6941 H 634.708 -4.20641 -3.1681 0
M  V30 6942 H 637.199 -3.24415 -1.93812 0
M  V30 6943 H 637.512 -6.93318 -3.41365 0
M  V30 6944 H 635.857 -6.23212 -3.07623 0
M  V30 6945 H 639.048 -4.06105 -2.32801 0
M  V30 6946 H 639.221 -5.74317 -3.00107 0
M  V30 6947 N 632.627 0.916307 -1.28225 0
M  V30 6948 C 634.043 1.19425 -1.05876 0
M  V30 6949 C 634.243 2.005 0.2005 0
M  V30 6950 O 633.299 2.35806 0.902873 0
M  V30 6951 C 634.612 1.93133 -2.30478 0
M  V30 6952 C 636.16 2.06026 -2.35632 0
M  V30 6953 C 636.635 2.83141 -3.59994 0
M  V30 6954 N 638.126 2.90704 -3.60618 0
M  V30 6955 C 638.861 3.50865 -4.53521 0
M  V30 6956 N 638.357 4.12327 -5.56739 0
M  V30 6957 N 640.15 3.48379 -4.41122 0
M  V30 6958 H 632.301 0.37496 -2.09064 0
M  V30 6959 H 634.564 0.228531 -0.920042 0
M  V30 6960 H 634.27 1.40985 -3.22205 0
M  V30 6961 H 634.144 2.93696 -2.36691 0
M  V30 6962 H 636.531 2.57355 -1.44404 0
M  V30 6963 H 636.612 1.04647 -2.33415 0
M  V30 6964 H 636.256 2.32492 -4.51564 0
M  V30 6965 H 636.186 3.84829 -3.59464 0
M  V30 6966 H 638.677 2.47034 -2.85977 0
M  V30 6967 H 638.99 4.56205 -6.23776 0
M  V30 6968 H 637.335 4.10839 -5.60568 0
M  V30 6969 H 640.526 2.99572 -3.59686 0
M  V30 6970 H 640.699 3.94974 -5.13712 0
M  V30 6971 N 634.105 1.10431 1.1244 0
M  V30 6972 C 635.035 0.775143 2.20258 0
M  V30 6973 C 636.016 -0.25186 1.68225 0
M  V30 6974 O 637.201 -0.117637 1.93843 0
M  V30 6975 C 634.331 0.206133 3.46688 0
M  V30 6976 C 633.285 1.16382 4.11873 0
M  V30 6977 C 632.611 0.456014 5.32752 0
M  V30 6978 C 633.911 2.5104 4.58013 0
M  V30 6979 H 635.605 1.67665 2.4805 0
M  V30 6980 H 633.151 0.807595 1.19222 0
M  V30 6981 H 635.104 -0.036291 4.21384 0
M  V30 6982 H 633.828 -0.730614 3.18323 0
M  V30 6983 H 632.487 1.39169 3.39157 0
M  V30 6984 H 632.135 -0.485203 5.00654 0
M  V30 6985 H 631.835 1.09466 5.77314 0
M  V30 6986 H 633.359 0.222135 6.10196 0
M  V30 6987 H 634.773 2.32401 5.24083 0
M  V30 6988 H 633.17 3.10789 5.13352 0
M  V30 6989 H 634.24 3.11039 3.71998 0
M  V30 6990 N 635.583 -1.29855 0.893053 0
M  V30 6991 C 636.493 -2.31661 0.370157 0
M  V30 6992 C 637.509 -1.65677 -0.531723 0
M  V30 6993 O 638.685 -1.9691 -0.422902 0
M  V30 6994 C 635.75 -3.44388 -0.399741 0
M  V30 6995 C 634.811 -4.2598 0.532861 0
M  V30 6996 C 634.044 -5.33324 -0.200388 0
M  V30 6997 O 634.267 -5.52305 -1.42531 0
M  V30 6998 O 633.201 -6.00188 0.453668 0
M  V30 6999 H 637.027 -2.78354 1.2146 0
M  V30 7000 H 634.612 -1.34171 0.657153 0
M  V30 7001 H 636.494 -4.13037 -0.835358 0
M  V30 7002 H 635.169 -2.99815 -1.22035 0
M  V30 7003 H 634.076 -3.59998 1.01746 0
M  V30 7004 H 635.409 -4.74178 1.3197 0
M  V30 7005 N 637.061 -0.65484 -1.43351 0
M  V30 7006 C 638.338 -0.0987371 -1.95351 0
M  V30 7007 C 638.718 1.38161 -1.59608 0
M  V30 7008 O 638.066 2.10791 -0.882021 0
M  V30 7009 C 638.276 -0.346684 -3.47274 0
M  V30 7010 C 639.624 -0.25249 -4.23849 0
M  V30 7011 O 640.648 -0.279332 -3.55103 0
M  V30 7012 O 639.507 -0.177584 -5.46211 0
M  V30 7013 H 636.601 0.0086829 -0.826954 0
M  V30 7014 H 639.147 -0.728189 -1.53282 0
M  V30 7015 H 637.919 -1.37296 -3.66423 0
M  V30 7016 H 637.542 0.315757 -3.96344 0
M  V30 7017 N 638.539 1.52521 -0.396863 0
M  V30 7018 C 639.472 2.23118 0.478926 0
M  V30 7019 C 640.45 1.23475 1.05796 0
M  V30 7020 O 641.634 1.52486 1.10817 0
M  V30 7021 C 638.761 2.95028 1.66362 0
M  V30 7022 C 637.807 4.09002 1.20913 0
M  V30 7023 S 638.64 5.35182 0.184407 0
M  V30 7024 C 639.796 6.10616 1.37471 0
M  V30 7025 H 640.029 2.97056 -0.120542 0
M  V30 7026 H 637.562 1.53334 -0.18109 0
M  V30 7027 H 639.52 3.37066 2.34301 0
M  V30 7028 H 638.181 2.20756 2.23441 0
M  V30 7029 H 637.374 4.58445 2.09389 0
M  V30 7030 H 636.976 3.69016 0.608559 0
M  V30 7031 H 639.268 6.37247 2.30048 0
M  V30 7032 H 640.211 7.02084 0.921051 0
M  V30 7033 H 640.619 5.41499 1.59495 0
M  V30 7034 N 640.017 0.126909 1.57088 0
M  V30 7035 C 640.949 -0.850973 2.12817 0
M  V30 7036 C 641.962 -1.22457 1.07276 0
M  V30 7037 O 643.151 -1.17215 1.34622 0
M  V30 7038 C 640.251 -2.15039 2.61938 0
M  V30 7039 C 639.424 -1.94726 3.91664 0
M  V30 7040 C 638.483 -3.0847 4.26301 0
M  V30 7041 O 637.509 -2.81038 4.94981 0
M  V30 7042 N 638.711 -4.35116 3.84259 0
M  V30 7043 H 641.476 -0.3748 2.97347 0
M  V30 7044 H 639.037 -0.0572793 1.61799 0
M  V30 7045 H 641.029 -2.90141 2.82135 0
M  V30 7046 H 639.599 -2.5398 1.82244 0
M  V30 7047 H 638.819 -1.03772 3.80296 0
M  V30 7048 H 640.107 -1.78469 4.76473 0
M  V30 7049 H 639.505 -4.60276 3.2888 0
M  V30 7050 H 638.062 -5.07064 4.09548 0
M  V30 7051 N 641.495 -1.56914 -0.146875 0
M  V30 7052 C 642.458 -1.97368 -1.16526 0
M  V30 7053 C 643.458 -0.860223 -1.35856 0
M  V30 7054 O 644.648 -1.12684 -1.32846 0
M  V30 7055 C 641.78 -2.28974 -2.52555 0
M  V30 7056 H 642.973 -2.88523 -0.818209 0
M  V30 7057 H 640.526 -1.5135 -0.390221 0
M  V30 7058 H 641.261 -1.40611 -2.92231 0
M  V30 7059 H 641.046 -3.10157 -2.39886 0
M  V30 7060 H 642.536 -2.61109 -3.25902 0
M  V30 7061 N 642.974 0.416227 -1.52004 0
M  V30 7062 C 643.904 1.51365 -1.77795 0
M  V30 7063 C 644.885 1.58059 -0.628601 0
M  V30 7064 O 646.07 1.73447 -0.873478 0
M  V30 7065 C 643.2 2.89256 -1.92219 0
M  V30 7066 C 642.154 2.97415 -3.0778 0
M  V30 7067 C 641.48 4.37492 -3.07417 0
M  V30 7068 C 642.78 2.69551 -4.47369 0
M  V30 7069 H 644.474 1.30033 -2.69688 0
M  V30 7070 H 642.02 0.624112 -1.29772 0
M  V30 7071 H 643.973 3.66008 -2.08845 0
M  V30 7072 H 642.697 3.11866 -0.969917 0
M  V30 7073 H 641.356 2.23107 -2.90893 0
M  V30 7074 H 641.004 4.571 -2.09925 0
M  V30 7075 H 640.704 4.43877 -3.85029 0
M  V30 7076 H 642.228 5.16188 -3.26162 0
M  V30 7077 H 643.642 3.36028 -4.64497 0
M  V30 7078 H 642.039 2.87321 -5.26846 0
M  V30 7079 H 643.109 1.65029 -4.55953 0
M  V30 7080 N 644.452 1.42507 0.673017 0
M  V30 7081 C 645.868 1.25472 0.986355 0
M  V30 7082 C 646.068 0.160181 2.00862 0
M  V30 7083 O 645.124 -0.467993 2.48125 0
M  V30 7084 C 646.437 2.61219 1.48947 0
M  V30 7085 C 647.985 2.68589 1.60715 0
M  V30 7086 C 648.46 4.04707 2.14422 0
M  V30 7087 N 649.951 4.0667 2.21752 0
M  V30 7088 C 650.686 5.0881 2.64386 0
M  V30 7089 N 650.182 6.21332 3.0646 0
M  V30 7090 N 651.975 4.96166 2.64151 0
M  V30 7091 H 644.126 2.124 -0.00378532 0
M  V30 7092 H 646.389 0.946046 0.0608367 0
M  V30 7093 H 646.095 3.42179 0.812812 0
M  V30 7094 H 645.969 2.85261 2.46791 0
M  V30 7095 H 648.356 1.87974 2.27486 0
M  V30 7096 H 648.437 2.48333 0.613552 0
M  V30 7097 H 648.081 4.8578 1.48258 0
M  V30 7098 H 648.011 4.22315 3.14575 0
M  V30 7099 H 650.502 3.25438 1.92089 0
M  V30 7100 H 650.815 6.95118 3.37684 0
M  V30 7101 H 649.16 6.24835 3.04313 0
M  V30 7102 H 652.351 4.07334 2.30644 0
M  V30 7103 H 652.524 5.759 2.97057 0
M  V30 7104 N 645.93 -0.909495 1.28709 0
M  V30 7105 C 647.346 -1.18862 1.06508 0
M  V30 7106 C 647.546 -2.00604 -0.189864 0
M  V30 7107 O 646.602 -2.36281 -0.890355 0
M  V30 7108 C 647.915 -1.91908 2.31499 0
M  V30 7109 C 649.463 -2.04773 2.36721 0
M  V30 7110 C 649.938 -2.81228 3.6149 0
M  V30 7111 N 651.429 -2.88787 3.62155 0
M  V30 7112 C 652.164 -3.48455 4.55375 0
M  V30 7113 N 651.66 -4.09369 5.58918 0
M  V30 7114 N 653.453 -3.46035 4.42963 0
M  V30 7115 H 645.604 -0.363867 2.0926 0
M  V30 7116 H 647.867 -0.223649 0.921241 0
M  V30 7117 H 647.573 -1.39275 3.22948 0
M  V30 7118 H 647.447 -2.92436 2.38245 0
M  V30 7119 H 649.834 -2.56585 1.45767 0
M  V30 7120 H 649.915 -1.03408 2.33967 0
M  V30 7121 H 649.559 -2.30094 4.5279 0
M  V30 7122 H 649.489 -3.82917 3.61499 0
M  V30 7123 H 651.98 -2.45514 2.87283 0
M  V30 7124 H 652.293 -4.52891 6.26187 0
M  V30 7125 H 650.638 -4.0786 5.62739 0
M  V30 7126 H 653.829 -2.9766 3.6127 0
M  V30 7127 H 654.002 -3.92244 5.15799 0
M  V30 7128 N 647.408 -1.11026 -1.11852 0
M  V30 7129 C 648.318 -0.777252 -2.2135 0
M  V30 7130 C 649.334 0.227821 -1.72502 0
M  V30 7131 O 650.51 0.0650587 -2.01295 0
M  V30 7132 C 647.575 -0.220668 -3.45997 0
M  V30 7133 C 646.636 -1.2838 -4.09655 0
M  V30 7134 C 645.869 -0.753678 -5.28352 0
M  V30 7135 O 646.092 0.417779 -5.68868 0
M  V30 7136 O 645.026 -1.51647 -5.82483 0
M  V30 7137 H 648.852 -1.69141 -2.5224 0
M  V30 7138 H 646.437 -0.885836 -1.20305 0
M  V30 7139 H 648.319 0.0855756 -4.21313 0
M  V30 7140 H 646.994 0.666262 -3.16769 0
M  V30 7141 H 645.901 -1.64299 -3.3609 0
M  V30 7142 H 647.234 -2.14396 -4.43052 0
M  V30 7143 N 648.886 1.2938 -0.899927 0
M  V30 7144 C 649.796 2.31462 -0.382437 0
M  V30 7145 C 650.812 1.65956 0.522929 0
M  V30 7146 O 651.988 1.97131 0.412454 0
M  V30 7147 C 649.053 3.44595 0.381472 0
M  V30 7148 C 648.114 4.25692 -0.555444 0
M  V30 7149 C 647.347 5.33422 0.172102 0
M  V30 7150 O 647.57 5.53053 1.396 0
M  V30 7151 O 646.504 5.99939 -0.485491 0
M  V30 7152 H 650.33 2.77706 -1.22934 0
M  V30 7153 H 647.915 1.33821 -0.664259 0
M  V30 7154 H 649.797 4.13474 0.813442 0
M  V30 7155 H 648.472 3.00458 1.20443 0
M  V30 7156 H 647.379 3.59453 -1.03653 0
M  V30 7157 H 648.712 4.73471 -1.34483 0
M  V30 7158 N 650.364 0.662433 1.43002 0
M  V30 7159 C 651.274 -0.0239199 2.34588 0
M  V30 7160 C 652.29 -0.802255 1.54402 0
M  V30 7161 O 653.466 -0.747401 1.87018 0
M  V30 7162 C 650.531 -0.972098 3.32793 0
M  V30 7163 C 649.592 -0.189673 4.28881 0
M  V30 7164 C 648.825 -1.09269 5.22395 0
M  V30 7165 O 649.048 -2.33209 5.20547 0
M  V30 7166 O 647.982 -0.560136 5.99288 0
M  V30 7167 H 651.808 0.730171 2.94792 0
M  V30 7168 H 649.393 0.422635 1.43297 0
M  V30 7169 H 651.275 -1.51676 3.93157 0
M  V30 7170 H 649.95 -1.70626 2.75079 0
M  V30 7171 H 648.857 0.398794 3.71968 0
M  V30 7172 H 650.19 0.50511 4.89601 0
M  V30 7173 N 651.842 -1.52309 0.404946 0
M  V30 7174 C 653.258 -1.59503 0.0556255 0
M  V30 7175 C 653.458 -1.41805 -1.43156 0
M  V30 7176 O 652.514 -1.2429 -2.19792 0
M  V30 7177 C 653.827 -2.95687 0.546801 0
M  V30 7178 C 655.375 -3.08909 0.504413 0
M  V30 7179 C 655.85 -4.47566 0.97203 0
M  V30 7180 N 657.341 -4.53795 0.928679 0
M  V30 7181 C 658.076 -5.59346 1.26174 0
M  V30 7182 N 657.572 -6.72469 1.66604 0
M  V30 7183 N 659.365 -5.49532 1.18198 0
M  V30 7184 H 651.516 -1.6206 1.37296 0
M  V30 7185 H 653.779 -0.762161 0.563751 0
M  V30 7186 H 653.485 -3.13905 1.58609 0
M  V30 7187 H 653.359 -3.77172 -0.0457905 0
M  V30 7188 H 655.746 -2.90378 -0.525819 0
M  V30 7189 H 655.827 -2.2934 1.13301 0
M  V30 7190 H 655.471 -4.6684 2.00057 0
M  V30 7191 H 655.401 -5.25625 0.320292 0
M  V30 7192 H 657.892 -3.72588 0.631369 0
M  V30 7193 H 658.205 -7.48993 1.9034 0
M  V30 7194 H 656.55 -6.73761 1.70504 0
M  V30 7195 H 659.741 -4.60038 0.865011 0
M  V30 7196 H 659.914 -6.31687 1.44485 0
M  V30 7197 N 653.32 -0.135238 -1.57019 0
M  V30 7198 C 654.736 0.221262 -1.58059 0
M  V30 7199 C 654.936 1.65538 -1.14889 0
M  V30 7200 O 653.992 2.37985 -0.843751 0
M  V30 7201 C 655.305 -0.0268114 -3.00688 0
M  V30 7202 C 656.853 0.0378206 -3.12977 0
M  V30 7203 C 657.328 -0.182769 -4.57635 0
M  V30 7204 N 658.819 -0.129292 -4.6302 0
M  V30 7205 C 659.554 -0.274648 -5.72742 0
M  V30 7206 N 659.05 -0.477075 -6.91155 0
M  V30 7207 N 660.843 -0.213077 -5.61696 0
M  V30 7208 H 652.994 -1.07177 -1.83376 0
M  V30 7209 H 655.257 -0.423338 -0.848227 0
M  V30 7210 H 654.963 -1.01889 -3.36618 0
M  V30 7211 H 654.837 0.697863 -3.70688 0
M  V30 7212 H 657.224 1.02043 -2.76896 0
M  V30 7213 H 657.305 -0.718996 -2.45487 0
M  V30 7214 H 656.949 -1.16243 -4.94419 0
M  V30 7215 H 656.879 0.59423 -5.23237 0
M  V30 7216 H 659.37 0.0229896 -3.77893 0
M  V30 7217 H 659.683 -0.578413 -7.70632 0
M  V30 7218 H 658.028 -0.513252 -6.93102 0
M  V30 7219 H 661.219 -0.0557796 -4.68067 0
M  V30 7220 H 661.392 -0.329796 -6.4716 0
M  V30 7221 N 654.798 1.5699 0.138552 0
M  V30 7222 C 655.73 1.95515 1.1961 0
M  V30 7223 C 656.743 0.852002 1.38726 0
M  V30 7224 O 657.932 1.13038 1.38147 0
M  V30 7225 C 655.032 2.2213 2.55952 0
M  V30 7226 C 654.205 3.53424 2.57702 0
M  V30 7227 C 653.264 3.6848 3.75645 0
M  V30 7228 O 652.29 4.4079 3.60129 0
M  V30 7229 N 653.492 3.05777 4.93438 0
M  V30 7230 H 656.257 2.86838 0.868557 0
M  V30 7231 H 653.818 1.58542 0.328033 0
M  V30 7232 H 655.81 2.29435 3.33379 0
M  V30 7233 H 654.38 1.3703 2.80965 0
M  V30 7234 H 653.6 3.57484 1.6613 0
M  V30 7235 H 654.888 4.39759 2.55909 0
M  V30 7236 H 654.286 2.46961 5.08947 0
M  V30 7237 H 652.843 3.18631 5.6861 0
M  V30 7238 N 656.276 -0.40816 1.52223 0
M  V30 7239 C 657.239 -1.48 1.7501 0
M  V30 7240 C 658.239 -1.48367 0.619996 0
M  V30 7241 O 659.429 -1.49874 0.887881 0
M  V30 7242 C 656.561 -2.87403 1.83336 0
M  V30 7243 H 657.754 -1.29086 2.70697 0
M  V30 7244 H 655.307 -0.638715 1.42654 0
M  V30 7245 H 656.042 -3.11686 0.895677 0
M  V30 7246 H 655.827 -2.8854 2.65494 0
M  V30 7247 H 657.317 -3.65103 2.02705 0
M  V30 7248 N 657.755 -1.42862 -0.66545 0
M  V30 7249 C 658.665 -1.49491 -1.80803 0
M  V30 7250 C 659.681 -0.382914 -1.69734 0
M  V30 7251 O 660.857 -0.635223 -1.9112 0
M  V30 7252 C 657.922 -1.40383 -3.17007 0
M  V30 7253 C 656.983 -2.62152 -3.39963 0
M  V30 7254 C 656.216 -2.53469 -4.69669 0
M  V30 7255 O 656.439 -1.57568 -5.48205 0
M  V30 7256 O 655.373 -3.43763 -4.94075 0
M  V30 7257 H 659.199 -2.45949 -1.78165 0
M  V30 7258 H 656.784 -1.24728 -0.822387 0
M  V30 7259 H 658.666 -1.377 -3.98267 0
M  V30 7260 H 657.341 -0.470546 -3.20262 0
M  V30 7261 H 656.248 -2.70409 -2.58515 0
M  V30 7262 H 657.581 -3.54411 -3.41546 0
M  V30 7263 N 659.233 0.902656 -1.29189 0
M  V30 7264 C 660.649 1.18296 -1.07137 0
M  V30 7265 C 660.849 2.00701 0.179223 0
M  V30 7266 O 659.905 2.3675 0.877812 0
M  V30 7267 C 661.218 1.90677 -2.32514 0
M  V30 7268 C 662.766 2.03515 -2.37804 0
M  V30 7269 C 663.241 2.79307 -3.62976 0
M  V30 7270 N 664.732 2.86862 -3.63681 0
M  V30 7271 C 665.467 3.46035 -4.57217 0
M  V30 7272 N 664.963 4.06399 -5.61081 0
M  V30 7273 N 666.756 3.43681 -4.44792 0
M  V30 7274 H 658.907 0.352765 -2.0945 0
M  V30 7275 H 661.17 0.21876 -0.922414 0
M  V30 7276 H 660.876 1.3756 -3.23682 0
M  V30 7277 H 660.75 2.91169 -2.39793 0
M  V30 7278 H 663.137 2.55809 -1.47125 0
M  V30 7279 H 663.218 1.02166 -2.34512 0
M  V30 7280 H 662.862 2.2769 -4.54004 0
M  V30 7281 H 662.792 3.80995 -3.63525 0
M  V30 7282 H 665.283 2.43987 -2.88581 0
M  V30 7283 H 665.596 4.49564 -6.2858 0
M  V30 7284 H 663.941 4.0487 -5.64894 0
M  V30 7285 H 667.132 2.9574 -3.62843 0
M  V30 7286 H 667.305 3.89503 -5.17872 0
M  V30 7287 N 660.711 1.11618 1.11262 0
M  V30 7288 C 661.621 0.78898 2.20935 0
M  V30 7289 C 662.637 -0.21867 1.7262 0
M  V30 7290 O 663.813 -0.0543826 2.01327 0
M  V30 7291 C 660.878 0.239014 3.45875 0
M  V30 7292 C 659.939 1.3055 4.08968 0
M  V30 7293 C 659.172 0.781687 5.27944 0
M  V30 7294 O 659.395 -0.387605 5.69082 0
M  V30 7295 O 658.329 1.54734 5.81671 0
M  V30 7296 H 662.155 1.70477 2.51339 0
M  V30 7297 H 659.74 0.892203 1.19834 0
M  V30 7298 H 661.622 -0.0632312 4.21353 0
M  V30 7299 H 660.297 -0.649454 3.17118 0
M  V30 7300 H 659.204 1.66079 3.35214 0
M  V30 7301 H 660.537 2.16743 4.41909 0
M  V30 7302 N 662.189 -1.289 0.906776 0
M  V30 7303 C 663.121 -2.26556 0.347159 0
M  V30 7304 C 664.134 -1.54589 -0.51049 0
M  V30 7305 O 665.323 -1.75489 -0.326501 0
M  V30 7306 C 662.423 -3.3484 -0.523024 0
M  V30 7307 C 661.596 -4.36296 0.310515 0
M  V30 7308 C 660.655 -5.23879 -0.493634 0
M  V30 7309 O 659.681 -5.69127 0.0913569 0
M  V30 7310 N 660.883 -5.51946 -1.7982 0
M  V30 7311 H 663.648 -2.75212 1.18652 0
M  V30 7312 H 661.209 -1.42309 0.771996 0
M  V30 7313 H 663.201 -3.90366 -1.06756 0
M  V30 7314 H 661.771 -2.85946 -1.26309 0
M  V30 7315 H 660.991 -3.80331 1.03644 0
M  V30 7316 H 662.279 -5.01113 0.881106 0
M  V30 7317 H 661.677 -5.17006 -2.2961 0
M  V30 7318 H 660.234 -6.10258 -2.28971 0
M  V30 7319 N 663.667 -0.670007 -1.42649 0
M  V30 7320 C 664.577 0.0114788 -2.34597 0
M  V30 7321 C 665.593 0.794055 -1.54825 0
M  V30 7322 O 666.769 0.737472 -1.87412 0
M  V30 7323 C 663.834 0.954436 -3.33304 0
M  V30 7324 C 662.895 0.166925 -4.28975 0
M  V30 7325 C 662.128 1.06497 -5.22967 0
M  V30 7326 O 662.351 2.30446 -5.21777 0
M  V30 7327 O 661.285 0.528347 -5.99577 0
M  V30 7328 H 665.111 -0.745794 -2.944 0
M  V30 7329 H 662.696 -0.430228 -1.43071 0
M  V30 7330 H 664.578 1.49589 -3.93956 0
M  V30 7331 H 663.253 1.69164 -2.7598 0
M  V30 7332 H 662.16 -0.418515 -3.71752 0
M  V30 7333 H 663.493 -0.531067 -4.89327 0
M  V30 7334 N 665.145 1.52092 -0.413018 0
M  V30 7335 C 666.375 2.05974 0.160648 0
M  V30 7336 C 666.783 1.28267 1.39084 0
M  V30 7337 O 666.126 0.328805 1.80733 0
M  V30 7338 C 666.188 3.54918 0.572169 0
M  V30 7339 C 665.852 4.53705 -0.547826 0
M  V30 7340 C 666.849 5.00342 -1.41259 0
M  V30 7341 C 664.534 4.97089 -0.721627 0
M  V30 7342 C 666.528 5.89011 -2.43607 0
M  V30 7343 C 664.215 5.85554 -1.74841 0
M  V30 7344 C 665.213 6.3141 -2.60403 0
M  V30 7345 O 664.901 7.18123 -3.61323 0
M  V30 7346 H 664.633 0.675636 0.0221936 0
M  V30 7347 H 667.187 1.96931 -0.58373 0
M  V30 7348 H 665.417 3.61661 1.36889 0
M  V30 7349 H 667.106 3.91428 1.0742 0
M  V30 7350 H 667.872 4.67537 -1.28974 0
M  V30 7351 H 663.751 4.60954 -0.0652911 0
M  V30 7352 H 667.295 6.24725 -3.10425 0
M  V30 7353 H 663.192 6.17773 -1.87156 0
M  V30 7354 H 663.96 7.36244 -3.57613 0
M  V30 7355 N 666.623 0.143563 1.56945 0
M  V30 7356 C 667.57 -0.797433 2.16586 0
M  V30 7357 C 668.54 -1.24654 1.09775 0
M  V30 7358 O 669.725 -1.31968 1.37801 0
M  V30 7359 C 666.865 -2.03253 2.78895 0
M  V30 7360 C 665.978 -1.62954 4.00087 0
M  V30 7361 C 665.113 -2.81617 4.50406 0
M  V30 7362 C 664.152 -2.37675 5.64072 0
M  V30 7363 N 663.289 -3.49335 6.09023 0
M  V30 7364 H 668.129 -0.282023 2.96662 0
M  V30 7365 H 665.666 -0.127494 1.46546 0
M  V30 7366 H 667.624 -2.75653 3.13163 0
M  V30 7367 H 666.254 -2.52211 2.01469 0
M  V30 7368 H 665.306 -0.803322 3.71821 0
M  V30 7369 H 666.618 -1.26679 4.82446 0
M  V30 7370 H 665.772 -3.62212 4.86711 0
M  V30 7371 H 664.511 -3.21134 3.67048 0
M  V30 7372 H 663.516 -1.55519 5.27346 0
M  V30 7373 H 664.741 -1.99247 6.49213 0
M  V30 7374 H 662.687 -3.8848 5.28601 0
M  V30 7375 H 662.604 -3.17064 6.86299 0
M  V30 7376 H 663.872 -4.30297 6.49973 0
M  V30 7377 N 668.101 -1.57061 -0.130224 0
M  V30 7378 C 669.517 -1.52103 -0.483413 0
M  V30 7379 C 669.717 -0.854752 -1.82473 0
M  V30 7380 O 668.773 -0.432342 -2.48771 0
M  V30 7381 C 670.086 -2.96872 -0.47825 0
M  V30 7382 C 671.634 -3.07902 -0.562592 0
M  V30 7383 C 672.109 -4.54211 -0.587929 0
M  V30 7384 N 673.6 -4.58621 -0.649684 0
M  V30 7385 C 674.335 -5.69227 -0.690551 0
M  V30 7386 N 673.831 -6.89358 -0.689743 0
M  V30 7387 N 675.624 -5.57304 -0.732708 0
M  V30 7388 H 667.775 -1.98764 0.748779 0
M  V30 7389 H 670.038 -0.907248 0.274965 0
M  V30 7390 H 669.744 -3.48944 0.439444 0
M  V30 7391 H 669.618 -3.53716 -1.31013 0
M  V30 7392 H 672.005 -2.5584 -1.47071 0
M  V30 7393 H 672.086 -2.54073 0.296764 0
M  V30 7394 H 671.73 -5.06915 0.316096 0
M  V30 7395 H 671.66 -5.0584 -1.46401 0
M  V30 7396 H 674.151 -3.72146 -0.656927 0
M  V30 7397 H 674.464 -7.69408 -0.723239 0
M  V30 7398 H 672.809 -6.91884 -0.657347 0
M  V30 7399 H 676 -4.62363 -0.730625 0
M  V30 7400 H 676.173 -6.43515 -0.76109 0
M  V30 7401 N 669.579 0.400081 -1.52437 0
M  V30 7402 C 670.526 1.48803 -1.76426 0
M  V30 7403 C 671.496 1.5461 -0.607032 0
M  V30 7404 O 672.681 1.71041 -0.845563 0
M  V30 7405 C 669.821 2.86156 -1.92896 0
M  V30 7406 C 668.934 2.89587 -3.20567 0
M  V30 7407 C 668.069 4.18296 -3.27417 0
M  V30 7408 C 667.108 4.15736 -4.49255 0
M  V30 7409 N 666.245 5.36032 -4.53447 0
M  V30 7410 H 671.085 1.27649 -2.69276 0
M  V30 7411 H 668.622 0.619451 -1.33421 0
M  V30 7412 H 670.58 3.65901 -2.00429 0
M  V30 7413 H 669.21 3.05785 -1.03418 0
M  V30 7414 H 668.262 2.02278 -3.22161 0
M  V30 7415 H 669.574 2.83562 -4.10358 0
M  V30 7416 H 668.728 5.06439 -3.34072 0
M  V30 7417 H 667.467 4.27028 -2.35581 0
M  V30 7418 H 666.472 3.25982 -4.42737 0
M  V30 7419 H 667.697 4.08636 -5.42396 0
M  V30 7420 H 665.643 5.45415 -3.64498 0
M  V30 7421 H 665.56 5.32038 -5.37096 0
M  V30 7422 H 666.828 6.26104 -4.64343 0
M  V30 7423 N 671.057 1.43213 0.657864 0
M  V30 7424 C 671.989 1.43974 1.78337 0
M  V30 7425 C 673.002 0.336482 1.59285 0
M  V30 7426 O 674.191 0.600631 1.68091 0
M  V30 7427 C 671.291 1.23242 3.15697 0
M  V30 7428 C 670.464 2.46319 3.61449 0
M  V30 7429 C 669.523 2.2088 4.77597 0
M  V30 7430 O 668.549 2.942 4.87273 0
M  V30 7431 N 669.751 1.22251 5.67481 0
M  V30 7432 H 672.516 2.40993 1.78164 0
M  V30 7433 H 670.077 1.3831 0.841549 0
M  V30 7434 H 672.069 1.04113 3.91079 0
M  V30 7435 H 670.639 0.346849 3.1067 0
M  V30 7436 H 669.859 2.80904 2.76563 0
M  V30 7437 H 671.147 3.28239 3.88763 0
M  V30 7438 H 670.545 0.616433 5.62331 0
M  V30 7439 H 669.102 1.09107 6.42603 0
M  V30 7440 N 672.536 -0.895792 1.29666 0
M  V30 7441 C 673.466 -2.01673 1.17688 0
M  V30 7442 C 674.447 -1.69955 0.0701317 0
M  V30 7443 O 675.632 -1.9258 0.250289 0
M  V30 7444 C 672.762 -3.36568 0.856681 0
M  V30 7445 C 671.716 -3.82509 1.92017 0
M  V30 7446 C 671.042 -5.14574 1.4532 0
M  V30 7447 C 672.342 -4.02409 3.32963 0
M  V30 7448 H 674.036 -2.11953 2.11463 0
M  V30 7449 H 671.582 -1.01839 1.01807 0
M  V30 7450 H 673.535 -4.14498 0.759577 0
M  V30 7451 H 672.259 -3.26391 -0.116763 0
M  V30 7452 H 670.918 -3.068 2.00673 0
M  V30 7453 H 670.566 -5.00815 0.468325 0
M  V30 7454 H 670.266 -5.46283 2.16447 0
M  V30 7455 H 671.79 -5.9504 1.36968 0
M  V30 7456 H 673.204 -4.70808 3.27127 0
M  V30 7457 H 671.601 -4.45478 4.02082 0
M  V30 7458 H 672.671 -3.06616 3.75652 0
M  V30 7459 N 674.014 -1.12206 -1.10668 0
M  V30 7460 C 674.924 -0.800686 -2.20513 0
M  V30 7461 C 675.94 0.209512 -1.72734 0
M  V30 7462 O 677.116 0.043705 -2.01353 0
M  V30 7463 C 674.181 -0.257353 -3.45744 0
M  V30 7464 C 673.242 -1.32718 -4.0827 0
M  V30 7465 C 672.475 -0.809674 -5.27522 0
M  V30 7466 O 672.698 0.35742 -5.69279 0
M  V30 7467 O 671.632 -1.57816 -5.80842 0
M  V30 7468 H 675.458 -1.71807 -2.50432 0
M  V30 7469 H 673.043 -0.898546 -1.19359 0
M  V30 7470 H 674.925 0.0408849 -4.2138 0
M  V30 7471 H 673.6 0.632627 -3.17458 0
M  V30 7472 H 672.507 -1.67855 -3.34329 0
M  V30 7473 H 673.84 -2.19083 -4.40753 0
M  V30 7474 N 675.492 1.28418 -0.913599 0
M  V30 7475 C 676.402 2.31043 -0.406965 0
M  V30 7476 C 677.418 1.66501 0.505298 0
M  V30 7477 O 678.594 1.97558 0.391522 0
M  V30 7478 C 675.659 3.4498 0.344901 0
M  V30 7479 C 674.72 4.25078 -0.600563 0
M  V30 7480 C 673.953 5.33575 0.115516 0
M  V30 7481 O 674.176 5.54503 1.33727 0
M  V30 7482 O 673.11 5.9939 -0.549095 0
M  V30 7483 H 676.936 2.76387 -1.25873 0
M  V30 7484 H 674.521 1.33109 -0.678415 0
M  V30 7485 H 676.403 4.14314 0.769542 0
M  V30 7486 H 675.078 3.01719 1.1725 0
M  V30 7487 H 673.985 3.58334 -1.0746 0
M  V30 7488 H 675.318 4.72018 -1.39497 0
M  V30 7489 N 676.97 0.677563 1.42291 0
M  V30 7490 C 677.902 -0.0380218 2.29168 0
M  V30 7491 C 678.915 -0.762714 1.43828 0
M  V30 7492 O 680.104 -0.616413 1.67519 0
M  V30 7493 C 677.204 -1.07761 3.21311 0
M  V30 7494 C 676.377 -0.42618 4.35319 0
M  V30 7495 C 675.436 -1.36592 5.08162 0
M  V30 7496 O 674.462 -0.865174 5.62586 0
M  V30 7497 N 675.664 -2.69909 5.13935 0
M  V30 7498 H 678.429 0.707766 2.91223 0
M  V30 7499 H 675.99 0.52219 1.53247 0
M  V30 7500 H 677.982 -1.70761 3.6691 0
M  V30 7501 H 676.552 -1.72511 2.60689 0
M  V30 7502 H 675.772 0.383385 3.92331 0
M  V30 7503 H 677.06 0.0275277 5.08793 0
M  V30 7504 H 676.458 -3.13129 4.71134 0
M  V30 7505 H 675.015 -3.2815 5.6317 0
M  V30 7506 N 678.448 -1.51871 0.421078 0
M  V30 7507 C 679.864 -1.59435 0.0725398 0
M  V30 7508 C 680.064 -1.43315 -1.41644 0
M  V30 7509 O 679.12 -1.26614 -2.18461 0
M  V30 7510 C 680.433 -2.9509 0.578132 0
M  V30 7511 C 681.981 -3.08356 0.537149 0
M  V30 7512 C 682.456 -4.4651 1.01945 0
M  V30 7513 N 683.947 -4.52784 0.976758 0
M  V30 7514 C 684.682 -5.57976 1.32099 0
M  V30 7515 N 684.178 -6.70664 1.73727 0
M  V30 7516 N 685.971 -5.48248 1.2402 0
M  V30 7517 H 678.122 -1.60595 1.39007 0
M  V30 7518 H 680.385 -0.756138 0.571803 0
M  V30 7519 H 680.091 -3.12205 1.61929 0
M  V30 7520 H 679.965 -3.772 -0.00578374 0
M  V30 7521 H 682.352 -2.90919 -0.494991 0
M  V30 7522 H 682.433 -2.28125 1.15727 0
M  V30 7523 H 682.077 -4.64692 2.04997 0
M  V30 7524 H 682.007 -5.25256 0.376023 0
M  V30 7525 H 684.498 -3.71898 0.670851 0
M  V30 7526 H 684.811 -7.46932 1.98274 0
M  V30 7527 H 683.156 -6.71914 1.77641 0
M  V30 7528 H 686.347 -4.59095 0.913756 0
M  V30 7529 H 686.52 -6.30119 1.51176 0
M  V30 7530 N 679.926 -0.151884 -1.56866 0
M  V30 7531 C 680.858 0.817008 -2.14144 0
M  V30 7532 C 681.871 1.20735 -1.0921 0
M  V30 7533 O 683.06 1.15058 -1.36469 0
M  V30 7534 C 680.16 2.10844 -2.65326 0
M  V30 7535 C 679.333 1.88471 -3.94712 0
M  V30 7536 C 678.392 3.01649 -4.31155 0
M  V30 7537 O 677.418 2.73127 -4.9939 0
M  V30 7538 N 678.62 4.28947 -3.91132 0
M  V30 7539 H 681.385 0.327448 -2.97906 0
M  V30 7540 H 678.946 0.0315313 -1.61869 0
M  V30 7541 H 680.938 2.85616 -2.86715 0
M  V30 7542 H 679.508 2.51049 -1.86262 0
M  V30 7543 H 678.728 0.977088 -3.81899 0
M  V30 7544 H 680.016 1.70866 -4.79252 0
M  V30 7545 H 679.414 4.54986 -3.36161 0
M  V30 7546 H 677.971 5.00484 -4.17563 0
M  V30 7547 N 681.404 1.57128 0.121893 0
M  V30 7548 C 682.629 1.89254 0.848385 0
M  V30 7549 C 683.054 0.743527 1.72781 0
M  V30 7550 O 682.412 -0.306056 1.78698 0
M  V30 7551 C 682.46 3.20113 1.66012 0
M  V30 7552 O 681.564 3.05815 2.76679 0
M  V30 7553 H 680.905 0.621103 0.234793 0
M  V30 7554 H 683.435 2.0433 0.10516 0
M  V30 7555 H 683.445 3.52761 2.04996 0
M  V30 7556 H 682.12 4.03336 1.01452 0
M  V30 7557 H 680.697 2.84627 2.40918 0
M  V30 7558 N 682.882 -0.391992 1.52647 0
M  V30 7559 C 683.792 -1.503 1.80131 0
M  V30 7560 C 684.808 -1.59825 0.687882 0
M  V30 7561 O 685.984 -1.76218 0.975149 0
M  V30 7562 C 683.049 -2.85863 1.96171 0
M  V30 7563 C 682.11 -2.86084 3.20085 0
M  V30 7564 C 681.343 -4.15181 3.35351 0
M  V30 7565 O 681.566 -5.09981 2.55491 0
M  V30 7566 O 680.5 -4.22603 4.28591 0
M  V30 7567 H 684.326 -1.30007 2.74466 0
M  V30 7568 H 681.911 -0.579539 1.37701 0
M  V30 7569 H 683.793 -3.66236 2.08445 0
M  V30 7570 H 682.468 -3.06189 1.05025 0
M  V30 7571 H 681.375 -2.04504 3.13256 0
M  V30 7572 H 682.708 -2.7071 4.11068 0
M  V30 7573 N 684.36 -1.4356 -0.65026 0
M  V30 7574 C 685.776 -1.27025 -0.966269 0
M  V30 7575 C 685.976 -0.192117 -2.00582 0
M  V30 7576 O 685.032 0.428459 -2.48838 0
M  V30 7577 C 686.345 -2.63556 -1.44772 0
M  V30 7578 C 687.893 -2.71111 -1.56421 0
M  V30 7579 C 688.368 -4.08067 -2.07956 0
M  V30 7580 N 689.859 -4.10146 -2.15254 0
M  V30 7581 C 690.594 -5.12952 -2.56258 0
M  V30 7582 N 690.09 -6.26129 -2.96537 0
M  V30 7583 N 691.883 -5.00306 -2.56224 0
M  V30 7584 H 684.034 -2.12367 0.0375758 0
M  V30 7585 H 686.297 -0.946894 -0.0457782 0
M  V30 7586 H 686.003 -3.43429 -0.758271 0
M  V30 7587 H 685.877 -2.89152 -2.42221 0
M  V30 7588 H 688.264 -1.91569 -2.24467 0
M  V30 7589 H 688.345 -2.49277 -0.573967 0
M  V30 7590 H 687.989 -4.88077 -1.40511 0
M  V30 7591 H 687.919 -4.27266 -3.07817 0
M  V30 7592 H 690.41 -3.28453 -1.86887 0
M  V30 7593 H 690.723 -7.00403 -3.26582 0
M  V30 7594 H 689.068 -6.29597 -2.94334 0
M  V30 7595 H 692.259 -4.10952 -2.24135 0
M  V30 7596 H 692.432 -5.80553 -2.87857 0
M  V30 7597 N 685.838 0.888903 -1.30139 0
M  V30 7598 C 686.768 2.01046 -1.18755 0
M  V30 7599 C 687.749 1.69916 -0.0791438 0
M  V30 7600 O 688.934 1.92445 -0.260498 0
M  V30 7601 C 686.064 3.36109 -0.874518 0
M  V30 7602 C 685.018 3.81486 -1.94043 0
M  V30 7603 C 684.344 5.13796 -1.48047 0
M  V30 7604 C 685.644 4.00637 -3.35093 0
M  V30 7605 H 687.338 2.10828 -2.12584 0
M  V30 7606 H 684.884 1.01298 -1.02346 0
M  V30 7607 H 686.837 4.14089 -0.781548 0
M  V30 7608 H 685.561 3.26449 0.0994519 0
M  V30 7609 H 684.22 3.05731 -2.02297 0
M  V30 7610 H 683.868 5.0056 -0.494878 0
M  V30 7611 H 683.568 5.45127 -2.19341 0
M  V30 7612 H 685.092 5.94305 -1.40121 0
M  V30 7613 H 686.506 4.69067 -3.2962 0
M  V30 7614 H 684.903 4.43339 -4.04438 0
M  V30 7615 H 685.973 3.0462 -3.77273 0
M  V30 7616 N 687.317 1.12792 1.10072 0
M  V30 7617 C 688.249 0.757003 2.16338 0
M  V30 7618 C 689.262 -0.218144 1.61332 0
M  V30 7619 O 690.451 0.0010727 1.785 0
M  V30 7620 C 687.551 0.100303 3.38752 0
M  V30 7621 C 686.724 1.10586 4.2319 0
M  V30 7622 C 685.783 0.47609 5.24042 0
M  V30 7623 O 684.809 1.13418 5.57786 0
M  V30 7624 N 686.011 -0.754823 5.75572 0
M  V30 7625 H 688.776 1.6714 2.48766 0
M  V30 7626 H 686.337 1.02003 1.25726 0
M  V30 7627 H 688.329 -0.333092 4.03327 0
M  V30 7628 H 686.899 -0.716915 3.04268 0
M  V30 7629 H 686.119 1.71677 3.54853 0
M  V30 7630 H 687.407 1.78571 4.76435 0
M  V30 7631 H 686.805 -1.30838 5.50362 0
M  V30 7632 H 685.362 -1.13098 6.41913 0
M  V30 7633 N 688.795 -1.27931 0.920396 0
M  V30 7634 C 690.211 -1.47085 0.619537 0
M  V30 7635 C 690.411 -1.83463 -0.833291 0
M  V30 7636 O 689.467 -1.94363 -1.61181 0
M  V30 7637 C 690.78 -2.56878 1.56314 0
M  V30 7638 C 692.328 -2.70743 1.57058 0
M  V30 7639 C 692.803 -3.83687 2.50097 0
M  V30 7640 N 694.294 -3.9105 2.48262 0
M  V30 7641 C 695.029 -4.77842 3.16945 0
M  V30 7642 N 694.525 -5.69176 3.94982 0
M  V30 7643 N 696.318 -4.71509 3.06 0
M  V30 7644 H 688.469 -1.02601 1.85975 0
M  V30 7645 H 690.732 -0.511682 0.798051 0
M  V30 7646 H 690.438 -2.36923 2.59923 0
M  V30 7647 H 690.312 -3.54117 1.29928 0
M  V30 7648 H 692.699 -2.90083 0.541832 0
M  V30 7649 H 692.78 -1.74015 1.8749 0
M  V30 7650 H 692.424 -3.65101 3.53077 0
M  V30 7651 H 692.354 -4.79827 2.16964 0
M  V30 7652 H 694.845 -3.25738 1.91581 0
M  V30 7653 H 695.158 -6.32245 4.44394 0
M  V30 7654 H 693.503 -5.68995 3.99086 0
M  V30 7655 H 696.694 -3.99151 2.44533 0
M  V30 7656 H 696.867 -5.38933 3.59799 0
M  V30 7657 N 690.273 -0.685099 -1.4193 0
M  V30 7658 C 691.205 0.0258679 -2.29185 0
M  V30 7659 C 692.218 0.755076 -1.44231 0
M  V30 7660 O 693.407 0.60752 -1.67844 0
M  V30 7661 C 690.507 1.06055 -3.21878 0
M  V30 7662 C 689.68 0.403088 -4.35539 0
M  V30 7663 C 688.739 1.33895 -5.0888 0
M  V30 7664 O 687.765 0.835326 -5.63037 0
M  V30 7665 N 688.967 2.6718 -5.15359 0
M  V30 7666 H 691.732 -0.723201 -2.90843 0
M  V30 7667 H 689.293 -0.53031 -1.52968 0
M  V30 7668 H 691.285 1.68813 -3.6781 0
M  V30 7669 H 689.855 1.71126 -2.616 0
M  V30 7670 H 689.075 -0.404185 -3.92122 0
M  V30 7671 H 690.363 -0.0545098 -5.08771 0
M  V30 7672 H 689.761 3.10626 -4.72788 0
M  V30 7673 H 688.318 3.25159 -5.64903 0
M  V30 7674 N 691.751 1.51645 -0.429126 0
M  V30 7675 C 692.681 2.30434 0.377148 0
M  V30 7676 C 693.662 1.35493 1.02838 0
M  V30 7677 O 694.847 1.6441 1.03359 0
M  V30 7678 C 691.977 3.14038 1.48315 0
M  V30 7679 C 690.931 4.1719 0.955855 0
M  V30 7680 C 690.257 4.89263 2.15698 0
M  V30 7681 C 691.557 5.223 -0.00402136 0
M  V30 7682 H 693.251 2.98085 -0.280336 0
M  V30 7683 H 690.797 1.43354 -0.136265 0
M  V30 7684 H 692.75 3.67933 2.05435 0
M  V30 7685 H 691.474 2.44193 2.16881 0
M  V30 7686 H 690.133 3.64335 0.406929 0
M  V30 7687 H 689.781 4.15929 2.82864 0
M  V30 7688 H 689.481 5.59009 1.81059 0
M  V30 7689 H 691.005 5.45978 2.73387 0
M  V30 7690 H 692.419 5.71315 0.476607 0
M  V30 7691 H 690.816 5.99525 -0.26258 0
M  V30 7692 H 691.886 4.75638 -0.943236 0
M  V30 7693 N 693.229 0.160201 1.56784 0
M  V30 7694 C 694.161 -0.80564 2.14574 0
M  V30 7695 C 695.174 -1.20154 1.09849 0
M  V30 7696 O 696.363 -1.14333 1.37078 0
M  V30 7697 C 693.463 -2.09434 2.6644 0
M  V30 7698 C 692.636 -1.86375 3.95706 0
M  V30 7699 C 691.695 -2.99358 4.32749 0
M  V30 7700 O 690.721 -2.70475 5.00831 0
M  V30 7701 N 691.923 -4.26867 3.93402 0
M  V30 7702 H 694.688 -0.311644 2.98075 0
M  V30 7703 H 692.249 -0.0229465 1.61884 0
M  V30 7704 H 694.241 -2.84091 2.88226 0
M  V30 7705 H 692.811 -2.50057 1.8759 0
M  V30 7706 H 692.031 -0.956821 3.82412 0
M  V30 7707 H 693.319 -1.68322 4.80151 0
M  V30 7708 H 692.717 -4.53197 3.38569 0
M  V30 7709 H 691.274 -4.98263 4.20211 0
M  V30 7710 N 694.707 -1.5719 -0.113559 0
M  V30 7711 C 695.639 -1.97393 -1.16484 0
M  V30 7712 C 696.652 -0.873964 -1.37352 0
M  V30 7713 O 697.841 -1.15222 -1.36331 0
M  V30 7714 C 694.941 -2.26174 -2.52386 0
M  V30 7715 C 694.114 -3.57479 -2.52046 0
M  V30 7716 C 693.173 -3.74409 -3.69735 0
M  V30 7717 O 692.199 -4.46463 -3.53071 0
M  V30 7718 N 693.401 -3.13588 -4.88511 0
M  V30 7719 H 696.166 -2.88184 -0.822814 0
M  V30 7720 H 693.727 -1.59044 -0.302769 0
M  V30 7721 H 695.719 -2.3471 -3.29687 0
M  V30 7722 H 694.289 -1.41483 -2.7875 0
M  V30 7723 H 693.509 -3.60081 -1.60421 0
M  V30 7724 H 694.797 -4.43775 -2.48881 0
M  V30 7725 H 694.195 -2.55026 -5.04953 0
M  V30 7726 H 692.752 -3.27637 -5.63469 0
M  V30 7727 N 696.185 0.383891 -1.52853 0
M  V30 7728 C 697.095 1.49343 -1.80925 0
M  V30 7729 C 698.111 1.59458 -0.696348 0
M  V30 7730 O 699.287 1.75698 -0.984481 0
M  V30 7731 C 696.352 2.84819 -1.97684 0
M  V30 7732 C 695.413 2.84382 -3.21598 0
M  V30 7733 C 694.646 4.13397 -3.37548 0
M  V30 7734 O 694.869 5.08619 -2.58192 0
M  V30 7735 O 693.803 4.20325 -4.30826 0
M  V30 7736 H 697.629 1.2855 -2.75152 0
M  V30 7737 H 695.214 0.572229 -1.38007 0
M  V30 7738 H 697.096 3.65125 -2.10385 0
M  V30 7739 H 695.771 3.05627 -1.06647 0
M  V30 7740 H 694.678 2.0284 -3.14336 0
M  V30 7741 H 696.011 2.68526 -4.12498 0
M  V30 7742 N 697.663 1.43903 0.642637 0
M  V30 7743 C 698.613 1.46321 1.74854 0
M  V30 7744 C 699.597 0.330361 1.57472 0
M  V30 7745 O 700.789 0.574881 1.67404 0
M  V30 7746 C 697.918 1.39919 3.13493 0
M  V30 7747 C 697.004 2.58274 3.36385 0
M  V30 7748 N 697.395 3.83578 3.29699 0
M  V30 7749 C 695.693 2.53224 3.67142 0
M  V30 7750 C 696.394 4.62375 3.52965 0
M  V30 7751 N 695.37 3.93269 3.75287 0
M  V30 7752 H 699.172 2.41062 1.68126 0
M  V30 7753 H 696.686 1.38704 0.844693 0
M  V30 7754 H 698.683 1.39735 3.92785 0
M  V30 7755 H 697.343 0.46207 3.21395 0
M  V30 7756 H 698.354 4.15713 3.08874 0
M  V30 7757 H 695.031 1.68252 3.82096 0
M  V30 7758 H 696.421 5.714 3.53485 0
M  V30 7759 N 699.141 -0.881989 1.30609 0
M  V30 7760 C 700.104 -1.96957 1.1722 0
M  V30 7761 C 701.104 -1.60472 0.102598 0
M  V30 7762 O 702.294 -1.70628 0.350943 0
M  V30 7763 C 699.426 -3.31463 0.796572 0
M  V30 7764 H 700.619 -2.10262 2.13846 0
M  V30 7765 H 698.172 -1.06877 1.14048 0
M  V30 7766 H 698.907 -3.23859 -0.169053 0
M  V30 7767 H 698.692 -3.59314 1.56959 0
M  V30 7768 H 700.182 -4.11233 0.72645 0
M  V30 7769 N 700.619 -1.13374 -1.09472 0
M  V30 7770 C 701.849 -0.917019 -1.85133 0
M  V30 7771 C 702.257 0.537568 -1.81402 0
M  V30 7772 O 701.6 1.38385 -1.20811 0
M  V30 7773 C 701.662 -1.32646 -3.34134 0
M  V30 7774 C 701.326 -2.79437 -3.61613 0
M  V30 7775 C 702.323 -3.77596 -3.57375 0
M  V30 7776 C 700.008 -3.16586 -3.89973 0
M  V30 7777 C 702.002 -5.10916 -3.81108 0
M  V30 7778 C 699.689 -4.50085 -4.13361 0
M  V30 7779 C 700.687 -5.47059 -4.0892 0
M  V30 7780 O 700.375 -6.78149 -4.31705 0
M  V30 7781 H 700.107 -0.326997 -0.591649 0
M  V30 7782 H 702.661 -1.51002 -1.39239 0
M  V30 7783 H 700.891 -0.676719 -3.80733 0
M  V30 7784 H 702.58 -1.08229 -3.91205 0
M  V30 7785 H 703.346 -3.50242 -3.35493 0
M  V30 7786 H 699.225 -2.41707 -3.92554 0
M  V30 7787 H 702.769 -5.86597 -3.77558 0
M  V30 7788 H 698.666 -4.77163 -4.34724 0
M  V30 7789 H 699.434 -6.84244 -4.49168 0
M  V30 7790 N 702.098 1.27442 -0.927168 0
M  V30 7791 C 703.028 2.29256 -0.443188 0
M  V30 7792 C 704.009 1.62701 0.49624 0
M  V30 7793 O 705.194 1.90013 0.401105 0
M  V30 7794 C 702.324 3.45955 0.305366 0
M  V30 7795 C 701.278 4.24501 -0.546178 0
M  V30 7796 C 700.604 5.33671 0.331512 0
M  V30 7797 C 701.904 4.89921 -1.81037 0
M  V30 7798 H 703.598 2.69988 -1.29409 0
M  V30 7799 H 701.144 1.29792 -0.623705 0
M  V30 7800 H 703.097 4.1628 0.654885 0
M  V30 7801 H 701.821 3.04138 1.19029 0
M  V30 7802 H 700.48 3.55921 -0.878398 0
M  V30 7803 H 700.128 4.88096 1.21537 0
M  V30 7804 H 699.828 5.87131 -0.234746 0
M  V30 7805 H 701.352 6.0684 0.676614 0
M  V30 7806 H 702.766 5.52536 -1.52895 0
M  V30 7807 H 701.163 5.53436 -2.32009 0
M  V30 7808 H 702.233 4.13652 -2.53021 0
M  V30 7809 N 703.576 0.692616 1.41565 0
M  V30 7810 C 704.523 0.0254264 2.30786 0
M  V30 7811 C 705.493 -0.774347 1.46946 0
M  V30 7812 O 706.678 -0.742981 1.7574 0
M  V30 7813 C 703.818 -0.907123 3.32964 0
M  V30 7814 C 702.931 -0.0992784 4.31886 0
M  V30 7815 C 702.066 -1.0292 5.21134 0
M  V30 7816 C 701.105 -0.214088 6.11725 0
M  V30 7817 N 700.242 -1.09766 6.93467 0
M  V30 7818 H 705.082 0.792036 2.87282 0
M  V30 7819 H 702.619 0.4023 1.41492 0
M  V30 7820 H 704.577 -1.46181 3.90752 0
M  V30 7821 H 703.207 -1.64016 2.78026 0
M  V30 7822 H 702.259 0.572287 3.76071 0
M  V30 7823 H 703.571 0.532782 4.95946 0
M  V30 7824 H 702.725 -1.65321 5.83741 0
M  V30 7825 H 701.464 -1.69512 4.57293 0
M  V30 7826 H 700.469 0.42302 5.4817 0
M  V30 7827 H 701.694 0.447995 6.77621 0
M  V30 7828 H 699.64 -1.74965 6.32237 0
M  V30 7829 H 699.557 -0.521099 7.54202 0
M  V30 7830 H 700.825 -1.70858 7.60544 0
M  V30 7831 N 705.054 -1.51416 0.437162 0
M  V30 7832 C 706.279 -2.0699 -0.130424 0
M  V30 7833 C 706.704 -1.30249 -1.35709 0
M  V30 7834 O 706.062 -0.340388 -1.78076 0
M  V30 7835 C 706.11 -3.5801 -0.43142 0
M  V30 7836 O 705.214 -3.8345 -1.5179 0
M  V30 7837 H 704.555 -0.663997 -0.00194339 0
M  V30 7838 H 707.085 -1.95029 0.618445 0
M  V30 7839 H 707.095 -4.02261 -0.681926 0
M  V30 7840 H 705.77 -4.13291 0.465137 0
M  V30 7841 H 704.347 -3.51062 -1.25737 0
M  V30 7842 N 706.532 -0.168513 -1.56696 0
M  V30 7843 C 707.462 0.758563 -2.20835 0
M  V30 7844 C 708.443 1.24121 -1.1631 0
M  V30 7845 O 709.628 1.29487 -1.4473 0
M  V30 7846 C 706.758 1.9892 -2.8469 0
M  V30 7847 C 705.712 1.64252 -3.95228 0
M  V30 7848 C 705.038 2.94757 -4.46119 0
M  V30 7849 C 706.338 0.872675 -5.14958 0
M  V30 7850 H 708.032 0.223953 -2.98561 0
M  V30 7851 H 705.578 0.106277 -1.43607 0
M  V30 7852 H 707.531 2.64275 -3.28233 0
M  V30 7853 H 706.255 2.5479 -2.04327 0
M  V30 7854 H 704.914 1.01266 -3.52336 0
M  V30 7855 H 704.562 3.48662 -3.62552 0
M  V30 7856 H 704.262 2.72316 -5.2069 0
M  V30 7857 H 705.786 3.61147 -4.92347 0
M  V30 7858 H 707.2 1.42875 -5.55211 0
M  V30 7859 H 705.597 0.747402 -5.95428 0
M  V30 7860 H 706.667 -0.131535 -4.84722 0
M  V30 7861 N 708.01 1.57248 0.105221 0
M  V30 7862 C 708.942 1.98008 1.15436 0
M  V30 7863 C 709.955 0.881236 1.36887 0
M  V30 7864 O 711.144 1.15943 1.35718 0
M  V30 7865 C 708.244 2.27509 2.51183 0
M  V30 7866 C 707.417 3.58811 2.50147 0
M  V30 7867 C 706.476 3.76365 3.67745 0
M  V30 7868 O 705.502 4.48329 3.50699 0
M  V30 7869 N 706.704 3.16174 4.86841 0
M  V30 7870 H 709.469 2.88616 0.807519 0
M  V30 7871 H 707.03 1.59202 0.29433 0
M  V30 7872 H 709.022 2.36455 3.28438 0
M  V30 7873 H 707.592 1.42959 2.77995 0
M  V30 7874 H 706.812 3.60927 1.5851 0
M  V30 7875 H 708.1 4.45088 2.46524 0
M  V30 7876 H 707.498 2.57701 5.03594 0
M  V30 7877 H 706.055 3.30621 5.61723 0
M  V30 7878 N 709.488 -0.375779 1.53054 0
M  V30 7879 C 710.42 -1.47963 1.75042 0
M  V30 7880 C 711.433 -1.50073 0.631031 0
M  V30 7881 O 712.622 -1.53736 0.907052 0
M  V30 7882 C 709.722 -2.86767 1.80604 0
M  V30 7883 C 708.895 -3.08471 3.10104 0
M  V30 7884 C 707.954 -4.27332 3.07041 0
M  V30 7885 O 706.98 -4.22998 3.80869 0
M  V30 7886 N 708.182 -5.34214 2.27147 0
M  V30 7887 H 710.947 -1.29484 2.70285 0
M  V30 7888 H 708.508 -0.565416 1.51706 0
M  V30 7889 H 710.5 -3.64404 1.76045 0
M  V30 7890 H 709.07 -2.98542 0.926897 0
M  V30 7891 H 708.29 -2.18583 3.28048 0
M  V30 7892 H 709.578 -3.19834 3.95706 0
M  V30 7893 H 708.976 -5.40594 1.66656 0
M  V30 7894 H 707.533 -6.10467 2.28415 0
M  V30 7895 N 710.966 -1.44241 -0.634997 0
M  V30 7896 C 711.898 -1.46793 -1.76024 0
M  V30 7897 C 712.911 -0.361781 -1.58729 0
M  V30 7898 O 714.1 -0.627297 -1.67114 0
M  V30 7899 C 711.2 -1.28248 -3.13697 0
M  V30 7900 C 710.373 -2.52038 -3.57485 0
M  V30 7901 C 709.432 -2.2845 -4.74022 0
M  V30 7902 O 708.458 -3.01915 -4.82531 0
M  V30 7903 N 709.66 -1.31264 -5.65464 0
M  V30 7904 H 712.425 -2.43797 -1.74307 0
M  V30 7905 H 709.986 -1.39631 -0.819438 0
M  V30 7906 H 711.978 -1.10321 -3.89373 0
M  V30 7907 H 710.548 -0.39623 -3.10079 0
M  V30 7908 H 709.768 -2.85268 -2.72059 0
M  V30 7909 H 711.056 -3.34382 -3.83492 0
M  V30 7910 H 710.454 -0.705817 -5.6128 0
M  V30 7911 H 709.011 -1.19316 -6.40786 0
M  V30 7912 N 712.444 0.87505 -1.31075 0
M  V30 7913 C 713.376 1.98773 -1.14114 0
M  V30 7914 C 714.389 1.62595 -0.0816119 0
M  V30 7915 O 715.578 1.75449 -0.32861 0
M  V30 7916 C 712.678 3.31159 -0.720224 0
M  V30 7917 C 711.851 3.9571 -1.86366 0
M  V30 7918 C 710.91 5.06407 -1.42965 0
M  V30 7919 O 709.936 5.27501 -2.13848 0
M  V30 7920 N 711.138 5.79649 -0.314194 0
M  V30 7921 H 713.903 2.1387 -2.09951 0
M  V30 7922 H 711.464 1.04873 -1.23342 0
M  V30 7923 H 713.456 4.0259 -0.412687 0
M  V30 7924 H 712.026 3.12257 0.146396 0
M  V30 7925 H 711.246 3.17324 -2.33879 0
M  V30 7926 H 712.534 4.35576 -2.62966 0
M  V30 7927 H 711.932 5.65025 0.276228 0
M  V30 7928 H 710.489 6.51766 -0.0661641 0
M  V30 7929 N 713.922 1.13953 1.08869 0
M  V30 7930 C 714.854 0.779906 2.15523 0
M  V30 7931 C 715.867 -0.20102 1.61554 0
M  V30 7932 O 717.056 0.0200049 1.78489 0
M  V30 7933 C 714.156 0.136226 3.38626 0
M  V30 7934 C 713.329 1.15069 4.21993 0
M  V30 7935 C 712.388 0.531645 5.23507 0
M  V30 7936 O 711.414 1.19327 5.56552 0
M  V30 7937 N 712.616 -0.693734 5.7634 0
M  V30 7938 H 715.381 1.69769 2.46979 0
M  V30 7939 H 712.942 1.03331 1.24637 0
M  V30 7940 H 714.934 -0.290295 4.03658 0
M  V30 7941 H 713.504 -0.684603 3.05011 0
M  V30 7942 H 712.724 1.75431 3.53012 0
M  V30 7943 H 714.012 1.83614 4.74514 0
M  V30 7944 H 713.41 -1.24994 5.51718 0
M  V30 7945 H 711.967 -1.06283 6.43076 0
M  V30 7946 N 715.4 -1.26948 0.933913 0
M  V30 7947 C 716.332 -2.25768 0.395137 0
M  V30 7948 C 717.345 -1.55637 -0.477585 0
M  V30 7949 O 718.534 -1.76142 -0.289204 0
M  V30 7950 C 715.634 -3.35874 -0.451882 0
M  V30 7951 C 714.807 -4.3554 0.40299 0
M  V30 7952 C 713.866 -5.24809 -0.3824 0
M  V30 7953 O 712.892 -5.68805 0.212057 0
M  V30 7954 N 714.094 -5.55636 -1.68072 0
M  V30 7955 H 716.859 -2.72634 1.24463 0
M  V30 7956 H 714.42 -1.40639 0.802008 0
M  V30 7957 H 716.412 -3.92542 -0.984516 0
M  V30 7958 H 714.982 -2.8856 -1.20215 0
M  V30 7959 H 714.202 -3.78047 1.11688 0
M  V30 7960 H 715.49 -4.99131 0.987201 0
M  V30 7961 H 714.888 -5.2176 -2.18592 0
M  V30 7962 H 713.445 -6.14978 -2.15975 0
M  V30 7963 N 716.879 -0.700114 -1.41195 0
M  V30 7964 C 717.811 0.00155823 -2.292 0
M  V30 7965 C 718.824 0.739736 -1.45023 0
M  V30 7966 O 720.013 0.589684 -1.68478 0
M  V30 7967 C 717.113 1.02635 -3.22985 0
M  V30 7968 C 716.286 0.356871 -4.35942 0
M  V30 7969 C 715.345 1.28491 -5.10271 0
M  V30 7970 O 714.371 0.775562 -5.63892 0
M  V30 7971 N 715.573 2.61699 -5.18164 0
M  V30 7972 H 718.338 -0.754008 -2.9006 0
M  V30 7973 H 715.899 -0.546504 -1.52397 0
M  V30 7974 H 717.891 1.64902 -3.6958 0
M  V30 7975 H 716.461 1.68341 -2.63401 0
M  V30 7976 H 715.681 -0.445753 -3.91672 0
M  V30 7977 H 716.969 -0.108469 -5.08684 0
M  V30 7978 H 716.367 3.05594 -4.76056 0
M  V30 7979 H 714.924 3.19149 -5.6832 0
M  V30 7980 N 718.357 1.51182 -0.445186 0
M  V30 7981 C 719.289 2.25714 0.398206 0
M  V30 7982 C 720.302 1.30032 0.979562 0
M  V30 7983 O 721.491 1.55731 0.872368 0
M  V30 7984 C 718.591 3.00348 1.56985 0
M  V30 7985 C 717.764 4.23187 1.10596 0
M  V30 7986 C 716.823 4.80334 2.14863 0
M  V30 7987 O 715.849 5.4196 1.73977 0
M  V30 7988 N 717.051 4.65053 3.47427 0
M  V30 7989 H 719.816 2.98732 -0.240629 0
M  V30 7990 H 717.377 1.59556 -0.274507 0
M  V30 7991 H 719.369 3.35464 2.26376 0
M  V30 7992 H 717.939 2.30291 2.11387 0
M  V30 7993 H 717.159 3.93476 0.238832 0
M  V30 7994 H 718.447 5.02886 0.773537 0
M  V30 7995 H 717.845 4.15984 3.83372 0
M  V30 7996 H 716.402 5.04509 4.12691 0
M  V30 7997 N 719.835 0.176821 1.56605 0
M  V30 7998 C 720.765 -0.746841 2.21234 0
M  V30 7999 C 721.746 -1.23502 1.16967 0
M  V30 8000 O 722.931 -1.28718 1.45414 0
M  V30 8001 C 720.061 -1.97407 2.8574 0
M  V30 8002 C 719.015 -1.62153 3.96094 0
M  V30 8003 C 718.341 -2.92387 4.47676 0
M  V30 8004 C 719.641 -0.845353 5.15413 0
M  V30 8005 H 721.335 -0.208116 2.98676 0
M  V30 8006 H 718.881 -0.0986594 1.43662 0
M  V30 8007 H 720.834 -2.62531 3.2963 0
M  V30 8008 H 719.558 -2.53703 2.05676 0
M  V30 8009 H 718.217 -0.993964 3.52868 0
M  V30 8010 H 717.865 -3.46734 3.64396 0
M  V30 8011 H 717.565 -2.69551 5.22127 0
M  V30 8012 H 719.089 -3.5853 4.94255 0
M  V30 8013 H 720.503 -1.39929 5.55961 0
M  V30 8014 H 718.9 -0.715814 5.95815 0
M  V30 8015 H 719.97 0.157239 4.84645 0
M  V30 8016 N 721.313 -1.57302 -0.09688 0
M  V30 8017 C 722.245 -1.98618 -1.14384 0
M  V30 8018 C 723.258 -0.888483 -1.36418 0
M  V30 8019 O 724.447 -1.16661 -1.35101 0
M  V30 8020 C 721.547 -2.28838 -2.49973 0
M  V30 8021 C 720.72 -3.60132 -2.48241 0
M  V30 8022 C 719.779 -3.7831 -3.65743 0
M  V30 8023 O 718.805 -4.50183 -3.48316 0
M  V30 8024 N 720.007 -3.18752 -4.85157 0
M  V30 8025 H 722.772 -2.8904 -0.792202 0
M  V30 8026 H 720.333 -1.59356 -0.285883 0
M  V30 8027 H 722.325 -2.38193 -3.27179 0
M  V30 8028 H 720.895 -1.44431 -2.77233 0
M  V30 8029 H 720.115 -3.61763 -1.56593 0
M  V30 8030 H 721.403 -4.46389 -2.4416 0
M  V30 8031 H 720.801 -2.60368 -5.0222 0
M  V30 8032 H 719.358 -3.33595 -5.59962 0
M  V30 8033 N 722.791 0.367657 -1.53252 0
M  V30 8034 C 723.738 1.45028 -1.79543 0
M  V30 8035 C 724.708 1.53288 -0.63969 0
M  V30 8036 O 725.893 1.69209 -0.881653 0
M  V30 8037 C 723.033 2.82 -1.98923 0
M  V30 8038 C 722.146 2.82722 -3.26638 0
M  V30 8039 C 721.281 4.11257 -3.36216 0
M  V30 8040 C 720.32 4.06113 -4.57972 0
M  V30 8041 N 719.457 5.26293 -4.64715 0
M  V30 8042 H 724.297 1.21908 -2.71923 0
M  V30 8043 H 721.834 0.591011 -1.34705 0
M  V30 8044 H 723.792 3.61568 -2.08146 0
M  V30 8045 H 722.422 3.03523 -1.09881 0
M  V30 8046 H 721.474 1.95399 -3.26379 0
M  V30 8047 H 722.786 2.74794 -4.16281 0
M  V30 8048 H 721.94 4.99239 -3.44739 0
M  V30 8049 H 720.679 4.21935 -2.44586 0
M  V30 8050 H 719.684 3.16517 -4.49552 0
M  V30 8051 H 720.909 3.97039 -5.50942 0
M  V30 8052 H 718.855 5.37561 -3.75985 0
M  V30 8053 H 718.772 5.20526 -5.4826 0
M  V30 8054 H 720.04 6.16113 -4.77519 0
M  V30 8055 N 724.269 1.44576 0.627338 0
M  V30 8056 C 725.201 1.47724 1.75243 0
M  V30 8057 C 726.214 0.370193 1.58535 0
M  V30 8058 O 727.403 0.636151 1.66779 0
M  V30 8059 C 724.503 1.2991 3.13012 0
M  V30 8060 C 723.676 2.5393 3.56143 0
M  V30 8061 C 722.735 2.30961 4.72804 0
M  V30 8062 O 721.761 3.04469 4.80923 0
M  V30 8063 N 722.963 1.34261 5.6476 0
M  V30 8064 H 725.728 2.44718 1.73012 0
M  V30 8065 H 723.289 1.40064 0.812022 0
M  V30 8066 H 725.281 1.12385 3.88782 0
M  V30 8067 H 723.851 0.412668 3.09864 0
M  V30 8068 H 723.071 2.86707 2.70542 0
M  V30 8069 H 724.359 3.36411 3.81713 0
M  V30 8070 H 723.757 0.735573 5.60897 0
M  V30 8071 H 722.314 1.22713 6.40144 0
M  V30 8072 N 725.747 -0.868086 1.31537 0
M  V30 8073 C 726.679 -1.98165 1.15166 0
M  V30 8074 C 727.692 -1.6255 0.0902335 0
M  V30 8075 O 728.881 -1.75272 0.33791 0
M  V30 8076 C 725.981 -3.30772 0.737776 0
M  V30 8077 C 725.154 -3.94716 1.88462 0
M  V30 8078 C 724.213 -5.05641 1.45648 0
M  V30 8079 O 723.239 -5.2636 2.16642 0
M  V30 8080 N 724.441 -5.79474 0.34493 0
M  V30 8081 H 727.206 -2.12754 2.11083 0
M  V30 8082 H 724.767 -1.04217 1.23897 0
M  V30 8083 H 726.759 -4.02366 0.434032 0
M  V30 8084 H 725.329 -3.1233 -0.129834 0
M  V30 8085 H 724.549 -3.16079 2.35558 0
M  V30 8086 H 725.837 -4.34175 2.65273 0
M  V30 8087 H 725.235 -5.65164 -0.246259 0
M  V30 8088 H 723.792 -6.51722 0.100728 0
M  V30 8089 N 727.225 -1.14528 -1.08264 0
M  V30 8090 C 728.157 -0.791325 -2.15106 0
M  V30 8091 C 729.17 0.192449 -1.61659 0
M  V30 8092 O 730.359 -0.0294704 -1.78476 0
M  V30 8093 C 727.459 -0.154183 -3.38549 0
M  V30 8094 C 726.632 -1.17305 -4.21377 0
M  V30 8095 C 725.691 -0.559401 -5.23218 0
M  V30 8096 O 724.717 -1.22277 -5.55911 0
M  V30 8097 N 725.919 0.663159 -5.767 0
M  V30 8098 H 728.684 -1.71076 -2.46075 0
M  V30 8099 H 726.245 -1.0399 -1.24087 0
M  V30 8100 H 728.237 0.268884 -4.03806 0
M  V30 8101 H 726.807 0.668418 -3.0537 0
M  V30 8102 H 726.027 -1.773 -3.52077 0
M  V30 8103 H 727.315 -1.86128 -4.73533 0
M  V30 8104 H 726.713 1.22066 -5.52373 0
M  V30 8105 H 725.27 1.02871 -6.43631 0
M  V30 8106 N 728.703 1.26451 -0.940633 0
M  V30 8107 C 729.635 2.25556 -0.407104 0
M  V30 8108 C 730.648 1.55888 0.469324 0
M  V30 8109 O 731.837 1.76292 0.279858 0
M  V30 8110 C 728.937 3.36109 0.434064 0
M  V30 8111 C 728.11 4.3532 -0.426082 0
M  V30 8112 C 727.169 5.25004 0.354563 0
M  V30 8113 O 726.195 5.68684 -0.242219 0
M  V30 8114 N 727.397 5.5652 1.65123 0
M  V30 8115 H 730.162 2.7197 -1.25907 0
M  V30 8116 H 727.723 1.40212 -0.809456 0
M  V30 8117 H 729.715 3.93059 0.963684 0
M  V30 8118 H 728.285 2.89194 1.18683 0
M  V30 8119 H 727.505 3.77449 -1.13692 0
M  V30 8120 H 728.793 4.986 -1.01366 0
M  V30 8121 H 728.191 5.22912 2.15822 0
M  V30 8122 H 726.748 6.16115 2.12711 0
M  V30 8123 N 730.181 0.707592 1.40822 0
M  V30 8124 C 731.113 0.0105968 2.29198 0
M  V30 8125 C 732.126 -0.732035 1.45414 0
M  V30 8126 O 733.315 -0.580741 1.68789 0
M  V30 8127 C 730.415 -1.00921 3.23525 0
M  V30 8128 C 729.588 -0.333747 4.36125 0
M  V30 8129 C 728.647 -1.25783 5.10945 0
M  V30 8130 O 727.673 -0.745646 5.64295 0
M  V30 8131 N 728.875 -2.58947 5.19545 0
M  V30 8132 H 731.64 0.76938 2.89656 0
M  V30 8133 H 729.201 0.554579 1.52105 0
M  V30 8134 H 731.193 -1.6294 3.70449 0
M  V30 8135 H 729.763 -1.66942 2.6429 0
M  V30 8136 H 728.983 0.466518 3.9143 0
M  V30 8137 H 730.271 0.135444 5.0862 0
M  V30 8138 H 729.669 -3.03065 4.7767 0
M  V30 8139 H 728.226 -3.16131 5.70004 0
M  V30 8140 N 731.66 -1.50943 0.453197 0
M  V30 8141 C 732.59 -2.31005 -0.34044 0
M  V30 8142 C 733.571 -1.37112 -1.00669 0
M  V30 8143 O 734.756 -1.66033 -1.0073 0
M  V30 8144 C 731.886 -3.16358 -1.433 0
M  V30 8145 C 730.84 -4.18658 -0.889363 0
M  V30 8146 C 730.166 -4.92633 -2.07887 0
M  V30 8147 C 731.466 -5.22227 0.0871142 0
M  V30 8148 H 733.16 -2.97601 0.327723 0
M  V30 8149 H 730.706 -1.43119 0.159054 0
M  V30 8150 H 732.659 -3.71155 -1.99555 0
M  V30 8151 H 731.383 -2.47613 -2.12968 0
M  V30 8152 H 730.042 -3.64936 -0.348915 0
M  V30 8153 H 729.69 -4.20376 -2.76211 0
M  V30 8154 H 729.39 -5.61819 -1.72143 0
M  V30 8155 H 730.914 -5.50258 -2.64666 0
M  V30 8156 H 732.328 -5.72001 -0.385656 0
M  V30 8157 H 730.725 -5.99032 0.357926 0
M  V30 8158 H 731.795 -4.74077 1.01879 0
M  V30 8159 N 733.138 -0.185124 -1.56509 0
M  V30 8160 C 734.068 0.735098 -2.21627 0
M  V30 8161 C 735.049 1.2288 -1.1762 0
M  V30 8162 O 736.234 1.27945 -1.46095 0
M  V30 8163 C 733.364 1.95889 -2.86783 0
M  V30 8164 C 732.318 1.6005 -3.96948 0
M  V30 8165 C 731.644 2.90009 -4.4922 0
M  V30 8166 C 732.944 0.818008 -5.15855 0
M  V30 8167 H 734.638 0.192274 -2.98782 0
M  V30 8168 H 732.184 0.0910393 -1.43712 0
M  V30 8169 H 734.137 2.60779 -3.31017 0
M  V30 8170 H 732.861 2.52608 -2.07018 0
M  V30 8171 H 731.52 0.975237 -3.5339 0
M  V30 8172 H 731.168 3.44797 -3.6623 0
M  V30 8173 H 730.868 2.66778 -5.23549 0
M  V30 8174 H 732.392 3.55904 -4.9615 0
M  V30 8175 H 733.806 1.36979 -5.56695 0
M  V30 8176 H 732.203 0.684207 -5.96187 0
M  V30 8177 H 733.273 -0.182939 -4.84555 0
M  V30 8178 N 734.616 1.57351 0.0885366 0
M  V30 8179 C 736.027 1.75303 0.642308 0
M  V30 8180 C 736.378 0.808238 1.78779 0
M  V30 8181 O 735.503 -0.01171 2.16397 0
M  V30 8182 C 736.098 3.17885 1.17194 0
M  V30 8183 C 734.657 3.37239 1.67172 0
M  V30 8184 C 733.804 2.7108 0.584045 0
M  V30 8185 H 736.755 1.58103 -0.137567 0
M  V30 8186 H 736.776 3.2112 2.04114 0
M  V30 8187 H 736.288 3.86625 0.338024 0
M  V30 8188 H 734.389 2.73588 2.52943 0
M  V30 8189 H 734.502 4.45594 1.76019 0
M  V30 8190 H 732.866 2.33161 1.02508 0
M  V30 8191 H 733.649 3.42464 -0.239403 0
M  V30 8192 N 736.094 -0.359525 1.53444 0
M  V30 8193 C 737.342 -1.09935 1.69584 0
M  V30 8194 C 737.663 -1.89656 0.453371 0
M  V30 8195 O 736.933 -1.8852 -0.53263 0
M  V30 8196 H 735.513 -0.408843 0.625185 0
M  V30 8197 H 738.175 -0.40467 1.90653 0
M  V30 8198 H 737.271 -1.78575 2.55964 0
M  V30 8199 N 737.572 -1.44907 -0.619662 0
M  V30 8200 C 738.849 -1.38766 -1.37852 0
M  V30 8201 C 739.229 -0.0521393 -2.11036 0
M  V30 8202 O 738.577 0.965613 -2.07095 0
M  V30 8203 C 738.787 -2.59344 -2.33541 0
M  V30 8204 C 740.135 -3.03909 -2.96521 0
M  V30 8205 O 741.159 -2.59631 -2.43865 0
M  V30 8206 O 740.018 -3.80713 -3.92071 0
M  V30 8207 H 737.112 -0.550083 -0.617525 0
M  V30 8208 H 739.658 -1.57015 -0.643759 0
M  V30 8209 H 738.43 -3.48142 -1.78642 0
M  V30 8210 H 738.053 -2.43367 -3.14417 0
M  V30 8211 N 739.05 0.861098 -1.31996 0
M  V30 8212 C 740.466 1.14827 -1.10846 0
M  V30 8213 C 740.666 2.0117 0.11528 0
M  V30 8214 O 739.722 2.39423 0.802048 0
M  V30 8215 C 741.035 1.83183 -2.38462 0
M  V30 8216 C 742.583 1.95847 -2.44158 0
M  V30 8217 C 743.058 2.67617 -3.71679 0
M  V30 8218 N 744.549 2.75147 -3.72624 0
M  V30 8219 C 745.284 3.31314 -4.67994 0
M  V30 8220 N 744.78 3.88343 -5.73726 0
M  V30 8221 N 746.573 3.29356 -4.55501 0
M  V30 8222 H 738.724 0.285951 -2.10466 0
M  V30 8223 H 740.987 0.189303 -0.928907 0
M  V30 8224 H 740.693 1.27193 -3.27895 0
M  V30 8225 H 740.567 2.83393 -2.48935 0
M  V30 8226 H 742.954 2.50999 -1.55189 0
M  V30 8227 H 743.035 0.94653 -2.37644 0
M  V30 8228 H 742.679 2.13131 -4.61018 0
M  V30 8229 H 742.609 3.69237 -3.75462 0
M  V30 8230 H 745.1 2.34682 -2.96197 0
M  V30 8231 H 745.413 4.29338 -6.42564 0
M  V30 8232 H 743.758 3.86693 -5.77489 0
M  V30 8233 H 746.949 2.84047 -3.72069 0
M  V30 8234 H 747.122 3.7283 -5.30001 0
M  V30 8235 N 740.528 1.15101 1.07655 0
M  V30 8236 C 741.475 0.844958 2.14777 0
M  V30 8237 C 742.445 -0.200798 1.64882 0
M  V30 8238 O 743.63 -0.0690278 1.90675 0
M  V30 8239 C 740.77 0.337018 3.4345 0
M  V30 8240 C 739.883 1.44398 4.07153 0
M  V30 8241 C 739.018 0.892487 5.23649 0
M  V30 8242 C 738.057 1.9766 5.79307 0
M  V30 8243 N 737.194 1.44171 6.87138 0
M  V30 8244 H 742.034 1.76242 2.40297 0
M  V30 8245 H 739.571 0.879435 1.17917 0
M  V30 8246 H 741.529 0.024256 4.17193 0
M  V30 8247 H 740.159 -0.543531 3.18191 0
M  V30 8248 H 739.211 1.87299 3.31094 0
M  V30 8249 H 740.523 2.26262 4.4453 0
M  V30 8250 H 739.677 0.532083 6.04362 0
M  V30 8251 H 738.416 0.0429854 4.87681 0
M  V30 8252 H 737.421 2.34586 4.97242 0
M  V30 8253 H 738.646 2.82982 6.17331 0
M  V30 8254 H 736.592 0.614518 6.53115 0
M  V30 8255 H 736.509 2.19665 7.23383 0
M  V30 8256 H 737.777 1.10945 7.71564 0
M  V30 8257 N 742.006 -1.2595 0.947325 0
M  V30 8258 C 743.417 -1.75389 0.639963 0
M  V30 8259 C 743.768 -1.77081 -0.844788 0
M  V30 8260 O 742.893 -1.3869 -1.66114 0
M  V30 8261 C 743.488 -3.18506 1.15496 0
M  V30 8262 C 742.047 -3.65534 0.897894 0
M  V30 8263 C 741.194 -2.44818 1.30228 0
M  V30 8264 H 744.145 -1.1194 1.12495 0
M  V30 8265 H 744.166 -3.77045 0.511627 0
M  V30 8266 H 743.678 -3.17243 2.23559 0
M  V30 8267 H 741.779 -3.72221 -0.168096 0
M  V30 8268 H 741.892 -4.54039 1.52922 0
M  V30 8269 H 740.256 -2.44291 0.720678 0
M  V30 8270 H 741.039 -2.46251 2.39198 0
M  V30 8271 N 743.484 -0.715051 -1.40445 0
M  V30 8272 C 744.414 -0.0768699 -2.33373 0
M  V30 8273 C 745.395 0.746109 -1.52863 0
M  V30 8274 O 746.58 0.695142 -1.81332 0
M  V30 8275 C 743.71 0.846014 -3.36838 0
M  V30 8276 C 742.664 0.128694 -4.27806 0
M  V30 8277 C 741.99 1.16726 -5.21804 0
M  V30 8278 C 743.29 -1.01679 -5.12307 0
M  V30 8279 H 744.984 -0.853061 -2.8699 0
M  V30 8280 H 742.53 -0.41167 -1.3799 0
M  V30 8281 H 744.483 1.30185 -4.00786 0
M  V30 8282 H 743.207 1.6541 -2.81615 0
M  V30 8283 H 741.866 -0.307314 -3.6531 0
M  V30 8284 H 741.514 1.96838 -4.62887 0
M  V30 8285 H 741.214 0.692188 -5.83509 0
M  V30 8286 H 742.738 1.62321 -5.88629 0
M  V30 8287 H 744.152 -0.640337 -5.69713 0
M  V30 8288 H 742.549 -1.4202 -5.83053 0
M  V30 8289 H 743.619 -1.84769 -4.48317 0
M  V30 8290 N 744.962 1.50701 -0.461195 0
M  V30 8291 C 746.192 2.06381 0.0950376 0
M  V30 8292 C 746.6 1.32627 1.34933 0
M  V30 8293 O 745.943 0.386137 1.79596 0
M  V30 8294 C 746.005 3.56558 0.458965 0
M  V30 8295 C 745.669 4.51732 -0.691891 0
M  V30 8296 C 746.666 4.95594 -1.57105 0
M  V30 8297 C 744.351 4.94542 -0.879407 0
M  V30 8298 C 746.345 5.80963 -2.62223 0
M  V30 8299 C 744.032 5.79695 -1.93382 0
M  V30 8300 C 745.03 6.22806 -2.80359 0
M  V30 8301 O 744.718 7.06265 -3.83986 0
M  V30 8302 H 744.45 0.676 0.000687488 0
M  V30 8303 H 747.004 1.94974 -0.646087 0
M  V30 8304 H 745.234 3.65832 1.25314 0
M  V30 8305 H 746.923 3.94647 0.949124 0
M  V30 8306 H 747.689 4.63197 -1.43783 0
M  V30 8307 H 743.568 4.60513 -0.211907 0
M  V30 8308 H 747.112 6.14533 -3.30143 0
M  V30 8309 H 743.009 6.11506 -2.06715 0
M  V30 8310 H 743.777 7.24494 -3.80855 0
M  V30 8311 N 746.441 0.193421 1.56409 0
M  V30 8312 C 747.391 -0.74089 2.15627 0
M  V30 8313 C 748.375 -1.17747 1.09656 0
M  V30 8314 O 749.567 -1.13615 1.35723 0
M  V30 8315 C 746.696 -1.96091 2.81786 0
M  V30 8316 C 745.782 -1.54531 3.94944 0
M  V30 8317 N 746.173 -0.840569 4.98767 0
M  V30 8318 C 744.471 -1.83473 4.06514 0
M  V30 8319 C 745.172 -0.632571 5.7825 0
M  V30 8320 N 744.148 -1.18078 5.30621 0
M  V30 8321 H 747.95 -0.193718 2.93261 0
M  V30 8322 H 745.464 -0.00643211 1.62399 0
M  V30 8323 H 747.461 -2.64071 3.22602 0
M  V30 8324 H 746.121 -2.51282 2.05639 0
M  V30 8325 H 747.132 -0.496218 5.15517 0
M  V30 8326 H 743.809 -2.40184 3.41493 0
M  V30 8327 H 745.199 -0.0736433 6.7186 0
M  V30 8328 N 747.919 -1.57396 -0.0801906 0
M  V30 8329 C 749.149 -1.90778 -0.792924 0
M  V30 8330 C 749.557 -0.786814 -1.72064 0
M  V30 8331 O 748.9 0.249259 -1.82001 0
M  V30 8332 C 748.962 -3.19552 -1.64702 0
M  V30 8333 C 748.626 -4.48259 -0.889567 0
M  V30 8334 C 749.623 -5.19465 -0.212602 0
M  V30 8335 C 747.308 -4.94896 -0.859229 0
M  V30 8336 C 749.302 -6.35555 0.484566 0
M  V30 8337 C 746.989 -6.10895 -0.158284 0
M  V30 8338 C 747.987 -6.81075 0.512421 0
M  V30 8339 O 747.675 -7.94862 1.20209 0
M  V30 8340 H 747.407 -0.63527 -0.231103 0
M  V30 8341 H 749.961 -2.0532 -0.0573081 0
M  V30 8342 H 748.191 -3.01196 -2.42524 0
M  V30 8343 H 749.88 -3.38649 -2.23767 0
M  V30 8344 H 750.646 -4.84467 -0.227403 0
M  V30 8345 H 746.525 -4.4015 -1.37073 0
M  V30 8346 H 750.069 -6.9027 1.00864 0
M  V30 8347 H 745.966 -6.45345 -0.141381 0
M  V30 8348 H 746.734 -8.10932 1.11051 0
M  V30 8349 N 749.397 0.351382 -1.53633 0
M  V30 8350 C 750.645 1.09034 -1.70165 0
M  V30 8351 C 750.966 1.89413 -0.463422 0
M  V30 8352 O 750.236 1.888 0.522624 0
M  V30 8353 H 748.816 0.405522 -0.627344 0
M  V30 8354 H 751.478 0.394554 -1.90865 0
M  V30 8355 H 750.574 1.77215 -2.56907 0
M  V30 8356 N 750.875 1.45233 0.611969 0
M  V30 8357 C 752.291 1.29542 0.932251 0
M  V30 8358 C 752.491 0.24523 2.00002 0
M  V30 8359 O 751.547 -0.362333 2.49887 0
M  V30 8360 C 752.86 2.67301 1.37733 0
M  V30 8361 C 754.408 2.75163 1.49178 0
M  V30 8362 C 754.883 4.13437 1.97064 0
M  V30 8363 N 756.374 4.15709 2.04304 0
M  V30 8364 C 757.109 5.19566 2.42568 0
M  V30 8365 N 756.605 6.33771 2.79832 0
M  V30 8366 N 758.398 5.06923 2.42869 0
M  V30 8367 H 750.549 2.12192 -0.0938679 0
M  V30 8368 H 752.812 0.947775 0.0206569 0
M  V30 8369 H 752.518 3.45318 0.666951 0
M  V30 8370 H 752.392 2.95472 2.3447 0
M  V30 8371 H 754.779 1.97453 2.19309 0
M  V30 8372 H 754.86 2.50712 0.507674 0
M  V30 8373 H 754.504 4.91631 1.27521 0
M  V30 8374 H 754.434 4.35277 2.9638 0
M  V30 8375 H 756.925 3.33293 1.78113 0
M  V30 8376 H 757.238 7.08815 3.07898 0
M  V30 8377 H 755.583 6.37179 2.77538 0
M  V30 8378 H 758.774 4.1675 2.1316 0
M  V30 8379 H 758.947 5.87981 2.72364 0
M  V30 8380 N 752.353 -0.854086 1.3245 0
M  V30 8381 C 753.601 -1.60513 1.228 0
M  V30 8382 C 753.922 -1.93865 -0.210073 0
M  V30 8383 O 753.192 -1.59673 -1.13496 0
M  V30 8384 H 751.772 -0.595099 0.451516 0
M  V30 8385 H 754.434 -1.0216 1.6598 0
M  V30 8386 H 753.53 -2.54182 1.81102 0
M  V30 8387 N 753.831 -1.1567 -1.07043 0
M  V30 8388 C 754.764 -0.799867 -2.13723 0
M  V30 8389 C 755.742 0.225098 -1.61034 0
M  V30 8390 O 756.926 0.11093 -1.88173 0
M  V30 8391 C 754.053 -0.18997 -3.38167 0
M  V30 8392 C 753.099 -1.18733 -4.0964 0
M  V30 8393 S 753.932 -2.73074 -4.60642 0
M  V30 8394 C 755.088 -2.13512 -5.88356 0
M  V30 8395 H 755.321 -1.70342 -2.43661 0
M  V30 8396 H 752.854 -0.979377 -1.19363 0
M  V30 8397 H 754.812 0.155471 -4.10205 0
M  V30 8398 H 753.473 0.691229 -3.064 0
M  V30 8399 H 752.666 -0.708873 -4.9899 0
M  V30 8400 H 752.268 -1.47747 -3.43579 0
M  V30 8401 H 754.56 -1.49911 -6.60706 0
M  V30 8402 H 755.503 -3.01042 -6.40921 0
M  V30 8403 H 755.911 -1.57693 -5.42027 0
M  V30 8404 N 755.309 1.25446 -0.953992 0
M  V30 8405 C 756.257 2.27909 -0.46478 0
M  V30 8406 C 757.251 1.62904 0.464607 0
M  V30 8407 O 758.457 1.76733 0.341407 0
M  V30 8408 H 754.832 0.74036 -0.131798 0
M  V30 8409 H 756.803 2.66559 -1.34122 0
M  V30 8410 C 755.552 3.46853 0.242589 0
M  V30 8411 H 754.875 3.97105 -0.463418 0
M  V30 8412 H 756.315 4.20432 0.548919 0
M  V30 8413 C 754.774 3.03386 1.46487 0
M  V30 8414 O 755.304 3.09342 2.56262 0
M  V30 8415 N 753.51 2.58584 1.32599 0
M  V30 8416 H 753.057 2.53938 0.432834 0
M  V30 8417 H 753.015 2.29866 2.14497 0
M  V30 8418 N 756.787 0.722489 1.40064 0
M  V30 8419 C 758.198 0.336507 1.83642 0
M  V30 8420 C 758.549 -1.13002 1.6039 0
M  V30 8421 O 757.674 -1.87036 1.08842 0
M  V30 8422 C 758.269 0.603985 3.33373 0
M  V30 8423 C 756.828 0.271637 3.75419 0
M  V30 8424 C 755.975 0.872898 2.63203 0
M  V30 8425 H 758.926 0.921108 1.29233 0
M  V30 8426 H 758.947 -0.128471 3.80283 0
M  V30 8427 H 758.459 1.67141 3.50265 0
M  V30 8428 H 756.56 -0.790455 3.64119 0
M  V30 8429 H 756.673 0.745457 4.73265 0
M  V30 8430 H 755.037 0.300431 2.52922 0
M  V30 8431 H 755.82 1.94473 2.82905 0
M  V30 8432 N 758.265 -1.50454 0.469181 0
M  V30 8433 C 759.228 -2.2703 -0.314643 0
M  V30 8434 C 760.228 -1.31734 -0.922111 0
M  V30 8435 O 761.418 -1.55176 -0.791588 0
M  V30 8436 C 758.55 -3.08616 -1.44806 0
M  V30 8437 H 759.743 -2.97769 0.356892 0
M  V30 8438 H 757.296 -1.54698 0.223191 0
M  V30 8439 H 758.031 -2.42369 -2.1547 0
M  V30 8440 H 757.816 -3.78647 -1.01829 0
M  V30 8441 H 759.306 -3.66536 -2.00103 0
M  V30 8442 N 759.743 -0.201713 -1.56304 0
M  V30 8443 C 761.02 0.483273 -1.89536 0
M  V30 8444 C 761.4 1.79176 -1.11621 0
M  V30 8445 O 760.748 2.27445 -0.219339 0
M  V30 8446 C 760.958 0.695604 -3.41998 0
M  V30 8447 C 762.306 1.012 -4.12364 0
M  V30 8448 O 763.33 0.783094 -3.47485 0
M  V30 8449 O 762.189 1.44534 -5.27041 0
M  V30 8450 H 759.283 0.252801 -0.787414 0
M  V30 8451 H 761.829 -0.24242 -1.6796 0
M  V30 8452 H 760.601 -0.228165 -3.90634 0
M  V30 8453 H 760.224 1.47351 -3.69288 0
M  V30 8454 N 761.222 1.57436 0.0718424 0
M  V30 8455 C 762.169 2.03686 1.08539 0
M  V30 8456 C 763.139 0.917474 1.38462 0
M  V30 8457 O 764.324 1.18513 1.4953 0
M  V30 8458 C 761.464 2.48566 2.39393 0
M  V30 8459 C 760.577 3.74122 2.16001 0
M  V30 8460 C 759.712 4.07786 3.40418 0
M  V30 8461 C 758.751 5.26383 3.1239 0
M  V30 8462 N 757.888 5.55685 4.29138 0
M  V30 8463 H 762.728 2.90043 0.684018 0
M  V30 8464 H 760.265 1.43438 0.326183 0
M  V30 8465 H 762.223 2.72639 3.15791 0
M  V30 8466 H 760.853 1.65186 2.77333 0
M  V30 8467 H 759.905 3.57389 1.30296 0
M  V30 8468 H 761.217 4.60659 1.91298 0
M  V30 8469 H 760.371 4.32759 4.25211 0
M  V30 8470 H 759.11 3.19817 3.68197 0
M  V30 8471 H 758.115 5.01206 2.25993 0
M  V30 8472 H 759.34 6.1597 2.85934 0
M  V30 8473 H 757.286 4.70675 4.56948 0
M  V30 8474 H 757.203 6.3664 4.07708 0
M  V30 8475 H 758.471 5.85209 5.14928 0
M  V30 8476 N 762.7 -0.34323 1.53817 0
M  V30 8477 C 764.111 -0.918823 1.62525 0
M  V30 8478 C 764.462 -1.89542 0.506765 0
M  V30 8479 O 763.587 -2.13326 -0.363441 0
M  V30 8480 C 764.182 -1.67326 2.94597 0
M  V30 8481 C 762.741 -2.19786 3.05567 0
M  V30 8482 C 761.888 -1.01708 2.57974 0
M  V30 8483 H 764.839 -0.121358 1.58235 0
M  V30 8484 H 764.86 -2.53615 2.83654 0
M  V30 8485 H 764.372 -0.962223 3.75983 0
M  V30 8486 H 762.473 -2.94065 2.28816 0
M  V30 8487 H 762.586 -2.46135 4.1104 0
M  V30 8488 H 760.95 -1.39058 2.13389 0
M  V30 8489 H 761.733 -0.320671 3.41799 0
M  V30 8490 N 764.178 -1.45556 -0.604258 0
M  V30 8491 C 765.141 -1.54091 -1.69672 0
M  V30 8492 C 766.141 -0.420076 -1.55216 0
M  V30 8493 O 767.331 -0.683671 -1.60224 0
M  V30 8494 C 764.463 -1.44063 -3.08964 0
M  V30 8495 H 765.656 -2.51431 -1.6347 0
M  V30 8496 H 763.209 -1.33046 -0.820273 0
M  V30 8497 H 763.944 -0.479201 -3.2074 0
M  V30 8498 H 763.729 -2.25362 -3.20865 0
M  V30 8499 H 765.219 -1.53075 -3.88533 0
M  V30 8500 N 765.656 0.84705 -1.32902 0
M  V30 8501 C 766.902 1.60389 -1.25088 0
M  V30 8502 C 767.257 1.91521 0.183723 0
M  V30 8503 O 766.55 1.55197 1.12359 0
M  V30 8504 C 766.744 2.92663 -2.05142 0
M  V30 8505 C 766.573 2.74449 -3.56241 0
M  V30 8506 C 765.343 2.72434 -4.25567 0
M  V30 8507 C 767.541 2.47666 -4.5074 0
M  V30 8508 N 765.523 2.45512 -5.62669 0
M  V30 8509 C 766.894 2.30219 -5.75673 0
M  V30 8510 C 768.949 2.33196 -4.39914 0
M  V30 8511 C 767.652 1.99772 -6.91002 0
M  V30 8512 C 769.678 2.0414 -5.5505 0
M  V30 8513 C 769.04 1.875 -6.78987 0
M  V30 8514 H 765.139 0.590296 -0.512908 0
M  V30 8515 H 767.723 0.995058 -1.67352 0
M  V30 8516 H 765.894 3.51511 -1.65211 0
M  V30 8517 H 767.626 3.5777 -1.89163 0
M  V30 8518 H 764.381 2.85647 -3.7776 0
M  V30 8519 H 764.805 2.34958 -6.3492 0
M  V30 8520 H 769.447 2.44777 -3.44738 0
M  V30 8521 H 767.165 1.86928 -7.86183 0
M  V30 8522 H 770.751 1.93711 -5.48605 0
M  V30 8523 H 769.631 1.65339 -7.66572 0
M  V30 8524 N 767.134 1.16236 1.06428 0
M  V30 8525 C 768.097 0.870163 2.1204 0
M  V30 8526 C 769.097 -0.134239 1.60239 0
M  V30 8527 O 770.287 0.0964932 1.73933 0
M  V30 8528 C 767.419 0.301033 3.39568 0
M  V30 8529 H 768.612 1.8064 2.39394 0
M  V30 8530 H 766.165 0.971116 1.2247 0
M  V30 8531 H 766.9 -0.642948 3.17863 0
M  V30 8532 H 766.685 1.02475 3.78472 0
M  V30 8533 H 768.175 0.114494 4.17443 0
M  V30 8534 N 768.612 -1.24939 0.960631 0
M  V30 8535 C 770.028 -1.45039 0.666018 0
M  V30 8536 C 770.228 -1.86021 -0.774501 0
M  V30 8537 O 769.284 -1.99392 -1.54916 0
M  V30 8538 C 770.597 -2.51775 1.64408 0
M  V30 8539 C 772.145 -2.6561 1.65592 0
M  V30 8540 C 772.62 -3.75536 2.62177 0
M  V30 8541 N 774.111 -3.82954 2.60577 0
M  V30 8542 C 774.846 -4.67517 3.31987 0
M  V30 8543 N 774.342 -5.56321 4.1289 0
M  V30 8544 N 776.135 -4.61535 3.20845 0
M  V30 8545 H 768.286 -0.96632 1.89145 0
M  V30 8546 H 770.549 -0.486034 0.813926 0
M  V30 8547 H 770.255 -2.28534 2.67329 0
M  V30 8548 H 770.129 -3.49804 1.41128 0
M  V30 8549 H 772.516 -2.88212 0.633846 0
M  V30 8550 H 772.597 -1.67962 1.92931 0
M  V30 8551 H 772.241 -3.53684 3.64514 0
M  V30 8552 H 772.171 -4.72682 2.32119 0
M  V30 8553 H 774.662 -3.19478 2.01847 0
M  V30 8554 H 774.975 -6.17787 4.64283 0
M  V30 8555 H 773.32 -5.5601 4.16987 0
M  V30 8556 H 776.511 -3.91169 2.57108 0
M  V30 8557 H 776.684 -5.27214 3.76762 0
M  V30 8558 N 770.09 -0.729906 -1.39679 0
M  V30 8559 C 771 -0.0880322 -2.34435 0
M  V30 8560 C 772.016 0.727674 -1.58053 0
M  V30 8561 O 773.192 0.657321 -1.90371 0
M  V30 8562 C 770.257 0.812211 -3.37052 0
M  V30 8563 C 769.318 -0.0151681 -4.29297 0
M  V30 8564 C 768.551 0.842202 -5.27013 0
M  V30 8565 O 768.774 2.08108 -5.31081 0
M  V30 8566 O 767.708 0.27357 -6.01278 0
M  V30 8567 H 771.534 -0.869989 -2.90972 0
M  V30 8568 H 769.119 -0.490522 -1.41118 0
M  V30 8569 H 771.001 1.32745 -3.99946 0
M  V30 8570 H 769.676 1.57307 -2.82907 0
M  V30 8571 H 768.583 -0.575811 -3.69642 0
M  V30 8572 H 769.916 -0.738129 -4.86634 0
M  V30 8573 N 771.568 1.50203 -0.477153 0
M  V30 8574 C 772.814 2.02658 0.0758507 0
M  V30 8575 C 773.147 1.358 1.38824 0
M  V30 8576 O 772.422 0.485696 1.88338 0
M  V30 8577 C 772.705 3.59208 0.253339 0
M  V30 8578 C 772.558 4.36629 -1.0805 0
M  V30 8579 C 773.877 4.28469 1.00509 0
M  V30 8580 H 770.996 0.736538 0.0260921 0
M  V30 8581 H 773.638 1.79464 -0.623925 0
M  V30 8582 H 771.788 3.79101 0.849378 0
M  V30 8583 H 773.46 4.28292 -1.71358 0
M  V30 8584 H 771.703 4.0013 -1.67566 0
M  V30 8585 H 772.374 5.44449 -0.909883 0
M  V30 8586 H 774.85 4.13087 0.499818 0
M  V30 8587 H 773.726 5.37804 1.09808 0
M  V30 8588 H 773.987 3.92057 2.04314 0
M  V30 8589 N 773.046 0.209999 1.56195 0
M  V30 8590 C 773.956 -0.716459 2.23392 0
M  V30 8591 C 774.972 -1.22291 1.23778 0
M  V30 8592 O 776.148 -1.26694 1.56558 0
M  V30 8593 C 773.213 -1.91261 2.89172 0
M  V30 8594 C 772.274 -1.44927 4.04097 0
M  V30 8595 C 771.507 -2.5884 4.66731 0
M  V30 8596 O 771.73 -3.76693 4.2832 0
M  V30 8597 O 770.664 -2.30701 5.55932 0
M  V30 8598 H 774.49 -0.174089 3.03201 0
M  V30 8599 H 772.075 -0.0199505 1.49387 0
M  V30 8600 H 773.957 -2.6114 3.30733 0
M  V30 8601 H 772.632 -2.4433 2.12331 0
M  V30 8602 H 771.539 -0.718839 3.67129 0
M  V30 8603 H 772.872 -0.965084 4.82646 0
M  V30 8604 N 774.524 -1.57472 -0.0634922 0
M  V30 8605 C 775.434 -2.07621 -1.09227 0
M  V30 8606 C 776.45 -1.00746 -1.41867 0
M  V30 8607 O 777.626 -1.32269 -1.51878 0
M  V30 8608 C 774.691 -2.51707 -2.38421 0
M  V30 8609 C 773.752 -3.72917 -2.12676 0
M  V30 8610 C 772.985 -4.14891 -3.3571 0
M  V30 8611 O 773.208 -3.56663 -4.45137 0
M  V30 8612 O 772.142 -5.07616 -3.23434 0
M  V30 8613 H 775.968 -2.95612 -0.696205 0
M  V30 8614 H 773.553 -1.46787 -0.27819 0
M  V30 8615 H 775.435 -2.80547 -3.14438 0
M  V30 8616 H 774.11 -1.66842 -2.77391 0
M  V30 8617 H 773.017 -3.49148 -1.34337 0
M  V30 8618 H 774.35 -4.5866 -1.78583 0
M  V30 8619 N 776.003 0.335068 -1.53997 0
M  V30 8620 C 777.419 0.678704 -1.4445 0
M  V30 8621 C 777.619 1.92106 -0.608078 0
M  V30 8622 O 776.675 2.52292 -0.102373 0
M  V30 8623 C 777.988 0.863435 -2.88037 0
M  V30 8624 C 779.536 0.961513 -2.97866 0
M  V30 8625 C 780.011 1.1785 -4.42578 0
M  V30 8626 N 781.502 1.2455 -4.46141 0
M  V30 8627 C 782.237 1.43106 -5.55255 0
M  V30 8628 N 781.733 1.5878 -6.74359 0
M  V30 8629 N 783.526 1.45722 -5.42883 0
M  V30 8630 H 775.677 -0.481656 -2.06867 0
M  V30 8631 H 777.94 -0.153615 -0.935471 0
M  V30 8632 H 777.646 0.0219511 -3.51693 0
M  V30 8633 H 777.52 1.76268 -3.33481 0
M  V30 8634 H 779.907 1.79351 -2.34344 0
M  V30 8635 H 779.988 0.0389862 -2.5577 0
M  V30 8636 H 779.632 0.351397 -5.06683 0
M  V30 8637 H 779.562 2.11472 -4.82273 0
M  V30 8638 H 782.053 1.13928 -3.60318 0
M  V30 8639 H 782.366 1.72599 -7.53279 0
M  V30 8640 H 780.711 1.559 -6.77289 0
M  V30 8641 H 783.902 1.33065 -4.48789 0
M  V30 8642 H 784.075 1.59841 -6.27977 0
M  V30 8643 N 777.481 1.45874 0.596531 0
M  V30 8644 C 778.709 1.54013 1.38158 0
M  V30 8645 C 779.124 0.17648 1.87973 0
M  V30 8646 O 778.481 -0.823895 1.62844 0
M  V30 8647 C 778.532 2.53363 2.57855 0
M  V30 8648 O 778.253 3.8443 2.10108 0
M  V30 8649 C 779.754 2.71308 3.50581 0
M  V30 8650 H 776.974 0.521251 0.422538 0
M  V30 8651 H 779.518 1.9116 0.726493 0
M  V30 8652 H 777.673 2.19257 3.19382 0
M  V30 8653 H 778.087 4.38384 2.87958 0
M  V30 8654 H 779.561 3.44776 4.31084 0
M  V30 8655 H 780.038 1.77728 4.01633 0
M  V30 8656 H 780.644 3.06455 2.94899 0
M  V30 8657 N 778.959 -0.83999 1.33349 0
M  V30 8658 C 780.375 -1.13049 1.12659 0
M  V30 8659 C 780.575 -2.01328 -0.0832613 0
M  V30 8660 O 779.631 -2.40669 -0.763856 0
M  V30 8661 C 780.944 -1.79366 2.41347 0
M  V30 8662 C 782.492 -1.91937 2.47243 0
M  V30 8663 C 782.967 -2.6167 3.75889 0
M  V30 8664 N 784.458 -2.69184 3.76954 0
M  V30 8665 C 785.193 -3.23827 4.73206 0
M  V30 8666 N 784.689 -3.79166 5.79832 0
M  V30 8667 N 786.482 -3.22068 4.60683 0
M  V30 8668 H 778.633 -0.252432 2.10895 0
M  V30 8669 H 780.896 -0.174501 0.931801 0
M  V30 8670 H 780.602 -1.2196 3.29877 0
M  V30 8671 H 780.476 -2.79396 2.53412 0
M  V30 8672 H 782.863 -2.48498 1.59163 0
M  V30 8673 H 782.944 -0.908604 2.39119 0
M  V30 8674 H 782.588 -2.05769 4.64351 0
M  V30 8675 H 782.518 -3.63217 3.81289 0
M  V30 8676 H 785.009 -2.2994 2.99893 0
M  V30 8677 H 785.322 -4.19061 6.49313 0
M  V30 8678 H 783.667 -3.77457 5.83568 0
M  V30 8679 H 786.858 -2.78092 3.7654 0
M  V30 8680 H 787.031 -3.64351 5.35866 0
M  V30 8681 N 780.437 -1.16799 -1.0581 0
M  V30 8682 C 781.37 -0.822491 -2.12862 0
M  V30 8683 C 782.348 0.208006 -1.61264 0
M  V30 8684 O 783.532 0.0909652 -1.8828 0
M  V30 8685 C 780.659 -0.225826 -3.37946 0
M  V30 8686 C 779.705 -1.23071 -4.08357 0
M  V30 8687 S 780.538 -2.77944 -4.5772 0
M  V30 8688 C 781.694 -2.19741 -5.86059 0
M  V30 8689 H 781.927 -1.72917 -2.41841 0
M  V30 8690 H 779.46 -0.991982 -1.18318 0
M  V30 8691 H 781.418 0.111955 -4.10347 0
M  V30 8692 H 780.079 0.658692 -3.07116 0
M  V30 8693 H 779.272 -0.761758 -4.9821 0
M  V30 8694 H 778.874 -1.51383 -3.41993 0
M  V30 8695 H 781.166 -1.5691 -6.59079 0
M  V30 8696 H 782.109 -3.07823 -6.37692 0
M  V30 8697 H 782.517 -1.63433 -5.40324 0
M  V30 8698 N 781.915 1.24427 -0.967243 0
M  V30 8699 C 782.863 2.27403 -0.488927 0
M  V30 8700 C 783.857 1.63388 0.447302 0
M  V30 8701 O 785.063 1.77085 0.322643 0
M  V30 8702 H 781.438 0.738921 -0.139643 0
M  V30 8703 H 783.409 2.65122 -1.36942 0
M  V30 8704 C 782.158 3.4709 0.205787 0
M  V30 8705 H 781.481 3.96591 -0.50551 0
M  V30 8706 H 782.921 4.2099 0.504296 0
M  V30 8707 C 781.38 3.04923 1.43261 0
M  V30 8708 O 781.91 3.12043 2.52967 0
M  V30 8709 N 780.116 2.59976 1.29849 0
M  V30 8710 H 779.663 2.54382 0.405876 0
M  V30 8711 H 779.621 2.32128 2.12047 0
M  V30 8712 N 783.393 0.737304 1.3929 0
M  V30 8713 C 784.34 0.0988364 2.30588 0
M  V30 8714 C 785.31 -0.727206 1.49335 0
M  V30 8715 O 786.495 -0.686694 1.78014 0
M  V30 8716 C 783.635 -0.800734 3.35682 0
M  V30 8717 C 782.748 0.0381731 4.31983 0
M  V30 8718 C 781.883 -0.862884 5.24145 0
M  V30 8719 C 780.922 -0.0193639 6.12097 0
M  V30 8720 N 780.059 -0.87648 6.96608 0
M  V30 8721 H 784.899 0.883031 2.84617 0
M  V30 8722 H 782.436 0.447111 1.4014 0
M  V30 8723 H 784.394 -1.33676 3.95205 0
M  V30 8724 H 783.024 -1.55088 2.83103 0
M  V30 8725 H 782.076 0.691641 3.74059 0
M  V30 8726 H 783.388 0.690294 4.94 0
M  V30 8727 H 782.542 -1.46667 5.88705 0
M  V30 8728 H 781.281 -1.54878 4.62454 0
M  V30 8729 H 780.286 0.597202 5.46547 0
M  V30 8730 H 781.511 0.663348 6.75852 0
M  V30 8731 H 779.457 -1.54762 6.37483 0
M  V30 8732 H 779.374 -0.280892 7.55478 0
M  V30 8733 H 780.642 -1.46575 7.65595 0
M  V30 8734 N 784.871 -1.49948 0.485112 0
M  V30 8735 C 785.803 -2.26691 -0.338222 0
M  V30 8736 C 786.816 -1.32584 -0.944742 0
M  V30 8737 O 788.005 -1.57989 -0.830772 0
M  V30 8738 C 785.105 -3.04405 -1.48966 0
M  V30 8739 C 784.278 -4.25971 -0.993371 0
M  V30 8740 C 783.337 -4.85861 -2.02052 0
M  V30 8741 O 782.363 -5.46382 -1.59547 0
M  V30 8742 N 783.565 -4.74101 -3.34975 0
M  V30 8743 H 786.33 -2.97989 0.319748 0
M  V30 8744 H 783.891 -1.58772 0.316714 0
M  V30 8745 H 785.883 -3.41348 -2.17403 0
M  V30 8746 H 784.453 -2.35815 -2.05207 0
M  V30 8747 H 783.673 -3.93971 -0.134424 0
M  V30 8748 H 784.961 -5.0476 -0.639934 0
M  V30 8749 H 784.359 -4.26002 -3.72208 0
M  V30 8750 H 782.916 -5.15274 -3.9917 0
M  V30 8751 N 786.349 -0.21828 -1.56081 0
M  V30 8752 C 787.281 0.725447 -2.17416 0
M  V30 8753 C 788.294 1.15995 -1.14233 0
M  V30 8754 O 789.483 1.09166 -1.41227 0
M  V30 8755 C 786.583 1.99401 -2.7403 0
M  V30 8756 C 785.756 1.7156 -4.02351 0
M  V30 8757 C 784.815 2.8309 -4.43561 0
M  V30 8758 O 783.841 2.51701 -5.10525 0
M  V30 8759 N 785.043 4.11972 -4.08973 0
M  V30 8760 H 787.808 0.200801 -2.99027 0
M  V30 8761 H 785.369 -0.0371514 -1.61857 0
M  V30 8762 H 787.361 2.73198 -2.98571 0
M  V30 8763 H 785.931 2.42923 -1.96742 0
M  V30 8764 H 785.151 0.814233 -3.85699 0
M  V30 8765 H 786.439 1.50385 -4.86068 0
M  V30 8766 H 785.837 4.40319 -3.55156 0
M  V30 8767 H 784.394 4.82323 -4.38415 0
M  V30 8768 N 787.827 1.57504 0.0551401 0
M  V30 8769 C 788.775 2.05884 1.08233 0
M  V30 8770 C 789.769 0.967383 1.39061 0
M  V30 8771 O 790.975 1.15242 1.38273 0
M  V30 8772 H 787.35 0.656673 0.366449 0
M  V30 8773 H 789.321 2.91273 0.648269 0
M  V30 8774 C 788.07 2.53221 2.38273 0
M  V30 8775 H 787.393 3.36809 2.15406 0
M  V30 8776 H 788.833 2.9081 3.08554 0
M  V30 8777 C 787.292 1.42218 3.05411 0
M  V30 8778 O 787.822 0.773638 3.9418 0
M  V30 8779 N 786.028 1.16316 2.66306 0
M  V30 8780 H 785.575 1.69237 1.94207 0
M  V30 8781 H 785.533 0.422534 3.11548 0
M  V30 8782 N 789.305 -0.326896 1.54172 0
M  V30 8783 C 790.53 -1.08924 1.76494 0
M  V30 8784 C 790.955 -1.81039 0.510523 0
M  V30 8785 O 790.313 -1.73141 -0.537756 0
M  V30 8786 C 790.361 -2.06558 2.95578 0
M  V30 8787 O 789.465 -3.14394 2.6689 0
M  V30 8788 H 788.806 -0.314216 0.584948 0
M  V30 8789 H 791.336 -0.372207 2.01186 0
M  V30 8790 H 791.346 -2.49487 3.22832 0
M  V30 8791 H 790.021 -1.53469 3.86549 0
M  V30 8792 H 788.598 -2.76164 2.50576 0
M  V30 8793 N 790.784 -1.46188 -0.588786 0
M  V30 8794 C 792.195 -1.45421 -1.17088 0
M  V30 8795 C 792.546 -0.191801 -1.9526 0
M  V30 8796 O 791.671 0.705497 -2.04577 0
M  V30 8797 C 792.266 -2.63467 -2.13004 0
M  V30 8798 C 790.825 -2.6576 -2.6655 0
M  V30 8799 C 789.972 -2.38002 -1.42304 0
M  V30 8800 H 792.923 -1.54156 -0.377052 0
M  V30 8801 H 792.944 -2.38638 -2.96365 0
M  V30 8802 H 792.456 -3.55331 -1.56081 0
M  V30 8803 H 790.557 -1.77952 -3.27359 0
M  V30 8804 H 790.67 -3.65545 -3.09699 0
M  V30 8805 H 789.034 -1.87936 -1.71907 0
M  V30 8806 H 789.817 -3.32035 -0.872209 0
M  V30 8807 N 792.262 0.832906 -1.33792 0
M  V30 8808 C 793.192 1.95828 -1.27176 0
M  V30 8809 C 794.173 1.69427 -0.15114 0
M  V30 8810 O 795.358 1.91167 -0.341886 0
M  V30 8811 C 792.488 3.32098 -1.01629 0
M  V30 8812 C 791.442 3.72912 -2.10049 0
M  V30 8813 C 790.768 5.07054 -1.69706 0
M  V30 8814 C 792.068 3.86064 -3.51783 0
M  V30 8815 H 793.762 2.01622 -2.21334 0
M  V30 8816 H 791.308 0.96866 -1.0655 0
M  V30 8817 H 793.261 4.10402 -0.956474 0
M  V30 8818 H 791.985 3.26577 -0.0390956 0
M  V30 8819 H 790.644 2.96876 -2.15082 0
M  V30 8820 H 790.292 4.9801 -0.706737 0
M  V30 8821 H 789.992 5.35333 -2.42264 0
M  V30 8822 H 791.516 5.87827 -1.65202 0
M  V30 8823 H 792.93 4.54665 -3.49218 0
M  V30 8824 H 791.327 4.25787 -4.22878 0
M  V30 8825 H 792.397 2.88344 -3.89854 0
M  V30 8826 N 793.74 1.17359 1.05189 0
M  V30 8827 C 794.703 0.892604 2.11105 0
M  V30 8828 C 795.703 -0.117236 1.60372 0
M  V30 8829 O 796.893 0.114936 1.7382 0
M  V30 8830 C 794.025 0.337032 3.3923 0
M  V30 8831 H 795.218 1.83169 2.37464 0
M  V30 8832 H 792.771 0.984051 1.21434 0
M  V30 8833 H 793.506 -0.609198 3.18527 0
M  V30 8834 H 793.291 1.06484 3.77364 0
M  V30 8835 H 794.781 0.158763 4.17298 0
M  V30 8836 N 795.218 -1.23913 0.973828 0
M  V30 8837 C 796.165 -2.25132 0.508366 0
M  V30 8838 C 797.135 -1.59908 -0.449307 0
M  V30 8839 O 798.32 -1.87405 -0.358313 0
M  V30 8840 C 795.46 -3.4458 -0.189422 0
M  V30 8841 C 794.573 -4.24381 0.807738 0
M  V30 8842 C 793.708 -5.31131 0.0854315 0
M  V30 8843 C 792.747 -6.02635 1.07225 0
M  V30 8844 N 791.884 -7.01073 0.379535 0
M  V30 8845 H 796.724 -2.64313 1.37632 0
M  V30 8846 H 794.261 -1.29924 0.689802 0
M  V30 8847 H 796.219 -4.12706 -0.610733 0
M  V30 8848 H 794.849 -3.06218 -1.02129 0
M  V30 8849 H 793.901 -3.55735 1.34747 0
M  V30 8850 H 795.213 -4.73778 1.55998 0
M  V30 8851 H 794.367 -6.05422 -0.393572 0
M  V30 8852 H 793.106 -4.82658 -0.699461 0
M  V30 8853 H 792.111 -5.27143 1.56207 0
M  V30 8854 H 793.336 -6.53197 1.85769 0
M  V30 8855 H 791.282 -6.54862 -0.386269 0
M  V30 8856 H 791.199 -7.48382 1.07054 0
M  V30 8857 H 792.467 -7.79462 -0.0772984 0
M  V30 8858 N 796.696 -0.74468 -1.38897 0
M  V30 8859 C 797.921 -0.306119 -2.05128 0
M  V30 8860 C 798.346 1.0541 -1.55789 0
M  V30 8861 O 797.704 1.66993 -0.705909 0
M  V30 8862 C 797.752 -0.328195 -3.59103 0
M  V30 8863 O 796.856 0.680876 -4.06741 0
M  V30 8864 H 796.197 -0.137209 -0.649669 0
M  V30 8865 H 798.727 -1.01331 -1.77745 0
M  V30 8866 H 798.737 -0.175956 -4.0762 0
M  V30 8867 H 797.412 -1.32067 -3.94374 0
M  V30 8868 H 795.989 0.49398 -3.69614 0
M  V30 8869 N 798.174 1.49689 -0.493057 0
M  V30 8870 C 799.121 2.28976 0.28959 0
M  V30 8871 C 800.091 1.35011 0.967536 0
M  V30 8872 O 801.276 1.63964 0.975736 0
M  V30 8873 C 798.416 3.1748 1.35279 0
M  V30 8874 C 797.529 4.26496 0.687418 0
M  V30 8875 C 796.664 5.02226 1.73038 0
M  V30 8876 C 795.703 6.03089 1.04645 0
M  V30 8877 N 794.84 6.72014 2.03325 0
M  V30 8878 H 799.68 2.954 -0.392798 0
M  V30 8879 H 797.217 1.45657 -0.205554 0
M  V30 8880 H 799.175 3.67162 1.98111 0
M  V30 8881 H 797.805 2.53057 2.00405 0
M  V30 8882 H 796.857 3.80362 -0.0540001 0
M  V30 8883 H 798.169 4.98578 0.14864 0
M  V30 8884 H 797.323 5.55737 2.43395 0
M  V30 8885 H 796.062 4.29899 2.303 0
M  V30 8886 H 795.067 5.48817 0.328606 0
M  V30 8887 H 796.292 6.77398 0.480428 0
M  V30 8888 H 794.238 6.02464 2.59564 0
M  V30 8889 H 794.155 7.40046 1.54492 0
M  V30 8890 H 795.423 7.30133 2.72995 0
M  V30 8891 N 799.652 0.226554 1.55963 0
M  V30 8892 C 801.063 -0.280381 1.84583 0
M  V30 8893 C 801.414 -1.59105 1.14804 0
M  V30 8894 O 800.539 -2.12297 0.419414 0
M  V30 8895 C 801.134 -0.515499 3.34855 0
M  V30 8896 C 799.693 -0.966733 3.63774 0
M  V30 8897 C 798.84 -0.0325753 2.77281 0
M  V30 8898 H 801.791 0.449626 1.52197 0
M  V30 8899 H 801.812 -1.36085 3.55332 0
M  V30 8900 H 801.324 0.438594 3.85614 0
M  V30 8901 H 799.425 -1.93401 3.18476 0
M  V30 8902 H 799.538 -0.837679 4.7172 0
M  V30 8903 H 797.902 -0.540279 2.48904 0
M  V30 8904 H 798.685 0.916524 3.30839 0
M  V30 8905 N 801.13 -1.57531 -0.0467866 0
M  V30 8906 C 802.378 -1.88078 -0.739656 0
M  V30 8907 C 802.699 -0.821936 -1.76831 0
M  V30 8908 O 801.969 0.146582 -1.95351 0
M  V30 8909 H 800.549 -0.694075 -0.276169 0
M  V30 8910 H 803.211 -1.94893 -0.0169391 0
M  V30 8911 H 802.307 -2.86396 -1.24031 0
M  V30 8912 N 802.608 0.318715 -1.54344 0
M  V30 8913 C 803.833 1.07987 -1.77069 0
M  V30 8914 C 804.258 1.80766 -0.520117 0
M  V30 8915 O 803.616 1.73424 0.528566 0
M  V30 8916 C 803.664 2.04987 -2.96669 0
M  V30 8917 O 802.768 3.12974 -2.68554 0
M  V30 8918 H 802.109 0.311109 -0.586606 0
M  V30 8919 H 804.639 0.361533 -2.0138 0
M  V30 8920 H 804.649 2.47771 -3.2415 0
M  V30 8921 H 803.324 1.51417 -3.87357 0
M  V30 8922 H 801.901 2.74831 -2.52037 0
M  V30 8923 N 804.086 1.46499 0.581025 0
M  V30 8924 C 805.314 1.5547 1.36517 0
M  V30 8925 C 805.729 0.196407 1.87776 0
M  V30 8926 O 805.086 -0.806577 1.63709 0
M  V30 8927 C 805.137 2.56084 2.55154 0
M  V30 8928 O 804.858 3.86637 2.06018 0
M  V30 8929 C 806.359 2.75011 3.47683 0
M  V30 8930 H 803.579 0.525703 0.416986 0
M  V30 8931 H 806.123 1.9192 0.706177 0
M  V30 8932 H 804.278 2.22633 3.17039 0
M  V30 8933 H 804.692 4.41413 2.83292 0
M  V30 8934 H 806.166 3.49329 4.27403 0
M  V30 8935 H 806.643 1.81978 3.99726 0
M  V30 8936 H 807.249 3.09565 2.91632 0
M  V30 8937 N 805.565 -0.825799 1.34232 0
M  V30 8938 C 806.813 -1.57873 1.26177 0
M  V30 8939 C 807.134 -1.94267 -0.168904 0
M  V30 8940 O 806.404 -1.62045 -1.10084 0
M  V30 8941 H 804.984 -0.585388 0.464037 0
M  V30 8942 H 807.646 -0.986163 1.6811 0
M  V30 8943 H 806.742 -2.50283 1.86453 0
M  V30 8944 N 807.043 -1.17915 -1.04565 0
M  V30 8945 C 808.454 -0.976383 -1.59134 0
M  V30 8946 C 808.805 0.475267 -1.90357 0
M  V30 8947 O 807.93 1.35172 -1.6899 0
M  V30 8948 C 808.525 -1.76604 -2.89131 0
M  V30 8949 C 807.084 -1.60777 -3.40335 0
M  V30 8950 C 806.231 -1.76369 -2.13985 0
M  V30 8951 H 809.182 -1.32532 -0.872985 0
M  V30 8952 H 809.203 -1.25215 -3.59307 0
M  V30 8953 H 808.715 -2.82252 -2.66375 0
M  V30 8954 H 806.816 -0.576436 -3.68114 0
M  V30 8955 H 806.929 -2.40268 -4.14497 0
M  V30 8956 H 805.293 -1.19268 -2.25049 0
M  V30 8957 H 806.076 -2.83441 -1.9369 0
M  V30 8958 N 808.521 1.23394 -0.980386 0
M  V30 8959 C 809.431 2.28561 -0.528864 0
M  V30 8960 C 810.447 1.68946 0.416329 0
M  V30 8961 O 811.623 1.99355 0.286251 0
M  V30 8962 C 808.688 3.46323 0.16155 0
M  V30 8963 C 807.749 4.21297 -0.825044 0
M  V30 8964 C 806.982 5.33437 -0.167483 0
M  V30 8965 O 807.205 5.60812 1.04146 0
M  V30 8966 O 806.139 5.95637 -0.866047 0
M  V30 8967 H 809.965 2.69326 -1.40346 0
M  V30 8968 H 807.55 1.29325 -0.748019 0
M  V30 8969 H 809.432 4.17811 0.548841 0
M  V30 8970 H 808.107 3.0751 1.01092 0
M  V30 8971 H 807.014 3.52134 -1.26303 0
M  V30 8972 H 808.347 4.6396 -1.64322 0
M  V30 8973 N 809.999 0.752036 1.385 0
M  V30 8974 C 811.41 0.375385 1.82887 0
M  V30 8975 C 811.761 -1.09575 1.62751 0
M  V30 8976 O 810.886 -1.84685 1.12785 0
M  V30 8977 C 811.481 0.674563 3.32017 0
M  V30 8978 C 810.04 0.351208 3.74758 0
M  V30 8979 C 809.187 0.928531 2.61292 0
M  V30 8980 H 812.138 0.948313 1.27251 0
M  V30 8981 H 812.159 -0.0477781 3.8047 0
M  V30 8982 H 811.671 1.74533 3.46641 0
M  V30 8983 H 809.772 -0.713042 3.65714 0
M  V30 8984 H 809.885 0.845675 4.71577 0
M  V30 8985 H 808.249 0.354012 2.52228 0
M  V30 8986 H 809.032 2.0043 2.78716 0
M  V30 8987 N 811.477 -1.49425 0.500989 0
M  V30 8988 C 812.888 -1.86624 0.0532011 0
M  V30 8989 C 813.239 -1.41331 -1.36088 0
M  V30 8990 O 812.364 -0.791195 -2.01418 0
M  V30 8991 C 812.959 -3.38681 0.0897693 0
M  V30 8992 C 811.518 -3.75181 -0.302677 0
M  V30 8993 C 810.665 -2.73419 0.462307 0
M  V30 8994 H 813.616 -1.41743 0.713773 0
M  V30 8995 H 813.637 -3.73902 -0.705528 0
M  V30 8996 H 813.149 -3.71616 1.11907 0
M  V30 8997 H 811.25 -3.47855 -1.33521 0
M  V30 8998 H 811.363 -4.79097 0.0167653 0
M  V30 8999 H 809.727 -2.54548 -0.0878557 0
M  V30 9000 H 810.51 -3.09198 1.49169 0
M  V30 9001 N 812.955 -0.234822 -1.55841 0
M  V30 9002 C 814.204 0.393685 -1.97821 0
M  V30 9003 C 814.517 1.59947 -1.1259 0
M  V30 9004 O 815.723 2.29835 -1.44528 0
M  V30 9005 C 814.179 0.751811 -3.5196 0
M  V30 9006 C 813.787 -0.431898 -4.45913 0
M  V30 9007 C 815.531 1.34518 -4.02623 0
M  V30 9008 C 813.438 -0.0505976 -5.91378 0
M  V30 9009 H 812.368 0.150864 -0.738753 0
M  V30 9010 H 815.019 -0.333132 -1.80451 0
M  V30 9011 H 813.401 1.53642 -3.6498 0
M  V30 9012 H 814.575 -1.20935 -4.44647 0
M  V30 9013 H 812.89 -0.939385 -4.05666 0
M  V30 9014 H 815.487 1.64359 -5.08813 0
M  V30 9015 H 815.83 2.26554 -3.49255 0
M  V30 9016 H 816.363 0.623729 -3.9288 0
M  V30 9017 H 813.102 -0.937779 -6.48757 0
M  V30 9018 H 812.622 0.690898 -5.95808 0
M  V30 9019 H 814.301 0.37146 -6.45933 0
M  V30 9020 N 814.433 1.57553 0.0384317 0
M  V30 9021 C 815.844 1.77258 0.586211 0
M  V30 9022 C 816.195 0.864706 1.76117 0
M  V30 9023 O 815.32 0.057141 2.16325 0
M  V30 9024 C 815.915 3.21453 1.07021 0
M  V30 9025 C 814.474 3.42387 1.56358 0
M  V30 9026 C 813.621 2.72801 0.497508 0
M  V30 9027 H 816.572 1.57585 -0.187796 0
M  V30 9028 H 816.593 3.27451 1.93794 0
M  V30 9029 H 816.105 3.87505 0.214851 0
M  V30 9030 H 814.206 2.81497 2.44111 0
M  V30 9031 H 814.319 4.50968 1.61754 0
M  V30 9032 H 812.683 2.36305 0.95038 0
M  V30 9033 H 813.466 3.41529 -0.348234 0
M  V30 9034 N 815.911 -0.310526 1.54511 0
M  V30 9035 C 816.843 -1.40405 1.8116 0
M  V30 9036 C 817.856 -1.47261 0.694114 0
M  V30 9037 O 819.045 -1.49751 0.971441 0
M  V30 9038 C 816.145 -2.78849 1.92604 0
M  V30 9039 C 815.318 -2.95041 3.22908 0
M  V30 9040 C 814.377 -4.13925 3.24889 0
M  V30 9041 O 813.403 -4.06463 3.98467 0
M  V30 9042 N 814.605 -5.24099 2.496 0
M  V30 9043 H 817.37 -1.17903 2.75534 0
M  V30 9044 H 814.931 -0.500564 1.53967 0
M  V30 9045 H 816.923 -3.5661 1.91342 0
M  V30 9046 H 815.493 -2.94342 1.05268 0
M  V30 9047 H 814.713 -2.04472 3.37023 0
M  V30 9048 H 816.001 -3.02763 4.08916 0
M  V30 9049 H 815.399 -5.33039 1.89435 0
M  V30 9050 H 813.956 -6.0023 2.54102 0
M  V30 9051 N 817.389 -1.46805 -0.573248 0
M  V30 9052 C 818.352 -1.57655 -1.66366 0
M  V30 9053 C 819.352 -0.452905 -1.5429 0
M  V30 9054 O 820.542 -0.717502 -1.58737 0
M  V30 9055 C 817.674 -1.50584 -3.05839 0
M  V30 9056 H 818.867 -2.54842 -1.581 0
M  V30 9057 H 816.42 -1.34756 -0.791868 0
M  V30 9058 H 817.155 -0.547127 -3.19651 0
M  V30 9059 H 816.94 -2.32118 -3.16012 0
M  V30 9060 H 818.43 -1.61282 -3.85199 0
M  V30 9061 N 818.867 0.818669 -1.34668 0
M  V30 9062 C 820.092 1.61193 -1.30505 0
M  V30 9063 C 820.517 1.87734 0.117341 0
M  V30 9064 O 819.875 1.45591 1.08042 0
M  V30 9065 C 819.923 2.92733 -2.1057 0
M  V30 9066 O 819.027 3.85 -1.47813 0
M  V30 9067 H 818.368 0.490085 -0.44801 0
M  V30 9068 H 820.898 1.01701 -1.77534 0
M  V30 9069 H 820.908 3.42262 -2.22082 0
M  V30 9070 H 819.583 2.7274 -3.13984 0
M  V30 9071 H 818.16 3.43525 -1.45069 0
M  V30 9072 N 820.346 1.18468 1.03938 0
M  V30 9073 C 821.757 0.984808 1.58614 0
M  V30 9074 C 822.108 -0.465165 1.90606 0
M  V30 9075 O 821.233 -1.34274 1.69704 0
M  V30 9076 C 821.828 1.78135 2.8819 0
M  V30 9077 C 820.387 1.62579 3.39478 0
M  V30 9078 C 819.534 1.77501 2.13046 0
M  V30 9079 H 822.485 1.32993 0.865944 0
M  V30 9080 H 822.506 1.27119 3.58638 0
M  V30 9081 H 822.018 2.83661 2.64874 0
M  V30 9082 H 820.119 0.59595 3.67803 0
M  V30 9083 H 820.232 2.42463 4.13217 0
M  V30 9084 H 818.596 1.2046 2.24414 0
M  V30 9085 H 819.379 2.84464 1.92185 0
M  V30 9086 N 821.824 -1.22873 0.986916 0
M  V30 9087 C 823.072 -1.91084 0.658121 0
M  V30 9088 C 823.393 -1.77304 -0.811675 0
M  V30 9089 O 822.663 -1.15649 -1.58121 0
M  V30 9090 H 821.243 -0.707251 0.240427 0
M  V30 9091 H 823.905 -1.49357 1.25213 0
M  V30 9092 H 823.001 -2.98373 0.915428 0
M  V30 9093 N 823.302 -0.75937 -1.38099 0
M  V30 9094 C 824.713 -0.385078 -1.82686 0
M  V30 9095 C 825.064 1.0871 -1.6333 0
M  V30 9096 O 824.189 1.84084 -1.13762 0
M  V30 9097 C 824.784 -0.692161 -3.31654 0
M  V30 9098 C 823.343 -0.371077 -3.74566 0
M  V30 9099 C 822.49 -0.942375 -2.60796 0
M  V30 9100 H 825.441 -0.955048 -1.26746 0
M  V30 9101 H 825.462 0.0276001 -3.8049 0
M  V30 9102 H 824.974 -1.76369 -3.4571 0
M  V30 9103 H 823.075 0.693637 -3.66087 0
M  V30 9104 H 823.188 -0.870672 -4.71122 0
M  V30 9105 H 821.552 -0.367383 -2.52036 0
M  V30 9106 H 822.335 -2.01905 -2.77649 0
M  V30 9107 N 824.78 1.49157 -0.508906 0
M  V30 9108 C 826.191 1.86593 -0.0630975 0
M  V30 9109 C 826.542 1.42051 1.35337 0
M  V30 9110 O 825.667 0.801866 2.00995 0
M  V30 9111 C 826.262 3.38629 -0.107729 0
M  V30 9112 C 824.821 3.75336 0.282776 0
M  V30 9113 C 823.968 2.7317 -0.4768 0
M  V30 9114 H 826.919 1.41362 -0.72128 0
M  V30 9115 H 826.94 3.74271 0.685689 0
M  V30 9116 H 826.452 3.71017 -1.13876 0
M  V30 9117 H 824.553 3.48558 1.31675 0
M  V30 9118 H 824.666 4.79081 -0.0421728 0
M  V30 9119 H 823.03 2.54591 0.0743552 0
M  V30 9120 H 823.813 3.08403 -1.50807 0
M  V30 9121 N 826.258 0.243083 1.55714 0
M  V30 9122 C 827.506 -0.381964 1.98458 0
M  V30 9123 C 827.827 -1.58745 1.13247 0
M  V30 9124 O 827.097 -1.94723 0.214384 0
M  V30 9125 H 825.677 -0.144114 0.732967 0
M  V30 9126 H 828.339 0.340985 1.91894 0
M  V30 9127 H 827.435 -0.693702 3.04293 0
M  V30 9128 N 827.736 -1.57571 -0.0300757 0
M  V30 9129 C 829.147 -1.77567 -0.576802 0
M  V30 9130 C 829.498 -0.874034 -1.75656 0
M  V30 9131 O 828.623 -0.0686124 -2.16291 0
M  V30 9132 C 829.218 -3.22016 -1.05315 0
M  V30 9133 C 827.777 -3.43212 -1.5454 0
M  V30 9134 C 826.924 -2.73061 -0.483033 0
M  V30 9135 H 829.875 -1.57483 0.196151 0
M  V30 9136 H 829.896 -3.28474 -1.92055 0
M  V30 9137 H 829.408 -3.87613 -0.194298 0
M  V30 9138 H 827.509 -2.82788 -2.42615 0
M  V30 9139 H 827.622 -4.5182 -1.5936 0
M  V30 9140 H 825.986 -2.36805 -0.937835 0
M  V30 9141 H 826.769 -3.4134 0.366341 0
M  V30 9142 N 829.214 0.302327 -1.54673 0
M  V30 9143 C 830.144 1.37759 -1.88533 0
M  V30 9144 C 831.125 1.52961 -0.744113 0
M  V30 9145 O 832.31 1.6649 -0.999731 0
M  V30 9146 C 829.44 2.74201 -2.13146 0
M  V30 9147 C 828.394 2.73765 -3.28993 0
M  V30 9148 C 827.72 4.13483 -3.39022 0
M  V30 9149 C 829.02 2.35624 -4.66132 0
M  V30 9150 H 830.714 1.0967 -2.78591 0
M  V30 9151 H 828.26 0.52613 -1.34044 0
M  V30 9152 H 830.213 3.49508 -2.35419 0
M  V30 9153 H 828.937 3.03812 -1.19858 0
M  V30 9154 H 827.596 2.00914 -3.06642 0
M  V30 9155 H 827.244 4.40269 -2.43253 0
M  V30 9156 H 826.944 4.14093 -4.16894 0
M  V30 9157 H 828.468 4.90572 -3.63553 0
M  V30 9158 H 829.882 3.00647 -4.88143 0
M  V30 9159 H 828.279 2.47449 -5.46707 0
M  V30 9160 H 829.349 1.30753 -4.66939 0
M  V30 9161 N 830.692 1.47107 0.565454 0
M  V30 9162 C 831.917 1.57153 1.35343 0
M  V30 9163 C 832.342 0.219247 1.86818 0
M  V30 9164 O 831.7 -0.803539 1.62521 0
M  V30 9165 C 831.748 2.59387 2.50501 0
M  V30 9166 O 830.852 2.14086 3.52478 0
M  V30 9167 H 830.193 0.528209 0.402357 0
M  V30 9168 H 832.723 1.92821 0.684189 0
M  V30 9169 H 832.733 2.79546 2.97184 0
M  V30 9170 H 831.408 3.57579 2.12391 0
M  V30 9171 H 829.985 2.03991 3.12157 0
M  V30 9172 N 832.17 -0.811516 1.35101 0
M  V30 9173 C 833.102 -1.93102 1.23468 0
M  V30 9174 C 834.115 -1.62021 0.159095 0
M  V30 9175 O 835.304 -1.73682 0.411945 0
M  V30 9176 C 832.404 -3.27345 0.877404 0
M  V30 9177 C 831.577 -3.86368 2.05033 0
M  V30 9178 C 830.636 -4.99009 1.66963 0
M  V30 9179 O 829.662 -5.16698 2.38772 0
M  V30 9180 N 830.864 -5.7749 0.590394 0
M  V30 9181 H 833.629 -2.0361 2.19916 0
M  V30 9182 H 831.19 -0.988687 1.28205 0
M  V30 9183 H 833.182 -4.00163 0.604298 0
M  V30 9184 H 831.752 -3.126 0.00275267 0
M  V30 9185 H 830.972 -3.05804 2.48752 0
M  V30 9186 H 832.26 -4.22533 2.83449 0
M  V30 9187 H 831.658 -5.657 -0.00633259 0
M  V30 9188 H 830.215 -6.50708 0.377055 0
M  V30 9189 N 833.648 -1.19017 -1.03309 0
M  V30 9190 C 834.876 -1.01534 -1.80273 0
M  V30 9191 C 835.291 0.43605 -1.83696 0
M  V30 9192 O 834.648 1.30288 -1.27794 0
M  V30 9193 C 834.699 -1.5722 -3.25522 0
M  V30 9194 O 834.42 -2.96677 -3.22358 0
M  V30 9195 C 835.921 -1.4446 -4.19102 0
M  V30 9196 H 833.141 -0.358094 -0.567459 0
M  V30 9197 H 835.685 -1.57738 -1.3015 0
M  V30 9198 H 833.84 -1.05174 -3.7285 0
M  V30 9199 H 834.254 -3.22795 -4.13405 0
M  V30 9200 H 835.728 -1.88209 -5.18923 0
M  V30 9201 H 836.205 -0.394471 -4.37425 0
M  V30 9202 H 836.811 -1.95616 -3.77643 0
M  V30 9203 N 835.127 1.22348 -0.993418 0
M  V30 9204 C 836.538 1.72893 -0.704616 0
M  V30 9205 C 836.889 1.80095 0.778483 0
M  V30 9206 O 836.014 1.4476 1.60853 0
M  V30 9207 C 836.609 3.14 -1.27237 0
M  V30 9208 C 835.168 3.61949 -1.03294 0
M  V30 9209 C 834.315 2.39816 -1.39225 0
M  V30 9210 H 837.266 1.07688 -1.16572 0
M  V30 9211 H 837.287 3.74886 -0.651212 0
M  V30 9212 H 836.799 3.08727 -2.3518 0
M  V30 9213 H 834.9 3.72588 0.0298329 0
M  V30 9214 H 835.013 4.48051 -1.69668 0
M  V30 9215 H 833.377 2.41448 -0.810849 0
M  V30 9216 H 834.16 2.37203 -2.48172 0
M  V30 9217 N 836.605 0.766683 1.37694 0
M  V30 9218 C 838.016 0.394761 1.82479 0
M  V30 9219 C 838.367 -1.07842 1.63904 0
M  V30 9220 O 837.492 -1.83479 1.14737 0
M  V30 9221 C 838.087 0.70974 3.31283 0
M  V30 9222 C 836.646 0.390936 3.74364 0
M  V30 9223 C 835.793 0.956192 2.60293 0
M  V30 9224 H 838.744 0.961756 1.26238 0
M  V30 9225 H 838.765 -0.00742144 3.80499 0
M  V30 9226 H 838.277 1.782 3.4477 0
M  V30 9227 H 836.378 -0.674213 3.66449 0
M  V30 9228 H 836.491 0.895645 4.70654 0
M  V30 9229 H 834.855 0.380744 2.51838 0
M  V30 9230 H 835.638 2.03375 2.76575 0
M  V30 9231 N 838.083 -1.48885 0.516809 0
M  V30 9232 C 839.016 -2.26218 -0.30011 0
M  V30 9233 C 839.994 -1.31491 -0.956496 0
M  V30 9234 O 841.178 -1.6081 -0.983488 0
M  V30 9235 C 838.305 -3.07315 -1.42392 0
M  V30 9236 C 837.351 -4.17316 -0.880295 0
M  V30 9237 S 838.184 -5.34955 0.24146 0
M  V30 9238 C 839.34 -6.1961 -0.885138 0
M  V30 9239 H 839.573 -2.95158 0.356217 0
M  V30 9240 H 837.106 -1.5141 0.302365 0
M  V30 9241 H 839.064 -3.54619 -2.06775 0
M  V30 9242 H 837.725 -2.37813 -2.05192 0
M  V30 9243 H 836.918 -4.73635 -1.72297 0
M  V30 9244 H 836.52 -3.72685 -0.313396 0
M  V30 9245 H 838.812 -6.53513 -1.78682 0
M  V30 9246 H 839.755 -7.07183 -0.360226 0
M  V30 9247 H 840.163 -5.52461 -1.1596 0
M  V30 9248 N 839.561 -0.251338 -1.55583 0
M  V30 9249 C 840.493 0.679167 -2.18906 0
M  V30 9250 C 841.506 1.13545 -1.16667 0
M  V30 9251 O 842.695 1.06146 -1.4351 0
M  V30 9252 C 839.795 1.93544 -2.78198 0
M  V30 9253 C 838.968 1.62987 -4.05899 0
M  V30 9254 C 838.027 2.73618 -4.49466 0
M  V30 9255 O 837.053 2.40815 -5.15749 0
M  V30 9256 N 838.255 4.03204 -4.1762 0
M  V30 9257 H 841.02 0.137328 -2.99385 0
M  V30 9258 H 838.581 -0.0714754 -1.61742 0
M  V30 9259 H 840.573 2.66804 -3.04299 0
M  V30 9260 H 839.143 2.38695 -2.0185 0
M  V30 9261 H 838.363 0.732237 -3.8734 0
M  V30 9262 H 839.651 1.40041 -4.89148 0
M  V30 9263 H 839.049 4.32686 -3.64416 0
M  V30 9264 H 837.606 4.72916 -4.48547 0
M  V30 9265 N 841.039 1.57585 0.0217189 0
M  V30 9266 C 842.455 1.55072 0.377484 0
M  V30 9267 C 842.655 0.978423 1.76151 0
M  V30 9268 O 841.711 0.602688 2.45202 0
M  V30 9269 C 843.024 2.99462 0.272605 0
M  V30 9270 C 844.572 3.11047 0.349148 0
M  V30 9271 C 845.047 4.57182 0.273636 0
M  V30 9272 N 846.538 4.62007 0.332206 0
M  V30 9273 C 847.273 5.72631 0.296782 0
M  V30 9274 N 846.769 6.92472 0.21322 0
M  V30 9275 N 848.562 5.61028 0.347053 0
M  V30 9276 H 840.713 1.93133 -0.883925 0
M  V30 9277 H 842.976 0.886151 -0.33681 0
M  V30 9278 H 842.682 3.45088 -0.67878 0
M  V30 9279 H 842.556 3.61901 1.06335 0
M  V30 9280 H 844.943 2.65364 1.29097 0
M  V30 9281 H 845.024 2.51425 -0.471085 0
M  V30 9282 H 844.668 5.03534 -0.664548 0
M  V30 9283 H 844.598 5.14724 1.11207 0
M  V30 9284 H 847.089 3.75788 0.399003 0
M  V30 9285 H 847.402 7.72563 0.191492 0
M  V30 9286 H 845.747 6.94769 0.179161 0
M  V30 9287 H 848.938 4.66298 0.410378 0
M  V30 9288 H 849.111 6.47229 0.315979 0
M  V30 9289 N 842.517 -0.29412 1.54831 0
M  V30 9290 C 843.928 -0.866651 1.65366 0
M  V30 9291 C 844.279 -1.87834 0.56681 0
M  V30 9292 O 843.404 -2.14374 -0.295389 0
M  V30 9293 C 843.999 -1.57869 2.99771 0
M  V30 9294 C 842.558 -2.09954 3.12404 0
M  V30 9295 C 841.705 -0.934492 2.6108 0
M  V30 9296 H 844.656 -0.0709551 1.58541 0
M  V30 9297 H 844.677 -2.44462 2.91579 0
M  V30 9298 H 844.189 -0.84212 3.78853 0
M  V30 9299 H 842.29 -2.86637 2.38055 0
M  V30 9300 H 842.403 -2.32934 4.18663 0
M  V30 9301 H 840.767 -1.32199 2.17705 0
M  V30 9302 H 841.55 -0.211768 3.42646 0
M  V30 9303 N 843.995 -1.47404 -0.557645 0
M  V30 9304 C 845.241 -1.54235 -1.31679 0
M  V30 9305 C 845.574 -0.203782 -1.93128 0
M  V30 9306 O 844.849 0.787536 -1.77843 0
M  V30 9307 C 845.132 -2.66003 -2.42723 0
M  V30 9308 C 844.985 -4.09475 -1.86145 0
M  V30 9309 C 846.304 -2.73685 -3.44652 0
M  V30 9310 H 843.423 -0.561466 -0.477415 0
M  V30 9311 H 846.065 -1.79459 -0.624067 0
M  V30 9312 H 844.215 -2.44627 -3.01811 0
M  V30 9313 H 845.887 -4.42213 -1.31321 0
M  V30 9314 H 844.13 -4.17774 -1.16823 0
M  V30 9315 H 844.801 -4.83451 -2.66418 0
M  V30 9316 H 847.277 -2.92968 -2.95481 0
M  V30 9317 H 846.153 -3.53665 -4.19777 0
M  V30 9318 H 846.414 -1.80726 -4.03473 0
M  V30 9319 N 845.473 0.80434 -1.35529 0
M  V30 9320 C 846.383 1.94784 -1.30753 0
M  V30 9321 C 847.399 1.72703 -0.212071 0
M  V30 9322 O 848.575 1.96494 -0.441841 0
M  V30 9323 C 845.64 3.29406 -1.08133 0
M  V30 9324 C 844.701 3.64367 -2.27013 0
M  V30 9325 C 843.934 4.92566 -2.05463 0
M  V30 9326 O 844.157 5.61166 -1.02222 0
M  V30 9327 O 843.091 5.25838 -2.92879 0
M  V30 9328 H 846.917 2.01761 -2.26994 0
M  V30 9329 H 844.502 0.942448 -1.15924 0
M  V30 9330 H 846.384 4.09995 -0.973756 0
M  V30 9331 H 845.059 3.23355 -0.149444 0
M  V30 9332 H 843.966 2.84146 -2.43335 0
M  V30 9333 H 845.299 3.75125 -3.18656 0
M  V30 9334 N 846.951 1.19563 1.02676 0
M  V30 9335 C 848.362 1.00158 1.57561 0
M  V30 9336 C 848.713 -0.444922 1.91089 0
M  V30 9337 O 847.838 -1.32466 1.71119 0
M  V30 9338 C 848.433 1.81181 2.86284 0
M  V30 9339 C 846.992 1.66171 3.37734 0
M  V30 9340 C 846.139 1.7975 2.11152 0
M  V30 9341 H 849.09 1.33904 0.85179 0
M  V30 9342 H 849.111 1.30916 3.57269 0
M  V30 9343 H 848.623 2.86454 2.6185 0
M  V30 9344 H 846.724 0.634927 3.6715 0
M  V30 9345 H 846.837 2.46832 4.10622 0
M  V30 9346 H 845.201 1.22833 2.23123 0
M  V30 9347 H 845.984 2.86487 1.89157 0
M  V30 9348 N 848.429 -1.21819 0.999893 0
M  V30 9349 C 849.361 -2.23356 0.514256 0
M  V30 9350 C 850.374 -1.5795 -0.394413 0
M  V30 9351 O 851.563 -1.77427 -0.195428 0
M  V30 9352 C 848.663 -3.37797 -0.273207 0
M  V30 9353 C 847.836 -4.32791 0.633293 0
M  V30 9354 C 846.895 -5.26098 -0.103673 0
M  V30 9355 O 845.921 -5.66881 0.513269 0
M  V30 9356 N 847.123 -5.63764 -1.38383 0
M  V30 9357 H 849.888 -2.65653 1.3874 0
M  V30 9358 H 847.449 -1.3619 0.875431 0
M  V30 9359 H 849.441 -3.97209 -0.775053 0
M  V30 9360 H 848.011 -2.94527 -1.0475 0
M  V30 9361 H 847.231 -3.71595 1.31571 0
M  V30 9362 H 848.519 -4.93196 1.25039 0
M  V30 9363 H 847.917 -5.32614 -1.90627 0
M  V30 9364 H 846.474 -6.25562 -1.83073 0
M  V30 9365 N 849.908 -0.773975 -1.37286 0
M  V30 9366 C 850.818 -0.162571 -2.34036 0
M  V30 9367 C 851.834 0.677022 -1.60289 0
M  V30 9368 O 853.01 0.596423 -1.92366 0
M  V30 9369 C 850.075 0.70457 -3.39465 0
M  V30 9370 C 849.136 -0.151738 -4.29032 0
M  V30 9371 C 848.369 0.674111 -5.29426 0
M  V30 9372 O 848.592 1.91107 -5.37433 0
M  V30 9373 O 847.526 0.0821398 -6.01844 0
M  V30 9374 H 851.352 -0.962119 -2.88057 0
M  V30 9375 H 848.937 -0.53517 -1.39486 0
M  V30 9376 H 850.819 1.19954 -4.03967 0
M  V30 9377 H 849.494 1.48227 -2.87768 0
M  V30 9378 H 848.401 -0.693118 -3.67623 0
M  V30 9379 H 849.734 -0.892575 -4.84039 0
M  V30 9380 N 851.386 1.48609 -0.524698 0
M  V30 9381 C 852.634 2.02097 0.0112991 0
M  V30 9382 C 852.955 1.40455 1.35268 0
M  V30 9383 O 852.225 0.56807 1.87483 0
M  V30 9384 H 850.805 0.746966 0.00716426 0
M  V30 9385 H 853.467 1.82378 -0.687329 0
M  V30 9386 H 852.563 3.11855 0.123531 0
M  V30 9387 N 852.864 0.259585 1.55447 0
M  V30 9388 C 854.275 -0.241165 1.85136 0
M  V30 9389 C 854.626 -1.56634 1.18153 0
M  V30 9390 O 853.751 -2.11359 0.464351 0
M  V30 9391 C 854.346 -0.444355 3.35873 0
M  V30 9392 C 852.905 -0.889354 3.65742 0
M  V30 9393 C 852.052 0.0262474 2.77288 0
M  V30 9394 H 855.003 0.481808 1.51209 0
M  V30 9395 H 855.024 -1.28517 3.58139 0
M  V30 9396 H 854.536 0.520289 3.84597 0
M  V30 9397 H 852.637 -1.86602 3.22507 0
M  V30 9398 H 852.75 -0.737432 4.73391 0
M  V30 9399 H 851.114 -0.487361 2.49994 0
M  V30 9400 H 851.897 0.986494 3.28821 0
M  V30 9401 N 854.342 -1.57594 -0.0133615 0
M  V30 9402 C 855.292 -2.04048 -1.01726 0
M  V30 9403 C 856.276 -0.932682 -1.3111 0
M  V30 9404 O 857.468 -1.19652 -1.30432 0
M  V30 9405 C 854.597 -2.53637 -2.31351 0
M  V30 9406 C 853.683 -3.71269 -2.04989 0
M  V30 9407 N 854.074 -4.83436 -1.48739 0
M  V30 9408 C 852.372 -3.78943 -2.35198 0
M  V30 9409 C 853.073 -5.64961 -1.38542 0
M  V30 9410 N 852.049 -5.10554 -1.86643 0
M  V30 9411 H 855.851 -2.88188 -0.576623 0
M  V30 9412 H 853.365 -1.60912 -0.219344 0
M  V30 9413 H 855.362 -2.85186 -3.04096 0
M  V30 9414 H 854.022 -1.7091 -2.76079 0
M  V30 9415 H 855.033 -5.04558 -1.16798 0
M  V30 9416 H 851.71 -3.07047 -2.82893 0
M  V30 9417 H 853.1 -6.65092 -0.954075 0
M  V30 9418 N 855.82 0.285905 -1.54985 0
M  V30 9419 C 856.767 1.35306 -1.86978 0
M  V30 9420 C 857.737 1.49682 -0.720046 0
M  V30 9421 O 858.922 1.64297 -0.970107 0
M  V30 9422 C 856.062 2.71059 -2.13591 0
M  V30 9423 C 855.175 2.6501 -3.41165 0
M  V30 9424 C 854.31 3.92856 -3.57544 0
M  V30 9425 C 853.349 3.81266 -4.78855 0
M  V30 9426 N 852.486 5.00919 -4.9196 0
M  V30 9427 H 857.326 1.07323 -2.78003 0
M  V30 9428 H 854.863 0.518776 -1.37649 0
M  V30 9429 H 856.821 3.50026 -2.27019 0
M  V30 9430 H 855.451 2.97271 -1.25816 0
M  V30 9431 H 854.503 1.77824 -3.36278 0
M  V30 9432 H 855.815 2.52342 -4.30262 0
M  V30 9433 H 854.969 4.80263 -3.70718 0
M  V30 9434 H 853.708 4.08377 -2.66608 0
M  V30 9435 H 852.713 2.92243 -4.65698 0
M  V30 9436 H 853.938 3.67277 -5.71213 0
M  V30 9437 H 851.884 5.16875 -4.03951 0
M  V30 9438 H 851.801 4.90732 -5.75081 0
M  V30 9439 H 853.069 5.89935 -5.09507 0
M  V30 9440 N 857.298 1.47698 0.54982 0
M  V30 9441 C 858.523 1.58579 1.33669 0
M  V30 9442 C 858.948 0.239049 1.86575 0
M  V30 9443 O 858.306 -0.786256 1.63364 0
M  V30 9444 C 858.354 2.62029 2.47736 0
M  V30 9445 O 857.458 2.17813 3.50188 0
M  V30 9446 H 856.799 0.532447 0.396732 0
M  V30 9447 H 859.329 1.93536 0.6637 0
M  V30 9448 H 859.339 2.82682 2.94202 0
M  V30 9449 H 858.014 3.59812 2.08586 0
M  V30 9450 H 856.591 2.07291 3.09976 0
M  V30 9451 N 858.776 -0.797141 1.35954 0
M  V30 9452 C 859.706 -1.92387 1.32323 0
M  V30 9453 C 860.687 -1.68967 0.196007 0
M  V30 9454 O 861.872 -1.90193 0.39245 0
M  V30 9455 C 859.002 -3.29286 1.10398 0
M  V30 9456 C 857.956 -3.67212 2.19862 0
M  V30 9457 C 857.282 -5.02377 1.8309 0
M  V30 9458 C 858.582 -3.76602 3.61896 0
M  V30 9459 H 860.276 -1.95683 2.26602 0
M  V30 9460 H 857.822 -0.94007 1.09081 0
M  V30 9461 H 859.775 -4.07721 1.06495 0
M  V30 9462 H 858.499 -3.26358 0.125668 0
M  V30 9463 H 857.158 -2.91069 2.22878 0
M  V30 9464 H 856.806 -4.95961 0.838527 0
M  V30 9465 H 856.506 -5.28722 2.56372 0
M  V30 9466 H 858.03 -5.8324 1.80729 0
M  V30 9467 H 859.444 -4.45246 3.6115 0
M  V30 9468 H 857.841 -4.14425 4.34018 0
M  V30 9469 H 858.911 -2.77906 3.97361 0
M  V30 9470 N 860.254 -1.20106 -1.0204 0
M  V30 9471 C 861.5 -1.01039 -1.75838 0
M  V30 9472 C 861.833 0.456819 -1.88751 0
M  V30 9473 O 861.108 1.33919 -1.41053 0
M  V30 9474 C 861.391 -1.69009 -3.17975 0
M  V30 9475 C 861.244 -3.2315 -3.1288 0
M  V30 9476 C 862.563 -1.42005 -4.16561 0
M  V30 9477 H 859.682 -0.368465 -0.638281 0
M  V30 9478 H 862.324 -1.48066 -1.19064 0
M  V30 9479 H 860.474 -1.29026 -3.66449 0
M  V30 9480 H 862.146 -3.72402 -2.72239 0
M  V30 9481 H 860.389 -3.54253 -2.50374 0
M  V30 9482 H 861.06 -3.65862 -4.13339 0
M  V30 9483 H 863.536 -1.76685 -3.76725 0
M  V30 9484 H 862.412 -1.92101 -5.14187 0
M  V30 9485 H 862.673 -0.346884 -4.40737 0
M  V30 9486 N 861.732 1.21287 -1.00634 0
M  V30 9487 C 862.695 2.21927 -0.572821 0
M  V30 9488 C 863.695 1.5691 0.351541 0
M  V30 9489 O 864.885 1.73623 0.141643 0
M  V30 9490 C 862.017 3.40501 0.164932 0
M  V30 9491 H 863.21 2.61795 -1.463 0
M  V30 9492 H 860.763 1.34571 -0.794998 0
M  V30 9493 H 861.498 3.06123 1.07049 0
M  V30 9494 H 861.283 3.88912 -0.498962 0
M  V30 9495 H 862.773 4.15103 0.455945 0
M  V30 9496 N 863.21 0.781244 1.36873 0
M  V30 9497 C 864.16 0.147313 2.27524 0
M  V30 9498 C 865.144 -0.663928 1.46563 0
M  V30 9499 O 866.336 -0.525343 1.69024 0
M  V30 9500 C 863.465 -0.723511 3.35589 0
M  V30 9501 C 862.551 0.0960763 4.23991 0
M  V30 9502 N 862.942 1.14649 4.92635 0
M  V30 9503 C 861.24 -0.126397 4.45821 0
M  V30 9504 C 861.941 1.64474 5.57964 0
M  V30 9505 N 860.917 0.955316 5.3514 0
M  V30 9506 H 864.719 0.951406 2.78075 0
M  V30 9507 H 862.233 0.619913 1.50103 0
M  V30 9508 H 864.23 -1.19351 3.99451 0
M  V30 9509 H 862.89 -1.52624 2.86594 0
M  V30 9510 H 863.901 1.5288 4.94821 0
M  V30 9511 H 860.578 -0.900284 4.07678 0
M  V30 9512 H 861.968 2.52124 6.22803 0
M  V30 9513 N 864.689 -1.48329 0.532571 0
M  V30 9514 C 866.105 -1.58458 0.190605 0
M  V30 9515 C 866.305 -1.53427 -1.30623 0
M  V30 9516 O 865.361 -1.4247 -2.08467 0
M  V30 9517 C 866.674 -2.89989 0.79543 0
M  V30 9518 C 868.222 -3.03523 0.7644 0
M  V30 9519 C 868.697 -4.37718 1.34785 0
M  V30 9520 N 870.188 -4.44292 1.30993 0
M  V30 9521 C 870.923 -5.4664 1.73124 0
M  V30 9522 N 870.419 -6.5593 2.22997 0
M  V30 9523 N 872.212 -5.37538 1.64346 0
M  V30 9524 H 864.363 -1.49842 1.50537 0
M  V30 9525 H 866.626 -0.71164 0.626316 0
M  V30 9526 H 866.332 -2.99333 1.84642 0
M  V30 9527 H 866.206 -3.76203 0.27403 0
M  V30 9528 H 868.593 -2.93789 -0.277831 0
M  V30 9529 H 868.674 -2.18912 1.3233 0
M  V30 9530 H 868.318 -4.48206 2.38902 0
M  V30 9531 H 868.248 -5.21019 0.764609 0
M  V30 9532 H 870.739 -3.65897 0.944868 0
M  V30 9533 H 871.052 -7.30167 2.53133 0
M  V30 9534 H 869.397 -6.56886 2.26992 0
M  V30 9535 H 872.588 -4.51052 1.25178 0
M  V30 9536 H 872.761 -6.17169 1.97501 0
M  V30 9537 N 866.167 -0.267825 -1.55308 0
M  V30 9538 C 867.413 0.351556 -1.9973 0
M  V30 9539 C 867.746 1.56049 -1.15596 0
M  V30 9540 O 867.021 1.93203 -0.224274 0
M  V30 9541 C 867.304 0.74091 -3.52395 0
M  V30 9542 C 867.157 -0.474861 -4.47286 0
M  V30 9543 C 868.476 1.5801 -4.10756 0
M  V30 9544 H 865.595 0.126308 -0.726096 0
M  V30 9545 H 868.237 -0.373316 -1.86296 0
M  V30 9546 H 866.387 1.35851 -3.63973 0
M  V30 9547 H 868.059 -1.1134 -4.47662 0
M  V30 9548 H 866.302 -1.11425 -4.19246 0
M  V30 9549 H 866.973 -0.158782 -5.51772 0
M  V30 9550 H 869.449 1.05857 -4.0241 0
M  V30 9551 H 868.325 1.82135 -5.17801 0
M  V30 9552 H 868.586 2.55878 -3.60526 0
M  V30 9553 N 867.645 1.57599 0.00500368 0
M  V30 9554 C 869.056 1.78462 0.54848 0
M  V30 9555 C 869.407 0.901869 1.74243 0
M  V30 9556 O 868.532 0.103014 2.16155 0
M  V30 9557 C 869.127 3.2365 1.00179 0
M  V30 9558 C 867.686 3.45627 1.49061 0
M  V30 9559 C 866.833 2.73794 0.439531 0
M  V30 9560 H 869.784 1.57151 -0.22118 0
M  V30 9561 H 869.805 3.31488 1.86805 0
M  V30 9562 H 869.317 3.87873 0.132607 0
M  V30 9563 H 867.418 2.86612 2.38085 0
M  V30 9564 H 867.531 4.54298 1.52152 0
M  V30 9565 H 865.895 2.38267 0.900043 0
M  V30 9566 H 866.678 3.40714 -0.420599 0
M  V30 9567 N 869.123 -0.277682 1.55134 0
M  V30 9568 C 870.053 -1.34742 1.90701 0
M  V30 9569 C 871.034 -1.51757 0.768354 0
M  V30 9570 O 872.219 -1.64879 1.02609 0
M  V30 9571 C 869.349 -2.70775 2.17481 0
M  V30 9572 C 868.303 -2.68497 3.33307 0
M  V30 9573 C 867.629 -4.08037 3.45557 0
M  V30 9574 C 868.929 -2.28178 4.69821 0
M  V30 9575 H 870.623 -1.05224 2.803 0
M  V30 9576 H 868.169 -0.504738 1.34864 0
M  V30 9577 H 870.122 -3.45719 2.40949 0
M  V30 9578 H 868.846 -3.01867 1.24676 0
M  V30 9579 H 867.505 -1.9601 3.09799 0
M  V30 9580 H 867.153 -4.36344 2.50226 0
M  V30 9581 H 866.853 -4.07409 4.23429 0
M  V30 9582 H 868.377 -4.84726 3.71312 0
M  V30 9583 H 869.791 -2.92843 4.92865 0
M  V30 9584 H 868.188 -2.3872 5.50575 0
M  V30 9585 H 869.258 -1.23308 4.6896 0
M  V30 9586 N 870.601 -1.47988 -0.541979 0
M  V30 9587 C 871.548 -1.61615 -1.6477 0
M  V30 9588 C 872.518 -0.458602 -1.59644 0
M  V30 9589 O 873.703 -0.680585 -1.78249 0
M  V30 9590 C 870.843 -1.65066 -3.03063 0
M  V30 9591 C 869.956 -2.91845 -3.18513 0
M  V30 9592 C 869.091 -2.86534 -4.47294 0
M  V30 9593 C 868.13 -4.0807 -4.5623 0
M  V30 9594 N 867.267 -4.00905 -5.76385 0
M  V30 9595 H 872.107 -2.56046 -1.52461 0
M  V30 9596 H 869.644 -1.26989 -0.742449 0
M  V30 9597 H 871.602 -1.65049 -3.83164 0
M  V30 9598 H 870.232 -0.74136 -3.14171 0
M  V30 9599 H 869.284 -3.01661 -2.31743 0
M  V30 9600 H 870.596 -3.81804 -3.20978 0
M  V30 9601 H 869.75 -2.84851 -5.35672 0
M  V30 9602 H 868.489 -1.94283 -4.47332 0
M  V30 9603 H 867.494 -4.10041 -3.66261 0
M  V30 9604 H 868.719 -5.01465 -4.5794 0
M  V30 9605 H 866.665 -3.11467 -5.77342 0
M  V30 9606 H 866.582 -4.84557 -5.80293 0
M  V30 9607 H 867.85 -4.03263 -6.67083 0
M  V30 9608 N 872.079 0.78992 -1.36375 0
M  V30 9609 C 873.49 1.36506 -1.2737 0
M  V30 9610 C 873.841 1.96008 0.086711 0
M  V30 9611 O 872.966 1.92521 0.988159 0
M  V30 9612 C 873.561 2.48175 -2.30639 0
M  V30 9613 C 872.12 3.01506 -2.25325 0
M  V30 9614 C 871.267 1.74581 -2.15445 0
M  V30 9615 H 874.218 0.591606 -1.47261 0
M  V30 9616 H 874.239 3.27179 -1.94253 0
M  V30 9617 H 873.751 2.04838 -3.2964 0
M  V30 9618 H 871.852 3.49265 -1.29788 0
M  V30 9619 H 871.965 3.58355 -3.17992 0
M  V30 9620 H 870.329 1.96794 -1.61692 0
M  V30 9621 H 871.112 1.33373 -3.16333 0
M  V30 9622 N 873.557 1.20646 1.01402 0
M  V30 9623 C 874.787 1.04238 1.78376 0
M  V30 9624 C 875.195 -0.411327 1.84675 0
M  V30 9625 O 874.538 -1.29734 1.30057 0
M  V30 9626 C 874.6 1.55349 3.24202 0
M  V30 9627 C 874.264 3.03684 3.41504 0
M  V30 9628 C 875.261 4.01318 3.30514 0
M  V30 9629 C 872.946 3.42698 3.67237 0
M  V30 9630 C 874.94 5.35956 3.45007 0
M  V30 9631 C 872.627 4.77491 3.81373 0
M  V30 9632 C 873.625 5.73929 3.70263 0
M  V30 9633 O 873.313 7.06277 3.83963 0
M  V30 9634 H 873.045 0.366978 0.567718 0
M  V30 9635 H 875.599 1.60235 1.28506 0
M  V30 9636 H 873.829 0.93739 3.75166 0
M  V30 9637 H 875.518 1.34921 3.8282 0
M  V30 9638 H 876.284 3.72522 3.10568 0
M  V30 9639 H 872.163 2.68175 3.74971 0
M  V30 9640 H 875.707 6.11212 3.36252 0
M  V30 9641 H 871.604 5.05977 4.00821 0
M  V30 9642 H 872.372 7.13561 4.00965 0
M  V30 9643 N 875.035 -1.20752 1.01276 0
M  V30 9644 C 875.998 -2.2162 0.584583 0
M  V30 9645 C 876.998 -1.57094 -0.343215 0
M  V30 9646 O 878.188 -1.73696 -0.132433 0
M  V30 9647 C 875.32 -3.40583 -0.146872 0
M  V30 9648 H 876.513 -2.61015 1.47686 0
M  V30 9649 H 874.066 -1.34148 0.802123 0
M  V30 9650 H 874.801 -3.06686 -1.05424 0
M  V30 9651 H 874.586 -3.88642 0.51958 0
M  V30 9652 H 876.076 -4.15339 -0.433924 0
M  V30 9653 N 876.513 -0.788492 -1.36457 0
M  V30 9654 C 877.476 -0.192209 -2.28393 0
M  V30 9655 C 878.476 0.609916 -1.48784 0
M  V30 9656 O 879.666 0.431046 -1.68783 0
M  V30 9657 C 876.798 0.734096 -3.32902 0
M  V30 9658 H 877.991 -1.00284 -2.82636 0
M  V30 9659 H 875.544 -0.557852 -1.46006 0
M  V30 9660 H 876.279 1.5691 -2.83813 0
M  V30 9661 H 876.064 0.160875 -3.9177 0
M  V30 9662 H 877.554 1.1462 -4.01562 0
M  V30 9663 N 877.991 1.48044 -0.54043 0
M  V30 9664 C 879.402 1.86418 -0.102662 0
M  V30 9665 C 879.753 1.4489 1.32293 0
M  V30 9666 O 878.878 0.844319 1.99249 0
M  V30 9667 C 879.473 3.38324 -0.179533 0
M  V30 9668 C 878.032 3.75852 0.203098 0
M  V30 9669 C 877.179 2.72097 -0.534637 0
M  V30 9670 H 880.13 1.398 -0.751103 0
M  V30 9671 H 880.151 3.75641 0.606147 0
M  V30 9672 H 879.663 3.68518 -1.21721 0
M  V30 9673 H 877.764 3.51272 1.24252 0
M  V30 9674 H 877.877 4.78884 -0.143784 0
M  V30 9675 H 876.241 2.54692 0.0203358 0
M  V30 9676 H 877.024 3.05135 -1.57314 0
M  V30 9677 N 879.47 0.276058 1.55163 0
M  V30 9678 C 880.716 -0.340959 1.99913 0
M  V30 9679 C 881.049 -1.55434 1.16422 0
M  V30 9680 O 880.324 -1.93081 0.234517 0
M  V30 9681 C 880.607 -0.722211 3.52783 0
M  V30 9682 C 880.46 0.498575 4.47028 0
M  V30 9683 C 881.779 -1.5583 4.11589 0
M  V30 9684 H 878.898 -0.122455 0.726756 0
M  V30 9685 H 881.54 0.38319 1.86096 0
M  V30 9686 H 879.69 -1.33919 3.64689 0
M  V30 9687 H 881.362 1.13713 4.47065 0
M  V30 9688 H 879.605 1.13646 4.18649 0
M  V30 9689 H 880.276 0.188041 5.5168 0
M  V30 9690 H 882.752 -1.03722 4.02965 0
M  V30 9691 H 881.628 -1.79387 5.1876 0
M  V30 9692 H 881.889 -2.53963 3.61877 0
M  V30 9693 N 880.948 -1.576 0.00335426 0
M  V30 9694 C 882.359 -1.7875 -0.539008 0
M  V30 9695 C 882.71 -0.911097 -1.73763 0
M  V30 9696 O 881.835 -0.114476 -2.16097 0
M  V30 9697 C 882.43 -3.24177 -0.984611 0
M  V30 9698 C 880.989 -3.46412 -1.47226 0
M  V30 9699 C 880.136 -2.74024 -0.425004 0
M  V30 9700 H 883.087 -1.57032 0.229511 0
M  V30 9701 H 883.108 -3.32474 -1.85044 0
M  V30 9702 H 882.62 -3.87938 -0.112035 0
M  V30 9703 H 880.721 -2.8787 -2.36562 0
M  V30 9704 H 880.834 -4.55098 -1.49741 0
M  V30 9705 H 879.198 -2.38741 -0.887394 0
M  V30 9706 H 879.981 -3.40486 0.438662 0
M  V30 9707 N 882.426 0.269451 -1.5528 0
M  V30 9708 C 883.842 0.616827 -1.47199 0
M  V30 9709 C 884.042 1.89354 -0.68901 0
M  V30 9710 O 883.098 2.51631 -0.209287 0
M  V30 9711 C 884.411 0.740492 -2.9144 0
M  V30 9712 C 885.959 0.834312 -3.01676 0
M  V30 9713 C 886.434 0.989725 -4.47178 0
M  V30 9714 N 887.925 1.05516 -4.51022 0
M  V30 9715 C 888.66 1.19427 -5.60825 0
M  V30 9716 N 888.156 1.30035 -6.80487 0
M  V30 9717 N 889.949 1.22566 -5.48575 0
M  V30 9718 H 882.1 -0.568962 -2.04638 0
M  V30 9719 H 884.363 -0.193153 -0.928114 0
M  V30 9720 H 884.069 -0.127234 -3.5147 0
M  V30 9721 H 883.943 1.61965 -3.40657 0
M  V30 9722 H 886.33 1.6925 -2.4174 0
M  V30 9723 H 886.411 -0.0695298 -2.55705 0
M  V30 9724 H 886.055 0.136179 -5.07717 0
M  V30 9725 H 885.985 1.90827 -4.90808 0
M  V30 9726 H 888.476 0.985434 -3.64825 0
M  V30 9727 H 888.789 1.40494 -7.59922 0
M  V30 9728 H 887.134 1.27033 -6.83292 0
M  V30 9729 H 890.325 1.13911 -4.54029 0
M  V30 9730 H 890.498 1.33063 -6.34191 0
M  V30 9731 N 883.904 1.48273 0.534124 0
M  V30 9732 C 885.129 1.59988 1.31979 0
M  V30 9733 C 885.554 0.258824 1.86311 0
M  V30 9734 O 884.912 -0.768885 1.64188 0
M  V30 9735 C 884.96 2.64642 2.44943 0
M  V30 9736 O 884.064 2.21515 3.47858 0
M  V30 9737 H 883.405 0.536625 0.391063 0
M  V30 9738 H 885.935 1.94229 0.643135 0
M  V30 9739 H 885.945 2.85786 2.91187 0
M  V30 9740 H 884.62 3.62004 2.04758 0
M  V30 9741 H 883.197 2.10567 3.0776 0
M  V30 9742 N 885.382 -0.782676 1.36792 0
M  V30 9743 C 886.314 -1.9044 1.27536 0
M  V30 9744 C 887.327 -1.61647 0.193426 0
M  V30 9745 O 888.516 -1.72769 0.448692 0
M  V30 9746 C 885.616 -3.2541 0.946641 0
M  V30 9747 C 884.789 -3.81932 2.13183 0
M  V30 9748 C 883.848 -4.95355 1.7751 0
M  V30 9749 O 882.874 -5.11517 2.49678 0
M  V30 9750 N 884.076 -5.76108 0.712755 0
M  V30 9751 H 886.841 -1.98899 2.24186 0
M  V30 9752 H 884.402 -0.96127 1.30274 0
M  V30 9753 H 886.394 -3.98791 0.689043 0
M  V30 9754 H 884.964 -3.12524 0.0690591 0
M  V30 9755 H 884.184 -3.00459 2.55183 0
M  V30 9756 H 885.472 -4.16426 2.92347 0
M  V30 9757 H 884.87 -5.65586 0.113662 0
M  V30 9758 H 883.427 -6.49762 0.514995 0
M  V30 9759 N 886.86 -1.21182 -1.00761 0
M  V30 9760 C 888.085 -1.05411 -1.78615 0
M  V30 9761 C 888.51 0.391837 -1.83973 0
M  V30 9762 O 887.868 1.28256 -1.28141 0
M  V30 9763 C 887.916 -1.65285 -3.20489 0
M  V30 9764 O 887.02 -0.896558 -4.02536 0
M  V30 9765 H 886.361 -0.37116 -0.550578 0
M  V30 9766 H 888.891 -1.60669 -1.26676 0
M  V30 9767 H 888.901 -1.69397 -3.71172 0
M  V30 9768 H 887.576 -2.70514 -3.15904 0
M  V30 9769 H 886.153 -0.930335 -3.61108 0
M  V30 9770 N 888.338 1.20213 -1.01915 0
M  V30 9771 C 889.268 2.25336 -0.612023 0
M  V30 9772 C 890.249 1.65933 0.374186 0
M  V30 9773 O 891.434 1.92464 0.259053 0
M  V30 9774 C 888.564 3.47267 0.047904 0
M  V30 9775 C 887.518 4.1928 -0.859557 0
M  V30 9776 C 886.844 5.3466 -0.0652655 0
M  V30 9777 C 888.144 4.75143 -2.1688 0
M  V30 9778 H 889.838 2.59645 -1.49079 0
M  V30 9779 H 887.384 1.24808 -0.718263 0
M  V30 9780 H 889.337 4.19991 0.344294 0
M  V30 9781 H 888.061 3.12129 0.961404 0
M  V30 9782 H 886.72 3.48425 -1.13999 0
M  V30 9783 H 886.368 4.95767 0.849964 0
M  V30 9784 H 886.068 5.83772 -0.669618 0
M  V30 9785 H 887.592 6.10187 0.224612 0
M  V30 9786 H 889.006 5.39672 -1.9346 0
M  V30 9787 H 887.403 5.34702 -2.72422 0
M  V30 9788 H 888.473 3.93744 -2.83008 0
M  V30 9789 N 889.816 0.795718 1.36037 0
M  V30 9790 C 890.748 0.156336 2.28666 0
M  V30 9791 C 891.761 -0.638075 1.49775 0
M  V30 9792 O 892.95 -0.472222 1.7214 0
M  V30 9793 C 890.05 -0.801417 3.29288 0
M  V30 9794 C 889.223 -0.0557118 4.37365 0
M  V30 9795 C 888.282 -0.930338 5.1791 0
M  V30 9796 O 887.308 -0.385266 5.67895 0
M  V30 9797 N 888.51 -2.25382 5.34961 0
M  V30 9798 H 891.275 0.952033 2.84177 0
M  V30 9799 H 888.836 0.650189 1.48271 0
M  V30 9800 H 890.828 -1.39051 3.80062 0
M  V30 9801 H 889.398 -1.49796 2.74372 0
M  V30 9802 H 888.618 0.714508 3.87671 0
M  V30 9803 H 889.906 0.458633 5.06729 0
M  V30 9804 H 889.304 -2.72073 4.95977 0
M  V30 9805 H 887.861 -2.79241 5.88955 0
M  V30 9806 N 891.294 -1.47756 0.548274 0
M  V30 9807 C 892.571 -1.9555 -0.0443603 0
M  V30 9808 C 892.951 -1.49079 -1.49462 0
M  V30 9809 O 892.299 -0.725538 -2.16675 0
M  V30 9810 C 892.509 -3.48879 0.0918425 0
M  V30 9811 C 893.857 -4.2456 -0.0580879 0
M  V30 9812 O 894.881 -3.56195 0.018946 0
M  V30 9813 O 893.74 -5.46048 -0.222261 0
M  V30 9814 H 890.834 -0.824106 -0.0691235 0
M  V30 9815 H 893.38 -1.58196 0.614166 0
M  V30 9816 H 892.152 -3.7548 1.10137 0
M  V30 9817 H 891.775 -3.92975 -0.604704 0
M  V30 9818 N 892.772 -0.284283 -1.55015 0
M  V30 9819 C 893.704 0.63258 -2.20298 0
M  V30 9820 C 894.717 1.11045 -1.1905 0
M  V30 9821 O 895.906 1.03078 -1.4573 0
M  V30 9822 C 893.006 1.87599 -2.82241 0
M  V30 9823 C 892.179 1.5434 -4.09265 0
M  V30 9824 C 891.238 2.64023 -4.55169 0
M  V30 9825 O 890.264 2.29821 -5.20741 0
M  V30 9826 N 891.466 3.94255 -4.26079 0
M  V30 9827 H 894.231 0.0737928 -2.99609 0
M  V30 9828 H 891.792 -0.105767 -1.61554 0
M  V30 9829 H 893.784 2.60289 -3.0989 0
M  V30 9830 H 892.354 2.3436 -2.06868 0
M  V30 9831 H 891.574 0.649912 -3.88806 0
M  V30 9832 H 892.862 1.29634 -4.92009 0
M  V30 9833 H 892.26 4.24859 -3.73512 0
M  V30 9834 H 890.817 4.63295 -4.58477 0
M  V30 9835 N 894.251 1.57596 -0.0117121 0
M  V30 9836 C 895.662 1.79033 0.529521 0
M  V30 9837 C 896.013 0.920299 1.73277 0
M  V30 9838 O 895.138 0.125934 2.16033 0
M  V30 9839 C 895.733 3.24695 0.967405 0
M  V30 9840 C 894.292 3.47188 1.45387 0
M  V30 9841 C 893.439 2.74245 0.410466 0
M  V30 9842 H 896.39 1.56908 -0.237836 0
M  V30 9843 H 896.411 3.33451 1.83278 0
M  V30 9844 H 895.923 3.87992 0.0914605 0
M  V30 9845 H 894.024 2.89121 2.35032 0
M  V30 9846 H 894.137 4.55886 1.47325 0
M  V30 9847 H 892.501 2.39209 0.874721 0
M  V30 9848 H 893.284 3.40248 -0.456713 0
M  V30 9849 N 895.729 -0.261212 1.5542 0
M  V30 9850 C 896.957 -1.00916 1.8062 0
M  V30 9851 C 897.372 -1.79494 0.585444 0
M  V30 9852 O 896.729 -1.76974 -0.445702 0
M  V30 9853 C 896.78 -1.95841 3.03856 0
M  V30 9854 O 896.501 -1.20445 4.21218 0
M  V30 9855 C 898.002 -2.82352 3.41749 0
M  V30 9856 H 895.222 -0.297596 0.601397 0
M  V30 9857 H 897.766 -0.288427 2.02456 0
M  V30 9858 H 895.921 -2.63361 2.84112 0
M  V30 9859 H 896.335 -1.84528 4.90968 0
M  V30 9860 H 897.809 -3.44733 4.31118 0
M  V30 9861 H 898.286 -3.5273 2.61683 0
M  V30 9862 H 898.892 -2.20306 3.63793 0
M  V30 9863 N 897.207 -1.48554 -0.526253 0
M  V30 9864 C 898.623 -1.34757 -0.855138 0
M  V30 9865 C 898.823 -0.36142 -1.98232 0
M  V30 9866 O 897.879 0.216026 -2.51574 0
M  V30 9867 C 899.192 -2.74877 -1.21915 0
M  V30 9868 C 900.74 -2.83393 -1.32882 0
M  V30 9869 C 901.215 -4.24223 -1.72624 0
M  V30 9870 N 902.706 -4.26913 -1.7972 0
M  V30 9871 C 903.441 -5.32824 -2.11863 0
M  V30 9872 N 902.937 -6.49008 -2.42405 0
M  V30 9873 N 904.73 -5.20221 -2.12901 0
M  V30 9874 H 896.881 -2.11284 0.217422 0
M  V30 9875 H 899.144 -0.947367 0.0346362 0
M  V30 9876 H 898.85 -3.48619 -0.464486 0
M  V30 9877 H 898.724 -3.0864 -2.16844 0
M  V30 9878 H 901.111 -2.09904 -2.07424 0
M  V30 9879 H 901.192 -2.53245 -0.360638 0
M  V30 9880 H 900.836 -4.98229 -0.986411 0
M  V30 9881 H 900.766 -4.51817 -2.70498 0
M  V30 9882 H 903.257 -3.4311 -1.58379 0
M  V30 9883 H 903.57 -7.25561 -2.66048 0
M  V30 9884 H 901.915 -6.52277 -2.39917 0
M  V30 9885 H 905.106 -4.28469 -1.885 0
M  V30 9886 H 905.279 -6.02861 -2.37619 0
M  V30 9887 N 898.685 0.775411 -1.37205 0
M  V30 9888 C 899.633 1.90996 -1.32752 0
M  V30 9889 C 900.627 1.68006 -0.216907 0
M  V30 9890 O 901.833 1.7584 -0.384723 0
M  V30 9891 H 898.208 0.62803 -0.413621 0
M  V30 9892 H 900.179 1.91869 -2.28536 0
M  V30 9893 C 898.928 3.28211 -1.14772 0
M  V30 9894 H 898.251 3.46477 -1.99484 0
M  V30 9895 H 899.691 4.07907 -1.15706 0
M  V30 9896 C 898.15 3.3658 0.146852 0
M  V30 9897 O 898.68 3.85428 1.13173 0
M  V30 9898 N 896.886 2.89936 0.196305 0
M  V30 9899 H 896.433 2.50375 -0.605807 0
M  V30 9900 H 896.391 2.95916 1.06212 0
M  V30 9901 N 900.163 1.21714 1.00117 0
M  V30 9902 C 901.093 1.00397 2.10815 0
M  V30 9903 C 902.074 -0.0723502 1.69946 0
M  V30 9904 O 903.259 0.0882398 1.93999 0
M  V30 9905 C 900.389 0.572001 3.42557 0
M  V30 9906 C 899.343 1.59331 3.97237 0
M  V30 9907 C 898.669 1.01746 5.2493 0
M  V30 9908 C 899.969 2.98117 4.28863 0
M  V30 9909 H 901.663 1.92983 2.28906 0
M  V30 9910 H 899.209 0.929273 1.10002 0
M  V30 9911 H 901.162 0.410018 4.19401 0
M  V30 9912 H 899.886 -0.38951 3.24269 0
M  V30 9913 H 898.545 1.74293 3.22518 0
M  V30 9914 H 898.193 0.0475491 5.02978 0
M  V30 9915 H 897.893 1.69969 5.62481 0
M  V30 9916 H 899.417 0.866881 6.04415 0
M  V30 9917 H 900.831 2.86578 4.96534 0
M  V30 9918 H 899.228 3.63389 4.77565 0
M  V30 9919 H 900.298 3.48674 3.36979 0
M  V30 9920 N 901.641 -1.19671 1.02551 0
M  V30 9921 C 902.604 -2.20987 0.608055 0
M  V30 9922 C 903.604 -1.5745 -0.326534 0
M  V30 9923 O 904.794 -1.73827 -0.114003 0
M  V30 9924 C 901.926 -3.4072 -0.11074 0
M  V30 9925 H 903.119 -2.59434 1.50446 0
M  V30 9926 H 900.672 -1.3329 0.816307 0
M  V30 9927 H 901.407 -3.07787 -1.02165 0
M  V30 9928 H 901.192 -3.88069 0.560772 0
M  V30 9929 H 902.682 -4.15776 -0.389848 0
M  V30 9930 N 903.119 -0.802921 -1.35613 0
M  V30 9931 C 904.082 -0.216422 -2.28176 0
M  V30 9932 C 905.082 0.594101 -1.49422 0
M  V30 9933 O 906.272 0.41312 -1.6923 0
M  V30 9934 C 903.404 0.698746 -3.33662 0
M  V30 9935 H 904.597 -1.03276 -2.81557 0
M  V30 9936 H 902.15 -0.573307 -1.45406 0
M  V30 9937 H 902.885 1.53891 -2.85461 0
M  V30 9938 H 902.67 0.119314 -3.91918 0
M  V30 9939 H 904.16 1.10354 -4.02755 0
M  V30 9940 N 904.597 1.47463 -0.556102 0
M  V30 9941 C 905.844 2.02475 -0.0316337 0
M  V30 9942 C 906.172 1.43057 1.31777 0
M  V30 9943 O 905.427 0.575376 1.87051 0
M  V30 9944 C 905.726 3.57224 0.112126 0
M  V30 9945 C 905.392 4.35557 -1.16624 0
M  V30 9946 C 904.054 4.56678 -1.51654 0
M  V30 9947 C 906.406 4.8074 -2.01342 0
M  V30 9948 C 903.734 5.20231 -2.7125 0
M  V30 9949 C 906.086 5.45613 -3.2014 0
M  V30 9950 C 904.75 5.64967 -3.55484 0
M  V30 9951 H 904.02 0.74091 -0.0115756 0
M  V30 9952 H 906.667 1.77148 -0.727392 0
M  V30 9953 H 904.972 3.81538 0.890842 0
M  V30 9954 H 906.669 3.97438 0.533261 0
M  V30 9955 H 903.259 4.19395 -0.883489 0
M  V30 9956 H 907.443 4.64201 -1.75587 0
M  V30 9957 H 902.699 5.3341 -2.98804 0
M  V30 9958 H 906.873 5.79587 -3.86073 0
M  V30 9959 H 904.5 6.13984 -4.4825 0
M  V30 9960 N 906.075 0.2925 1.54862 0
M  V30 9961 C 907.486 -0.201841 1.85606 0
M  V30 9962 C 907.837 -1.54093 1.21449 0
M  V30 9963 O 906.962 -2.10327 0.509079 0
M  V30 9964 C 907.557 -0.373011 3.3674 0
M  V30 9965 C 906.116 -0.811574 3.67547 0
M  V30 9966 C 905.263 0.0850583 2.7717 0
M  V30 9967 H 908.214 0.513774 1.50153 0
M  V30 9968 H 908.235 -1.20892 3.60785 0
M  V30 9969 H 907.747 0.601751 3.83407 0
M  V30 9970 H 905.848 -1.79719 3.26392 0
M  V30 9971 H 905.961 -0.636853 4.74848 0
M  V30 9972 H 904.325 -0.434224 2.50971 0
M  V30 9973 H 905.108 1.05602 3.26654 0
M  V30 9974 N 907.553 -1.57587 0.0200696 0
M  V30 9975 C 908.516 -2.08595 -0.949767 0
M  V30 9976 C 909.516 -0.999215 -1.25985 0
M  V30 9977 O 910.706 -1.26115 -1.2017 0
M  V30 9978 C 907.838 -2.54424 -2.26895 0
M  V30 9979 H 909.031 -2.95563 -0.508161 0
M  V30 9980 H 906.584 -1.54631 -0.227798 0
M  V30 9981 H 907.319 -1.70758 -2.75703 0
M  V30 9982 H 907.104 -3.3381 -2.05702 0
M  V30 9983 H 908.594 -2.94144 -2.96427 0
M  V30 9984 N 909.032 0.252966 -1.55557 0
M  V30 9985 C 910.257 1.0038 -1.8149 0
M  V30 9986 C 910.682 1.78397 -0.596318 0
M  V30 9987 O 910.04 1.7551 0.454535 0
M  V30 9988 C 910.088 1.9222 -3.05096 0
M  V30 9989 O 909.192 3.01302 -2.81587 0
M  V30 9990 H 908.533 0.285949 -0.599274 0
M  V30 9991 H 911.063 0.275795 -2.02733 0
M  V30 9992 H 911.073 2.338 -3.34368 0
M  V30 9993 H 909.748 1.34852 -3.93431 0
M  V30 9994 H 908.325 2.63894 -2.63466 0
M  V30 9995 N 910.51 1.48831 0.518367 0
M  V30 9996 C 911.46 1.60614 1.61824 0
M  V30 9997 C 912.444 0.462631 1.54106 0
M  V30 9998 O 913.636 0.714689 1.6193 0
M  V30 9999 C 910.765 1.65984 3.00507 0
M  V30 10000 C 909.851 2.85854 3.13286 0
M  V30 10001 N 910.242 4.1014 2.96005 0
M  V30 10002 C 908.54 2.83429 3.4436 0
M  V30 10003 C 909.241 4.90626 3.12508 0
M  V30 10004 N 908.217 4.2366 3.40607 0
M  V30 10005 H 912.019 2.54443 1.47091 0
M  V30 10006 H 909.533 1.45363 0.724102 0
M  V30 10007 H 911.53 1.72521 3.79529 0
M  V30 10008 H 910.19 0.732792 3.16323 0
M  V30 10009 H 911.201 4.40395 2.72531 0
M  V30 10010 H 907.878 2.0003 3.66462 0
M  V30 10011 H 909.268 5.99302 3.03786 0
M  V30 10012 N 911.988 -0.768124 1.37614 0
M  V30 10013 C 913.265 -1.51637 1.23554 0
M  V30 10014 C 913.645 -2.1042 -0.169331 0
M  V30 10015 O 912.993 -1.95834 -1.17735 0
M  V30 10016 C 913.203 -2.59436 2.33439 0
M  V30 10017 C 914.551 -3.2674 2.71157 0
M  V30 10018 O 915.575 -2.69733 2.32642 0
M  V30 10019 O 914.434 -4.29814 3.37524 0
M  V30 10020 H 911.528 -0.671778 0.482332 0
M  V30 10021 H 914.074 -0.804779 1.49403 0
M  V30 10022 H 912.846 -2.14146 3.27502 0
M  V30 10023 H 912.469 -3.38192 2.09073 0
M  V30 10024 N 913.466 -1.22244 -0.994698 0
M  V30 10025 C 914.877 -1.043 -1.5485 0
M  V30 10026 C 915.228 0.394102 -1.92201 0
M  V30 10027 O 914.353 1.27883 -1.74571 0
M  V30 10028 C 914.948 -1.88708 -2.8138 0
M  V30 10029 C 913.507 -1.75067 -3.3321 0
M  V30 10030 C 912.654 -1.85286 -2.06312 0
M  V30 10031 H 915.605 -1.36115 -0.815988 0
M  V30 10032 H 915.626 -1.40342 -3.53673 0
M  V30 10033 H 915.138 -2.93296 -2.54164 0
M  V30 10034 H 913.239 -0.732047 -3.65338 0
M  V30 10035 H 913.352 -2.57632 -4.03934 0
M  V30 10036 H 911.716 -1.28706 -2.19788 0
M  V30 10037 H 912.499 -2.91401 -1.81494 0
M  V30 10038 N 914.944 1.19125 -1.03184 0
M  V30 10039 C 916.221 1.84674 -0.644574 0
M  V30 10040 C 916.601 1.92042 0.876534 0
M  V30 10041 O 915.949 1.43965 1.77444 0
M  V30 10042 C 916.159 3.23477 -1.3101 0
M  V30 10043 C 917.507 3.99608 -1.43524 0
M  V30 10044 O 918.531 3.32886 -1.2675 0
M  V30 10045 O 917.39 5.19132 -1.70776 0
M  V30 10046 H 914.484 0.795968 -0.22442 0
M  V30 10047 H 917.03 1.2659 -1.13018 0
M  V30 10048 H 915.802 3.12967 -2.34878 0
M  V30 10049 H 915.425 3.89209 -0.812547 0
M  V30 10050 N 916.422 0.810101 1.35185 0
M  V30 10051 C 917.833 0.452616 1.81131 0
M  V30 10052 C 918.184 -1.02573 1.67252 0
M  V30 10053 O 917.309 -1.79735 1.20516 0
M  V30 10054 C 917.904 0.814775 3.28857 0
M  V30 10055 C 916.463 0.509839 3.72931 0
M  V30 10056 C 915.61 1.03852 2.57119 0
M  V30 10057 H 918.561 1.00143 1.23114 0
M  V30 10058 H 918.582 0.113635 3.8033 0
M  V30 10059 H 918.094 1.89078 3.38926 0
M  V30 10060 H 916.195 -0.557289 3.68409 0
M  V30 10061 H 916.308 1.04493 4.67566 0
M  V30 10062 H 914.672 0.460671 2.50499 0
M  V30 10063 H 915.455 2.12071 2.69964 0
M  V30 10064 N 917.9 -1.47166 0.563914 0
M  V30 10065 C 918.863 -2.28571 -0.169624 0
M  V30 10066 C 919.863 -1.37331 -0.836467 0
M  V30 10067 O 921.053 -1.59896 -0.6913 0
M  V30 10068 C 918.185 -3.17201 -1.24886 0
M  V30 10069 H 919.378 -2.94896 0.545539 0
M  V30 10070 H 916.931 -1.52966 0.321121 0
M  V30 10071 H 917.666 -2.55582 -1.99621 0
M  V30 10072 H 917.451 -3.84356 -0.775426 0
M  V30 10073 H 918.941 -3.7852 -1.76388 0
M  V30 10074 N 919.378 -0.300708 -1.54705 0
M  V30 10075 C 920.627 0.309428 -1.99312 0
M  V30 10076 C 920.94 1.55027 -1.19272 0
M  V30 10077 O 922.146 2.23498 -1.54146 0
M  V30 10078 C 920.602 0.601856 -3.54832 0
M  V30 10079 C 920.21 -0.620636 -4.4368 0
M  V30 10080 C 921.954 1.1732 -4.07966 0
M  V30 10081 C 919.861 -0.301376 -5.90632 0
M  V30 10082 H 918.791 0.119395 -0.744487 0
M  V30 10083 H 921.442 -0.409368 -1.78875 0
M  V30 10084 H 919.824 1.38024 -3.71168 0
M  V30 10085 H 920.998 -1.39685 -4.39118 0
M  V30 10086 H 919.313 -1.1106 -4.01316 0
M  V30 10087 H 921.91 1.42631 -5.15326 0
M  V30 10088 H 922.253 2.11537 -3.5855 0
M  V30 10089 H 922.786 0.456534 -3.95172 0
M  V30 10090 H 919.525 -1.21209 -6.44196 0
M  V30 10091 H 919.045 0.437574 -5.98202 0
M  V30 10092 H 920.724 0.097164 -6.46927 0
M  V30 10093 N 920.856 1.57574 -0.0284266 0
M  V30 10094 C 922.267 1.79585 0.510502 0
M  V30 10095 C 922.618 0.938625 1.72291 0
M  V30 10096 O 921.743 0.14884 2.15888 0
M  V30 10097 C 922.338 3.25703 0.932912 0
M  V30 10098 C 920.897 3.48711 1.41696 0
M  V30 10099 C 920.044 2.74665 0.381356 0
M  V30 10100 H 922.995 1.56647 -0.254464 0
M  V30 10101 H 923.016 3.35376 1.79731 0
M  V30 10102 H 922.528 3.88067 0.0503036 0
M  V30 10103 H 920.629 2.91597 2.31952 0
M  V30 10104 H 920.742 4.57423 1.42481 0
M  V30 10105 H 919.106 2.40123 0.8493 0
M  V30 10106 H 919.889 3.39745 -0.492775 0
M  V30 10107 N 922.334 -0.244713 1.55689 0
M  V30 10108 C 923.297 -1.2864 1.89695 0
M  V30 10109 C 924.297 -1.40969 0.773583 0
M  V30 10110 O 925.487 -1.39632 1.04156 0
M  V30 10111 C 922.619 -2.66379 2.12732 0
M  V30 10112 H 923.812 -0.997033 2.82841 0
M  V30 10113 H 921.365 -0.484103 1.48614 0
M  V30 10114 H 922.1 -3.00452 1.22062 0
M  V30 10115 H 921.885 -2.58812 2.94549 0
M  V30 10116 H 923.375 -3.41592 2.40218 0
M  V30 10117 N 923.813 -1.49104 -0.510467 0
M  V30 10118 C 925.224 -1.51423 -1.09215 0
M  V30 10119 C 925.575 -0.295035 -1.93969 0
M  V30 10120 O 924.7 0.596064 -2.08029 0
M  V30 10121 C 925.295 -2.74387 -1.98739 0
M  V30 10122 C 923.854 -2.79515 -2.52088 0
M  V30 10123 C 923.001 -2.4521 -1.29488 0
M  V30 10124 H 925.952 -1.55938 -0.294807 0
M  V30 10125 H 925.973 -2.54012 -2.83298 0
M  V30 10126 H 925.485 -3.63105 -1.37026 0
M  V30 10127 H 923.586 -1.95054 -3.17466 0
M  V30 10128 H 923.699 -3.81447 -2.89887 0
M  V30 10129 H 922.063 -1.96785 -1.61703 0
M  V30 10130 H 922.846 -3.36192 -0.694978 0
M  V30 10131 N 925.291 0.760815 -1.38019 0
M  V30 10132 C 926.519 1.55001 -1.37048 0
M  V30 10133 C 926.934 1.88754 0.0415261 0
M  V30 10134 O 926.291 1.52254 1.00624 0
M  V30 10135 C 926.342 2.8536 -2.21928 0
M  V30 10136 O 926.063 2.53049 -3.57628 0
M  V30 10137 C 927.564 3.79536 -2.29057 0
M  V30 10138 H 924.784 0.479844 -0.469032 0
M  V30 10139 H 927.328 0.942148 -1.81504 0
M  V30 10140 H 925.483 3.42542 -1.80953 0
M  V30 10141 H 925.897 3.36604 -4.02241 0
M  V30 10142 H 927.371 4.67977 -2.92749 0
M  V30 10143 H 927.848 4.19453 -1.30213 0
M  V30 10144 H 928.454 3.28281 -2.70392 0
M  V30 10145 N 926.769 1.22769 0.988202 0
M  V30 10146 C 927.732 1.00325 2.06076 0
M  V30 10147 C 928.732 -0.0320618 1.60768 0
M  V30 10148 O 929.922 0.206912 1.72967 0
M  V30 10149 C 927.054 0.516376 3.36966 0
M  V30 10150 H 928.247 1.95499 2.27421 0
M  V30 10151 H 925.8 1.04704 1.16047 0
M  V30 10152 H 926.535 -0.439498 3.21308 0
M  V30 10153 H 926.32 1.26337 3.71189 0
M  V30 10154 H 927.81 0.37974 4.1587 0
M  V30 10155 N 928.247 -1.18576 1.03814 0
M  V30 10156 C 929.475 -1.92437 0.759966 0
M  V30 10157 C 929.89 -1.76031 -0.682526 0
M  V30 10158 O 929.247 -1.08829 -1.46501 0
M  V30 10159 C 929.298 -3.43923 1.11351 0
M  V30 10160 O 929.019 -3.5981 2.49937 0
M  V30 10161 C 930.52 -4.34888 0.859472 0
M  V30 10162 H 927.74 -0.610998 0.277349 0
M  V30 10163 H 930.284 -1.50448 1.38512 0
M  V30 10164 H 928.439 -3.83711 0.533362 0
M  V30 10165 H 928.853 -4.53569 2.63393 0
M  V30 10166 H 930.327 -5.39744 1.15672 0
M  V30 10167 H 930.804 -4.38717 -0.205839 0
M  V30 10168 H 931.41 -4.00795 1.42279 0
M  V30 10169 N 929.725 -0.817259 -1.34754 0
M  V30 10170 C 931.136 -0.462215 -1.80888 0
M  V30 10171 C 931.487 1.01685 -1.67794 0
M  V30 10172 O 930.612 1.79094 -1.21468 0
M  V30 10173 C 931.207 -0.832204 -3.2842 0
M  V30 10174 C 929.766 -0.52961 -3.72655 0
M  V30 10175 C 928.913 -1.05214 -2.56564 0
M  V30 10176 H 931.864 -1.00795 -1.22581 0
M  V30 10177 H 931.885 -0.133804 -3.80265 0
M  V30 10178 H 931.397 -1.90873 -3.37919 0
M  V30 10179 H 929.498 0.537743 -3.68699 0
M  V30 10180 H 929.611 -1.06971 -4.67005 0
M  V30 10181 H 927.975 -0.473949 -2.50251 0
M  V30 10182 H 928.758 -2.135 -2.68836 0
M  V30 10183 N 931.203 1.46865 -0.571711 0
M  V30 10184 C 932.428 2.07323 -0.0564655 0
M  V30 10185 C 932.853 1.41938 1.23431 0
M  V30 10186 O 932.211 0.499334 1.74288 0
M  V30 10187 C 932.259 3.6044 0.107339 0
M  V30 10188 O 931.363 3.95558 1.1665 0
M  V30 10189 H 930.704 0.661475 -0.0578465 0
M  V30 10190 H 933.234 1.88669 -0.791524 0
M  V30 10191 H 933.244 4.06767 0.316987 0
M  V30 10192 H 931.919 4.07425 -0.835348 0
M  V30 10193 H 930.496 3.60957 0.936189 0
M  V30 10194 N 932.681 0.308908 1.54543 0
M  V30 10195 C 933.644 -0.550857 2.22482 0
M  V30 10196 C 934.644 -1.0551 1.21344 0
M  V30 10197 O 935.834 -0.949866 1.46025 0
M  V30 10198 C 932.966 -1.76354 2.9174 0
M  V30 10199 H 934.159 0.0428395 2.99869 0
M  V30 10200 H 931.712 0.059825 1.56185 0
M  V30 10201 H 932.447 -2.39686 2.18451 0
M  V30 10202 H 932.232 -1.40954 3.65889 0
M  V30 10203 H 933.722 -2.37417 3.43545 0
M  V30 10204 N 934.159 -1.57557 0.0367827 0
M  V30 10205 C 935.575 -1.56366 -0.31967 0
M  V30 10206 C 935.775 -1.04313 -1.72398 0
M  V30 10207 O 934.831 -0.693278 -2.42796 0
M  V30 10208 C 936.144 -3.00267 -0.161274 0
M  V30 10209 C 937.692 -3.12128 -0.233464 0
M  V30 10210 C 938.167 -4.57882 -0.103767 0
M  V30 10211 N 939.658 -4.62922 -0.160506 0
M  V30 10212 C 940.393 -5.73338 -0.0840493 0
M  V30 10213 N 939.889 -6.92786 0.043933 0
M  V30 10214 N 941.682 -5.61929 -0.138592 0
M  V30 10215 H 933.833 -1.8972 0.954996 0
M  V30 10216 H 936.096 -0.87304 0.369467 0
M  V30 10217 H 935.802 -3.42331 0.80639 0
M  V30 10218 H 935.676 -3.65599 -0.928304 0
M  V30 10219 H 938.063 -2.69972 -1.19159 0
M  V30 10220 H 938.144 -2.49503 0.564075 0
M  V30 10221 H 937.788 -5.0072 0.850973 0
M  V30 10222 H 937.718 -5.18496 -0.920268 0
M  V30 10223 H 940.209 -3.7701 -0.259257 0
M  V30 10224 H 940.522 -7.72741 0.095372 0
M  V30 10225 H 938.867 -6.94955 0.0788211 0
M  V30 10226 H 942.058 -4.67499 -0.237031 0
M  V30 10227 H 942.231 -6.47956 -0.075546 0
M  V30 10228 N 935.637 0.236453 -1.55816 0
M  V30 10229 C 936.885 0.96111 -1.77784 0
M  V30 10230 C 937.206 1.85454 -0.602648 0
M  V30 10231 O 936.476 1.92157 0.381137 0
M  V30 10232 H 935.056 0.35787 -0.655697 0
M  V30 10233 H 937.718 0.251888 -1.93265 0
M  V30 10234 H 936.814 1.5767 -2.69345 0
M  V30 10235 N 937.115 1.49373 0.502552 0
M  V30 10236 C 938.078 1.65413 1.58654 0
M  V30 10237 C 939.078 0.526003 1.51953 0
M  V30 10238 O 940.268 0.792421 1.55133 0
M  V30 10239 C 937.4 1.65005 2.98306 0
M  V30 10240 H 938.593 2.62095 1.45762 0
M  V30 10241 H 936.146 1.38381 0.726672 0
M  V30 10242 H 936.881 0.699014 3.16677 0
M  V30 10243 H 936.666 2.46931 3.04578 0
M  V30 10244 H 938.156 1.79477 3.77065 0
M  V30 10245 N 938.594 -0.753485 1.38421 0
M  V30 10246 C 939.84 -1.51485 1.34834 0
M  V30 10247 C 940.173 -1.94102 -0.0615381 0
M  V30 10248 O 939.448 -1.65439 -1.02274 0
M  V30 10249 C 939.731 -2.76736 2.30411 0
M  V30 10250 C 939.584 -2.40256 3.80259 0
M  V30 10251 C 940.903 -3.7876 2.24119 0
M  V30 10252 H 938.022 -0.549534 0.491102 0
M  V30 10253 H 940.664 -0.863006 1.6927 0
M  V30 10254 H 938.814 -3.32357 2.01175 0
M  V30 10255 H 940.486 -1.90409 4.20169 0
M  V30 10256 H 938.729 -1.72714 3.97935 0
M  V30 10257 H 939.4 -3.29869 4.42595 0
M  V30 10258 H 941.876 -3.32679 2.49928 0
M  V30 10259 H 940.752 -4.64092 2.93104 0
M  V30 10260 H 941.013 -4.24352 1.24006 0
M  V30 10261 N 940.072 -1.23292 -0.981677 0
M  V30 10262 C 941.321 -1.05832 -1.71705 0
M  V30 10263 C 941.634 0.40514 -1.91358 0
M  V30 10264 O 942.84 0.699645 -2.6233 0
M  V30 10265 C 941.296 -1.84532 -3.08992 0
M  V30 10266 C 940.904 -3.35199 -2.9723 0
M  V30 10267 C 942.648 -1.75557 -3.86497 0
M  V30 10268 C 940.555 -4.06296 -4.29741 0
M  V30 10269 H 939.485 -0.39241 -0.64384 0
M  V30 10270 H 942.136 -1.47247 -1.09502 0
M  V30 10271 H 940.518 -1.35923 -3.71942 0
M  V30 10272 H 941.692 -3.91286 -2.43377 0
M  V30 10273 H 940.007 -3.44973 -2.332 0
M  V30 10274 H 942.604 -2.25989 -4.84596 0
M  V30 10275 H 942.947 -0.718101 -4.1006 0
M  V30 10276 H 943.48 -2.21771 -3.30246 0
M  V30 10277 H 940.219 -5.10344 -4.11375 0
M  V30 10278 H 939.739 -3.54997 -4.83464 0
M  V30 10279 H 941.418 -4.12519 -4.98434 0
M  V30 10280 N 941.55 1.18024 -1.04442 0
M  V30 10281 C 942.966 1.40107 -0.76435 0
M  V30 10282 C 943.166 1.90914 0.644516 0
M  V30 10283 O 942.222 2.0959 1.40813 0
M  V30 10284 C 943.535 2.39851 -1.81361 0
M  V30 10285 C 945.083 2.53571 -1.83496 0
M  V30 10286 C 945.558 3.56583 -2.87424 0
M  V30 10287 N 947.049 3.64094 -2.86339 0
M  V30 10288 C 947.784 4.43537 -3.63405 0
M  V30 10289 N 947.28 5.26557 -4.50233 0
M  V30 10290 N 949.073 4.38336 -3.51877 0
M  V30 10291 H 941.224 0.833726 -1.95353 0
M  V30 10292 H 943.487 0.42881 -0.845474 0
M  V30 10293 H 943.193 2.09576 -2.82438 0
M  V30 10294 H 943.067 3.39251 -1.6489 0
M  V30 10295 H 945.454 2.83161 -0.830883 0
M  V30 10296 H 945.535 1.54272 -2.04044 0
M  V30 10297 H 945.179 3.27733 -3.88012 0
M  V30 10298 H 945.109 4.55569 -2.6413 0
M  V30 10299 H 947.6 3.04814 -2.23376 0
M  V30 10300 H 947.913 5.84336 -5.05738 0
M  V30 10301 H 946.258 5.25964 -4.54298 0
M  V30 10302 H 949.449 3.72528 -2.83444 0
M  V30 10303 H 949.622 5.00007 -4.12186 0
M  V30 10304 N 943.028 0.824394 1.34319 0
M  V30 10305 C 943.96 0.204805 2.28283 0
M  V30 10306 C 944.973 -0.606162 1.51094 0
M  V30 10307 O 946.162 -0.435602 1.73103 0
M  V30 10308 C 943.262 -0.73139 3.30914 0
M  V30 10309 C 942.435 0.0370723 4.37384 0
M  V30 10310 C 941.494 -0.820272 5.19767 0
M  V30 10311 O 940.52 -0.264721 5.68584 0
M  V30 10312 N 941.722 -2.13984 5.39621 0
M  V30 10313 H 944.487 1.0121 2.82093 0
M  V30 10314 H 942.048 0.681494 1.46858 0
M  V30 10315 H 944.04 -1.30958 3.82926 0
M  V30 10316 H 942.61 -1.43943 2.77487 0
M  V30 10317 H 941.83 0.796578 3.86068 0
M  V30 10318 H 943.118 0.566014 5.05642 0
M  V30 10319 H 942.516 -2.61492 5.01636 0
M  V30 10320 H 941.073 -2.66685 5.94746 0
M  V30 10321 N 944.506 -1.46559 0.579492 0
M  V30 10322 C 945.454 -2.3199 -0.168413 0
M  V30 10323 C 946.448 -1.44288 -0.887551 0
M  V30 10324 O 947.654 -1.60931 -0.806305 0
M  V30 10325 H 944.029 -0.748431 -0.0731799 0
M  V30 10326 H 946 -2.92886 0.570973 0
M  V30 10327 C 944.749 -3.27392 -1.1709 0
M  V30 10328 H 944.072 -3.94853 -0.626958 0
M  V30 10329 H 945.512 -3.89955 -1.66467 0
M  V30 10330 C 943.971 -2.52511 -2.23024 0
M  V30 10331 O 944.501 -2.2858 -3.30324 0
M  V30 10332 N 942.707 -2.1313 -1.97545 0
M  V30 10333 H 942.254 -2.32793 -1.10297 0
M  V30 10334 H 942.212 -1.63348 -2.68635 0
M  V30 10335 N 945.984 -0.3171 -1.54377 0
M  V30 10336 C 947.209 0.292311 -2.0533 0
M  V30 10337 C 947.634 1.45503 -1.19207 0
M  V30 10338 O 946.992 1.80197 -0.199721 0
M  V30 10339 C 947.04 0.710787 -3.53525 0
M  V30 10340 O 946.144 1.81387 -3.70368 0
M  V30 10341 H 945.485 0.0539976 -0.661801 0
M  V30 10342 H 948.015 -0.463629 -1.99278 0
M  V30 10343 H 948.025 0.995216 -3.95676 0
M  V30 10344 H 946.7 -0.139668 -4.15665 0
M  V30 10345 H 945.277 1.52875 -3.40123 0
M  V30 10346 N 947.462 1.57535 -0.0451378 0
M  V30 10347 C 948.739 1.83785 0.669523 0
M  V30 10348 C 949.119 0.932331 1.89396 0
M  V30 10349 O 948.467 -0.00813229 2.28499 0
M  V30 10350 C 948.677 3.33376 1.03255 0
M  V30 10351 C 950.025 4.00243 1.41741 0
M  V30 10352 O 951.049 3.37965 1.12507 0
M  V30 10353 O 949.908 5.10038 1.96275 0
M  V30 10354 H 947.002 0.758342 0.329919 0
M  V30 10355 H 949.548 1.69538 -0.0740415 0
M  V30 10356 H 948.32 3.90965 0.161777 0
M  V30 10357 H 947.943 3.52787 1.83376 0
M  V30 10358 N 948.94 -0.228186 1.55939 0
M  V30 10359 C 950.351 -0.795734 1.68893 0
M  V30 10360 C 950.702 -1.85261 0.645967 0
M  V30 10361 O 949.827 -2.15434 -0.2042 0
M  V30 10362 C 950.422 -1.45013 3.06197 0
M  V30 10363 C 948.981 -1.96514 3.21028 0
M  V30 10364 C 948.128 -0.822918 2.64808 0
M  V30 10365 H 951.079 -0.0036485 1.587 0
M  V30 10366 H 951.1 -2.31875 3.01685 0
M  V30 10367 H 950.612 -0.680678 3.82084 0
M  V30 10368 H 948.713 -2.76282 2.49998 0
M  V30 10369 H 948.826 -2.14967 4.28166 0
M  V30 10370 H 947.19 -1.22846 2.23116 0
M  V30 10371 H 947.973 -0.0662493 3.43236 0
M  V30 10372 N 950.418 -1.49637 -0.494624 0
M  V30 10373 C 951.646 -1.63164 -1.2722 0
M  V30 10374 C 952.061 -0.305552 -1.86311 0
M  V30 10375 O 951.418 0.709758 -1.68133 0
M  V30 10376 C 951.469 -2.70524 -2.39789 0
M  V30 10377 O 951.19 -3.97991 -1.83126 0
M  V30 10378 C 952.691 -2.94814 -3.31058 0
M  V30 10379 H 949.911 -0.54912 -0.385627 0
M  V30 10380 H 952.455 -1.95711 -0.593081 0
M  V30 10381 H 950.61 -2.40738 -3.03519 0
M  V30 10382 H 951.024 -4.57179 -2.57075 0
M  V30 10383 H 952.498 -3.73653 -4.06309 0
M  V30 10384 H 952.975 -2.04974 -3.88436 0
M  V30 10385 H 953.581 -3.26042 -2.73088 0
M  V30 10386 N 951.896 0.746133 -1.38819 0
M  V30 10387 C 953.121 1.54049 -1.38866 0
M  V30 10388 C 953.546 1.88092 0.0176624 0
M  V30 10389 O 952.904 1.51113 1.00173 0
M  V30 10390 C 952.952 2.8116 -2.25791 0
M  V30 10391 O 952.056 3.76623 -1.68014 0
M  V30 10392 H 951.397 0.465648 -0.473359 0
M  V30 10393 H 953.927 0.921469 -1.82675 0
M  V30 10394 H 953.937 3.30009 -2.39913 0
M  V30 10395 H 952.612 2.55713 -3.27999 0
M  V30 10396 H 951.189 3.35352 -1.63074 0
M  V30 10397 N 953.375 1.23811 0.975125 0
M  V30 10398 C 954.285 1.0408 2.10249 0
M  V30 10399 C 955.301 -0.0162404 1.73992 0
M  V30 10400 O 956.477 0.180346 2.00591 0
M  V30 10401 C 953.542 0.640013 3.40741 0
M  V30 10402 C 952.603 1.7727 3.90991 0
M  V30 10403 C 951.836 1.39094 5.15256 0
M  V30 10404 O 952.059 0.277483 5.69725 0
M  V30 10405 O 950.993 2.21392 5.59704 0
M  V30 10406 H 954.819 1.98575 2.29786 0
M  V30 10407 H 952.404 1.02563 1.08633 0
M  V30 10408 H 954.286 0.427684 4.19224 0
M  V30 10409 H 952.961 -0.27589 3.22522 0
M  V30 10410 H 951.868 2.03971 3.13602 0
M  V30 10411 H 953.201 2.66711 4.13674 0
M  V30 10412 N 954.853 -1.17469 1.05066 0
M  V30 10413 C 956.101 -1.87327 0.758485 0
M  V30 10414 C 956.422 -1.81358 -0.716549 0
M  V30 10415 O 955.692 -1.23868 -1.51768 0
M  V30 10416 H 954.272 -0.693512 0.277579 0
M  V30 10417 H 956.934 -1.4251 1.32954 0
M  V30 10418 H 956.03 -2.93101 1.0723 0
M  V30 10419 N 956.331 -0.831506 -1.3388 0
M  V30 10420 C 957.742 -0.481375 -1.80388 0
M  V30 10421 C 958.093 0.998993 -1.68863 0
M  V30 10422 O 957.218 1.77795 -1.2336 0
M  V30 10423 C 957.813 -0.86699 -3.27519 0
M  V30 10424 C 956.372 -0.569105 -3.72073 0
M  V30 10425 C 955.519 -1.07929 -2.55434 0
M  V30 10426 H 958.47 -1.02089 -1.21505 0
M  V30 10427 H 958.491 -0.174128 -3.80101 0
M  V30 10428 H 958.003 -1.94447 -3.35875 0
M  V30 10429 H 956.104 0.498607 -3.69249 0
M  V30 10430 H 956.217 -1.11918 -4.65845 0
M  V30 10431 H 954.581 -0.500465 -2.49735 0
M  V30 10432 H 955.364 -2.16339 -2.66556 0
M  V30 10433 N 957.809 1.4625 -0.587256 0
M  V30 10434 C 959.057 2.01963 -0.0744273 0
M  V30 10435 C 959.378 1.46065 1.29189 0
M  V30 10436 O 958.648 0.647077 1.84905 0
M  V30 10437 H 957.228 0.746597 -0.0245236 0
M  V30 10438 H 959.89 1.79299 -0.764063 0
M  V30 10439 H 958.986 3.12099 -0.00884894 0
M  V30 10440 N 959.287 0.325282 1.54207 0
M  V30 10441 C 960.698 -0.162426 1.85992 0
M  V30 10442 C 961.049 -1.51482 1.2469 0
M  V30 10443 O 960.174 -2.092 0.553578 0
M  V30 10444 C 960.769 -0.3015 3.37456 0
M  V30 10445 C 959.328 -0.73343 3.69185 0
M  V30 10446 C 958.475 0.143831 2.76927 0
M  V30 10447 H 961.426 0.545508 1.4903 0
M  V30 10448 H 961.447 -1.13212 3.63268 0
M  V30 10449 H 960.959 0.682942 3.82044 0
M  V30 10450 H 959.06 -1.72755 3.30131 0
M  V30 10451 H 959.173 -0.535987 4.76092 0
M  V30 10452 H 957.537 -0.380892 2.51836 0
M  V30 10453 H 958.32 1.12507 3.24341 0
M  V30 10454 N 960.765 -1.57509 0.0534917 0
M  V30 10455 C 961.99 -1.97511 -0.632794 0
M  V30 10456 C 962.415 -0.930947 -1.63447 0
M  V30 10457 O 961.773 0.105558 -1.80992 0
M  V30 10458 C 961.821 -3.3658 -1.29407 0
M  V30 10459 O 960.925 -3.3467 -2.40977 0
M  V30 10460 H 960.266 -0.643349 -0.16431 0
M  V30 10461 H 962.796 -2.04232 0.12258 0
M  V30 10462 H 962.806 -3.73359 -1.64521 0
M  V30 10463 H 961.481 -4.12113 -0.559976 0
M  V30 10464 H 960.058 -3.09639 -2.07793 0
M  V30 10465 N 962.243 0.219913 -1.56058 0
M  V30 10466 C 963.654 0.786766 -1.69313 0
M  V30 10467 C 964.005 1.84916 -0.655782 0
M  V30 10468 O 963.13 2.1554 0.192772 0
M  V30 10469 C 963.725 1.43387 -3.06962 0
M  V30 10470 C 962.284 1.94809 -3.22066 0
M  V30 10471 C 961.431 0.808863 -2.65241 0
M  V30 10472 H 964.382 -0.00476777 -1.58699 0
M  V30 10473 H 964.403 2.30272 -3.02911 0
M  V30 10474 H 963.915 0.660405 -3.8244 0
M  V30 10475 H 962.016 2.74952 -2.5146 0
M  V30 10476 H 962.129 2.12694 -4.293 0
M  V30 10477 H 960.493 1.21661 -2.23765 0
M  V30 10478 H 961.276 0.0480458 -3.43266 0
M  V30 10479 N 963.721 1.49897 0.486681 0
M  V30 10480 C 964.669 1.68125 1.60738 0
M  V30 10481 C 965.663 0.547097 1.60322 0
M  V30 10482 O 966.869 0.727153 1.64659 0
M  V30 10483 H 963.244 0.530391 0.533094 0
M  V30 10484 H 965.215 2.62165 1.42521 0
M  V30 10485 C 963.964 1.77827 2.98786 0
M  V30 10486 H 963.287 2.6448 2.99818 0
M  V30 10487 H 964.727 1.94611 3.76699 0
M  V30 10488 C 963.186 0.526287 3.32764 0
M  V30 10489 O 963.716 -0.341607 4.00245 0
M  V30 10490 N 961.922 0.384947 2.88039 0
M  V30 10491 H 961.469 1.09222 2.33299 0
M  V30 10492 H 961.427 -0.451618 3.11139 0
M  V30 10493 N 965.199 -0.738761 1.39212 0
M  V30 10494 C 966.61 -1.31684 1.32348 0
M  V30 10495 C 966.961 -1.96195 -0.0139041 0
M  V30 10496 O 966.086 -1.96056 -0.916025 0
M  V30 10497 C 966.681 -2.39444 2.39691 0
M  V30 10498 C 965.24 -2.92935 2.36359 0
M  V30 10499 C 964.387 -1.66465 2.21776 0
M  V30 10500 H 967.338 -0.536543 1.49355 0
M  V30 10501 H 967.359 -3.19744 2.06262 0
M  V30 10502 H 966.871 -1.92463 3.37016 0
M  V30 10503 H 964.972 -3.44207 1.42662 0
M  V30 10504 H 965.085 -3.46306 3.31073 0
M  V30 10505 H 963.449 -1.90657 1.68884 0
M  V30 10506 H 964.232 -1.21541 3.21065 0
M  V30 10507 N 966.677 -1.24326 -0.968545 0
M  V30 10508 C 968.088 -1.07561 -1.52603 0
M  V30 10509 C 968.439 0.353245 -1.92994 0
M  V30 10510 O 967.564 1.24151 -1.77244 0
M  V30 10511 C 968.159 -1.94634 -2.77314 0
M  V30 10512 C 966.718 -1.82095 -3.29421 0
M  V30 10513 C 965.865 -1.8962 -2.02335 0
M  V30 10514 H 968.816 -1.37815 -0.786932 0
M  V30 10515 H 968.837 -1.47812 -3.50616 0
M  V30 10516 H 968.349 -2.98621 -2.47885 0
M  V30 10517 H 966.45 -0.809376 -3.63703 0
M  V30 10518 H 966.563 -2.66142 -3.98378 0
M  V30 10519 H 964.927 -1.33339 -2.17009 0
M  V30 10520 H 965.71 -2.95185 -1.75273 0
M  V30 10521 N 968.156 1.1691 -1.05688 0
M  V30 10522 C 969.119 2.19297 -0.666433 0
M  V30 10523 C 970.119 1.5826 0.284674 0
M  V30 10524 O 971.309 1.74068 0.0678757 0
M  V30 10525 C 968.441 3.40894 0.0203656 0
M  V30 10526 H 969.634 2.55354 -1.57272 0
M  V30 10527 H 967.187 1.31078 -0.851359 0
M  V30 10528 H 967.922 3.10388 0.939686 0
M  V30 10529 H 967.707 3.86446 -0.663464 0
M  V30 10530 H 969.197 4.16664 0.279475 0
M  V30 10531 N 969.634 0.838594 1.33437 0
M  V30 10532 C 970.88 0.444042 1.98494 0
M  V30 10533 C 971.235 -0.985759 1.65229 0
M  V30 10534 O 970.528 -1.67972 0.921736 0
M  V30 10535 C 970.722 0.601425 3.52303 0
M  V30 10536 C 970.551 2.04497 4.00513 0
M  V30 10537 C 969.321 2.68015 4.28364 0
M  V30 10538 C 971.519 3.01367 4.16752 0
M  V30 10539 N 969.501 4.03448 4.62713 0
M  V30 10540 C 970.872 4.21745 4.54457 0
M  V30 10541 C 972.927 2.97776 3.99041 0
M  V30 10542 C 971.63 5.39009 4.76301 0
M  V30 10543 C 973.656 4.14269 4.22061 0
M  V30 10544 C 973.018 5.33402 4.60067 0
M  V30 10545 H 969.117 0.210906 0.753022 0
M  V30 10546 H 971.701 1.0866 1.61558 0
M  V30 10547 H 969.872 -0.0113326 3.88398 0
M  V30 10548 H 971.604 0.178343 4.04307 0
M  V30 10549 H 968.359 2.19153 4.19844 0
M  V30 10550 H 968.783 4.73264 4.84098 0
M  V30 10551 H 973.425 2.06801 3.68773 0
M  V30 10552 H 971.143 6.30529 5.0543 0
M  V30 10553 H 974.729 4.12908 4.09876 0
M  V30 10554 H 973.609 6.22045 4.77525 0
M  V30 10555 N 971.112 -1.45937 0.595003 0
M  V30 10556 C 972.358 -2.0262 0.0854317 0
M  V30 10557 C 972.691 -1.46402 -1.27594 0
M  V30 10558 O 971.966 -0.633823 -1.83883 0
M  V30 10559 C 972.249 -3.60085 0.0329075 0
M  V30 10560 C 972.102 -4.26663 1.42405 0
M  V30 10561 C 973.421 -4.35101 -0.661426 0
M  V30 10562 H 970.54 -0.736282 0.0325196 0
M  V30 10563 H 973.182 -1.73938 0.764563 0
M  V30 10564 H 971.332 -3.84652 -0.545439 0
M  V30 10565 H 973.004 -4.13321 2.04851 0
M  V30 10566 H 971.247 -3.85549 1.98833 0
M  V30 10567 H 971.918 -5.35497 1.33965 0
M  V30 10568 H 974.394 -4.15753 -0.169977 0
M  V30 10569 H 973.27 -5.44829 -0.667243 0
M  V30 10570 H 973.531 -4.07053 -1.72513 0
M  V30 10571 N 972.59 -0.333456 -1.54032 0
M  V30 10572 C 974.006 0.0188405 -1.59589 0
M  V30 10573 C 974.206 1.49615 -1.34972 0
M  V30 10574 O 973.262 2.2535 -1.13901 0
M  V30 10575 C 974.575 -0.408273 -2.97915 0
M  V30 10576 C 976.123 -0.359763 -3.10926 0
M  V30 10577 C 976.598 -0.76219 -4.51613 0
M  V30 10578 N 978.089 -0.715981 -4.57633 0
M  V30 10579 C 978.824 -0.999436 -5.64623 0
M  V30 10580 N 978.32 -1.35053 -6.79509 0
M  V30 10581 N 980.113 -0.924343 -5.54448 0
M  V30 10582 H 972.264 -1.29587 -1.68289 0
M  V30 10583 H 974.527 -0.527584 -0.787629 0
M  V30 10584 H 974.233 -1.43793 -3.20962 0
M  V30 10585 H 974.107 0.221685 -3.76548 0
M  V30 10586 H 976.494 0.660703 -2.87609 0
M  V30 10587 H 976.575 -1.02479 -2.34375 0
M  V30 10588 H 976.219 -1.78062 -4.75664 0
M  V30 10589 H 976.149 -0.0747478 -5.26547 0
M  V30 10590 H 978.64 -0.456875 -3.75128 0
M  V30 10591 H 978.953 -1.55194 -7.57057 0
M  V30 10592 H 977.298 -1.38889 -6.80981 0
M  V30 10593 H 980.489 -0.649469 -4.63573 0
M  V30 10594 H 980.662 -1.1486 -6.37739 0
M  V30 10595 N 974.068 1.57479 -0.061844 0
M  V30 10596 C 975.479 1.80627 0.472295 0
M  V30 10597 C 975.83 0.97496 1.70261 0
M  V30 10598 O 974.955 0.1946 2.15523 0
M  V30 10599 C 975.55 3.27608 0.863616 0
M  V30 10600 C 974.109 3.51638 1.34267 0
M  V30 10601 C 973.256 2.75412 0.323009 0
M  V30 10602 H 976.207 1.56072 -0.287634 0
M  V30 10603 H 976.228 3.39113 1.72577 0
M  V30 10604 H 975.74 3.88087 -0.0320226 0
M  V30 10605 H 973.841 2.96452 2.25714 0
M  V30 10606 H 973.954 4.60342 1.32747 0
M  V30 10607 H 972.318 2.4187 0.798175 0
M  V30 10608 H 973.101 3.38623 -0.564729 0
M  V30 10609 N 975.546 -0.211634 1.56173 0
M  V30 10610 C 976.823 -0.959467 1.70451 0
M  V30 10611 C 977.203 -2.02036 0.611942 0
M  V30 10612 O 976.551 -2.25325 -0.37959 0
M  V30 10613 C 976.761 -1.56092 3.12148 0
M  V30 10614 C 978.109 -2.04939 3.71867 0
M  V30 10615 O 979.133 -1.65966 3.15172 0
M  V30 10616 O 977.992 -2.766 4.71333 0
M  V30 10617 H 975.086 -0.448844 0.6946 0
M  V30 10618 H 977.632 -0.202633 1.68486 0
M  V30 10619 H 976.404 -0.79538 3.83131 0
M  V30 10620 H 976.027 -2.38303 3.18273 0
M  V30 10621 N 977.024 -1.50153 -0.478725 0
M  V30 10622 C 977.972 -1.68975 -1.59844 0
M  V30 10623 C 978.966 -0.555591 -1.6003 0
M  V30 10624 O 980.172 -0.735875 -1.64271 0
M  V30 10625 H 976.547 -0.533211 -0.530274 0
M  V30 10626 H 978.518 -2.62917 -1.41128 0
M  V30 10627 C 977.267 -1.79409 -2.97838 0
M  V30 10628 H 976.59 -2.66066 -2.98411 0
M  V30 10629 H 978.03 -1.96606 -3.75662 0
M  V30 10630 C 976.489 -0.543927 -3.3248 0
M  V30 10631 O 977.019 0.320376 -4.0042 0
M  V30 10632 N 975.225 -0.400217 -2.87831 0
M  V30 10633 H 974.772 -1.10458 -2.32716 0
M  V30 10634 H 974.73 0.435111 -3.11375 0
M  V30 10635 N 978.502 0.731368 -1.39602 0
M  V30 10636 C 979.412 1.87579 -1.40894 0
M  V30 10637 C 980.428 1.71336 -0.303319 0
M  V30 10638 O 981.604 1.93875 -0.545377 0
M  V30 10639 C 978.669 3.23211 -1.25442 0
M  V30 10640 C 977.73 3.51822 -2.46008 0
M  V30 10641 C 976.963 4.80982 -2.31284 0
M  V30 10642 O 977.186 5.54958 -1.31824 0
M  V30 10643 O 976.12 5.09574 -3.20341 0
M  V30 10644 H 979.946 1.89444 -2.3737 0
M  V30 10645 H 977.531 0.879675 -1.20756 0
M  V30 10646 H 979.413 4.04257 -1.18972 0
M  V30 10647 H 978.088 3.22108 -0.320637 0
M  V30 10648 H 976.995 2.70847 -2.58055 0
M  V30 10649 H 978.328 3.57707 -3.38093 0
M  V30 10650 N 979.98 1.24838 0.961938 0
M  V30 10651 C 980.943 1.04674 2.03902 0
M  V30 10652 C 981.943 0.00204674 1.608 0
M  V30 10653 O 983.133 0.243555 1.72489 0
M  V30 10654 C 980.265 0.587736 3.35795 0
M  V30 10655 H 981.458 2.00278 2.23223 0
M  V30 10656 H 979.011 1.07142 1.138 0
M  V30 10657 H 979.746 -0.371244 3.22168 0
M  V30 10658 H 979.531 1.34182 3.68426 0
M  V30 10659 H 981.021 0.467867 4.14971 0
M  V30 10660 N 981.458 -1.16348 1.06306 0
M  V30 10661 C 982.869 -1.68491 0.80422 0
M  V30 10662 C 983.22 -1.84327 -0.672159 0
M  V30 10663 O 982.345 -1.53892 -1.52139 0
M  V30 10664 C 982.94 -3.06048 1.45328 0
M  V30 10665 C 981.499 -3.55311 1.24221 0
M  V30 10666 C 980.646 -2.31291 1.5297 0
M  V30 10667 H 983.597 -1.00708 1.22652 0
M  V30 10668 H 983.618 -3.70451 0.868674 0
M  V30 10669 H 983.13 -2.9449 2.52779 0
M  V30 10670 H 981.231 -3.72128 0.187447 0
M  V30 10671 H 981.344 -4.37397 1.95502 0
M  V30 10672 H 979.708 -2.3631 0.950241 0
M  V30 10673 H 980.491 -2.22331 2.6158 0
M  V30 10674 N 982.937 -0.845659 -1.3299 0
M  V30 10675 C 984.348 -0.50048 -1.79867 0
M  V30 10676 C 984.699 0.981027 -1.69913 0
M  V30 10677 O 983.824 1.76477 -1.25239 0
M  V30 10678 C 984.419 -0.901679 -3.26581 0
M  V30 10679 C 982.978 -0.608536 -3.71448 0
M  V30 10680 C 982.125 -1.10632 -2.54275 0
M  V30 10681 H 985.076 -1.03372 -1.20416 0
M  V30 10682 H 985.097 -0.214433 -3.79895 0
M  V30 10683 H 984.609 -1.97998 -3.33794 0
M  V30 10684 H 982.71 0.459416 -3.69757 0
M  V30 10685 H 982.823 -1.16853 -4.64631 0
M  V30 10686 H 981.187 -0.526925 -2.4919 0
M  V30 10687 H 981.97 -2.19154 -2.64247 0
M  V30 10688 N 984.415 1.45619 -0.602734 0
M  V30 10689 C 985.362 2.30493 0.118944 0
M  V30 10690 C 986.332 1.41816 0.864723 0
M  V30 10691 O 987.517 1.7075 0.851424 0
M  V30 10692 C 984.657 3.2664 1.11356 0
M  V30 10693 C 983.77 4.3042 0.369161 0
M  V30 10694 C 982.905 5.13678 1.35307 0
M  V30 10695 C 981.944 6.09189 0.596207 0
M  V30 10696 N 981.081 6.85245 1.52916 0
M  V30 10697 H 985.921 2.91672 -0.610836 0
M  V30 10698 H 983.458 1.43731 -0.313032 0
M  V30 10699 H 985.416 3.80846 1.7033 0
M  V30 10700 H 984.046 2.67225 1.81081 0
M  V30 10701 H 983.098 3.78913 -0.335994 0
M  V30 10702 H 984.41 4.98307 -0.221603 0
M  V30 10703 H 983.564 5.7226 2.01502 0
M  V30 10704 H 982.303 4.45798 1.97777 0
M  V30 10705 H 981.308 5.49743 -0.0793984 0
M  V30 10706 H 982.533 6.79096 -0.0233734 0
M  V30 10707 H 980.479 6.20058 2.14159 0
M  V30 10708 H 980.396 7.49467 0.991713 0
M  V30 10709 H 981.664 7.48371 2.18083 0
M  V30 10710 N 985.893 0.34162 1.53853 0
M  V30 10711 C 987.139 -0.255862 2.01179 0
M  V30 10712 C 987.472 -1.50356 1.22909 0
M  V30 10713 O 986.747 -1.91913 0.316198 0
M  V30 10714 C 987.03 -0.571934 3.55529 0
M  V30 10715 C 986.883 0.687727 4.44511 0
M  V30 10716 C 988.202 -1.38233 4.17827 0
M  V30 10717 H 985.321 -0.091521 0.731295 0
M  V30 10718 H 987.963 0.461775 1.84303 0
M  V30 10719 H 986.113 -1.18331 3.70041 0
M  V30 10720 H 987.785 1.32572 4.4184 0
M  V30 10721 H 986.028 1.313 4.13452 0
M  V30 10722 H 986.699 0.421858 5.50386 0
M  V30 10723 H 989.175 -0.865374 4.07002 0
M  V30 10724 H 988.051 -1.57223 5.25901 0
M  V30 10725 H 988.312 -2.38386 3.72323 0
M  V30 10726 N 987.371 -1.57444 0.0701946 0
M  V30 10727 C 988.782 -1.80875 -0.462709 0
M  V30 10728 C 989.133 -0.983975 -1.69742 0
M  V30 10729 O 988.258 -0.206027 -2.15417 0
M  V30 10730 C 988.853 -3.28062 -0.84623 0
M  V30 10731 C 987.412 -3.52345 -1.32401 0
M  V30 10732 C 986.559 -2.7558 -0.308399 0
M  V30 10733 H 989.51 -1.55917 0.295907 0
M  V30 10734 H 989.531 -3.40023 -1.70776 0
M  V30 10735 H 989.043 -3.88064 0.0526033 0
M  V30 10736 H 987.144 -2.97645 -2.24139 0
M  V30 10737 H 987.257 -4.6104 -1.30304 0
M  V30 10738 H 985.621 -2.4229 -0.785337 0
M  V30 10739 H 986.404 -3.38319 0.582679 0
M  V30 10740 N 988.849 0.203349 -1.56283 0
M  V30 10741 C 989.781 1.27592 -1.90402 0
M  V30 10742 C 990.794 1.4213 -0.79391 0
M  V30 10743 O 991.983 1.42703 -1.07229 0
M  V30 10744 C 989.083 2.64919 -2.11356 0
M  V30 10745 C 988.256 2.72095 -3.42466 0
M  V30 10746 C 987.315 3.9056 -3.52631 0
M  V30 10747 O 986.341 3.78048 -4.25521 0
M  V30 10748 N 987.543 5.0566 -2.85111 0
M  V30 10749 H 990.308 0.986423 -2.83001 0
M  V30 10750 H 987.869 0.39331 -1.5705 0
M  V30 10751 H 989.861 3.42581 -2.15453 0
M  V30 10752 H 988.431 2.86391 -1.25295 0
M  V30 10753 H 987.651 1.8077 -3.50308 0
M  V30 10754 H 988.939 2.73874 -4.28801 0
M  V30 10755 H 988.337 5.18723 -2.25705 0
M  V30 10756 H 986.894 5.81299 -2.94847 0
M  V30 10757 N 990.327 1.50405 0.470755 0
M  V30 10758 C 991.743 1.37838 0.804534 0
M  V30 10759 C 991.943 0.434743 1.96754 0
M  V30 10760 O 990.999 -0.122507 2.52203 0
M  V30 10761 C 992.312 2.79212 1.11629 0
M  V30 10762 C 993.86 2.88129 1.22272 0
M  V30 10763 C 994.335 4.30337 1.5676 0
M  V30 10764 N 995.826 4.3329 1.63751 0
M  V30 10765 C 996.561 5.4032 1.91942 0
M  V30 10766 N 996.057 6.57558 2.18151 0
M  V30 10767 N 997.85 5.27764 1.93446 0
M  V30 10768 H 990.001 2.10332 -0.295689 0
M  V30 10769 H 992.264 0.945429 -0.0697733 0
M  V30 10770 H 991.97 3.50103 0.334778 0
M  V30 10771 H 991.844 3.16475 2.0524 0
M  V30 10772 H 994.231 2.17457 1.9949 0
M  V30 10773 H 994.312 2.54409 0.2664 0
M  V30 10774 H 993.956 5.01547 0.800817 0
M  V30 10775 H 993.886 4.61545 2.53543 0
M  V30 10776 H 996.377 3.48752 1.45535 0
M  V30 10777 H 996.69 7.34935 2.38936 0
M  V30 10778 H 995.035 6.60732 2.15542 0
M  V30 10779 H 998.226 4.35169 1.72468 0
M  V30 10780 H 998.399 6.11264 2.15081 0
M  V30 10781 N 991.805 -0.723954 1.39988 0
M  V30 10782 C 993.033 -1.51313 1.4111 0
M  V30 10783 C 993.448 -1.88798 0.00853333 0
M  V30 10784 O 992.805 -1.54868 -0.965516 0
M  V30 10785 C 992.856 -2.79375 2.29416 0
M  V30 10786 O 992.577 -2.43478 3.64211 0
M  V30 10787 C 994.078 -3.7333 2.3904 0
M  V30 10788 H 991.298 -0.46724 0.481589 0
M  V30 10789 H 993.842 -0.893694 1.83938 0
M  V30 10790 H 991.997 -3.37624 1.89971 0
M  V30 10791 H 992.411 -3.25821 4.11024 0
M  V30 10792 H 993.885 -4.60051 3.05053 0
M  V30 10793 H 994.362 -4.15854 1.41289 0
M  V30 10794 H 994.968 -3.20996 2.79001 0
M  V30 10795 N 993.283 -1.25346 -0.955304 0
M  V30 10796 C 994.508 -1.12892 -1.73983 0
M  V30 10797 C 994.933 0.313455 -1.8547 0
M  V30 10798 O 994.291 1.22706 -1.33465 0
M  V30 10799 C 994.339 -1.78729 -3.1319 0
M  V30 10800 O 993.443 -1.06648 -3.98372 0
M  V30 10801 H 992.784 -0.394178 -0.534341 0
M  V30 10802 H 995.314 -1.65897 -1.19747 0
M  V30 10803 H 995.324 -1.84987 -3.63653 0
M  V30 10804 H 993.999 -2.83669 -3.04146 0
M  V30 10805 H 992.576 -1.08266 -3.56837 0
M  V30 10806 N 994.761 1.15782 -1.06922 0
M  V30 10807 C 995.986 1.90896 -0.810771 0
M  V30 10808 C 996.411 1.77246 0.629714 0
M  V30 10809 O 995.769 1.10215 1.43953 0
M  V30 10810 C 995.817 3.39397 -1.21829 0
M  V30 10811 O 994.921 4.10818 -0.360934 0
M  V30 10812 H 994.262 0.594497 -0.295752 0
M  V30 10813 H 996.792 1.46652 -1.42669 0
M  V30 10814 H 996.802 3.90181 -1.19259 0
M  V30 10815 H 995.477 3.4865 -2.2675 0
M  V30 10816 H 994.054 3.7019 -0.448748 0
M  V30 10817 N 996.239 0.8527 1.3254 0
M  V30 10818 C 997.488 0.45136 1.96585 0
M  V30 10819 C 997.801 -0.997773 1.68237 0
M  V30 10820 O 999.007 -1.50445 2.26006 0
M  V30 10821 C 997.463 0.75619 3.51866 0
M  V30 10822 C 997.071 2.22092 3.89075 0
M  V30 10823 C 998.815 0.422478 4.22392 0
M  V30 10824 C 996.722 2.46908 5.37392 0
M  V30 10825 H 995.652 0.165052 0.735713 0
M  V30 10826 H 998.303 1.04321 1.50962 0
M  V30 10827 H 996.685 0.0937988 3.95889 0
M  V30 10828 H 997.859 2.92494 3.56067 0
M  V30 10829 H 996.174 2.51896 3.31568 0
M  V30 10830 H 998.771 0.58533 5.31487 0
M  V30 10831 H 999.114 -0.635737 4.11417 0
M  V30 10832 H 999.647 1.04068 3.83946 0
M  V30 10833 H 996.386 3.51346 5.53386 0
M  V30 10834 H 995.906 1.81082 5.71812 0
M  V30 10835 H 997.585 2.30758 6.0445 0
M  V30 10836 N 997.718 -1.45297 0.610449 0
M  V30 10837 C 998.681 -2.28995 -0.0968194 0
M  V30 10838 C 999.681 -1.39923 -0.792353 0
M  V30 10839 O 1000.87 -1.62014 -0.64008 0
M  V30 10840 C 998.003 -3.21013 -1.14731 0
M  V30 10841 H 999.196 -2.93012 0.639082 0
M  V30 10842 H 996.749 -1.51867 0.369624 0
M  V30 10843 H 997.484 -2.61803 -1.91388 0
M  V30 10844 H 997.269 -3.86628 -0.652753 0
M  V30 10845 H 998.759 -3.8394 -1.64256 0
M  V30 10846 N 999.196 -0.349774 -1.5367 0
M  V30 10847 C 1000.42 0.246038 -2.05432 0
M  V30 10848 C 1000.84 1.43719 -1.22435 0
M  V30 10849 O 1000.2 1.80622 -0.261166 0
M  V30 10850 C 1000.25 0.65501 -3.55516 0
M  V30 10851 O 999.968 -0.488782 -4.35365 0
M  V30 10852 C 1001.47 1.31088 -4.23475 0
M  V30 10853 H 998.689 0.0463952 -0.669394 0
M  V30 10854 H 1001.23 -0.503566 -1.98203 0
M  V30 10855 H 999.388 1.35455 -3.62947 0
M  V30 10856 H 999.802 -0.161528 -5.24251 0
M  V30 10857 H 1001.28 1.54774 -5.29857 0
M  V30 10858 H 1001.75 2.26636 -3.76208 0
M  V30 10859 H 1002.36 0.653211 -4.20254 0
M  V30 10860 N 1000.67 1.57404 -0.0785433 0
M  V30 10861 C 1001.64 2.11977 0.871693 0
M  V30 10862 C 1002.64 1.04529 1.2219 0
M  V30 10863 O 1003.83 1.30488 1.15406 0
M  V30 10864 C 1000.96 2.6267 2.17296 0
M  V30 10865 H 1002.15 2.97246 0.398115 0
M  V30 10866 H 999.705 1.5537 0.170251 0
M  V30 10867 H 1000.44 1.80873 2.69175 0
M  V30 10868 H 1000.22 3.41214 1.93171 0
M  V30 10869 H 1001.71 3.04943 2.85306 0
M  V30 10870 N 1002.15 -0.195058 1.56388 0
M  V30 10871 C 1003.08 -1.24444 1.97575 0
M  V30 10872 C 1004.06 -1.47471 0.847717 0
M  V30 10873 O 1005.25 -1.59208 1.11205 0
M  V30 10874 C 1002.38 -2.58866 2.31529 0
M  V30 10875 C 1001.33 -2.50451 3.47071 0
M  V30 10876 C 1000.66 -3.89146 3.667 0
M  V30 10877 C 1001.96 -2.02953 4.81256 0
M  V30 10878 H 1003.65 -0.902178 2.85484 0
M  V30 10879 H 1001.2 -0.43254 1.3735 0
M  V30 10880 H 1003.15 -3.3246 2.58936 0
M  V30 10881 H 1001.87 -2.94833 1.40502 0
M  V30 10882 H 1000.53 -1.79313 3.19754 0
M  V30 10883 H 1000.18 -4.22466 2.73004 0
M  V30 10884 H 999.882 -3.84391 4.44429 0
M  V30 10885 H 1001.41 -4.64363 3.96484 0
M  V30 10886 H 1002.82 -2.66306 5.07695 0
M  V30 10887 H 1001.22 -2.092 5.62455 0
M  V30 10888 H 1002.29 -0.982757 4.74837 0
M  V30 10889 N 1003.63 -1.50653 -0.462772 0
M  V30 10890 C 1004.58 -1.70661 -1.58043 0
M  V30 10891 C 1005.57 -0.572533 -1.59432 0
M  V30 10892 O 1006.78 -0.753257 -1.63481 0
M  V30 10893 H 1003.15 -0.538805 -0.524588 0
M  V30 10894 H 1005.12 -2.64399 -1.38332 0
M  V30 10895 C 1003.87 -1.82558 -2.95919 0
M  V30 10896 H 1003.2 -2.69216 -2.95572 0
M  V30 10897 H 1004.64 -2.0058 -3.73556 0
M  V30 10898 C 1003.09 -0.57916 -3.31885 0
M  V30 10899 O 1003.62 0.277888 -4.00738 0
M  V30 10900 N 1001.83 -0.430723 -2.8739 0
M  V30 10901 H 1001.38 -1.1292 -2.31531 0
M  V30 10902 H 1001.34 0.402061 -3.11819 0
M  V30 10903 N 1005.11 0.71652 -1.4037 0
M  V30 10904 C 1006.34 1.50563 -1.4191 0
M  V30 10905 C 1006.75 1.88791 -0.0185456 0
M  V30 10906 O 1006.11 1.55378 0.957289 0
M  V30 10907 C 1006.16 2.78155 -2.30894 0
M  V30 10908 O 1005.88 2.41543 -3.65497 0
M  V30 10909 C 1007.38 3.72057 -2.41016 0
M  V30 10910 H 1004.6 0.464679 -0.48406 0
M  V30 10911 H 1007.15 0.883927 -1.8441 0
M  V30 10912 H 1005.3 3.36611 -1.91759 0
M  V30 10913 H 1005.71 3.23636 -4.12747 0
M  V30 10914 H 1007.19 4.58426 -3.07489 0
M  V30 10915 H 1007.67 4.15098 -1.43492 0
M  V30 10916 H 1008.27 3.19512 -2.80699 0
M  V30 10917 N 1006.59 1.25851 0.948643 0
M  V30 10918 C 1007.81 1.13813 1.73382 0
M  V30 10919 C 1008.24 -0.303615 1.85633 0
M  V30 10920 O 1007.59 -1.21997 1.34114 0
M  V30 10921 C 1007.64 1.80388 3.12238 0
M  V30 10922 O 1006.75 1.08759 3.978 0
M  V30 10923 H 1006.09 0.397006 0.532243 0
M  V30 10924 H 1008.62 1.66529 1.18866 0
M  V30 10925 H 1008.63 1.86913 3.62667 0
M  V30 10926 H 1007.3 2.85278 3.02637 0
M  V30 10927 H 1005.88 1.10157 3.56258 0
M  V30 10928 N 1008.06 -1.15214 1.07534 0
M  V30 10929 C 1009.31 -1.85676 0.79805 0
M  V30 10930 C 1009.63 -1.82837 -0.677919 0
M  V30 10931 O 1008.9 -1.27059 -1.49107 0
M  V30 10932 H 1007.48 -0.687468 0.292227 0
M  V30 10933 H 1010.15 -1.39658 1.35947 0
M  V30 10934 H 1009.24 -2.9076 1.13423 0
M  V30 10935 N 1009.54 -0.859717 -1.32086 0
M  V30 10936 C 1010.51 -0.313005 -2.27053 0
M  V30 10937 C 1011.51 0.530191 -1.51808 0
M  V30 10938 O 1012.7 0.340972 -1.7083 0
M  V30 10939 C 1009.83 0.5566 -3.36325 0
M  V30 10940 H 1011.02 -1.15125 -2.76923 0
M  V30 10941 H 1008.57 -0.634463 -1.42843 0
M  V30 10942 H 1009.31 1.41645 -2.91731 0
M  V30 10943 H 1009.09 -0.0470197 -3.92072 0
M  V30 10944 H 1010.58 0.931725 -4.07073 0
M  V30 10945 N 1011.02 1.44971 -0.618145 0
M  V30 10946 C 1012.27 2.0176 -0.11725 0
M  V30 10947 C 1012.59 1.48773 1.26062 0
M  V30 10948 O 1011.86 0.686152 1.83491 0
M  V30 10949 H 1010.44 0.745909 -0.0403545 0
M  V30 10950 H 1013.1 1.77638 -0.801923 0
M  V30 10951 H 1012.2 3.1201 -0.0750477 0
M  V30 10952 N 1012.5 0.357919 1.53482 0
M  V30 10953 C 1013.75 -0.2337 2.00744 0
M  V30 10954 C 1014.07 -1.49908 1.2471 0
M  V30 10955 O 1013.34 -1.92597 0.358235 0
M  V30 10956 H 1011.92 -0.0893474 0.741637 0
M  V30 10957 H 1014.58 0.482388 1.88836 0
M  V30 10958 H 1013.68 -0.466073 3.086 0
M  V30 10959 N 1013.98 -1.5736 0.0868897 0
M  V30 10960 C 1015.2 -1.98809 -0.590757 0
M  V30 10961 C 1015.63 -0.965407 -1.61436 0
M  V30 10962 O 1014.98 0.067143 -1.81176 0
M  V30 10963 C 1015.03 -3.39249 -1.22238 0
M  V30 10964 O 1014.14 -3.39706 -2.33824 0
M  V30 10965 H 1013.48 -0.64669 -0.150626 0
M  V30 10966 H 1016.01 -2.03927 0.165873 0
M  V30 10967 H 1016.02 -3.76765 -1.56564 0
M  V30 10968 H 1014.69 -4.13208 -0.472434 0
M  V30 10969 H 1013.27 -3.13977 -2.01178 0
M  V30 10970 N 1015.45 0.186762 -1.56489 0
M  V30 10971 C 1016.87 0.537933 -1.50261 0
M  V30 10972 C 1017.07 1.85435 -0.788414 0
M  V30 10973 O 1016.13 2.50168 -0.342377 0
M  V30 10974 C 1017.44 0.584965 -2.94955 0
M  V30 10975 C 1018.99 0.673228 -3.05674 0
M  V30 10976 C 1019.46 0.751294 -4.51796 0
M  V30 10977 N 1020.95 0.814599 -4.55981 0
M  V30 10978 C 1021.69 0.895313 -5.66367 0
M  V30 10979 N 1021.18 0.937814 -6.86423 0
M  V30 10980 N 1022.98 0.933145 -5.543 0
M  V30 10981 H 1015.13 -0.676636 -2.01334 0
M  V30 10982 H 1017.39 -0.242079 -0.916571 0
M  V30 10983 H 1017.1 -0.313361 -3.50301 0
M  V30 10984 H 1016.97 1.4368 -3.48763 0
M  V30 10985 H 1019.36 1.56198 -2.50372 0
M  V30 10986 H 1019.44 -0.204976 -2.54977 0
M  V30 10987 H 1019.08 -0.133143 -5.07725 0
M  V30 10988 H 1019.01 1.64542 -5.00233 0
M  V30 10989 H 1021.5 0.790662 -3.69536 0
M  V30 10990 H 1021.82 1.00015 -7.66301 0
M  V30 10991 H 1020.16 0.906351 -6.89065 0
M  V30 10992 H 1023.35 0.896836 -4.59428 0
M  V30 10993 H 1023.53 0.992588 -6.40353 0
M  V30 10994 N 1016.93 1.50896 0.454776 0
M  V30 10995 C 1018.34 1.55372 1.0352 0
M  V30 10996 C 1018.69 0.366822 1.9274 0
M  V30 10997 O 1017.82 -0.518444 2.10098 0
M  V30 10998 C 1018.41 2.81574 1.88418 0
M  V30 10999 C 1016.97 2.88679 2.4154 0
M  V30 11000 C 1016.12 2.49847 1.20298 0
M  V30 11001 H 1019.07 1.56924 0.236729 0
M  V30 11002 H 1019.09 2.64352 2.73676 0
M  V30 11003 H 1018.6 3.67941 1.23455 0
M  V30 11004 H 1016.71 2.06702 3.10008 0
M  V30 11005 H 1016.82 3.91944 2.7553 0
M  V30 11006 H 1015.18 2.02651 1.54288 0
M  V30 11007 H 1015.97 3.3854 0.569723 0
M  V30 11008 N 1018.41 -0.709066 1.40748 0
M  V30 11009 C 1019.37 -1.80485 1.41272 0
M  V30 11010 C 1020.37 -1.57872 0.305463 0
M  V30 11011 O 1021.56 -1.64793 0.564691 0
M  V30 11012 C 1018.7 -3.1867 1.21087 0
M  V30 11013 H 1019.89 -1.81417 2.38805 0
M  V30 11014 H 1017.44 -0.915356 1.26692 0
M  V30 11015 H 1018.18 -3.23385 0.243406 0
M  V30 11016 H 1017.96 -3.36484 2.01299 0
M  V30 11017 H 1019.45 -3.98685 1.24257 0
M  V30 11018 N 1019.89 -1.26353 -0.941956 0
M  V30 11019 C 1020.82 -1.03634 -2.04432 0
M  V30 11020 C 1021.83 0.00295864 -1.628 0
M  V30 11021 O 1023.02 -0.237029 -1.76919 0
M  V30 11022 C 1020.12 -0.547231 -3.34453 0
M  V30 11023 C 1019.3 -1.65559 -4.04857 0
M  V30 11024 C 1018.36 -1.16466 -5.13149 0
M  V30 11025 O 1017.38 -1.86158 -5.37898 0
M  V30 11026 N 1018.58 -0.0126703 -5.80499 0
M  V30 11027 H 1021.35 -1.98558 -2.24488 0
M  V30 11028 H 1018.91 -1.17728 -1.11138 0
M  V30 11029 H 1020.9 -0.203004 -4.04191 0
M  V30 11030 H 1019.47 0.308401 -3.11075 0
M  V30 11031 H 1018.69 -2.17079 -3.29044 0
M  V30 11032 H 1019.98 -2.39985 -4.48647 0
M  V30 11033 H 1019.38 0.569358 -5.62828 0
M  V30 11034 H 1017.93 0.272486 -6.5123 0
M  V30 11035 N 1021.37 1.14642 -1.08144 0
M  V30 11036 C 1022.33 2.17834 -0.712799 0
M  V30 11037 C 1023.33 1.58828 0.251041 0
M  V30 11038 O 1024.52 1.74173 0.0309381 0
M  V30 11039 C 1021.65 3.4086 -0.0519477 0
M  V30 11040 H 1022.85 2.51961 -1.62653 0
M  V30 11041 H 1020.4 1.29243 -0.878971 0
M  V30 11042 H 1021.13 3.12311 0.873636 0
M  V30 11043 H 1020.92 3.84952 -0.745286 0
M  V30 11044 H 1022.41 4.17163 0.191031 0
M  V30 11045 N 1022.85 0.866709 1.31628 0
M  V30 11046 C 1024.09 0.476731 1.97117 0
M  V30 11047 C 1024.42 -0.967813 1.68366 0
M  V30 11048 O 1023.7 -1.68101 0.978377 0
M  V30 11049 C 1023.98 0.730561 3.52611 0
M  V30 11050 C 1023.84 2.2244 3.90948 0
M  V30 11051 C 1025.15 0.19488 4.39668 0
M  V30 11052 H 1022.27 0.174682 0.715999 0
M  V30 11053 H 1024.92 1.08735 1.5581 0
M  V30 11054 H 1023.07 0.210834 3.87927 0
M  V30 11055 H 1024.74 2.81113 3.6575 0
M  V30 11056 H 1022.98 2.69824 3.39673 0
M  V30 11057 H 1023.65 2.35266 4.99353 0
M  V30 11058 H 1026.13 0.639478 4.11157 0
M  V30 11059 H 1025 0.401958 5.47426 0
M  V30 11060 H 1025.26 -0.90302 4.32779 0
M  V30 11061 N 1024.32 -1.44642 0.625825 0
M  V30 11062 C 1025.74 -1.56925 0.290992 0
M  V30 11063 C 1025.94 -1.61424 -1.20601 0
M  V30 11064 O 1025 -1.55439 -1.98985 0
M  V30 11065 C 1026.31 -2.84343 0.978242 0
M  V30 11066 C 1027.86 -2.98047 0.955882 0
M  V30 11067 C 1028.33 -4.2826 1.62349 0
M  V30 11068 N 1029.82 -4.35062 1.58983 0
M  V30 11069 C 1030.56 -5.34524 2.07538 0
M  V30 11070 N 1030.05 -6.4042 2.6426 0
M  V30 11071 N 1031.85 -5.25998 1.98198 0
M  V30 11072 H 1024 -1.39965 1.59761 0
M  V30 11073 H 1026.26 -0.670368 0.670306 0
M  V30 11074 H 1025.97 -2.86985 2.03304 0
M  V30 11075 H 1025.84 -3.73699 0.512726 0
M  V30 11076 H 1028.23 -2.94961 -0.0904292 0
M  V30 11077 H 1028.31 -2.10053 1.45984 0
M  V30 11078 H 1027.95 -4.32105 2.66923 0
M  V30 11079 H 1027.88 -5.15102 1.09441 0
M  V30 11080 H 1030.37 -3.59147 1.17565 0
M  V30 11081 H 1030.69 -7.1259 2.99056 0
M  V30 11082 H 1029.03 -6.41121 2.68308 0
M  V30 11083 H 1032.22 -4.42178 1.5361 0
M  V30 11084 H 1032.4 -6.03359 2.3635 0
M  V30 11085 N 1025.8 -0.366053 -1.5329 0
M  V30 11086 C 1026.76 0.467904 -2.24373 0
M  V30 11087 C 1027.76 1.00934 -1.25176 0
M  V30 11088 O 1028.95 0.895015 -1.49449 0
M  V30 11089 C 1026.09 1.65405 -2.98084 0
M  V30 11090 H 1027.28 -0.154105 -2.99504 0
M  V30 11091 H 1024.83 -0.117751 -1.55856 0
M  V30 11092 H 1025.57 2.31413 -2.27197 0
M  V30 11093 H 1025.35 1.27277 -3.70868 0
M  V30 11094 H 1026.84 2.24503 -3.52119 0
M  V30 11095 N 1027.28 1.57312 -0.0952337 0
M  V30 11096 C 1028.7 1.57445 0.261416 0
M  V30 11097 C 1028.9 1.10639 1.68408 0
M  V30 11098 O 1027.95 0.782912 2.40056 0
M  V30 11099 C 1029.26 3.00659 0.0497206 0
M  V30 11100 C 1030.81 3.1278 0.117459 0
M  V30 11101 C 1031.29 4.57952 -0.0662441 0
M  V30 11102 N 1032.78 4.63199 -0.0114146 0
M  V30 11103 C 1033.51 5.73255 -0.128799 0
M  V30 11104 N 1033.01 6.92146 -0.301026 0
M  V30 11105 N 1034.8 5.62056 -0.0700599 0
M  V30 11106 H 1026.95 1.86045 -1.02475 0
M  V30 11107 H 1029.22 0.858726 -0.401614 0
M  V30 11108 H 1028.92 3.39102 -0.932888 0
M  V30 11109 H 1028.8 3.68792 0.791975 0
M  V30 11110 H 1031.18 2.74209 1.09057 0
M  V30 11111 H 1031.26 2.47238 -0.656288 0
M  V30 11112 H 1030.91 4.97217 -1.03623 0
M  V30 11113 H 1030.84 5.21555 0.727198 0
M  V30 11114 H 1033.33 3.77712 0.119154 0
M  V30 11115 H 1033.64 7.71855 -0.382104 0
M  V30 11116 H 1031.99 6.94184 -0.336695 0
M  V30 11117 H 1035.18 4.68057 0.0633587 0
M  V30 11118 H 1035.35 6.4779 -0.164991 0
M  V30 11119 N 1028.76 -0.17846 1.56586 0
M  V30 11120 C 1030.17 -0.741599 1.71339 0
M  V30 11121 C 1030.52 -1.83112 0.704579 0
M  V30 11122 O 1029.64 -2.15975 -0.135557 0
M  V30 11123 C 1030.24 -1.35198 3.10656 0
M  V30 11124 C 1028.8 -1.86202 3.27118 0
M  V30 11125 C 1027.95 -0.738255 2.67292 0
M  V30 11126 H 1030.9 0.0468424 1.58631 0
M  V30 11127 H 1030.92 -2.2216 3.0891 0
M  V30 11128 H 1030.43 -0.558776 3.84056 0
M  V30 11129 H 1028.53 -2.68188 2.58661 0
M  V30 11130 H 1028.64 -2.01237 4.34788 0
M  V30 11131 H 1027.01 -1.15686 2.26912 0
M  V30 11132 H 1027.79 0.0429821 3.43273 0
M  V30 11133 N 1030.24 -1.51135 -0.446768 0
M  V30 11134 C 1031.65 -1.39101 -0.782504 0
M  V30 11135 C 1031.85 -0.46599 -1.96038 0
M  V30 11136 O 1030.91 0.0823679 -2.52366 0
M  V30 11137 C 1032.22 -2.80953 -1.07173 0
M  V30 11138 C 1033.77 -2.90038 -1.17673 0
M  V30 11139 C 1034.24 -4.32777 -1.49894 0
M  V30 11140 N 1035.73 -4.3584 -1.56837 0
M  V30 11141 C 1036.47 -5.43305 -1.83322 0
M  V30 11142 N 1035.97 -6.60945 -2.07662 0
M  V30 11143 N 1037.76 -5.30775 -1.85026 0
M  V30 11144 H 1029.91 -2.09835 0.329114 0
M  V30 11145 H 1032.17 -0.944199 0.0848054 0
M  V30 11146 H 1031.88 -3.50591 -0.279037 0
M  V30 11147 H 1031.75 -3.197 -2.00179 0
M  V30 11148 H 1034.14 -2.20603 -1.96005 0
M  V30 11149 H 1034.22 -2.54801 -0.225892 0
M  V30 11150 H 1033.86 -5.02757 -0.720924 0
M  V30 11151 H 1033.79 -4.6552 -2.46168 0
M  V30 11152 H 1036.29 -3.51023 -1.39968 0
M  V30 11153 H 1036.6 -7.38643 -2.27214 0
M  V30 11154 H 1034.94 -6.64077 -2.05003 0
M  V30 11155 H 1038.13 -4.37858 -1.65523 0
M  V30 11156 H 1038.31 -6.14609 -2.05329 0
M  V30 11157 N 1031.71 0.701592 -1.41122 0
M  V30 11158 C 1032.94 1.49553 -1.43696 0
M  V30 11159 C 1033.36 1.88053 -0.0421865 0
M  V30 11160 O 1032.72 1.54223 0.953144 0
M  V30 11161 C 1032.77 2.73834 -2.34622 0
M  V30 11162 O 1031.87 3.71088 -1.7991 0
M  V30 11163 H 1031.21 0.450352 -0.487933 0
M  V30 11164 H 1033.74 0.862886 -1.85514 0
M  V30 11165 H 1033.75 3.22209 -2.5029 0
M  V30 11166 H 1032.43 2.45149 -3.35969 0
M  V30 11167 H 1031.01 3.29994 -1.73661 0
M  V30 11168 N 1033.19 1.2685 0.935242 0
M  V30 11169 C 1034.14 1.08746 2.05614 0
M  V30 11170 C 1035.13 0.012681 1.69395 0
M  V30 11171 O 1036.34 0.169822 1.79197 0
M  V30 11172 H 1032.71 0.33485 0.673335 0
M  V30 11173 H 1034.69 2.03725 2.18033 0
M  V30 11174 C 1033.43 0.74346 3.39659 0
M  V30 11175 H 1032.76 1.56236 3.68008 0
M  V30 11176 H 1034.2 0.656607 4.18885 0
M  V30 11177 C 1032.66 -0.551751 3.32351 0
M  V30 11178 O 1033.19 -1.58836 3.68963 0
M  V30 11179 N 1031.39 -0.544583 2.85452 0
M  V30 11180 H 1030.94 0.29939 2.55854 0
M  V30 11181 H 1030.9 -1.41129 2.80945 0
M  V30 11182 N 1034.67 -1.14067 1.0875 0
M  V30 11183 C 1035.9 -1.89582 0.841038 0
M  V30 11184 C 1036.32 -1.78226 -0.601436 0
M  V30 11185 O 1035.68 -1.12491 -1.42181 0
M  V30 11186 C 1035.73 -3.37415 1.27213 0
M  V30 11187 O 1034.83 -4.10191 0.426246 0
M  V30 11188 H 1034.17 -0.589716 0.305173 0
M  V30 11189 H 1036.7 -1.44364 1.44984 0
M  V30 11190 H 1036.71 -3.88234 1.25451 0
M  V30 11191 H 1035.39 -3.44999 2.32268 0
M  V30 11192 H 1033.96 -3.69429 0.507585 0
M  V30 11193 N 1036.15 -0.873678 -1.31166 0
M  V30 11194 C 1037.11 -0.337069 -2.26708 0
M  V30 11195 C 1038.11 0.51406 -1.52362 0
M  V30 11196 O 1039.3 0.322834 -1.71182 0
M  V30 11197 C 1036.43 0.520897 -3.36897 0
M  V30 11198 H 1037.63 -1.18056 -2.75686 0
M  V30 11199 H 1035.18 -0.649577 -1.42163 0
M  V30 11200 H 1035.91 1.38543 -2.93217 0
M  V30 11201 H 1035.7 -0.0886015 -3.92 0
M  V30 11202 H 1037.19 0.888497 -4.08039 0
M  V30 11203 N 1037.63 1.44308 -0.633487 0
M  V30 11204 C 1038.87 2.02863 -0.14765 0
M  V30 11205 C 1039.23 1.48956 1.21778 0
M  V30 11206 O 1038.52 0.664997 1.7969 0
M  V30 11207 C 1038.71 3.57316 -0.0773886 0
M  V30 11208 C 1038.54 4.26208 -1.43446 0
M  V30 11209 C 1037.31 4.63087 -2.02184 0
M  V30 11210 C 1039.51 4.56501 -2.36879 0
M  V30 11211 N 1037.49 5.16957 -3.31102 0
M  V30 11212 C 1038.86 5.11479 -3.50413 0
M  V30 11213 C 1040.92 4.38454 -2.35929 0
M  V30 11214 C 1039.62 5.50311 -4.63196 0
M  V30 11215 C 1041.65 4.78336 -3.47777 0
M  V30 11216 C 1041.01 5.3343 -4.60035 0
M  V30 11217 H 1037.11 0.775835 -0.0980038 0
M  V30 11218 H 1039.69 1.75767 -0.837495 0
M  V30 11219 H 1037.86 3.84019 0.581743 0
M  V30 11220 H 1039.6 4.02541 0.417494 0
M  V30 11221 H 1036.35 4.47482 -1.55103 0
M  V30 11222 H 1036.78 5.48366 -3.97019 0
M  V30 11223 H 1041.42 3.9515 -1.50387 0
M  V30 11224 H 1039.14 5.92568 -5.49444 0
M  V30 11225 H 1042.72 4.66084 -3.4822 0
M  V30 11226 H 1041.6 5.63719 -5.45151 0
M  V30 11227 N 1039.1 0.374177 1.53094 0
M  V30 11228 C 1040.04 -0.503065 2.23611 0
M  V30 11229 C 1041.05 -1.03915 1.25321 0
M  V30 11230 O 1042.24 -0.944064 1.51492 0
M  V30 11231 C 1039.34 -1.70825 2.92698 0
M  V30 11232 C 1038.51 -1.30217 4.17567 0
M  V30 11233 C 1037.57 -2.37036 4.69788 0
M  V30 11234 O 1036.6 -1.99069 5.33254 0
M  V30 11235 N 1037.8 -3.68743 4.4834 0
M  V30 11236 H 1040.56 0.101013 2.9953 0
M  V30 11237 H 1038.12 0.199778 1.60663 0
M  V30 11238 H 1040.12 -2.41779 3.24538 0
M  V30 11239 H 1038.69 -2.219 2.2018 0
M  V30 11240 H 1037.91 -0.422121 3.91933 0
M  V30 11241 H 1039.19 -1.00728 4.9873 0
M  V30 11242 H 1038.59 -4.0236 3.97647 0
M  V30 11243 H 1037.15 -4.35776 4.84709 0
M  V30 11244 N 1040.58 -1.57259 0.103575 0
M  V30 11245 C 1041.83 -1.93832 -0.55786 0
M  V30 11246 C 1042.14 -0.988087 -1.68808 0
M  V30 11247 O 1043.35 -1.24786 -2.41124 0
M  V30 11248 C 1041.81 -3.44433 -1.04373 0
M  V30 11249 C 1041.41 -4.47963 0.0571971 0
M  V30 11250 C 1043.16 -3.89953 -1.67742 0
M  V30 11251 C 1041.07 -5.89727 -0.444505 0
M  V30 11252 H 1040 -0.723536 -0.212161 0
M  V30 11253 H 1042.65 -1.82606 0.180944 0
M  V30 11254 H 1041.03 -3.50841 -1.83648 0
M  V30 11255 H 1042.2 -4.53209 0.83298 0
M  V30 11256 H 1040.52 -4.12104 0.596588 0
M  V30 11257 H 1043.11 -4.93272 -2.06365 0
M  V30 11258 H 1043.46 -3.2907 -2.54988 0
M  V30 11259 H 1043.99 -3.86281 -0.950342 0
M  V30 11260 H 1040.73 -6.5433 0.391543 0
M  V30 11261 H 1040.25 -5.87935 -1.18711 0
M  V30 11262 H 1041.93 -6.40558 -0.910739 0
M  V30 11263 N 1042.06 0.170153 -1.56679 0
M  V30 11264 C 1043.29 0.900826 -1.85927 0
M  V30 11265 C 1043.7 1.76285 -0.687033 0
M  V30 11266 O 1043.04 1.80276 0.353029 0
M  V30 11267 C 1043.1 1.82723 -3.096 0
M  V30 11268 C 1042.77 1.14469 -4.42432 0
M  V30 11269 C 1043.76 0.509598 -5.17396 0
M  V30 11270 C 1041.45 1.1411 -4.89167 0
M  V30 11271 C 1043.44 -0.119976 -6.37287 0
M  V30 11272 C 1041.13 0.507703 -6.08987 0
M  V30 11273 C 1042.13 -0.121731 -6.82892 0
M  V30 11274 O 1041.82 -0.74514 -8.00439 0
M  V30 11275 H 1041.55 0.267087 -0.621 0
M  V30 11276 H 1044.1 0.17474 -2.04655 0
M  V30 11277 H 1042.33 2.59367 -2.8682 0
M  V30 11278 H 1044.02 2.42784 -3.25285 0
M  V30 11279 H 1044.79 0.504341 -4.82371 0
M  V30 11280 H 1040.67 1.62043 -4.31582 0
M  V30 11281 H 1044.21 -0.611872 -6.94911 0
M  V30 11282 H 1040.11 0.510548 -6.43478 0
M  V30 11283 H 1040.88 -0.644506 -8.15959 0
M  V30 11284 N 1043.54 1.5137 0.438746 0
M  V30 11285 C 1044.47 1.75528 1.53987 0
M  V30 11286 C 1045.45 0.605067 1.58975 0
M  V30 11287 O 1046.63 0.847634 1.74725 0
M  V30 11288 C 1043.76 1.87904 2.92078 0
M  V30 11289 C 1042.72 3.0333 3.01951 0
M  V30 11290 C 1042.04 3.00888 4.42007 0
M  V30 11291 C 1043.34 4.43319 2.76163 0
M  V30 11292 H 1045.04 2.67728 1.34022 0
M  V30 11293 H 1042.58 1.28831 0.643308 0
M  V30 11294 H 1044.54 2.03388 3.69068 0
M  V30 11295 H 1043.26 0.923514 3.13271 0
M  V30 11296 H 1041.92 2.87549 2.274 0
M  V30 11297 H 1041.57 2.03116 4.60166 0
M  V30 11298 H 1041.27 3.78397 4.49544 0
M  V30 11299 H 1042.79 3.18464 5.20973 0
M  V30 11300 H 1044.21 4.59458 3.42887 0
M  V30 11301 H 1042.6 5.22523 2.9511 0
M  V30 11302 H 1043.67 4.53453 1.71779 0
M  V30 11303 N 1045.02 -0.694098 1.41492 0
M  V30 11304 C 1045.95 -1.81943 1.39389 0
M  V30 11305 C 1046.96 -1.6009 0.295836 0
M  V30 11306 O 1048.15 -1.69565 0.557658 0
M  V30 11307 C 1045.25 -3.18731 1.15167 0
M  V30 11308 C 1044.42 -3.67601 2.37041 0
M  V30 11309 C 1043.48 -4.83063 2.08654 0
M  V30 11310 O 1042.51 -4.94603 2.81704 0
M  V30 11311 N 1043.71 -5.70409 1.0777 0
M  V30 11312 H 1046.48 -1.84239 2.36381 0
M  V30 11313 H 1044.04 -0.876475 1.36123 0
M  V30 11314 H 1046.03 -3.93602 0.941264 0
M  V30 11315 H 1044.6 -3.11452 0.267673 0
M  V30 11316 H 1043.82 -2.83622 2.73774 0
M  V30 11317 H 1045.11 -3.96991 3.18239 0
M  V30 11318 H 1044.5 -5.63718 0.473123 0
M  V30 11319 H 1043.06 -6.45172 0.927177 0
M  V30 11320 N 1046.49 -1.27344 -0.928501 0
M  V30 11321 C 1047.91 -1.04732 -1.2043 0
M  V30 11322 C 1048.11 0.219623 -2.003 0
M  V30 11323 O 1047.17 0.925333 -2.34934 0
M  V30 11324 C 1048.48 -2.28625 -1.95323 0
M  V30 11325 C 1050.03 -2.33655 -2.08265 0
M  V30 11326 C 1050.5 -3.57275 -2.86563 0
M  V30 11327 N 1051.99 -3.57828 -2.94132 0
M  V30 11328 C 1052.73 -4.50152 -3.55177 0
M  V30 11329 N 1052.22 -5.52779 -4.17621 0
M  V30 11330 N 1054.02 -4.37777 -3.52573 0
M  V30 11331 H 1046.17 -2.08697 -0.394892 0
M  V30 11332 H 1048.43 -0.91782 -0.2373 0
M  V30 11333 H 1048.14 -3.20845 -1.44054 0
M  V30 11334 H 1048.01 -2.33878 -2.95941 0
M  V30 11335 H 1050.4 -1.41942 -2.58721 0
M  V30 11336 H 1050.48 -2.32406 -1.0687 0
M  V30 11337 H 1050.12 -4.49325 -2.3679 0
M  V30 11338 H 1050.05 -3.55775 -3.88242 0
M  V30 11339 H 1052.54 -2.83607 -2.49751 0
M  V30 11340 H 1052.86 -6.19394 -4.62137 0
M  V30 11341 H 1051.2 -5.56622 -4.16169 0
M  V30 11342 H 1054.39 -3.56811 -3.02991 0
M  V30 11343 H 1054.57 -5.09919 -3.99858 0
M  V30 11344 N 1047.97 1.13488 -1.09353 0
M  V30 11345 C 1049.39 1.36739 -0.823086 0
M  V30 11346 C 1049.59 1.93476 0.562963 0
M  V30 11347 O 1048.64 2.15374 1.31796 0
M  V30 11348 C 1049.96 2.31943 -1.91371 0
M  V30 11349 C 1051.51 2.4556 -1.94085 0
M  V30 11350 C 1051.98 3.44072 -3.02289 0
M  V30 11351 N 1053.47 3.51622 -3.01524 0
M  V30 11352 C 1054.21 4.27724 -3.8189 0
M  V30 11353 N 1053.7 5.06987 -4.72161 0
M  V30 11354 N 1055.5 4.23018 -3.70152 0
M  V30 11355 H 1047.65 0.75012 -1.98713 0
M  V30 11356 H 1049.91 0.392564 -0.862901 0
M  V30 11357 H 1049.62 1.97408 -2.91072 0
M  V30 11358 H 1049.49 3.31952 -1.79131 0
M  V30 11359 H 1051.88 2.79382 -0.950234 0
M  V30 11360 H 1051.96 1.45479 -2.10403 0
M  V30 11361 H 1051.6 3.10981 -4.01564 0
M  V30 11362 H 1051.53 4.43956 -2.83214 0
M  V30 11363 H 1054.02 2.95066 -2.36103 0
M  V30 11364 H 1054.34 5.6236 -5.30067 0
M  V30 11365 H 1052.68 5.06222 -4.76197 0
M  V30 11366 H 1055.87 3.60171 -2.98989 0
M  V30 11367 H 1056.04 4.82075 -4.33022 0
M  V30 11368 N 1049.45 0.880621 1.30701 0
M  V30 11369 C 1050.41 0.349087 2.26526 0
M  V30 11370 C 1051.41 -0.505973 1.52632 0
M  V30 11371 O 1052.6 -0.313751 1.71351 0
M  V30 11372 C 1049.74 -0.503023 3.37168 0
M  V30 11373 H 1050.93 1.19516 2.75056 0
M  V30 11374 H 1048.48 0.657107 1.41816 0
M  V30 11375 H 1049.22 -1.36986 2.93948 0
M  V30 11376 H 1049 0.109389 3.91947 0
M  V30 11377 H 1050.49 -0.866845 4.08504 0
M  V30 11378 N 1050.93 -1.4397 0.641131 0
M  V30 11379 C 1051.84 -2.34526 -0.058742 0
M  V30 11380 C 1052.86 -1.53194 -0.825088 0
M  V30 11381 O 1054.03 -1.85888 -0.775081 0
M  V30 11382 C 1051.1 -3.31313 -1.02139 0
M  V30 11383 C 1050.16 -4.28552 -0.253319 0
M  V30 11384 C 1049.39 -5.20715 -1.17012 0
M  V30 11385 O 1049.61 -5.17028 -2.40911 0
M  V30 11386 O 1048.55 -5.9839 -0.649039 0
M  V30 11387 H 1052.37 -2.95843 0.686329 0
M  V30 11388 H 1049.96 -1.43909 0.401316 0
M  V30 11389 H 1051.84 -3.90862 -1.57496 0
M  V30 11390 H 1050.52 -2.72516 -1.7469 0
M  V30 11391 H 1049.42 -3.72519 0.343531 0
M  V30 11392 H 1050.76 -4.90297 0.432372 0
M  V30 11393 N 1052.41 -0.382291 -1.52893 0
M  V30 11394 C 1053.82 -0.031941 -1.59568 0
M  V30 11395 C 1054.02 1.45245 -1.39664 0
M  V30 11396 O 1053.08 2.21612 -1.21013 0
M  V30 11397 C 1054.39 -0.502846 -2.96466 0
M  V30 11398 C 1055.94 -0.4585 -3.09624 0
M  V30 11399 C 1056.42 -0.905481 -4.4896 0
M  V30 11400 N 1057.91 -0.861211 -4.55124 0
M  V30 11401 C 1058.64 -1.17856 -5.61157 0
M  V30 11402 N 1058.14 -1.56603 -6.74868 0
M  V30 11403 N 1059.93 -1.10027 -5.51226 0
M  V30 11404 H 1052.08 -1.34875 -1.64081 0
M  V30 11405 H 1054.34 -0.552375 -0.770446 0
M  V30 11406 H 1054.05 -1.53931 -3.16225 0
M  V30 11407 H 1053.92 0.101777 -3.77063 0
M  V30 11408 H 1056.31 0.568868 -2.89565 0
M  V30 11409 H 1056.39 -1.09884 -2.30996 0
M  V30 11410 H 1056.04 -1.93105 -4.69759 0
M  V30 11411 H 1055.97 -0.242227 -5.26043 0
M  V30 11412 H 1058.46 -0.575988 -3.73485 0
M  V30 11413 H 1058.77 -1.792 -7.51736 0
M  V30 11414 H 1057.12 -1.60484 -6.76217 0
M  V30 11415 H 1060.31 -0.796623 -4.61272 0
M  V30 11416 H 1060.48 -1.35091 -6.33762 0
M  V30 11417 N 1053.89 1.57202 -0.111913 0
M  V30 11418 C 1055.13 1.94565 0.546713 0
M  V30 11419 C 1055.45 0.995644 1.67666 0
M  V30 11420 O 1054.72 0.0506681 1.95834 0
M  V30 11421 H 1053.3 0.718334 0.204951 0
M  V30 11422 H 1055.97 1.94074 -0.179193 0
M  V30 11423 H 1055.06 2.9742 0.945931 0
M  V30 11424 N 1055.36 -0.161842 1.56767 0
M  V30 11425 C 1056.59 -0.892247 1.86672 0
M  V30 11426 C 1057.01 -1.75407 0.69841 0
M  V30 11427 O 1056.36 -1.7945 -0.332251 0
M  V30 11428 C 1056.41 -1.7612 3.15696 0
M  V30 11429 O 1056.14 -0.934131 4.28025 0
M  V30 11430 C 1057.64 -2.60046 3.59014 0
M  V30 11431 H 1054.86 -0.258747 0.619105 0
M  V30 11432 H 1057.4 -0.159089 2.0388 0
M  V30 11433 H 1055.56 -2.44759 3.00286 0
M  V30 11434 H 1055.97 -1.52931 5.01709 0
M  V30 11435 H 1057.44 -3.16618 4.5217 0
M  V30 11436 H 1057.92 -3.35374 2.83586 0
M  V30 11437 H 1058.53 -1.96724 3.77067 0
M  V30 11438 N 1056.84 -1.516 -0.430713 0
M  V30 11439 C 1058.25 -1.57 -1.01035 0
M  V30 11440 C 1058.6 -0.397439 -1.92132 0
M  V30 11441 O 1057.73 0.484954 -2.10896 0
M  V30 11442 C 1058.32 -2.84536 -1.83915 0
M  V30 11443 C 1056.88 -2.92485 -2.36917 0
M  V30 11444 C 1056.03 -2.5173 -1.16308 0
M  V30 11445 H 1058.98 -1.57281 -0.211734 0
M  V30 11446 H 1059 -2.68672 -2.69435 0
M  V30 11447 H 1058.51 -3.69858 -1.17586 0
M  V30 11448 H 1056.61 -2.11608 -3.0668 0
M  V30 11449 H 1056.73 -3.96277 -2.6926 0
M  V30 11450 H 1055.09 -2.05079 -1.51045 0
M  V30 11451 H 1055.87 -3.39403 -0.515793 0
M  V30 11452 N 1058.32 0.686584 -1.41858 0
M  V30 11453 C 1059.27 1.80038 -1.44413 0
M  V30 11454 C 1060.24 1.63415 -0.297427 0
M  V30 11455 O 1061.42 1.84138 -0.499789 0
M  V30 11456 C 1058.56 3.17988 -1.34082 0
M  V30 11457 C 1057.67 3.45979 -2.58693 0
M  V30 11458 C 1056.81 4.73592 -2.4059 0
M  V30 11459 C 1055.85 4.94581 -3.60633 0
M  V30 11460 N 1054.99 6.13426 -3.41545 0
M  V30 11461 H 1059.83 1.77189 -2.396 0
M  V30 11462 H 1057.36 0.865158 -1.18968 0
M  V30 11463 H 1059.32 3.97689 -1.26092 0
M  V30 11464 H 1057.95 3.1999 -0.424975 0
M  V30 11465 H 1057 2.60617 -2.77097 0
M  V30 11466 H 1058.31 3.57386 -3.47961 0
M  V30 11467 H 1057.47 5.61364 -2.30119 0
M  V30 11468 H 1056.21 4.64448 -1.48794 0
M  V30 11469 H 1055.21 4.05254 -3.71549 0
M  V30 11470 H 1056.44 5.05578 -4.53395 0
M  V30 11471 H 1054.38 6.05477 -2.52456 0
M  V30 11472 H 1054.3 6.25641 -4.24393 0
M  V30 11473 H 1055.57 7.03908 -3.34864 0
M  V30 11474 N 1059.8 1.27835 0.921735 0
M  V30 11475 C 1061.21 1.13151 1.48505 0
M  V30 11476 C 1061.56 -0.281373 1.94172 0
M  V30 11477 O 1060.68 -1.17487 1.8173 0
M  V30 11478 C 1061.28 2.04792 2.69899 0
M  V30 11479 C 1059.84 1.94196 3.22436 0
M  V30 11480 C 1058.99 1.96999 1.95158 0
M  V30 11481 H 1061.94 1.40641 0.735241 0
M  V30 11482 H 1061.96 1.60724 3.44889 0
M  V30 11483 H 1061.47 3.07615 2.36631 0
M  V30 11484 H 1059.57 0.943805 3.60448 0
M  V30 11485 H 1059.68 2.80744 3.88226 0
M  V30 11486 H 1058.05 1.41301 2.11911 0
M  V30 11487 H 1058.83 3.01487 1.64196 0
M  V30 11488 N 1061.28 -1.12907 1.09954 0
M  V30 11489 C 1062.69 -1.65847 0.857417 0
M  V30 11490 C 1063.04 -1.86372 -0.613176 0
M  V30 11491 O 1062.16 -1.58654 -1.47166 0
M  V30 11492 C 1062.76 -3.01269 1.54991 0
M  V30 11493 C 1061.32 -3.51179 1.35462 0
M  V30 11494 C 1060.46 -2.26307 1.60251 0
M  V30 11495 H 1063.41 -0.96755 1.25794 0
M  V30 11496 H 1063.44 -3.675 0.986091 0
M  V30 11497 H 1062.95 -2.86299 2.6202 0
M  V30 11498 H 1061.05 -3.71343 0.305742 0
M  V30 11499 H 1061.16 -4.30955 2.09318 0
M  V30 11500 H 1059.53 -2.33167 1.02494 0
M  V30 11501 H 1060.31 -2.13896 2.68521 0
M  V30 11502 N 1062.75 -0.88754 -1.30232 0
M  V30 11503 C 1064 -0.506277 -1.95656 0
M  V30 11504 C 1064.32 0.948191 -1.70395 0
M  V30 11505 O 1063.59 1.66701 -1.02895 0
M  V30 11506 H 1062.17 -0.184235 -0.723924 0
M  V30 11507 H 1064.83 -1.13118 -1.58715 0
M  V30 11508 H 1063.93 -0.678673 -3.04632 0
M  V30 11509 N 1064.23 1.43628 -0.648757 0
M  V30 11510 C 1065.64 1.85142 -0.24066 0
M  V30 11511 C 1065.99 1.54304 1.21181 0
M  V30 11512 O 1065.12 0.989792 1.92437 0
M  V30 11513 C 1065.71 3.3606 -0.429999 0
M  V30 11514 C 1064.27 3.76323 -0.0762588 0
M  V30 11515 C 1063.42 2.67382 -0.734999 0
M  V30 11516 H 1066.37 1.33844 -0.852734 0
M  V30 11517 H 1066.39 3.79102 0.325836 0
M  V30 11518 H 1065.9 3.58474 -1.48721 0
M  V30 11519 H 1064.01 3.59521 0.978529 0
M  V30 11520 H 1064.12 4.76498 -0.498612 0
M  V30 11521 H 1062.48 2.54141 -0.168644 0
M  V30 11522 H 1063.27 2.92625 -1.79515 0
M  V30 11523 N 1065.71 0.390394 1.52688 0
M  V30 11524 C 1067.12 -0.083394 1.86514 0
M  V30 11525 C 1067.47 -1.46057 1.31003 0
M  V30 11526 O 1066.6 -2.06663 0.641809 0
M  V30 11527 C 1067.19 -0.158102 3.38431 0
M  V30 11528 C 1065.75 -0.576186 3.71964 0
M  V30 11529 C 1064.9 0.261156 2.76068 0
M  V30 11530 H 1067.85 0.608226 1.46582 0
M  V30 11531 H 1067.87 -0.977023 3.67742 0
M  V30 11532 H 1067.38 0.844365 3.78803 0
M  V30 11533 H 1065.48 -1.58598 3.37161 0
M  V30 11534 H 1065.6 -0.333577 4.77937 0
M  V30 11535 H 1063.96 -0.273737 2.53225 0
M  V30 11536 H 1064.74 1.26162 3.19277 0
M  V30 11537 N 1067.19 -1.57141 0.120249 0
M  V30 11538 C 1068.15 -2.14213 -0.815185 0
M  V30 11539 C 1069.15 -1.07731 -1.19376 0
M  V30 11540 O 1070.34 -1.33502 -1.11906 0
M  V30 11541 C 1067.47 -2.68339 -2.10255 0
M  V30 11542 H 1068.67 -2.98197 -0.319166 0
M  V30 11543 H 1066.22 -1.55767 -0.128997 0
M  V30 11544 H 1066.95 -1.87946 -2.64285 0
M  V30 11545 H 1066.74 -3.46216 -1.84057 0
M  V30 11546 H 1068.23 -3.124 -2.77121 0
M  V30 11547 N 1068.67 0.153526 -1.5685 0
M  V30 11548 C 1069.6 1.2147 -1.94365 0
M  V30 11549 C 1070.61 1.39532 -0.838726 0
M  V30 11550 O 1071.8 1.39219 -1.11715 0
M  V30 11551 C 1068.9 2.5806 -2.19677 0
M  V30 11552 C 1068.07 2.61062 -3.50949 0
M  V30 11553 C 1067.13 3.79144 -3.64878 0
M  V30 11554 O 1066.16 3.64319 -4.37333 0
M  V30 11555 N 1067.36 4.96333 -3.01054 0
M  V30 11556 H 1070.13 0.895889 -2.85996 0
M  V30 11557 H 1067.69 0.343147 -1.58222 0
M  V30 11558 H 1069.68 3.35553 -2.26243 0
M  V30 11559 H 1068.25 2.8226 -1.34343 0
M  V30 11560 H 1067.47 1.69533 -3.55882 0
M  V30 11561 H 1068.76 2.60094 -4.37297 0
M  V30 11562 H 1068.15 5.1128 -2.42093 0
M  V30 11563 H 1066.71 5.71625 -3.13191 0
M  V30 11564 N 1070.14 1.51827 0.422667 0
M  V30 11565 C 1071.56 1.57533 1.00201 0
M  V30 11566 C 1071.91 0.407623 1.91919 0
M  V30 11567 O 1071.03 -0.473763 2.1115 0
M  V30 11568 C 1071.63 2.85508 1.82403 0
M  V30 11569 C 1070.19 2.93737 2.35362 0
M  V30 11570 C 1069.33 2.52343 1.14971 0
M  V30 11571 H 1072.28 1.57391 0.20339 0
M  V30 11572 H 1072.3 2.70097 2.68007 0
M  V30 11573 H 1071.82 3.70477 1.15623 0
M  V30 11574 H 1069.92 2.13231 3.05554 0
M  V30 11575 H 1070.03 3.977 2.67155 0
M  V30 11576 H 1068.39 2.05878 1.49955 0
M  V30 11577 H 1069.18 3.39672 0.497786 0
M  V30 11578 N 1071.62 -0.679052 1.4222 0
M  V30 11579 C 1073.03 -1.25953 1.37815 0
M  V30 11580 C 1073.38 -1.96077 0.0693215 0
M  V30 11581 O 1072.51 -1.99765 -0.832047 0
M  V30 11582 C 1073.1 -2.29063 2.49631 0
M  V30 11583 C 1071.66 -2.82647 2.48571 0
M  V30 11584 C 1070.81 -1.56909 2.28637 0
M  V30 11585 H 1073.76 -0.472714 1.51496 0
M  V30 11586 H 1073.78 -3.10708 2.19638 0
M  V30 11587 H 1073.29 -1.77996 3.44876 0
M  V30 11588 H 1071.4 -3.37846 1.57132 0
M  V30 11589 H 1071.51 -3.31952 3.45463 0
M  V30 11590 H 1069.87 -1.83323 1.76819 0
M  V30 11591 H 1070.66 -1.07814 3.25931 0
M  V30 11592 N 1073.1 -1.28322 -0.914942 0
M  V30 11593 C 1074.35 -1.15179 -1.66067 0
M  V30 11594 C 1074.67 0.300279 -1.92674 0
M  V30 11595 O 1073.94 1.20821 -1.54205 0
M  V30 11596 H 1072.52 -0.423264 -0.615513 0
M  V30 11597 H 1075.18 -1.61034 -1.09791 0
M  V30 11598 H 1074.28 -1.69048 -2.62353 0
M  V30 11599 N 1074.58 1.12322 -1.10551 0
M  V30 11600 C 1075.99 1.6539 -0.8662 0
M  V30 11601 C 1076.34 1.86695 0.603284 0
M  V30 11602 O 1075.47 1.59432 1.46323 0
M  V30 11603 C 1076.06 3.00443 -1.56587 0
M  V30 11604 C 1074.62 3.50456 -1.37323 0
M  V30 11605 C 1073.77 2.25454 -1.61449 0
M  V30 11606 H 1076.72 0.960866 -1.26305 0
M  V30 11607 H 1076.74 3.66972 -1.00557 0
M  V30 11608 H 1076.25 2.84905 -2.63535 0
M  V30 11609 H 1074.35 3.71176 -0.325431 0
M  V30 11610 H 1074.46 4.29839 -2.11601 0
M  V30 11611 H 1072.83 2.32621 -1.03729 0
M  V30 11612 H 1073.61 2.12469 -2.69651 0
M  V30 11613 N 1076.06 0.894434 1.2976 0
M  V30 11614 C 1077.47 0.566892 1.77885 0
M  V30 11615 C 1077.82 -0.917289 1.73437 0
M  V30 11616 O 1076.94 -1.71707 1.31703 0
M  V30 11617 C 1077.54 1.02227 3.2301 0
M  V30 11618 C 1076.1 0.745978 3.68934 0
M  V30 11619 C 1075.24 1.19993 2.49994 0
M  V30 11620 H 1078.2 1.0777 1.16496 0
M  V30 11621 H 1078.22 0.355281 3.78838 0
M  V30 11622 H 1077.73 2.1025 3.26215 0
M  V30 11623 H 1075.83 -0.321866 3.71207 0
M  V30 11624 H 1075.94 1.34017 4.59974 0
M  V30 11625 H 1074.31 0.619047 2.47063 0
M  V30 11626 H 1075.09 2.28811 2.55931 0
M  V30 11627 N 1077.53 -1.43282 0.656365 0
M  V30 11628 C 1078.48 -2.32556 -0.0452037 0
M  V30 11629 C 1079.48 -1.48789 -0.80982 0
M  V30 11630 O 1080.68 -1.64979 -0.719865 0
M  V30 11631 H 1077.06 -0.751258 -0.0334043 0
M  V30 11632 H 1079.03 -2.89448 0.725423 0
M  V30 11633 C 1077.78 -3.33138 -0.995706 0
M  V30 11634 H 1077.1 -3.97622 -0.416774 0
M  V30 11635 H 1078.54 -3.98231 -1.45562 0
M  V30 11636 C 1077 -2.63978 -2.09325 0
M  V30 11637 O 1077.53 -2.45769 -3.17743 0
M  V30 11638 N 1075.74 -2.23301 -1.8597 0
M  V30 11639 H 1075.28 -2.38312 -0.97802 0
M  V30 11640 H 1075.24 -1.77358 -2.59599 0
M  V30 11641 N 1079.01 -0.398486 -1.52479 0
M  V30 11642 C 1079.98 0.420206 -2.25315 0
M  V30 11643 C 1080.98 0.982559 -1.27289 0
M  V30 11644 O 1082.17 0.863113 -1.51314 0
M  V30 11645 C 1079.3 1.59045 -3.01525 0
M  V30 11646 H 1080.49 -0.217599 -2.9911 0
M  V30 11647 H 1078.04 -0.150784 -1.55571 0
M  V30 11648 H 1078.78 2.26542 -2.32054 0
M  V30 11649 H 1078.56 1.19382 -3.73484 0
M  V30 11650 H 1080.05 2.16984 -3.56802 0
M  V30 11651 N 1080.49 1.57075 -0.12858 0
M  V30 11652 C 1081.72 2.00305 0.537839 0
M  V30 11653 C 1082.14 1.00787 1.58819 0
M  V30 11654 O 1081.5 -0.0190839 1.8129 0
M  V30 11655 C 1081.55 3.42371 1.13201 0
M  V30 11656 O 1080.65 3.45786 2.24735 0
M  V30 11657 H 1079.99 0.650456 0.133428 0
M  V30 11658 H 1082.52 2.03415 -0.219882 0
M  V30 11659 H 1082.53 3.80783 1.4652 0
M  V30 11660 H 1081.21 4.14315 0.362713 0
M  V30 11661 H 1079.78 3.19201 1.92783 0
M  V30 11662 N 1081.97 -0.145205 1.5693 0
M  V30 11663 C 1083.19 -0.876386 1.87974 0
M  V30 11664 C 1083.62 -1.73866 0.717795 0
M  V30 11665 O 1082.98 -1.78224 -0.332551 0
M  V30 11666 C 1083.03 -1.70746 3.17613 0
M  V30 11667 O 1082.13 -2.81188 3.01674 0
M  V30 11668 H 1081.47 -0.243987 0.617549 0
M  V30 11669 H 1084 -0.135482 2.04151 0
M  V30 11670 H 1084.01 -2.1021 3.49679 0
M  V30 11671 H 1082.69 -1.07429 4.01786 0
M  V30 11672 H 1081.26 -2.45117 2.81019 0
M  V30 11673 N 1083.45 -1.52049 -0.414609 0
M  V30 11674 C 1084.4 -1.75603 -1.52533 0
M  V30 11675 C 1085.39 -0.622965 -1.57529 0
M  V30 11676 O 1086.6 -0.804886 -1.61002 0
M  V30 11677 H 1082.97 -0.555222 -0.507181 0
M  V30 11678 H 1084.94 -2.68666 -1.2985 0
M  V30 11679 C 1083.69 -1.9188 -2.89961 0
M  V30 11680 H 1083.01 -2.78483 -2.86857 0
M  V30 11681 H 1084.45 -2.12363 -3.66985 0
M  V30 11682 C 1082.91 -0.684453 -3.29874 0
M  V30 11683 O 1083.44 0.150256 -4.01419 0
M  V30 11684 N 1081.65 -0.521936 -2.85874 0
M  V30 11685 H 1081.2 -1.20229 -2.27822 0
M  V30 11686 H 1081.15 0.302655 -3.1294 0
M  V30 11687 N 1084.93 0.6715 -1.42579 0
M  V30 11688 C 1086.34 1.2522 -1.38481 0
M  V30 11689 C 1086.69 1.96038 -0.079719 0
M  V30 11690 O 1085.81 2.00203 0.821441 0
M  V30 11691 C 1086.41 2.27736 -2.50842 0
M  V30 11692 C 1084.97 2.81325 -2.50067 0
M  V30 11693 C 1084.11 1.55694 -2.29466 0
M  V30 11694 H 1087.06 0.464673 -1.51745 0
M  V30 11695 H 1087.09 3.09539 -2.21283 0
M  V30 11696 H 1086.6 1.76164 -3.45815 0
M  V30 11697 H 1084.7 3.37008 -1.58922 0
M  V30 11698 H 1084.81 3.30116 -3.47218 0
M  V30 11699 H 1083.18 1.82383 -1.77788 0
M  V30 11700 H 1083.96 1.06084 -3.26498 0
M  V30 11701 N 1086.4 1.28806 0.908124 0
M  V30 11702 C 1087.68 1.06981 1.63751 0
M  V30 11703 C 1088.06 -0.388936 2.07486 0
M  V30 11704 O 1087.41 -1.37611 1.82415 0
M  V30 11705 C 1087.62 2.04962 2.82474 0
M  V30 11706 C 1088.97 2.35418 3.5336 0
M  V30 11707 O 1089.99 2.03091 2.92631 0
M  V30 11708 O 1088.85 2.90617 4.62822 0
M  V30 11709 H 1085.94 0.409267 0.71863 0
M  V30 11710 H 1088.49 1.40146 0.956934 0
M  V30 11711 H 1087.26 3.03254 2.47291 0
M  V30 11712 H 1086.88 1.72476 3.58242 0
M  V30 11713 N 1087.88 -1.11734 1.11145 0
M  V30 11714 C 1088.81 -2.1976 0.789152 0
M  V30 11715 C 1089.79 -1.68382 -0.241143 0
M  V30 11716 O 1090.98 -1.93914 -0.105292 0
M  V30 11717 C 1088.11 -3.46549 0.228204 0
M  V30 11718 C 1087.06 -4.11123 1.19002 0
M  V30 11719 C 1086.39 -5.32451 0.489928 0
M  V30 11720 C 1087.69 -4.56406 2.53951 0
M  V30 11721 H 1089.38 -2.46978 1.69241 0
M  V30 11722 H 1086.93 -1.18705 0.81517 0
M  V30 11723 H 1088.88 -4.21399 -0.00945908 0
M  V30 11724 H 1087.6 -3.18782 -0.71033 0
M  V30 11725 H 1086.26 -3.38264 1.41326 0
M  V30 11726 H 1085.91 -5.00953 -0.453315 0
M  V30 11727 H 1085.61 -5.76605 1.1314 0
M  V30 11728 H 1087.14 -6.10042 0.260984 0
M  V30 11729 H 1088.55 -5.22592 2.35733 0
M  V30 11730 H 1086.95 -5.11363 3.14051 0
M  V30 11731 H 1088.02 -3.7001 3.13402 0
M  V30 11732 N 1089.36 -0.901303 -1.29284 0
M  V30 11733 C 1090.78 -0.597634 -1.47988 0
M  V30 11734 C 1090.98 0.860434 -1.82205 0
M  V30 11735 O 1090.03 1.64049 -1.91948 0
M  V30 11736 C 1091.34 -1.52484 -2.5917 0
M  V30 11737 C 1092.89 -1.53021 -2.73045 0
M  V30 11738 C 1093.37 -2.44373 -3.87357 0
M  V30 11739 N 1094.86 -2.42429 -3.94693 0
M  V30 11740 C 1095.59 -3.09817 -4.82495 0
M  V30 11741 N 1095.09 -3.86489 -5.74976 0
M  V30 11742 N 1096.88 -2.98966 -4.76 0
M  V30 11743 H 1089.03 -1.84432 -1.0535 0
M  V30 11744 H 1091.3 -0.790367 -0.523473 0
M  V30 11745 H 1091 -2.56378 -2.40756 0
M  V30 11746 H 1090.88 -1.24657 -3.56006 0
M  V30 11747 H 1093.26 -0.498709 -2.90855 0
M  V30 11748 H 1093.34 -1.84886 -1.76779 0
M  V30 11749 H 1092.99 -3.47618 -3.70302 0
M  V30 11750 H 1092.92 -2.09817 -4.82995 0
M  V30 11751 H 1095.41 -1.86724 -3.28546 0
M  V30 11752 H 1095.72 -4.34959 -6.38773 0
M  V30 11753 H 1094.07 -3.90596 -5.74857 0
M  V30 11754 H 1097.26 -2.38581 -4.02737 0
M  V30 11755 H 1097.43 -3.51758 -5.44215 0
M  V30 11756 N 1090.84 1.42931 -0.663954 0
M  V30 11757 C 1092.25 1.56098 -0.332496 0
M  V30 11758 C 1092.45 1.64564 1.16279 0
M  V30 11759 O 1091.51 1.6066 1.94794 0
M  V30 11760 C 1092.82 2.81649 -1.05329 0
M  V30 11761 C 1094.37 2.95408 -1.03457 0
M  V30 11762 C 1094.85 4.23805 -1.73647 0
M  V30 11763 N 1096.34 4.30693 -1.70462 0
M  V30 11764 C 1097.07 5.28833 -2.21637 0
M  V30 11765 N 1096.57 6.33189 -2.81147 0
M  V30 11766 N 1098.36 5.20558 -2.12075 0
M  V30 11767 H 1090.51 1.3568 -1.63416 0
M  V30 11768 H 1092.77 0.652361 -0.687844 0
M  V30 11769 H 1092.48 2.81494 -2.10842 0
M  V30 11770 H 1092.35 3.72208 -0.611626 0
M  V30 11771 H 1094.74 2.95097 0.0121936 0
M  V30 11772 H 1094.82 2.06109 -1.51502 0
M  V30 11773 H 1094.47 4.24876 -2.78285 0
M  V30 11774 H 1094.4 5.12019 -1.2306 0
M  V30 11775 H 1096.89 3.55904 -1.27046 0
M  V30 11776 H 1097.2 7.04411 -3.17844 0
M  V30 11777 H 1095.55 6.33781 -2.85212 0
M  V30 11778 H 1098.74 4.3795 -1.6528 0
M  V30 11779 H 1098.91 5.96881 -2.52264 0
M  V30 11780 N 1092.32 0.406567 1.52266 0
M  V30 11781 C 1093.54 -0.172101 2.06685 0
M  V30 11782 C 1093.97 -1.38306 1.27488 0
M  V30 11783 O 1093.32 -1.78726 0.304441 0
M  V30 11784 C 1093.37 -0.503463 3.57068 0
M  V30 11785 O 1092.48 -1.59485 3.80314 0
M  V30 11786 H 1091.82 -0.0153209 0.663823 0
M  V30 11787 H 1094.35 0.579025 1.96236 0
M  V30 11788 H 1094.36 -0.762833 4.00805 0
M  V30 11789 H 1093.03 0.381775 4.14144 0
M  V30 11790 H 1091.61 -1.32784 3.48458 0
M  V30 11791 N 1093.79 -1.57004 0.136909 0
M  V30 11792 C 1095.07 -1.87375 -0.561233 0
M  V30 11793 C 1095.45 -1.04117 -1.83638 0
M  V30 11794 O 1094.8 -0.125103 -2.28157 0
M  V30 11795 C 1095.01 -3.38829 -0.836426 0
M  V30 11796 C 1096.36 -4.07826 -1.18164 0
M  V30 11797 O 1097.38 -3.4395 -0.92611 0
M  V30 11798 O 1096.24 -5.20614 -1.66204 0
M  V30 11799 H 1093.33 -0.776287 -0.285145 0
M  V30 11800 H 1095.88 -1.68818 0.172761 0
M  V30 11801 H 1094.65 -3.91244 0.066442 0
M  V30 11802 H 1094.28 -3.62879 -1.62496 0
M  V30 11803 N 1095.27 0.136881 -1.57004 0
M  V30 11804 C 1096.68 0.695911 -1.73245 0
M  V30 11805 C 1097.03 1.8118 -0.75288 0
M  V30 11806 O 1096.16 2.16258 0.0782477 0
M  V30 11807 C 1096.75 1.26914 -3.14131 0
M  V30 11808 C 1095.31 1.77463 -3.31939 0
M  V30 11809 C 1094.46 0.667128 -2.69156 0
M  V30 11810 H 1097.41 -0.0888841 -1.58451 0
M  V30 11811 H 1097.43 2.13892 -3.14691 0
M  V30 11812 H 1096.94 0.456754 -3.85403 0
M  V30 11813 H 1095.05 2.61236 -2.65681 0
M  V30 11814 H 1095.16 1.89638 -4.39971 0
M  V30 11815 H 1093.52 1.09629 -2.29899 0
M  V30 11816 H 1094.31 -0.13398 -3.43038 0
M  V30 11817 N 1096.75 1.52266 0.40654 0
M  V30 11818 C 1098 1.66123 1.15097 0
M  V30 11819 C 1098.32 0.394836 1.90961 0
M  V30 11820 O 1097.59 -0.590349 1.86793 0
M  V30 11821 H 1096.17 0.612317 0.427875 0
M  V30 11822 H 1098.83 1.89318 0.463106 0
M  V30 11823 H 1097.93 2.50351 1.86361 0
M  V30 11824 N 1098.23 -0.663929 1.42933 0
M  V30 11825 C 1099.47 -1.42446 1.45192 0
M  V30 11826 C 1099.83 -1.92269 0.0710678 0
M  V30 11827 O 1099.12 -1.68688 -0.908565 0
M  V30 11828 C 1099.32 -2.62976 2.4203 0
M  V30 11829 C 1099.15 -2.24948 3.89395 0
M  V30 11830 C 1097.92 -2.13786 4.57847 0
M  V30 11831 C 1100.11 -1.85907 4.79524 0
M  V30 11832 N 1098.1 -1.68976 5.90187 0
M  V30 11833 C 1099.47 -1.52099 6.01054 0
M  V30 11834 C 1101.52 -1.72995 4.6688 0
M  V30 11835 C 1100.22 -1.06673 7.11346 0
M  V30 11836 C 1102.25 -1.28975 5.77165 0
M  V30 11837 C 1101.61 -0.960968 6.97814 0
M  V30 11838 H 1097.71 -0.517312 0.58644 0
M  V30 11839 H 1100.3 -0.765097 1.79037 0
M  V30 11840 H 1098.47 -3.26586 2.10229 0
M  V30 11841 H 1100.2 -3.29624 2.34798 0
M  V30 11842 H 1096.95 -2.33203 4.12206 0
M  V30 11843 H 1097.38 -1.48964 6.60408 0
M  V30 11844 H 1102.02 -1.97057 3.7407 0
M  V30 11845 H 1099.74 -0.813591 8.03994 0
M  V30 11846 H 1103.32 -1.19489 5.69398 0
M  V30 11847 H 1102.2 -0.625522 7.81701 0
M  V30 11848 N 1099.71 -1.29285 -0.901281 0
M  V30 11849 C 1100.62 -1.16161 -2.03823 0
M  V30 11850 C 1101.63 -0.0852298 -1.73791 0
M  V30 11851 O 1102.81 -0.29699 -1.99198 0
M  V30 11852 C 1099.87 -0.837586 -3.3643 0
M  V30 11853 C 1098.93 -1.99764 -3.7999 0
M  V30 11854 C 1098.17 -1.68898 -5.0627 0
M  V30 11855 O 1098.39 -0.609177 -5.67138 0
M  V30 11856 O 1097.32 -2.53648 -5.45845 0
M  V30 11857 H 1101.15 -2.11635 -2.17817 0
M  V30 11858 H 1098.74 -1.08722 -1.02468 0
M  V30 11859 H 1100.62 -0.671376 -4.16017 0
M  V30 11860 H 1099.29 0.0873811 -3.23582 0
M  V30 11861 H 1098.2 -2.21908 -3.01177 0
M  V30 11862 H 1099.53 -2.90376 -3.9742 0
M  V30 11863 N 1101.18 1.11143 -1.11736 0
M  V30 11864 C 1102.6 1.34962 -0.851905 0
M  V30 11865 C 1102.8 1.94627 0.521797 0
M  V30 11866 O 1101.86 2.18121 1.27198 0
M  V30 11867 C 1103.17 2.27832 -1.96248 0
M  V30 11868 C 1104.72 2.41388 -1.9925 0
M  V30 11869 C 1105.19 3.37582 -3.09519 0
M  V30 11870 N 1106.68 3.45147 -3.08914 0
M  V30 11871 C 1107.42 4.19527 -3.90876 0
M  V30 11872 N 1106.91 4.96858 -4.82809 0
M  V30 11873 N 1108.71 4.15071 -3.79042 0
M  V30 11874 H 1100.86 0.707801 -2.0026 0
M  V30 11875 H 1103.12 0.374172 -0.871033 0
M  V30 11876 H 1102.83 1.91189 -2.95194 0
M  V30 11877 H 1102.7 3.28078 -1.86132 0
M  V30 11878 H 1105.09 2.77304 -1.00928 0
M  V30 11879 H 1105.17 1.40983 -2.13442 0
M  V30 11880 H 1104.81 3.02393 -4.0807 0
M  V30 11881 H 1104.74 4.37849 -2.92568 0
M  V30 11882 H 1107.23 2.89991 -2.42309 0
M  V30 11883 H 1107.55 5.5099 -5.41876 0
M  V30 11884 H 1105.89 4.96008 -4.86828 0
M  V30 11885 H 1109.08 3.53748 -3.06562 0
M  V30 11886 H 1109.26 4.72781 -4.4315 0
M  V30 11887 N 1102.66 0.908147 1.28804 0
M  V30 11888 C 1103.89 0.553431 1.9988 0
M  V30 11889 C 1104.31 -0.856714 1.67458 0
M  V30 11890 O 1103.67 -1.57163 0.903849 0
M  V30 11891 C 1103.72 0.762688 3.52442 0
M  V30 11892 O 1102.82 -0.180924 4.12003 0
M  V30 11893 H 1102.16 0.215237 0.628147 0
M  V30 11894 H 1104.69 1.22205 1.64095 0
M  V30 11895 H 1104.7 0.670612 4.02451 0
M  V30 11896 H 1103.38 1.79071 3.75375 0
M  V30 11897 H 1101.96 -0.0405897 3.72878 0
M  V30 11898 N 1104.14 -1.42577 0.671525 0
M  V30 11899 C 1105.42 -1.95222 0.121529 0
M  V30 11900 C 1105.8 -1.61209 -1.36289 0
M  V30 11901 O 1105.15 -0.906561 -2.09747 0
M  V30 11902 C 1105.36 -3.46846 0.387189 0
M  V30 11903 C 1106.7 -4.23525 0.301938 0
M  V30 11904 O 1107.73 -3.54753 0.320755 0
M  V30 11905 O 1106.59 -5.45967 0.241317 0
M  V30 11906 H 1103.68 -0.826999 0.000968615 0
M  V30 11907 H 1106.23 -1.52422 0.746029 0
M  V30 11908 H 1105 -3.64795 1.41563 0
M  V30 11909 H 1104.62 -3.96686 -0.26948 0
M  V30 11910 N 1105.62 -0.414636 -1.52048 0
M  V30 11911 C 1106.84 0.161137 -2.06773 0
M  V30 11912 C 1107.27 1.37628 -1.2822 0
M  V30 11913 O 1106.63 1.78562 -0.313915 0
M  V30 11914 C 1106.67 0.48452 -3.5733 0
M  V30 11915 O 1105.78 1.57466 -3.81154 0
M  V30 11916 H 1105.12 0.0118003 -0.663895 0
M  V30 11917 H 1107.65 -0.589424 -1.95926 0
M  V30 11918 H 1107.66 0.741567 -4.01204 0
M  V30 11919 H 1106.33 -0.403733 -4.13936 0
M  V30 11920 H 1104.91 1.30935 -3.49157 0
M  V30 11921 N 1107.1 1.56929 -0.145233 0
M  V30 11922 C 1108.34 1.96358 0.50707 0
M  V30 11923 C 1108.68 1.03005 1.64632 0
M  V30 11924 O 1107.95 0.0721045 1.94366 0
M  V30 11925 C 1108.23 3.45502 1.01492 0
M  V30 11926 C 1108.09 4.49633 -0.122708 0
M  V30 11927 C 1109.41 3.97103 1.89729 0
M  V30 11928 H 1106.52 0.713958 0.182848 0
M  V30 11929 H 1109.17 1.8865 -0.226102 0
M  V30 11930 H 1107.32 3.52202 1.6397 0
M  V30 11931 H 1108.99 4.55013 -0.758988 0
M  V30 11932 H 1107.23 4.26691 -0.782109 0
M  V30 11933 H 1107.9 5.51318 0.27432 0
M  V30 11934 H 1110.38 3.92871 1.37082 0
M  V30 11935 H 1109.25 5.01927 2.22173 0
M  V30 11936 H 1109.52 3.39354 2.83357 0
M  V30 11937 N 1108.58 -0.128553 1.57075 0
M  V30 11938 C 1109.51 -1.15953 2.02675 0
M  V30 11939 C 1110.49 -1.43743 0.909501 0
M  V30 11940 O 1111.67 -1.54348 1.17857 0
M  V30 11941 C 1108.8 -2.48813 2.423 0
M  V30 11942 C 1107.76 -2.35506 3.57381 0
M  V30 11943 C 1107.08 -3.73243 3.82875 0
M  V30 11944 C 1108.38 -1.82359 4.89431 0
M  V30 11945 H 1110.08 -0.780283 2.89054 0
M  V30 11946 H 1107.62 -0.373896 1.39061 0
M  V30 11947 H 1109.57 -3.21179 2.72804 0
M  V30 11948 H 1108.3 -2.88609 1.52881 0
M  V30 11949 H 1106.96 -1.6559 3.27071 0
M  V30 11950 H 1106.61 -4.10507 2.90677 0
M  V30 11951 H 1106.31 -3.65195 4.60333 0
M  V30 11952 H 1107.83 -4.47128 4.15823 0
M  V30 11953 H 1109.24 -2.44533 5.18533 0
M  V30 11954 H 1107.64 -1.85156 5.70822 0
M  V30 11955 H 1108.71 -0.780478 4.78578 0
M  V30 11956 N 1110.05 -1.5248 -0.398459 0
M  V30 11957 C 1111.46 -1.59107 -0.976817 0
M  V30 11958 C 1111.82 -0.438104 -1.91246 0
M  V30 11959 O 1110.94 0.440111 -2.11877 0
M  V30 11960 C 1111.54 -2.88373 -1.77838 0
M  V30 11961 C 1110.09 -2.97445 -2.30659 0
M  V30 11962 C 1109.24 -2.5414 -1.10942 0
M  V30 11963 H 1112.19 -1.57695 -0.178324 0
M  V30 11964 H 1112.21 -2.74327 -2.63676 0
M  V30 11965 H 1111.73 -3.72269 -1.09714 0
M  V30 11966 H 1109.83 -2.18066 -3.02123 0
M  V30 11967 H 1109.94 -4.019 -2.60794 0
M  V30 11968 H 1108.3 -2.08237 -1.46661 0
M  V30 11969 H 1109.09 -3.40421 -0.443684 0
M  V30 11970 N 1111.53 0.65634 -1.43283 0
M  V30 11971 C 1112.49 1.75117 -1.47874 0
M  V30 11972 C 1113.49 1.56629 -0.363846 0
M  V30 11973 O 1114.68 1.62584 -0.625464 0
M  V30 11974 C 1111.82 3.13957 -1.32831 0
M  V30 11975 H 1113.01 1.72429 -2.45374 0
M  V30 11976 H 1110.56 0.867704 -1.30002 0
M  V30 11977 H 1111.3 3.22259 -0.36326 0
M  V30 11978 H 1111.08 3.28781 -2.13649 0
M  V30 11979 H 1112.57 3.93799 -1.38969 0
M  V30 11980 N 1113.01 1.29761 0.894412 0
M  V30 11981 C 1114.23 1.21064 1.68399 0
M  V30 11982 C 1114.66 -0.224608 1.86754 0
M  V30 11983 O 1114.02 -1.16199 1.39167 0
M  V30 11984 C 1114.07 1.93468 3.04306 0
M  V30 11985 O 1113.17 1.25533 3.9283 0
M  V30 11986 H 1112.51 0.419223 0.514925 0
M  V30 11987 H 1115.04 1.71421 1.11696 0
M  V30 11988 H 1115.05 2.02127 3.54413 0
M  V30 11989 H 1113.73 2.97857 2.90265 0
M  V30 11990 H 1112.3 1.25168 3.51266 0
M  V30 11991 N 1114.49 -1.10549 1.12324 0
M  V30 11992 C 1115.44 -2.14997 0.758979 0
M  V30 11993 C 1116.42 -1.59078 -0.241461 0
M  V30 11994 O 1117.61 -1.76937 -0.0471439 0
M  V30 11995 C 1114.74 -3.42633 0.21395 0
M  V30 11996 C 1113.83 -4.05487 1.24261 0
M  V30 11997 N 1114.22 -4.43064 2.43984 0
M  V30 11998 C 1112.52 -4.32534 1.08769 0
M  V30 11999 C 1113.22 -4.92427 3.09662 0
M  V30 12000 N 1112.19 -4.89161 2.37114 0
M  V30 12001 H 1116 -2.4184 1.67005 0
M  V30 12002 H 1113.51 -1.27659 1.00384 0
M  V30 12003 H 1115.51 -4.16849 -0.0651928 0
M  V30 12004 H 1114.17 -3.17249 -0.691591 0
M  V30 12005 H 1115.18 -4.34797 2.81375 0
M  V30 12006 H 1111.86 -4.16813 0.239354 0
M  V30 12007 H 1113.25 -5.31059 4.11614 0
M  V30 12008 N 1115.97 -0.914965 -1.28321 0
M  V30 12009 C 1117.21 -0.547665 -1.94538 0
M  V30 12010 C 1117.53 0.911834 -1.72368 0
M  V30 12011 O 1116.8 1.64481 -1.06408 0
M  V30 12012 H 1115.38 -0.199549 -0.719853 0
M  V30 12013 H 1118.05 -1.16459 -1.5628 0
M  V30 12014 H 1117.14 -0.743138 -3.03124 0
M  V30 12015 N 1117.44 1.42219 -0.679077 0
M  V30 12016 C 1118.39 2.27992 0.0194379 0
M  V30 12017 C 1119.38 1.41317 0.769313 0
M  V30 12018 O 1120.57 1.64731 0.647521 0
M  V30 12019 C 1117.7 3.29401 0.966945 0
M  V30 12020 C 1116.78 4.23559 0.214187 0
M  V30 12021 N 1117.18 4.99699 -0.783226 0
M  V30 12022 C 1115.47 4.43703 0.452026 0
M  V30 12023 C 1116.17 5.68496 -1.23237 0
M  V30 12024 N 1115.15 5.40692 -0.561484 0
M  V30 12025 H 1118.95 2.84287 -0.745542 0
M  V30 12026 H 1116.47 1.54234 -0.508504 0
M  V30 12027 H 1118.46 3.89655 1.48238 0
M  V30 12028 H 1117.12 2.74667 1.7317 0
M  V30 12029 H 1118.13 5.04675 -1.16291 0
M  V30 12030 H 1114.81 4.00004 1.19595 0
M  V30 12031 H 1116.2 6.3957 -2.05912 0
M  V30 12032 N 1118.92 0.422693 1.51826 0
M  V30 12033 C 1119.85 -0.386913 2.30272 0
M  V30 12034 C 1120.83 -1.03411 1.35056 0
M  V30 12035 O 1122.02 -1.04055 1.6397 0
M  V30 12036 C 1119.15 -1.49645 3.13407 0
M  V30 12037 C 1118.1 -0.973532 4.16781 0
M  V30 12038 C 1117.43 -2.1777 4.88344 0
M  V30 12039 C 1118.73 -0.0181194 5.22297 0
M  V30 12040 H 1120.42 0.267697 2.98201 0
M  V30 12041 H 1117.97 0.130186 1.4341 0
M  V30 12042 H 1119.92 -2.06993 3.67059 0
M  V30 12043 H 1118.64 -2.17914 2.43272 0
M  V30 12044 H 1117.3 -0.42237 3.64159 0
M  V30 12045 H 1116.95 -2.84625 4.14726 0
M  V30 12046 H 1116.65 -1.83427 5.58237 0
M  V30 12047 H 1118.18 -2.75699 5.44814 0
M  V30 12048 H 1119.59 -0.500822 5.71108 0
M  V30 12049 H 1117.99 0.237163 5.99631 0
M  V30 12050 H 1119.06 0.923065 4.76033 0
M  V30 12051 N 1120.4 -1.5685 0.153553 0
M  V30 12052 C 1121.81 -1.83074 -0.36618 0
M  V30 12053 C 1122.16 -1.07257 -1.64288 0
M  V30 12054 O 1121.29 -0.319925 -2.14022 0
M  V30 12055 C 1121.88 -3.32086 -0.671142 0
M  V30 12056 C 1120.44 -3.58868 -1.13537 0
M  V30 12057 C 1119.59 -2.76827 -0.161887 0
M  V30 12058 H 1122.54 -1.54129 0.378139 0
M  V30 12059 H 1122.56 -3.48598 -1.52512 0
M  V30 12060 H 1122.07 -3.8724 0.258234 0
M  V30 12061 H 1120.17 -3.09107 -2.08047 0
M  V30 12062 H 1120.29 -4.67299 -1.05682 0
M  V30 12063 H 1118.65 -2.46112 -0.6558 0
M  V30 12064 H 1119.43 -3.34755 0.761195 0
M  V30 12065 N 1121.88 0.120221 -1.57141 0
M  V30 12066 C 1122.81 1.1732 -1.96898 0
M  V30 12067 C 1123.82 1.37722 -0.868134 0
M  V30 12068 O 1125.01 1.36818 -1.14643 0
M  V30 12069 C 1122.11 2.53343 -2.25102 0
M  V30 12070 C 1121.28 2.53559 -3.56408 0
M  V30 12071 C 1120.34 3.71319 -3.72838 0
M  V30 12072 O 1119.37 3.54961 -4.44962 0
M  V30 12073 N 1120.57 4.89836 -3.11514 0
M  V30 12074 H 1123.34 0.835023 -2.87832 0
M  V30 12075 H 1120.9 0.309508 -1.58914 0
M  V30 12076 H 1122.89 3.30679 -2.3331 0
M  V30 12077 H 1121.46 2.79347 -1.403 0
M  V30 12078 H 1120.68 1.61946 -3.59398 0
M  V30 12079 H 1121.97 2.5076 -4.42716 0
M  V30 12080 H 1121.37 5.0603 -2.52884 0
M  V30 12081 H 1119.92 5.64853 -3.25246 0
M  V30 12082 N 1123.36 1.52689 0.390367 0
M  V30 12083 C 1124.32 1.76726 1.45947 0
M  V30 12084 C 1125.32 0.637269 1.47633 0
M  V30 12085 O 1126.51 0.905312 1.48828 0
M  V30 12086 C 1123.64 1.86678 2.85244 0
M  V30 12087 H 1124.83 2.72185 1.25918 0
M  V30 12088 H 1122.39 1.4339 0.622023 0
M  V30 12089 H 1123.12 0.931991 3.10619 0
M  V30 12090 H 1122.91 2.68843 2.85422 0
M  V30 12091 H 1124.4 2.06952 3.62713 0
M  V30 12092 N 1124.83 -0.648732 1.43629 0
M  V30 12093 C 1126.08 -1.40579 1.45196 0
M  V30 12094 C 1126.4 -1.9484 0.0790556 0
M  V30 12095 O 1125.67 -1.74707 -0.886239 0
M  V30 12096 H 1124.25 -0.52175 0.53459 0
M  V30 12097 H 1126.92 -0.764796 1.79268 0
M  V30 12098 H 1126.01 -2.24591 2.16715 0
M  V30 12099 N 1126.31 -1.30234 -0.887518 0
M  V30 12100 C 1127.54 -1.21955 -1.67755 0
M  V30 12101 C 1127.96 0.214701 -1.86871 0
M  V30 12102 O 1127.32 1.15459 -1.39782 0
M  V30 12103 C 1127.37 -1.95079 -3.03276 0
M  V30 12104 O 1126.47 -1.27615 -3.92158 0
M  V30 12105 H 1125.81 -0.421948 -0.512695 0
M  V30 12106 H 1128.34 -1.72011 -1.10785 0
M  V30 12107 H 1128.35 -2.04004 -3.53336 0
M  V30 12108 H 1127.03 -2.99392 -2.88682 0
M  V30 12109 H 1125.61 -1.27029 -3.50597 0
M  V30 12110 N 1127.79 1.09952 -1.12909 0
M  V30 12111 C 1128.72 2.18477 -0.824014 0
M  V30 12112 C 1129.7 1.68744 0.214324 0
M  V30 12113 O 1130.89 1.94057 0.0744281 0
M  V30 12114 C 1128.02 3.46143 -0.283308 0
M  V30 12115 C 1126.97 4.09178 -1.25528 0
M  V30 12116 C 1126.3 5.31604 -0.574574 0
M  V30 12117 C 1127.6 4.52308 -2.6118 0
M  V30 12118 H 1129.29 2.44254 -1.73148 0
M  V30 12119 H 1126.84 1.17394 -0.833952 0
M  V30 12120 H 1128.79 4.21361 -0.057583 0
M  V30 12121 H 1127.51 3.19872 0.659525 0
M  V30 12122 H 1126.17 3.35973 -1.4669 0
M  V30 12123 H 1125.82 5.01611 0.37356 0
M  V30 12124 H 1125.52 5.74732 -1.22299 0
M  V30 12125 H 1127.04 6.0955 -0.358004 0
M  V30 12126 H 1128.46 5.18776 -2.44017 0
M  V30 12127 H 1126.86 5.06302 -3.22147 0
M  V30 12128 H 1127.93 3.64977 -3.19249 0
M  V30 12129 N 1129.27 0.921757 1.27833 0
M  V30 12130 C 1130.18 0.421668 2.30779 0
M  V30 12131 C 1131.19 -0.494686 1.6682 0
M  V30 12132 O 1132.37 -0.378935 1.97803 0
M  V30 12133 C 1129.44 -0.322928 3.45193 0
M  V30 12134 C 1128.5 0.627618 4.24687 0
M  V30 12135 C 1127.73 -0.0815385 5.33638 0
M  V30 12136 O 1127.95 -1.30193 5.55343 0
M  V30 12137 O 1126.89 0.58725 5.99028 0
M  V30 12138 H 1130.71 1.2763 2.7558 0
M  V30 12139 H 1128.3 0.686877 1.32674 0
M  V30 12140 H 1130.18 -0.743145 4.14796 0
M  V30 12141 H 1128.85 -1.15326 3.02459 0
M  V30 12142 H 1127.76 1.09739 3.57642 0
M  V30 12143 H 1129.09 1.425 4.71121 0
M  V30 12144 N 1130.75 -1.41857 0.686609 0
M  V30 12145 C 1132.16 -1.55549 0.357288 0
M  V30 12146 C 1132.36 -1.66394 -1.13646 0
M  V30 12147 O 1131.42 -1.63739 -1.92213 0
M  V30 12148 C 1132.73 -2.79938 1.09796 0
M  V30 12149 C 1134.28 -2.93724 1.08143 0
M  V30 12150 C 1134.75 -4.20989 1.80367 0
M  V30 12151 N 1136.25 -4.27927 1.77293 0
M  V30 12152 C 1136.98 -5.2524 2.30022 0
M  V30 12153 N 1136.48 -6.28636 2.91185 0
M  V30 12154 N 1138.27 -5.17118 2.20329 0
M  V30 12155 H 1130.42 -1.33063 1.65554 0
M  V30 12156 H 1132.68 -0.641335 0.698135 0
M  V30 12157 H 1132.39 -2.78104 2.15293 0
M  V30 12158 H 1132.26 -3.71188 0.670763 0
M  V30 12159 H 1134.65 -2.9508 0.0347554 0
M  V30 12160 H 1134.73 -2.03673 1.54761 0
M  V30 12161 H 1134.38 -4.20395 2.85009 0
M  V30 12162 H 1134.31 -5.09997 1.3119 0
M  V30 12163 H 1136.8 -3.53838 1.32692 0
M  V30 12164 H 1137.11 -6.99265 3.29011 0
M  V30 12165 H 1135.45 -6.29164 2.95259 0
M  V30 12166 H 1138.65 -4.35265 1.72226 0
M  V30 12167 H 1138.82 -5.92792 2.61728 0
M  V30 12168 N 1132.22 -0.430739 -1.51599 0
M  V30 12169 C 1133.17 0.398482 -2.29161 0
M  V30 12170 C 1134.17 1.02676 -1.34737 0
M  V30 12171 O 1135.37 0.96248 -1.52106 0
M  V30 12172 H 1131.75 0.14731 -0.737431 0
M  V30 12173 H 1133.72 -0.276619 -2.97115 0
M  V30 12174 C 1132.47 1.49094 -3.14112 0
M  V30 12175 H 1131.79 1.01685 -3.86652 0
M  V30 12176 H 1133.23 2.04453 -3.7145 0
M  V30 12177 C 1131.69 2.47049 -2.29059 0
M  V30 12178 O 1132.22 3.51435 -1.94567 0
M  V30 12179 N 1130.43 2.17778 -1.92409 0
M  V30 12180 H 1129.97 1.3292 -2.20658 0
M  V30 12181 H 1129.93 2.8356 -1.35798 0
M  V30 12182 N 1133.7 1.56767 -0.161869 0
M  V30 12183 C 1135.12 1.58412 0.194403 0
M  V30 12184 C 1135.32 1.17682 1.63564 0
M  V30 12185 O 1134.37 0.884024 2.36519 0
M  V30 12186 C 1135.69 3.00599 -0.0778438 0
M  V30 12187 C 1137.24 3.12996 -0.015307 0
M  V30 12188 C 1137.71 4.57259 -0.260418 0
M  V30 12189 N 1139.2 4.62733 -0.207863 0
M  V30 12190 C 1139.94 5.72193 -0.371821 0
M  V30 12191 N 1139.43 6.90246 -0.594318 0
M  V30 12192 N 1141.23 5.61253 -0.308384 0
M  V30 12193 H 1133.38 1.81531 -1.10274 0
M  V30 12194 H 1135.64 0.840919 -0.437675 0
M  V30 12195 H 1135.35 3.3484 -1.07587 0
M  V30 12196 H 1135.22 3.71819 0.634845 0
M  V30 12197 H 1137.61 2.78588 0.97329 0
M  V30 12198 H 1137.69 2.44232 -0.760559 0
M  V30 12199 H 1137.33 4.92375 -1.24618 0
M  V30 12200 H 1137.26 5.2417 0.505334 0
M  V30 12201 H 1139.75 3.77878 -0.0411541 0
M  V30 12202 H 1140.07 7.6954 -0.70913 0
M  V30 12203 H 1138.41 6.92131 -0.630819 0
M  V30 12204 H 1141.6 4.67905 -0.135217 0
M  V30 12205 H 1141.77 6.46507 -0.439592 0
M  V30 12206 N 1135.18 -0.111886 1.57202 0
M  V30 12207 C 1136.43 -0.819623 1.85499 0
M  V30 12208 C 1136.76 -1.7919 0.748629 0
M  V30 12209 O 1136.03 -1.92952 -0.244918 0
M  V30 12210 C 1136.32 -1.56324 3.24399 0
M  V30 12211 C 1136.17 -0.610081 4.45643 0
M  V30 12212 C 1137.49 -2.51777 3.60966 0
M  V30 12213 H 1134.61 -0.296512 0.674722 0
M  V30 12214 H 1137.25 -0.0836741 1.89816 0
M  V30 12215 H 1135.4 -2.1906 3.2085 0
M  V30 12216 H 1137.07 0.00898038 4.61299 0
M  V30 12217 H 1135.32 0.0778488 4.3373 0
M  V30 12218 H 1135.99 -1.16718 5.39519 0
M  V30 12219 H 1138.46 -1.99143 3.65351 0
M  V30 12220 H 1137.34 -3.00835 4.59118 0
M  V30 12221 H 1137.6 -3.34769 2.8876 0
M  V30 12222 N 1136.66 -1.52894 -0.382264 0
M  V30 12223 C 1137.91 -1.67933 -1.1244 0
M  V30 12224 C 1138.23 -0.425166 -1.90309 0
M  V30 12225 O 1137.5 0.560557 -1.87709 0
M  V30 12226 H 1136.08 -0.619047 -0.418079 0
M  V30 12227 H 1138.74 -1.90031 -0.432928 0
M  V30 12228 H 1137.84 -2.53285 -1.82355 0
M  V30 12229 N 1138.14 0.641106 -1.43971 0
M  V30 12230 C 1139.38 1.40291 -1.46445 0
M  V30 12231 C 1139.72 1.93978 -0.0929004 0
M  V30 12232 O 1138.99 1.73043 0.888043 0
M  V30 12233 C 1139.27 2.57551 -2.51673 0
M  V30 12234 C 1139.13 2.09279 -3.98149 0
M  V30 12235 C 1140.45 3.59752 -2.53508 0
M  V30 12236 H 1137.57 0.508771 -0.533218 0
M  V30 12237 H 1140.21 0.725767 -1.75592 0
M  V30 12238 H 1138.36 3.15319 -2.2695 0
M  V30 12239 H 1140.03 1.56418 -4.33971 0
M  V30 12240 H 1138.27 1.40545 -4.10402 0
M  V30 12241 H 1138.94 2.93655 -4.67409 0
M  V30 12242 H 1141.42 3.11766 -2.75574 0
M  V30 12243 H 1140.3 4.39332 -3.29057 0
M  V30 12244 H 1140.56 4.13156 -1.57335 0
M  V30 12245 N 1139.62 1.30703 0.880598 0
M  V30 12246 C 1140.84 1.22843 1.67106 0
M  V30 12247 C 1141.27 -0.204788 1.86982 0
M  V30 12248 O 1140.62 -1.14716 1.40392 0
M  V30 12249 C 1140.67 1.96685 3.02237 0
M  V30 12250 O 1139.78 1.29693 3.91476 0
M  V30 12251 H 1139.12 0.424661 0.51045 0
M  V30 12252 H 1141.65 1.72596 1.09871 0
M  V30 12253 H 1141.66 2.05874 3.52249 0
M  V30 12254 H 1140.33 3.00919 2.8709 0
M  V30 12255 H 1138.91 1.28886 3.49918 0
M  V30 12256 N 1141.09 -1.09351 1.1349 0
M  V30 12257 C 1142.32 -1.85844 0.92069 0
M  V30 12258 C 1142.74 -1.80616 -0.525303 0
M  V30 12259 O 1142.1 -1.1842 -1.37282 0
M  V30 12260 C 1142.15 -3.31716 1.4141 0
M  V30 12261 O 1141.25 -4.08014 0.599838 0
M  V30 12262 H 1140.59 -0.576242 0.32991 0
M  V30 12263 H 1143.12 -1.38084 1.50976 0
M  V30 12264 H 1143.13 -3.82564 1.41805 0
M  V30 12265 H 1141.81 -3.34837 2.46692 0
M  V30 12266 H 1140.39 -3.66944 0.663816 0
M  V30 12267 N 1142.57 -0.928524 -1.27343 0
M  V30 12268 C 1143.52 -0.426873 -2.26818 0
M  V30 12269 C 1144.49 0.506663 -1.58184 0
M  V30 12270 O 1145.67 0.425641 -1.85992 0
M  V30 12271 C 1142.81 0.313523 -3.43673 0
M  V30 12272 C 1141.93 -0.65422 -4.27018 0
M  V30 12273 C 1141.06 0.106102 -5.31094 0
M  V30 12274 C 1140.1 -0.854293 -6.06109 0
M  V30 12275 N 1139.24 -0.126545 -7.01986 0
M  V30 12276 H 1144.08 -1.28014 -2.69103 0
M  V30 12277 H 1141.61 -0.642515 -1.32326 0
M  V30 12278 H 1143.57 0.75912 -4.10236 0
M  V30 12279 H 1142.2 1.13102 -3.02337 0
M  V30 12280 H 1141.25 -1.21834 -3.60362 0
M  V30 12281 H 1142.57 -1.38817 -4.79094 0
M  V30 12282 H 1141.72 0.611577 -6.0361 0
M  V30 12283 H 1140.46 0.873009 -4.79823 0
M  V30 12284 H 1139.46 -1.37101 -5.32432 0
M  V30 12285 H 1140.69 -1.621 -6.5947 0
M  V30 12286 H 1138.64 0.622102 -6.53044 0
M  V30 12287 H 1138.55 -0.800046 -7.51755 0
M  V30 12288 H 1139.82 0.358251 -7.78676 0
M  V30 12289 N 1144.05 1.41491 -0.694123 0
M  V30 12290 C 1145.46 1.84283 -0.299439 0
M  V30 12291 C 1145.81 1.58081 1.16211 0
M  V30 12292 O 1144.94 1.05051 1.89191 0
M  V30 12293 C 1145.53 3.34522 -0.536696 0
M  V30 12294 C 1144.09 3.7589 -0.195944 0
M  V30 12295 C 1143.24 2.64908 -0.819692 0
M  V30 12296 H 1146.19 1.31063 -0.894884 0
M  V30 12297 H 1146.21 3.79947 0.205062 0
M  V30 12298 H 1145.72 3.53561 -1.6005 0
M  V30 12299 H 1143.82 3.62452 0.863655 0
M  V30 12300 H 1143.94 4.74671 -0.649954 0
M  V30 12301 H 1142.3 2.53476 -0.249412 0
M  V30 12302 H 1143.08 2.86765 -1.88734 0
M  V30 12303 N 1145.53 0.438773 1.51369 0
M  V30 12304 C 1146.8 -0.18722 1.94702 0
M  V30 12305 C 1147.18 -1.59962 1.37752 0
M  V30 12306 O 1146.53 -2.214 0.565171 0
M  V30 12307 C 1146.74 -0.163491 3.48617 0
M  V30 12308 C 1148.09 -0.368355 4.22999 0
M  V30 12309 O 1149.11 -0.241541 3.5538 0
M  V30 12310 O 1147.97 -0.620916 5.42961 0
M  V30 12311 H 1145.07 -0.129194 0.816846 0
M  V30 12312 H 1147.61 0.496855 1.62263 0
M  V30 12313 H 1146.39 0.823882 3.82528 0
M  V30 12314 H 1146.01 -0.890414 3.87501 0
M  V30 12315 N 1147.01 -1.56678 0.170181 0
M  V30 12316 C 1148.23 -2.0166 -0.484543 0
M  V30 12317 C 1148.66 -1.04962 -1.56091 0
M  V30 12318 O 1148.01 -0.0289887 -1.81277 0
M  V30 12319 C 1148.06 -3.45252 -1.04084 0
M  V30 12320 O 1147.17 -3.51623 -2.15488 0
M  V30 12321 H 1146.51 -0.653765 -0.116135 0
M  V30 12322 H 1149.04 -2.02761 0.273737 0
M  V30 12323 H 1149.05 -3.84534 -1.36373 0
M  V30 12324 H 1147.72 -4.15131 -0.252738 0
M  V30 12325 H 1146.3 -3.242 -1.84252 0
M  V30 12326 N 1148.48 0.103547 -1.57259 0
M  V30 12327 C 1149.71 0.82624 -1.90232 0
M  V30 12328 C 1150.13 1.71902 -0.763641 0
M  V30 12329 O 1149.49 1.79043 0.285181 0
M  V30 12330 C 1149.54 1.62265 -3.22029 0
M  V30 12331 O 1148.64 2.73091 -3.09023 0
M  V30 12332 H 1147.98 0.227528 -0.6238 0
M  V30 12333 H 1150.51 0.081307 -2.04438 0
M  V30 12334 H 1150.52 2.00865 -3.5513 0
M  V30 12335 H 1149.2 0.967383 -4.04493 0
M  V30 12336 H 1147.78 2.3758 -2.8742 0
M  V30 12337 N 1149.96 1.53094 0.37415 0
M  V30 12338 C 1151.37 1.60641 0.951381 0
M  V30 12339 C 1151.72 0.468474 1.90525 0
M  V30 12340 O 1150.85 -0.406347 2.12551 0
M  V30 12341 C 1151.44 2.91166 1.73228 0
M  V30 12342 C 1150 3.01077 2.25898 0
M  V30 12343 C 1149.15 2.55873 1.06885 0
M  V30 12344 H 1152.1 1.57959 0.153214 0
M  V30 12345 H 1152.12 2.78487 2.59278 0
M  V30 12346 H 1151.63 3.73968 1.03778 0
M  V30 12347 H 1149.73 2.22844 2.98615 0
M  V30 12348 H 1149.85 4.05998 2.54367 0
M  V30 12349 H 1148.21 2.10544 1.43329 0
M  V30 12350 H 1148.99 3.41084 0.38947 0
M  V30 12351 N 1151.44 -0.633461 1.44309 0
M  V30 12352 C 1152.69 -1.39513 1.47187 0
M  V30 12353 C 1153.02 -1.93926 0.103186 0
M  V30 12354 O 1152.29 -1.73512 -0.878853 0
M  V30 12355 C 1152.58 -2.56213 2.53036 0
M  V30 12356 C 1152.43 -2.07164 3.99253 0
M  V30 12357 C 1153.75 -3.58403 2.55412 0
M  V30 12358 H 1150.87 -0.505936 0.535908 0
M  V30 12359 H 1153.51 -0.716445 1.75975 0
M  V30 12360 H 1151.66 -3.14111 2.28619 0
M  V30 12361 H 1153.33 -1.54115 4.34795 0
M  V30 12362 H 1151.57 -1.38367 4.11141 0
M  V30 12363 H 1152.25 -2.91172 4.6896 0
M  V30 12364 H 1154.72 -3.103 2.77224 0
M  V30 12365 H 1153.6 -4.37581 3.31382 0
M  V30 12366 H 1153.86 -4.12316 1.59523 0
M  V30 12367 N 1152.92 -1.31168 -0.873655 0
M  V30 12368 C 1153.85 -1.21094 -1.99646 0
M  V30 12369 C 1154.83 -0.0989684 -1.69812 0
M  V30 12370 O 1156.01 -0.282939 -1.92128 0
M  V30 12371 C 1153.14 -0.913684 -3.35066 0
M  V30 12372 C 1152.1 -1.98482 -3.79195 0
M  V30 12373 C 1151.42 -1.54033 -5.12033 0
M  V30 12374 C 1152.72 -3.39745 -3.96699 0
M  V30 12375 H 1154.42 -2.1503 -2.08333 0
M  V30 12376 H 1151.96 -1.03521 -1.00097 0
M  V30 12377 H 1153.92 -0.829821 -4.13149 0
M  V30 12378 H 1152.64 0.0613471 -3.26542 0
M  V30 12379 H 1151.3 -2.05851 -3.03349 0
M  V30 12380 H 1150.95 -0.553261 -4.99948 0
M  V30 12381 H 1150.65 -2.25688 -5.4253 0
M  V30 12382 H 1152.17 -1.47047 -5.92629 0
M  V30 12383 H 1153.59 -3.35071 -4.65188 0
M  V30 12384 H 1151.98 -4.09585 -4.38589 0
M  V30 12385 H 1153.05 -3.80802 -3.00196 0
M  V30 12386 N 1154.4 1.08748 -1.14068 0
M  V30 12387 C 1155.62 1.85353 -0.930532 0
M  V30 12388 C 1156.05 1.80892 0.515717 0
M  V30 12389 O 1155.4 1.19146 1.36652 0
M  V30 12390 C 1155.45 3.30962 -1.43167 0
M  V30 12391 O 1154.56 4.0769 -0.621468 0
M  V30 12392 H 1153.9 0.574485 -0.332962 0
M  V30 12393 H 1156.43 1.37282 -1.51707 0
M  V30 12394 H 1156.44 3.81807 -1.43832 0
M  V30 12395 H 1155.11 3.33524 -2.48464 0
M  V30 12396 H 1153.69 3.66587 -0.683267 0
M  V30 12397 N 1155.87 0.935264 1.26849 0
M  V30 12398 C 1157.29 0.623198 1.75992 0
M  V30 12399 C 1157.64 -0.861647 1.76267 0
M  V30 12400 O 1156.76 -1.6743 1.37099 0
M  V30 12401 C 1157.36 1.12451 3.19594 0
M  V30 12402 C 1155.92 0.862974 3.66374 0
M  V30 12403 C 1155.06 1.27886 2.4605 0
M  V30 12404 H 1158.01 1.11422 1.13008 0
M  V30 12405 H 1158.03 0.475626 3.77516 0
M  V30 12406 H 1157.55 2.20522 3.19361 0
M  V30 12407 H 1155.65 -0.203606 3.72043 0
M  V30 12408 H 1155.76 1.48582 4.55478 0
M  V30 12409 H 1154.12 0.697335 2.44968 0
M  V30 12410 H 1154.91 2.36837 2.48522 0
M  V30 12411 N 1157.35 -1.41121 0.701616 0
M  V30 12412 C 1158.6 -2.00733 0.234682 0
M  V30 12413 C 1158.92 -1.55869 -1.17174 0
M  V30 12414 O 1158.19 -0.791965 -1.79178 0
M  V30 12415 H 1156.77 -0.742288 0.0837745 0
M  V30 12416 H 1159.43 -1.7266 0.904127 0
M  V30 12417 H 1158.53 -3.11041 0.256831 0
M  V30 12418 N 1158.83 -0.446794 -1.51134 0
M  V30 12419 C 1159.78 0.374154 -2.29571 0
M  V30 12420 C 1160.77 1.01241 -1.35818 0
M  V30 12421 O 1161.98 0.946293 -1.53119 0
M  V30 12422 H 1158.35 0.13948 -0.738951 0
M  V30 12423 H 1160.32 -0.308117 -2.96805 0
M  V30 12424 C 1159.07 1.45754 -3.15675 0
M  V30 12425 H 1158.4 0.975787 -3.87709 0
M  V30 12426 H 1159.84 2.00502 -3.73597 0
M  V30 12427 C 1158.3 2.44606 -2.31667 0
M  V30 12428 O 1158.83 3.49352 -1.98284 0
M  V30 12429 N 1157.03 2.15725 -1.94708 0
M  V30 12430 H 1156.58 1.30572 -2.22056 0
M  V30 12431 H 1156.54 2.82103 -1.38798 0
M  V30 12432 N 1160.31 1.56586 -0.178487 0
M  V30 12433 C 1161.26 2.18309 0.74899 0
M  V30 12434 C 1162.23 1.12525 1.22178 0
M  V30 12435 O 1163.41 1.40706 1.28866 0
M  V30 12436 C 1160.55 2.83353 1.9699 0
M  V30 12437 C 1159.66 4.03618 1.54002 0
M  V30 12438 C 1158.8 4.56567 2.71514 0
M  V30 12439 C 1157.84 5.69226 2.25051 0
M  V30 12440 N 1156.97 6.16654 3.35682 0
M  V30 12441 H 1161.81 2.97217 0.21587 0
M  V30 12442 H 1159.35 1.46794 0.0948182 0
M  V30 12443 H 1161.31 3.19226 2.68609 0
M  V30 12444 H 1159.94 2.07037 2.4766 0
M  V30 12445 H 1158.99 3.73518 0.720298 0
M  V30 12446 H 1160.3 4.85148 1.15901 0
M  V30 12447 H 1159.46 4.94659 3.5128 0
M  V30 12448 H 1158.2 3.7411 3.12879 0
M  V30 12449 H 1157.2 5.30679 1.43734 0
M  V30 12450 H 1158.43 6.5349 1.84736 0
M  V30 12451 H 1156.37 5.37124 3.76609 0
M  V30 12452 H 1156.29 6.93192 3.01697 0
M  V30 12453 H 1157.56 6.59397 4.15711 0
M  V30 12454 N 1161.79 -0.095206 1.57312 0
M  V30 12455 C 1162.75 -1.09974 2.01093 0
M  V30 12456 C 1163.75 -1.32954 0.904424 0
M  V30 12457 O 1164.94 -1.29069 1.16991 0
M  V30 12458 C 1162.07 -2.4489 2.37153 0
M  V30 12459 H 1163.26 -0.722906 2.91057 0
M  V30 12460 H 1160.82 -0.340249 1.52552 0
M  V30 12461 H 1161.55 -2.8745 1.50143 0
M  V30 12462 H 1161.34 -2.29559 3.17876 0
M  V30 12463 H 1162.83 -3.17141 2.71683 0
M  V30 12464 N 1163.26 -1.53291 -0.366026 0
M  V30 12465 C 1164.21 -1.79697 -1.44836 0
M  V30 12466 C 1165.18 -0.641321 -1.5322 0
M  V30 12467 O 1166.37 -0.883453 -1.69115 0
M  V30 12468 C 1163.51 -1.99223 -2.81788 0
M  V30 12469 C 1162.62 -3.26938 -2.82375 0
M  V30 12470 C 1161.75 -3.36654 -4.10898 0
M  V30 12471 C 1160.79 -4.58404 -4.05626 0
M  V30 12472 N 1159.93 -4.65275 -5.25798 0
M  V30 12473 H 1164.77 -2.72053 -1.21619 0
M  V30 12474 H 1162.31 -1.34768 -0.589577 0
M  V30 12475 H 1164.27 -2.0853 -3.61346 0
M  V30 12476 H 1162.9 -1.10204 -3.03406 0
M  V30 12477 H 1161.95 -3.26587 -1.95052 0
M  V30 12478 H 1163.26 -4.16573 -2.74351 0
M  V30 12479 H 1162.41 -3.4527 -4.98872 0
M  V30 12480 H 1161.15 -2.45035 -4.21674 0
M  V30 12481 H 1160.16 -4.49888 -3.16039 0
M  V30 12482 H 1161.38 -5.51364 -3.96453 0
M  V30 12483 H 1159.33 -3.76557 -5.3716 0
M  V30 12484 H 1159.25 -5.48814 -5.19942 0
M  V30 12485 H 1160.51 -4.78175 -6.15605 0
M  V30 12486 N 1164.74 0.6258 -1.44643 0
M  V30 12487 C 1166.15 1.20751 -1.42394 0
M  V30 12488 C 1166.5 1.95685 -0.142047 0
M  V30 12489 O 1165.63 2.02715 0.757332 0
M  V30 12490 C 1166.22 2.1964 -2.57961 0
M  V30 12491 C 1164.78 2.73227 -2.5889 0
M  V30 12492 C 1163.93 1.48315 -2.34303 0
M  V30 12493 H 1166.88 0.416162 -1.53146 0
M  V30 12494 H 1166.9 3.02342 -2.31019 0
M  V30 12495 H 1166.41 1.65073 -3.51244 0
M  V30 12496 H 1164.52 3.31782 -1.69563 0
M  V30 12497 H 1164.63 3.18902 -3.57545 0
M  V30 12498 H 1162.99 1.76634 -1.83501 0
M  V30 12499 H 1163.78 0.956427 -3.29708 0
M  V30 12500 N 1166.22 1.31629 0.866686 0
M  V30 12501 C 1167.5 1.12136 1.60265 0
M  V30 12502 C 1167.88 -0.322729 2.08618 0
M  V30 12503 O 1167.23 -1.31738 1.86701 0
M  V30 12504 C 1167.44 2.13845 2.7581 0
M  V30 12505 C 1168.78 2.46541 3.45692 0
M  V30 12506 O 1169.81 2.12298 2.86021 0
M  V30 12507 O 1168.67 3.05194 4.53342 0
M  V30 12508 H 1165.76 0.431923 0.705246 0
M  V30 12509 H 1168.31 1.43119 0.911863 0
M  V30 12510 H 1167.08 3.10967 2.37518 0
M  V30 12511 H 1166.7 1.83786 3.52574 0
M  V30 12512 N 1167.7 -1.08142 1.14644 0
M  V30 12513 C 1168.98 -1.77254 0.827071 0
M  V30 12514 C 1169.36 -1.99885 -0.67891 0
M  V30 12515 O 1168.7 -1.61084 -1.62062 0
M  V30 12516 C 1168.91 -3.08658 1.62884 0
M  V30 12517 C 1170.26 -3.83143 1.82993 0
M  V30 12518 O 1171.29 -3.18447 1.59593 0
M  V30 12519 O 1170.15 -4.9932 2.2213 0
M  V30 12520 H 1167.24 -0.769356 0.30335 0
M  V30 12521 H 1169.79 -1.1458 1.25178 0
M  V30 12522 H 1168.56 -2.87753 2.65168 0
M  V30 12523 H 1168.18 -3.79061 1.19994 0
M  V30 12524 N 1169.18 -0.941978 -1.26351 0
M  V30 12525 C 1170.13 -0.423053 -2.24041 0
M  V30 12526 C 1171.11 0.480668 -1.53553 0
M  V30 12527 O 1172.3 0.315783 -1.7416 0
M  V30 12528 C 1169.43 0.309814 -3.41899 0
M  V30 12529 C 1168.52 -0.611245 -4.19672 0
M  V30 12530 N 1168.91 -1.73738 -4.75025 0
M  V30 12531 C 1167.21 -0.416985 -4.44046 0
M  V30 12532 C 1167.91 -2.31141 -5.33806 0
M  V30 12533 N 1166.88 -1.59934 -5.1954 0
M  V30 12534 H 1170.69 -1.28268 -2.64433 0
M  V30 12535 H 1168.2 -0.797941 -1.41445 0
M  V30 12536 H 1170.2 0.698618 -4.11005 0
M  V30 12537 H 1168.86 1.1662 -3.03035 0
M  V30 12538 H 1169.87 -2.1195 -4.72544 0
M  V30 12539 H 1166.55 0.397561 -4.15603 0
M  V30 12540 H 1167.94 -3.26029 -5.87499 0
M  V30 12541 N 1170.66 1.40747 -0.709091 0
M  V30 12542 C 1172.07 1.54961 -0.381989 0
M  V30 12543 C 1172.27 1.68181 1.10985 0
M  V30 12544 O 1171.33 1.66776 1.89584 0
M  V30 12545 C 1172.64 2.78156 -1.14236 0
M  V30 12546 C 1174.19 2.91967 -1.12803 0
M  V30 12547 C 1174.66 4.18066 -1.87042 0
M  V30 12548 N 1176.15 4.25052 -1.84078 0
M  V30 12549 C 1176.89 5.21514 -2.38349 0
M  V30 12550 N 1176.39 6.23924 -3.01149 0
M  V30 12551 N 1178.18 5.13548 -2.28528 0
M  V30 12552 H 1170.33 1.30412 -1.6765 0
M  V30 12553 H 1172.59 0.630147 -0.70825 0
M  V30 12554 H 1172.3 2.74643 -2.19691 0
M  V30 12555 H 1172.17 3.70074 -0.729731 0
M  V30 12556 H 1174.56 2.94987 -0.0816956 0
M  V30 12557 H 1174.64 2.01185 -1.57982 0
M  V30 12558 H 1174.28 4.15808 -2.91662 0
M  V30 12559 H 1174.21 5.07845 -1.39287 0
M  V30 12560 H 1176.71 3.51682 -1.38305 0
M  V30 12561 H 1177.02 6.93942 -3.40094 0
M  V30 12562 H 1175.36 6.24387 -3.05231 0
M  V30 12563 H 1178.55 4.3247 -1.79129 0
M  V30 12564 H 1178.73 5.88553 -2.71126 0
M  V30 12565 N 1172.13 0.454803 1.50895 0
M  V30 12566 C 1173.36 -0.106259 2.07128 0
M  V30 12567 C 1173.78 -1.3418 1.31823 0
M  V30 12568 O 1173.14 -1.77667 0.361147 0
M  V30 12569 C 1173.19 -0.389609 3.58489 0
M  V30 12570 O 1172.29 -1.47305 3.85195 0
M  V30 12571 H 1171.63 0.00580588 0.663975 0
M  V30 12572 H 1174.16 0.641163 1.94294 0
M  V30 12573 H 1174.17 -0.634934 4.03029 0
M  V30 12574 H 1172.85 0.513338 4.1272 0
M  V30 12575 H 1171.43 -1.21631 3.52506 0
M  V30 12576 N 1173.61 -1.56489 0.186789 0
M  V30 12577 C 1175.03 -1.58701 -0.169176 0
M  V30 12578 C 1175.23 -1.2027 -1.61671 0
M  V30 12579 O 1174.28 -0.92154 -2.35083 0
M  V30 12580 C 1175.6 -3.00437 0.125657 0
M  V30 12581 C 1177.14 -3.12932 0.0651 0
M  V30 12582 C 1177.62 -4.56787 0.333131 0
M  V30 12583 N 1179.11 -4.62344 0.281453 0
M  V30 12584 C 1179.85 -5.71529 0.462805 0
M  V30 12585 N 1179.34 -6.89213 0.704054 0
M  V30 12586 N 1181.13 -5.60692 0.397636 0
M  V30 12587 H 1173.29 -1.79754 1.13148 0
M  V30 12588 H 1175.55 -0.83385 0.450997 0
M  V30 12589 H 1175.25 -3.33086 1.12901 0
M  V30 12590 H 1175.13 -3.72782 -0.575612 0
M  V30 12591 H 1177.52 -2.80101 -0.928845 0
M  V30 12592 H 1177.6 -2.42991 0.799318 0
M  V30 12593 H 1177.24 -4.9033 1.32436 0
M  V30 12594 H 1177.17 -5.24907 -0.421879 0
M  V30 12595 H 1179.66 -3.77764 0.101266 0
M  V30 12596 H 1179.97 -7.68314 0.831468 0
M  V30 12597 H 1178.32 -6.9104 0.740851 0
M  V30 12598 H 1181.51 -4.6763 0.20964 0
M  V30 12599 H 1181.68 -6.45726 0.54239 0
M  V30 12600 N 1175.09 0.086862 -1.5736 0
M  V30 12601 C 1176.5 0.640442 -1.75372 0
M  V30 12602 C 1176.85 1.78693 -0.81014 0
M  V30 12603 O 1175.98 2.16398 0.00940712 0
M  V30 12604 C 1176.57 1.16856 -3.1801 0
M  V30 12605 C 1175.13 1.66813 -3.37417 0
M  V30 12606 C 1174.28 0.58116 -2.71142 0
M  V30 12607 H 1177.23 -0.139249 -1.58088 0
M  V30 12608 H 1177.25 2.03772 -3.21337 0
M  V30 12609 H 1176.76 0.333909 -3.86661 0
M  V30 12610 H 1174.86 2.52652 -2.73858 0
M  V30 12611 H 1174.98 1.75545 -4.45781 0
M  V30 12612 H 1173.34 1.0226 -2.3327 0
M  V30 12613 H 1174.12 -0.243047 -3.42439 0
M  V30 12614 N 1176.57 1.53483 0.357892 0
M  V30 12615 C 1177.82 1.69701 1.09754 0
M  V30 12616 C 1178.14 0.455389 1.89608 0
M  V30 12617 O 1177.41 -0.530623 1.88577 0
M  V30 12618 H 1175.99 0.62562 0.408178 0
M  V30 12619 H 1178.65 1.90696 0.402641 0
M  V30 12620 H 1177.74 2.56154 1.78302 0
M  V30 12621 N 1178.05 -0.61812 1.44973 0
M  V30 12622 C 1179.46 -0.937734 1.29146 0
M  V30 12623 C 1179.66 -2.00104 0.236749 0
M  V30 12624 O 1178.72 -2.49731 -0.372923 0
M  V30 12625 C 1180.03 -1.38865 2.66715 0
M  V30 12626 C 1181.58 -1.50343 2.74529 0
M  V30 12627 C 1182.05 -1.98814 4.12598 0
M  V30 12628 N 1183.54 -2.06064 4.14839 0
M  V30 12629 C 1184.28 -2.44768 5.18533 0
M  V30 12630 N 1183.78 -2.82516 6.32579 0
M  V30 12631 N 1185.57 -2.45016 5.05889 0
M  V30 12632 H 1177.72 0.084872 2.1223 0
M  V30 12633 H 1179.98 -0.0246744 0.947679 0
M  V30 12634 H 1179.69 -0.681583 3.45032 0
M  V30 12635 H 1179.56 -2.3572 2.94475 0
M  V30 12636 H 1181.95 -2.20144 1.96522 0
M  V30 12637 H 1182.03 -0.518297 2.50494 0
M  V30 12638 H 1181.67 -1.29604 4.91086 0
M  V30 12639 H 1181.6 -2.98223 4.34017 0
M  V30 12640 H 1184.1 -1.79525 3.32535 0
M  V30 12641 H 1184.41 -3.109 7.07504 0
M  V30 12642 H 1182.75 -2.80237 6.35997 0
M  V30 12643 H 1185.94 -2.14925 4.15842 0
M  V30 12644 H 1186.12 -2.74854 5.86821 0
M  V30 12645 N 1179.52 -1.32087 -0.859693 0
M  V30 12646 C 1180.93 -1.20107 -1.42938 0
M  V30 12647 C 1181.29 0.188411 -1.95293 0
M  V30 12648 O 1180.41 1.08683 -1.87128 0
M  V30 12649 C 1181.01 -2.17436 -2.59821 0
M  V30 12650 C 1179.56 -2.09359 -3.12803 0
M  V30 12651 C 1178.71 -2.06086 -1.85537 0
M  V30 12652 H 1181.66 -1.43989 -0.667302 0
M  V30 12653 H 1181.68 -1.76996 -3.36828 0
M  V30 12654 H 1181.2 -3.18555 -2.21685 0
M  V30 12655 H 1179.3 -1.1147 -3.55535 0
M  V30 12656 H 1179.41 -2.98947 -3.74389 0
M  V30 12657 H 1177.77 -1.51251 -2.04928 0
M  V30 12658 H 1178.56 -3.08978 -1.49625 0
M  V30 12659 N 1181 1.07532 -1.15215 0
M  V30 12660 C 1181.96 2.1286 -0.84989 0
M  V30 12661 C 1182.96 1.60103 0.149524 0
M  V30 12662 O 1184.15 1.74017 -0.0798918 0
M  V30 12663 C 1181.29 3.3984 -0.268617 0
M  V30 12664 H 1182.48 2.41106 -1.78347 0
M  V30 12665 H 1180.03 1.23392 -0.959386 0
M  V30 12666 H 1180.77 3.17235 0.67325 0
M  V30 12667 H 1180.55 3.79433 -0.988592 0
M  V30 12668 H 1182.04 4.17533 -0.0746554 0
M  V30 12669 N 1182.48 0.948665 1.2585 0
M  V30 12670 C 1183.76 0.517832 1.88621 0
M  V30 12671 C 1184.14 -1.00477 1.85654 0
M  V30 12672 O 1183.49 -1.868 1.31598 0
M  V30 12673 C 1183.7 1.08768 3.31618 0
M  V30 12674 C 1185.04 1.16089 4.08422 0
M  V30 12675 O 1186.07 1.0388 3.40716 0
M  V30 12676 O 1184.93 1.35172 5.29519 0
M  V30 12677 H 1182.02 0.169916 0.809356 0
M  V30 12678 H 1184.57 1.04171 1.33964 0
M  V30 12679 H 1183.34 2.13109 3.28177 0
M  V30 12680 H 1182.96 0.54669 3.93824 0
M  V30 12681 N 1183.96 -1.40369 0.716545 0
M  V30 12682 C 1185.21 -2.00869 0.256466 0
M  V30 12683 C 1185.53 -1.56816 -1.15061 0
M  V30 12684 O 1184.79 -0.779696 -1.79497 0
M  V30 12685 C 1185.09 -3.56257 0.285583 0
M  V30 12686 C 1184.75 -4.19897 1.64309 0
M  V30 12687 C 1183.42 -4.36994 2.01469 0
M  V30 12688 C 1185.77 -4.55385 2.53524 0
M  V30 12689 C 1183.1 -4.86862 3.27387 0
M  V30 12690 C 1185.45 -5.06653 3.78795 0
M  V30 12691 C 1184.11 -5.21959 4.16071 0
M  V30 12692 H 1183.38 -0.735033 0.0938475 0
M  V30 12693 H 1186.03 -1.67966 0.919765 0
M  V30 12694 H 1184.33 -3.89075 -0.461287 0
M  V30 12695 H 1186.03 -4.00903 -0.0882496 0
M  V30 12696 H 1182.62 -4.06978 1.34413 0
M  V30 12697 H 1186.8 -4.41811 2.2609 0
M  V30 12698 H 1182.06 -4.96897 3.56235 0
M  V30 12699 H 1186.23 -5.33089 4.48095 0
M  V30 12700 H 1183.86 -5.60362 5.1371 0
M  V30 12701 N 1185.44 -0.462799 -1.50652 0
M  V30 12702 C 1186.68 0.0951853 -2.02576 0
M  V30 12703 C 1187.02 1.40113 -1.34469 0
M  V30 12704 O 1186.29 1.88793 -0.467702 0
M  V30 12705 C 1186.57 0.287603 -3.5895 0
M  V30 12706 C 1186.43 -1.03878 -4.37641 0
M  V30 12707 C 1187.75 1.04593 -4.27491 0
M  V30 12708 H 1184.86 0.0331191 -0.736255 0
M  V30 12709 H 1187.51 -0.606772 -1.80051 0
M  V30 12710 H 1185.66 0.885514 -3.78274 0
M  V30 12711 H 1187.33 -1.67263 -4.29908 0
M  V30 12712 H 1185.57 -1.6374 -4.01711 0
M  V30 12713 H 1186.24 -0.857889 -5.45293 0
M  V30 12714 H 1188.72 0.539213 -4.12591 0
M  V30 12715 H 1187.59 1.14935 -5.36732 0
M  V30 12716 H 1187.86 2.08045 -3.90089 0
M  V30 12717 N 1186.91 1.56388 -0.195085 0
M  V30 12718 C 1187.84 2.22091 0.720971 0
M  V30 12719 C 1188.83 1.184 1.22128 0
M  V30 12720 O 1190.01 1.46907 1.27012 0
M  V30 12721 C 1187.14 2.88025 1.94059 0
M  V30 12722 C 1186.09 3.97959 1.5752 0
M  V30 12723 C 1185.42 4.51058 2.87143 0
M  V30 12724 C 1186.72 5.16365 0.785145 0
M  V30 12725 H 1188.41 2.98898 0.173245 0
M  V30 12726 H 1185.96 1.43767 0.0818868 0
M  V30 12727 H 1187.91 3.32671 2.58666 0
M  V30 12728 H 1186.64 2.08623 2.51285 0
M  V30 12729 H 1185.3 3.54004 0.952715 0
M  V30 12730 H 1184.94 3.68418 3.42458 0
M  V30 12731 H 1184.64 5.25237 2.63439 0
M  V30 12732 H 1186.17 4.98406 3.52738 0
M  V30 12733 H 1187.58 5.57556 1.33431 0
M  V30 12734 H 1185.98 5.9661 0.646231 0
M  V30 12735 H 1187.05 4.84428 -0.213789 0
M  V30 12736 N 1188.39 -0.0785156 1.57404 0
M  V30 12737 C 1189.32 -1.09446 2.06262 0
M  V30 12738 C 1190.3 -1.40777 0.954772 0
M  V30 12739 O 1191.49 -1.5052 1.22708 0
M  V30 12740 C 1188.62 -2.40979 2.50093 0
M  V30 12741 C 1187.57 -2.24017 3.64692 0
M  V30 12742 C 1186.9 -3.60873 3.94556 0
M  V30 12743 C 1188.2 -1.66696 4.94985 0
M  V30 12744 H 1189.89 -0.687928 2.9139 0
M  V30 12745 H 1187.44 -0.329466 1.4018 0
M  V30 12746 H 1189.39 -3.12337 2.82884 0
M  V30 12747 H 1188.12 -2.83599 1.61985 0
M  V30 12748 H 1186.77 -1.55101 3.32174 0
M  V30 12749 H 1186.42 -4.01051 3.0359 0
M  V30 12750 H 1186.12 -3.50365 4.71718 0
M  V30 12751 H 1187.65 -4.33673 4.29837 0
M  V30 12752 H 1189.06 -2.27913 5.2605 0
M  V30 12753 H 1187.46 -1.66902 5.76423 0
M  V30 12754 H 1188.53 -0.627827 4.80818 0
M  V30 12755 N 1189.87 -1.5367 -0.349747 0
M  V30 12756 C 1190.82 -1.81223 -1.42922 0
M  V30 12757 C 1191.79 -0.657536 -1.52531 0
M  V30 12758 O 1192.97 -0.90134 -1.68168 0
M  V30 12759 C 1190.11 -2.022 -2.79659 0
M  V30 12760 C 1189.23 -3.29915 -2.78891 0
M  V30 12761 C 1188.36 -3.40993 -4.07305 0
M  V30 12762 C 1187.4 -4.6268 -4.00741 0
M  V30 12763 N 1186.54 -4.70826 -5.20833 0
M  V30 12764 H 1191.38 -2.73328 -1.18727 0
M  V30 12765 H 1188.91 -1.35386 -0.57525 0
M  V30 12766 H 1190.87 -2.12351 -3.59114 0
M  V30 12767 H 1189.5 -1.13416 -3.0222 0
M  V30 12768 H 1188.55 -3.28637 -1.91577 0
M  V30 12769 H 1189.87 -4.19459 -2.69917 0
M  V30 12770 H 1189.02 -3.50542 -4.95182 0
M  V30 12771 H 1187.76 -2.49493 -4.19052 0
M  V30 12772 H 1186.76 -4.53215 -3.11249 0
M  V30 12773 H 1187.99 -5.55538 -3.90582 0
M  V30 12774 H 1185.93 -3.82233 -5.33136 0
M  V30 12775 H 1185.85 -5.54297 -5.14092 0
M  V30 12776 H 1187.12 -4.84677 -6.10499 0
M  V30 12777 N 1191.35 0.610423 -1.45298 0
M  V30 12778 C 1192.26 1.74964 -1.56285 0
M  V30 12779 C 1193.27 1.68149 -0.447436 0
M  V30 12780 O 1194.45 1.88556 -0.707725 0
M  V30 12781 C 1191.52 3.11417 -1.52383 0
M  V30 12782 C 1190.58 3.29707 -2.7494 0
M  V30 12783 C 1189.81 4.5965 -2.71215 0
M  V30 12784 O 1190.03 5.41789 -1.78383 0
M  V30 12785 O 1188.97 4.80591 -3.62375 0
M  V30 12786 H 1192.79 1.68646 -2.52571 0
M  V30 12787 H 1190.38 0.774168 -1.27777 0
M  V30 12788 H 1192.26 3.9272 -1.52805 0
M  V30 12789 H 1190.93 3.18232 -0.592472 0
M  V30 12790 H 1189.84 2.48003 -2.80081 0
M  V30 12791 H 1191.17 3.27766 -3.67192 0
M  V30 12792 N 1192.83 1.32541 0.852676 0
M  V30 12793 C 1194.24 1.11575 1.14119 0
M  V30 12794 C 1194.44 -0.102469 2.01239 0
M  V30 12795 O 1193.5 -0.786786 2.39929 0
M  V30 12796 C 1194.81 2.39624 1.81661 0
M  V30 12797 C 1196.36 2.454 1.94288 0
M  V30 12798 C 1196.83 3.73375 2.65245 0
M  V30 12799 N 1198.33 3.74368 2.72769 0
M  V30 12800 C 1199.06 4.70094 3.28328 0
M  V30 12801 N 1198.56 5.76187 3.84682 0
M  V30 12802 N 1200.35 4.57588 3.26449 0
M  V30 12803 H 1192.5 2.10644 0.272544 0
M  V30 12804 H 1194.76 0.930094 0.183385 0
M  V30 12805 H 1194.47 3.28698 1.25102 0
M  V30 12806 H 1194.34 2.50734 2.81802 0
M  V30 12807 H 1196.73 1.56784 2.50005 0
M  V30 12808 H 1196.81 2.38241 0.931379 0
M  V30 12809 H 1196.46 4.62366 2.10191 0
M  V30 12810 H 1196.39 3.77806 3.66838 0
M  V30 12811 H 1198.88 2.97685 2.32791 0
M  V30 12812 H 1199.19 6.45285 4.25238 0
M  V30 12813 H 1197.53 5.79939 3.83008 0
M  V30 12814 H 1200.73 3.7387 2.81672 0
M  V30 12815 H 1200.9 5.32365 3.69448 0
M  V30 12816 N 1194.3 -1.0692 1.15784 0
M  V30 12817 C 1195.53 -1.8331 0.959422 0
M  V30 12818 C 1195.95 -1.82268 -0.492332 0
M  V30 12819 O 1195.3 -1.23727 -1.34156 0
M  V30 12820 C 1195.36 -3.30202 1.47135 0
M  V30 12821 O 1195.08 -3.31328 2.86624 0
M  V30 12822 C 1196.58 -4.23346 1.31504 0
M  V30 12823 H 1193.8 -0.578202 0.340475 0
M  V30 12824 H 1196.34 -1.34939 1.53661 0
M  V30 12825 H 1194.5 -3.75908 0.936587 0
M  V30 12826 H 1194.91 -4.23135 3.0993 0
M  V30 12827 H 1196.38 -5.24465 1.72163 0
M  V30 12828 H 1196.86 -4.38431 0.259773 0
M  V30 12829 H 1197.47 -3.8348 1.83911 0
M  V30 12830 N 1195.78 -0.955326 -1.25345 0
M  V30 12831 C 1196.71 -0.494145 -2.28211 0
M  V30 12832 C 1197.69 0.459875 -1.63766 0
M  V30 12833 O 1198.88 0.358679 -1.90859 0
M  V30 12834 C 1196.01 0.228228 -3.46549 0
M  V30 12835 C 1194.96 -0.640601 -4.23179 0
M  V30 12836 C 1194.29 0.212553 -5.34277 0
M  V30 12837 C 1195.59 -1.91906 -4.85767 0
M  V30 12838 H 1197.28 -1.35391 -2.67039 0
M  V30 12839 H 1194.83 -0.652462 -1.2837 0
M  V30 12840 H 1196.78 0.561995 -4.17636 0
M  V30 12841 H 1195.51 1.12224 -3.06714 0
M  V30 12842 H 1194.16 -0.957462 -3.53876 0
M  V30 12843 H 1193.81 1.10634 -4.90682 0
M  V30 12844 H 1193.51 -0.365473 -5.86462 0
M  V30 12845 H 1195.04 0.541271 -6.08196 0
M  V30 12846 H 1196.45 -1.65165 -5.48993 0
M  V30 12847 H 1194.85 -2.44279 -5.48131 0
M  V30 12848 H 1195.92 -2.62173 -4.07914 0
M  V30 12849 N 1197.26 1.39987 -0.723979 0
M  V30 12850 C 1198.54 1.94637 -0.1939 0
M  V30 12851 C 1198.92 1.66156 1.30212 0
M  V30 12852 O 1198.27 0.983783 2.06238 0
M  V30 12853 C 1198.48 3.4517 -0.515652 0
M  V30 12854 C 1199.82 4.22113 -0.458919 0
M  V30 12855 O 1200.85 3.53318 -0.452198 0
M  V30 12856 O 1199.71 5.44695 -0.443783 0
M  V30 12857 H 1196.8 0.826394 -0.0316615 0
M  V30 12858 H 1199.35 1.49548 -0.802085 0
M  V30 12859 H 1198.12 3.5929 -1.55004 0
M  V30 12860 H 1197.74 3.97413 0.122067 0
M  V30 12861 N 1198.74 0.470782 1.50404 0
M  V30 12862 C 1199.65 -0.328877 2.32283 0
M  V30 12863 C 1200.67 -0.99629 1.42654 0
M  V30 12864 O 1201.84 -0.984331 1.75707 0
M  V30 12865 C 1198.91 -1.39675 3.1732 0
M  V30 12866 C 1197.97 -0.745965 4.22769 0
M  V30 12867 C 1197.2 -1.76295 5.03742 0
M  V30 12868 O 1197.42 -2.98943 4.85788 0
M  V30 12869 O 1196.36 -1.33495 5.86909 0
M  V30 12870 H 1200.18 0.340491 3.01785 0
M  V30 12871 H 1197.77 0.232637 1.47578 0
M  V30 12872 H 1199.65 -2.0153 3.70086 0
M  V30 12873 H 1198.33 -2.04959 2.50546 0
M  V30 12874 H 1197.23 -0.0884647 3.73995 0
M  V30 12875 H 1198.57 -0.136074 4.92012 0
M  V30 12876 N 1200.22 -1.56282 0.203376 0
M  V30 12877 C 1201.18 -2.18233 -0.700489 0
M  V30 12878 C 1202.18 -1.13908 -1.13497 0
M  V30 12879 O 1203.37 -1.39246 -1.04672 0
M  V30 12880 C 1200.5 -2.79107 -1.95735 0
M  V30 12881 H 1201.7 -2.99469 -0.160649 0
M  V30 12882 H 1199.25 -1.56232 -0.0462475 0
M  V30 12883 H 1199.98 -2.01691 -2.53951 0
M  V30 12884 H 1199.77 -3.55486 -1.65446 0
M  V30 12885 H 1201.26 -3.2665 -2.60172 0
M  V30 12886 N 1201.7 0.070167 -1.57444 0
M  V30 12887 C 1203.11 0.621805 -1.76041 0
M  V30 12888 C 1203.46 1.77824 -0.829047 0
M  V30 12889 O 1202.58 2.16396 -0.0135453 0
M  V30 12890 C 1203.18 1.13476 -3.19231 0
M  V30 12891 C 1201.74 1.63225 -3.39167 0
M  V30 12892 C 1200.88 0.552369 -2.71743 0
M  V30 12893 H 1203.83 -0.156009 -1.57931 0
M  V30 12894 H 1203.86 2.00352 -3.2348 0
M  V30 12895 H 1203.37 0.29288 -3.86993 0
M  V30 12896 H 1201.47 2.49733 -2.76522 0
M  V30 12897 H 1201.58 1.70807 -4.47618 0
M  V30 12898 H 1199.95 0.997797 -2.34342 0
M  V30 12899 H 1200.73 -0.279354 -3.42162 0
M  V30 12900 N 1203.17 1.53854 0.341593 0
M  V30 12901 C 1204.59 1.44161 0.684821 0
M  V30 12902 C 1204.79 0.599929 1.92362 0
M  V30 12903 O 1203.85 0.0916771 2.52334 0
M  V30 12904 C 1205.16 2.87668 0.875637 0
M  V30 12905 C 1206.71 2.97455 0.974131 0
M  V30 12906 C 1207.18 4.42075 1.19725 0
M  V30 12907 N 1208.67 4.45609 1.2644 0
M  V30 12908 C 1209.41 5.54643 1.45459 0
M  V30 12909 N 1208.9 6.7368 1.61637 0
M  V30 12910 N 1210.7 5.4226 1.48022 0
M  V30 12911 H 1202.85 2.07069 -0.472883 0
M  V30 12912 H 1205.11 0.936114 -0.149648 0
M  V30 12913 H 1204.82 3.51681 0.0368595 0
M  V30 12914 H 1204.69 3.32731 1.7768 0
M  V30 12915 H 1207.08 2.33582 1.80343 0
M  V30 12916 H 1207.16 2.55751 0.0498282 0
M  V30 12917 H 1206.8 5.06529 0.372872 0
M  V30 12918 H 1206.73 4.81372 2.13515 0
M  V30 12919 H 1209.22 3.59831 1.15455 0
M  V30 12920 H 1209.54 7.52541 1.7579 0
M  V30 12921 H 1207.88 6.76622 1.5877 0
M  V30 12922 H 1211.07 4.48221 1.34966 0
M  V30 12923 H 1211.25 6.27293 1.62502 0
M  V30 12924 N 1204.65 -0.602709 1.4562 0
M  V30 12925 C 1206.06 -1.1847 1.44297 0
M  V30 12926 C 1206.41 -1.95434 0.17316 0
M  V30 12927 O 1205.54 -2.03894 -0.724986 0
M  V30 12928 C 1206.13 -2.15508 2.61422 0
M  V30 12929 C 1204.69 -2.69073 2.63204 0
M  V30 12930 C 1203.84 -1.44568 2.36633 0
M  V30 12931 H 1206.79 -0.391745 1.53789 0
M  V30 12932 H 1206.81 -2.98628 2.35799 0
M  V30 12933 H 1206.32 -1.59464 3.53826 0
M  V30 12934 H 1204.42 -3.29042 1.7482 0
M  V30 12935 H 1204.54 -3.13173 3.62573 0
M  V30 12936 H 1202.9 -1.73692 1.86287 0
M  V30 12937 H 1203.68 -0.903852 3.31188 0
M  V30 12938 N 1206.13 -1.32992 -0.845635 0
M  V30 12939 C 1207.54 -1.21616 -1.41656 0
M  V30 12940 C 1207.89 0.167687 -1.95482 0
M  V30 12941 O 1207.02 1.06692 -1.8827 0
M  V30 12942 C 1207.61 -2.2018 -2.575 0
M  V30 12943 C 1206.17 -2.12664 -3.10565 0
M  V30 12944 C 1205.32 -2.08042 -1.83341 0
M  V30 12945 H 1208.27 -1.44688 -0.651993 0
M  V30 12946 H 1208.29 -1.80558 -3.34931 0
M  V30 12947 H 1207.8 -3.20888 -2.18294 0
M  V30 12948 H 1205.9 -1.15235 -3.54333 0
M  V30 12949 H 1206.02 -3.02902 -3.71197 0
M  V30 12950 H 1204.38 -1.53416 -2.03312 0
M  V30 12951 H 1205.16 -3.10547 -1.46339 0
M  V30 12952 N 1207.61 1.06304 -1.1635 0
M  V30 12953 C 1208.55 2.13776 -0.869965 0
M  V30 12954 C 1209.52 1.65105 0.181541 0
M  V30 12955 O 1210.71 1.90743 0.0467705 0
M  V30 12956 C 1207.85 3.43034 -0.377077 0
M  V30 12957 C 1206.96 4.0544 -1.4914 0
M  V30 12958 C 1206.1 5.22572 -0.953538 0
M  V30 12959 C 1205.14 5.76961 -2.04407 0
M  V30 12960 N 1204.27 6.85409 -1.52181 0
M  V30 12961 H 1209.11 2.38224 -1.79034 0
M  V30 12962 H 1206.65 1.16882 -0.893136 0
M  V30 12963 H 1208.61 4.17136 -0.0729426 0
M  V30 12964 H 1207.24 3.18804 0.506359 0
M  V30 12965 H 1206.29 3.28886 -1.9115 0
M  V30 12966 H 1207.6 4.41859 -2.31434 0
M  V30 12967 H 1206.76 6.037 -0.602579 0
M  V30 12968 H 1205.5 4.87598 -0.099897 0
M  V30 12969 H 1204.5 4.9447 -2.40373 0
M  V30 12970 H 1205.73 6.13987 -2.90167 0
M  V30 12971 H 1203.67 6.52354 -0.690697 0
M  V30 12972 H 1203.59 7.2077 -2.28092 0
M  V30 12973 H 1204.86 7.70217 -1.19942 0
M  V30 12974 N 1209.09 0.96196 1.24836 0
M  V30 12975 C 1210.03 0.48686 2.25607 0
M  V30 12976 C 1211 -0.464546 1.59472 0
M  V30 12977 O 1212.19 -0.376179 1.87055 0
M  V30 12978 C 1209.33 -0.222294 3.44383 0
M  V30 12979 C 1208.44 0.767206 4.25133 0
M  V30 12980 C 1207.58 0.0347458 5.31189 0
M  V30 12981 C 1206.61 1.01469 6.03631 0
M  V30 12982 N 1205.75 0.312619 7.01404 0
M  V30 12983 H 1210.59 1.35104 2.65614 0
M  V30 12984 H 1208.13 0.677373 1.30576 0
M  V30 12985 H 1210.09 -0.650087 4.12104 0
M  V30 12986 H 1208.72 -1.05047 3.0523 0
M  V30 12987 H 1207.77 1.31346 3.57005 0
M  V30 12988 H 1209.08 1.5147 4.75245 0
M  V30 12989 H 1208.23 -0.451325 6.05019 0
M  V30 12990 H 1206.97 -0.745485 4.81969 0
M  V30 12991 H 1205.98 1.51169 5.28609 0
M  V30 12992 H 1207.2 1.79527 6.5494 0
M  V30 12993 H 1205.15 -0.44874 6.54463 0
M  V30 12994 H 1205.07 0.999079 7.49369 0
M  V30 12995 H 1206.33 -0.151673 7.79352 0
M  V30 12996 N 1210.56 -1.39601 0.731392 0
M  V30 12997 C 1211.53 -2.28992 0.0976037 0
M  V30 12998 C 1212.53 -1.46135 -0.670917 0
M  V30 12999 O 1213.72 -1.66856 -0.50047 0
M  V30 13000 C 1210.85 -3.29582 -0.871124 0
M  V30 13001 H 1212.04 -2.86541 0.885112 0
M  V30 13002 H 1209.59 -1.48188 0.497002 0
M  V30 13003 H 1210.33 -2.77082 -1.68512 0
M  V30 13004 H 1210.11 -3.9077 -0.322735 0
M  V30 13005 H 1211.6 -3.96479 -1.31126 0
M  V30 13006 N 1212.04 -0.478751 -1.50152 0
M  V30 13007 C 1212.98 0.357584 -2.25381 0
M  V30 13008 C 1213.95 0.98965 -1.29014 0
M  V30 13009 O 1215.14 1.02409 -1.58255 0
M  V30 13010 C 1212.26 1.50167 -3.03591 0
M  V30 13011 C 1211.31 0.986215 -4.14941 0
M  V30 13012 S 1212.14 -0.105239 -5.35397 0
M  V30 13013 C 1213.3 1.04254 -6.17156 0
M  V30 13014 H 1213.53 -0.280985 -2.95969 0
M  V30 13015 H 1211.07 -0.263734 -1.52131 0
M  V30 13016 H 1213.02 2.15733 -3.49241 0
M  V30 13017 H 1211.68 2.11178 -2.32514 0
M  V30 13018 H 1210.88 1.84295 -4.69096 0
M  V30 13019 H 1210.48 0.408141 -3.71766 0
M  V30 13020 H 1212.77 1.95255 -6.48754 0
M  V30 13021 H 1213.71 0.540083 -7.06037 0
M  V30 13022 H 1214.12 1.29983 -5.49331 0
M  V30 13023 N 1213.52 1.56172 -0.211661 0
M  V30 13024 C 1214.8 1.8984 0.471195 0
M  V30 13025 C 1215.18 1.1276 1.78461 0
M  V30 13026 O 1214.53 0.233817 2.27301 0
M  V30 13027 C 1214.74 3.42434 0.673814 0
M  V30 13028 C 1216.08 4.13 0.985719 0
M  V30 13029 O 1217.11 3.47977 0.760953 0
M  V30 13030 O 1215.97 5.2795 1.41176 0
M  V30 13031 H 1213.06 0.789008 0.247782 0
M  V30 13032 H 1215.61 1.67802 -0.25311 0
M  V30 13033 H 1214.38 3.90481 -0.253034 0
M  V30 13034 H 1214 3.70218 1.44997 0
M  V30 13035 N 1215 -0.0618163 1.57479 0
M  V30 13036 C 1216.23 -0.770605 1.9169 0
M  V30 13037 C 1216.64 -1.71134 0.806841 0
M  V30 13038 O 1215.98 -1.8228 -0.228002 0
M  V30 13039 C 1216.04 -1.60962 3.21452 0
M  V30 13040 C 1215.71 -0.837193 4.49266 0
M  V30 13041 C 1216.7 -0.151964 5.19678 0
M  V30 13042 C 1214.39 -0.801414 4.95866 0
M  V30 13043 C 1216.38 0.558705 6.34947 0
M  V30 13044 C 1214.07 -0.0869788 6.11038 0
M  V30 13045 C 1215.07 0.591871 6.80431 0
M  V30 13046 O 1214.75 1.29478 7.93405 0
M  V30 13047 H 1214.49 -0.223673 0.637923 0
M  V30 13048 H 1217.04 -0.0333424 2.05373 0
M  V30 13049 H 1215.27 -2.38992 3.04006 0
M  V30 13050 H 1216.96 -2.19799 3.41238 0
M  V30 13051 H 1217.73 -0.170848 4.84699 0
M  V30 13052 H 1213.6 -1.31927 4.4172 0
M  V30 13053 H 1217.15 1.08913 6.89046 0
M  V30 13054 H 1213.05 -0.066057 6.45466 0
M  V30 13055 H 1213.81 1.20507 8.0958 0
M  V30 13056 N 1216.48 -1.54033 -0.333429 0
M  V30 13057 C 1217.7 -1.76031 -1.09672 0
M  V30 13058 C 1218.13 -0.502844 -1.81254 0
M  V30 13059 O 1217.48 0.54509 -1.72912 0
M  V30 13060 C 1217.53 -2.947 -2.07809 0
M  V30 13061 O 1216.64 -2.65555 -3.15522 0
M  V30 13062 H 1215.98 -0.583611 -0.316692 0
M  V30 13063 H 1218.51 -2.01026 -0.380732 0
M  V30 13064 H 1218.52 -3.21771 -2.50853 0
M  V30 13065 H 1217.19 -3.85895 -1.55106 0
M  V30 13066 H 1215.77 -2.49403 -2.77223 0
M  V30 13067 N 1217.95 0.594978 -1.45938 0
M  V30 13068 C 1219.18 1.38482 -1.54394 0
M  V30 13069 C 1219.6 1.87222 -0.181563 0
M  V30 13070 O 1218.96 1.60869 0.836119 0
M  V30 13071 C 1219.01 2.55676 -2.54287 0
M  V30 13072 O 1218.11 3.5672 -2.06941 0
M  V30 13073 H 1217.46 0.412918 -0.519995 0
M  V30 13074 H 1219.99 0.722899 -1.91404 0
M  V30 13075 H 1220 3.02756 -2.73501 0
M  V30 13076 H 1218.67 2.19552 -3.53228 0
M  V30 13077 H 1217.25 3.16204 -1.97661 0
M  V30 13078 N 1219.43 1.33438 0.838571 0
M  V30 13079 C 1220.66 1.28097 1.63113 0
M  V30 13080 C 1221.08 -0.145197 1.87539 0
M  V30 13081 O 1220.44 -1.10191 1.43971 0
M  V30 13082 C 1220.49 2.06201 2.95827 0
M  V30 13083 O 1219.59 1.42082 3.87152 0
M  V30 13084 H 1218.93 0.440685 0.496681 0
M  V30 13085 H 1221.46 1.76004 1.04325 0
M  V30 13086 H 1221.47 2.16977 3.45521 0
M  V30 13087 H 1220.15 3.099 2.77371 0
M  V30 13088 H 1218.73 1.39953 3.45641 0
M  V30 13089 N 1220.91 -1.05686 1.16912 0
M  V30 13090 C 1222.14 -1.82821 0.979348 0
M  V30 13091 C 1222.56 -1.82196 -0.467575 0
M  V30 13092 O 1221.92 -1.22727 -1.33445 0
M  V30 13093 C 1221.97 -3.2705 1.51891 0
M  V30 13094 O 1221.07 -4.05899 0.729341 0
M  V30 13095 H 1220.41 -0.565455 0.348076 0
M  V30 13096 H 1222.94 -1.33211 1.55293 0
M  V30 13097 H 1222.95 -3.77859 1.53904 0
M  V30 13098 H 1221.63 -3.26819 2.5722 0
M  V30 13099 H 1220.2 -3.64646 0.780221 0
M  V30 13100 N 1222.39 -0.968567 -1.24324 0
M  V30 13101 C 1223.3 -0.50703 -2.29055 0
M  V30 13102 C 1224.31 0.432431 -1.68541 0
M  V30 13103 O 1225.49 0.30526 -1.99073 0
M  V30 13104 C 1222.56 0.194589 -3.46153 0
M  V30 13105 C 1221.62 -0.784805 -4.22066 0
M  V30 13106 C 1220.85 -0.116574 -5.33573 0
M  V30 13107 O 1221.07 1.09492 -5.59792 0
M  V30 13108 O 1220.01 -0.809171 -5.96436 0
M  V30 13109 H 1223.83 -1.3777 -2.70653 0
M  V30 13110 H 1221.42 -0.735645 -1.30033 0
M  V30 13111 H 1223.3 0.588684 -4.17268 0
M  V30 13112 H 1221.97 1.04021 -3.06531 0
M  V30 13113 H 1220.88 -1.22938 -3.53323 0
M  V30 13114 H 1222.21 -1.59887 -4.65507 0
M  V30 13115 N 1223.87 1.39211 -0.738786 0
M  V30 13116 C 1224.78 2.34374 -0.102958 0
M  V30 13117 C 1225.79 1.58514 0.717596 0
M  V30 13118 O 1226.97 1.90786 0.645186 0
M  V30 13119 C 1224.03 3.37562 0.790733 0
M  V30 13120 C 1223.09 4.29279 -0.0425028 0
M  V30 13121 C 1222.33 5.27539 0.808628 0
M  V30 13122 O 1222.55 5.32396 2.04722 0
M  V30 13123 O 1221.48 6.0144 0.235279 0
M  V30 13124 H 1225.31 2.90412 -0.888498 0
M  V30 13125 H 1222.9 1.40803 -0.499498 0
M  V30 13126 H 1224.78 4.00783 1.30196 0
M  V30 13127 H 1223.45 2.83903 1.55502 0
M  V30 13128 H 1222.36 3.69268 -0.599335 0
M  V30 13129 H 1223.69 4.86154 -0.7691 0
M  V30 13130 N 1225.34 0.486708 1.49896 0
M  V30 13131 C 1226.59 -0.0629451 2.02702 0
M  V30 13132 C 1226.92 -1.37956 1.36681 0
M  V30 13133 O 1226.2 -1.88025 0.497678 0
M  V30 13134 C 1226.48 -0.230461 3.59362 0
M  V30 13135 C 1226.33 1.10828 4.35933 0
M  V30 13136 C 1227.65 -0.977785 4.29101 0
M  V30 13137 H 1224.77 -0.0214017 0.736689 0
M  V30 13138 H 1227.41 0.635339 1.79063 0
M  V30 13139 H 1225.56 -0.825222 3.79634 0
M  V30 13140 H 1227.24 1.74082 4.27192 0
M  V30 13141 H 1225.48 1.7011 3.99055 0
M  V30 13142 H 1226.15 0.944532 5.43859 0
M  V30 13143 H 1228.63 -0.473505 4.13397 0
M  V30 13144 H 1227.5 -1.06382 5.38492 0
M  V30 13145 H 1227.76 -2.01813 3.9335 0
M  V30 13146 N 1226.82 -1.56058 0.219941 0
M  V30 13147 C 1227.73 -2.23844 -0.70222 0
M  V30 13148 C 1228.75 -1.24554 -1.215 0
M  V30 13149 O 1229.93 -1.57362 -1.25695 0
M  V30 13150 C 1226.99 -2.90384 -1.89416 0
M  V30 13151 C 1226.05 -4.05012 -1.42351 0
M  V30 13152 C 1225.28 -4.68369 -2.55863 0
M  V30 13153 O 1225.51 -4.3071 -3.73958 0
M  V30 13154 O 1224.44 -5.5739 -2.27157 0
M  V30 13155 H 1228.27 -3.03305 -0.15478 0
M  V30 13156 H 1225.85 -1.49396 -0.010438 0
M  V30 13157 H 1227.73 -3.32389 -2.59028 0
M  V30 13158 H 1226.41 -2.13883 -2.42973 0
M  V30 13159 H 1225.32 -3.67579 -0.695448 0
M  V30 13160 H 1226.65 -4.83251 -0.934332 0
M  V30 13161 N 1228.3 0.053464 -1.57509 0
M  V30 13162 C 1229.53 0.765301 -1.92764 0
M  V30 13163 C 1229.95 1.69385 -0.817943 0
M  V30 13164 O 1229.31 1.7986 0.228075 0
M  V30 13165 C 1229.36 1.51938 -3.27028 0
M  V30 13166 O 1228.46 2.63121 -3.17555 0
M  V30 13167 H 1227.8 0.207567 -0.630723 0
M  V30 13168 H 1230.33 0.0162254 -2.04594 0
M  V30 13169 H 1230.34 1.89466 -3.6134 0
M  V30 13170 H 1229.02 0.838207 -4.07366 0
M  V30 13171 H 1227.59 2.28316 -2.94832 0
M  V30 13172 N 1229.78 1.54207 0.325255 0
M  V30 13173 C 1231 1.7661 1.08736 0
M  V30 13174 C 1231.43 0.512449 1.80985 0
M  V30 13175 O 1230.79 -0.535913 1.73198 0
M  V30 13176 C 1230.84 2.95797 2.06243 0
M  V30 13177 O 1229.94 2.67225 3.14109 0
M  V30 13178 H 1229.28 0.585282 0.313593 0
M  V30 13179 H 1231.81 2.01225 0.370066 0
M  V30 13180 H 1231.82 3.23097 2.49143 0
M  V30 13181 H 1230.5 3.86712 1.53058 0
M  V30 13182 H 1229.07 2.50869 2.75897 0
M  V30 13183 N 1231.26 -0.58723 1.46251 0
M  V30 13184 C 1232.17 -1.72455 1.59048 0
M  V30 13185 C 1233.18 -1.67416 0.47413 0
M  V30 13186 O 1234.36 -1.87406 0.737633 0
M  V30 13187 C 1231.42 -3.08953 1.57318 0
M  V30 13188 C 1230.49 -3.25291 2.80151 0
M  V30 13189 C 1229.72 -4.55277 2.78493 0
M  V30 13190 O 1229.94 -5.38883 1.8698 0
M  V30 13191 O 1228.88 -4.74765 3.69975 0
M  V30 13192 H 1232.7 -1.64606 2.55223 0
M  V30 13193 H 1230.29 -0.753742 1.28993 0
M  V30 13194 H 1232.17 -3.90239 1.59033 0
M  V30 13195 H 1230.84 -3.17249 0.643025 0
M  V30 13196 H 1229.75 -2.43515 2.83991 0
M  V30 13197 H 1231.08 -3.21883 3.7236 0
M  V30 13198 N 1232.74 -1.33881 -0.831482 0
M  V30 13199 C 1234.01 -1.16346 -1.57236 0
M  V30 13200 C 1234.39 0.267304 -2.09401 0
M  V30 13201 O 1233.74 1.26742 -1.90128 0
M  V30 13202 C 1233.95 -2.21082 -2.70044 0
M  V30 13203 C 1235.3 -2.5562 -3.39033 0
M  V30 13204 O 1236.32 -2.19806 -2.80292 0
M  V30 13205 O 1235.18 -3.17106 -4.45091 0
M  V30 13206 H 1232.28 -0.450469 -0.693546 0
M  V30 13207 H 1234.82 -1.45487 -0.873597 0
M  V30 13208 H 1233.59 -3.17155 -2.2919 0
M  V30 13209 H 1233.22 -1.9307 -3.47577 0
M  V30 13210 N 1234.21 1.05064 -1.1747 0
M  V30 13211 C 1235.49 1.74999 -0.873776 0
M  V30 13212 C 1235.87 2.01615 0.625676 0
M  V30 13213 O 1235.22 1.65324 1.57734 0
M  V30 13214 C 1235.43 3.04231 -1.7101 0
M  V30 13215 C 1236.78 3.78157 -1.93087 0
M  V30 13216 O 1237.8 3.14104 -1.6798 0
M  V30 13217 O 1236.66 4.93255 -2.3529 0
M  V30 13218 H 1233.75 0.761042 -0.323641 0
M  V30 13219 H 1236.3 1.1122 -1.28172 0
M  V30 13220 H 1235.07 2.80621 -2.72704 0
M  V30 13221 H 1234.69 3.75746 -1.30002 0
M  V30 13222 N 1235.69 0.975146 1.23809 0
M  V30 13223 C 1236.6 0.51917 2.28783 0
M  V30 13224 C 1237.62 -0.423487 1.68768 0
M  V30 13225 O 1238.79 -0.294699 1.99232 0
M  V30 13226 C 1235.86 -0.176229 3.46252 0
M  V30 13227 C 1234.92 0.807177 4.21643 0
M  V30 13228 C 1234.15 0.144869 5.33503 0
M  V30 13229 O 1234.38 -1.06522 5.60365 0
M  V30 13230 O 1233.31 0.84079 5.95999 0
M  V30 13231 H 1237.14 1.39204 2.69919 0
M  V30 13232 H 1234.72 0.74253 1.29641 0
M  V30 13233 H 1236.6 -0.566547 4.17574 0
M  V30 13234 H 1235.28 -1.02394 3.07078 0
M  V30 13235 H 1234.18 1.2481 3.52666 0
M  V30 13236 H 1235.52 1.62354 4.64653 0
M  V30 13237 N 1237.17 -1.38817 0.746158 0
M  V30 13238 C 1238.08 -2.34316 0.115386 0
M  V30 13239 C 1239.1 -1.58892 -0.709179 0
M  V30 13240 O 1240.27 -1.91126 -0.635059 0
M  V30 13241 C 1237.34 -3.37977 -0.772821 0
M  V30 13242 C 1236.4 -4.2925 0.0652679 0
M  V30 13243 C 1235.63 -5.2796 -0.78064 0
M  V30 13244 O 1235.85 -5.33474 -2.01896 0
M  V30 13245 O 1234.79 -6.01556 -0.20338 0
M  V30 13246 H 1238.61 -2.89937 0.903887 0
M  V30 13247 H 1236.2 -1.40536 0.506958 0
M  V30 13248 H 1238.08 -4.01468 -1.28068 0
M  V30 13249 H 1236.76 -2.84723 -1.53994 0
M  V30 13250 H 1235.66 -3.68945 0.61891 0
M  V30 13251 H 1237 -4.85739 0.794871 0
M  V30 13252 N 1238.65 -0.49465 -1.49636 0
M  V30 13253 C 1239.56 0.291881 -2.32777 0
M  V30 13254 C 1240.57 0.973468 -1.44221 0
M  V30 13255 O 1241.75 0.956252 -1.77251 0
M  V30 13256 C 1238.81 1.34609 -3.19502 0
M  V30 13257 C 1237.88 0.678611 -4.23903 0
M  V30 13258 C 1237.11 1.68259 -5.06483 0
M  V30 13259 O 1237.33 2.91176 -4.90482 0
M  V30 13260 O 1236.27 1.24141 -5.88959 0
M  V30 13261 H 1240.09 -0.388459 -3.01205 0
M  V30 13262 H 1237.68 -0.256086 -1.47189 0
M  V30 13263 H 1239.56 1.95617 -3.73245 0
M  V30 13264 H 1238.23 2.00947 -2.53775 0
M  V30 13265 H 1237.14 0.0289541 -3.74089 0
M  V30 13266 H 1238.47 0.0577817 -4.92166 0
M  V30 13267 N 1240.13 1.55939 -0.228214 0
M  V30 13268 C 1241.37 1.98084 0.400884 0
M  V30 13269 C 1241.69 1.11727 1.59819 0
M  V30 13270 O 1240.96 0.195794 1.94919 0
M  V30 13271 H 1239.54 0.731558 0.151102 0
M  V30 13272 H 1242.21 1.92211 -0.322659 0
M  V30 13273 H 1241.3 3.03617 0.722706 0
M  V30 13274 N 1241.6 -0.0451101 1.57535 0
M  V30 13275 C 1242.51 -1.06796 2.08882 0
M  V30 13276 C 1243.53 -1.40682 1.02394 0
M  V30 13277 O 1244.71 -1.50324 1.34033 0
M  V30 13278 C 1241.77 -2.35467 2.54472 0
M  V30 13279 C 1240.83 -2.0831 3.75374 0
M  V30 13280 C 1240.07 -3.30846 4.1878 0
M  V30 13281 O 1240.29 -4.40945 3.61834 0
M  V30 13282 O 1239.22 -3.17488 5.11356 0
M  V30 13283 H 1243.05 -0.661658 2.96405 0
M  V30 13284 H 1240.63 -0.26104 1.47102 0
M  V30 13285 H 1242.52 -3.11143 2.84198 0
M  V30 13286 H 1241.19 -2.75425 1.70068 0
M  V30 13287 H 1240.1 -1.30254 3.50692 0
M  V30 13288 H 1241.43 -1.73218 4.60713 0
M  V30 13289 N 1243.08 -1.54377 -0.317073 0
M  V30 13290 C 1244.33 -1.72551 -1.05216 0
M  V30 13291 C 1244.65 -0.5055 -1.88334 0
M  V30 13292 O 1243.92 0.480439 -1.89917 0
M  V30 13293 H 1242.5 -0.636222 -0.391447 0
M  V30 13294 H 1245.16 -1.91696 -0.35194 0
M  V30 13295 H 1244.26 -2.60791 -1.71448 0
M  V30 13296 N 1244.56 0.579466 -1.4656 0
M  V30 13297 C 1245.81 1.33492 -1.51738 0
M  V30 13298 C 1246.13 1.94241 -0.171926 0
M  V30 13299 O 1245.4 1.78737 0.801875 0
M  V30 13300 H 1243.98 0.49565 -0.558874 0
M  V30 13301 H 1246.64 0.678394 -1.82712 0
M  V30 13302 H 1245.74 2.13995 -2.27183 0
M  V30 13303 N 1246.04 1.3432 0.824371 0
M  V30 13304 C 1247.45 1.23855 1.39703 0
M  V30 13305 C 1247.8 -0.136566 1.95724 0
M  V30 13306 O 1246.93 -1.03683 1.89944 0
M  V30 13307 C 1247.52 2.24249 2.53965 0
M  V30 13308 C 1246.08 2.17578 3.07143 0
M  V30 13309 C 1245.23 2.10933 1.80008 0
M  V30 13310 H 1248.18 1.45707 0.628891 0
M  V30 13311 H 1248.2 1.85864 3.32016 0
M  V30 13312 H 1247.71 3.24321 2.13161 0
M  V30 13313 H 1245.81 1.20858 3.52455 0
M  V30 13314 H 1245.92 3.08769 3.66331 0
M  V30 13315 H 1244.29 1.56631 2.00845 0
M  V30 13316 H 1245.07 3.12836 1.4138 0
M  V30 13317 N 1247.52 -1.0444 1.18026 0
M  V30 13318 C 1248.48 -2.10532 0.906028 0
M  V30 13319 C 1249.48 -1.60443 -0.107022 0
M  V30 13320 O 1250.67 -1.73744 0.126001 0
M  V30 13321 C 1247.8 -3.39008 0.358625 0
M  V30 13322 H 1248.99 -2.36293 1.84677 0
M  V30 13323 H 1246.55 -1.20805 0.991763 0
M  V30 13324 H 1247.28 -3.18908 -0.588904 0
M  V30 13325 H 1247.07 -3.76678 1.08884 0
M  V30 13326 H 1248.56 -4.17189 0.185331 0
M  V30 13327 N 1248.99 -0.981699 -1.2329 0
M  V30 13328 C 1249.9 -0.531296 -2.28505 0
M  V30 13329 C 1250.92 0.414531 -1.6899 0
M  V30 13330 O 1252.1 0.284129 -1.99386 0
M  V30 13331 C 1249.16 0.157864 -3.4634 0
M  V30 13332 C 1248.22 -0.829527 -4.21209 0
M  V30 13333 C 1247.46 -0.17316 -5.33419 0
M  V30 13334 O 1247.68 1.03549 -5.60922 0
M  V30 13335 O 1246.61 -0.872385 -5.95544 0
M  V30 13336 H 1250.44 -1.40633 -2.69177 0
M  V30 13337 H 1248.02 -0.749395 -1.29246 0
M  V30 13338 H 1249.91 0.544394 -4.17869 0
M  V30 13339 H 1248.58 1.00764 -3.07617 0
M  V30 13340 H 1247.49 -1.26678 -3.51999 0
M  V30 13341 H 1248.82 -1.64815 -4.63785 0
M  V30 13342 N 1250.47 1.3842 -0.753509 0
M  V30 13343 C 1251.72 1.99723 -0.309021 0
M  V30 13344 C 1252.04 1.60111 1.11308 0
M  V30 13345 O 1251.31 0.85792 1.76115 0
M  V30 13346 H 1249.89 0.738667 -0.111266 0
M  V30 13347 H 1252.55 1.69186 -0.967586 0
M  V30 13348 H 1251.65 3.09874 -0.372095 0
M  V30 13349 N 1251.95 0.502579 1.49372 0
M  V30 13350 C 1253.18 -0.0403087 2.07361 0
M  V30 13351 C 1253.6 -1.29918 1.36026 0
M  V30 13352 O 1252.96 -1.76428 0.417488 0
M  V30 13353 C 1253.01 -0.275362 3.59547 0
M  V30 13354 O 1252.11 -1.34975 3.89686 0
M  V30 13355 H 1251.45 0.0269268 0.663454 0
M  V30 13356 H 1253.98 0.702652 1.92156 0
M  V30 13357 H 1253.99 -0.506392 4.04845 0
M  V30 13358 H 1252.67 0.644382 4.10878 0
M  V30 13359 H 1251.24 -1.10355 3.56197 0
M  V30 13360 N 1253.43 -1.55816 0.23648 0
M  V30 13361 C 1254.84 -1.59159 -0.118601 0
M  V30 13362 C 1255.04 -1.25352 -1.57763 0
M  V30 13363 O 1254.1 -0.995863 -2.32032 0
M  V30 13364 C 1255.41 -2.99885 0.221175 0
M  V30 13365 C 1256.96 -3.12567 0.164624 0
M  V30 13366 C 1257.44 -4.55496 0.478285 0
M  V30 13367 N 1258.93 -4.61215 0.428402 0
M  V30 13368 C 1259.66 -5.69768 0.644398 0
M  V30 13369 N 1259.16 -6.86624 0.922966 0
M  V30 13370 N 1260.95 -5.59143 0.575814 0
M  V30 13371 H 1253.1 -1.76063 1.18809 0
M  V30 13372 H 1255.37 -0.819079 0.477297 0
M  V30 13373 H 1255.07 -3.29326 1.2344 0
M  V30 13374 H 1254.95 -3.74425 -0.456723 0
M  V30 13375 H 1257.33 -2.82914 -0.839263 0
M  V30 13376 H 1257.41 -2.40325 0.876219 0
M  V30 13377 H 1257.06 -4.85868 1.47968 0
M  V30 13378 H 1256.99 -5.25984 -0.254671 0
M  V30 13379 H 1259.48 -3.77251 0.221398 0
M  V30 13380 H 1259.79 -7.6528 1.07548 0
M  V30 13381 H 1258.14 -6.88333 0.960325 0
M  V30 13382 H 1261.33 -4.66727 0.358307 0
M  V30 13383 H 1261.5 -6.43674 0.747548 0
M  V30 13384 N 1254.91 0.036755 -1.57557 0
M  V30 13385 C 1256.18 0.764087 -1.80059 0
M  V30 13386 C 1256.56 1.93983 -0.83269 0
M  V30 13387 O 1255.91 2.28148 0.126815 0
M  V30 13388 C 1256.12 1.20433 -3.27562 0
M  V30 13389 C 1257.47 1.6234 -3.9234 0
M  V30 13390 O 1258.49 1.29911 -3.31665 0
M  V30 13391 O 1257.35 2.22504 -4.99154 0
M  V30 13392 H 1254.45 0.368866 -0.74018 0
M  V30 13393 H 1256.99 0.0141254 -1.69694 0
M  V30 13394 H 1255.76 0.364646 -3.89597 0
M  V30 13395 H 1255.39 2.01454 -3.42786 0
M  V30 13396 N 1256.39 1.54543 0.308881 0
M  V30 13397 C 1257.61 1.77431 1.06422 0
M  V30 13398 C 1258.03 0.529972 1.81209 0
M  V30 13399 O 1257.39 -0.499912 1.7552 0
M  V30 13400 C 1257.44 2.9769 2.05092 0
M  V30 13401 O 1257.16 4.17315 1.33341 0
M  V30 13402 C 1258.66 3.32905 2.92727 0
M  V30 13403 H 1255.88 0.591961 0.315948 0
M  V30 13404 H 1258.42 2.01473 0.350547 0
M  V30 13405 H 1256.58 2.7588 2.71973 0
M  V30 13406 H 1256.99 4.85061 1.99539 0
M  V30 13407 H 1258.47 4.20314 3.57827 0
M  V30 13408 H 1258.94 2.50713 3.6061 0
M  V30 13409 H 1259.55 3.56847 2.31388 0
M  V30 13410 N 1257.86 -0.571685 1.46866 0
M  V30 13411 C 1259.27 -1.15383 1.46778 0
M  V30 13412 C 1259.63 -1.95023 0.214576 0
M  V30 13413 O 1258.75 -2.05386 -0.681574 0
M  V30 13414 C 1259.35 -2.09915 2.65935 0
M  V30 13415 C 1257.9 -2.6343 2.68852 0
M  V30 13416 C 1257.05 -1.39517 2.39646 0
M  V30 13417 H 1260 -0.359036 1.54585 0
M  V30 13418 H 1260.02 -2.9356 2.42081 0
M  V30 13419 H 1259.54 -1.51923 3.57129 0
M  V30 13420 H 1257.64 -3.2526 1.8176 0
M  V30 13421 H 1257.75 -3.05412 3.69134 0
M  V30 13422 H 1256.11 -1.69702 1.8993 0
M  V30 13423 H 1256.9 -0.833399 3.33031 0
M  V30 13424 N 1259.34 -1.34755 -0.817236 0
M  V30 13425 C 1260.59 -1.2718 -1.57066 0
M  V30 13426 C 1260.91 0.156531 -1.94371 0
M  V30 13427 O 1260.18 1.09049 -1.62742 0
M  V30 13428 H 1258.76 -0.467755 -0.582421 0
M  V30 13429 H 1261.42 -1.68734 -0.975438 0
M  V30 13430 H 1260.52 -1.88043 -2.49091 0
M  V30 13431 N 1260.82 1.03812 -1.18578 0
M  V30 13432 C 1262.07 1.76706 -0.980776 0
M  V30 13433 C 1262.39 1.88729 0.490562 0
M  V30 13434 O 1261.66 1.41413 1.35569 0
M  V30 13435 H 1260.24 0.654586 -0.359898 0
M  V30 13436 H 1262.9 1.25274 -1.49306 0
M  V30 13437 H 1262 2.77876 -1.42096 0
M  V30 13438 N 1262.3 0.988223 1.22768 0
M  V30 13439 C 1263.71 0.69816 1.4352 0
M  V30 13440 C 1263.91 -0.732872 1.877 0
M  V30 13441 O 1262.97 -1.50436 2.02793 0
M  V30 13442 C 1264.28 1.69975 2.4805 0
M  V30 13443 C 1265.83 1.71467 2.61855 0
M  V30 13444 C 1266.31 2.70477 3.69603 0
M  V30 13445 N 1267.8 2.69043 3.77055 0
M  V30 13446 C 1268.53 3.42319 4.60006 0
M  V30 13447 N 1268.03 4.2518 5.46986 0
M  V30 13448 N 1269.82 3.31047 4.54274 0
M  V30 13449 H 1261.97 1.91251 0.923948 0
M  V30 13450 H 1264.23 0.82455 0.467783 0
M  V30 13451 H 1263.94 2.72354 2.22523 0
M  V30 13452 H 1263.81 1.48885 3.46573 0
M  V30 13453 H 1266.2 0.697889 2.86729 0
M  V30 13454 H 1266.28 1.96625 1.63622 0
M  V30 13455 H 1265.93 3.72302 3.45476 0
M  V30 13456 H 1265.86 2.42591 4.67394 0
M  V30 13457 H 1268.35 2.08914 3.14902 0
M  V30 13458 H 1268.66 4.77929 6.07292 0
M  V30 13459 H 1267.01 4.29268 5.46584 0
M  V30 13460 H 1270.2 2.65758 3.85345 0
M  V30 13461 H 1270.37 3.88413 5.1869 0
M  V30 13462 N 1263.78 -1.38018 0.760839 0
M  V30 13463 C 1265 -2.04757 0.330038 0
M  V30 13464 C 1265.43 -1.57009 -1.03585 0
M  V30 13465 O 1264.78 -0.725349 -1.66158 0
M  V30 13466 C 1264.83 -3.58696 0.370082 0
M  V30 13467 O 1263.94 -4.07507 -0.633361 0
M  V30 13468 H 1263.28 -0.648023 0.144782 0
M  V30 13469 H 1265.81 -1.7655 1.03399 0
M  V30 13470 H 1265.82 -4.07387 0.223515 0
M  V30 13471 H 1264.49 -3.92806 1.36661 0
M  V30 13472 H 1263.07 -3.70165 -0.45081 0
M  V30 13473 N 1265.25 -0.510493 -1.49103 0
M  V30 13474 C 1266.53 0.0941122 -1.95373 0
M  V30 13475 C 1266.91 1.53207 -1.45227 0
M  V30 13476 O 1266.26 2.18452 -0.670161 0
M  V30 13477 C 1266.47 -0.00302507 -3.49 0
M  V30 13478 C 1267.82 0.166117 -4.24275 0
M  V30 13479 O 1268.84 0.0717097 -3.56128 0
M  V30 13480 O 1267.7 0.361155 -5.45305 0
M  V30 13481 H 1264.79 0.0900741 -0.82208 0
M  V30 13482 H 1267.34 -0.573707 -1.59708 0
M  V30 13483 H 1266.11 -1.00545 -3.78162 0
M  V30 13484 H 1265.73 0.704518 -3.91308 0
M  V30 13485 N 1266.73 1.55688 -0.24474 0
M  V30 13486 C 1267.98 1.98498 0.379852 0
M  V30 13487 C 1268.3 1.13416 1.58625 0
M  V30 13488 O 1267.57 0.216456 1.947 0
M  V30 13489 H 1266.15 0.73312 0.143334 0
M  V30 13490 H 1268.81 1.91858 -0.343027 0
M  V30 13491 H 1267.91 3.04367 0.690463 0
M  V30 13492 N 1268.21 -0.0283989 1.57574 0
M  V30 13493 C 1269.49 -0.754527 1.80461 0
M  V30 13494 C 1269.87 -1.93539 0.842966 0
M  V30 13495 O 1269.21 -2.28212 -0.114714 0
M  V30 13496 C 1269.42 -1.18694 3.28196 0
M  V30 13497 C 1270.77 -1.60257 3.93196 0
M  V30 13498 O 1271.8 -1.2815 3.32349 0
M  V30 13499 O 1270.66 -2.19853 5.00327 0
M  V30 13500 H 1267.75 -0.364936 0.742126 0
M  V30 13501 H 1270.3 -0.00512589 1.69699 0
M  V30 13502 H 1269.07 -0.34398 3.89785 0
M  V30 13503 H 1268.69 -1.99633 3.43849 0
M  V30 13504 N 1269.69 -1.54705 -0.300681 0
M  V30 13505 C 1270.92 -1.77993 -1.0548 0
M  V30 13506 C 1271.33 -0.539574 -1.80926 0
M  V30 13507 O 1270.69 0.490597 -1.75782 0
M  V30 13508 C 1270.74 -2.98774 -2.0351 0
M  V30 13509 O 1270.46 -4.18016 -1.31126 0
M  V30 13510 C 1271.96 -3.34452 -2.90958 0
M  V30 13511 H 1269.18 -0.593628 -0.312805 0
M  V30 13512 H 1271.72 -2.01656 -0.339858 0
M  V30 13513 H 1269.88 -2.77318 -2.70506 0
M  V30 13514 H 1270.29 -4.86113 -1.96963 0
M  V30 13515 H 1271.77 -4.22206 -3.55593 0
M  V30 13516 H 1272.24 -2.52622 -3.59275 0
M  V30 13517 H 1272.85 -3.58069 -2.29493 0
M  V30 13518 N 1271.17 0.563888 -1.47167 0
M  V30 13519 C 1272.44 1.32454 -1.43928 0
M  V30 13520 C 1272.82 2.10683 -0.13267 0
M  V30 13521 O 1272.17 2.1063 0.885845 0
M  V30 13522 C 1272.38 2.2347 -2.68071 0
M  V30 13523 C 1273.73 2.84702 -3.15008 0
M  V30 13524 O 1274.75 2.33775 -2.68752 0
M  V30 13525 O 1273.61 3.77251 -3.95404 0
M  V30 13526 H 1270.71 0.596074 -0.573258 0
M  V30 13527 H 1273.25 0.583345 -1.59359 0
M  V30 13528 H 1272.02 1.6522 -3.54708 0
M  V30 13529 H 1271.65 3.04897 -2.55193 0
M  V30 13530 N 1272.64 1.35187 0.810078 0
M  V30 13531 C 1273.87 1.31528 1.60359 0
M  V30 13532 C 1274.29 -0.105385 1.87805 0
M  V30 13533 O 1273.65 -1.07113 1.46276 0
M  V30 13534 C 1273.7 2.12429 2.91386 0
M  V30 13535 O 1272.8 1.50262 3.84051 0
M  V30 13536 H 1272.15 0.451122 0.487222 0
M  V30 13537 H 1274.68 1.78178 1.00568 0
M  V30 13538 H 1274.69 2.24257 3.40841 0
M  V30 13539 H 1273.36 3.15714 2.70735 0
M  V30 13540 H 1271.94 1.47253 3.42594 0
M  V30 13541 N 1274.12 -1.03182 1.19127 0
M  V30 13542 C 1275.37 -1.76794 0.993563 0
M  V30 13543 C 1275.7 -1.88306 -0.474809 0
M  V30 13544 O 1274.98 -1.39769 -1.35258 0
M  V30 13545 C 1275.26 -3.19573 1.65968 0
M  V30 13546 C 1275.11 -3.1595 3.2015 0
M  V30 13547 C 1276.43 -4.17897 1.38023 0
M  V30 13548 H 1273.55 -0.641768 0.362357 0
M  V30 13549 H 1276.19 -1.20472 1.46924 0
M  V30 13550 H 1274.34 -3.67663 1.25524 0
M  V30 13551 H 1276.01 -2.7578 3.69788 0
M  V30 13552 H 1274.26 -2.53743 3.51848 0
M  V30 13553 H 1274.93 -4.16811 3.61901 0
M  V30 13554 H 1277.4 -3.78394 1.73082 0
M  V30 13555 H 1276.28 -5.15997 1.87186 0
M  V30 13556 H 1276.54 -4.41048 0.304812 0
M  V30 13557 N 1275.6 -0.99472 -1.22242 0
M  V30 13558 C 1276.83 -0.689809 -1.95592 0
M  V30 13559 C 1277.25 0.739321 -1.72961 0
M  V30 13560 O 1276.61 1.50563 -1.00997 0
M  V30 13561 C 1276.66 -1.00367 -3.46351 0
M  V30 13562 O 1275.76 -0.103326 -4.12271 0
M  V30 13563 H 1275.1 -0.257997 -0.611828 0
M  V30 13564 H 1277.63 -1.33219 -1.55286 0
M  V30 13565 H 1277.64 -0.946259 -3.96875 0
M  V30 13566 H 1276.32 -2.04504 -3.62148 0
M  V30 13567 H 1274.89 -0.216374 -3.72272 0
M  V30 13568 N 1277.08 1.37613 -0.768148 0
M  V30 13569 C 1278.31 2.04052 -0.342111 0
M  V30 13570 C 1278.72 1.57936 1.03449 0
M  V30 13571 O 1278.08 0.758981 1.65969 0
M  V30 13572 C 1278.13 3.5958 -0.372096 0
M  V30 13573 O 1277.85 4.04008 -1.69439 0
M  V30 13574 C 1279.35 4.43251 0.0659884 0
M  V30 13575 H 1276.57 0.655391 -0.143886 0
M  V30 13576 H 1279.12 1.76017 -1.04107 0
M  V30 13577 H 1277.27 3.86399 0.278248 0
M  V30 13578 H 1277.68 4.98511 -1.63054 0
M  V30 13579 H 1279.16 5.52 -0.00614775 0
M  V30 13580 H 1279.64 4.24788 1.11588 0
M  V30 13581 H 1280.24 4.2165 -0.55603 0
M  V30 13582 N 1278.56 0.518393 1.4883 0
M  V30 13583 C 1279.49 -0.297703 2.2625 0
M  V30 13584 C 1280.47 -0.955096 1.31593 0
M  V30 13585 O 1281.65 -0.981776 1.60914 0
M  V30 13586 C 1278.78 -1.42065 3.07466 0
M  V30 13587 C 1277.82 -0.875854 4.1741 0
M  V30 13588 S 1278.66 0.247153 5.34929 0
M  V30 13589 C 1279.81 -0.878544 6.19703 0
M  V30 13590 H 1280.05 0.359358 2.9512 0
M  V30 13591 H 1277.58 0.303976 1.51378 0
M  V30 13592 H 1279.54 -2.06398 3.54838 0
M  V30 13593 H 1278.2 -2.04939 2.38031 0
M  V30 13594 H 1277.39 -1.71793 4.73818 0
M  V30 13595 H 1276.99 -0.30943 3.72718 0
M  V30 13596 H 1279.29 -1.77986 6.53703 0
M  V30 13597 H 1280.23 -0.3527 7.07221 0
M  V30 13598 H 1280.64 -1.15372 5.52584 0
M  V30 13599 N 1280.03 -1.55556 0.252993 0
M  V30 13600 C 1281.28 -1.99385 -0.370599 0
M  V30 13601 C 1281.61 -1.14101 -1.57145 0
M  V30 13602 O 1280.89 -0.205828 -1.93408 0
M  V30 13603 C 1281.17 -3.51672 -0.774503 0
M  V30 13604 C 1281.02 -4.47719 0.432159 0
M  V30 13605 C 1282.34 -4.0923 -1.61923 0
M  V30 13606 H 1279.46 -0.724858 -0.133231 0
M  V30 13607 H 1282.1 -1.86644 0.355522 0
M  V30 13608 H 1280.25 -3.62661 -1.39318 0
M  V30 13609 H 1281.93 -4.48704 1.07063 0
M  V30 13610 H 1280.17 -4.2029 1.07419 0
M  V30 13611 H 1280.84 -5.51898 0.106123 0
M  V30 13612 H 1283.32 -4.01381 -1.09693 0
M  V30 13613 H 1282.19 -5.16039 -1.87068 0
M  V30 13614 H 1282.45 -3.58067 -2.59307 0
M  V30 13615 N 1281.51 0.0200419 -1.57587 0
M  V30 13616 C 1282.76 0.710078 -1.89962 0
M  V30 13617 C 1283.09 1.74521 -0.851829 0
M  V30 13618 O 1282.37 1.94052 0.132005 0
M  V30 13619 C 1282.65 1.37145 -3.32961 0
M  V30 13620 C 1282.5 0.349221 -4.48442 0
M  V30 13621 C 1283.82 2.30304 -3.75031 0
M  V30 13622 H 1280.94 0.25667 -0.690862 0
M  V30 13623 H 1283.58 -0.0271362 -1.89981 0
M  V30 13624 H 1281.73 1.99981 -3.33076 0
M  V30 13625 H 1283.4 -0.277916 -4.60462 0
M  V30 13626 H 1281.65 -0.330594 -4.32538 0
M  V30 13627 H 1282.32 0.850636 -5.45406 0
M  V30 13628 H 1284.79 1.77503 -3.7634 0
M  V30 13629 H 1283.67 2.73555 -4.75877 0
M  V30 13630 H 1283.93 3.17364 -3.07786 0
M  V30 13631 N 1282.99 1.54862 0.292472 0
M  V30 13632 C 1283.94 1.82788 1.36281 0
M  V30 13633 C 1284.92 0.685534 1.45565 0
M  V30 13634 O 1286.12 0.946393 1.49574 0
M  V30 13635 C 1283.25 2.08616 2.72643 0
M  V30 13636 C 1282.33 3.29058 2.67548 0
M  V30 13637 N 1282.72 4.49419 2.32069 0
M  V30 13638 C 1281.02 3.31257 2.98639 0
M  V30 13639 C 1281.72 5.31461 2.36483 0
M  V30 13640 N 1280.7 4.69389 2.7418 0
M  V30 13641 H 1284.5 2.73405 1.07828 0
M  V30 13642 H 1282.01 1.54477 0.501074 0
M  V30 13643 H 1284.01 2.26772 3.49829 0
M  V30 13644 H 1282.67 1.19272 3.02001 0
M  V30 13645 H 1283.68 4.75868 2.04377 0
M  V30 13646 H 1280.36 2.52045 3.32836 0
M  V30 13647 H 1281.75 6.37651 2.11779 0
M  V30 13648 N 1284.47 -0.556076 1.47464 0
M  V30 13649 C 1285.75 -1.31689 1.44628 0
M  V30 13650 C 1286.13 -2.10609 0.143841 0
M  V30 13651 O 1285.47 -2.11097 -0.874662 0
M  V30 13652 C 1285.68 -2.22045 2.69253 0
M  V30 13653 C 1287.03 -2.83028 3.16513 0
M  V30 13654 O 1288.06 -2.32346 2.69988 0
M  V30 13655 O 1286.91 -3.75148 3.97399 0
M  V30 13656 H 1284.01 -0.593026 0.576411 0
M  V30 13657 H 1286.55 -0.574885 1.59666 0
M  V30 13658 H 1285.33 -1.63337 3.5558 0
M  V30 13659 H 1284.95 -3.03539 2.56807 0
M  V30 13660 N 1285.95 -1.35615 -0.802897 0
M  V30 13661 C 1287.19 -1.29285 -1.56247 0
M  V30 13662 C 1287.53 0.131474 -1.93754 0
M  V30 13663 O 1286.8 1.08172 -1.61645 0
M  V30 13664 C 1287.08 -2.20285 -2.84863 0
M  V30 13665 C 1286.94 -3.71351 -2.53808 0
M  V30 13666 C 1288.26 -2.10318 -3.86593 0
M  V30 13667 H 1285.38 -0.470972 -0.566882 0
M  V30 13668 H 1288.02 -1.66048 -0.923469 0
M  V30 13669 H 1286.17 -1.89063 -3.39393 0
M  V30 13670 H 1287.84 -4.13031 -2.05433 0
M  V30 13671 H 1286.08 -3.9145 -1.86947 0
M  V30 13672 H 1286.75 -4.30416 -3.4561 0
M  V30 13673 H 1289.23 -2.37772 -3.41473 0
M  V30 13674 H 1288.11 -2.76183 -4.74357 0
M  V30 13675 H 1288.37 -1.08627 -4.28547 0
M  V30 13676 N 1287.43 1.02549 -1.19673 0
M  V30 13677 C 1288.34 2.14373 -0.952972 0
M  V30 13678 C 1289.35 1.73776 0.0881727 0
M  V30 13679 O 1290.53 2.01165 -0.0972471 0
M  V30 13680 C 1287.59 3.43096 -0.498569 0
M  V30 13681 C 1286.65 3.97987 -1.60951 0
M  V30 13682 C 1285.89 5.20567 -1.17669 0
M  V30 13683 O 1286.11 5.70385 -0.0416636 0
M  V30 13684 O 1285.04 5.6838 -1.98059 0
M  V30 13685 H 1288.87 2.378 -1.88904 0
M  V30 13686 H 1286.45 1.12781 -0.979836 0
M  V30 13687 H 1288.34 4.20634 -0.253968 0
M  V30 13688 H 1287.01 3.21105 0.409018 0
M  V30 13689 H 1285.92 3.21768 -1.90829 0
M  V30 13690 H 1287.25 4.24349 -2.49377 0
M  V30 13691 N 1288.9 1.00119 1.21713 0
M  V30 13692 C 1289.81 0.567582 2.27631 0
M  V30 13693 C 1290.83 -0.387593 1.69628 0
M  V30 13694 O 1292.01 -0.252372 1.99813 0
M  V30 13695 C 1289.07 -0.102745 3.46548 0
M  V30 13696 C 1288.13 0.896433 4.19836 0
M  V30 13697 C 1287.36 0.258 5.33076 0
M  V30 13698 O 1287.59 -0.946118 5.62499 0
M  V30 13699 O 1286.52 0.967021 5.94081 0
M  V30 13700 H 1290.35 1.44898 2.66905 0
M  V30 13701 H 1287.93 0.769862 1.28037 0
M  V30 13702 H 1289.81 -0.477846 4.18682 0
M  V30 13703 H 1288.49 -0.958576 3.09181 0
M  V30 13704 H 1287.4 1.32262 3.49939 0
M  V30 13705 H 1288.73 1.72173 4.61104 0
M  V30 13706 N 1290.38 -1.37203 0.775435 0
M  V30 13707 C 1291.63 -1.98846 0.338093 0
M  V30 13708 C 1291.94 -1.6225 -1.09244 0
M  V30 13709 O 1293.15 -2.17024 -1.63135 0
M  V30 13710 C 1291.61 -3.55618 0.553541 0
M  V30 13711 C 1291.21 -4.01149 1.99457 0
M  V30 13712 C 1292.96 -4.24118 0.180006 0
M  V30 13713 C 1290.86 -5.50644 2.15742 0
M  V30 13714 H 1289.79 -0.743955 0.122669 0
M  V30 13715 H 1292.45 -1.56685 0.955087 0
M  V30 13716 H 1290.83 -3.95777 -0.132964 0
M  V30 13717 H 1292 -3.72226 2.71633 0
M  V30 13718 H 1290.32 -3.45443 2.32504 0
M  V30 13719 H 1292.91 -5.33966 0.280145 0
M  V30 13720 H 1293.26 -4.07104 -0.870192 0
M  V30 13721 H 1293.79 -3.89274 0.819201 0
M  V30 13722 H 1290.53 -5.7259 3.19094 0
M  V30 13723 H 1290.05 -5.8124 1.48054 0
M  V30 13724 H 1291.73 -6.16668 1.95781 0
M  V30 13725 N 1291.86 -0.526279 -1.48553 0
M  V30 13726 C 1293.09 0.0052277 -2.06899 0
M  V30 13727 C 1293.5 1.2849 -1.38332 0
M  V30 13728 O 1292.86 1.76354 -0.469648 0
M  V30 13729 C 1292.91 0.236709 -3.60724 0
M  V30 13730 O 1292.63 -0.992256 -4.26715 0
M  V30 13731 C 1294.13 0.809014 -4.35855 0
M  V30 13732 H 1291.35 -0.0318426 -0.670244 0
M  V30 13733 H 1293.9 -0.730865 -1.90994 0
M  V30 13734 H 1292.05 0.922842 -3.76248 0
M  V30 13735 H 1292.47 -0.770697 -5.18807 0
M  V30 13736 H 1293.94 0.920428 -5.44272 0
M  V30 13737 H 1294.42 1.81302 -4.00033 0
M  V30 13738 H 1295.02 0.159564 -4.25001 0
M  V30 13739 N 1293.34 1.5542 -0.261239 0
M  V30 13740 C 1294.59 1.9889 0.358777 0
M  V30 13741 C 1294.91 1.15092 1.57413 0
M  V30 13742 O 1294.18 0.237095 1.9446 0
M  V30 13743 H 1292.76 0.734599 0.13555 0
M  V30 13744 H 1295.42 1.91483 -0.363357 0
M  V30 13745 H 1294.51 3.05082 0.658142 0
M  V30 13746 N 1294.82 -0.0116844 1.57596 0
M  V30 13747 C 1296.04 -0.71026 1.94327 0
M  V30 13748 C 1296.46 -1.67952 0.862418 0
M  V30 13749 O 1295.82 -1.818 -0.159698 0
M  V30 13750 C 1295.87 -1.45228 3.31045 0
M  V30 13751 O 1295.59 -0.52191 4.3498 0
M  V30 13752 C 1297.09 -2.24644 3.82165 0
M  V30 13753 H 1294.31 -0.198559 0.640949 0
M  V30 13754 H 1296.85 0.0359615 2.04468 0
M  V30 13755 H 1295.01 -2.15023 3.22248 0
M  V30 13756 H 1295.42 -1.04415 5.14002 0
M  V30 13757 H 1296.9 -2.72078 4.80289 0
M  V30 13758 H 1297.37 -3.06817 3.14261 0
M  V30 13759 H 1297.98 -1.59888 3.94101 0
M  V30 13760 N 1296.29 -1.55015 -0.284256 0
M  V30 13761 C 1297.23 -1.83517 -1.3731 0
M  V30 13762 C 1298.24 -0.719009 -1.46062 0
M  V30 13763 O 1299.43 -0.996719 -1.4808 0
M  V30 13764 C 1296.53 -1.97309 -2.7554 0
M  V30 13765 C 1295.7 -3.2787 -2.89517 0
M  V30 13766 C 1294.76 -3.31868 -4.08351 0
M  V30 13767 O 1293.79 -4.05309 -3.99642 0
M  V30 13768 N 1294.99 -2.5846 -5.19787 0
M  V30 13769 H 1297.75 -2.77495 -1.1321 0
M  V30 13770 H 1295.31 -1.54795 -0.474359 0
M  V30 13771 H 1297.31 -1.97367 -3.53311 0
M  V30 13772 H 1295.88 -1.10249 -2.92513 0
M  V30 13773 H 1295.1 -3.40445 -1.98722 0
M  V30 13774 H 1296.38 -4.13996 -2.95779 0
M  V30 13775 H 1295.78 -1.98455 -5.29747 0
M  V30 13776 H 1294.34 -2.64253 -5.9583 0
M  V30 13777 N 1297.77 0.548248 -1.47757 0
M  V30 13778 C 1299.18 1.13033 -1.48595 0
M  V30 13779 C 1299.53 1.94657 -0.245575 0
M  V30 13780 O 1298.66 2.06445 0.648813 0
M  V30 13781 C 1299.25 2.05657 -2.69241 0
M  V30 13782 C 1297.81 2.59119 -2.73009 0
M  V30 13783 C 1296.96 1.35686 -2.41836 0
M  V30 13784 H 1299.91 0.334397 -1.55137 0
M  V30 13785 H 1299.93 2.89671 -2.4672 0
M  V30 13786 H 1299.44 1.46222 -3.595 0
M  V30 13787 H 1297.54 3.22327 -1.86912 0
M  V30 13788 H 1297.66 2.99501 -3.73946 0
M  V30 13789 H 1296.02 1.66659 -1.92606 0
M  V30 13790 H 1296.8 0.780311 -3.34314 0
M  V30 13791 N 1299.25 1.36039 0.795694 0
M  V30 13792 C 1300.66 1.2679 1.37044 0
M  V30 13793 C 1301.01 -0.0950192 1.9597 0
M  V30 13794 O 1300.14 -0.996311 1.921 0
M  V30 13795 C 1300.73 2.29585 2.49151 0
M  V30 13796 C 1299.29 2.24044 3.02458 0
M  V30 13797 C 1298.44 2.14703 1.75493 0
M  V30 13798 H 1301.39 1.47009 0.597843 0
M  V30 13799 H 1301.41 1.92864 3.27999 0
M  V30 13800 H 1300.92 3.28769 2.06234 0
M  V30 13801 H 1299.02 1.28307 3.49812 0
M  V30 13802 H 1299.14 3.1647 3.597 0
M  V30 13803 H 1297.5 1.60856 1.97478 0
M  V30 13804 H 1298.28 3.15765 1.34713 0
M  V30 13805 N 1300.73 -1.01913 1.20215 0
M  V30 13806 C 1301.96 -1.78817 1.0348 0
M  V30 13807 C 1302.37 -1.84499 -0.419152 0
M  V30 13808 O 1301.71 -1.29506 -1.30284 0
M  V30 13809 C 1301.77 -3.24858 1.53973 0
M  V30 13810 C 1301.44 -3.42788 3.02234 0
M  V30 13811 C 1302.43 -3.32213 3.99914 0
M  V30 13812 C 1300.12 -3.68687 3.41138 0
M  V30 13813 C 1302.11 -3.47276 5.34489 0
M  V30 13814 C 1299.8 -3.83394 4.7587 0
M  V30 13815 C 1300.8 -3.72693 5.72354 0
M  V30 13816 O 1300.48 -3.86953 7.04643 0
M  V30 13817 H 1300.22 -0.569268 0.364568 0
M  V30 13818 H 1302.77 -1.29184 1.59689 0
M  V30 13819 H 1301 -3.7556 0.921478 0
M  V30 13820 H 1302.69 -3.83388 1.33297 0
M  V30 13821 H 1303.46 -3.12145 3.71202 0
M  V30 13822 H 1299.33 -3.76104 2.66583 0
M  V30 13823 H 1302.88 -3.3884 6.09782 0
M  V30 13824 H 1298.78 -4.02962 5.04273 0
M  V30 13825 H 1299.54 -4.03986 7.11855 0
M  V30 13826 N 1302.21 -1.00763 -1.2118 0
M  V30 13827 C 1303.45 -0.690459 -1.8994 0
M  V30 13828 C 1303.78 0.781464 -1.78656 0
M  V30 13829 O 1303.05 1.56135 -1.18316 0
M  V30 13830 H 1301.63 -0.252397 -0.703068 0
M  V30 13831 H 1304.29 -1.2773 -1.47211 0
M  V30 13832 H 1303.38 -0.96594 -2.96776 0
M  V30 13833 N 1303.68 1.3679 -0.7827 0
M  V30 13834 C 1304.93 1.99023 -0.351316 0
M  V30 13835 C 1305.25 1.62436 1.07887 0
M  V30 13836 O 1304.52 0.895084 1.74256 0
M  V30 13837 H 1303.1 0.736141 -0.126909 0
M  V30 13838 H 1305.77 1.67095 -1.00325 0
M  V30 13839 H 1304.86 3.09015 -0.43774 0
M  V30 13840 N 1305.16 0.53415 1.48272 0
M  V30 13841 C 1306.41 0.00156948 2.021 0
M  V30 13842 C 1306.73 -1.34371 1.41313 0
M  V30 13843 O 1306 -1.87117 0.579996 0
M  V30 13844 H 1304.58 -0.00240789 0.746996 0
M  V30 13845 H 1307.24 0.698928 1.81937 0
M  V30 13846 H 1306.34 -0.103671 3.11928 0
M  V30 13847 N 1306.64 -1.55279 0.269478 0
M  V30 13848 C 1307.87 -2.03876 -0.352418 0
M  V30 13849 C 1308.28 -1.14804 -1.49885 0
M  V30 13850 O 1307.64 -0.166989 -1.81734 0
M  V30 13851 C 1307.69 -3.51634 -0.838799 0
M  V30 13852 O 1307.41 -4.37316 0.261972 0
M  V30 13853 C 1308.91 -4.16094 -1.52909 0
M  V30 13854 H 1306.13 -0.66608 -0.0811043 0
M  V30 13855 H 1308.68 -2.00551 0.399929 0
M  V30 13856 H 1306.83 -3.55421 -1.54125 0
M  V30 13857 H 1307.25 -5.24383 -0.111013 0
M  V30 13858 H 1308.72 -5.21102 -1.82089 0
M  V30 13859 H 1309.2 -3.63928 -2.45872 0
M  V30 13860 H 1309.8 -4.16293 -0.87063 0
M  V30 13861 N 1308.12 0.00332656 -1.576 0
M  V30 13862 C 1309.05 1.02964 -2.03651 0
M  V30 13863 C 1310.03 1.33675 -0.925724 0
M  V30 13864 O 1311.21 1.45896 -1.19359 0
M  V30 13865 C 1308.34 2.35808 -2.4313 0
M  V30 13866 C 1307.39 2.20781 -3.64908 0
M  V30 13867 S 1308.22 1.53697 -5.12969 0
M  V30 13868 C 1309.38 2.87978 -5.55715 0
M  V30 13869 H 1309.61 0.637508 -2.90384 0
M  V30 13870 H 1307.14 0.214095 -1.52908 0
M  V30 13871 H 1309.1 3.12193 -2.66544 0
M  V30 13872 H 1307.76 2.72162 -1.56802 0
M  V30 13873 H 1306.95 3.1891 -3.90272 0
M  V30 13874 H 1306.56 1.5254 -3.41478 0
M  V30 13875 H 1308.85 3.84283 -5.57972 0
M  V30 13876 H 1309.79 2.67318 -6.55703 0
M  V30 13877 H 1310.2 2.91735 -4.83271 0
M  V30 13878 N 1309.6 1.55164 0.276031 0
M  V30 13879 C 1310.84 1.75887 1.00953 0
M  V30 13880 C 1311.18 0.5567 1.8605 0
M  V30 13881 O 1310.45 -0.445799 1.89322 0
M  V30 13882 C 1310.73 3.06228 1.89463 0
M  V30 13883 C 1310.59 4.36795 1.07379 0
M  V30 13884 C 1311.91 3.32589 2.88223 0
M  V30 13885 H 1309.02 0.639929 0.365596 0
M  V30 13886 H 1311.67 1.87893 0.282156 0
M  V30 13887 H 1309.82 2.96124 2.51481 0
M  V30 13888 H 1311.49 4.58853 0.474549 0
M  V30 13889 H 1309.73 4.32157 0.377165 0
M  V30 13890 H 1310.4 5.24315 1.72621 0
M  V30 13891 H 1312.88 3.42467 2.36338 0
M  V30 13892 H 1311.75 4.2506 3.47297 0
M  V30 13893 H 1312.02 2.52083 3.6319 0
M  V30 13894 N 1311.07 -0.540404 1.48045 0
M  V30 13895 C 1312.32 -1.2987 1.55762 0
M  V30 13896 C 1312.65 -1.92877 0.226307 0
M  V30 13897 O 1311.93 -1.7875 -0.766727 0
M  V30 13898 C 1312.21 -2.39602 2.68817 0
M  V30 13899 C 1312.06 -1.81354 4.1162 0
M  V30 13900 C 1313.38 -3.41434 2.77688 0
M  V30 13901 H 1310.5 -0.47083 0.566999 0
M  V30 13902 H 1313.14 -0.603081 1.80175 0
M  V30 13903 H 1311.29 -2.98936 2.48132 0
M  V30 13904 H 1312.97 -1.26151 4.43716 0
M  V30 13905 H 1311.21 -1.1194 4.19108 0
M  V30 13906 H 1311.88 -2.60758 4.86528 0
M  V30 13907 H 1314.36 -2.92042 2.96396 0
M  V30 13908 H 1313.23 -4.15621 3.5854 0
M  V30 13909 H 1313.49 -4.01336 1.85422 0
M  V30 13910 N 1312.55 -1.36459 -0.788468 0
M  V30 13911 C 1313.48 -1.26727 -1.90979 0
M  V30 13912 C 1314.5 -0.186572 -1.61727 0
M  V30 13913 O 1315.69 -0.441364 -1.72957 0
M  V30 13914 C 1312.79 -0.932838 -3.25809 0
M  V30 13915 C 1311.96 -2.11562 -3.82832 0
M  V30 13916 C 1311.02 -1.75409 -4.96103 0
M  V30 13917 O 1310.04 -2.47508 -5.1257 0
M  V30 13918 N 1311.25 -0.688327 -5.76405 0
M  V30 13919 H 1314.01 -2.2334 -1.99848 0
M  V30 13920 H 1311.57 -1.29865 -0.966784 0
M  V30 13921 H 1313.56 -0.672131 -3.9908 0
M  V30 13922 H 1312.13 -0.0558103 -3.1255 0
M  V30 13923 H 1311.35 -2.53907 -3.01538 0
M  V30 13924 H 1312.64 -2.9058 -4.17661 0
M  V30 13925 H 1312.04 -0.0896854 -5.65629 0
M  V30 13926 H 1310.6 -0.487446 -6.49975 0
M  V30 13927 N 1314.03 1.01274 -1.20754 0
M  V30 13928 C 1315.45 1.27256 -0.963221 0
M  V30 13929 C 1315.65 1.98349 0.354972 0
M  V30 13930 O 1314.7 2.28116 1.08255 0
M  V30 13931 C 1316.02 2.1038 -2.14851 0
M  V30 13932 C 1317.56 2.23633 -2.18991 0
M  V30 13933 C 1318.04 3.10136 -3.37016 0
M  V30 13934 N 1319.53 3.17724 -3.37054 0
M  V30 13935 C 1320.26 3.84891 -4.25025 0
M  V30 13936 N 1319.76 4.54152 -5.23181 0
M  V30 13937 N 1321.55 3.81454 -4.12855 0
M  V30 13938 H 1313.7 0.535534 -2.05538 0
M  V30 13939 H 1315.97 0.299006 -0.899611 0
M  V30 13940 H 1315.67 1.65484 -3.10335 0
M  V30 13941 H 1315.55 3.11122 -2.13267 0
M  V30 13942 H 1317.93 2.67753 -1.24067 0
M  V30 13943 H 1318.02 1.22387 -2.24622 0
M  V30 13944 H 1317.66 2.66721 -4.32229 0
M  V30 13945 H 1317.59 4.11478 -3.28623 0
M  V30 13946 H 1320.08 2.68412 -2.66014 0
M  V30 13947 H 1320.39 5.03084 -5.86623 0
M  V30 13948 H 1318.74 4.52964 -5.27113 0
M  V30 13949 H 1321.93 3.26494 -3.35439 0
M  V30 13950 H 1322.1 4.33523 -4.81624 0
M  V30 13951 N 1315.51 1.01404 1.20644 0
M  V30 13952 C 1316.74 0.72104 1.93929 0
M  V30 13953 C 1317.15 -0.717853 1.7462 0
M  V30 13954 O 1316.51 -1.48664 1.05855 0
M  V30 13955 C 1316.56 1.04399 3.46097 0
M  V30 13956 O 1316.28 2.42637 3.64773 0
M  V30 13957 C 1317.78 0.771678 4.36532 0
M  V30 13958 H 1315 0.264983 0.616462 0
M  V30 13959 H 1317.55 1.35453 1.53208 0
M  V30 13960 H 1315.7 0.455946 3.84708 0
M  V30 13961 H 1316.12 2.54201 4.58783 0
M  V30 13962 H 1317.59 1.04774 5.41965 0
M  V30 13963 H 1318.07 -0.294188 4.38214 0
M  V30 13964 H 1318.67 1.34176 4.0358 0
M  V30 13965 N 1316.99 -1.36373 0.789944 0
M  V30 13966 C 1318.4 -1.81783 0.425677 0
M  V30 13967 C 1318.75 -1.65711 -1.05045 0
M  V30 13968 O 1317.87 -1.17835 -1.81505 0
M  V30 13969 C 1318.47 -3.3003 0.765866 0
M  V30 13970 C 1317.03 -3.73647 0.454421 0
M  V30 13971 C 1316.18 -2.58632 1.00023 0
M  V30 13972 H 1319.13 -1.24587 0.983044 0
M  V30 13973 H 1319.15 -3.80457 0.0571624 0
M  V30 13974 H 1318.66 -3.41696 1.84026 0
M  V30 13975 H 1316.76 -3.67541 -0.611918 0
M  V30 13976 H 1316.87 -4.69066 0.975401 0
M  V30 13977 H 1315.24 -2.51156 0.423434 0
M  V30 13978 H 1316.02 -2.73083 2.0804 0
M  V30 13979 N 1318.47 -0.542005 -1.47987 0
M  V30 13980 C 1319.38 0.217677 -2.33588 0
M  V30 13981 C 1320.39 0.927093 -1.47245 0
M  V30 13982 O 1321.57 0.899378 -1.80203 0
M  V30 13983 C 1318.63 1.24376 -3.23622 0
M  V30 13984 C 1317.69 0.543407 -4.25847 0
M  V30 13985 C 1316.93 1.5206 -5.11579 0
M  V30 13986 O 1317.15 2.75425 -4.99497 0
M  V30 13987 O 1316.08 1.05341 -5.9261 0
M  V30 13988 H 1319.91 -0.484089 -2.99817 0
M  V30 13989 H 1317.49 -0.302783 -1.463 0
M  V30 13990 H 1319.38 1.83644 -3.7928 0
M  V30 13991 H 1318.05 1.92772 -2.6004 0
M  V30 13992 H 1316.96 -0.090074 -3.73992 0
M  V30 13993 H 1318.29 -0.0988264 -4.92101 0
M  V30 13994 N 1319.94 1.55134 -0.277709 0
M  V30 13995 C 1320.85 2.26296 0.618658 0
M  V30 13996 C 1321.87 1.28978 1.16794 0
M  V30 13997 O 1323.05 1.61918 1.19768 0
M  V30 13998 C 1320.11 2.97214 1.78508 0
M  V30 13999 C 1319.17 4.10016 1.27221 0
M  V30 14000 C 1318.4 4.77543 2.38304 0
M  V30 14001 O 1318.63 4.44293 3.57715 0
M  V30 14002 O 1317.56 5.65437 2.06313 0
M  V30 14003 H 1321.39 3.03671 0.0421031 0
M  V30 14004 H 1318.97 1.49332 -0.0450166 0
M  V30 14005 H 1320.85 3.41773 2.46513 0
M  V30 14006 H 1319.53 2.22753 2.34867 0
M  V30 14007 H 1318.44 3.69907 0.558544 0
M  V30 14008 H 1319.77 4.86385 0.754333 0
M  V30 14009 N 1321.42 0.00503138 1.57599 0
M  V30 14010 C 1322.33 -1.00097 2.12174 0
M  V30 14011 C 1323.35 -1.37353 1.06818 0
M  V30 14012 O 1324.52 -1.45984 1.38747 0
M  V30 14013 C 1321.59 -2.27252 2.61835 0
M  V30 14014 C 1320.65 -1.96262 3.81811 0
M  V30 14015 C 1319.88 -3.17355 4.29094 0
M  V30 14016 O 1320.11 -4.2921 3.75679 0
M  V30 14017 O 1319.04 -3.01059 5.21198 0
M  V30 14018 H 1322.87 -0.567024 2.9836 0
M  V30 14019 H 1320.45 -0.214109 1.47858 0
M  V30 14020 H 1322.33 -3.01944 2.93952 0
M  V30 14021 H 1321.01 -2.69875 1.78744 0
M  V30 14022 H 1319.91 -1.19031 3.54658 0
M  V30 14023 H 1321.25 -1.58473 4.65991 0
M  V30 14024 N 1322.9 -1.55308 -0.267798 0
M  V30 14025 C 1324.32 -1.47264 -0.61526 0
M  V30 14026 C 1324.52 -0.691025 -1.8928 0
M  V30 14027 O 1323.57 -0.211964 -2.51609 0
M  V30 14028 C 1324.88 -2.91519 -0.73739 0
M  V30 14029 C 1326.43 -3.01764 -0.831102 0
M  V30 14030 C 1326.91 -4.47283 -0.984965 0
M  V30 14031 N 1328.4 -4.51134 -1.05036 0
M  V30 14032 C 1329.13 -5.60952 -1.1883 0
M  V30 14033 N 1328.63 -6.80625 -1.29311 0
M  V30 14034 N 1330.42 -5.48705 -1.21982 0
M  V30 14035 H 1322.57 -2.04577 0.57114 0
M  V30 14036 H 1324.84 -0.927908 0.194141 0
M  V30 14037 H 1324.54 -3.51456 0.130974 0
M  V30 14038 H 1324.42 -3.40829 -1.61603 0
M  V30 14039 H 1326.8 -2.4192 -1.68993 0
M  V30 14040 H 1326.88 -2.55698 0.0722509 0
M  V30 14041 H 1326.53 -5.07732 -0.130776 0
M  V30 14042 H 1326.46 -4.91011 -1.90305 0
M  V30 14043 H 1328.95 -3.6493 -0.981551 0
M  V30 14044 H 1329.26 -7.60071 -1.39685 0
M  V30 14045 H 1327.61 -6.83426 -1.26306 0
M  V30 14046 H 1330.8 -4.5415 -1.13428 0
M  V30 14047 H 1330.97 -6.34332 -1.32388 0
M  V30 14048 N 1324.38 0.532545 -1.4833 0
M  V30 14049 C 1325.33 1.65832 -1.63103 0
M  V30 14050 C 1326.32 1.61929 -0.497538 0
M  V30 14051 O 1327.53 1.66817 -0.676176 0
M  V30 14052 H 1323.9 0.549152 -0.513748 0
M  V30 14053 H 1325.87 1.50515 -2.57658 0
M  V30 14054 C 1324.62 3.04113 -1.68555 0
M  V30 14055 H 1323.94 3.07809 -2.55135 0
M  V30 14056 H 1325.38 3.82506 -1.82936 0
M  V30 14057 C 1323.84 3.34225 -0.423711 0
M  V30 14058 O 1324.37 3.99005 0.464523 0
M  V30 14059 N 1322.58 2.89087 -0.296192 0
M  V30 14060 H 1322.13 2.36547 -1.01997 0
M  V30 14061 H 1322.08 3.09604 0.547082 0
M  V30 14062 N 1325.86 1.36875 0.78122 0
M  V30 14063 C 1326.79 1.34559 1.9083 0
M  V30 14064 C 1327.77 0.215713 1.68727 0
M  V30 14065 O 1328.95 0.41462 1.89722 0
M  V30 14066 C 1326.08 1.14233 3.27976 0
M  V30 14067 C 1325.04 2.24132 3.64621 0
M  V30 14068 C 1324.36 1.8894 5.00206 0
M  V30 14069 C 1325.66 3.66266 3.72353 0
M  V30 14070 H 1327.36 2.28871 1.93025 0
M  V30 14071 H 1324.9 1.10171 0.927275 0
M  V30 14072 H 1326.85 1.11246 4.06451 0
M  V30 14073 H 1325.58 0.163747 3.26189 0
M  V30 14074 H 1324.24 2.26259 2.88448 0
M  V30 14075 H 1323.89 0.896351 4.94949 0
M  V30 14076 H 1323.59 2.62525 5.25694 0
M  V30 14077 H 1325.11 1.87523 5.81092 0
M  V30 14078 H 1326.52 3.66321 4.41001 0
M  V30 14079 H 1324.92 4.38825 4.09332 0
M  V30 14080 H 1325.99 4.00578 2.7325 0
M  V30 14081 N 1327.33 -1.00632 1.21289 0
M  V30 14082 C 1328.26 -2.11238 0.995021 0
M  V30 14083 C 1329.24 -1.69914 -0.0795537 0
M  V30 14084 O 1330.43 -1.94035 0.0800152 0
M  V30 14085 C 1327.56 -3.42797 0.557475 0
M  V30 14086 C 1326.51 -3.97909 1.57646 0
M  V30 14087 C 1325.84 -5.25357 0.995197 0
M  V30 14088 C 1327.14 -4.30123 2.96297 0
M  V30 14089 H 1328.83 -2.29722 1.9201 0
M  V30 14090 H 1326.38 -1.10395 0.924602 0
M  V30 14091 H 1328.33 -4.19571 0.392236 0
M  V30 14092 H 1327.06 -3.24101 -0.403253 0
M  V30 14093 H 1325.72 -3.23254 1.72924 0
M  V30 14094 H 1325.36 -5.02993 0.026227 0
M  V30 14095 H 1325.06 -5.63196 1.67583 0
M  V30 14096 H 1326.59 -6.04777 0.841251 0
M  V30 14097 H 1328 -4.97744 2.8447 0
M  V30 14098 H 1326.4 -4.79101 3.61361 0
M  V30 14099 H 1327.47 -3.38454 3.47242 0
M  V30 14100 N 1328.81 -1.02043 -1.20104 0
M  V30 14101 C 1329.76 -0.564679 -2.20897 0
M  V30 14102 C 1330.75 0.382041 -1.56299 0
M  V30 14103 O 1331.94 0.204384 -1.75816 0
M  V30 14104 C 1329.07 0.0917516 -3.43177 0
M  V30 14105 C 1328.15 -0.876903 -4.14935 0
M  V30 14106 N 1328.54 -2.03596 -4.63014 0
M  V30 14107 C 1326.84 -0.698538 -4.40496 0
M  V30 14108 C 1327.54 -2.64621 -5.18026 0
M  V30 14109 N 1326.52 -1.92651 -5.08317 0
M  V30 14110 H 1330.32 -1.44825 -2.5574 0
M  V30 14111 H 1327.83 -0.88628 -1.36084 0
M  V30 14112 H 1329.83 0.43582 -4.14616 0
M  V30 14113 H 1328.49 0.971116 -3.09838 0
M  V30 14114 H 1329.5 -2.41573 -4.58108 0
M  V30 14115 H 1326.18 0.132449 -4.1729 0
M  V30 14116 H 1327.57 -3.62732 -5.65575 0
M  V30 14117 N 1330.29 1.35952 -0.797165 0
M  V30 14118 C 1331.25 2.28266 -0.206748 0
M  V30 14119 C 1332.25 1.49169 0.60043 0
M  V30 14120 O 1333.44 1.69054 0.42029 0
M  V30 14121 C 1330.58 3.33363 0.712884 0
M  V30 14122 H 1331.77 2.81992 -1.02082 0
M  V30 14123 H 1329.32 1.45648 -0.567138 0
M  V30 14124 H 1330.06 2.84806 1.551 0
M  V30 14125 H 1329.84 3.91864 0.135926 0
M  V30 14126 H 1331.33 4.02284 1.1206 0
M  V30 14127 N 1331.77 0.549846 1.47697 0
M  V30 14128 C 1333.05 -0.0422793 1.95554 0
M  V30 14129 C 1333.43 -1.49303 1.49238 0
M  V30 14130 O 1332.77 -2.16598 0.727844 0
M  V30 14131 C 1332.98 0.0955552 3.48869 0
M  V30 14132 C 1334.33 -0.0535698 4.24566 0
M  V30 14133 O 1335.36 0.0227365 3.56193 0
M  V30 14134 O 1334.21 -0.21645 5.46071 0
M  V30 14135 H 1331.31 -0.0682465 0.824179 0
M  V30 14136 H 1333.85 0.615849 1.58131 0
M  V30 14137 H 1332.63 1.10536 3.75363 0
M  V30 14138 H 1332.25 -0.600522 3.93039 0
M  V30 14139 N 1333.25 -1.54984 0.285932 0
M  V30 14140 C 1334.47 -2.04699 -0.333621 0
M  V30 14141 C 1334.9 -1.16252 -1.47875 0
M  V30 14142 O 1334.25 -0.163376 -1.80562 0
M  V30 14143 C 1334.3 -3.52022 -0.78187 0
M  V30 14144 O 1333.41 -3.66639 -1.88812 0
M  V30 14145 H 1332.75 -0.660579 -0.0673203 0
M  V30 14146 H 1335.28 -2.00171 0.423386 0
M  V30 14147 H 1335.29 -3.93591 -1.07473 0
M  V30 14148 H 1333.96 -4.15862 0.055893 0
M  V30 14149 H 1332.54 -3.36974 -1.59696 0
M  V30 14150 N 1334.72 -0.0133892 -1.57594 0
M  V30 14151 C 1335.67 0.991796 -2.10395 0
M  V30 14152 C 1336.67 1.34724 -1.02693 0
M  V30 14153 O 1337.87 1.33131 -1.21145 0
M  V30 14154 H 1334.25 0.337553 -0.671984 0
M  V30 14155 H 1336.22 0.52102 -2.93816 0
M  V30 14156 C 1334.97 2.27039 -2.63341 0
M  V30 14157 H 1334.29 2.00559 -3.45855 0
M  V30 14158 H 1335.73 2.95619 -3.0395 0
M  V30 14159 C 1334.19 2.98939 -1.55362 0
M  V30 14160 O 1334.72 3.90444 -0.944282 0
M  V30 14161 N 1332.93 2.60997 -1.27784 0
M  V30 14162 H 1332.47 1.86666 -1.77521 0
M  V30 14163 H 1332.43 3.09416 -0.557585 0
M  V30 14164 N 1336.2 1.55448 0.259558 0
M  V30 14165 C 1337.45 1.76337 0.987396 0
M  V30 14166 C 1337.77 0.57505 1.86328 0
M  V30 14167 O 1337.04 -0.409621 1.9157 0
M  V30 14168 H 1335.62 0.650312 0.367565 0
M  V30 14169 H 1338.28 1.9287 0.280551 0
M  V30 14170 H 1337.38 2.66975 1.61651 0
M  V30 14171 N 1337.68 -0.524672 1.4861 0
M  V30 14172 C 1338.91 -1.30292 1.60335 0
M  V30 14173 C 1339.32 -1.87338 0.264774 0
M  V30 14174 O 1338.66 -1.67388 -0.756756 0
M  V30 14175 C 1338.72 -2.48809 2.59488 0
M  V30 14176 C 1338.39 -2.12811 4.04426 0
M  V30 14177 C 1339.38 -1.68171 4.9195 0
M  V30 14178 C 1337.07 -2.23171 4.5 0
M  V30 14179 C 1339.06 -1.34363 6.23077 0
M  V30 14180 C 1336.75 -1.88975 5.81147 0
M  V30 14181 C 1337.75 -1.44643 6.67508 0
M  V30 14182 O 1337.44 -1.10898 7.96214 0
M  V30 14183 H 1337.17 -0.402288 0.543268 0
M  V30 14184 H 1339.72 -0.63908 1.95205 0
M  V30 14185 H 1337.95 -3.18192 2.19751 0
M  V30 14186 H 1339.64 -3.10866 2.60992 0
M  V30 14187 H 1340.41 -1.59632 4.57977 0
M  V30 14188 H 1336.29 -2.56632 3.82963 0
M  V30 14189 H 1339.83 -0.996875 6.90441 0
M  V30 14190 H 1335.73 -1.97156 6.14654 0
M  V30 14191 H 1336.5 -1.2425 8.09014 0
M  V30 14192 N 1339.16 -1.37287 -0.77395 0
M  V30 14193 C 1340.39 -1.35563 -1.56302 0
M  V30 14194 C 1340.8 0.0595356 -1.88706 0
M  V30 14195 O 1340.16 1.02072 -1.51286 0
M  V30 14196 C 1340.21 -2.19195 -2.87464 0
M  V30 14197 O 1339.93 -3.55197 -2.5645 0
M  V30 14198 C 1341.43 -2.25425 -3.81704 0
M  V30 14199 H 1338.65 -0.464431 -0.484298 0
M  V30 14200 H 1341.2 -1.80597 -0.959425 0
M  V30 14201 H 1339.35 -1.77676 -3.44253 0
M  V30 14202 H 1339.76 -3.99011 -3.40427 0
M  V30 14203 H 1341.24 -2.8827 -4.70749 0
M  V30 14204 H 1341.72 -1.26205 -4.20677 0
M  V30 14205 H 1342.32 -2.67247 -3.30846 0
M  V30 14206 N 1340.64 0.999871 -1.21821 0
M  V30 14207 C 1341.58 2.10985 -0.979183 0
M  V30 14208 C 1342.58 1.69232 0.0753287 0
M  V30 14209 O 1343.78 1.79837 -0.0765083 0
M  V30 14210 H 1340.16 0.689819 -0.299421 0
M  V30 14211 H 1342.13 2.28322 -1.92124 0
M  V30 14212 C 1340.88 3.43062 -0.56602 0
M  V30 14213 H 1340.2 3.75627 -1.36909 0
M  V30 14214 H 1341.64 4.2173 -0.43813 0
M  V30 14215 C 1340.1 3.29036 0.723647 0
M  V30 14216 O 1340.63 3.60214 1.77788 0
M  V30 14217 N 1338.84 2.82237 0.692126 0
M  V30 14218 H 1338.38 2.57064 -0.166082 0
M  V30 14219 H 1338.34 2.73235 1.55532 0
M  V30 14220 N 1342.11 1.02678 1.19562 0
M  V30 14221 C 1343.04 0.626359 2.24942 0
M  V30 14222 C 1344.03 -0.363612 1.66168 0
M  V30 14223 O 1345.21 -0.246793 1.92625 0
M  V30 14224 C 1342.34 -0.0257912 3.4729 0
M  V30 14225 C 1341.29 0.886237 4.18724 0
M  V30 14226 C 1340.62 0.0993081 5.34608 0
M  V30 14227 C 1341.92 2.19901 4.73752 0
M  V30 14228 H 1343.61 1.50729 2.58691 0
M  V30 14229 H 1341.16 0.726195 1.24348 0
M  V30 14230 H 1343.11 -0.317545 4.20202 0
M  V30 14231 H 1341.84 -0.941511 3.12735 0
M  V30 14232 H 1340.5 1.16215 3.47692 0
M  V30 14233 H 1340.14 -0.81838 4.96298 0
M  V30 14234 H 1339.84 0.706776 5.83334 0
M  V30 14235 H 1341.37 -0.185754 6.10317 0
M  V30 14236 H 1342.78 1.96892 5.3843 0
M  V30 14237 H 1341.18 2.75821 5.32956 0
M  V30 14238 H 1342.25 2.85509 3.91934 0
M  V30 14239 N 1343.59 -1.35528 0.804364 0
M  V30 14240 C 1345 -1.81321 0.444933 0
M  V30 14241 C 1345.35 -1.66816 -1.03281 0
M  V30 14242 O 1344.48 -1.19753 -1.80245 0
M  V30 14243 C 1345.07 -3.29199 0.800827 0
M  V30 14244 C 1343.63 -3.73144 0.494026 0
M  V30 14245 C 1342.78 -2.57557 1.02761 0
M  V30 14246 H 1345.73 -1.23537 0.996203 0
M  V30 14247 H 1345.75 -3.80375 0.0975117 0
M  V30 14248 H 1345.26 -3.39725 1.8764 0
M  V30 14249 H 1343.37 -3.68169 -0.572901 0
M  V30 14250 H 1343.48 -4.68005 1.0251 0
M  V30 14251 H 1341.84 -2.50692 0.450048 0
M  V30 14252 H 1342.63 -2.70861 2.10925 0
M  V30 14253 N 1345.07 -0.557671 -1.47404 0
M  V30 14254 C 1346.35 0.031908 -1.95574 0
M  V30 14255 C 1346.73 1.48509 -1.50027 0
M  V30 14256 O 1346.08 2.16209 -0.73932 0
M  V30 14257 C 1346.29 -0.114055 -3.48814 0
M  V30 14258 C 1347.63 0.0310533 -4.24589 0
M  V30 14259 O 1348.66 -0.041626 -3.56176 0
M  V30 14260 O 1347.52 0.187487 -5.46178 0
M  V30 14261 H 1344.61 0.0638747 -0.82453 0
M  V30 14262 H 1347.16 -0.624227 -1.57802 0
M  V30 14263 H 1345.93 -1.12525 -3.74772 0
M  V30 14264 H 1345.55 0.57967 -3.93352 0
M  V30 14265 N 1346.55 1.54831 -0.294147 0
M  V30 14266 C 1347.8 2.00298 0.317605 0
M  V30 14267 C 1348.13 1.18228 1.54064 0
M  V30 14268 O 1347.4 0.257034 1.92794 0
M  V30 14269 C 1347.69 3.53602 0.680991 0
M  V30 14270 C 1347.54 4.46416 -0.550711 0
M  V30 14271 C 1348.86 4.13379 1.51016 0
M  V30 14272 H 1345.98 0.728135 0.113965 0
M  V30 14273 H 1348.62 1.85636 -0.404883 0
M  V30 14274 H 1346.77 3.66227 1.29654 0
M  V30 14275 H 1348.44 4.45707 -1.18922 0
M  V30 14276 H 1346.68 4.17294 -1.18524 0
M  V30 14277 H 1347.36 5.51423 -0.252412 0
M  V30 14278 H 1349.83 4.04148 0.99012 0
M  V30 14279 H 1348.71 5.20818 1.73321 0
M  V30 14280 H 1348.97 3.64817 2.49722 0
M  V30 14281 N 1348.03 0.0217466 1.57585 0
M  V30 14282 C 1349.27 -0.659463 1.91778 0
M  V30 14283 C 1349.61 -1.72201 0.897801 0
M  V30 14284 O 1348.88 -1.94333 -0.080509 0
M  V30 14285 C 1349.16 -1.28269 3.36481 0
M  V30 14286 C 1349.02 -0.230201 4.49211 0
M  V30 14287 C 1350.34 -2.20279 3.81005 0
M  V30 14288 H 1347.46 -0.238263 0.697424 0
M  V30 14289 H 1350.1 0.0774967 1.89842 0
M  V30 14290 H 1348.25 -1.9108 3.38262 0
M  V30 14291 H 1349.92 0.399901 4.59563 0
M  V30 14292 H 1348.16 0.445157 4.3151 0
M  V30 14293 H 1348.83 -0.705732 5.4747 0
M  V30 14294 H 1351.31 -1.67463 3.80914 0
M  V30 14295 H 1350.19 -2.60842 4.82962 0
M  V30 14296 H 1350.45 -3.09092 3.16093 0
M  V30 14297 N 1349.51 -1.55583 -0.251311 0
M  V30 14298 C 1350.44 -1.86388 -1.33387 0
M  V30 14299 C 1351.45 -0.749829 -1.44504 0
M  V30 14300 O 1352.64 -1.0279 -1.45933 0
M  V30 14301 C 1349.74 -2.0311 -2.71293 0
M  V30 14302 C 1348.91 -3.33937 -2.82498 0
M  V30 14303 C 1347.97 -3.40455 -4.01219 0
M  V30 14304 O 1347 -4.13695 -3.90954 0
M  V30 14305 N 1348.2 -2.69427 -5.14188 0
M  V30 14306 H 1350.96 -2.79834 -1.07298 0
M  V30 14307 H 1348.53 -1.55766 -0.441418 0
M  V30 14308 H 1350.52 -2.04817 -3.49045 0
M  V30 14309 H 1349.09 -1.16429 -2.90109 0
M  V30 14310 H 1348.31 -3.44584 -1.91456 0
M  V30 14311 H 1349.6 -4.20176 -2.86931 0
M  V30 14312 H 1348.99 -2.09647 -5.25419 0
M  V30 14313 H 1347.55 -2.76832 -5.90091 0
M  V30 14314 N 1350.98 0.516783 -1.48886 0
M  V30 14315 C 1352.39 1.09856 -1.50959 0
M  V30 14316 C 1352.75 1.94092 -0.28681 0
M  V30 14317 O 1351.87 2.07774 0.604877 0
M  V30 14318 C 1352.47 1.999 -2.73542 0
M  V30 14319 C 1351.02 2.5327 -2.78444 0
M  V30 14320 C 1350.17 1.30526 -2.44659 0
M  V30 14321 H 1353.12 0.301415 -1.55811 0
M  V30 14322 H 1353.14 2.84373 -2.52809 0
M  V30 14323 H 1352.66 1.38564 -3.62521 0
M  V30 14324 H 1350.76 3.1829 -1.93707 0
M  V30 14325 H 1350.87 2.91502 -3.80215 0
M  V30 14326 H 1349.23 1.62536 -1.96097 0
M  V30 14327 H 1350.02 0.709223 -3.35894 0
M  V30 14328 N 1352.46 1.37696 0.766659 0
M  V30 14329 C 1353.69 1.36564 1.56093 0
M  V30 14330 C 1354.11 -0.0455828 1.88045 0
M  V30 14331 O 1353.47 -1.02405 1.49609 0
M  V30 14332 C 1353.52 2.21592 2.84481 0
M  V30 14333 O 1352.62 1.62404 3.79076 0
M  V30 14334 H 1351.96 0.466394 0.472623 0
M  V30 14335 H 1354.49 1.81287 0.948486 0
M  V30 14336 H 1354.5 2.34987 3.33534 0
M  V30 14337 H 1353.18 3.24167 2.60554 0
M  V30 14338 H 1351.75 1.58078 3.37736 0
M  V30 14339 N 1353.94 -0.993397 1.22349 0
M  V30 14340 C 1354.89 -2.06784 0.960445 0
M  V30 14341 C 1355.87 -1.60655 -0.0887385 0
M  V30 14342 O 1357.07 -1.76581 0.121716 0
M  V30 14343 C 1354.19 -3.39034 0.539552 0
M  V30 14344 C 1353.28 -3.91798 1.62344 0
M  V30 14345 N 1353.67 -4.17791 2.85104 0
M  V30 14346 C 1351.97 -4.20197 1.49501 0
M  V30 14347 C 1352.67 -4.6067 3.55187 0
M  V30 14348 N 1351.65 -4.64333 2.82658 0
M  V30 14349 H 1355.45 -2.24821 1.89295 0
M  V30 14350 H 1352.96 -1.17509 1.12095 0
M  V30 14351 H 1354.96 -4.15573 0.332419 0
M  V30 14352 H 1353.62 -3.22397 -0.38606 0
M  V30 14353 H 1354.63 -4.05999 3.21536 0
M  V30 14354 H 1351.31 -4.12634 0.635546 0
M  V30 14355 H 1352.7 -4.89408 4.60358 0
M  V30 14356 N 1355.42 -1.03311 -1.19015 0
M  V30 14357 C 1356.64 -0.751686 -1.93299 0
M  V30 14358 C 1357.07 0.68392 -1.75226 0
M  V30 14359 O 1356.43 1.47274 -1.05736 0
M  V30 14360 C 1356.47 -1.11335 -3.42982 0
M  V30 14361 O 1355.58 -0.234434 -4.11733 0
M  V30 14362 H 1354.92 -0.277331 -0.60331 0
M  V30 14363 H 1357.45 -1.38092 -1.5097 0
M  V30 14364 H 1357.46 -1.07204 -3.93664 0
M  V30 14365 H 1356.13 -2.15922 -3.55458 0
M  V30 14366 H 1354.71 -0.3347 -3.71395 0
M  V30 14367 N 1356.9 1.35099 -0.81154 0
M  V30 14368 C 1358.31 1.81082 -0.454543 0
M  V30 14369 C 1358.66 1.67361 1.02395 0
M  V30 14370 O 1357.78 1.20707 1.79607 0
M  V30 14371 C 1358.38 3.2877 -0.818274 0
M  V30 14372 C 1356.94 3.72877 -0.513808 0
M  V30 14373 C 1356.08 2.57008 -1.04125 0
M  V30 14374 H 1359.03 1.23007 -1.00274 0
M  V30 14375 H 1359.06 3.80318 -0.117683 0
M  V30 14376 H 1358.57 3.38725 -1.89439 0
M  V30 14377 H 1356.67 3.68468 0.553368 0
M  V30 14378 H 1356.78 4.67455 -1.0499 0
M  V30 14379 H 1355.15 2.5045 -0.463337 0
M  V30 14380 H 1355.93 2.69738 -2.12358 0
M  V30 14381 N 1358.37 0.56548 1.47106 0
M  V30 14382 C 1359.6 0.0496298 2.0684 0
M  V30 14383 C 1360.02 -1.24777 1.4169 0
M  V30 14384 O 1359.37 -1.75046 0.516239 0
M  V30 14385 C 1359.42 -0.140987 3.61225 0
M  V30 14386 O 1359.15 1.10504 4.23934 0
M  V30 14387 C 1360.65 -0.693171 4.37847 0
M  V30 14388 H 1357.87 0.0496018 0.669164 0
M  V30 14389 H 1360.41 0.781247 1.88989 0
M  V30 14390 H 1358.57 -0.822762 3.78562 0
M  V30 14391 H 1358.98 0.907978 5.16581 0
M  V30 14392 H 1360.45 -0.7758 5.46521 0
M  V30 14393 H 1360.93 -1.70632 4.04699 0
M  V30 14394 H 1361.54 -0.046826 4.25274 0
M  V30 14395 N 1359.85 -1.54672 0.302354 0
M  V30 14396 C 1360.76 -2.27251 -0.582578 0
M  V30 14397 C 1361.78 -1.30819 -1.14727 0
M  V30 14398 O 1362.95 -1.63803 -1.17177 0
M  V30 14399 C 1360.02 -3.00016 -1.73757 0
M  V30 14400 C 1359.08 -4.11988 -1.20682 0
M  V30 14401 C 1358.31 -4.81273 -2.30676 0
M  V30 14402 O 1358.54 -4.49927 -3.50602 0
M  V30 14403 O 1357.47 -5.68647 -1.97291 0
M  V30 14404 H 1361.3 -3.03699 0.00621365 0
M  V30 14405 H 1358.88 -1.49242 0.0687684 0
M  V30 14406 H 1360.76 -3.45652 -2.41045 0
M  V30 14407 H 1359.44 -2.26462 -2.31294 0
M  V30 14408 H 1358.35 -3.70749 -0.499625 0
M  V30 14409 H 1359.68 -4.87524 -0.676858 0
M  V30 14410 N 1361.33 -0.0301034 -1.57571 0
M  V30 14411 C 1362.28 0.969425 -2.11435 0
M  V30 14412 C 1363.27 1.33627 -1.04116 0
M  V30 14413 O 1364.48 1.31839 -1.2255 0
M  V30 14414 H 1360.85 0.330407 -0.675526 0
M  V30 14415 H 1362.82 0.489828 -2.94352 0
M  V30 14416 C 1361.57 2.24233 -2.65734 0
M  V30 14417 H 1360.9 1.9688 -3.47963 0
M  V30 14418 H 1362.34 2.92378 -3.07068 0
M  V30 14419 C 1360.8 2.97274 -1.58524 0
M  V30 14420 O 1361.33 3.8942 -0.985641 0
M  V30 14421 N 1359.53 2.59627 -1.30545 0
M  V30 14422 H 1359.08 1.84773 -1.79491 0
M  V30 14423 H 1359.04 3.08807 -0.590372 0
M  V30 14424 N 1362.81 1.55714 0.243056 0
M  V30 14425 C 1364.03 1.82126 0.992219 0
M  V30 14426 C 1364.46 0.607665 1.78014 0
M  V30 14427 O 1363.82 -0.443351 1.75796 0
M  V30 14428 C 1363.86 3.06314 1.90274 0
M  V30 14429 O 1362.97 2.83499 2.99503 0
M  V30 14430 H 1362.31 0.601082 0.282128 0
M  V30 14431 H 1364.84 2.02904 0.262881 0
M  V30 14432 H 1364.85 3.35849 2.31666 0
M  V30 14433 H 1363.52 3.94282 1.32344 0
M  V30 14434 H 1362.1 2.65141 2.62211 0
M  V30 14435 N 1364.29 -0.50888 1.49158 0
M  V30 14436 C 1365.23 -1.61129 1.65246 0
M  V30 14437 C 1366.2 -1.58582 0.49405 0
M  V30 14438 O 1367.39 -1.76689 0.720122 0
M  V30 14439 C 1364.53 -2.99311 1.71776 0
M  V30 14440 C 1363.64 -3.11933 2.98868 0
M  V30 14441 C 1362.78 -4.408 2.96426 0
M  V30 14442 C 1361.82 -4.47027 4.18131 0
M  V30 14443 N 1360.95 -5.67311 4.13645 0
M  V30 14444 H 1365.79 -1.4672 2.59379 0
M  V30 14445 H 1363.33 -0.713978 1.28611 0
M  V30 14446 H 1365.29 -3.79392 1.73543 0
M  V30 14447 H 1363.92 -3.12442 0.811159 0
M  V30 14448 H 1362.97 -2.24966 3.06748 0
M  V30 14449 H 1364.28 -3.12393 3.8886 0
M  V30 14450 H 1363.44 -5.29194 2.96712 0
M  V30 14451 H 1362.17 -4.42893 2.04199 0
M  V30 14452 H 1361.18 -3.57036 4.18097 0
M  V30 14453 H 1362.4 -4.46656 5.11542 0
M  V30 14454 H 1360.35 -5.70261 3.2425 0
M  V30 14455 H 1360.27 -5.69355 4.97364 0
M  V30 14456 H 1361.54 -6.57934 4.18022 0
M  V30 14457 N 1365.76 -1.381 -0.759346 0
M  V30 14458 C 1367.01 -1.33727 -1.5153 0
M  V30 14459 C 1367.33 0.0739504 -1.9486 0
M  V30 14460 O 1366.6 1.02049 -1.67221 0
M  V30 14461 H 1365.18 -0.492037 -0.562058 0
M  V30 14462 H 1367.85 -1.72719 -0.902995 0
M  V30 14463 H 1366.94 -1.98439 -2.40891 0
M  V30 14464 N 1367.24 0.986894 -1.22875 0
M  V30 14465 C 1368.17 2.08035 -0.961971 0
M  V30 14466 C 1369.19 1.62683 0.0616475 0
M  V30 14467 O 1370.38 1.77659 -0.173094 0
M  V30 14468 C 1367.48 3.36208 -0.426302 0
M  V30 14469 C 1366.65 4.10562 -1.50856 0
M  V30 14470 C 1365.71 5.17014 -0.97891 0
M  V30 14471 O 1364.73 5.44259 -1.66645 0
M  V30 14472 N 1365.94 5.80167 0.196613 0
M  V30 14473 H 1368.7 2.315 -1.90336 0
M  V30 14474 H 1366.26 1.1531 -1.13645 0
M  V30 14475 H 1368.25 4.0466 -0.0571577 0
M  V30 14476 H 1366.82 3.09761 0.420345 0
M  V30 14477 H 1366.04 3.36656 -2.05076 0
M  V30 14478 H 1367.33 4.57007 -2.23655 0
M  V30 14479 H 1366.73 5.60409 0.771892 0
M  V30 14480 H 1365.29 6.49825 0.507083 0
M  V30 14481 N 1368.72 1.0394 1.18466 0
M  V30 14482 C 1369.95 0.761926 1.92897 0
M  V30 14483 C 1370.37 -0.674618 1.75586 0
M  V30 14484 O 1369.73 -1.46711 1.06515 0
M  V30 14485 C 1369.78 1.13152 3.42387 0
M  V30 14486 O 1368.88 0.256266 4.11603 0
M  V30 14487 H 1368.22 0.280527 0.601831 0
M  V30 14488 H 1370.75 1.3889 1.50235 0
M  V30 14489 H 1370.76 1.0929 3.9309 0
M  V30 14490 H 1369.44 2.17804 3.54308 0
M  V30 14491 H 1368.01 0.354392 3.71212 0
M  V30 14492 N 1370.2 -1.34667 0.818693 0
M  V30 14493 C 1371.61 -1.80839 0.46414 0
M  V30 14494 C 1371.96 -1.67902 -1.01506 0
M  V30 14495 O 1371.09 -1.21658 -1.78964 0
M  V30 14496 C 1371.68 -3.28331 0.835698 0
M  V30 14497 C 1370.24 -3.72599 0.533575 0
M  V30 14498 C 1369.39 -2.56452 1.05487 0
M  V30 14499 H 1372.34 -1.22474 1.00925 0
M  V30 14500 H 1372.36 -3.8025 0.13785 0
M  V30 14501 H 1371.87 -3.37715 1.91233 0
M  V30 14502 H 1369.97 -3.68756 -0.533819 0
M  V30 14503 H 1370.08 -4.66891 1.07468 0
M  V30 14504 H 1368.45 -2.50201 0.476612 0
M  V30 14505 H 1369.23 -2.68608 2.13786 0
M  V30 14506 N 1371.68 -0.573274 -1.46804 0
M  V30 14507 C 1373.09 -0.144162 -1.86143 0
M  V30 14508 C 1373.44 1.29033 -1.47801 0
M  V30 14509 O 1372.56 1.97319 -0.888494 0
M  V30 14510 C 1373.16 -0.254851 -3.3784 0
M  V30 14511 C 1371.72 0.119325 -3.76211 0
M  V30 14512 C 1370.86 -0.595115 -2.70839 0
M  V30 14513 H 1373.82 -0.782057 -1.38093 0
M  V30 14514 H 1373.84 0.522321 -3.76898 0
M  V30 14515 H 1373.35 -1.29899 -3.65715 0
M  V30 14516 H 1371.45 1.16396 -3.53953 0
M  V30 14517 H 1371.56 -0.250421 -4.78445 0
M  V30 14518 H 1369.93 -0.0364028 -2.54674 0
M  V30 14519 H 1370.71 -1.64072 -3.01555 0
M  V30 14520 N 1373.15 1.5451 -0.310553 0
M  V30 14521 C 1374.38 2.05204 0.301013 0
M  V30 14522 C 1374.8 1.1859 1.46007 0
M  V30 14523 O 1374.16 0.192081 1.8028 0
M  V30 14524 C 1374.21 3.53221 0.725767 0
M  V30 14525 O 1373.31 3.69596 1.82955 0
M  V30 14526 H 1372.66 0.661566 0.0568026 0
M  V30 14527 H 1375.19 1.99473 -0.455178 0
M  V30 14528 H 1375.2 3.9525 1.01198 0
M  V30 14529 H 1373.87 4.15721 -0.122046 0
M  V30 14530 H 1372.45 3.39472 1.54315 0
M  V30 14531 N 1374.63 0.0384594 1.57553 0
M  V30 14532 C 1375.58 -0.940256 2.10779 0
M  V30 14533 C 1376.55 -1.31705 1.01208 0
M  V30 14534 O 1377.74 -1.40874 1.28683 0
M  V30 14535 C 1374.88 -2.21419 2.64703 0
M  V30 14536 C 1373.99 -1.89302 3.88315 0
M  V30 14537 C 1373.12 -3.1106 4.30599 0
M  V30 14538 C 1372.16 -2.74805 5.46945 0
M  V30 14539 N 1371.3 -3.89217 5.84341 0
M  V30 14540 H 1376.14 -0.479458 2.94118 0
M  V30 14541 H 1373.68 -0.22505 1.45368 0
M  V30 14542 H 1375.63 -2.95946 2.94061 0
M  V30 14543 H 1374.26 -2.65099 1.84181 0
M  V30 14544 H 1373.32 -1.04977 3.65628 0
M  V30 14545 H 1374.63 -1.58607 4.72912 0
M  V30 14546 H 1373.78 -3.93898 4.61442 0
M  V30 14547 H 1372.52 -3.44924 3.44788 0
M  V30 14548 H 1371.53 -1.9038 5.15786 0
M  V30 14549 H 1372.75 -2.42147 6.34462 0
M  V30 14550 H 1370.7 -4.22905 5.01485 0
M  V30 14551 H 1370.61 -3.62177 6.63599 0
M  V30 14552 H 1371.88 -4.72732 6.19794 0
M  V30 14553 N 1376.11 -1.55841 -0.234795 0
M  V30 14554 C 1377.39 -1.69008 -0.984665 0
M  V30 14555 C 1377.77 -0.581882 -2.02922 0
M  V30 14556 O 1377.12 0.412998 -2.24737 0
M  V30 14557 C 1377.33 -3.09796 -1.60708 0
M  V30 14558 C 1378.67 -3.68784 -2.10436 0
M  V30 14559 O 1379.7 -3.12674 -1.70627 0
M  V30 14560 O 1378.56 -4.67175 -2.83567 0
M  V30 14561 H 1375.65 -0.68786 -0.459105 0
M  V30 14562 H 1378.2 -1.68166 -0.227623 0
M  V30 14563 H 1376.97 -3.81908 -0.852169 0
M  V30 14564 H 1376.59 -3.147 -2.43001 0
M  V30 14565 N 1377.59 0.500963 -1.49426 0
M  V30 14566 C 1378.84 1.25261 -1.58601 0
M  V30 14567 C 1379.16 1.93056 -0.274647 0
M  V30 14568 O 1378.43 1.82736 0.706003 0
M  V30 14569 H 1377.01 0.465328 -0.584362 0
M  V30 14570 H 1379.67 0.580588 -1.86052 0
M  V30 14571 H 1378.77 2.01652 -2.38208 0
M  V30 14572 N 1379.07 1.38501 0.752011 0
M  V30 14573 C 1380.29 1.38212 1.54636 0
M  V30 14574 C 1380.72 -0.0256356 1.88083 0
M  V30 14575 O 1380.08 -1.00812 1.50687 0
M  V30 14576 C 1380.12 2.24597 2.82114 0
M  V30 14577 O 1379.23 1.66415 3.77332 0
M  V30 14578 H 1378.57 0.47138 0.46765 0
M  V30 14579 H 1381.1 1.82283 0.929205 0
M  V30 14580 H 1381.11 2.38511 3.31023 0
M  V30 14581 H 1379.78 3.26913 2.57101 0
M  V30 14582 H 1378.36 1.61651 3.36041 0
M  V30 14583 N 1380.55 -0.980364 1.23396 0
M  V30 14584 C 1381.79 -1.71826 1.06397 0
M  V30 14585 C 1382.11 -1.90854 -0.399958 0
M  V30 14586 O 1381.38 -1.47721 -1.28668 0
M  V30 14587 H 1379.96 -0.636669 0.390719 0
M  V30 14588 H 1382.63 -1.18008 1.55113 0
M  V30 14589 H 1381.72 -2.7078 1.55192 0
M  V30 14590 N 1382.02 -1.04567 -1.17913 0
M  V30 14591 C 1383.3 -0.666082 -1.8391 0
M  V30 14592 C 1383.68 0.854062 -1.93052 0
M  V30 14593 O 1383.03 1.75752 -1.46026 0
M  V30 14594 C 1383.24 -1.34776 -3.21926 0
M  V30 14595 C 1384.59 -1.48177 -3.97905 0
M  V30 14596 O 1385.61 -1.30627 -3.31384 0
M  V30 14597 O 1384.47 -1.76822 -5.17104 0
M  V30 14598 H 1381.56 -0.233694 -0.793294 0
M  V30 14599 H 1384.11 -1.14487 -1.25263 0
M  V30 14600 H 1382.88 -2.38514 -3.10204 0
M  V30 14601 H 1382.5 -0.857914 -3.88234 0
M  V30 14602 N 1383.5 1.34231 -0.825823 0
M  V30 14603 C 1384.73 2.02124 -0.427727 0
M  V30 14604 C 1385.14 1.62331 0.971869 0
M  V30 14605 O 1384.48 0.825946 1.64085 0
M  V30 14606 C 1384.54 3.56626 -0.453698 0
M  V30 14607 C 1384.21 4.19752 -1.80713 0
M  V30 14608 C 1385.21 4.40062 -2.76842 0
M  V30 14609 C 1382.89 4.5646 -2.09641 0
M  V30 14610 C 1384.88 4.9621 -4.00069 0
M  V30 14611 C 1382.57 5.12318 -3.33127 0
M  V30 14612 C 1383.57 5.32137 -4.28158 0
M  V30 14613 O 1383.26 5.86811 -5.49462 0
M  V30 14614 H 1382.99 0.654389 -0.169563 0
M  V30 14615 H 1385.54 1.72421 -1.11624 0
M  V30 14616 H 1383.77 3.856 0.291527 0
M  V30 14617 H 1385.46 4.0583 -0.075249 0
M  V30 14618 H 1386.23 4.12064 -2.5579 0
M  V30 14619 H 1382.11 4.40337 -1.36473 0
M  V30 14620 H 1385.65 5.11594 -4.74254 0
M  V30 14621 H 1381.55 5.39746 -3.54041 0
M  V30 14622 H 1382.32 6.05242 -5.51022 0
M  V30 14623 N 1384.98 0.581051 1.46498 0
M  V30 14624 C 1385.91 -0.19094 2.28403 0
M  V30 14625 C 1386.92 -0.857039 1.38415 0
M  V30 14626 O 1388.11 -0.726881 1.6303 0
M  V30 14627 C 1385.21 -1.28972 3.134 0
M  V30 14628 C 1384.39 -0.715867 4.31502 0
M  V30 14629 C 1383.45 -1.70215 4.97909 0
M  V30 14630 O 1382.47 -1.23885 5.55555 0
M  V30 14631 N 1383.67 -3.0362 4.94768 0
M  V30 14632 H 1386.44 0.511754 2.95298 0
M  V30 14633 H 1384 0.41871 1.56392 0
M  V30 14634 H 1385.99 -1.94877 3.5469 0
M  V30 14635 H 1384.56 -1.8953 2.4859 0
M  V30 14636 H 1383.78 0.120591 3.94016 0
M  V30 14637 H 1385.07 -0.312226 5.07841 0
M  V30 14638 H 1384.47 -3.43885 4.49177 0
M  V30 14639 H 1383.02 -3.65018 5.40005 0
M  V30 14640 N 1386.46 -1.54343 0.318742 0
M  V30 14641 C 1387.68 -2.05361 -0.290126 0
M  V30 14642 C 1388.11 -1.19362 -1.45376 0
M  V30 14643 O 1387.47 -0.201639 -1.80175 0
M  V30 14644 C 1387.51 -3.53601 -0.707025 0
M  V30 14645 O 1386.62 -3.70561 -1.80992 0
M  V30 14646 H 1385.96 -0.661858 -0.0532933 0
M  V30 14647 H 1388.49 -1.99228 0.46575 0
M  V30 14648 H 1388.5 -3.95782 -0.991005 0
M  V30 14649 H 1387.17 -4.1565 0.144091 0
M  V30 14650 H 1385.75 -3.40286 -1.52513 0
M  V30 14651 N 1387.94 -0.0468143 -1.5753 0
M  V30 14652 C 1389.35 0.309707 -1.56566 0
M  V30 14653 C 1389.55 1.7173 -1.05408 0
M  V30 14654 O 1388.61 2.4235 -0.708723 0
M  V30 14655 C 1389.92 0.142151 -3.00364 0
M  V30 14656 C 1391.47 0.213585 -3.1227 0
M  V30 14657 C 1391.94 0.0746102 -4.57939 0
M  V30 14658 N 1393.43 0.131027 -4.63015 0
M  V30 14659 C 1394.17 0.0475409 -5.7338 0
M  V30 14660 N 1393.67 -0.0880445 -6.92744 0
M  V30 14661 N 1395.46 0.102809 -5.62006 0
M  V30 14662 H 1387.61 -0.967057 -1.89108 0
M  V30 14663 H 1389.87 -0.375018 -0.870669 0
M  V30 14664 H 1389.58 -0.828171 -3.4181 0
M  V30 14665 H 1389.45 0.905006 -3.66182 0
M  V30 14666 H 1391.84 1.17438 -2.70726 0
M  V30 14667 H 1391.92 -0.57995 -2.49139 0
M  V30 14668 H 1391.56 -0.882839 -5.00168 0
M  V30 14669 H 1391.49 0.887235 -5.19072 0
M  V30 14670 H 1393.99 0.235246 -3.77167 0
M  V30 14671 H 1394.3 -0.144574 -7.72665 0
M  V30 14672 H 1392.64 -0.12307 -6.94891 0
M  V30 14673 H 1395.83 0.207259 -4.67641 0
M  V30 14674 H 1396.01 0.0342865 -6.47991 0
M  V30 14675 N 1389.41 1.55964 0.226527 0
M  V30 14676 C 1390.66 1.78392 0.94977 0
M  V30 14677 C 1390.98 0.614444 1.85066 0
M  V30 14678 O 1390.25 -0.368894 1.92395 0
M  V30 14679 H 1388.83 0.657962 0.353688 0
M  V30 14680 H 1391.5 1.93422 0.239577 0
M  V30 14681 H 1390.59 2.70343 1.55952 0
M  V30 14682 N 1390.89 -0.493031 1.4969 0
M  V30 14683 C 1391.82 -1.60215 1.69863 0
M  V30 14684 C 1392.8 -1.61053 0.547362 0
M  V30 14685 O 1393.99 -1.77667 0.784093 0
M  V30 14686 C 1391.12 -2.98662 1.77252 0
M  V30 14687 C 1390.07 -3.1269 2.92248 0
M  V30 14688 C 1389.4 -4.52567 2.84758 0
M  V30 14689 C 1390.7 -2.91965 4.33074 0
M  V30 14690 H 1392.39 -1.43587 2.62723 0
M  V30 14691 H 1389.94 -0.689334 1.26429 0
M  V30 14692 H 1391.89 -3.7616 1.89951 0
M  V30 14693 H 1390.62 -3.16397 0.809976 0
M  V30 14694 H 1389.27 -2.37619 2.79164 0
M  V30 14695 H 1388.92 -4.6719 1.86394 0
M  V30 14696 H 1388.62 -4.62893 3.61944 0
M  V30 14697 H 1390.15 -5.32116 2.99475 0
M  V30 14698 H 1391.56 -3.59228 4.46798 0
M  V30 14699 H 1389.96 -3.13756 5.11544 0
M  V30 14700 H 1391.03 -1.88015 4.46966 0
M  V30 14701 N 1392.37 -1.38898 -0.744656 0
M  V30 14702 C 1393.62 -1.35795 -1.50623 0
M  V30 14703 C 1393.95 0.0491775 -1.94138 0
M  V30 14704 O 1393.22 1.01219 -1.66087 0
M  V30 14705 C 1393.51 -2.32168 -2.75263 0
M  V30 14706 C 1393.36 -3.81781 -2.3783 0
M  V30 14707 C 1394.68 -2.26526 -3.77325 0
M  V30 14708 H 1391.8 -0.494591 -0.546396 0
M  V30 14709 H 1394.44 -1.69816 -0.852211 0
M  V30 14710 H 1392.59 -2.03287 -3.31069 0
M  V30 14711 H 1394.26 -4.21373 -1.8773 0
M  V30 14712 H 1392.51 -3.99027 -1.70176 0
M  V30 14713 H 1393.18 -4.44687 -3.27044 0
M  V30 14714 H 1395.65 -2.52041 -3.31081 0
M  V30 14715 H 1394.53 -2.96053 -4.62216 0
M  V30 14716 H 1394.79 -1.26705 -4.23554 0
M  V30 14717 N 1393.85 0.973806 -1.23914 0
M  V30 14718 C 1394.8 2.06734 -1.02614 0
M  V30 14719 C 1395.77 1.65997 0.0585705 0
M  V30 14720 O 1396.95 1.90564 -0.0948467 0
M  V30 14721 C 1394.09 3.39292 -0.630493 0
M  V30 14722 C 1393.2 3.9326 -1.78803 0
M  V30 14723 C 1392.34 5.14059 -1.33854 0
M  V30 14724 C 1391.38 5.60209 -2.46642 0
M  V30 14725 N 1390.51 6.72232 -2.02603 0
M  V30 14726 H 1395.35 2.24287 -1.96212 0
M  V30 14727 H 1392.89 1.09935 -0.977376 0
M  V30 14728 H 1394.85 4.15446 -0.382163 0
M  V30 14729 H 1393.48 3.21682 0.268483 0
M  V30 14730 H 1392.53 3.13801 -2.15019 0
M  V30 14731 H 1393.84 4.23475 -2.63573 0
M  V30 14732 H 1393 5.97567 -1.04873 0
M  V30 14733 H 1391.74 4.85513 -0.46131 0
M  V30 14734 H 1390.74 4.75278 -2.7639 0
M  V30 14735 H 1391.97 5.90771 -3.34912 0
M  V30 14736 H 1389.91 6.45433 -1.17269 0
M  V30 14737 H 1389.83 7.01865 -2.80929 0
M  V30 14738 H 1391.1 7.59198 -1.76745 0
M  V30 14739 N 1395.33 1.05191 1.17357 0
M  V30 14740 C 1396.29 0.65713 2.19578 0
M  V30 14741 C 1397.29 -0.29138 1.58138 0
M  V30 14742 O 1398.48 -0.075254 1.74037 0
M  V30 14743 C 1395.61 -0.0348162 3.40882 0
M  V30 14744 H 1396.8 1.56188 2.56018 0
M  V30 14745 H 1394.36 0.845795 1.31438 0
M  V30 14746 H 1395.09 -0.952835 3.09986 0
M  V30 14747 H 1394.88 0.647076 3.86724 0
M  V30 14748 H 1396.37 -0.297135 4.16542 0
M  V30 14749 N 1396.8 -1.33791 0.83293 0
M  V30 14750 C 1398.22 -1.80336 0.483294 0
M  V30 14751 C 1398.57 -1.68969 -0.997195 0
M  V30 14752 O 1397.69 -1.23549 -1.77664 0
M  V30 14753 C 1398.29 -3.27427 0.870475 0
M  V30 14754 C 1396.85 -3.72012 0.573064 0
M  V30 14755 C 1395.99 -2.55319 1.08201 0
M  V30 14756 H 1398.94 -1.21396 1.02218 0
M  V30 14757 H 1398.96 -3.80083 0.178173 0
M  V30 14758 H 1398.48 -3.35668 1.94804 0
M  V30 14759 H 1396.58 -3.69302 -0.494678 0
M  V30 14760 H 1396.69 -4.65725 1.12414 0
M  V30 14761 H 1395.05 -2.49681 0.503123 0
M  V30 14762 H 1395.84 -2.66326 2.16623 0
M  V30 14763 N 1398.28 -0.588812 -1.46187 0
M  V30 14764 C 1399.53 -0.0765765 -2.01955 0
M  V30 14765 C 1399.85 1.29034 -1.46203 0
M  V30 14766 O 1399.12 1.84836 -0.649044 0
M  V30 14767 H 1397.7 -0.025318 -0.746571 0
M  V30 14768 H 1400.36 -0.765971 -1.79217 0
M  V30 14769 H 1399.46 -0.0121702 -3.12098 0
M  V30 14770 N 1399.76 1.54172 -0.326923 0
M  V30 14771 C 1400.71 2.24454 0.537501 0
M  V30 14772 C 1401.68 1.23658 1.10896 0
M  V30 14773 O 1402.86 1.52348 1.14868 0
M  V30 14774 C 1400 3.00839 1.69085 0
M  V30 14775 C 1399.12 4.16459 1.1483 0
M  V30 14776 C 1398.25 4.80368 2.26761 0
M  V30 14777 C 1397.29 5.88085 1.69771 0
M  V30 14778 N 1396.43 6.45842 2.75378 0
M  V30 14779 H 1401.27 2.97921 -0.0684022 0
M  V30 14780 H 1398.8 1.4703 -0.0455287 0
M  V30 14781 H 1400.76 3.43375 2.36959 0
M  V30 14782 H 1399.39 2.297 2.26799 0
M  V30 14783 H 1398.44 3.78683 0.361004 0
M  V30 14784 H 1399.76 4.93986 0.69132 0
M  V30 14785 H 1398.91 5.25889 3.02533 0
M  V30 14786 H 1397.65 4.02228 2.75796 0
M  V30 14787 H 1396.65 5.41963 0.924985 0
M  V30 14788 H 1397.88 6.68123 1.21609 0
M  V30 14789 H 1395.82 5.70574 3.23699 0
M  V30 14790 H 1395.74 7.18792 2.34253 0
M  V30 14791 H 1397.01 6.96018 3.50969 0
M  V30 14792 N 1401.24 0.0551678 1.57503 0
M  V30 14793 C 1402.46 -0.630692 1.97578 0
M  V30 14794 C 1402.89 -1.63348 0.932686 0
M  V30 14795 O 1402.25 -1.81004 -0.103632 0
M  V30 14796 C 1402.29 -1.29049 3.36718 0
M  V30 14797 O 1401.4 -2.40621 3.34926 0
M  V30 14798 H 1400.74 -0.163625 0.643524 0
M  V30 14799 H 1403.27 0.124753 2.04219 0
M  V30 14800 H 1403.28 -1.64124 3.73534 0
M  V30 14801 H 1401.95 -0.55559 4.12172 0
M  V30 14802 H 1400.53 -2.07463 3.0986 0
M  V30 14803 N 1402.72 -1.56081 -0.218252 0
M  V30 14804 C 1403.94 -1.83681 -0.963119 0
M  V30 14805 C 1404.37 -0.635909 -1.77025 0
M  V30 14806 O 1403.72 0.415327 -1.76479 0
M  V30 14807 C 1403.77 -3.09302 -1.85376 0
M  V30 14808 O 1402.88 -2.88228 -2.94955 0
M  V30 14809 H 1402.22 -0.605495 -0.272529 0
M  V30 14810 H 1404.75 -2.03297 -0.230567 0
M  V30 14811 H 1404.76 -3.39493 -2.26294 0
M  V30 14812 H 1403.43 -3.96337 -1.26054 0
M  V30 14813 H 1402.01 -2.69279 -2.57959 0
M  V30 14814 N 1404.2 0.485086 -1.49949 0
M  V30 14815 C 1405.44 1.23816 -1.60237 0
M  V30 14816 C 1405.77 1.9223 -0.296274 0
M  V30 14817 O 1405.03 1.82095 0.716939 0
M  V30 14818 C 1405.32 2.31573 -2.72229 0
M  V30 14819 C 1404.99 1.80508 -4.13192 0
M  V30 14820 C 1403.65 1.66301 -4.5155 0
M  V30 14821 C 1406 1.42471 -5.0135 0
M  V30 14822 C 1403.33 1.1246 -5.75821 0
M  V30 14823 C 1405.68 0.900757 -6.26154 0
M  V30 14824 C 1404.35 0.74521 -6.63327 0
M  V30 14825 H 1403.62 0.453075 -0.586348 0
M  V30 14826 H 1406.27 0.536349 -1.83836 0
M  V30 14827 H 1404.57 3.07606 -2.42663 0
M  V30 14828 H 1406.27 2.89574 -2.77395 0
M  V30 14829 H 1402.86 1.92529 -3.82924 0
M  V30 14830 H 1407.04 1.52287 -4.72358 0
M  V30 14831 H 1402.3 0.991422 -6.03308 0
M  V30 14832 H 1406.47 0.5973 -6.93834 0
M  V30 14833 H 1404.1 0.325838 -7.59501 0
M  V30 14834 N 1405.67 1.39291 0.737279 0
M  V30 14835 C 1406.9 1.39659 1.52653 0
M  V30 14836 C 1407.32 -0.00948259 1.88798 0
M  V30 14837 O 1406.67 -0.980249 1.53939 0
M  V30 14838 C 1406.72 2.2674 2.81552 0
M  V30 14839 O 1406.45 3.61871 2.46943 0
M  V30 14840 C 1407.95 2.35466 3.75594 0
M  V30 14841 H 1405.17 0.477108 0.471814 0
M  V30 14842 H 1407.71 1.83077 0.911205 0
M  V30 14843 H 1405.87 1.86741 3.39421 0
M  V30 14844 H 1406.28 4.07897 3.29728 0
M  V30 14845 H 1407.75 3.00649 4.62941 0
M  V30 14846 H 1408.23 1.37314 4.17183 0
M  V30 14847 H 1408.84 2.75925 3.23644 0
M  V30 14848 N 1407.15 -0.967221 1.24429 0
M  V30 14849 C 1408.08 -2.06071 0.980314 0
M  V30 14850 C 1409.06 -1.62372 -0.0860829 0
M  V30 14851 O 1410.25 -1.88431 0.0509524 0
M  V30 14852 C 1407.37 -3.35289 0.479452 0
M  V30 14853 C 1406.42 -3.9794 1.53447 0
M  V30 14854 S 1407.25 -4.3551 3.11595 0
M  V30 14855 C 1408.41 -5.67865 2.63212 0
M  V30 14856 H 1408.64 -2.28145 1.90623 0
M  V30 14857 H 1406.17 -1.10519 1.07819 0
M  V30 14858 H 1408.13 -4.10027 0.197103 0
M  V30 14859 H 1406.79 -3.11201 -0.425755 0
M  V30 14860 H 1405.99 -4.91067 1.13445 0
M  V30 14861 H 1405.59 -3.29634 1.76685 0
M  V30 14862 H 1407.88 -6.45405 2.06054 0
M  V30 14863 H 1408.82 -6.12724 3.5493 0
M  V30 14864 H 1409.23 -5.26496 2.03623 0
M  V30 14865 N 1408.63 -1.05812 -1.16797 0
M  V30 14866 C 1409.88 -0.771923 -1.8721 0
M  V30 14867 C 1410.2 0.701365 -1.81414 0
M  V30 14868 O 1409.46 1.5292 -1.22122 0
M  V30 14869 C 1409.76 -1.20565 -3.3645 0
M  V30 14870 C 1409.42 -2.68222 -3.62447 0
M  V30 14871 C 1408.09 -3.08556 -3.69251 0
M  V30 14872 C 1410.44 -3.63607 -3.73416 0
M  V30 14873 C 1407.77 -4.43126 -3.84521 0
M  V30 14874 C 1410.12 -4.97918 -3.90205 0
M  V30 14875 C 1408.78 -5.37897 -3.9525 0
M  V30 14876 H 1408.05 -0.282467 -0.68505 0
M  V30 14877 H 1410.7 -1.32633 -1.38133 0
M  V30 14878 H 1409 -0.570347 -3.87626 0
M  V30 14879 H 1410.7 -0.961326 -3.89306 0
M  V30 14880 H 1407.29 -2.3599 -3.5778 0
M  V30 14881 H 1411.48 -3.33581 -3.67474 0
M  V30 14882 H 1406.73 -4.73593 -3.86677 0
M  V30 14883 H 1410.91 -5.71716 -3.97635 0
M  V30 14884 H 1408.53 -6.42176 -4.06834 0
M  V30 14885 N 1410.11 1.33347 -0.840014 0
M  V30 14886 C 1411.35 1.98037 -0.43692 0
M  V30 14887 C 1411.69 1.66382 1.00154 0
M  V30 14888 O 1410.96 0.944311 1.70038 0
M  V30 14889 C 1411.24 3.54012 -0.65937 0
M  V30 14890 C 1411.1 3.9535 -2.14518 0
M  V30 14891 C 1412.42 4.39972 -0.106258 0
M  V30 14892 H 1409.54 0.719373 -0.160221 0
M  V30 14893 H 1412.18 1.57969 -1.05574 0
M  V30 14894 H 1410.33 3.88274 -0.132633 0
M  V30 14895 H 1412 3.7134 -2.73687 0
M  V30 14896 H 1410.24 3.4504 -2.62926 0
M  V30 14897 H 1410.91 5.03992 -2.25158 0
M  V30 14898 H 1413.39 4.12362 -0.556511 0
M  V30 14899 H 1412.27 5.48125 -0.291583 0
M  V30 14900 H 1412.53 4.30872 0.990032 0
M  V30 14901 N 1411.59 0.596556 1.45873 0
M  V30 14902 C 1412.86 0.0199562 1.9559 0
M  V30 14903 C 1413.24 -1.44479 1.53912 0
M  V30 14904 O 1412.59 -2.14173 0.796384 0
M  V30 14905 C 1412.8 0.206497 3.48389 0
M  V30 14906 C 1414.15 0.0815298 4.24522 0
M  V30 14907 O 1415.17 0.136045 3.5594 0
M  V30 14908 O 1414.03 -0.0426117 5.46483 0
M  V30 14909 H 1411.13 -0.0419913 0.825933 0
M  V30 14910 H 1413.67 0.665846 1.56092 0
M  V30 14911 H 1412.44 1.22422 3.71656 0
M  V30 14912 H 1412.07 -0.475175 3.9475 0
M  V30 14913 N 1413.06 -1.53996 0.335095 0
M  V30 14914 C 1413.99 -2.2768 -0.518087 0
M  V30 14915 C 1414.97 -1.28915 -1.10972 0
M  V30 14916 O 1416.16 -1.57745 -1.1327 0
M  V30 14917 C 1413.29 -3.04327 -1.67339 0
M  V30 14918 C 1412.24 -4.10525 -1.2105 0
M  V30 14919 C 1411.57 -4.75078 -2.45366 0
M  V30 14920 C 1412.87 -5.21337 -0.317055 0
M  V30 14921 H 1414.56 -2.99244 0.0965669 0
M  V30 14922 H 1412.11 -1.4392 0.0478842 0
M  V30 14923 H 1414.06 -3.54608 -2.27664 0
M  V30 14924 H 1412.79 -2.30399 -2.31481 0
M  V30 14925 H 1411.45 -3.61144 -0.630124 0
M  V30 14926 H 1411.09 -3.97754 -3.07897 0
M  V30 14927 H 1410.79 -5.46822 -2.1508 0
M  V30 14928 H 1412.32 -5.2814 -3.06432 0
M  V30 14929 H 1413.73 -5.67305 -0.826905 0
M  V30 14930 H 1412.13 -6.00006 -0.106458 0
M  V30 14931 H 1413.2 -4.80536 0.649068 0
M  V30 14932 N 1414.54 -0.0635198 -1.57472 0
M  V30 14933 C 1415.79 0.606285 -1.92792 0
M  V30 14934 C 1416.11 1.70648 -0.943615 0
M  V30 14935 O 1415.38 1.95898 0.00957612 0
M  V30 14936 H 1413.96 0.226943 -0.711692 0
M  V30 14937 H 1416.62 -0.119429 -1.94534 0
M  V30 14938 H 1415.72 1.03694 -2.9437 0
M  V30 14939 N 1416.02 1.56195 0.209972 0
M  V30 14940 C 1417.27 1.78941 0.930744 0
M  V30 14941 C 1417.58 0.634139 1.85035 0
M  V30 14942 O 1418.79 0.745524 2.61064 0
M  V30 14943 C 1417.24 3.16935 1.70529 0
M  V30 14944 C 1416.85 4.40221 0.83125 0
M  V30 14945 C 1418.6 3.49 2.41659 0
M  V30 14946 C 1416.5 5.69238 1.60381 0
M  V30 14947 H 1415.43 0.667176 0.351273 0
M  V30 14948 H 1418.08 1.82572 0.184341 0
M  V30 14949 H 1416.47 3.07513 2.49503 0
M  V30 14950 H 1417.64 4.60728 0.081227 0
M  V30 14951 H 1415.95 4.15756 0.231517 0
M  V30 14952 H 1418.55 4.42623 2.99982 0
M  V30 14953 H 1418.89 2.72042 3.15117 0
M  V30 14954 H 1419.43 3.59804 1.69665 0
M  V30 14955 H 1416.17 6.49121 0.912292 0
M  V30 14956 H 1415.69 5.52772 2.32815 0
M  V30 14957 H 1417.37 6.09827 2.16149 0
M  V30 14958 N 1417.5 -0.477127 1.50204 0
M  V30 14959 C 1418.73 -1.25126 1.64399 0
M  V30 14960 C 1419.14 -1.86401 0.32424 0
M  V30 14961 O 1418.48 -1.69711 -0.703119 0
M  V30 14962 C 1418.54 -2.40428 2.67273 0
M  V30 14963 C 1418.2 -1.99837 4.10992 0
M  V30 14964 C 1419.2 -1.52435 4.97051 0
M  V30 14965 C 1416.89 -2.08742 4.56872 0
M  V30 14966 C 1418.88 -1.14472 6.27037 0
M  V30 14967 C 1416.57 -1.70391 5.86865 0
M  V30 14968 C 1417.57 -1.23333 6.71772 0
M  V30 14969 O 1417.25 -0.855111 7.99339 0
M  V30 14970 H 1416.99 -0.384801 0.555791 0
M  V30 14971 H 1419.54 -0.576654 1.97139 0
M  V30 14972 H 1417.77 -3.1104 2.29763 0
M  V30 14973 H 1419.46 -3.02406 2.7075 0
M  V30 14974 H 1420.22 -1.44981 4.62823 0
M  V30 14975 H 1416.1 -2.44319 3.90934 0
M  V30 14976 H 1419.65 -0.776712 6.93263 0
M  V30 14977 H 1415.54 -1.77501 6.20615 0
M  V30 14978 H 1416.31 -0.984492 8.12558 0
M  V30 14979 N 1418.98 -1.3968 -0.729882 0
M  V30 14980 C 1419.91 -1.34713 -1.85432 0
M  V30 14981 C 1420.92 -0.254999 -1.60791 0
M  V30 14982 O 1422.11 -0.514324 -1.7093 0
M  V30 14983 C 1419.21 -1.07019 -3.21559 0
M  V30 14984 C 1418.38 -2.27609 -3.73515 0
M  V30 14985 C 1417.44 -1.96292 -4.88217 0
M  V30 14986 O 1416.47 -2.69025 -5.01612 0
M  V30 14987 N 1417.67 -0.932181 -5.72967 0
M  V30 14988 H 1420.44 -2.31616 -1.90195 0
M  V30 14989 H 1418 -1.33849 -0.910834 0
M  V30 14990 H 1419.99 -0.84079 -3.9587 0
M  V30 14991 H 1418.56 -0.188323 -3.12032 0
M  V30 14992 H 1417.78 -2.66468 -2.90497 0
M  V30 14993 H 1419.07 -3.08033 -4.04961 0
M  V30 14994 H 1418.46 -0.329507 -5.6474 0
M  V30 14995 H 1417.02 -0.762684 -6.47322 0
M  V30 14996 N 1420.45 0.960609 -1.2494 0
M  V30 14997 C 1421.87 1.51915 -1.0853 0
M  V30 14998 C 1422.22 1.93215 0.340949 0
M  V30 14999 O 1421.34 1.78031 1.2302 0
M  V30 15000 C 1421.94 2.76069 -1.96396 0
M  V30 15001 C 1420.5 3.28255 -1.84189 0
M  V30 15002 C 1419.64 2.01124 -1.90905 0
M  V30 15003 H 1422.59 0.778141 -1.38314 0
M  V30 15004 H 1422.61 3.49668 -1.50042 0
M  V30 15005 H 1422.13 2.45979 -3.00193 0
M  V30 15006 H 1420.23 3.6318 -0.832518 0
M  V30 15007 H 1420.34 3.96675 -2.68673 0
M  V30 15008 H 1418.7 2.16155 -1.34718 0
M  V30 15009 H 1419.49 1.73389 -2.96295 0
M  V30 15010 N 1421.93 1.0643 1.16234 0
M  V30 15011 C 1423.18 0.780296 1.86429 0
M  V30 15012 C 1423.5 -0.695335 1.82181 0
M  V30 15013 O 1422.77 -1.50312 1.2563 0
M  V30 15014 H 1421.35 0.285654 0.690225 0
M  V30 15015 H 1424.01 1.34609 1.40949 0
M  V30 15016 H 1423.11 1.10644 2.91829 0
M  V30 15017 N 1423.41 -1.329 0.847073 0
M  V30 15018 C 1424.66 -1.9712 0.445872 0
M  V30 15019 C 1424.98 -1.67398 -1.00014 0
M  V30 15020 O 1424.25 -0.977204 -1.69787 0
M  V30 15021 H 1422.83 -0.729247 0.161887 0
M  V30 15022 H 1425.49 -1.62118 1.08184 0
M  V30 15023 H 1424.59 -3.06575 0.584676 0
M  V30 15024 N 1424.89 -0.604284 -1.45555 0
M  V30 15025 C 1426.11 -0.102634 -2.07146 0
M  V30 15026 C 1426.54 1.20239 -1.44652 0
M  V30 15027 O 1425.9 1.73133 -0.538033 0
M  V30 15028 C 1425.94 0.0270231 -3.6059 0
M  V30 15029 O 1425.05 1.0781 -3.98059 0
M  V30 15030 H 1424.39 -0.0725667 -0.660023 0
M  V30 15031 H 1426.92 -0.833355 -1.86859 0
M  V30 15032 H 1426.93 0.226299 -4.07372 0
M  V30 15033 H 1425.6 -0.925896 -4.05463 0
M  V30 15034 H 1424.18 0.855552 -3.62953 0
M  V30 15035 N 1426.37 1.53816 -0.343257 0
M  V30 15036 C 1427.61 2.00512 0.252845 0
M  V30 15037 C 1427.94 1.23274 1.51091 0
M  V30 15038 O 1427.21 0.339841 1.9293 0
M  V30 15039 H 1425.79 0.740751 0.0964202 0
M  V30 15040 H 1428.45 1.89288 -0.464347 0
M  V30 15041 H 1427.54 3.08142 0.495499 0
M  V30 15042 N 1427.84 0.0718701 1.57436 0
M  V30 15043 C 1429.12 -0.638233 1.84894 0
M  V30 15044 C 1429.5 -1.87786 0.964343 0
M  V30 15045 O 1428.85 -2.28479 0.0306523 0
M  V30 15046 C 1429.06 -0.975817 3.3508 0
M  V30 15047 C 1430.41 -1.34927 4.02591 0
M  V30 15048 O 1431.43 -1.06754 3.39826 0
M  V30 15049 O 1430.29 -1.87589 5.13296 0
M  V30 15050 H 1427.38 -0.317 0.763832 0
M  V30 15051 H 1429.93 0.102807 1.69388 0
M  V30 15052 H 1428.7 -0.0953948 3.91184 0
M  V30 15053 H 1428.33 -1.77362 3.55849 0
M  V30 15054 N 1429.32 -1.56304 -0.201686 0
M  V30 15055 C 1430.55 -1.84692 -0.943583 0
M  V30 15056 C 1430.97 -0.654649 -1.7634 0
M  V30 15057 O 1430.33 0.396586 -1.76909 0
M  V30 15058 C 1430.38 -3.11251 -1.82085 0
M  V30 15059 O 1429.48 -2.9134 -2.91881 0
M  V30 15060 H 1428.82 -0.608351 -0.266092 0
M  V30 15061 H 1431.35 -2.0353 -0.208992 0
M  V30 15062 H 1431.36 -3.41874 -2.2268 0
M  V30 15063 H 1430.04 -3.97652 -1.21844 0
M  V30 15064 H 1428.62 -2.72 -2.55089 0
M  V30 15065 N 1430.8 0.469154 -1.50455 0
M  V30 15066 C 1432.05 1.21788 -1.60781 0
M  V30 15067 C 1432.36 1.93054 -0.314576 0
M  V30 15068 O 1433.57 2.69873 -0.296773 0
M  V30 15069 C 1432.02 2.21305 -2.83817 0
M  V30 15070 C 1431.63 1.55833 -4.20024 0
M  V30 15071 C 1433.38 2.96808 -3.03489 0
M  V30 15072 C 1431.28 2.53648 -5.34244 0
M  V30 15073 H 1430.21 0.45827 -0.598752 0
M  V30 15074 H 1432.86 0.488159 -1.76888 0
M  V30 15075 H 1431.25 2.97577 -2.61273 0
M  V30 15076 H 1432.42 0.853371 -4.52829 0
M  V30 15077 H 1430.74 0.926046 -4.05972 0
M  V30 15078 H 1433.33 3.70017 -3.85994 0
M  V30 15079 H 1433.68 3.56307 -2.15293 0
M  V30 15080 H 1434.21 2.27648 -3.26223 0
M  V30 15081 H 1430.95 1.98885 -6.246 0
M  V30 15082 H 1430.47 3.22291 -5.05854 0
M  V30 15083 H 1432.15 3.15438 -5.64897 0
M  V30 15084 N 1432.28 1.40065 0.722464 0
M  V30 15085 C 1433.69 1.33876 1.30131 0
M  V30 15086 C 1434.04 0.00899369 1.96198 0
M  V30 15087 O 1433.17 -0.893082 1.97112 0
M  V30 15088 C 1433.76 2.42469 2.36631 0
M  V30 15089 C 1432.32 2.39762 2.90157 0
M  V30 15090 C 1431.47 2.23704 1.63865 0
M  V30 15091 H 1434.42 1.49971 0.519077 0
M  V30 15092 H 1434.44 2.0998 3.17315 0
M  V30 15093 H 1433.95 3.39239 1.88517 0
M  V30 15094 H 1432.05 1.46669 3.42519 0
M  V30 15095 H 1432.16 3.35092 3.42419 0
M  V30 15096 H 1430.53 1.71098 1.88674 0
M  V30 15097 H 1431.31 3.22462 1.17785 0
M  V30 15098 N 1433.76 -0.95397 1.25448 0
M  V30 15099 C 1435.01 -1.69305 1.09631 0
M  V30 15100 C 1435.32 -1.92213 -0.362413 0
M  V30 15101 O 1436.53 -2.63824 -0.641036 0
M  V30 15102 C 1434.98 -3.04805 1.91369 0
M  V30 15103 C 1434.59 -2.8969 3.41737 0
M  V30 15104 C 1436.33 -3.82491 1.84123 0
M  V30 15105 C 1434.24 -4.20584 4.15768 0
M  V30 15106 H 1433.17 -0.63494 0.406654 0
M  V30 15107 H 1435.82 -1.06195 1.49649 0
M  V30 15108 H 1434.2 -3.68822 1.44174 0
M  V30 15109 H 1435.38 -2.346 3.9661 0
M  V30 15110 H 1433.69 -2.25458 3.50082 0
M  V30 15111 H 1436.29 -4.79442 2.36727 0
M  V30 15112 H 1436.63 -4.08358 0.809265 0
M  V30 15113 H 1437.17 -3.25224 2.29072 0
M  V30 15114 H 1433.9 -3.99905 5.19381 0
M  V30 15115 H 1433.42 -4.75436 3.65678 0
M  V30 15116 H 1435.1 -4.89122 4.2352 0
M  V30 15117 N 1435.24 -1.07045 -1.15668 0
M  V30 15118 C 1436.46 -0.812746 -1.90268 0
M  V30 15119 C 1436.88 0.633722 -1.77847 0
M  V30 15120 O 1436.24 1.43444 -1.12828 0
M  V30 15121 C 1436.29 -1.20793 -3.40722 0
M  V30 15122 O 1436.01 -2.59764 -3.52781 0
M  V30 15123 C 1437.51 -0.979074 -4.32353 0
M  V30 15124 H 1434.73 -0.294093 -0.603117 0
M  V30 15125 H 1437.27 -1.42609 -1.46571 0
M  V30 15126 H 1435.43 -0.638975 -3.82094 0
M  V30 15127 H 1435.84 -2.75801 -4.46133 0
M  V30 15128 H 1437.32 -1.30513 -5.36349 0
M  V30 15129 H 1437.79 0.0847752 -4.39118 0
M  V30 15130 H 1438.4 -1.53278 -3.96719 0
M  V30 15131 N 1436.71 1.32449 -0.85411 0
M  V30 15132 C 1437.68 2.27183 -0.303377 0
M  V30 15133 C 1438.68 1.51582 0.536622 0
M  V30 15134 O 1439.87 1.70684 0.348211 0
M  V30 15135 C 1437 3.36086 0.570852 0
M  V30 15136 H 1438.19 2.77408 -1.1395 0
M  V30 15137 H 1435.74 1.43111 -0.628402 0
M  V30 15138 H 1436.48 2.91128 1.42881 0
M  V30 15139 H 1436.26 3.92088 -0.030399 0
M  V30 15140 H 1437.75 4.06675 0.948972 0
M  V30 15141 N 1438.19 0.611994 1.45232 0
M  V30 15142 C 1439.12 -0.0914869 2.33321 0
M  V30 15143 C 1440.1 -0.854315 1.4709 0
M  V30 15144 O 1441.29 -0.823994 1.75852 0
M  V30 15145 C 1438.42 -1.08652 3.29867 0
M  V30 15146 C 1437.37 -0.436615 4.25767 0
M  V30 15147 C 1436.7 -1.54021 5.12037 0
M  V30 15148 C 1438 0.645005 5.18302 0
M  V30 15149 H 1439.69 0.644053 2.92391 0
M  V30 15150 H 1437.24 0.311171 1.40598 0
M  V30 15151 H 1439.19 -1.58726 3.90364 0
M  V30 15152 H 1437.91 -1.85271 2.68965 0
M  V30 15153 H 1436.57 0.0432918 3.66574 0
M  V30 15154 H 1436.22 -2.29679 4.475 0
M  V30 15155 H 1435.92 -1.11084 5.77005 0
M  V30 15156 H 1437.45 -2.04313 5.75403 0
M  V30 15157 H 1438.86 0.228166 5.72846 0
M  V30 15158 H 1437.26 0.996387 5.9177 0
M  V30 15159 H 1438.33 1.51985 4.60466 0
M  V30 15160 N 1439.67 -1.53632 0.351409 0
M  V30 15161 C 1440.92 -2.01338 -0.243047 0
M  V30 15162 C 1441.25 -1.23864 -1.4957 0
M  V30 15163 O 1440.52 -0.328412 -1.91707 0
M  V30 15164 C 1440.81 -3.55886 -0.549284 0
M  V30 15165 C 1440.66 -4.44064 0.716016 0
M  V30 15166 C 1441.98 -4.18699 -1.35569 0
M  V30 15167 H 1439.1 -0.731863 -0.0868627 0
M  V30 15168 H 1441.74 -1.84005 0.473501 0
M  V30 15169 H 1439.89 -3.70787 -1.15972 0
M  V30 15170 H 1441.56 -4.40987 1.35383 0
M  V30 15171 H 1439.8 -4.12608 1.3393 0
M  V30 15172 H 1440.48 -5.50106 0.456895 0
M  V30 15173 H 1442.95 -4.07545 -0.839441 0
M  V30 15174 H 1441.83 -5.26892 -1.53871 0
M  V30 15175 H 1442.09 -3.73834 -2.3601 0
M  V30 15176 N 1441.15 -0.0802183 -1.57396 0
M  V30 15177 C 1442.4 0.585802 -1.93424 0
M  V30 15178 C 1442.72 1.69638 -0.961662 0
M  V30 15179 O 1441.99 1.95897 -0.011202 0
M  V30 15180 H 1440.57 0.219382 -0.714059 0
M  V30 15181 H 1443.23 -0.140055 -1.94396 0
M  V30 15182 H 1442.32 1.00566 -2.95454 0
M  V30 15183 N 1442.63 1.56409 0.193394 0
M  V30 15184 C 1443.87 1.80367 0.911717 0
M  V30 15185 C 1444.19 0.653561 1.83721 0
M  V30 15186 O 1443.46 -0.328001 1.93135 0
M  V30 15187 H 1442.04 0.665316 0.339652 0
M  V30 15188 H 1444.71 1.93887 0.198496 0
M  V30 15189 H 1443.8 2.7359 1.50182 0
M  V30 15190 N 1444.1 -0.461169 1.50702 0
M  V30 15191 C 1445.01 -1.58355 1.73092 0
M  V30 15192 C 1446.03 -1.62795 0.61431 0
M  V30 15193 O 1447.21 -1.8048 0.893806 0
M  V30 15194 C 1444.27 -2.94509 1.82936 0
M  V30 15195 C 1443.33 -3.00378 3.06711 0
M  V30 15196 C 1442.56 -4.30037 3.16076 0
M  V30 15197 O 1442.79 -5.21097 2.31978 0
M  V30 15198 O 1441.72 -4.41702 4.08881 0
M  V30 15199 H 1445.55 -1.42384 2.68255 0
M  V30 15200 H 1443.13 -0.641709 1.34916 0
M  V30 15201 H 1445.01 -3.75357 1.91534 0
M  V30 15202 H 1443.69 -3.10658 0.909581 0
M  V30 15203 H 1442.6 -2.18571 3.03608 0
M  V30 15204 H 1443.93 -2.89167 3.983 0
M  V30 15205 N 1445.58 -1.40446 -0.715026 0
M  V30 15206 C 1446.83 -1.3848 -1.47199 0
M  V30 15207 C 1447.15 0.0119198 -1.94996 0
M  V30 15208 O 1446.42 0.966772 -1.70383 0
M  V30 15209 H 1445 -0.509669 -0.54612 0
M  V30 15210 H 1447.66 -1.75505 -0.847588 0
M  V30 15211 H 1446.76 -2.06002 -2.34456 0
M  V30 15212 N 1447.06 0.947303 -1.25952 0
M  V30 15213 C 1448.29 1.7273 -1.13895 0
M  V30 15214 C 1448.7 1.86296 0.306488 0
M  V30 15215 O 1448.06 1.36594 1.2103 0
M  V30 15216 C 1448.11 3.13727 -1.79604 0
M  V30 15217 O 1447.83 3.00816 -3.18499 0
M  V30 15218 C 1449.33 4.0797 -1.73422 0
M  V30 15219 H 1446.55 0.54102 -0.39691 0
M  V30 15220 H 1449.1 1.18797 -1.66456 0
M  V30 15221 H 1447.25 3.6458 -1.30997 0
M  V30 15222 H 1447.67 3.89813 -3.50922 0
M  V30 15223 H 1449.14 5.04487 -2.24047 0
M  V30 15224 H 1449.62 4.33594 -0.699481 0
M  V30 15225 H 1450.22 3.63035 -2.21553 0
M  V30 15226 N 1448.54 1.07657 1.15099 0
M  V30 15227 C 1449.95 0.802696 1.37945 0
M  V30 15228 C 1450.15 -0.591622 1.92619 0
M  V30 15229 O 1449.21 -1.34979 2.13394 0
M  V30 15230 C 1450.52 1.87907 2.34759 0
M  V30 15231 C 1452.07 1.90418 2.48415 0
M  V30 15232 C 1452.55 2.97148 3.48521 0
M  V30 15233 N 1454.04 2.96271 3.56059 0
M  V30 15234 C 1454.77 3.75498 4.33346 0
M  V30 15235 N 1454.27 4.64583 5.1394 0
M  V30 15236 N 1456.06 3.63831 4.28466 0
M  V30 15237 H 1448.21 1.97578 0.779537 0
M  V30 15238 H 1450.48 0.856978 0.405331 0
M  V30 15239 H 1450.18 2.8811 2.01707 0
M  V30 15240 H 1450.06 1.74183 3.34575 0
M  V30 15241 H 1452.44 0.908655 2.80762 0
M  V30 15242 H 1452.52 2.0822 1.48586 0
M  V30 15243 H 1452.17 3.96903 3.16908 0
M  V30 15244 H 1452.1 2.76593 4.48112 0
M  V30 15245 H 1454.59 2.31697 2.98538 0
M  V30 15246 H 1454.9 5.2166 5.70167 0
M  V30 15247 H 1453.25 4.6863 5.13236 0
M  V30 15248 H 1456.44 2.93609 3.6457 0
M  V30 15249 H 1456.61 4.25818 4.8845 0
M  V30 15250 N 1450.02 -1.31994 0.861122 0
M  V30 15251 C 1450.95 -2.31214 0.325963 0
M  V30 15252 C 1451.93 -1.59965 -0.578383 0
M  V30 15253 O 1453.11 -1.87726 -0.497268 0
M  V30 15254 C 1450.24 -3.43953 -0.481001 0
M  V30 15255 C 1449.2 -4.2673 0.329474 0
M  V30 15256 C 1448.52 -5.31293 -0.602627 0
M  V30 15257 C 1449.82 -4.98498 1.55874 0
M  V30 15258 H 1451.52 -2.76223 1.15503 0
M  V30 15259 H 1449.06 -1.32797 0.556856 0
M  V30 15260 H 1451.02 -4.12409 -0.86585 0
M  V30 15261 H 1449.74 -2.97687 -1.3435 0
M  V30 15262 H 1448.4 -3.59929 0.696159 0
M  V30 15263 H 1448.05 -4.8128 -1.46215 0
M  V30 15264 H 1447.75 -5.87565 -0.0643044 0
M  V30 15265 H 1449.27 -6.02611 -0.984512 0
M  V30 15266 H 1450.68 -5.596 1.24583 0
M  V30 15267 H 1449.08 -5.64525 2.03548 0
M  V30 15268 H 1450.15 -4.25991 2.31646 0
M  V30 15269 N 1451.49 -0.619688 -1.44906 0
M  V30 15270 C 1452.77 -0.0510703 -1.95533 0
M  V30 15271 C 1453.15 1.42013 -1.56191 0
M  V30 15272 O 1452.5 2.12879 -0.830356 0
M  V30 15273 C 1452.71 -0.261896 -3.48016 0
M  V30 15274 C 1454.06 -0.149057 -4.24338 0
M  V30 15275 O 1455.08 -0.192655 -3.55679 0
M  V30 15276 O 1453.94 -0.0443345 -5.46482 0
M  V30 15277 H 1451.03 0.0288461 -0.826497 0
M  V30 15278 H 1453.58 -0.690594 -1.55013 0
M  V30 15279 H 1452.35 -1.28319 -3.69662 0
M  V30 15280 H 1451.98 0.412314 -3.95456 0
M  V30 15281 N 1452.97 1.53444 -0.359552 0
M  V30 15282 C 1453.9 2.23121 0.524379 0
M  V30 15283 C 1454.92 1.24324 1.05106 0
M  V30 15284 O 1456.11 1.50584 0.958476 0
M  V30 15285 C 1453.21 2.91055 1.7361 0
M  V30 15286 C 1452.38 4.16306 1.34195 0
M  V30 15287 C 1451.44 4.67504 2.41508 0
M  V30 15288 O 1450.46 5.3133 2.04149 0
M  V30 15289 N 1451.67 4.44801 3.73005 0
M  V30 15290 H 1454.43 2.99612 -0.072427 0
M  V30 15291 H 1451.99 1.60846 -0.184438 0
M  V30 15292 H 1453.98 3.22216 2.44865 0
M  V30 15293 H 1452.55 2.18052 2.23991 0
M  V30 15294 H 1451.77 3.91513 0.459501 0
M  V30 15295 H 1453.06 4.97746 1.05483 0
M  V30 15296 H 1452.46 3.9379 4.06136 0
M  V30 15297 H 1451.02 4.80528 4.40382 0
M  V30 15298 N 1454.45 0.0885642 1.57351 0
M  V30 15299 C 1455.38 -0.869946 2.16689 0
M  V30 15300 C 1456.36 -1.29878 1.09844 0
M  V30 15301 O 1457.55 -1.36684 1.37954 0
M  V30 15302 C 1454.68 -2.13148 2.74199 0
M  V30 15303 C 1453.63 -1.84149 3.86359 0
M  V30 15304 C 1452.96 -3.17075 4.30543 0
M  V30 15305 C 1454.26 -1.13357 5.09851 0
M  V30 15306 H 1455.95 -0.375578 2.97035 0
M  V30 15307 H 1453.5 -0.17921 1.42881 0
M  V30 15308 H 1455.45 -2.80634 3.14361 0
M  V30 15309 H 1454.17 -2.64856 1.91098 0
M  V30 15310 H 1452.83 -1.19063 3.46727 0
M  V30 15311 H 1452.48 -3.66658 3.44342 0
M  V30 15312 H 1452.18 -2.98457 5.06159 0
M  V30 15313 H 1453.7 -3.85731 4.73333 0
M  V30 15314 H 1455.12 -1.70941 5.47222 0
M  V30 15315 H 1453.52 -1.0494 5.90853 0
M  V30 15316 H 1454.59 -0.115273 4.84763 0
M  V30 15317 N 1455.93 -1.56509 -0.185096 0
M  V30 15318 C 1456.86 -1.91878 -1.25361 0
M  V30 15319 C 1457.87 -0.810443 -1.41194 0
M  V30 15320 O 1459.06 -1.08887 -1.41442 0
M  V30 15321 C 1456.16 -2.14433 -2.62434 0
M  V30 15322 C 1455.34 -3.45618 -2.6808 0
M  V30 15323 C 1454.39 -3.57165 -3.86419 0
M  V30 15324 O 1453.42 -4.29904 -3.73056 0
M  V30 15325 N 1454.62 -2.90993 -5.02298 0
M  V30 15326 H 1457.39 -2.84133 -0.953328 0
M  V30 15327 H 1454.95 -1.57498 -0.374955 0
M  V30 15328 H 1456.94 -2.19437 -3.40044 0
M  V30 15329 H 1455.51 -1.28629 -2.84909 0
M  V30 15330 H 1454.73 -3.52394 -1.76669 0
M  V30 15331 H 1456.02 -4.31968 -2.68851 0
M  V30 15332 H 1455.42 -2.31743 -5.16054 0
M  V30 15333 H 1453.97 -3.01611 -5.77819 0
M  V30 15334 N 1457.41 0.45317 -1.50944 0
M  V30 15335 C 1458.64 1.22494 -1.66369 0
M  V30 15336 C 1459.04 1.85862 -0.353854 0
M  V30 15337 O 1458.39 1.70808 0.676031 0
M  V30 15338 C 1458.45 2.36145 -2.71064 0
M  V30 15339 C 1458.11 1.93273 -4.14119 0
M  V30 15340 C 1459.11 1.44508 -4.99413 0
M  V30 15341 C 1456.8 2.01447 -4.60135 0
M  V30 15342 C 1458.79 1.04482 -6.28778 0
M  V30 15343 C 1456.48 1.61033 -5.89501 0
M  V30 15344 C 1457.47 1.1263 -6.73649 0
M  V30 15345 O 1457.16 0.727835 -8.00598 0
M  V30 15346 H 1456.89 0.37591 -0.561843 0
M  V30 15347 H 1459.45 0.545218 -1.98032 0
M  V30 15348 H 1457.68 3.07345 -2.34682 0
M  V30 15349 H 1459.37 2.9806 -2.75527 0
M  V30 15350 H 1460.13 1.376 -4.65071 0
M  V30 15351 H 1456.01 2.38068 -3.94771 0
M  V30 15352 H 1459.56 0.666322 -6.9441 0
M  V30 15353 H 1455.45 1.67606 -6.23361 0
M  V30 15354 H 1456.22 0.855097 -8.14021 0
M  V30 15355 N 1458.88 1.40823 0.707568 0
M  V30 15356 C 1460.16 1.3003 1.46122 0
M  V30 15357 C 1460.54 -0.0776873 2.10957 0
M  V30 15358 O 1459.89 -1.09109 2.00767 0
M  V30 15359 C 1460.1 2.44498 2.49042 0
M  V30 15360 C 1461.45 2.85106 3.14642 0
M  V30 15361 O 1462.47 2.44149 2.59364 0
M  V30 15362 O 1461.33 3.55892 4.14733 0
M  V30 15363 H 1458.42 0.511082 0.650172 0
M  V30 15364 H 1460.97 1.52761 0.739062 0
M  V30 15365 H 1459.74 3.36502 1.99705 0
M  V30 15366 H 1459.37 2.23579 3.28783 0
M  V30 15367 N 1460.36 -0.94061 1.26453 0
M  V30 15368 C 1461.61 -1.68937 1.12197 0
M  V30 15369 C 1461.94 -1.91309 -0.33382 0
M  V30 15370 O 1461.22 -1.49417 -1.24518 0
M  V30 15371 C 1461.5 -3.06381 1.89215 0
M  V30 15372 C 1461.35 -2.91331 3.42704 0
M  V30 15373 C 1462.67 -4.06507 1.68642 0
M  V30 15374 H 1459.79 -0.613121 0.408964 0
M  V30 15375 H 1462.43 -1.09242 1.55455 0
M  V30 15376 H 1460.58 -3.57339 1.5245 0
M  V30 15377 H 1462.25 -2.47591 3.89226 0
M  V30 15378 H 1460.5 -2.26945 3.697 0
M  V30 15379 H 1461.17 -3.88818 3.91822 0
M  V30 15380 H 1463.64 -3.64512 2.00674 0
M  V30 15381 H 1462.52 -5.0069 2.24945 0
M  V30 15382 H 1462.78 -4.37572 0.631131 0
M  V30 15383 N 1461.84 -1.08266 -1.14527 0
M  V30 15384 C 1463.26 -0.810001 -1.37518 0
M  V30 15385 C 1463.46 0.581399 -1.9293 0
M  V30 15386 O 1462.51 1.33846 -2.14107 0
M  V30 15387 C 1463.83 -1.89149 -2.33759 0
M  V30 15388 C 1465.37 -1.91733 -2.47401 0
M  V30 15389 C 1465.85 -2.98992 -3.4694 0
M  V30 15390 N 1467.34 -2.98155 -3.54483 0
M  V30 15391 C 1468.07 -3.77791 -4.31349 0
M  V30 15392 N 1467.57 -4.67302 -5.11469 0
M  V30 15393 N 1469.36 -3.66099 -4.2653 0
M  V30 15394 H 1461.51 -1.97988 -0.769048 0
M  V30 15395 H 1463.78 -0.859115 -0.40078 0
M  V30 15396 H 1463.48 -2.89175 -2.00176 0
M  V30 15397 H 1463.36 -1.75955 -3.33646 0
M  V30 15398 H 1465.74 -0.923531 -2.80276 0
M  V30 15399 H 1465.83 -2.09005 -1.4748 0
M  V30 15400 H 1465.47 -3.98578 -3.14799 0
M  V30 15401 H 1465.4 -2.78965 -4.46639 0
M  V30 15402 H 1467.89 -2.33277 -2.97305 0
M  V30 15403 H 1468.2 -5.24676 -5.67393 0
M  V30 15404 H 1466.55 -4.71345 -5.10743 0
M  V30 15405 H 1469.74 -2.95539 -3.63008 0
M  V30 15406 H 1469.91 -4.28402 -4.86185 0
M  V30 15407 N 1463.32 1.31536 -0.86811 0
M  V30 15408 C 1464.27 2.28562 -0.320602 0
M  V30 15409 C 1465.24 1.55648 0.579902 0
M  V30 15410 O 1466.42 1.83804 0.51194 0
M  V30 15411 C 1463.56 3.41836 0.473499 0
M  V30 15412 C 1462.67 4.29604 -0.454311 0
M  V30 15413 C 1461.81 5.30021 0.353733 0
M  V30 15414 C 1460.85 6.09434 -0.570624 0
M  V30 15415 N 1459.99 7.01812 0.201058 0
M  V30 15416 H 1464.83 2.74782 -1.15322 0
M  V30 15417 H 1462.36 1.35179 -0.580088 0
M  V30 15418 H 1464.32 4.06248 0.949662 0
M  V30 15419 H 1462.95 2.96732 1.27083 0
M  V30 15420 H 1462 3.65653 -1.04892 0
M  V30 15421 H 1463.31 4.85048 -1.16316 0
M  V30 15422 H 1462.47 6.001 0.892484 0
M  V30 15423 H 1461.21 4.75228 1.09589 0
M  V30 15424 H 1460.21 5.38247 -1.12115 0
M  V30 15425 H 1461.44 6.66314 -1.3116 0
M  V30 15426 H 1459.38 6.49431 0.926058 0
M  V30 15427 H 1459.3 7.54668 -0.448494 0
M  V30 15428 H 1460.57 7.76157 0.7211 0
M  V30 15429 N 1464.8 0.627364 1.44575 0
M  V30 15430 C 1466.05 0.130094 2.01681 0
M  V30 15431 C 1466.37 -1.25112 1.49572 0
M  V30 15432 O 1465.64 -1.8305 0.697822 0
M  V30 15433 H 1464.22 0.0451032 0.745637 0
M  V30 15434 H 1466.88 0.813218 1.77124 0
M  V30 15435 H 1465.97 0.0949131 3.11956 0
M  V30 15436 N 1466.28 -1.53251 0.367684 0
M  V30 15437 C 1467.5 -2.0618 -0.224645 0
M  V30 15438 C 1467.93 -1.23927 -1.41505 0
M  V30 15439 O 1467.28 -0.258858 -1.79443 0
M  V30 15440 C 1467.33 -3.55671 -0.594171 0
M  V30 15441 O 1466.44 -3.76132 -1.69112 0
M  V30 15442 H 1465.78 -0.663218 -0.0322099 0
M  V30 15443 H 1468.31 -1.97646 0.528897 0
M  V30 15444 H 1468.32 -3.98734 -0.864589 0
M  V30 15445 H 1466.99 -4.14982 0.276254 0
M  V30 15446 H 1465.57 -3.44965 -1.41609 0
M  V30 15447 N 1467.75 -0.0969077 -1.57302 0
M  V30 15448 C 1469 0.567212 -1.94706 0
M  V30 15449 C 1469.33 1.67721 -0.978937 0
M  V30 15450 O 1468.61 1.94496 -0.0123016 0
M  V30 15451 C 1468.89 1.12069 -3.42217 0
M  V30 15452 C 1468.74 0.015615 -4.49797 0
M  V30 15453 C 1470.06 2.0185 -3.91081 0
M  V30 15454 H 1467.18 0.204716 -0.707997 0
M  V30 15455 H 1469.82 -0.167984 -1.89256 0
M  V30 15456 H 1467.97 1.74723 -3.46993 0
M  V30 15457 H 1469.65 -0.61871 -4.57132 0
M  V30 15458 H 1467.89 -0.650529 -4.28895 0
M  V30 15459 H 1468.56 0.443724 -5.50214 0
M  V30 15460 H 1471.04 1.49098 -3.8847 0
M  V30 15461 H 1469.91 2.37502 -4.94858 0
M  V30 15462 H 1470.17 2.93659 -3.3048 0
M  V30 15463 N 1469.23 1.56605 0.176793 0
M  V30 15464 C 1470.48 1.81952 0.895627 0
M  V30 15465 C 1470.81 0.673893 1.82133 0
M  V30 15466 O 1470.09 -0.324494 1.91774 0
M  V30 15467 C 1470.37 3.17658 1.69604 0
M  V30 15468 C 1470.22 4.4274 0.793834 0
M  V30 15469 C 1471.54 3.50246 2.66488 0
M  V30 15470 H 1468.66 0.661884 0.324159 0
M  V30 15471 H 1471.3 1.89307 0.162092 0
M  V30 15472 H 1469.45 3.11518 2.3214 0
M  V30 15473 H 1471.12 4.60942 0.181775 0
M  V30 15474 H 1469.37 4.33681 0.101566 0
M  V30 15475 H 1470.04 5.34231 1.38927 0
M  V30 15476 H 1472.51 3.56804 2.1408 0
M  V30 15477 H 1471.39 4.46286 3.19562 0
M  V30 15478 H 1471.65 2.7467 3.46423 0
M  V30 15479 N 1470.71 -0.445159 1.51182 0
M  V30 15480 C 1471.66 -1.5604 1.72494 0
M  V30 15481 C 1472.65 -1.58753 0.591101 0
M  V30 15482 O 1473.86 -1.62591 0.772285 0
M  V30 15483 H 1470.23 -0.518265 0.544891 0
M  V30 15484 H 1472.2 -1.35237 2.65995 0
M  V30 15485 C 1470.95 -2.93768 1.85999 0
M  V30 15486 H 1470.28 -2.9241 2.72647 0
M  V30 15487 H 1471.72 -3.71189 2.04926 0
M  V30 15488 C 1470.17 -3.31186 0.617853 0
M  V30 15489 O 1470.7 -4.01035 -0.231101 0
M  V30 15490 N 1468.91 -2.86868 0.464234 0
M  V30 15491 H 1468.46 -2.30198 1.15614 0
M  V30 15492 H 1468.42 -3.12267 -0.365643 0
M  V30 15493 N 1472.19 -1.41197 -0.700089 0
M  V30 15494 C 1473.43 -1.40519 -1.46227 0
M  V30 15495 C 1473.77 -0.0126108 -1.94196 0
M  V30 15496 O 1473.04 0.958837 -1.69223 0
M  V30 15497 C 1473.32 -2.40808 -2.67738 0
M  V30 15498 C 1473.18 -3.89154 -2.25563 0
M  V30 15499 C 1474.5 -2.38415 -3.69927 0
M  V30 15500 H 1471.62 -0.511724 -0.530384 0
M  V30 15501 H 1474.26 -1.72441 -0.797754 0
M  V30 15502 H 1472.41 -2.13717 -3.24434 0
M  V30 15503 H 1474.08 -4.27132 -1.74229 0
M  V30 15504 H 1472.32 -4.04239 -1.57395 0
M  V30 15505 H 1472.99 -4.54866 -3.12731 0
M  V30 15506 H 1475.47 -2.62447 -3.22895 0
M  V30 15507 H 1474.35 -3.10609 -4.52563 0
M  V30 15508 H 1474.61 -1.40116 -4.19309 0
M  V30 15509 N 1473.67 0.933891 -1.2695 0
M  V30 15510 C 1474.61 2.05498 -1.08964 0
M  V30 15511 C 1475.61 1.69394 -0.0144837 0
M  V30 15512 O 1476.81 1.79179 -0.171729 0
M  V30 15513 H 1473.19 0.672978 -0.335566 0
M  V30 15514 H 1475.16 2.17817 -2.03957 0
M  V30 15515 C 1473.91 3.39579 -0.747074 0
M  V30 15516 H 1473.23 3.67842 -1.56628 0
M  V30 15517 H 1474.67 4.18815 -0.661064 0
M  V30 15518 C 1473.13 3.3241 0.548214 0
M  V30 15519 O 1473.66 3.69132 1.58443 0
M  V30 15520 N 1471.87 2.85509 0.541545 0
M  V30 15521 H 1471.41 2.55822 -0.302112 0
M  V30 15522 H 1471.37 2.81095 1.4083 0
M  V30 15523 N 1475.14 1.08871 1.13951 0
M  V30 15524 C 1476.55 0.841552 1.66658 0
M  V30 15525 C 1476.91 -0.630932 1.85779 0
M  V30 15526 O 1476.03 -1.48673 1.57243 0
M  V30 15527 C 1476.63 1.52109 3.02735 0
M  V30 15528 C 1475.18 1.32105 3.52456 0
M  V30 15529 C 1474.33 1.58084 2.27826 0
M  V30 15530 H 1477.28 1.24865 0.97951 0
M  V30 15531 H 1477.3 0.950978 3.68425 0
M  V30 15532 H 1476.82 2.59276 2.88786 0
M  V30 15533 H 1474.92 0.270294 3.71618 0
M  V30 15534 H 1475.03 2.05197 4.32933 0
M  V30 15535 H 1473.39 1.00264 2.34135 0
M  V30 15536 H 1474.18 2.66467 2.16449 0
M  V30 15537 N 1476.62 -1.31073 0.875073 0
M  V30 15538 C 1477.85 -2.00688 0.503179 0
M  V30 15539 C 1478.26 -1.65657 -0.905714 0
M  V30 15540 O 1477.62 -0.888468 -1.59413 0
M  V30 15541 C 1477.67 -3.55486 0.65666 0
M  V30 15542 O 1477.39 -3.89265 2.01007 0
M  V30 15543 C 1478.89 -4.42374 0.28645 0
M  V30 15544 H 1476.11 -0.641885 0.195512 0
M  V30 15545 H 1478.66 -1.67188 1.17765 0
M  V30 15546 H 1476.81 -3.87389 0.0296852 0
M  V30 15547 H 1477.23 -4.83978 2.02153 0
M  V30 15548 H 1478.7 -5.50205 0.444776 0
M  V30 15549 H 1479.18 -4.32312 -0.774789 0
M  V30 15550 H 1479.78 -4.15898 0.889336 0
M  V30 15551 N 1478.1 -0.635022 -1.4424 0
M  V30 15552 C 1479.05 0.0797218 -2.32463 0
M  V30 15553 C 1480.04 0.831818 -1.47571 0
M  V30 15554 O 1481.25 0.744277 -1.63892 0
M  V30 15555 H 1477.62 0.0445532 -0.750679 0
M  V30 15556 H 1479.59 -0.682374 -2.90493 0
M  V30 15557 C 1478.34 1.04505 -3.31623 0
M  V30 15558 H 1477.67 0.475755 -3.96959 0
M  V30 15559 H 1479.11 1.51458 -3.96026 0
M  V30 15560 C 1477.57 2.13221 -2.60842 0
M  V30 15561 O 1478.1 3.21357 -2.41025 0
M  V30 15562 N 1476.3 1.89264 -2.20516 0
M  V30 15563 H 1475.85 1.01329 -2.36834 0
M  V30 15564 H 1475.81 2.62203 -1.73484 0
M  V30 15565 N 1479.58 1.53054 -0.375806 0
M  V30 15566 C 1480.81 2.0582 0.211135 0
M  V30 15567 C 1481.22 1.24856 1.4162 0
M  V30 15568 O 1480.58 0.291786 1.80152 0
M  V30 15569 C 1480.63 3.56577 0.594573 0
M  V30 15570 O 1480.35 4.34472 -0.562607 0
M  V30 15571 C 1481.85 4.25639 1.23882 0
M  V30 15572 H 1479.07 0.670085 0.0350268 0
M  V30 15573 H 1481.62 1.9732 -0.537135 0
M  V30 15574 H 1479.77 3.65194 1.29275 0
M  V30 15575 H 1480.18 5.23902 -0.250487 0
M  V30 15576 H 1481.66 5.32408 1.45759 0
M  V30 15577 H 1482.14 3.80001 2.20218 0
M  V30 15578 H 1482.74 4.21302 0.581786 0
M  V30 15579 N 1481.06 0.105248 1.57248 0
M  V30 15580 C 1482.47 -0.251385 1.57608 0
M  V30 15581 C 1482.67 -1.677 1.11709 0
M  V30 15582 O 1481.73 -2.39552 0.798182 0
M  V30 15583 C 1483.04 -0.0305755 3.00684 0
M  V30 15584 C 1484.59 -0.0975409 3.12848 0
M  V30 15585 C 1485.06 0.0954024 4.57901 0
M  V30 15586 N 1486.56 0.040908 4.63182 0
M  V30 15587 C 1487.29 0.165298 5.73162 0
M  V30 15588 N 1486.79 0.345091 6.9194 0
M  V30 15589 N 1488.58 0.105847 5.62 0
M  V30 15590 H 1480.73 1.03658 1.85388 0
M  V30 15591 H 1482.99 0.407074 0.856151 0
M  V30 15592 H 1482.7 0.954461 3.38501 0
M  V30 15593 H 1482.57 -0.768477 3.69289 0
M  V30 15594 H 1484.96 -1.07309 2.74898 0
M  V30 15595 H 1485.04 0.672017 2.46815 0
M  V30 15596 H 1484.69 1.06786 4.96547 0
M  V30 15597 H 1484.62 -0.693974 5.22007 0
M  V30 15598 H 1487.11 -0.0951009 3.7778 0
M  V30 15599 H 1487.42 0.431243 7.71596 0
M  V30 15600 H 1485.76 0.38089 6.93955 0
M  V30 15601 H 1488.96 -0.0335544 4.68088 0
M  V30 15602 H 1489.13 0.206235 6.47672 0
M  V30 15603 N 1482.53 -1.56697 -0.168486 0
M  V30 15604 C 1483.5 -1.95744 -1.19235 0
M  V30 15605 C 1484.5 -0.841419 -1.37028 0
M  V30 15606 O 1485.69 -1.10842 -1.34386 0
M  V30 15607 C 1482.82 -2.25471 -2.55686 0
M  V30 15608 H 1484.01 -2.87368 -0.857892 0
M  V30 15609 H 1481.57 -1.50798 -0.411041 0
M  V30 15610 H 1482.3 -1.36571 -2.94141 0
M  V30 15611 H 1482.09 -3.06822 -2.44137 0
M  V30 15612 H 1483.58 -2.56593 -3.29469 0
M  V30 15613 N 1484.01 0.437135 -1.51416 0
M  V30 15614 C 1484.96 1.52903 -1.69129 0
M  V30 15615 C 1485.95 1.51379 -0.54528 0
M  V30 15616 O 1487.14 1.57828 -0.8012 0
M  V30 15617 C 1484.27 2.91092 -1.8199 0
M  V30 15618 C 1483.35 2.97372 -3.02375 0
M  V30 15619 N 1483.74 2.73395 -4.25545 0
M  V30 15620 C 1482.04 3.28532 -3.01634 0
M  V30 15621 C 1482.74 2.85523 -5.06805 0
M  V30 15622 N 1481.72 3.17201 -4.41457 0
M  V30 15623 H 1485.52 1.33118 -2.62025 0
M  V30 15624 H 1483.04 0.644444 -1.49066 0
M  V30 15625 H 1485.03 3.69645 -1.9279 0
M  V30 15626 H 1483.69 3.11898 -0.902757 0
M  V30 15627 H 1484.7 2.4832 -4.54486 0
M  V30 15628 H 1481.38 3.5511 -2.19552 0
M  V30 15629 H 1482.77 2.70938 -6.14852 0
M  V30 15630 N 1485.49 1.41566 0.692592 0
M  V30 15631 C 1486.72 1.44646 1.48635 0
M  V30 15632 C 1487.14 0.0541597 1.88022 0
M  V30 15633 O 1486.5 -0.943305 1.54827 0
M  V30 15634 C 1486.55 2.3636 2.72335 0
M  V30 15635 O 1485.65 1.8227 3.69934 0
M  V30 15636 H 1484.99 0.490791 0.447236 0
M  V30 15637 H 1487.52 1.8606 0.851056 0
M  V30 15638 H 1487.53 2.52337 3.20609 0
M  V30 15639 H 1486.21 3.37523 2.43004 0
M  V30 15640 H 1484.78 1.75759 3.28882 0
M  V30 15641 N 1486.97 -0.927146 1.27443 0
M  V30 15642 C 1487.88 -2.06122 1.12031 0
M  V30 15643 C 1488.89 -1.73928 0.0501979 0
M  V30 15644 O 1490.07 -1.99756 0.256796 0
M  V30 15645 C 1487.14 -3.3805 0.769634 0
M  V30 15646 C 1486.2 -3.83938 1.92068 0
M  V30 15647 C 1485.43 -5.0957 1.58664 0
M  V30 15648 O 1485.65 -5.6825 0.494789 0
M  V30 15649 O 1484.59 -5.50844 2.42599 0
M  V30 15650 H 1488.41 -2.22037 2.07203 0
M  V30 15651 H 1486 -1.04638 1.06636 0
M  V30 15652 H 1487.88 -4.17286 0.587423 0
M  V30 15653 H 1486.55 -3.2334 -0.152557 0
M  V30 15654 H 1485.46 -3.05587 2.15795 0
M  V30 15655 H 1486.79 -4.0319 2.8231 0
M  V30 15656 N 1488.45 -1.09474 -1.13372 0
M  V30 15657 C 1489.67 -0.852921 -1.88502 0
M  V30 15658 C 1490.09 0.595855 -1.79151 0
M  V30 15659 O 1489.45 1.41019 -1.15845 0
M  V30 15660 C 1489.5 -1.27993 -3.38083 0
M  V30 15661 O 1489.22 -2.67189 -3.47191 0
M  V30 15662 C 1490.72 -1.07056 -4.30179 0
M  V30 15663 H 1487.94 -0.30682 -0.596743 0
M  V30 15664 H 1490.48 -1.45685 -1.43513 0
M  V30 15665 H 1488.64 -0.719879 -3.80653 0
M  V30 15666 H 1489.05 -2.85202 -4.40182 0
M  V30 15667 H 1490.53 -1.4186 -5.3346 0
M  V30 15668 H 1491 -0.00838732 -4.39199 0
M  V30 15669 H 1491.61 -1.61659 -3.93378 0
M  V30 15670 N 1489.92 1.30607 -0.882012 0
M  V30 15671 C 1491.34 1.78418 -0.549892 0
M  V30 15672 C 1491.69 1.72553 0.933797 0
M  V30 15673 O 1490.81 1.30058 1.72956 0
M  V30 15674 C 1491.41 3.2397 -0.991398 0
M  V30 15675 C 1489.97 3.69629 -0.710739 0
M  V30 15676 C 1489.11 2.51127 -1.17602 0
M  V30 15677 H 1492.06 1.17519 -1.06653 0
M  V30 15678 H 1492.08 3.79159 -0.319115 0
M  V30 15679 H 1491.6 3.28207 -2.07128 0
M  V30 15680 H 1489.7 3.70883 0.357273 0
M  V30 15681 H 1489.81 4.61232 -1.29621 0
M  V30 15682 H 1488.17 2.47642 -0.595444 0
M  V30 15683 H 1488.96 2.58103 -2.26358 0
M  V30 15684 N 1491.4 0.642663 1.43901 0
M  V30 15685 C 1492.31 -0.0562462 2.34533 0
M  V30 15686 C 1493.33 -0.823457 1.53281 0
M  V30 15687 O 1494.5 -0.773103 1.85971 0
M  V30 15688 C 1491.57 -1.01787 3.31422 0
M  V30 15689 C 1490.63 -0.248759 4.28579 0
M  V30 15690 C 1489.86 -1.16458 5.20839 0
M  V30 15691 O 1490.09 -2.40361 5.17284 0
M  V30 15692 O 1489.02 -0.642671 5.98459 0
M  V30 15693 H 1492.85 0.689476 2.9577 0
M  V30 15694 H 1490.43 0.402847 1.43866 0
M  V30 15695 H 1492.31 -1.5708 3.91029 0
M  V30 15696 H 1490.99 -1.744 2.72702 0
M  V30 15697 H 1489.9 0.347495 3.72483 0
M  V30 15698 H 1491.23 0.437589 4.90251 0
M  V30 15699 N 1492.88 -1.52852 0.383918 0
M  V30 15700 C 1494.13 -2.00694 -0.201206 0
M  V30 15701 C 1494.44 -1.2748 -1.48352 0
M  V30 15702 O 1495.65 -1.66005 -2.14836 0
M  V30 15703 C 1494.11 -3.57567 -0.409117 0
M  V30 15704 C 1493.71 -4.39675 0.859628 0
M  V30 15705 C 1495.46 -4.13713 -0.950899 0
M  V30 15706 C 1493.36 -5.88138 0.620292 0
M  V30 15707 H 1492.29 -0.749854 -0.0789656 0
M  V30 15708 H 1494.95 -1.764 0.505488 0
M  V30 15709 H 1493.33 -3.78088 -1.17753 0
M  V30 15710 H 1494.5 -4.30923 1.63224 0
M  V30 15711 H 1492.82 -3.94724 1.32597 0
M  V30 15712 H 1495.41 -5.22284 -1.14558 0
M  V30 15713 H 1495.76 -3.69463 -1.9184 0
M  V30 15714 H 1496.29 -3.97062 -0.242195 0
M  V30 15715 H 1493.03 -6.367 1.55864 0
M  V30 15716 H 1492.55 -5.99693 -0.113483 0
M  V30 15717 H 1494.23 -6.46506 0.252775 0
M  V30 15718 N 1494.36 -0.113586 -1.5719 0
M  V30 15719 C 1495.78 0.243023 -1.57739 0
M  V30 15720 C 1495.98 1.67105 -1.12597 0
M  V30 15721 O 1495.03 2.39126 -0.810874 0
M  V30 15722 C 1496.34 0.014629 -3.00696 0
M  V30 15723 C 1497.89 0.0809485 -3.12895 0
M  V30 15724 C 1498.37 -0.119685 -4.57844 0
M  V30 15725 N 1499.86 -0.0654711 -4.63154 0
M  V30 15726 C 1500.59 -0.195692 -5.73066 0
M  V30 15727 N 1500.09 -0.381782 -6.91747 0
M  V30 15728 N 1501.88 -0.13565 -5.61936 0
M  V30 15729 H 1494.03 -1.04639 -1.84836 0
M  V30 15730 H 1496.3 -0.411609 -0.85398 0
M  V30 15731 H 1496 -0.972399 -3.3799 0
M  V30 15732 H 1495.88 0.748882 -3.69691 0
M  V30 15733 H 1498.26 1.0585 -2.75463 0
M  V30 15734 H 1498.34 -0.685097 -2.46455 0
M  V30 15735 H 1497.99 -1.09418 -4.95974 0
M  V30 15736 H 1497.92 0.666281 -5.22368 0
M  V30 15737 H 1500.41 0.0750649 -3.77825 0
M  V30 15738 H 1500.72 -0.472157 -7.71356 0
M  V30 15739 H 1499.07 -0.417686 -6.93744 0
M  V30 15740 H 1502.26 0.0087301 -4.68099 0
M  V30 15741 H 1502.43 -0.240579 -6.47553 0
M  V30 15742 N 1495.84 1.56784 0.160173 0
M  V30 15743 C 1496.78 1.97267 1.1981 0
M  V30 15744 C 1497.75 0.83824 1.43397 0
M  V30 15745 O 1498.94 1.09926 1.55952 0
M  V30 15746 C 1496.08 2.34725 2.52979 0
M  V30 15747 C 1495.19 3.61397 2.36677 0
M  V30 15748 C 1494.33 3.88018 3.62789 0
M  V30 15749 C 1493.37 5.08002 3.41468 0
M  V30 15750 N 1492.5 5.30699 4.59677 0
M  V30 15751 H 1497.34 2.85743 0.845878 0
M  V30 15752 H 1494.88 1.41379 0.406249 0
M  V30 15753 H 1496.84 2.54468 3.30608 0
M  V30 15754 H 1495.47 1.49345 2.86175 0
M  V30 15755 H 1494.52 3.49505 1.50167 0
M  V30 15756 H 1495.83 4.49185 2.16875 0
M  V30 15757 H 1494.99 4.08188 4.48851 0
M  V30 15758 H 1493.73 2.98627 3.85582 0
M  V30 15759 H 1492.73 4.87718 2.53793 0
M  V30 15760 H 1493.96 5.98934 3.20086 0
M  V30 15761 H 1491.9 4.44261 4.82668 0
M  V30 15762 H 1491.82 6.1273 4.42829 0
M  V30 15763 H 1493.09 5.55357 5.46991 0
M  V30 15764 N 1497.32 -0.429099 1.51646 0
M  V30 15765 C 1498.55 -1.19832 1.68297 0
M  V30 15766 C 1498.95 -1.85275 0.383378 0
M  V30 15767 O 1498.3 -1.71862 -0.648771 0
M  V30 15768 C 1498.36 -2.31803 2.74786 0
M  V30 15769 C 1498.02 -1.8666 4.17141 0
M  V30 15770 C 1499.02 -1.36544 5.01649 0
M  V30 15771 C 1496.7 -1.94101 4.63282 0
M  V30 15772 C 1498.7 -0.944655 6.30361 0
M  V30 15773 C 1496.39 -1.51634 5.91988 0
M  V30 15774 C 1497.38 -1.01899 6.75356 0
M  V30 15775 O 1497.07 -0.600375 8.01655 0
M  V30 15776 H 1496.8 -0.366924 0.567752 0
M  V30 15777 H 1499.36 -0.513643 1.98874 0
M  V30 15778 H 1497.59 -3.03573 2.39542 0
M  V30 15779 H 1499.28 -2.93639 2.80234 0
M  V30 15780 H 1500.04 -1.30184 4.67201 0
M  V30 15781 H 1495.92 -2.31758 3.98509 0
M  V30 15782 H 1499.47 -0.555763 6.95383 0
M  V30 15783 H 1495.36 -1.57667 6.25948 0
M  V30 15784 H 1496.13 -0.725485 8.15278 0
M  V30 15785 N 1498.79 -1.41931 -0.685074 0
M  V30 15786 C 1499.74 -1.44604 -1.79884 0
M  V30 15787 C 1500.71 -0.299166 -1.63384 0
M  V30 15788 O 1501.9 -0.501749 -1.84085 0
M  V30 15789 C 1499.04 -1.3442 -3.17845 0
M  V30 15790 C 1498.15 -2.59061 -3.45704 0
M  V30 15791 C 1497.28 -2.41094 -4.73336 0
M  V30 15792 C 1496.32 -3.61159 -4.94197 0
M  V30 15793 N 1495.46 -3.42198 -6.13062 0
M  V30 15794 H 1500.3 -2.39788 -1.76934 0
M  V30 15795 H 1497.84 -1.1906 -0.863891 0
M  V30 15796 H 1499.79 -1.26515 -3.97555 0
M  V30 15797 H 1498.42 -0.42838 -3.19945 0
M  V30 15798 H 1497.48 -2.77374 -2.60322 0
M  V30 15799 H 1498.79 -3.48341 -3.57016 0
M  V30 15800 H 1497.94 -2.30717 -5.61119 0
M  V30 15801 H 1496.68 -1.49288 -4.64289 0
M  V30 15802 H 1495.69 -3.7198 -4.04859 0
M  V30 15803 H 1496.91 -4.53933 -5.05096 0
M  V30 15804 H 1494.86 -2.531 -6.05208 0
M  V30 15805 H 1494.77 -4.25059 -6.25189 0
M  V30 15806 H 1496.04 -3.35612 -7.03551 0
M  V30 15807 N 1500.27 0.920374 -1.27933 0
M  V30 15808 C 1501.22 2.02196 -1.1129 0
M  V30 15809 C 1502.19 1.66096 -0.0118871 0
M  V30 15810 O 1503.37 1.8999 -0.175586 0
M  V30 15811 C 1500.51 3.36312 -0.77383 0
M  V30 15812 C 1499.63 3.85322 -1.95322 0
M  V30 15813 C 1498.76 5.07919 -1.55537 0
M  V30 15814 C 1497.8 5.49244 -2.7018 0
M  V30 15815 N 1496.94 6.63034 -2.30933 0
M  V30 15816 H 1501.78 2.15764 -2.05548 0
M  V30 15817 H 1499.31 1.05691 -1.02312 0
M  V30 15818 H 1501.27 4.13451 -0.558024 0
M  V30 15819 H 1499.9 3.22531 0.131806 0
M  V30 15820 H 1498.95 3.04399 -2.28135 0
M  V30 15821 H 1500.27 4.11915 -2.81296 0
M  V30 15822 H 1499.42 5.92581 -1.30123 0
M  V30 15823 H 1498.16 4.8312 -0.666818 0
M  V30 15824 H 1497.16 4.63127 -2.96299 0
M  V30 15825 H 1498.39 5.76035 -3.59667 0
M  V30 15826 H 1496.34 6.39878 -1.44539 0
M  V30 15827 H 1496.25 6.89319 -3.10444 0
M  V30 15828 H 1497.52 7.51018 -2.08786 0
M  V30 15829 N 1501.75 1.10074 1.1279 0
M  V30 15830 C 1503.17 0.831776 1.36212 0
M  V30 15831 C 1503.37 -0.550632 1.93831 0
M  V30 15832 O 1502.42 -1.30422 2.16209 0
M  V30 15833 C 1503.73 1.92844 2.3072 0
M  V30 15834 C 1505.28 1.95645 2.4432 0
M  V30 15835 C 1505.76 3.04474 3.4214 0
M  V30 15836 N 1507.25 3.03756 3.49695 0
M  V30 15837 C 1507.98 3.84605 4.25284 0
M  V30 15838 N 1507.48 4.7538 5.0397 0
M  V30 15839 N 1509.27 3.72838 4.20652 0
M  V30 15840 H 1501.42 1.99187 0.737452 0
M  V30 15841 H 1503.69 0.865383 0.387062 0
M  V30 15842 H 1503.39 2.92323 1.9555 0
M  V30 15843 H 1503.27 1.81241 3.30805 0
M  V30 15844 H 1505.65 0.968004 2.78772 0
M  V30 15845 H 1505.73 2.11325 1.44136 0
M  V30 15846 H 1505.38 4.03536 3.08418 0
M  V30 15847 H 1505.31 2.86036 4.42144 0
M  V30 15848 H 1507.8 2.37977 2.93556 0
M  V30 15849 H 1508.11 5.33637 5.58974 0
M  V30 15850 H 1506.46 4.79411 5.0318 0
M  V30 15851 H 1509.65 3.01276 3.5826 0
M  V30 15852 H 1509.82 4.36083 4.79308 0
M  V30 15853 N 1503.23 -1.30138 0.888926 0
M  V30 15854 C 1504.47 -1.95989 0.509365 0
M  V30 15855 C 1504.8 -1.70153 -0.942249 0
M  V30 15856 O 1504.06 -1.00123 -1.68148 0
M  V30 15857 C 1504.36 -3.4975 0.735488 0
M  V30 15858 C 1504.02 -3.95644 2.1628 0
M  V30 15859 C 1502.68 -4.07886 2.55309 0
M  V30 15860 C 1505.04 -4.1952 3.09277 0
M  V30 15861 C 1502.36 -4.41367 3.86539 0
M  V30 15862 C 1504.72 -4.54472 4.40043 0
M  V30 15863 C 1503.38 -4.64923 4.7896 0
M  V30 15864 H 1502.65 -0.717175 0.18639 0
M  V30 15865 H 1505.3 -1.54932 1.12553 0
M  V30 15866 H 1503.6 -3.91783 0.0363165 0
M  V30 15867 H 1505.3 -3.9878 0.421351 0
M  V30 15868 H 1501.89 -3.86624 1.84985 0
M  V30 15869 H 1506.07 -4.09539 2.80342 0
M  V30 15870 H 1501.33 -4.47659 4.16427 0
M  V30 15871 H 1505.5 -4.71897 5.12138 0
M  V30 15872 H 1503.13 -4.90622 5.80685 0
M  V30 15873 N 1504.71 -0.650285 -1.43559 0
M  V30 15874 C 1505.65 0.0550615 -2.32535 0
M  V30 15875 C 1506.65 0.81612 -1.48445 0
M  V30 15876 O 1507.85 0.726853 -1.64672 0
M  V30 15877 H 1504.23 0.0365887 -0.751109 0
M  V30 15878 H 1506.2 -0.713146 -2.89753 0
M  V30 15879 C 1504.95 1.00982 -3.32713 0
M  V30 15880 H 1504.27 0.433626 -3.97441 0
M  V30 15881 H 1505.71 1.47249 -3.9761 0
M  V30 15882 C 1504.17 2.10442 -2.63089 0
M  V30 15883 O 1504.7 3.18782 -2.44419 0
M  V30 15884 N 1502.91 1.86915 -2.22511 0
M  V30 15885 H 1502.45 0.988113 -2.37895 0
M  V30 15886 H 1502.41 2.60348 -1.76256 0
M  V30 15887 N 1506.18 1.52647 -0.392018 0
M  V30 15888 C 1507.41 2.06511 0.191815 0
M  V30 15889 C 1507.83 1.26162 1.39516 0
M  V30 15890 O 1507.19 0.287373 1.79008 0
M  V30 15891 C 1507.24 3.56571 0.537512 0
M  V30 15892 O 1506.34 3.78774 1.63106 0
M  V30 15893 H 1505.68 0.663647 0.0216546 0
M  V30 15894 H 1508.21 1.96779 -0.560274 0
M  V30 15895 H 1508.22 4.00059 0.801044 0
M  V30 15896 H 1506.9 4.14489 -0.342239 0
M  V30 15897 H 1505.48 3.47175 1.36103 0
M  V30 15898 N 1507.66 0.121921 1.57128 0
M  V30 15899 C 1508.57 -0.840825 2.19014 0
M  V30 15900 C 1509.59 -1.29051 1.16712 0
M  V30 15901 O 1510.76 -1.35289 1.49194 0
M  V30 15902 C 1507.83 -2.07204 2.7797 0
M  V30 15903 C 1506.89 -1.67399 3.95318 0
M  V30 15904 C 1506.12 -2.84652 4.51452 0
M  V30 15905 O 1506.35 -4.00161 4.06482 0
M  V30 15906 O 1505.28 -2.61568 5.42094 0
M  V30 15907 H 1509.11 -0.344146 3.01744 0
M  V30 15908 H 1506.69 -0.103841 1.49039 0
M  V30 15909 H 1508.57 -2.79307 3.1554 0
M  V30 15910 H 1507.25 -2.55872 1.9827 0
M  V30 15911 H 1506.16 -0.92395 3.62511 0
M  V30 15912 H 1507.49 -1.2347 4.76462 0
M  V30 15913 N 1509.14 -1.56867 -0.151857 0
M  V30 15914 C 1510.39 -1.82273 -0.863689 0
M  V30 15915 C 1510.7 -0.702377 -1.82554 0
M  V30 15916 O 1511.91 -0.841903 -2.58117 0
M  V30 15917 C 1510.36 -3.23046 -1.58649 0
M  V30 15918 C 1509.97 -4.43003 -0.667292 0
M  V30 15919 C 1511.72 -3.57729 -2.28539 0
M  V30 15920 C 1509.62 -5.74798 -1.39144 0
M  V30 15921 H 1508.55 -0.679753 -0.326269 0
M  V30 15922 H 1511.2 -1.8313 -0.116454 0
M  V30 15923 H 1509.59 -3.16561 -2.37918 0
M  V30 15924 H 1510.76 -4.60712 0.0898254 0
M  V30 15925 H 1509.08 -4.16329 -0.0770521 0
M  V30 15926 H 1511.67 -4.53451 -2.83348 0
M  V30 15927 H 1512.02 -2.8355 -3.04803 0
M  V30 15928 H 1512.55 -3.65853 -1.56194 0
M  V30 15929 H 1509.29 -6.52059 -0.670747 0
M  V30 15930 H 1508.81 -5.61032 -2.12139 0
M  V30 15931 H 1510.49 -6.17429 -1.93367 0
M  V30 15932 N 1510.62 0.421051 -1.51871 0
M  V30 15933 C 1511.55 1.51928 -1.77313 0
M  V30 15934 C 1512.53 1.58258 -0.623579 0
M  V30 15935 O 1513.71 1.73724 -0.867967 0
M  V30 15936 C 1510.84 2.89865 -1.913 0
M  V30 15937 C 1509.8 2.98391 -3.06834 0
M  V30 15938 C 1509.12 4.38466 -3.06026 0
M  V30 15939 C 1510.42 2.7097 -4.46511 0
M  V30 15940 H 1512.12 1.30889 -2.69274 0
M  V30 15941 H 1509.66 0.628229 -1.29573 0
M  V30 15942 H 1511.62 3.66669 -2.07682 0
M  V30 15943 H 1510.34 3.12172 -0.960011 0
M  V30 15944 H 1509 2.24029 -2.90184 0
M  V30 15945 H 1508.65 4.57764 -2.08472 0
M  V30 15946 H 1508.35 4.45097 -3.83618 0
M  V30 15947 H 1509.87 5.17221 -3.24522 0
M  V30 15948 H 1511.29 3.37501 -4.63428 0
M  V30 15949 H 1509.68 2.88992 -5.25931 0
M  V30 15950 H 1510.75 1.66476 -4.55427 0
M  V30 15951 N 1512.1 1.42293 0.677538 0
M  V30 15952 C 1513.34 1.44099 1.44965 0
M  V30 15953 C 1513.7 0.0545275 1.91923 0
M  V30 15954 O 1514.9 -0.0526718 2.68748 0
M  V30 15955 C 1513.17 2.43462 2.61651 0
M  V30 15956 S 1514.73 2.63947 3.50538 0
M  V30 15957 H 1511.55 0.51024 0.495153 0
M  V30 15958 H 1514.15 1.78874 0.788939 0
M  V30 15959 H 1512.86 3.42971 2.25387 0
M  V30 15960 H 1512.39 2.10102 3.32597 0
M  V30 15961 H 1514.4 1.92042 4.57531 0
M  V30 15962 N 1513.57 -0.913576 1.28419 0
M  V30 15963 C 1514.54 -1.99757 1.12382 0
M  V30 15964 C 1515.54 -1.60675 0.063435 0
M  V30 15965 O 1516.73 -1.71433 0.30923 0
M  V30 15966 C 1513.86 -3.33307 0.715506 0
M  V30 15967 H 1515.05 -2.15414 2.08655 0
M  V30 15968 H 1512.61 -1.09626 1.11408 0
M  V30 15969 H 1513.34 -3.23351 -0.247977 0
M  V30 15970 H 1513.13 -3.63034 1.4815 0
M  V30 15971 H 1514.62 -4.12882 0.625953 0
M  V30 15972 N 1515.05 -1.1067 -1.12204 0
M  V30 15973 C 1516.02 -0.761145 -2.16193 0
M  V30 15974 C 1517.02 0.215599 -1.59348 0
M  V30 15975 O 1518.21 -0.00786723 -1.74198 0
M  V30 15976 C 1515.34 -0.127863 -3.4066 0
M  V30 15977 H 1516.53 -1.68225 -2.48275 0
M  V30 15978 H 1514.08 -0.907542 -1.27253 0
M  V30 15979 H 1514.82 0.803851 -3.14179 0
M  V30 15980 H 1514.6 -0.83085 -3.83196 0
M  V30 15981 H 1516.09 0.0980593 -4.17485 0
M  V30 15982 N 1516.53 1.29665 -0.895815 0
M  V30 15983 C 1517.46 2.30268 -0.387151 0
M  V30 15984 C 1518.44 1.61442 0.535768 0
M  V30 15985 O 1519.63 1.88978 0.447321 0
M  V30 15986 C 1516.76 3.45107 0.389639 0
M  V30 15987 C 1515.71 4.25706 -0.442498 0
M  V30 15988 C 1515.04 5.32704 0.461552 0
M  V30 15989 C 1516.34 4.9419 -1.69036 0
M  V30 15990 H 1518.03 2.73064 -1.22786 0
M  V30 15991 H 1515.58 1.31274 -0.591869 0
M  V30 15992 H 1517.53 4.14559 0.756203 0
M  V30 15993 H 1516.25 3.01145 1.2641 0
M  V30 15994 H 1514.91 3.57957 -0.791343 0
M  V30 15995 H 1514.56 4.84987 1.33403 0
M  V30 15996 H 1514.26 5.87529 -0.0915006 0
M  V30 15997 H 1515.78 6.05009 0.824395 0
M  V30 15998 H 1517.2 5.561 -1.39376 0
M  V30 15999 H 1515.6 5.5893 -2.18444 0
M  V30 16000 H 1516.67 4.19699 -2.42859 0
M  V30 16001 N 1518.01 0.657889 1.43212 0
M  V30 16002 C 1519.25 0.182061 2.02584 0
M  V30 16003 C 1519.61 -1.19232 1.51002 0
M  V30 16004 O 1518.9 -1.78535 0.6954 0
M  V30 16005 C 1519.1 0.138025 3.57133 0
M  V30 16006 C 1518.93 1.5066 4.23712 0
M  V30 16007 C 1517.7 2.10015 4.59589 0
M  V30 16008 C 1519.89 2.44593 4.52414 0
M  V30 16009 N 1517.88 3.39828 5.11263 0
M  V30 16010 C 1519.25 3.59044 5.05457 0
M  V30 16011 C 1521.3 2.43337 4.34387 0
M  V30 16012 C 1520 4.7247 5.4237 0
M  V30 16013 C 1522.03 3.55846 4.72364 0
M  V30 16014 C 1521.39 4.69023 5.25544 0
M  V30 16015 H 1517.49 0.111158 0.774059 0
M  V30 16016 H 1520.08 0.867208 1.7432 0
M  V30 16017 H 1518.25 -0.516479 3.84951 0
M  V30 16018 H 1519.98 -0.34911 4.03191 0
M  V30 16019 H 1516.73 1.62676 4.44785 0
M  V30 16020 H 1517.16 4.06269 5.41548 0
M  V30 16021 H 1521.8 1.57072 3.92541 0
M  V30 16022 H 1519.52 5.59423 5.83157 0
M  V30 16023 H 1523.1 3.56081 4.60106 0
M  V30 16024 H 1521.98 5.54641 5.54385 0
M  V30 16025 N 1519.49 -1.52437 0.400108 0
M  V30 16026 C 1520.73 -2.01312 -0.178252 0
M  V30 16027 C 1521.06 -1.28797 -1.46411 0
M  V30 16028 O 1520.33 -0.411211 -1.91536 0
M  V30 16029 H 1518.91 -0.743819 -0.0688613 0
M  V30 16030 H 1521.57 -1.87434 0.53428 0
M  V30 16031 H 1520.66 -3.09768 -0.380793 0
M  V30 16032 N 1520.96 -0.130252 -1.57061 0
M  V30 16033 C 1522.21 0.525784 -1.95866 0
M  V30 16034 C 1522.54 1.65607 -1.01429 0
M  V30 16035 O 1521.82 1.94426 -0.0535544 0
M  V30 16036 C 1522.1 1.04784 -3.44517 0
M  V30 16037 C 1521.95 -0.0797972 -4.49729 0
M  V30 16038 C 1523.27 1.9351 -3.95275 0
M  V30 16039 H 1520.39 0.189652 -0.71218 0
M  V30 16040 H 1523.03 -0.208091 -1.88857 0
M  V30 16041 H 1521.18 1.67324 -3.50621 0
M  V30 16042 H 1522.86 -0.715535 -4.55717 0
M  V30 16043 H 1521.1 -0.741358 -4.27418 0
M  V30 16044 H 1521.77 0.326915 -5.51031 0
M  V30 16045 H 1524.25 1.40825 -3.91545 0
M  V30 16046 H 1523.12 2.26952 -4.99784 0
M  V30 16047 H 1523.38 2.86583 -3.36634 0
M  V30 16048 N 1522.44 1.56945 0.143535 0
M  V30 16049 C 1523.39 1.99479 1.19628 0
M  V30 16050 C 1524.39 0.887733 1.44276 0
M  V30 16051 O 1525.59 1.07292 1.44528 0
M  V30 16052 H 1521.97 0.635049 0.402761 0
M  V30 16053 H 1523.94 2.87171 0.810877 0
M  V30 16054 C 1522.69 2.39436 2.52123 0
M  V30 16055 H 1522.01 3.24176 2.33987 0
M  V30 16056 H 1523.45 2.73017 3.24404 0
M  V30 16057 C 1521.91 1.24836 3.12918 0
M  V30 16058 O 1522.44 0.550973 3.97903 0
M  V30 16059 N 1520.64 1.01172 2.7242 0
M  V30 16060 H 1520.19 1.5806 2.03408 0
M  V30 16061 H 1520.15 0.246846 3.13429 0
M  V30 16062 N 1523.92 -0.412991 1.52093 0
M  V30 16063 C 1524.85 -1.50986 1.78117 0
M  V30 16064 C 1525.83 -1.57925 0.631963 0
M  V30 16065 O 1527.02 -1.73261 0.877168 0
M  V30 16066 C 1524.15 -2.88846 1.92835 0
M  V30 16067 C 1523.1 -2.96759 3.08412 0
M  V30 16068 C 1522.43 -4.36837 3.08347 0
M  V30 16069 C 1523.73 -2.68599 4.47942 0
M  V30 16070 H 1525.42 -1.29459 2.69964 0
M  V30 16071 H 1522.97 -0.621348 1.29905 0
M  V30 16072 H 1524.92 -3.65563 2.09623 0
M  V30 16073 H 1523.64 -3.11658 0.976553 0
M  V30 16074 H 1522.3 -2.22487 2.91368 0
M  V30 16075 H 1521.95 -4.56652 2.10897 0
M  V30 16076 H 1521.65 -4.43056 3.85973 0
M  V30 16077 H 1523.18 -5.15493 3.2726 0
M  V30 16078 H 1524.59 -3.35039 4.65212 0
M  V30 16079 H 1522.99 -2.86199 5.27456 0
M  V30 16080 H 1524.06 -1.64058 4.56304 0
M  V30 16081 N 1525.4 -1.4265 -0.669982 0
M  V30 16082 C 1526.33 -1.49298 -1.79534 0
M  V30 16083 C 1527.31 -0.34911 -1.66479 0
M  V30 16084 O 1528.5 -0.564072 -1.85828 0
M  V30 16085 C 1525.63 -1.39935 -3.17861 0
M  V30 16086 C 1524.58 -2.52398 -3.45657 0
M  V30 16087 C 1523.91 -2.28092 -4.8361 0
M  V30 16088 C 1525.21 -3.94697 -3.4207 0
M  V30 16089 H 1526.9 -2.43486 -1.74227 0
M  V30 16090 H 1524.45 -1.17191 -0.836796 0
M  V30 16091 H 1526.4 -1.43193 -3.96325 0
M  V30 16092 H 1525.12 -0.422436 -3.23857 0
M  V30 16093 H 1523.78 -2.48465 -2.69556 0
M  V30 16094 H 1523.43 -1.28683 -4.86261 0
M  V30 16095 H 1523.13 -3.03469 -5.0317 0
M  V30 16096 H 1524.65 -2.33107 -5.64352 0
M  V30 16097 H 1526.07 -4.00207 -4.10496 0
M  V30 16098 H 1524.46 -4.69965 -3.73166 0
M  V30 16099 H 1525.53 -4.21025 -2.40554 0
M  V30 16100 N 1526.88 0.906753 -1.28902 0
M  V30 16101 C 1528.12 1.65903 -1.16636 0
M  V30 16102 C 1528.46 1.92127 0.282981 0
M  V30 16103 O 1527.73 1.52666 1.20513 0
M  V30 16104 C 1528.01 3.01257 -1.97272 0
M  V30 16105 C 1527.87 2.82143 -3.50308 0
M  V30 16106 C 1529.19 4.01893 -1.7936 0
M  V30 16107 H 1526.31 0.602063 -0.425076 0
M  V30 16108 H 1528.95 1.05081 -1.58297 0
M  V30 16109 H 1527.1 3.53172 -1.61871 0
M  V30 16110 H 1528.77 2.37184 -3.95653 0
M  V30 16111 H 1527.01 2.17063 -3.75588 0
M  V30 16112 H 1527.68 3.78293 -4.01993 0
M  V30 16113 H 1530.16 3.59064 -2.10267 0
M  V30 16114 H 1529.04 4.9455 -2.38141 0
M  V30 16115 H 1529.3 4.35745 -0.746923 0
M  V30 16116 N 1528.36 1.11264 1.11616 0
M  V30 16117 C 1529.6 0.858664 1.82952 0
M  V30 16118 C 1529.92 -0.617439 1.84967 0
M  V30 16119 O 1529.19 -1.44849 1.31893 0
M  V30 16120 H 1527.77 0.314671 0.677489 0
M  V30 16121 H 1530.44 1.40466 1.35113 0
M  V30 16122 H 1529.53 1.22921 2.86874 0
M  V30 16123 N 1529.83 -1.29188 0.902679 0
M  V30 16124 C 1531.06 -1.99576 0.545635 0
M  V30 16125 C 1531.48 -1.67541 -0.870372 0
M  V30 16126 O 1530.83 -0.922082 -1.57493 0
M  V30 16127 C 1530.88 -3.54013 0.731916 0
M  V30 16128 O 1530.61 -3.84914 2.09219 0
M  V30 16129 C 1532.11 -4.41666 0.38022 0
M  V30 16130 H 1529.33 -0.637593 0.209083 0
M  V30 16131 H 1531.87 -1.64652 1.21284 0
M  V30 16132 H 1530.03 -3.87239 0.111849 0
M  V30 16133 H 1530.44 -4.79581 2.12373 0
M  V30 16134 H 1531.91 -5.49138 0.561382 0
M  V30 16135 H 1532.39 -4.33858 -0.682915 0
M  V30 16136 H 1533 -4.13918 0.977354 0
M  V30 16137 N 1531.31 -0.665475 -1.42861 0
M  V30 16138 C 1532.22 0.018927 -2.34592 0
M  V30 16139 C 1533.24 0.798967 -1.54572 0
M  V30 16140 O 1534.41 0.743419 -1.87177 0
M  V30 16141 C 1531.48 0.965013 -3.32999 0
M  V30 16142 C 1530.54 0.180544 -4.2892 0
M  V30 16143 C 1529.77 1.08157 -5.22626 0
M  V30 16144 O 1530 2.32101 -5.21043 0
M  V30 16145 O 1528.93 0.54738 -5.99406 0
M  V30 16146 H 1532.76 -0.736444 -2.94636 0
M  V30 16147 H 1530.34 -0.425684 -1.43207 0
M  V30 16148 H 1532.22 1.50839 -3.93479 0
M  V30 16149 H 1530.9 1.7004 -2.75442 0
M  V30 16150 H 1529.8 -0.40671 -3.71883 0
M  V30 16151 H 1531.14 -0.515529 -4.89493 0
M  V30 16152 N 1532.79 1.52222 -0.408187 0
M  V30 16153 C 1533.74 2.28544 0.432458 0
M  V30 16154 C 1534.73 1.33198 1.04665 0
M  V30 16155 O 1535.94 1.50661 0.984954 0
M  V30 16156 H 1532.31 0.735162 0.158241 0
M  V30 16157 H 1534.28 2.97493 -0.232482 0
M  V30 16158 C 1533.03 3.11864 1.53741 0
M  V30 16159 H 1532.36 3.851 1.07414 0
M  V30 16160 H 1533.8 3.68374 2.09945 0
M  V30 16161 C 1532.25 2.25367 2.50423 0
M  V30 16162 O 1532.78 1.89329 3.54285 0
M  V30 16163 N 1530.99 1.89155 2.2061 0
M  V30 16164 H 1530.54 2.18661 1.36181 0
M  V30 16165 H 1530.5 1.31574 2.85544 0
M  V30 16166 N 1534.27 0.138579 1.5699 0
M  V30 16167 C 1535.52 -0.513611 1.95465 0
M  V30 16168 C 1535.84 -1.65952 1.02396 0
M  V30 16169 O 1535.11 -1.9572 0.0839001 0
M  V30 16170 H 1533.69 -0.192729 0.72171 0
M  V30 16171 H 1536.35 0.212107 1.93742 0
M  V30 16172 H 1535.44 -0.895313 2.98983 0
M  V30 16173 N 1535.75 -1.57019 -0.13521 0
M  V30 16174 C 1536.68 -2.02182 -1.16811 0
M  V30 16175 C 1537.66 -0.9034 -1.44127 0
M  V30 16176 O 1538.84 -1.17202 -1.54846 0
M  V30 16177 C 1535.97 -2.41243 -2.49838 0
M  V30 16178 C 1534.93 -3.56379 -2.37018 0
M  V30 16179 C 1534.25 -3.8129 -3.74863 0
M  V30 16180 C 1535.55 -4.88653 -1.84432 0
M  V30 16181 H 1537.25 -2.8872 -0.792529 0
M  V30 16182 H 1534.79 -1.38901 -0.379788 0
M  V30 16183 H 1536.74 -2.7144 -3.22332 0
M  V30 16184 H 1535.47 -1.51656 -2.89254 0
M  V30 16185 H 1534.13 -3.26366 -1.66975 0
M  V30 16186 H 1533.78 -2.88934 -4.11735 0
M  V30 16187 H 1533.48 -4.58781 -3.67143 0
M  V30 16188 H 1535 -4.13924 -4.48887 0
M  V30 16189 H 1536.41 -5.17492 -2.46729 0
M  V30 16190 H 1534.81 -5.70032 -1.87574 0
M  V30 16191 H 1535.88 -4.78242 -0.800759 0
M  V30 16192 N 1537.22 0.404919 -1.52309 0
M  V30 16193 C 1538.16 1.51471 -1.7068 0
M  V30 16194 C 1539.14 1.52856 -0.554425 0
M  V30 16195 O 1540.32 1.715 -0.782294 0
M  V30 16196 C 1537.45 2.8999 -1.74995 0
M  V30 16197 C 1536.49 3.06499 -2.96581 0
M  V30 16198 S 1537.33 2.7937 -4.56851 0
M  V30 16199 C 1538.48 4.20112 -4.63958 0
M  V30 16200 H 1538.71 1.35661 -2.64544 0
M  V30 16201 H 1536.25 0.596769 -1.42401 0
M  V30 16202 H 1538.21 3.6982 -1.78167 0
M  V30 16203 H 1536.87 3.03139 -0.822517 0
M  V30 16204 H 1536.06 4.07853 -2.96095 0
M  V30 16205 H 1535.66 2.34541 -2.91319 0
M  V30 16206 H 1537.95 5.13811 -4.41594 0
M  V30 16207 H 1538.9 4.2562 -5.6591 0
M  V30 16208 H 1539.3 4.05279 -3.9295 0
M  V30 16209 N 1538.7 1.43003 0.662408 0
M  V30 16210 C 1539.63 1.50248 1.78739 0
M  V30 16211 C 1540.61 0.357934 1.66291 0
M  V30 16212 O 1541.8 0.573919 1.85526 0
M  V30 16213 C 1538.93 1.41618 3.17114 0
M  V30 16214 C 1537.88 2.54228 3.44314 0
M  V30 16215 C 1537.21 2.30653 4.82393 0
M  V30 16216 C 1538.51 3.96505 3.39972 0
M  V30 16217 H 1540.2 2.44406 1.72934 0
M  V30 16218 H 1537.75 1.17633 0.830569 0
M  V30 16219 H 1539.7 1.45293 3.9556 0
M  V30 16220 H 1538.43 0.439605 3.23628 0
M  V30 16221 H 1537.08 2.49891 2.68235 0
M  V30 16222 H 1536.73 1.3126 4.85572 0
M  V30 16223 H 1536.43 3.06134 5.01554 0
M  V30 16224 H 1537.96 2.36096 5.63108 0
M  V30 16225 H 1539.37 4.02378 4.08368 0
M  V30 16226 H 1537.77 4.71937 3.70668 0
M  V30 16227 H 1538.84 4.22295 2.38318 0
M  V30 16228 N 1540.18 -0.899904 1.29381 0
M  V30 16229 C 1541.11 -2.02045 1.17047 0
M  V30 16230 C 1542.09 -1.69977 0.0647354 0
M  V30 16231 O 1543.28 -1.92659 0.244173 0
M  V30 16232 C 1540.41 -3.36839 0.845991 0
M  V30 16233 C 1539.36 -3.83117 1.90802 0
M  V30 16234 C 1538.69 -5.15032 1.43686 0
M  V30 16235 C 1539.99 -4.03464 3.31684 0
M  V30 16236 H 1541.68 -2.12623 2.10789 0
M  V30 16237 H 1539.23 -1.02162 1.01484 0
M  V30 16238 H 1541.18 -4.14737 0.746413 0
M  V30 16239 H 1539.9 -3.26352 -0.127125 0
M  V30 16240 H 1538.56 -3.07435 1.99698 0
M  V30 16241 H 1538.21 -5.00961 0.452422 0
M  V30 16242 H 1537.91 -5.46967 2.14711 0
M  V30 16243 H 1539.43 -5.95472 1.35078 0
M  V30 16244 H 1540.85 -4.71845 3.25631 0
M  V30 16245 H 1539.25 -4.46752 4.00665 0
M  V30 16246 H 1540.32 -3.07807 3.74677 0
M  V30 16247 N 1541.66 -1.11854 -1.11024 0
M  V30 16248 C 1542.94 -0.781693 -1.79301 0
M  V30 16249 C 1543.32 0.72956 -1.98092 0
M  V30 16250 O 1542.66 1.66109 -1.56908 0
M  V30 16251 C 1542.87 -1.54976 -3.12703 0
M  V30 16252 C 1544.22 -1.73183 -3.87676 0
M  V30 16253 O 1545.25 -1.51437 -3.22406 0
M  V30 16254 O 1544.1 -2.0935 -5.04812 0
M  V30 16255 H 1541.2 -0.283672 -0.776826 0
M  V30 16256 H 1543.74 -1.22222 -1.17728 0
M  V30 16257 H 1542.52 -2.57759 -2.94408 0
M  V30 16258 H 1542.14 -1.10308 -3.81992 0
M  V30 16259 N 1543.14 1.28707 -0.909517 0
M  V30 16260 C 1544.55 1.47605 -0.607045 0
M  V30 16261 C 1544.75 1.8275 0.848815 0
M  V30 16262 O 1543.81 1.92989 1.62823 0
M  V30 16263 C 1545.12 2.58194 -1.54131 0
M  V30 16264 C 1546.67 2.72065 -1.54757 0
M  V30 16265 C 1547.14 3.85793 -2.46835 0
M  V30 16266 N 1548.64 3.93141 -2.44937 0
M  V30 16267 C 1549.37 4.80512 -3.12883 0
M  V30 16268 N 1548.87 5.72504 -3.90142 0
M  V30 16269 N 1550.66 4.74086 -3.01991 0
M  V30 16270 H 1542.81 1.04174 -1.85099 0
M  V30 16271 H 1545.07 0.51843 -0.793684 0
M  V30 16272 H 1544.78 2.39119 -2.57905 0
M  V30 16273 H 1544.65 3.55205 -1.26921 0
M  V30 16274 H 1547.04 2.90532 -0.517219 0
M  V30 16275 H 1547.12 1.75598 -1.86008 0
M  V30 16276 H 1546.77 3.68082 -3.49969 0
M  V30 16277 H 1546.7 4.8165 -2.12888 0
M  V30 16278 H 1549.19 3.2735 -1.88813 0
M  V30 16279 H 1549.5 6.3599 -4.39017 0
M  V30 16280 H 1547.84 5.72358 -3.94248 0
M  V30 16281 H 1551.04 4.01209 -2.4114 0
M  V30 16282 H 1551.21 5.41964 -3.55217 0
M  V30 16283 N 1544.61 0.673042 1.42506 0
M  V30 16284 C 1545.84 0.201349 2.0642 0
M  V30 16285 C 1546.26 -1.132 1.50224 0
M  V30 16286 O 1545.62 -1.70368 0.620024 0
M  V30 16287 C 1545.67 0.14505 3.60308 0
M  V30 16288 O 1544.77 -0.886953 4.02749 0
M  V30 16289 H 1544.12 0.103975 0.655809 0
M  V30 16290 H 1546.65 0.921559 1.8267 0
M  V30 16291 H 1546.66 -0.0316792 4.07988 0
M  V30 16292 H 1545.33 1.11829 4.00583 0
M  V30 16293 H 1543.91 -0.681408 3.66621 0
M  V30 16294 N 1546.09 -1.52004 0.416254 0
M  V30 16295 C 1547.34 -2.0149 -0.15689 0
M  V30 16296 C 1547.66 -1.30343 -1.45037 0
M  V30 16297 O 1546.93 -0.431503 -1.91089 0
M  V30 16298 H 1545.51 -0.744508 -0.0609682 0
M  V30 16299 H 1548.17 -1.86857 0.55413 0
M  V30 16300 H 1547.27 -3.10155 -0.347917 0
M  V30 16301 N 1547.57 -0.146903 -1.56914 0
M  V30 16302 C 1548.5 0.823803 -2.13883 0
M  V30 16303 C 1549.52 1.21081 -1.08826 0
M  V30 16304 O 1550.7 1.15491 -1.36103 0
M  V30 16305 C 1547.8 2.11686 -2.64655 0
M  V30 16306 C 1546.98 1.89723 -3.94112 0
M  V30 16307 C 1546.04 3.03016 -4.30195 0
M  V30 16308 O 1545.06 2.74711 -4.9852 0
M  V30 16309 N 1546.26 4.30187 -3.89768 0
M  V30 16310 H 1549.03 0.336904 -2.978 0
M  V30 16311 H 1546.59 0.0366704 -1.61858 0
M  V30 16312 H 1548.58 2.86525 -2.85807 0
M  V30 16313 H 1547.15 2.51639 -1.85464 0
M  V30 16314 H 1546.37 0.989208 -3.81587 0
M  V30 16315 H 1547.66 1.72387 -4.78707 0
M  V30 16316 H 1547.06 4.56051 -3.34715 0
M  V30 16317 H 1545.62 5.01807 -4.15972 0
M  V30 16318 N 1549.05 1.57088 0.126881 0
M  V30 16319 C 1550.3 1.84071 0.834397 0
M  V30 16320 C 1550.62 0.730896 1.80784 0
M  V30 16321 O 1549.89 -0.245791 1.94352 0
M  V30 16322 H 1548.47 0.679123 0.311128 0
M  V30 16323 H 1551.13 1.94554 0.116083 0
M  V30 16324 H 1550.23 2.79714 1.38443 0
M  V30 16325 N 1550.53 -0.396836 1.52522 0
M  V30 16326 C 1551.47 -1.48427 1.76743 0
M  V30 16327 C 1552.44 -1.54481 0.610321 0
M  V30 16328 O 1553.63 -1.7086 0.849201 0
M  V30 16329 C 1550.77 -2.85744 1.93505 0
M  V30 16330 C 1549.88 -2.88904 3.21183 0
M  V30 16331 C 1549.02 -4.17598 3.28307 0
M  V30 16332 C 1548.06 -4.14779 4.50138 0
M  V30 16333 N 1547.19 -5.35065 4.54587 0
M  V30 16334 H 1552.03 -1.27075 2.69548 0
M  V30 16335 H 1549.57 -0.61661 1.33553 0
M  V30 16336 H 1551.53 -3.65474 2.01208 0
M  V30 16337 H 1550.16 -3.05564 1.04069 0
M  V30 16338 H 1549.21 -2.01592 3.22591 0
M  V30 16339 H 1550.52 -2.82688 4.10961 0
M  V30 16340 H 1549.68 -5.05727 3.35149 0
M  V30 16341 H 1548.41 -4.26526 2.36489 0
M  V30 16342 H 1547.42 -3.25039 4.4343 0
M  V30 16343 H 1548.64 -4.07481 5.43264 0
M  V30 16344 H 1546.59 -5.44638 3.65658 0
M  V30 16345 H 1546.51 -5.30894 5.38227 0
M  V30 16346 H 1547.78 -6.25114 4.65675 0
M  V30 16347 N 1552.01 -1.43353 -0.654814 0
M  V30 16348 C 1553.25 -1.451 -1.41682 0
M  V30 16349 C 1553.58 -0.0743864 -1.94057 0
M  V30 16350 O 1552.86 0.904515 -1.72188 0
M  V30 16351 C 1553.14 -2.49204 -2.59941 0
M  V30 16352 C 1553 -3.96134 -2.13069 0
M  V30 16353 C 1554.31 -2.50064 -3.62155 0
M  V30 16354 H 1551.43 -0.528339 -0.513836 0
M  V30 16355 H 1554.08 -1.74892 -0.742489 0
M  V30 16356 H 1552.23 -2.2393 -3.1747 0
M  V30 16357 H 1553.9 -4.32459 -1.60552 0
M  V30 16358 H 1552.14 -4.09042 -1.44455 0
M  V30 16359 H 1552.81 -4.64585 -2.98101 0
M  V30 16360 H 1555.29 -2.72587 -3.14382 0
M  V30 16361 H 1554.16 -3.24849 -4.42452 0
M  V30 16362 H 1554.42 -1.53385 -4.14639 0
M  V30 16363 N 1553.48 0.89303 -1.29857 0
M  V30 16364 C 1554.71 1.675 -1.20943 0
M  V30 16365 C 1555.12 1.87779 0.231435 0
M  V30 16366 O 1554.46 1.41955 1.16596 0
M  V30 16367 C 1554.53 3.07722 -1.8587 0
M  V30 16368 C 1554.19 3.10647 -3.35182 0
M  V30 16369 C 1555.19 2.903 -4.31303 0
M  V30 16370 C 1552.87 3.32501 -3.76495 0
M  V30 16371 C 1554.87 2.91749 -5.66711 0
M  V30 16372 C 1552.55 3.33581 -5.12022 0
M  V30 16373 C 1553.55 3.13228 -6.06941 0
M  V30 16374 O 1553.24 3.14109 -7.39994 0
M  V30 16375 H 1552.97 0.529708 -0.419982 0
M  V30 16376 H 1555.53 1.12466 -1.71874 0
M  V30 16377 H 1553.76 3.64386 -1.29459 0
M  V30 16378 H 1555.44 3.68035 -1.71187 0
M  V30 16379 H 1556.21 2.73221 -4.00718 0
M  V30 16380 H 1552.09 3.47381 -3.03064 0
M  V30 16381 H 1555.63 2.75782 -6.40773 0
M  V30 16382 H 1551.53 3.50193 -5.4225 0
M  V30 16383 H 1552.3 3.3033 -7.48882 0
M  V30 16384 N 1554.96 1.12442 1.10429 0
M  V30 16385 C 1556.21 0.878021 1.82031 0
M  V30 16386 C 1556.53 -0.597787 1.85611 0
M  V30 16387 O 1555.8 -1.43442 1.33422 0
M  V30 16388 H 1554.38 0.321839 0.674113 0
M  V30 16389 H 1557.04 1.41891 1.33615 0
M  V30 16390 H 1556.14 1.25957 2.85554 0
M  V30 16391 N 1556.44 -1.28223 0.91633 0
M  V30 16392 C 1557.37 -2.29623 0.423735 0
M  V30 16393 C 1558.35 -1.62274 -0.510016 0
M  V30 16394 O 1559.54 -1.89666 -0.4172 0
M  V30 16395 C 1556.67 -3.45684 -0.334686 0
M  V30 16396 C 1555.62 -4.24949 0.510169 0
M  V30 16397 C 1554.95 -5.33371 -0.376745 0
M  V30 16398 C 1556.25 -4.91438 1.76877 0
M  V30 16399 H 1557.94 -2.71076 1.27115 0
M  V30 16400 H 1555.49 -1.30316 0.612678 0
M  V30 16401 H 1557.44 -4.1571 -0.690154 0
M  V30 16402 H 1556.16 -3.03118 -1.21603 0
M  V30 16403 H 1554.82 -3.56653 0.848191 0
M  V30 16404 H 1554.47 -4.87048 -1.25671 0
M  V30 16405 H 1554.17 -5.87309 0.18496 0
M  V30 16406 H 1555.69 -6.06244 -0.728039 0
M  V30 16407 H 1557.11 -5.53812 1.48205 0
M  V30 16408 H 1555.5 -5.55384 2.27308 0
M  V30 16409 H 1556.57 -4.15783 2.49505 0
M  V30 16410 N 1557.92 -0.68059 -1.42147 0
M  V30 16411 C 1559.17 -0.202445 -2.00681 0
M  V30 16412 C 1559.48 1.19997 -1.54467 0
M  V30 16413 O 1560.69 1.77479 -2.05459 0
M  V30 16414 C 1559.14 -0.311064 -3.58553 0
M  V30 16415 C 1558.75 -1.7179 -4.13754 0
M  V30 16416 C 1560.49 0.108072 -4.24362 0
M  V30 16417 C 1558.4 -1.77897 -5.64009 0
M  V30 16418 H 1557.33 -0.0719266 -0.750561 0
M  V30 16419 H 1559.98 -0.846614 -1.62803 0
M  V30 16420 H 1558.36 0.401098 -3.93963 0
M  V30 16421 H 1559.54 -2.45761 -3.89793 0
M  V30 16422 H 1557.85 -2.08539 -3.60417 0
M  V30 16423 H 1560.45 0.0826684 -5.34636 0
M  V30 16424 H 1560.79 1.14431 -4.00264 0
M  V30 16425 H 1561.33 -0.553285 -3.93933 0
M  V30 16426 H 1558.06 -2.79523 -5.92914 0
M  V30 16427 H 1557.58 -1.0829 -5.89944 0
M  V30 16428 H 1559.26 -1.53504 -6.28527 0
M  V30 16429 N 1559.4 1.51781 -0.424309 0
M  V30 16430 C 1560.64 2.0157 0.146203 0
M  V30 16431 C 1560.96 1.3111 1.44344 0
M  V30 16432 O 1560.23 0.441631 1.90857 0
M  V30 16433 H 1558.81 0.744821 0.057019 0
M  V30 16434 H 1561.48 1.8656 -0.564031 0
M  V30 16435 H 1560.57 3.10335 0.331464 0
M  V30 16436 N 1560.87 0.155222 1.56834 0
M  V30 16437 C 1562.29 -0.201116 1.58328 0
M  V30 16438 C 1562.49 -1.64061 1.16988 0
M  V30 16439 O 1561.55 -2.36892 0.873989 0
M  V30 16440 C 1562.86 0.0651005 3.0063 0
M  V30 16441 C 1564.41 0.00203866 3.13 0
M  V30 16442 C 1564.88 0.241032 4.57365 0
M  V30 16443 N 1566.37 0.188245 4.62817 0
M  V30 16444 C 1567.11 0.347562 5.72346 0
M  V30 16445 N 1566.6 0.565052 6.90492 0
M  V30 16446 N 1568.4 0.284589 5.61379 0
M  V30 16447 H 1560.55 1.09503 1.81997 0
M  V30 16448 H 1562.81 0.434106 0.842767 0
M  V30 16449 H 1562.52 1.06167 3.35293 0
M  V30 16450 H 1562.39 -0.650601 3.71547 0
M  V30 16451 H 1564.78 -0.98509 2.78173 0
M  V30 16452 H 1564.86 0.750199 2.44552 0
M  V30 16453 H 1564.5 1.2253 4.92898 0
M  V30 16454 H 1564.43 -0.52755 5.23951 0
M  V30 16455 H 1566.92 0.0251352 3.77892 0
M  V30 16456 H 1567.24 0.676502 7.69833 0
M  V30 16457 H 1565.58 0.601473 6.92392 0
M  V30 16458 H 1568.77 0.115381 4.67958 0
M  V30 16459 H 1568.95 0.412182 6.46688 0
M  V30 16460 N 1562.35 -1.57153 -0.118549 0
M  V30 16461 C 1563.77 -1.52458 -0.472096 0
M  V30 16462 C 1563.97 -0.868289 -1.81832 0
M  V30 16463 O 1563.02 -0.450817 -2.48443 0
M  V30 16464 C 1564.34 -2.9722 -0.456175 0
M  V30 16465 C 1565.88 -3.08312 -0.539694 0
M  V30 16466 C 1566.36 -4.54635 -0.554158 0
M  V30 16467 N 1567.85 -4.59091 -0.615584 0
M  V30 16468 C 1568.59 -5.69724 -0.64823 0
M  V30 16469 N 1568.08 -6.89852 -0.638494 0
M  V30 16470 N 1569.87 -5.57833 -0.691272 0
M  V30 16471 H 1562.03 -1.98202 0.76353 0
M  V30 16472 H 1564.29 -0.905179 0.281699 0
M  V30 16473 H 1563.99 -3.48608 0.465364 0
M  V30 16474 H 1563.87 -3.5468 -1.28381 0
M  V30 16475 H 1566.26 -2.56926 -1.45165 0
M  V30 16476 H 1566.34 -2.53845 0.315638 0
M  V30 16477 H 1565.98 -5.06667 0.353759 0
M  V30 16478 H 1565.91 -5.06914 -1.42638 0
M  V30 16479 H 1568.4 -3.72624 -0.629253 0
M  V30 16480 H 1568.71 -7.69925 -0.66604 0
M  V30 16481 H 1567.06 -6.92354 -0.605912 0
M  V30 16482 H 1570.25 -4.62893 -0.696244 0
M  V30 16483 H 1570.42 -6.44063 -0.713246 0
M  V30 16484 N 1563.83 0.388742 -1.5273 0
M  V30 16485 C 1565.25 0.728828 -1.41987 0
M  V30 16486 C 1565.45 1.94116 -0.540493 0
M  V30 16487 O 1564.5 2.52496 -0.0140397 0
M  V30 16488 C 1565.81 0.963683 -2.8484 0
M  V30 16489 C 1567.36 1.06514 -2.94319 0
M  V30 16490 C 1567.84 1.33262 -4.38184 0
M  V30 16491 N 1569.33 1.40083 -4.4151 0
M  V30 16492 C 1570.06 1.62446 -5.49908 0
M  V30 16493 N 1569.56 1.82277 -6.68391 0
M  V30 16494 N 1571.35 1.64627 -5.37452 0
M  V30 16495 H 1563.5 -0.408984 -2.08425 0
M  V30 16496 H 1565.77 -0.120791 -0.940273 0
M  V30 16497 H 1565.47 0.144986 -3.51401 0
M  V30 16498 H 1565.35 1.87828 -3.27109 0
M  V30 16499 H 1567.73 1.8744 -2.27926 0
M  V30 16500 H 1567.81 0.12845 -2.55477 0
M  V30 16501 H 1567.46 0.528457 -5.05143 0
M  V30 16502 H 1567.39 2.28216 -4.74579 0
M  V30 16503 H 1569.88 1.26465 -3.56111 0
M  V30 16504 H 1570.19 1.98848 -7.46779 0
M  V30 16505 H 1568.54 1.79501 -6.7142 0
M  V30 16506 H 1571.73 1.48686 -4.43858 0
M  V30 16507 H 1571.9 1.81715 -6.22 0
M  V30 16508 N 1565.31 1.43698 0.647203 0
M  V30 16509 C 1566.55 1.45633 1.40703 0
M  V30 16510 C 1566.88 0.0828643 1.94323 0
M  V30 16511 O 1566.14 -0.913033 1.73096 0
M  V30 16512 C 1566.44 2.45083 2.60133 0
M  V30 16513 C 1566.1 3.9081 2.24896 0
M  V30 16514 C 1564.76 4.30499 2.14998 0
M  V30 16515 C 1567.12 4.8262 1.96794 0
M  V30 16516 C 1564.44 5.59942 1.75163 0
M  V30 16517 C 1566.8 6.12433 1.58456 0
M  V30 16518 C 1565.46 6.51092 1.47088 0
M  V30 16519 H 1564.73 0.53291 0.514867 0
M  V30 16520 H 1567.38 1.76814 0.735458 0
M  V30 16521 H 1565.68 2.07327 3.3245 0
M  V30 16522 H 1567.38 2.43833 3.1835 0
M  V30 16523 H 1563.97 3.59403 2.33512 0
M  V30 16524 H 1568.15 4.52724 2.03359 0
M  V30 16525 H 1563.41 5.88728 1.64952 0
M  V30 16526 H 1567.58 6.83042 1.35745 0
M  V30 16527 H 1565.21 7.51299 1.15992 0
M  V30 16528 N 1566.79 -0.886131 1.30328 0
M  V30 16529 C 1567.72 -1.99733 1.12425 0
M  V30 16530 C 1568.73 -1.62659 0.067824 0
M  V30 16531 O 1569.92 -1.75721 0.313723 0
M  V30 16532 C 1567.02 -3.31757 0.692122 0
M  V30 16533 C 1566.19 -3.97276 1.83004 0
M  V30 16534 C 1565.25 -5.076 1.38666 0
M  V30 16535 O 1564.28 -5.29295 2.09368 0
M  V30 16536 N 1565.48 -5.79895 0.265039 0
M  V30 16537 H 1568.25 -2.15643 2.0813 0
M  V30 16538 H 1565.81 -1.05915 1.22449 0
M  V30 16539 H 1567.8 -4.02926 0.37854 0
M  V30 16540 H 1566.37 -3.12122 -0.172864 0
M  V30 16541 H 1565.59 -3.19295 2.3118 0
M  V30 16542 H 1566.88 -4.37789 2.59264 0
M  V30 16543 H 1566.27 -5.64771 -0.324121 0
M  V30 16544 H 1564.83 -6.51799 0.0109044 0
M  V30 16545 N 1568.26 -1.13026 -1.09832 0
M  V30 16546 C 1569.2 -0.761606 -2.16176 0
M  V30 16547 C 1570.21 0.214709 -1.61378 0
M  V30 16548 O 1571.4 -0.00487178 -1.78499 0
M  V30 16549 C 1568.5 -0.107513 -3.38729 0
M  V30 16550 C 1567.67 -1.11487 -4.22953 0
M  V30 16551 C 1566.73 -0.487243 -5.23939 0
M  V30 16552 O 1565.76 -1.14605 -5.57543 0
M  V30 16553 N 1566.96 0.742571 -5.75731 0
M  V30 16554 H 1569.72 -1.67669 -2.48409 0
M  V30 16555 H 1567.28 -1.0227 -1.25509 0
M  V30 16556 H 1569.28 0.324507 -4.03397 0
M  V30 16557 H 1567.85 0.710438 -3.0442 0
M  V30 16558 H 1567.07 -1.72432 -3.54487 0
M  V30 16559 H 1568.35 -1.79584 -4.76053 0
M  V30 16560 H 1567.75 1.29667 -5.50639 0
M  V30 16561 H 1566.31 1.11731 -6.42152 0
M  V30 16562 N 1569.74 1.27735 -0.923117 0
M  V30 16563 C 1570.68 2.25293 -0.363081 0
M  V30 16564 C 1571.65 1.53442 0.537978 0
M  V30 16565 O 1572.84 1.82299 0.479521 0
M  V30 16566 C 1569.96 3.35281 0.480058 0
M  V30 16567 C 1569.01 4.25004 -0.356928 0
M  V30 16568 S 1569.84 5.05417 -1.76959 0
M  V30 16569 C 1571 6.18892 -0.934006 0
M  V30 16570 H 1571.23 2.72448 -1.18993 0
M  V30 16571 H 1568.77 1.3632 -0.724991 0
M  V30 16572 H 1570.72 3.99101 0.960668 0
M  V30 16573 H 1569.38 2.86774 1.28139 0
M  V30 16574 H 1568.58 5.03175 0.288203 0
M  V30 16575 H 1568.18 3.65955 -0.771538 0
M  V30 16576 H 1570.47 6.77292 -0.167905 0
M  V30 16577 H 1571.41 6.87672 -1.68858 0
M  V30 16578 H 1571.82 5.62472 -0.478042 0
M  V30 16579 N 1571.22 0.688118 1.41784 0
M  V30 16580 C 1572.5 0.144304 1.95067 0
M  V30 16581 C 1572.88 -1.34399 1.62789 0
M  V30 16582 O 1572.23 -2.08675 0.930978 0
M  V30 16583 C 1572.44 0.427641 3.4637 0
M  V30 16584 C 1573.78 0.351345 4.23144 0
M  V30 16585 O 1574.81 0.362134 3.54354 0
M  V30 16586 O 1573.67 0.305018 5.45648 0
M  V30 16587 H 1570.76 0.01062 0.826932 0
M  V30 16588 H 1573.31 0.763766 1.51541 0
M  V30 16589 H 1572.08 1.4581 3.63119 0
M  V30 16590 H 1571.7 -0.223167 3.96973 0
M  V30 16591 N 1572.7 -1.51554 0.432352 0
M  V30 16592 C 1573.94 -2.02344 -0.13598 0
M  V30 16593 C 1574.28 -1.31619 -1.42794 0
M  V30 16594 O 1573.55 -0.42957 -1.89697 0
M  V30 16595 C 1573.84 -3.58297 -0.359865 0
M  V30 16596 C 1573.69 -4.39645 0.950399 0
M  V30 16597 C 1575.01 -4.25297 -1.13184 0
M  V30 16598 H 1572.13 -0.735439 -0.0479461 0
M  V30 16599 H 1574.77 -1.81237 0.570373 0
M  V30 16600 H 1572.92 -3.76413 -0.961547 0
M  V30 16601 H 1574.59 -4.3319 1.58568 0
M  V30 16602 H 1572.83 -4.04928 1.55614 0
M  V30 16603 H 1573.5 -5.46911 0.747852 0
M  V30 16604 H 1575.98 -4.11421 -0.622231 0
M  V30 16605 H 1574.86 -5.34307 -1.25726 0
M  V30 16606 H 1575.12 -3.85818 -2.15862 0
M  V30 16607 N 1574.18 -0.163538 -1.56749 0
M  V30 16608 C 1575.11 0.765571 -2.20593 0
M  V30 16609 C 1576.09 1.24489 -1.15916 0
M  V30 16610 O 1577.27 1.29946 -1.44318 0
M  V30 16611 C 1574.4 1.99823 -2.84057 0
M  V30 16612 C 1573.36 1.65506 -3.94705 0
M  V30 16613 C 1572.68 2.96172 -4.45181 0
M  V30 16614 C 1573.98 0.88902 -5.14678 0
M  V30 16615 H 1575.68 0.233431 -2.98489 0
M  V30 16616 H 1573.22 0.110836 -1.43573 0
M  V30 16617 H 1575.18 2.65316 -3.27392 0
M  V30 16618 H 1573.9 2.55437 -2.03517 0
M  V30 16619 H 1572.56 1.02384 -3.52013 0
M  V30 16620 H 1572.21 3.49811 -3.61443 0
M  V30 16621 H 1571.91 2.73968 -5.19823 0
M  V30 16622 H 1573.43 3.62708 -4.91198 0
M  V30 16623 H 1574.84 1.44637 -5.54755 0
M  V30 16624 H 1573.24 0.766302 -5.95187 0
M  V30 16625 H 1574.31 -0.116145 -4.84761 0
M  V30 16626 N 1575.65 1.57214 0.110213 0
M  V30 16627 C 1576.56 2.04287 1.15342 0
M  V30 16628 C 1577.58 0.964895 1.44796 0
M  V30 16629 O 1578.76 1.27702 1.55737 0
M  V30 16630 C 1575.82 2.44518 2.45788 0
M  V30 16631 C 1574.88 3.66439 2.23653 0
M  V30 16632 C 1574.12 4.04742 3.47879 0
M  V30 16633 O 1574.34 3.43291 4.5553 0
M  V30 16634 O 1573.27 4.97791 3.38361 0
M  V30 16635 H 1577.1 2.93415 0.783656 0
M  V30 16636 H 1574.68 1.45897 0.321644 0
M  V30 16637 H 1576.57 2.71089 3.22628 0
M  V30 16638 H 1575.24 1.58533 2.82221 0
M  V30 16639 H 1574.15 3.45006 1.44643 0
M  V30 16640 H 1575.48 4.53156 1.9212 0
M  V30 16641 N 1577.13 -0.380637 1.52934 0
M  V30 16642 C 1578.38 -1.12261 1.68053 0
M  V30 16643 C 1578.7 -1.90263 0.427191 0
M  V30 16644 O 1577.97 -1.87768 -0.558559 0
M  V30 16645 H 1576.55 -0.41742 0.619491 0
M  V30 16646 H 1579.21 -0.430906 1.90077 0
M  V30 16647 H 1578.31 -1.82085 2.53479 0
M  V30 16648 N 1578.61 -1.44039 -0.639573 0
M  V30 16649 C 1579.54 -1.53073 -1.76327 0
M  V30 16650 C 1580.52 -0.384344 -1.65701 0
M  V30 16651 O 1581.71 -0.603362 -1.84589 0
M  V30 16652 C 1578.84 -1.46646 -3.14821 0
M  V30 16653 C 1577.79 -2.59673 -3.40226 0
M  V30 16654 C 1577.12 -2.38298 -4.78663 0
M  V30 16655 C 1578.42 -4.01864 -3.33621 0
M  V30 16656 H 1580.11 -2.47126 -1.69023 0
M  V30 16657 H 1577.66 -1.1894 -0.811749 0
M  V30 16658 H 1579.61 -1.51567 -3.93199 0
M  V30 16659 H 1578.33 -0.491035 -3.22888 0
M  V30 16660 H 1576.99 -2.54127 -2.64225 0
M  V30 16661 H 1576.64 -1.38968 -4.83422 0
M  V30 16662 H 1576.34 -3.14074 -4.9662 0
M  V30 16663 H 1577.86 -2.45025 -5.59281 0
M  V30 16664 H 1579.28 -4.08824 -4.01915 0
M  V30 16665 H 1577.68 -4.77775 -3.63113 0
M  V30 16666 H 1578.75 -4.26033 -2.31569 0
M  V30 16667 N 1580.09 0.879207 -1.30796 0
M  V30 16668 C 1581.04 2.00692 -1.17582 0
M  V30 16669 C 1582.03 1.6918 -0.0863163 0
M  V30 16670 O 1583.24 1.78289 -0.24757 0
M  V30 16671 H 1579.61 0.65814 -0.363808 0
M  V30 16672 H 1581.58 2.0897 -2.13012 0
M  V30 16673 C 1580.33 3.36105 -0.890429 0
M  V30 16674 H 1579.65 3.60868 -1.72088 0
M  V30 16675 H 1581.09 4.15634 -0.838103 0
M  V30 16676 C 1579.55 3.34436 0.406734 0
M  V30 16677 O 1580.08 3.7552 1.42645 0
M  V30 16678 N 1578.29 2.87549 0.419963 0
M  V30 16679 H 1577.84 2.54311 -0.410343 0
M  V30 16680 H 1577.79 2.86815 1.28781 0
M  V30 16681 N 1581.57 1.13606 1.09231 0
M  V30 16682 C 1582.5 0.837908 2.17948 0
M  V30 16683 C 1583.48 -0.203575 1.68877 0
M  V30 16684 O 1584.66 -0.0620702 1.94101 0
M  V30 16685 C 1581.79 0.305342 3.45955 0
M  V30 16686 C 1580.75 1.2813 4.08371 0
M  V30 16687 C 1580.07 0.608412 5.31227 0
M  V30 16688 C 1581.37 2.64055 4.50636 0
M  V30 16689 H 1583.07 1.747 2.43147 0
M  V30 16690 H 1580.61 0.84141 1.1686 0
M  V30 16691 H 1582.57 0.0844116 4.21315 0
M  V30 16692 H 1581.29 -0.639144 3.20285 0
M  V30 16693 H 1579.95 1.48826 3.35032 0
M  V30 16694 H 1579.6 -0.341613 5.01839 0
M  V30 16695 H 1579.3 1.25956 5.73942 0
M  V30 16696 H 1580.82 0.396809 6.09309 0
M  V30 16697 H 1582.24 2.47316 5.17212 0
M  V30 16698 H 1580.63 3.25364 5.0424 0
M  V30 16699 H 1581.7 3.21566 3.62937 0
M  V30 16700 N 1583.05 -1.27244 0.929878 0
M  V30 16701 C 1583.98 -2.29161 0.448066 0
M  V30 16702 C 1584.96 -1.62806 -0.492776 0
M  V30 16703 O 1586.14 -1.90098 -0.39706 0
M  V30 16704 C 1583.27 -3.46019 -0.298002 0
M  V30 16705 C 1582.23 -4.24384 0.555211 0
M  V30 16706 C 1581.55 -5.33741 -0.320153 0
M  V30 16707 C 1582.85 -4.89535 1.8208 0
M  V30 16708 H 1584.55 -2.69712 1.29983 0
M  V30 16709 H 1582.09 -1.29659 0.626466 0
M  V30 16710 H 1584.04 -4.16419 -0.646024 0
M  V30 16711 H 1582.77 -3.0439 -1.18381 0
M  V30 16712 H 1581.43 -3.55733 0.885971 0
M  V30 16713 H 1581.08 -4.88354 -1.20498 0
M  V30 16714 H 1580.78 -5.8708 0.247241 0
M  V30 16715 H 1582.3 -6.06982 -0.663697 0
M  V30 16716 H 1583.71 -5.52209 1.54071 0
M  V30 16717 H 1582.11 -5.52941 2.33186 0
M  V30 16718 H 1583.18 -4.13113 2.53901 0
M  V30 16719 N 1584.52 -0.695628 -1.41417 0
M  V30 16720 C 1585.77 -0.223719 -2.00455 0
M  V30 16721 C 1586.09 1.18352 -1.55731 0
M  V30 16722 O 1587.29 1.7529 -2.0733 0
M  V30 16723 C 1585.75 -0.349076 -3.58203 0
M  V30 16724 C 1585.36 -1.76168 -4.11909 0
M  V30 16725 C 1587.1 0.0630563 -4.24453 0
M  V30 16726 C 1585.01 -1.83869 -5.62091 0
M  V30 16727 H 1583.94 -0.0798833 -0.749756 0
M  V30 16728 H 1586.59 -0.863834 -1.61896 0
M  V30 16729 H 1584.97 0.35929 -3.94367 0
M  V30 16730 H 1586.14 -2.49881 -3.87164 0
M  V30 16731 H 1584.46 -2.1235 -3.58185 0
M  V30 16732 H 1587.06 0.0259584 -5.34694 0
M  V30 16733 H 1587.4 1.10179 -4.01455 0
M  V30 16734 H 1587.93 -0.595036 -3.93324 0
M  V30 16735 H 1584.67 -2.85796 -5.89916 0
M  V30 16736 H 1584.19 -1.14541 -5.88762 0
M  V30 16737 H 1585.87 -1.60161 -6.26863 0
M  V30 16738 N 1586 1.51322 -0.440383 0
M  V30 16739 C 1587.23 2.0653 0.123649 0
M  V30 16740 C 1587.64 1.30751 1.36197 0
M  V30 16741 O 1587 0.367932 1.78753 0
M  V30 16742 C 1587.05 3.58778 0.442802 0
M  V30 16743 O 1586.77 4.31695 -0.746375 0
M  V30 16744 C 1588.27 4.3051 1.05717 0
M  V30 16745 H 1585.49 0.670968 0.00657466 0
M  V30 16746 H 1588.04 1.94864 -0.620341 0
M  V30 16747 H 1586.19 3.70349 1.13669 0
M  V30 16748 H 1586.61 5.22368 -0.472466 0
M  V30 16749 H 1588.08 5.38111 1.23046 0
M  V30 16750 H 1588.56 3.88999 2.03903 0
M  V30 16751 H 1589.16 4.2339 0.402574 0
M  V30 16752 N 1587.48 0.171848 1.5666 0
M  V30 16753 C 1588.73 -0.473061 1.96074 0
M  V30 16754 C 1589.04 -1.64353 1.06054 0
M  V30 16755 O 1590.25 -2.35471 1.35151 0
M  V30 16756 C 1588.7 -0.892995 3.48645 0
M  V30 16757 C 1588.31 0.251902 4.47291 0
M  V30 16758 C 1590.06 -1.50629 3.96877 0
M  V30 16759 C 1587.96 -0.187691 5.91102 0
M  V30 16760 H 1586.89 -0.180503 0.732075 0
M  V30 16761 H 1589.54 0.260164 1.81646 0
M  V30 16762 H 1587.93 -1.68221 3.58494 0
M  V30 16763 H 1589.1 1.02923 4.49159 0
M  V30 16764 H 1587.41 0.775193 4.09121 0
M  V30 16765 H 1590.01 -1.84724 5.01778 0
M  V30 16766 H 1590.35 -2.4044 3.39844 0
M  V30 16767 H 1590.89 -0.781502 3.90048 0
M  V30 16768 H 1587.63 0.675653 6.52009 0
M  V30 16769 H 1587.15 -0.93037 5.9254 0
M  V30 16770 H 1588.83 -0.631385 6.43912 0
M  V30 16771 N 1588.96 -1.5727 -0.101874 0
M  V30 16772 C 1590.18 -1.90319 -0.824215 0
M  V30 16773 C 1590.61 -0.765469 -1.7182 0
M  V30 16774 O 1589.97 0.283275 -1.79073 0
M  V30 16775 C 1590.01 -3.22201 -1.61922 0
M  V30 16776 O 1589.12 -3.09313 -2.72762 0
M  V30 16777 H 1588.46 -0.624042 -0.226864 0
M  V30 16778 H 1590.99 -2.04447 -0.0791314 0
M  V30 16779 H 1591 -3.55343 -2.00487 0
M  V30 16780 H 1589.67 -4.04596 -0.963078 0
M  V30 16781 H 1588.25 -2.87672 -2.37274 0
M  V30 16782 N 1590.44 0.372521 -1.53134 0
M  V30 16783 C 1591.68 1.11368 -1.68646 0
M  V30 16784 C 1592 1.90034 -0.437275 0
M  V30 16785 O 1591.27 1.88062 0.548593 0
M  V30 16786 H 1589.85 0.414129 -0.621696 0
M  V30 16787 H 1592.52 0.42082 -1.90303 0
M  V30 16788 H 1591.61 1.80738 -2.54441 0
M  V30 16789 N 1591.91 1.44376 0.631925 0
M  V30 16790 C 1592.86 1.51181 1.74393 0
M  V30 16791 C 1593.83 0.359599 1.62161 0
M  V30 16792 O 1595.02 0.569725 1.82096 0
M  V30 16793 C 1592.16 1.46124 3.12637 0
M  V30 16794 C 1591.27 2.71714 3.35851 0
M  V30 16795 C 1590.4 2.58496 4.64062 0
M  V30 16796 C 1589.44 3.79252 4.80452 0
M  V30 16797 N 1588.58 3.64715 5.99939 0
M  V30 16798 H 1593.42 2.4619 1.67912 0
M  V30 16799 H 1590.96 1.22184 0.819108 0
M  V30 16800 H 1592.91 1.41183 3.92585 0
M  V30 16801 H 1591.54 0.546831 3.18135 0
M  V30 16802 H 1590.6 2.86845 2.49848 0
M  V30 16803 H 1591.91 3.61351 3.43841 0
M  V30 16804 H 1591.06 2.51383 5.5217 0
M  V30 16805 H 1589.8 1.66417 4.58428 0
M  V30 16806 H 1588.81 3.8675 3.90774 0
M  V30 16807 H 1590.03 4.72367 4.879 0
M  V30 16808 H 1587.98 2.75388 5.95397 0
M  V30 16809 H 1587.89 4.47969 6.08982 0
M  V30 16810 H 1589.16 3.61493 6.90611 0
M  V30 16811 N 1593.39 -0.872258 1.31261 0
M  V30 16812 C 1594.81 -1.15763 1.09868 0
M  V30 16813 C 1595.01 -2.01065 -0.132331 0
M  V30 16814 O 1594.06 -2.38735 -0.822317 0
M  V30 16815 C 1595.38 -1.85199 2.36901 0
M  V30 16816 C 1596.92 -1.9791 2.42489 0
M  V30 16817 C 1597.4 -2.70759 3.69396 0
M  V30 16818 N 1598.89 -2.78296 3.70278 0
M  V30 16819 C 1599.63 -3.3527 4.65168 0
M  V30 16820 N 1599.12 -3.93193 5.70413 0
M  V30 16821 N 1600.91 -3.33206 4.52692 0
M  V30 16822 H 1593.07 -0.303784 2.10216 0
M  V30 16823 H 1595.33 -0.197172 0.927269 0
M  V30 16824 H 1595.03 -1.29968 3.26804 0
M  V30 16825 H 1594.91 -2.85493 2.46523 0
M  V30 16826 H 1597.3 -2.52305 1.53056 0
M  V30 16827 H 1597.38 -0.966644 2.36833 0
M  V30 16828 H 1597.02 -2.17031 4.59195 0
M  V30 16829 H 1596.95 -3.72407 3.72318 0
M  V30 16830 H 1599.44 -2.37185 2.94197 0
M  V30 16831 H 1599.75 -4.34771 6.38901 0
M  V30 16832 H 1598.1 -3.91575 5.7419 0
M  V30 16833 H 1601.29 -2.87191 3.69647 0
M  V30 16834 H 1601.46 -3.7731 5.26822 0
M  V30 16835 N 1594.87 -1.14184 -1.08627 0
M  V30 16836 C 1595.82 -0.822297 -2.1758 0
M  V30 16837 C 1596.81 0.198863 -1.68229 0
M  V30 16838 O 1598.02 0.0551869 -1.79915 0
M  V30 16839 H 1594.39 -0.248183 -0.709866 0
M  V30 16840 H 1596.36 -1.74916 -2.41758 0
M  V30 16841 C 1595.11 -0.313671 -3.46282 0
M  V30 16842 H 1594.44 -1.09078 -3.84632 0
M  V30 16843 H 1595.88 -0.128604 -4.23805 0
M  V30 16844 C 1594.33 0.962289 -3.22865 0
M  V30 16845 O 1594.86 2.03649 -3.46251 0
M  V30 16846 N 1593.07 0.896635 -2.76421 0
M  V30 16847 H 1592.62 0.0223186 -2.5759 0
M  V30 16848 H 1592.58 1.75093 -2.61132 0
M  V30 16849 N 1596.35 1.26749 -0.936613 0
M  V30 16850 C 1597.3 2.26542 -0.441307 0
M  V30 16851 C 1598.27 1.58503 0.496581 0
M  V30 16852 O 1599.45 1.86259 0.41379 0
M  V30 16853 C 1596.59 3.43866 0.291633 0
M  V30 16854 C 1595.7 4.26592 -0.681397 0
M  V30 16855 C 1594.84 5.31151 0.0722826 0
M  V30 16856 C 1593.88 6.05553 -0.892869 0
M  V30 16857 N 1593.01 7.01891 -0.17124 0
M  V30 16858 H 1597.85 2.68282 -1.29725 0
M  V30 16859 H 1595.39 1.31914 -0.650928 0
M  V30 16860 H 1597.35 4.10711 0.732984 0
M  V30 16861 H 1595.98 3.03051 1.11175 0
M  V30 16862 H 1595.03 3.59579 -1.24126 0
M  V30 16863 H 1596.34 4.78201 -1.41864 0
M  V30 16864 H 1595.5 6.03987 0.57313 0
M  V30 16865 H 1594.24 4.80369 0.842439 0
M  V30 16866 H 1593.24 5.31548 -1.40488 0
M  V30 16867 H 1594.47 6.58424 -1.66296 0
M  V30 16868 H 1592.41 6.53426 0.580507 0
M  V30 16869 H 1592.33 7.5123 -0.847897 0
M  V30 16870 H 1593.6 7.78889 0.308662 0
M  V30 16871 N 1597.83 0.703118 1.41046 0
M  V30 16872 C 1598.76 0.0570815 2.3343 0
M  V30 16873 C 1599.74 -0.759042 1.52225 0
M  V30 16874 O 1600.92 -0.710491 1.80736 0
M  V30 16875 C 1598.05 -0.874541 3.36109 0
M  V30 16876 C 1597.01 -0.16496 4.27682 0
M  V30 16877 C 1596.33 -1.21145 5.20795 0
M  V30 16878 C 1597.63 0.97332 5.13151 0
M  V30 16879 H 1599.33 0.828699 2.87703 0
M  V30 16880 H 1596.87 0.399956 1.38334 0
M  V30 16881 H 1598.83 -1.33579 3.99668 0
M  V30 16882 H 1597.55 -1.67791 2.80203 0
M  V30 16883 H 1596.21 0.276332 3.65557 0
M  V30 16884 H 1595.86 -2.00755 4.61201 0
M  V30 16885 H 1595.56 -0.741633 5.82901 0
M  V30 16886 H 1597.08 -1.67305 5.87232 0
M  V30 16887 H 1598.49 0.592013 5.70235 0
M  V30 16888 H 1596.89 1.37071 5.84236 0
M  V30 16889 H 1597.96 1.80961 4.49868 0
M  V30 16890 N 1599.3 -1.51086 0.448402 0
M  V30 16891 C 1600.72 -1.59278 0.101286 0
M  V30 16892 C 1600.92 -1.45847 -1.39036 0
M  V30 16893 O 1599.98 -1.30534 -2.16142 0
M  V30 16894 C 1601.29 -2.93999 0.631264 0
M  V30 16895 C 1602.84 -3.07337 0.59268 0
M  V30 16896 C 1603.31 -4.44599 1.09982 0
M  V30 16897 N 1604.8 -4.50949 1.05827 0
M  V30 16898 C 1605.54 -5.55503 1.42142 0
M  V30 16899 N 1605.03 -6.67422 1.85796 0
M  V30 16900 N 1606.83 -5.45922 1.33888 0
M  V30 16901 H 1598.98 -1.58062 1.41881 0
M  V30 16902 H 1601.24 -0.745702 0.585349 0
M  V30 16903 H 1600.95 -3.09233 1.67534 0
M  V30 16904 H 1600.82 -3.77149 0.0622533 0
M  V30 16905 H 1603.21 -2.91764 -0.442437 0
M  V30 16906 H 1603.29 -2.26 1.19823 0
M  V30 16907 H 1602.93 -4.60919 2.13345 0
M  V30 16908 H 1602.86 -5.24492 0.470703 0
M  V30 16909 H 1605.35 -3.70627 0.737822 0
M  V30 16910 H 1605.67 -7.43234 2.11714 0
M  V30 16911 H 1604.01 -6.68601 1.89731 0
M  V30 16912 H 1607.2 -4.57372 0.996415 0
M  V30 16913 H 1607.38 -6.2729 1.62517 0
M  V30 16914 N 1600.78 -0.180154 -1.56567 0
M  V30 16915 C 1602.03 0.463205 -1.97439 0
M  V30 16916 C 1602.36 1.62296 -1.06647 0
M  V30 16917 O 1601.64 1.94157 -0.115382 0
M  V30 16918 C 1601.92 0.937709 -3.47677 0
M  V30 16919 C 1601.77 -0.222835 -4.49248 0
M  V30 16920 C 1603.09 1.80836 -4.01231 0
M  V30 16921 H 1600.21 0.166899 -0.717854 0
M  V30 16922 H 1602.85 -0.268069 -1.88099 0
M  V30 16923 H 1601 1.56084 -3.55767 0
M  V30 16924 H 1602.67 -0.860155 -4.5321 0
M  V30 16925 H 1600.92 -0.876962 -4.24843 0
M  V30 16926 H 1601.59 0.151444 -5.51792 0
M  V30 16927 H 1604.06 1.28297 -3.95827 0
M  V30 16928 H 1602.94 2.10937 -5.06751 0
M  V30 16929 H 1603.2 2.75728 -3.45581 0
M  V30 16930 N 1602.26 1.57322 0.0935319 0
M  V30 16931 C 1603.49 1.90099 0.80907 0
M  V30 16932 C 1603.9 0.772198 1.72724 0
M  V30 16933 O 1603.24 -0.26468 1.81783 0
M  V30 16934 C 1603.3 3.18144 1.67405 0
M  V30 16935 C 1602.97 4.47488 0.927539 0
M  V30 16936 C 1603.96 5.19266 0.256635 0
M  V30 16937 C 1601.65 4.9415 0.901156 0
M  V30 16938 C 1603.64 6.35943 -0.430665 0
M  V30 16939 C 1601.33 6.10739 0.21007 0
M  V30 16940 C 1602.33 6.81485 -0.454661 0
M  V30 16941 O 1602.02 7.95852 -1.13466 0
M  V30 16942 H 1601.75 0.633287 0.236481 0
M  V30 16943 H 1604.3 2.05264 0.0747132 0
M  V30 16944 H 1602.53 2.99129 2.45068 0
M  V30 16945 H 1604.22 3.3674 2.2663 0
M  V30 16946 H 1604.99 4.84256 0.268468 0
M  V30 16947 H 1600.87 4.38972 1.408 0
M  V30 16948 H 1604.41 6.911 -0.950082 0
M  V30 16949 H 1600.31 6.45202 0.196089 0
M  V30 16950 H 1601.08 8.11844 -1.04172 0
M  V30 16951 N 1603.74 -0.364395 1.53329 0
M  V30 16952 C 1604.97 -1.12586 1.73228 0
M  V30 16953 C 1605.38 -1.83482 0.461614 0
M  V30 16954 O 1604.72 -1.74459 -0.575295 0
M  V30 16955 C 1604.78 -2.1994 2.84371 0
M  V30 16956 C 1604.45 -1.688 4.24683 0
M  V30 16957 C 1605.44 -1.15145 5.06989 0
M  V30 16958 C 1603.13 -1.74277 4.71097 0
M  V30 16959 C 1605.12 -0.676447 6.338 0
M  V30 16960 C 1602.81 -1.26389 5.97887 0
M  V30 16961 C 1603.81 -0.731632 6.7907 0
M  V30 16962 O 1603.49 -0.259825 8.0348 0
M  V30 16963 H 1603.23 -0.342514 0.582804 0
M  V30 16964 H 1605.78 -0.428832 2.00874 0
M  V30 16965 H 1604.01 -2.9314 2.52202 0
M  V30 16966 H 1605.7 -2.81489 2.92436 0
M  V30 16967 H 1606.47 -1.10251 4.72303 0
M  V30 16968 H 1602.34 -2.14647 4.0798 0
M  V30 16969 H 1605.89 -0.260327 6.97114 0
M  V30 16970 H 1601.79 -1.30977 6.32072 0
M  V30 16971 H 1602.55 -0.379044 8.17622 0
M  V30 16972 N 1605.22 -1.44709 -0.62426 0
M  V30 16973 C 1606.15 -1.54934 -1.74693 0
M  V30 16974 C 1607.13 -0.401897 -1.65284 0
M  V30 16975 O 1608.31 -0.622906 -1.83939 0
M  V30 16976 C 1605.44 -1.49976 -3.13248 0
M  V30 16977 C 1604.4 -2.63267 -3.37453 0
M  V30 16978 C 1603.72 -2.43362 -4.76108 0
M  V30 16979 C 1605.02 -4.0538 -3.2934 0
M  V30 16980 H 1606.72 -2.48905 -1.66393 0
M  V30 16981 H 1604.26 -1.19794 -0.799088 0
M  V30 16982 H 1606.22 -1.55729 -3.91569 0
M  V30 16983 H 1604.94 -0.525254 -3.22349 0
M  V30 16984 H 1603.6 -2.56915 -2.61515 0
M  V30 16985 H 1603.25 -1.44088 -4.81921 0
M  V30 16986 H 1602.95 -3.19324 -4.93261 0
M  V30 16987 H 1604.47 -2.50943 -5.56651 0
M  V30 16988 H 1605.88 -4.13064 -3.97556 0
M  V30 16989 H 1604.28 -4.81599 -3.58025 0
M  V30 16990 H 1605.35 -4.28465 -2.27038 0
M  V30 16991 N 1606.69 0.865285 -1.31722 0
M  V30 16992 C 1607.92 1.65661 -1.24785 0
M  V30 16993 C 1608.34 1.87208 0.182952 0
M  V30 16994 O 1607.7 1.41721 1.1307 0
M  V30 16995 C 1607.75 2.99921 -2.00199 0
M  V30 16996 O 1606.85 3.89936 -1.34253 0
M  V30 16997 H 1606.2 0.505459 -0.430589 0
M  V30 16998 H 1608.73 1.0785 -1.73867 0
M  V30 16999 H 1608.74 3.49823 -2.09971 0
M  V30 17000 H 1607.41 2.83559 -3.04249 0
M  V30 17001 H 1605.99 3.4839 -1.32961 0
M  V30 17002 N 1608.17 1.14759 1.0802 0
M  V30 17003 C 1609.42 0.929574 1.80916 0
M  V30 17004 C 1609.77 -0.53792 1.84727 0
M  V30 17005 O 1609.07 -1.39348 1.31501 0
M  V30 17006 C 1609.26 1.4692 3.25805 0
M  V30 17007 C 1609.09 2.98763 3.36111 0
M  V30 17008 C 1607.86 3.67248 3.47069 0
M  V30 17009 C 1610.06 3.966 3.27433 0
M  V30 17010 N 1608.04 5.06965 3.46207 0
M  V30 17011 C 1609.41 5.22594 3.33609 0
M  V30 17012 C 1611.47 3.88665 3.11197 0
M  V30 17013 C 1610.17 6.41579 3.25221 0
M  V30 17014 C 1612.19 5.07201 3.0414 0
M  V30 17015 C 1611.56 6.32066 3.10921 0
M  V30 17016 H 1607.66 0.393733 0.675647 0
M  V30 17017 H 1610.24 1.45842 1.2899 0
M  V30 17018 H 1608.41 0.967084 3.76168 0
M  V30 17019 H 1610.14 1.19071 3.86787 0
M  V30 17020 H 1606.9 3.17815 3.51128 0
M  V30 17021 H 1607.32 5.79917 3.49322 0
M  V30 17022 H 1611.96 2.93 3.04813 0
M  V30 17023 H 1609.68 7.37485 3.30365 0
M  V30 17024 H 1613.27 5.02815 2.92691 0
M  V30 17025 H 1612.15 7.22248 3.05495 0
M  V30 17026 N 1609.65 -1.26251 0.943322 0
M  V30 17027 C 1610.58 -2.28673 0.472347 0
M  V30 17028 C 1611.56 -1.63319 -0.475481 0
M  V30 17029 O 1612.75 -1.90508 -0.376875 0
M  V30 17030 C 1609.88 -3.46316 -0.261286 0
M  V30 17031 C 1608.83 -4.23771 0.600192 0
M  V30 17032 C 1608.16 -5.3405 -0.263525 0
M  V30 17033 C 1609.46 -4.87576 1.87262 0
M  V30 17034 H 1611.15 -2.68319 1.32836 0
M  V30 17035 H 1608.7 -1.28987 0.640182 0
M  V30 17036 H 1610.65 -4.1708 -0.601821 0
M  V30 17037 H 1609.37 -3.05629 -1.15146 0
M  V30 17038 H 1608.03 -3.54774 0.923651 0
M  V30 17039 H 1607.68 -4.89604 -1.15312 0
M  V30 17040 H 1607.38 -5.86784 0.309495 0
M  V30 17041 H 1608.9 -6.07652 -0.599281 0
M  V30 17042 H 1610.32 -5.50544 1.59919 0
M  V30 17043 H 1608.72 -5.50437 2.39038 0
M  V30 17044 H 1609.79 -4.10397 2.58268 0
M  V30 17045 N 1611.13 -0.710588 -1.40671 0
M  V30 17046 C 1612.55 -0.383638 -1.54921 0
M  V30 17047 C 1612.75 1.10805 -1.68299 0
M  V30 17048 O 1611.8 1.89406 -1.66978 0
M  V30 17049 C 1613.11 -1.14532 -2.78034 0
M  V30 17050 C 1614.66 -1.13113 -2.91847 0
M  V30 17051 C 1615.14 -1.87487 -4.17867 0
M  V30 17052 N 1616.63 -1.8453 -4.24856 0
M  V30 17053 C 1617.36 -2.38904 -5.2126 0
M  V30 17054 N 1616.86 -3.01813 -6.23603 0
M  V30 17055 N 1618.65 -2.29075 -5.13304 0
M  V30 17056 H 1610.8 -1.67789 -1.30233 0
M  V30 17057 H 1613.07 -0.70892 -0.629393 0
M  V30 17058 H 1612.77 -2.19983 -2.74409 0
M  V30 17059 H 1612.65 -0.733669 -3.69996 0
M  V30 17060 H 1615.03 -0.0848347 -2.94978 0
M  V30 17061 H 1615.11 -1.58196 -2.01017 0
M  V30 17062 H 1614.76 -2.92104 -4.15497 0
M  V30 17063 H 1614.69 -1.39827 -5.07697 0
M  V30 17064 H 1617.18 -1.38679 -3.51535 0
M  V30 17065 H 1617.49 -3.40832 -6.9358 0
M  V30 17066 H 1615.84 -3.05896 -6.24062 0
M  V30 17067 H 1619.03 -1.79589 -4.32279 0
M  V30 17068 H 1619.2 -2.71752 -5.88264 0
M  V30 17069 N 1612.61 1.50847 -0.456408 0
M  V30 17070 C 1613.56 2.29805 0.359529 0
M  V30 17071 C 1614.55 1.3646 1.00374 0
M  V30 17072 O 1615.76 1.53718 0.936524 0
M  V30 17073 H 1612.13 0.739825 0.134772 0
M  V30 17074 H 1614.1 2.96603 -0.327009 0
M  V30 17075 C 1612.85 3.16597 1.43741 0
M  V30 17076 H 1612.17 3.88323 0.95108 0
M  V30 17077 H 1613.61 3.74866 1.98119 0
M  V30 17078 C 1612.07 2.3322 2.43126 0
M  V30 17079 O 1612.6 2.00504 3.48082 0
M  V30 17080 N 1610.81 1.96078 2.1448 0
M  V30 17081 H 1610.36 2.22883 1.29155 0
M  V30 17082 H 1610.31 1.40592 2.81214 0
M  V30 17083 N 1614.09 0.188454 1.56469 0
M  V30 17084 C 1615.03 -0.735074 2.18781 0
M  V30 17085 C 1616 -1.21459 1.133 0
M  V30 17086 O 1617.19 -1.27967 1.41524 0
M  V30 17087 C 1614.33 -1.95181 2.84602 0
M  V30 17088 C 1613.44 -1.51428 4.0459 0
M  V30 17089 C 1612.58 -2.68601 4.58287 0
M  V30 17090 C 1611.61 -2.21422 5.70648 0
M  V30 17091 N 1610.75 -3.31749 6.18779 0
M  V30 17092 H 1615.59 -0.19694 2.97349 0
M  V30 17093 H 1613.13 -0.0854693 1.46851 0
M  V30 17094 H 1615.09 -2.66571 3.2093 0
M  V30 17095 H 1613.72 -2.46337 2.0861 0
M  V30 17096 H 1612.77 -0.6965 3.73969 0
M  V30 17097 H 1614.08 -1.1281 4.85876 0
M  V30 17098 H 1613.23 -3.48123 4.96885 0
M  V30 17099 H 1611.97 -3.1049 3.76095 0
M  V30 17100 H 1610.98 -1.40352 5.31584 0
M  V30 17101 H 1612.2 -1.80572 6.54653 0
M  V30 17102 H 1610.15 -3.73181 5.39511 0
M  V30 17103 H 1610.07 -2.97277 6.95099 0
M  V30 17104 H 1611.33 -4.11504 6.62031 0
M  V30 17105 N 1615.56 -1.5737 -0.0851874 0
M  V30 17106 C 1616.81 -1.85772 -0.785604 0
M  V30 17107 C 1617.13 -0.779172 -1.79411 0
M  V30 17108 O 1618.33 -0.950621 -2.54314 0
M  V30 17109 C 1616.79 -3.29484 -1.44805 0
M  V30 17110 C 1616.4 -4.45434 -0.478799 0
M  V30 17111 C 1618.14 -3.671 -2.13161 0
M  V30 17112 C 1616.05 -5.80183 -1.1464 0
M  V30 17113 H 1614.98 -0.69298 -0.297145 0
M  V30 17114 H 1617.63 -1.83459 -0.0386776 0
M  V30 17115 H 1616.01 -3.26367 -2.24278 0
M  V30 17116 H 1617.18 -4.59917 0.285148 0
M  V30 17117 H 1615.5 -4.16281 0.0995964 0
M  V30 17118 H 1618.1 -4.65061 -2.6386 0
M  V30 17119 H 1618.44 -2.96223 -2.92503 0
M  V30 17120 H 1618.97 -3.72148 -1.40536 0
M  V30 17121 H 1615.71 -6.54317 -0.393583 0
M  V30 17122 H 1615.23 -5.69525 -1.88153 0
M  V30 17123 H 1616.91 -6.25074 -1.67006 0
M  V30 17124 N 1617.04 0.356258 -1.53521 0
M  V30 17125 C 1617.97 1.44271 -1.83598 0
M  V30 17126 C 1618.95 1.5547 -0.690141 0
M  V30 17127 O 1620.14 1.69886 -0.940868 0
M  V30 17128 C 1617.27 2.8149 -2.03422 0
M  V30 17129 C 1616.22 2.85108 -3.19213 0
M  V30 17130 C 1615.55 4.25091 -3.24348 0
M  V30 17131 C 1616.85 2.51788 -4.57602 0
M  V30 17132 H 1618.54 1.1935 -2.74583 0
M  V30 17133 H 1616.09 0.572707 -1.32121 0
M  V30 17134 H 1618.04 3.57531 -2.23046 0
M  V30 17135 H 1616.76 3.07819 -1.09155 0
M  V30 17136 H 1615.42 2.1152 -2.99424 0
M  V30 17137 H 1615.07 4.4851 -2.277 0
M  V30 17138 H 1614.77 4.28426 -4.0215 0
M  V30 17139 H 1616.3 5.02992 -3.46167 0
M  V30 17140 H 1617.71 3.17542 -4.77326 0
M  V30 17141 H 1616.11 2.66426 -5.37715 0
M  V30 17142 H 1617.18 1.4701 -4.62078 0
M  V30 17143 N 1618.52 1.45038 0.616577 0
M  V30 17144 C 1619.47 1.49451 1.72187 0
M  V30 17145 C 1620.45 0.358711 1.5685 0
M  V30 17146 O 1621.65 0.604983 1.6634 0
M  V30 17147 C 1618.77 1.45551 3.10918 0
M  V30 17148 C 1617.86 2.643 3.31672 0
M  V30 17149 N 1618.25 3.89462 3.22727 0
M  V30 17150 C 1616.55 2.59805 3.62515 0
M  V30 17151 C 1617.25 4.68667 3.44567 0
M  V30 17152 N 1616.23 3.99974 3.68132 0
M  V30 17153 H 1620.03 2.44055 1.6375 0
M  V30 17154 H 1617.54 1.40205 0.819538 0
M  V30 17155 H 1619.54 1.46797 3.902 0
M  V30 17156 H 1618.2 0.519966 3.2051 0
M  V30 17157 H 1619.21 4.21217 3.01325 0
M  V30 17158 H 1615.89 1.75117 3.78999 0
M  V30 17159 H 1617.28 5.77683 3.43121 0
M  V30 17160 N 1620 -0.858287 1.32179 0
M  V30 17161 C 1620.95 -1.98796 1.2076 0
M  V30 17162 C 1621.94 -1.69021 0.11322 0
M  V30 17163 O 1623.15 -1.77873 0.275903 0
M  V30 17164 H 1619.52 -0.652269 0.374232 0
M  V30 17165 H 1621.49 -2.05555 2.1631 0
M  V30 17166 C 1620.24 -3.34646 0.943787 0
M  V30 17167 H 1619.56 -3.58084 1.77808 0
M  V30 17168 H 1621 -4.14248 0.904121 0
M  V30 17169 C 1619.46 -3.35041 -0.353477 0
M  V30 17170 O 1619.99 -3.77742 -1.36652 0
M  V30 17171 N 1618.2 -2.88181 -0.374164 0
M  V30 17172 H 1617.75 -2.53626 0.45075 0
M  V30 17173 H 1617.7 -2.88828 -1.24201 0
M  V30 17174 N 1621.48 -1.1533 -1.07409 0
M  V30 17175 C 1622.75 -0.838341 -1.76724 0
M  V30 17176 C 1623.13 0.666169 -2.00313 0
M  V30 17177 O 1622.48 1.61033 -1.62113 0
M  V30 17178 C 1622.69 -1.64846 -3.07615 0
M  V30 17179 C 1624.04 -1.85429 -3.8197 0
M  V30 17180 O 1625.06 -1.61617 -3.17424 0
M  V30 17181 O 1623.92 -2.25305 -4.97896 0
M  V30 17182 H 1621.02 -0.308242 -0.767408 0
M  V30 17183 H 1623.56 -1.25905 -1.1378 0
M  V30 17184 H 1622.33 -2.66995 -2.86058 0
M  V30 17185 H 1621.96 -1.22405 -3.78289 0
M  V30 17186 N 1622.95 1.25748 -0.950004 0
M  V30 17187 C 1624.36 1.75253 -0.643694 0
M  V30 17188 C 1624.72 1.77261 0.841017 0
M  V30 17189 O 1623.84 1.39043 1.65819 0
M  V30 17190 C 1624.44 3.1826 -1.16173 0
M  V30 17191 C 1622.99 3.65342 -0.905672 0
M  V30 17192 C 1622.14 2.4454 -1.30749 0
M  V30 17193 H 1625.09 1.117 -1.12733 0
M  V30 17194 H 1625.11 3.76935 -0.519651 0
M  V30 17195 H 1624.63 3.16766 -2.24234 0
M  V30 17196 H 1622.73 3.72256 0.160174 0
M  V30 17197 H 1622.84 4.53713 -1.53888 0
M  V30 17198 H 1621.2 2.44138 -0.725876 0
M  V30 17199 H 1621.99 2.45741 -2.39721 0
M  V30 17200 N 1624.43 0.718038 1.40292 0
M  V30 17201 C 1625.34 0.0681535 2.34501 0
M  V30 17202 C 1626.36 -0.741048 1.57431 0
M  V30 17203 O 1627.53 -0.673437 1.89807 0
M  V30 17204 C 1624.6 -0.840758 3.36351 0
M  V30 17205 C 1623.66 -0.0212287 4.29295 0
M  V30 17206 C 1622.89 -0.886852 5.2628 0
M  V30 17207 O 1623.12 -2.12603 5.29298 0
M  V30 17208 O 1622.05 -0.324537 6.01024 0
M  V30 17209 H 1625.88 0.845288 2.91699 0
M  V30 17210 H 1623.46 0.478541 1.41529 0
M  V30 17211 H 1625.34 -1.36131 3.98806 0
M  V30 17212 H 1624.02 -1.597 2.81563 0
M  V30 17213 H 1622.92 0.544451 3.70117 0
M  V30 17214 H 1624.26 0.696846 4.87242 0
M  V30 17215 N 1625.91 -1.50602 0.464402 0
M  V30 17216 C 1627.16 -2.02587 -0.0930295 0
M  V30 17217 C 1627.49 -1.34618 -1.3997 0
M  V30 17218 O 1626.76 -0.469711 -1.88743 0
M  V30 17219 C 1627.05 -3.5898 -0.283783 0
M  V30 17220 C 1626.9 -4.3753 1.04344 0
M  V30 17221 C 1628.22 -4.27602 -1.04138 0
M  V30 17222 H 1625.34 -0.73629 -0.0323356 0
M  V30 17223 H 1627.98 -1.79986 0.608687 0
M  V30 17224 H 1626.13 -3.78368 -0.881488 0
M  V30 17225 H 1627.8 -4.29729 1.67721 0
M  V30 17226 H 1626.05 -4.01536 1.64168 0
M  V30 17227 H 1626.72 -5.45201 0.863691 0
M  V30 17228 H 1629.19 -4.12649 -0.534822 0
M  V30 17229 H 1628.07 -5.36854 -1.14364 0
M  V30 17230 H 1628.33 -3.9031 -2.0763 0
M  V30 17231 N 1627.39 -0.19675 -1.56367 0
M  V30 17232 C 1628.3 0.735372 -2.22777 0
M  V30 17233 C 1629.31 1.23336 -1.22737 0
M  V30 17234 O 1630.49 1.28017 -1.55479 0
M  V30 17235 C 1627.56 1.93706 -2.8754 0
M  V30 17236 C 1626.62 1.48348 -4.02854 0
M  V30 17237 C 1625.85 2.62788 -4.64519 0
M  V30 17238 O 1626.07 3.80311 -4.25111 0
M  V30 17239 O 1625.01 2.35406 -5.53956 0
M  V30 17240 H 1628.83 0.199788 -3.03042 0
M  V30 17241 H 1626.42 0.0326149 -1.49364 0
M  V30 17242 H 1628.3 2.63934 -3.28507 0
M  V30 17243 H 1626.97 2.46121 -2.10252 0
M  V30 17244 H 1625.88 0.749939 -3.66506 0
M  V30 17245 H 1627.21 1.00597 -4.8181 0
M  V30 17246 N 1628.87 1.57413 0.0768405 0
M  V30 17247 C 1629.81 2.0334 1.09185 0
M  V30 17248 C 1630.78 0.913073 1.38752 0
M  V30 17249 O 1631.97 1.18038 1.49906 0
M  V30 17250 C 1629.11 2.47805 2.40181 0
M  V30 17251 C 1628.22 3.73435 2.17188 0
M  V30 17252 C 1627.36 4.06703 3.41711 0
M  V30 17253 C 1626.4 5.25388 3.1406 0
M  V30 17254 N 1625.53 5.54319 4.309 0
M  V30 17255 H 1630.37 2.89825 0.693223 0
M  V30 17256 H 1627.91 1.43334 0.330736 0
M  V30 17257 H 1629.87 2.71635 3.16655 0
M  V30 17258 H 1628.5 1.64305 2.77856 0
M  V30 17259 H 1627.55 3.56974 1.3143 0
M  V30 17260 H 1628.86 4.60049 1.9276 0
M  V30 17261 H 1628.02 4.31407 4.26583 0
M  V30 17262 H 1626.75 3.18646 3.6921 0
M  V30 17263 H 1625.76 5.00486 2.27583 0
M  V30 17264 H 1626.98 6.15059 2.87888 0
M  V30 17265 H 1624.93 4.69222 4.5844 0
M  V30 17266 H 1624.85 6.35342 4.09727 0
M  V30 17267 H 1626.12 5.83571 5.16783 0
M  V30 17268 N 1630.34 -0.348112 1.53707 0
M  V30 17269 C 1631.29 -1.42729 1.81375 0
M  V30 17270 C 1632.26 -1.52461 0.659159 0
M  V30 17271 O 1633.45 -1.68072 0.903129 0
M  V30 17272 C 1630.59 -2.79443 2.02498 0
M  V30 17273 C 1629.7 -2.7854 3.30211 0
M  V30 17274 C 1628.83 -4.06942 3.41426 0
M  V30 17275 C 1627.87 -4.00248 4.63106 0
M  V30 17276 N 1627.01 -5.20332 4.7138 0
M  V30 17277 H 1631.85 -1.18436 2.73454 0
M  V30 17278 H 1629.39 -0.573809 1.35447 0
M  V30 17279 H 1631.35 -3.58888 2.12733 0
M  V30 17280 H 1629.98 -3.02099 1.13737 0
M  V30 17281 H 1629.03 -1.91227 3.28841 0
M  V30 17282 H 1630.34 -2.69471 4.19746 0
M  V30 17283 H 1629.49 -4.94808 3.51069 0
M  V30 17284 H 1628.23 -4.18786 2.49939 0
M  V30 17285 H 1627.24 -3.10767 4.53546 0
M  V30 17286 H 1628.46 -3.89991 5.55953 0
M  V30 17287 H 1626.41 -5.32729 3.828 0
M  V30 17288 H 1626.33 -5.13502 5.54844 0
M  V30 17289 H 1627.59 -6.09982 4.85326 0
M  V30 17290 N 1631.82 -1.45363 -0.608876 0
M  V30 17291 C 1632.75 -1.49944 -1.73348 0
M  V30 17292 C 1633.77 -0.390352 -1.58051 0
M  V30 17293 O 1634.96 -0.657338 -1.65956 0
M  V30 17294 C 1632.06 -1.33886 -3.11332 0
M  V30 17295 C 1631.23 -2.58445 -3.52881 0
M  V30 17296 C 1630.29 -2.36963 -4.69825 0
M  V30 17297 O 1629.31 -3.10569 -4.77007 0
M  V30 17298 N 1630.52 -1.41442 -5.63005 0
M  V30 17299 H 1633.28 -2.46902 -1.69882 0
M  V30 17300 H 1630.84 -1.41086 -0.794119 0
M  V30 17301 H 1632.83 -1.17327 -3.8732 0
M  V30 17302 H 1631.4 -0.452095 -3.09314 0
M  V30 17303 H 1630.62 -2.90129 -2.66869 0
M  V30 17304 H 1631.91 -3.41245 -3.77398 0
M  V30 17305 H 1631.31 -0.806941 -5.59915 0
M  V30 17306 H 1629.87 -1.30855 -6.3853 0
M  V30 17307 N 1633.3 0.851265 -1.32632 0
M  V30 17308 C 1634.55 1.60252 -1.23141 0
M  V30 17309 C 1634.87 1.93909 0.205946 0
M  V30 17310 O 1634.14 1.59914 1.13156 0
M  V30 17311 H 1632.72 0.594137 -0.452781 0
M  V30 17312 H 1635.38 1.01806 -1.66197 0
M  V30 17313 H 1634.48 2.53796 -1.81643 0
M  V30 17314 N 1634.78 1.15898 1.06796 0
M  V30 17315 C 1636.02 0.94871 1.7992 0
M  V30 17316 C 1636.38 -0.518297 1.85287 0
M  V30 17317 O 1635.67 -1.37946 1.32972 0
M  V30 17318 C 1635.87 1.50368 3.24229 0
M  V30 17319 C 1635.7 3.02311 3.32923 0
M  V30 17320 C 1634.47 3.70908 3.43155 0
M  V30 17321 C 1636.66 4.00051 3.23209 0
M  V30 17322 N 1634.65 5.10609 3.4081 0
M  V30 17323 C 1636.02 5.26103 3.28048 0
M  V30 17324 C 1638.07 3.91944 3.07058 0
M  V30 17325 C 1636.77 6.44993 3.18397 0
M  V30 17326 C 1638.8 5.10398 2.98743 0
M  V30 17327 C 1638.16 6.35328 3.042 0
M  V30 17328 H 1634.26 0.400877 0.671433 0
M  V30 17329 H 1636.85 1.47202 1.27436 0
M  V30 17330 H 1635.02 1.00693 3.75121 0
M  V30 17331 H 1636.75 1.23166 3.85502 0
M  V30 17332 H 1633.5 3.21521 3.47737 0
M  V30 17333 H 1633.93 5.83589 3.43151 0
M  V30 17334 H 1638.57 2.96216 3.01688 0
M  V30 17335 H 1636.29 7.40948 3.22524 0
M  V30 17336 H 1639.87 5.05891 2.87342 0
M  V30 17337 H 1638.75 7.25448 2.97818 0
M  V30 17338 N 1636.26 -1.25243 0.956659 0
M  V30 17339 C 1637.48 -1.97082 0.629791 0
M  V30 17340 C 1637.9 -1.71082 -0.798529 0
M  V30 17341 O 1637.26 -0.98805 -1.5344 0
M  V30 17342 C 1637.31 -3.5059 0.881406 0
M  V30 17343 O 1637.03 -3.75694 2.25356 0
M  V30 17344 C 1638.53 -4.39656 0.567203 0
M  V30 17345 H 1635.75 -0.628152 0.235938 0
M  V30 17346 H 1638.29 -1.5936 1.28159 0
M  V30 17347 H 1636.45 -3.86416 0.27599 0
M  V30 17348 H 1636.86 -4.70142 2.32523 0
M  V30 17349 H 1638.34 -5.46263 0.793785 0
M  V30 17350 H 1638.81 -4.36364 -0.498287 0
M  V30 17351 H 1639.42 -4.094 1.15203 0
M  V30 17352 N 1637.73 -0.725468 -1.3991 0
M  V30 17353 C 1638.96 -0.279202 -2.05007 0
M  V30 17354 C 1639.38 1.08257 -1.5468 0
M  V30 17355 O 1638.73 1.68224 -0.707585 0
M  V30 17356 C 1638.79 -0.261347 -3.60554 0
M  V30 17357 O 1638.51 -1.56935 -4.09027 0
M  V30 17358 C 1640.01 0.202259 -4.42838 0
M  V30 17359 H 1637.23 -0.123664 -0.659506 0
M  V30 17360 H 1639.77 -0.986447 -1.79135 0
M  V30 17361 H 1637.93 0.396936 -3.85361 0
M  V30 17362 H 1638.34 -1.47647 -5.0329 0
M  V30 17363 H 1639.81 0.163598 -5.51758 0
M  V30 17364 H 1640.29 1.24597 -4.21156 0
M  V30 17365 H 1640.9 -0.426108 -4.2316 0
M  V30 17366 N 1639.21 1.50354 -0.472382 0
M  V30 17367 C 1640.46 2.02633 0.0822846 0
M  V30 17368 C 1640.79 1.35358 1.39254 0
M  V30 17369 O 1640.07 0.479714 1.88491 0
M  V30 17370 C 1640.35 3.59126 0.264742 0
M  V30 17371 C 1640.2 4.3697 -1.06663 0
M  V30 17372 C 1641.52 4.28148 1.01869 0
M  V30 17373 H 1638.64 0.736451 0.0284304 0
M  V30 17374 H 1641.28 1.79661 -0.618224 0
M  V30 17375 H 1639.43 3.7883 0.86141 0
M  V30 17376 H 1641.1 4.28834 -1.69997 0
M  V30 17377 H 1639.35 4.0066 -1.66295 0
M  V30 17378 H 1640.02 5.44736 -0.892592 0
M  V30 17379 H 1642.49 4.12926 0.512931 0
M  V30 17380 H 1641.37 5.37453 1.11515 0
M  V30 17381 H 1641.63 3.91406 2.05557 0
M  V30 17382 N 1640.69 0.205039 1.56261 0
M  V30 17383 C 1641.94 -0.430245 1.97467 0
M  V30 17384 C 1642.26 -1.6146 1.09342 0
M  V30 17385 O 1641.53 -1.95188 0.166836 0
M  V30 17386 H 1640.11 -0.161945 0.729234 0
M  V30 17387 H 1642.77 0.294089 1.92668 0
M  V30 17388 H 1641.87 -0.767699 3.02511 0
M  V30 17389 N 1642.17 -1.57451 -0.0684915 0
M  V30 17390 C 1643.45 -1.78483 -0.800209 0
M  V30 17391 C 1643.83 -0.793438 -1.95621 0
M  V30 17392 O 1643.17 0.172756 -2.27846 0
M  V30 17393 C 1643.38 -3.25069 -1.27008 0
M  V30 17394 C 1644.73 -3.8899 -1.70212 0
M  V30 17395 O 1645.76 -3.2898 -1.36566 0
M  V30 17396 O 1644.62 -4.94569 -2.32515 0
M  V30 17397 H 1641.71 -0.732598 -0.383704 0
M  V30 17398 H 1644.26 -1.69631 -0.0483117 0
M  V30 17399 H 1643.03 -3.88784 -0.443067 0
M  V30 17400 H 1642.65 -3.38657 -2.08319 0
M  V30 17401 N 1643.65 0.339955 -1.5389 0
M  V30 17402 C 1644.58 1.44096 -1.76951 0
M  V30 17403 C 1645.56 1.50367 -0.618758 0
M  V30 17404 O 1646.74 1.68028 -0.854329 0
M  V30 17405 C 1643.87 2.82307 -1.87137 0
M  V30 17406 C 1642.92 2.93645 -3.09314 0
M  V30 17407 S 1643.75 2.59742 -4.68288 0
M  V30 17408 C 1644.9 4.00055 -4.81359 0
M  V30 17409 H 1645.14 1.24318 -2.7006 0
M  V30 17410 H 1642.67 0.535835 -1.44804 0
M  V30 17411 H 1644.63 3.61931 -1.93692 0
M  V30 17412 H 1643.29 2.99378 -0.950349 0
M  V30 17413 H 1642.48 3.94927 -3.13127 0
M  V30 17414 H 1642.08 2.21974 -3.01004 0
M  V30 17415 H 1644.38 4.94619 -4.62989 0
M  V30 17416 H 1645.32 4.01234 -5.83452 0
M  V30 17417 H 1645.73 3.88248 -4.09785 0
M  V30 17418 N 1645.13 1.45684 0.601159 0
M  V30 17419 C 1646.04 1.57396 1.73965 0
M  V30 17420 C 1647.05 0.458133 1.6786 0
M  V30 17421 O 1648.23 0.719717 1.88101 0
M  V30 17422 C 1645.29 1.54363 3.1044 0
M  V30 17423 C 1644.35 2.77034 3.27949 0
M  V30 17424 C 1643.59 2.74136 4.57914 0
M  V30 17425 O 1643.81 1.81829 5.40643 0
M  V30 17426 O 1642.74 3.65428 4.78274 0
M  V30 17427 H 1646.57 2.5364 1.67034 0
M  V30 17428 H 1644.15 1.28267 0.766017 0
M  V30 17429 H 1646.04 1.55302 3.91739 0
M  V30 17430 H 1644.71 0.612723 3.17848 0
M  V30 17431 H 1643.62 2.81655 2.46214 0
M  V30 17432 H 1644.95 3.69272 3.25422 0
M  V30 17433 N 1646.6 -0.84422 1.33082 0
M  V30 17434 C 1647.85 -1.59596 1.2399 0
M  V30 17435 C 1648.17 -1.94016 -0.19566 0
M  V30 17436 O 1647.44 -1.60512 -1.12306 0
M  V30 17437 H 1646.02 -0.591727 0.455926 0
M  V30 17438 H 1648.68 -1.00924 1.66735 0
M  V30 17439 H 1647.78 -2.52829 1.82986 0
M  V30 17440 N 1648.08 -1.16463 -1.0618 0
M  V30 17441 C 1649.32 -0.957536 -1.80584 0
M  V30 17442 C 1649.69 0.505554 -1.85225 0
M  V30 17443 O 1650.89 0.831384 -2.5562 0
M  V30 17444 C 1649.16 -1.56919 -3.21109 0
M  V30 17445 S 1650.72 -1.5069 -4.12114 0
M  V30 17446 H 1647.53 -0.344329 -0.62206 0
M  V30 17447 H 1650.14 -1.48228 -1.2747 0
M  V30 17448 H 1648.84 -2.62672 -3.15328 0
M  V30 17449 H 1648.37 -1.04382 -3.79299 0
M  V30 17450 H 1650.39 -0.507956 -4.93593 0
M  V30 17451 N 1649.56 1.24734 -0.963288 0
M  V30 17452 C 1650.81 1.92305 -0.621536 0
M  V30 17453 C 1651.13 1.75723 0.845363 0
M  V30 17454 O 1650.4 1.1261 1.60299 0
M  V30 17455 H 1648.98 0.71171 -0.226886 0
M  V30 17456 H 1651.64 1.5172 -1.2234 0
M  V30 17457 H 1650.74 3.00065 -0.858322 0
M  V30 17458 N 1651.04 0.732878 1.39523 0
M  V30 17459 C 1651.99 0.0676184 2.279 0
M  V30 17460 C 1652.97 -0.7148 1.44151 0
M  V30 17461 O 1654.16 -0.584158 1.67083 0
M  V30 17462 C 1651.29 -0.840482 3.32853 0
M  V30 17463 C 1650.38 -0.052326 4.24068 0
M  V30 17464 N 1650.77 0.973429 4.96345 0
M  V30 17465 C 1649.07 -0.282301 4.45106 0
M  V30 17466 C 1649.77 1.44851 5.63376 0
M  V30 17467 N 1648.74 0.767499 5.38155 0
M  V30 17468 H 1652.55 0.853533 2.81233 0
M  V30 17469 H 1650.06 0.567016 1.5218 0
M  V30 17470 H 1652.06 -1.33254 3.95031 0
M  V30 17471 H 1650.72 -1.62558 2.81078 0
M  V30 17472 H 1651.73 1.35474 4.99867 0
M  V30 17473 H 1648.41 -1.04237 4.04278 0
M  V30 17474 H 1649.8 2.30179 6.31242 0
M  V30 17475 N 1652.52 -1.50101 0.480349 0
M  V30 17476 C 1653.75 -2.06486 -0.0687482 0
M  V30 17477 C 1654.15 -1.34334 -1.33233 0
M  V30 17478 O 1653.5 -0.408976 -1.7909 0
M  V30 17479 C 1653.56 -3.57114 -0.413522 0
M  V30 17480 C 1653.22 -4.50814 0.749361 0
M  V30 17481 C 1654.22 -4.93554 1.63404 0
M  V30 17482 C 1651.9 -4.93382 0.942313 0
M  V30 17483 C 1653.9 -5.77577 2.696 0
M  V30 17484 C 1651.59 -5.77186 2.00748 0
M  V30 17485 C 1652.58 -6.19185 2.88268 0
M  V30 17486 O 1652.27 -7.01317 3.92949 0
M  V30 17487 H 1652 -0.675954 0.00792111 0
M  V30 17488 H 1654.56 -1.94135 0.670863 0
M  V30 17489 H 1652.79 -3.67399 -1.20645 0
M  V30 17490 H 1654.48 -3.95824 -0.89879 0
M  V30 17491 H 1655.24 -4.61329 1.4967 0
M  V30 17492 H 1651.12 -4.60206 0.270534 0
M  V30 17493 H 1654.67 -6.10279 3.37942 0
M  V30 17494 H 1650.56 -6.08824 2.14486 0
M  V30 17495 H 1651.33 -7.19585 3.9005 0
M  V30 17496 N 1653.99 -0.213323 -1.5615 0
M  V30 17497 C 1655.41 0.142215 -1.58965 0
M  V30 17498 C 1655.61 1.59606 -1.22996 0
M  V30 17499 O 1654.67 2.33485 -0.961308 0
M  V30 17500 C 1655.98 -0.176632 -3.00181 0
M  V30 17501 C 1657.53 -0.118205 -3.12777 0
M  V30 17502 C 1658 -0.410614 -4.56156 0
M  V30 17503 N 1659.49 -0.359887 -4.618 0
M  V30 17504 C 1660.23 -0.559744 -5.70661 0
M  V30 17505 N 1659.72 -0.820934 -6.87919 0
M  V30 17506 N 1661.52 -0.492746 -5.59936 0
M  V30 17507 H 1653.67 -1.16182 -1.77807 0
M  V30 17508 H 1655.93 -0.465086 -0.826075 0
M  V30 17509 H 1655.64 -1.18538 -3.31122 0
M  V30 17510 H 1655.51 0.512256 -3.73705 0
M  V30 17511 H 1657.9 0.88117 -2.81637 0
M  V30 17512 H 1657.98 -0.840446 -2.41599 0
M  V30 17513 H 1657.62 -1.40739 -4.88011 0
M  V30 17514 H 1657.55 0.332725 -5.25548 0
M  V30 17515 H 1660.04 -0.16537 -3.77538 0
M  V30 17516 H 1660.36 -0.961755 -7.66792 0
M  V30 17517 H 1658.7 -0.858036 -6.89683 0
M  V30 17518 H 1661.89 -0.288981 -4.67207 0
M  V30 17519 H 1662.07 -0.651912 -6.44712 0
M  V30 17520 N 1655.47 1.57485 0.0601405 0
M  V30 17521 C 1656.72 1.88094 0.758192 0
M  V30 17522 C 1657.05 0.807138 1.76632 0
M  V30 17523 O 1656.33 -0.181347 1.93653 0
M  V30 17524 C 1656.61 3.29363 1.45574 0
M  V30 17525 C 1656.46 4.47408 0.463233 0
M  V30 17526 C 1657.78 3.69048 2.39773 0
M  V30 17527 H 1654.9 0.684106 0.274169 0
M  V30 17528 H 1657.54 1.89988 0.0212215 0
M  V30 17529 H 1655.69 3.27879 2.08393 0
M  V30 17530 H 1657.36 4.6102 -0.160641 0
M  V30 17531 H 1655.61 4.3324 -0.220408 0
M  V30 17532 H 1656.28 5.43065 0.989164 0
M  V30 17533 H 1658.75 3.71701 1.87024 0
M  V30 17534 H 1657.63 4.68761 2.85577 0
M  V30 17535 H 1657.89 2.9961 3.25094 0
M  V30 17536 N 1656.95 -0.331789 1.54068 0
M  V30 17537 C 1658.2 -1.07228 1.72134 0
M  V30 17538 C 1658.53 -1.87936 0.489265 0
M  V30 17539 O 1657.8 -1.87592 -0.513761 0
M  V30 17540 C 1658.09 -2.00379 2.99199 0
M  V30 17541 C 1657.94 -1.23056 4.3264 0
M  V30 17542 C 1659.26 -3.00026 3.21982 0
M  V30 17543 H 1656.38 -0.388428 0.626333 0
M  V30 17544 H 1659.02 -0.34971 1.86754 0
M  V30 17545 H 1657.17 -2.61993 2.86865 0
M  V30 17546 H 1658.84 -0.639661 4.56844 0
M  V30 17547 H 1657.09 -0.532717 4.30517 0
M  V30 17548 H 1657.76 -1.91411 5.17751 0
M  V30 17549 H 1660.23 -2.48531 3.33724 0
M  V30 17550 H 1659.11 -3.62395 4.12263 0
M  V30 17551 H 1659.37 -3.72041 2.38826 0
M  V30 17552 N 1658.43 -1.46001 -0.593424 0
M  V30 17553 C 1659.38 -1.55752 -1.70323 0
M  V30 17554 C 1660.35 -0.402466 -1.6115 0
M  V30 17555 O 1661.53 -0.617804 -1.80521 0
M  V30 17556 C 1658.67 -1.54362 -3.08653 0
M  V30 17557 C 1657.78 -2.80523 -3.28529 0
M  V30 17558 C 1656.92 -2.70709 -4.57045 0
M  V30 17559 C 1655.96 -3.91857 -4.70228 0
M  V30 17560 N 1655.09 -3.80494 -5.90059 0
M  V30 17561 H 1659.93 -2.50555 -1.61326 0
M  V30 17562 H 1657.47 -1.24313 -0.786425 0
M  V30 17563 H 1659.43 -1.51542 -3.88704 0
M  V30 17564 H 1658.06 -0.630986 -3.16573 0
M  V30 17565 H 1657.11 -2.93368 -2.42155 0
M  V30 17566 H 1658.42 -3.70341 -3.3414 0
M  V30 17567 H 1657.58 -2.65935 -5.45311 0
M  V30 17568 H 1656.32 -1.78513 -4.53855 0
M  V30 17569 H 1655.32 -3.96975 -3.80383 0
M  V30 17570 H 1656.55 -4.85136 -4.75205 0
M  V30 17571 H 1654.49 -2.91077 -5.87886 0
M  V30 17572 H 1654.41 -4.63958 -5.96891 0
M  V30 17573 H 1655.68 -3.79676 -6.80783 0
M  V30 17574 N 1659.91 0.83715 -1.33527 0
M  V30 17575 C 1661.14 1.6222 -1.27938 0
M  V30 17576 C 1661.54 1.88592 0.151584 0
M  V30 17577 O 1660.89 1.46772 1.1047 0
M  V30 17578 C 1660.95 2.99561 -1.98754 0
M  V30 17579 C 1660.61 2.96152 -3.48056 0
M  V30 17580 C 1661.61 2.71745 -4.43227 0
M  V30 17581 C 1659.3 3.16233 -3.90259 0
M  V30 17582 C 1661.29 2.67451 -5.78575 0
M  V30 17583 C 1658.98 3.11564 -5.2571 0
M  V30 17584 C 1659.97 2.87204 -6.1968 0
M  V30 17585 O 1659.66 2.82441 -7.5265 0
M  V30 17586 H 1659.39 0.511419 -0.442071 0
M  V30 17587 H 1661.95 1.05075 -1.76489 0
M  V30 17588 H 1660.18 3.58568 -1.44797 0
M  V30 17589 H 1661.87 3.60444 -1.86642 0
M  V30 17590 H 1662.63 2.5598 -4.11946 0
M  V30 17591 H 1658.51 3.34214 -3.17525 0
M  V30 17592 H 1662.06 2.48356 -6.51893 0
M  V30 17593 H 1657.95 3.26879 -5.56615 0
M  V30 17594 H 1658.72 2.98271 -7.62218 0
M  V30 17595 N 1661.38 1.17024 1.05561 0
M  V30 17596 C 1662.29 0.898107 2.16728 0
M  V30 17597 C 1663.31 -0.132369 1.73496 0
M  V30 17598 O 1664.49 0.0460203 2.01347 0
M  V30 17599 C 1661.55 0.411091 3.44254 0
M  V30 17600 C 1660.61 1.5077 4.01954 0
M  V30 17601 C 1659.85 1.04383 5.23393 0
M  V30 17602 O 1660.07 -0.10351 5.70306 0
M  V30 17603 O 1659 1.8353 5.73237 0
M  V30 17604 H 1662.83 1.82791 2.42531 0
M  V30 17605 H 1660.41 0.950816 1.15238 0
M  V30 17606 H 1662.3 0.146837 4.21144 0
M  V30 17607 H 1660.97 -0.490605 3.19961 0
M  V30 17608 H 1659.88 1.82579 3.26521 0
M  V30 17609 H 1661.21 2.38497 4.30558 0
M  V30 17610 N 1662.86 -1.24221 0.969889 0
M  V30 17611 C 1664.28 -1.4454 0.676778 0
M  V30 17612 C 1664.48 -1.86591 -0.760656 0
M  V30 17613 O 1663.53 -2.00538 -1.5343 0
M  V30 17614 C 1664.85 -2.50546 1.66274 0
M  V30 17615 C 1666.4 -2.64372 1.67561 0
M  V30 17616 C 1666.87 -3.73577 2.6496 0
M  V30 17617 N 1668.36 -3.81007 2.63416 0
M  V30 17618 C 1669.1 -4.65037 3.35452 0
M  V30 17619 N 1668.59 -5.53238 4.17013 0
M  V30 17620 N 1670.39 -4.59138 3.24266 0
M  V30 17621 H 1662.54 -0.952237 1.89858 0
M  V30 17622 H 1664.8 -0.479972 0.817515 0
M  V30 17623 H 1664.51 -2.26541 2.6902 0
M  V30 17624 H 1664.38 -3.48745 1.43724 0
M  V30 17625 H 1666.77 -2.87733 0.655247 0
M  V30 17626 H 1666.85 -1.66523 1.94174 0
M  V30 17627 H 1666.49 -3.50965 3.67132 0
M  V30 17628 H 1666.42 -4.70944 2.35626 0
M  V30 17629 H 1668.91 -3.17969 2.04216 0
M  V30 17630 H 1669.23 -6.1432 4.68861 0
M  V30 17631 H 1667.57 -5.52896 4.21107 0
M  V30 17632 H 1670.76 -3.89247 2.60008 0
M  V30 17633 H 1670.93 -5.24399 3.8067 0
M  V30 17634 N 1664.34 -0.740267 -1.39132 0
M  V30 17635 C 1665.59 -0.287379 -1.99642 0
M  V30 17636 C 1665.9 1.13337 -1.59418 0
M  V30 17637 O 1667.11 1.68605 -2.12802 0
M  V30 17638 C 1665.56 -0.462859 -3.56911 0
M  V30 17639 C 1665.17 -1.89184 -4.06095 0
M  V30 17640 C 1666.92 -0.0720122 -4.24439 0
M  V30 17641 C 1664.82 -2.01659 -5.55957 0
M  V30 17642 H 1663.75 -0.103696 -0.746835 0
M  V30 17643 H 1666.4 -0.914902 -1.59065 0
M  V30 17644 H 1664.79 0.233644 -3.9531 0
M  V30 17645 H 1665.96 -2.62072 -3.79018 0
M  V30 17646 H 1664.28 -2.23638 -3.51248 0
M  V30 17647 H 1666.87 -0.144163 -5.34506 0
M  V30 17648 H 1667.22 0.973516 -4.04757 0
M  V30 17649 H 1667.75 -0.719868 -3.91232 0
M  V30 17650 H 1664.49 -3.04419 -5.80525 0
M  V30 17651 H 1664.01 -1.33214 -5.8482 0
M  V30 17652 H 1665.69 -1.80023 -6.2145 0
M  V30 17653 N 1665.82 1.49844 -0.488302 0
M  V30 17654 C 1666.77 2.28883 0.296859 0
M  V30 17655 C 1667.74 1.34703 0.971818 0
M  V30 17656 O 1668.92 1.63653 0.980937 0
M  V30 17657 C 1666.06 3.17049 1.36286 0
M  V30 17658 C 1665.17 4.26275 0.700956 0
M  V30 17659 C 1664.31 5.01674 1.74632 0
M  V30 17660 C 1663.35 6.02753 1.06559 0
M  V30 17661 N 1662.48 6.71366 2.05457 0
M  V30 17662 H 1667.32 2.95523 -0.383417 0
M  V30 17663 H 1664.86 1.45721 -0.200928 0
M  V30 17664 H 1666.82 3.66531 1.99276 0
M  V30 17665 H 1665.45 2.52419 2.01207 0
M  V30 17666 H 1664.5 3.80377 -0.0419236 0
M  V30 17667 H 1665.81 4.98529 0.164469 0
M  V30 17668 H 1664.97 5.54961 2.45159 0
M  V30 17669 H 1663.71 4.29166 2.31664 0
M  V30 17670 H 1662.71 5.4871 0.346029 0
M  V30 17671 H 1663.94 6.77243 0.501932 0
M  V30 17672 H 1661.88 6.01637 2.61475 0
M  V30 17673 H 1661.8 7.39552 1.56841 0
M  V30 17674 H 1663.07 7.29262 2.75312 0
M  V30 17675 N 1667.3 0.221601 1.56034 0
M  V30 17676 C 1668.54 -0.410087 1.98304 0
M  V30 17677 C 1668.87 -1.59769 1.10924 0
M  V30 17678 O 1668.13 -1.95092 0.154196 0
M  V30 17679 C 1668.43 -0.887416 3.46208 0
M  V30 17680 C 1668.09 0.189671 4.50501 0
M  V30 17681 C 1666.75 0.485557 4.78744 0
M  V30 17682 C 1669.11 0.918112 5.1305 0
M  V30 17683 C 1666.43 1.5144 5.66818 0
M  V30 17684 C 1668.79 1.93629 6.02238 0
M  V30 17685 C 1667.45 2.23909 6.28825 0
M  V30 17686 H 1666.72 -0.150061 0.725646 0
M  V30 17687 H 1669.37 0.32413 1.88737 0
M  V30 17688 H 1667.67 -1.70039 3.52979 0
M  V30 17689 H 1669.37 -1.38602 3.76285 0
M  V30 17690 H 1665.96 -0.0510987 4.2857 0
M  V30 17691 H 1670.14 0.702761 4.91299 0
M  V30 17692 H 1665.4 1.75462 5.85682 0
M  V30 17693 H 1669.57 2.5058 6.49756 0
M  V30 17694 H 1667.2 3.03774 6.96868 0
M  V30 17695 N 1668.77 -1.57515 -0.0517878 0
M  V30 17696 C 1669.7 -2.0809 -1.05929 0
M  V30 17697 C 1670.69 -0.978529 -1.39136 0
M  V30 17698 O 1671.87 -1.25245 -1.48416 0
M  V30 17699 C 1669 -2.54147 -2.36699 0
M  V30 17700 C 1667.95 -3.68442 -2.17794 0
M  V30 17701 C 1667.28 -4.00624 -3.54125 0
M  V30 17702 C 1668.58 -4.97743 -1.5827 0
M  V30 17703 H 1670.27 -2.92515 -0.638371 0
M  V30 17704 H 1667.82 -1.40719 -0.305625 0
M  V30 17705 H 1669.77 -2.88145 -3.07491 0
M  V30 17706 H 1668.5 -1.66775 -2.80809 0
M  V30 17707 H 1667.16 -3.34758 -1.4944 0
M  V30 17708 H 1666.8 -3.10353 -3.95841 0
M  V30 17709 H 1666.5 -4.77597 -3.42308 0
M  V30 17710 H 1668.03 -4.37136 -4.26315 0
M  V30 17711 H 1669.44 -5.29843 -2.18951 0
M  V30 17712 H 1667.84 -5.79173 -1.57094 0
M  V30 17713 H 1668.91 -4.81815 -0.546127 0
M  V30 17714 N 1670.25 0.323614 -1.54242 0
M  V30 17715 C 1671.5 1.06314 -1.727 0
M  V30 17716 C 1671.83 1.87674 -0.499225 0
M  V30 17717 O 1671.11 1.87862 0.503805 0
M  V30 17718 C 1671.39 1.9879 -3.00258 0
M  V30 17719 C 1671.24 1.2076 -4.33286 0
M  V30 17720 C 1672.56 2.98314 -3.23569 0
M  V30 17721 H 1669.68 0.385101 -0.628384 0
M  V30 17722 H 1672.32 0.339801 -1.86937 0
M  V30 17723 H 1670.47 2.60468 -2.88251 0
M  V30 17724 H 1672.15 0.615425 -4.57176 0
M  V30 17725 H 1670.39 0.509878 -4.30793 0
M  V30 17726 H 1671.06 1.88662 -5.18759 0
M  V30 17727 H 1673.54 2.46757 -3.35037 0
M  V30 17728 H 1672.41 3.60204 -4.14179 0
M  V30 17729 H 1672.67 3.7077 -2.40795 0
M  V30 17730 N 1671.73 1.46313 0.585673 0
M  V30 17731 C 1672.98 1.50738 1.34019 0
M  V30 17732 C 1673.29 0.162245 1.94926 0
M  V30 17733 O 1674.5 0.0842676 2.71369 0
M  V30 17734 C 1672.96 2.65592 2.42876 0
M  V30 17735 C 1672.56 4.06513 1.88285 0
M  V30 17736 C 1674.31 2.79284 3.19689 0
M  V30 17737 C 1672.21 5.12712 2.94754 0
M  V30 17738 H 1671.14 0.560979 0.503804 0
M  V30 17739 H 1673.8 1.72516 0.625344 0
M  V30 17740 H 1672.18 2.37138 3.17146 0
M  V30 17741 H 1673.35 4.44744 1.20578 0
M  V30 17742 H 1671.67 3.97462 1.2415 0
M  V30 17743 H 1674.26 3.55795 3.99142 0
M  V30 17744 H 1674.61 1.86694 3.7209 0
M  V30 17745 H 1675.14 3.0737 2.52525 0
M  V30 17746 H 1671.88 6.07084 2.47244 0
M  V30 17747 H 1671.4 4.79028 3.6096 0
M  V30 17748 H 1673.08 5.38426 3.58757 0
M  V30 17749 N 1673.21 -0.830057 1.33969 0
M  V30 17750 C 1674.17 -1.92206 1.24858 0
M  V30 17751 C 1675.17 -1.59946 0.16549 0
M  V30 17752 O 1676.36 -1.6912 0.417629 0
M  V30 17753 C 1673.49 -3.28082 0.926029 0
M  V30 17754 H 1674.69 -2.01708 2.21932 0
M  V30 17755 H 1672.24 -1.02319 1.18154 0
M  V30 17756 H 1672.98 -3.24273 -0.0418364 0
M  V30 17757 H 1672.76 -3.52878 1.70938 0
M  V30 17758 H 1674.25 -4.08065 0.887263 0
M  V30 17759 N 1674.69 -1.17582 -1.04939 0
M  V30 17760 C 1675.62 -0.918221 -2.14688 0
M  V30 17761 C 1676.6 0.140757 -1.69517 0
M  V30 17762 O 1677.78 -0.0100118 -1.94197 0
M  V30 17763 C 1674.91 -0.433531 -3.44584 0
M  V30 17764 C 1673.87 -1.43199 -4.03334 0
M  V30 17765 C 1673.19 -0.805154 -5.28603 0
M  V30 17766 C 1674.49 -2.80598 -4.40525 0
M  V30 17767 H 1676.19 -1.83604 -2.36495 0
M  V30 17768 H 1673.73 -0.884202 -1.13657 0
M  V30 17769 H 1675.69 -0.240722 -4.20712 0
M  V30 17770 H 1674.41 0.519832 -3.22437 0
M  V30 17771 H 1673.07 -1.61158 -3.29277 0
M  V30 17772 H 1672.72 0.155124 -5.02761 0
M  V30 17773 H 1672.42 -1.4717 -5.68871 0
M  V30 17774 H 1673.94 -0.622677 -6.07417 0
M  V30 17775 H 1675.36 -2.66341 -5.07676 0
M  V30 17776 H 1673.75 -3.43854 -4.91817 0
M  V30 17777 H 1674.82 -3.34815 -3.50752 0
M  V30 17778 N 1676.17 1.23705 -0.976463 0
M  V30 17779 C 1677.11 2.25023 -0.513156 0
M  V30 17780 C 1678.08 1.60003 0.445903 0
M  V30 17781 O 1679.27 1.87481 0.354323 0
M  V30 17782 C 1676.41 3.44619 0.182088 0
M  V30 17783 C 1675.52 4.24209 -0.816769 0
M  V30 17784 C 1674.66 5.31112 -0.0967355 0
M  V30 17785 C 1673.69 6.02406 -1.08507 0
M  V30 17786 N 1672.83 7.00991 -0.394455 0
M  V30 17787 H 1677.67 2.64019 -1.38194 0
M  V30 17788 H 1675.21 1.29777 -0.692566 0
M  V30 17789 H 1677.17 4.12835 0.601948 0
M  V30 17790 H 1675.8 3.06435 1.01477 0
M  V30 17791 H 1674.85 3.55448 -1.35503 0
M  V30 17792 H 1676.16 4.73445 -1.57006 0
M  V30 17793 H 1675.31 6.05504 0.380686 0
M  V30 17794 H 1674.05 4.82806 0.689187 0
M  V30 17795 H 1673.06 5.26809 -1.57328 0
M  V30 17796 H 1674.28 6.528 -1.87159 0
M  V30 17797 H 1672.23 6.54943 0.372331 0
M  V30 17798 H 1672.15 7.48152 -1.08647 0
M  V30 17799 H 1673.41 7.79476 0.0607087 0
M  V30 17800 N 1677.64 0.747635 1.38738 0
M  V30 17801 C 1678.87 0.310484 2.05063 0
M  V30 17802 C 1679.29 -1.05078 1.56013 0
M  V30 17803 O 1678.65 -1.66842 0.709461 0
M  V30 17804 C 1678.7 0.335837 3.59033 0
M  V30 17805 O 1677.8 -0.672218 4.06884 0
M  V30 17806 H 1677.14 0.138591 0.649375 0
M  V30 17807 H 1679.67 1.01709 1.77529 0
M  V30 17808 H 1679.68 0.184631 4.07582 0
M  V30 17809 H 1678.36 1.32906 3.94092 0
M  V30 17810 H 1676.94 -0.486112 3.69718 0
M  V30 17811 N 1679.12 -1.49583 0.496242 0
M  V30 17812 C 1680.35 -2.07342 -0.0490986 0
M  V30 17813 C 1680.77 -1.35474 -1.30493 0
M  V30 17814 O 1680.13 -0.410005 -1.76603 0
M  V30 17815 C 1680.18 -3.59427 -0.290601 0
M  V30 17816 O 1679.28 -3.89111 -1.36626 0
M  V30 17817 H 1678.62 -0.663562 0.0241141 0
M  V30 17818 H 1681.15 -1.92452 0.6945 0
M  V30 17819 H 1681.16 -4.04627 -0.523549 0
M  V30 17820 H 1679.84 -4.11147 0.626959 0
M  V30 17821 H 1678.41 -3.55726 -1.11864 0
M  V30 17822 N 1680.6 -0.229873 -1.55915 0
M  V30 17823 C 1681.85 0.400157 -1.98813 0
M  V30 17824 C 1682.18 1.58821 -1.11756 0
M  V30 17825 O 1681.45 1.93692 -0.177094 0
M  V30 17826 C 1681.74 0.826623 -3.50484 0
M  V30 17827 C 1681.59 -0.365647 -4.48311 0
M  V30 17828 C 1682.91 1.6798 -4.06781 0
M  V30 17829 H 1680.03 0.143977 -0.7228 0
M  V30 17830 H 1682.67 -0.327775 -1.87151 0
M  V30 17831 H 1680.82 1.44687 -3.60552 0
M  V30 17832 H 1682.49 -1.00391 -4.50244 0
M  V30 17833 H 1680.73 -1.01168 -4.21838 0
M  V30 17834 H 1681.41 -0.0241816 -5.51995 0
M  V30 17835 H 1683.88 1.15639 -3.99708 0
M  V30 17836 H 1682.76 1.94708 -5.13206 0
M  V30 17837 H 1683.02 2.64594 -3.54179 0
M  V30 17838 N 1682.08 1.5754 0.0434337 0
M  V30 17839 C 1682.99 2.08996 1.06574 0
M  V30 17840 C 1684 1.02544 1.40573 0
M  V30 17841 O 1685.18 1.34192 1.50181 0
M  V30 17842 C 1682.24 2.54723 2.35196 0
M  V30 17843 C 1681.31 3.75595 2.0791 0
M  V30 17844 C 1680.54 4.19132 3.304 0
M  V30 17845 O 1680.76 3.62303 4.40559 0
M  V30 17846 O 1679.7 5.11694 3.16944 0
M  V30 17847 H 1683.52 2.96475 0.658503 0
M  V30 17848 H 1681.11 1.47129 0.259475 0
M  V30 17849 H 1682.99 2.84529 3.1084 0
M  V30 17850 H 1681.66 1.70361 2.75243 0
M  V30 17851 H 1680.57 3.5083 1.2988 0
M  V30 17852 H 1681.9 4.60897 1.72727 0
M  V30 17853 N 1683.56 -0.31543 1.54411 0
M  V30 17854 C 1684.8 -1.05396 1.73261 0
M  V30 17855 C 1685.13 -1.87406 0.509171 0
M  V30 17856 O 1684.41 -1.88126 -0.493836 0
M  V30 17857 C 1684.69 -1.97195 3.01308 0
M  V30 17858 C 1684.55 -1.18461 4.33921 0
M  V30 17859 C 1685.86 -2.96594 3.25146 0
M  V30 17860 H 1682.98 -0.381763 0.630417 0
M  V30 17861 H 1685.63 -0.329882 1.87114 0
M  V30 17862 H 1683.78 -2.58936 2.89628 0
M  V30 17863 H 1685.45 -0.591171 4.57496 0
M  V30 17864 H 1683.69 -0.487025 4.31057 0
M  V30 17865 H 1684.36 -1.85909 5.19752 0
M  V30 17866 H 1686.84 -2.44977 3.36341 0
M  V30 17867 H 1685.71 -3.58002 4.16084 0
M  V30 17868 H 1685.97 -3.69487 2.42758 0
M  V30 17869 N 1685.03 -1.46622 -0.577906 0
M  V30 17870 C 1686.26 -1.55534 -1.35988 0
M  V30 17871 C 1686.67 -0.197065 -1.88171 0
M  V30 17872 O 1686.02 0.816609 -1.64551 0
M  V30 17873 C 1686.08 -2.5035 -2.58002 0
M  V30 17874 C 1685.74 -3.96491 -2.27253 0
M  V30 17875 C 1686.74 -4.85567 -1.85797 0
M  V30 17876 C 1684.42 -4.41662 -2.39249 0
M  V30 17877 C 1686.42 -6.17828 -1.56738 0
M  V30 17878 C 1684.1 -5.73956 -2.09803 0
M  V30 17879 C 1685.1 -6.6186 -1.68613 0
M  V30 17880 O 1684.79 -7.91698 -1.3953 0
M  V30 17881 H 1684.52 -0.528412 -0.421612 0
M  V30 17882 H 1687.08 -1.92774 -0.709038 0
M  V30 17883 H 1685.31 -2.08137 -3.25908 0
M  V30 17884 H 1687 -2.49616 -3.20073 0
M  V30 17885 H 1687.76 -4.51924 -1.76039 0
M  V30 17886 H 1683.64 -3.73462 -2.70272 0
M  V30 17887 H 1687.18 -6.86398 -1.24514 0
M  V30 17888 H 1683.08 -6.07147 -2.19187 0
M  V30 17889 H 1683.85 -8.04009 -1.53335 0
M  V30 17890 N 1686.51 0.822941 -1.34408 0
M  V30 17891 C 1687.48 1.91541 -1.25876 0
M  V30 17892 C 1688.48 1.59856 -0.17397 0
M  V30 17893 O 1689.67 1.68896 -0.426592 0
M  V30 17894 C 1686.8 3.27586 -0.943415 0
M  V30 17895 H 1687.99 2.00529 -2.22998 0
M  V30 17896 H 1685.54 1.01691 -1.18695 0
M  V30 17897 H 1686.28 3.24291 0.0246389 0
M  V30 17898 H 1686.06 3.51966 -1.72807 0
M  V30 17899 H 1687.55 4.07589 -0.908891 0
M  V30 17900 N 1687.99 1.18137 1.04314 0
M  V30 17901 C 1689.24 0.98666 1.77867 0
M  V30 17902 C 1689.59 -0.478878 1.86345 0
M  V30 17903 O 1688.88 -1.35094 1.35868 0
M  V30 17904 C 1689.08 1.57211 3.20966 0
M  V30 17905 C 1688.91 3.09305 3.26436 0
M  V30 17906 C 1687.68 3.78104 3.3521 0
M  V30 17907 C 1689.88 4.06817 3.1465 0
M  V30 17908 N 1687.86 5.17723 3.29903 0
M  V30 17909 C 1689.23 5.32943 3.16815 0
M  V30 17910 C 1691.28 3.98369 2.98675 0
M  V30 17911 C 1689.99 6.51601 3.04645 0
M  V30 17912 C 1692.01 5.1662 2.8785 0
M  V30 17913 C 1691.37 6.41638 2.90655 0
M  V30 17914 H 1687.47 0.415029 0.662778 0
M  V30 17915 H 1690.06 1.49871 1.24284 0
M  V30 17916 H 1688.23 1.08627 3.729 0
M  V30 17917 H 1689.96 1.31316 3.82803 0
M  V30 17918 H 1686.72 3.28825 3.40839 0
M  V30 17919 H 1687.14 5.90736 3.30695 0
M  V30 17920 H 1691.78 3.02549 2.95337 0
M  V30 17921 H 1689.5 7.47622 3.06735 0
M  V30 17922 H 1693.09 5.11872 2.76546 0
M  V30 17923 H 1691.97 7.31602 2.82363 0
M  V30 17924 N 1689.47 -1.23186 0.98301 0
M  V30 17925 C 1690.43 -2.22979 0.530366 0
M  V30 17926 C 1691.43 -1.56211 -0.381421 0
M  V30 17927 O 1692.62 -1.73321 -0.17475 0
M  V30 17928 C 1689.75 -3.40124 -0.229882 0
M  V30 17929 H 1690.95 -2.64539 1.41277 0
M  V30 17930 H 1688.5 -1.36064 0.769172 0
M  V30 17931 H 1689.23 -3.04024 -1.12871 0
M  V30 17932 H 1689.02 -3.89794 0.424653 0
M  V30 17933 H 1690.51 -4.14158 -0.535078 0
M  V30 17934 N 1690.95 -0.754982 -1.38339 0
M  V30 17935 C 1692.36 -0.379276 -1.82807 0
M  V30 17936 C 1692.71 1.09228 -1.62984 0
M  V30 17937 O 1691.83 1.84445 -1.13177 0
M  V30 17938 C 1692.43 -0.681628 -3.31872 0
M  V30 17939 C 1690.99 -0.359183 -3.74682 0
M  V30 17940 C 1690.13 -0.93409 -2.61094 0
M  V30 17941 H 1693.09 -0.951019 -1.27048 0
M  V30 17942 H 1693.11 0.0396803 -3.80479 0
M  V30 17943 H 1692.62 -1.75271 -3.46268 0
M  V30 17944 H 1690.72 0.705257 -3.65865 0
M  V30 17945 H 1690.83 -0.85571 -4.71396 0
M  V30 17946 H 1689.2 -0.359379 -2.52152 0
M  V30 17947 H 1689.98 -2.01023 -2.78289 0
M  V30 17948 N 1692.42 1.49318 -0.504168 0
M  V30 17949 C 1693.37 2.29185 0.272566 0
M  V30 17950 C 1694.34 1.35726 0.957476 0
M  V30 17951 O 1695.53 1.64684 0.963524 0
M  V30 17952 C 1692.67 3.18477 1.32916 0
M  V30 17953 C 1691.78 4.26995 0.655704 0
M  V30 17954 C 1690.91 5.03498 1.69301 0
M  V30 17955 C 1689.95 6.0385 1.0016 0
M  V30 17956 N 1689.09 6.73507 1.98325 0
M  V30 17957 H 1693.93 2.951 -0.41474 0
M  V30 17958 H 1691.47 1.455 -0.216372 0
M  V30 17959 H 1693.43 3.68624 1.95377 0
M  V30 17960 H 1692.06 2.54539 1.98519 0
M  V30 17961 H 1691.11 3.80311 -0.0822653 0
M  V30 17962 H 1692.42 4.98675 0.111584 0
M  V30 17963 H 1691.57 5.5753 2.39259 0
M  V30 17964 H 1690.31 4.31599 2.27099 0
M  V30 17965 H 1689.32 5.49046 0.287811 0
M  V30 17966 H 1690.54 6.77737 0.430073 0
M  V30 17967 H 1688.49 6.04376 2.55079 0
M  V30 17968 H 1688.41 7.41174 1.48988 0
M  V30 17969 H 1689.67 7.32141 2.67561 0
M  V30 17970 N 1693.9 0.238138 1.5579 0
M  V30 17971 C 1695.31 -0.266656 1.84786 0
M  V30 17972 C 1695.66 -1.58248 1.15983 0
M  V30 17973 O 1694.79 -2.11979 0.43518 0
M  V30 17974 C 1695.38 -0.4906 3.35229 0
M  V30 17975 C 1693.94 -0.939672 3.64482 0
M  V30 17976 C 1693.09 -0.0119682 2.77297 0
M  V30 17977 H 1696.04 0.460924 1.51859 0
M  V30 17978 H 1696.06 -1.3344 3.56334 0
M  V30 17979 H 1695.57 0.467239 3.85277 0
M  V30 17980 H 1693.68 -1.91029 3.19904 0
M  V30 17981 H 1693.79 -0.8026 4.72329 0
M  V30 17982 H 1692.15 -0.521767 2.49298 0
M  V30 17983 H 1692.94 0.941085 3.30149 0
M  V30 17984 N 1695.38 -1.57561 -0.0350783 0
M  V30 17985 C 1696.61 -1.92971 -0.737958 0
M  V30 17986 C 1697.02 -0.835771 -1.6974 0
M  V30 17987 O 1696.36 0.19703 -1.8264 0
M  V30 17988 C 1696.42 -3.24138 -1.55482 0
M  V30 17989 C 1696.09 -4.50622 -0.760818 0
M  V30 17990 C 1697.08 -5.19861 -0.0637364 0
M  V30 17991 C 1694.77 -4.97154 -0.717134 0
M  V30 17992 C 1696.76 -6.33907 0.666395 0
M  V30 17993 C 1694.45 -6.11098 0.0167462 0
M  V30 17994 C 1695.45 -6.79328 0.707276 0
M  V30 17995 O 1695.14 -7.91093 1.42925 0
M  V30 17996 H 1694.87 -0.641628 -0.212814 0
M  V30 17997 H 1697.42 -2.054 0.00152065 0
M  V30 17998 H 1695.65 -3.08019 -2.33798 0
M  V30 17999 H 1697.34 -3.44919 -2.13976 0
M  V30 18000 H 1698.11 -4.84919 -0.0885544 0
M  V30 18001 H 1693.99 -4.43895 -1.24411 0
M  V30 18002 H 1697.53 -6.87098 1.20592 0
M  V30 18003 H 1693.43 -6.45485 0.0435085 0
M  V30 18004 H 1694.2 -8.07418 1.34231 0
M  V30 18005 N 1696.86 0.307236 -1.54576 0
M  V30 18006 C 1697.81 1.38019 -1.81479 0
M  V30 18007 C 1698.79 1.46213 -0.671612 0
M  V30 18008 O 1699.98 1.5047 -0.932077 0
M  V30 18009 C 1697.11 2.74621 -2.06005 0
M  V30 18010 C 1696.2 2.70675 -3.2649 0
M  V30 18011 N 1696.59 2.36346 -4.47185 0
M  V30 18012 C 1694.89 3.01786 -3.28392 0
M  V30 18013 C 1695.59 2.41543 -5.2918 0
M  V30 18014 N 1694.57 2.78646 -4.66752 0
M  V30 18015 H 1698.37 1.10432 -2.72364 0
M  V30 18016 H 1695.88 0.515792 -1.53991 0
M  V30 18017 H 1697.88 3.51977 -2.23424 0
M  V30 18018 H 1696.54 3.03125 -1.16384 0
M  V30 18019 H 1697.55 2.08908 -4.73896 0
M  V30 18020 H 1694.23 3.35225 -2.48858 0
M  V30 18021 H 1695.62 2.17854 -6.35602 0
M  V30 18022 N 1698.34 1.46926 0.570122 0
M  V30 18023 C 1699.28 1.58442 1.67824 0
M  V30 18024 C 1700.25 0.428053 1.6049 0
M  V30 18025 O 1701.44 0.646445 1.79515 0
M  V30 18026 C 1698.58 1.59253 3.06158 0
M  V30 18027 C 1697.69 2.85714 3.24024 0
M  V30 18028 C 1696.83 2.77945 4.52681 0
M  V30 18029 C 1695.87 3.99289 4.63934 0
M  V30 18030 N 1695 3.89833 5.83931 0
M  V30 18031 H 1699.84 2.5309 1.5732 0
M  V30 18032 H 1697.38 1.25549 0.766548 0
M  V30 18033 H 1699.34 1.57707 3.86244 0
M  V30 18034 H 1697.97 0.68127 3.15529 0
M  V30 18035 H 1697.02 2.97184 2.37458 0
M  V30 18036 H 1698.33 3.7561 3.28206 0
M  V30 18037 H 1697.49 2.74576 5.41011 0
M  V30 18038 H 1696.22 1.85711 4.50958 0
M  V30 18039 H 1695.23 4.02976 3.74019 0
M  V30 18040 H 1696.45 4.92635 4.67427 0
M  V30 18041 H 1694.4 3.00393 5.83181 0
M  V30 18042 H 1694.32 4.73395 5.89434 0
M  V30 18043 H 1695.59 3.90459 6.74657 0
M  V30 18044 N 1699.82 -0.815801 1.34842 0
M  V30 18045 C 1701.06 -1.57241 1.27599 0
M  V30 18046 C 1701.39 -1.93904 -0.152127 0
M  V30 18047 O 1700.65 -1.60819 -1.11515 0
M  V30 18048 C 1700.94 -2.87795 2.11917 0
M  V30 18049 C 1700.61 -2.70392 3.60831 0
M  V30 18050 C 1699.27 -2.65353 4.01424 0
M  V30 18051 C 1701.62 -2.53569 4.55359 0
M  V30 18052 C 1698.95 -2.41422 5.34726 0
M  V30 18053 C 1701.3 -2.31169 5.8885 0
M  V30 18054 C 1699.97 -2.24546 6.28598 0
M  V30 18055 H 1699.24 -0.575386 0.466918 0
M  V30 18056 H 1701.89 -0.943355 1.66653 0
M  V30 18057 H 1700.19 -3.5503 1.65714 0
M  V30 18058 H 1701.89 -3.45436 2.03654 0
M  V30 18059 H 1698.48 -2.75157 3.28613 0
M  V30 18060 H 1702.66 -2.5648 4.2489 0
M  V30 18061 H 1697.92 -2.34758 5.64534 0
M  V30 18062 H 1702.09 -2.1714 6.61682 0
M  V30 18063 H 1699.72 -2.05765 7.31823 0
M  V30 18064 N 1701.29 -1.18689 -1.03686 0
M  V30 18065 C 1702.23 -0.860751 -2.11344 0
M  V30 18066 C 1703.2 0.178884 -1.61613 0
M  V30 18067 O 1704.39 0.05699 -1.88414 0
M  V30 18068 C 1701.52 -0.286745 -3.37484 0
M  V30 18069 C 1700.56 -1.30417 -4.06071 0
M  V30 18070 S 1701.39 -2.86155 -4.52632 0
M  V30 18071 C 1702.55 -2.30276 -5.82 0
M  V30 18072 H 1702.78 -1.77251 -2.38683 0
M  V30 18073 H 1700.32 -1.01316 -1.16509 0
M  V30 18074 H 1702.27 0.0379216 -4.10482 0
M  V30 18075 H 1700.94 0.60319 -3.08254 0
M  V30 18076 H 1700.13 -0.851497 -4.96755 0
M  V30 18077 H 1699.73 -1.57527 -3.39207 0
M  V30 18078 H 1702.02 -1.68773 -6.56142 0
M  V30 18079 H 1702.97 -3.19275 -6.32036 0
M  V30 18080 H 1703.37 -1.73153 -5.37288 0
M  V30 18081 N 1702.77 1.22662 -0.989529 0
M  V30 18082 C 1703.73 2.22695 -0.542183 0
M  V30 18083 C 1704.73 1.56411 0.373132 0
M  V30 18084 O 1705.92 1.73412 0.165556 0
M  V30 18085 C 1703.06 3.40241 0.211841 0
M  V30 18086 H 1704.25 2.63786 -1.42678 0
M  V30 18087 H 1701.8 1.35654 -0.776377 0
M  V30 18088 H 1702.54 3.04618 1.11257 0
M  V30 18089 H 1702.32 3.89563 -0.445319 0
M  V30 18090 H 1703.81 4.14436 0.513107 0
M  V30 18091 N 1704.25 0.762308 1.37937 0
M  V30 18092 C 1705.5 0.322369 1.99918 0
M  V30 18093 C 1705.82 -1.09843 1.60514 0
M  V30 18094 O 1705.08 -1.76837 0.83829 0
M  V30 18095 C 1705.38 0.402558 3.55126 0
M  V30 18096 C 1705.04 1.78025 4.14268 0
M  V30 18097 C 1703.71 2.15727 4.30134 0
M  V30 18098 C 1706.06 2.68359 4.46803 0
M  V30 18099 C 1703.39 3.43217 4.75835 0
M  V30 18100 C 1705.74 3.95248 4.93925 0
M  V30 18101 C 1704.4 4.33007 5.07997 0
M  V30 18102 H 1703.67 0.117963 0.73155 0
M  V30 18103 H 1706.32 0.974491 1.64851 0
M  V30 18104 H 1704.62 -0.333119 3.90381 0
M  V30 18105 H 1706.32 0.0436064 4.00976 0
M  V30 18106 H 1702.91 1.4772 4.02339 0
M  V30 18107 H 1707.1 2.40493 4.34139 0
M  V30 18108 H 1702.35 3.72379 4.84916 0
M  V30 18109 H 1706.53 4.6538 5.18068 0
M  V30 18110 H 1704.15 5.31856 5.4317 0
M  V30 18111 N 1705.73 -1.49049 0.51208 0
M  V30 18112 C 1706.67 -2.29326 -0.260408 0
M  V30 18113 C 1707.64 -1.36232 -0.950265 0
M  V30 18114 O 1708.83 -1.65193 -0.954777 0
M  V30 18115 C 1705.97 -3.19177 -1.31225 0
M  V30 18116 C 1705.08 -4.27336 -0.63305 0
M  V30 18117 C 1704.22 -5.04389 -1.66628 0
M  V30 18118 C 1703.26 -6.04372 -0.969561 0
M  V30 18119 N 1702.39 -6.74549 -1.94751 0
M  V30 18120 H 1707.23 -2.94876 0.430384 0
M  V30 18121 H 1704.77 -1.45383 0.224086 0
M  V30 18122 H 1706.73 -3.69655 -1.9342 0
M  V30 18123 H 1705.36 -2.55588 -1.97166 0
M  V30 18124 H 1704.41 -3.80262 0.102433 0
M  V30 18125 H 1705.72 -4.98727 -0.0851363 0
M  V30 18126 H 1704.88 -5.58791 -2.36299 0
M  V30 18127 H 1703.62 -4.32797 -2.24807 0
M  V30 18128 H 1702.62 -5.49191 -0.25869 0
M  V30 18129 H 1703.85 -6.77955 -0.394125 0
M  V30 18130 H 1701.79 -6.0572 -2.5187 0
M  V30 18131 H 1701.71 -7.41954 -1.45055 0
M  V30 18132 H 1702.98 -7.3355 -2.63675 0
M  V30 18133 N 1707.21 -0.246397 -1.55662 0
M  V30 18134 C 1708.43 0.385607 -2.03784 0
M  V30 18135 C 1708.86 1.50786 -1.12451 0
M  V30 18136 O 1708.21 1.8092 -0.117371 0
M  V30 18137 C 1708.26 0.871204 -3.49918 0
M  V30 18138 O 1707.37 1.98082 -3.61715 0
M  V30 18139 H 1706.71 0.0841099 -0.658651 0
M  V30 18140 H 1709.24 -0.372306 -2.01184 0
M  V30 18141 H 1709.25 1.17455 -3.90728 0
M  V30 18142 H 1707.92 0.0499597 -4.1587 0
M  V30 18143 H 1706.5 1.6822 -3.32801 0
M  V30 18144 N 1708.68 1.57577 0.026722 0
M  V30 18145 C 1709.93 1.89379 0.717062 0
M  V30 18146 C 1710.26 0.843976 1.75235 0
M  V30 18147 O 1709.51 -0.154755 1.95087 0
M  V30 18148 C 1709.81 3.27927 1.42121 0
M  V30 18149 C 1709.48 4.47872 0.521676 0
M  V30 18150 C 1708.14 4.8042 0.273926 0
M  V30 18151 C 1710.49 5.21105 -0.0992493 0
M  V30 18152 C 1707.82 5.83588 -0.603488 0
M  V30 18153 C 1710.17 6.25206 -0.964379 0
M  V30 18154 C 1708.84 6.56227 -1.22157 0
M  V30 18155 H 1708.11 0.692988 0.262391 0
M  V30 18156 H 1710.75 1.91486 -0.0230629 0
M  V30 18157 H 1709.06 3.2182 2.23471 0
M  V30 18158 H 1710.76 3.49783 1.96094 0
M  V30 18159 H 1707.35 4.22425 0.724931 0
M  V30 18160 H 1711.53 4.96237 0.0791882 0
M  V30 18161 H 1706.79 6.05997 -0.811031 0
M  V30 18162 H 1710.96 6.81094 -1.45201 0
M  V30 18163 H 1708.59 7.35991 -1.90317 0
M  V30 18164 N 1710.16 -0.299034 1.54737 0
M  V30 18165 C 1711.12 -1.35199 1.85078 0
M  V30 18166 C 1712.12 -1.4359 0.723788 0
M  V30 18167 O 1713.31 -1.43191 0.992067 0
M  V30 18168 C 1710.45 -2.73659 2.03282 0
M  V30 18169 H 1711.64 -1.09538 2.7918 0
M  V30 18170 H 1709.19 -0.535803 1.46829 0
M  V30 18171 H 1709.93 -3.04539 1.11475 0
M  V30 18172 H 1709.71 -2.68959 2.85313 0
M  V30 18173 H 1711.2 -3.49787 2.28119 0
M  V30 18174 N 1711.64 -1.47227 -0.562322 0
M  V30 18175 C 1712.92 -1.44069 -1.32301 0
M  V30 18176 C 1713.3 -0.134912 -2.10668 0
M  V30 18177 O 1712.64 0.883603 -2.10724 0
M  V30 18178 C 1712.85 -2.68309 -2.23184 0
M  V30 18179 C 1714.2 -3.1531 -2.84367 0
M  V30 18180 O 1715.23 -2.69001 -2.33489 0
M  V30 18181 O 1714.09 -3.95805 -3.7683 0
M  V30 18182 H 1711.18 -0.573892 -0.595464 0
M  V30 18183 H 1713.73 -1.59421 -0.581648 0
M  V30 18184 H 1712.5 -3.54884 -1.64842 0
M  V30 18185 H 1712.12 -2.55518 -3.04625 0
M  V30 18186 N 1713.12 0.808639 -1.35273 0
M  V30 18187 C 1714.05 1.93502 -1.30687 0
M  V30 18188 C 1715.03 1.69127 -0.181675 0
M  V30 18189 O 1716.21 1.90519 -0.376312 0
M  V30 18190 C 1713.34 3.30211 -1.07602 0
M  V30 18191 C 1712.3 3.69063 -2.16741 0
M  V30 18192 C 1711.62 5.03911 -1.78824 0
M  V30 18193 C 1712.92 3.79656 -3.5869 0
M  V30 18194 H 1714.62 1.97597 -2.24935 0
M  V30 18195 H 1712.16 0.949284 -1.0828 0
M  V30 18196 H 1714.12 4.0861 -1.03034 0
M  V30 18197 H 1712.84 3.26453 -0.0979944 0
M  V30 18198 H 1711.5 2.92948 -2.20402 0
M  V30 18199 H 1711.15 4.96655 -0.796449 0
M  V30 18200 H 1710.85 5.30877 -2.51881 0
M  V30 18201 H 1712.37 5.84752 -1.75777 0
M  V30 18202 H 1713.79 4.48292 -3.57362 0
M  V30 18203 H 1712.18 4.1809 -4.30489 0
M  V30 18204 H 1713.25 2.81265 -3.94991 0
M  V30 18205 N 1714.6 1.19237 1.03055 0
M  V30 18206 C 1716.01 0.996569 1.57878 0
M  V30 18207 C 1716.36 -0.450987 1.90946 0
M  V30 18208 O 1715.48 -1.33009 1.70697 0
M  V30 18209 C 1716.08 1.80272 2.86858 0
M  V30 18210 C 1714.64 1.65097 3.3826 0
M  V30 18211 C 1713.78 1.79079 2.11721 0
M  V30 18212 H 1716.74 1.33633 0.856037 0
M  V30 18213 H 1716.76 1.29781 3.57683 0
M  V30 18214 H 1716.27 2.85621 2.62759 0
M  V30 18215 H 1714.37 0.623267 3.6735 0
M  V30 18216 H 1714.48 2.45527 4.11404 0
M  V30 18217 H 1712.85 1.22124 2.23512 0
M  V30 18218 H 1713.63 2.85885 1.90065 0
M  V30 18219 N 1716.07 -1.22136 0.99602 0
M  V30 18220 C 1717.02 -2.2199 0.520059 0
M  V30 18221 C 1718.01 -1.55497 -0.413454 0
M  V30 18222 O 1719.2 -1.75369 -0.239765 0
M  V30 18223 C 1716.33 -3.42923 -0.160875 0
M  V30 18224 C 1715.42 -4.16618 0.793126 0
M  V30 18225 N 1715.81 -4.67022 1.94226 0
M  V30 18226 C 1714.1 -4.41814 0.609648 0
M  V30 18227 C 1714.81 -5.23252 2.5413 0
M  V30 18228 N 1713.78 -5.12096 1.8237 0
M  V30 18229 H 1717.58 -2.58606 1.39643 0
M  V30 18230 H 1715.1 -1.37842 0.858682 0
M  V30 18231 H 1717.09 -4.13654 -0.519266 0
M  V30 18232 H 1715.75 -3.07818 -1.03334 0
M  V30 18233 H 1716.77 -4.62882 2.32294 0
M  V30 18234 H 1713.44 -4.16938 -0.216495 0
M  V30 18235 H 1714.83 -5.72769 3.51263 0
M  V30 18236 N 1717.55 -0.769612 -1.37531 0
M  V30 18237 C 1718.97 -0.449 -1.53154 0
M  V30 18238 C 1719.17 1.03568 -1.72847 0
M  V30 18239 O 1718.22 1.82154 -1.74861 0
M  V30 18240 C 1719.54 -1.26221 -2.72926 0
M  V30 18241 C 1721.09 -1.2539 -2.86786 0
M  V30 18242 C 1721.56 -2.05041 -4.09539 0
M  V30 18243 N 1723.05 -2.02384 -4.16647 0
M  V30 18244 C 1723.79 -2.60798 -5.10658 0
M  V30 18245 N 1723.28 -3.27991 -6.10241 0
M  V30 18246 N 1725.08 -2.5064 -5.03126 0
M  V30 18247 H 1717.23 -1.73161 -1.23 0
M  V30 18248 H 1719.49 -0.734977 -0.598759 0
M  V30 18249 H 1719.2 -2.31423 -2.64832 0
M  V30 18250 H 1719.07 -0.889937 -3.66551 0
M  V30 18251 H 1721.46 -0.209869 -2.94353 0
M  V30 18252 H 1721.54 -1.6658 -1.94126 0
M  V30 18253 H 1721.18 -3.09464 -4.02734 0
M  V30 18254 H 1721.11 -1.61234 -5.01309 0
M  V30 18255 H 1723.6 -1.53464 -3.45337 0
M  V30 18256 H 1723.92 -3.69942 -6.785 0
M  V30 18257 H 1722.26 -3.32089 -6.10526 0
M  V30 18258 H 1725.45 -1.97762 -4.24273 0
M  V30 18259 H 1725.62 -2.96458 -5.76209 0
M  V30 18260 N 1719.03 1.48775 -0.519977 0
M  V30 18261 C 1720.44 1.86541 -0.0769625 0
M  V30 18262 C 1720.79 1.43053 1.34277 0
M  V30 18263 O 1719.92 0.816781 2.00394 0
M  V30 18264 C 1720.51 3.38539 -0.132891 0
M  V30 18265 C 1719.07 3.75536 0.254875 0
M  V30 18266 C 1718.22 2.72808 -0.497088 0
M  V30 18267 H 1721.17 1.40822 -0.731765 0
M  V30 18268 H 1721.19 3.7477 0.657856 0
M  V30 18269 H 1720.7 3.70161 -1.1663 0
M  V30 18270 H 1718.8 3.49527 1.29081 0
M  V30 18271 H 1718.92 4.79037 -0.0777747 0
M  V30 18272 H 1717.28 2.5464 0.0554331 0
M  V30 18273 H 1718.06 3.07274 -1.53094 0
M  V30 18274 N 1720.51 0.254649 1.55529 0
M  V30 18275 C 1721.44 -0.635656 2.24681 0
M  V30 18276 C 1722.42 -1.17519 1.22977 0
M  V30 18277 O 1723.6 -1.21311 1.51649 0
M  V30 18278 C 1720.73 -1.82922 2.95224 0
M  V30 18279 C 1719.69 -1.42212 4.03683 0
M  V30 18280 C 1719.01 -2.69713 4.61691 0
M  V30 18281 C 1720.31 -0.587436 5.18986 0
M  V30 18282 H 1722.01 -0.0590063 2.99342 0
M  V30 18283 H 1719.55 -0.02694 1.43975 0
M  V30 18284 H 1721.51 -2.45777 3.42304 0
M  V30 18285 H 1720.23 -2.43137 2.18064 0
M  V30 18286 H 1718.89 -0.81687 3.57383 0
M  V30 18287 H 1718.54 -3.28143 3.81223 0
M  V30 18288 H 1718.24 -2.43194 5.34911 0
M  V30 18289 H 1719.76 -3.33453 5.11509 0
M  V30 18290 H 1721.18 -1.12048 5.62244 0
M  V30 18291 H 1719.57 -0.417988 5.98643 0
M  V30 18292 H 1720.64 0.398577 4.83259 0
M  V30 18293 N 1721.99 -1.57589 -0.0183649 0
M  V30 18294 C 1722.92 -2.1029 -1.01492 0
M  V30 18295 C 1723.9 -1.00782 -1.37029 0
M  V30 18296 O 1725.08 -1.28365 -1.45726 0
M  V30 18297 C 1722.21 -2.59111 -2.31255 0
M  V30 18298 C 1721.17 -3.72979 -2.0993 0
M  V30 18299 C 1720.49 -4.08046 -3.45547 0
M  V30 18300 C 1721.79 -5.00988 -1.47677 0
M  V30 18301 H 1723.49 -2.93804 -0.57618 0
M  V30 18302 H 1721.03 -1.41336 -0.275708 0
M  V30 18303 H 1722.99 -2.94602 -3.0131 0
M  V30 18304 H 1721.71 -1.72694 -2.77208 0
M  V30 18305 H 1720.37 -3.37853 -1.42306 0
M  V30 18306 H 1720.02 -3.1868 -3.89169 0
M  V30 18307 H 1719.72 -4.8475 -3.32101 0
M  V30 18308 H 1721.24 -4.46081 -4.16947 0
M  V30 18309 H 1722.65 -5.34368 -2.07663 0
M  V30 18310 H 1721.05 -5.82375 -1.44774 0
M  V30 18311 H 1722.12 -4.82865 -0.443804 0
M  V30 18312 N 1723.46 0.290824 -1.54893 0
M  V30 18313 C 1724.71 1.02627 -1.74916 0
M  V30 18314 C 1725.04 1.86572 -0.538921 0
M  V30 18315 O 1724.32 1.88888 0.463844 0
M  V30 18316 C 1724.6 1.92376 -3.04407 0
M  V30 18317 C 1724.45 1.11542 -4.3575 0
M  V30 18318 C 1725.77 2.91383 -3.29824 0
M  V30 18319 H 1722.89 0.371685 -0.636411 0
M  V30 18320 H 1725.53 0.300072 -1.87615 0
M  V30 18321 H 1723.68 2.54295 -2.93711 0
M  V30 18322 H 1725.36 0.518312 -4.58379 0
M  V30 18323 H 1723.6 0.418386 -4.31778 0
M  V30 18324 H 1724.27 1.77616 -5.22644 0
M  V30 18325 H 1726.75 2.39595 -3.40196 0
M  V30 18326 H 1725.62 3.51338 -4.21726 0
M  V30 18327 H 1725.88 3.65579 -2.48606 0
M  V30 18328 N 1724.94 1.47523 0.554506 0
M  V30 18329 C 1726.22 1.44768 1.31535 0
M  V30 18330 C 1726.6 0.146082 2.10594 0
M  V30 18331 O 1725.95 -0.872415 2.1119 0
M  V30 18332 C 1726.16 2.69489 2.21758 0
M  V30 18333 C 1727.51 3.16814 2.82691 0
M  V30 18334 O 1728.53 2.70235 2.32059 0
M  V30 18335 O 1727.39 3.97798 3.74725 0
M  V30 18336 H 1724.48 0.577042 0.592412 0
M  V30 18337 H 1727.03 1.59727 0.573186 0
M  V30 18338 H 1725.8 3.55753 1.62958 0
M  V30 18339 H 1725.42 2.5713 3.03266 0
M  V30 18340 N 1726.42 -0.801453 1.357 0
M  V30 18341 C 1727.35 -1.92807 1.31711 0
M  V30 18342 C 1728.33 -1.69028 0.190642 0
M  V30 18343 O 1729.52 -1.90317 0.38641 0
M  V30 18344 C 1726.65 -3.29635 1.09352 0
M  V30 18345 C 1725.6 -3.67908 2.18695 0
M  V30 18346 C 1724.93 -5.02955 1.81494 0
M  V30 18347 C 1726.23 -3.77749 3.60698 0
M  V30 18348 H 1727.92 -1.96401 2.2598 0
M  V30 18349 H 1725.47 -0.943528 1.08782 0
M  V30 18350 H 1727.42 -4.08058 1.052 0
M  V30 18351 H 1726.14 -3.26396 0.115306 0
M  V30 18352 H 1724.8 -2.91775 2.21952 0
M  V30 18353 H 1724.45 -4.96225 0.822776 0
M  V30 18354 H 1724.15 -5.29533 2.54692 0
M  V30 18355 H 1725.67 -5.83811 1.78876 0
M  V30 18356 H 1727.09 -4.4639 3.59734 0
M  V30 18357 H 1725.49 -4.15801 4.327 0
M  V30 18358 H 1726.56 -2.79167 3.96477 0
M  V30 18359 N 1727.9 -1.19782 -1.02421 0
M  V30 18360 C 1729.13 -1.02871 -1.79514 0
M  V30 18361 C 1729.54 0.422387 -1.84014 0
M  V30 18362 O 1728.9 1.29335 -1.28758 0
M  V30 18363 C 1728.95 -1.59634 -3.24344 0
M  V30 18364 O 1728.67 -2.99064 -3.20144 0
M  V30 18365 C 1730.17 -1.47571 -4.18016 0
M  V30 18366 H 1727.39 -0.362301 -0.564782 0
M  V30 18367 H 1729.94 -1.58701 -1.28974 0
M  V30 18368 H 1728.09 -1.07942 -3.72058 0
M  V30 18369 H 1728.5 -3.25859 -4.10994 0
M  V30 18370 H 1729.98 -1.92061 -5.1751 0
M  V30 18371 H 1730.46 -0.426967 -4.3712 0
M  V30 18372 H 1731.06 -1.98417 -3.76179 0
M  V30 18373 N 1729.38 1.21606 -1.00248 0
M  V30 18374 C 1730.62 1.9089 -0.684765 0
M  V30 18375 C 1730.96 1.77749 0.78224 0
M  V30 18376 O 1730.23 1.15251 1.56676 0
M  V30 18377 C 1730.51 3.42778 -1.1034 0
M  V30 18378 C 1730.37 3.64923 -2.62967 0
M  V30 18379 C 1731.69 4.35064 -0.663877 0
M  V30 18380 H 1728.81 0.693217 -0.250239 0
M  V30 18381 H 1731.45 1.4329 -1.24772 0
M  V30 18382 H 1729.6 3.83449 -0.624415 0
M  V30 18383 H 1731.27 3.33595 -3.18609 0
M  V30 18384 H 1729.51 3.08874 -3.04596 0
M  V30 18385 H 1730.18 4.71335 -2.87311 0
M  V30 18386 H 1732.66 4.01962 -1.07544 0
M  V30 18387 H 1731.54 5.3999 -0.984987 0
M  V30 18388 H 1731.8 4.39954 0.435095 0
M  V30 18389 N 1730.86 0.776895 1.37121 0
M  V30 18390 C 1731.77 0.167552 2.34001 0
M  V30 18391 C 1732.78 -0.673609 1.60432 0
M  V30 18392 O 1733.96 -0.592327 1.92493 0
M  V30 18393 C 1731.02 -0.697343 3.39615 0
M  V30 18394 C 1730.08 0.160869 4.28998 0
M  V30 18395 C 1729.32 -0.662841 5.29568 0
M  V30 18396 O 1729.54 -1.89962 5.37839 0
M  V30 18397 O 1728.47 -0.0693304 6.0186 0
M  V30 18398 H 1732.3 0.968247 2.87852 0
M  V30 18399 H 1729.88 0.538137 1.39372 0
M  V30 18400 H 1731.77 -1.19094 4.04221 0
M  V30 18401 H 1730.44 -1.47614 2.88083 0
M  V30 18402 H 1729.35 0.700941 3.67475 0
M  V30 18403 H 1730.68 0.902875 4.83848 0
M  V30 18404 N 1732.33 -1.48497 0.527859 0
M  V30 18405 C 1733.24 -2.3337 -0.239957 0
M  V30 18406 C 1734.26 -1.46353 -0.941101 0
M  V30 18407 O 1735.44 -1.79337 -0.916532 0
M  V30 18408 C 1732.5 -3.22421 -1.27458 0
M  V30 18409 C 1731.56 -4.25309 -0.584017 0
M  V30 18410 C 1730.79 -5.10105 -1.56935 0
M  V30 18411 O 1731.02 -4.96846 -2.80178 0
M  V30 18412 O 1729.95 -5.91578 -1.10991 0
M  V30 18413 H 1733.78 -3.00265 0.455458 0
M  V30 18414 H 1731.36 -1.46582 0.288809 0
M  V30 18415 H 1733.24 -3.7751 -1.87254 0
M  V30 18416 H 1731.92 -2.58189 -1.95244 0
M  V30 18417 H 1730.83 -3.7406 0.0543828 0
M  V30 18418 H 1732.16 -4.92173 0.0518646 0
M  V30 18419 N 1733.81 -0.262893 -1.55392 0
M  V30 18420 C 1735.06 0.35666 -1.98928 0
M  V30 18421 C 1735.38 1.5729 -1.1526 0
M  V30 18422 O 1734.65 1.94435 -0.239164 0
M  V30 18423 H 1733.23 0.134768 -0.734742 0
M  V30 18424 H 1735.89 -0.365394 -1.91444 0
M  V30 18425 H 1734.99 0.654895 -3.05152 0
M  V30 18426 N 1735.29 1.57597 0.0100073 0
M  V30 18427 C 1736.22 2.04622 1.0326 0
M  V30 18428 C 1737.23 0.962343 1.31312 0
M  V30 18429 O 1738.42 1.23933 1.28464 0
M  V30 18430 C 1735.52 2.42271 2.36976 0
M  V30 18431 C 1734.7 3.73271 2.28008 0
M  V30 18432 C 1733.76 3.97899 3.4433 0
M  V30 18433 O 1732.78 4.68702 3.22966 0
M  V30 18434 N 1733.98 3.45015 4.66846 0
M  V30 18435 H 1736.75 2.92968 0.63164 0
M  V30 18436 H 1734.31 1.6069 0.197591 0
M  V30 18437 H 1736.3 2.55869 3.13549 0
M  V30 18438 H 1734.87 1.59496 2.68849 0
M  V30 18439 H 1734.09 3.69846 1.3641 0
M  V30 18440 H 1735.38 4.59172 2.19178 0
M  V30 18441 H 1734.78 2.87661 4.87101 0
M  V30 18442 H 1733.33 3.6396 5.40718 0
M  V30 18443 N 1736.77 -0.282606 1.55045 0
M  V30 18444 C 1738.18 -0.629284 1.4667 0
M  V30 18445 C 1738.38 -1.89931 0.672932 0
M  V30 18446 O 1737.44 -2.518 0.187946 0
M  V30 18447 C 1738.75 -0.765174 2.90802 0
M  V30 18448 C 1740.3 -0.859859 3.00958 0
M  V30 18449 C 1740.78 -1.0276 4.46323 0
M  V30 18450 N 1742.27 -1.09336 4.50111 0
M  V30 18451 C 1743 -1.24178 5.59792 0
M  V30 18452 N 1742.5 -1.358 6.7936 0
M  V30 18453 N 1744.29 -1.27212 5.47516 0
M  V30 18454 H 1736.44 0.551592 2.05113 0
M  V30 18455 H 1738.7 0.185277 0.929718 0
M  V30 18456 H 1738.41 0.0974312 3.51565 0
M  V30 18457 H 1738.28 -1.64848 3.39271 0
M  V30 18458 H 1740.67 -1.71294 2.40297 0
M  V30 18459 H 1740.75 0.0478484 2.55755 0
M  V30 18460 H 1740.4 -0.179219 5.07584 0
M  V30 18461 H 1740.33 -1.94981 4.89173 0
M  V30 18462 H 1742.82 -1.01633 3.63977 0
M  V30 18463 H 1743.13 -1.46932 7.58703 0
M  V30 18464 H 1741.48 -1.32822 6.8219 0
M  V30 18465 H 1744.67 -1.17756 4.53046 0
M  V30 18466 H 1744.84 -1.38435 6.3304 0
M  V30 18467 N 1738.25 -1.47815 -0.546675 0
M  V30 18468 C 1739.18 -1.63976 -1.66235 0
M  V30 18469 C 1740.16 -0.488945 -1.62921 0
M  V30 18470 O 1741.34 -0.719532 -1.80378 0
M  V30 18471 C 1738.47 -1.6637 -3.04858 0
M  V30 18472 C 1737.43 -2.80785 -3.23023 0
M  V30 18473 C 1736.75 -2.68257 -4.62539 0
M  V30 18474 C 1738.05 -4.22267 -3.07388 0
M  V30 18475 H 1739.75 -2.57375 -1.52965 0
M  V30 18476 H 1737.29 -1.23861 -0.734465 0
M  V30 18477 H 1739.24 -1.76266 -3.82764 0
M  V30 18478 H 1737.97 -0.695386 -3.19111 0
M  V30 18479 H 1736.63 -2.70417 -2.47529 0
M  V30 18480 H 1736.28 -1.69431 -4.73606 0
M  V30 18481 H 1735.98 -3.45022 -4.75641 0
M  V30 18482 H 1737.5 -2.80097 -5.42566 0
M  V30 18483 H 1738.91 -4.33557 -3.75102 0
M  V30 18484 H 1737.31 -4.999 -3.31994 0
M  V30 18485 H 1738.38 -4.39897 -2.04006 0
M  V30 18486 N 1739.72 0.794246 -1.36123 0
M  V30 18487 C 1740.67 1.90668 -1.30056 0
M  V30 18488 C 1741.64 1.65226 -0.170145 0
M  V30 18489 O 1742.83 1.87452 -0.355874 0
M  V30 18490 C 1739.97 3.27405 -1.09086 0
M  V30 18491 C 1739.08 3.64951 -2.31159 0
M  V30 18492 C 1738.21 4.90782 -2.0324 0
M  V30 18493 C 1737.25 5.20992 -3.21301 0
M  V30 18494 N 1736.39 6.38005 -2.93078 0
M  V30 18495 H 1741.23 1.9519 -2.25178 0
M  V30 18496 H 1738.77 0.95458 -1.1192 0
M  V30 18497 H 1740.72 4.0625 -0.94956 0
M  V30 18498 H 1739.35 3.22319 -0.176211 0
M  V30 18499 H 1738.41 2.81268 -2.5611 0
M  V30 18500 H 1739.72 3.83228 -3.19277 0
M  V30 18501 H 1738.87 5.77481 -1.86012 0
M  V30 18502 H 1737.61 4.74565 -1.12426 0
M  V30 18503 H 1736.62 4.32777 -3.39093 0
M  V30 18504 H 1737.84 5.39131 -4.12934 0
M  V30 18505 H 1735.79 6.23189 -2.0487 0
M  V30 18506 H 1735.7 6.56591 -3.74733 0
M  V30 18507 H 1736.97 7.27699 -2.79418 0
M  V30 18508 N 1741.2 1.20323 1.01785 0
M  V30 18509 C 1742.45 1.01413 1.75623 0
M  V30 18510 C 1742.78 -0.452801 1.88847 0
M  V30 18511 O 1742.06 -1.33618 1.41338 0
M  V30 18512 C 1742.34 1.69686 3.17614 0
M  V30 18513 C 1742.19 3.23815 3.12192 0
M  V30 18514 C 1743.51 1.42891 4.16257 0
M  V30 18515 H 1740.63 0.369822 0.637495 0
M  V30 18516 H 1743.27 1.4832 1.18749 0
M  V30 18517 H 1741.42 1.29806 3.66173 0
M  V30 18518 H 1743.09 3.72981 2.71446 0
M  V30 18519 H 1741.34 3.54785 2.4962 0
M  V30 18520 H 1742.01 3.66741 4.12559 0
M  V30 18521 H 1744.48 1.77486 3.76348 0
M  V30 18522 H 1743.36 1.93195 5.13777 0
M  V30 18523 H 1743.62 0.356263 4.40662 0
M  V30 18524 N 1742.68 -1.21073 1.00892 0
M  V30 18525 C 1743.93 -1.89559 0.689214 0
M  V30 18526 C 1744.24 -1.79211 -0.783753 0
M  V30 18527 O 1745.45 -2.42761 -1.2157 0
M  V30 18528 C 1743.9 -3.39925 1.18232 0
M  V30 18529 C 1743.51 -3.58876 2.68164 0
M  V30 18530 C 1745.26 -4.14014 0.937683 0
M  V30 18531 C 1743.16 -5.03027 3.10995 0
M  V30 18532 H 1742.09 -0.709895 0.254098 0
M  V30 18533 H 1744.74 -1.37017 1.2206 0
M  V30 18534 H 1743.13 -3.91745 0.578961 0
M  V30 18535 H 1744.3 -3.17478 3.33983 0
M  V30 18536 H 1742.61 -2.98146 2.90685 0
M  V30 18537 H 1745.21 -5.20285 1.23319 0
M  V30 18538 H 1745.55 -4.16109 -0.126003 0
M  V30 18539 H 1746.09 -3.68271 1.50403 0
M  V30 18540 H 1742.83 -5.06082 4.16607 0
M  V30 18541 H 1742.35 -5.45266 2.49891 0
M  V30 18542 H 1744.03 -5.7156 3.03197 0
M  V30 18543 N 1744.16 -0.784156 -1.36707 0
M  V30 18544 C 1745.39 -0.365371 -2.03344 0
M  V30 18545 C 1745.8 1.02133 -1.59266 0
M  V30 18546 O 1745.14 1.66547 -0.775098 0
M  V30 18547 C 1745.2 -0.343819 -3.57852 0
M  V30 18548 C 1744.87 -1.6772 -4.25111 0
M  V30 18549 C 1745.86 -2.63179 -4.48367 0
M  V30 18550 C 1743.55 -1.95505 -4.62691 0
M  V30 18551 C 1745.54 -3.84621 -5.08277 0
M  V30 18552 C 1743.23 -3.17215 -5.2232 0
M  V30 18553 C 1744.23 -4.11592 -5.45052 0
M  V30 18554 O 1743.91 -5.31157 -6.0343 0
M  V30 18555 H 1743.65 -0.14936 -0.659293 0
M  V30 18556 H 1746.2 -1.06269 -1.75772 0
M  V30 18557 H 1744.43 0.409964 -3.84521 0
M  V30 18558 H 1746.12 0.0495818 -4.0587 0
M  V30 18559 H 1746.89 -2.42998 -4.19735 0
M  V30 18560 H 1742.76 -1.22867 -4.44325 0
M  V30 18561 H 1746.31 -4.58298 -5.25936 0
M  V30 18562 H 1742.21 -3.37276 -5.50377 0
M  V30 18563 H 1742.97 -5.32149 -6.219 0
M  V30 18564 N 1745.64 1.48215 -0.535727 0
M  V30 18565 C 1746.88 2.021 -0.00372016 0
M  V30 18566 C 1747.21 1.41456 1.34221 0
M  V30 18567 O 1746.48 0.581987 1.87055 0
M  V30 18568 H 1745.06 0.746998 0.00161295 0
M  V30 18569 H 1747.72 1.81862 -0.700863 0
M  V30 18570 H 1746.81 3.11939 0.100352 0
M  V30 18571 N 1747.11 0.27113 1.5525 0
M  V30 18572 C 1748.34 -0.353138 2.04371 0
M  V30 18573 C 1748.76 -1.48978 1.14835 0
M  V30 18574 O 1748.12 -1.8071 0.146138 0
M  V30 18575 C 1748.17 -0.815425 3.51259 0
M  V30 18576 O 1747.27 -1.92302 3.6482 0
M  V30 18577 H 1746.62 -0.0736207 0.659906 0
M  V30 18578 H 1749.15 0.404266 2.00566 0
M  V30 18579 H 1749.16 -1.11224 3.92547 0
M  V30 18580 H 1747.83 0.0162079 4.15897 0
M  V30 18581 H 1746.41 -1.62904 3.35435 0
M  V30 18582 N 1748.59 -1.576 -0.00164943 0
M  V30 18583 C 1749.82 -1.95176 -0.701511 0
M  V30 18584 C 1750.24 -0.873191 -1.66604 0
M  V30 18585 O 1749.6 0.168818 -1.80512 0
M  V30 18586 C 1749.65 -3.31847 -1.41104 0
M  V30 18587 O 1748.75 -3.26034 -2.52539 0
M  V30 18588 H 1748.09 -0.637207 -0.186718 0
M  V30 18589 H 1750.62 -2.04536 0.0510494 0
M  V30 18590 H 1750.63 -3.67374 -1.77483 0
M  V30 18591 H 1749.31 -4.09901 -0.70382 0
M  V30 18592 H 1747.89 -3.0218 -2.18499 0
M  V30 18593 N 1750.07 0.274379 -1.55193 0
M  V30 18594 C 1751.03 1.32237 -1.87206 0
M  V30 18595 C 1752.03 1.4242 -0.74654 0
M  V30 18596 O 1753.22 1.41595 -1.01472 0
M  V30 18597 C 1750.36 2.7039 -2.0761 0
M  V30 18598 H 1751.55 1.05083 -2.80887 0
M  V30 18599 H 1749.1 0.512375 -1.47663 0
M  V30 18600 H 1749.84 3.02727 -1.16306 0
M  V30 18601 H 1749.62 2.64385 -2.89556 0
M  V30 18602 H 1751.11 3.46114 -2.33655 0
M  V30 18603 N 1751.55 1.48103 0.538828 0
M  V30 18604 C 1752.8 1.55362 1.29256 0
M  V30 18605 C 1753.12 0.225427 1.93693 0
M  V30 18606 O 1752.39 -0.75228 1.8088 0
M  V30 18607 H 1750.97 0.57233 0.480049 0
M  V30 18608 H 1753.63 1.84514 0.627749 0
M  V30 18609 H 1752.73 2.32998 2.07649 0
M  V30 18610 N 1753.03 -0.787016 1.36542 0
M  V30 18611 C 1754.27 -1.54499 1.30906 0
M  V30 18612 C 1754.6 -1.94183 -0.110963 0
M  V30 18613 O 1753.86 -1.63149 -1.08079 0
M  V30 18614 C 1754.16 -2.83235 2.17974 0
M  V30 18615 C 1753.82 -2.62677 3.66485 0
M  V30 18616 C 1752.48 -2.56779 4.06962 0
M  V30 18617 C 1754.84 -2.43853 4.60636 0
M  V30 18618 C 1752.16 -2.30026 5.39727 0
M  V30 18619 C 1754.52 -2.18626 5.93621 0
M  V30 18620 C 1753.18 -2.11162 6.33219 0
M  V30 18621 H 1752.45 -0.565352 0.479017 0
M  V30 18622 H 1755.1 -0.907794 1.68616 0
M  V30 18623 H 1753.4 -3.51435 1.73208 0
M  V30 18624 H 1755.1 -3.41038 2.10936 0
M  V30 18625 H 1751.69 -2.68125 3.34376 0
M  V30 18626 H 1755.87 -2.4741 4.30235 0
M  V30 18627 H 1751.13 -2.22731 5.69386 0
M  V30 18628 H 1755.3 -2.03056 6.66139 0
M  V30 18629 H 1752.93 -1.90195 7.36023 0
M  V30 18630 N 1754.5 -1.20861 -1.01145 0
M  V30 18631 C 1755.45 -0.929642 -2.08187 0
M  V30 18632 C 1756.44 0.112578 -1.60506 0
M  V30 18633 O 1757.63 -0.0954894 -1.76742 0
M  V30 18634 C 1754.76 -0.489163 -3.39797 0
M  V30 18635 C 1753.85 -1.5651 -3.94164 0
M  V30 18636 N 1754.24 -2.7887 -4.21978 0
M  V30 18637 C 1752.53 -1.43246 -4.2237 0
M  V30 18638 C 1753.24 -3.48309 -4.65892 0
M  V30 18639 N 1752.21 -2.75734 -4.68478 0
M  V30 18640 H 1756.01 -1.85937 -2.27606 0
M  V30 18641 H 1753.53 -1.10338 -1.19161 0
M  V30 18642 H 1755.52 -0.27069 -4.1602 0
M  V30 18643 H 1754.18 0.433877 -3.21788 0
M  V30 18644 H 1755.2 -3.15473 -4.10727 0
M  V30 18645 H 1751.87 -0.57422 -4.13532 0
M  V30 18646 H 1753.26 -4.53042 -4.96188 0
M  V30 18647 N 1755.98 1.20536 -1.01532 0
M  V30 18648 C 1756.95 2.21495 -0.589298 0
M  V30 18649 C 1757.95 1.57167 0.339871 0
M  V30 18650 O 1759.14 1.73724 0.128736 0
M  V30 18651 C 1756.27 3.40614 0.139623 0
M  V30 18652 H 1757.46 2.607 -1.48241 0
M  V30 18653 H 1755.01 1.33977 -0.804977 0
M  V30 18654 H 1755.75 3.0691 1.04771 0
M  V30 18655 H 1755.53 3.88531 -0.52785 0
M  V30 18656 H 1757.02 4.15431 0.425083 0
M  V30 18657 N 1757.46 0.791395 1.36289 0
M  V30 18658 C 1758.71 0.365242 1.99484 0
M  V30 18659 C 1759.04 -1.06087 1.62663 0
M  V30 18660 O 1758.31 -1.73332 0.882396 0
M  V30 18661 C 1758.6 0.531317 3.56159 0
M  V30 18662 C 1758.45 2.00126 4.02827 0
M  V30 18663 C 1759.77 -0.0524248 4.40069 0
M  V30 18664 H 1756.89 0.134183 0.724682 0
M  V30 18665 H 1759.53 0.998102 1.61672 0
M  V30 18666 H 1757.68 -0.0074293 3.88499 0
M  V30 18667 H 1759.35 2.60122 3.80965 0
M  V30 18668 H 1757.6 2.50316 3.54294 0
M  V30 18669 H 1758.27 2.06842 5.11782 0
M  V30 18670 H 1760.74 0.407489 4.141 0
M  V30 18671 H 1759.62 0.0937898 5.4882 0
M  V30 18672 H 1759.88 -1.14472 4.27023 0
M  V30 18673 N 1758.94 -1.47929 0.54358 0
M  V30 18674 C 1760.22 -1.95535 -0.0505687 0
M  V30 18675 C 1760.6 -1.48603 -1.49934 0
M  V30 18676 O 1759.94 -0.718655 -2.16905 0
M  V30 18677 C 1760.15 -3.48907 0.0807654 0
M  V30 18678 C 1761.5 -4.2454 -0.0715671 0
M  V30 18679 O 1762.53 -3.56199 0.007637 0
M  V30 18680 O 1761.39 -5.45975 -0.239596 0
M  V30 18681 H 1758.48 -0.823883 -0.0717396 0
M  V30 18682 H 1761.03 -1.58391 0.60914 0
M  V30 18683 H 1759.8 -3.75828 1.08944 0
M  V30 18684 H 1759.42 -3.92781 -0.617178 0
M  V30 18685 N 1760.42 -0.27936 -1.55104 0
M  V30 18686 C 1761.66 0.336703 -1.99985 0
M  V30 18687 C 1762 1.55186 -1.16752 0
M  V30 18688 O 1761.27 1.93031 -0.238626 0
M  V30 18689 C 1761.55 0.714701 -3.52936 0
M  V30 18690 C 1761.41 -0.508088 -4.46921 0
M  V30 18691 C 1762.73 1.54953 -4.11919 0
M  V30 18692 H 1759.85 0.120908 -0.727015 0
M  V30 18693 H 1762.49 -0.38715 -1.86014 0
M  V30 18694 H 1760.64 1.33143 -3.64973 0
M  V30 18695 H 1762.31 -1.14664 -4.46822 0
M  V30 18696 H 1760.55 -1.14537 -4.18406 0
M  V30 18697 H 1761.22 -0.199782 -5.51638 0
M  V30 18698 H 1763.7 1.02864 -4.03185 0
M  V30 18699 H 1762.58 1.78282 -5.1914 0
M  V30 18700 H 1762.84 2.53192 -3.62417 0
M  V30 18701 N 1761.9 1.57599 -0.0067085 0
M  V30 18702 C 1763.17 1.82097 0.714141 0
M  V30 18703 C 1763.55 0.885868 1.91613 0
M  V30 18704 O 1762.9 -0.0638506 2.28411 0
M  V30 18705 C 1763.11 3.30759 1.11354 0
M  V30 18706 C 1764.46 3.96668 1.51459 0
M  V30 18707 O 1765.48 3.35121 1.20715 0
M  V30 18708 O 1764.34 5.051 2.08654 0
M  V30 18709 H 1761.44 0.750071 0.348314 0
M  V30 18710 H 1763.98 1.69669 -0.0326766 0
M  V30 18711 H 1762.75 3.90455 0.257068 0
M  V30 18712 H 1762.38 3.48211 1.91924 0
M  V30 18713 N 1763.37 -0.266145 1.55336 0
M  V30 18714 C 1764.6 -1.01915 1.80633 0
M  V30 18715 C 1765.02 -1.78897 0.581172 0
M  V30 18716 O 1764.38 -1.75118 -0.469399 0
M  V30 18717 C 1764.43 -1.948 3.03456 0
M  V30 18718 O 1763.53 -3.03678 2.79022 0
M  V30 18719 H 1762.87 -0.29102 0.596828 0
M  V30 18720 H 1765.4 -0.292973 2.02492 0
M  V30 18721 H 1765.41 -2.36626 3.32373 0
M  V30 18722 H 1764.09 -1.38182 3.92273 0
M  V30 18723 H 1762.67 -2.66118 2.61219 0
M  V30 18724 N 1764.85 -1.48386 -0.530967 0
M  V30 18725 C 1766.1 -1.56045 -1.28431 0
M  V30 18726 C 1766.42 -0.235695 -1.9357 0
M  V30 18727 O 1765.69 0.742677 -1.81276 0
M  V30 18728 H 1764.27 -0.574868 -0.477007 0
M  V30 18729 H 1766.93 -1.84844 -0.617955 0
M  V30 18730 H 1766.03 -2.34096 -2.0641 0
M  V30 18731 N 1766.33 0.779763 -1.36958 0
M  V30 18732 C 1767.28 1.91417 -1.32145 0
M  V30 18733 C 1768.27 1.68074 -0.211572 0
M  V30 18734 O 1769.48 1.75962 -0.379139 0
M  V30 18735 H 1765.85 0.62934 -0.411624 0
M  V30 18736 H 1767.82 1.92594 -2.27926 0
M  V30 18737 C 1766.57 3.28574 -1.13729 0
M  V30 18738 H 1765.9 3.47109 -1.98383 0
M  V30 18739 H 1767.34 4.08272 -1.1441 0
M  V30 18740 C 1765.79 3.36531 0.157538 0
M  V30 18741 O 1766.32 3.85067 1.14397 0
M  V30 18742 N 1764.53 2.89872 0.205509 0
M  V30 18743 H 1764.08 2.50566 -0.597854 0
M  V30 18744 H 1764.04 2.95578 1.07151 0
M  V30 18745 N 1767.81 1.21396 1.00503 0
M  V30 18746 C 1769.03 1.05791 1.7839 0
M  V30 18747 C 1769.46 -0.387921 1.84056 0
M  V30 18748 O 1768.82 -1.27983 1.28413 0
M  V30 18749 C 1768.86 1.65967 3.20137 0
M  V30 18750 O 1767.97 0.905123 4.02345 0
M  V30 18751 H 1767.31 0.372331 0.549787 0
M  V30 18752 H 1769.84 1.60938 1.26334 0
M  V30 18753 H 1769.85 1.70186 3.70811 0
M  V30 18754 H 1768.52 2.71185 3.15327 0
M  V30 18755 H 1767.1 0.938019 3.60909 0
M  V30 18756 N 1769.29 -1.19996 1.0217 0
M  V30 18757 C 1770.52 -1.93186 0.732311 0
M  V30 18758 C 1770.92 -1.75303 -0.711724 0
M  V30 18759 O 1770.27 -1.06756 -1.49495 0
M  V30 18760 C 1770.33 -3.45466 0.994655 0
M  V30 18761 C 1769.99 -3.87114 2.42882 0
M  V30 18762 C 1770.99 -3.92459 3.40987 0
M  V30 18763 C 1768.67 -4.18958 2.77091 0
M  V30 18764 C 1770.67 -4.29067 4.7136 0
M  V30 18765 C 1768.36 -4.5524 4.07676 0
M  V30 18766 C 1769.35 -4.60267 5.04622 0
M  V30 18767 O 1769.04 -4.95713 6.32869 0
M  V30 18768 H 1768.77 -0.62069 0.267806 0
M  V30 18769 H 1771.33 -1.53287 1.3672 0
M  V30 18770 H 1769.56 -3.85514 0.30261 0
M  V30 18771 H 1771.25 -3.99887 0.696049 0
M  V30 18772 H 1772.01 -3.68016 3.15895 0
M  V30 18773 H 1767.89 -4.14233 2.02317 0
M  V30 18774 H 1771.44 -4.32905 5.47027 0
M  V30 18775 H 1767.33 -4.7914 4.32545 0
M  V30 18776 H 1768.1 -5.13687 6.37234 0
M  V30 18777 N 1770.76 -0.798611 -1.35867 0
M  V30 18778 C 1772.04 -0.298858 -1.93303 0
M  V30 18779 C 1772.42 1.21038 -1.72954 0
M  V30 18780 O 1771.77 2.00617 -1.09386 0
M  V30 18781 C 1771.98 -0.701532 -3.41876 0
M  V30 18782 C 1773.33 -0.686486 -4.19014 0
M  V30 18783 O 1774.35 -0.642577 -3.50356 0
M  V30 18784 O 1773.21 -0.737653 -5.41499 0
M  V30 18785 H 1770.3 -0.0762987 -0.823473 0
M  V30 18786 H 1772.85 -0.881773 -1.44993 0
M  V30 18787 H 1771.62 -1.74204 -3.50383 0
M  V30 18788 H 1771.24 -0.092994 -3.97491 0
M  V30 18789 N 1772.24 1.47639 -0.551417 0
M  V30 18790 C 1773.49 2.01687 -0.0230887 0
M  V30 18791 C 1773.8 1.43178 1.33265 0
M  V30 18792 O 1775.01 1.88853 1.95056 0
M  V30 18793 C 1773.47 3.59899 0.00918719 0
M  V30 18794 C 1773.07 4.27398 -1.34295 0
M  V30 18795 C 1774.82 4.21718 0.485213 0
M  V30 18796 C 1772.72 5.77601 -1.2701 0
M  V30 18797 H 1771.65 0.753984 -0.00486122 0
M  V30 18798 H 1774.31 1.6969 -0.698405 0
M  V30 18799 H 1772.69 3.88832 0.75003 0
M  V30 18800 H 1773.86 4.10113 -2.10105 0
M  V30 18801 H 1772.18 3.77542 -1.75644 0
M  V30 18802 H 1774.77 5.3178 0.558025 0
M  V30 18803 H 1775.12 3.88495 1.4959 0
M  V30 18804 H 1775.65 3.97294 -0.200594 0
M  V30 18805 H 1772.39 6.15433 -2.2566 0
M  V30 18806 H 1771.91 5.97239 -0.553709 0
M  V30 18807 H 1773.59 6.39692 -0.969726 0
M  V30 18808 N 1773.72 0.287581 1.54954 0
M  V30 18809 C 1774.95 -0.328124 2.03978 0
M  V30 18810 C 1775.36 -1.49083 1.16494 0
M  V30 18811 O 1774.7 -1.82813 0.180286 0
M  V30 18812 C 1774.76 -0.859765 3.49068 0
M  V30 18813 C 1774.43 0.175918 4.56661 0
M  V30 18814 C 1775.42 0.999759 5.10197 0
M  V30 18815 C 1773.11 0.313751 5.01319 0
M  V30 18816 C 1775.1 1.9475 6.06919 0
M  V30 18817 C 1772.79 1.26495 5.97865 0
M  V30 18818 C 1773.79 2.08032 6.50547 0
M  V30 18819 O 1773.48 3.01542 7.45203 0
M  V30 18820 H 1773.21 -0.0772306 0.671574 0
M  V30 18821 H 1775.76 0.42115 2.01036 0
M  V30 18822 H 1773.99 -1.65933 3.49289 0
M  V30 18823 H 1775.68 -1.3899 3.81361 0
M  V30 18824 H 1776.45 0.904073 4.76499 0
M  V30 18825 H 1772.33 -0.310922 4.5995 0
M  V30 18826 H 1775.87 2.58433 6.47965 0
M  V30 18827 H 1771.77 1.36141 6.3098 0
M  V30 18828 H 1772.54 2.96367 7.62961 0
M  V30 18829 N 1775.2 -1.57593 0.0150662 0
M  V30 18830 C 1776.45 -1.90392 -0.66587 0
M  V30 18831 C 1776.76 -0.891694 -1.74092 0
M  V30 18832 O 1777.97 -1.11043 -2.47753 0
M  V30 18833 C 1776.42 -3.38026 -1.23558 0
M  V30 18834 C 1776.03 -4.47577 -0.19455 0
M  V30 18835 C 1777.77 -3.79913 -1.89384 0
M  V30 18836 C 1775.68 -5.86299 -0.7751 0
M  V30 18837 H 1774.61 -0.710474 -0.252473 0
M  V30 18838 H 1777.26 -1.83334 0.0780739 0
M  V30 18839 H 1775.64 -3.3997 -2.03068 0
M  V30 18840 H 1776.82 -4.57172 0.577061 0
M  V30 18841 H 1775.13 -4.14805 0.364134 0
M  V30 18842 H 1777.73 -4.809 -2.3375 0
M  V30 18843 H 1778.07 -3.14225 -2.73072 0
M  V30 18844 H 1778.61 -3.80333 -1.16585 0
M  V30 18845 H 1775.35 -6.55496 0.0233354 0
M  V30 18846 H 1774.87 -5.80338 -1.51552 0
M  V30 18847 H 1776.54 -6.3443 -1.26915 0
M  V30 18848 N 1776.68 0.257904 -1.55475 0
M  V30 18849 C 1778.09 0.82782 -1.67344 0
M  V30 18850 C 1778.44 1.8646 -0.610494 0
M  V30 18851 O 1777.56 2.15005 0.245275 0
M  V30 18852 C 1778.16 1.5083 -3.03374 0
M  V30 18853 C 1776.72 2.02605 -3.17219 0
M  V30 18854 C 1775.86 0.873303 -2.63189 0
M  V30 18855 H 1778.82 0.0339334 -1.58664 0
M  V30 18856 H 1778.84 2.3759 -2.97205 0
M  V30 18857 H 1778.35 0.753469 -3.80716 0
M  V30 18858 H 1776.45 2.81002 -2.4468 0
M  V30 18859 H 1776.56 2.23099 -4.23985 0
M  V30 18860 H 1774.93 1.27082 -2.20731 0
M  V30 18861 H 1775.71 0.131739 -3.43047 0
M  V30 18862 N 1778.15 1.48666 0.52309 0
M  V30 18863 C 1779.4 1.57267 1.28043 0
M  V30 18864 C 1779.73 0.248801 1.926 0
M  V30 18865 O 1779.01 -0.745814 1.79633 0
M  V30 18866 C 1779.29 2.71595 2.36449 0
M  V30 18867 C 1779.14 4.13708 1.76538 0
M  V30 18868 C 1780.46 2.81654 3.3817 0
M  V30 18869 H 1777.58 0.572455 0.464181 0
M  V30 18870 H 1780.22 1.80866 0.582013 0
M  V30 18871 H 1778.37 2.51604 2.9602 0
M  V30 18872 H 1780.05 4.45158 1.20964 0
M  V30 18873 H 1778.29 4.20386 1.07041 0
M  V30 18874 H 1778.96 4.89538 2.55062 0
M  V30 18875 H 1781.44 2.99784 2.88563 0
M  V30 18876 H 1780.31 3.63366 4.11408 0
M  V30 18877 H 1780.57 1.90093 3.99145 0
M  V30 18878 N 1779.63 -0.772489 1.37369 0
M  V30 18879 C 1780.58 -1.87592 1.29589 0
M  V30 18880 C 1781.57 -1.59846 0.183869 0
M  V30 18881 O 1782.76 -1.71989 0.418198 0
M  V30 18882 C 1779.89 -3.25051 1.1044 0
M  V30 18883 C 1778.97 -3.58751 2.26183 0
M  V30 18884 N 1779.36 -3.63638 3.51569 0
M  V30 18885 C 1777.66 -3.88912 2.1832 0
M  V30 18886 C 1778.36 -3.94064 4.27888 0
M  V30 18887 N 1777.34 -4.09925 3.57019 0
M  V30 18888 H 1781.14 -1.89621 2.24546 0
M  V30 18889 H 1778.66 -0.968896 1.30331 0
M  V30 18890 H 1780.65 -4.03989 1.02951 0
M  V30 18891 H 1779.31 -3.24286 0.163986 0
M  V30 18892 H 1780.32 -3.45862 3.85487 0
M  V30 18893 H 1777 -3.95973 1.32332 0
M  V30 18894 H 1778.39 -4.04627 5.36401 0
M  V30 18895 N 1781.11 -1.21927 -0.998575 0
M  V30 18896 C 1782.36 -1.03456 -1.73147 0
M  V30 18897 C 1782.67 0.431472 -1.90782 0
M  V30 18898 O 1783.88 0.73573 -2.61341 0
M  V30 18899 C 1782.33 -1.80256 -3.11506 0
M  V30 18900 C 1781.94 -3.31071 -3.01821 0
M  V30 18901 C 1783.69 -1.70214 -3.8888 0
M  V30 18902 C 1781.59 -4.00335 -4.35299 0
M  V30 18903 H 1780.52 -0.3835 -0.649187 0
M  V30 18904 H 1783.17 -1.45724 -1.11521 0
M  V30 18905 H 1781.56 -1.30784 -3.7378 0
M  V30 18906 H 1782.73 -3.87895 -2.48746 0
M  V30 18907 H 1781.05 -3.41727 -2.37932 0
M  V30 18908 H 1783.64 -2.19289 -4.87664 0
M  V30 18909 H 1783.99 -0.661522 -4.1101 0
M  V30 18910 H 1784.52 -2.17199 -3.33271 0
M  V30 18911 H 1781.26 -5.04626 -4.18369 0
M  V30 18912 H 1780.78 -3.48301 -4.8831 0
M  V30 18913 H 1782.46 -4.05611 -5.04072 0
M  V30 18914 N 1782.59 1.19452 -1.02805 0
M  V30 18915 C 1783.52 2.22095 -0.566246 0
M  V30 18916 C 1784.53 1.58828 0.357442 0
M  V30 18917 O 1785.72 1.77835 0.153965 0
M  V30 18918 C 1782.82 3.38343 0.194294 0
M  V30 18919 C 1782 4.31195 -0.734131 0
M  V30 18920 C 1781.05 5.26197 -0.0191426 0
M  V30 18921 O 1780.08 5.65529 -0.645436 0
M  V30 18922 N 1781.28 5.66841 1.25187 0
M  V30 18923 H 1784.05 2.62342 -1.44902 0
M  V30 18924 H 1781.61 1.3411 -0.906978 0
M  V30 18925 H 1783.6 3.9891 0.682136 0
M  V30 18926 H 1782.17 2.96892 0.978474 0
M  V30 18927 H 1781.39 3.68423 -1.40208 0
M  V30 18928 H 1782.68 4.90144 -1.36516 0
M  V30 18929 H 1782.08 5.36918 1.78145 0
M  V30 18930 H 1780.63 6.29664 1.68423 0
M  V30 18931 N 1784.07 0.805805 1.35442 0
M  V30 18932 C 1785.29 0.397179 2.03561 0
M  V30 18933 C 1785.72 -0.983665 1.6033 0
M  V30 18934 O 1785.07 -1.63683 0.779586 0
M  V30 18935 C 1785.12 0.487813 3.57285 0
M  V30 18936 O 1784.23 -0.499039 4.09369 0
M  V30 18937 H 1783.57 0.166009 0.642913 0
M  V30 18938 H 1786.1 1.09147 1.73055 0
M  V30 18939 H 1786.11 0.357334 4.06432 0
M  V30 18940 H 1784.78 1.49501 3.88101 0
M  V30 18941 H 1783.36 -0.328864 3.71447 0
M  V30 18942 N 1785.54 -1.47344 0.559239 0
M  V30 18943 C 1786.48 -2.28095 -0.224826 0
M  V30 18944 C 1787.49 -1.37127 -0.877492 0
M  V30 18945 O 1788.68 -1.61933 -0.751002 0
M  V30 18946 C 1785.78 -3.1145 -1.33611 0
M  V30 18947 C 1784.95 -4.30392 -0.779845 0
M  V30 18948 C 1784.01 -4.95327 -1.77587 0
M  V30 18949 O 1783.04 -5.53654 -1.32119 0
M  V30 18950 N 1784.24 -4.90206 -3.10931 0
M  V30 18951 H 1787 -2.96026 0.46786 0
M  V30 18952 H 1784.56 -1.56996 0.395448 0
M  V30 18953 H 1786.56 -3.51758 -2.00121 0
M  V30 18954 H 1785.13 -2.45749 -1.932 0
M  V30 18955 H 1784.35 -3.94151 0.0620861 0
M  V30 18956 H 1785.63 -5.07322 -0.387581 0
M  V30 18957 H 1785.03 -4.44022 -3.50515 0
M  V30 18958 H 1783.59 -5.34527 -3.72994 0
M  V30 18959 N 1787.02 -0.295795 -1.54799 0
M  V30 18960 C 1788.27 0.315754 -1.99213 0
M  V30 18961 C 1788.58 1.55405 -1.18779 0
M  V30 18962 O 1789.79 2.23986 -1.53436 0
M  V30 18963 C 1788.25 0.613119 -3.54639 0
M  V30 18964 C 1787.85 -0.606546 -4.43875 0
M  V30 18965 C 1789.6 1.18615 -4.07591 0
M  V30 18966 C 1787.51 -0.282622 -5.90724 0
M  V30 18967 H 1786.44 0.121758 -0.744104 0
M  V30 18968 H 1789.09 -0.403686 -1.79005 0
M  V30 18969 H 1787.47 1.39202 -3.70728 0
M  V30 18970 H 1788.64 -1.3829 -4.39559 0
M  V30 18971 H 1786.96 -1.09785 -4.01667 0
M  V30 18972 H 1789.55 1.44266 -5.1487 0
M  V30 18973 H 1789.9 2.12674 -3.57876 0
M  V30 18974 H 1790.43 0.469078 -3.95025 0
M  V30 18975 H 1787.17 -1.19164 -6.44578 0
M  V30 18976 H 1786.69 0.456564 -5.9806 0
M  V30 18977 H 1788.37 0.117703 -6.46893 0
M  V30 18978 N 1788.5 1.57583 -0.0234236 0
M  V30 18979 C 1789.73 1.95861 0.666797 0
M  V30 18980 C 1790.14 0.899616 1.65989 0
M  V30 18981 O 1789.5 -0.119162 1.82111 0
M  V30 18982 C 1789.55 3.34198 1.37818 0
M  V30 18983 O 1789.27 4.36035 0.424887 0
M  V30 18984 C 1790.77 3.87074 2.16075 0
M  V30 18985 H 1787.99 0.645213 0.184233 0
M  V30 18986 H 1790.54 2.04338 -0.0814987 0
M  V30 18987 H 1788.69 3.26958 2.07792 0
M  V30 18988 H 1789.11 5.162 0.929394 0
M  V30 18989 H 1790.58 4.8623 2.61312 0
M  V30 18990 H 1791.06 3.21017 2.99741 0
M  V30 18991 H 1791.66 3.97565 1.5107 0
M  V30 18992 N 1789.98 -0.249655 1.5561 0
M  V30 18993 C 1791.39 -0.818934 1.67781 0
M  V30 18994 C 1791.74 -1.86134 0.620374 0
M  V30 18995 O 1790.87 -2.15133 -0.233869 0
M  V30 18996 C 1791.46 -1.49219 3.0417 0
M  V30 18997 C 1790.02 -2.0092 3.18289 0
M  V30 18998 C 1789.17 -0.859333 2.63649 0
M  V30 18999 H 1792.12 -0.0255186 1.58679 0
M  V30 19000 H 1792.14 -2.36011 2.98461 0
M  V30 19001 H 1791.65 -0.733268 3.8111 0
M  V30 19002 H 1789.75 -2.79701 2.46167 0
M  V30 19003 H 1789.87 -2.20848 4.25163 0
M  V30 19004 H 1788.23 -1.2591 2.21402 0
M  V30 19005 H 1789.01 -0.113545 3.43112 0
M  V30 19006 N 1791.46 -1.48941 -0.515198 0
M  V30 19007 C 1792.41 -1.60958 -1.61482 0
M  V30 19008 C 1793.39 -0.46591 -1.54007 0
M  V30 19009 O 1794.58 -0.718134 -1.61777 0
M  V30 19010 C 1791.71 -1.66623 -3.00153 0
M  V30 19011 C 1790.8 -2.8652 -3.12677 0
M  V30 19012 N 1791.19 -4.10769 -2.95131 0
M  V30 19013 C 1789.49 -2.84161 -3.43756 0
M  V30 19014 C 1790.19 -4.9129 -3.11463 0
M  V30 19015 N 1789.16 -4.24384 -3.39704 0
M  V30 19016 H 1792.97 -2.54756 -1.46549 0
M  V30 19017 H 1790.48 -1.45517 -0.721007 0
M  V30 19018 H 1792.48 -1.73328 -3.79161 0
M  V30 19019 H 1791.14 -0.739523 -3.16166 0
M  V30 19020 H 1792.15 -4.40974 -2.71593 0
M  V30 19021 H 1788.83 -2.00809 -3.66035 0
M  V30 19022 H 1790.22 -5.99948 -3.0251 0
M  V30 19023 N 1792.94 0.765193 -1.37777 0
M  V30 19024 C 1793.9 1.8603 -1.33886 0
M  V30 19025 C 1794.9 1.58974 -0.241614 0
M  V30 19026 O 1796.09 1.66935 -0.497843 0
M  V30 19027 C 1793.22 3.2329 -1.08151 0
M  V30 19028 H 1794.41 1.9089 -2.31303 0
M  V30 19029 H 1791.97 0.965653 -1.22902 0
M  V30 19030 H 1792.7 3.24103 -0.112926 0
M  V30 19031 H 1792.49 3.4432 -1.8758 0
M  V30 19032 H 1793.98 4.03367 -1.08095 0
M  V30 19033 N 1794.41 1.22455 0.992094 0
M  V30 19034 C 1795.66 1.04373 1.72596 0
M  V30 19035 C 1795.98 -0.421349 1.91008 0
M  V30 19036 O 1797.18 -0.72186 2.61728 0
M  V30 19037 C 1795.64 1.81906 3.10545 0
M  V30 19038 C 1795.25 3.32667 3.00061 0
M  V30 19039 C 1796.99 1.72274 3.87972 0
M  V30 19040 C 1794.9 4.02638 4.3317 0
M  V30 19041 H 1793.83 0.386937 0.647144 0
M  V30 19042 H 1796.48 1.46313 1.10746 0
M  V30 19043 H 1794.86 1.32764 3.73081 0
M  V30 19044 H 1796.03 3.89208 2.46685 0
M  V30 19045 H 1794.35 3.42984 2.36117 0
M  V30 19046 H 1796.95 2.21872 4.86494 0
M  V30 19047 H 1797.29 0.68331 4.10654 0
M  V30 19048 H 1797.82 2.18963 3.32115 0
M  V30 19049 H 1794.56 5.06838 4.15687 0
M  V30 19050 H 1794.08 3.50885 4.86456 0
M  V30 19051 H 1795.76 4.08279 5.01914 0
M  V30 19052 N 1795.89 -1.18905 1.03437 0
M  V30 19053 C 1797.14 -1.88055 0.729268 0
M  V30 19054 C 1797.45 -1.80833 -0.745564 0
M  V30 19055 O 1798.66 -2.45285 -1.16393 0
M  V30 19056 C 1797.12 -3.37341 1.25415 0
M  V30 19057 C 1796.72 -3.53107 2.75716 0
M  V30 19058 C 1798.47 -4.11932 1.02529 0
M  V30 19059 C 1796.37 -4.96317 3.21595 0
M  V30 19060 H 1795.3 -0.704345 0.269098 0
M  V30 19061 H 1797.96 -1.34397 1.24938 0
M  V30 19062 H 1796.34 -3.90429 0.661925 0
M  V30 19063 H 1797.51 -3.10322 3.40642 0
M  V30 19064 H 1795.83 -2.91913 2.96944 0
M  V30 19065 H 1798.42 -5.17552 1.34328 0
M  V30 19066 H 1798.77 -4.16283 -0.0377114 0
M  V30 19067 H 1799.3 -3.64998 1.5818 0
M  V30 19068 H 1796.04 -4.97131 4.27248 0
M  V30 19069 H 1795.56 -5.39842 2.61401 0
M  V30 19070 H 1797.24 -5.65 3.15253 0
M  V30 19071 N 1797.37 -0.812977 -1.35013 0
M  V30 19072 C 1798.62 -0.396345 -1.98583 0
M  V30 19073 C 1798.94 1.0381 -1.6448 0
M  V30 19074 O 1798.2 1.73604 -0.903344 0
M  V30 19075 C 1798.5 -0.534083 -3.53387 0
M  V30 19076 C 1798.16 -1.93278 -4.07375 0
M  V30 19077 C 1796.83 -2.31543 -4.21831 0
M  V30 19078 C 1799.18 -2.84756 -4.36535 0
M  V30 19079 C 1796.51 -3.60641 -4.62769 0
M  V30 19080 C 1798.86 -4.13308 -4.78915 0
M  V30 19081 C 1797.52 -4.51563 -4.91576 0
M  V30 19082 H 1796.79 -0.145033 -0.726668 0
M  V30 19083 H 1799.44 -1.035 -1.61121 0
M  V30 19084 H 1797.74 0.188002 -3.91349 0
M  V30 19085 H 1799.44 -0.192396 -4.00538 0
M  V30 19086 H 1796.03 -1.62551 -3.96579 0
M  V30 19087 H 1800.22 -2.56441 -4.24914 0
M  V30 19088 H 1795.47 -3.9012 -4.70761 0
M  V30 19089 H 1799.65 -4.84287 -5.00439 0
M  V30 19090 H 1797.27 -5.51649 -5.23056 0
M  V30 19091 N 1798.85 1.47045 -0.567045 0
M  V30 19092 C 1799.78 2.32929 0.163191 0
M  V30 19093 C 1800.76 1.44393 0.899142 0
M  V30 19094 O 1801.94 1.73235 0.87768 0
M  V30 19095 C 1799.07 3.26369 1.18745 0
M  V30 19096 C 1798.03 4.24223 0.567335 0
M  V30 19097 C 1797.35 5.07058 1.69693 0
M  V30 19098 C 1798.65 5.2004 -0.485319 0
M  V30 19099 H 1800.35 2.94233 -0.553837 0
M  V30 19100 H 1797.89 1.41488 -0.267789 0
M  V30 19101 H 1799.85 3.85299 1.70654 0
M  V30 19102 H 1798.57 2.6314 1.93455 0
M  V30 19103 H 1797.23 3.66534 0.0694525 0
M  V30 19104 H 1796.88 4.40226 2.43331 0
M  V30 19105 H 1796.58 5.73316 1.28774 0
M  V30 19106 H 1798.1 5.68848 2.2191 0
M  V30 19107 H 1799.52 5.73277 -0.0519049 0
M  V30 19108 H 1797.91 5.94554 -0.813942 0
M  V30 19109 H 1798.98 4.64921 -1.37754 0
M  V30 19110 N 1800.33 0.304 1.5464 0
M  V30 19111 C 1801.74 -0.188042 1.85751 0
M  V30 19112 C 1802.09 -1.53186 1.22591 0
M  V30 19113 O 1801.21 -2.09943 0.524696 0
M  V30 19114 C 1801.81 -0.347976 3.37008 0
M  V30 19115 C 1800.37 -0.784238 3.68139 0
M  V30 19116 C 1799.51 0.105654 2.77099 0
M  V30 19117 H 1802.46 0.524918 1.49767 0
M  V30 19118 H 1802.49 -1.18207 3.61673 0
M  V30 19119 H 1802 0.630227 3.82949 0
M  V30 19120 H 1800.1 -1.77288 3.27719 0
M  V30 19121 H 1800.21 -0.601546 4.75309 0
M  V30 19122 H 1798.58 -0.415561 2.51287 0
M  V30 19123 H 1799.36 1.08027 3.25861 0
M  V30 19124 N 1801.8 -1.57568 0.0317802 0
M  V30 19125 C 1802.75 -2.11538 -0.967175 0
M  V30 19126 C 1803.75 -1.04258 -1.33516 0
M  V30 19127 O 1804.95 -1.2269 -1.31709 0
M  V30 19128 H 1801.33 -0.675877 -0.329687 0
M  V30 19129 H 1803.3 -2.94404 -0.486695 0
M  V30 19130 C 1802.05 -2.65973 -2.2395 0
M  V30 19131 H 1801.37 -3.48172 -1.96509 0
M  V30 19132 H 1802.81 -3.07379 -2.92052 0
M  V30 19133 C 1801.27 -1.5884 -2.97105 0
M  V30 19134 O 1801.8 -0.989784 -3.89315 0
M  V30 19135 N 1800 -1.30821 -2.59488 0
M  V30 19136 H 1799.55 -1.79687 -1.84581 0
M  V30 19137 H 1799.51 -0.593658 -3.08744 0
M  V30 19138 N 1803.28 0.241399 -1.5574 0
M  V30 19139 C 1804.51 0.986075 -1.81891 0
M  V30 19140 C 1804.93 1.78734 -0.608254 0
M  V30 19141 O 1804.28 1.77527 0.423129 0
M  V30 19142 C 1804.33 1.91956 -3.06325 0
M  V30 19143 O 1804.05 1.15071 -4.22718 0
M  V30 19144 C 1805.56 2.77977 -3.45317 0
M  V30 19145 H 1802.78 0.289913 -0.605137 0
M  V30 19146 H 1805.32 0.262622 -2.02807 0
M  V30 19147 H 1803.47 2.59721 -2.87443 0
M  V30 19148 H 1803.89 1.78261 -4.93278 0
M  V30 19149 H 1805.36 3.39215 -4.35474 0
M  V30 19150 H 1805.84 3.49369 -2.66154 0
M  V30 19151 H 1806.45 2.15655 -3.66569 0
M  V30 19152 N 1804.76 1.49212 0.507292 0
M  V30 19153 C 1806.04 1.4888 1.26863 0
M  V30 19154 C 1806.42 0.213007 2.10023 0
M  V30 19155 O 1805.77 -0.804785 2.13858 0
M  V30 19156 C 1805.98 2.76407 2.13073 0
M  V30 19157 C 1807.32 3.25647 2.72468 0
M  V30 19158 O 1808.35 2.77481 2.23344 0
M  V30 19159 O 1807.21 4.09518 3.6188 0
M  V30 19160 H 1804.3 0.595597 0.573754 0
M  V30 19161 H 1806.85 1.6147 0.52208 0
M  V30 19162 H 1805.62 3.60758 1.51558 0
M  V30 19163 H 1805.24 2.66648 2.94932 0
M  V30 19164 N 1806.24 -0.757876 1.38181 0
M  V30 19165 C 1807.49 -1.51388 1.33888 0
M  V30 19166 C 1807.81 -1.94867 -0.0718767 0
M  V30 19167 O 1807.08 -1.67329 -1.01871 0
M  V30 19168 H 1805.66 -0.561534 0.492634 0
M  V30 19169 H 1808.32 -0.901156 1.72815 0
M  V30 19170 H 1807.42 -2.4068 1.98695 0
M  V30 19171 N 1807.72 -1.22979 -0.985586 0
M  V30 19172 C 1808.65 -0.949615 -2.07503 0
M  V30 19173 C 1809.63 0.110178 -1.62226 0
M  V30 19174 O 1810.81 -0.022974 -1.88486 0
M  V30 19175 C 1807.94 -0.429626 -3.35964 0
M  V30 19176 C 1806.98 -1.47522 -4.00174 0
M  V30 19177 S 1807.82 -3.05095 -4.40088 0
M  V30 19178 C 1808.97 -2.54753 -5.71709 0
M  V30 19179 H 1809.21 -1.87215 -2.3095 0
M  V30 19180 H 1806.74 -1.06167 -1.12107 0
M  V30 19181 H 1808.7 -0.136212 -4.10274 0
M  V30 19182 H 1807.36 0.471907 -3.10535 0
M  V30 19183 H 1806.55 -1.06142 -4.92697 0
M  V30 19184 H 1806.15 -1.71772 -3.3222 0
M  V30 19185 H 1808.45 -1.9645 -6.48393 0
M  V30 19186 H 1809.39 -3.45795 -6.17925 0
M  V30 19187 H 1809.8 -1.95785 -5.29461 0
M  V30 19188 N 1809.19 1.18355 -1.04066 0
M  V30 19189 C 1810.1 2.25641 -0.642115 0
M  V30 19190 C 1811.12 1.70811 0.331614 0
M  V30 19191 O 1812.3 2.00534 0.186542 0
M  V30 19192 C 1809.36 3.46698 -0.0112485 0
M  V30 19193 C 1808.42 4.16662 -1.03398 0
M  V30 19194 C 1807.66 5.3194 -0.433125 0
M  V30 19195 O 1807.88 5.65305 0.760669 0
M  V30 19196 O 1806.81 5.90581 -1.16182 0
M  V30 19197 H 1810.64 2.61997 -1.53595 0
M  V30 19198 H 1808.22 1.25437 -0.811542 0
M  V30 19199 H 1810.11 4.20027 0.339934 0
M  V30 19200 H 1808.78 3.12166 0.856405 0
M  V30 19201 H 1807.69 3.45402 -1.43696 0
M  V30 19202 H 1809.02 4.55194 -1.8724 0
M  V30 19203 N 1810.67 0.820125 1.3458 0
M  V30 19204 C 1811.61 0.185324 2.27446 0
M  V30 19205 C 1812.58 -0.656627 1.48752 0
M  V30 19206 O 1813.77 -0.620975 1.77978 0
M  V30 19207 C 1810.89 -0.741455 3.30485 0
M  V30 19208 C 1809.94 0.0226077 4.26494 0
M  V30 19209 S 1810.77 1.36787 5.17735 0
M  V30 19210 C 1811.93 0.445893 6.2431 0
M  V30 19211 H 1812.16 0.972658 2.80939 0
M  V30 19212 H 1809.7 0.615879 1.41585 0
M  V30 19213 H 1811.65 -1.27062 3.9034 0
M  V30 19214 H 1810.31 -1.50229 2.75844 0
M  V30 19215 H 1809.51 -0.681827 4.99367 0
M  V30 19216 H 1809.11 0.482239 3.70878 0
M  V30 19217 H 1811.4 -0.363637 6.76523 0
M  V30 19218 H 1812.34 1.14421 6.98794 0
M  V30 19219 H 1812.75 0.0355676 5.64489 0
M  V30 19220 N 1812.15 -1.46743 0.574835 0
M  V30 19221 C 1813.08 -2.33012 -0.150836 0
M  V30 19222 C 1814.06 -1.44868 -0.891472 0
M  V30 19223 O 1815.25 -1.73698 -0.868481 0
M  V30 19224 C 1812.38 -3.26995 -1.17012 0
M  V30 19225 C 1811.33 -4.24518 -0.544829 0
M  V30 19226 C 1810.66 -5.07951 -1.67002 0
M  V30 19227 C 1811.96 -5.19776 0.512891 0
M  V30 19228 H 1813.65 -2.93935 0.569433 0
M  V30 19229 H 1811.2 -1.41344 0.275289 0
M  V30 19230 H 1813.15 -3.86198 -1.68609 0
M  V30 19231 H 1811.87 -2.64163 -1.92056 0
M  V30 19232 H 1810.53 -3.66566 -0.0500133 0
M  V30 19233 H 1810.18 -4.4151 -2.40993 0
M  V30 19234 H 1809.88 -5.73991 -1.25732 0
M  V30 19235 H 1811.4 -5.70017 -2.1889 0
M  V30 19236 H 1812.82 -5.73241 0.0823064 0
M  V30 19237 H 1811.22 -5.94114 0.845462 0
M  V30 19238 H 1812.29 -4.64184 1.40217 0
M  V30 19239 N 1813.63 -0.312197 -1.54477 0
M  V30 19240 C 1814.56 0.551829 -2.26886 0
M  V30 19241 C 1815.54 1.12874 -1.27254 0
M  V30 19242 O 1816.72 1.15599 -1.56046 0
M  V30 19243 C 1813.85 1.71839 -3.01809 0
M  V30 19244 C 1812.81 1.27131 -4.08683 0
M  V30 19245 C 1812.13 2.52392 -4.71384 0
M  V30 19246 C 1813.43 0.394413 -5.20809 0
M  V30 19247 H 1815.13 -0.0521331 -2.99355 0
M  V30 19248 H 1812.67 -0.0265138 -1.43976 0
M  V30 19249 H 1814.63 2.32903 -3.5119 0
M  V30 19250 H 1813.35 2.34876 -2.26938 0
M  V30 19251 H 1812.01 0.683666 -3.60169 0
M  V30 19252 H 1811.66 3.13768 -3.93139 0
M  V30 19253 H 1811.36 2.23174 -5.43569 0
M  V30 19254 H 1812.88 3.14239 -5.23533 0
M  V30 19255 H 1814.3 0.911031 -5.66015 0
M  V30 19256 H 1812.69 0.195517 -5.99781 0
M  V30 19257 H 1813.76 -0.577661 -4.81447 0
M  V30 19258 N 1815.11 1.57549 -0.040136 0
M  V30 19259 C 1816.35 1.94118 0.640122 0
M  V30 19260 C 1816.71 0.917574 1.68655 0
M  V30 19261 O 1817.91 1.16983 2.42009 0
M  V30 19262 C 1816.18 3.35544 1.23065 0
M  V30 19263 S 1817.74 3.94055 1.93045 0
M  V30 19264 H 1814.56 0.679133 0.210475 0
M  V30 19265 H 1817.16 1.9521 -0.106436 0
M  V30 19266 H 1815.87 4.0785 0.456772 0
M  V30 19267 H 1815.4 3.37921 2.01427 0
M  V30 19268 H 1817.41 3.78384 3.20999 0
M  V30 19269 N 1816.58 -0.233136 1.55866 0
M  V30 19270 C 1817.81 -0.974999 1.82146 0
M  V30 19271 C 1818.22 -1.7891 0.615456 0
M  V30 19272 O 1817.57 -1.78707 -0.42537 0
M  V30 19273 C 1817.63 -1.95048 3.01988 0
M  V30 19274 C 1817.29 -1.32201 4.37461 0
M  V30 19275 C 1818.29 -0.717627 5.14923 0
M  V30 19276 C 1815.97 -1.33725 4.84173 0
M  V30 19277 C 1817.97 -0.136864 6.37253 0
M  V30 19278 C 1815.65 -0.752633 6.06448 0
M  V30 19279 C 1816.65 -0.153484 6.82828 0
M  V30 19280 O 1816.34 0.422063 8.02791 0
M  V30 19281 H 1816.07 -0.291889 0.609735 0
M  V30 19282 H 1818.63 -0.257048 2.03785 0
M  V30 19283 H 1816.86 -2.70711 2.76138 0
M  V30 19284 H 1818.55 -2.55692 3.1524 0
M  V30 19285 H 1819.31 -0.698263 4.79947 0
M  V30 19286 H 1815.19 -1.79298 4.24704 0
M  V30 19287 H 1818.73 0.331417 6.96812 0
M  V30 19288 H 1814.63 -0.769371 6.40899 0
M  V30 19289 H 1815.4 0.315258 8.17893 0
M  V30 19290 N 1818.06 -1.49479 -0.499372 0
M  V30 19291 C 1818.97 -1.69006 -1.62709 0
M  V30 19292 C 1819.99 -0.572681 -1.64306 0
M  V30 19293 O 1821.17 -0.847586 -1.82696 0
M  V30 19294 C 1818.23 -1.75382 -2.99069 0
M  V30 19295 C 1817.29 -2.98968 -3.08086 0
M  V30 19296 C 1816.52 -3.0503 -4.37941 0
M  V30 19297 O 1816.75 -2.18641 -5.26832 0
M  V30 19298 O 1815.68 -3.97507 -4.51964 0
M  V30 19299 H 1819.51 -2.64544 -1.49164 0
M  V30 19300 H 1817.09 -1.3324 -0.675836 0
M  V30 19301 H 1818.97 -1.81919 -3.8011 0
M  V30 19302 H 1817.65 -0.830226 -3.12872 0
M  V30 19303 H 1816.56 -2.97947 -2.26227 0
M  V30 19304 H 1817.89 -3.90812 -2.9921 0
M  V30 19305 N 1819.54 0.750537 -1.38581 0
M  V30 19306 C 1820.82 1.50051 -1.25475 0
M  V30 19307 C 1821.2 2.10618 0.142521 0
M  V30 19308 O 1820.55 1.97317 1.15231 0
M  V30 19309 C 1820.76 2.56443 -2.36724 0
M  V30 19310 C 1822.1 3.23261 -2.75296 0
M  V30 19311 O 1823.13 2.66749 -2.36058 0
M  V30 19312 O 1821.99 4.25481 -3.4297 0
M  V30 19313 H 1819.08 0.665581 -0.490847 0
M  V30 19314 H 1821.63 0.785688 -1.50416 0
M  V30 19315 H 1820.4 2.09958 -3.30202 0
M  V30 19316 H 1820.02 3.35503 -2.13363 0
M  V30 19317 N 1821.02 1.235 0.979051 0
M  V30 19318 C 1821.93 1.03412 2.10578 0
M  V30 19319 C 1822.95 -0.0217644 1.73986 0
M  V30 19320 O 1824.12 0.173977 2.00647 0
M  V30 19321 C 1821.19 0.629192 3.40943 0
M  V30 19322 C 1820.25 1.76028 3.91552 0
M  V30 19323 C 1819.48 1.37457 5.15695 0
M  V30 19324 O 1819.7 0.259393 5.6981 0
M  V30 19325 O 1818.64 2.19614 5.60404 0
M  V30 19326 H 1822.46 1.97845 2.30415 0
M  V30 19327 H 1820.05 1.02218 1.08958 0
M  V30 19328 H 1821.93 0.414372 4.19358 0
M  V30 19329 H 1820.61 -0.286128 3.22433 0
M  V30 19330 H 1819.51 2.02975 3.14248 0
M  V30 19331 H 1820.85 2.65396 4.14519 0
M  V30 19332 N 1822.5 -1.17802 1.04693 0
M  V30 19333 C 1823.75 -1.87567 0.752534 0
M  V30 19334 C 1824.07 -1.81129 -0.722303 0
M  V30 19335 O 1823.34 -1.23385 -1.52161 0
M  V30 19336 H 1821.92 -0.69439 0.275376 0
M  V30 19337 H 1824.58 -1.42932 1.32501 0
M  V30 19338 H 1823.67 -2.9344 1.06299 0
M  V30 19339 N 1823.98 -0.827251 -1.34143 0
M  V30 19340 C 1825.22 -0.418003 -1.98445 0
M  V30 19341 C 1825.55 1.01737 -1.65418 0
M  V30 19342 O 1824.83 1.70932 -0.928042 0
M  V30 19343 C 1825.11 -0.625559 -3.54625 0
M  V30 19344 C 1824.97 -2.10736 -3.97379 0
M  V30 19345 C 1826.28 -0.0642701 -4.40053 0
M  V30 19346 H 1823.4 -0.15335 -0.72087 0
M  V30 19347 H 1826.05 -1.04062 -1.58969 0
M  V30 19348 H 1824.2 -0.095577 -3.88382 0
M  V30 19349 H 1825.87 -2.70131 -3.73934 0
M  V30 19350 H 1824.11 -2.59621 -3.47533 0
M  V30 19351 H 1824.78 -2.20338 -5.06118 0
M  V30 19352 H 1827.26 -0.517137 -4.12874 0
M  V30 19353 H 1826.13 -0.239267 -5.48378 0
M  V30 19354 H 1826.39 1.0311 -4.29908 0
M  V30 19355 N 1825.45 1.46436 -0.582609 0
M  V30 19356 C 1826.68 2.06469 -0.0736587 0
M  V30 19357 C 1827.09 1.43193 1.23662 0
M  V30 19358 O 1826.43 0.531376 1.75847 0
M  V30 19359 C 1826.5 3.59114 0.166531 0
M  V30 19360 C 1826.16 4.44581 -1.05814 0
M  V30 19361 C 1827.16 4.81125 -1.97016 0
M  V30 19362 C 1824.84 4.85718 -1.27996 0
M  V30 19363 C 1826.84 5.57632 -3.08747 0
M  V30 19364 C 1824.52 5.61986 -2.40032 0
M  V30 19365 C 1825.52 5.97856 -3.30237 0
M  V30 19366 O 1825.21 6.72582 -4.40328 0
M  V30 19367 H 1824.94 0.673802 -0.0544673 0
M  V30 19368 H 1827.5 1.89053 -0.803005 0
M  V30 19369 H 1825.73 3.74837 0.950489 0
M  V30 19370 H 1827.41 4.01075 0.62398 0
M  V30 19371 H 1828.18 4.49922 -1.81094 0
M  V30 19372 H 1824.06 4.57249 -0.586917 0
M  V30 19373 H 1827.6 5.85549 -3.7918 0
M  V30 19374 H 1823.5 5.92602 -2.55917 0
M  V30 19375 H 1824.27 6.91006 -4.38694 0
M  V30 19376 N 1826.93 0.320385 1.54309 0
M  V30 19377 C 1828.18 -0.283562 2.00808 0
M  V30 19378 C 1828.51 -1.52036 1.20826 0
M  V30 19379 O 1827.79 -1.9233 0.289721 0
M  V30 19380 C 1828.07 -0.620875 3.54707 0
M  V30 19381 C 1827.92 0.626403 4.45417 0
M  V30 19382 C 1829.24 -1.43978 4.15883 0
M  V30 19383 H 1826.36 -0.10159 0.729965 0
M  V30 19384 H 1829 0.436332 1.84922 0
M  V30 19385 H 1827.15 -1.23419 3.68375 0
M  V30 19386 H 1828.82 1.2647 4.43625 0
M  V30 19387 H 1827.07 1.2559 4.15222 0
M  V30 19388 H 1827.74 0.345969 5.50915 0
M  V30 19389 H 1830.21 -0.921381 4.05771 0
M  V30 19390 H 1829.09 -1.64456 5.23685 0
M  V30 19391 H 1829.35 -2.43494 3.69003 0
M  V30 19392 N 1828.41 -1.57525 0.0484906 0
M  V30 19393 C 1829.36 -2.12552 -0.944684 0
M  V30 19394 C 1830.35 -1.05668 -1.32403 0
M  V30 19395 O 1831.56 -1.2408 -1.304 0
M  V30 19396 H 1827.93 -0.679336 -0.3225 0
M  V30 19397 H 1829.9 -2.94904 -0.455442 0
M  V30 19398 C 1828.65 -2.68333 -2.21117 0
M  V30 19399 H 1827.98 -3.50237 -1.92806 0
M  V30 19400 H 1829.42 -3.10459 -2.88775 0
M  V30 19401 C 1827.87 -1.61982 -2.95404 0
M  V30 19402 O 1828.4 -1.03102 -3.88243 0
M  V30 19403 N 1826.61 -1.33566 -2.58086 0
M  V30 19404 H 1826.16 -1.81635 -1.82665 0
M  V30 19405 H 1826.12 -0.626371 -3.08097 0
M  V30 19406 N 1829.89 0.224867 -1.55988 0
M  V30 19407 C 1831.12 0.966727 -1.82926 0
M  V30 19408 C 1831.53 1.78078 -0.627177 0
M  V30 19409 O 1830.89 1.77966 0.404277 0
M  V30 19410 C 1830.94 1.88696 -3.08344 0
M  V30 19411 O 1830.66 1.10581 -4.23914 0
M  V30 19412 C 1832.16 2.74299 -3.48246 0
M  V30 19413 H 1829.38 0.283479 -0.608178 0
M  V30 19414 H 1831.92 0.241097 -2.03074 0
M  V30 19415 H 1830.08 2.56658 -2.90182 0
M  V30 19416 H 1830.49 1.73019 -4.95141 0
M  V30 19417 H 1831.97 3.34577 -4.39047 0
M  V30 19418 H 1832.44 3.46526 -2.69845 0
M  V30 19419 H 1833.05 2.11755 -3.68836 0
M  V30 19420 N 1831.37 1.49742 0.491438 0
M  V30 19421 C 1832.6 1.63198 1.26689 0
M  V30 19422 C 1833 0.306438 1.86702 0
M  V30 19423 O 1832.35 -0.719282 1.69033 0
M  V30 19424 C 1832.41 2.64966 2.42967 0
M  V30 19425 C 1832.07 4.09066 2.0375 0
M  V30 19426 C 1833.07 4.95574 1.57171 0
M  V30 19427 C 1830.75 4.54859 2.13092 0
M  V30 19428 C 1832.75 6.25916 1.2045 0
M  V30 19429 C 1830.44 5.85212 1.75983 0
M  V30 19430 C 1831.43 6.70565 1.29738 0
M  V30 19431 O 1831.12 7.98487 0.931347 0
M  V30 19432 H 1830.85 0.552094 0.390087 0
M  V30 19433 H 1833.41 1.9658 0.595439 0
M  V30 19434 H 1831.64 2.26784 3.13218 0
M  V30 19435 H 1833.33 2.67852 3.04975 0
M  V30 19436 H 1834.09 4.61419 1.49391 0
M  V30 19437 H 1829.97 3.88585 2.48038 0
M  V30 19438 H 1833.52 6.9249 0.84283 0
M  V30 19439 H 1829.41 6.18893 1.83415 0
M  V30 19440 H 1830.18 8.11581 1.06198 0
M  V30 19441 N 1832.84 -0.743177 1.38977 0
M  V30 19442 C 1834.09 -1.49959 1.35486 0
M  V30 19443 C 1834.41 -1.94933 -0.0512044 0
M  V30 19444 O 1833.68 -1.684 -1.0009 0
M  V30 19445 H 1832.26 -0.556277 0.498562 0
M  V30 19446 H 1834.93 -0.882776 1.73762 0
M  V30 19447 H 1834.02 -2.38559 2.01237 0
M  V30 19448 N 1834.32 -1.24018 -0.972487 0
M  V30 19449 C 1835.74 -1.00454 -1.24021 0
M  V30 19450 C 1835.94 0.289568 -1.99409 0
M  V30 19451 O 1834.99 1.00696 -2.31552 0
M  V30 19452 C 1836.31 -2.21651 -2.03202 0
M  V30 19453 C 1837.86 -2.26225 -2.16312 0
M  V30 19454 C 1838.33 -3.47031 -2.98888 0
M  V30 19455 N 1839.82 -3.47318 -3.06471 0
M  V30 19456 C 1840.56 -4.3745 -3.70709 0
M  V30 19457 N 1840.05 -5.37829 -4.36705 0
M  V30 19458 N 1841.85 -4.25173 -3.67674 0
M  V30 19459 H 1834 -2.07187 -0.467668 0
M  V30 19460 H 1836.26 -0.908955 -0.269267 0
M  V30 19461 H 1835.97 -3.15608 -1.55191 0
M  V30 19462 H 1835.84 -2.2338 -3.03943 0
M  V30 19463 H 1838.23 -1.32803 -2.63529 0
M  V30 19464 H 1838.31 -2.28525 -1.14936 0
M  V30 19465 H 1837.95 -4.40765 -2.52366 0
M  V30 19466 H 1837.88 -3.41974 -4.00452 0
M  V30 19467 H 1840.37 -2.74695 -2.59521 0
M  V30 19468 H 1840.69 -6.02846 -4.83525 0
M  V30 19469 H 1839.03 -5.41721 -4.35389 0
M  V30 19470 H 1842.22 -3.45992 -3.15289 0
M  V30 19471 H 1842.39 -4.95617 -4.17454 0
M  V30 19472 N 1835.8 1.17245 -1.05316 0
M  V30 19473 C 1837.05 1.86871 -0.759093 0
M  V30 19474 C 1837.36 1.81997 0.7167 0
M  V30 19475 O 1838.57 2.47106 1.12476 0
M  V30 19476 C 1837.02 3.35303 -1.30766 0
M  V30 19477 C 1836.63 3.48676 -2.81299 0
M  V30 19478 C 1838.38 4.10249 -1.0907 0
M  V30 19479 C 1836.28 4.91138 -3.2945 0
M  V30 19480 H 1835.21 0.699975 -0.28027 0
M  V30 19481 H 1837.86 1.32393 -1.27061 0
M  V30 19482 H 1836.25 3.89326 -0.723955 0
M  V30 19483 H 1837.42 3.04864 -3.45536 0
M  V30 19484 H 1835.74 2.87152 -3.0155 0
M  V30 19485 H 1838.33 5.1535 -1.42545 0
M  V30 19486 H 1838.68 4.1629 -0.0285204 0
M  V30 19487 H 1839.21 3.62436 -1.63967 0
M  V30 19488 H 1835.95 4.90271 -4.35103 0
M  V30 19489 H 1835.47 5.35615 -2.69956 0
M  V30 19490 H 1837.15 5.59913 -3.24201 0
M  V30 19491 N 1837.28 0.834353 1.33702 0
M  V30 19492 C 1838.53 0.424225 1.97188 0
M  V30 19493 C 1838.84 -1.02086 1.66846 0
M  V30 19494 O 1840.05 -1.53545 2.23911 0
M  V30 19495 C 1838.5 0.707628 3.52875 0
M  V30 19496 C 1838.11 2.16709 3.92098 0
M  V30 19497 C 1839.85 0.364228 4.22935 0
M  V30 19498 C 1837.76 2.39478 5.40744 0
M  V30 19499 H 1836.69 0.154897 0.737918 0
M  V30 19500 H 1839.34 1.02231 1.52385 0
M  V30 19501 H 1837.72 0.0392323 3.95981 0
M  V30 19502 H 1838.9 2.87559 3.60064 0
M  V30 19503 H 1837.21 2.47303 3.35008 0
M  V30 19504 H 1839.81 0.512031 5.32243 0
M  V30 19505 H 1840.15 -0.692375 4.10502 0
M  V30 19506 H 1840.69 0.98767 3.85344 0
M  V30 19507 H 1837.43 3.43687 5.58175 0
M  V30 19508 H 1836.95 1.73184 5.74254 0
M  V30 19509 H 1838.62 2.22406 6.07573 0
M  V30 19510 N 1838.76 -1.46125 0.590367 0
M  V30 19511 C 1839.7 -2.30384 -0.138481 0
M  V30 19512 C 1840.67 -1.41078 -0.876715 0
M  V30 19513 O 1841.86 -1.70022 -0.86587 0
M  V30 19514 C 1839 -3.25684 -1.14122 0
M  V30 19515 C 1838.11 -4.30091 -0.405639 0
M  V30 19516 C 1837.25 -5.12513 -1.39657 0
M  V30 19517 C 1836.29 -6.08662 -0.647833 0
M  V30 19518 N 1835.42 -6.83924 -1.5872 0
M  V30 19519 H 1840.26 -2.9218 0.586086 0
M  V30 19520 H 1837.8 -1.43991 0.300835 0
M  V30 19521 H 1839.76 -3.79388 -1.73553 0
M  V30 19522 H 1838.39 -2.6568 -1.8334 0
M  V30 19523 H 1837.44 -3.79184 0.303858 0
M  V30 19524 H 1838.75 -4.98477 0.179348 0
M  V30 19525 H 1837.91 -5.70531 -2.06346 0
M  V30 19526 H 1836.64 -4.44105 -2.01549 0
M  V30 19527 H 1835.65 -5.4979 0.0327878 0
M  V30 19528 H 1836.87 -6.79091 -0.0342018 0
M  V30 19529 H 1834.82 -6.1822 -2.19408 0
M  V30 19530 H 1834.74 -7.48599 -1.05522 0
M  V30 19531 H 1836.01 -7.46496 -2.2442 0
M  V30 19532 N 1840.23 -0.328564 -1.54137 0
M  V30 19533 C 1841.51 0.327026 -1.92847 0
M  V30 19534 C 1841.89 1.69472 -1.25867 0
M  V30 19535 O 1841.24 2.24897 -0.404172 0
M  V30 19536 C 1841.45 0.414261 -3.46533 0
M  V30 19537 C 1842.8 0.672189 -4.19245 0
M  V30 19538 O 1843.82 0.496982 -3.52716 0
M  V30 19539 O 1842.68 1.01053 -5.37076 0
M  V30 19540 H 1839.77 0.187716 -0.805414 0
M  V30 19541 H 1842.32 -0.378645 -1.65422 0
M  V30 19542 H 1841.09 -0.54611 -3.8747 0
M  V30 19543 H 1840.72 1.16731 -3.80078 0
M  V30 19544 N 1841.71 1.57497 -0.0568439 0
M  V30 19545 C 1842.96 1.932 0.61658 0
M  V30 19546 C 1843.29 0.935936 1.70158 0
M  V30 19547 O 1842.57 -0.0372005 1.94464 0
M  V30 19548 C 1842.85 3.39254 1.20742 0
M  V30 19549 C 1842.7 4.49612 0.130081 0
M  V30 19550 C 1844.02 3.85817 2.11738 0
M  V30 19551 H 1841.14 0.702558 0.222668 0
M  V30 19552 H 1843.78 1.89622 -0.119765 0
M  V30 19553 H 1841.93 3.42434 1.83497 0
M  V30 19554 H 1843.6 4.58559 -0.502172 0
M  V30 19555 H 1841.85 4.30411 -0.541167 0
M  V30 19556 H 1842.52 5.48906 0.583606 0
M  V30 19557 H 1844.99 3.8455 1.58936 0
M  V30 19558 H 1843.87 4.88653 2.50019 0
M  V30 19559 H 1844.13 3.22899 3.01974 0
M  V30 19560 N 1843.19 -0.216591 1.56105 0
M  V30 19561 C 1844.44 -0.941642 1.79613 0
M  V30 19562 C 1844.77 -1.83789 0.627323 0
M  V30 19563 O 1844.04 -1.90886 -0.373195 0
M  V30 19564 C 1844.33 -1.77634 3.13238 0
M  V30 19565 C 1844.18 -0.906251 4.40576 0
M  V30 19566 C 1845.5 -2.75315 3.4335 0
M  V30 19567 H 1842.62 -0.340898 0.65342 0
M  V30 19568 H 1845.26 -0.210217 1.88833 0
M  V30 19569 H 1843.41 -2.39993 3.05509 0
M  V30 19570 H 1845.08 -0.299023 4.6033 0
M  V30 19571 H 1843.33 -0.211902 4.33282 0
M  V30 19572 H 1844 -1.52478 5.30523 0
M  V30 19573 H 1846.47 -2.23091 3.5124 0
M  V30 19574 H 1845.35 -3.30816 4.38009 0
M  V30 19575 H 1845.61 -3.53301 2.65765 0
M  V30 19576 N 1844.67 -1.5 -0.48349 0
M  V30 19577 C 1845.6 -1.70879 -1.5913 0
M  V30 19578 C 1846.58 -0.557606 -1.60701 0
M  V30 19579 O 1847.76 -0.79539 -1.77164 0
M  V30 19580 C 1844.89 -1.7915 -2.97527 0
M  V30 19581 C 1843.85 -2.94233 -3.10823 0
M  V30 19582 C 1843.17 -2.87634 -4.50745 0
M  V30 19583 C 1844.47 -4.34925 -2.89202 0
M  V30 19584 H 1846.17 -2.63632 -1.41911 0
M  V30 19585 H 1843.71 -1.26865 -0.68127 0
M  V30 19586 H 1845.67 -1.92342 -3.74943 0
M  V30 19587 H 1844.39 -0.830106 -3.15875 0
M  V30 19588 H 1843.05 -2.80672 -2.35837 0
M  V30 19589 H 1842.7 -1.89365 -4.65993 0
M  V30 19590 H 1842.4 -3.64885 -4.60579 0
M  V30 19591 H 1843.92 -3.02857 -5.30198 0
M  V30 19592 H 1845.34 -4.49076 -3.56376 0
M  V30 19593 H 1843.73 -5.13531 -3.10492 0
M  V30 19594 H 1844.8 -4.48154 -1.85165 0
M  V30 19595 N 1846.15 0.735796 -1.39369 0
M  V30 19596 C 1847.08 1.86001 -1.33926 0
M  V30 19597 C 1848.09 1.60897 -0.24818 0
M  V30 19598 O 1849.28 1.71146 -0.507074 0
M  V30 19599 C 1846.38 3.2201 -1.05654 0
M  V30 19600 C 1845.55 3.74476 -2.26023 0
M  V30 19601 C 1844.61 4.89045 -1.94221 0
M  V30 19602 O 1843.64 5.02748 -2.66896 0
M  V30 19603 N 1844.84 5.73357 -0.907884 0
M  V30 19604 H 1847.61 1.91175 -2.30807 0
M  V30 19605 H 1845.17 0.916499 -1.33461 0
M  V30 19606 H 1847.16 3.96223 -0.824001 0
M  V30 19607 H 1845.73 3.12109 -0.175094 0
M  V30 19608 H 1844.95 2.91624 -2.65234 0
M  V30 19609 H 1846.24 4.06263 -3.06313 0
M  V30 19610 H 1845.63 5.64874 -0.305564 0
M  V30 19611 H 1844.19 6.4764 -0.735237 0
M  V30 19612 N 1847.63 1.24532 0.965897 0
M  V30 19613 C 1848.87 1.09778 1.71232 0
M  V30 19614 C 1849.23 -0.3594 1.89013 0
M  V30 19615 O 1848.52 -1.2618 1.44185 0
M  V30 19616 C 1848.71 1.77305 3.10319 0
M  V30 19617 C 1848.54 3.29439 3.06104 0
M  V30 19618 C 1847.31 3.98656 3.10485 0
M  V30 19619 C 1849.51 4.26004 2.88141 0
M  V30 19620 N 1847.49 5.37656 2.9631 0
M  V30 19621 C 1848.86 5.52013 2.8228 0
M  V30 19622 C 1850.92 4.16557 2.72736 0
M  V30 19623 C 1849.62 6.69656 2.62588 0
M  V30 19624 C 1851.65 5.33881 2.54412 0
M  V30 19625 C 1851.01 6.58823 2.49261 0
M  V30 19626 H 1847.11 0.456339 0.635042 0
M  V30 19627 H 1849.69 1.57472 1.14502 0
M  V30 19628 H 1847.86 1.32122 3.65237 0
M  V30 19629 H 1849.6 1.55395 3.73677 0
M  V30 19630 H 1846.35 3.49835 3.19237 0
M  V30 19631 H 1846.77 6.10572 2.92457 0
M  V30 19632 H 1851.42 3.20719 2.75499 0
M  V30 19633 H 1849.13 7.65616 2.58568 0
M  V30 19634 H 1852.72 5.28424 2.43433 0
M  V30 19635 H 1851.6 7.48078 2.35264 0
M  V30 19636 N 1849.1 -1.16685 1.05936 0
M  V30 19637 C 1850.35 -1.86758 0.772386 0
M  V30 19638 C 1850.67 -1.81885 -0.703051 0
M  V30 19639 O 1849.94 -1.24992 -1.50844 0
M  V30 19640 H 1848.52 -0.69143 0.282725 0
M  V30 19641 H 1851.18 -1.41518 1.3401 0
M  V30 19642 H 1850.28 -2.92296 1.09405 0
M  V30 19643 N 1850.58 -0.841432 -1.33258 0
M  V30 19644 C 1851.49 -0.279006 -2.32935 0
M  V30 19645 C 1852.51 0.596298 -1.63463 0
M  V30 19646 O 1853.68 0.499812 -1.951 0
M  V30 19647 C 1850.75 0.534514 -3.42555 0
M  V30 19648 C 1849.81 -0.365366 -4.27742 0
M  V30 19649 C 1849.04 0.409423 -5.32127 0
M  V30 19650 O 1849.27 1.64085 -5.4629 0
M  V30 19651 O 1848.2 -0.217904 -6.01505 0
M  V30 19652 H 1852.03 -1.10448 -2.82904 0
M  V30 19653 H 1849.61 -0.60402 -1.36645 0
M  V30 19654 H 1851.49 0.996723 -4.09443 0
M  V30 19655 H 1850.17 1.33701 -2.94798 0
M  V30 19656 H 1849.07 -0.875469 -3.63712 0
M  V30 19657 H 1850.41 -1.1327 -4.78989 0
M  V30 19658 N 1852.06 1.4581 -0.598108 0
M  V30 19659 C 1852.99 2.27529 0.174933 0
M  V30 19660 C 1853.97 1.36565 0.882546 0
M  V30 19661 O 1855.15 1.65987 0.893332 0
M  V30 19662 C 1852.28 3.14698 1.25232 0
M  V30 19663 C 1851.33 4.21535 0.648877 0
M  V30 19664 S 1852.16 5.3281 -0.53603 0
M  V30 19665 C 1853.32 6.23547 0.542182 0
M  V30 19666 H 1853.55 2.92745 -0.518405 0
M  V30 19667 H 1851.08 1.49513 -0.385382 0
M  V30 19668 H 1853.04 3.65479 1.86909 0
M  V30 19669 H 1851.7 2.48764 1.91768 0
M  V30 19670 H 1850.89 4.82414 1.45922 0
M  V30 19671 H 1850.5 3.73846 0.107447 0
M  V30 19672 H 1852.79 6.6237 1.4238 0
M  V30 19673 H 1853.73 7.08094 -0.0302138 0
M  V30 19674 H 1854.14 5.58014 0.85325 0
M  V30 19675 N 1853.54 0.336733 1.53961 0
M  V30 19676 C 1854.95 -0.148599 1.86108 0
M  V30 19677 C 1855.3 -1.50551 1.25812 0
M  V30 19678 O 1854.42 -2.08782 0.569109 0
M  V30 19679 C 1855.02 -0.276413 3.37671 0
M  V30 19680 C 1853.58 -0.705973 3.6972 0
M  V30 19681 C 1852.73 0.164407 2.76812 0
M  V30 19682 H 1855.68 0.556568 1.4862 0
M  V30 19683 H 1855.7 -1.10509 3.64099 0
M  V30 19684 H 1855.21 0.711315 3.81526 0
M  V30 19685 H 1853.31 -1.70297 3.31406 0
M  V30 19686 H 1853.42 -0.500591 4.76478 0
M  V30 19687 H 1851.79 -0.362166 2.52112 0
M  V30 19688 H 1852.57 1.14914 3.23496 0
M  V30 19689 N 1855.02 -1.57465 0.0651956 0
M  V30 19690 C 1856.24 -1.9756 -0.614633 0
M  V30 19691 C 1856.66 -0.943308 -1.63546 0
M  V30 19692 O 1856.02 0.0708362 -1.82362 0
M  V30 19693 C 1856.07 -3.37735 -1.28909 0
M  V30 19694 O 1855.79 -4.37008 -0.309131 0
M  V30 19695 C 1857.29 -3.92667 -2.05736 0
M  V30 19696 H 1854.51 -0.64987 -0.167061 0
M  V30 19697 H 1857.05 -2.0405 0.135647 0
M  V30 19698 H 1855.21 -3.32352 -1.9905 0
M  V30 19699 H 1855.62 -5.18483 -0.792206 0
M  V30 19700 H 1857.1 -4.92988 -2.48329 0
M  V30 19701 H 1857.57 -3.28851 -2.91124 0
M  V30 19702 H 1858.18 -4.01431 -1.40476 0
M  V30 19703 N 1856.49 0.20831 -1.56217 0
M  V30 19704 C 1857.72 0.951404 -1.84291 0
M  V30 19705 C 1858.14 1.76616 -0.647168 0
M  V30 19706 O 1857.5 1.7674 0.404081 0
M  V30 19707 C 1857.55 1.83403 -3.10477 0
M  V30 19708 O 1856.65 2.93113 -2.90101 0
M  V30 19709 H 1855.99 0.268668 -0.607218 0
M  V30 19710 H 1858.52 0.217618 -2.03439 0
M  V30 19711 H 1858.53 2.24127 -3.40927 0
M  V30 19712 H 1857.21 1.23528 -3.97132 0
M  V30 19713 H 1855.79 2.5624 -2.70916 0
M  V30 19714 N 1857.97 1.50255 0.475528 0
M  V30 19715 C 1859.22 1.61261 1.22975 0
M  V30 19716 C 1859.55 0.309949 1.91711 0
M  V30 19717 O 1858.83 -0.688288 1.81914 0
M  V30 19718 C 1859.11 2.7898 2.27688 0
M  V30 19719 C 1858.96 4.19115 1.63287 0
M  V30 19720 C 1860.28 2.9227 3.29038 0
M  V30 19721 H 1857.4 0.586933 0.445734 0
M  V30 19722 H 1860.04 1.82626 0.524177 0
M  V30 19723 H 1858.19 2.60894 2.87865 0
M  V30 19724 H 1859.86 4.48781 1.06741 0
M  V30 19725 H 1858.11 4.23579 0.936127 0
M  V30 19726 H 1858.78 4.97405 2.39359 0
M  V30 19727 H 1861.25 3.08813 2.78879 0
M  V30 19728 H 1860.13 3.7627 3.9964 0
M  V30 19729 H 1860.39 2.02696 3.92895 0
M  V30 19730 N 1859.45 -0.728395 1.39758 0
M  V30 19731 C 1860.41 -1.82415 1.38772 0
M  V30 19732 C 1861.41 -1.58278 0.283678 0
M  V30 19733 O 1862.6 -1.65556 0.541927 0
M  V30 19734 C 1859.73 -3.20309 1.16684 0
M  V30 19735 H 1860.93 -1.8469 2.36283 0
M  V30 19736 H 1858.48 -0.932729 1.25419 0
M  V30 19737 H 1859.22 -3.2369 0.198817 0
M  V30 19738 H 1859 -3.39226 1.96643 0
M  V30 19739 H 1860.49 -4.0036 1.18751 0
M  V30 19740 N 1860.93 -1.25042 -0.959279 0
M  V30 19741 C 1862.16 -1.12079 -1.73557 0
M  V30 19742 C 1862.57 0.328665 -1.86323 0
M  V30 19743 O 1861.91 1.23812 -1.35706 0
M  V30 19744 C 1861.97 -1.69634 -3.16961 0
M  V30 19745 C 1861.63 -3.18593 -3.27639 0
M  V30 19746 C 1862.63 -4.15641 -3.12312 0
M  V30 19747 C 1860.32 -3.58715 -3.51609 0
M  V30 19748 C 1862.31 -5.50791 -3.20793 0
M  V30 19749 C 1860 -4.94003 -3.59728 0
M  V30 19750 C 1861 -5.89851 -3.44333 0
M  V30 19751 O 1860.68 -7.22678 -3.52124 0
M  V30 19752 H 1860.42 -0.3919 -0.550809 0
M  V30 19753 H 1862.97 -1.658 -1.21242 0
M  V30 19754 H 1861.2 -1.10356 -3.70619 0
M  V30 19755 H 1862.89 -1.51838 -3.76431 0
M  V30 19756 H 1863.65 -3.85985 -2.93668 0
M  V30 19757 H 1859.53 -2.8461 -3.62654 0
M  V30 19758 H 1863.08 -6.25582 -3.08695 0
M  V30 19759 H 1858.97 -5.23327 -3.77887 0
M  V30 19760 H 1859.74 -7.30712 -3.68785 0
M  V30 19761 N 1862.41 1.16121 -1.06553 0
M  V30 19762 C 1863.66 1.86055 -0.778871 0
M  V30 19763 C 1863.97 1.82747 0.697357 0
M  V30 19764 O 1865.17 2.48285 1.09849 0
M  V30 19765 C 1863.63 3.33897 -1.34315 0
M  V30 19766 C 1863.24 3.45673 -2.84981 0
M  V30 19767 C 1864.98 4.09069 -1.13415 0
M  V30 19768 C 1862.89 4.87616 -3.34641 0
M  V30 19769 H 1861.82 0.696963 -0.287678 0
M  V30 19770 H 1864.47 1.31038 -1.28458 0
M  V30 19771 H 1862.85 3.88536 -0.765208 0
M  V30 19772 H 1864.03 3.01181 -3.4875 0
M  V30 19773 H 1862.34 2.83938 -3.04579 0
M  V30 19774 H 1864.94 5.13809 -1.48002 0
M  V30 19775 H 1865.28 4.16237 -0.0726719 0
M  V30 19776 H 1865.81 3.60676 -1.67802 0
M  V30 19777 H 1862.55 4.85629 -4.40278 0
M  V30 19778 H 1862.07 5.32722 -2.75622 0
M  V30 19779 H 1863.75 5.56443 -3.30122 0
M  V30 19780 N 1863.88 0.848487 1.3281 0
M  V30 19781 C 1865.12 0.455061 1.9927 0
M  V30 19782 C 1865.49 -0.969773 1.65709 0
M  V30 19783 O 1866.69 -1.46743 2.25211 0
M  V30 19784 C 1864.96 0.680294 3.50866 0
M  V30 19785 S 1866.52 0.383521 4.37121 0
M  V30 19786 H 1863.34 0.170742 0.690194 0
M  V30 19787 H 1865.94 1.09986 1.61627 0
M  V30 19788 H 1864.64 1.71648 3.7278 0
M  V30 19789 H 1864.17 0.0216913 3.93394 0
M  V30 19790 H 1866.19 -0.792918 4.89824 0
M  V30 19791 N 1865.36 -1.4549 0.605832 0
M  V30 19792 C 1866.59 -2.07135 0.104838 0
M  V30 19793 C 1867.01 -1.4478 -1.20085 0
M  V30 19794 O 1866.37 -0.539875 -1.73075 0
M  V30 19795 C 1866.42 -3.60593 -0.0231858 0
M  V30 19796 O 1865.52 -3.98173 -1.07386 0
M  V30 19797 H 1864.86 -0.659945 0.0732691 0
M  V30 19798 H 1867.39 -1.8677 0.835343 0
M  V30 19799 H 1867.4 -4.07396 -0.221964 0
M  V30 19800 H 1866.08 -4.05364 0.930211 0
M  V30 19801 H 1864.66 -3.63044 -0.851689 0
M  V30 19802 N 1866.84 -0.344893 -1.5378 0
M  V30 19803 C 1867.79 0.526591 -2.26561 0
M  V30 19804 C 1868.78 1.10083 -1.28756 0
M  V30 19805 O 1869.99 1.04641 -1.46459 0
M  V30 19806 H 1866.36 0.188505 -0.72799 0
M  V30 19807 H 1868.33 -0.109269 -2.982 0
M  V30 19808 C 1867.08 1.66505 -3.0524 0
M  V30 19809 H 1866.41 1.23246 -3.80329 0
M  V30 19810 H 1867.85 2.24998 -3.59377 0
M  V30 19811 C 1866.31 2.59527 -2.14819 0
M  V30 19812 O 1866.84 3.6181 -1.74517 0
M  V30 19813 N 1865.04 2.28243 -1.79871 0
M  V30 19814 H 1864.59 1.45106 -2.12843 0
M  V30 19815 H 1864.55 2.90741 -1.19654 0
M  V30 19816 N 1868.32 1.57428 -0.0735454 0
M  V30 19817 C 1869.25 2.09808 0.922679 0
M  V30 19818 C 1870.26 1.0306 1.26026 0
M  V30 19819 O 1871.45 1.30568 1.21714 0
M  V30 19820 C 1868.55 2.54492 2.23801 0
M  V30 19821 C 1867.73 3.84832 2.07901 0
M  V30 19822 C 1866.78 4.15592 3.22754 0
M  V30 19823 O 1865.81 4.85163 2.97667 0
M  V30 19824 N 1867.01 3.69277 4.47901 0
M  V30 19825 H 1869.78 2.95905 0.475456 0
M  V30 19826 H 1867.34 1.61511 0.112135 0
M  V30 19827 H 1869.33 2.7213 2.99545 0
M  V30 19828 H 1867.9 1.73523 2.60016 0
M  V30 19829 H 1867.12 3.76557 1.16614 0
M  V30 19830 H 1868.41 4.70144 1.9453 0
M  V30 19831 H 1867.81 3.13076 4.71168 0
M  V30 19832 H 1866.36 3.92111 5.20665 0
M  V30 19833 N 1869.8 -0.200022 1.56326 0
M  V30 19834 C 1871.05 -0.919331 1.7953 0
M  V30 19835 C 1871.36 -1.84628 0.645908 0
M  V30 19836 O 1872.56 -2.60584 0.762132 0
M  V30 19837 C 1871.02 -1.68508 3.18014 0
M  V30 19838 C 1870.63 -0.803202 4.40741 0
M  V30 19839 C 1872.37 -2.39432 3.50532 0
M  V30 19840 C 1870.28 -1.56753 5.70248 0
M  V30 19841 H 1869.21 -0.347018 0.669399 0
M  V30 19842 H 1871.86 -0.172713 1.82685 0
M  V30 19843 H 1870.24 -2.4754 3.09095 0
M  V30 19844 H 1871.42 -0.0518889 4.60771 0
M  V30 19845 H 1869.73 -0.205039 4.15895 0
M  V30 19846 H 1872.33 -2.97158 4.44524 0
M  V30 19847 H 1872.67 -3.13378 2.74043 0
M  V30 19848 H 1873.2 -1.6737 3.60877 0
M  V30 19849 H 1869.94 -0.870942 6.49688 0
M  V30 19850 H 1869.46 -2.29291 5.54243 0
M  V30 19851 H 1871.14 -2.12262 6.11191 0
M  V30 19852 N 1871.27 -1.50505 -0.467553 0
M  V30 19853 C 1872.21 -1.64271 -1.58399 0
M  V30 19854 C 1873.19 -0.490745 -1.55018 0
M  V30 19855 O 1874.37 -0.710709 -1.74589 0
M  V30 19856 C 1871.5 -1.62854 -2.96978 0
M  V30 19857 C 1870.54 -2.83654 -3.18501 0
M  V30 19858 S 1871.38 -4.44908 -2.98022 0
M  V30 19859 C 1872.53 -4.4619 -4.38937 0
M  V30 19860 H 1872.76 -2.58708 -1.46484 0
M  V30 19861 H 1870.3 -1.39812 -0.655141 0
M  V30 19862 H 1872.26 -1.62722 -3.76871 0
M  V30 19863 H 1870.92 -0.696465 -3.06281 0
M  V30 19864 H 1870.11 -2.78977 -4.19747 0
M  V30 19865 H 1869.71 -2.81371 -2.46386 0
M  V30 19866 H 1872 -4.1997 -5.31631 0
M  V30 19867 H 1872.95 -5.47826 -4.48656 0
M  V30 19868 H 1873.35 -3.75855 -4.21181 0
M  V30 19869 N 1872.75 0.720973 -1.40142 0
M  V30 19870 C 1874 1.47785 -1.37855 0
M  V30 19871 C 1874.32 1.9499 0.0201858 0
M  V30 19872 O 1873.59 1.69972 0.973986 0
M  V30 19873 H 1872.17 0.548275 -0.507349 0
M  V30 19874 H 1874.83 0.85502 -1.75144 0
M  V30 19875 H 1873.93 2.35327 -2.05006 0
M  V30 19876 N 1874.23 1.25549 0.952634 0
M  V30 19877 C 1875.48 1.11588 1.70058 0
M  V30 19878 C 1875.83 -0.339332 1.89384 0
M  V30 19879 O 1875.12 -1.24644 1.45515 0
M  V30 19880 C 1875.32 1.80586 3.08421 0
M  V30 19881 C 1875.15 3.32667 3.02593 0
M  V30 19882 C 1873.92 4.01927 3.0624 0
M  V30 19883 C 1876.12 4.29036 2.83607 0
M  V30 19884 N 1874.1 5.40768 2.90591 0
M  V30 19885 C 1875.47 5.54976 2.76409 0
M  V30 19886 C 1877.52 4.19426 2.68302 0
M  V30 19887 C 1876.23 6.72404 2.55471 0
M  V30 19888 C 1878.25 5.36549 2.48735 0
M  V30 19889 C 1877.61 6.6143 2.4226 0
M  V30 19890 H 1873.71 0.463049 0.630166 0
M  V30 19891 H 1876.3 1.58678 1.12825 0
M  V30 19892 H 1874.47 1.35989 3.63815 0
M  V30 19893 H 1876.2 1.59349 3.72008 0
M  V30 19894 H 1872.96 3.53201 3.15509 0
M  V30 19895 H 1873.38 6.13639 2.85965 0
M  V30 19896 H 1878.02 3.23622 2.72081 0
M  V30 19897 H 1875.74 7.68316 2.50433 0
M  V30 19898 H 1879.33 5.30976 2.37815 0
M  V30 19899 H 1878.21 7.50531 2.27317 0
M  V30 19900 N 1875.71 -1.15554 1.07168 0
M  V30 19901 C 1876.96 -1.85928 0.792151 0
M  V30 19902 C 1877.28 -1.82621 -0.68372 0
M  V30 19903 O 1876.55 -1.26585 -1.49509 0
M  V30 19904 H 1875.13 -0.688393 0.290043 0
M  V30 19905 H 1877.79 -1.40089 1.35503 0
M  V30 19906 H 1876.89 -2.91119 1.125 0
M  V30 19907 N 1877.19 -0.855519 -1.32358 0
M  V30 19908 C 1878.1 -0.303696 -2.32626 0
M  V30 19909 C 1879.11 0.578927 -1.64087 0
M  V30 19910 O 1880.29 0.479091 -1.95619 0
M  V30 19911 C 1877.35 0.498152 -3.43103 0
M  V30 19912 C 1876.42 -0.410714 -4.27331 0
M  V30 19913 C 1875.65 0.35296 -5.32532 0
M  V30 19914 O 1875.87 1.58282 -5.47999 0
M  V30 19915 O 1874.81 -0.281689 -6.0124 0
M  V30 19916 H 1878.63 -1.13443 -2.81717 0
M  V30 19917 H 1876.22 -0.618479 -1.35997 0
M  V30 19918 H 1878.1 0.95324 -4.10477 0
M  V30 19919 H 1876.77 1.30567 -2.96199 0
M  V30 19920 H 1875.68 -0.913997 -3.62763 0
M  V30 19921 H 1877.01 -1.18344 -4.77761 0
M  V30 19922 N 1878.67 1.45167 -0.61354 0
M  V30 19923 C 1879.61 2.30575 0.101811 0
M  V30 19924 C 1880.58 1.42455 0.85416 0
M  V30 19925 O 1881.77 1.71378 0.838711 0
M  V30 19926 C 1878.91 3.27459 1.08926 0
M  V30 19927 C 1878.02 4.30682 0.337164 0
M  V30 19928 C 1877.16 5.1467 1.31486 0
M  V30 19929 C 1876.19 6.09616 0.550918 0
M  V30 19930 N 1875.33 6.86363 1.4782 0
M  V30 19931 H 1880.17 2.9121 -0.632495 0
M  V30 19932 H 1877.71 1.43494 -0.323705 0
M  V30 19933 H 1879.67 3.82101 1.67495 0
M  V30 19934 H 1878.3 2.68564 1.79091 0
M  V30 19935 H 1877.35 3.78653 -0.364144 0
M  V30 19936 H 1878.66 4.98129 -0.258629 0
M  V30 19937 H 1877.81 5.73742 1.97243 0
M  V30 19938 H 1876.55 4.47255 1.94458 0
M  V30 19939 H 1875.56 5.49668 -0.120251 0
M  V30 19940 H 1876.78 6.7906 -0.07384 0
M  V30 19941 H 1874.73 6.21632 2.09545 0
M  V30 19942 H 1874.65 7.50183 0.935989 0
M  V30 19943 H 1875.91 7.49972 2.12516 0
M  V30 19944 N 1880.14 0.353044 1.53595 0
M  V30 19945 C 1881.11 -0.48691 2.23968 0
M  V30 19946 C 1882.11 -1.01991 1.24316 0
M  V30 19947 O 1883.3 -0.907654 1.48685 0
M  V30 19948 C 1880.43 -1.67926 2.96671 0
M  V30 19949 H 1881.62 0.128707 2.99624 0
M  V30 19950 H 1879.17 0.104533 1.5595 0
M  V30 19951 H 1879.91 -2.33331 2.25227 0
M  V30 19952 H 1879.69 -1.30417 3.69776 0
M  V30 19953 H 1881.18 -2.2748 3.50203 0
M  V30 19954 N 1881.62 -1.57387 0.0818932 0
M  V30 19955 C 1882.87 -1.93045 -0.584519 0
M  V30 19956 C 1883.18 -0.96473 -1.70154 0
M  V30 19957 O 1884.39 -1.21451 -2.42821 0
M  V30 19958 C 1882.85 -3.42962 -1.0911 0
M  V30 19959 C 1882.45 -4.48 -0.00454233 0
M  V30 19960 C 1884.2 -3.87604 -1.731 0
M  V30 19961 C 1882.1 -5.89059 -0.525733 0
M  V30 19962 H 1881.03 -0.720543 -0.222112 0
M  V30 19963 H 1883.69 -1.82838 0.155762 0
M  V30 19964 H 1882.07 -3.48277 -1.88466 0
M  V30 19965 H 1883.24 -4.54314 0.770444 0
M  V30 19966 H 1881.56 -4.12887 0.539739 0
M  V30 19967 H 1884.15 -4.90382 -2.13143 0
M  V30 19968 H 1884.5 -3.25524 -2.59499 0
M  V30 19969 H 1885.03 -3.84935 -1.00349 0
M  V30 19970 H 1881.77 -6.54807 0.301333 0
M  V30 19971 H 1881.29 -5.86243 -1.26802 0
M  V30 19972 H 1882.97 -6.39242 -0.998928 0
M  V30 19973 N 1883.1 0.191729 -1.56429 0
M  V30 19974 C 1884.01 1.25798 -1.9802 0
M  V30 19975 C 1885.03 1.49612 -0.888379 0
M  V30 19976 O 1886.2 1.62161 -1.1944 0
M  V30 19977 C 1883.27 2.58158 -2.3142 0
M  V30 19978 C 1882.33 2.42386 -3.54327 0
M  V30 19979 C 1881.56 3.68434 -3.86124 0
M  V30 19980 O 1881.78 4.72747 -3.19165 0
M  V30 19981 O 1880.72 3.63762 -4.79542 0
M  V30 19982 H 1884.54 0.935013 -2.88948 0
M  V30 19983 H 1882.13 0.396996 -1.44029 0
M  V30 19984 H 1884.01 3.36274 -2.53964 0
M  V30 19985 H 1882.69 2.90075 -1.43659 0
M  V30 19986 H 1881.59 1.62369 -3.37027 0
M  V30 19987 H 1882.93 2.154 -4.42565 0
M  V30 19988 N 1884.58 1.50751 0.459565 0
M  V30 19989 C 1885.83 1.61553 1.20762 0
M  V30 19990 C 1886.14 0.326862 1.9285 0
M  V30 19991 O 1887.35 0.313951 2.69679 0
M  V30 19992 C 1885.8 2.8522 2.19494 0
M  V30 19993 C 1885.41 4.21008 1.53156 0
M  V30 19994 C 1887.15 3.05373 2.94869 0
M  V30 19995 C 1885.06 5.35848 2.50241 0
M  V30 19996 H 1883.99 0.601658 0.454448 0
M  V30 19997 H 1886.64 1.77195 0.476886 0
M  V30 19998 H 1885.02 2.63163 2.95908 0
M  V30 19999 H 1886.2 4.53363 0.824521 0
M  V30 20000 H 1884.51 4.06554 0.900178 0
M  V30 20001 H 1887.11 3.88342 3.67552 0
M  V30 20002 H 1887.45 2.17557 3.54929 0
M  V30 20003 H 1887.99 3.27665 2.25566 0
M  V30 20004 H 1884.72 6.25854 1.94904 0
M  V30 20005 H 1884.24 5.07896 3.19063 0
M  V30 20006 H 1885.92 5.66894 3.11834 0
M  V30 20007 N 1886.06 -0.713531 1.40522 0
M  V30 20008 C 1887.47 -1.02187 1.22597 0
M  V30 20009 C 1887.67 -2.01239 0.102623 0
M  V30 20010 O 1886.73 -2.46684 -0.538822 0
M  V30 20011 C 1888.04 -1.56362 2.56849 0
M  V30 20012 C 1889.59 -1.68337 2.63878 0
M  V30 20013 C 1890.06 -2.25918 3.98403 0
M  V30 20014 N 1891.55 -2.33301 4.00156 0
M  V30 20015 C 1892.29 -2.78842 5.01034 0
M  V30 20016 N 1891.79 -3.24119 6.12306 0
M  V30 20017 N 1893.58 -2.78244 4.88402 0
M  V30 20018 H 1885.73 -0.0570118 2.12323 0
M  V30 20019 H 1887.99 -0.0878906 0.943917 0
M  V30 20020 H 1887.7 -0.910421 3.39712 0
M  V30 20021 H 1887.57 -2.54855 2.78081 0
M  V30 20022 H 1889.96 -2.32773 1.81385 0
M  V30 20023 H 1890.04 -0.684382 2.46475 0
M  V30 20024 H 1889.68 -1.62102 4.81337 0
M  V30 20025 H 1889.61 -3.26534 4.13138 0
M  V30 20026 H 1892.11 -2.01326 3.19807 0
M  V30 20027 H 1892.42 -3.57442 6.85168 0
M  V30 20028 H 1890.76 -3.22073 6.15868 0
M  V30 20029 H 1893.95 -2.42209 4.00565 0
M  V30 20030 H 1894.13 -3.13419 5.67162 0
M  V30 20031 N 1887.53 -1.26053 -0.945962 0
M  V30 20032 C 1888.76 -1.14181 -1.7314 0
M  V30 20033 C 1889.18 0.299663 -1.85698 0
M  V30 20034 O 1888.54 1.21711 -1.34373 0
M  V30 20035 C 1888.59 -1.81052 -3.11854 0
M  V30 20036 O 1887.69 -1.09606 -3.97568 0
M  V30 20037 H 1887.03 -0.398138 -0.531397 0
M  V30 20038 H 1889.56 -1.66782 -1.18511 0
M  V30 20039 H 1889.57 -1.87685 -3.62269 0
M  V30 20040 H 1888.25 -2.85921 -3.0203 0
M  V30 20041 H 1886.83 -1.10915 -3.56023 0
M  V30 20042 N 1889.01 1.14984 -1.07779 0
M  V30 20043 C 1890.26 1.86148 -0.804777 0
M  V30 20044 C 1890.59 1.82364 0.667615 0
M  V30 20045 O 1889.87 1.24982 1.4903 0
M  V30 20046 C 1890.15 3.35067 -1.31916 0
M  V30 20047 C 1890 3.4746 -2.85642 0
M  V30 20048 C 1891.32 4.29961 -0.939217 0
M  V30 20049 H 1888.44 0.675899 -0.293818 0
M  V30 20050 H 1891.08 1.35065 -1.33632 0
M  V30 20051 H 1889.23 3.78702 -0.867011 0
M  V30 20052 H 1890.9 3.12658 -3.3918 0
M  V30 20053 H 1889.15 2.88878 -3.23623 0
M  V30 20054 H 1889.82 4.52109 -3.16704 0
M  V30 20055 H 1892.29 3.94309 -1.3289 0
M  V30 20056 H 1891.17 5.32633 -1.32641 0
M  V30 20057 H 1891.43 4.4183 0.15442 0
M  V30 20058 N 1890.49 0.862526 1.31902 0
M  V30 20059 C 1891.4 0.316029 2.32462 0
M  V30 20060 C 1892.42 -0.570217 1.64391 0
M  V30 20061 O 1893.59 -0.46871 1.9587 0
M  V30 20062 C 1890.66 -0.479949 3.43362 0
M  V30 20063 C 1889.72 0.43337 4.27107 0
M  V30 20064 C 1888.95 -0.324714 5.32711 0
M  V30 20065 O 1889.17 -1.55373 5.48831 0
M  V30 20066 O 1888.11 0.313571 6.01083 0
M  V30 20067 H 1891.93 1.14935 2.81111 0
M  V30 20068 H 1889.52 0.625683 1.35667 0
M  V30 20069 H 1891.4 -0.931458 4.10977 0
M  V30 20070 H 1890.08 -1.28994 2.96888 0
M  V30 20071 H 1888.98 0.933222 3.62273 0
M  V30 20072 H 1890.32 1.20876 4.77127 0
M  V30 20073 N 1891.97 -1.4484 0.62123 0
M  V30 20074 C 1893.2 -2.065 0.128561 0
M  V30 20075 C 1893.61 -1.46351 -1.19277 0
M  V30 20076 O 1892.97 -0.582692 -1.72948 0
M  V30 20077 C 1893.02 -3.615 -0.00297622 0
M  V30 20078 O 1892.74 -4.19407 1.26609 0
M  V30 20079 C 1894.24 -4.40174 -0.525505 0
M  V30 20080 H 1891.46 -0.666783 0.0751128 0
M  V30 20081 H 1894.01 -1.85868 0.852829 0
M  V30 20082 H 1892.16 -3.81427 -0.677635 0
M  V30 20083 H 1892.57 -5.12738 1.10454 0
M  V30 20084 H 1894.05 -5.49085 -0.566585 0
M  V30 20085 H 1894.53 -4.10918 -1.55057 0
M  V30 20086 H 1895.13 -4.25143 0.115568 0
M  V30 20087 N 1893.45 -0.361184 -1.53405 0
M  V30 20088 C 1894.69 0.229427 -2.00794 0
M  V30 20089 C 1895.02 1.49642 -1.25029 0
M  V30 20090 O 1894.29 1.9252 -0.362333 0
M  V30 20091 H 1892.87 0.0877687 -0.741826 0
M  V30 20092 H 1895.53 -0.486406 -1.88733 0
M  V30 20093 H 1894.62 0.459504 -3.08699 0
M  V30 20094 N 1894.92 1.57341 -0.0902386 0
M  V30 20095 C 1895.87 2.10293 0.880961 0
M  V30 20096 C 1896.86 1.01683 1.24697 0
M  V30 20097 O 1898.05 1.27965 1.22286 0
M  V30 20098 C 1895.18 2.68293 2.14182 0
M  V30 20099 C 1894.27 3.83938 1.80146 0
M  V30 20100 N 1894.66 4.92166 1.16646 0
M  V30 20101 C 1892.95 3.93581 2.09785 0
M  V30 20102 C 1893.66 5.72845 1.01113 0
M  V30 20103 N 1892.63 5.21716 1.52686 0
M  V30 20104 H 1896.43 2.91354 0.385979 0
M  V30 20105 H 1893.95 1.62006 0.113118 0
M  V30 20106 H 1895.94 3.04555 2.84697 0
M  V30 20107 H 1894.6 1.88685 2.6425 0
M  V30 20108 H 1895.62 5.11143 0.833854 0
M  V30 20109 H 1892.29 3.24975 2.62102 0
M  V30 20110 H 1893.68 6.69924 0.514913 0
M  V30 20111 N 1896.4 -0.183431 1.56529 0
M  V30 20112 C 1897.33 -1.22973 1.98494 0
M  V30 20113 C 1898.31 -1.46837 0.858653 0
M  V30 20114 O 1899.5 -1.58377 1.12385 0
M  V30 20115 C 1896.63 -2.57138 2.33446 0
M  V30 20116 C 1895.58 -2.47865 3.48922 0
M  V30 20117 C 1894.91 -3.8641 3.69582 0
M  V30 20118 C 1896.21 -1.99371 4.82751 0
M  V30 20119 H 1897.9 -0.880938 2.86147 0
M  V30 20120 H 1895.45 -0.422321 1.37668 0
M  V30 20121 H 1897.4 -3.30527 2.614 0
M  V30 20122 H 1896.13 -2.93781 1.42689 0
M  V30 20123 H 1894.78 -1.76932 3.21077 0
M  V30 20124 H 1894.43 -4.20426 2.76136 0
M  V30 20125 H 1894.13 -3.81077 4.47274 0
M  V30 20126 H 1895.66 -4.61403 3.99924 0
M  V30 20127 H 1897.07 -2.62526 5.0966 0
M  V30 20128 H 1895.47 -2.05014 5.63994 0
M  V30 20129 H 1896.54 -0.947442 4.75554 0
M  V30 20130 N 1897.88 -1.50992 -0.451564 0
M  V30 20131 C 1899.16 -1.53486 -1.2125 0
M  V30 20132 C 1899.54 -0.290809 -2.09087 0
M  V30 20133 O 1898.89 0.724859 -2.16698 0
M  V30 20134 C 1899.1 -2.84125 -2.02667 0
M  V30 20135 C 1900.44 -3.35535 -2.60195 0
M  V30 20136 O 1901.47 -2.85579 -2.12892 0
M  V30 20137 O 1900.33 -4.22667 -3.46432 0
M  V30 20138 H 1897.42 -0.616481 -0.551253 0
M  V30 20139 H 1899.97 -1.63296 -0.461792 0
M  V30 20140 H 1898.74 -3.66134 -1.38064 0
M  V30 20141 H 1898.36 -2.7741 -2.84832 0
M  V30 20142 N 1899.36 0.706069 -1.40899 0
M  V30 20143 C 1900.61 1.46315 -1.39415 0
M  V30 20144 C 1900.93 1.95 -0.000496593 0
M  V30 20145 O 1900.2 1.70995 0.955904 0
M  V30 20146 H 1898.78 0.542863 -0.513136 0
M  V30 20147 H 1901.44 0.836396 -1.76041 0
M  V30 20148 H 1900.54 2.33139 -2.07491 0
M  V30 20149 N 1900.84 1.26553 0.939264 0
M  V30 20150 C 1902.08 1.12376 1.68818 0
M  V30 20151 C 1902.42 -0.331784 1.91345 0
M  V30 20152 O 1901.69 -1.24359 1.4955 0
M  V30 20153 C 1901.97 1.89541 3.0618 0
M  V30 20154 C 1901.83 3.43014 2.90966 0
M  V30 20155 C 1903.15 1.69074 4.06327 0
M  V30 20156 H 1900.26 0.409616 0.612686 0
M  V30 20157 H 1902.91 1.55571 1.09076 0
M  V30 20158 H 1901.06 1.5283 3.57177 0
M  V30 20159 H 1902.73 3.89489 2.47176 0
M  V30 20160 H 1900.97 3.69942 2.26551 0
M  V30 20161 H 1901.64 3.92236 3.88401 0
M  V30 20162 H 1904.12 2.01061 3.64299 0
M  V30 20163 H 1902.99 2.25478 5.00451 0
M  V30 20164 H 1903.26 0.635787 4.37504 0
M  V30 20165 N 1902.31 -1.14411 1.08387 0
M  V30 20166 C 1903.56 -1.85444 0.813433 0
M  V30 20167 C 1903.89 -1.82932 -0.66078 0
M  V30 20168 O 1903.14 -1.25498 -1.50162 0
M  V30 20169 C 1903.44 -3.33681 1.2803 0
M  V30 20170 C 1903.11 -3.56382 2.76229 0
M  V30 20171 C 1901.77 -3.62286 3.16705 0
M  V30 20172 C 1904.12 -3.65224 3.71835 0
M  V30 20173 C 1901.45 -3.74554 4.51582 0
M  V30 20174 C 1903.8 -3.79017 5.06487 0
M  V30 20175 C 1902.47 -3.8317 5.46568 0
M  V30 20176 H 1901.74 -0.678588 0.297656 0
M  V30 20177 H 1904.38 -1.35144 1.35677 0
M  V30 20178 H 1902.69 -3.8626 0.656551 0
M  V30 20179 H 1904.39 -3.87068 1.04781 0
M  V30 20180 H 1900.98 -3.52435 2.43901 0
M  V30 20181 H 1905.16 -3.59952 3.41684 0
M  V30 20182 H 1900.42 -3.76032 4.82089 0
M  V30 20183 H 1904.59 -3.84801 5.80432 0
M  V30 20184 H 1902.22 -3.92429 6.51079 0
M  V30 20185 N 1903.79 -0.869509 -1.31443 0
M  V30 20186 C 1904.73 -0.269612 -2.26602 0
M  V30 20187 C 1905.7 0.600966 -1.51087 0
M  V30 20188 O 1906.89 0.554491 -1.8016 0
M  V30 20189 C 1904.01 0.618287 -3.33009 0
M  V30 20190 C 1903.06 -0.180883 -4.26116 0
M  V30 20191 S 1903.89 -1.55908 -5.12302 0
M  V30 20192 C 1905.05 -0.677295 -6.22225 0
M  V30 20193 H 1905.28 -1.07626 -2.77135 0
M  V30 20194 H 1902.82 -0.668003 -1.39202 0
M  V30 20195 H 1904.77 1.12488 -3.94787 0
M  V30 20196 H 1903.43 1.39888 -2.8123 0
M  V30 20197 H 1902.63 0.496021 -5.01553 0
M  V30 20198 H 1902.23 -0.619555 -3.68833 0
M  V30 20199 H 1904.52 0.1123 -6.77407 0
M  V30 20200 H 1905.46 -1.40278 -6.94066 0
M  V30 20201 H 1905.87 -0.245049 -5.63968 0
M  V30 20202 N 1905.27 1.44508 -0.628902 0
M  V30 20203 C 1906.22 2.27784 0.0991943 0
M  V30 20204 C 1907.2 1.38538 0.818285 0
M  V30 20205 O 1908.4 1.62364 0.704759 0
M  V30 20206 C 1905.53 3.25816 1.0816 0
M  V30 20207 C 1904.61 4.2255 0.362249 0
M  V30 20208 N 1905 5.02133 -0.607915 0
M  V30 20209 C 1903.3 4.4185 0.60699 0
M  V30 20210 C 1904 5.7246 -1.03271 0
M  V30 20211 N 1902.98 5.42326 -0.371966 0
M  V30 20212 H 1906.78 2.86721 -0.645621 0
M  V30 20213 H 1904.29 1.55918 -0.45423 0
M  V30 20214 H 1906.29 3.8423 1.6178 0
M  V30 20215 H 1904.95 2.6844 1.82674 0
M  V30 20216 H 1905.96 5.08435 -0.985626 0
M  V30 20217 H 1902.64 3.95575 1.33517 0
M  V30 20218 H 1904.03 6.46383 -1.83409 0
M  V30 20219 N 1906.75 0.369315 1.53212 0
M  V30 20220 C 1907.7 -0.475399 2.25851 0
M  V30 20221 C 1908.67 -1.07444 1.26669 0
M  V30 20222 O 1909.85 -1.10623 1.55458 0
M  V30 20223 C 1906.99 -1.60725 3.05388 0
M  V30 20224 C 1906.1 -1.03302 4.19467 0
M  V30 20225 C 1905.24 -2.13427 4.86438 0
M  V30 20226 C 1904.28 -1.53489 5.92543 0
M  V30 20227 N 1903.42 -2.57463 6.5319 0
M  V30 20228 H 1908.26 0.150534 2.9762 0
M  V30 20229 H 1905.79 0.0860577 1.46848 0
M  V30 20230 H 1907.75 -2.274 3.49779 0
M  V30 20231 H 1906.38 -2.20378 2.35867 0
M  V30 20232 H 1905.43 -0.256437 3.79535 0
M  V30 20233 H 1906.74 -0.55483 4.95705 0
M  V30 20234 H 1905.9 -2.87915 5.34032 0
M  V30 20235 H 1904.64 -2.64599 4.09681 0
M  V30 20236 H 1903.64 -0.775176 5.44308 0
M  V30 20237 H 1904.87 -1.03137 6.71222 0
M  V30 20238 H 1902.81 -3.07841 5.79284 0
M  V30 20239 H 1902.73 -2.14342 7.24978 0
M  V30 20240 H 1904 -3.31642 7.05432 0
M  V30 20241 N 1908.23 -1.57291 0.0985816 0
M  V30 20242 C 1909.64 -1.575 -0.258064 0
M  V30 20243 C 1909.84 -1.10997 -1.68172 0
M  V30 20244 O 1908.9 -0.78802 -2.39889 0
M  V30 20245 C 1910.21 -3.00669 -0.0433215 0
M  V30 20246 C 1911.76 -3.12804 -0.110802 0
M  V30 20247 C 1912.24 -4.57937 0.0759907 0
M  V30 20248 N 1913.73 -4.63195 0.021273 0
M  V30 20249 C 1914.46 -5.73227 0.141 0
M  V30 20250 N 1913.96 -6.9208 0.315756 0
M  V30 20251 N 1915.75 -5.6204 0.0820222 0
M  V30 20252 H 1907.9 -1.85826 1.02871 0
M  V30 20253 H 1910.16 -0.857869 0.403441 0
M  V30 20254 H 1909.87 -3.38903 0.940103 0
M  V30 20255 H 1909.74 -3.6896 -0.784124 0
M  V30 20256 H 1912.13 -2.7444 -1.08473 0
M  V30 20257 H 1912.21 -2.47098 0.661548 0
M  V30 20258 H 1911.86 -4.96995 1.04681 0
M  V30 20259 H 1911.79 -5.21708 -0.716096 0
M  V30 20260 H 1914.28 -3.77737 -0.111114 0
M  V30 20261 H 1914.59 -7.71772 0.398531 0
M  V30 20262 H 1912.94 -6.94111 0.351469 0
M  V30 20263 H 1916.13 -4.6807 -0.0533968 0
M  V30 20264 H 1916.3 -6.47753 0.178778 0
M  V30 20265 N 1909.71 0.175127 -1.56624 0
M  V30 20266 C 1910.67 1.20064 -1.95237 0
M  V30 20267 C 1911.67 1.37384 -0.835603 0
M  V30 20268 O 1912.86 1.34855 -1.10272 0
M  V30 20269 C 1909.99 2.5664 -2.24386 0
M  V30 20270 H 1911.18 0.870066 -2.87001 0
M  V30 20271 H 1908.74 0.41743 -1.50623 0
M  V30 20272 H 1909.47 2.94717 -1.35322 0
M  V30 20273 H 1909.26 2.45436 -3.05784 0
M  V30 20274 H 1910.75 3.30554 -2.55194 0
M  V30 20275 N 1911.18 1.5123 0.44355 0
M  V30 20276 C 1912.12 1.68281 1.55609 0
M  V30 20277 C 1913.13 0.563589 1.52733 0
M  V30 20278 O 1914.32 0.837706 1.57622 0
M  V30 20279 C 1911.42 1.67657 2.94524 0
M  V30 20280 C 1910.59 2.96063 3.21971 0
M  V30 20281 C 1909.65 2.8771 4.40578 0
M  V30 20282 O 1908.68 3.61659 4.39536 0
M  V30 20283 N 1909.88 2.03137 5.43797 0
M  V30 20284 H 1912.64 2.64252 1.41389 0
M  V30 20285 H 1910.2 1.49038 0.632398 0
M  V30 20286 H 1912.2 1.59646 3.71881 0
M  V30 20287 H 1910.77 0.79306 3.02373 0
M  V30 20288 H 1909.99 3.17991 2.32971 0
M  V30 20289 H 1911.27 3.81074 3.37135 0
M  V30 20290 H 1910.67 1.42422 5.47478 0
M  V30 20291 H 1909.23 2.0101 6.20031 0
M  V30 20292 N 1912.66 -0.698586 1.41271 0
M  V30 20293 C 1914.08 -1.0088 1.23674 0
M  V30 20294 C 1914.28 -2.01118 0.123961 0
M  V30 20295 O 1913.33 -2.47242 -0.512628 0
M  V30 20296 C 1914.65 -1.53629 2.58493 0
M  V30 20297 C 1916.19 -1.65528 2.65649 0
M  V30 20298 C 1916.67 -2.21679 4.00777 0
M  V30 20299 N 1918.16 -2.29044 4.02608 0
M  V30 20300 C 1918.9 -2.73512 5.03963 0
M  V30 20301 N 1918.39 -3.17607 6.15709 0
M  V30 20302 N 1920.18 -2.73049 4.91326 0
M  V30 20303 H 1912.34 -0.0344888 2.12372 0
M  V30 20304 H 1914.6 -0.0778742 0.944796 0
M  V30 20305 H 1914.3 -0.874339 3.40658 0
M  V30 20306 H 1914.18 -2.51891 2.80768 0
M  V30 20307 H 1916.57 -2.30836 1.83844 0
M  V30 20308 H 1916.65 -0.658201 2.47187 0
M  V30 20309 H 1916.29 -1.56988 4.83029 0
M  V30 20310 H 1916.22 -3.22134 4.16578 0
M  V30 20311 H 1918.71 -1.97922 3.21924 0
M  V30 20312 H 1919.02 -3.50155 6.88921 0
M  V30 20313 H 1917.37 -3.15523 6.1925 0
M  V30 20314 H 1920.56 -2.37947 4.03112 0
M  V30 20315 H 1920.73 -3.07386 5.70454 0
M  V30 20316 N 1914.14 -1.27049 -0.93254 0
M  V30 20317 C 1915.07 -1.11867 -2.04959 0
M  V30 20318 C 1916.05 -0.0214563 -1.70086 0
M  V30 20319 O 1917.24 -0.195063 -1.93218 0
M  V30 20320 C 1914.37 -0.759993 -3.38883 0
M  V30 20321 C 1913.32 -1.8099 -3.87849 0
M  V30 20322 C 1912.65 -1.30532 -5.18522 0
M  V30 20323 C 1913.95 -3.21309 -4.11774 0
M  V30 20324 H 1915.64 -2.05309 -2.17918 0
M  V30 20325 H 1913.19 -0.988507 -1.04712 0
M  V30 20326 H 1915.14 -0.640623 -4.16502 0
M  V30 20327 H 1913.86 0.210139 -3.25923 0
M  V30 20328 H 1912.52 -1.91809 -3.12418 0
M  V30 20329 H 1912.17 -0.324784 -5.0195 0
M  V30 20330 H 1911.87 -2.00722 -5.52254 0
M  V30 20331 H 1913.39 -1.19879 -5.98716 0
M  V30 20332 H 1914.81 -3.13517 -4.79979 0
M  V30 20333 H 1913.2 -3.89166 -4.56804 0
M  V30 20334 H 1914.27 -3.66722 -3.17243 0
M  V30 20335 N 1915.62 1.13835 -1.08993 0
M  V30 20336 C 1916.56 2.19107 -0.725298 0
M  V30 20337 C 1917.53 1.63524 0.291368 0
M  V30 20338 O 1918.72 1.90005 0.174014 0
M  V30 20339 C 1915.86 3.44786 -0.147212 0
M  V30 20340 C 1914.97 4.14492 -1.21738 0
M  V30 20341 C 1914.11 5.27772 -0.602519 0
M  V30 20342 C 1913.15 5.89321 -1.65431 0
M  V30 20343 N 1912.28 6.9404 -1.0608 0
M  V30 20344 H 1917.12 2.49646 -1.6273 0
M  V30 20345 H 1914.66 1.22585 -0.813108 0
M  V30 20346 H 1916.62 4.16692 0.205719 0
M  V30 20347 H 1915.25 3.14712 0.718077 0
M  V30 20348 H 1914.3 3.40914 -1.68766 0
M  V30 20349 H 1915.61 4.56325 -2.01417 0
M  V30 20350 H 1914.77 6.06376 -0.198177 0
M  V30 20351 H 1913.51 4.87177 0.225868 0
M  V30 20352 H 1912.51 5.09415 -2.06824 0
M  V30 20353 H 1913.74 6.3199 -2.48528 0
M  V30 20354 H 1911.68 6.5551 -0.253616 0
M  V30 20355 H 1911.6 7.34391 -1.79461 0
M  V30 20356 H 1912.87 7.76506 -0.682517 0
M  V30 20357 N 1917.1 0.876467 1.3098 0
M  V30 20358 C 1918.34 0.49064 1.96466 0
M  V30 20359 C 1918.67 -0.958443 1.69246 0
M  V30 20360 O 1917.93 -1.69096 0.985144 0
M  V30 20361 C 1918.22 0.70208 3.50436 0
M  V30 20362 C 1917.89 2.12494 3.9769 0
M  V30 20363 C 1916.55 2.51405 4.10303 0
M  V30 20364 C 1918.9 3.0526 4.22452 0
M  V30 20365 C 1916.23 3.82309 4.45035 0
M  V30 20366 C 1918.58 4.35686 4.5865 0
M  V30 20367 C 1917.25 4.74502 4.69472 0
M  V30 20368 H 1916.52 0.179538 0.718921 0
M  V30 20369 H 1919.17 1.1107 1.55999 0
M  V30 20370 H 1917.47 -0.00106996 3.918 0
M  V30 20371 H 1919.17 0.383279 3.99164 0
M  V30 20372 H 1915.76 1.81287 3.88372 0
M  V30 20373 H 1919.94 2.76422 4.12195 0
M  V30 20374 H 1915.2 4.12136 4.51612 0
M  V30 20375 H 1919.37 5.07612 4.76763 0
M  V30 20376 H 1917 5.75976 4.9614 0
M  V30 20377 N 1918.57 -1.44173 0.636557 0
M  V30 20378 C 1919.5 -2.33442 -0.0518719 0
M  V30 20379 C 1920.48 -1.48519 -0.829226 0
M  V30 20380 O 1921.67 -1.77225 -0.794028 0
M  V30 20381 C 1918.8 -3.31663 -1.03038 0
M  V30 20382 C 1917.75 -4.26447 -0.364286 0
M  V30 20383 C 1917.08 -5.14577 -1.45308 0
M  V30 20384 C 1918.38 -5.17133 0.732884 0
M  V30 20385 H 1920.07 -2.91255 0.693589 0
M  V30 20386 H 1917.62 -1.40049 0.33499 0
M  V30 20387 H 1919.57 -3.93002 -1.52077 0
M  V30 20388 H 1918.3 -2.72071 -1.80679 0
M  V30 20389 H 1916.96 -3.66448 0.105505 0
M  V30 20390 H 1916.6 -4.51334 -2.22051 0
M  V30 20391 H 1916.3 -5.78807 -1.01274 0
M  V30 20392 H 1917.83 -5.78788 -1.94517 0
M  V30 20393 H 1919.24 -5.72376 0.325363 0
M  V30 20394 H 1917.64 -5.89994 1.09669 0
M  V30 20395 H 1918.71 -4.5782 1.59779 0
M  V30 20396 N 1920.05 -0.377435 -1.53014 0
M  V30 20397 C 1921.29 0.208453 -2.03334 0
M  V30 20398 C 1921.66 1.45024 -1.25826 0
M  V30 20399 O 1922.86 2.11252 -1.66211 0
M  V30 20400 C 1921.13 0.481594 -3.5414 0
M  V30 20401 S 1922.69 1.03946 -4.26311 0
M  V30 20402 H 1919.5 0.0597675 -0.708483 0
M  V30 20403 H 1922.11 -0.523042 -1.88373 0
M  V30 20404 H 1920.81 -0.429474 -4.08147 0
M  V30 20405 H 1920.34 1.24184 -3.73285 0
M  V30 20406 H 1922.36 2.3228 -4.38475 0
M  V30 20407 N 1921.53 1.57237 -0.106922 0
M  V30 20408 C 1922.44 2.18202 0.861685 0
M  V30 20409 C 1923.46 1.15476 1.30159 0
M  V30 20410 O 1924.63 1.47896 1.36707 0
M  V30 20411 C 1921.7 2.7598 2.09847 0
M  V30 20412 C 1920.76 3.93702 1.71164 0
M  V30 20413 C 1919.99 4.48716 2.88946 0
M  V30 20414 O 1920.21 4.02645 4.04021 0
M  V30 20415 O 1919.15 5.39573 2.66729 0
M  V30 20416 H 1922.97 3.01402 0.372924 0
M  V30 20417 H 1920.56 1.48933 0.118058 0
M  V30 20418 H 1922.44 3.12861 2.82305 0
M  V30 20419 H 1921.12 1.9582 2.57753 0
M  V30 20420 H 1920.02 3.61613 0.958499 0
M  V30 20421 H 1921.36 4.75262 1.28011 0
M  V30 20422 N 1923.01 -0.166818 1.56715 0
M  V30 20423 C 1924.42 -0.518754 1.50934 0
M  V30 20424 C 1924.62 -1.84416 0.811964 0
M  V30 20425 O 1923.68 -2.49712 0.374207 0
M  V30 20426 C 1924.99 -0.547356 2.95676 0
M  V30 20427 C 1926.54 -0.634247 3.06507 0
M  V30 20428 C 1927.02 -0.693699 4.52716 0
M  V30 20429 N 1928.51 -0.756466 4.56981 0
M  V30 20430 C 1929.24 -0.823116 5.67461 0
M  V30 20431 N 1928.74 -0.850325 6.87562 0
M  V30 20432 N 1930.53 -0.862482 5.55444 0
M  V30 20433 H 1922.68 0.70222 2.00456 0
M  V30 20434 H 1924.95 0.253731 0.913414 0
M  V30 20435 H 1924.65 0.357945 3.49874 0
M  V30 20436 H 1924.53 -1.39227 3.50565 0
M  V30 20437 H 1926.91 -1.52997 2.52341 0
M  V30 20438 H 1926.99 0.23743 2.54696 0
M  V30 20439 H 1926.64 0.197788 5.07515 0
M  V30 20440 H 1926.57 -1.58158 5.02288 0
M  V30 20441 H 1929.06 -0.74354 3.70513 0
M  V30 20442 H 1929.37 -0.902481 7.67512 0
M  V30 20443 H 1927.72 -0.818528 6.90163 0
M  V30 20444 H 1930.91 -0.838257 4.60533 0
M  V30 20445 H 1931.08 -0.910962 6.41565 0
M  V30 20446 N 1924.49 -1.51463 -0.435524 0
M  V30 20447 C 1925.43 -1.73484 -1.54939 0
M  V30 20448 C 1926.43 -0.601197 -1.58373 0
M  V30 20449 O 1927.63 -0.782622 -1.62096 0
M  V30 20450 H 1924.01 -0.54818 -0.514784 0
M  V30 20451 H 1925.98 -2.66851 -1.3354 0
M  V30 20452 C 1924.73 -1.87866 -2.92578 0
M  V30 20453 H 1924.05 -2.74503 -2.90668 0
M  V30 20454 H 1925.49 -2.07285 -3.69877 0
M  V30 20455 C 1923.95 -0.638928 -3.30786 0
M  V30 20456 O 1924.48 0.205561 -4.01174 0
M  V30 20457 N 1922.69 -0.48249 -2.86567 0
M  V30 20458 H 1922.23 -1.17078 -2.29457 0
M  V30 20459 H 1922.19 0.345753 -3.12493 0
M  V30 20460 N 1925.96 0.691085 -1.4164 0
M  V30 20461 C 1927.24 1.44595 -1.31726 0
M  V30 20462 C 1927.62 2.11033 0.0530624 0
M  V30 20463 O 1926.97 2.02027 1.06759 0
M  V30 20464 C 1927.18 2.46172 -2.47387 0
M  V30 20465 C 1928.53 3.11293 -2.88759 0
M  V30 20466 O 1929.55 2.56497 -2.47159 0
M  V30 20467 O 1928.41 4.10551 -3.60707 0
M  V30 20468 H 1925.5 0.644163 -0.518635 0
M  V30 20469 H 1928.05 0.721184 -1.53613 0
M  V30 20470 H 1926.82 1.95764 -3.3881 0
M  V30 20471 H 1926.45 3.26151 -2.27401 0
M  V30 20472 N 1927.44 1.27542 0.925789 0
M  V30 20473 C 1928.39 1.10432 2.02666 0
M  V30 20474 C 1929.36 0.004846 1.66099 0
M  V30 20475 O 1930.54 0.167531 1.90063 0
M  V30 20476 C 1927.68 0.759567 3.36637 0
M  V30 20477 C 1926.8 1.93687 3.86147 0
M  V30 20478 C 1925.93 1.53382 5.08574 0
M  V30 20479 C 1924.97 2.67849 5.50385 0
M  V30 20480 N 1924.11 2.2812 6.64007 0
M  V30 20481 H 1928.95 2.04632 2.16633 0
M  V30 20482 H 1926.49 1.01863 1.06124 0
M  V30 20483 H 1928.44 0.540492 4.13684 0
M  V30 20484 H 1927.07 -0.145477 3.22472 0
M  V30 20485 H 1926.13 2.26843 3.05363 0
M  V30 20486 H 1927.44 2.79548 4.13104 0
M  V30 20487 H 1926.59 1.2761 5.93128 0
M  V30 20488 H 1925.33 0.646332 4.83398 0
M  V30 20489 H 1924.34 2.94333 4.64379 0
M  V30 20490 H 1925.56 3.57222 5.77554 0
M  V30 20491 H 1923.51 1.41825 6.40485 0
M  V30 20492 H 1923.42 3.07519 6.90629 0
M  V30 20493 H 1924.69 2.056 7.51897 0
M  V30 20494 N 1928.92 -1.13255 1.09595 0
M  V30 20495 C 1930.17 -1.84844 0.83429 0
M  V30 20496 C 1930.5 -1.83403 -0.638518 0
M  V30 20497 O 1929.77 -1.27337 -1.47022 0
M  V30 20498 C 1930.06 -3.32926 1.3723 0
M  V30 20499 C 1929.91 -3.42872 2.91134 0
M  V30 20500 C 1931.23 -4.28413 1.0075 0
M  V30 20501 H 1928.35 -0.671139 0.304534 0
M  V30 20502 H 1930.99 -1.32922 1.35764 0
M  V30 20503 H 1929.14 -3.77275 0.927149 0
M  V30 20504 H 1930.81 -3.07222 3.44111 0
M  V30 20505 H 1929.06 -2.83693 3.28178 0
M  V30 20506 H 1929.73 -4.47013 3.23857 0
M  V30 20507 H 1932.2 -3.92145 1.39146 0
M  V30 20508 H 1931.08 -5.30455 1.41098 0
M  V30 20509 H 1931.34 -4.4202 -0.0841095 0
M  V30 20510 N 1930.4 -0.883401 -1.30514 0
M  V30 20511 C 1931.65 -0.501052 -1.96203 0
M  V30 20512 C 1931.97 0.949454 -1.69752 0
M  V30 20513 O 1931.23 1.68571 -0.994097 0
M  V30 20514 C 1931.53 -0.720655 -3.50059 0
M  V30 20515 C 1931.19 -2.146 -3.96557 0
M  V30 20516 C 1929.86 -2.53577 -4.08964 0
M  V30 20517 C 1932.21 -3.07496 -4.20827 0
M  V30 20518 C 1929.54 -3.84664 -4.43002 0
M  V30 20519 C 1931.89 -4.38113 -4.56333 0
M  V30 20520 C 1930.55 -4.76985 -4.66949 0
M  V30 20521 H 1929.82 -0.183348 -0.717959 0
M  V30 20522 H 1932.47 -1.11895 -1.55408 0
M  V30 20523 H 1930.77 -0.0197082 -3.91795 0
M  V30 20524 H 1932.47 -0.404442 -3.98955 0
M  V30 20525 H 1929.06 -1.83345 -3.87405 0
M  V30 20526 H 1933.24 -2.78604 -4.10723 0
M  V30 20527 H 1928.5 -4.14526 -4.4942 0
M  V30 20528 H 1932.67 -5.10133 -4.74064 0
M  V30 20529 H 1930.3 -5.786 -4.93079 0
M  V30 20530 N 1931.88 1.43833 -0.644194 0
M  V30 20531 C 1933.12 2.01914 -0.153927 0
M  V30 20532 C 1933.45 1.50758 1.22891 0
M  V30 20533 O 1932.71 0.687354 1.83232 0
M  V30 20534 C 1933.01 3.57249 -0.103941 0
M  V30 20535 C 1932.67 4.27713 -1.42731 0
M  V30 20536 C 1931.33 4.46679 -1.78972 0
M  V30 20537 C 1933.69 4.67695 -2.30024 0
M  V30 20538 C 1931.01 5.0289 -3.0219 0
M  V30 20539 C 1933.37 5.2527 -3.52525 0
M  V30 20540 C 1932.03 5.42453 -3.88974 0
M  V30 20541 H 1931.3 0.738856 -0.0563257 0
M  V30 20542 H 1933.95 1.72428 -0.833108 0
M  V30 20543 H 1932.25 3.86224 0.65866 0
M  V30 20544 H 1933.95 3.99935 0.292124 0
M  V30 20545 H 1930.54 4.1329 -1.1353 0
M  V30 20546 H 1934.72 4.52743 -2.03317 0
M  V30 20547 H 1929.98 5.14379 -3.3049 0
M  V30 20548 H 1934.15 5.55198 -4.2039 0
M  V30 20549 H 1931.78 5.85775 -4.84532 0
M  V30 20550 N 1933.35 0.385544 1.52811 0
M  V30 20551 C 1934.32 -0.439294 2.24951 0
M  V30 20552 C 1935.32 -0.993315 1.26451 0
M  V30 20553 O 1936.51 -0.875911 1.50577 0
M  V30 20554 C 1933.64 -1.61595 3.00166 0
M  V30 20555 H 1934.83 0.192232 2.99283 0
M  V30 20556 H 1932.39 0.137589 1.55693 0
M  V30 20557 H 1933.12 -2.28501 2.30125 0
M  V30 20558 H 1932.91 -1.22544 3.72459 0
M  V30 20559 H 1934.4 -2.20001 3.5495 0
M  V30 20560 N 1934.83 -1.57178 0.115259 0
M  V30 20561 C 1936.06 -1.99842 -0.554802 0
M  V30 20562 C 1936.48 -0.994368 -1.59668 0
M  V30 20563 O 1935.84 0.0344531 -1.81267 0
M  V30 20564 C 1935.89 -3.41399 -1.16099 0
M  V30 20565 O 1934.99 -3.43868 -2.27659 0
M  V30 20566 H 1934.33 -0.649301 -0.138937 0
M  V30 20567 H 1936.86 -2.03594 0.202629 0
M  V30 20568 H 1936.87 -3.79527 -1.49743 0
M  V30 20569 H 1935.55 -4.13993 -0.397827 0
M  V30 20570 H 1934.13 -3.17555 -1.95482 0
M  V30 20571 N 1936.31 0.158505 -1.56801 0
M  V30 20572 C 1937.56 0.874331 -1.82984 0
M  V30 20573 C 1937.89 1.81334 -0.695103 0
M  V30 20574 O 1937.17 1.9214 0.302091 0
M  V30 20575 C 1937.45 1.65886 -3.19615 0
M  V30 20576 C 1937.3 0.74211 -4.43636 0
M  V30 20577 C 1938.62 2.62382 -3.53332 0
M  V30 20578 H 1935.74 0.316412 -0.665622 0
M  V30 20579 H 1938.38 0.139988 -1.89484 0
M  V30 20580 H 1936.53 2.28488 -3.14206 0
M  V30 20581 H 1938.2 0.127969 -4.61122 0
M  V30 20582 H 1936.45 0.0509465 -4.3377 0
M  V30 20583 H 1937.12 1.32683 -5.35816 0
M  V30 20584 H 1939.59 2.09902 -3.59278 0
M  V30 20585 H 1938.47 3.14332 -4.49985 0
M  V30 20586 H 1938.73 3.43194 -2.78694 0
M  V30 20587 N 1937.79 1.51692 0.427485 0
M  V30 20588 C 1939.21 1.40086 0.764726 0
M  V30 20589 C 1939.41 0.490917 1.95428 0
M  V30 20590 O 1938.46 -0.0502236 2.5245 0
M  V30 20591 C 1939.77 2.82295 1.03586 0
M  V30 20592 C 1941.32 2.91513 1.1397 0
M  V30 20593 C 1941.8 4.34651 1.44371 0
M  V30 20594 N 1943.29 4.37802 1.51274 0
M  V30 20595 C 1944.02 5.45596 1.76388 0
M  V30 20596 N 1943.52 6.63536 1.99228 0
M  V30 20597 N 1945.31 5.33088 1.78252 0
M  V30 20598 H 1937.46 2.09399 -0.355809 0
M  V30 20599 H 1939.73 0.943043 -0.0968225 0
M  V30 20600 H 1939.43 3.50918 0.234369 0
M  V30 20601 H 1939.31 3.22223 1.96092 0
M  V30 20602 H 1941.69 2.23082 1.9318 0
M  V30 20603 H 1941.77 2.55068 0.193426 0
M  V30 20604 H 1941.42 5.03635 0.656841 0
M  V30 20605 H 1941.35 4.68617 2.4022 0
M  V30 20606 H 1943.84 3.52777 1.35487 0
M  V30 20607 H 1944.15 7.41477 2.17789 0
M  V30 20608 H 1942.5 6.66634 1.9653 0
M  V30 20609 H 1945.69 4.39931 1.59933 0
M  V30 20610 H 1945.86 6.17174 1.97486 0
M  V30 20611 N 1939.27 -0.683564 1.42004 0
M  V30 20612 C 1940.49 -1.47711 1.45589 0
M  V30 20613 C 1940.92 -1.87984 0.0661307 0
M  V30 20614 O 1940.28 -1.55425 -0.933428 0
M  V30 20615 C 1940.32 -2.70824 2.3809 0
M  V30 20616 O 1939.43 -3.68766 1.84622 0
M  V30 20617 H 1938.77 -0.444102 0.493629 0
M  V30 20618 H 1941.3 -0.839192 1.86598 0
M  V30 20619 H 1941.31 -3.18996 2.54373 0
M  V30 20620 H 1939.98 -2.4085 3.39063 0
M  V30 20621 H 1938.56 -3.27756 1.77849 0
M  V30 20622 N 1940.75 -1.28031 -0.919012 0
M  V30 20623 C 1941.99 -1.14651 -1.66432 0
M  V30 20624 C 1942.31 0.306395 -1.92578 0
M  V30 20625 O 1941.58 1.2131 -1.5382 0
M  V30 20626 H 1940.16 -0.421307 -0.616854 0
M  V30 20627 H 1942.83 -1.60684 -1.10302 0
M  V30 20628 H 1941.92 -1.68214 -2.62888 0
M  V30 20629 N 1942.22 1.12672 -1.10194 0
M  V30 20630 C 1943.47 1.83763 -0.841168 0
M  V30 20631 C 1943.79 1.84369 0.635061 0
M  V30 20632 O 1943.06 1.30504 1.46101 0
M  V30 20633 H 1941.64 0.680461 -0.308192 0
M  V30 20634 H 1944.3 1.36447 -1.3917 0
M  V30 20635 H 1943.4 2.88034 -1.20178 0
M  V30 20636 N 1943.7 0.89031 1.30043 0
M  V30 20637 C 1944.93 0.525833 2.00623 0
M  V30 20638 C 1945.35 -0.87971 1.66261 0
M  V30 20639 O 1944.71 -1.58394 0.882105 0
M  V30 20640 C 1944.76 0.714046 3.5346 0
M  V30 20641 O 1943.86 -0.237685 4.11714 0
M  V30 20642 H 1943.2 0.20656 0.631054 0
M  V30 20643 H 1945.73 1.19932 1.65763 0
M  V30 20644 H 1945.74 0.615086 4.03337 0
M  V30 20645 H 1944.42 1.73881 3.77807 0
M  V30 20646 H 1942.99 -0.0919722 3.72787 0
M  V30 20647 N 1945.18 -1.43489 0.651812 0
M  V30 20648 C 1946.4 -2.06696 0.170683 0
M  V30 20649 C 1946.83 -1.48527 -1.15418 0
M  V30 20650 O 1946.19 -0.594665 -1.7127 0
M  V30 20651 C 1946.24 -3.60484 0.0915457 0
M  V30 20652 O 1945.34 -4.01388 -0.946644 0
M  V30 20653 H 1944.68 -0.65728 0.0942276 0
M  V30 20654 H 1947.21 -1.84018 0.89434 0
M  V30 20655 H 1947.22 -4.07896 -0.0922419 0
M  V30 20656 H 1945.9 -4.02199 1.0587 0
M  V30 20657 H 1944.47 -3.65569 -0.735758 0
M  V30 20658 N 1946.66 -0.393643 -1.52605 0
M  V30 20659 C 1947.59 0.474548 -2.24234 0
M  V30 20660 C 1948.6 1.02311 -1.26634 0
M  V30 20661 O 1949.79 0.924695 -1.52681 0
M  V30 20662 C 1946.89 1.67083 -2.9485 0
M  V30 20663 C 1946.06 1.24889 -4.19192 0
M  V30 20664 C 1945.12 2.31034 -4.72768 0
M  V30 20665 O 1944.15 1.92263 -5.35746 0
M  V30 20666 N 1945.35 3.63004 -4.52999 0
M  V30 20667 H 1948.12 -0.139149 -2.99377 0
M  V30 20668 H 1945.68 -0.220221 -1.60395 0
M  V30 20669 H 1947.67 2.37626 -3.27591 0
M  V30 20670 H 1946.24 2.19078 -2.22988 0
M  V30 20671 H 1945.46 0.372176 -3.92439 0
M  V30 20672 H 1946.75 0.94369 -4.99972 0
M  V30 20673 H 1946.15 3.97263 -4.02739 0
M  V30 20674 H 1944.7 4.29568 -4.90219 0
M  V30 20675 N 1948.14 1.57115 -0.123593 0
M  V30 20676 C 1949.38 1.95641 0.534082 0
M  V30 20677 C 1949.71 1.00726 1.66036 0
M  V30 20678 O 1948.99 0.045312 1.94447 0
M  V30 20679 C 1949.27 3.4407 1.06244 0
M  V30 20680 C 1949.13 4.49759 -0.0607321 0
M  V30 20681 C 1950.44 3.94451 1.95183 0
M  V30 20682 H 1947.56 0.71137 0.19267 0
M  V30 20683 H 1950.21 1.88944 -0.200083 0
M  V30 20684 H 1948.36 3.49909 1.68808 0
M  V30 20685 H 1950.03 4.56016 -0.69621 0
M  V30 20686 H 1948.27 4.27729 -0.723232 0
M  V30 20687 H 1948.94 5.50888 0.350271 0
M  V30 20688 H 1951.42 3.90945 1.42483 0
M  V30 20689 H 1950.29 4.98817 2.29069 0
M  V30 20690 H 1950.55 3.35417 2.88007 0
M  V30 20691 N 1949.61 -0.150187 1.56883 0
M  V30 20692 C 1950.84 -0.877076 1.87059 0
M  V30 20693 C 1951.25 -1.75396 0.709427 0
M  V30 20694 O 1950.59 -1.80711 -0.330043 0
M  V30 20695 C 1950.66 -1.78766 3.11902 0
M  V30 20696 C 1950.32 -1.08826 4.43853 0
M  V30 20697 C 1951.32 -0.443669 5.18003 0
M  V30 20698 C 1949 -1.07872 4.9058 0
M  V30 20699 C 1951 0.201122 6.37083 0
M  V30 20700 C 1948.68 -0.430111 6.09584 0
M  V30 20701 C 1949.68 0.208684 6.82681 0
M  V30 20702 O 1949.37 0.847012 7.99425 0
M  V30 20703 H 1949.1 -0.259157 0.62435 0
M  V30 20704 H 1951.66 -0.148664 2.04861 0
M  V30 20705 H 1949.89 -2.55693 2.901 0
M  V30 20706 H 1951.57 -2.38622 3.28351 0
M  V30 20707 H 1952.34 -0.442872 4.82974 0
M  V30 20708 H 1948.22 -1.56534 4.33611 0
M  V30 20709 H 1951.76 0.700316 6.94076 0
M  V30 20710 H 1947.66 -0.428563 6.44076 0
M  V30 20711 H 1948.43 0.748362 8.15072 0
M  V30 20712 N 1951.09 -1.51916 -0.419434 0
M  V30 20713 C 1952.34 -1.65468 -1.16732 0
M  V30 20714 C 1952.67 -0.379569 -1.9076 0
M  V30 20715 O 1951.92 0.637093 -1.8504 0
M  V30 20716 C 1952.22 -2.82039 -2.19519 0
M  V30 20717 C 1951.89 -4.20649 -1.62373 0
M  V30 20718 C 1950.55 -4.58353 -1.46512 0
M  V30 20719 C 1952.9 -5.0707 -1.20539 0
M  V30 20720 C 1950.23 -5.80166 -0.873185 0
M  V30 20721 C 1952.58 -6.29478 -0.627675 0
M  V30 20722 C 1951.25 -6.6594 -0.456114 0
M  V30 20723 H 1950.52 -0.605492 -0.427154 0
M  V30 20724 H 1953.16 -1.85994 -0.455916 0
M  V30 20725 H 1951.47 -2.55808 -2.96765 0
M  V30 20726 H 1953.16 -2.89722 -2.7724 0
M  V30 20727 H 1949.75 -3.90932 -1.75699 0
M  V30 20728 H 1953.94 -4.78533 -1.31606 0
M  V30 20729 H 1949.19 -6.07048 -0.728187 0
M  V30 20730 H 1953.37 -6.95775 -0.29508 0
M  V30 20731 H 1951 -7.602 0.00467585 0
M  V30 20732 N 1952.57 0.676023 -1.42365 0
M  V30 20733 C 1953.5 1.80071 -1.40178 0
M  V30 20734 C 1954.48 1.60406 -0.266221 0
M  V30 20735 O 1955.67 1.82895 -0.456245 0
M  V30 20736 C 1952.79 3.17052 -1.19147 0
M  V30 20737 C 1951.84 3.55468 -2.35679 0
M  V30 20738 S 1952.67 3.58037 -3.98208 0
M  V30 20739 C 1953.83 4.97712 -3.79517 0
M  V30 20740 H 1954.06 1.81652 -2.35351 0
M  V30 20741 H 1951.59 0.846573 -1.29122 0
M  V30 20742 H 1953.55 3.9612 -1.07699 0
M  V30 20743 H 1952.21 3.13058 -0.255607 0
M  V30 20744 H 1951.41 4.55031 -2.16709 0
M  V30 20745 H 1951.01 2.83757 -2.43635 0
M  V30 20746 H 1953.3 5.85758 -3.40432 0
M  V30 20747 H 1954.24 5.2173 -4.78752 0
M  V30 20748 H 1954.65 4.70172 -3.12407 0
M  V30 20749 N 1954.05 1.28517 0.912209 0
M  V30 20750 C 1955.28 1.18615 1.69523 0
M  V30 20751 C 1955.69 -0.254997 1.8707 0
M  V30 20752 O 1955.05 -1.17217 1.3988 0
M  V30 20753 C 1955.1 1.88188 3.08655 0
M  V30 20754 O 1954.82 3.26673 2.91918 0
M  V30 20755 C 1956.32 1.84607 4.03032 0
M  V30 20756 H 1953.54 0.411679 0.529869 0
M  V30 20757 H 1956.09 1.69668 1.14162 0
M  V30 20758 H 1954.24 1.41001 3.60829 0
M  V30 20759 H 1954.65 3.61538 3.79987 0
M  V30 20760 H 1956.13 2.37874 4.98116 0
M  V30 20761 H 1956.61 0.818787 4.315 0
M  V30 20762 H 1957.21 2.3148 3.56787 0
M  V30 20763 N 1955.53 -1.12086 1.1079 0
M  V30 20764 C 1956.46 -2.2001 0.78217 0
M  V30 20765 C 1957.44 -1.68305 -0.246488 0
M  V30 20766 O 1958.62 -1.9388 -0.111448 0
M  V30 20767 C 1955.75 -3.4662 0.2172 0
M  V30 20768 C 1954.71 -4.11499 1.17696 0
M  V30 20769 C 1954.03 -5.32604 0.47302 0
M  V30 20770 C 1955.33 -4.5721 2.52501 0
M  V30 20771 H 1957.03 -2.47514 1.68456 0
M  V30 20772 H 1954.57 -1.18964 0.811397 0
M  V30 20773 H 1956.53 -4.21394 -0.0228381 0
M  V30 20774 H 1955.25 -3.18555 -0.720448 0
M  V30 20775 H 1953.91 -3.38711 1.40252 0
M  V30 20776 H 1953.56 -5.00807 -0.469217 0
M  V30 20777 H 1953.26 -5.76961 1.11308 0
M  V30 20778 H 1954.78 -6.10122 0.241615 0
M  V30 20779 H 1956.19 -5.23338 2.34073 0
M  V30 20780 H 1954.59 -5.12357 3.12426 0
M  V30 20781 H 1955.66 -3.71003 3.12226 0
M  V30 20782 N 1957 -0.897194 -1.29569 0
M  V30 20783 C 1957.95 -0.362849 -2.29752 0
M  V30 20784 C 1958.95 0.536674 -1.60674 0
M  V30 20785 O 1960.15 0.419753 -1.75037 0
M  V30 20786 H 1956.53 -0.0987052 -0.745494 0
M  V30 20787 H 1958.5 -1.22122 -2.72266 0
M  V30 20788 C 1957.25 0.396775 -3.45429 0
M  V30 20789 H 1956.57 -0.286159 -3.98775 0
M  V30 20790 H 1958.01 0.73556 -4.17571 0
M  V30 20791 C 1956.47 1.59849 -2.96563 0
M  V30 20792 O 1957 2.69781 -2.97626 0
M  V30 20793 N 1955.21 1.4398 -2.52424 0
M  V30 20794 H 1954.75 0.545463 -2.51759 0
M  V30 20795 H 1954.71 2.24519 -2.20088 0
M  V30 20796 N 1958.48 1.43142 -0.659413 0
M  V30 20797 C 1959.9 1.56203 -0.327538 0
M  V30 20798 C 1960.1 1.64194 1.16801 0
M  V30 20799 O 1959.15 1.60041 1.95303 0
M  V30 20800 C 1960.47 2.81982 -1.04434 0
M  V30 20801 C 1962.02 2.95735 -1.02518 0
M  V30 20802 C 1962.49 4.24354 -1.723 0
M  V30 20803 N 1963.98 4.31232 -1.69094 0
M  V30 20804 C 1964.72 5.29534 -2.19957 0
M  V30 20805 N 1964.21 6.34078 -2.79135 0
M  V30 20806 N 1966.01 5.21229 -2.10421 0
M  V30 20807 H 1958.16 1.36198 -1.62984 0
M  V30 20808 H 1960.42 0.654541 -0.685769 0
M  V30 20809 H 1960.13 2.82162 -2.09947 0
M  V30 20810 H 1960 3.72401 -0.599805 0
M  V30 20811 H 1962.39 2.95092 0.0215626 0
M  V30 20812 H 1962.47 2.06589 -1.50846 0
M  V30 20813 H 1962.11 4.25758 -2.76935 0
M  V30 20814 H 1962.04 5.12408 -1.21433 0
M  V30 20815 H 1964.53 3.56306 -1.25915 0
M  V30 20816 H 1964.85 7.05417 -3.15606 0
M  V30 20817 H 1963.19 6.34684 -2.83199 0
M  V30 20818 H 1966.38 4.38473 -1.63888 0
M  V30 20819 H 1966.55 5.97679 -2.50368 0
M  V30 20820 N 1959.96 0.40173 1.52394 0
M  V30 20821 C 1960.91 -0.442142 2.28359 0
M  V30 20822 C 1961.9 -1.05228 1.32753 0
M  V30 20823 O 1963.11 -0.991332 1.50242 0
M  V30 20824 H 1959.48 -0.161356 0.734485 0
M  V30 20825 H 1961.45 0.219869 2.97589 0
M  V30 20826 C 1960.2 -1.55062 3.11209 0
M  V30 20827 H 1959.53 -1.09046 3.84642 0
M  V30 20828 H 1960.97 -2.11505 3.6748 0
M  V30 20829 C 1959.43 -2.51376 2.24303 0
M  V30 20830 O 1959.96 -3.55084 1.87825 0
M  V30 20831 N 1958.16 -2.2141 1.88218 0
M  V30 20832 H 1957.71 -1.37106 2.18082 0
M  V30 20833 H 1957.67 -2.861 1.30362 0
M  V30 20834 N 1961.44 -1.57047 0.131923 0
M  V30 20835 C 1962.68 -1.9752 -0.525856 0
M  V30 20836 C 1963.04 -1.01434 -1.63019 0
M  V30 20837 O 1964.24 -1.30894 -2.34777 0
M  V30 20838 C 1962.51 -3.42148 -1.03293 0
M  V30 20839 S 1964.07 -4.04639 -1.69742 0
M  V30 20840 H 1960.89 -0.690249 -0.170522 0
M  V30 20841 H 1963.49 -1.94257 0.220068 0
M  V30 20842 H 1962.2 -4.09819 -0.218206 0
M  V30 20843 H 1961.73 -3.4909 -1.81383 0
M  V30 20844 H 1963.74 -3.96455 -2.98392 0
M  V30 20845 N 1962.92 0.141865 -1.5696 0
M  V30 20846 C 1964.17 0.852066 -1.82819 0
M  V30 20847 C 1964.48 1.82103 -0.713987 0
M  V30 20848 O 1965.68 2.57575 -0.858321 0
M  V30 20849 C 1964.14 1.56589 -3.24049 0
M  V30 20850 C 1963.75 0.639071 -4.43418 0
M  V30 20851 C 1965.49 2.26257 -3.59177 0
M  V30 20852 C 1963.4 1.35481 -5.75673 0
M  V30 20853 H 1962.33 0.321934 -0.681817 0
M  V30 20854 H 1964.98 0.104791 -1.83201 0
M  V30 20855 H 1963.36 2.35898 -3.1807 0
M  V30 20856 H 1964.54 -0.119159 -4.60646 0
M  V30 20857 H 1962.85 0.0505413 -4.16369 0
M  V30 20858 H 1965.45 2.80455 -4.55246 0
M  V30 20859 H 1965.79 3.02992 -2.85485 0
M  V30 20860 H 1966.32 1.53861 -3.6684 0
M  V30 20861 H 1963.06 0.629214 -6.52473 0
M  V30 20862 H 1962.58 2.08562 -5.62372 0
M  V30 20863 H 1964.26 1.89432 -6.18647 0
M  V30 20864 N 1964.39 1.52136 0.411372 0
M  V30 20865 C 1965.33 1.70036 1.52194 0
M  V30 20866 C 1966.31 0.547941 1.53089 0
M  V30 20867 O 1967.49 0.775017 1.71831 0
M  V30 20868 C 1964.62 1.73764 2.9073 0
M  V30 20869 C 1963.66 2.95279 3.07754 0
M  V30 20870 S 1964.5 4.55662 2.81305 0
M  V30 20871 C 1965.65 4.62173 4.22075 0
M  V30 20872 H 1965.88 2.63966 1.36781 0
M  V30 20873 H 1963.42 1.42147 0.6028 0
M  V30 20874 H 1965.38 1.76597 3.70572 0
M  V30 20875 H 1964.04 0.809659 3.03485 0
M  V30 20876 H 1963.23 2.94363 4.09104 0
M  V30 20877 H 1962.83 2.90322 2.35773 0
M  V30 20878 H 1965.12 4.39412 5.15678 0
M  V30 20879 H 1966.07 5.641 4.28015 0
M  V30 20880 H 1966.47 3.91228 4.06941 0
M  V30 20881 N 1965.87 -0.668464 1.42721 0
M  V30 20882 C 1966.82 -1.80311 1.46938 0
M  V30 20883 C 1967.82 -1.65861 0.344463 0
M  V30 20884 O 1969.02 -1.72392 0.517768 0
M  V30 20885 H 1965.4 -0.59464 0.460333 0
M  V30 20886 H 1967.37 -1.73872 2.4251 0
M  V30 20887 C 1966.12 -3.18498 1.3948 0
M  V30 20888 H 1965.44 -3.30246 2.25338 0
M  V30 20889 H 1966.88 -3.9789 1.46492 0
M  V30 20890 C 1965.34 -3.36719 0.110386 0
M  V30 20891 O 1965.87 -3.92939 -0.834354 0
M  V30 20892 N 1964.07 -2.90589 0.0254882 0
M  V30 20893 H 1963.62 -2.45023 0.795077 0
M  V30 20894 H 1963.58 -3.03158 -0.833236 0
M  V30 20895 N 1967.35 -1.28999 -0.905381 0
M  V30 20896 C 1968.6 -1.17823 -1.65799 0
M  V30 20897 C 1968.95 0.26881 -1.90513 0
M  V30 20898 O 1968.25 1.19157 -1.50041 0
M  V30 20899 C 1968.44 -1.91909 -3.01506 0
M  V30 20900 C 1968.27 -3.43669 -2.90038 0
M  V30 20901 C 1967.04 -4.13016 -2.91111 0
M  V30 20902 C 1969.24 -4.39266 -2.67488 0
M  V30 20903 N 1967.22 -5.51181 -2.7032 0
M  V30 20904 C 1968.59 -5.64852 -2.55621 0
M  V30 20905 C 1970.64 -4.29095 -2.5255 0
M  V30 20906 C 1969.35 -6.81422 -2.30339 0
M  V30 20907 C 1971.37 -5.45411 -2.2865 0
M  V30 20908 C 1970.74 -6.69966 -2.17544 0
M  V30 20909 H 1966.83 -0.486118 -0.612547 0
M  V30 20910 H 1969.42 -1.62756 -1.06858 0
M  V30 20911 H 1967.59 -1.49398 -3.58518 0
M  V30 20912 H 1969.32 -1.73046 -3.65837 0
M  V30 20913 H 1966.08 -3.64668 -3.02183 0
M  V30 20914 H 1966.5 -6.2383 -2.62993 0
M  V30 20915 H 1971.14 -3.33498 -2.59883 0
M  V30 20916 H 1968.86 -7.77081 -2.21745 0
M  V30 20917 H 1972.45 -5.39436 -2.17944 0
M  V30 20918 H 1971.33 -7.58451 -1.99305 0
M  V30 20919 O 1968.87 1.04062 -1.23504 0
M  V30 20920 H 1969.56 1.65475 -1.00686 0
M  V30 END ATOM
M  V30 BEGIN BOND
M  V30 END BOND
M  V30 END CTAB
M  END
$$$$
