drugbank_target|P21912 Succinate dehydrogenase [ubiquinone] iron-sulfur subunit, mitochondrial (DB04141; DB08689)
 OpenBabel12092120083D

  0  0  0     0  0            999 V3000
M  V30 BEGIN CTAB
M  V30 COUNTS 4442 4485 0 0 0
M  V30 BEGIN ATOM
M  V30 1 H -0.908 1.98254 -0.117106 0
M  V30 2 N 0 1.576 0 0
M  V30 3 C 0.933 2.03868 1.02534 0
M  V30 4 C 1.911 0.928543 1.3348 0
M  V30 5 O 3.095 1.19667 1.45644 0
M  V30 6 C 0.222 2.43627 2.35294 0
M  V30 7 C -0.732 3.65373 2.2001 0
M  V30 8 S 0.101 5.13292 1.52614 0
M  V30 9 C 1.257 5.56322 2.86805 0
M  V30 10 H 1.49 2.90518 0.631377 0
M  V30 11 H -0.977 1.52953 0.210867 0
M  V30 12 H 0.981 2.67203 3.11629 0
M  V30 13 H -0.358 1.57376 2.7183 0
M  V30 14 H -1.165 3.90944 3.18086 0
M  V30 15 H -1.563 3.418 1.51819 0
M  V30 16 H 0.729 5.58782 3.83104 0
M  V30 17 H 1.672 6.56266 2.65933 0
M  V30 18 H 2.08 4.83886 2.90714 0
M  V30 19 N 1.4781 -0.272755 1.55222 0
M  V30 20 C 2.4411 -1.32041 1.87344 0
M  V30 21 C 3.4411 -1.42342 0.74803 0
M  V30 22 O 4.6311 -1.41488 1.0162 0
M  V30 23 C 1.7631 -2.70173 2.07893 0
M  V30 24 H 2.9561 -1.04789 2.80997 0
M  V30 25 H 0.5091 -0.51083 1.47717 0
M  V30 26 H 1.2441 -3.02605 1.16622 0
M  V30 27 H 1.0291 -2.64082 2.89833 0
M  V30 28 H 2.5191 -3.45869 2.34017 0
M  V30 29 N 2.9562 -1.48159 -0.537278 0
M  V30 30 C 3.9192 -1.61665 -1.62472 0
M  V30 31 C 4.9192 -0.490395 -1.5314 0
M  V30 32 O 6.1092 -0.755998 -1.5694 0
M  V30 33 C 3.2412 -1.57997 -3.02076 0
M  V30 34 H 4.4342 -2.58621 -1.51839 0
M  V30 35 H 1.9872 -1.36647 -0.758771 0
M  V30 36 H 2.7222 -0.624913 -3.18222 0
M  V30 37 H 2.5072 -2.39755 -3.10258 0
M  V30 38 H 3.9972 -1.70627 -3.81151 0
M  V30 39 N 4.4343 0.785586 -1.36625 0
M  V30 40 C 5.6803 1.54591 -1.31261 0
M  V30 41 C 6.0133 1.93906 0.106823 0
M  V30 42 O 5.2883 1.63007 1.06108 0
M  V30 43 C 5.5713 2.82038 -2.23889 0
M  V30 44 C 5.4243 2.49066 -3.74548 0
M  V30 45 C 6.7433 3.83887 -2.15217 0
M  V30 46 H 3.8623 0.560846 -0.478143 0
M  V30 47 H 6.5043 0.902278 -1.67209 0
M  V30 48 H 4.6543 3.36961 -1.93363 0
M  V30 49 H 6.3263 2.00164 -4.15611 0
M  V30 50 H 4.5693 1.81954 -3.93796 0
M  V30 51 H 5.2403 3.40109 -4.34776 0
M  V30 52 H 7.7163 3.38421 -2.42096 0
M  V30 53 H 6.5923 4.70806 -2.82193 0
M  V30 54 H 6.8533 4.27131 -1.14068 0
M  V30 55 N 5.9124 1.20967 1.01018 0
M  V30 56 C 7.1584 1.02526 1.74975 0
M  V30 57 C 7.4914 -0.4408 1.89131 0
M  V30 58 O 6.7664 -1.32718 1.42184 0
M  V30 59 C 7.0494 1.71699 3.1653 0
M  V30 60 C 6.9024 3.25791 3.10129 0
M  V30 61 C 8.2214 1.45531 4.15342 0
M  V30 62 H 5.3404 0.373863 0.635134 0
M  V30 63 H 7.9824 1.49071 1.17805 0
M  V30 64 H 6.1324 1.32128 3.65341 0
M  V30 65 H 7.8044 3.74697 2.69072 0
M  V30 66 H 6.0474 3.56363 2.47362 0
M  V30 67 H 6.7184 3.69353 4.10222 0
M  V30 68 H 9.1944 1.79872 3.75213 0
M  V30 69 H 8.0704 1.96453 5.1254 0
M  V30 70 H 8.3314 0.384237 4.40427 0
M  V30 71 N 7.3905 -1.2043 1.01659 0
M  V30 72 C 8.3535 -2.21433 0.591616 0
M  V30 73 C 9.3535 -1.57203 -0.338226 0
M  V30 74 O 10.5435 -1.73737 -0.126918 0
M  V30 75 C 7.6755 -3.40628 -0.136058 0
M  V30 76 H 8.8685 -2.60545 1.48514 0
M  V30 77 H 6.4215 -1.33893 0.806379 0
M  V30 78 H 7.1565 -3.07019 -1.04449 0
M  V30 79 H 6.9415 -3.88475 0.531917 0
M  V30 80 H 8.4315 -4.15475 -0.420735 0
M  V30 81 N 8.8686 -0.792821 -1.36206 0
M  V30 82 C 9.7986 -0.207853 -2.32573 0
M  V30 83 C 10.7796 0.659055 -1.56813 0
M  V30 84 O 11.9646 0.592176 -1.84951 0
M  V30 85 C 9.0946 0.655449 -3.41059 0
M  V30 86 C 8.0486 -0.111842 -4.27854 0
M  V30 87 C 7.3746 0.872274 -5.27537 0
M  V30 88 C 8.6746 -1.30299 -5.05786 0
M  V30 89 H 10.3686 -1.01294 -2.81744 0
M  V30 90 H 7.9146 -0.48854 -1.3546 0
M  V30 91 H 9.8676 1.07464 -4.07467 0
M  V30 92 H 8.5916 1.49328 -2.90463 0
M  V30 93 H 7.2506 -0.512053 -3.63006 0
M  V30 94 H 6.8986 1.70523 -4.73214 0
M  V30 95 H 6.5986 0.363291 -5.86476 0
M  V30 96 H 8.1226 1.28996 -5.96818 0
M  V30 97 H 9.5366 -0.959379 -5.65216 0
M  V30 98 H 7.9336 -1.7455 -5.74154 0
M  V30 99 H 9.0036 -2.09663 -4.37229 0
M  V30 100 N 10.3467 1.47872 -0.545128 0
M  V30 101 C 11.5717 2.07391 -0.0190611 0
M  V30 102 C 11.9967 1.39688 1.25971 0
M  V30 103 O 11.3547 0.467816 1.7516 0
M  V30 104 C 11.4027 3.60188 0.172335 0
M  V30 105 O 10.5067 3.9339 1.23766 0
M  V30 106 H 9.8477 0.662411 -0.0459059 0
M  V30 107 H 12.3777 1.90066 -0.757365 0
M  V30 108 H 12.3877 4.06129 0.390305 0
M  V30 109 H 11.0627 4.08865 -0.761725 0
M  V30 110 H 9.6397 3.5921 1.00114 0
M  V30 111 N 11.8248 0.280983 1.55075 0
M  V30 112 C 12.7548 -0.597469 2.25727 0
M  V30 113 C 13.7358 -1.15417 1.24952 0
M  V30 114 O 14.9208 -1.18722 1.53684 0
M  V30 115 C 12.0508 -1.7789 2.98283 0
M  V30 116 C 11.0048 -1.35347 4.06036 0
M  V30 117 C 10.3308 -2.61846 4.66198 0
M  V30 118 C 11.6308 -0.499354 5.19907 0
M  V30 119 H 13.3248 -0.00824265 2.99399 0
M  V30 120 H 10.8708 -0.0025244 1.44 0
M  V30 121 H 12.8238 -2.39937 3.46422 0
M  V30 122 H 11.5478 -2.39405 2.22155 0
M  V30 123 H 10.2068 -0.756156 3.58717 0
M  V30 124 H 9.8548 -3.21632 3.86732 0
M  V30 125 H 9.5548 -2.3409 5.38958 0
M  V30 126 H 11.0788 -3.24732 5.1709 0
M  V30 127 H 12.4928 -1.02498 5.64063 0
M  V30 128 H 10.8898 -0.316424 5.99265 0
M  V30 129 H 11.9598 0.480459 4.82514 0
M  V30 130 N 13.3029 -1.57598 0.00835791 0
M  V30 131 C 14.7189 -1.55764 -0.347822 0
M  V30 132 C 14.9189 -1.01186 -1.74252 0
M  V30 133 O 13.9749 -0.649371 -2.44007 0
M  V30 134 C 15.2879 -2.99927 -0.215407 0
M  V30 135 C 16.8359 -3.11656 -0.289725 0
M  V30 136 C 17.3109 -4.57621 -0.18634 0
M  V30 137 N 18.8019 -4.62557 -0.243978 0
M  V30 138 C 19.5369 -5.73094 -0.18745 0
M  V30 139 N 19.0329 -6.92753 -0.0810331 0
M  V30 140 N 20.8259 -5.61588 -0.239925 0
M  V30 141 H 12.9769 -1.91411 0.92062 0
M  V30 142 H 15.2399 -0.879562 0.353659 0
M  V30 143 H 14.9459 -3.43729 0.744512 0
M  V30 144 H 14.8199 -3.63865 -0.994097 0
M  V30 145 H 17.2069 -2.67779 -1.24009 0
M  V30 146 H 17.2879 -2.5048 0.51898 0
M  V30 147 H 16.9319 -5.02174 0.760519 0
M  V30 148 H 16.8619 -5.16752 -1.01364 0
M  V30 149 H 19.3529 -3.76481 -0.327217 0
M  V30 150 H 19.6659 -7.72787 -0.0440241 0
M  V30 151 H 18.0109 -6.94984 -0.0465419 0
M  V30 152 H 21.2019 -4.66996 -0.321317 0
M  V30 153 H 21.3749 -6.47714 -0.192407 0
M  V30 154 N 14.781 0.264519 -1.55364 0
M  V30 155 C 16.197 0.61215 -1.47394 0
M  V30 156 C 16.397 1.89134 -0.695018 0
M  V30 157 O 15.453 2.51563 -0.217275 0
M  V30 158 C 16.766 0.731235 -2.91674 0
M  V30 159 C 18.314 0.82473 -3.01939 0
M  V30 160 C 18.789 0.975522 -4.4749 0
M  V30 161 N 20.28 1.04083 -4.51354 0
M  V30 162 C 21.015 1.17646 -5.61201 0
M  V30 163 N 20.511 1.27874 -6.80896 0
M  V30 164 N 22.304 1.20823 -5.48961 0
M  V30 165 H 14.455 -0.575456 -2.04456 0
M  V30 166 H 16.718 -0.196099 -0.927496 0
M  V30 167 H 16.424 -0.138392 -3.51428 0
M  V30 168 H 16.298 1.60883 -3.41169 0
M  V30 169 H 18.685 1.68482 -2.42276 0
M  V30 170 H 18.766 -0.0776479 -2.55682 0
M  V30 171 H 18.41 0.120058 -5.07758 0
M  V30 172 H 18.34 1.89268 -4.91412 0
M  V30 173 H 20.831 0.973846 -3.65136 0
M  V30 174 H 21.144 1.38081 -7.60364 0
M  V30 175 H 19.489 1.24863 -6.83692 0
M  V30 176 H 22.68 1.12469 -4.54388 0
M  V30 177 H 22.853 1.31049 -6.3461 0
M  V30 178 N 16.2591 1.48442 0.529413 0
M  V30 179 C 17.6751 1.34575 0.858004 0
M  V30 180 C 17.8751 0.3572 1.98309 0
M  V30 181 O 16.9311 -0.221379 2.51528 0
M  V30 182 C 18.2441 2.74617 1.22499 0
M  V30 183 C 19.7921 2.83109 1.33484 0
M  V30 184 C 20.2671 4.23854 1.73526 0
M  V30 185 N 21.7581 4.2653 1.80628 0
M  V30 186 C 22.4931 5.32372 2.12997 0
M  V30 187 N 21.9891 6.48491 2.43786 0
M  V30 188 N 23.7821 5.19766 2.14008 0
M  V30 189 H 15.9331 2.1133 -0.212925 0
M  V30 190 H 18.1961 0.947439 -0.0326199 0
M  V30 191 H 17.9021 3.4852 0.471905 0
M  V30 192 H 17.7761 3.08177 2.17501 0
M  V30 193 H 20.1631 2.09462 2.0787 0
M  V30 194 H 20.2441 2.53168 0.366027 0
M  V30 195 H 19.8881 4.98018 0.997013 0
M  V30 196 H 19.8181 4.5124 2.71459 0
M  V30 197 H 22.3091 3.42772 1.59108 0
M  V30 198 H 22.6221 7.24993 2.67592 0
M  V30 199 H 20.9671 6.51765 2.41304 0
M  V30 200 H 24.1581 4.28066 1.89412 0
M  V30 201 H 24.3311 6.02354 2.38902 0
M  V30 202 N 17.7372 -0.778329 1.37039 0
M  V30 203 C 18.6672 -1.90546 1.34962 0
M  V30 204 C 19.6482 -1.68681 0.219274 0
M  V30 205 O 20.8332 -1.89634 0.418624 0
M  V30 206 C 17.9632 -3.27734 1.14925 0
M  V30 207 C 16.9172 -3.64147 2.24902 0
M  V30 208 C 16.2432 -4.99806 1.89996 0
M  V30 209 C 17.5432 -3.71579 3.67051 0
M  V30 210 H 19.2372 -1.92541 2.29277 0
M  V30 211 H 16.7832 -0.924948 1.10366 0
M  V30 212 H 18.7362 -4.06215 1.12104 0
M  V30 213 H 17.4602 -3.26154 0.170631 0
M  V30 214 H 16.1192 -2.8797 2.26868 0
M  V30 215 H 15.7672 -4.94759 0.906796 0
M  V30 216 H 15.4672 -5.25139 2.63634 0
M  V30 217 H 16.9912 -5.80694 1.88749 0
M  V30 218 H 18.4052 -4.40227 3.67251 0
M  V30 219 H 16.8022 -4.08405 4.39688 0
M  V30 220 H 17.8722 -2.72404 4.01154 0
M  V30 221 N 19.2153 -1.21501 -1.00376 0
M  V30 222 C 20.6263 -1.03146 -1.55621 0
M  V30 223 C 20.9773 0.408375 -1.91903 0
M  V30 224 O 20.1023 1.29177 -1.73616 0
M  V30 225 C 20.6973 -1.86612 -2.82775 0
M  V30 226 C 19.2563 -1.72586 -3.34501 0
M  V30 227 C 18.4033 -1.83747 -2.07683 0
M  V30 228 H 21.3543 -1.35505 -0.826081 0
M  V30 229 H 21.3753 -1.3771 -3.54706 0
M  V30 230 H 20.8873 -2.91399 -2.56336 0
M  V30 231 H 18.9883 -0.704877 -3.65872 0
M  V30 232 H 19.1013 -2.54623 -4.05837 0
M  V30 233 H 17.4653 -1.27069 -2.20739 0
M  V30 234 H 18.2483 -2.90044 -1.83655 0
M  V30 235 N 20.6934 1.19889 -1.02296 0
M  V30 236 C 21.6564 2.21116 -0.603351 0
M  V30 237 C 22.6564 1.5738 0.329884 0
M  V30 238 O 23.8464 1.73802 0.117702 0
M  V30 239 C 20.9784 3.40696 0.117992 0
M  V30 240 H 22.1714 2.59754 -1.49893 0
M  V30 241 H 19.7244 1.33463 -0.813468 0
M  V30 242 H 20.4594 3.07569 1.0282 0
M  V30 243 H 20.2444 3.88188 -0.552511 0
M  V30 244 H 21.7344 4.15692 0.398696 0
M  V30 245 N 22.1715 0.800033 1.35784 0
M  V30 246 C 23.3995 0.389606 2.03199 0
M  V30 247 C 23.8145 -0.997375 1.60306 0
M  V30 248 O 23.1715 -1.64154 0.797481 0
M  V30 249 C 23.2225 0.455855 3.58614 0
M  V30 250 O 22.9435 1.78815 3.99946 0
M  V30 251 C 24.4445 0.0374032 4.43284 0
M  V30 252 H 21.6645 0.159132 0.651857 0
M  V30 253 H 24.2085 1.08183 1.73541 0
M  V30 254 H 22.3635 -0.188057 3.86943 0
M  V30 255 H 22.7775 1.74636 4.94573 0
M  V30 256 H 24.2515 0.134882 5.51835 0
M  V30 257 H 24.7285 -1.01651 4.27275 0
M  V30 258 H 25.3345 0.654215 4.20238 0
M  V30 259 N 23.6496 -1.47581 0.552962 0
M  V30 260 C 24.8776 -2.06875 0.0320556 0
M  V30 261 C 25.2926 -1.40625 -1.25976 0
M  V30 262 O 24.6496 -0.501349 -1.75479 0
M  V30 263 C 24.7006 -3.61092 -0.17167 0
M  V30 264 O 24.4216 -4.24858 1.06899 0
M  V30 265 C 25.9226 -4.37242 -0.730344 0
M  V30 266 H 23.1426 -0.669561 0.043915 0
M  V30 267 H 25.6866 -1.89646 0.765163 0
M  V30 268 H 23.8416 -3.7785 -0.854894 0
M  V30 269 H 24.2556 -5.17334 0.864059 0
M  V30 270 H 25.7296 -5.45842 -0.822203 0
M  V30 271 H 26.2066 -4.03235 -1.74064 0
M  V30 272 H 26.8126 -4.25219 -0.0829543 0
M  V30 273 N 25.1277 -0.289203 -1.54924 0
M  V30 274 C 26.0577 0.58549 -2.2604 0
M  V30 275 C 27.0387 1.14753 -1.25562 0
M  V30 276 O 28.2237 1.17906 -1.54311 0
M  V30 277 C 25.3537 1.76305 -2.99222 0
M  V30 278 C 24.3077 1.33191 -4.06748 0
M  V30 279 C 23.6337 2.5937 -4.6758 0
M  V30 280 C 24.9337 0.471775 -5.20165 0
M  V30 281 H 26.6277 -0.00763532 -2.99399 0
M  V30 282 H 24.1737 -0.00511229 -1.43999 0
M  V30 283 H 26.1267 2.38097 -3.47689 0
M  V30 284 H 24.8507 2.38223 -2.23422 0
M  V30 285 H 23.5097 0.737121 -3.59113 0
M  V30 286 H 23.1577 3.19576 -3.88433 0
M  V30 287 H 22.8577 2.31228 -5.40192 0
M  V30 288 H 24.3817 3.21985 -5.18804 0
M  V30 289 H 25.7957 0.995056 -5.64599 0
M  V30 290 H 24.1927 0.284639 -5.99425 0
M  V30 291 H 25.2627 -0.506041 -4.82252 0
M  V30 292 N 26.6058 1.57591 -0.0167156 0
M  V30 293 C 27.8538 1.90906 0.663285 0
M  V30 294 C 28.1748 0.892509 1.73376 0
M  V30 295 O 27.4448 -0.0677623 1.95783 0
M  V30 296 H 26.0248 0.704637 0.247983 0
M  V30 297 H 28.6868 1.94803 -0.0615909 0
M  V30 298 H 27.7828 2.9116 1.12393 0
M  V30 299 N 28.0839 -0.256276 1.55502 0
M  V30 300 C 29.3319 -0.983672 1.76545 0
M  V30 301 C 29.6529 -1.86206 0.578982 0
M  V30 302 O 28.9229 -1.91656 -0.405577 0
M  V30 303 H 27.5029 -0.366191 0.651086 0
M  V30 304 H 30.1649 -0.276479 1.92929 0
M  V30 305 H 29.2609 -1.61087 2.67315 0
M  V30 306 N 29.562 -1.4872 -0.521534 0
M  V30 307 C 30.525 -1.63379 -1.60748 0
M  V30 308 C 31.525 -0.50661 -1.52611 0
M  V30 309 O 32.715 -0.772601 -1.5613 0
M  V30 310 C 29.847 -1.61192 -3.00383 0
M  V30 311 H 31.04 -2.60217 -1.49087 0
M  V30 312 H 28.593 -1.37444 -0.744235 0
M  V30 313 H 29.328 -0.65863 -3.17541 0
M  V30 314 H 29.113 -2.43032 -3.07698 0
M  V30 315 H 30.603 -1.7466 -3.7932 0
M  V30 316 N 31.0401 0.771051 -1.3745 0
M  V30 317 C 32.2801 1.54264 -1.34096 0
M  V30 318 C 32.6441 1.91858 0.0737639 0
M  V30 319 O 33.8451 2.67797 0.23203 0
M  V30 320 C 32.1161 2.77326 -2.25445 0
M  V30 321 S 33.6751 3.67383 -2.39948 0
M  V30 322 H 30.4931 0.528122 -0.476034 0
M  V30 323 H 33.0951 0.906633 -1.73206 0
M  V30 324 H 31.7991 2.47788 -3.27153 0
M  V30 325 H 31.3301 3.45886 -1.87421 0
M  V30 326 H 33.3451 4.69334 -1.61059 0
M  V30 327 N 32.5182 1.22032 0.997298 0
M  V30 328 C 33.4482 1.01065 2.10495 0
M  V30 329 C 34.4292 -0.0669542 1.69968 0
M  V30 330 O 35.6142 0.0943987 1.9397 0
M  V30 331 C 32.7442 0.582874 3.42374 0
M  V30 332 C 31.6982 1.60592 3.96729 0
M  V30 333 C 31.0242 1.03412 5.24605 0
M  V30 334 C 32.3242 2.99478 4.27914 0
M  V30 335 H 34.0182 1.93708 2.28292 0
M  V30 336 H 31.5642 0.932761 1.09707 0
M  V30 337 H 33.5172 0.423332 4.19268 0
M  V30 338 H 32.2412 -0.379213 3.24391 0
M  V30 339 H 30.9002 1.75316 3.21963 0
M  V30 340 H 30.5482 0.063518 5.0296 0
M  V30 341 H 30.2482 1.71754 5.61938 0
M  V30 342 H 31.7722 0.886066 6.04137 0
M  V30 343 H 33.1862 2.88153 4.95622 0
M  V30 344 H 31.5832 3.64903 4.76409 0
M  V30 345 H 32.6532 3.49742 3.3587 0
M  V30 346 N 33.9963 -1.19345 1.0293 0
M  V30 347 C 34.9283 -2.22036 0.56857 0
M  V30 348 C 35.9413 -1.58865 -0.355779 0
M  V30 349 O 37.1303 -1.77851 -0.152103 0
M  V30 350 C 34.2303 -3.38363 -0.190752 0
M  V30 351 C 33.4033 -4.31118 0.738643 0
M  V30 352 C 32.4623 -5.26194 0.0246497 0
M  V30 353 O 31.4883 -5.65461 0.651354 0
M  V30 354 N 32.6903 -5.66971 -1.24594 0
M  V30 355 H 35.4553 -2.6219 1.45177 0
M  V30 356 H 33.0163 -1.34015 0.908381 0
M  V30 357 H 35.0083 -3.98981 -0.677961 0
M  V30 358 H 33.5783 -2.96994 -0.975366 0
M  V30 359 H 32.7983 -3.68276 1.40593 0
M  V30 360 H 34.0863 -4.90001 1.37029 0
M  V30 361 H 33.4843 -5.37104 -1.77583 0
M  V30 362 H 32.0413 -6.2984 -1.67764 0
M  V30 363 N 35.4744 -0.807222 -1.35358 0
M  V30 364 C 36.4374 -0.223665 -2.28106 0
M  V30 365 C 37.4374 0.589354 -1.4961 0
M  V30 366 O 38.6274 0.407745 -1.69361 0
M  V30 367 C 35.7594 0.688149 -3.33882 0
M  V30 368 H 36.9524 -1.04169 -2.81227 0
M  V30 369 H 34.5054 -0.577921 -1.45223 0
M  V30 370 H 35.2404 1.52984 -2.85948 0
M  V30 371 H 35.0254 0.10687 -3.91954 0
M  V30 372 H 36.5154 1.09075 -4.03104 0
M  V30 373 N 36.9525 1.47285 -0.560781 0
M  V30 374 C 38.1775 2.07359 -0.0410566 0
M  V30 375 C 38.6025 1.41017 1.24483 0
M  V30 376 O 37.9605 0.486368 1.74654 0
M  V30 377 C 38.0085 3.6035 0.134123 0
M  V30 378 O 37.1125 3.94681 1.19587 0
M  V30 379 H 36.4535 0.661887 -0.0529291 0
M  V30 380 H 38.9835 1.89252 -0.777482 0
M  V30 381 H 38.9935 4.0652 0.347207 0
M  V30 382 H 37.6685 4.08034 -0.805047 0
M  V30 383 H 36.2455 3.60251 0.962987 0
M  V30 384 N 38.4306 0.297415 1.54768 0
M  V30 385 C 39.8466 -0.0560823 1.59501 0
M  V30 386 C 40.0466 -1.52725 1.31444 0
M  V30 387 O 39.1026 -2.27947 1.08611 0
M  V30 388 C 40.4156 0.338631 2.98787 0
M  V30 389 C 41.9636 0.287097 3.11681 0
M  V30 390 C 42.4386 0.656579 4.53269 0
M  V30 391 N 43.9296 0.608977 4.59179 0
M  V30 392 C 44.6646 0.867385 5.66802 0
M  V30 393 N 44.1606 1.19157 6.82476 0
M  V30 394 N 45.9536 0.794687 5.56454 0
M  V30 395 H 38.1046 1.25624 1.71267 0
M  V30 396 H 40.3676 0.509057 0.799728 0
M  V30 397 H 40.0736 1.36263 3.2423 0
M  V30 398 H 39.9476 -0.309508 3.75928 0
M  V30 399 H 42.3346 -0.727649 2.85988 0
M  V30 400 H 42.4156 0.969809 2.36703 0
M  V30 401 H 42.0596 1.66912 4.7969 0
M  V30 402 H 41.9896 -0.0481649 5.26578 0
M  V30 403 H 44.4806 0.369198 3.76092 0
M  V30 404 H 44.7936 1.37482 7.60473 0
M  V30 405 H 43.1386 1.22958 6.84037 0
M  V30 406 H 46.3296 0.541098 4.64962 0
M  V30 407 H 46.5026 0.999445 6.40246 0
M  V30 408 N 39.9087 -1.5758 0.0250728 0
M  V30 409 C 41.1567 -1.91255 -0.653151 0
M  V30 410 C 41.4777 -0.901691 -1.729 0
M  V30 411 O 40.7477 0.0573785 -1.95816 0
M  V30 412 H 39.3277 -0.705942 -0.244243 0
M  V30 413 H 41.9897 -1.94767 0.0719209 0
M  V30 414 H 41.0857 -2.91752 -1.10847 0
M  V30 415 N 41.3868 0.248026 -1.55636 0
M  V30 416 C 42.3498 1.29044 -1.89421 0
M  V30 417 C 43.3498 1.41134 -0.770581 0
M  V30 418 O 44.5398 1.39854 -1.03858 0
M  V30 419 C 41.6718 2.66831 -2.12165 0
M  V30 420 H 42.8648 1.00305 -2.82629 0
M  V30 421 H 40.4178 0.487265 -1.48511 0
M  V30 422 H 41.1528 3.00711 -1.21422 0
M  V30 423 H 40.9378 2.59438 -2.93997 0
M  V30 424 H 42.4278 3.42103 -2.3949 0
M  V30 425 N 42.8649 1.48995 0.513639 0
M  V30 426 C 43.7969 1.60836 1.63293 0
M  V30 427 C 44.8099 0.491701 1.55197 0
M  V30 428 O 45.9989 0.763238 1.6136 0
M  V30 429 C 43.0989 1.53731 3.02027 0
M  V30 430 C 42.2719 2.80715 3.35437 0
M  V30 431 C 41.3309 2.66837 4.53525 0
M  V30 432 O 40.3569 3.40753 4.55934 0
M  V30 433 N 41.5589 1.77539 5.52684 0
M  V30 434 H 44.3239 2.57366 1.53566 0
M  V30 435 H 41.8849 1.45925 0.701259 0
M  V30 436 H 43.8769 1.42118 3.78926 0
M  V30 437 H 42.4469 0.651092 3.05744 0
M  V30 438 H 41.6669 3.06772 2.47557 0
M  V30 439 H 42.9549 3.64927 3.54551 0
M  V30 440 H 42.3529 1.16719 5.53528 0
M  V30 441 H 40.9099 1.71856 6.28736 0
M  V30 442 N 44.343 -0.763751 1.37857 0
M  V30 443 C 45.571 -1.55293 1.36718 0
M  V30 444 C 45.986 -1.88745 -0.0455434 0
M  V30 445 O 45.343 -1.52039 -1.00947 0
M  V30 446 C 45.394 -2.85831 2.2132 0
M  V30 447 O 45.115 -2.5381 3.57089 0
M  V30 448 C 46.616 -3.80023 2.28249 0
M  V30 449 H 43.836 -0.480841 0.468009 0
M  V30 450 H 46.38 -0.946009 1.81303 0
M  V30 451 H 44.535 -3.42926 1.80223 0
M  V30 452 H 44.949 -3.37459 4.01524 0
M  V30 453 H 46.423 -4.68599 2.91752 0
M  V30 454 H 46.9 -4.1973 1.2932 0
M  V30 455 H 47.506 -3.28855 2.69693 0
M  V30 456 N 45.8211 -1.22559 -0.990812 0
M  V30 457 C 46.7841 -0.998863 -2.0629 0
M  V30 458 C 47.7841 0.0354834 -1.60761 0
M  V30 459 O 48.9741 -0.203231 -1.7301 0
M  V30 460 C 46.1061 -0.509203 -3.37076 0
M  V30 461 H 47.2991 -1.95014 -2.27837 0
M  V30 462 H 44.8521 -1.04456 -1.16269 0
M  V30 463 H 45.5871 0.446335 -3.21214 0
M  V30 464 H 45.3721 -1.25547 -3.71457 0
M  V30 465 H 46.8621 -0.370888 -4.1595 0
M  V30 466 N 47.2992 1.18797 -1.03562 0
M  V30 467 C 48.2622 2.20464 -0.626769 0
M  V30 468 C 49.2622 1.57721 0.313173 0
M  V30 469 O 50.4522 1.73917 0.0992615 0
M  V30 470 C 47.5842 3.40802 0.0818498 0
M  V30 471 H 48.7772 2.58149 -1.5264 0
M  V30 472 H 46.3302 1.32593 -0.827578 0
M  V30 473 H 47.0652 3.08642 0.995518 0
M  V30 474 H 46.8502 3.8758 -0.593652 0
M  V30 475 H 48.3402 4.16092 0.354584 0
M  V30 476 N 48.7773 0.814389 1.34928 0
M  V30 477 C 49.7403 0.235759 2.27984 0
M  V30 478 C 50.7403 -0.581412 1.49921 0
M  V30 479 O 51.9303 -0.398758 1.69575 0
M  V30 480 C 49.0623 -0.670433 3.34242 0
M  V30 481 H 50.2553 1.05659 2.80671 0
M  V30 482 H 47.8083 0.585614 1.44915 0
M  V30 483 H 48.5433 -1.51466 2.86755 0
M  V30 484 H 48.3283 -0.0860822 3.92005 0
M  V30 485 H 49.8183 -1.06935 4.03676 0
M  V30 486 N 50.2554 -1.46986 0.568584 0
M  V30 487 C 51.4834 -2.0683 0.0539956 0
M  V30 488 C 51.8984 -1.41953 -1.24478 0
M  V30 489 O 51.2554 -0.519933 -1.74937 0
M  V30 490 C 51.3064 -3.61254 -0.133362 0
M  V30 491 O 51.0274 -4.237 1.11399 0
M  V30 492 C 52.5284 -4.37992 -0.683927 0
M  V30 493 H 49.7484 -0.669058 0.0510141 0
M  V30 494 H 52.2924 -1.88824 0.785234 0
M  V30 495 H 50.4474 -3.78735 -0.81477 0
M  V30 496 H 50.8614 -5.16388 0.91888 0
M  V30 497 H 52.3354 -5.46684 -0.764263 0
M  V30 498 H 52.8124 -4.05058 -1.69778 0
M  V30 499 H 53.4184 -4.25283 -0.0378494 0
M  V30 500 N 51.7335 -0.305618 -1.54608 0
M  V30 501 C 52.6965 0.555591 -2.22364 0
M  V30 502 C 53.6965 1.05768 -1.21119 0
M  V30 503 O 54.8865 0.952972 -1.45822 0
M  V30 504 C 52.0185 1.76974 -2.91364 0
M  V30 505 H 53.2115 -0.0364572 -2.99878 0
M  V30 506 H 50.7645 -0.0565007 -1.56198 0
M  V30 507 H 51.4995 2.40151 -2.17941 0
M  V30 508 H 51.2845 1.41732 -3.65588 0
M  V30 509 H 52.7745 2.38148 -3.43038 0
M  V30 510 N 53.2116 1.57565 -0.0334293 0
M  V30 511 C 54.6226 1.79746 0.504798 0
M  V30 512 C 54.9736 0.944091 1.71992 0
M  V30 513 O 54.0986 0.155694 2.15839 0
M  V30 514 C 54.6936 3.25997 0.922567 0
M  V30 515 C 53.2526 3.49159 1.40588 0
M  V30 516 C 52.3996 2.74785 0.372633 0
M  V30 517 H 55.3506 1.56565 -0.259436 0
M  V30 518 H 55.3716 3.35945 1.78666 0
M  V30 519 H 54.8836 3.88081 0.0379825 0
M  V30 520 H 52.9846 2.92332 2.31025 0
M  V30 521 H 53.0976 4.57873 1.41028 0
M  V30 522 H 51.4616 2.40391 0.841672 0
M  V30 523 H 52.2446 3.39587 -0.503559 0
M  V30 524 N 54.6897 -0.239769 1.55765 0
M  V30 525 C 56.1057 -0.588624 1.48349 0
M  V30 526 C 56.3057 -1.88005 0.72502 0
M  V30 527 O 55.3617 -2.51186 0.257269 0
M  V30 528 C 56.6747 -0.68474 2.928 0
M  V30 529 C 58.2227 -0.77659 3.03213 0
M  V30 530 C 58.6977 -0.904207 4.48986 0
M  V30 531 N 60.1887 -0.968896 4.52953 0
M  V30 532 C 60.9237 -1.08703 5.63002 0
M  V30 533 N 60.4197 -1.17026 6.82845 0
M  V30 534 N 62.2127 -1.12074 5.50814 0
M  V30 535 H 54.3637 0.607911 2.03515 0
M  V30 536 H 56.6267 0.21083 0.924259 0
M  V30 537 H 56.3327 0.194284 3.51163 0
M  V30 538 H 56.2067 -1.55435 3.43686 0
M  V30 539 H 58.5937 -1.64606 2.44926 0
M  V30 540 H 58.6747 0.118315 2.55526 0
M  V30 541 H 58.3187 -0.0392633 5.07885 0
M  V30 542 H 58.2487 -1.81426 4.9436 0
M  V30 543 H 60.7397 -0.915633 3.6664 0
M  V30 544 H 61.0527 -1.25966 7.62465 0
M  V30 545 H 59.3977 -1.13971 6.85591 0
M  V30 546 H 62.5887 -1.05226 4.5612 0
M  V30 547 H 62.7617 -1.20936 6.36615 0
M  V30 548 N 56.1678 -1.49265 -0.50573 0
M  V30 549 C 57.4168 -1.57761 -1.25675 0
M  V30 550 C 57.7298 -0.267371 -1.93764 0
M  V30 551 O 58.9358 -0.230827 -2.70517 0
M  V30 552 C 57.3918 -2.78332 -2.28165 0
M  V30 553 C 56.9998 -4.16096 -1.66037 0
M  V30 554 C 58.7438 -2.96155 -3.04125 0
M  V30 555 C 56.6508 -5.27895 -2.6661 0
M  V30 556 H 55.5808 -0.587391 -0.472745 0
M  V30 557 H 58.2318 -1.75644 -0.53118 0
M  V30 558 H 56.6138 -2.53934 -3.03865 0
M  V30 559 H 57.7878 -4.50612 -0.963622 0
M  V30 560 H 56.1028 -4.03591 -1.02484 0
M  V30 561 H 58.6998 -3.76849 -3.79327 0
M  V30 562 H 59.0428 -2.06534 -3.61455 0
M  V30 563 H 59.5758 -3.2057 -2.35541 0
M  V30 564 H 56.3148 -6.1956 -2.14068 0
M  V30 565 H 55.8348 -4.97839 -3.34539 0
M  V30 566 H 57.5138 -5.57031 -3.29129 0
M  V30 567 N 57.6459 0.756429 -1.3826 0
M  V30 568 C 58.5929 1.87011 -1.35261 0
M  V30 569 C 59.5629 1.64695 -0.215616 0
M  V30 570 O 60.7479 1.864 -0.407399 0
M  V30 571 C 57.8879 3.24275 -1.18068 0
M  V30 572 C 57.0009 3.58442 -2.41129 0
M  V30 573 C 56.1359 4.84994 -2.16689 0
M  V30 574 C 55.1749 5.11939 -3.35537 0
M  V30 575 N 54.3119 6.29685 -3.10549 0
M  V30 576 H 59.1519 1.8891 -2.30472 0
M  V30 577 H 56.6889 0.923373 -1.14509 0
M  V30 578 H 58.6469 4.03479 -1.06116 0
M  V30 579 H 57.2769 3.21711 -0.264973 0
M  V30 580 H 56.3289 2.74103 -2.63764 0
M  V30 581 H 57.6409 3.74283 -3.29717 0
M  V30 582 H 56.7949 5.72135 -2.01857 0
M  V30 583 H 55.5339 4.71286 -1.25462 0
M  V30 584 H 54.5389 4.23268 -3.50891 0
M  V30 585 H 55.7639 5.27546 -4.27635 0
M  V30 586 H 53.7099 6.17306 -2.21967 0
M  V30 587 H 53.6269 6.46014 -3.92686 0
M  V30 588 H 54.8949 7.19722 -2.99367 0
M  V30 589 N 59.124 1.23083 0.984299 0
M  V30 590 C 60.071 1.00854 2.07598 0
M  V30 591 C 61.041 -0.0726709 1.65941 0
M  V30 592 O 62.226 0.0786535 1.90638 0
M  V30 593 C 59.366 0.601645 3.39815 0
M  V30 594 C 58.479 1.75456 3.94765 0
M  V30 595 C 57.614 1.29482 5.15177 0
M  V30 596 C 56.653 2.41873 5.62284 0
M  V30 597 N 55.79 1.96885 6.73929 0
M  V30 598 H 60.63 1.943 2.25946 0
M  V30 599 H 58.167 0.968001 1.10762 0
M  V30 600 H 60.125 0.346854 4.15756 0
M  V30 601 H 58.755 -0.295803 3.21442 0
M  V30 602 H 57.807 2.12346 3.15616 0
M  V30 603 H 59.119 2.59965 4.25699 0
M  V30 604 H 58.273 0.997923 5.98437 0
M  V30 605 H 57.012 0.420046 4.85888 0
M  V30 606 H 56.017 2.72342 4.77608 0
M  V30 607 H 57.242 3.29881 5.93595 0
M  V30 608 H 55.188 1.11782 6.46406 0
M  V30 609 H 55.105 2.74956 7.04227 0
M  V30 610 H 56.373 1.70289 7.60672 0
M  V30 611 N 60.6021 -1.18246 1.0419 0
M  V30 612 C 61.8491 -1.88257 0.746017 0
M  V30 613 C 62.1771 -1.80429 -0.726331 0
M  V30 614 O 61.4321 -1.2 -1.54591 0
M  V30 615 C 61.7311 -3.38082 1.15911 0
M  V30 616 C 61.3971 -3.66114 2.63195 0
M  V30 617 C 60.0591 -3.73474 3.03432 0
M  V30 618 C 62.4111 -3.78398 3.5842 0
M  V30 619 C 59.7391 -3.90599 4.37778 0
M  V30 620 C 62.0911 -3.97039 4.92487 0
M  V30 621 C 60.7551 -4.02635 5.32392 0
M  V30 622 H 60.0251 -0.688883 0.272987 0
M  V30 623 H 62.6721 -1.3995 1.30715 0
M  V30 624 H 60.9771 -3.88377 0.516806 0
M  V30 625 H 62.6741 -3.90596 0.907516 0
M  V30 626 H 59.2641 -3.61003 2.3103 0
M  V30 627 H 63.4481 -3.72042 3.28479 0
M  V30 628 H 58.7041 -3.93175 4.68213 0
M  V30 629 H 62.8781 -4.05486 5.66175 0
M  V30 630 H 60.5051 -4.15657 6.36501 0
M  V30 631 N 62.0802 -0.821533 -1.34494 0
M  V30 632 C 63.0432 -0.247847 -2.27856 0
M  V30 633 C 64.0432 0.573453 -1.50227 0
M  V30 634 O 65.2332 0.389759 -1.69784 0
M  V30 635 C 62.3652 0.652698 -3.34593 0
M  V30 636 H 63.5582 -1.07146 -2.80107 0
M  V30 637 H 61.1112 -0.593291 -1.44602 0
M  V30 638 H 61.8462 1.49943 -2.87555 0
M  V30 639 H 61.6312 0.065292 -3.92046 0
M  V30 640 H 63.1212 1.04793 -4.04238 0
M  V30 641 N 63.5583 1.46682 -0.576371 0
M  V30 642 C 64.8073 2.01619 -0.0572825 0
M  V30 643 C 65.1203 1.45417 1.30818 0
M  V30 644 O 66.3263 1.92133 1.91825 0
M  V30 645 C 64.7823 3.59863 -0.0518371 0
M  V30 646 C 64.3903 4.25059 -1.41523 0
M  V30 647 C 66.1343 4.2248 0.413639 0
M  V30 648 C 64.0413 5.75364 -1.36785 0
M  V30 649 H 62.9713 0.753794 -0.0176448 0
M  V30 650 H 65.6223 1.68481 -0.727076 0
M  V30 651 H 64.0043 3.90048 0.683994 0
M  V30 652 H 65.1783 4.06491 -2.17029 0
M  V30 653 H 63.4933 3.7451 -1.8202 0
M  V30 654 H 66.0903 5.3265 0.467779 0
M  V30 655 H 66.4333 3.90976 1.42982 0
M  V30 656 H 66.9663 3.96897 -0.267929 0
M  V30 657 H 63.7053 6.11518 -2.36063 0
M  V30 658 H 63.2253 5.96214 -0.654895 0
M  V30 659 H 64.9043 6.37955 -1.07805 0
M  V30 660 N 65.0364 0.313813 1.54444 0
M  V30 661 C 66.2664 -0.293491 2.04505 0
M  V30 662 C 66.6744 -1.47086 1.19005 0
M  V30 663 O 66.0174 -1.82481 0.211257 0
M  V30 664 C 66.0794 -0.800455 3.50475 0
M  V30 665 C 65.7434 0.253322 4.56297 0
M  V30 666 C 66.7404 1.08612 5.08428 0
M  V30 667 C 64.4254 0.398708 5.00715 0
M  V30 668 C 66.4194 2.05013 6.0353 0
M  V30 669 C 64.1064 1.36614 5.95634 0
M  V30 670 C 65.1044 2.19033 6.46926 0
M  V30 671 O 64.7924 3.14134 7.39983 0
M  V30 672 H 64.5244 -0.0658325 0.672787 0
M  V30 673 H 67.0784 0.455177 2.00293 0
M  V30 674 H 65.3084 -1.59987 3.52053 0
M  V30 675 H 66.9974 -1.32504 3.83663 0
M  V30 676 H 67.7634 0.984736 4.74898 0
M  V30 677 H 63.6424 -0.23289 4.60411 0
M  V30 678 H 67.1864 2.69382 6.4349 0
M  V30 679 H 63.0834 1.4682 6.28581 0
M  V30 680 H 63.8514 3.0926 7.57826 0
M  V30 681 N 66.5145 -1.57545 0.0417849 0
M  V30 682 C 67.9305 -1.56467 -0.314704 0
M  V30 683 C 68.1305 -1.04859 -1.72066 0
M  V30 684 O 67.1865 -0.700983 -2.42575 0
M  V30 685 C 68.4995 -3.00317 -0.15174 0
M  V30 686 C 70.0475 -3.12201 -0.223553 0
M  V30 687 C 70.5225 -4.57913 -0.0892295 0
M  V30 688 N 72.0135 -4.6297 -0.145808 0
M  V30 689 C 72.7485 -5.73362 -0.0658459 0
M  V30 690 N 72.2445 -6.92769 0.0659282 0
M  V30 691 N 74.0375 -5.6197 -0.12075 0
M  V30 692 H 66.1885 -1.89416 0.961014 0
M  V30 693 H 68.4515 -0.871862 0.372237 0
M  V30 694 H 68.1575 -3.42073 0.817254 0
M  V30 695 H 68.0315 -3.65892 -0.916692 0
M  V30 696 H 70.4185 -2.70349 -1.18301 0
M  V30 697 H 70.4995 -2.49323 0.571994 0
M  V30 698 H 70.1435 -5.00448 0.866867 0
M  V30 699 H 70.0735 -5.18786 -0.903802 0
M  V30 700 H 72.5645 -3.7709 -0.247286 0
M  V30 701 H 72.8775 -7.72707 0.119905 0
M  V30 702 H 71.2225 -6.94927 0.100885 0
M  V30 703 H 74.4135 -4.67572 -0.222187 0
M  V30 704 H 74.5865 -6.47977 -0.0549735 0
M  V30 705 N 67.9926 0.231505 -1.5589 0
M  V30 706 C 69.2386 0.954429 -1.79617 0
M  V30 707 C 69.5936 1.82367 -0.613199 0
M  V30 708 O 68.8866 1.87524 0.393094 0
M  V30 709 C 69.0806 1.83577 -3.0665 0
M  V30 710 C 68.9096 1.05334 -4.3719 0
M  V30 711 C 67.6796 0.75225 -4.99669 0
M  V30 712 C 69.8776 0.423444 -5.12554 0
M  V30 713 N 67.8596 -0.052627 -6.13877 0
M  V30 714 C 69.2306 -0.245287 -6.19515 0
M  V30 715 C 71.2856 0.335466 -4.96769 0
M  V30 716 C 69.9886 -0.993566 -7.12405 0
M  V30 717 C 72.0146 -0.399321 -5.9005 0
M  V30 718 C 71.3766 -1.05663 -6.9643 0
M  V30 719 H 67.4756 0.329846 -0.709031 0
M  V30 720 H 70.0596 0.226172 -1.93382 0
M  V30 721 H 68.2306 2.53592 -2.94186 0
M  V30 722 H 69.9626 2.49541 -3.18608 0
M  V30 723 H 66.7176 1.06783 -4.61405 0
M  V30 724 H 67.1416 -0.443609 -6.75545 0
M  V30 725 H 71.7836 0.829311 -4.14587 0
M  V30 726 H 69.5016 -1.49896 -7.94076 0
M  V30 727 H 73.0876 -0.468265 -5.79913 0
M  V30 728 H 71.9676 -1.61612 -7.67366 0
M  V30 729 N 69.4707 1.49531 0.497807 0
M  V30 730 C 70.7477 1.49682 1.25915 0
M  V30 731 C 71.1277 0.226339 2.09883 0
M  V30 732 O 70.4757 -0.791189 2.14365 0
M  V30 733 C 70.6857 2.77755 2.11313 0
M  V30 734 C 72.0337 3.27371 2.70395 0
M  V30 735 O 73.0577 2.78894 2.21578 0
M  V30 736 O 71.9167 4.11808 3.59272 0
M  V30 737 H 69.0107 0.599228 0.56996 0
M  V30 738 H 71.5567 1.61798 0.511816 0
M  V30 739 H 70.3287 3.61713 1.49264 0
M  V30 740 H 69.9517 2.68515 2.93233 0
M  V30 741 N 70.9488 -0.749086 1.3866 0
M  V30 742 C 72.3598 -1.32664 1.31366 0
M  V30 743 C 72.7108 -1.96179 -0.028484 0
M  V30 744 O 71.8358 -1.9537 -0.93057 0
M  V30 745 C 72.4308 -2.41219 2.37905 0
M  V30 746 C 70.9898 -2.94684 2.34176 0
M  V30 747 C 70.1368 -1.68108 2.20533 0
M  V30 748 H 73.0878 -0.547628 1.48952 0
M  V30 749 H 73.1088 -3.21268 2.0388 0
M  V30 750 H 72.6208 -1.94962 3.35576 0
M  V30 751 H 70.7218 -3.45258 1.401 0
M  V30 752 H 70.8348 -3.48757 3.2849 0
M  V30 753 H 69.1988 -1.91907 1.67463 0
M  V30 754 H 69.9818 -1.23923 3.20153 0
M  V30 755 N 72.4269 -1.23603 -0.977757 0
M  V30 756 C 73.7039 -0.977897 -1.69401 0
M  V30 757 C 74.0839 0.502738 -2.05026 0
M  V30 758 O 73.4319 1.47459 -1.74551 0
M  V30 759 C 73.6419 -1.89077 -2.93345 0
M  V30 760 C 74.9899 -2.15579 -3.65802 0
M  V30 761 O 76.0139 -1.86648 -3.03383 0
M  V30 762 O 74.8729 -2.64658 -4.78141 0
M  V30 763 H 71.9669 -0.369025 -0.740101 0
M  V30 764 H 74.5129 -1.34657 -1.03274 0
M  V30 765 H 73.2849 -2.89158 -2.63634 0
M  V30 766 H 72.9079 -1.52463 -3.67207 0
M  V30 767 N 73.905 1.17692 -1.04816 0
M  V30 768 C 74.852 2.21581 -0.645797 0
M  V30 769 C 75.822 1.62367 0.350159 0
M  V30 770 O 77.007 1.89254 0.242433 0
M  V30 771 C 74.147 3.45092 -0.0227568 0
M  V30 772 C 73.26 4.18613 -1.06709 0
M  V30 773 C 72.395 5.29602 -0.411767 0
M  V30 774 C 71.434 5.94904 -1.44067 0
M  V30 775 N 70.571 6.97414 -0.809781 0
M  V30 776 H 75.411 2.55353 -1.5362 0
M  V30 777 H 72.948 1.25438 -0.768364 0
M  V30 778 H 74.906 4.15679 0.35588 0
M  V30 779 H 73.536 3.11917 0.831122 0
M  V30 780 H 72.588 3.46779 -1.5636 0
M  V30 781 H 73.9 4.63293 -1.84827 0
M  V30 782 H 73.054 6.06696 0.0206623 0
M  V30 783 H 71.793 4.86045 0.401438 0
M  V30 784 H 70.798 5.16544 -1.88316 0
M  V30 785 H 72.023 6.40542 -2.25571 0
M  V30 786 H 69.969 6.55998 -0.0170186 0
M  V30 787 H 69.886 7.40386 -1.52856 0
M  V30 788 H 71.154 7.78463 -0.401999 0
M  V30 789 N 75.3831 0.828654 1.34056 0
M  V30 790 C 76.3461 0.259927 2.27721 0
M  V30 791 C 77.3461 -0.565478 1.50529 0
M  V30 792 O 78.5361 -0.38075 1.69988 0
M  V30 793 C 75.6681 -0.634944 3.34935 0
M  V30 794 H 76.8611 1.0863 2.79534 0
M  V30 795 H 74.4141 0.600951 1.44285 0
M  V30 796 H 75.1491 -1.48416 2.88346 0
M  V30 797 H 74.9341 -0.0444999 3.92075 0
M  V30 798 H 76.4241 -1.02648 4.04788 0
M  V30 799 N 76.8612 -1.46375 0.584142 0
M  V30 800 C 78.1092 -2.01978 0.0701287 0
M  V30 801 C 78.4302 -1.4579 -1.295 0
M  V30 802 O 77.7002 -0.64314 -1.85042 0
M  V30 803 H 76.2802 -0.746648 0.0229345 0
M  V30 804 H 78.9422 -1.79461 0.760245 0
M  V30 805 H 78.0382 -3.121 0.0022064 0
M  V30 806 N 78.3393 -0.321999 -1.54275 0
M  V30 807 C 79.6163 0.335232 -1.92706 0
M  V30 808 C 79.9963 1.70006 -1.25145 0
M  V30 809 O 79.3443 2.25067 -0.394596 0
M  V30 810 C 79.5543 0.429008 -3.46353 0
M  V30 811 C 80.9023 0.690029 -4.18956 0
M  V30 812 O 81.9263 0.511992 -3.52501 0
M  V30 813 O 80.7853 1.03338 -5.36641 0
M  V30 814 H 77.8793 0.191143 -0.804608 0
M  V30 815 H 80.4253 -0.3716 -1.65581 0
M  V30 816 H 79.1973 -0.529611 -3.87699 0
M  V30 817 H 78.8203 1.18348 -3.79578 0
M  V30 818 N 79.8174 1.5752 -0.0501392 0
M  V30 819 C 80.7644 2.1147 0.924603 0
M  V30 820 C 81.7344 1.02182 1.30951 0
M  V30 821 O 82.9194 1.29723 1.39916 0
M  V30 822 C 80.0594 2.66337 2.19451 0
M  V30 823 C 79.1724 3.89708 1.86418 0
M  V30 824 C 78.3074 4.32893 3.07859 0
M  V30 825 C 77.3464 5.48967 2.70742 0
M  V30 826 N 76.4834 5.87211 3.84874 0
M  V30 827 H 81.3234 2.94465 0.457639 0
M  V30 828 H 78.8604 1.45531 0.214266 0
M  V30 829 H 80.8184 2.96247 2.93758 0
M  V30 830 H 79.4484 1.86141 2.63726 0
M  V30 831 H 78.5004 3.66396 1.02264 0
M  V30 832 H 79.8124 4.74074 1.55096 0
M  V30 833 H 78.9664 4.6435 3.90466 0
M  V30 834 H 77.7054 3.47336 3.42358 0
M  V30 835 H 76.7104 5.17183 1.86551 0
M  V30 836 H 77.9354 6.3624 2.37436 0
M  V30 837 H 75.8814 5.04607 4.19175 0
M  V30 838 H 75.7984 6.66266 3.57247 0
M  V30 839 H 77.0664 6.23282 4.68123 0
M  V30 840 N 81.2955 -0.223234 1.56011 0
M  V30 841 C 82.7065 -0.790368 1.69145 0
M  V30 842 C 83.0575 -1.85055 0.651845 0
M  V30 843 O 82.1825 -2.15498 -0.197359 0
M  V30 844 C 82.7775 -1.4404 3.06656 0
M  V30 845 C 81.3365 -1.95494 3.2165 0
M  V30 846 C 80.4835 -0.814506 2.65068 0
M  V30 847 H 83.4345 0.00139011 1.587 0
M  V30 848 H 83.4555 -2.30916 3.0242 0
M  V30 849 H 82.9675 -0.668543 3.82298 0
M  V30 850 H 81.0685 -2.75487 2.50874 0
M  V30 851 H 81.1815 -2.13607 4.28846 0
M  V30 852 H 79.5455 -1.22137 2.23505 0
M  V30 853 H 80.3285 -0.0553515 3.43255 0
M  V30 854 N 82.7736 -1.49793 -0.48987 0
M  V30 855 C 83.7236 -1.63673 -1.5873 0
M  V30 856 C 84.7076 -0.491956 -1.53195 0
M  V30 857 O 85.8996 -0.745461 -1.60536 0
M  V30 858 C 83.0286 -1.71689 -2.97284 0
M  V30 859 C 82.1146 -2.91781 -3.07774 0
M  V30 860 N 82.5056 -4.15714 -2.88124 0
M  V30 861 C 80.8036 -2.89949 -3.38889 0
M  V30 862 C 81.5046 -4.965 -3.03088 0
M  V30 863 N 80.4806 -4.30083 -3.3246 0
M  V30 864 H 84.2826 -2.57204 -1.42208 0
M  V30 865 H 81.7966 -1.46719 -0.69623 0
M  V30 866 H 83.7936 -1.79732 -3.76168 0
M  V30 867 H 82.4536 -0.793024 -3.14867 0
M  V30 868 H 83.4646 -4.45515 -2.64077 0
M  V30 869 H 80.1416 -2.06987 -3.62578 0
M  V30 870 H 81.5316 -6.04991 -2.92294 0
M  V30 871 N 84.2517 0.741722 -1.39055 0
M  V30 872 C 85.1847 1.86416 -1.31622 0
M  V30 873 C 86.1627 1.61473 -0.191076 0
M  V30 874 O 87.3467 1.84825 -0.370399 0
M  V30 875 C 84.4737 3.22266 -1.04221 0
M  V30 876 C 83.5197 3.66079 -2.18834 0
M  V30 877 S 84.3527 3.7623 -3.81066 0
M  V30 878 C 85.5087 5.14881 -3.55877 0
M  V30 879 H 85.7417 1.92437 -2.26617 0
M  V30 880 H 83.2747 0.905907 -1.25031 0
M  V30 881 H 85.2327 4.00714 -0.890964 0
M  V30 882 H 83.8937 3.1391 -0.109237 0
M  V30 883 H 83.0867 4.64648 -1.95238 0
M  V30 884 H 82.6887 2.94817 -2.30128 0
M  V30 885 H 84.9807 6.01006 -3.12726 0
M  V30 886 H 85.9237 5.43503 -4.53884 0
M  V30 887 H 86.3317 4.84239 -2.90126 0
M  V30 888 N 85.7298 1.2412 0.971189 0
M  V30 889 C 86.6618 0.988349 2.06795 0
M  V30 890 C 87.6748 -0.0409541 1.62748 0
M  V30 891 O 88.8638 0.195673 1.77424 0
M  V30 892 C 85.9638 0.469023 3.35639 0
M  V30 893 C 85.1368 1.56065 4.08611 0
M  V30 894 C 84.1958 1.04458 5.15728 0
M  V30 895 O 83.2218 1.73553 5.42096 0
M  V30 896 N 84.4238 -0.122817 5.8037 0
M  V30 897 H 87.1888 1.93265 2.29061 0
M  V30 898 H 84.7498 1.15102 1.13856 0
M  V30 899 H 86.7418 0.108613 4.04554 0
M  V30 900 H 85.3118 -0.380919 3.1027 0
M  V30 901 H 84.5318 2.09341 3.34021 0
M  V30 902 H 85.8198 2.29449 4.54126 0
M  V30 903 H 85.2178 -0.700563 5.61345 0
M  V30 904 H 83.7748 -0.424404 6.50417 0
M  V30 905 N 87.2079 -1.17134 1.05439 0
M  V30 906 C 88.4359 -1.91372 0.786414 0
M  V30 907 C 88.8509 -1.76955 -0.658202 0
M  V30 908 O 88.2079 -1.10838 -1.44987 0
M  V30 909 C 88.2589 -3.42356 1.1608 0
M  V30 910 O 87.9799 -3.56332 2.54871 0
M  V30 911 C 89.4809 -4.33663 0.919322 0
M  V30 912 H 86.7009 -0.607118 0.285743 0
M  V30 913 H 89.2449 -1.48525 1.40572 0
M  V30 914 H 87.3999 -3.82939 0.586191 0
M  V30 915 H 87.8139 -4.49896 2.69618 0
M  V30 916 H 89.2879 -5.38099 1.231 0
M  V30 917 H 89.7649 -4.38959 -0.145359 0
M  V30 918 H 90.3709 -3.98796 1.47789 0
M  V30 919 N 88.686 -0.835752 -1.33615 0
M  V30 920 C 89.916 -0.442701 -2.01801 0
M  V30 921 C 90.324 0.959807 -1.63047 0
M  V30 922 O 89.667 1.63468 -0.838088 0
M  V30 923 C 89.729 -0.480125 -3.56279 0
M  V30 924 C 89.393 -1.8382 -4.18401 0
M  V30 925 C 90.39 -2.80097 -4.37998 0
M  V30 926 C 88.075 -2.13019 -4.54894 0
M  V30 927 C 90.069 -4.03736 -4.9323 0
M  V30 928 C 87.756 -3.36916 -5.09834 0
M  V30 929 C 88.754 -4.32091 -5.28948 0
M  V30 930 O 88.442 -5.53797 -5.82721 0
M  V30 931 H 88.174 -0.17441 -0.653114 0
M  V30 932 H 90.728 -1.129 -1.71589 0
M  V30 933 H 88.958 0.262931 -3.85805 0
M  V30 934 H 90.647 -0.105335 -4.05763 0
M  V30 935 H 91.413 -2.58838 -4.10156 0
M  V30 936 H 87.292 -1.39733 -4.39313 0
M  V30 937 H 90.836 -4.78034 -5.08064 0
M  V30 938 H 86.733 -3.58033 -5.37106 0
M  V30 939 H 87.501 -5.55494 -6.0114 0
M  V30 940 N 90.1641 1.46063 -0.591896 0
M  V30 941 C 91.0741 2.34192 0.13831 0
M  V30 942 C 92.0901 1.50305 0.876608 0
M  V30 943 O 93.2661 1.8315 0.837728 0
M  V30 944 C 90.3311 3.27656 1.13326 0
M  V30 945 C 89.3921 4.27445 0.39863 0
M  V30 946 C 88.6251 5.16443 1.34618 0
M  V30 947 O 88.8481 5.08553 2.58321 0
M  V30 948 O 87.7821 5.95843 0.851768 0
M  V30 949 H 91.6081 2.98002 -0.58552 0
M  V30 950 H 89.1931 1.45188 -0.352239 0
M  V30 951 H 91.0751 3.85291 1.70671 0
M  V30 952 H 89.7501 2.6643 1.83839 0
M  V30 953 H 88.6571 3.73471 -0.216895 0
M  V30 954 H 89.9901 4.91482 -0.265709 0
M  V30 955 N 91.6422 0.330177 1.54103 0
M  V30 956 C 92.8882 -0.270806 2.00984 0
M  V30 957 C 93.2212 -1.51265 1.21789 0
M  V30 958 O 92.4962 -1.92142 0.301927 0
M  V30 959 C 92.7792 -0.598339 3.55094 0
M  V30 960 C 92.6322 0.654674 4.4501 0
M  V30 961 C 93.9512 -1.41334 4.16789 0
M  V30 962 H 91.0702 -0.0969531 0.730595 0
M  V30 963 H 93.7122 0.448066 1.84641 0
M  V30 964 H 91.8622 -1.21078 3.69151 0
M  V30 965 H 93.5342 1.29285 4.42813 0
M  V30 966 H 91.7772 1.28224 4.14416 0
M  V30 967 H 92.4482 0.380944 5.50684 0
M  V30 968 H 94.9242 -0.895597 4.06347 0
M  V30 969 H 93.8002 -1.61127 5.24718 0
M  V30 970 H 94.0612 -2.41146 3.70541 0
M  V30 971 N 93.1203 -1.57491 0.0584922 0
M  V30 972 C 94.3973 -1.84346 -0.653918 0
M  V30 973 C 94.7773 -0.948355 -1.88599 0
M  V30 974 O 94.1253 -0.0112403 -2.28497 0
M  V30 975 C 94.3353 -3.34239 -1.00425 0
M  V30 976 C 95.6833 -4.01431 -1.38342 0
M  V30 977 O 96.7073 -3.38907 -1.09637 0
M  V30 978 O 95.5663 -5.11683 -1.91943 0
M  V30 979 H 92.6603 -0.761112 -0.323478 0
M  V30 980 H 95.2063 -1.6947 0.0884125 0
M  V30 981 H 93.9783 -3.91089 -0.128625 0
M  V30 982 H 93.6013 -3.54329 -1.80378 0
M  V30 983 N 94.5984 0.214957 -1.56127 0
M  V30 984 C 95.5284 1.2695 -1.95974 0
M  V30 985 C 96.5094 1.48539 -0.828868 0
M  V30 986 O 97.6944 1.60611 -1.09168 0
M  V30 987 C 94.8244 2.61794 -2.28214 0
M  V30 988 C 93.7784 2.54851 -3.43853 0
M  V30 989 C 93.1044 3.93785 -3.61715 0
M  V30 990 C 94.4044 2.09065 -4.78632 0
M  V30 991 H 96.0984 0.93846 -2.84312 0
M  V30 992 H 93.6444 0.449996 -1.36788 0
M  V30 993 H 95.5974 3.35731 -2.54682 0
M  V30 994 H 94.3214 2.96599 -1.36736 0
M  V30 995 H 92.9804 1.8337 -3.17444 0
M  V30 996 H 92.6284 4.25908 -2.67602 0
M  V30 997 H 92.3284 3.90019 -4.39498 0
M  V30 998 H 93.8524 4.69374 -3.90539 0
M  V30 999 H 95.2664 2.7275 -5.04262 0
M  V30 1000 H 93.6634 2.16346 -5.59745 0
M  V30 1001 H 94.7334 1.04315 -4.73547 0
M  V30 1002 N 96.0765 1.50051 0.48192 0
M  V30 1003 C 97.0245 1.68635 1.60203 0
M  V30 1004 C 98.0185 0.552184 1.60148 0
M  V30 1005 O 99.2245 0.732377 1.64427 0
M  V30 1006 H 95.5995 0.532081 0.531407 0
M  V30 1007 H 97.5705 2.62616 1.41688 0
M  V30 1008 C 96.3195 1.78775 2.9822 0
M  V30 1009 H 95.6425 2.6543 2.98976 0
M  V30 1010 H 97.0825 1.95806 3.7608 0
M  V30 1011 C 95.5415 0.536849 3.32595 0
M  V30 1012 O 96.0715 -0.328897 4.00351 0
M  V30 1013 N 94.2775 0.394091 2.87915 0
M  V30 1014 H 93.8245 1.09962 2.32951 0
M  V30 1015 H 93.7825 -0.441737 3.11281 0
M  V30 1016 N 97.5546 -0.734337 1.39446 0
M  V30 1017 C 98.5016 -1.84835 1.38219 0
M  V30 1018 C 99.4716 -1.64331 0.24179 0
M  V30 1019 O 100.657 -1.85728 0.437002 0
M  V30 1020 C 97.7966 -3.22355 1.23212 0
M  V30 1021 C 96.9096 -3.5456 2.46801 0
M  V30 1022 C 96.0446 -4.81485 2.24377 0
M  V30 1023 C 95.0836 -5.06536 3.43639 0
M  V30 1024 N 94.2206 -6.24665 3.20528 0
M  V30 1025 H 99.0606 -1.85219 2.33448 0
M  V30 1026 H 96.5976 -0.905039 1.15963 0
M  V30 1027 H 98.5556 -4.0174 1.12522 0
M  V30 1028 H 97.1856 -3.21248 0.316121 0
M  V30 1029 H 96.2376 -2.69872 2.68092 0
M  V30 1030 H 97.5496 -3.6899 3.3563 0
M  V30 1031 H 96.7036 -5.68852 2.10933 0
M  V30 1032 H 95.4426 -4.6923 1.32944 0
M  V30 1033 H 94.4476 -4.17632 3.5758 0
M  V30 1034 H 95.6726 -5.20676 4.35974 0
M  V30 1035 H 93.6186 -6.13696 2.3176 0
M  V30 1036 H 93.5356 -6.39685 4.02913 0
M  V30 1037 H 94.8036 -7.14868 3.10779 0
M  V30 1038 N 99.0327 -1.24633 -0.964593 0
M  V30 1039 C 100.273 -1.09981 -1.72289 0
M  V30 1040 C 100.637 0.354792 -1.88693 0
M  V30 1041 O 101.838 0.62289 -2.61483 0
M  V30 1042 C 100.109 -1.82262 -3.07434 0
M  V30 1043 S 101.668 -1.83379 -3.98645 0
M  V30 1044 H 98.4857 -0.393292 -0.59232 0
M  V30 1045 H 101.088 -1.58009 -1.15123 0
M  V30 1046 H 99.7917 -2.87206 -2.93157 0
M  V30 1047 H 99.3227 -1.3458 -3.69664 0
M  V30 1048 H 101.338 -0.903691 -4.87901 0
M  V30 1049 N 100.511 1.16574 -1.06058 0
M  V30 1050 C 101.759 1.86677 -0.77434 0
M  V30 1051 C 102.08 1.81959 0.701147 0
M  V30 1052 O 101.35 1.2515 1.50713 0
M  V30 1053 H 99.9298 0.691134 -0.283449 0
M  V30 1054 H 102.592 1.41378 -1.34158 0
M  V30 1055 H 101.688 2.92181 -1.09711 0
M  V30 1056 N 101.989 0.842826 1.3317 0
M  V30 1057 C 103.4 0.496651 1.79973 0
M  V30 1058 C 103.751 -0.984641 1.69703 0
M  V30 1059 O 102.876 -1.76743 1.24863 0
M  V30 1060 C 103.471 0.894727 3.26772 0
M  V30 1061 C 102.03 0.600629 3.71577 0
M  V30 1062 C 101.177 1.10091 2.5451 0
M  V30 1063 H 104.128 1.03116 1.20635 0
M  V30 1064 H 104.149 0.206347 3.7994 0
M  V30 1065 H 103.661 1.97287 3.34215 0
M  V30 1066 H 101.762 -0.467284 3.69658 0
M  V30 1067 H 101.875 1.15863 4.64879 0
M  V30 1068 H 100.239 0.52162 2.49301 0
M  V30 1069 H 101.022 2.18591 2.64713 0
M  V30 1070 N 103.467 -1.45747 0.599634 0
M  V30 1071 C 104.4 -2.27547 -0.172552 0
M  V30 1072 C 105.378 -1.36657 -0.881116 0
M  V30 1073 O 106.562 -1.66081 -0.891595 0
M  V30 1074 C 103.689 -3.14829 -1.24903 0
M  V30 1075 C 102.735 -4.21603 -0.644465 0
M  V30 1076 S 103.568 -5.32754 0.541606 0
M  V30 1077 C 104.724 -6.23604 -0.535656 0
M  V30 1078 H 104.957 -2.92691 0.521468 0
M  V30 1079 H 102.49 -1.49473 0.386947 0
M  V30 1080 H 104.448 -3.65675 -1.86527 0
M  V30 1081 H 103.109 -2.48965 -1.91508 0
M  V30 1082 H 102.302 -4.82566 -1.45417 0
M  V30 1083 H 101.904 -3.73857 -0.103534 0
M  V30 1084 H 104.196 -6.62519 -1.41686 0
M  V30 1085 H 105.139 -7.0809 0.0376246 0
M  V30 1086 H 105.547 -5.58103 -0.84741 0
M  V30 1087 N 104.945 -0.338344 -1.53925 0
M  V30 1088 C 106.191 0.260143 -2.01125 0
M  V30 1089 C 106.524 1.50617 -1.22589 0
M  V30 1090 O 105.799 1.91979 -0.312113 0
M  V30 1091 C 106.082 0.579499 -3.55407 0
M  V30 1092 C 105.935 -0.678264 -4.44657 0
M  V30 1093 C 107.254 1.39122 -4.17532 0
M  V30 1094 H 104.373 0.0930772 -0.731099 0
M  V30 1095 H 107.015 -0.457852 -1.84401 0
M  V30 1096 H 105.165 1.19118 -3.69788 0
M  V30 1097 H 106.837 -1.31631 -4.42121 0
M  V30 1098 H 105.08 -1.3042 -4.13731 0
M  V30 1099 H 105.751 -0.410143 -5.50474 0
M  V30 1100 H 108.227 0.874035 -4.06817 0
M  V30 1101 H 107.103 1.58342 -5.25565 0
M  V30 1102 H 107.364 2.39178 -3.71815 0
M  V30 1103 N 106.423 1.57458 -0.0668435 0
M  V30 1104 C 107.353 2.15468 0.899764 0
M  V30 1105 C 108.334 1.08042 1.31381 0
M  V30 1106 O 109.519 1.36054 1.38574 0
M  V30 1107 C 106.649 2.71232 2.16911 0
M  V30 1108 C 105.603 3.83781 1.89463 0
M  V30 1109 C 104.929 4.26127 3.22986 0
M  V30 1110 C 106.229 5.08238 1.20381 0
M  V30 1111 H 107.923 2.96488 0.416529 0
M  V30 1112 H 105.469 1.4262 0.198908 0
M  V30 1113 H 107.422 3.10458 2.84945 0
M  V30 1114 H 106.146 1.87426 2.67468 0
M  V30 1115 H 104.805 3.45051 1.23836 0
M  V30 1116 H 104.453 3.39249 3.71374 0
M  V30 1117 H 104.153 5.01993 3.05413 0
M  V30 1118 H 105.677 4.67966 3.92225 0
M  V30 1119 H 107.091 5.44811 1.78475 0
M  V30 1120 H 105.488 5.89349 1.13083 0
M  V30 1121 H 106.558 4.84558 0.182153 0
M  V30 1122 N 107.901 -0.206675 1.56239 0
M  V30 1123 C 109.178 -0.954051 1.70755 0
M  V30 1124 C 109.558 -2.01841 0.618353 0
M  V30 1125 O 108.906 -2.25444 -0.372434 0
M  V30 1126 C 109.116 -1.551 3.12642 0
M  V30 1127 C 110.464 -2.03757 3.72516 0
M  V30 1128 O 111.488 -1.64965 3.15698 0
M  V30 1129 O 110.347 -2.75103 4.72208 0
M  V30 1130 H 107.441 -0.446636 0.696021 0
M  V30 1131 H 109.987 -0.197283 1.68549 0
M  V30 1132 H 108.759 -0.783212 3.83382 0
M  V30 1133 H 108.382 -2.37291 3.19028 0
M  V30 1134 N 109.379 -1.50304 -0.473955 0
M  V30 1135 C 110.342 -1.6841 -1.55469 0
M  V30 1136 C 111.342 -0.554905 -1.50922 0
M  V30 1137 O 112.532 -0.821882 -1.53593 0
M  V30 1138 C 109.664 -1.70667 -2.95102 0
M  V30 1139 H 110.857 -2.64828 -1.40733 0
M  V30 1140 H 108.41 -1.39742 -0.700132 0
M  V30 1141 H 109.145 -0.75932 -3.15285 0
M  V30 1142 H 108.93 -2.52698 -2.9981 0
M  V30 1143 H 110.42 -1.8664 -3.73571 0
M  V30 1144 N 110.857 0.726932 -1.39834 0
M  V30 1145 C 111.787 1.85405 -1.41941 0
M  V30 1146 C 112.768 1.67751 -0.281728 0
M  V30 1147 O 113.953 1.8795 -0.488717 0
M  V30 1148 C 111.083 3.23243 -1.2701 0
M  V30 1149 C 110.037 3.55549 -2.38262 0
M  V30 1150 C 109.363 4.9241 -2.08415 0
M  V30 1151 C 110.663 3.577 -3.80589 0
M  V30 1152 H 112.357 1.83899 -2.36266 0
M  V30 1153 H 109.903 0.883349 -1.13723 0
M  V30 1154 H 111.856 4.01775 -1.27103 0
M  V30 1155 H 110.58 3.25296 -0.291564 0
M  V30 1156 H 109.239 2.79351 -2.37399 0
M  V30 1157 H 108.887 4.91052 -1.0898 0
M  V30 1158 H 108.587 5.14992 -2.82943 0
M  V30 1159 H 110.111 5.73289 -2.10171 0
M  V30 1160 H 111.525 4.26293 -3.83337 0
M  V30 1161 H 109.922 3.91804 -4.54543 0
M  V30 1162 H 110.992 2.57328 -4.10987 0
M  V30 1163 N 112.336 1.25143 0.95797 0
M  V30 1164 C 113.585 1.0909 1.69654 0
M  V30 1165 C 113.898 -0.368548 1.92097 0
M  V30 1166 O 115.104 -0.649455 2.63618 0
M  V30 1167 C 113.56 1.90395 3.05414 0
M  V30 1168 C 113.168 3.4081 2.90779 0
M  V30 1169 C 114.912 1.82901 3.83076 0
M  V30 1170 C 112.819 4.14423 4.21909 0
M  V30 1171 H 111.749 0.404625 0.636235 0
M  V30 1172 H 114.4 1.4931 1.06672 0
M  V30 1173 H 112.782 1.42996 3.69281 0
M  V30 1174 H 113.956 3.95859 2.35865 0
M  V30 1175 H 112.271 3.49361 2.26575 0
M  V30 1176 H 114.868 2.35196 4.80195 0
M  V30 1177 H 115.211 0.796224 4.08615 0
M  V30 1178 H 115.744 2.28033 3.25954 0
M  V30 1179 H 112.483 5.18102 4.01561 0
M  V30 1180 H 112.003 3.64159 4.76601 0
M  V30 1181 H 113.682 4.21956 4.90471 0
M  V30 1182 N 113.814 -1.1601 1.06675 0
M  V30 1183 C 114.761 -2.20525 0.680967 0
M  V30 1184 C 115.731 -1.62904 -0.324283 0
M  V30 1185 O 116.916 -1.89615 -0.212294 0
M  V30 1186 C 114.056 -3.45013 0.0776551 0
M  V30 1187 C 113.169 -4.16863 1.13355 0
M  V30 1188 C 112.304 -5.2888 0.49597 0
M  V30 1189 C 111.343 -5.92537 1.53513 0
M  V30 1190 N 110.48 -6.96038 0.920631 0
M  V30 1191 H 115.32 -2.52876 1.57663 0
M  V30 1192 H 112.857 -1.24199 0.788223 0
M  V30 1193 H 114.815 -4.16193 -0.289704 0
M  V30 1194 H 113.445 -3.132 -0.781393 0
M  V30 1195 H 112.497 -3.44248 1.61857 0
M  V30 1196 H 113.809 -4.60294 1.92174 0
M  V30 1197 H 112.963 -6.06653 0.0758604 0
M  V30 1198 H 111.702 -4.86622 -0.324062 0
M  V30 1199 H 110.707 -5.13482 1.9651 0
M  V30 1200 H 111.932 -6.36873 2.35733 0
M  V30 1201 H 109.878 -6.55888 0.12138 0
M  V30 1202 H 109.795 -7.3786 1.64616 0
M  V30 1203 H 111.063 -7.77725 0.525795 0
M  V30 1204 N 115.292 -0.849877 -1.32721 0
M  V30 1205 C 116.541 -0.447175 -1.96681 0
M  V30 1206 C 116.854 1.00135 -1.68025 0
M  V30 1207 O 118.06 1.50926 -2.25685 0
M  V30 1208 C 116.516 -0.7487 -3.52026 0
M  V30 1209 C 116.124 -2.21264 -3.89546 0
M  V30 1210 C 117.868 -0.413487 -4.22481 0
M  V30 1211 C 115.775 -2.45763 -5.37917 0
M  V30 1212 H 114.705 -0.163486 -0.736063 0
M  V30 1213 H 117.356 -1.03999 -1.51183 0
M  V30 1214 H 115.738 -0.0853727 -3.95908 0
M  V30 1215 H 116.912 -2.91736 -3.56689 0
M  V30 1216 H 115.227 -2.5119 -3.32103 0
M  V30 1217 H 117.824 -0.574017 -5.3161 0
M  V30 1218 H 118.167 0.644492 -4.11281 0
M  V30 1219 H 118.7 -1.03251 -3.84167 0
M  V30 1220 H 115.439 -3.50168 -5.54132 0
M  V30 1221 H 114.959 -1.79864 -5.72197 0
M  V30 1222 H 116.638 -2.29471 -6.0494 0
M  V30 1223 N 116.77 1.45427 -0.607355 0
M  V30 1224 C 117.717 2.3053 0.111625 0
M  V30 1225 C 118.687 1.4209 0.860216 0
M  V30 1226 O 119.872 1.71019 0.845998 0
M  V30 1227 C 117.012 3.26992 1.10319 0
M  V30 1228 C 116.125 4.30535 0.355493 0
M  V30 1229 C 115.26 5.14105 1.33676 0
M  V30 1230 C 114.299 6.09376 0.576862 0
M  V30 1231 N 113.436 6.85727 1.5074 0
M  V30 1232 H 118.276 2.91477 -0.620093 0
M  V30 1233 H 115.813 1.43631 -0.317594 0
M  V30 1234 H 117.771 3.81385 1.6912 0
M  V30 1235 H 116.401 2.67799 1.80232 0
M  V30 1236 H 115.453 3.78805 -0.348023 0
M  V30 1237 H 116.765 4.98235 -0.237423 0
M  V30 1238 H 115.919 5.72897 1.99684 0
M  V30 1239 H 114.658 4.46423 1.9636 0
M  V30 1240 H 113.663 5.49715 -0.0968519 0
M  V30 1241 H 114.888 6.79085 -0.0449341 0
M  V30 1242 H 112.834 6.20735 2.12189 0
M  V30 1243 H 112.751 7.49778 0.967913 0
M  V30 1244 H 114.019 7.4906 2.15706 0
M  V30 1245 N 118.248 0.346503 1.53744 0
M  V30 1246 C 119.196 -0.52422 2.26616 0
M  V30 1247 C 120.19 -1.09948 1.28871 0
M  V30 1248 O 121.396 -1.04488 1.46568 0
M  V30 1249 H 117.771 -0.187743 0.728187 0
M  V30 1250 H 119.742 0.11239 2.98188 0
M  V30 1251 C 118.491 -1.66186 3.05414 0
M  V30 1252 H 117.814 -1.22848 3.80458 0
M  V30 1253 H 119.254 -2.24622 3.59612 0
M  V30 1254 C 117.713 -2.59302 2.1509 0
M  V30 1255 O 118.243 -3.61628 1.74895 0
M  V30 1256 N 116.449 -2.28055 1.8011 0
M  V30 1257 H 115.996 -1.44883 2.12994 0
M  V30 1258 H 115.954 -2.90615 1.19958 0
M  V30 1259 N 119.726 -1.57421 0.075193 0
M  V30 1260 C 120.636 -2.1642 -0.905511 0
M  V30 1261 C 121.652 -1.12828 -1.32461 0
M  V30 1262 O 122.828 -1.45109 -1.39661 0
M  V30 1263 C 119.893 -2.71693 -2.15369 0
M  V30 1264 C 118.954 -3.90171 -1.79068 0
M  V30 1265 C 118.187 -4.42798 -2.97936 0
M  V30 1266 O 118.41 -3.94416 -4.12058 0
M  V30 1267 O 117.344 -5.34085 -2.77555 0
M  V30 1268 H 121.17 -3.00588 -0.433626 0
M  V30 1269 H 118.755 -1.48664 -0.148067 0
M  V30 1270 H 120.637 -3.07104 -2.88557 0
M  V30 1271 H 119.312 -1.90582 -2.61649 0
M  V30 1272 H 118.219 -3.59606 -1.03122 0
M  V30 1273 H 119.552 -4.72584 -1.37569 0
M  V30 1274 N 121.204 0.198386 -1.56346 0
M  V30 1275 C 122.45 0.920648 -1.80698 0
M  V30 1276 C 122.783 1.83045 -0.648697 0
M  V30 1277 O 122.058 1.91308 0.350925 0
M  V30 1278 C 122.341 1.73971 -3.15287 0
M  V30 1279 C 122.194 0.85485 -4.41602 0
M  V30 1280 C 123.513 2.71296 -3.46535 0
M  V30 1281 H 120.632 0.333261 -0.657348 0
M  V30 1282 H 123.274 0.188198 -1.89066 0
M  V30 1283 H 121.424 2.36416 -3.08285 0
M  V30 1284 H 123.096 0.245362 -4.60647 0
M  V30 1285 H 121.339 0.161398 -4.335 0
M  V30 1286 H 122.01 1.46286 -5.32264 0
M  V30 1287 H 124.486 2.18983 -3.53816 0
M  V30 1288 H 123.362 3.2569 -4.41834 0
M  V30 1289 H 123.623 3.5018 -2.69864 0
M  V30 1290 N 122.682 1.50554 0.465978 0
M  V30 1291 C 123.959 1.5232 1.22712 0
M  V30 1292 C 124.339 0.270807 2.09356 0
M  V30 1293 O 123.687 -0.745541 2.15995 0
M  V30 1294 C 123.897 2.82175 2.05374 0
M  V30 1295 C 125.245 3.33033 2.6339 0
M  V30 1296 O 126.269 2.83531 2.15612 0
M  V30 1297 O 125.128 4.19336 3.50456 0
M  V30 1298 H 122.222 0.611183 0.557122 0
M  V30 1299 H 124.768 1.62847 0.477381 0
M  V30 1300 H 123.54 3.64797 1.41558 0
M  V30 1301 H 123.163 2.74675 2.87471 0
M  V30 1302 N 124.16 -0.719506 1.40217 0
M  V30 1303 C 125.385 -1.51371 1.4178 0
M  V30 1304 C 125.81 -1.88091 0.0182355 0
M  V30 1305 O 125.168 -1.52997 -0.972707 0
M  V30 1306 C 125.216 -2.768 2.31115 0
M  V30 1307 O 124.32 -3.73349 1.7517 0
M  V30 1308 H 123.661 -0.456529 0.482159 0
M  V30 1309 H 126.191 -0.88644 1.844 0
M  V30 1310 H 126.201 -3.25371 2.46167 0
M  V30 1311 H 124.876 -2.49407 3.3282 0
M  V30 1312 H 123.453 -3.32179 1.69444 0
M  V30 1313 N 125.638 -1.25649 -0.95132 0
M  V30 1314 C 126.866 -1.13343 -1.73092 0
M  V30 1315 C 127.281 0.312434 -1.86197 0
M  V30 1316 O 126.638 1.21465 -1.36207 0
M  V30 1317 C 126.689 -1.78602 -3.14299 0
M  V30 1318 O 126.41 -3.17537 -3.01831 0
M  V30 1319 C 127.911 -1.72119 -4.08522 0
M  V30 1320 H 125.131 -0.395181 -0.542285 0
M  V30 1321 H 127.675 -1.66076 -1.19328 0
M  V30 1322 H 125.83 -1.29832 -3.64996 0
M  V30 1323 H 126.244 -3.49676 -3.90931 0
M  V30 1324 H 127.718 -2.22435 -5.052 0
M  V30 1325 H 128.195 -0.685635 -4.33815 0
M  V30 1326 H 128.801 -2.20393 -3.63741 0
M  V30 1327 N 127.117 1.15442 -1.07289 0
M  V30 1328 C 128.047 2.22312 -0.714107 0
M  V30 1329 C 129.028 1.67467 0.298155 0
M  V30 1330 O 130.213 1.93445 0.171048 0
M  V30 1331 C 127.343 3.47124 -0.110448 0
M  V30 1332 C 126.297 4.14926 -1.04979 0
M  V30 1333 C 125.623 5.33807 -0.308924 0
M  V30 1334 C 126.923 4.64762 -2.38314 0
M  V30 1335 H 128.617 2.5258 -1.6076 0
M  V30 1336 H 126.163 1.21404 -0.77441 0
M  V30 1337 H 128.116 4.21124 0.152482 0
M  V30 1338 H 126.84 3.16187 0.81812 0
M  V30 1339 H 125.499 3.42866 -1.29764 0
M  V30 1340 H 125.147 4.99126 0.623084 0
M  V30 1341 H 124.847 5.80113 -0.935036 0
M  V30 1342 H 126.371 6.10576 -0.0537771 0
M  V30 1343 H 127.785 5.30292 -2.1786 0
M  V30 1344 H 126.182 5.21728 -2.96514 0
M  V30 1345 H 127.252 3.80434 -3.00663 0
M  V30 1346 N 128.595 0.856903 1.32268 0
M  V30 1347 C 129.823 0.475439 2.01363 0
M  V30 1348 C 130.238 -0.928486 1.64392 0
M  V30 1349 O 129.595 -1.60624 0.866387 0
M  V30 1350 C 129.646 0.607545 3.56358 0
M  V30 1351 O 129.367 1.95617 3.92002 0
M  V30 1352 C 130.868 0.225382 4.42727 0
M  V30 1353 H 128.088 0.186636 0.644521 0
M  V30 1354 H 130.632 1.15446 1.68797 0
M  V30 1355 H 128.787 -0.0237719 3.87393 0
M  V30 1356 H 129.201 1.95455 4.86721 0
M  V30 1357 H 130.675 0.368813 5.50767 0
M  V30 1358 H 131.152 -0.834369 4.31202 0
M  V30 1359 H 131.758 0.831864 4.17085 0
M  V30 1360 N 130.073 -1.45103 0.615059 0
M  V30 1361 C 131.32 -2.02183 0.113179 0
M  V30 1362 C 131.648 -1.48249 -1.25906 0
M  V30 1363 O 130.903 -0.650265 -1.84581 0
M  V30 1364 C 131.202 -3.57386 0.0318797 0
M  V30 1365 C 130.868 -4.30505 1.34077 0
M  V30 1366 C 129.53 -4.50197 1.69929 0
M  V30 1367 C 131.882 -4.72238 2.20546 0
M  V30 1368 C 129.21 -5.08881 2.91988 0
M  V30 1369 C 131.562 -5.32272 3.41861 0
M  V30 1370 C 130.226 -5.50187 3.77956 0
M  V30 1371 H 129.496 -0.739842 0.0414151 0
M  V30 1372 H 132.143 -1.74073 0.798168 0
M  V30 1373 H 130.448 -3.84817 -0.736409 0
M  V30 1374 H 132.145 -3.99264 -0.372712 0
M  V30 1375 H 128.735 -4.15496 1.05173 0
M  V30 1376 H 132.919 -4.56751 1.94146 0
M  V30 1377 H 128.175 -5.20939 3.2005 0
M  V30 1378 H 132.349 -5.63563 4.09109 0
M  V30 1379 H 129.976 -5.95427 4.72622 0
M  V30 1380 N 131.551 -0.354651 -1.53558 0
M  V30 1381 C 132.967 -0.00315426 -1.596 0
M  V30 1382 C 133.167 1.47741 -1.37021 0
M  V30 1383 O 132.223 2.23759 -1.16996 0
M  V30 1384 C 133.536 -0.44929 -2.97325 0
M  V30 1385 C 135.084 -0.402578 -3.104 0
M  V30 1386 C 135.559 -0.824355 -4.5052 0
M  V30 1387 N 137.05 -0.778979 -4.56603 0
M  V30 1388 C 137.785 -1.07715 -5.63192 0
M  V30 1389 N 137.281 -1.44405 -6.77583 0
M  V30 1390 N 139.074 -1.00066 -5.53121 0
M  V30 1391 H 131.225 -1.31893 -1.66487 0
M  V30 1392 H 133.488 -0.538388 -0.780284 0
M  V30 1393 H 133.194 -1.48202 -3.1895 0
M  V30 1394 H 133.068 0.169772 -3.76818 0
M  V30 1395 H 135.455 0.621004 -2.88492 0
M  V30 1396 H 135.536 -1.05699 -2.32941 0
M  V30 1397 H 135.18 -1.846 -4.73165 0
M  V30 1398 H 135.11 -0.147304 -5.26394 0
M  V30 1399 H 137.601 -0.508528 -3.74463 0
M  V30 1400 H 137.914 -1.65612 -7.54846 0
M  V30 1401 H 136.259 -1.4826 -6.79002 0
M  V30 1402 H 139.45 -0.713293 -4.62633 0
M  V30 1403 H 139.623 -1.23638 -6.36096 0
M  V30 1404 N 133.029 1.57378 -0.0835403 0
M  V30 1405 C 134.445 1.57246 0.273109 0
M  V30 1406 C 134.645 1.09385 1.69225 0
M  V30 1407 O 133.701 0.765051 2.40631 0
M  V30 1408 C 135.014 3.00614 0.0720628 0
M  V30 1409 C 136.562 3.12684 0.1407 0
M  V30 1410 C 137.037 4.57989 -0.0322094 0
M  V30 1411 N 138.528 4.63194 0.0230085 0
M  V30 1412 C 139.263 5.73335 -0.0861941 0
M  V30 1413 N 138.759 6.9235 -0.24958 0
M  V30 1414 N 140.552 5.62093 -0.0282886 0
M  V30 1415 H 132.703 1.86801 -1.0109 0
M  V30 1416 H 134.966 0.861687 -0.395222 0
M  V30 1417 H 134.672 3.39786 -0.907662 0
M  V30 1418 H 134.546 3.68193 0.81936 0
M  V30 1419 H 136.933 2.73391 1.11092 0
M  V30 1420 H 137.014 2.47719 -0.637896 0
M  V30 1421 H 136.658 4.97973 -0.999247 0
M  V30 1422 H 136.588 5.21 0.765937 0
M  V30 1423 H 139.079 3.77613 0.14722 0
M  V30 1424 H 139.392 7.72117 -0.324733 0
M  V30 1425 H 137.737 6.94415 -0.285097 0
M  V30 1426 H 140.928 4.67997 0.0981408 0
M  V30 1427 H 141.101 6.47895 -0.116845 0
M  V30 1428 N 134.507 -0.190092 1.56449 0
M  V30 1429 C 135.732 -0.929864 1.85387 0
M  V30 1430 C 136.157 -1.7585 0.667704 0
M  V30 1431 O 135.515 -1.77198 -0.383459 0
M  V30 1432 C 135.563 -1.79773 3.12593 0
M  V30 1433 O 134.667 -2.89713 2.93496 0
M  V30 1434 H 134.008 -0.261574 0.610307 0
M  V30 1435 H 136.538 -0.193896 2.03679 0
M  V30 1436 H 136.548 -2.20139 3.43515 0
M  V30 1437 H 135.223 -1.18892 3.98544 0
M  V30 1438 H 133.8 -2.53065 2.73884 0
M  V30 1439 N 135.985 -1.50799 -0.457987 0
M  V30 1440 C 137.225 -1.64088 -1.21879 0
M  V30 1441 C 137.589 -0.339848 -1.88968 0
M  V30 1442 O 138.79 -0.348301 -2.66534 0
M  V30 1443 C 137.061 -2.79726 -2.2246 0
M  V30 1444 S 138.62 -3.13225 -3.07303 0
M  V30 1445 H 135.438 -0.578314 -0.41361 0
M  V30 1446 H 138.04 -1.88632 -0.513645 0
M  V30 1447 H 136.744 -3.72722 -1.71775 0
M  V30 1448 H 136.275 -2.57308 -2.97584 0
M  V30 1449 H 138.29 -2.58062 -4.23814 0
M  V30 1450 N 137.463 0.71206 -1.40597 0
M  V30 1451 C 138.879 1.02058 -1.22704 0
M  V30 1452 C 139.079 2.01228 -0.104729 0
M  V30 1453 O 138.135 2.4674 0.53624 0
M  V30 1454 C 139.448 1.56094 -2.57012 0
M  V30 1455 C 140.996 1.6806 -2.64054 0
M  V30 1456 C 141.471 2.25501 -3.9864 0
M  V30 1457 N 142.962 2.32882 -4.004 0
M  V30 1458 C 143.697 2.78317 -5.01325 0
M  V30 1459 N 143.193 3.23478 -6.12645 0
M  V30 1460 N 144.986 2.77733 -4.88693 0
M  V30 1461 H 137.137 0.0547896 -2.12329 0
M  V30 1462 H 139.4 0.0869027 -0.944008 0
M  V30 1463 H 139.106 0.906865 -3.39807 0
M  V30 1464 H 138.98 2.54564 -2.78347 0
M  V30 1465 H 141.367 2.32583 -1.81629 0
M  V30 1466 H 141.448 0.681802 -2.46546 0
M  V30 1467 H 141.092 1.61598 -4.81506 0
M  V30 1468 H 141.022 3.26102 -4.13479 0
M  V30 1469 H 143.513 2.00991 -3.20017 0
M  V30 1470 H 143.826 3.56725 -6.85542 0
M  V30 1471 H 142.171 3.21429 -6.16205 0
M  V30 1472 H 145.362 2.4179 -4.00818 0
M  V30 1473 H 145.535 3.12826 -5.67489 0
M  V30 1474 N 138.941 1.26152 0.944643 0
M  V30 1475 C 139.851 1.09176 2.07648 0
M  V30 1476 C 140.867 0.0261935 1.7398 0
M  V30 1477 O 142.043 0.229208 2.00091 0
M  V30 1478 C 139.108 0.722915 3.39079 0
M  V30 1479 C 138.169 1.86752 3.86552 0
M  V30 1480 C 137.402 1.51617 5.11711 0
M  V30 1481 O 137.625 0.416331 5.68879 0
M  V30 1482 O 136.559 2.34975 5.54139 0
M  V30 1483 H 140.385 2.0412 2.24875 0
M  V30 1484 H 137.97 1.05182 1.061 0
M  V30 1485 H 139.852 0.529787 4.18056 0
M  V30 1486 H 138.527 -0.197159 3.23099 0
M  V30 1487 H 137.434 2.11558 3.08535 0
M  V30 1488 H 138.767 2.76719 4.07047 0
M  V30 1489 N 140.419 -1.14872 1.07899 0
M  V30 1490 C 141.667 -1.85422 0.803941 0
M  V30 1491 C 141.988 -1.83051 -0.67211 0
M  V30 1492 O 141.258 -1.27532 -1.48703 0
M  V30 1493 H 139.838 -0.686537 0.294408 0
M  V30 1494 H 142.5 -1.39226 1.3639 0
M  V30 1495 H 141.596 -2.90399 1.14346 0
M  V30 1496 N 141.898 -0.863906 -1.31812 0
M  V30 1497 C 143.147 -0.46801 -1.96195 0
M  V30 1498 C 143.46 0.983474 -1.69077 0
M  V30 1499 O 144.666 1.48523 -2.27273 0
M  V30 1500 C 143.122 -0.785995 -3.51212 0
M  V30 1501 C 142.73 -2.25383 -3.87178 0
M  V30 1502 C 144.474 -0.458274 -4.22019 0
M  V30 1503 C 142.381 -2.51455 -5.3528 0
M  V30 1504 H 141.311 -0.171283 -0.734287 0
M  V30 1505 H 143.962 -1.05597 -1.50072 0
M  V30 1506 H 142.344 -0.127359 -3.95795 0
M  V30 1507 H 143.518 -2.95502 -3.53575 0
M  V30 1508 H 141.833 -2.54698 -3.2942 0
M  V30 1509 H 144.43 -0.630369 -5.30971 0
M  V30 1510 H 144.773 0.600834 -4.11941 0
M  V30 1511 H 145.306 -1.07319 -3.8305 0
M  V30 1512 H 142.045 -3.56025 -5.50387 0
M  V30 1513 H 141.565 -1.85923 -5.70257 0
M  V30 1514 H 143.244 -2.35874 -6.02472 0
M  V30 1515 N 143.376 1.44774 -0.622745 0
M  V30 1516 C 144.616 2.04004 -0.127102 0
M  V30 1517 C 144.98 1.47862 1.22478 0
M  V30 1518 O 146.181 1.98541 1.81204 0
M  V30 1519 C 144.452 3.57247 -0.104429 0
M  V30 1520 S 146.011 4.37574 0.327814 0
M  V30 1521 H 142.829 0.708713 -0.0569776 0
M  V30 1522 H 145.431 1.77275 -0.824253 0
M  V30 1523 H 144.135 3.95616 -1.09159 0
M  V30 1524 H 143.666 3.88575 0.614236 0
M  V30 1525 H 145.681 4.70575 1.57395 0
M  V30 1526 N 144.854 0.36279 1.53368 0
M  V30 1527 C 146.102 -0.227326 2.00817 0
M  V30 1528 C 146.423 -1.49511 1.25186 0
M  V30 1529 O 145.693 -1.92482 0.364348 0
M  V30 1530 H 144.273 -0.0869923 0.741917 0
M  V30 1531 H 146.935 0.488381 1.88682 0
M  V30 1532 H 146.031 -0.456273 3.08747 0
M  V30 1533 N 146.332 -1.57332 0.0918853 0
M  V30 1534 C 147.557 -1.98995 -0.584442 0
M  V30 1535 C 147.982 -0.970528 -1.61128 0
M  V30 1536 O 147.34 0.0613904 -1.81196 0
M  V30 1537 C 147.388 -3.39636 -1.21161 0
M  V30 1538 O 146.492 -3.40447 -2.32744 0
M  V30 1539 H 145.833 -0.647165 -0.148572 0
M  V30 1540 H 148.363 -2.03873 0.172347 0
M  V30 1541 H 148.373 -3.7726 -1.55367 0
M  V30 1542 H 147.048 -4.13356 -0.459313 0
M  V30 1543 H 145.625 -3.14614 -2.0018 0
M  V30 1544 N 147.81 0.181792 -1.56548 0
M  V30 1545 C 149.05 0.906711 -1.83189 0
M  V30 1546 C 149.414 1.79882 -0.671312 0
M  V30 1547 O 150.615 2.56054 -0.81792 0
M  V30 1548 C 148.886 1.69023 -3.14906 0
M  V30 1549 S 150.445 2.46535 -3.62996 0
M  V30 1550 H 147.263 0.303877 -0.642791 0
M  V30 1551 H 149.865 0.169107 -1.94767 0
M  V30 1552 H 148.569 1.02571 -3.97376 0
M  V30 1553 H 148.1 2.46941 -3.06241 0
M  V30 1554 H 150.115 3.71014 -3.29489 0
M  V30 1555 N 149.288 1.51039 0.449983 0
M  V30 1556 C 150.251 1.70863 1.5277 0
M  V30 1557 C 151.251 0.578846 1.5002 0
M  V30 1558 O 152.441 0.846213 1.52266 0
M  V30 1559 C 149.573 1.75341 2.9235 0
M  V30 1560 H 150.766 2.67034 1.36502 0
M  V30 1561 H 148.319 1.40838 0.677812 0
M  V30 1562 H 149.054 0.809383 3.14037 0
M  V30 1563 H 148.839 2.57436 2.95752 0
M  V30 1564 H 150.329 1.92559 3.70555 0
M  V30 1565 N 150.766 -0.704594 1.40972 0
M  V30 1566 C 151.699 -1.82861 1.36518 0
M  V30 1567 C 152.677 -1.6091 0.23382 0
M  V30 1568 O 153.861 -1.83778 0.419271 0
M  V30 1569 C 150.988 -3.1939 1.12729 0
M  V30 1570 C 150.034 -3.60148 2.28463 0
M  V30 1571 S 150.867 -3.65994 3.90907 0
M  V30 1572 C 152.023 -5.05264 3.69403 0
M  V30 1573 H 152.256 -1.86361 2.3164 0
M  V30 1574 H 149.789 -0.872439 1.27389 0
M  V30 1575 H 151.747 -3.98211 0.996893 0
M  V30 1576 H 150.408 -3.1351 0.192427 0
M  V30 1577 H 149.601 -4.59309 2.07489 0
M  V30 1578 H 149.203 -2.88612 2.37863 0
M  V30 1579 H 151.495 -5.92504 3.28551 0
M  V30 1580 H 152.438 -5.31278 4.68134 0
M  V30 1581 H 152.846 -4.76377 3.02862 0
M  V30 1582 N 152.244 -1.26651 -0.937939 0
M  V30 1583 C 153.192 -1.08308 -2.05845 0
M  V30 1584 C 154.186 -0.0090757 -1.69398 0
M  V30 1585 O 155.392 -0.166007 -1.79233 0
M  V30 1586 H 151.767 -0.333416 -0.674046 0
M  V30 1587 H 153.738 -2.03261 -2.18467 0
M  V30 1588 C 152.487 -0.736229 -3.39816 0
M  V30 1589 H 151.81 -1.55453 -3.6834 0
M  V30 1590 H 153.25 -0.64769 -4.19024 0
M  V30 1591 C 151.709 0.558824 -3.32233 0
M  V30 1592 O 152.239 1.59621 -3.68624 0
M  V30 1593 N 150.445 0.550657 -2.85335 0
M  V30 1594 H 149.992 -0.293943 -2.55917 0
M  V30 1595 H 149.95 1.41726 -2.80644 0
M  V30 1596 N 153.722 1.14298 -1.08507 0
M  V30 1597 C 154.971 1.84708 -0.810305 0
M  V30 1598 C 155.284 1.83903 0.666271 0
M  V30 1599 O 156.49 2.50112 1.05624 0
M  V30 1600 C 154.946 3.31572 -1.39957 0
M  V30 1601 C 154.554 3.40791 -2.90801 0
M  V30 1602 C 156.298 4.07087 -1.20334 0
M  V30 1603 C 154.205 4.81872 -3.4286 0
M  V30 1604 H 153.135 0.691985 -0.299454 0
M  V30 1605 H 155.786 1.28841 -1.30661 0
M  V30 1606 H 154.168 3.87183 -0.830976 0
M  V30 1607 H 155.342 2.95225 -3.53806 0
M  V30 1608 H 153.657 2.78732 -3.0935 0
M  V30 1609 H 156.254 5.11225 -1.56693 0
M  V30 1610 H 156.597 4.16054 -0.143237 0
M  V30 1611 H 157.13 3.57779 -1.73893 0
M  V30 1612 H 153.869 4.78094 -4.48449 0
M  V30 1613 H 153.389 5.27972 -2.84615 0
M  V30 1614 H 155.068 5.50765 -3.39509 0
M  V30 1615 N 155.201 0.870884 1.31352 0
M  V30 1616 C 156.149 0.316445 2.30437 0
M  V30 1617 C 157.143 -0.568965 1.59559 0
M  V30 1618 O 158.349 -0.454964 1.74155 0
M  V30 1619 H 154.724 0.0836521 0.747333 0
M  V30 1620 H 156.695 1.16606 2.74673 0
M  V30 1621 C 155.444 -0.46635 3.44558 0
M  V30 1622 H 154.767 0.205687 3.99271 0
M  V30 1623 H 156.207 -0.819614 4.16003 0
M  V30 1624 C 154.666 -1.65797 2.9328 0
M  V30 1625 O 155.196 -2.75728 2.92125 0
M  V30 1626 N 153.402 -1.49041 2.4947 0
M  V30 1627 H 152.949 -0.59612 2.50608 0
M  V30 1628 H 152.907 -2.28911 2.15516 0
M  V30 1629 N 156.679 -1.44442 0.630414 0
M  V30 1630 C 157.927 -2.01653 0.134351 0
M  V30 1631 C 158.248 -1.49836 -1.24796 0
M  V30 1632 O 157.518 -0.701684 -1.82902 0
M  V30 1633 H 156.098 -0.74554 0.0466769 0
M  V30 1634 H 158.76 -1.76952 0.816955 0
M  V30 1635 H 157.856 -3.11935 0.101498 0
M  V30 1636 N 158.157 -0.370918 -1.53173 0
M  V30 1637 C 159.405 0.216673 -2.00935 0
M  V30 1638 C 159.726 1.48845 -1.25977 0
M  V30 1639 O 158.996 1.92286 -0.374551 0
M  V30 1640 H 157.576 0.0830565 -0.742368 0
M  V30 1641 H 160.238 -0.49838 -1.8842 0
M  V30 1642 H 159.334 0.439893 -3.08984 0
M  V30 1643 N 159.635 1.57281 -0.100228 0
M  V30 1644 C 160.583 2.15542 0.874328 0
M  V30 1645 C 161.577 1.09962 1.28859 0
M  V30 1646 O 162.783 1.28298 1.26252 0
M  V30 1647 H 159.158 0.689567 0.300003 0
M  V30 1648 H 161.129 2.96241 0.35829 0
M  V30 1649 C 159.878 2.75454 2.1218 0
M  V30 1650 H 159.201 3.56384 1.81193 0
M  V30 1651 H 160.641 3.19781 2.78417 0
M  V30 1652 C 159.1 1.71602 2.89921 0
M  V30 1653 O 159.63 1.15804 3.84646 0
M  V30 1654 N 157.836 1.41975 2.53558 0
M  V30 1655 H 157.383 1.87539 1.76598 0
M  V30 1656 H 157.341 0.727274 3.05873 0
M  V30 1657 N 161.113 -0.173488 1.56642 0
M  V30 1658 C 162.341 -0.906095 1.86004 0
M  V30 1659 C 162.756 -1.75921 0.685355 0
M  V30 1660 O 162.113 -1.79198 -0.345578 0
M  V30 1661 C 162.164 -1.78462 3.14378 0
M  V30 1662 O 161.885 -0.965914 4.27319 0
M  V30 1663 C 163.386 -2.62707 3.57071 0
M  V30 1664 H 160.606 -0.263341 0.617165 0
M  V30 1665 H 163.15 -0.174236 2.03756 0
M  V30 1666 H 161.305 -2.46984 2.98459 0
M  V30 1667 H 161.719 -1.56655 5.00559 0
M  V30 1668 H 163.193 -3.19969 4.49804 0
M  V30 1669 H 163.67 -3.37472 2.81086 0
M  V30 1670 H 164.276 -1.99521 3.75595 0
M  V30 1671 N 162.591 -1.51276 -0.441967 0
M  V30 1672 C 163.521 -1.752 -1.54361 0
M  V30 1673 C 164.502 -0.601682 -1.59103 0
M  V30 1674 O 165.687 -0.843913 -1.74905 0
M  V30 1675 C 162.817 -1.87282 -2.92477 0
M  V30 1676 C 161.771 -3.02687 -3.02596 0
M  V30 1677 C 161.097 -2.99947 -4.42647 0
M  V30 1678 C 162.397 -4.4273 -2.77106 0
M  V30 1679 H 164.091 -2.67442 -1.34592 0
M  V30 1680 H 161.637 -1.28694 -0.646048 0
M  V30 1681 H 163.59 -2.02602 -3.695 0
M  V30 1682 H 162.314 -0.916844 -3.13467 0
M  V30 1683 H 160.973 -2.87065 -2.28012 0
M  V30 1684 H 160.621 -2.02136 -4.60597 0
M  V30 1685 H 160.321 -3.77439 -4.50348 0
M  V30 1686 H 161.845 -3.17354 -5.2165 0
M  V30 1687 H 163.259 -4.58727 -3.43864 0
M  V30 1688 H 161.656 -5.21893 -2.96222 0
M  V30 1689 H 162.726 -4.53087 -1.72744 0
M  V30 1690 N 164.069 0.697108 -1.41344 0
M  V30 1691 C 165.032 1.79281 -1.42797 0
M  V30 1692 C 166.032 1.57607 -0.318837 0
M  V30 1693 O 167.222 1.64309 -0.578642 0
M  V30 1694 C 164.354 3.17632 -1.23785 0
M  V30 1695 H 165.547 1.79385 -2.40335 0
M  V30 1696 H 163.1 0.904582 -1.27464 0
M  V30 1697 H 163.835 3.23167 -0.270814 0
M  V30 1698 H 163.62 3.34765 -2.04144 0
M  V30 1699 H 165.11 3.97617 -1.27633 0
M  V30 1700 N 165.547 1.27147 0.931209 0
M  V30 1701 C 166.787 1.14511 1.69312 0
M  V30 1702 C 167.151 -0.304638 1.89568 0
M  V30 1703 O 168.352 -0.553343 2.63043 0
M  V30 1704 C 166.623 1.90349 3.02493 0
M  V30 1705 S 168.182 1.93884 3.93642 0
M  V30 1706 H 165 0.408858 0.581684 0
M  V30 1707 H 167.602 1.61006 1.10893 0
M  V30 1708 H 166.306 2.94877 2.85439 0
M  V30 1709 H 165.837 1.44333 3.65966 0
M  V30 1710 H 167.852 1.03273 4.85334 0
M  V30 1711 N 167.025 -1.13721 1.09112 0
M  V30 1712 C 168.253 -1.88773 0.846899 0
M  V30 1713 C 168.668 -1.7896 -0.601572 0
M  V30 1714 O 168.025 -1.15394 -1.41388 0
M  V30 1715 C 168.076 -3.3849 1.26913 0
M  V30 1716 O 167.797 -3.48043 2.66079 0
M  V30 1717 C 169.298 -4.30518 1.05682 0
M  V30 1718 H 166.518 -0.59772 0.304914 0
M  V30 1719 H 169.062 -1.43977 1.45227 0
M  V30 1720 H 167.217 -3.80881 0.707723 0
M  V30 1721 H 167.631 -4.4109 2.83795 0
M  V30 1722 H 169.105 -5.3391 1.40156 0
M  V30 1723 H 169.582 -4.392 -0.00563416 0
M  V30 1724 H 170.188 -3.93893 1.60402 0
M  V30 1725 N 168.503 -0.877838 -1.30888 0
M  V30 1726 C 169.919 -0.570844 -1.49042 0
M  V30 1727 C 170.119 0.893159 -1.80624 0
M  V30 1728 O 169.175 1.67485 -1.88958 0
M  V30 1729 C 170.488 -1.47784 -2.61878 0
M  V30 1730 C 172.036 -1.48071 -2.75761 0
M  V30 1731 C 172.511 -2.37347 -3.91702 0
M  V30 1732 N 174.002 -2.35271 -3.99001 0
M  V30 1733 C 174.737 -3.01063 -4.88004 0
M  V30 1734 N 174.233 -3.76055 -5.81854 0
M  V30 1735 N 176.026 -2.90332 -4.81315 0
M  V30 1736 H 168.177 -1.82502 -1.0866 0
M  V30 1737 H 170.44 -0.780797 -0.537644 0
M  V30 1738 H 170.146 -2.51993 -2.45341 0
M  V30 1739 H 170.02 -1.18215 -3.58197 0
M  V30 1740 H 172.407 -0.446166 -2.91708 0
M  V30 1741 H 172.488 -1.81668 -1.80085 0
M  V30 1742 H 172.132 -3.40883 -3.76512 0
M  V30 1743 H 172.062 -2.01071 -4.86701 0
M  V30 1744 H 174.553 -1.80768 -3.3186 0
M  V30 1745 H 174.866 -4.23366 -6.46514 0
M  V30 1746 H 173.211 -3.80163 -5.81808 0
M  V30 1747 H 176.402 -2.31278 -4.06974 0
M  V30 1748 H 176.575 -3.41885 -5.50471 0
M  V30 1749 N 169.982 1.44106 -0.638065 0
M  V30 1750 C 171.398 1.56672 -0.304286 0
M  V30 1751 C 171.598 1.6244 1.19228 0
M  V30 1752 O 170.654 1.57121 1.9766 0
M  V30 1753 C 171.967 2.83503 -1.00231 0
M  V30 1754 C 173.515 2.97226 -0.981116 0
M  V30 1755 C 173.99 4.26868 -1.65974 0
M  V30 1756 N 175.481 4.33698 -1.62666 0
M  V30 1757 C 176.216 5.32745 -2.12063 0
M  V30 1758 N 175.712 6.38157 -2.6968 0
M  V30 1759 N 177.505 5.24299 -2.02651 0
M  V30 1760 H 169.656 1.38605 -1.60942 0
M  V30 1761 H 171.919 0.664661 -0.675965 0
M  V30 1762 H 171.625 2.85251 -2.0573 0
M  V30 1763 H 171.499 3.73251 -0.54439 0
M  V30 1764 H 173.886 2.95027 0.0654188 0
M  V30 1765 H 173.967 2.08808 -1.47759 0
M  V30 1766 H 173.611 4.29826 -2.70576 0
M  V30 1767 H 173.541 5.14156 -1.13804 0
M  V30 1768 H 176.032 3.58138 -1.20606 0
M  V30 1769 H 176.345 7.10029 -3.05087 0
M  V30 1770 H 174.69 6.38823 -2.73734 0
M  V30 1771 H 177.881 4.4086 -1.57353 0
M  V30 1772 H 178.054 6.01334 -2.41457 0
M  V30 1773 N 171.46 0.379036 1.52974 0
M  V30 1774 C 172.709 -0.207612 2.00629 0
M  V30 1775 C 173.022 -1.48758 1.27006 0
M  V30 1776 O 174.228 -2.15365 1.65318 0
M  V30 1777 C 172.684 -0.42053 3.57435 0
M  V30 1778 C 172.292 0.845587 4.39948 0
M  V30 1779 C 174.036 -0.964102 4.13407 0
M  V30 1780 C 171.943 0.601513 5.88333 0
M  V30 1781 H 170.873 -0.0813591 0.749598 0
M  V30 1782 H 173.524 0.499853 1.76561 0
M  V30 1783 H 171.906 -1.18959 3.7771 0
M  V30 1784 H 173.08 1.61848 4.31442 0
M  V30 1785 H 171.395 1.31336 3.95145 0
M  V30 1786 H 173.992 -1.16225 5.21916 0
M  V30 1787 H 174.335 -1.93019 3.68849 0
M  V30 1788 H 174.868 -0.25487 3.96983 0
M  V30 1789 H 171.607 1.53831 6.37194 0
M  V30 1790 H 171.127 -0.132628 5.99653 0
M  V30 1791 H 172.806 0.232134 6.46583 0
M  V30 1792 N 172.938 -1.57226 0.108567 0
M  V30 1793 C 174.215 -1.86333 -0.594939 0
M  V30 1794 C 174.595 -1.00788 -1.85486 0
M  V30 1795 O 173.943 -0.0839293 -2.28346 0
M  V30 1796 C 174.153 -3.37265 -0.897405 0
M  V30 1797 C 175.501 -4.05629 -1.25501 0
M  V30 1798 O 176.525 -3.42224 -0.987998 0
M  V30 1799 O 175.384 -5.17531 -1.75567 0
M  V30 1800 H 172.478 -0.771018 -0.2991 0
M  V30 1801 H 175.024 -1.69102 0.142283 0
M  V30 1802 H 173.796 -3.913 -0.00413806 0
M  V30 1803 H 173.419 -3.59889 -1.69014 0
M  V30 1804 N 174.416 0.165178 -1.56732 0
M  V30 1805 C 175.644 0.896218 -1.86482 0
M  V30 1806 C 176.059 1.75555 -0.694675 0
M  V30 1807 O 175.416 1.79379 0.33607 0
M  V30 1808 C 175.467 1.76792 -3.1532 0
M  V30 1809 O 175.188 0.943239 -4.27825 0
M  V30 1810 C 176.689 2.6081 -3.58459 0
M  V30 1811 H 173.909 0.260064 -0.618553 0
M  V30 1812 H 176.453 0.163428 -2.03846 0
M  V30 1813 H 174.608 2.45398 -2.99764 0
M  V30 1814 H 175.022 1.53998 -5.01383 0
M  V30 1815 H 176.496 3.17579 -4.51495 0
M  V30 1816 H 176.973 3.35977 -2.82872 0
M  V30 1817 H 177.579 1.97526 -3.76648 0
M  V30 1818 N 175.894 1.51508 0.433938 0
M  V30 1819 C 176.842 1.73646 1.54757 0
M  V30 1820 C 177.836 0.602854 1.5831 0
M  V30 1821 O 179.042 0.784318 1.62014 0
M  V30 1822 H 175.417 0.548718 0.51421 0
M  V30 1823 H 177.388 2.66991 1.33261 0
M  V30 1824 C 176.137 1.88172 2.92381 0
M  V30 1825 H 175.46 2.74808 2.90381 0
M  V30 1826 H 176.9 2.07672 3.6966 0
M  V30 1827 C 175.359 0.64239 3.30719 0
M  V30 1828 O 175.889 -0.201362 4.01195 0
M  V30 1829 N 174.095 0.485489 2.86516 0
M  V30 1830 H 173.642 1.17318 2.29334 0
M  V30 1831 H 173.6 -0.342482 3.12529 0
M  V30 1832 N 177.372 -0.689602 1.41712 0
M  V30 1833 C 178.302 -1.81577 1.46806 0
M  V30 1834 C 179.283 -1.66945 0.326105 0
M  V30 1835 O 180.468 -1.86588 0.538377 0
M  V30 1836 C 177.598 -3.19762 1.35535 0
M  V30 1837 C 176.552 -3.49107 2.47605 0
M  V30 1838 C 175.878 -4.86711 2.21397 0
M  V30 1839 C 177.178 -3.47483 3.89939 0
M  V30 1840 H 178.872 -1.7757 2.41058 0
M  V30 1841 H 176.418 -0.852887 1.16025 0
M  V30 1842 H 178.371 -3.98263 1.3771 0
M  V30 1843 H 177.095 -3.24409 0.377708 0
M  V30 1844 H 175.754 -2.72959 2.44722 0
M  V30 1845 H 175.402 -4.8799 1.21961 0
M  V30 1846 H 175.102 -5.0731 2.96497 0
M  V30 1847 H 176.626 -5.67515 2.25297 0
M  V30 1848 H 178.04 -4.1598 3.94505 0
M  V30 1849 H 176.437 -3.79615 4.64771 0
M  V30 1850 H 177.507 -2.46341 4.17665 0
M  V30 1851 N 178.85 -1.27639 -0.924453 0
M  V30 1852 C 179.798 -1.10485 -2.04685 0
M  V30 1853 C 180.792 -0.0270421 -1.69378 0
M  V30 1854 O 181.998 -0.185008 -1.79047 0
M  V30 1855 H 178.373 -0.340546 -0.670472 0
M  V30 1856 H 180.344 -2.05566 -2.16298 0
M  V30 1857 C 179.093 -0.772229 -3.39016 0
M  V30 1858 H 178.416 -1.59351 -3.66671 0
M  V30 1859 H 179.856 -0.692097 -4.18313 0
M  V30 1860 C 178.315 0.523554 -3.32807 0
M  V30 1861 O 178.845 1.55702 -3.70297 0
M  V30 1862 N 177.051 0.520363 -2.85903 0
M  V30 1863 H 176.598 -0.32107 -2.55591 0
M  V30 1864 H 176.556 1.38742 -2.82131 0
M  V30 1865 N 180.328 1.1314 -1.09713 0
M  V30 1866 C 181.275 2.18642 -0.739196 0
M  V30 1867 C 182.245 1.63706 0.280978 0
M  V30 1868 O 183.43 1.90111 0.161946 0
M  V30 1869 C 180.57 3.44685 -0.169102 0
M  V30 1870 C 179.683 4.13711 -1.24367 0
M  V30 1871 C 178.818 5.27379 -0.636019 0
M  V30 1872 C 177.857 5.88259 -1.69169 0
M  V30 1873 N 176.994 6.93352 -1.10485 0
M  V30 1874 H 181.834 2.48607 -1.64312 0
M  V30 1875 H 179.371 1.22066 -0.820875 0
M  V30 1876 H 181.329 4.16815 0.179256 0
M  V30 1877 H 179.959 3.15161 0.698079 0
M  V30 1878 H 179.011 3.39835 -1.70927 0
M  V30 1879 H 180.323 4.55037 -2.04311 0
M  V30 1880 H 179.477 6.06238 -0.236677 0
M  V30 1881 H 178.216 4.8731 0.194928 0
M  V30 1882 H 177.221 5.08092 -2.10055 0
M  V30 1883 H 178.446 6.30399 -2.52536 0
M  V30 1884 H 176.392 6.55335 -0.295234 0
M  V30 1885 H 176.309 7.33236 -1.84121 0
M  V30 1886 H 177.577 7.76057 -0.73181 0
M  V30 1887 N 181.806 0.884767 1.30421 0
M  V30 1888 C 183.052 0.503851 1.96441 0
M  V30 1889 C 183.385 -0.944518 1.69684 0
M  V30 1890 O 182.66 -1.66737 1.00145 0
M  V30 1891 C 182.943 0.779085 3.51571 0
M  V30 1892 C 182.796 2.27807 3.87846 0
M  V30 1893 C 184.115 0.255452 4.39358 0
M  V30 1894 H 181.234 0.184533 0.713524 0
M  V30 1895 H 183.876 1.10872 1.54297 0
M  V30 1896 H 182.026 0.264274 3.876 0
M  V30 1897 H 183.698 2.86127 3.61841 0
M  V30 1898 H 181.941 2.74479 3.35922 0
M  V30 1899 H 182.612 2.42125 4.96064 0
M  V30 1900 H 185.088 0.696079 4.10236 0
M  V30 1901 H 183.964 0.477361 5.4682 0
M  V30 1902 H 184.225 -0.843293 4.33983 0
M  V30 1903 N 183.284 -1.43765 0.645699 0
M  V30 1904 C 184.509 -2.06767 0.161883 0
M  V30 1905 C 184.934 -1.48034 -1.16049 0
M  V30 1906 O 184.292 -0.587369 -1.71522 0
M  V30 1907 C 184.34 -3.60519 0.0762003 0
M  V30 1908 O 183.444 -4.00982 -0.963721 0
M  V30 1909 H 182.785 -0.657675 0.091429 0
M  V30 1910 H 185.315 -1.84397 0.886499 0
M  V30 1911 H 185.325 -4.07853 -0.109604 0
M  V30 1912 H 184 -4.02646 1.04157 0
M  V30 1913 H 182.577 -3.65253 -0.751312 0
M  V30 1914 N 184.763 -0.387143 -1.52771 0
M  V30 1915 C 185.71 0.449048 -2.26389 0
M  V30 1916 C 186.68 1.05961 -1.27912 0
M  V30 1917 O 187.865 1.08804 -1.56737 0
M  V30 1918 C 185.005 1.57155 -3.0724 0
M  V30 1919 C 184.118 0.984066 -4.20643 0
M  V30 1920 C 183.253 2.07745 -4.88892 0
M  V30 1921 C 182.292 1.46574 -5.94292 0
M  V30 1922 N 181.429 2.49834 -6.56146 0
M  V30 1923 H 186.269 -0.185205 -2.97424 0
M  V30 1924 H 183.806 -0.103164 -1.46738 0
M  V30 1925 H 185.764 2.23309 -3.52405 0
M  V30 1926 H 184.394 2.17615 -2.38419 0
M  V30 1927 H 183.446 0.212193 -3.79808 0
M  V30 1928 H 184.758 0.497029 -4.96318 0
M  V30 1929 H 183.912 2.81673 -5.3735 0
M  V30 1930 H 182.651 2.59807 -4.12737 0
M  V30 1931 H 181.656 0.711696 -5.45174 0
M  V30 1932 H 182.881 0.953088 -6.72379 0
M  V30 1933 H 180.827 3.0107 -5.82832 0
M  V30 1934 H 180.744 2.05879 -7.27427 0
M  V30 1935 H 182.012 3.23399 -7.09249 0
M  V30 1936 N 186.241 1.57166 -0.116904 0
M  V30 1937 C 187.49 1.94298 0.541407 0
M  V30 1938 C 187.803 1.00236 1.67964 0
M  V30 1939 O 189.009 1.26826 2.40057 0
M  V30 1940 C 187.465 3.45306 1.01449 0
M  V30 1941 C 187.073 4.47899 -0.0951738 0
M  V30 1942 C 188.817 3.91361 1.6443 0
M  V30 1943 C 186.724 5.90083 0.394491 0
M  V30 1944 H 185.654 0.725308 0.206019 0
M  V30 1945 H 188.305 1.82446 -0.196419 0
M  V30 1946 H 186.687 3.52385 1.80667 0
M  V30 1947 H 187.861 4.52486 -0.871374 0
M  V30 1948 H 186.176 4.11583 -0.631505 0
M  V30 1949 H 188.773 4.95004 2.02176 0
M  V30 1950 H 189.116 3.3122 2.52189 0
M  V30 1951 H 189.649 3.87073 0.917559 0
M  V30 1952 H 186.388 6.53974 -0.447004 0
M  V30 1953 H 185.908 5.88921 1.13722 0
M  V30 1954 H 187.587 6.41307 0.856399 0
M  V30 1955 N 187.719 -0.156864 1.56817 0
M  V30 1956 C 188.949 -0.885031 1.86684 0
M  V30 1957 C 189.357 -1.75696 0.701954 0
M  V30 1958 O 188.7 -1.80569 -0.337732 0
M  V30 1959 C 188.762 -1.80092 3.11138 0
M  V30 1960 C 188.426 -1.10714 4.43386 0
M  V30 1961 C 189.423 -0.465714 5.1781 0
M  V30 1962 C 187.108 -1.09959 4.90117 0
M  V30 1963 C 189.102 0.174002 6.37162 0
M  V30 1964 C 186.789 -0.456055 6.09396 0
M  V30 1965 C 187.787 0.179622 6.82764 0
M  V30 1966 O 187.475 0.812975 7.99779 0
M  V30 1967 H 187.207 -0.261813 0.623242 0
M  V30 1968 H 189.761 -0.157383 2.04796 0
M  V30 1969 H 187.991 -2.56926 2.89009 0
M  V30 1970 H 189.68 -2.40018 3.27332 0
M  V30 1971 H 190.446 -0.463427 4.82781 0
M  V30 1972 H 186.325 -1.58378 4.3294 0
M  V30 1973 H 189.869 0.670765 6.94368 0
M  V30 1974 H 185.766 -0.455975 6.43888 0
M  V30 1975 H 186.534 0.71366 8.15383 0
M  V30 1976 N 189.197 -1.51736 -0.425897 0
M  V30 1977 C 190.608 -1.5732 -1.00536 0
M  V30 1978 C 190.959 -0.403537 -1.92005 0
M  V30 1979 O 190.084 0.478256 -2.11049 0
M  V30 1980 C 190.679 -2.85119 -1.8301 0
M  V30 1981 C 189.238 -2.93236 -2.35987 0
M  V30 1982 C 188.385 -2.52098 -1.15508 0
M  V30 1983 H 191.336 -1.57348 -0.206739 0
M  V30 1984 H 191.357 -2.69526 -2.68581 0
M  V30 1985 H 190.869 -3.7023 -1.16411 0
M  V30 1986 H 188.97 -2.12581 -3.06007 0
M  V30 1987 H 189.083 -3.9713 -2.68001 0
M  V30 1988 H 187.447 -2.05558 -1.50393 0
M  V30 1989 H 188.23 -3.39565 -0.505014 0
M  V30 1990 N 190.675 0.682077 -1.42076 0
M  V30 1991 C 191.605 1.80796 -1.47767 0
M  V30 1992 C 192.586 1.6677 -0.334954 0
M  V30 1993 O 193.771 1.863 -0.548264 0
M  V30 1994 C 190.901 3.19038 -1.37229 0
M  V30 1995 C 189.855 3.47789 -2.49453 0
M  V30 1996 C 189.181 4.8553 -2.23975 0
M  V30 1997 C 190.481 3.45411 -3.91776 0
M  V30 1998 H 192.175 1.7629 -2.41997 0
M  V30 1999 H 189.721 0.846721 -1.16476 0
M  V30 2000 H 191.674 3.97528 -1.39821 0
M  V30 2001 H 190.398 3.24204 -0.394907 0
M  V30 2002 H 189.057 2.71657 -2.46166 0
M  V30 2003 H 188.705 4.87337 -1.24547 0
M  V30 2004 H 188.405 5.0573 -2.99184 0
M  V30 2005 H 189.929 5.66312 -2.28304 0
M  V30 2006 H 191.343 4.13882 -3.96705 0
M  V30 2007 H 189.74 3.77145 -4.66778 0
M  V30 2008 H 190.81 2.44122 -4.18966 0
M  V30 2009 N 192.153 1.28127 0.917671 0
M  V30 2010 C 193.564 1.13622 1.48145 0
M  V30 2011 C 193.915 -0.275207 1.9426 0
M  V30 2012 O 193.04 -1.1691 1.82102 0
M  V30 2013 C 193.635 2.05648 2.69248 0
M  V30 2014 C 192.194 1.95219 3.21818 0
M  V30 2015 C 191.341 1.97618 1.94532 0
M  V30 2016 H 194.292 1.40874 0.730772 0
M  V30 2017 H 194.313 1.61818 3.44377 0
M  V30 2018 H 193.825 3.08365 2.35653 0
M  V30 2019 H 191.926 0.955244 3.60147 0
M  V30 2020 H 192.039 2.81976 3.87333 0
M  V30 2021 H 190.403 1.41973 2.11461 0
M  V30 2022 H 191.186 3.02007 1.63238 0
M  V30 2023 N 193.631 -1.12557 1.10312 0
M  V30 2024 C 194.581 -2.16331 0.720076 0
M  V30 2025 C 195.565 -1.58616 -0.270115 0
M  V30 2026 O 196.757 -1.76823 -0.0790507 0
M  V30 2027 C 193.886 -3.42963 0.152113 0
M  V30 2028 C 192.972 -4.07663 1.16927 0
M  V30 2029 N 193.363 -4.47392 2.35953 0
M  V30 2030 C 191.661 -4.34425 1.0095 0
M  V30 2031 C 192.362 -4.97932 3.0073 0
M  V30 2032 N 191.338 -4.93358 2.28252 0
M  V30 2033 H 195.14 -2.44813 1.62616 0
M  V30 2034 H 192.654 -1.29449 0.980654 0
M  V30 2035 H 194.651 -4.16664 -0.14037 0
M  V30 2036 H 193.311 -3.1595 -0.748701 0
M  V30 2037 H 194.322 -4.39802 2.73486 0
M  V30 2038 H 190.999 -4.17177 0.164134 0
M  V30 2039 H 192.389 -5.38397 4.01969 0
M  V30 2040 N 195.109 -0.891671 -1.2995 0
M  V30 2041 C 196.042 -0.307994 -2.26112 0
M  V30 2042 C 197.02 0.575262 -1.52084 0
M  V30 2043 O 198.204 0.523864 -1.81074 0
M  V30 2044 C 195.331 0.561734 -3.34009 0
M  V30 2045 C 194.377 -0.253107 -4.25748 0
M  V30 2046 S 195.21 -1.64572 -5.09584 0
M  V30 2047 C 196.366 -0.782699 -6.20987 0
M  V30 2048 H 196.599 -1.12309 -2.75271 0
M  V30 2049 H 194.132 -0.691509 -1.38049 0
M  V30 2050 H 196.09 1.05777 -3.96638 0
M  V30 2051 H 194.751 1.35099 -2.83561 0
M  V30 2052 H 193.944 0.410908 -5.02322 0
M  V30 2053 H 193.546 -0.682004 -3.67729 0
M  V30 2054 H 195.838 -0.00257476 -6.775 0
M  V30 2055 H 196.781 -1.52026 -6.91588 0
M  V30 2056 H 197.189 -0.340638 -5.63471 0
M  V30 2057 N 196.587 1.43421 -0.653314 0
M  V30 2058 C 197.817 2.05864 -0.174238 0
M  V30 2059 C 198.225 1.49052 1.16534 0
M  V30 2060 O 197.568 0.616481 1.73047 0
M  V30 2061 C 197.63 3.59499 -0.00875873 0
M  V30 2062 C 197.294 4.38893 -1.27364 0
M  V30 2063 C 198.291 4.70947 -2.20239 0
M  V30 2064 C 195.976 4.789 -1.51525 0
M  V30 2065 C 197.97 5.41916 -3.35568 0
M  V30 2066 C 195.657 5.49614 -2.67147 0
M  V30 2067 C 196.655 5.81044 -3.58994 0
M  V30 2068 O 196.343 6.50313 -4.72597 0
M  V30 2069 H 196.075 0.670345 -0.0872549 0
M  V30 2070 H 198.629 1.84913 -0.894226 0
M  V30 2071 H 196.859 3.79025 0.7666 0
M  V30 2072 H 198.548 4.0364 0.427687 0
M  V30 2073 H 199.314 4.40558 -2.02815 0
M  V30 2074 H 195.193 4.53843 -0.809158 0
M  V30 2075 H 198.737 5.66365 -4.07279 0
M  V30 2076 H 194.634 5.79419 -2.84505 0
M  V30 2077 H 195.402 6.68795 -4.71864 0
M  V30 2078 N 198.065 0.39524 1.52563 0
M  V30 2079 C 199.311 -0.185318 2.01952 0
M  V30 2080 C 199.644 -1.45964 1.28095 0
M  V30 2081 O 198.919 -1.90689 0.38315 0
M  V30 2082 C 199.202 -0.447193 3.57312 0
M  V30 2083 C 199.055 0.842828 4.41833 0
M  V30 2084 C 200.374 -1.23529 4.22408 0
M  V30 2085 H 197.493 -0.0658788 0.73405 0
M  V30 2086 H 200.135 0.525975 1.82575 0
M  V30 2087 H 198.285 -1.05312 3.73954 0
M  V30 2088 H 199.957 1.4795 4.36931 0
M  V30 2089 H 198.2 1.45686 4.08605 0
M  V30 2090 H 198.871 0.614165 5.48573 0
M  V30 2091 H 201.347 -0.722445 4.0978 0
M  V30 2092 H 200.223 -1.38727 5.3108 0
M  V30 2093 H 200.484 -2.25213 3.80436 0
M  V30 2094 N 199.544 -1.57102 0.125237 0
M  V30 2095 C 200.793 -1.94582 -0.531095 0
M  V30 2096 C 201.106 -1.01126 -1.6743 0
M  V30 2097 O 202.312 -1.28097 -2.39381 0
M  V30 2098 C 200.768 -3.45839 -0.996164 0
M  V30 2099 C 200.376 -4.47842 0.118926 0
M  V30 2100 C 202.12 -3.92227 -1.62352 0
M  V30 2101 C 200.027 -5.90284 -0.363192 0
M  V30 2102 H 198.957 -0.726391 -0.20217 0
M  V30 2103 H 201.608 -1.82339 0.206092 0
M  V30 2104 H 199.99 -3.53338 -1.78796 0
M  V30 2105 H 201.164 -4.52018 0.895358 0
M  V30 2106 H 199.479 -4.11243 0.653324 0
M  V30 2107 H 202.076 -4.96069 -1.99548 0
M  V30 2108 H 202.419 -3.32552 -2.50429 0
M  V30 2109 H 202.952 -3.87554 -0.897019 0
M  V30 2110 H 199.691 -6.53728 0.481679 0
M  V30 2111 H 199.211 -5.89515 -1.10597 0
M  V30 2112 H 200.89 -6.41752 -0.822377 0
M  V30 2113 N 201.022 0.148545 -1.56898 0
M  V30 2114 C 201.969 1.18345 -1.98149 0
M  V30 2115 C 202.939 1.42772 -0.848848 0
M  V30 2116 O 204.124 1.55132 -1.11079 0
M  V30 2117 C 201.264 2.51231 -2.36594 0
M  V30 2118 C 200.377 2.33991 -3.63142 0
M  V30 2119 C 199.512 3.59902 -3.90697 0
M  V30 2120 C 198.551 3.37692 -5.1052 0
M  V30 2121 N 197.688 4.5573 -5.34092 0
M  V30 2122 H 202.528 0.82467 -2.86362 0
M  V30 2123 H 200.065 0.395756 -1.41676 0
M  V30 2124 H 202.023 3.28713 -2.56912 0
M  V30 2125 H 200.653 2.85059 -1.51463 0
M  V30 2126 H 199.705 1.47572 -3.50609 0
M  V30 2127 H 201.017 2.13539 -4.5078 0
M  V30 2128 H 200.171 4.45813 -4.11505 0
M  V30 2129 H 198.91 3.83357 -3.01477 0
M  V30 2130 H 197.915 2.5017 -4.89587 0
M  V30 2131 H 199.14 3.15637 -6.0129 0
M  V30 2132 H 197.086 4.79361 -4.47827 0
M  V30 2133 H 197.003 4.38274 -6.15996 0
M  V30 2134 H 198.271 5.42858 -5.59397 0
M  V30 2135 N 202.5 1.5196 0.417844 0
M  V30 2136 C 203.777 1.56146 1.17803 0
M  V30 2137 C 204.157 0.337275 2.08388 0
M  V30 2138 O 203.505 -0.676447 2.18258 0
M  V30 2139 C 203.715 2.88566 1.96293 0
M  V30 2140 C 205.063 3.41244 2.52662 0
M  V30 2141 O 206.087 2.90247 2.06483 0
M  V30 2142 O 204.946 4.30273 3.36938 0
M  V30 2143 H 202.04 0.628598 0.537395 0
M  V30 2144 H 204.586 1.64283 0.425331 0
M  V30 2145 H 203.358 3.69116 1.2988 0
M  V30 2146 H 202.981 2.83681 2.78587 0
M  V30 2147 N 203.978 -0.674533 1.42435 0
M  V30 2148 C 204.908 -1.80009 1.48724 0
M  V30 2149 C 205.889 -1.6659 0.343793 0
M  V30 2150 O 207.074 -1.86007 0.558137 0
M  V30 2151 C 204.204 -3.18306 1.38919 0
M  V30 2152 C 203.158 -3.46461 2.51294 0
M  V30 2153 C 202.484 -4.84335 2.26547 0
M  V30 2154 C 203.784 -3.43328 3.93603 0
M  V30 2155 H 205.478 -1.75004 2.42928 0
M  V30 2156 H 203.024 -0.840533 1.16923 0
M  V30 2157 H 204.977 -3.9678 1.41927 0
M  V30 2158 H 203.701 -3.2399 0.412094 0
M  V30 2159 H 202.36 -2.70348 2.47604 0
M  V30 2160 H 202.008 -4.86669 1.2713 0
M  V30 2161 H 201.708 -5.04136 3.01861 0
M  V30 2162 H 203.232 -5.65094 2.31304 0
M  V30 2163 H 204.646 -4.11772 3.98894 0
M  V30 2164 H 203.043 -3.74664 4.68771 0
M  V30 2165 H 204.113 -2.41897 4.20255 0
M  V30 2166 N 205.456 -1.28612 -0.910864 0
M  V30 2167 C 206.702 -1.16106 -1.66274 0
M  V30 2168 C 207.035 0.289113 -1.92036 0
M  V30 2169 O 206.31 1.21 -1.52281 0
M  V30 2170 C 206.593 -1.96309 -3.01885 0
M  V30 2171 C 206.446 -3.49405 -2.8326 0
M  V30 2172 C 207.765 -1.78076 -4.02463 0
M  V30 2173 H 204.884 -0.423152 -0.603417 0
M  V30 2174 H 207.526 -1.57961 -1.05586 0
M  V30 2175 H 205.676 -1.60742 -3.53687 0
M  V30 2176 H 207.348 -3.94894 -2.38446 0
M  V30 2177 H 205.591 -3.74893 -2.18261 0
M  V30 2178 H 206.262 -4.00784 -3.79574 0
M  V30 2179 H 208.738 -2.0912 -3.59733 0
M  V30 2180 H 207.614 -2.36561 -4.95308 0
M  V30 2181 H 207.875 -0.733008 -4.35981 0
M  V30 2182 N 206.934 1.1197 -1.10907 0
M  V30 2183 C 208.345 1.65114 -0.871446 0
M  V30 2184 C 208.696 1.86885 0.597353 0
M  V30 2185 O 207.821 1.59896 1.45816 0
M  V30 2186 C 208.416 2.99944 -1.5754 0
M  V30 2187 C 206.975 3.50018 -1.38435 0
M  V30 2188 C 206.122 2.24941 -1.62164 0
M  V30 2189 H 209.073 0.956851 -1.2661 0
M  V30 2190 H 209.094 3.66651 -1.01721 0
M  V30 2191 H 208.606 2.84067 -2.64438 0
M  V30 2192 H 206.707 3.71071 -0.337214 0
M  V30 2193 H 206.82 4.29165 -2.12965 0
M  V30 2194 H 205.184 2.3229 -1.04467 0
M  V30 2195 H 205.967 2.11612 -2.70324 0
M  V30 2196 N 208.412 0.89855 1.29475 0
M  V30 2197 C 209.689 0.443416 1.90508 0
M  V30 2198 C 210.069 -1.07685 1.81569 0
M  V30 2199 O 209.417 -1.9182 1.24166 0
M  V30 2200 C 209.627 0.956708 3.35631 0
M  V30 2201 C 210.975 0.999728 4.12663 0
M  V30 2202 O 211.999 0.904299 3.4453 0
M  V30 2203 O 210.858 1.14289 5.34416 0
M  V30 2204 H 207.952 0.138025 0.815401 0
M  V30 2205 H 210.498 0.98834 1.37949 0
M  V30 2206 H 209.27 2.00067 3.36287 0
M  V30 2207 H 208.893 0.391728 3.95666 0
M  V30 2208 N 209.89 -1.43072 0.660911 0
M  V30 2209 C 210.82 -2.33497 -0.0122829 0
M  V30 2210 C 211.801 -1.49903 -0.803925 0
M  V30 2211 O 212.986 -1.78546 -0.763864 0
M  V30 2212 C 210.116 -3.33363 -0.973994 0
M  V30 2213 C 209.07 -4.27003 -0.291928 0
M  V30 2214 C 208.396 -5.16967 -1.36562 0
M  V30 2215 C 209.696 -5.15816 0.820462 0
M  V30 2216 H 211.39 -2.90038 0.742873 0
M  V30 2217 H 208.936 -1.39461 0.358688 0
M  V30 2218 H 210.889 -3.95524 -1.45392 0
M  V30 2219 H 209.613 -2.75095 -1.7604 0
M  V30 2220 H 208.272 -3.66217 0.167623 0
M  V30 2221 H 207.92 -4.55034 -2.14366 0
M  V30 2222 H 207.62 -5.80441 -0.914454 0
M  V30 2223 H 209.144 -5.82003 -1.84675 0
M  V30 2224 H 210.558 -5.71742 0.422366 0
M  V30 2225 H 208.955 -5.8805 1.19656 0
M  V30 2226 H 210.025 -4.55045 1.67518 0
M  V30 2227 N 211.368 -0.403325 -1.52352 0
M  V30 2228 C 212.593 0.176499 -2.06648 0
M  V30 2229 C 213.018 1.38577 -1.27193 0
M  V30 2230 O 212.376 1.7879 -0.300637 0
M  V30 2231 C 212.424 0.511061 -3.5696 0
M  V30 2232 O 211.528 1.60294 -3.79973 0
M  V30 2233 H 210.869 0.0167337 -0.663789 0
M  V30 2234 H 213.399 -0.574848 -1.96359 0
M  V30 2235 H 213.409 0.771362 -4.00642 0
M  V30 2236 H 212.084 -0.37296 -4.14224 0
M  V30 2237 H 210.661 1.33526 -3.48174 0
M  V30 2238 N 212.846 1.57033 -0.133567 0
M  V30 2239 C 213.794 2.17348 0.828412 0
M  V30 2240 C 214.788 1.12671 1.26498 0
M  V30 2241 O 215.994 1.30947 1.23502 0
M  V30 2242 H 212.369 0.695775 0.285309 0
M  V30 2243 H 214.34 2.96935 0.295372 0
M  V30 2244 C 213.089 2.79893 2.06289 0
M  V30 2245 H 212.412 3.60147 1.73592 0
M  V30 2246 H 213.852 3.25615 2.71572 0
M  V30 2247 C 212.311 1.77713 2.86216 0
M  V30 2248 O 212.841 1.23937 3.82103 0
M  V30 2249 N 211.047 1.47321 2.50489 0
M  V30 2250 H 210.594 1.91243 1.7258 0
M  V30 2251 H 210.552 0.79199 3.04261 0
M  V30 2252 N 214.325 -0.140222 1.56975 0
M  V30 2253 C 215.572 -0.851687 1.83719 0
M  V30 2254 C 215.9 -1.80862 0.715485 0
M  V30 2255 O 215.155 -1.93464 -0.294956 0
M  V30 2256 C 215.454 -1.65386 3.16832 0
M  V30 2257 C 215.12 -0.843112 4.42947 0
M  V30 2258 C 213.782 -0.619464 4.77196 0
M  V30 2259 C 216.134 -0.276582 5.20466 0
M  V30 2260 C 213.462 0.181312 5.8642 0
M  V30 2261 C 215.814 0.51127 6.30531 0
M  V30 2262 C 214.478 0.745432 6.63325 0
M  V30 2263 H 213.748 -0.311654 0.672274 0
M  V30 2264 H 216.395 -0.115006 1.91154 0
M  V30 2265 H 214.7 -2.46084 3.04877 0
M  V30 2266 H 216.397 -2.20793 3.34741 0
M  V30 2267 H 212.987 -1.0275 4.16101 0
M  V30 2268 H 217.171 -0.436632 4.94376 0
M  V30 2269 H 212.427 0.372165 6.10266 0
M  V30 2270 H 216.601 0.957354 6.89788 0
M  V30 2271 H 214.228 1.36778 7.47794 0
M  V30 2272 N 215.803 -1.52179 -0.40978 0
M  V30 2273 C 217.033 -1.69807 -1.17682 0
M  V30 2274 C 217.441 -0.406908 -1.84773 0
M  V30 2275 O 216.784 0.626863 -1.72673 0
M  V30 2276 C 216.846 -2.77712 -2.2829 0
M  V30 2277 C 216.51 -4.19481 -1.81341 0
M  V30 2278 C 217.507 -5.03345 -1.30154 0
M  V30 2279 C 215.192 -4.65713 -1.88194 0
M  V30 2280 C 217.186 -6.31511 -0.864416 0
M  V30 2281 C 214.873 -5.93869 -1.44093 0
M  V30 2282 C 215.871 -6.76597 -0.933023 0
M  V30 2283 O 215.559 -8.02354 -0.49838 0
M  V30 2284 H 215.291 -0.572372 -0.359675 0
M  V30 2285 H 217.845 -1.99511 -0.488311 0
M  V30 2286 H 216.075 -2.43383 -3.00502 0
M  V30 2287 H 217.764 -2.83946 -2.90051 0
M  V30 2288 H 218.53 -4.68819 -1.24232 0
M  V30 2289 H 214.409 -4.01424 -2.26671 0
M  V30 2290 H 217.953 -6.96033 -0.467286 0
M  V30 2291 H 213.85 -6.27903 -1.49694 0
M  V30 2292 H 214.618 -8.16135 -0.621747 0
M  V30 2293 N 217.281 0.66697 -1.42791 0
M  V30 2294 C 218.244 1.76211 -1.46568 0
M  V30 2295 C 219.244 1.56896 -0.352196 0
M  V30 2296 O 220.434 1.63044 -0.613364 0
M  V30 2297 C 217.566 3.14935 -1.30494 0
M  V30 2298 H 218.759 1.74247 -2.44086 0
M  V30 2299 H 216.312 0.877342 -1.29354 0
M  V30 2300 H 217.047 3.2252 -0.339301 0
M  V30 2301 H 216.832 3.30359 -2.11199 0
M  V30 2302 H 218.322 3.94821 -1.36038 0
M  V30 2303 N 218.759 1.29093 0.90403 0
M  V30 2304 C 219.691 1.09658 2.01266 0
M  V30 2305 C 220.704 0.0453729 1.62737 0
M  V30 2306 O 221.893 0.289446 1.76138 0
M  V30 2307 C 218.993 0.646278 3.32681 0
M  V30 2308 C 218.166 1.77505 3.99763 0
M  V30 2309 C 217.225 1.31649 5.09465 0
M  V30 2310 O 216.251 2.02045 5.32134 0
M  V30 2311 N 217.453 0.184997 5.80205 0
M  V30 2312 H 220.218 2.05135 2.18494 0
M  V30 2313 H 217.779 1.20975 1.07594 0
M  V30 2314 H 219.771 0.322906 4.0341 0
M  V30 2315 H 218.341 -0.215916 3.11853 0
M  V30 2316 H 217.561 2.26752 3.22455 0
M  V30 2317 H 218.849 2.53198 4.41325 0
M  V30 2318 H 218.247 -0.402021 5.6427 0
M  V30 2319 H 216.804 -0.0790358 6.51752 0
M  V30 2320 N 220.237 -1.11381 1.11499 0
M  V30 2321 C 221.467 -1.86663 0.885464 0
M  V30 2322 C 221.875 -1.80464 -0.568281 0
M  V30 2323 O 221.218 -1.18445 -1.40415 0
M  V30 2324 C 221.28 -3.36337 1.26956 0
M  V30 2325 C 220.944 -3.66304 2.73259 0
M  V30 2326 C 221.941 -3.63733 3.71476 0
M  V30 2327 C 219.626 -3.9529 3.09921 0
M  V30 2328 C 221.62 -3.89725 5.04374 0
M  V30 2329 C 219.307 -4.20941 4.43004 0
M  V30 2330 C 220.305 -4.18147 5.40039 0
M  V30 2331 O 219.993 -4.43153 6.70724 0
M  V30 2332 H 219.725 -0.597114 0.316908 0
M  V30 2333 H 222.279 -1.41782 1.48617 0
M  V30 2334 H 220.509 -3.81826 0.611999 0
M  V30 2335 H 222.198 -3.92986 1.01573 0
M  V30 2336 H 222.964 -3.41389 3.44498 0
M  V30 2337 H 218.843 -3.966 2.35009 0
M  V30 2338 H 222.387 -3.8746 5.80104 0
M  V30 2339 H 218.284 -4.42761 4.69716 0
M  V30 2340 H 219.052 -4.60717 6.76522 0
M  V30 2341 N 221.715 -0.905404 -1.28997 0
M  V30 2342 C 222.662 -0.385892 -2.27551 0
M  V30 2343 C 223.632 0.535113 -1.57244 0
M  V30 2344 O 224.817 0.459119 -1.85194 0
M  V30 2345 C 221.957 0.375461 -3.43051 0
M  V30 2346 C 221.07 -0.577092 -4.28128 0
M  V30 2347 C 220.205 0.201879 -5.30816 0
M  V30 2348 C 219.244 -0.744829 -6.07551 0
M  V30 2349 N 218.381 9.42587e-05 -7.021 0
M  V30 2350 H 223.221 -1.23139 -2.71368 0
M  V30 2351 H 220.758 -0.618542 -1.33463 0
M  V30 2352 H 222.716 0.832992 -4.088 0
M  V30 2353 H 221.346 1.18537 -3.00248 0
M  V30 2354 H 220.398 -1.15315 -3.62501 0
M  V30 2355 H 221.71 -1.30152 -4.8152 0
M  V30 2356 H 220.864 0.720351 -6.02408 0
M  V30 2357 H 219.603 0.959413 -4.7817 0
M  V30 2358 H 218.608 -1.27475 -5.34818 0
M  V30 2359 H 219.833 -1.50178 -6.62286 0
M  V30 2360 H 217.779 0.739791 -6.51815 0
M  V30 2361 H 217.696 -0.664321 -7.53076 0
M  V30 2362 H 218.964 0.498644 -7.77903 0
M  V30 2363 N 223.193 1.4272 -0.668489 0
M  V30 2364 C 224.418 2.06484 -0.194758 0
M  V30 2365 C 224.843 1.49862 1.13679 0
M  V30 2366 O 224.201 0.614582 1.70565 0
M  V30 2367 C 224.249 3.60353 -0.133546 0
M  V30 2368 O 223.353 4.02464 0.899806 0
M  V30 2369 H 222.694 0.656137 -0.10188 0
M  V30 2370 H 225.224 1.82964 -0.915722 0
M  V30 2371 H 225.234 4.07976 0.0447041 0
M  V30 2372 H 223.909 4.00938 -1.1055 0
M  V30 2373 H 222.486 3.66402 0.693109 0
M  V30 2374 N 224.671 0.411399 1.52136 0
M  V30 2375 C 225.92 -0.165009 2.01024 0
M  V30 2376 C 226.233 -1.4603 1.30133 0
M  V30 2377 O 227.439 -2.1181 1.69849 0
M  V30 2378 C 225.895 -0.344618 3.58246 0
M  V30 2379 C 225.503 0.938716 4.38055 0
M  V30 2380 C 227.247 -0.876195 4.15359 0
M  V30 2381 C 225.154 0.726172 5.86925 0
M  V30 2382 H 224.084 -0.0654407 0.751155 0
M  V30 2383 H 226.735 0.537192 1.75461 0
M  V30 2384 H 225.117 -1.10921 3.80148 0
M  V30 2385 H 226.291 1.70963 4.27912 0
M  V30 2386 H 224.606 1.39688 3.92271 0
M  V30 2387 H 227.203 -1.05128 5.24263 0
M  V30 2388 H 227.546 -1.85152 3.7286 0
M  V30 2389 H 228.079 -0.170607 3.97434 0
M  V30 2390 H 224.818 1.67312 6.33788 0
M  V30 2391 H 224.338 -0.00540283 5.998 0
M  V30 2392 H 226.017 0.369231 6.45946 0
M  V30 2393 N 226.149 -1.5696 0.141893 0
M  V30 2394 C 227.059 -2.20066 -0.812905 0
M  V30 2395 C 228.075 -1.18344 -1.27557 0
M  V30 2396 O 229.251 -1.50902 -1.33381 0
M  V30 2397 C 226.316 -2.80583 -2.03652 0
M  V30 2398 C 225.377 -3.97414 -1.62359 0
M  V30 2399 C 224.61 -4.55036 -2.78887 0
M  V30 2400 O 224.833 -4.11538 -3.94959 0
M  V30 2401 O 223.767 -5.45376 -2.54653 0
M  V30 2402 H 227.593 -3.02157 -0.305746 0
M  V30 2403 H 225.178 -1.49159 -0.0848799 0
M  V30 2404 H 227.06 -3.19067 -2.75272 0
M  V30 2405 H 225.735 -2.01508 -2.5333 0
M  V30 2406 H 224.642 -3.63656 -0.877775 0
M  V30 2407 H 225.975 -4.77994 -1.17401 0
M  V30 2408 N 227.627 0.131896 -1.57047 0
M  V30 2409 C 229.038 0.690407 -1.73465 0
M  V30 2410 C 229.389 1.8094 -0.758629 0
M  V30 2411 O 228.514 2.16282 0.0713813 0
M  V30 2412 C 229.109 1.25916 -3.14532 0
M  V30 2413 C 227.668 1.76409 -3.32501 0
M  V30 2414 C 226.815 0.658579 -2.69366 0
M  V30 2415 H 229.766 -0.0939144 -1.58422 0
M  V30 2416 H 229.787 2.12892 -3.15369 0
M  V30 2417 H 229.299 0.444515 -3.85546 0
M  V30 2418 H 227.4 2.60391 -2.66509 0
M  V30 2419 H 227.513 1.88241 -4.4057 0
M  V30 2420 H 225.877 1.08899 -2.30246 0
M  V30 2421 H 226.66 -0.14487 -3.42994 0
M  V30 2422 N 229.106 1.52395 0.401703 0
M  V30 2423 C 230.336 1.70429 1.1678 0
M  V30 2424 C 230.744 0.416702 1.84554 0
M  V30 2425 O 230.087 -0.617697 1.73003 0
M  V30 2426 C 230.149 2.78919 2.26814 0
M  V30 2427 C 229.813 4.20437 1.79113 0
M  V30 2428 C 230.81 5.04028 1.27482 0
M  V30 2429 C 228.495 4.66704 1.85722 0
M  V30 2430 C 230.489 6.31961 0.830913 0
M  V30 2431 C 228.176 5.94625 1.40942 0
M  V30 2432 C 229.174 6.77082 0.897128 0
M  V30 2433 O 228.862 8.02607 0.455822 0
M  V30 2434 H 228.594 0.574272 0.356634 0
M  V30 2435 H 231.148 1.99767 0.477724 0
M  V30 2436 H 229.378 2.44973 2.99207 0
M  V30 2437 H 231.067 2.8548 2.88541 0
M  V30 2438 H 231.833 4.69471 1.21744 0
M  V30 2439 H 227.712 4.0262 2.24539 0
M  V30 2440 H 231.256 6.96271 0.430368 0
M  V30 2441 H 227.153 6.28688 1.46362 0
M  V30 2442 H 227.921 8.16453 0.578457 0
M  V30 2443 N 230.584 -0.659388 1.43143 0
M  V30 2444 C 231.514 -1.78422 1.50625 0
M  V30 2445 C 232.495 -1.66216 0.361443 0
M  V30 2446 O 233.68 -1.85404 0.577834 0
M  V30 2447 C 230.81 -3.16815 1.42287 0
M  V30 2448 C 229.764 -3.43777 2.54954 0
M  V30 2449 C 229.09 -4.81905 2.31671 0
M  V30 2450 C 230.39 -3.39134 3.97222 0
M  V30 2451 H 232.084 -1.72417 2.44771 0
M  V30 2452 H 229.63 -0.828084 1.17808 0
M  V30 2453 H 231.583 -3.95253 1.46127 0
M  V30 2454 H 230.307 -3.23534 0.446435 0
M  V30 2455 H 228.966 -2.67707 2.50457 0
M  V30 2456 H 228.614 -4.85294 1.32284 0
M  V30 2457 H 228.314 -5.00906 3.07192 0
M  V30 2458 H 229.838 -5.62609 2.37284 0
M  V30 2459 H 231.252 -4.07518 4.03239 0
M  V30 2460 H 229.649 -3.69671 4.72719 0
M  V30 2461 H 230.719 -2.37426 4.22797 0
M  V30 2462 N 232.062 -1.29571 -0.897171 0
M  V30 2463 C 233.009 -1.14916 -2.00158 0
M  V30 2464 C 233.979 -0.0418149 -1.66047 0
M  V30 2465 O 235.164 -0.209793 -1.89643 0
M  V30 2466 C 232.304 -0.834307 -3.34863 0
M  V30 2467 C 231.417 -2.02234 -3.8174 0
M  V30 2468 C 230.552 -1.64664 -5.05034 0
M  V30 2469 C 229.591 -2.80033 -5.44286 0
M  V30 2470 N 228.728 -2.42843 -6.58765 0
M  V30 2471 H 233.568 -2.09403 -2.12025 0
M  V30 2472 H 231.105 -1.042 -1.0383 0
M  V30 2473 H 233.063 -0.632436 -4.12379 0
M  V30 2474 H 231.693 0.0736656 -3.22716 0
M  V30 2475 H 230.745 -2.33583 -3.00238 0
M  V30 2476 H 232.057 -2.88673 -4.06779 0
M  V30 2477 H 231.211 -1.4078 -5.9014 0
M  V30 2478 H 229.95 -0.753766 -4.8184 0
M  V30 2479 H 228.955 -3.04596 -4.57713 0
M  V30 2480 H 230.18 -3.69989 -5.6946 0
M  V30 2481 H 228.126 -1.56046 -6.3717 0
M  V30 2482 H 228.043 -3.22815 -6.83613 0
M  V30 2483 H 229.311 -2.22285 -7.47134 0
M  V30 2484 N 233.54 1.10788 -1.12088 0
M  V30 2485 C 234.487 2.17025 -0.785407 0
M  V30 2486 C 235.457 1.64265 0.246191 0
M  V30 2487 O 236.642 1.90412 0.121584 0
M  V30 2488 C 233.782 3.44249 -0.242177 0
M  V30 2489 C 232.895 4.1098 -1.33115 0
M  V30 2490 C 232.03 5.25911 -0.747741 0
M  V30 2491 C 231.069 5.84538 -1.81609 0
M  V30 2492 N 230.206 6.90853 -1.25167 0
M  V30 2493 H 235.046 2.45066 -1.69548 0
M  V30 2494 H 232.583 1.20297 -0.846582 0
M  V30 2495 H 234.541 4.17101 0.0908026 0
M  V30 2496 H 233.171 3.16571 0.631072 0
M  V30 2497 H 232.223 3.36133 -1.78097 0
M  V30 2498 H 233.535 4.50601 -2.13917 0
M  V30 2499 H 232.689 6.056 -0.365216 0
M  V30 2500 H 231.428 4.87614 0.0915188 0
M  V30 2501 H 230.433 5.03522 -2.20785 0
M  V30 2502 H 231.658 6.249 -2.6585 0
M  V30 2503 H 229.604 6.54562 -0.434174 0
M  V30 2504 H 229.521 7.29166 -1.99633 0
M  V30 2505 H 230.789 7.7433 -0.896259 0
M  V30 2506 N 235.018 0.912232 1.28515 0
M  V30 2507 C 235.965 0.397954 2.27343 0
M  V30 2508 C 236.935 -0.526766 1.57526 0
M  V30 2509 O 238.12 -0.449292 1.85435 0
M  V30 2510 C 235.26 -0.357263 3.43246 0
M  V30 2511 C 234.373 0.599788 4.27816 0
M  V30 2512 C 233.508 -0.173725 5.30916 0
M  V30 2513 C 232.547 0.777039 6.07148 0
M  V30 2514 N 231.684 0.0371398 7.0209 0
M  V30 2515 H 236.524 1.24577 2.70711 0
M  V30 2516 H 234.061 0.625612 1.33133 0
M  V30 2517 H 236.019 -0.8113 4.09236 0
M  V30 2518 H 234.649 -1.16943 3.00872 0
M  V30 2519 H 233.701 1.17235 3.61884 0
M  V30 2520 H 235.013 1.32704 4.80823 0
M  V30 2521 H 234.167 -0.688394 6.02782 0
M  V30 2522 H 232.906 -0.934041 4.78672 0
M  V30 2523 H 231.911 1.3031 5.34134 0
M  V30 2524 H 233.136 1.53689 6.61481 0
M  V30 2525 H 231.082 -0.705213 6.52198 0
M  V30 2526 H 230.999 0.704249 7.52713 0
M  V30 2527 H 232.267 -0.457383 7.78157 0
M  V30 2528 N 236.496 -1.42363 0.676048 0
M  V30 2529 C 237.773 -1.95183 0.127726 0
M  V30 2530 C 238.153 -1.61641 -1.35777 0
M  V30 2531 O 237.501 -0.913216 -2.09458 0
M  V30 2532 C 237.711 -3.46721 0.398199 0
M  V30 2533 C 239.059 -4.23427 0.315383 0
M  V30 2534 O 240.083 -3.54649 0.332016 0
M  V30 2535 O 238.942 -5.45888 0.25865 0
M  V30 2536 H 236.036 -0.826992 0.00359427 0
M  V30 2537 H 238.582 -1.52184 0.750864 0
M  V30 2538 H 237.354 -3.64344 1.4272 0
M  V30 2539 H 236.977 -3.96769 -0.256885 0
M  V30 2540 N 237.974 -0.419461 -1.51915 0
M  V30 2541 C 238.884 0.407528 -2.31033 0
M  V30 2542 C 239.9 1.04413 -1.3919 0
M  V30 2543 O 241.076 1.0434 -1.72265 0
M  V30 2544 C 238.141 1.50365 -3.12396 0
M  V30 2545 C 237.202 0.889029 -4.19994 0
M  V30 2546 C 236.435 1.93291 -4.97468 0
M  V30 2547 O 236.658 3.15259 -4.75361 0
M  V30 2548 O 235.592 1.53339 -5.8204 0
M  V30 2549 H 239.418 -0.237865 -3.02767 0
M  V30 2550 H 237.003 -0.182413 -1.48282 0
M  V30 2551 H 238.885 2.13975 -3.63032 0
M  V30 2552 H 237.56 2.13345 -2.43445 0
M  V30 2553 H 236.467 0.215353 -3.7348 0
M  V30 2554 H 237.8 0.302991 -4.91267 0
M  V30 2555 N 239.452 1.56882 -0.150215 0
M  V30 2556 C 240.677 2.01027 0.510184 0
M  V30 2557 C 241.102 1.02966 1.57415 0
M  V30 2558 O 240.46 0.00590158 1.81299 0
M  V30 2559 C 240.508 3.43899 1.08472 0
M  V30 2560 O 239.612 3.4885 2.19948 0
M  V30 2561 H 238.953 0.652233 0.124451 0
M  V30 2562 H 241.483 2.03093 -0.247894 0
M  V30 2563 H 241.493 3.82766 1.41259 0
M  V30 2564 H 240.168 4.14776 0.305582 0
M  V30 2565 H 238.745 3.21827 1.88366 0
M  V30 2566 N 240.93 -0.123565 1.57115 0
M  V30 2567 C 241.862 -1.17739 1.96648 0
M  V30 2568 C 242.875 -1.37906 0.865201 0
M  V30 2569 O 244.064 -1.37062 1.14351 0
M  V30 2570 C 241.164 -2.53821 2.24562 0
M  V30 2571 C 240.337 -2.54317 3.55867 0
M  V30 2572 C 239.396 -3.72112 3.72047 0
M  V30 2573 O 238.422 -3.55907 4.44206 0
M  V30 2574 N 239.624 -4.90498 3.10471 0
M  V30 2575 H 242.389 -0.841147 2.87654 0
M  V30 2576 H 239.95 -0.31289 1.58848 0
M  V30 2577 H 241.942 -3.31175 2.32606 0
M  V30 2578 H 240.512 -2.79645 1.39705 0
M  V30 2579 H 239.732 -1.62711 3.59053 0
M  V30 2580 H 241.02 -2.51701 4.42181 0
M  V30 2581 H 240.418 -5.06567 2.51806 0
M  V30 2582 H 238.975 -5.65544 3.24043 0
M  V30 2583 N 242.408 -1.52605 -0.393616 0
M  V30 2584 C 243.318 -1.79971 -1.50492 0
M  V30 2585 C 244.334 -0.686181 -1.59899 0
M  V30 2586 O 245.51 -0.973274 -1.76322 0
M  V30 2587 C 242.575 -1.95867 -2.86072 0
M  V30 2588 C 241.636 -3.19781 -2.86424 0
M  V30 2589 C 240.869 -3.34909 -4.15538 0
M  V30 2590 O 241.092 -2.54948 -5.10253 0
M  V30 2591 O 240.026 -4.28141 -4.23059 0
M  V30 2592 H 243.852 -2.74328 -1.30299 0
M  V30 2593 H 241.437 -1.3764 -0.581005 0
M  V30 2594 H 243.319 -2.08056 -3.66457 0
M  V30 2595 H 241.994 -1.04699 -3.063 0
M  V30 2596 H 240.901 -3.13038 -2.04837 0
M  V30 2597 H 242.234 -4.1078 -2.71147 0
M  V30 2598 N 243.887 0.651787 -1.4349 0
M  V30 2599 C 245.135 1.40888 -1.44897 0
M  V30 2600 C 245.456 1.94856 -0.0749086 0
M  V30 2601 O 244.726 1.74518 0.889956 0
M  V30 2602 H 243.306 0.522887 -0.533478 0
M  V30 2603 H 245.968 0.768609 -1.79104 0
M  V30 2604 H 245.064 2.25052 -2.16236 0
M  V30 2605 N 245.365 1.30045 0.890287 0
M  V30 2606 C 246.312 1.15976 1.99545 0
M  V30 2607 C 247.282 0.0506202 1.66023 0
M  V30 2608 O 248.467 0.219847 1.89529 0
M  V30 2609 C 245.607 0.852054 3.34416 0
M  V30 2610 C 244.72 2.04255 3.80662 0
M  V30 2611 C 243.855 1.6734 5.04154 0
M  V30 2612 C 242.894 2.82916 5.42794 0
M  V30 2613 N 242.031 2.46333 6.57468 0
M  V30 2614 H 246.871 2.10524 2.10911 0
M  V30 2615 H 244.408 1.04749 1.03276 0
M  V30 2616 H 246.366 0.654296 4.12037 0
M  V30 2617 H 244.996 -0.0565502 3.2275 0
M  V30 2618 H 244.048 2.35172 2.98995 0
M  V30 2619 H 245.36 2.90826 4.05242 0
M  V30 2620 H 244.514 1.43908 5.89386 0
M  V30 2621 H 243.253 0.779308 4.81433 0
M  V30 2622 H 242.258 3.0702 4.56091 0
M  V30 2623 H 243.483 3.73004 5.6749 0
M  V30 2624 H 241.429 1.59423 6.36334 0
M  V30 2625 H 241.346 3.26436 6.81891 0
M  V30 2626 H 242.614 2.26244 7.45945 0
M  V30 2627 N 246.843 -1.10192 1.12674 0
M  V30 2628 C 247.775 -2.16418 0.754701 0
M  V30 2629 C 248.788 -1.61309 -0.21986 0
M  V30 2630 O 249.977 -1.785 -0.000826841 0
M  V30 2631 C 247.077 -3.38762 0.096698 0
M  V30 2632 C 246.25 -4.23307 1.10136 0
M  V30 2633 C 245.309 -5.24092 0.470513 0
M  V30 2634 O 244.335 -5.57906 1.12824 0
M  V30 2635 N 245.537 -5.75491 -0.760948 0
M  V30 2636 H 248.302 -2.48943 1.66875 0
M  V30 2637 H 245.863 -1.25834 1.01869 0
M  V30 2638 H 247.855 -4.03291 -0.337384 0
M  V30 2639 H 246.425 -3.04192 -0.720153 0
M  V30 2640 H 245.645 -3.55036 1.71299 0
M  V30 2641 H 246.933 -4.76624 1.78064 0
M  V30 2642 H 246.331 -5.50222 -1.31424 0
M  V30 2643 H 244.888 -6.41792 -1.13781 0
M  V30 2644 N 248.321 -0.919034 -1.28029 0
M  V30 2645 C 249.253 -0.368762 -2.26214 0
M  V30 2646 C 250.266 0.495716 -1.55069 0
M  V30 2647 O 251.455 0.30974 -1.75792 0
M  V30 2648 C 248.555 0.491049 -3.35324 0
M  V30 2649 C 247.728 -0.352133 -4.3598 0
M  V30 2650 C 246.787 0.443622 -5.24327 0
M  V30 2651 O 245.813 -0.14566 -5.69014 0
M  V30 2652 N 247.015 1.74545 -5.53637 0
M  V30 2653 H 249.78 -1.21273 -2.74068 0
M  V30 2654 H 247.341 -0.785541 -1.41566 0
M  V30 2655 H 249.333 1.03026 -3.91366 0
M  V30 2656 H 247.903 1.23574 -2.87138 0
M  V30 2657 H 247.123 -1.07269 -3.79324 0
M  V30 2658 H 248.411 -0.928883 -5.00249 0
M  V30 2659 H 247.809 2.24666 -5.19174 0
M  V30 2660 H 246.366 2.23138 -6.12416 0
M  V30 2661 N 249.799 1.42003 -0.683588 0
M  V30 2662 C 251.029 2.05448 -0.217866 0
M  V30 2663 C 251.437 1.51491 1.13346 0
M  V30 2664 O 250.78 0.653048 1.717 0
M  V30 2665 C 250.842 3.59399 -0.0850118 0
M  V30 2666 C 250.506 4.36093 -1.36645 0
M  V30 2667 C 251.503 4.66169 -2.30179 0
M  V30 2668 C 249.188 4.75578 -1.61649 0
M  V30 2669 C 251.182 5.34676 -3.46988 0
M  V30 2670 C 248.869 5.43824 -2.78745 0
M  V30 2671 C 249.867 5.73299 -3.71238 0
M  V30 2672 O 249.555 6.40142 -4.86285 0
M  V30 2673 H 249.287 0.668344 -0.101454 0
M  V30 2674 H 251.841 1.82974 -0.933248 0
M  V30 2675 H 250.071 3.80566 0.686031 0
M  V30 2676 H 251.76 4.04457 0.341973 0
M  V30 2677 H 252.526 4.36156 -2.12115 0
M  V30 2678 H 248.405 4.52025 -0.905243 0
M  V30 2679 H 251.949 5.57599 -4.19201 0
M  V30 2680 H 247.846 5.73254 -2.96732 0
M  V30 2681 H 248.614 6.58636 -4.85944 0
M  V30 2682 N 251.277 0.427512 1.51691 0
M  V30 2683 C 252.207 -0.3796 2.30394 0
M  V30 2684 C 253.188 -1.02982 1.35384 0
M  V30 2685 O 254.373 -1.03534 1.643 0
M  V30 2686 C 251.503 -1.48649 3.1388 0
M  V30 2687 C 250.457 -0.960294 4.17088 0
M  V30 2688 C 249.783 -2.16219 4.89033 0
M  V30 2689 C 251.083 -0.00153679 5.223 0
M  V30 2690 H 252.777 0.277164 2.98114 0
M  V30 2691 H 250.323 0.134739 1.43368 0
M  V30 2692 H 252.276 -2.05826 3.67714 0
M  V30 2693 H 251 -2.1714 2.43962 0
M  V30 2694 H 249.659 -0.410806 3.64291 0
M  V30 2695 H 249.307 -2.83307 4.15628 0
M  V30 2696 H 249.007 -1.81654 5.58816 0
M  V30 2697 H 250.531 -2.73968 5.45687 0
M  V30 2698 H 251.945 -0.482687 5.71264 0
M  V30 2699 H 250.342 0.256199 5.99553 0
M  V30 2700 H 251.412 0.938174 4.75738 0
M  V30 2701 N 252.755 -1.56801 0.158532 0
M  V30 2702 C 253.687 -2.14488 -0.807923 0
M  V30 2703 C 254.7 -1.09721 -1.20271 0
M  V30 2704 O 255.889 -1.36956 -1.14478 0
M  V30 2705 C 252.989 -2.66217 -2.09718 0
M  V30 2706 C 252.162 -3.95507 -1.86796 0
M  V30 2707 C 251.221 -4.3243 -2.99818 0
M  V30 2708 O 250.247 -5.00543 -2.71008 0
M  V30 2709 N 251.449 -3.92947 -4.27285 0
M  V30 2710 H 254.214 -2.98042 -0.314816 0
M  V30 2711 H 251.775 -1.61881 -0.0246692 0
M  V30 2712 H 253.767 -2.87924 -2.84398 0
M  V30 2713 H 252.337 -1.87324 -2.50257 0
M  V30 2714 H 251.557 -3.82309 -0.96089 0
M  V30 2715 H 252.845 -4.79972 -1.68833 0
M  V30 2716 H 252.243 -3.38087 -4.53557 0
M  V30 2717 H 250.8 -4.19681 -4.9871 0
M  V30 2718 N 254.233 0.115231 -1.57178 0
M  V30 2719 C 255.458 0.840354 -1.89612 0
M  V30 2720 C 255.883 1.72464 -0.750845 0
M  V30 2721 O 255.241 1.78826 0.298478 0
M  V30 2722 C 255.289 1.64654 -3.20814 0
M  V30 2723 O 254.393 2.7538 -3.06985 0
M  V30 2724 H 253.734 0.232158 -0.622092 0
M  V30 2725 H 256.264 0.0964977 -2.04372 0
M  V30 2726 H 256.274 2.03499 -3.53627 0
M  V30 2727 H 254.949 0.997416 -4.03763 0
M  V30 2728 H 253.526 2.3971 -2.85646 0
M  V30 2729 N 255.711 1.52812 0.385517 0
M  V30 2730 C 256.96 1.67249 1.12741 0
M  V30 2731 C 257.273 0.4205 1.91027 0
M  V30 2732 O 258.479 0.445064 2.67827 0
M  V30 2733 C 256.935 2.95583 2.05326 0
M  V30 2734 C 256.543 4.27974 1.32447 0
M  V30 2735 C 258.287 3.19386 2.7963 0
M  V30 2736 C 256.194 5.47412 2.23818 0
M  V30 2737 H 255.124 0.6231 0.424573 0
M  V30 2738 H 257.775 1.79309 0.389924 0
M  V30 2739 H 256.157 2.77277 2.82725 0
M  V30 2740 H 257.331 4.56844 0.602495 0
M  V30 2741 H 255.646 4.10459 0.700885 0
M  V30 2742 H 258.243 4.05801 3.48181 0
M  V30 2743 H 258.586 2.34604 3.43899 0
M  V30 2744 H 259.119 3.38274 2.09322 0
M  V30 2745 H 255.858 6.34612 1.64157 0
M  V30 2746 H 255.378 5.22849 2.93921 0
M  V30 2747 H 257.057 5.81423 2.83824 0
M  V30 2748 N 257.189 -0.644168 1.43834 0
M  V30 2749 C 258.099 -1.78563 1.52159 0
M  V30 2750 C 259.115 -1.69147 0.408069 0
M  V30 2751 O 260.291 -1.90156 0.663524 0
M  V30 2752 C 257.356 -3.14888 1.45073 0
M  V30 2753 C 256.417 -3.36034 2.6717 0
M  V30 2754 C 255.65 -4.65855 2.60413 0
M  V30 2755 O 255.873 -5.45805 1.65689 0
M  V30 2756 O 254.807 -4.88918 3.5106 0
M  V30 2757 H 258.633 -1.74494 2.48567 0
M  V30 2758 H 256.218 -0.80378 1.25935 0
M  V30 2759 H 258.1 -3.96179 1.43597 0
M  V30 2760 H 256.775 -3.19528 0.518037 0
M  V30 2761 H 255.682 -2.54472 2.74217 0
M  V30 2762 H 257.015 -3.36247 3.59442 0
M  V30 2763 N 258.668 -1.30515 -0.883378 0
M  V30 2764 C 259.578 -1.18959 -2.02203 0
M  V30 2765 C 260.594 -0.109172 -1.73657 0
M  V30 2766 O 261.77 -0.324413 -1.9877 0
M  V30 2767 C 258.835 -0.883871 -3.35244 0
M  V30 2768 C 257.896 -2.04982 -3.77201 0
M  V30 2769 C 257.129 -1.75859 -5.03894 0
M  V30 2770 O 257.352 -0.687276 -5.66244 0
M  V30 2771 O 256.286 -2.61146 -5.42297 0
M  V30 2772 H 260.112 -2.14616 -2.1488 0
M  V30 2773 H 257.697 -1.10124 -1.0096 0
M  V30 2774 H 259.579 -0.728644 -4.15053 0
M  V30 2775 H 258.254 0.0427798 -3.23672 0
M  V30 2776 H 257.161 -2.26038 -2.9809 0
M  V30 2777 H 258.494 -2.95825 -3.93381 0
M  V30 2778 N 260.146 1.09593 -1.13257 0
M  V30 2779 C 261.562 1.33775 -0.870423 0
M  V30 2780 C 261.762 1.95327 0.494926 0
M  V30 2781 O 260.818 2.19853 1.2418 0
M  V30 2782 C 262.131 2.25106 -1.99369 0
M  V30 2783 C 263.679 2.3862 -2.02558 0
M  V30 2784 C 264.154 3.33285 -3.14142 0
M  V30 2785 N 265.645 3.40857 -3.13641 0
M  V30 2786 C 266.38 4.14101 -3.96621 0
M  V30 2787 N 265.876 4.90157 -4.8961 0
M  V30 2788 N 267.669 4.09808 -3.84726 0
M  V30 2789 H 259.82 0.680136 -2.01216 0
M  V30 2790 H 262.083 0.362133 -0.876107 0
M  V30 2791 H 261.789 1.87103 -2.97801 0
M  V30 2792 H 261.663 3.25481 -1.90635 0
M  V30 2793 H 264.05 2.75887 -1.0474 0
M  V30 2794 H 264.131 1.38028 -2.15364 0
M  V30 2795 H 263.775 2.96741 -4.12198 0
M  V30 2796 H 263.705 4.33776 -2.98574 0
M  V30 2797 H 266.196 2.86624 -2.46282 0
M  V30 2798 H 266.509 5.4347 -5.49418 0
M  V30 2799 H 264.854 4.89251 -4.93617 0
M  V30 2800 H 268.045 3.4949 -3.11408 0
M  V30 2801 H 268.218 4.66629 -4.49623 0
M  V30 2802 N 261.624 0.925811 1.2754 0
M  V30 2803 C 262.534 0.428993 2.30644 0
M  V30 2804 C 263.55 -0.489387 1.66976 0
M  V30 2805 O 264.726 -0.372653 1.97922 0
M  V30 2806 C 261.791 -0.311967 3.45294 0
M  V30 2807 C 260.852 0.641098 4.24486 0
M  V30 2808 C 260.085 -0.0645955 5.33661 0
M  V30 2809 O 260.308 -1.28429 5.55754 0
M  V30 2810 O 259.242 0.606265 5.98839 0
M  V30 2811 H 263.068 1.28504 2.75173 0
M  V30 2812 H 260.653 0.691086 1.32455 0
M  V30 2813 H 262.535 -0.729972 4.15029 0
M  V30 2814 H 261.21 -1.14365 3.02824 0
M  V30 2815 H 260.117 1.10874 3.57292 0
M  V30 2816 H 261.45 1.43995 4.70666 0
M  V30 2817 N 263.102 -1.41638 0.69111 0
M  V30 2818 C 264.049 -2.30789 0.0229705 0
M  V30 2819 C 265.019 -1.46863 -0.775911 0
M  V30 2820 O 266.204 -1.75661 -0.74485 0
M  V30 2821 C 263.344 -3.32868 -0.910666 0
M  V30 2822 C 262.457 -4.31875 -0.103874 0
M  V30 2823 C 261.592 -5.21024 -1.03475 0
M  V30 2824 C 260.631 -6.11702 -0.220598 0
M  V30 2825 N 259.768 -6.93349 -1.10504 0
M  V30 2826 H 264.608 -2.87366 0.788978 0
M  V30 2827 H 262.145 -1.41535 0.400794 0
M  V30 2828 H 264.103 -3.90596 -1.46597 0
M  V30 2829 H 262.733 -2.77851 -1.64312 0
M  V30 2830 H 261.785 -3.76131 0.568285 0
M  V30 2831 H 263.097 -4.96003 0.527504 0
M  V30 2832 H 262.251 -5.83565 -1.65943 0
M  V30 2833 H 260.99 -4.57112 -1.69999 0
M  V30 2834 H 259.995 -5.48215 0.417187 0
M  V30 2835 H 261.22 -6.77668 0.440784 0
M  V30 2836 H 259.166 -6.3205 -1.75638 0
M  V30 2837 H 259.083 -7.54146 -0.529125 0
M  V30 2838 H 260.351 -7.60362 -1.71667 0
M  V30 2839 N 264.58 -0.43555 -1.51462 0
M  V30 2840 C 265.51 0.367376 -2.30592 0
M  V30 2841 C 266.491 1.02263 -1.35928 0
M  V30 2842 O 267.676 1.02661 -1.64847 0
M  V30 2843 C 264.806 1.46983 -3.14664 0
M  V30 2844 C 263.76 0.938161 -4.17591 0
M  V30 2845 C 263.086 2.13622 -4.90173 0
M  V30 2846 C 264.386 -0.0261621 -5.22293 0
M  V30 2847 H 266.08 -0.292969 -2.97963 0
M  V30 2848 H 263.626 -0.14234 -1.43295 0
M  V30 2849 H 265.579 2.03873 -3.688 0
M  V30 2850 H 264.303 2.15843 -2.4511 0
M  V30 2851 H 262.962 0.391481 -3.64504 0
M  V30 2852 H 262.61 2.81098 -4.17124 0
M  V30 2853 H 262.31 1.78688 -5.59772 0
M  V30 2854 H 263.834 2.7107 -5.47132 0
M  V30 2855 H 265.248 0.452384 -5.71512 0
M  V30 2856 H 263.645 -0.287992 -5.99409 0
M  V30 2857 H 264.715 -0.963391 -4.75233 0
M  V30 2858 N 266.058 1.56714 -0.166846 0
M  V30 2859 C 267.335 1.88412 0.525373 0
M  V30 2860 C 267.715 1.07602 1.81618 0
M  V30 2861 O 267.063 0.168621 2.27877 0
M  V30 2862 C 267.273 3.40363 0.771613 0
M  V30 2863 C 268.621 4.10007 1.1036 0
M  V30 2864 O 269.645 3.45655 0.860304 0
M  V30 2865 O 268.504 5.2369 1.56239 0
M  V30 2866 H 265.598 0.781587 0.270278 0
M  V30 2867 H 268.144 1.68458 -0.204946 0
M  V30 2868 H 266.916 3.91046 -0.141093 0
M  V30 2869 H 266.539 3.65914 1.55541 0
M  V30 2870 N 267.536 -0.106894 1.57237 0
M  V30 2871 C 268.784 -0.810921 1.85117 0
M  V30 2872 C 269.105 -1.7984 0.753827 0
M  V30 2873 O 268.375 -1.94649 -0.221056 0
M  V30 2874 H 266.955 -0.302466 0.683025 0
M  V30 2875 H 269.617 -0.0913324 1.94686 0
M  V30 2876 H 268.713 -1.34875 2.81452 0
M  V30 2877 N 269.014 -1.53014 -0.377408 0
M  V30 2878 C 269.944 -1.81589 -1.46791 0
M  V30 2879 C 270.925 -0.668622 -1.56408 0
M  V30 2880 O 272.11 -0.917337 -1.71168 0
M  V30 2881 C 269.24 -1.99519 -2.8427 0
M  V30 2882 C 268.194 -3.15249 -2.89486 0
M  V30 2883 C 267.52 -3.18451 -4.29527 0
M  V30 2884 C 268.82 -4.54084 -2.58079 0
M  V30 2885 H 270.514 -2.7291 -1.23127 0
M  V30 2886 H 268.06 -1.31319 -0.590883 0
M  V30 2887 H 270.013 -2.18092 -3.60575 0
M  V30 2888 H 268.737 -1.04897 -3.09296 0
M  V30 2889 H 267.396 -2.96477 -2.15631 0
M  V30 2890 H 267.044 -2.2149 -4.5161 0
M  V30 2891 H 266.744 -3.962 -4.33934 0
M  V30 2892 H 268.268 -3.39193 -5.07721 0
M  V30 2893 H 269.682 -4.72899 -3.24098 0
M  V30 2894 H 268.079 -5.33987 -2.7382 0
M  V30 2895 H 269.149 -4.60006 -1.53372 0
M  V30 2896 N 270.492 0.636531 -1.44174 0
M  V30 2897 C 271.722 1.42146 -1.49927 0
M  V30 2898 C 272.13 1.88812 -0.121063 0
M  V30 2899 O 271.473 1.61126 0.882267 0
M  V30 2900 C 271.535 2.67883 -2.39748 0
M  V30 2901 C 271.199 2.43048 -3.8701 0
M  V30 2902 C 272.196 2.05216 -4.77684 0
M  V30 2903 C 269.881 2.56856 -4.3166 0
M  V30 2904 C 271.875 1.81512 -6.11009 0
M  V30 2905 C 269.562 2.32766 -5.65034 0
M  V30 2906 C 270.56 1.95152 -6.54526 0
M  V30 2907 O 270.248 1.71326 -7.85431 0
M  V30 2908 H 269.98 0.442567 -0.51099 0
M  V30 2909 H 272.534 0.786158 -1.8976 0
M  V30 2910 H 270.764 3.34032 -1.94832 0
M  V30 2911 H 272.453 3.29874 -2.36513 0
M  V30 2912 H 273.219 1.94111 -4.44462 0
M  V30 2913 H 269.098 2.85104 -3.62266 0
M  V30 2914 H 272.642 1.52077 -6.80822 0
M  V30 2915 H 268.539 2.43479 -5.97819 0
M  V30 2916 H 269.307 1.85616 -7.97176 0
M  V30 2917 N 271.97 1.30982 0.876444 0
M  V30 2918 C 272.88 1.2003 2.01569 0
M  V30 2919 C 273.896 0.11838 1.73597 0
M  V30 2920 O 275.072 0.33495 1.98595 0
M  V30 2921 C 272.137 0.901637 3.34771 0
M  V30 2922 C 271.198 2.06979 3.76109 0
M  V30 2923 C 270.431 1.78529 5.02954 0
M  V30 2924 O 270.654 0.717296 5.65872 0
M  V30 2925 O 269.588 2.64019 5.40905 0
M  V30 2926 H 273.414 2.15753 2.13739 0
M  V30 2927 H 270.999 1.10658 1.00375 0
M  V30 2928 H 272.881 0.750645 4.1466 0
M  V30 2929 H 271.556 -0.0256141 3.2369 0
M  V30 2930 H 270.463 2.27616 2.96887 0
M  V30 2931 H 271.796 2.97907 3.91807 0
M  V30 2932 N 273.449 -1.08991 1.13837 0
M  V30 2933 C 274.689 -1.82867 0.913183 0
M  V30 2934 C 275.053 -1.83936 -0.550604 0
M  V30 2935 O 276.254 -2.53515 -0.893515 0
M  V30 2936 C 274.525 -3.24843 1.49036 0
M  V30 2937 S 276.084 -4.15669 1.40588 0
M  V30 2938 H 272.902 -0.630278 0.329046 0
M  V30 2939 H 275.504 -1.31049 1.45073 0
M  V30 2940 H 274.208 -3.21644 2.54899 0
M  V30 2941 H 273.739 -3.81734 0.950947 0
M  V30 2942 H 275.754 -4.94686 0.387353 0
M  V30 2943 N 274.927 -0.932562 -1.27047 0
M  V30 2944 C 276.176 -0.571351 -1.93439 0
M  V30 2945 C 276.489 0.892467 -1.74053 0
M  V30 2946 O 277.695 1.36267 -2.34826 0
M  V30 2947 C 276.151 -0.97106 -3.46552 0
M  V30 2948 C 275.759 -2.4559 -3.74686 0
M  V30 2949 C 277.503 -0.681333 -4.18997 0
M  V30 2950 C 275.41 -2.79475 -5.21198 0
M  V30 2951 H 274.34 -0.209966 -0.724176 0
M  V30 2952 H 276.991 -1.13403 -1.44263 0
M  V30 2953 H 275.373 -0.336983 -3.94564 0
M  V30 2954 H 276.547 -3.13829 -3.37414 0
M  V30 2955 H 274.862 -2.71802 -3.15456 0
M  V30 2956 H 277.459 -0.910939 -5.26883 0
M  V30 2957 H 277.802 0.381628 -4.14547 0
M  V30 2958 H 278.335 -1.27473 -3.76823 0
M  V30 2959 H 275.074 -3.847 -5.30741 0
M  V30 2960 H 274.594 -2.1589 -5.596 0
M  V30 2961 H 276.273 -2.67478 -5.89122 0
M  V30 2962 N 276.405 1.4127 -0.698611 0
M  V30 2963 C 277.335 2.33447 -0.049629 0
M  V30 2964 C 278.316 1.51982 0.763898 0
M  V30 2965 O 279.501 1.80509 0.716257 0
M  V30 2966 C 276.631 3.35828 0.885267 0
M  V30 2967 C 275.585 4.27627 0.178613 0
M  V30 2968 C 274.911 5.20406 1.22807 0
M  V30 2969 C 276.211 5.13459 -0.956933 0
M  V30 2970 H 277.905 2.87966 -0.81951 0
M  V30 2971 H 275.451 1.38461 -0.395538 0
M  V30 2972 H 277.404 3.9924 1.34854 0
M  V30 2973 H 276.128 2.79666 1.68685 0
M  V30 2974 H 274.787 3.65643 -0.26466 0
M  V30 2975 H 274.435 4.60558 2.02226 0
M  V30 2976 H 274.135 5.82661 0.760239 0
M  V30 2977 H 275.659 5.86695 1.69179 0
M  V30 2978 H 277.073 5.70421 -0.573805 0
M  V30 2979 H 275.47 5.8467 -1.35205 0
M  V30 2980 H 276.54 4.50443 -1.79524 0
M  V30 2981 N 277.883 0.443576 1.51229 0
M  V30 2982 C 279.123 -0.119889 2.04048 0
M  V30 2983 C 279.487 -1.39418 1.32009 0
M  V30 2984 O 280.688 -2.03829 1.75235 0
M  V30 2985 C 278.959 -0.327233 3.55899 0
M  V30 2986 S 280.518 -0.853208 4.30425 0
M  V30 2987 H 277.336 -0.028921 0.710412 0
M  V30 2988 H 279.938 0.604413 1.85922 0
M  V30 2989 H 278.642 0.606445 4.05895 0
M  V30 2990 H 278.173 -1.07844 3.7833 0
M  V30 2991 H 280.188 -2.13005 4.48155 0
M  V30 2992 N 279.361 -1.56624 0.175154 0
M  V30 2993 C 280.324 -2.16934 -0.739738 0
M  V30 2994 C 281.324 -1.11842 -1.15533 0
M  V30 2995 O 282.514 -1.37335 -1.07167 0
M  V30 2996 C 279.646 -2.75531 -2.00738 0
M  V30 2997 H 280.839 -2.99131 -0.214639 0
M  V30 2998 H 278.392 -1.56123 -0.0744197 0
M  V30 2999 H 279.127 -1.97078 -2.57548 0
M  V30 3000 H 278.912 -3.52444 -1.71831 0
M  V30 3001 H 280.402 -3.21904 -2.66021 0
M  V30 3002 N 280.839 0.0985539 -1.57292 0
M  V30 3003 C 282.079 0.808332 -1.87737 0
M  V30 3004 C 282.443 1.7607 -0.76572 0
M  V30 3005 O 283.644 2.51358 -0.952499 0
M  V30 3006 C 281.915 1.52093 -3.23423 0
M  V30 3007 S 283.474 2.26947 -3.75554 0
M  V30 3008 H 280.292 0.269377 -0.657995 0
M  V30 3009 H 282.894 0.0656269 -1.9539 0
M  V30 3010 H 281.598 0.81363 -4.02254 0
M  V30 3011 H 281.129 2.30361 -3.189 0
M  V30 3012 H 283.144 3.53027 -3.48692 0
M  V30 3013 N 282.317 1.53212 0.369288 0
M  V30 3014 C 283.557 1.70915 1.12105 0
M  V30 3015 C 283.921 0.449444 1.86665 0
M  V30 3016 O 285.122 0.503105 2.6405 0
M  V30 3017 C 283.393 2.9222 2.05772 0
M  V30 3018 S 284.952 3.30609 2.88519 0
M  V30 3019 H 281.77 0.601445 0.379189 0
M  V30 3020 H 284.372 1.91306 0.402794 0
M  V30 3021 H 283.076 3.82103 1.49752 0
M  V30 3022 H 282.607 2.7422 2.82076 0
M  V30 3023 H 284.622 2.82333 4.08047 0
M  V30 3024 N 283.795 -0.628877 1.44509 0
M  V30 3025 C 285.02 -1.42048 1.5112 0
M  V30 3026 C 285.445 -1.87594 0.137818 0
M  V30 3027 O 284.803 -1.58873 -0.873437 0
M  V30 3028 C 284.851 -2.61541 2.48251 0
M  V30 3029 O 283.955 -3.61453 1.98559 0
M  V30 3030 H 283.296 -0.424942 0.510216 0
M  V30 3031 H 285.826 -0.767374 1.89664 0
M  V30 3032 H 285.836 -3.09057 2.66361 0
M  V30 3033 H 284.511 -2.27736 3.48007 0
M  V30 3034 H 283.088 -3.20731 1.90227 0
M  V30 3035 N 285.273 -1.31445 -0.869486 0
M  V30 3036 C 286.501 -1.24122 -1.65534 0
M  V30 3037 C 286.916 0.193387 -1.87807 0
M  V30 3038 O 286.273 1.12557 -1.43656 0
M  V30 3039 C 286.324 -1.98229 -3.02304 0
M  V30 3040 O 286.045 -3.3609 -2.81026 0
M  V30 3041 C 287.546 -1.97751 -3.96749 0
M  V30 3042 H 284.766 -0.428868 -0.516055 0
M  V30 3043 H 287.31 -1.73328 -1.08525 0
M  V30 3044 H 285.465 -1.52782 -3.56001 0
M  V30 3045 H 285.879 -3.7383 -3.67902 0
M  V30 3046 H 287.353 -2.54114 -4.90031 0
M  V30 3047 H 287.83 -0.960137 -4.28577 0
M  V30 3048 H 288.436 -2.43079 -3.48988 0
M  V30 3049 N 286.751 1.08385 -1.14413 0
M  V30 3050 C 287.976 1.85057 -0.936413 0
M  V30 3051 C 288.401 1.81055 0.509971 0
M  V30 3052 O 287.759 1.1958 1.36273 0
M  V30 3053 C 287.807 3.30505 -1.44217 0
M  V30 3054 O 286.911 4.07491 -0.634409 0
M  V30 3055 H 286.252 0.573425 -0.334784 0
M  V30 3056 H 288.782 1.36799 -1.52142 0
M  V30 3057 H 288.792 3.81348 -1.45043 0
M  V30 3058 H 287.467 3.32734 -2.49522 0
M  V30 3059 H 286.044 3.66368 -0.694902 0
M  V30 3060 N 288.23 0.939286 1.26551 0
M  V30 3061 C 289.47 0.5933 1.956 0
M  V30 3062 C 289.834 -0.851515 1.72085 0
M  V30 3063 O 291.035 -1.30634 2.34921 0
M  V30 3064 C 289.306 0.923996 3.45249 0
M  V30 3065 S 290.865 0.688269 4.33369 0
M  V30 3066 H 287.683 0.218591 0.676564 0
M  V30 3067 H 290.285 1.2102 1.5354 0
M  V30 3068 H 288.989 1.97297 3.59864 0
M  V30 3069 H 288.52 0.296746 3.92279 0
M  V30 3070 H 290.535 -0.448434 4.9417 0
M  V30 3071 N 289.708 -1.40897 0.706093 0
M  V30 3072 C 291.119 -1.84023 0.315052 0
M  V30 3073 C 291.47 -1.5906 -1.14866 0
M  V30 3074 O 290.595 -1.06651 -1.88293 0
M  V30 3075 C 291.19 -3.34055 0.565038 0
M  V30 3076 C 289.749 -3.7571 0.227806 0
M  V30 3077 C 288.896 -2.64204 0.842122 0
M  V30 3078 H 291.847 -1.303 0.905963 0
M  V30 3079 H 291.868 -3.80107 -0.172843 0
M  V30 3080 H 291.38 -3.52192 1.63042 0
M  V30 3081 H 289.481 -3.63172 -0.832895 0
M  V30 3082 H 289.594 -4.74103 0.690174 0
M  V30 3083 H 287.958 -2.53255 0.270893 0
M  V30 3084 H 288.741 -2.85155 1.91158 0
M  V30 3085 N 291.186 -0.45159 -1.50991 0
M  V30 3086 C 292.411 0.110667 -2.07105 0
M  V30 3087 C 292.836 1.3446 -1.31538 0
M  V30 3088 O 292.194 1.77743 -0.357365 0
M  V30 3089 C 292.242 0.397238 -3.58405 0
M  V30 3090 O 291.346 1.48124 -3.84881 0
M  V30 3091 H 290.687 -0.00439271 -0.663985 0
M  V30 3092 H 293.217 -0.637026 -1.9443 0
M  V30 3093 H 293.227 0.64351 -4.02893 0
M  V30 3094 H 291.902 -0.504553 -4.12828 0
M  V30 3095 H 290.479 1.22381 -3.52246 0
M  V30 3096 N 292.664 1.56529 -0.183458 0
M  V30 3097 C 293.894 2.01331 0.463612 0
M  V30 3098 C 294.302 1.06278 1.5653 0
M  V30 3099 O 293.645 0.0577976 1.83609 0
M  V30 3100 C 293.707 3.42547 1.09096 0
M  V30 3101 C 293.371 4.56817 0.129442 0
M  V30 3102 C 294.368 5.15734 -0.656807 0
M  V30 3103 C 292.053 5.02295 0.02174 0
M  V30 3104 C 294.047 6.1857 -1.53784 0
M  V30 3105 C 291.734 6.04978 -0.862864 0
M  V30 3106 C 292.732 6.62988 -1.64123 0
M  V30 3107 O 292.42 7.63677 -2.51103 0
M  V30 3108 H 292.152 0.664917 0.121907 0
M  V30 3109 H 294.706 2.034 -0.285954 0
M  V30 3110 H 292.936 3.37428 1.88889 0
M  V30 3111 H 294.625 3.71228 1.64148 0
M  V30 3112 H 295.391 4.81473 -0.583839 0
M  V30 3113 H 291.27 4.56847 0.617392 0
M  V30 3114 H 294.814 6.63777 -2.14583 0
M  V30 3115 H 290.711 6.38663 -0.93699 0
M  V30 3116 H 291.479 7.81049 -2.44753 0
M  V30 3117 N 294.142 -0.090211 1.57342 0
M  V30 3118 C 295.388 -0.788838 1.8748 0
M  V30 3119 C 295.743 -1.76105 0.7749 0
M  V30 3120 O 295.036 -1.90302 -0.222663 0
M  V30 3121 C 295.23 -1.55222 3.21933 0
M  V30 3122 C 295.059 -0.655441 4.44898 0
M  V30 3123 C 293.829 -0.299325 5.04413 0
M  V30 3124 C 296.027 0.0397458 5.14285 0
M  V30 3125 N 294.009 0.605108 6.10911 0
M  V30 3126 C 295.38 0.802061 6.1479 0
M  V30 3127 C 297.435 0.113154 4.97771 0
M  V30 3128 C 296.138 1.63093 7.00566 0
M  V30 3129 C 298.164 0.928942 5.84059 0
M  V30 3130 C 297.526 1.67936 6.84088 0
M  V30 3131 H 293.625 -0.26467 0.735849 0
M  V30 3132 H 296.209 -0.0511453 1.94633 0
M  V30 3133 H 294.38 -2.26076 3.15823 0
M  V30 3134 H 296.112 -2.19843 3.39781 0
M  V30 3135 H 292.867 -0.648079 4.69145 0
M  V30 3136 H 293.291 1.05002 6.68808 0
M  V30 3137 H 297.933 -0.452676 4.2037 0
M  V30 3138 H 295.651 2.20781 7.77355 0
M  V30 3139 H 299.237 0.988478 5.73341 0
M  V30 3140 H 298.117 2.30044 7.49699 0
M  V30 3141 N 295.62 -1.53406 -0.361157 0
M  V30 3142 C 296.866 -1.70999 -1.1014 0
M  V30 3143 C 297.221 -0.458425 -1.86859 0
M  V30 3144 O 296.514 0.548654 -1.83577 0
M  V30 3145 C 296.708 -2.90211 -2.08596 0
M  V30 3146 C 296.537 -4.26841 -1.41553 0
M  V30 3147 C 295.307 -4.91621 -1.16778 0
M  V30 3148 C 297.505 -5.07212 -0.850915 0
M  V30 3149 N 295.487 -6.12164 -0.461312 0
M  V30 3150 C 296.858 -6.19394 -0.274046 0
M  V30 3151 C 298.913 -4.92218 -0.750036 0
M  V30 3152 C 297.616 -7.18221 0.393868 0
M  V30 3153 C 299.642 -5.91322 -0.095894 0
M  V30 3154 C 299.004 -7.0283 0.470081 0
M  V30 3155 H 295.103 -0.678939 -0.388028 0
M  V30 3156 H 297.687 -1.90811 -0.38722 0
M  V30 3157 H 295.858 -2.71931 -2.77323 0
M  V30 3158 H 297.59 -2.96606 -2.7533 0
M  V30 3159 H 294.345 -4.50849 -1.45024 0
M  V30 3160 H 294.769 -6.76888 -0.123312 0
M  V30 3161 H 299.411 -4.06192 -1.17337 0
M  V30 3162 H 297.129 -8.03835 0.82914 0
M  V30 3163 H 300.715 -5.81797 -0.0187075 0
M  V30 3164 H 299.595 -7.782 0.968241 0
M  V30 3165 N 297.098 0.621204 -1.44841 0
M  V30 3166 C 298.046 1.75385 -1.52784 0
M  V30 3167 C 299.04 1.64639 -0.398779 0
M  V30 3168 O 300.246 1.70598 -0.574137 0
M  V30 3169 H 296.621 0.579193 -0.479625 0
M  V30 3170 H 298.592 1.6581 -2.48092 0
M  V30 3171 C 297.341 3.13742 -1.4987 0
M  V30 3172 H 296.664 3.22663 -2.36069 0
M  V30 3173 H 298.104 3.92861 -1.59487 0
M  V30 3174 C 296.563 3.36175 -0.220973 0
M  V30 3175 O 297.093 3.95469 0.704782 0
M  V30 3176 N 295.299 2.90348 -0.120963 0
M  V30 3177 H 294.846 2.42278 -0.875162 0
M  V30 3178 H 294.804 3.05732 0.733168 0
M  V30 3179 N 298.576 1.31904 0.862503 0
M  V30 3180 C 299.824 1.21776 1.61292 0
M  V30 3181 C 300.145 -0.222413 1.93727 0
M  V30 3182 O 299.415 -1.1451 1.58947 0
M  V30 3183 H 297.995 0.447717 0.597962 0
M  V30 3184 H 300.657 1.65326 1.03215 0
M  V30 3185 H 299.753 1.7948 2.5533 0
M  V30 3186 N 300.054 -1.07777 1.14986 0
M  V30 3187 C 301.331 -1.7699 0.832695 0
M  V30 3188 C 301.711 -2.001 -0.672561 0
M  V30 3189 O 301.059 -1.61598 -1.6155 0
M  V30 3190 C 301.269 -3.08139 1.63863 0
M  V30 3191 C 302.617 -3.8256 1.84208 0
M  V30 3192 O 303.641 -3.17939 1.60603 0
M  V30 3193 O 302.5 -4.98612 2.23714 0
M  V30 3194 H 299.594 -0.768389 0.305791 0
M  V30 3195 H 302.14 -1.14182 1.25541 0
M  V30 3196 H 300.912 -2.86909 2.6608 0
M  V30 3197 H 300.535 -3.78678 1.21197 0
M  V30 3198 N 301.532 -0.945985 -1.26051 0
M  V30 3199 C 302.479 -0.45809 -2.26208 0
M  V30 3200 C 303.449 0.484816 -1.58867 0
M  V30 3201 O 304.634 0.399969 -1.86561 0
M  V30 3202 C 301.774 0.266131 -3.44072 0
M  V30 3203 C 300.887 -0.713005 -4.26075 0
M  V30 3204 C 300.022 0.0329013 -5.3119 0
M  V30 3205 C 299.061 -0.93774 -6.04874 0
M  V30 3206 N 298.198 -0.223274 -7.01745 0
M  V30 3207 H 303.038 -1.3171 -2.67313 0
M  V30 3208 H 300.575 -0.66069 -1.31428 0
M  V30 3209 H 302.533 0.702514 -4.11243 0
M  V30 3210 H 301.163 1.08925 -3.03867 0
M  V30 3211 H 300.215 -1.26789 -3.58648 0
M  V30 3212 H 301.527 -1.45406 -4.77136 0
M  V30 3213 H 300.681 0.528335 -6.04395 0
M  V30 3214 H 299.42 0.806801 -4.8098 0
M  V30 3215 H 298.425 -1.44425 -5.30492 0
M  V30 3216 H 299.65 -1.71172 -6.57173 0
M  V30 3217 H 297.596 0.532046 -6.53839 0
M  V30 3218 H 297.513 -0.90357 -7.50581 0
M  V30 3219 H 298.781 0.250907 -7.79096 0
M  V30 3220 N 303.011 1.40521 -0.713556 0
M  V30 3221 C 304.241 2.0494 -0.261395 0
M  V30 3222 C 304.649 1.53861 1.10107 0
M  V30 3223 O 303.992 0.689321 1.70276 0
M  V30 3224 C 304.054 3.59138 -0.161227 0
M  V30 3225 C 303.718 4.33096 -1.45865 0
M  V30 3226 C 304.715 4.61182 -2.40016 0
M  V30 3227 C 302.4 4.72043 -1.71701 0
M  V30 3228 C 304.394 5.27196 -3.58251 0
M  V30 3229 C 302.081 5.37789 -2.90218 0
M  V30 3230 C 303.079 5.65295 -3.83315 0
M  V30 3231 O 302.767 6.29683 -4.99754 0
M  V30 3232 H 302.499 0.666041 -0.115608 0
M  V30 3233 H 305.053 1.80954 -0.971849 0
M  V30 3234 H 303.283 3.81936 0.605153 0
M  V30 3235 H 304.972 4.05091 0.256105 0
M  V30 3236 H 305.738 4.31559 -2.21318 0
M  V30 3237 H 301.617 4.50003 -1.00092 0
M  V30 3238 H 305.161 5.48582 -4.30934 0
M  V30 3239 H 301.058 5.66831 -3.08825 0
M  V30 3240 H 301.826 6.4818 -4.99805 0
M  V30 3241 N 304.489 0.459591 1.5075 0
M  V30 3242 C 305.419 -0.330644 2.31147 0
M  V30 3243 C 306.4 -1.00087 1.37538 0
M  V30 3244 O 307.585 -1.00025 1.66459 0
M  V30 3245 C 304.715 -1.41958 3.16962 0
M  V30 3246 C 303.669 -0.871608 4.19031 0
M  V30 3247 C 302.995 -2.05797 4.9351 0
M  V30 3248 C 304.295 0.109251 5.22186 0
M  V30 3249 H 305.989 0.340336 2.97459 0
M  V30 3250 H 303.535 0.165119 1.4305 0
M  V30 3251 H 305.488 -1.9798 3.71997 0
M  V30 3252 H 304.212 -2.11917 2.48513 0
M  V30 3253 H 302.871 -0.333442 3.6508 0
M  V30 3254 H 302.519 -2.74427 4.21544 0
M  V30 3255 H 302.219 -1.6976 5.62544 0
M  V30 3256 H 303.743 -2.62331 5.51375 0
M  V30 3257 H 305.157 -0.361405 5.7216 0
M  V30 3258 H 303.554 0.383316 5.98875 0
M  V30 3259 H 304.624 1.03887 4.73641 0
M  V30 3260 N 305.967 -1.56429 0.191757 0
M  V30 3261 C 307.215 -1.97095 -0.447006 0
M  V30 3262 C 307.536 -1.07967 -1.62383 0
M  V30 3263 O 306.806 -0.150248 -1.95323 0
M  V30 3264 H 305.386 -0.727832 -0.168135 0
M  V30 3265 H 308.048 -1.92911 0.27771 0
M  V30 3266 H 307.144 -3.01848 -0.793371 0
M  V30 3267 N 307.445 0.0818655 -1.57387 0
M  V30 3268 C 308.856 0.634871 -1.75574 0
M  V30 3269 C 309.207 1.78435 -0.815809 0
M  V30 3270 O 308.332 2.164 0.0025366 0
M  V30 3271 C 308.927 1.15845 -3.18379 0
M  V30 3272 C 307.486 1.65741 -3.37945 0
M  V30 3273 C 306.633 0.572549 -2.71325 0
M  V30 3274 H 309.584 -0.144268 -1.58043 0
M  V30 3275 H 309.605 2.02751 -3.21982 0
M  V30 3276 H 309.117 0.321631 -3.86765 0
M  V30 3277 H 307.218 2.51781 -2.74658 0
M  V30 3278 H 307.331 1.74129 -4.46336 0
M  V30 3279 H 305.695 1.01518 -2.33594 0
M  V30 3280 H 306.478 -0.253918 -3.4236 0
M  V30 3281 N 308.923 1.53595 0.353017 0
M  V30 3282 C 309.886 1.80232 1.41594 0
M  V30 3283 C 310.886 0.673081 1.46035 0
M  V30 3284 O 312.076 0.941335 1.46576 0
M  V30 3285 C 309.208 1.93578 2.80607 0
M  V30 3286 H 310.401 2.75174 1.19244 0
M  V30 3287 H 307.954 1.44864 0.586872 0
M  V30 3288 H 308.689 1.00746 3.08254 0
M  V30 3289 H 308.474 2.75724 2.78781 0
M  V30 3290 H 309.964 2.15735 3.57558 0
M  V30 3291 N 310.401 -0.613514 1.45168 0
M  V30 3292 C 311.647 -1.37471 1.49096 0
M  V30 3293 C 311.98 -1.93765 0.129901 0
M  V30 3294 O 311.255 -1.74707 -0.854858 0
M  V30 3295 C 311.538 -2.52701 2.56542 0
M  V30 3296 C 311.391 -2.01643 4.0207 0
M  V30 3297 C 312.71 -3.54849 2.60327 0
M  V30 3298 H 309.829 -0.498502 0.54283 0
M  V30 3299 H 312.471 -0.692125 1.76945 0
M  V30 3300 H 310.621 -3.10931 2.32926 0
M  V30 3301 H 312.293 -1.48108 4.36877 0
M  V30 3302 H 310.536 -1.32688 4.13009 0
M  V30 3303 H 311.207 -2.84681 4.72928 0
M  V30 3304 H 313.683 -3.0645 2.81474 0
M  V30 3305 H 312.559 -4.32973 3.37381 0
M  V30 3306 H 312.82 -4.10079 1.6519 0
M  V30 3307 N 311.879 -1.3236 -0.855495 0
M  V30 3308 C 312.809 -1.23833 -1.97958 0
M  V30 3309 C 313.79 -0.122361 -1.69659 0
M  V30 3310 O 314.975 -0.30939 -1.9172 0
M  V30 3311 C 312.105 -0.959772 -3.33775 0
M  V30 3312 C 311.059 -2.03689 -3.76424 0
M  V30 3313 C 310.385 -1.61075 -5.09862 0
M  V30 3314 C 311.685 -3.4518 -3.9198 0
M  V30 3315 H 313.379 -2.1788 -2.0535 0
M  V30 3316 H 310.925 -1.04891 -0.986605 0
M  V30 3317 H 312.878 -0.886678 -4.11966 0
M  V30 3318 H 311.602 0.0163404 -3.26596 0
M  V30 3319 H 310.261 -2.10012 -3.00484 0
M  V30 3320 H 309.909 -0.622107 -4.99138 0
M  V30 3321 H 309.609 -2.33143 -5.39368 0
M  V30 3322 H 311.133 -1.55201 -5.90546 0
M  V30 3323 H 312.547 -3.4145 -4.60526 0
M  V30 3324 H 310.944 -4.1559 -4.32903 0
M  V30 3325 H 312.014 -3.84903 -2.94919 0
M  V30 3326 N 313.357 1.07166 -1.15556 0
M  V30 3327 C 314.29 2.13808 -0.797593 0
M  V30 3328 C 315.268 1.6101 0.226812 0
M  V30 3329 O 316.452 1.88161 0.112932 0
M  V30 3330 C 313.579 3.38187 -0.186371 0
M  V30 3331 C 312.625 4.09766 -1.18297 0
M  V30 3332 S 313.458 4.60932 -2.72584 0
M  V30 3333 C 314.614 5.88583 -2.12886 0
M  V30 3334 H 314.847 2.43843 -1.70083 0
M  V30 3335 H 312.38 1.19467 -0.978106 0
M  V30 3336 H 314.338 4.10189 0.159837 0
M  V30 3337 H 312.999 3.06326 0.694489 0
M  V30 3338 H 312.192 4.99065 -0.703562 0
M  V30 3339 H 311.794 3.43736 -1.47381 0
M  V30 3340 H 314.086 6.60866 -1.49208 0
M  V30 3341 H 315.029 6.41241 -3.0036 0
M  V30 3342 H 315.437 5.42194 -1.57116 0
M  V30 3343 N 314.835 0.952656 1.25548 0
M  V30 3344 C 315.767 0.428609 2.25157 0
M  V30 3345 C 316.78 -0.454428 1.56329 0
M  V30 3346 O 317.969 -0.263023 1.76552 0
M  V30 3347 C 315.069 -0.401972 3.36508 0
M  V30 3348 C 314.242 0.467601 4.34893 0
M  V30 3349 C 313.301 -0.30445 5.25319 0
M  V30 3350 O 312.327 0.296473 5.68427 0
M  V30 3351 N 313.529 -1.59805 5.5807 0
M  V30 3352 H 316.294 1.28497 2.70756 0
M  V30 3353 H 313.855 0.822798 1.39433 0
M  V30 3354 H 315.847 -0.926134 3.9396 0
M  V30 3355 H 314.417 -1.15918 2.90313 0
M  V30 3356 H 313.637 1.17288 3.76347 0
M  V30 3357 H 314.925 1.06119 4.97611 0
M  V30 3358 H 314.323 -2.10823 5.24948 0
M  V30 3359 H 312.88 -2.06822 6.18116 0
M  V30 3360 N 316.313 -1.40141 0.720998 0
M  V30 3361 C 317.276 -2.29058 0.0805834 0
M  V30 3362 C 318.276 -1.45632 -0.681758 0
M  V30 3363 O 319.466 -1.6648 -0.512856 0
M  V30 3364 C 316.598 -3.28925 -0.895593 0
M  V30 3365 H 317.791 -2.87191 0.863793 0
M  V30 3366 H 315.344 -1.48553 0.485975 0
M  V30 3367 H 316.079 -2.75822 -1.70566 0
M  V30 3368 H 315.864 -3.90519 -0.351766 0
M  V30 3369 H 317.354 -3.95494 -1.34069 0
M  V30 3370 N 317.792 -0.46758 -1.50504 0
M  V30 3371 C 319.022 0.086288 -2.0642 0
M  V30 3372 C 319.43 1.34369 -1.33197 0
M  V30 3373 O 318.773 1.79431 -0.393747 0
M  V30 3374 C 318.835 0.443846 -3.5675 0
M  V30 3375 C 318.499 -0.711035 -4.51435 0
M  V30 3376 C 319.496 -1.59205 -4.94924 0
M  V30 3377 C 317.181 -0.900363 -4.94165 0
M  V30 3378 C 319.175 -2.64683 -5.79846 0
M  V30 3379 C 316.862 -1.95837 -5.7887 0
M  V30 3380 C 317.86 -2.82997 -6.21612 0
M  V30 3381 O 317.548 -3.86977 -7.0463 0
M  V30 3382 H 317.28 -0.00217814 -0.675996 0
M  V30 3383 H 319.834 -0.654346 -1.94698 0
M  V30 3384 H 318.064 1.23762 -3.6636 0
M  V30 3385 H 319.753 0.932386 -3.95046 0
M  V30 3386 H 320.519 -1.45745 -4.62583 0
M  V30 3387 H 316.398 -0.231427 -4.60419 0
M  V30 3388 H 319.942 -3.32745 -6.13128 0
M  V30 3389 H 315.839 -2.09305 -6.10624 0
M  V30 3390 H 316.607 -3.83923 -7.22873 0
M  V30 3391 N 319.27 1.56325 -0.20005 0
M  V30 3392 C 320.686 1.58839 0.155716 0
M  V30 3393 C 320.886 1.21636 1.60645 0
M  V30 3394 O 319.942 0.941437 2.34293 0
M  V30 3395 C 321.255 3.0032 -0.151124 0
M  V30 3396 C 322.803 3.12866 -0.0916284 0
M  V30 3397 C 323.278 4.56488 -0.371845 0
M  V30 3398 N 324.769 4.62089 -0.320641 0
M  V30 3399 C 325.504 5.71116 -0.511243 0
M  V30 3400 N 325 6.88592 -0.762461 0
M  V30 3401 N 326.793 5.60335 -0.445157 0
M  V30 3402 H 318.944 1.78788 -1.14668 0
M  V30 3403 H 321.207 0.829996 -0.458051 0
M  V30 3404 H 320.913 3.32117 -1.15721 0
M  V30 3405 H 320.787 3.73257 0.543986 0
M  V30 3406 H 323.174 2.80878 0.905065 0
M  V30 3407 H 323.255 2.42304 -0.81989 0
M  V30 3408 H 322.899 4.89189 -1.36588 0
M  V30 3409 H 322.829 5.25246 0.377362 0
M  V30 3410 H 325.32 3.77665 -0.13329 0
M  V30 3411 H 325.633 7.67581 -0.896576 0
M  V30 3412 H 323.978 6.90387 -0.799412 0
M  V30 3413 H 327.169 4.67436 -0.249278 0
M  V30 3414 H 327.342 6.45243 -0.597116 0
M  V30 3415 N 320.748 -0.0735177 1.57428 0
M  V30 3416 C 321.994 -0.768909 1.88307 0
M  V30 3417 C 322.349 -1.75273 0.793535 0
M  V30 3418 O 321.642 -1.90527 -0.202466 0
M  V30 3419 C 321.836 -1.51799 3.23561 0
M  V30 3420 C 321.665 -0.608217 4.45568 0
M  V30 3421 C 320.435 -0.245808 5.04702 0
M  V30 3422 C 322.633 0.0942904 5.14214 0
M  V30 3423 N 320.615 0.66987 6.10234 0
M  V30 3424 C 321.986 0.867222 6.13905 0
M  V30 3425 C 324.041 0.165943 4.97623 0
M  V30 3426 C 322.744 1.70515 6.98797 0
M  V30 3427 C 324.77 0.990837 5.83041 0
M  V30 3428 C 324.132 1.75182 6.82269 0
M  V30 3429 H 320.231 -0.25685 0.738615 0
M  V30 3430 H 322.815 -0.030499 1.94676 0
M  V30 3431 H 320.986 -2.22713 3.18203 0
M  V30 3432 H 322.718 -2.16226 3.42094 0
M  V30 3433 H 319.473 -0.598284 4.69806 0
M  V30 3434 H 319.897 1.1209 6.67656 0
M  V30 3435 H 324.539 -0.408064 4.20826 0
M  V30 3436 H 322.257 2.29013 7.7497 0
M  V30 3437 H 325.843 1.04923 5.72261 0
M  V30 3438 H 324.723 2.37983 7.47217 0
M  V30 3439 N 322.226 -1.5378 -0.344866 0
M  V30 3440 C 323.159 -1.7649 -1.4466 0
M  V30 3441 C 324.137 -0.613954 -1.50563 0
M  V30 3442 O 325.321 -0.84896 -1.683 0
M  V30 3443 C 322.448 -1.86235 -2.82903 0
M  V30 3444 C 321.494 -3.08375 -2.94631 0
M  V30 3445 S 322.327 -4.67457 -2.61236 0
M  V30 3446 C 323.483 -4.80079 -4.0159 0
M  V30 3447 H 323.716 -2.69661 -1.2518 0
M  V30 3448 H 321.249 -1.44632 -0.540455 0
M  V30 3449 H 323.207 -1.92535 -3.62547 0
M  V30 3450 H 321.868 -0.940786 -2.9968 0
M  V30 3451 H 321.061 -3.11865 -3.95925 0
M  V30 3452 H 320.663 -3.00294 -2.22934 0
M  V30 3453 H 322.955 -4.61407 -4.96094 0
M  V30 3454 H 323.898 -5.82168 -4.03095 0
M  V30 3455 H 324.306 -4.08544 -3.89554 0
M  V30 3456 N 323.704 0.605807 -1.45491 0
M  V30 3457 C 324.953 1.36086 -1.48874 0
M  V30 3458 C 325.266 1.95131 -0.135333 0
M  V30 3459 O 326.472 2.7146 -0.0468144 0
M  V30 3460 C 324.928 2.46518 -2.62215 0
M  V30 3461 C 324.536 1.93877 -4.03876 0
M  V30 3462 C 326.28 3.23512 -2.74846 0
M  V30 3463 C 324.187 3.01801 -5.08596 0
M  V30 3464 H 323.117 0.511497 -0.553974 0
M  V30 3465 H 325.768 0.649089 -1.71636 0
M  V30 3466 H 324.15 3.20388 -2.32739 0
M  V30 3467 H 325.324 1.26704 -4.43038 0
M  V30 3468 H 323.639 1.29622 -3.95711 0
M  V30 3469 H 326.236 4.04013 -3.50253 0
M  V30 3470 H 326.579 3.74631 -1.81542 0
M  V30 3471 H 327.112 2.56742 -3.03856 0
M  V30 3472 H 323.851 2.55597 -6.03614 0
M  V30 3473 H 323.371 3.67535 -4.74002 0
M  V30 3474 H 325.05 3.66152 -5.33424 0
M  V30 3475 N 325.182 1.32811 0.848464 0
M  V30 3476 C 326.459 1.14334 1.58704 0
M  V30 3477 C 326.839 -0.293948 2.09043 0
M  V30 3478 O 326.187 -1.29153 1.88499 0
M  V30 3479 C 326.397 2.17626 2.72837 0
M  V30 3480 C 327.745 2.51282 3.42261 0
M  V30 3481 O 328.769 2.16219 2.83068 0
M  V30 3482 O 327.628 3.11413 4.49093 0
M  V30 3483 H 324.722 0.441601 0.699226 0
M  V30 3484 H 327.268 1.44362 0.892053 0
M  V30 3485 H 326.04 3.14211 2.3321 0
M  V30 3486 H 325.663 1.88628 3.50008 0
M  V30 3487 N 326.66 -1.06551 1.16123 0
M  V30 3488 C 327.885 -1.83544 0.965735 0
M  V30 3489 C 328.31 -1.81843 -0.481102 0
M  V30 3490 O 327.668 -1.21732 -1.34354 0
M  V30 3491 C 327.716 -3.28169 1.49457 0
M  V30 3492 O 326.82 -4.0643 0.699157 0
M  V30 3493 H 326.161 -0.568026 0.343864 0
M  V30 3494 H 328.691 -1.34362 1.54299 0
M  V30 3495 H 328.701 -3.78992 1.51092 0
M  V30 3496 H 327.376 -3.28722 2.54784 0
M  V30 3497 H 325.953 -3.65216 0.7531 0
M  V30 3498 N 328.138 -0.959301 -1.25041 0
M  V30 3499 C 329.554 -0.664474 -1.4511 0
M  V30 3500 C 329.754 0.776481 -1.85938 0
M  V30 3501 O 328.81 1.55128 -1.99227 0
M  V30 3502 C 330.123 -1.64139 -2.5195 0
M  V30 3503 C 331.671 -1.65309 -2.65786 0
M  V30 3504 C 332.146 -2.61777 -3.75815 0
M  V30 3505 N 333.637 -2.60169 -3.83231 0
M  V30 3506 C 334.372 -3.31489 -4.6787 0
M  V30 3507 N 333.868 -4.12298 -5.56761 0
M  V30 3508 N 335.661 -3.20354 -4.61876 0
M  V30 3509 H 327.812 -1.89043 -0.968332 0
M  V30 3510 H 330.075 -0.813408 -0.4869 0
M  V30 3511 H 329.781 -2.67086 -2.28819 0
M  V30 3512 H 329.655 -1.40756 -3.49954 0
M  V30 3513 H 332.042 -0.630778 -2.8828 0
M  V30 3514 H 332.123 -1.92753 -1.68167 0
M  V30 3515 H 331.767 -3.64137 -3.54071 0
M  V30 3516 H 331.697 -2.31616 -4.72929 0
M  V30 3517 H 334.188 -2.01507 -3.19692 0
M  V30 3518 H 334.501 -4.63625 -6.18281 0
M  V30 3519 H 332.846 -4.16395 -5.56454 0
M  V30 3520 H 336.037 -2.56692 -3.91442 0
M  V30 3521 H 336.21 -3.76201 -5.27614 0
M  V30 3522 N 329.616 1.39756 -0.72842 0
M  V30 3523 C 330.893 1.94574 -0.200079 0
M  V30 3524 C 331.273 1.66569 1.29684 0
M  V30 3525 O 330.621 0.990326 2.05924 0
M  V30 3526 C 330.831 3.45004 -0.526608 0
M  V30 3527 C 332.179 4.21965 -0.472318 0
M  V30 3528 O 333.203 3.53173 -0.463413 0
M  V30 3529 O 332.062 5.44552 -0.461075 0
M  V30 3530 H 329.156 0.826289 -0.0342851 0
M  V30 3531 H 331.702 1.49293 -0.806829 0
M  V30 3532 H 330.474 3.58796 -1.56144 0
M  V30 3533 H 330.097 3.97449 0.109449 0
M  V30 3534 N 331.094 0.475555 1.50254 0
M  V30 3535 C 332.371 -0.139685 1.95101 0
M  V30 3536 C 332.751 -1.56555 1.41611 0
M  V30 3537 O 332.099 -2.19956 0.618993 0
M  V30 3538 C 332.309 -0.0784298 3.48912 0
M  V30 3539 C 333.657 -0.265095 4.23772 0
M  V30 3540 O 334.681 -0.154808 3.55863 0
M  V30 3541 O 333.54 -0.488327 5.44314 0
M  V30 3542 H 330.634 -0.109236 0.819754 0
M  V30 3543 H 333.18 0.536276 1.61004 0
M  V30 3544 H 331.952 0.916918 3.80405 0
M  V30 3545 H 331.575 -0.795655 3.89558 0
M  V30 3546 N 332.573 -1.56217 0.208337 0
M  V30 3547 C 333.82 -1.97949 -0.42692 0
M  V30 3548 C 334.148 -1.09562 -1.60706 0
M  V30 3549 O 333.403 -0.137616 -1.95216 0
M  V30 3550 C 333.702 -3.45441 -0.916797 0
M  V30 3551 C 333.368 -4.50646 0.151391 0
M  V30 3552 C 332.03 -4.79139 0.444867 0
M  V30 3553 C 334.382 -5.13811 0.874492 0
M  V30 3554 C 331.71 -5.68084 1.46619 0
M  V30 3555 C 334.062 -6.03861 1.88506 0
M  V30 3556 C 332.726 -6.30704 2.18559 0
M  V30 3557 H 331.996 -0.724345 -0.156221 0
M  V30 3558 H 334.643 -1.89006 0.308084 0
M  V30 3559 H 332.948 -3.51521 -1.73032 0
M  V30 3560 H 334.645 -3.75094 -1.41794 0
M  V30 3561 H 331.235 -4.28511 -0.0875068 0
M  V30 3562 H 335.419 -4.91879 0.660996 0
M  V30 3563 H 330.675 -5.87151 1.7048 0
M  V30 3564 H 334.849 -6.51861 2.45051 0
M  V30 3565 H 332.476 -6.99424 2.97843 0
M  V30 3566 N 334.051 0.0651679 -1.57465 0
M  V30 3567 C 335.279 0.775808 -1.91804 0
M  V30 3568 C 335.694 1.70782 -0.804916 0
M  V30 3569 O 335.051 1.81153 0.221311 0
M  V30 3570 C 335.102 1.56381 -3.25925 0
M  V30 3571 O 334.823 0.669248 -4.32958 0
M  V30 3572 C 336.324 2.37485 -3.7432 0
M  V30 3573 H 333.544 0.2202 -0.63384 0
M  V30 3574 H 336.088 0.0334587 -2.04473 0
M  V30 3575 H 334.243 2.25837 -3.14764 0
M  V30 3576 H 334.657 1.21801 -5.10162 0
M  V30 3577 H 336.131 2.88223 -4.70778 0
M  V30 3578 H 336.608 3.17307 -3.03666 0
M  V30 3579 H 337.214 1.73173 -3.88447 0
M  V30 3580 N 335.529 1.53961 0.336706 0
M  V30 3581 C 336.439 1.85432 1.43708 0
M  V30 3582 C 337.455 0.745053 1.57242 0
M  V30 3583 O 338.631 1.03804 1.72588 0
M  V30 3584 C 335.696 2.06349 2.78605 0
M  V30 3585 C 334.757 3.30191 2.74358 0
M  V30 3586 C 333.99 3.50101 4.02822 0
M  V30 3587 O 334.213 2.7371 5.00439 0
M  V30 3588 O 333.147 4.43547 4.06878 0
M  V30 3589 H 336.973 2.78975 1.20028 0
M  V30 3590 H 334.558 1.39701 0.52952 0
M  V30 3591 H 336.44 2.21513 3.58483 0
M  V30 3592 H 335.115 1.15995 3.02203 0
M  V30 3593 H 334.022 3.20425 1.93078 0
M  V30 3594 H 335.355 4.2056 2.55715 0
M  V30 3595 N 337.007 -0.598083 1.45811 0
M  V30 3596 C 337.917 -1.73632 1.57763 0
M  V30 3597 C 338.933 -1.67763 0.461676 0
M  V30 3598 O 340.109 -1.87949 0.723685 0
M  V30 3599 C 337.174 -3.10114 1.55018 0
M  V30 3600 C 336.235 -3.27364 2.77726 0
M  V30 3601 C 335.468 -4.57334 2.75102 0
M  V30 3602 O 335.691 -5.40258 1.8297 0
M  V30 3603 O 334.625 -4.77502 3.66437 0
M  V30 3604 H 338.451 -1.66498 2.53992 0
M  V30 3605 H 336.036 -0.763308 1.28429 0
M  V30 3606 H 337.918 -3.9141 1.56129 0
M  V30 3607 H 336.593 -3.17718 0.619431 0
M  V30 3608 H 335.5 -2.45619 2.82174 0
M  V30 3609 H 336.833 -3.24641 3.69958 0
M  V30 3610 N 338.485 -1.33259 -0.841409 0
M  V30 3611 C 339.901 -1.12538 -1.13169 0
M  V30 3612 C 340.101 0.0854037 -2.01319 0
M  V30 3613 O 339.157 0.766417 -2.40587 0
M  V30 3614 C 340.47 -2.41156 -1.79623 0
M  V30 3615 C 342.018 -2.47038 -1.922 0
M  V30 3616 C 342.493 -3.7561 -2.6207 0
M  V30 3617 N 343.984 -3.76667 -2.69585 0
M  V30 3618 C 344.719 -4.72861 -3.2433 0
M  V30 3619 N 344.215 -5.79428 -3.79783 0
M  V30 3620 N 346.008 -4.6034 -3.22558 0
M  V30 3621 H 338.159 -2.10868 -0.254676 0
M  V30 3622 H 340.422 -0.931615 -0.175493 0
M  V30 3623 H 340.128 -3.29747 -1.22311 0
M  V30 3624 H 340.002 -2.53114 -2.79666 0
M  V30 3625 H 342.389 -1.58898 -2.48667 0
M  V30 3626 H 342.47 -2.39022 -0.911148 0
M  V30 3627 H 342.114 -4.64131 -2.06263 0
M  V30 3628 H 342.044 -3.80902 -3.63622 0
M  V30 3629 H 344.535 -2.99648 -2.30259 0
M  V30 3630 H 344.848 -6.48867 -4.19752 0
M  V30 3631 H 343.193 -5.83166 -3.78078 0
M  V30 3632 H 346.384 -3.76244 -2.78492 0
M  V30 3633 H 346.557 -5.35478 -3.64921 0
M  V30 3634 N 339.963 1.05934 -1.16686 0
M  V30 3635 C 340.893 2.1546 -0.899949 0
M  V30 3636 C 341.874 1.69391 0.155154 0
M  V30 3637 O 343.059 1.94199 0.00648693 0
M  V30 3638 C 340.189 3.44939 -0.404241 0
M  V30 3639 C 339.143 4.04536 -1.39767 0
M  V30 3640 C 338.469 5.29268 -0.760216 0
M  V30 3641 C 339.769 4.42893 -2.76845 0
M  V30 3642 H 341.463 2.38046 -1.81588 0
M  V30 3643 H 339.009 1.14404 -0.874514 0
M  V30 3644 H 340.962 4.20901 -0.204971 0
M  V30 3645 H 339.686 3.21983 0.547206 0
M  V30 3646 H 338.345 3.30635 -1.58355 0
M  V30 3647 H 337.993 5.02611 0.197831 0
M  V30 3648 H 337.693 5.70101 -1.42332 0
M  V30 3649 H 339.217 6.07924 -0.57105 0
M  V30 3650 H 340.631 5.09921 -2.62019 0
M  V30 3651 H 339.028 4.94721 -3.39663 0
M  V30 3652 H 340.098 3.53584 -3.31823 0
M  V30 3653 N 341.441 0.965919 1.2453 0
M  V30 3654 C 342.404 0.499547 2.2369 0
M  V30 3655 C 343.404 -0.40294 1.5567 0
M  V30 3656 O 344.594 -0.19865 1.73064 0
M  V30 3657 C 341.726 -0.276792 3.39774 0
M  V30 3658 H 342.919 1.37613 2.66463 0
M  V30 3659 H 340.472 0.750324 1.37112 0
M  V30 3660 H 341.207 -1.17055 3.02438 0
M  V30 3661 H 340.992 0.370826 3.90343 0
M  V30 3662 H 342.482 -0.592175 4.1338 0
M  V30 3663 N 342.919 -1.39368 0.735821 0
M  V30 3664 C 343.866 -2.30599 0.0963825 0
M  V30 3665 C 344.836 -1.49257 -0.728794 0
M  V30 3666 O 346.021 -1.77941 -0.688588 0
M  V30 3667 C 343.161 -3.35596 -0.804305 0
M  V30 3668 C 342.274 -4.31987 0.0335761 0
M  V30 3669 C 341.409 -5.24053 -0.868461 0
M  V30 3670 C 340.448 -6.12095 -0.0258776 0
M  V30 3671 N 339.585 -6.96514 -0.883893 0
M  V30 3672 H 344.425 -2.8471 0.880002 0
M  V30 3673 H 341.962 -1.40188 0.445619 0
M  V30 3674 H 343.92 -3.95062 -1.34096 0
M  V30 3675 H 342.55 -2.82938 -1.55389 0
M  V30 3676 H 341.602 -3.74133 0.68766 0
M  V30 3677 H 342.914 -4.94074 0.685036 0
M  V30 3678 H 342.068 -5.88549 -1.47293 0
M  V30 3679 H 340.807 -4.62289 -1.5537 0
M  V30 3680 H 339.812 -5.4661 0.591386 0
M  V30 3681 H 341.037 -6.75923 0.656156 0
M  V30 3682 H 338.983 -6.37318 -1.55441 0
M  V30 3683 H 338.9 -7.55448 -0.288931 0
M  V30 3684 H 340.168 -7.65439 -1.4739 0
M  V30 3685 N 344.397 -0.483516 -1.5 0
M  V30 3686 C 345.327 0.293829 -2.31644 0
M  V30 3687 C 346.308 0.978864 -1.39112 0
M  V30 3688 O 347.493 0.973644 -1.68029 0
M  V30 3689 C 344.623 1.36897 -3.19181 0
M  V30 3690 C 343.577 0.804833 -4.20365 0
M  V30 3691 C 342.903 1.9792 -4.96721 0
M  V30 3692 C 344.203 -0.192313 -5.21946 0
M  V30 3693 H 345.897 -0.387616 -2.9688 0
M  V30 3694 H 343.443 -0.187856 -1.42769 0
M  V30 3695 H 345.396 1.92037 -3.751 0
M  V30 3696 H 344.12 2.07936 -2.51853 0
M  V30 3697 H 342.779 0.275319 -3.65565 0
M  V30 3698 H 342.427 2.67686 -4.25856 0
M  V30 3699 H 342.127 1.60789 -5.65173 0
M  V30 3700 H 343.651 2.53526 -5.55479 0
M  V30 3701 H 345.065 0.270333 -5.72662 0
M  V30 3702 H 343.462 -0.478543 -5.98189 0
M  V30 3703 H 344.532 -1.11409 -4.71928 0
M  V30 3704 N 345.875 1.56104 -0.216619 0
M  V30 3705 C 346.807 2.17339 0.72776 0
M  V30 3706 C 347.82 1.14109 1.16116 0
M  V30 3707 O 349.009 1.4111 1.09317 0
M  V30 3708 C 346.109 2.73818 1.99693 0
M  V30 3709 C 345.282 4.02168 1.71988 0
M  V30 3710 C 344.341 4.43259 2.83562 0
M  V30 3711 O 343.367 5.10257 2.52244 0
M  V30 3712 N 344.569 4.08535 4.12407 0
M  V30 3713 H 347.334 2.99005 0.203983 0
M  V30 3714 H 344.895 1.61861 -0.0354289 0
M  V30 3715 H 346.887 2.9828 2.73516 0
M  V30 3716 H 345.457 1.96483 2.43132 0
M  V30 3717 H 344.677 3.85612 0.818337 0
M  V30 3718 H 345.965 4.85907 1.50903 0
M  V30 3719 H 345.363 3.54687 4.40696 0
M  V30 3720 H 343.92 4.37901 4.8279 0
M  V30 3721 N 347.353 -0.0568162 1.57498 0
M  V30 3722 C 348.63 -0.786954 1.79071 0
M  V30 3723 C 349.01 -1.95028 0.80792 0
M  V30 3724 O 348.358 -2.27968 -0.155858 0
M  V30 3725 C 348.568 -1.24594 3.26002 0
M  V30 3726 C 349.916 -1.67323 3.90241 0
M  V30 3727 O 350.94 -1.34124 3.29984 0
M  V30 3728 O 349.799 -2.28842 4.9628 0
M  V30 3729 H 346.893 -0.378262 0.735423 0
M  V30 3730 H 349.439 -0.035734 1.69662 0
M  V30 3731 H 348.211 -0.41423 3.89101 0
M  V30 3732 H 347.834 -2.05803 3.40192 0
M  V30 3733 N 348.832 -1.54138 -0.328536 0
M  V30 3734 C 350.243 -1.63395 -0.903272 0
M  V30 3735 C 350.594 -0.524828 -1.8905 0
M  V30 3736 O 349.719 0.343068 -2.13663 0
M  V30 3737 C 350.314 -2.9618 -1.64507 0
M  V30 3738 C 348.873 -3.0765 -2.1686 0
M  V30 3739 C 348.02 -2.58933 -0.992416 0
M  V30 3740 H 350.971 -1.58344 -0.106253 0
M  V30 3741 H 350.992 -2.86061 -2.50897 0
M  V30 3742 H 350.504 -3.76884 -0.926302 0
M  V30 3743 H 348.605 -2.31611 -2.91868 0
M  V30 3744 H 348.718 -4.1337 -2.42202 0
M  V30 3745 H 347.082 -2.14706 -1.37016 0
M  V30 3746 H 347.865 -3.42089 -0.288041 0
M  V30 3747 N 350.31 0.590341 -1.46126 0
M  V30 3748 C 351.557 1.34882 -1.5104 0
M  V30 3749 C 351.885 1.93849 -0.159021 0
M  V30 3750 O 351.14 1.76544 0.844436 0
M  V30 3751 C 351.439 2.5032 -2.55097 0
M  V30 3752 C 351.105 2.09394 -3.99331 0
M  V30 3753 C 349.767 1.97947 -4.38601 0
M  V30 3754 C 352.119 1.77712 -4.89967 0
M  V30 3755 C 349.447 1.53065 -5.66381 0
M  V30 3756 C 351.799 1.34312 -6.18177 0
M  V30 3757 C 350.463 1.21436 -6.56361 0
M  V30 3758 H 349.733 0.493568 -0.552695 0
M  V30 3759 H 352.38 0.665539 -1.79563 0
M  V30 3760 H 350.685 3.24062 -2.20207 0
M  V30 3761 H 352.382 3.08541 -2.56132 0
M  V30 3762 H 348.972 2.19235 -3.68285 0
M  V30 3763 H 353.156 1.85445 -4.60352 0
M  V30 3764 H 348.412 1.41733 -5.94745 0
M  V30 3765 H 352.586 1.08849 -6.87841 0
M  V30 3766 H 350.213 0.864345 -7.5527 0
M  V30 3767 N 351.788 1.33704 0.83433 0
M  V30 3768 C 353.013 1.28615 1.62705 0
M  V30 3769 C 353.438 -0.139242 1.87584 0
M  V30 3770 O 352.796 -1.09734 1.4432 0
M  V30 3771 C 352.844 2.07139 2.95171 0
M  V30 3772 O 351.948 1.4331 3.86699 0
M  V30 3773 H 351.289 0.44226 0.49528 0
M  V30 3774 H 353.819 1.76335 1.03766 0
M  V30 3775 H 353.829 2.18073 3.44831 0
M  V30 3776 H 352.504 3.10779 2.76386 0
M  V30 3777 H 351.081 1.4105 3.45195 0
M  V30 3778 N 353.266 -1.05314 1.17247 0
M  V30 3779 C 354.196 -2.1498 0.911362 0
M  V30 3780 C 355.177 -1.69471 -0.146169 0
M  V30 3781 O 356.362 -1.942 0.003812 0
M  V30 3782 C 353.492 -3.4472 0.422528 0
M  V30 3783 C 352.446 -4.03789 1.4191 0
M  V30 3784 C 351.772 -5.28858 0.788274 0
M  V30 3785 C 353.072 -4.41418 2.7919 0
M  V30 3786 H 354.766 -2.3708 1.82848 0
M  V30 3787 H 352.312 -1.13938 0.880569 0
M  V30 3788 H 354.265 -4.20787 0.227289 0
M  V30 3789 H 352.989 -3.22269 -0.530123 0
M  V30 3790 H 351.648 -3.2979 1.60106 0
M  V30 3791 H 351.296 -5.02709 -0.171173 0
M  V30 3792 H 350.996 -5.69338 1.45353 0
M  V30 3793 H 352.52 -6.07612 0.603282 0
M  V30 3794 H 353.934 -5.08524 2.64719 0
M  V30 3795 H 352.331 -4.92913 3.42282 0
M  V30 3796 H 353.401 -3.51819 3.33693 0
M  V30 3797 N 354.744 -0.972509 -1.24016 0
M  V30 3798 C 355.974 -0.653853 -1.9598 0
M  V30 3799 C 356.382 0.781801 -1.72292 0
M  V30 3800 O 355.725 1.53677 -1.00644 0
M  V30 3801 C 355.787 -0.854608 -3.49194 0
M  V30 3802 C 355.451 -2.27082 -3.96589 0
M  V30 3803 C 356.448 -3.24892 -4.05883 0
M  V30 3804 C 354.133 -2.5998 -4.29786 0
M  V30 3805 C 356.127 -4.53684 -4.47716 0
M  V30 3806 C 353.814 -3.88997 -4.71301 0
M  V30 3807 C 354.812 -4.85661 -4.80232 0
M  V30 3808 O 354.5 -6.12376 -5.20818 0
M  V30 3809 H 354.232 -0.242572 -0.630979 0
M  V30 3810 H 356.786 -1.30431 -1.58673 0
M  V30 3811 H 355.016 -0.146985 -3.86421 0
M  V30 3812 H 356.705 -0.534311 -4.02368 0
M  V30 3813 H 357.471 -3.00805 -3.80449 0
M  V30 3814 H 353.35 -1.85457 -4.22051 0
M  V30 3815 H 356.894 -5.29135 -4.54601 0
M  V30 3816 H 352.791 -4.12882 -4.96184 0
M  V30 3817 H 353.559 -6.16013 -5.38953 0
M  V30 3818 N 356.222 1.38976 -0.743202 0
M  V30 3819 C 357.638 1.53984 -0.419664 0
M  V30 3820 C 357.838 1.70837 1.0685 0
M  V30 3821 O 356.894 1.7135 1.8546 0
M  V30 3822 C 358.207 2.75287 -1.20985 0
M  V30 3823 C 359.755 2.89129 -1.19889 0
M  V30 3824 C 360.23 4.13381 -1.97181 0
M  V30 3825 N 361.721 4.20437 -1.94389 0
M  V30 3826 C 362.456 5.15547 -2.50996 0
M  V30 3827 N 361.952 6.16395 -3.16274 0
M  V30 3828 N 363.745 5.07822 -2.40984 0
M  V30 3829 H 355.896 1.26285 -1.7078 0
M  V30 3830 H 358.159 0.612689 -0.723406 0
M  V30 3831 H 357.865 2.69204 -2.26323 0
M  V30 3832 H 357.739 3.68184 -0.819759 0
M  V30 3833 H 360.126 2.947 -0.153606 0
M  V30 3834 H 360.207 1.97272 -1.62841 0
M  V30 3835 H 359.851 4.08572 -3.01714 0
M  V30 3836 H 359.781 5.04298 -1.51629 0
M  V30 3837 H 362.272 3.48205 -1.46839 0
M  V30 3838 H 362.585 6.85443 -3.56915 0
M  V30 3839 H 360.93 6.16758 -3.20367 0
M  V30 3840 H 364.121 4.27973 -1.89622 0
M  V30 3841 H 364.294 5.81767 -2.85397 0
M  V30 3842 N 357.7 0.491464 1.49741 0
M  V30 3843 C 358.94 -0.0549118 2.04326 0
M  V30 3844 C 359.304 -1.35148 1.36378 0
M  V30 3845 O 360.505 -1.9815 1.81631 0
M  V30 3846 C 358.776 -0.213841 3.5676 0
M  V30 3847 S 360.335 -0.715839 4.32922 0
M  V30 3848 H 357.153 -0.00630513 0.710972 0
M  V30 3849 H 359.755 0.663257 1.83905 0
M  V30 3850 H 358.459 0.73527 4.0376 0
M  V30 3851 H 357.99 -0.957529 3.81569 0
M  V30 3852 H 360.005 -1.9864 4.54705 0
M  V30 3853 N 359.178 -1.55987 0.224894 0
M  V30 3854 C 360.128 -2.17076 -0.697296 0
M  V30 3855 C 361.112 -1.12006 -1.15514 0
M  V30 3856 O 362.304 -1.37985 -1.10857 0
M  V30 3857 C 359.433 -2.85679 -1.90374 0
M  V30 3858 C 358.519 -3.97977 -1.46543 0
M  V30 3859 N 358.91 -5.00359 -0.739909 0
M  V30 3860 C 357.208 -4.10128 -1.75245 0
M  V30 3861 C 357.909 -5.79407 -0.515939 0
M  V30 3862 N 356.885 -5.32892 -1.07364 0
M  V30 3863 H 360.687 -2.93592 -0.134594 0
M  V30 3864 H 358.201 -1.62379 0.0262885 0
M  V30 3865 H 360.198 -3.27857 -2.57518 0
M  V30 3866 H 358.858 -2.1066 -2.47088 0
M  V30 3867 H 359.869 -5.16412 -0.392253 0
M  V30 3868 H 356.546 -3.46263 -2.33255 0
M  V30 3869 H 357.936 -6.71872 0.0617349 0
M  V30 3870 N 360.656 0.0484629 -1.57525 0
M  V30 3871 C 361.884 0.755421 -1.92616 0
M  V30 3872 C 362.299 1.69919 -0.822984 0
M  V30 3873 O 361.656 1.81378 0.202085 0
M  V30 3874 C 361.707 1.52915 -3.27566 0
M  V30 3875 O 361.428 0.62329 -4.33644 0
M  V30 3876 C 362.929 2.33502 -3.76818 0
M  V30 3877 H 360.149 0.213465 -0.63614 0
M  V30 3878 H 362.693 0.0117698 -2.04497 0
M  V30 3879 H 360.848 2.22486 -3.17142 0
M  V30 3880 H 361.262 1.16383 -5.11425 0
M  V30 3881 H 362.736 2.83214 -4.73808 0
M  V30 3882 H 363.213 3.14068 -3.07014 0
M  V30 3883 H 363.819 1.69043 -3.90262 0
M  V30 3884 N 362.134 1.5431 0.320358 0
M  V30 3885 C 363.383 1.7188 1.05546 0
M  V30 3886 C 363.696 0.501143 1.89071 0
M  V30 3887 O 364.902 0.558258 2.65699 0
M  V30 3888 C 363.358 3.04025 1.92605 0
M  V30 3889 C 362.966 4.33207 1.14176 0
M  V30 3890 C 364.71 3.30959 2.65832 0
M  V30 3891 C 362.617 5.56412 2.00399 0
M  V30 3892 H 361.547 0.640547 0.397763 0
M  V30 3893 H 364.198 1.80802 0.313522 0
M  V30 3894 H 362.58 2.89019 2.7071 0
M  V30 3895 H 363.754 4.58989 0.40819 0
M  V30 3896 H 362.069 4.13062 0.526165 0
M  V30 3897 H 364.666 4.20203 3.30656 0
M  V30 3898 H 365.009 2.48979 3.33639 0
M  V30 3899 H 365.542 3.46847 1.94787 0
M  V30 3900 H 362.281 6.41004 1.37094 0
M  V30 3901 H 361.801 5.34844 2.7148 0
M  V30 3902 H 363.48 5.92938 2.58908 0
M  V30 3903 N 363.613 -0.582584 1.46437 0
M  V30 3904 C 364.546 -1.70633 1.51524 0
M  V30 3905 C 365.524 -1.58349 0.369351 0
M  V30 3906 O 366.708 -1.79563 0.573516 0
M  V30 3907 C 363.835 -3.08687 1.39392 0
M  V30 3908 C 362.881 -3.3949 2.58164 0
M  V30 3909 S 363.714 -3.31548 4.20519 0
M  V30 3910 C 364.87 -4.72139 4.10896 0
M  V30 3911 H 365.103 -1.66058 2.46601 0
M  V30 3912 H 362.636 -0.761337 1.34324 0
M  V30 3913 H 364.594 -3.8833 1.33079 0
M  V30 3914 H 363.255 -3.10751 0.457436 0
M  V30 3915 H 362.448 -4.40071 2.45669 0
M  V30 3916 H 362.05 -2.67415 2.61468 0
M  V30 3917 H 364.342 -5.62527 3.77584 0
M  V30 3918 H 365.285 -4.89692 5.11476 0
M  V30 3919 H 365.693 -4.48995 3.42146 0
M  V30 3920 N 365.091 -1.34144 -0.827227 0
M  V30 3921 C 366.039 -1.25364 -1.95925 0
M  V30 3922 C 367.033 -0.152608 -1.68711 0
M  V30 3923 O 368.239 -0.317311 -1.77181 0
M  V30 3924 H 364.614 -0.389342 -0.643364 0
M  V30 3925 H 366.585 -2.21045 -2.00454 0
M  V30 3926 C 365.334 -1.02158 -3.32354 0
M  V30 3927 H 364.657 -1.86111 -3.5384 0
M  V30 3928 H 366.097 -1.00048 -4.12027 0
M  V30 3929 C 364.556 0.275244 -3.35774 0
M  V30 3930 O 365.086 1.27806 -3.80826 0
M  V30 3931 N 363.292 0.306853 -2.88975 0
M  V30 3932 H 362.839 -0.509777 -2.52506 0
M  V30 3933 H 362.797 1.17432 -2.91646 0
M  V30 3934 N 366.569 1.04691 -1.17803 0
M  V30 3935 C 367.809 1.79352 -0.980423 0
M  V30 3936 C 368.173 1.85853 0.481958 0
M  V30 3937 O 369.374 2.56656 0.798809 0
M  V30 3938 C 367.645 3.19088 -1.6099 0
M  V30 3939 S 369.204 4.10164 -1.55918 0
M  V30 3940 H 366.022 0.617631 -0.352211 0
M  V30 3941 H 368.624 1.25575 -1.49837 0
M  V30 3942 H 367.328 3.11962 -2.66661 0
M  V30 3943 H 366.859 3.77941 -1.09197 0
M  V30 3944 H 368.874 4.92907 -0.570685 0
M  V30 3945 N 368.047 0.979072 1.23499 0
M  V30 3946 C 369.275 0.665202 1.95915 0
M  V30 3947 C 369.69 -0.767571 1.72493 0
M  V30 3948 O 369.047 -1.51635 1.01554 0
M  V30 3949 C 369.098 0.944438 3.48945 0
M  V30 3950 O 368.819 2.3209 3.71572 0
M  V30 3951 C 370.32 0.646336 4.38563 0
M  V30 3952 H 367.54 0.247218 0.623798 0
M  V30 3953 H 370.084 1.31009 1.57025 0
M  V30 3954 H 368.239 0.345575 3.85856 0
M  V30 3955 H 368.653 2.40957 4.65876 0
M  V30 3956 H 370.127 0.892091 5.44744 0
M  V30 3957 H 370.604 -0.419575 4.37191 0
M  V30 3958 H 371.21 1.22562 4.07258 0
M  V30 3959 N 369.525 -1.3858 0.750561 0
M  V30 3960 C 370.941 -1.53759 0.427824 0
M  V30 3961 C 371.141 -1.71401 -1.05943 0
M  V30 3962 O 370.197 -1.72331 -1.84549 0
M  V30 3963 C 371.51 -2.74642 1.22443 0
M  V30 3964 C 373.058 -2.88489 1.2142 0
M  V30 3965 C 373.533 -4.12329 1.9937 0
M  V30 3966 N 375.024 -4.194 1.96616 0
M  V30 3967 C 375.759 -5.14209 2.53727 0
M  V30 3968 N 375.255 -6.14709 3.19539 0
M  V30 3969 N 377.048 -5.06537 2.43673 0
M  V30 3970 H 369.199 -1.25377 1.71447 0
M  V30 3971 H 371.462 -0.608844 0.726645 0
M  V30 3972 H 371.168 -2.68 2.27747 0
M  V30 3973 H 371.042 -3.67745 0.839273 0
M  V30 3974 H 373.429 -2.94614 0.169232 0
M  V30 3975 H 373.51 -1.96406 1.63885 0
M  V30 3976 H 373.154 -4.06966 3.03877 0
M  V30 3977 H 373.084 -5.03486 1.54302 0
M  V30 3978 H 375.575 -3.47421 1.48684 0
M  V30 3979 H 375.888 -6.8354 3.60545 0
M  V30 3980 H 374.233 -6.1505 3.23633 0
M  V30 3981 H 377.424 -4.26962 1.91889 0
M  V30 3982 H 377.597 -5.80245 2.88479 0
M  V30 3983 N 371.003 -0.499398 -1.49478 0
M  V30 3984 C 372.231 0.0425456 -2.06856 0
M  V30 3985 C 372.646 1.30964 -1.35992 0
M  V30 3986 O 372.003 1.77172 -0.437762 0
M  V30 3987 C 372.054 0.301735 -3.60239 0
M  V30 3988 O 371.775 -0.915127 -4.28436 0
M  V30 3989 C 373.276 0.887499 -4.34325 0
M  V30 3990 H 370.496 -0.0197482 -0.670709 0
M  V30 3991 H 373.04 -0.696297 -1.92281 0
M  V30 3992 H 371.195 0.990556 -3.74522 0
M  V30 3993 H 371.609 -0.676993 -5.20113 0
M  V30 3994 H 373.083 1.01845 -5.42523 0
M  V30 3995 H 373.56 1.88488 -3.96698 0
M  V30 3996 H 374.166 0.236196 -4.24644 0
M  V30 3997 N 372.481 1.55866 -0.233164 0
M  V30 3998 C 373.721 2.00506 0.397078 0
M  V30 3999 C 374.085 1.1176 1.56121 0
M  V30 4000 O 375.286 1.45796 2.25825 0
M  V30 4001 C 373.557 3.4811 0.809601 0
M  V30 4002 S 375.116 4.14765 1.43231 0
M  V30 4003 H 371.934 0.699828 0.125547 0
M  V30 4004 H 374.536 1.92429 -0.345177 0
M  V30 4005 H 373.24 4.10373 -0.0471601 0
M  V30 4006 H 372.771 3.60085 1.58438 0
M  V30 4007 H 374.786 4.14914 2.7214 0
M  V30 4008 N 373.959 -0.0401083 1.57549 0
M  V30 4009 C 375.37 -0.588097 1.77196 0
M  V30 4010 C 375.721 -1.76209 0.862832 0
M  V30 4011 O 374.846 -2.16331 0.0548389 0
M  V30 4012 C 375.441 -1.07363 3.21339 0
M  V30 4013 C 374 -1.56723 3.42221 0
M  V30 4014 C 373.147 -0.50041 2.72747 0
M  V30 4015 H 376.098 0.186119 1.57605 0
M  V30 4016 H 376.119 -1.94143 3.27244 0
M  V30 4017 H 375.631 -0.218975 3.87482 0
M  V30 4018 H 373.732 -2.4441 2.81237 0
M  V30 4019 H 373.845 -1.62234 4.50796 0
M  V30 4020 H 372.209 -0.952894 2.36203 0
M  V30 4021 H 372.992 0.344599 3.41566 0
M  V30 4022 N 375.437 -1.54477 -0.31217 0
M  V30 4023 C 376.384 -1.84655 -1.38461 0
M  V30 4024 C 377.354 -0.694536 -1.50882 0
M  V30 4025 O 378.539 -0.942081 -1.6592 0
M  V30 4026 C 375.679 -2.0896 -2.74645 0
M  V30 4027 C 374.792 -3.36618 -2.70763 0
M  V30 4028 C 373.927 -3.50824 -3.98868 0
M  V30 4029 C 372.966 -4.72315 -3.89339 0
M  V30 4030 N 372.103 -4.83387 -5.09197 0
M  V30 4031 H 376.943 -2.76142 -1.12026 0
M  V30 4032 H 374.48 -1.36748 -0.542065 0
M  V30 4033 H 376.438 -2.21045 -3.53829 0
M  V30 4034 H 375.068 -1.20752 -2.99364 0
M  V30 4035 H 374.12 -3.33211 -1.83506 0
M  V30 4036 H 375.432 -4.25917 -2.59608 0
M  V30 4037 H 374.586 -3.62513 -4.86486 0
M  V30 4038 H 373.325 -2.59638 -4.12843 0
M  V30 4039 H 372.33 -4.6067 -3.00105 0
M  V30 4040 H 373.555 -5.64897 -3.76919 0
M  V30 4041 H 371.501 -3.9512 -5.23657 0
M  V30 4042 H 371.418 -5.66669 -5.00422 0
M  V30 4043 H 372.686 -4.9942 -5.98498 0
M  V30 4044 N 376.915 0.57481 -1.46744 0
M  V30 4045 C 378.163 1.33009 -1.52161 0
M  V30 4046 C 378.484 1.94185 -0.178092 0
M  V30 4047 O 377.754 1.7899 0.796196 0
M  V30 4048 H 376.334 0.493873 -0.560445 0
M  V30 4049 H 378.996 0.672589 -1.82927 0
M  V30 4050 H 378.092 2.13273 -2.27862 0
M  V30 4051 N 378.394 1.34581 0.820102 0
M  V30 4052 C 379.324 1.29038 1.94606 0
M  V30 4053 C 380.305 0.1673 1.69275 0
M  V30 4054 O 381.49 0.360112 1.90832 0
M  V30 4055 C 378.62 1.04793 3.31113 0
M  V30 4056 C 377.574 2.13597 3.70891 0
M  V30 4057 C 376.9 1.74537 5.05412 0
M  V30 4058 C 378.2 3.55451 3.8269 0
M  V30 4059 H 379.894 2.23248 1.99501 0
M  V30 4060 H 377.44 1.0747 0.958449 0
M  V30 4061 H 379.393 0.995592 4.0947 0
M  V30 4062 H 378.117 0.0702565 3.26524 0
M  V30 4063 H 376.776 2.17905 2.9481 0
M  V30 4064 H 376.424 0.754226 4.97313 0
M  V30 4065 H 376.124 2.47361 5.32997 0
M  V30 4066 H 377.648 1.70803 5.86224 0
M  V30 4067 H 379.062 3.5354 4.51312 0
M  V30 4068 H 377.459 4.26922 4.21732 0
M  V30 4069 H 378.529 3.92587 2.84611 0
M  V30 4070 N 379.872 -1.04064 1.18357 0
M  V30 4071 C 380.82 -2.14187 0.907007 0
M  V30 4072 C 381.814 -1.68879 -0.132725 0
M  V30 4073 O 383.02 -1.79993 0.0154248 0
M  V30 4074 H 379.395 -0.699585 0.275835 0
M  V30 4075 H 381.366 -2.34711 1.84264 0
M  V30 4076 C 380.115 -3.44785 0.449254 0
M  V30 4077 H 379.438 -3.80058 1.24081 0
M  V30 4078 H 380.878 -4.22974 0.294737 0
M  V30 4079 C 379.337 -3.26391 -0.834909 0
M  V30 4080 O 379.867 -3.53973 -1.89911 0
M  V30 4081 N 378.073 -2.79726 -0.787523 0
M  V30 4082 H 377.62 -2.5748 0.0787347 0
M  V30 4083 H 377.578 -2.67798 -1.64716 0
M  V30 4084 N 381.35 -0.985608 -1.22978 0
M  V30 4085 C 382.761 -0.693593 -1.73338 0
M  V30 4086 C 383.112 0.789935 -1.79595 0
M  V30 4087 O 382.237 1.61771 -1.43733 0
M  V30 4088 C 382.832 -1.25235 -3.14804 0
M  V30 4089 C 381.391 -1.00987 -3.626 0
M  V30 4090 C 380.538 -1.37695 -2.40698 0
M  V30 4091 H 383.489 -1.15884 -1.08428 0
M  V30 4092 H 383.51 -0.627329 -3.75293 0
M  V30 4093 H 383.022 -2.33209 -3.10218 0
M  V30 4094 H 381.123 0.0535565 -3.72562 0
M  V30 4095 H 381.236 -1.66812 -4.49122 0
M  V30 4096 H 379.6 -0.795459 -2.4196 0
M  V30 4097 H 380.383 -2.46657 -2.38779 0
M  V30 4098 N 382.828 1.3818 -0.7579 0
M  V30 4099 C 384.076 1.99624 -0.315361 0
M  V30 4100 C 384.397 1.60464 1.10799 0
M  V30 4101 O 383.667 0.863507 1.75842 0
M  V30 4102 H 382.247 0.73831 -0.113611 0
M  V30 4103 H 384.909 1.68878 -0.972952 0
M  V30 4104 H 384.005 3.09754 -0.381931 0
M  V30 4105 N 384.306 0.507319 1.49211 0
M  V30 4106 C 385.253 -0.267728 2.29242 0
M  V30 4107 C 386.223 -0.954609 1.35928 0
M  V30 4108 O 387.408 -0.960046 1.64887 0
M  V30 4109 C 384.548 -1.32243 3.18756 0
M  V30 4110 C 383.661 -0.64669 4.27132 0
M  V30 4111 C 382.796 -1.68238 5.03855 0
M  V30 4112 C 381.835 -0.98885 6.0406 0
M  V30 4113 N 380.972 -1.96903 6.73924 0
M  V30 4114 H 385.812 0.420968 2.95012 0
M  V30 4115 H 383.349 0.219443 1.45454 0
M  V30 4116 H 385.307 -1.94599 3.69036 0
M  V30 4117 H 383.937 -1.97981 2.54958 0
M  V30 4118 H 382.989 0.0902926 3.80293 0
M  V30 4119 H 384.301 -0.101058 4.98698 0
M  V30 4120 H 383.455 -2.38081 5.58034 0
M  V30 4121 H 382.194 -2.26187 4.32077 0
M  V30 4122 H 381.199 -0.276222 5.49106 0
M  V30 4123 H 382.424 -0.415767 6.77826 0
M  V30 4124 H 380.37 -2.53803 6.04913 0
M  V30 4125 H 380.287 -1.47423 7.41487 0
M  V30 4126 H 381.555 -2.66015 7.32705 0
M  V30 4127 N 385.784 -1.5574 0.241426 0
M  V30 4128 C 386.747 -2.19877 -0.647063 0
M  V30 4129 C 387.747 -1.16642 -1.10686 0
M  V30 4130 O 388.937 -1.41757 -1.01245 0
M  V30 4131 C 386.069 -2.83797 -1.88871 0
M  V30 4132 H 387.262 -2.99772 -0.087574 0
M  V30 4133 H 384.815 -1.56298 -0.00813574 0
M  V30 4134 H 385.55 -2.07824 -2.48957 0
M  V30 4135 H 385.335 -3.59414 -1.56728 0
M  V30 4136 H 386.825 -3.32898 -2.52129 0
M  V30 4137 N 387.262 0.0317525 -1.57568 0
M  V30 4138 C 388.511 0.722131 -1.8833 0
M  V30 4139 C 388.824 1.76664 -0.839587 0
M  V30 4140 O 390.03 2.50942 -1.03635 0
M  V30 4141 C 388.486 1.33544 -3.34207 0
M  V30 4142 C 388.094 0.327415 -4.46802 0
M  V30 4143 C 389.838 2.00585 -3.7412 0
M  V30 4144 C 387.745 0.948915 -5.83738 0
M  V30 4145 H 386.675 0.273466 -0.702661 0
M  V30 4146 H 389.326 -0.0235811 -1.83485 0
M  V30 4147 H 387.708 2.13077 -3.33788 0
M  V30 4148 H 388.882 -0.441006 -4.58685 0
M  V30 4149 H 387.197 -0.240758 -4.15703 0
M  V30 4150 H 389.794 2.47932 -4.73744 0
M  V30 4151 H 390.137 2.82285 -3.05975 0
M  V30 4152 H 390.67 1.27831 -3.76702 0
M  V30 4153 H 387.409 0.171387 -6.55276 0
M  V30 4154 H 386.929 1.68724 -5.7558 0
M  V30 4155 H 388.608 1.45705 -6.3038 0
M  V30 4156 N 388.74 1.54641 0.303973 0
M  V30 4157 C 389.703 1.84646 1.35789 0
M  V30 4158 C 390.703 0.7192 1.4382 0
M  V30 4159 O 391.893 0.987491 1.43507 0
M  V30 4160 C 389.025 2.02407 2.74307 0
M  V30 4161 H 390.218 2.78829 1.10429 0
M  V30 4162 H 387.771 1.46658 0.540487 0
M  V30 4163 H 388.506 1.10502 3.04893 0
M  V30 4164 H 388.291 2.84453 2.69868 0
M  V30 4165 H 389.781 2.27002 3.50514 0
M  V30 4166 N 390.218 -0.567019 1.47046 0
M  V30 4167 C 391.128 -1.70247 1.6141 0
M  V30 4168 C 392.144 -1.66746 0.497157 0
M  V30 4169 O 393.32 -1.86371 0.763389 0
M  V30 4170 C 390.385 -3.06756 1.61561 0
M  V30 4171 C 389.446 -3.21399 2.84607 0
M  V30 4172 C 388.679 -4.51396 2.84741 0
M  V30 4173 O 388.902 -5.36255 1.94388 0
M  V30 4174 O 387.836 -4.69621 3.76483 0
M  V30 4175 H 391.662 -1.61073 2.57467 0
M  V30 4176 H 389.247 -0.735894 1.30019 0
M  V30 4177 H 391.129 -3.8801 1.64396 0
M  V30 4178 H 389.804 -3.16333 0.686684 0
M  V30 4179 H 388.711 -2.39579 2.8732 0
M  V30 4180 H 390.044 -3.16721 3.76761 0
M  V30 4181 N 391.696 -1.35014 -0.812953 0
M  V30 4182 C 392.945 -1.27269 -1.56479 0
M  V30 4183 C 393.258 0.152771 -1.95002 0
M  V30 4184 O 394.464 0.352451 -2.69203 0
M  V30 4185 C 392.92 -2.23159 -2.82362 0
M  V30 4186 C 392.528 -3.71016 -2.511 0
M  V30 4187 C 394.272 -2.24342 -3.60376 0
M  V30 4188 C 392.179 -4.58746 -3.73237 0
M  V30 4189 H 391.109 -0.472829 -0.587324 0
M  V30 4190 H 393.76 -1.6024 -0.894171 0
M  V30 4191 H 392.142 -1.83151 -3.51101 0
M  V30 4192 H 393.316 -4.1962 -1.90409 0
M  V30 4193 H 391.631 -3.72378 -1.86343 0
M  V30 4194 H 394.228 -2.87107 -4.51081 0
M  V30 4195 H 394.571 -1.24542 -3.97234 0
M  V30 4196 H 395.104 -2.62846 -2.98591 0
M  V30 4197 H 391.843 -5.59521 -3.41492 0
M  V30 4198 H 391.363 -4.14871 -4.33176 0
M  V30 4199 H 393.042 -4.73852 -4.40537 0
M  V30 4200 N 393.175 1.03435 -1.18907 0
M  V30 4201 C 394.122 2.11591 -0.921837 0
M  V30 4202 C 395.092 1.65499 0.141226 0
M  V30 4203 O 396.277 1.908 0.000242829 0
M  V30 4204 C 393.417 3.42012 -0.460616 0
M  V30 4205 C 392.53 4.01682 -1.58982 0
M  V30 4206 C 391.665 5.20091 -1.08069 0
M  V30 4207 C 390.704 5.71805 -2.18416 0
M  V30 4208 N 389.841 6.81494 -1.68849 0
M  V30 4209 H 394.681 2.33787 -1.8479 0
M  V30 4210 H 392.218 1.1467 -0.921373 0
M  V30 4211 H 394.176 4.16834 -0.174642 0
M  V30 4212 H 392.806 3.19944 0.428467 0
M  V30 4213 H 391.858 3.24127 -1.99113 0
M  V30 4214 H 393.17 4.36084 -2.4214 0
M  V30 4215 H 392.324 6.02051 -0.749615 0
M  V30 4216 H 391.063 4.87209 -0.218771 0
M  V30 4217 H 390.068 4.88461 -2.5236 0
M  V30 4218 H 391.293 6.06728 -3.05054 0
M  V30 4219 H 389.239 6.50475 -0.849572 0
M  V30 4220 H 389.156 7.14994 -2.45601 0
M  V30 4221 H 390.424 7.67063 -1.38689 0
M  V30 4222 N 394.653 0.992116 1.22453 0
M  V30 4223 C 395.6 0.541731 2.24352 0
M  V30 4224 C 396.57 -0.425519 1.60557 0
M  V30 4225 O 397.755 -0.330453 1.87917 0
M  V30 4226 C 394.895 -0.138248 3.44823 0
M  V30 4227 C 394.008 0.870649 4.23136 0
M  V30 4228 C 393.143 0.164269 5.30946 0
M  V30 4229 C 392.182 1.16159 6.00977 0
M  V30 4230 N 391.319 0.483568 7.00433 0
M  V30 4231 H 396.159 1.41541 2.62241 0
M  V30 4232 H 393.696 0.709013 1.28885 0
M  V30 4233 H 395.654 -0.5494 4.13567 0
M  V30 4234 H 394.284 -0.975721 3.077 0
M  V30 4235 H 393.336 1.40013 3.53696 0
M  V30 4236 H 394.648 1.63014 4.7141 0
M  V30 4237 H 393.802 -0.303653 6.0594 0
M  V30 4238 H 392.541 -0.627733 4.83643 0
M  V30 4239 H 391.546 1.64015 5.24766 0
M  V30 4240 H 392.771 1.95445 6.50368 0
M  V30 4241 H 390.717 -0.289012 6.55363 0
M  V30 4242 H 390.634 1.18152 7.4671 0
M  V30 4243 H 391.902 0.0384219 7.79491 0
M  V30 4244 N 396.131 -1.37776 0.765217 0
M  V30 4245 C 397.064 -2.28008 0.0935025 0
M  V30 4246 C 398.042 -1.45985 -0.716047 0
M  V30 4247 O 399.226 -1.75331 -0.692203 0
M  V30 4248 C 396.353 -3.27228 -0.874052 0
M  V30 4249 C 395.399 -4.26239 -0.149307 0
M  V30 4250 S 396.232 -5.22827 1.15809 0
M  V30 4251 C 397.388 -6.256 0.193906 0
M  V30 4252 H 397.621 -2.84631 0.858637 0
M  V30 4253 H 395.154 -1.43952 0.558313 0
M  V30 4254 H 397.112 -3.84902 -1.42691 0
M  V30 4255 H 395.773 -2.69565 -1.61225 0
M  V30 4256 H 394.966 -4.96213 -0.88254 0
M  V30 4257 H 394.568 -3.7252 0.332366 0
M  V30 4258 H 396.86 -6.74508 -0.636011 0
M  V30 4259 H 397.803 -7.02838 0.861638 0
M  V30 4260 H 398.211 -5.64173 -0.191975 0
M  V30 4261 N 397.609 -0.515225 -1.4894 0
M  V30 4262 C 398.542 0.302518 -2.26186 0
M  V30 4263 C 399.52 0.957895 -1.31389 0
M  V30 4264 O 400.704 0.985198 -1.60705 0
M  V30 4265 C 397.831 1.42719 -3.07163 0
M  V30 4266 C 396.877 0.884736 -4.17223 0
M  V30 4267 S 397.71 -0.235767 -5.34981 0
M  V30 4268 C 398.866 0.891731 -6.19515 0
M  V30 4269 H 399.099 -0.353076 -2.95196 0
M  V30 4270 H 396.632 -0.300753 -1.51443 0
M  V30 4271 H 398.59 2.07152 -3.54398 0
M  V30 4272 H 397.251 2.05445 -2.37595 0
M  V30 4273 H 396.444 1.72801 -4.73451 0
M  V30 4274 H 396.046 0.317362 -3.72651 0
M  V30 4275 H 398.338 1.79377 -6.53322 0
M  V30 4276 H 399.281 0.367751 -7.07144 0
M  V30 4277 H 399.689 1.16548 -5.52338 0
M  V30 4278 N 399.087 1.5561 -0.249682 0
M  V30 4279 C 400.05 2.20217 0.635394 0
M  V30 4280 C 401.05 1.17227 1.10066 0
M  V30 4281 O 402.24 1.42292 1.00492 0
M  V30 4282 C 399.372 2.84794 1.87363 0
M  V30 4283 H 400.565 2.99814 0.0716752 0
M  V30 4284 H 398.118 1.563 -0.000153234 0
M  V30 4285 H 398.853 2.09142 2.47851 0
M  V30 4286 H 398.638 3.60241 1.5482 0
M  V30 4287 H 400.128 3.3423 2.5036 0
M  V30 4288 N 400.565 -0.0233959 1.57583 0
M  V30 4289 C 401.793 -0.724682 1.93794 0
M  V30 4290 C 402.208 -1.68588 0.849912 0
M  V30 4291 O 401.565 -1.81676 -0.173204 0
M  V30 4292 C 401.616 -1.47684 3.29957 0
M  V30 4293 O 401.337 -0.554222 4.3458 0
M  V30 4294 C 402.838 -2.27477 3.80485 0
M  V30 4295 H 400.058 -0.203317 0.639455 0
M  V30 4296 H 402.602 0.0207653 2.04489 0
M  V30 4297 H 400.757 -2.17412 3.20641 0
M  V30 4298 H 401.171 -1.08232 5.13212 0
M  V30 4299 H 402.645 -2.7564 4.78254 0
M  V30 4300 H 403.122 -3.09144 3.11972 0
M  V30 4301 H 403.728 -1.62813 3.92902 0
M  V30 4302 N 402.043 -1.548 -0.295768 0
M  V30 4303 C 403.273 -1.78069 -1.04762 0
M  V30 4304 C 403.681 -0.542847 -1.81245 0
M  V30 4305 O 403.024 0.497051 -1.76848 0
M  V30 4306 C 403.086 -2.93881 -2.07061 0
M  V30 4307 C 402.75 -4.31777 -1.49725 0
M  V30 4308 C 403.747 -5.11613 -0.924581 0
M  V30 4309 C 401.432 -4.78389 -1.5313 0
M  V30 4310 C 403.426 -6.36184 -0.393594 0
M  V30 4311 C 401.113 -6.02921 -0.996447 0
M  V30 4312 C 402.111 -6.81654 -0.428569 0
M  V30 4313 O 401.799 -8.0384 0.0981593 0
M  V30 4314 H 401.531 -0.597475 -0.316226 0
M  V30 4315 H 404.085 -2.02584 -0.338973 0
M  V30 4316 H 402.315 -2.65003 -2.81621 0
M  V30 4317 H 404.004 -3.04679 -2.6819 0
M  V30 4318 H 404.77 -4.76743 -0.891136 0
M  V30 4319 H 400.649 -4.17132 -1.9627 0
M  V30 4320 H 404.193 -6.97582 0.0503014 0
M  V30 4321 H 400.09 -6.37277 -1.02706 0
M  V30 4322 H 400.858 -8.18499 -0.0146455 0
M  V30 4323 N 403.521 0.559213 -1.47345 0
M  V30 4324 C 404.468 1.66645 -1.59682 0
M  V30 4325 C 405.438 1.60168 -0.43994 0
M  V30 4326 O 406.623 1.79031 -0.659736 0
M  V30 4327 C 403.763 3.04969 -1.61518 0
M  V30 4328 C 402.876 3.21897 -2.88108 0
M  V30 4329 C 402.011 4.50608 -2.81294 0
M  V30 4330 C 401.05 4.60961 -4.02717 0
M  V30 4331 N 400.187 5.81024 -3.94151 0
M  V30 4332 H 405.027 1.55439 -2.54249 0
M  V30 4333 H 402.564 0.757219 -1.26113 0
M  V30 4334 H 404.522 3.85064 -1.60566 0
M  V30 4335 H 403.152 3.15015 -0.704645 0
M  V30 4336 H 402.204 2.35248 -2.98936 0
M  V30 4337 H 403.516 3.25412 -3.78032 0
M  V30 4338 H 402.67 5.3896 -2.7858 0
M  V30 4339 H 401.409 4.49568 -1.89049 0
M  V30 4340 H 400.414 3.71021 -4.05738 0
M  V30 4341 H 401.639 4.63761 -4.96087 0
M  V30 4342 H 399.585 5.80938 -3.04708 0
M  V30 4343 H 399.502 5.85909 -4.77752 0
M  V30 4344 H 400.77 6.71744 -3.9545 0
M  V30 4345 N 404.999 1.35443 0.805782 0
M  V30 4346 C 405.909 1.30546 1.94923 0
M  V30 4347 C 406.925 0.210233 1.72725 0
M  V30 4348 O 408.101 0.43975 1.9654 0
M  V30 4349 C 405.166 1.07782 3.29521 0
M  V30 4350 C 404.227 2.26625 3.64609 0
M  V30 4351 C 403.46 2.04938 4.92784 0
M  V30 4352 O 403.683 1.01624 5.61274 0
M  V30 4353 O 402.617 2.9232 5.26149 0
M  V30 4354 H 406.443 2.26779 2.02002 0
M  V30 4355 H 404.028 1.15823 0.943682 0
M  V30 4356 H 405.91 0.969392 4.10098 0
M  V30 4357 H 404.585 0.146003 3.23371 0
M  V30 4358 H 403.492 2.43033 2.84404 0
M  V30 4359 H 404.825 3.18257 3.75464 0
M  V30 4360 N 406.477 -1.02803 1.19454 0
M  V30 4361 C 407.424 -2.11099 0.933046 0
M  V30 4362 C 408.394 -1.65571 -0.132447 0
M  V30 4363 O 409.579 -1.90797 0.00987576 0
M  V30 4364 C 406.719 -3.41763 0.478747 0
M  V30 4365 C 405.832 -4.00833 1.6111 0
M  V30 4366 C 404.967 -5.19511 1.10825 0
M  V30 4367 C 404.006 -5.70639 2.21445 0
M  V30 4368 N 403.143 -6.80589 1.72461 0
M  V30 4369 H 407.983 -2.32804 1.86028 0
M  V30 4370 H 405.52 -1.14179 0.927441 0
M  V30 4371 H 407.478 -4.16736 0.196745 0
M  V30 4372 H 406.108 -3.20166 -0.411493 0
M  V30 4373 H 405.16 -3.23066 2.00829 0
M  V30 4374 H 406.472 -4.34794 2.4445 0
M  V30 4375 H 405.626 -6.01645 0.781533 0
M  V30 4376 H 404.365 -4.87086 0.244606 0
M  V30 4377 H 403.37 -4.87116 2.54947 0
M  V30 4378 H 404.595 -6.05102 3.08267 0
M  V30 4379 H 402.541 -6.50016 0.884056 0
M  V30 4380 H 402.458 -7.13681 2.49389 0
M  V30 4381 H 403.726 -7.66317 1.42755 0
M  V30 4382 N 407.956 -0.998596 -1.21925 0
M  V30 4383 C 408.903 -0.553621 -2.24062 0
M  V30 4384 C 409.873 0.416999 -1.6078 0
M  V30 4385 O 411.058 0.320482 -1.88089 0
M  V30 4386 C 408.198 0.119959 -3.44891 0
M  V30 4387 C 407.311 -0.893077 -4.22668 0
M  V30 4388 C 406.446 -0.192424 -5.30851 0
M  V30 4389 C 405.485 -1.19344 -6.00353 0
M  V30 4390 N 404.622 -0.520707 -7.00166 0
M  V30 4391 H 409.462 -1.4293 -2.61486 0
M  V30 4392 H 406.999 -0.715838 -1.28507 0
M  V30 4393 H 408.957 0.527459 -4.13852 0
M  V30 4394 H 407.587 0.959389 -3.08214 0
M  V30 4395 H 406.639 -1.41886 -3.52948 0
M  V30 4396 H 407.951 -1.65512 -4.70539 0
M  V30 4397 H 407.105 0.271515 -6.06092 0
M  V30 4398 H 405.844 0.602075 -4.83969 0
M  V30 4399 H 404.849 -1.66795 -5.23889 0
M  V30 4400 H 406.074 -1.98891 -6.49322 0
M  V30 4401 H 404.02 0.254252 -6.55507 0
M  V30 4402 H 403.937 -1.2211 -7.46073 0
M  V30 4403 H 405.205 -0.0797596 -7.79459 0
M  V30 4404 N 409.434 1.37368 -0.772513 0
M  V30 4405 C 410.397 2.28601 -0.165541 0
M  V30 4406 C 411.397 1.48062 0.627238 0
M  V30 4407 O 412.587 1.68268 0.450715 0
M  V30 4408 C 409.719 3.32023 0.772897 0
M  V30 4409 H 410.912 2.83787 -0.969787 0
M  V30 4410 H 408.465 1.46647 -0.540775 0
M  V30 4411 H 409.2 2.81962 1.60212 0
M  V30 4412 H 408.985 3.91555 0.206585 0
M  V30 4413 H 410.475 4.00197 1.19298 0
M  V30 4414 N 410.912 0.523116 1.48665 0
M  V30 4415 C 412.137 -0.0117284 2.07397 0
M  V30 4416 C 412.562 -1.28031 1.37803 0
M  V30 4417 O 411.92 -1.75836 0.441762 0
M  V30 4418 C 411.968 -0.225786 3.59892 0
M  V30 4419 O 411.072 -1.29592 3.91509 0
M  V30 4420 H 410.413 0.0360673 0.66302 0
M  V30 4421 H 412.943 0.729066 1.9117 0
M  V30 4422 H 412.953 -0.450552 4.05505 0
M  V30 4423 H 411.628 0.700944 4.09951 0
M  V30 4424 H 410.205 -1.05436 3.57684 0
M  V30 4425 N 412.39 -1.55475 0.257931 0
M  V30 4426 C 413.636 -1.99502 -0.364266 0
M  V30 4427 C 413.969 -1.146 -1.56782 0
M  V30 4428 O 413.244 -0.211968 -1.93342 0
M  V30 4429 C 413.527 -3.51917 -0.763333 0
M  V30 4430 C 413.38 -4.4758 0.446371 0
M  V30 4431 C 414.699 -4.09742 -1.60623 0
M  V30 4432 H 411.818 -0.725277 -0.130929 0
M  V30 4433 H 414.46 -1.8653 0.361446 0
M  V30 4434 H 412.61 -3.63101 -1.38166 0
M  V30 4435 H 414.282 -4.48362 1.08487 0
M  V30 4436 H 412.525 -4.19947 1.08753 0
M  V30 4437 H 413.196 -5.51862 0.123645 0
M  V30 4438 H 415.672 -4.01727 -1.08418 0
M  V30 4439 H 414.548 -5.16631 -1.85429 0
M  V30 4440 H 414.809 -3.58889 -2.58169 0
M  V30 4441 O 413.907 -0.12294 -1.61031 0
M  V30 4442 H 414.598 0.475096 -1.87783 0
M  V30 END ATOM
M  V30 BEGIN BOND
M  V30 END BOND
M  V30 END CTAB
M  END
$$$$
