drugbank_target|P80404 4-aminobutyrate aminotransferase, mitochondrial (DB00114; DB00119; DB00142; DB00160; DB00780; DB01080; DB01699; DB04235)
 OpenBabel12092119273D

  0  0  0     0  0            999 V3000
M  V30 BEGIN CTAB
M  V30 COUNTS 7913 8006 0 0 0
M  V30 BEGIN ATOM
M  V30 1 H -0.908 1.98254 -0.117106 0
M  V30 2 N 0 1.576 0 0
M  V30 3 C 0.933 2.03868 1.02534 0
M  V30 4 C 1.911 0.928543 1.3348 0
M  V30 5 O 3.095 1.19667 1.45644 0
M  V30 6 C 0.222 2.43627 2.35294 0
M  V30 7 C -0.732 3.65373 2.2001 0
M  V30 8 S 0.101 5.13292 1.52614 0
M  V30 9 C 1.257 5.56322 2.86805 0
M  V30 10 H 1.49 2.90518 0.631377 0
M  V30 11 H -0.977 1.52953 0.210867 0
M  V30 12 H 0.981 2.67203 3.11629 0
M  V30 13 H -0.358 1.57376 2.7183 0
M  V30 14 H -1.165 3.90944 3.18086 0
M  V30 15 H -1.563 3.418 1.51819 0
M  V30 16 H 0.729 5.58782 3.83104 0
M  V30 17 H 1.672 6.56266 2.65933 0
M  V30 18 H 2.08 4.83886 2.90714 0
M  V30 19 N 1.4781 -0.272755 1.55222 0
M  V30 20 C 2.4411 -1.32041 1.87344 0
M  V30 21 C 3.4411 -1.42342 0.74803 0
M  V30 22 O 4.6311 -1.41488 1.0162 0
M  V30 23 C 1.7631 -2.70173 2.07893 0
M  V30 24 H 2.9561 -1.04789 2.80997 0
M  V30 25 H 0.5091 -0.51083 1.47717 0
M  V30 26 H 1.2441 -3.02605 1.16622 0
M  V30 27 H 1.0291 -2.64082 2.89833 0
M  V30 28 H 2.5191 -3.45869 2.34017 0
M  V30 29 N 2.9562 -1.48159 -0.537278 0
M  V30 30 C 4.1812 -1.59707 -1.32319 0
M  V30 31 C 4.6062 -0.254859 -1.86365 0
M  V30 32 O 3.9642 0.772378 -1.64024 0
M  V30 33 C 4.0122 -2.6412 -2.45505 0
M  V30 34 O 3.1162 -2.20774 -3.48328 0
M  V30 35 H 2.4572 -0.535791 -0.392204 0
M  V30 36 H 4.9872 -1.94092 -0.647268 0
M  V30 37 H 4.9972 -2.85166 -2.91795 0
M  V30 38 H 3.6722 -3.61567 -2.05528 0
M  V30 39 H 2.2492 -2.09911 -3.08207 0
M  V30 40 N 4.4343 0.785586 -1.36625 0
M  V30 41 C 5.3673 1.90509 -1.25625 0
M  V30 42 C 6.3453 1.62 -0.139607 0
M  V30 43 O 7.5293 1.8591 -0.31141 0
M  V30 44 C 4.6563 3.25419 -0.939158 0
M  V30 45 C 3.7023 3.72856 -2.07077 0
M  V30 46 S 4.5353 3.88162 -3.68904 0
M  V30 47 C 5.6913 5.25942 -3.39317 0
M  V30 48 H 5.9243 1.99549 -2.20381 0
M  V30 49 H 3.4573 0.945226 -1.22085 0
M  V30 50 H 5.4153 4.03346 -0.763029 0
M  V30 51 H 4.0763 3.14099 -0.00931402 0
M  V30 52 H 3.2693 4.70624 -1.80357 0
M  V30 53 H 2.8713 3.01989 -2.20632 0
M  V30 54 H 5.1633 6.10651 -2.93447 0
M  V30 55 H 6.1063 5.57668 -4.36363 0
M  V30 56 H 6.5143 4.93224 -2.74573 0
M  V30 57 N 5.9124 1.20967 1.01018 0
M  V30 58 C 6.8424 0.988272 2.11555 0
M  V30 59 C 7.8234 -0.0849778 1.69888 0
M  V30 60 O 9.0084 0.0738202 1.9406 0
M  V30 61 C 6.1384 0.546528 3.42973 0
M  V30 62 C 5.0924 1.56375 3.9841 0
M  V30 63 C 4.4184 0.97842 5.25672 0
M  V30 64 C 5.7184 2.94922 4.31066 0
M  V30 65 H 7.4124 1.91276 2.30334 0
M  V30 66 H 4.9584 0.921073 1.1069 0
M  V30 67 H 6.9114 0.378839 4.19694 0
M  V30 68 H 5.6354 -0.413598 3.23971 0
M  V30 69 H 4.2944 1.71891 3.23804 0
M  V30 70 H 3.9424 0.0101688 5.02999 0
M  V30 71 H 3.6424 1.65784 5.63728 0
M  V30 72 H 5.1664 0.821939 6.05043 0
M  V30 73 H 6.5804 2.8288 4.9865 0
M  V30 74 H 4.9774 3.5983 4.80253 0
M  V30 75 H 6.0474 3.4616 3.39561 0
M  V30 76 N 7.3905 -1.2043 1.01659 0
M  V30 77 C 8.3205 -2.25466 0.607226 0
M  V30 78 C 9.3015 -1.65853 -0.377716 0
M  V30 79 O 10.4865 -1.92409 -0.263149 0
M  V30 80 C 7.6165 -3.47256 -0.0552949 0
M  V30 81 C 6.5705 -4.19462 0.850632 0
M  V30 82 C 5.8965 -5.34673 0.0538859 0
M  V30 83 C 7.1965 -4.75603 2.15868 0
M  V30 84 H 8.8905 -2.59962 1.48526 0
M  V30 85 H 6.4365 -1.2496 0.715605 0
M  V30 86 H 8.3895 -4.19917 -0.353233 0
M  V30 87 H 7.1135 -3.11924 -0.968045 0
M  V30 88 H 5.7725 -3.48667 1.13257 0
M  V30 89 H 5.4205 -4.95585 -0.860514 0
M  V30 90 H 5.1205 -5.83913 0.657192 0
M  V30 91 H 6.6445 -6.10138 -0.237598 0
M  V30 92 H 8.0585 -5.40083 1.92311 0
M  V30 93 H 6.4555 -5.3528 2.71284 0
M  V30 94 H 7.5255 -3.94346 2.82169 0
M  V30 95 N 8.8686 -0.792821 -1.36206 0
M  V30 96 C 9.8316 -0.199459 -2.2833 0
M  V30 97 C 10.8316 0.605189 -1.48977 0
M  V30 98 O 12.0216 0.425685 -1.68919 0
M  V30 99 C 9.1536 0.723523 -3.33134 0
M  V30 100 H 10.3466 -1.01181 -2.82316 0
M  V30 101 H 7.8996 -0.562485 -1.45828 0
M  V30 102 H 8.6346 1.56008 -2.84309 0
M  V30 103 H 8.4196 0.148436 -3.91819 0
M  V30 104 H 9.9096 1.13344 -4.01924 0
M  V30 105 N 10.3467 1.47872 -0.545128 0
M  V30 106 C 11.2787 2.27869 0.246621 0
M  V30 107 C 12.2917 1.36282 0.890561 0
M  V30 108 O 13.4807 1.61207 0.766449 0
M  V30 109 C 10.5807 3.10159 1.36582 0
M  V30 110 C 9.7537 4.29627 0.820954 0
M  V30 111 C 8.8127 4.93607 1.82314 0
M  V30 112 O 7.8387 5.52366 1.37406 0
M  V30 113 N 9.0407 4.87211 3.15603 0
M  V30 114 H 11.8057 2.96459 -0.439539 0
M  V30 115 H 9.3667 1.57367 -0.380421 0
M  V30 116 H 11.3587 3.49829 2.03474 0
M  V30 117 H 9.9287 2.43891 1.9554 0
M  V30 118 H 9.1487 3.94192 -0.0244032 0
M  V30 119 H 10.4367 5.06928 0.436063 0
M  V30 120 H 9.8347 4.40651 3.54744 0
M  V30 121 H 8.3917 5.30937 3.78087 0
M  V30 122 N 11.8248 0.280983 1.55075 0
M  V30 123 C 13.2408 -0.0729964 1.59433 0
M  V30 124 C 13.4408 -1.5411 1.29817 0
M  V30 125 O 12.4968 -2.29086 1.06187 0
M  V30 126 C 13.8098 0.306921 2.9913 0
M  V30 127 C 15.3578 0.254023 3.11968 0
M  V30 128 C 15.8328 0.608467 4.5394 0
M  V30 129 N 17.3238 0.560241 4.59799 0
M  V30 130 C 18.0588 0.80722 5.6769 0
M  V30 131 N 17.5548 1.11912 6.83701 0
M  V30 132 N 19.3478 0.735623 5.57266 0
M  V30 133 H 11.4988 1.238 1.7259 0
M  V30 134 H 13.7618 0.500547 0.805082 0
M  V30 135 H 13.4678 1.32816 3.25657 0
M  V30 136 H 13.3418 -0.349363 3.75579 0
M  V30 137 H 15.7288 -0.75794 2.852 0
M  V30 138 H 15.8098 0.944649 2.37718 0
M  V30 139 H 15.4538 1.61814 4.81434 0
M  V30 140 H 15.3838 -0.104013 5.26497 0
M  V30 141 H 17.8748 0.329288 3.76463 0
M  V30 142 H 18.1878 1.29409 7.61888 0
M  V30 143 H 16.5328 1.15695 6.85303 0
M  V30 144 H 19.7238 0.491752 4.6551 0
M  V30 145 H 19.8968 0.931482 6.4127 0
M  V30 146 N 13.3029 -1.57598 0.00835791 0
M  V30 147 C 14.2329 -2.1198 -0.979113 0
M  V30 148 C 15.2139 -1.03091 -1.35301 0
M  V30 149 O 16.3989 -1.30818 -1.43528 0
M  V30 150 C 13.5289 -2.62995 -2.26828 0
M  V30 151 C 12.4829 -3.76485 -2.03576 0
M  V30 152 C 11.8089 -4.13846 -3.38579 0
M  V30 153 C 13.1089 -5.0342 -1.39161 0
M  V30 154 H 14.8029 -2.94738 -0.526281 0
M  V30 155 H 12.3489 -1.41783 -0.251704 0
M  V30 156 H 14.3019 -2.99669 -2.96271 0
M  V30 157 H 13.0259 -1.7737 -2.7424 0
M  V30 158 H 11.6849 -3.40217 -1.36557 0
M  V30 159 H 11.3329 -3.25232 -3.83709 0
M  V30 160 H 11.0329 -4.90312 -3.23834 0
M  V30 161 H 12.5569 -4.53086 -4.09323 0
M  V30 162 H 13.9709 -5.37812 -1.98573 0
M  V30 163 H 12.3679 -5.84746 -1.34878 0
M  V30 164 H 13.4379 -4.83548 -0.361868 0
M  V30 165 N 14.781 0.264519 -1.55364 0
M  V30 166 C 15.744 1.31046 -1.88042 0
M  V30 167 C 16.744 1.41943 -0.755569 0
M  V30 168 O 17.934 1.40947 -1.02369 0
M  V30 169 C 15.066 2.69067 -2.09323 0
M  V30 170 H 16.259 1.03297 -2.81549 0
M  V30 171 H 13.812 0.502989 -1.47986 0
M  V30 172 H 14.547 3.01982 -1.18226 0
M  V30 173 H 14.332 2.62542 -2.91229 0
M  V30 174 H 15.822 3.44623 -2.35848 0
M  V30 175 N 16.2591 1.48442 0.529413 0
M  V30 176 C 17.4991 1.58086 1.29569 0
M  V30 177 C 17.8631 0.249302 1.90375 0
M  V30 178 O 19.0641 0.220738 2.67892 0
M  V30 179 C 17.3351 2.68793 2.35552 0
M  V30 180 S 18.8941 2.98207 3.21898 0
M  V30 181 H 15.7121 0.557922 0.440732 0
M  V30 182 H 18.3141 1.85966 0.603059 0
M  V30 183 H 17.0181 3.64102 1.89363 0
M  V30 184 H 16.5491 2.42817 3.09522 0
M  V30 185 H 18.5641 2.37548 4.35644 0
M  V30 186 N 17.7372 -0.778329 1.37039 0
M  V30 187 C 18.9622 -1.57248 1.35233 0
M  V30 188 C 19.3872 -1.87999 -0.0615568 0
M  V30 189 O 18.7452 -1.48734 -1.03672 0
M  V30 190 C 18.7932 -2.86353 2.19167 0
M  V30 191 O 17.8972 -3.80442 1.59178 0
M  V30 192 H 17.2382 -0.476569 0.462362 0
M  V30 193 H 19.7682 -0.963853 1.80474 0
M  V30 194 H 19.7782 -3.35519 2.32145 0
M  V30 195 H 18.4532 -2.63299 3.21942 0
M  V30 196 H 17.0302 -3.39067 1.55203 0
M  V30 197 N 19.2153 -1.21501 -1.00376 0
M  V30 198 C 20.4623 -1.03299 -1.74171 0
M  V30 199 C 20.7903 0.433326 -1.89612 0
M  V30 200 O 20.0453 1.33779 -1.42834 0
M  V30 201 C 20.3443 -1.67673 -3.15627 0
M  V30 202 C 20.0103 -3.17533 -3.2013 0
M  V30 203 C 18.6723 -3.58427 -3.21067 0
M  V30 204 C 21.0243 -4.13504 -3.17275 0
M  V30 205 C 18.3523 -4.93794 -3.16835 0
M  V30 206 C 20.7043 -5.48834 -3.14585 0
M  V30 207 C 19.3683 -5.89123 -3.13831 0
M  V30 208 H 18.6383 -0.377999 -0.637336 0
M  V30 209 H 21.2853 -1.51111 -1.17634 0
M  V30 210 H 19.5903 -1.12158 -3.75404 0
M  V30 211 H 21.2873 -1.51091 -3.71446 0
M  V30 212 H 17.8773 -2.84965 -3.20145 0
M  V30 213 H 22.0613 -3.82936 -3.15711 0
M  V30 214 H 17.3173 -5.24255 -3.1459 0
M  V30 215 H 21.4913 -6.22934 -3.1133 0
M  V30 216 H 19.1183 -6.93984 -3.10307 0
M  V30 217 N 20.6934 1.19889 -1.02296 0
M  V30 218 C 21.6254 2.22334 -0.556787 0
M  V30 219 C 22.6384 1.58674 0.364199 0
M  V30 220 O 23.8274 1.77768 0.161533 0
M  V30 221 C 20.9274 3.38257 0.208694 0
M  V30 222 C 20.1004 4.31504 -0.71577 0
M  V30 223 C 19.1594 5.262 0.00325597 0
M  V30 224 O 18.1854 5.65798 -0.621357 0
M  V30 225 N 19.3874 5.66303 1.27599 0
M  V30 226 H 22.1524 2.62957 -1.43784 0
M  V30 227 H 19.7134 1.34495 -0.901261 0
M  V30 228 H 21.7054 3.98616 0.699111 0
M  V30 229 H 20.2754 2.96472 0.991102 0
M  V30 230 H 19.4954 3.69016 -1.38638 0
M  V30 231 H 20.7834 4.9072 -1.34428 0
M  V30 232 H 20.1814 5.36155 1.80429 0
M  V30 233 H 18.7384 6.28942 1.71102 0
M  V30 234 N 22.1715 0.800033 1.35784 0
M  V30 235 C 23.1215 0.178654 2.27299 0
M  V30 236 C 24.1055 -0.643667 1.47464 0
M  V30 237 O 25.2975 -0.502 1.69732 0
M  V30 238 C 22.4265 -0.677194 3.36555 0
M  V30 239 C 21.5125 0.154497 4.23818 0
M  V30 240 N 21.9035 1.21427 4.91008 0
M  V30 241 C 20.2015 -0.0649462 4.45953 0
M  V30 242 C 20.9025 1.72147 5.55644 0
M  V30 243 N 19.8785 1.02897 5.33773 0
M  V30 244 H 23.6805 0.989637 2.76737 0
M  V30 245 H 21.1945 0.64054 1.49234 0
M  V30 246 H 23.1915 -1.13835 4.01058 0
M  V30 247 H 21.8515 -1.4866 2.8867 0
M  V30 248 H 22.8625 1.59684 4.92668 0
M  V30 249 H 19.5395 -0.844016 4.0888 0
M  V30 250 H 20.9295 2.60683 6.19269 0
M  V30 251 N 23.6496 -1.47581 0.552962 0
M  V30 252 C 24.8746 -2.07378 0.0300593 0
M  V30 253 C 25.2996 -1.40355 -1.25229 0
M  V30 254 O 24.6576 -0.477099 -1.7491 0
M  V30 255 C 24.7056 -3.60274 -0.153231 0
M  V30 256 O 23.8096 -3.94041 -1.21678 0
M  V30 257 H 23.1506 -0.662158 0.0494182 0
M  V30 258 H 25.6806 -1.89662 0.767434 0
M  V30 259 H 25.6906 -4.0633 -0.368761 0
M  V30 260 H 24.3656 -4.08455 0.783397 0
M  V30 261 H 22.9426 -3.59735 -0.982079 0
M  V30 262 N 25.1277 -0.289203 -1.54924 0
M  V30 263 C 26.3577 0.325989 -2.04012 0
M  V30 264 C 26.7657 1.48961 -1.1665 0
M  V30 265 O 26.1087 1.82794 -0.1822 0
M  V30 266 C 26.1707 0.856112 -3.49158 0
M  V30 267 C 25.8347 -0.180697 -4.56643 0
M  V30 268 C 26.8317 -1.0051 -5.10092 0
M  V30 269 C 24.5167 -0.318998 -5.01286 0
M  V30 270 C 26.5107 -1.95385 -6.06715 0
M  V30 271 C 24.1977 -1.27121 -5.97732 0
M  V30 272 C 25.1957 -2.08713 -6.50329 0
M  V30 273 O 24.8837 -3.02322 -7.44887 0
M  V30 274 H 24.6157 0.0765276 -0.671654 0
M  V30 275 H 27.1697 -0.423254 -2.00992 0
M  V30 276 H 25.3997 1.65567 -3.49463 0
M  V30 277 H 27.0887 1.38591 -3.81507 0
M  V30 278 H 27.8547 -0.90906 -4.76404 0
M  V30 279 H 23.7337 0.306108 -4.59983 0
M  V30 280 H 27.2777 -2.59111 -6.47694 0
M  V30 281 H 23.1747 -1.36801 -6.30837 0
M  V30 282 H 23.9427 -2.97165 -7.6265 0
M  V30 283 N 26.6058 1.57591 -0.0167156 0
M  V30 284 C 28.0218 1.55946 0.339557 0
M  V30 285 C 28.2218 1.02109 1.73713 0
M  V30 286 O 27.2778 0.662303 2.43659 0
M  V30 287 C 28.5908 3.00037 0.199499 0
M  V30 288 C 30.1388 3.11805 0.273193 0
M  V30 289 C 30.6138 4.57713 0.162068 0
M  V30 290 N 32.1048 4.6268 0.219444 0
M  V30 291 C 32.8398 5.73185 0.157054 0
M  V30 292 N 32.3358 6.92786 0.0442936 0
M  V30 293 N 34.1288 5.61707 0.21014 0
M  V30 294 H 26.2798 1.90921 -0.930758 0
M  V30 295 H 28.5428 0.877674 -0.358319 0
M  V30 296 H 28.2488 3.4333 -0.76273 0
M  V30 297 H 28.1228 3.64387 0.974786 0
M  V30 298 H 30.5098 2.68433 1.22587 0
M  V30 299 H 30.5908 2.50201 -0.532256 0
M  V30 300 H 30.2348 5.01763 -0.78714 0
M  V30 301 H 30.1648 5.17283 0.986222 0
M  V30 302 H 32.6558 3.76649 0.307246 0
M  V30 303 H 32.9688 7.728 0.00304069 0
M  V30 304 H 31.3138 6.94999 0.00968457 0
M  V30 305 H 34.5048 4.6716 0.296546 0
M  V30 306 H 34.6778 6.47807 0.158054 0
M  V30 307 N 28.0839 -0.256276 1.55502 0
M  V30 308 C 29.0139 -1.32102 1.92539 0
M  V30 309 C 29.9949 -1.50684 0.789194 0
M  V30 310 O 31.1799 -1.63449 1.04872 0
M  V30 311 C 28.3099 -2.67752 2.21192 0
M  V30 312 C 27.2639 -2.63878 3.36975 0
M  V30 313 C 26.5899 -4.03236 3.51147 0
M  V30 314 C 27.8899 -2.21682 4.72921 0
M  V30 315 H 29.5839 -1.01351 2.81724 0
M  V30 316 H 27.1299 -0.486105 1.35547 0
M  V30 317 H 29.0829 -3.42365 2.45691 0
M  V30 318 H 27.8069 -3.0012 1.28824 0
M  V30 319 H 26.4659 -1.91722 3.12471 0
M  V30 320 H 26.1139 -4.32854 2.56216 0
M  V30 321 H 25.8139 -4.01535 4.29003 0
M  V30 322 H 27.3379 -4.79563 3.77957 0
M  V30 323 H 28.7519 -2.86023 4.96854 0
M  V30 324 H 27.1489 -2.3111 5.53812 0
M  V30 325 H 28.2189 -1.16833 4.70615 0
M  V30 326 N 29.562 -1.4872 -0.521534 0
M  V30 327 C 30.492 -1.66771 -1.63431 0
M  V30 328 C 31.473 -0.516499 -1.62069 0
M  V30 329 O 32.658 -0.750013 -1.79132 0
M  V30 330 C 29.788 -1.71515 -3.01993 0
M  V30 331 C 28.742 -2.86222 -3.18216 0
M  V30 332 C 28.068 -2.76061 -4.57924 0
M  V30 333 C 29.368 -4.27419 -3.00184 0
M  V30 334 H 31.062 -2.59932 -1.48579 0
M  V30 335 H 28.608 -1.25089 -0.713358 0
M  V30 336 H 30.561 -1.82731 -3.7972 0
M  V30 337 H 29.285 -0.749393 -3.17886 0
M  V30 338 H 27.944 -2.74575 -2.42908 0
M  V30 339 H 27.592 -1.77437 -4.70665 0
M  V30 340 H 27.292 -3.53037 -4.69722 0
M  V30 341 H 28.816 -2.89256 -5.37739 0
M  V30 342 H 30.23 -4.39855 -3.67697 0
M  V30 343 H 28.627 -5.05458 -3.2347 0
M  V30 344 H 29.697 -4.43293 -1.96518 0
M  V30 345 N 31.0401 0.771051 -1.3745 0
M  V30 346 C 32.2861 1.5319 -1.32894 0
M  V30 347 C 32.6191 1.94008 0.0862511 0
M  V30 348 O 31.8941 1.64124 1.04373 0
M  V30 349 C 32.1771 2.79648 -2.26868 0
M  V30 350 C 32.0301 2.45079 -3.77169 0
M  V30 351 C 33.3491 3.81583 -2.19277 0
M  V30 352 H 30.4681 0.555744 -0.484064 0
M  V30 353 H 33.1101 0.884492 -1.68157 0
M  V30 354 H 31.2601 3.34891 -1.96926 0
M  V30 355 H 32.9321 1.95745 -4.1771 0
M  V30 356 H 31.1751 1.77767 -3.95704 0
M  V30 357 H 31.8461 3.35478 -4.38359 0
M  V30 358 H 34.3221 3.35835 -2.45671 0
M  V30 359 H 33.1981 4.67787 -2.87171 0
M  V30 360 H 33.4591 4.25897 -1.18592 0
M  V30 361 N 32.5182 1.22032 0.997298 0
M  V30 362 C 33.9292 1.0397 1.55071 0
M  V30 363 C 34.2802 -0.398192 1.92117 0
M  V30 364 O 33.4052 -1.28254 1.74298 0
M  V30 365 C 34.0002 1.88109 2.81781 0
M  V30 366 C 32.5592 1.74357 3.33581 0
M  V30 367 C 31.7062 1.84846 2.06706 0
M  V30 368 H 34.6572 1.35941 0.818883 0
M  V30 369 H 34.6782 1.39589 3.53971 0
M  V30 370 H 34.1902 2.92754 2.54787 0
M  V30 371 H 32.2912 0.72427 3.65493 0
M  V30 372 H 32.4042 2.56772 4.04481 0
M  V30 373 H 30.7682 1.28238 2.20062 0
M  V30 374 H 31.5512 2.91014 1.82114 0
M  V30 375 N 33.9963 -1.19345 1.0293 0
M  V30 376 C 35.2443 -1.88665 0.724574 0
M  V30 377 C 35.5653 -1.80036 -0.749144 0
M  V30 378 O 34.8353 -1.2111 -1.53978 0
M  V30 379 H 33.4153 -0.698406 0.265025 0
M  V30 380 H 36.0773 -1.44885 1.30362 0
M  V30 381 H 35.1733 -2.94987 1.01926 0
M  V30 382 N 35.4744 -0.807222 -1.35358 0
M  V30 383 C 36.6994 -0.399309 -2.0352 0
M  V30 384 C 37.1244 0.981986 -1.60433 0
M  V30 385 O 36.4824 1.63601 -0.781299 0
M  V30 386 C 36.5304 -0.491552 -3.57234 0
M  V30 387 O 35.6344 0.494754 -4.09421 0
M  V30 388 H 34.9754 -0.166682 -0.642739 0
M  V30 389 H 37.5054 -1.09328 -1.72941 0
M  V30 390 H 37.5154 -0.361588 -4.06395 0
M  V30 391 H 36.1904 -1.49907 -3.87944 0
M  V30 392 H 34.7674 0.324977 -3.71481 0
M  V30 393 N 36.9525 1.47285 -0.560781 0
M  V30 394 C 38.3685 1.58065 -0.22081 0
M  V30 395 C 38.5685 1.55892 1.27671 0
M  V30 396 O 37.6245 1.46422 2.0571 0
M  V30 397 C 38.9375 2.88418 -0.850625 0
M  V30 398 C 40.4855 3.02009 -0.822184 0
M  V30 399 C 40.9605 4.35066 -1.43113 0
M  V30 400 N 42.4515 4.41711 -1.39448 0
M  V30 401 C 43.1865 5.43237 -1.83525 0
M  V30 402 N 42.6825 6.51555 -2.35474 0
M  V30 403 N 44.4755 5.34304 -1.74574 0
M  V30 404 H 36.6265 1.46941 -1.53369 0
M  V30 405 H 38.8895 0.699558 -0.639783 0
M  V30 406 H 38.5955 2.95755 -1.9032 0
M  V30 407 H 38.4695 3.75612 -0.345773 0
M  V30 408 H 40.8565 2.94266 0.221714 0
M  V30 409 H 40.9375 2.16347 -1.36483 0
M  V30 410 H 40.5815 4.43565 -2.47412 0
M  V30 411 H 40.5115 5.19465 -0.863899 0
M  V30 412 H 43.0025 3.64027 -1.01452 0
M  V30 413 H 43.3155 7.25203 -2.67021 0
M  V30 414 H 41.6605 6.52435 -2.39487 0
M  V30 415 H 44.8515 4.48581 -1.33763 0
M  V30 416 H 45.0245 6.13288 -2.09242 0
M  V30 417 N 38.4306 0.297415 1.54768 0
M  V30 418 C 39.3806 -0.595275 2.20092 0
M  V30 419 C 40.3646 -1.10163 1.17273 0
M  V30 420 O 41.5566 -1.043 1.43006 0
M  V30 421 C 38.6856 -1.7684 2.94249 0
M  V30 422 C 37.7716 -1.27818 4.0438 0
M  V30 423 N 38.1626 -0.505695 5.03266 0
M  V30 424 C 36.4606 -1.55923 4.17857 0
M  V30 425 C 37.1616 -0.245094 5.81183 0
M  V30 426 N 36.1376 -0.823881 5.3732 0
M  V30 427 H 39.9396 0.00250837 2.939 0
M  V30 428 H 37.4536 0.102007 1.62079 0
M  V30 429 H 39.4506 -2.41944 3.39513 0
M  V30 430 H 38.1106 -2.36992 2.21957 0
M  V30 431 H 39.1216 -0.150928 5.1768 0
M  V30 432 H 35.7986 -2.16849 3.56767 0
M  V30 433 H 37.1886 0.375084 6.70852 0
M  V30 434 N 39.9087 -1.5758 0.0250728 0
M  V30 435 C 41.1577 -1.90811 -0.653767 0
M  V30 436 C 41.4707 -0.90273 -1.73523 0
M  V30 437 O 42.6767 -1.12614 -2.47043 0
M  V30 438 C 41.1327 -3.38804 -1.21409 0
M  V30 439 C 40.7407 -4.47692 -0.166126 0
M  V30 440 C 42.4847 -3.81108 -1.86967 0
M  V30 441 C 40.3917 -5.86779 -0.737856 0
M  V30 442 H 39.3217 -0.712063 -0.247956 0
M  V30 443 H 41.9727 -1.83281 0.0897137 0
M  V30 444 H 40.3547 -3.41252 -2.00905 0
M  V30 445 H 41.5287 -4.56797 0.606079 0
M  V30 446 H 39.8437 -4.14565 0.390466 0
M  V30 447 H 42.4407 -4.82375 -2.30692 0
M  V30 448 H 42.7837 -3.15953 -2.71071 0
M  V30 449 H 43.3167 -3.81065 -1.14167 0
M  V30 450 H 40.0557 -6.55468 0.0649577 0
M  V30 451 H 39.5757 -5.81288 -1.47864 0
M  V30 452 H 41.2547 -6.35223 -1.22884 0
M  V30 453 N 41.3868 0.248026 -1.55636 0
M  V30 454 C 42.6118 0.998028 -1.81808 0
M  V30 455 C 43.0368 1.78207 -0.601979 0
M  V30 456 O 42.3948 1.75653 0.448961 0
M  V30 457 C 42.4428 1.9125 -3.05705 0
M  V30 458 O 41.5468 3.00406 -2.82542 0
M  V30 459 H 40.8878 0.284045 -0.600179 0
M  V30 460 H 43.4178 0.269357 -2.02819 0
M  V30 461 H 43.4278 2.32737 -3.35108 0
M  V30 462 H 42.1028 1.33602 -3.93857 0
M  V30 463 H 40.6798 2.63056 -2.64303 0
M  V30 464 N 42.8649 1.48995 0.513639 0
M  V30 465 C 43.7969 1.60836 1.63293 0
M  V30 466 C 44.8099 0.491701 1.55197 0
M  V30 467 O 45.9989 0.763238 1.6136 0
M  V30 468 C 43.0989 1.53731 3.02027 0
M  V30 469 C 42.2719 2.80715 3.35437 0
M  V30 470 C 41.3309 2.66837 4.53525 0
M  V30 471 O 40.3569 3.40753 4.55934 0
M  V30 472 N 41.5589 1.77539 5.52684 0
M  V30 473 H 44.3239 2.57366 1.53566 0
M  V30 474 H 41.8849 1.45925 0.701259 0
M  V30 475 H 43.8769 1.42118 3.78926 0
M  V30 476 H 42.4469 0.651092 3.05744 0
M  V30 477 H 41.6669 3.06772 2.47557 0
M  V30 478 H 42.9549 3.64927 3.54551 0
M  V30 479 H 42.3529 1.16719 5.53528 0
M  V30 480 H 40.9099 1.71856 6.28736 0
M  V30 481 N 44.343 -0.763751 1.37857 0
M  V30 482 C 45.306 -1.85889 1.34081 0
M  V30 483 C 46.306 -1.58949 0.243277 0
M  V30 484 O 47.496 -1.66882 0.499589 0
M  V30 485 C 44.628 -3.23176 1.08489 0
M  V30 486 H 45.821 -1.90648 2.31502 0
M  V30 487 H 43.374 -0.964367 1.23003 0
M  V30 488 H 44.109 -3.24091 0.116318 0
M  V30 489 H 43.894 -3.44124 1.8794 0
M  V30 490 H 45.384 -4.03254 1.08517 0
M  V30 491 N 45.8211 -1.22559 -0.990812 0
M  V30 492 C 46.7841 -0.998863 -2.0629 0
M  V30 493 C 47.7841 0.0354834 -1.60761 0
M  V30 494 O 48.9741 -0.203231 -1.7301 0
M  V30 495 C 46.1061 -0.509203 -3.37076 0
M  V30 496 H 47.2991 -1.95014 -2.27837 0
M  V30 497 H 44.8521 -1.04456 -1.16269 0
M  V30 498 H 45.5871 0.446335 -3.21214 0
M  V30 499 H 45.3721 -1.25547 -3.71457 0
M  V30 500 H 46.8621 -0.370888 -4.1595 0
M  V30 501 N 47.2992 1.18797 -1.03562 0
M  V30 502 C 48.2622 2.20464 -0.626769 0
M  V30 503 C 49.2622 1.57721 0.313173 0
M  V30 504 O 50.4522 1.73917 0.0992615 0
M  V30 505 C 47.5842 3.40802 0.0818498 0
M  V30 506 H 48.7772 2.58149 -1.5264 0
M  V30 507 H 46.3302 1.32593 -0.827578 0
M  V30 508 H 47.0652 3.08642 0.995518 0
M  V30 509 H 46.8502 3.8758 -0.593652 0
M  V30 510 H 48.3402 4.16092 0.354584 0
M  V30 511 N 48.7773 0.814389 1.34928 0
M  V30 512 C 49.7243 0.22822 2.29669 0
M  V30 513 C 50.6943 -0.642164 1.53184 0
M  V30 514 O 51.8793 -0.585605 1.81591 0
M  V30 515 C 49.0193 -0.61089 3.3965 0
M  V30 516 C 48.1323 0.280792 4.31086 0
M  V30 517 C 47.2673 -0.567067 5.28165 0
M  V30 518 C 46.3063 0.324531 6.11239 0
M  V30 519 N 45.4433 -0.483756 7.00431 0
M  V30 520 H 50.2833 1.04153 2.79206 0
M  V30 521 H 47.8203 0.525133 1.37407 0
M  V30 522 H 49.7783 -1.11263 4.0209 0
M  V30 523 H 48.4083 -1.38939 2.91369 0
M  V30 524 H 47.4603 0.900688 3.69583 0
M  V30 525 H 48.7723 0.966723 4.89342 0
M  V30 526 H 47.9263 -1.13363 5.96015 0
M  V30 527 H 46.6653 -1.28654 4.70425 0
M  V30 528 H 45.6703 0.903298 5.42329 0
M  V30 529 H 46.8953 1.04198 6.71059 0
M  V30 530 H 44.8413 -1.18706 6.45171 0
M  V30 531 H 44.7583 0.143965 7.55863 0
M  V30 532 H 46.0263 -1.03334 7.7262 0
M  V30 533 N 50.2554 -1.46986 0.568584 0
M  V30 534 C 51.5014 -2.02741 0.0488709 0
M  V30 535 C 51.8344 -1.44077 -1.30214 0
M  V30 536 O 51.1094 -0.600552 -1.84996 0
M  V30 537 C 51.3924 -3.60086 -0.032047 0
M  V30 538 C 51.2454 -4.29162 1.34686 0
M  V30 539 C 52.5644 -4.33838 -0.739798 0
M  V30 540 H 49.6834 -0.736749 0.0192338 0
M  V30 541 H 52.3254 -1.75289 0.733065 0
M  V30 542 H 50.4754 -3.83606 -0.61473 0
M  V30 543 H 52.1474 -4.16948 1.97362 0
M  V30 544 H 50.3904 -3.89073 1.91846 0
M  V30 545 H 51.0614 -5.37826 1.24285 0
M  V30 546 H 53.5374 -4.15378 -0.244939 0
M  V30 547 H 52.4134 -5.43537 -0.765406 0
M  V30 548 H 52.6744 -4.03875 -1.79827 0
M  V30 549 N 51.7335 -0.305618 -1.54608 0
M  V30 550 C 53.0105 0.355652 -1.92339 0
M  V30 551 C 53.3905 1.71324 -1.23335 0
M  V30 552 O 52.7385 2.25473 -0.370702 0
M  V30 553 C 52.9485 0.46572 -3.45879 0
M  V30 554 C 54.2965 0.734426 -4.182 0
M  V30 555 O 55.3205 0.54935 -3.51938 0
M  V30 556 O 54.1795 1.09024 -5.35515 0
M  V30 557 H 51.2735 0.199666 -0.802535 0
M  V30 558 H 53.8195 -0.354017 -1.65966 0
M  V30 559 H 52.5915 -0.488461 -3.88239 0
M  V30 560 H 52.2145 1.22367 -3.78301 0
M  V30 561 N 53.2116 1.57565 -0.0334293 0
M  V30 562 C 54.4576 1.92262 0.645226 0
M  V30 563 C 54.7906 0.910543 1.71531 0
M  V30 564 O 54.0656 -0.066099 1.94388 0
M  V30 565 C 54.3486 3.37422 1.2577 0
M  V30 566 C 54.2016 4.49369 0.196891 0
M  V30 567 C 55.5206 3.82628 2.17449 0
M  V30 568 H 52.6396 0.699171 0.233085 0
M  V30 569 H 55.2816 1.89779 -0.0915694 0
M  V30 570 H 53.4316 3.39669 1.88566 0
M  V30 571 H 55.1036 4.59254 -0.433962 0
M  V30 572 H 53.3466 4.31168 -0.477137 0
M  V30 573 H 54.0176 5.47978 0.665124 0
M  V30 574 H 56.4936 3.82145 1.64634 0
M  V30 575 H 55.3696 4.84883 2.57254 0
M  V30 576 H 55.6306 3.18376 3.0674 0
M  V30 577 N 54.6897 -0.239769 1.55765 0
M  V30 578 C 55.5997 -1.31831 1.94056 0
M  V30 579 C 56.6157 -1.52275 0.841925 0
M  V30 580 O 57.7917 -1.65759 1.14394 0
M  V30 581 C 54.8567 -2.65156 2.23368 0
M  V30 582 C 53.9177 -2.53173 3.46701 0
M  V30 583 C 53.1507 -3.8014 3.74606 0
M  V30 584 O 53.3737 -4.82343 3.04469 0
M  V30 585 O 52.3077 -3.78344 4.68123 0
M  V30 586 H 56.1337 -1.02347 2.85935 0
M  V30 587 H 53.7187 -0.441123 1.42739 0
M  V30 588 H 55.6007 -3.43929 2.43497 0
M  V30 589 H 54.2757 -2.94358 1.34666 0
M  V30 590 H 53.1827 -1.72662 3.31871 0
M  V30 591 H 54.5157 -2.28915 4.35728 0
M  V30 592 N 56.1678 -1.49265 -0.50573 0
M  V30 593 C 57.4148 -1.58513 -1.26015 0
M  V30 594 C 57.7428 -0.26972 -1.92621 0
M  V30 595 O 56.9978 0.741997 -1.81088 0
M  V30 596 C 57.2968 -2.69008 -2.35308 0
M  V30 597 C 56.9628 -4.10662 -1.86192 0
M  V30 598 C 55.6248 -4.49212 -1.72516 0
M  V30 599 C 57.9768 -4.99336 -1.49375 0
M  V30 600 C 55.3048 -5.74214 -1.20394 0
M  V30 601 C 57.6568 -6.24852 -0.987072 0
M  V30 602 C 56.3208 -6.62236 -0.836669 0
M  V30 603 H 55.5908 -0.580041 -0.461122 0
M  V30 604 H 58.2378 -1.83078 -0.561665 0
M  V30 605 H 56.5428 -2.38396 -3.10926 0
M  V30 606 H 58.2398 -2.73373 -2.93374 0
M  V30 607 H 54.8298 -3.8023 -1.97795 0
M  V30 608 H 59.0138 -4.70212 -1.5879 0
M  V30 609 H 54.2698 -6.01883 -1.07458 0
M  V30 610 H 58.4438 -6.92944 -0.692983 0
M  V30 611 H 56.0708 -7.58979 -0.430607 0
M  V30 612 N 57.6459 0.756429 -1.3826 0
M  V30 613 C 58.9229 1.50584 -1.24835 0
M  V30 614 C 59.3029 2.10556 0.151485 0
M  V30 615 O 58.6509 1.96825 1.1607 0
M  V30 616 C 58.8609 2.57448 -2.3563 0
M  V30 617 C 60.2089 3.24429 -2.73917 0
M  V30 618 O 61.2329 2.67751 -2.34921 0
M  V30 619 O 60.0919 4.26937 -3.41156 0
M  V30 620 H 57.1859 0.667664 -0.48801 0
M  V30 621 H 59.7319 0.792083 -1.5008 0
M  V30 622 H 58.5039 2.11362 -3.29305 0
M  V30 623 H 58.1269 3.36408 -2.11933 0
M  V30 624 N 59.124 1.23083 0.984299 0
M  V30 625 C 60.354 1.08556 1.75781 0
M  V30 626 C 60.762 -0.366171 1.85623 0
M  V30 627 O 60.105 -1.26524 1.33182 0
M  V30 628 C 60.167 1.63208 3.20318 0
M  V30 629 C 59.831 3.11922 3.33997 0
M  V30 630 C 60.828 4.09259 3.2063 0
M  V30 631 C 58.513 3.51552 3.58771 0
M  V30 632 C 60.507 5.4421 3.31835 0
M  V30 633 C 58.194 4.86649 3.69616 0
M  V30 634 C 59.192 5.82787 3.56157 0
M  V30 635 O 58.88 7.15431 3.66626 0
M  V30 636 H 58.612 0.380713 0.5586 0
M  V30 637 H 61.166 1.63321 1.2456 0
M  V30 638 H 59.396 1.0286 3.72769 0
M  V30 639 H 61.085 1.44216 3.79416 0
M  V30 640 H 61.851 3.79984 3.01392 0
M  V30 641 H 57.73 2.77239 3.6832 0
M  V30 642 H 61.274 6.1923 3.21247 0
M  V30 643 H 57.171 5.15601 3.88363 0
M  V30 644 H 57.939 7.23127 3.83445 0
M  V30 645 N 60.6021 -1.18246 1.0419 0
M  V30 646 C 61.8791 -1.84121 0.660208 0
M  V30 647 C 62.2591 -1.92778 -0.860221 0
M  V30 648 O 61.6071 -1.45464 -1.76217 0
M  V30 649 C 61.8171 -3.22355 1.33747 0
M  V30 650 C 63.1651 -3.98376 1.46906 0
M  V30 651 O 64.1891 -3.31799 1.29568 0
M  V30 652 O 63.0481 -5.17665 1.75171 0
M  V30 653 H 60.1421 -0.794036 0.231161 0
M  V30 654 H 62.6881 -1.25628 1.14087 0
M  V30 655 H 61.4601 -3.10964 2.37522 0
M  V30 656 H 61.0831 -3.88506 0.845515 0
M  V30 657 N 62.0802 -0.821533 -1.34494 0
M  V30 658 C 63.3282 -0.408139 -1.97936 0
M  V30 659 C 63.6492 1.03193 -1.65457 0
M  V30 660 O 62.9192 1.71622 -0.944595 0
M  V30 661 H 61.4992 -0.147928 -0.732206 0
M  V30 662 H 64.1612 -1.05067 -1.64155 0
M  V30 663 H 63.2572 -0.52601 -3.07635 0
M  V30 664 N 63.5583 1.46682 -0.576371 0
M  V30 665 C 64.9693 1.86112 -0.148091 0
M  V30 666 C 65.3203 1.48073 1.2872 0
M  V30 667 O 64.4453 0.892656 1.97131 0
M  V30 668 C 65.0403 3.37786 -0.261982 0
M  V30 669 C 63.5993 3.76235 0.111384 0
M  V30 670 C 62.7463 2.70713 -0.60083 0
M  V30 671 H 65.6973 1.37927 -0.78497 0
M  V30 672 H 65.7183 3.77007 0.514364 0
M  V30 673 H 65.2303 3.6544 -1.30671 0
M  V30 674 H 63.3313 3.54198 1.15649 0
M  V30 675 H 63.4443 4.78391 -0.26052 0
M  V30 676 H 61.8083 2.54666 -0.0417783 0
M  V30 677 H 62.5913 3.01208 -1.64708 0
M  V30 678 N 65.0364 0.313813 1.54444 0
M  V30 679 C 65.9664 -0.549454 2.26943 0
M  V30 680 C 66.9474 -1.12741 1.27372 0
M  V30 681 O 68.1324 -1.15436 1.56167 0
M  V30 682 C 65.2624 -1.71523 3.01989 0
M  V30 683 C 64.2164 -1.26703 4.08816 0
M  V30 684 C 63.5424 -2.51898 4.71647 0
M  V30 685 C 64.8424 -0.388962 5.2085 0
M  V30 686 H 66.5364 0.0552661 2.99349 0
M  V30 687 H 64.0824 0.0280207 1.43973 0
M  V30 688 H 66.0354 -2.32535 3.51433 0
M  V30 689 H 64.7594 -2.34639 2.27183 0
M  V30 690 H 63.4184 -0.679896 3.6024 0
M  V30 691 H 63.0664 -3.13356 3.93468 0
M  V30 692 H 62.7664 -2.22605 5.43802 0
M  V30 693 H 64.2904 -3.1369 5.23861 0
M  V30 694 H 65.7044 -0.905107 5.6611 0
M  V30 695 H 64.1014 -0.18924 5.99802 0
M  V30 696 H 65.1714 0.582699 4.81386 0
M  V30 697 N 66.5145 -1.57545 0.0417849 0
M  V30 698 C 67.4475 -2.06514 -0.970928 0
M  V30 699 C 68.4255 -0.963607 -1.30971 0
M  V30 700 O 69.6095 -1.23486 -1.4242 0
M  V30 701 C 66.7365 -2.4978 -2.28752 0
M  V30 702 C 65.7825 -3.71078 -2.10246 0
M  V30 703 S 66.6155 -5.17158 -1.38952 0
M  V30 704 C 67.7715 -5.6373 -2.71954 0
M  V30 705 H 68.0045 -2.9209 -0.554129 0
M  V30 706 H 65.5375 -1.53459 -0.17024 0
M  V30 707 H 67.4955 -2.75371 -3.04435 0
M  V30 708 H 66.1565 -1.64527 -2.67562 0
M  V30 709 H 65.3495 -3.9924 -3.07609 0
M  V30 710 H 64.9515 -3.45705 -1.42704 0
M  V30 711 H 67.2435 -5.68743 -3.68154 0
M  V30 712 H 68.1865 -6.63086 -2.4844 0
M  V30 713 H 68.5945 -4.91424 -2.77782 0
M  V30 714 N 67.9926 0.231505 -1.5589 0
M  V30 715 C 68.9396 1.28682 -1.91598 0
M  V30 716 C 69.9096 1.47071 -0.771974 0
M  V30 717 O 71.0946 1.60802 -1.027 0
M  V30 718 C 68.2346 2.6342 -2.22944 0
M  V30 719 C 67.3476 2.52912 -3.50228 0
M  V30 720 C 66.4826 3.80106 -3.7107 0
M  V30 721 C 65.5216 3.64279 -4.91902 0
M  V30 722 N 64.6586 4.834 -5.09184 0
M  V30 723 H 69.4986 0.975305 -2.81588 0
M  V30 724 H 67.0356 0.470299 -1.39379 0
M  V30 725 H 68.9936 3.41869 -2.39126 0
M  V30 726 H 67.6236 2.92687 -1.36139 0
M  V30 727 H 66.6756 1.6595 -3.42294 0
M  V30 728 H 67.9876 2.37133 -4.38827 0
M  V30 729 H 67.1416 4.66999 -3.87295 0
M  V30 730 H 65.8806 3.98799 -2.80733 0
M  V30 731 H 64.8856 2.7577 -4.75637 0
M  V30 732 H 66.1106 3.47067 -5.83714 0
M  V30 733 H 64.0566 5.02425 -4.21788 0
M  V30 734 H 63.9736 4.70311 -5.91898 0
M  V30 735 H 65.2416 5.71747 -5.29835 0
M  V30 736 N 69.4707 1.49531 0.497807 0
M  V30 737 C 70.6987 1.62893 1.27567 0
M  V30 738 C 71.1137 0.301585 1.86376 0
M  V30 739 O 70.4707 -0.713335 1.67982 0
M  V30 740 C 70.5217 2.70013 2.40364 0
M  V30 741 O 70.2427 3.976 1.83972 0
M  V30 742 C 71.7437 2.94109 3.31685 0
M  V30 743 H 68.9637 0.548298 0.386794 0
M  V30 744 H 71.5077 1.95584 0.597245 0
M  V30 745 H 69.6627 2.40092 3.04031 0
M  V30 746 H 70.0767 4.56631 2.58047 0
M  V30 747 H 71.5507 3.72788 4.07104 0
M  V30 748 H 72.0277 2.04147 3.88871 0
M  V30 749 H 72.6337 3.2546 2.73781 0
M  V30 750 N 70.9488 -0.749086 1.3866 0
M  V30 751 C 71.8588 -1.89358 1.38494 0
M  V30 752 C 72.8748 -1.71708 0.281476 0
M  V30 753 O 74.0508 -1.94554 0.520643 0
M  V30 754 C 71.1158 -3.24782 1.21316 0
M  V30 755 C 70.1768 -3.54926 2.41508 0
M  V30 756 C 69.4098 -4.83888 2.2514 0
M  V30 757 O 69.6328 -5.56592 1.24746 0
M  V30 758 O 68.5668 -5.13612 3.13826 0
M  V30 759 H 72.3928 -1.92452 2.34938 0
M  V30 760 H 69.9778 -0.894981 1.19626 0
M  V30 761 H 71.8598 -4.05739 1.13814 0
M  V30 762 H 70.5348 -3.2249 0.279592 0
M  V30 763 H 69.4418 -2.74112 2.54585 0
M  V30 764 H 70.7748 -3.61983 3.3351 0
M  V30 765 N 72.4269 -1.23603 -0.977757 0
M  V30 766 C 73.6729 -1.07129 -1.72195 0
M  V30 767 C 74.0059 0.390501 -1.90233 0
M  V30 768 O 73.2809 1.28902 -1.45653 0
M  V30 769 C 73.5639 -1.80031 -3.11867 0
M  V30 770 C 73.4169 -3.33899 -3.01383 0
M  V30 771 C 74.7359 -1.56492 -4.11337 0
M  V30 772 H 71.8549 -0.390571 -0.624999 0
M  V30 773 H 74.4969 -1.52142 -1.13811 0
M  V30 774 H 72.6469 -1.41768 -3.6171 0
M  V30 775 H 74.3189 -3.81699 -2.59043 0
M  V30 776 H 72.5619 -3.62796 -2.37827 0
M  V30 777 H 73.2329 -3.801 -4.00285 0
M  V30 778 H 75.7089 -1.89757 -3.70313 0
M  V30 779 H 74.5849 -2.09973 -5.07151 0
M  V30 780 H 74.8459 -0.500874 -4.39254 0
M  V30 781 N 73.905 1.17692 -1.04816 0
M  V30 782 C 75.316 1.69501 -0.782698 0
M  V30 783 C 75.667 1.83456 0.695577 0
M  V30 784 O 74.792 1.51942 1.54086 0
M  V30 785 C 75.387 3.07874 -1.41419 0
M  V30 786 C 73.946 3.56864 -1.19686 0
M  V30 787 C 73.093 2.3322 -1.50012 0
M  V30 788 H 76.044 1.02262 -1.2136 0
M  V30 789 H 76.065 3.71528 -0.821428 0
M  V30 790 H 75.577 2.97685 -2.49009 0
M  V30 791 H 73.678 3.72337 -0.140043 0
M  V30 792 H 73.791 4.39851 -1.89916 0
M  V30 793 H 72.155 2.37501 -0.920071 0
M  V30 794 H 72.938 2.25644 -2.58727 0
M  V30 795 N 75.3831 0.828654 1.34056 0
M  V30 796 C 76.6311 0.41863 1.97717 0
M  V30 797 C 76.9521 -1.02314 1.66002 0
M  V30 798 O 76.2221 -1.71119 0.953683 0
M  V30 799 H 74.8021 0.151809 0.731412 0
M  V30 800 H 77.4641 1.05936 1.63596 0
M  V30 801 H 76.5601 0.542318 3.07352 0
M  V30 802 N 76.8612 -1.46375 0.584142 0
M  V30 803 C 78.2722 -1.86031 0.157959 0
M  V30 804 C 78.6232 -1.48753 -1.27933 0
M  V30 805 O 77.7482 -0.903098 -1.96655 0
M  V30 806 C 78.3432 -3.37642 0.279892 0
M  V30 807 C 76.9022 -3.76289 -0.09143 0
M  V30 808 C 76.0492 -2.7039 0.615178 0
M  V30 809 H 79.0002 -1.37509 0.792274 0
M  V30 810 H 79.0212 -3.77275 -0.494364 0
M  V30 811 H 78.5332 -3.64742 1.32607 0
M  V30 812 H 76.6342 -3.54806 -1.13769 0
M  V30 813 H 76.7472 -4.78246 0.285886 0
M  V30 814 H 75.1112 -2.5464 0.0552833 0
M  V30 815 H 75.8942 -3.0033 1.66303 0
M  V30 816 N 78.3393 -0.321999 -1.54275 0
M  V30 817 C 79.7553 0.0306999 -1.5957 0
M  V30 818 C 79.9553 1.50614 -1.33857 0
M  V30 819 O 79.0113 2.2619 -1.12223 0
M  V30 820 C 80.3243 -0.386122 -2.98211 0
M  V30 821 C 81.8723 -0.336647 -3.11184 0
M  V30 822 C 82.3473 -0.728607 -4.52167 0
M  V30 823 N 83.8383 -0.681952 -4.58152 0
M  V30 824 C 84.5733 -0.957449 -5.6535 0
M  V30 825 N 84.0693 -1.3 -6.80494 0
M  V30 826 N 85.8623 -0.883113 -5.55119 0
M  V30 827 H 78.0133 -1.28332 -1.69247 0
M  V30 828 H 80.2763 -0.521716 -0.791528 0
M  V30 829 H 79.9823 -1.41404 -3.22022 0
M  V30 830 H 79.8563 0.249662 -3.76373 0
M  V30 831 H 82.2433 0.682058 -2.8711 0
M  V30 832 H 82.3243 -1.00734 -2.3513 0
M  V30 833 H 81.9683 -1.74522 -4.76974 0
M  V30 834 H 81.8983 -0.0356152 -5.26588 0
M  V30 835 H 84.3893 -0.428985 -3.75457 0
M  V30 836 H 84.7023 -1.49563 -7.58189 0
M  V30 837 H 83.0473 -1.33824 -6.81994 0
M  V30 838 H 86.2383 -0.615001 -4.64042 0
M  V30 839 H 86.4113 -1.10118 -6.38575 0
M  V30 840 N 79.8174 1.5752 -0.0501392 0
M  V30 841 C 81.0424 1.97376 0.636997 0
M  V30 842 C 81.4674 0.927466 1.63645 0
M  V30 843 O 80.8254 -0.10941 1.8097 0
M  V30 844 C 80.8734 3.36304 1.30123 0
M  V30 845 O 79.9774 3.34156 2.41689 0
M  V30 846 H 79.3184 0.642998 0.165679 0
M  V30 847 H 81.8484 2.04258 -0.118233 0
M  V30 848 H 81.8584 3.73008 1.65315 0
M  V30 849 H 80.5334 4.11993 0.568746 0
M  V30 850 H 79.1104 3.09196 2.08451 0
M  V30 851 N 81.2955 -0.223234 1.56011 0
M  V30 852 C 82.2275 -1.30006 1.88762 0
M  V30 853 C 83.2405 -1.43129 0.775746 0
M  V30 854 O 84.4295 -1.44057 1.05403 0
M  V30 855 C 81.5295 -2.67589 2.07965 0
M  V30 856 C 80.7025 -2.76434 3.38973 0
M  V30 857 C 79.7615 -3.95019 3.47629 0
M  V30 858 O 78.7875 -3.83436 4.20672 0
M  V30 859 N 79.9895 -5.09249 2.78649 0
M  V30 860 H 82.7545 -1.02238 2.81722 0
M  V30 861 H 80.3155 -0.413278 1.56536 0
M  V30 862 H 82.3075 -3.45297 2.11073 0
M  V30 863 H 80.8775 -2.87964 1.21638 0
M  V30 864 H 80.0975 -1.85216 3.47978 0
M  V30 865 H 81.3855 -2.79313 4.25278 0
M  V30 866 H 80.7835 -5.21556 2.19081 0
M  V30 867 H 79.3405 -5.85007 2.8742 0
M  V30 868 N 82.7736 -1.49793 -0.48987 0
M  V30 869 C 83.6836 -1.70036 -1.61632 0
M  V30 870 C 84.6996 -0.583102 -1.63939 0
M  V30 871 O 85.8756 -0.859169 -1.82154 0
M  V30 872 C 82.9406 -1.77277 -2.97949 0
M  V30 873 C 82.0016 -3.00918 -3.06181 0
M  V30 874 C 81.2346 -3.07804 -4.35996 0
M  V30 875 O 81.4576 -2.21982 -5.25433 0
M  V30 876 O 80.3916 -4.00369 -4.49431 0
M  V30 877 H 84.2176 -2.65486 -1.47482 0
M  V30 878 H 81.8026 -1.33666 -0.667362 0
M  V30 879 H 83.6846 -1.84329 -3.78947 0
M  V30 880 H 82.3596 -0.850076 -3.12339 0
M  V30 881 H 81.2666 -2.99377 -2.2433 0
M  V30 882 H 82.5996 -3.92704 -2.96723 0
M  V30 883 N 84.2517 0.741722 -1.39055 0
M  V30 884 C 85.1817 1.869 -1.39966 0
M  V30 885 C 86.1627 1.6804 -0.26392 0
M  V30 886 O 87.3477 1.88458 -0.468755 0
M  V30 887 C 84.4777 3.24572 -1.23574 0
M  V30 888 C 83.4317 3.58056 -2.34477 0
M  V30 889 C 82.7577 4.94593 -2.0318 0
M  V30 890 C 84.0577 3.61716 -3.76774 0
M  V30 891 H 85.7517 1.86395 -2.34302 0
M  V30 892 H 83.2977 0.895361 -1.1278 0
M  V30 893 H 85.2507 4.031 -1.22834 0
M  V30 894 H 83.9747 3.25587 -0.257045 0
M  V30 895 H 82.6337 2.81854 -2.34423 0
M  V30 896 H 82.2817 4.92181 -1.03765 0
M  V30 897 H 81.9817 5.17964 -2.77465 0
M  V30 898 H 83.5057 5.75486 -2.04079 0
M  V30 899 H 84.9197 4.30335 -3.78794 0
M  V30 900 H 83.3167 3.96603 -4.50362 0
M  V30 901 H 84.3867 2.61672 -4.08235 0
M  V30 902 N 85.7298 1.2412 0.971189 0
M  V30 903 C 86.6628 0.97373 2.06382 0
M  V30 904 C 87.6408 -0.0912662 1.62344 0
M  V30 905 O 88.8248 0.0449365 1.88446 0
M  V30 906 C 85.9518 0.468746 3.35441 0
M  V30 907 C 84.9978 1.52176 3.98428 0
M  V30 908 S 85.8308 3.10203 4.36503 0
M  V30 909 C 86.9868 2.61398 5.68702 0
M  V30 910 H 87.2198 1.89893 2.28753 0
M  V30 911 H 84.7528 1.07466 1.10862 0
M  V30 912 H 86.7108 0.184012 4.10087 0
M  V30 913 H 85.3718 -0.435688 3.11064 0
M  V30 914 H 84.5648 1.11876 4.91426 0
M  V30 915 H 84.1668 1.75632 3.30196 0
M  V30 916 H 86.4588 2.03992 6.4606 0
M  V30 917 H 87.4018 3.52972 6.13854 0
M  V30 918 H 87.8098 2.01941 5.27143 0
M  V30 919 N 87.2079 -1.17134 1.05439 0
M  V30 920 C 88.1549 -2.21235 0.657539 0
M  V30 921 C 89.1249 -1.62551 -0.341543 0
M  V30 922 O 90.3099 -1.89379 -0.232393 0
M  V30 923 C 87.4499 -3.45076 0.0410575 0
M  V30 924 C 86.5629 -4.18042 1.08927 0
M  V30 925 C 85.6979 -5.29376 0.439848 0
M  V30 926 C 84.7369 -5.94132 1.4722 0
M  V30 927 N 83.8739 -6.96975 0.846756 0
M  V30 928 H 88.7139 -2.54534 1.54972 0
M  V30 929 H 86.2509 -1.25028 0.775006 0
M  V30 930 H 88.2089 -4.15862 -0.33383 0
M  V30 931 H 86.8389 -3.12353 -0.814568 0
M  V30 932 H 85.8909 -3.45945 1.58196 0
M  V30 933 H 87.2029 -4.62306 1.87282 0
M  V30 934 H 86.3569 -6.06699 0.0115125 0
M  V30 935 H 85.0959 -4.86251 -0.375656 0
M  V30 936 H 84.1009 -5.15538 1.91052 0
M  V30 937 H 85.3259 -6.39337 2.28965 0
M  V30 938 H 83.2719 -6.5598 0.0518075 0
M  V30 939 H 83.1889 -7.39565 1.5678 0
M  V30 940 H 84.4569 -7.78239 0.443277 0
M  V30 941 N 88.686 -0.835752 -1.33615 0
M  V30 942 C 89.618 -0.224151 -2.28101 0
M  V30 943 C 90.631 0.593331 -1.51603 0
M  V30 944 O 91.82 0.420911 -1.73466 0
M  V30 945 C 88.92 0.703309 -3.31522 0
M  V30 946 C 88.093 -0.0741528 -4.37337 0
M  V30 947 C 87.152 0.776176 -5.20444 0
M  V30 948 O 86.178 0.216506 -5.68788 0
M  V30 949 N 87.38 2.09401 -5.41416 0
M  V30 950 H 90.145 -1.03598 -2.81225 0
M  V30 951 H 87.706 -0.69392 -1.46275 0
M  V30 952 H 89.698 1.27707 -3.84022 0
M  V30 953 H 88.268 1.41585 -2.78698 0
M  V30 954 H 87.488 -0.82928 -3.85378 0
M  V30 955 H 88.776 -0.608863 -5.05144 0
M  V30 956 H 88.174 2.57229 -5.03835 0
M  V30 957 H 86.731 2.61633 -5.96985 0
M  V30 958 N 90.1641 1.46063 -0.591896 0
M  V30 959 C 91.0941 2.33172 0.123673 0
M  V30 960 C 92.0751 1.45897 0.87453 0
M  V30 961 O 93.2601 1.74698 0.848181 0
M  V30 962 C 90.3901 3.28336 1.13194 0
M  V30 963 C 89.3441 4.25124 0.495324 0
M  V30 964 C 88.6701 5.09863 1.61071 0
M  V30 965 C 89.9701 5.19143 -0.573425 0
M  V30 966 H 91.6641 2.93252 -0.603646 0
M  V30 967 H 89.2101 1.41014 -0.291741 0
M  V30 968 H 91.1631 3.88137 1.64097 0
M  V30 969 H 89.8871 2.66383 1.88965 0
M  V30 970 H 88.5461 3.66599 0.00729452 0
M  V30 971 H 88.1941 4.44288 2.35832 0
M  V30 972 H 87.8941 5.75417 1.19035 0
M  V30 973 H 89.4181 5.72529 2.12233 0
M  V30 974 H 90.8321 5.73106 -0.1491 0
M  V30 975 H 89.2291 5.93089 -0.914636 0
M  V30 976 H 90.2991 4.62519 -1.45617 0
M  V30 977 N 91.6422 0.330177 1.54103 0
M  V30 978 C 92.5902 -0.548226 2.26047 0
M  V30 979 C 93.5842 -1.11309 1.27698 0
M  V30 980 O 94.7902 -1.06036 1.45452 0
M  V30 981 H 91.1652 -0.195456 0.726155 0
M  V30 982 H 93.1362 0.0807567 2.98291 0
M  V30 983 C 91.8852 -1.69415 3.03634 0
M  V30 984 H 91.2082 -1.26876 3.79134 0
M  V30 985 H 92.6482 -2.28423 3.5721 0
M  V30 986 C 91.1072 -2.61569 2.12328 0
M  V30 987 O 91.6372 -3.63462 1.7105 0
M  V30 988 N 89.8432 -2.29952 1.77681 0
M  V30 989 H 89.3902 -1.47134 2.11446 0
M  V30 990 H 89.3482 -2.91871 1.16869 0
M  V30 991 N 93.1203 -1.57491 0.0584922 0
M  V30 992 C 94.3693 -1.92155 -0.613146 0
M  V30 993 C 94.6823 -0.939334 -1.71569 0
M  V30 994 O 95.8883 -1.17829 -2.44599 0
M  V30 995 C 94.3443 -3.41303 -1.14195 0
M  V30 996 C 93.9523 -4.47944 -0.0711265 0
M  V30 997 C 95.6963 -3.84988 -1.78841 0
M  V30 998 C 93.6033 -5.88212 -0.613225 0
M  V30 999 H 92.5333 -0.717162 -0.232796 0
M  V30 1000 H 95.1843 -1.83049 0.12857 0
M  V30 1001 H 93.5663 -3.45437 -1.93621 0
M  V30 1002 H 94.7403 -4.55408 0.702836 0
M  V30 1003 H 93.0553 -4.13644 0.478313 0
M  V30 1004 H 95.6523 -4.87159 -2.20408 0
M  V30 1005 H 95.9953 -3.21632 -2.64308 0
M  V30 1006 H 96.5283 -3.83401 -1.06059 0
M  V30 1007 H 93.2673 -6.55183 0.203978 0
M  V30 1008 H 92.7873 -5.84294 -1.35501 0
M  V30 1009 H 94.4663 -6.37687 -1.09383 0
M  V30 1010 N 94.5984 0.214957 -1.56127 0
M  V30 1011 C 95.8474 0.936451 -1.78643 0
M  V30 1012 C 96.1604 1.85237 -0.628229 0
M  V30 1013 O 97.3664 2.613 -0.737186 0
M  V30 1014 C 95.8224 1.7154 -3.16389 0
M  V30 1015 C 95.4304 0.845299 -4.39953 0
M  V30 1016 C 97.1744 2.42772 -3.48227 0
M  V30 1017 C 95.0814 1.62198 -5.68723 0
M  V30 1018 H 94.0114 0.353401 -0.666051 0
M  V30 1019 H 96.6624 0.190169 -1.82512 0
M  V30 1020 H 95.0444 2.50484 -3.06715 0
M  V30 1021 H 96.2184 0.0959353 -4.607 0
M  V30 1022 H 94.5334 0.244789 -4.1568 0
M  V30 1023 H 97.1304 3.01394 -4.41663 0
M  V30 1024 H 97.4734 3.15984 -2.71035 0
M  V30 1025 H 98.0064 1.70813 -3.5926 0
M  V30 1026 H 94.7454 0.933011 -6.48826 0
M  V30 1027 H 94.2654 2.34579 -5.52026 0
M  V30 1028 H 95.9444 2.18095 -6.09133 0
M  V30 1029 N 96.0765 1.50051 0.48192 0
M  V30 1030 C 97.0085 1.64263 1.59844 0
M  V30 1031 C 98.0215 0.52451 1.54119 0
M  V30 1032 O 99.2105 0.797293 1.59704 0
M  V30 1033 C 96.3105 1.60102 2.98698 0
M  V30 1034 C 95.4835 2.87767 3.29407 0
M  V30 1035 C 94.5425 2.76397 4.47762 0
M  V30 1036 O 93.5685 3.50348 4.48603 0
M  V30 1037 N 94.7705 1.89222 5.48794 0
M  V30 1038 H 97.5355 2.60566 1.48073 0
M  V30 1039 H 95.0965 1.47379 0.670149 0
M  V30 1040 H 97.0885 1.50123 3.75826 0
M  V30 1041 H 95.6585 0.715798 3.04294 0
M  V30 1042 H 94.8785 3.11954 2.40994 0
M  V30 1043 H 96.1665 3.72365 3.4673 0
M  V30 1044 H 95.5645 1.28434 5.50928 0
M  V30 1045 H 94.1215 1.85154 6.24949 0
M  V30 1046 N 97.5546 -0.734337 1.39446 0
M  V30 1047 C 98.5026 -1.86971 1.38364 0
M  V30 1048 C 99.4966 -1.67288 0.266687 0
M  V30 1049 O 100.703 -1.74621 0.436755 0
M  V30 1050 H 97.0776 -0.615474 0.432082 0
M  V30 1051 H 99.0486 -1.85 2.34132 0
M  V30 1052 C 97.7976 -3.2466 1.24465 0
M  V30 1053 H 97.1206 -3.40402 2.09682 0
M  V30 1054 H 98.5606 -4.04292 1.27764 0
M  V30 1055 C 97.0196 -3.36867 -0.0468674 0
M  V30 1056 O 97.5496 -3.88618 -1.01681 0
M  V30 1057 N 95.7556 -2.90391 -0.110145 0
M  V30 1058 H 95.3026 -2.48466 0.679868 0
M  V30 1059 H 95.2606 -2.98939 -0.973799 0
M  V30 1060 N 99.0327 -1.24633 -0.964593 0
M  V30 1061 C 99.9957 -1.0424 -2.04124 0
M  V30 1062 C 100.996 0.00137563 -1.608 0
M  V30 1063 O 102.186 -0.239883 -1.7254 0
M  V30 1064 C 99.3177 -0.580588 -3.3592 0
M  V30 1065 H 100.511 -1.99803 -2.23649 0
M  V30 1066 H 98.0637 -1.06899 -1.14027 0
M  V30 1067 H 98.7987 0.3781 -3.22088 0
M  V30 1068 H 98.5837 -1.33398 -3.6871 0
M  V30 1069 H 100.074 -0.459034 -4.15069 0
M  V30 1070 N 100.511 1.16574 -1.06058 0
M  V30 1071 C 101.421 2.2452 -0.680282 0
M  V30 1072 C 102.437 1.71348 0.302604 0
M  V30 1073 O 103.613 2.00822 0.152513 0
M  V30 1074 C 100.678 3.46629 -0.0700315 0
M  V30 1075 C 99.7388 4.14849 -1.10448 0
M  V30 1076 C 98.9718 5.31129 -0.523256 0
M  V30 1077 O 99.1948 5.66514 0.664709 0
M  V30 1078 O 98.1288 5.88526 -1.26179 0
M  V30 1079 H 101.955 2.59355 -1.58015 0
M  V30 1080 H 99.5398 1.24043 -0.832694 0
M  V30 1081 H 101.422 4.20543 0.268667 0
M  V30 1082 H 100.097 3.13573 0.803353 0
M  V30 1083 H 99.0038 3.42916 -1.49532 0
M  V30 1084 H 100.337 4.51954 -1.94931 0
M  V30 1085 N 101.989 0.842826 1.3317 0
M  V30 1086 C 102.952 0.284065 2.27433 0
M  V30 1087 C 103.952 -0.54948 1.5112 0
M  V30 1088 O 105.142 -0.362699 1.70382 0
M  V30 1089 C 102.274 -0.599384 3.35589 0
M  V30 1090 H 103.467 1.11589 2.78366 0
M  V30 1091 H 101.02 0.616221 1.4364 0
M  V30 1092 H 101.755 -1.45349 2.89904 0
M  V30 1093 H 101.54 -0.00291266 3.921 0
M  V30 1094 H 103.03 -0.983488 4.05854 0
M  V30 1095 N 103.467 -1.45747 0.599634 0
M  V30 1096 C 104.713 -2.02592 0.0918643 0
M  V30 1097 C 105.046 -1.46806 -1.27128 0
M  V30 1098 O 104.321 -0.639658 -1.83681 0
M  V30 1099 C 104.604 -3.60073 0.0443398 0
M  V30 1100 C 104.457 -4.26208 1.43759 0
M  V30 1101 C 105.776 -4.35309 -0.647608 0
M  V30 1102 H 102.895 -0.736175 0.034857 0
M  V30 1103 H 105.537 -1.73694 0.770081 0
M  V30 1104 H 103.687 -3.84823 -0.533224 0
M  V30 1105 H 105.359 -4.12668 2.06162 0
M  V30 1106 H 103.602 -3.84916 2.00056 0
M  V30 1107 H 104.273 -5.35069 1.35665 0
M  V30 1108 H 106.749 -4.15805 -0.156776 0
M  V30 1109 H 105.625 -5.45038 -0.649942 0
M  V30 1110 H 105.886 -4.07598 -1.71219 0
M  V30 1111 N 104.945 -0.338344 -1.53925 0
M  V30 1112 C 105.895 0.536712 -2.21593 0
M  V30 1113 C 106.879 1.07015 -1.20153 0
M  V30 1114 O 108.071 1.00471 -1.45721 0
M  V30 1115 C 105.2 1.68977 -2.98834 0
M  V30 1116 C 104.286 1.17052 -4.07627 0
M  V30 1117 N 104.677 0.372085 -5.0443 0
M  V30 1118 C 102.975 1.44789 -4.21844 0
M  V30 1119 C 103.676 0.0909171 -5.81629 0
M  V30 1120 N 102.652 0.681131 -5.39316 0
M  V30 1121 H 106.454 -0.0804298 -2.9379 0
M  V30 1122 H 103.968 -0.144943 -1.61752 0
M  V30 1123 H 105.965 2.32857 -3.45808 0
M  V30 1124 H 104.625 2.31024 -2.28162 0
M  V30 1125 H 105.636 0.0136217 -5.17898 0
M  V30 1126 H 102.313 2.07313 -3.62391 0
M  V30 1127 H 103.703 -0.552817 -6.69622 0
M  V30 1128 N 106.423 1.57458 -0.0668435 0
M  V30 1129 C 107.67 1.93301 0.603406 0
M  V30 1130 C 107.998 0.946486 1.69917 0
M  V30 1131 O 107.253 -0.0387021 1.95662 0
M  V30 1132 C 107.552 3.35784 1.22409 0
M  V30 1133 C 107.218 4.50179 0.254955 0
M  V30 1134 C 105.88 4.81199 -0.0116746 0
M  V30 1135 C 108.232 5.19598 -0.408338 0
M  V30 1136 C 105.56 5.78978 -0.94877 0
M  V30 1137 C 107.912 6.18381 -1.33372 0
M  V30 1138 C 106.576 6.47821 -1.60887 0
M  V30 1139 H 105.846 0.707338 0.220802 0
M  V30 1140 H 108.493 1.91012 -0.136665 0
M  V30 1141 H 106.798 3.34515 2.03978 0
M  V30 1142 H 108.495 3.60804 1.74989 0
M  V30 1143 H 105.085 4.25983 0.472954 0
M  V30 1144 H 109.269 4.95832 -0.215456 0
M  V30 1145 H 104.525 6.00115 -1.16925 0
M  V30 1146 H 108.699 6.71277 -1.85367 0
M  V30 1147 H 106.326 7.23399 -2.33661 0
M  V30 1148 N 107.901 -0.206675 1.56239 0
M  V30 1149 C 109.148 -0.928842 1.79941 0
M  V30 1150 C 109.476 -1.83734 0.638131 0
M  V30 1151 O 108.731 -1.92039 -0.376746 0
M  V30 1152 C 109.03 -1.78675 3.09532 0
M  V30 1153 C 108.696 -1.03022 4.38973 0
M  V30 1154 C 107.358 -0.821302 4.74139 0
M  V30 1155 C 109.71 -0.497081 5.18824 0
M  V30 1156 C 107.038 -0.0675719 5.86661 0
M  V30 1157 C 109.39 0.24338 6.32132 0
M  V30 1158 C 108.054 0.463422 6.65889 0
M  V30 1159 H 107.324 -0.339887 0.658451 0
M  V30 1160 H 109.971 -0.195977 1.90495 0
M  V30 1161 H 108.276 -2.58794 2.94165 0
M  V30 1162 H 109.973 -2.34792 3.25075 0
M  V30 1163 H 106.563 -1.20306 4.11369 0
M  V30 1164 H 110.747 -0.645921 4.92079 0
M  V30 1165 H 106.003 0.112995 6.11296 0
M  V30 1166 H 110.177 0.66393 6.93228 0
M  V30 1167 H 107.804 1.04938 7.52922 0
M  V30 1168 N 109.379 -1.50304 -0.473955 0
M  V30 1169 C 110.619 -1.62786 -1.23612 0
M  V30 1170 C 110.983 -0.319786 -1.89318 0
M  V30 1171 O 112.184 -0.320012 -2.66888 0
M  V30 1172 C 110.455 -2.77351 -2.25414 0
M  V30 1173 S 112.014 -3.09948 -3.10608 0
M  V30 1174 H 108.832 -0.573895 -0.419721 0
M  V30 1175 H 111.434 -1.88076 -0.533623 0
M  V30 1176 H 110.138 -3.70879 -1.75719 0
M  V30 1177 H 109.669 -2.54137 -3.00296 0
M  V30 1178 H 111.684 -2.53553 -4.26527 0
M  V30 1179 N 110.857 0.726932 -1.39834 0
M  V30 1180 C 111.805 1.86235 -1.39353 0
M  V30 1181 C 112.799 1.67144 -0.275555 0
M  V30 1182 O 114.005 1.74387 -0.44601 0
M  V30 1183 H 110.38 0.613174 -0.43534 0
M  V30 1184 H 112.351 1.83756 -2.35109 0
M  V30 1185 C 111.1 3.23995 -1.26185 0
M  V30 1186 H 110.423 3.39285 -2.11484 0
M  V30 1187 H 111.863 4.03609 -1.29907 0
M  V30 1188 C 110.322 3.36888 0.0290018 0
M  V30 1189 O 110.852 3.89152 0.99619 0
M  V30 1190 N 109.058 2.90446 0.0947437 0
M  V30 1191 H 108.605 2.48102 -0.693035 0
M  V30 1192 H 108.563 2.99451 0.957932 0
M  V30 1193 N 112.336 1.25143 0.95797 0
M  V30 1194 C 113.566 1.12261 1.73439 0
M  V30 1195 C 113.974 -0.326715 1.86358 0
M  V30 1196 O 113.317 -1.2367 1.35836 0
M  V30 1197 C 113.379 1.69966 3.16784 0
M  V30 1198 C 113.043 3.18936 3.27305 0
M  V30 1199 C 114.04 4.15968 3.11877 0
M  V30 1200 C 111.725 3.59083 3.51234 0
M  V30 1201 C 113.719 5.51126 3.20217 0
M  V30 1202 C 111.406 4.9438 3.5921 0
M  V30 1203 C 112.404 5.90211 3.43716 0
M  V30 1204 O 112.092 7.23046 3.51368 0
M  V30 1205 H 111.824 0.392476 0.550399 0
M  V30 1206 H 114.378 1.65927 1.21068 0
M  V30 1207 H 112.608 1.10744 3.70503 0
M  V30 1208 H 114.297 1.52232 3.76272 0
M  V30 1209 H 115.063 3.86292 2.93264 0
M  V30 1210 H 110.942 2.84989 3.62356 0
M  V30 1211 H 114.486 6.25905 3.0804 0
M  V30 1212 H 110.383 5.23723 3.77339 0
M  V30 1213 H 111.151 7.31097 3.6802 0
M  V30 1214 N 113.814 -1.1601 1.06675 0
M  V30 1215 C 114.724 -2.24156 0.692179 0
M  V30 1216 C 115.74 -1.71507 -0.293513 0
M  V30 1217 O 116.916 -2.009 -0.141861 0
M  V30 1218 C 113.981 -3.46587 0.0884131 0
M  V30 1219 C 113.042 -4.14257 1.12646 0
M  V30 1220 C 112.275 -5.30844 0.551416 0
M  V30 1221 O 112.498 -5.66858 -0.634656 0
M  V30 1222 O 111.432 -5.87848 1.29298 0
M  V30 1223 H 115.258 -2.58513 1.59388 0
M  V30 1224 H 112.843 -1.23599 0.83926 0
M  V30 1225 H 114.725 -4.20679 -0.246361 0
M  V30 1226 H 113.4 -3.13994 -0.786712 0
M  V30 1227 H 112.307 -3.42118 1.51348 0
M  V30 1228 H 113.64 -4.50914 1.97325 0
M  V30 1229 N 115.292 -0.849877 -1.32721 0
M  V30 1230 C 116.202 -0.293791 -2.32753 0
M  V30 1231 C 117.218 0.585906 -1.63839 0
M  V30 1232 O 118.394 0.487413 -1.95413 0
M  V30 1233 C 115.459 0.512752 -3.42887 0
M  V30 1234 C 114.52 -0.39252 -4.27502 0
M  V30 1235 C 113.753 0.375625 -5.32377 0
M  V30 1236 O 113.976 1.60613 -5.4732 0
M  V30 1237 O 112.91 -0.256094 -6.01355 0
M  V30 1238 H 116.736 -1.12242 -2.82197 0
M  V30 1239 H 114.321 -0.612685 -1.36259 0
M  V30 1240 H 116.203 0.970704 -4.10067 0
M  V30 1241 H 114.878 1.31826 -2.95641 0
M  V30 1242 H 113.785 -0.898547 -3.63149 0
M  V30 1243 H 115.118 -1.16309 -4.7826 0
M  V30 1244 N 116.77 1.45427 -0.607355 0
M  V30 1245 C 117.995 2.07124 -0.107006 0
M  V30 1246 C 118.42 1.44906 1.19933 0
M  V30 1247 O 117.778 0.541687 1.73019 0
M  V30 1248 C 117.826 3.60595 0.0194119 0
M  V30 1249 O 116.93 3.98285 1.0697 0
M  V30 1250 H 116.271 0.659868 -0.0739597 0
M  V30 1251 H 118.801 1.86683 -0.837297 0
M  V30 1252 H 118.811 4.07419 0.2177 0
M  V30 1253 H 117.486 4.05266 -0.934453 0
M  V30 1254 H 116.063 3.63133 0.847889 0
M  V30 1255 N 118.248 0.346503 1.53744 0
M  V30 1256 C 119.664 -0.00530975 1.59599 0
M  V30 1257 C 119.864 -1.48465 1.36236 0
M  V30 1258 O 118.92 -2.24376 1.15808 0
M  V30 1259 C 120.233 0.433516 2.97559 0
M  V30 1260 C 121.781 0.386111 3.10609 0
M  V30 1261 C 122.256 0.800451 4.50951 0
M  V30 1262 N 123.747 0.754753 4.5701 0
M  V30 1263 C 124.482 1.04727 5.63755 0
M  V30 1264 N 123.978 1.4081 6.7834 0
M  V30 1265 N 125.771 0.971316 5.53644 0
M  V30 1266 H 117.922 1.31009 1.67184 0
M  V30 1267 H 120.185 0.534242 0.783128 0
M  V30 1268 H 119.891 1.46509 3.19731 0
M  V30 1269 H 119.765 -0.189753 3.76722 0
M  V30 1270 H 122.152 -0.636295 2.88158 0
M  V30 1271 H 122.233 1.04462 2.33498 0
M  V30 1272 H 121.877 1.82088 4.74137 0
M  V30 1273 H 121.807 0.119386 5.26465 0
M  V30 1274 H 124.298 0.488662 3.74727 0
M  V30 1275 H 124.611 1.61607 7.55714 0
M  V30 1276 H 122.956 1.44657 6.79779 0
M  V30 1277 H 126.147 0.688748 4.63005 0
M  V30 1278 H 126.32 1.20263 6.36742 0
M  V30 1279 N 119.726 -1.57421 0.075193 0
M  V30 1280 C 120.974 -1.93236 -0.591974 0
M  V30 1281 C 121.295 -0.956241 -1.69944 0
M  V30 1282 O 120.565 -0.00494792 -1.95899 0
M  V30 1283 H 119.145 -0.713355 -0.22166 0
M  V30 1284 H 121.807 -1.9444 0.133848 0
M  V30 1285 H 120.903 -2.95131 -1.01509 0
M  V30 1286 N 121.204 0.198386 -1.56346 0
M  V30 1287 C 122.152 1.26538 -1.95169 0
M  V30 1288 C 123.146 1.47295 -0.836685 0
M  V30 1289 O 124.352 1.48195 -1.02167 0
M  V30 1290 H 120.727 0.424744 -0.620561 0
M  V30 1291 H 122.698 0.910904 -2.84157 0
M  V30 1292 C 121.447 2.6035 -2.30463 0
M  V30 1293 H 120.77 2.45192 -3.15786 0
M  V30 1294 H 122.21 3.33762 -2.61494 0
M  V30 1295 C 120.669 3.17096 -1.13806 0
M  V30 1296 O 121.199 3.99588 -0.41135 0
M  V30 1297 N 119.405 2.75795 -0.915736 0
M  V30 1298 H 118.952 2.08816 -1.50843 0
M  V30 1299 H 118.91 3.14101 -0.136979 0
M  V30 1300 N 122.682 1.50554 0.465978 0
M  V30 1301 C 123.912 1.65323 1.23903 0
M  V30 1302 C 124.32 0.338051 1.86155 0
M  V30 1303 O 123.663 -0.690518 1.70228 0
M  V30 1304 C 123.725 2.69048 2.3844 0
M  V30 1305 C 123.389 4.12462 1.96784 0
M  V30 1306 C 124.386 4.98168 1.48745 0
M  V30 1307 C 122.071 4.58407 2.05349 0
M  V30 1308 C 124.065 6.27868 1.0982 0
M  V30 1309 C 121.752 5.88112 1.66035 0
M  V30 1310 C 122.75 6.72668 1.18349 0
M  V30 1311 O 122.438 7.99951 0.795825 0
M  V30 1312 H 122.17 0.558629 0.38067 0
M  V30 1313 H 124.724 1.97561 0.562022 0
M  V30 1314 H 122.954 2.32062 3.09328 0
M  V30 1315 H 124.643 2.72985 3.0039 0
M  V30 1316 H 125.409 4.63885 1.41546 0
M  V30 1317 H 121.288 3.92735 2.41414 0
M  V30 1318 H 124.832 6.93819 0.725293 0
M  V30 1319 H 120.729 6.21914 1.72895 0
M  V30 1320 H 121.497 8.13265 0.924222 0
M  V30 1321 N 124.16 -0.719506 1.40217 0
M  V30 1322 C 125.09 -1.8465 1.42922 0
M  V30 1323 C 126.071 -1.67599 0.29062 0
M  V30 1324 O 127.256 -1.87688 0.498677 0
M  V30 1325 C 124.386 -3.22565 1.28722 0
M  V30 1326 C 123.34 -3.54281 2.40144 0
M  V30 1327 C 122.666 -4.91298 2.11023 0
M  V30 1328 C 123.966 -3.55676 3.82481 0
M  V30 1329 H 125.66 -1.82644 2.37237 0
M  V30 1330 H 123.206 -0.877305 1.1419 0
M  V30 1331 H 125.159 -4.01095 1.29232 0
M  V30 1332 H 123.883 -3.25137 0.308811 0
M  V30 1333 H 122.542 -2.78088 2.38877 0
M  V30 1334 H 122.19 -4.90468 1.11582 0
M  V30 1335 H 121.89 -5.13485 2.8567 0
M  V30 1336 H 123.414 -5.72166 2.13209 0
M  V30 1337 H 124.828 -4.24254 3.85592 0
M  V30 1338 H 123.225 -3.89388 4.56614 0
M  V30 1339 H 124.295 -2.55144 4.12346 0
M  V30 1340 N 125.638 -1.25649 -0.95132 0
M  V30 1341 C 126.884 -1.10757 -1.69884 0
M  V30 1342 C 127.217 0.350061 -1.91019 0
M  V30 1343 O 126.492 1.25783 -1.48354 0
M  V30 1344 C 126.775 -1.86606 -3.07978 0
M  V30 1345 C 126.628 -3.40217 -2.94232 0
M  V30 1346 C 127.947 -1.65182 -4.07925 0
M  V30 1347 H 125.066 -0.40374 -0.616574 0
M  V30 1348 H 127.708 -1.54521 -1.10558 0
M  V30 1349 H 125.858 -1.49409 -3.58621 0
M  V30 1350 H 127.53 -3.87108 -2.50889 0
M  V30 1351 H 125.773 -3.67759 -2.30078 0
M  V30 1352 H 126.444 -3.88505 -3.92133 0
M  V30 1353 H 128.92 -1.9757 -3.66204 0
M  V30 1354 H 127.796 -2.20683 -5.02583 0
M  V30 1355 H 128.057 -0.593933 -4.38092 0
M  V30 1356 N 127.117 1.15442 -1.07289 0
M  V30 1357 C 128.394 1.82306 -0.708792 0
M  V30 1358 C 128.774 1.94991 0.808807 0
M  V30 1359 O 128.122 1.50085 1.72298 0
M  V30 1360 C 128.332 3.18695 -1.42247 0
M  V30 1361 C 129.68 3.94341 -1.57417 0
M  V30 1362 O 130.704 3.28247 -1.38319 0
M  V30 1363 O 129.563 5.12839 -1.88834 0
M  V30 1364 H 126.657 0.787628 -0.252132 0
M  V30 1365 H 129.203 1.22559 -1.17377 0
M  V30 1366 H 127.975 3.04557 -2.45684 0
M  V30 1367 H 127.598 3.86128 -0.948223 0
M  V30 1368 N 128.595 0.856903 1.32268 0
M  V30 1369 C 129.841 0.462069 1.97466 0
M  V30 1370 C 130.174 -0.980298 1.67642 0
M  V30 1371 O 129.449 -1.68824 0.965858 0
M  V30 1372 C 129.732 0.704336 3.53145 0
M  V30 1373 C 129.585 2.19529 3.9259 0
M  V30 1374 C 130.904 0.1622 4.39801 0
M  V30 1375 H 128.023 0.169357 0.717278 0
M  V30 1376 H 130.665 1.07574 1.56614 0
M  V30 1377 H 128.815 0.181999 3.88073 0
M  V30 1378 H 130.487 2.78387 3.67829 0
M  V30 1379 H 128.73 2.67292 3.41668 0
M  V30 1380 H 129.401 2.31549 5.01088 0
M  V30 1381 H 131.877 0.608905 4.11621 0
M  V30 1382 H 130.753 0.361265 5.4771 0
M  V30 1383 H 131.014 -0.935158 4.32096 0
M  V30 1384 N 130.073 -1.45103 0.615059 0
M  V30 1385 C 131.35 -1.95549 0.0448276 0
M  V30 1386 C 131.73 -1.55737 -1.4251 0
M  V30 1387 O 131.078 -0.823556 -2.13143 0
M  V30 1388 C 131.288 -3.48098 0.250785 0
M  V30 1389 C 132.636 -4.24384 0.135509 0
M  V30 1390 O 133.66 -3.55738 0.181299 0
M  V30 1391 O 132.519 -5.46493 0.0268878 0
M  V30 1392 H 129.613 -0.8264 -0.0314845 0
M  V30 1393 H 132.159 -1.55232 0.685642 0
M  V30 1394 H 130.931 -3.7007 1.27139 0
M  V30 1395 H 130.554 -3.95323 -0.424937 0
M  V30 1396 N 131.551 -0.354651 -1.53558 0
M  V30 1397 C 132.799 0.237972 -2.00694 0
M  V30 1398 C 133.12 1.50173 -1.24391 0
M  V30 1399 O 132.39 1.92673 -0.354135 0
M  V30 1400 H 130.97 0.0909256 -0.741446 0
M  V30 1401 H 133.632 -0.478368 -1.88938 0
M  V30 1402 H 132.728 0.47264 -3.085 0
M  V30 1403 N 133.029 1.57378 -0.0835403 0
M  V30 1404 C 133.977 2.14602 0.89714 0
M  V30 1405 C 134.971 1.08589 1.30018 0
M  V30 1406 O 136.177 1.26952 1.27606 0
M  V30 1407 H 132.552 0.686346 0.3073 0
M  V30 1408 H 134.523 2.95845 0.38969 0
M  V30 1409 C 133.272 2.73188 2.15089 0
M  V30 1410 H 132.595 3.54442 1.84962 0
M  V30 1411 H 134.035 3.1681 2.81793 0
M  V30 1412 C 132.494 1.68517 2.91725 0
M  V30 1413 O 133.024 1.11718 3.85852 0
M  V30 1414 N 131.23 1.39277 2.55049 0
M  V30 1415 H 130.777 1.85655 1.78577 0
M  V30 1416 H 130.735 0.694791 3.06627 0
M  V30 1417 N 134.507 -0.190092 1.56449 0
M  V30 1418 C 135.923 -0.54113 1.50146 0
M  V30 1419 C 136.123 -1.85603 0.784465 0
M  V30 1420 O 135.179 -2.5024 0.337051 0
M  V30 1421 C 136.492 -0.591241 2.9483 0
M  V30 1422 C 138.04 -0.679732 3.0553 0
M  V30 1423 C 138.515 -0.760908 4.51635 0
M  V30 1424 N 140.006 -0.824302 4.55806 0
M  V30 1425 C 140.741 -0.907365 5.66175 0
M  V30 1426 N 140.237 -0.952422 6.86222 0
M  V30 1427 N 142.03 -0.94494 5.541 0
M  V30 1428 H 134.181 0.67235 2.01478 0
M  V30 1429 H 136.444 0.240127 0.917084 0
M  V30 1430 H 136.15 0.305905 3.50367 0
M  V30 1431 H 136.024 -1.44422 3.48457 0
M  V30 1432 H 138.411 -1.56731 2.50039 0
M  V30 1433 H 138.492 0.199549 2.5502 0
M  V30 1434 H 138.136 0.122336 5.07753 0
M  V30 1435 H 138.066 -1.65606 4.99882 0
M  V30 1436 H 140.557 -0.798526 3.69367 0
M  V30 1437 H 140.87 -1.01645 7.66086 0
M  V30 1438 H 139.215 -0.921014 6.8887 0
M  V30 1439 H 142.406 -0.906612 4.59236 0
M  V30 1440 H 142.579 -1.00622 6.4014 0
M  V30 1441 N 135.985 -1.50799 -0.457987 0
M  V30 1442 C 136.918 -1.65273 -1.57353 0
M  V30 1443 C 137.896 -0.500578 -1.54703 0
M  V30 1444 O 139.08 -0.721781 -1.74134 0
M  V30 1445 C 136.207 -1.64737 -2.95938 0
M  V30 1446 C 135.253 -2.8567 -3.16693 0
M  V30 1447 S 136.086 -4.46791 -2.95191 0
M  V30 1448 C 137.242 -4.48968 -4.36095 0
M  V30 1449 H 137.475 -2.59633 -1.44838 0
M  V30 1450 H 135.008 -1.40225 -0.64625 0
M  V30 1451 H 136.966 -1.65112 -3.7583 0
M  V30 1452 H 135.627 -0.715899 -3.05833 0
M  V30 1453 H 134.82 -2.81637 -4.17967 0
M  V30 1454 H 134.422 -2.8293 -2.44594 0
M  V30 1455 H 136.714 -4.23337 -5.28954 0
M  V30 1456 H 137.657 -5.50664 -4.45168 0
M  V30 1457 H 138.065 -3.78522 -4.18786 0
M  V30 1458 N 137.463 0.71206 -1.40597 0
M  V30 1459 C 138.393 1.83889 -1.43899 0
M  V30 1460 C 139.374 1.67442 -0.299504 0
M  V30 1461 O 140.559 1.87421 -0.508624 0
M  V30 1462 C 137.689 3.21877 -1.30431 0
M  V30 1463 C 136.643 3.53002 -2.42019 0
M  V30 1464 C 135.969 4.90172 -2.13626 0
M  V30 1465 C 137.269 3.53643 -3.84362 0
M  V30 1466 H 138.963 1.81383 -2.38203 0
M  V30 1467 H 136.509 0.871237 -1.14654 0
M  V30 1468 H 138.462 4.00404 -1.31357 0
M  V30 1469 H 137.186 3.24968 -0.326049 0
M  V30 1470 H 135.845 2.76818 -2.40349 0
M  V30 1471 H 135.493 4.89869 -1.14182 0
M  V30 1472 H 135.193 5.11962 -2.88389 0
M  V30 1473 H 136.717 5.71028 -2.1624 0
M  V30 1474 H 138.131 4.22203 -3.87837 0
M  V30 1475 H 136.528 3.86961 -4.58673 0
M  V30 1476 H 137.598 2.52954 -4.13693 0
M  V30 1477 N 138.941 1.26152 0.944643 0
M  V30 1478 C 140.218 1.02247 1.66748 0
M  V30 1479 C 140.598 -0.448202 2.06287 0
M  V30 1480 O 139.946 -1.42779 1.78399 0
M  V30 1481 C 140.156 1.96788 2.88228 0
M  V30 1482 C 141.504 2.25201 3.59958 0
M  V30 1483 O 142.528 1.94626 2.98327 0
M  V30 1484 O 141.387 2.77242 4.70956 0
M  V30 1485 H 138.481 0.388517 0.730057 0
M  V30 1486 H 141.027 1.37348 0.99668 0
M  V30 1487 H 139.799 2.96047 2.55875 0
M  V30 1488 H 139.422 1.62145 3.63035 0
M  V30 1489 N 140.419 -1.14872 1.07899 0
M  V30 1490 C 141.349 -2.2193 0.725887 0
M  V30 1491 C 142.33 -1.67622 -0.28927 0
M  V30 1492 O 143.515 -1.93533 -0.160787 0
M  V30 1493 C 140.645 -3.47061 0.128856 0
M  V30 1494 C 139.599 -4.14363 1.07178 0
M  V30 1495 C 138.925 -5.33636 0.337229 0
M  V30 1496 C 140.225 -4.63492 2.40775 0
M  V30 1497 H 141.919 -2.51724 1.62097 0
M  V30 1498 H 139.465 -1.20991 0.780838 0
M  V30 1499 H 141.418 -4.21199 -0.130147 0
M  V30 1500 H 140.142 -3.16617 -0.80134 0
M  V30 1501 H 138.801 -3.42173 1.3158 0
M  V30 1502 H 138.449 -4.99449 -0.596606 0
M  V30 1503 H 138.149 -5.79609 0.965788 0
M  V30 1504 H 139.673 -6.10539 0.0861567 0
M  V30 1505 H 141.087 -5.2913 2.20669 0
M  V30 1506 H 139.484 -5.20148 2.99276 0
M  V30 1507 H 140.554 -3.78834 3.02676 0
M  V30 1508 N 141.898 -0.863906 -1.31812 0
M  V30 1509 C 143.128 -0.485406 -2.00817 0
M  V30 1510 C 143.536 0.925007 -1.65046 0
M  V30 1511 O 142.879 1.61653 -0.872574 0
M  V30 1512 C 142.941 -0.555589 -3.55181 0
M  V30 1513 C 142.605 -1.92654 -4.14407 0
M  V30 1514 C 143.602 -2.89324 -4.31958 0
M  V30 1515 C 141.287 -2.2262 -4.50273 0
M  V30 1516 C 143.281 -4.14108 -4.84555 0
M  V30 1517 C 140.968 -3.47654 -5.02573 0
M  V30 1518 C 141.966 -4.43214 -5.19664 0
M  V30 1519 O 141.654 -5.66033 -5.70843 0
M  V30 1520 H 141.386 -0.188224 -0.649267 0
M  V30 1521 H 143.94 -1.16514 -1.69156 0
M  V30 1522 H 142.17 0.181037 -3.86276 0
M  V30 1523 H 143.859 -0.19138 -4.05449 0
M  V30 1524 H 144.625 -2.6748 -4.04573 0
M  V30 1525 H 140.504 -1.4902 -4.3625 0
M  V30 1526 H 144.048 -4.88703 -4.9781 0
M  V30 1527 H 139.945 -3.69345 -5.29391 0
M  V30 1528 H 140.713 -5.6812 -5.89222 0
M  V30 1529 N 143.376 1.44774 -0.622745 0
M  V30 1530 C 144.601 2.06999 -0.128968 0
M  V30 1531 C 145.026 1.4617 1.1839 0
M  V30 1532 O 144.384 0.560007 1.72434 0
M  V30 1533 C 144.432 3.60595 -0.0188351 0
M  V30 1534 O 143.536 3.99398 1.02739 0
M  V30 1535 H 142.877 0.659047 -0.0809544 0
M  V30 1536 H 145.407 1.85784 -0.85705 0
M  V30 1537 H 145.417 4.07627 0.174476 0
M  V30 1538 H 144.092 4.04252 -0.977384 0
M  V30 1539 H 142.669 3.64011 0.809326 0
M  V30 1540 N 144.854 0.36279 1.53368 0
M  V30 1541 C 145.786 -0.519668 2.23231 0
M  V30 1542 C 146.799 -1.04844 1.24546 0
M  V30 1543 O 147.988 -0.955296 1.50786 0
M  V30 1544 C 145.088 -1.72995 2.9142 0
M  V30 1545 C 144.261 -1.33316 4.16588 0
M  V30 1546 C 143.32 -2.40521 4.68013 0
M  V30 1547 O 142.346 -2.03027 5.3176 0
M  V30 1548 N 143.548 -3.72065 4.45587 0
M  V30 1549 H 146.313 0.078751 2.99597 0
M  V30 1550 H 143.874 0.187833 1.60807 0
M  V30 1551 H 145.866 -2.44184 3.22733 0
M  V30 1552 H 144.436 -2.2353 2.18525 0
M  V30 1553 H 143.656 -0.451236 3.91609 0
M  V30 1554 H 144.944 -1.04432 4.97967 0
M  V30 1555 H 144.342 -4.05304 3.94646 0
M  V30 1556 H 142.899 -4.39366 4.81457 0
M  V30 1557 N 146.332 -1.57332 0.0918853 0
M  V30 1558 C 147.581 -1.93412 -0.572249 0
M  V30 1559 C 147.894 -0.975515 -1.69538 0
M  V30 1560 O 149.1 -1.22991 -2.42045 0
M  V30 1561 C 147.556 -3.43648 -1.0693 0
M  V30 1562 C 147.164 -4.47994 0.0239049 0
M  V30 1563 C 148.908 -3.88695 -1.70635 0
M  V30 1564 C 146.815 -5.89381 -0.488319 0
M  V30 1565 H 145.745 -0.721939 -0.217532 0
M  V30 1566 H 148.396 -1.82735 0.167369 0
M  V30 1567 H 146.778 -3.49466 -1.8625 0
M  V30 1568 H 147.952 -4.53815 0.799277 0
M  V30 1569 H 146.267 -4.12536 0.565946 0
M  V30 1570 H 148.864 -4.91725 -2.10025 0
M  V30 1571 H 149.207 -3.27166 -2.57426 0
M  V30 1572 H 149.74 -3.85564 -0.979023 0
M  V30 1573 H 146.479 -6.54602 0.342906 0
M  V30 1574 H 145.999 -5.87037 -1.23077 0
M  V30 1575 H 147.678 -6.39863 -0.958317 0
M  V30 1576 N 147.81 0.181792 -1.56548 0
M  V30 1577 C 149.035 0.920019 -1.85877 0
M  V30 1578 C 149.46 1.75494 -0.677021 0
M  V30 1579 O 148.818 1.77399 0.374056 0
M  V30 1580 C 148.866 1.78112 -3.13542 0
M  V30 1581 O 147.97 2.88152 -2.95029 0
M  V30 1582 H 147.311 0.258334 -0.611686 0
M  V30 1583 H 149.841 0.183092 -2.03779 0
M  V30 1584 H 149.851 2.18314 -3.44678 0
M  V30 1585 H 148.526 1.16777 -3.99169 0
M  V30 1586 H 147.103 2.51609 -2.75222 0
M  V30 1587 N 149.288 1.51039 0.449983 0
M  V30 1588 C 150.513 1.6715 1.22783 0
M  V30 1589 C 150.938 0.363081 1.84563 0
M  V30 1590 O 150.296 -0.675433 1.68249 0
M  V30 1591 C 150.344 2.77985 2.29689 0
M  V30 1592 O 149.448 2.40707 3.34864 0
M  V30 1593 H 148.789 0.557746 0.360299 0
M  V30 1594 H 151.319 1.97535 0.533005 0
M  V30 1595 H 151.329 3.01693 2.74673 0
M  V30 1596 H 150.004 3.72935 1.84098 0
M  V30 1597 H 148.581 2.27523 2.95445 0
M  V30 1598 N 150.766 -0.704594 1.40972 0
M  V30 1599 C 152.012 -1.46675 1.40051 0
M  V30 1600 C 152.345 -1.94199 0.00641102 0
M  V30 1601 O 151.62 -1.68916 -0.964235 0
M  V30 1602 C 151.903 -2.68505 2.39952 0
M  V30 1603 C 151.756 -2.26805 3.88432 0
M  V30 1604 C 153.075 -3.70686 2.37233 0
M  V30 1605 H 150.194 -0.532015 0.510028 0
M  V30 1606 H 152.836 -0.803255 1.72185 0
M  V30 1607 H 150.986 -3.25114 2.1268 0
M  V30 1608 H 152.658 -1.75592 4.26574 0
M  V30 1609 H 150.901 -1.58685 4.03734 0
M  V30 1610 H 151.572 -3.14181 4.53866 0
M  V30 1611 H 154.048 -3.23731 2.61415 0
M  V30 1612 H 152.924 -4.53553 3.09162 0
M  V30 1613 H 153.185 -4.19754 1.38777 0
M  V30 1614 N 152.244 -1.26651 -0.937939 0
M  V30 1615 C 153.655 -1.1125 -1.49934 0
M  V30 1616 C 154.006 0.306077 -1.93798 0
M  V30 1617 O 153.131 1.19792 -1.80219 0
M  V30 1618 C 153.726 -2.01339 -2.72485 0
M  V30 1619 C 152.285 -1.90074 -3.24883 0
M  V30 1620 C 151.432 -1.94498 -1.97651 0
M  V30 1621 H 154.383 -1.39693 -0.753091 0
M  V30 1622 H 154.404 -1.56319 -3.46907 0
M  V30 1623 H 153.916 -3.04577 -2.40529 0
M  V30 1624 H 152.017 -0.897827 -3.61621 0
M  V30 1625 H 152.13 -2.75778 -3.9177 0
M  V30 1626 H 150.494 -1.38591 -2.13693 0
M  V30 1627 H 151.277 -2.99372 -1.68022 0
M  V30 1628 N 153.722 1.14298 -1.08507 0
M  V30 1629 C 154.971 1.84708 -0.810305 0
M  V30 1630 C 155.284 1.83903 0.666271 0
M  V30 1631 O 156.49 2.50112 1.05624 0
M  V30 1632 C 154.946 3.31572 -1.39957 0
M  V30 1633 C 154.554 3.40791 -2.90801 0
M  V30 1634 C 156.298 4.07087 -1.20334 0
M  V30 1635 C 154.205 4.81872 -3.4286 0
M  V30 1636 H 153.135 0.691985 -0.299454 0
M  V30 1637 H 155.786 1.28841 -1.30661 0
M  V30 1638 H 154.168 3.87183 -0.830976 0
M  V30 1639 H 155.342 2.95225 -3.53806 0
M  V30 1640 H 153.657 2.78732 -3.0935 0
M  V30 1641 H 156.254 5.11225 -1.56693 0
M  V30 1642 H 156.597 4.16054 -0.143237 0
M  V30 1643 H 157.13 3.57779 -1.73893 0
M  V30 1644 H 153.869 4.78094 -4.48449 0
M  V30 1645 H 153.389 5.27972 -2.84615 0
M  V30 1646 H 155.068 5.50765 -3.39509 0
M  V30 1647 N 155.201 0.870884 1.31352 0
M  V30 1648 C 156.449 0.48132 1.96285 0
M  V30 1649 C 156.77 -0.969813 1.69173 0
M  V30 1650 O 156.04 -1.67998 1.00764 0
M  V30 1651 H 154.62 0.175002 0.726212 0
M  V30 1652 H 157.282 1.11087 1.60143 0
M  V30 1653 H 156.378 0.639825 3.05471 0
M  V30 1654 N 156.679 -1.44442 0.630414 0
M  V30 1655 C 157.909 -2.06115 0.141465 0
M  V30 1656 C 158.317 -1.47179 -1.1889 0
M  V30 1657 O 157.66 -0.588873 -1.74006 0
M  V30 1658 C 157.722 -3.59467 -0.0484355 0
M  V30 1659 C 157.386 -4.40864 1.20366 0
M  V30 1660 C 158.383 -4.74391 2.12719 0
M  V30 1661 C 156.068 -4.8125 1.43887 0
M  V30 1662 C 158.062 -5.47186 3.26904 0
M  V30 1663 C 155.749 -5.53795 2.5837 0
M  V30 1664 C 156.747 -5.86682 3.49705 0
M  V30 1665 O 156.435 -6.57749 4.62191 0
M  V30 1666 H 156.167 -0.671648 0.0765792 0
M  V30 1667 H 158.721 -1.86312 0.864695 0
M  V30 1668 H 156.951 -3.77758 -0.826803 0
M  V30 1669 H 158.64 -4.02909 -0.491849 0
M  V30 1670 H 159.406 -4.43728 1.95781 0
M  V30 1671 H 155.285 -4.55073 0.736853 0
M  V30 1672 H 158.829 -5.72773 3.98217 0
M  V30 1673 H 154.726 -5.83872 2.75251 0
M  V30 1674 H 155.494 -6.76217 4.61164 0
M  V30 1675 N 158.157 -0.370918 -1.53173 0
M  V30 1676 C 159.382 0.220293 -2.06227 0
M  V30 1677 C 159.807 1.41243 -1.24225 0
M  V30 1678 O 159.165 1.79387 -0.262645 0
M  V30 1679 C 159.213 0.586663 -3.55796 0
M  V30 1680 O 158.317 1.68317 -3.76488 0
M  V30 1681 H 157.658 0.0308099 -0.663285 0
M  V30 1682 H 160.188 -0.533068 -1.97534 0
M  V30 1683 H 160.198 0.85617 -3.98916 0
M  V30 1684 H 158.873 -0.285013 -4.14922 0
M  V30 1685 H 157.45 1.40881 -3.45264 0
M  V30 1686 N 159.635 1.57281 -0.100228 0
M  V30 1687 C 160.585 2.10848 0.86759 0
M  V30 1688 C 161.569 1.02473 1.24049 0
M  V30 1689 O 162.761 1.28739 1.21471 0
M  V30 1690 C 159.89 2.69648 2.12474 0
M  V30 1691 C 158.976 3.85074 1.77704 0
M  V30 1692 N 159.367 4.92897 1.13518 0
M  V30 1693 C 157.665 3.94905 2.07282 0
M  V30 1694 C 158.366 5.73475 0.974735 0
M  V30 1695 N 157.342 5.22675 1.4937 0
M  V30 1696 H 161.144 2.91594 0.367471 0
M  V30 1697 H 158.658 1.62074 0.102829 0
M  V30 1698 H 160.655 3.06356 2.82757 0
M  V30 1699 H 159.315 1.90359 2.63047 0
M  V30 1700 H 160.326 5.11662 0.801381 0
M  V30 1701 H 157.003 3.26633 2.60033 0
M  V30 1702 H 158.393 6.70238 0.472364 0
M  V30 1703 N 161.113 -0.173488 1.56642 0
M  V30 1704 C 162.524 -0.736155 1.71574 0
M  V30 1705 C 162.875 -1.82888 0.710389 0
M  V30 1706 O 162 -2.16017 -0.1287 0
M  V30 1707 C 162.595 -1.34211 3.11083 0
M  V30 1708 C 161.154 -1.85162 3.27707 0
M  V30 1709 C 160.301 -0.729765 2.67525 0
M  V30 1710 H 163.252 0.0518786 1.58615 0
M  V30 1711 H 163.273 -2.21178 3.09613 0
M  V30 1712 H 162.785 -0.546579 3.84232 0
M  V30 1713 H 160.886 -2.67366 2.59512 0
M  V30 1714 H 160.999 -1.99855 4.35425 0
M  V30 1715 H 159.363 -1.14965 2.27278 0
M  V30 1716 H 160.146 0.0538806 3.43258 0
M  V30 1717 N 162.591 -1.51276 -0.441967 0
M  V30 1718 C 163.554 -1.7167 -1.51862 0
M  V30 1719 C 164.554 -0.586793 -1.49711 0
M  V30 1720 O 165.744 -0.854276 -1.51815 0
M  V30 1721 C 162.876 -1.76889 -2.91416 0
M  V30 1722 H 164.069 -2.67754 -1.35084 0
M  V30 1723 H 161.622 -1.41196 -0.670333 0
M  V30 1724 H 162.357 -0.826026 -3.13604 0
M  V30 1725 H 162.142 -2.59001 -2.94382 0
M  V30 1726 H 163.632 -1.94522 -3.69528 0
M  V30 1727 N 164.069 0.697108 -1.41344 0
M  V30 1728 C 164.999 1.82353 -1.45841 0
M  V30 1729 C 165.98 1.67115 -0.317247 0
M  V30 1730 O 167.165 1.86871 -0.528474 0
M  V30 1731 C 164.295 3.20476 -1.33838 0
M  V30 1732 C 163.249 3.50415 -2.4575 0
M  V30 1733 C 162.575 4.87878 -2.18813 0
M  V30 1734 C 163.875 3.49546 -3.88091 0
M  V30 1735 H 165.569 1.78846 -2.40113 0
M  V30 1736 H 163.115 0.859028 -1.15571 0
M  V30 1737 H 165.068 3.98988 -1.35596 0
M  V30 1738 H 163.792 3.24604 -0.360498 0
M  V30 1739 H 162.451 2.74253 -2.43271 0
M  V30 1740 H 162.099 4.8863 -1.19371 0
M  V30 1741 H 161.799 5.08875 -2.93803 0
M  V30 1742 H 163.323 5.68702 -2.22284 0
M  V30 1743 H 164.737 4.18066 -3.92293 0
M  V30 1744 H 163.134 3.82075 -4.62751 0
M  V30 1745 H 164.204 2.48552 -4.16353 0
M  V30 1746 N 165.547 1.27147 0.931209 0
M  V30 1747 C 166.477 1.12081 2.04842 0
M  V30 1748 C 167.458 0.0232364 1.70084 0
M  V30 1749 O 168.643 0.197085 1.93197 0
M  V30 1750 C 165.773 0.76354 3.38803 0
M  V30 1751 C 164.727 1.81396 3.87659 0
M  V30 1752 C 164.053 1.31075 5.18385 0
M  V30 1753 C 165.353 3.21739 4.11438 0
M  V30 1754 H 167.047 2.05537 2.17703 0
M  V30 1755 H 164.593 0.989603 1.04608 0
M  V30 1756 H 166.546 0.644982 4.16435 0
M  V30 1757 H 165.27 -0.206727 3.25945 0
M  V30 1758 H 163.929 1.92136 3.12217 0
M  V30 1759 H 163.577 0.330037 5.01916 0
M  V30 1760 H 163.277 2.013 5.52044 0
M  V30 1761 H 164.801 1.20506 5.98591 0
M  V30 1762 H 166.215 3.14019 4.79651 0
M  V30 1763 H 164.612 3.89644 4.56397 0
M  V30 1764 H 165.682 3.67054 3.16859 0
M  V30 1765 N 167.025 -1.13721 1.09112 0
M  V30 1766 C 167.972 -2.19031 0.727591 0
M  V30 1767 C 168.942 -1.63555 -0.289656 0
M  V30 1768 O 170.127 -1.90023 -0.172026 0
M  V30 1769 C 167.267 -3.4477 0.15082 0
M  V30 1770 C 166.38 -4.14365 1.22172 0
M  V30 1771 C 165.515 -5.27709 0.608042 0
M  V30 1772 C 164.554 -5.89147 1.66047 0
M  V30 1773 N 163.691 -6.93929 1.06806 0
M  V30 1774 H 168.531 -2.49475 1.62991 0
M  V30 1775 H 166.068 -1.22499 0.81439 0
M  V30 1776 H 168.026 -4.16714 -0.201358 0
M  V30 1777 H 166.656 -3.14787 -0.714783 0
M  V30 1778 H 165.708 -3.40737 1.69122 0
M  V30 1779 H 167.02 -4.56114 2.01895 0
M  V30 1780 H 166.174 -6.06355 0.204523 0
M  V30 1781 H 164.913 -4.872 -0.220769 0
M  V30 1782 H 163.918 -5.09198 2.07357 0
M  V30 1783 H 165.143 -6.31729 2.49189 0
M  V30 1784 H 163.089 -6.55483 0.260476 0
M  V30 1785 H 163.006 -7.34202 1.8023 0
M  V30 1786 H 164.274 -7.76434 0.690644 0
M  V30 1787 N 168.503 -0.877838 -1.30888 0
M  V30 1788 C 169.433 -0.35534 -2.3078 0
M  V30 1789 C 170.414 0.557994 -1.60687 0
M  V30 1790 O 171.599 0.473355 -1.88343 0
M  V30 1791 C 168.729 0.437221 -3.44537 0
M  V30 1792 C 167.683 -0.383715 -4.26276 0
M  V30 1793 C 167.009 0.535014 -5.32017 0
M  V30 1794 C 168.309 -1.62201 -4.96476 0
M  V30 1795 H 170.003 -1.19007 -2.74732 0
M  V30 1796 H 167.549 -0.573698 -1.32078 0
M  V30 1797 H 169.502 0.813334 -4.13477 0
M  V30 1798 H 168.226 1.30553 -2.99372 0
M  V30 1799 H 166.885 -0.741874 -3.59015 0
M  V30 1800 H 166.533 1.40083 -4.831 0
M  V30 1801 H 166.233 -0.0104211 -5.87599 0
M  V30 1802 H 167.757 0.907799 -6.03814 0
M  V30 1803 H 169.171 -1.31689 -5.5797 0
M  V30 1804 H 167.568 -2.10711 -5.61891 0
M  V30 1805 H 168.638 -2.37044 -4.23011 0
M  V30 1806 N 169.982 1.44106 -0.638065 0
M  V30 1807 C 171.231 2.01194 -0.142744 0
M  V30 1808 C 171.544 1.50835 1.24532 0
M  V30 1809 O 172.75 2.00096 1.83504 0
M  V30 1810 C 171.206 3.59319 -0.20442 0
M  V30 1811 C 170.814 4.18674 -1.59423 0
M  V30 1812 C 172.558 4.23854 0.234079 0
M  V30 1813 C 170.465 5.69045 -1.61065 0
M  V30 1814 H 169.395 0.752367 -0.0495998 0
M  V30 1815 H 172.046 1.65246 -0.797881 0
M  V30 1816 H 170.428 3.92598 0.517946 0
M  V30 1817 H 171.602 3.96921 -2.34074 0
M  V30 1818 H 169.917 3.66453 -1.97741 0
M  V30 1819 H 172.514 5.34155 0.241443 0
M  V30 1820 H 172.857 3.96688 1.2627 0
M  V30 1821 H 173.39 3.95403 -0.436025 0
M  V30 1822 H 170.129 6.00956 -2.61787 0
M  V30 1823 H 169.649 5.929 -0.90718 0
M  V30 1824 H 171.328 6.32809 -1.34766 0
M  V30 1825 N 171.46 0.379036 1.52974 0
M  V30 1826 C 172.392 -0.495963 2.2377 0
M  V30 1827 C 173.405 -1.03517 1.25651 0
M  V30 1828 O 174.594 -0.939249 1.51791 0
M  V30 1829 C 171.694 -1.69894 2.93239 0
M  V30 1830 C 170.867 -1.2889 4.17979 0
M  V30 1831 C 169.926 -2.35543 4.70538 0
M  V30 1832 O 168.952 -1.97375 5.33883 0
M  V30 1833 N 170.154 -3.67318 4.49508 0
M  V30 1834 H 172.919 0.110523 2.99496 0
M  V30 1835 H 170.48 0.204878 1.60598 0
M  V30 1836 H 172.472 -2.40747 3.25304 0
M  V30 1837 H 171.042 -2.212 2.20883 0
M  V30 1838 H 170.262 -0.409676 3.92065 0
M  V30 1839 H 171.55 -0.991443 4.99047 0
M  V30 1840 H 170.948 -4.01095 3.98923 0
M  V30 1841 H 169.505 -4.34235 4.8609 0
M  V30 1842 N 172.938 -1.57226 0.108567 0
M  V30 1843 C 173.87 -2.11809 -0.875752 0
M  V30 1844 C 174.883 -1.05839 -1.23701 0
M  V30 1845 O 176.072 -1.33245 -1.18778 0
M  V30 1846 C 173.172 -2.59411 -2.18081 0
M  V30 1847 C 172.345 -3.89364 -1.99284 0
M  V30 1848 C 171.404 -4.22672 -3.13424 0
M  V30 1849 O 170.43 -4.91668 -2.86795 0
M  V30 1850 N 171.632 -3.79154 -4.3957 0
M  V30 1851 H 174.397 -2.9689 -0.409477 0
M  V30 1852 H 171.958 -1.61721 -0.076158 0
M  V30 1853 H 173.95 -2.7873 -2.93414 0
M  V30 1854 H 172.52 -1.79268 -2.5609 0
M  V30 1855 H 171.74 -3.79059 -1.08203 0
M  V30 1856 H 173.028 -4.74358 -1.84017 0
M  V30 1857 H 172.426 -3.23486 -4.64083 0
M  V30 1858 H 170.983 -4.03602 -5.11809 0
M  V30 1859 N 174.416 0.165178 -1.56732 0
M  V30 1860 C 175.827 0.727046 -1.71962 0
M  V30 1861 C 176.178 1.82508 -0.720078 0
M  V30 1862 O 175.303 2.16082 0.117242 0
M  V30 1863 C 175.898 1.32559 -3.11791 0
M  V30 1864 C 174.457 1.83422 -3.28684 0
M  V30 1865 C 173.604 0.715567 -2.67908 0
M  V30 1866 H 176.555 -0.0602896 -1.58585 0
M  V30 1867 H 176.576 2.19533 -3.10782 0
M  V30 1868 H 176.088 0.526195 -3.84516 0
M  V30 1869 H 174.189 2.65986 -2.60926 0
M  V30 1870 H 174.302 1.97543 -4.36478 0
M  V30 1871 H 172.666 1.13758 -2.27884 0
M  V30 1872 H 173.449 -0.0720836 -3.43224 0
M  V30 1873 N 175.894 1.51508 0.433938 0
M  V30 1874 C 176.826 1.69266 1.54537 0
M  V30 1875 C 177.839 0.573276 1.52373 0
M  V30 1876 O 179.028 0.847698 1.57087 0
M  V30 1877 C 176.128 1.69524 2.93453 0
M  V30 1878 C 175.301 2.98101 3.20085 0
M  V30 1879 C 174.36 2.90502 4.38742 0
M  V30 1880 O 173.386 3.64442 4.3723 0
M  V30 1881 N 174.588 2.06586 5.42496 0
M  V30 1882 H 177.353 2.65145 1.39708 0
M  V30 1883 H 174.914 1.49437 0.622922 0
M  V30 1884 H 176.906 1.62004 3.70859 0
M  V30 1885 H 175.476 0.812245 3.01863 0
M  V30 1886 H 174.696 3.19464 2.30947 0
M  V30 1887 H 175.984 3.83207 3.34708 0
M  V30 1888 H 175.382 1.45896 5.46563 0
M  V30 1889 H 173.939 2.04943 6.18742 0
M  V30 1890 N 177.372 -0.689602 1.41712 0
M  V30 1891 C 178.32 -1.82475 1.44242 0
M  V30 1892 C 179.314 -1.66354 0.319774 0
M  V30 1893 O 180.52 -1.73143 0.492089 0
M  V30 1894 H 176.895 -0.601416 0.451445 0
M  V30 1895 H 178.866 -1.77458 2.39899 0
M  V30 1896 C 177.615 -3.20535 1.3473 0
M  V30 1897 H 176.938 -3.33559 2.20405 0
M  V30 1898 H 178.378 -4.00023 1.40562 0
M  V30 1899 C 176.837 -3.36846 0.0603281 0
M  V30 1900 O 177.367 -3.91656 -0.892663 0
M  V30 1901 N 175.573 -2.90595 -0.0177039 0
M  V30 1902 H 175.12 -2.46178 0.758572 0
M  V30 1903 H 175.078 -3.01886 -0.878201 0
M  V30 1904 N 178.85 -1.27639 -0.924453 0
M  V30 1905 C 179.813 -1.10681 -2.00705 0
M  V30 1906 C 180.813 -0.0497823 -1.60723 0
M  V30 1907 O 182.003 -0.294654 -1.7169 0
M  V30 1908 C 179.135 -0.687164 -3.33902 0
M  V30 1909 H 180.328 -2.06817 -2.17179 0
M  V30 1910 H 177.881 -1.10473 -1.10569 0
M  V30 1911 H 178.616 0.275439 -3.23128 0
M  V30 1912 H 178.401 -1.45061 -3.6428 0
M  V30 1913 H 179.891 -0.590853 -4.13399 0
M  V30 1914 N 180.328 1.1314 -1.09713 0
M  V30 1915 C 181.553 1.88862 -0.857081 0
M  V30 1916 C 181.978 1.78729 0.586304 0
M  V30 1917 O 181.336 1.13692 1.41222 0
M  V30 1918 C 181.384 3.36325 -1.30069 0
M  V30 1919 O 180.488 4.09815 -0.461007 0
M  V30 1920 H 179.829 0.587108 -0.310162 0
M  V30 1921 H 182.359 1.43129 -1.46203 0
M  V30 1922 H 182.369 3.87157 -1.28738 0
M  V30 1923 H 181.044 3.43017 -2.35185 0
M  V30 1924 H 179.621 3.68986 -0.538888 0
M  V30 1925 N 181.806 0.884767 1.30421 0
M  V30 1926 C 182.739 0.295999 2.26272 0
M  V30 1927 C 183.717 -0.58332 1.51777 0
M  V30 1928 O 184.901 -0.53346 1.80794 0
M  V30 1929 C 182.028 -0.57944 3.33707 0
M  V30 1930 C 181.074 0.230525 4.25877 0
M  V30 1931 S 181.907 1.61867 5.1045 0
M  V30 1932 C 183.063 0.749756 6.21393 0
M  V30 1933 H 183.296 1.10848 2.75862 0
M  V30 1934 H 180.829 0.684178 1.38414 0
M  V30 1935 H 182.787 -1.07879 3.96071 0
M  V30 1936 H 181.448 -1.36601 2.82841 0
M  V30 1937 H 180.641 -0.437542 5.02097 0
M  V30 1938 H 180.243 0.662493 3.68086 0
M  V30 1939 H 182.535 -0.0333547 6.77492 0
M  V30 1940 H 183.478 1.48356 6.92384 0
M  V30 1941 H 183.886 0.310751 5.63644 0
M  V30 1942 N 183.284 -1.43765 0.645699 0
M  V30 1943 C 184.531 -2.01898 0.15604 0
M  V30 1944 C 184.859 -1.50887 -1.22733 0
M  V30 1945 O 184.114 -0.689271 -1.8316 0
M  V30 1946 C 184.413 -3.57238 0.107679 0
M  V30 1947 C 184.079 -4.27564 1.43178 0
M  V30 1948 C 182.741 -4.46492 1.7944 0
M  V30 1949 C 185.093 -4.67454 2.30513 0
M  V30 1950 C 182.421 -5.02573 3.02716 0
M  V30 1951 C 184.773 -5.24901 3.53074 0
M  V30 1952 C 183.437 -5.42046 3.89541 0
M  V30 1953 H 182.707 -0.738797 0.057099 0
M  V30 1954 H 185.354 -1.72341 0.834912 0
M  V30 1955 H 183.659 -3.86293 -0.654618 0
M  V30 1956 H 185.356 -3.99965 -0.287938 0
M  V30 1957 H 181.946 -4.13171 1.13963 0
M  V30 1958 H 186.13 -4.5253 2.0379 0
M  V30 1959 H 181.386 -5.14033 3.31028 0
M  V30 1960 H 185.56 -5.54758 4.20971 0
M  V30 1961 H 183.187 -5.85268 4.85145 0
M  V30 1962 N 184.763 -0.387143 -1.52771 0
M  V30 1963 C 186.009 0.196025 -2.0185 0
M  V30 1964 C 186.342 1.46641 -1.27319 0
M  V30 1965 O 185.617 1.90889 -0.373032 0
M  V30 1966 C 185.9 0.466136 -3.5707 0
M  V30 1967 C 185.753 -0.819385 -4.42274 0
M  V30 1968 C 187.072 1.25768 -4.21747 0
M  V30 1969 H 184.191 0.0697708 -0.73369 0
M  V30 1970 H 186.833 -0.516286 -1.82851 0
M  V30 1971 H 184.983 1.07293 -3.7339 0
M  V30 1972 H 186.655 -1.4563 -4.37709 0
M  V30 1973 H 184.898 -1.43517 -4.09372 0
M  V30 1974 H 185.569 -0.585065 -5.48891 0
M  V30 1975 H 188.045 0.744167 -4.09391 0
M  V30 1976 H 186.921 1.41541 -5.30337 0
M  V30 1977 H 187.182 2.27228 -3.79236 0
M  V30 1978 N 186.241 1.57166 -0.116904 0
M  V30 1979 C 187.189 2.16457 0.851418 0
M  V30 1980 C 188.183 1.11323 1.27686 0
M  V30 1981 O 189.389 1.2963 1.24884 0
M  V30 1982 H 185.764 0.69271 0.292672 0
M  V30 1983 H 187.735 2.96605 0.32685 0
M  V30 1984 C 186.484 2.77689 2.09246 0
M  V30 1985 H 185.807 3.58285 1.77402 0
M  V30 1986 H 187.247 3.22716 2.7501 0
M  V30 1987 C 185.706 1.74667 2.88085 0
M  V30 1988 O 186.236 1.19877 3.83396 0
M  V30 1989 N 184.442 1.44656 2.52038 0
M  V30 1990 H 183.989 1.89402 1.74599 0
M  V30 1991 H 183.947 0.759675 3.05084 0
M  V30 1992 N 187.719 -0.156864 1.56817 0
M  V30 1993 C 189.135 -0.50916 1.5126 0
M  V30 1994 C 189.335 -1.83897 0.823658 0
M  V30 1995 O 188.391 -2.49469 0.390055 0
M  V30 1996 C 189.704 -0.52857 2.96018 0
M  V30 1997 C 191.252 -0.614771 3.06903 0
M  V30 1998 C 191.727 -0.664938 4.53147 0
M  V30 1999 N 193.218 -0.727433 4.57452 0
M  V30 2000 C 193.953 -0.787067 5.67973 0
M  V30 2001 N 193.449 -0.806649 6.88088 0
M  V30 2002 N 195.242 -0.827195 5.5598 0
M  V30 2003 H 187.393 0.714935 2.00006 0
M  V30 2004 H 189.656 0.259526 0.911784 0
M  V30 2005 H 189.362 0.380154 3.49639 0
M  V30 2006 H 189.236 -1.36998 3.51442 0
M  V30 2007 H 191.623 -1.51392 2.53307 0
M  V30 2008 H 191.704 0.253597 2.5454 0
M  V30 2009 H 191.348 0.230011 5.07379 0
M  V30 2010 H 191.278 -1.54966 5.03282 0
M  V30 2011 H 193.769 -0.719998 3.70978 0
M  V30 2012 H 194.082 -0.853727 7.6807 0
M  V30 2013 H 192.427 -0.774687 6.90669 0
M  V30 2014 H 195.618 -0.808998 4.61056 0
M  V30 2015 H 195.791 -0.870206 6.4213 0
M  V30 2016 N 189.197 -1.51736 -0.425897 0
M  V30 2017 C 190.608 -1.5732 -1.00536 0
M  V30 2018 C 190.959 -0.403537 -1.92005 0
M  V30 2019 O 190.084 0.478256 -2.11049 0
M  V30 2020 C 190.679 -2.85119 -1.8301 0
M  V30 2021 C 189.238 -2.93236 -2.35987 0
M  V30 2022 C 188.385 -2.52098 -1.15508 0
M  V30 2023 H 191.336 -1.57348 -0.206739 0
M  V30 2024 H 191.357 -2.69526 -2.68581 0
M  V30 2025 H 190.869 -3.7023 -1.16411 0
M  V30 2026 H 188.97 -2.12581 -3.06007 0
M  V30 2027 H 189.083 -3.9713 -2.68001 0
M  V30 2028 H 187.447 -2.05558 -1.50393 0
M  V30 2029 H 188.23 -3.39565 -0.505014 0
M  V30 2030 N 190.675 0.682077 -1.42076 0
M  V30 2031 C 191.638 1.77756 -1.44691 0
M  V30 2032 C 192.638 1.5726 -0.335535 0
M  V30 2033 O 193.828 1.63686 -0.596037 0
M  V30 2034 C 190.96 3.16301 -1.27146 0
M  V30 2035 H 192.153 1.76826 -2.42224 0
M  V30 2036 H 189.706 0.891012 -1.28416 0
M  V30 2037 H 190.441 3.22862 -0.305075 0
M  V30 2038 H 190.226 3.32581 -2.07683 0
M  V30 2039 H 191.716 3.96241 -1.31843 0
M  V30 2040 N 192.153 1.28127 0.917671 0
M  V30 2041 C 193.083 1.14248 2.03641 0
M  V30 2042 C 194.064 0.0412748 1.7005 0
M  V30 2043 O 195.249 0.217566 1.92977 0
M  V30 2044 C 192.379 0.799431 3.37974 0
M  V30 2045 C 191.333 1.85497 3.85713 0
M  V30 2046 C 190.659 1.36565 5.16966 0
M  V30 2047 C 191.959 3.26085 4.08002 0
M  V30 2048 H 193.653 2.07835 2.15511 0
M  V30 2049 H 191.199 1.00064 1.03553 0
M  V30 2050 H 193.152 0.689114 4.15727 0
M  V30 2051 H 191.876 -0.172145 3.26146 0
M  V30 2052 H 190.535 1.95437 3.10161 0
M  V30 2053 H 190.183 0.383253 5.01538 0
M  V30 2054 H 189.883 2.07143 5.49878 0
M  V30 2055 H 191.407 1.26848 5.97279 0
M  V30 2056 H 192.821 3.19089 4.76293 0
M  V30 2057 H 191.218 3.94462 4.52238 0
M  V30 2058 H 192.288 3.70394 3.12948 0
M  V30 2059 N 193.631 -1.12557 1.10312 0
M  V30 2060 C 194.879 -1.83675 0.843091 0
M  V30 2061 C 195.2 -1.84435 -0.633131 0
M  V30 2062 O 194.47 -1.30657 -1.45964 0
M  V30 2063 H 193.05 -0.680138 0.308904 0
M  V30 2064 H 195.712 -1.36301 1.39313 0
M  V30 2065 H 194.808 -2.87908 1.2048 0
M  V30 2066 N 195.109 -0.891671 -1.2995 0
M  V30 2067 C 196.358 -0.509521 -1.95158 0
M  V30 2068 C 196.671 0.947388 -1.71125 0
M  V30 2069 O 197.877 1.43669 -2.30372 0
M  V30 2070 C 196.333 -0.860315 -3.49466 0
M  V30 2071 C 195.941 -2.33545 -3.8231 0
M  V30 2072 C 197.685 -0.547687 -4.20952 0
M  V30 2073 C 195.592 -2.62752 -5.29826 0
M  V30 2074 H 194.522 -0.18682 -0.730489 0
M  V30 2075 H 197.173 -1.08756 -1.47798 0
M  V30 2076 H 195.555 -0.211285 -3.95436 0
M  V30 2077 H 196.729 -3.02936 -3.47227 0
M  V30 2078 H 195.044 -2.61629 -3.23944 0
M  V30 2079 H 197.641 -0.742854 -5.29515 0
M  V30 2080 H 197.984 0.51332 -4.13123 0
M  V30 2081 H 198.517 -1.1542 -3.80688 0
M  V30 2082 H 195.256 -3.6762 -5.42712 0
M  V30 2083 H 194.776 -1.97977 -5.66185 0
M  V30 2084 H 196.455 -2.48601 -5.97333 0
M  V30 2085 N 196.587 1.43421 -0.653314 0
M  V30 2086 C 197.517 2.33487 0.0246656 0
M  V30 2087 C 198.498 1.49475 0.811863 0
M  V30 2088 O 199.683 1.78139 0.773322 0
M  V30 2089 C 196.813 3.32841 0.99166 0
M  V30 2090 C 195.767 4.26842 0.314568 0
M  V30 2091 C 195.093 5.16236 1.39302 0
M  V30 2092 C 196.393 5.16243 -0.793095 0
M  V30 2093 H 198.087 2.90427 -0.727481 0
M  V30 2094 H 195.633 1.39649 -0.351287 0
M  V30 2095 H 197.586 3.94747 1.47487 0
M  V30 2096 H 196.31 2.74158 1.77497 0
M  V30 2097 H 194.969 3.663 -0.148199 0
M  V30 2098 H 194.617 4.53891 2.16776 0
M  V30 2099 H 194.317 5.79948 0.945223 0
M  V30 2100 H 195.841 5.81015 1.87759 0
M  V30 2101 H 197.255 5.71958 -0.392039 0
M  V30 2102 H 195.652 5.88676 -1.16536 0
M  V30 2103 H 196.722 4.55927 -1.65103 0
M  V30 2104 N 198.065 0.39524 1.52563 0
M  V30 2105 C 199.476 -0.0774719 1.86539 0
M  V30 2106 C 199.827 -1.45641 1.31466 0
M  V30 2107 O 198.952 -2.06459 0.648367 0
M  V30 2108 C 199.547 -0.147356 3.38479 0
M  V30 2109 C 198.106 -0.564373 3.72145 0
M  V30 2110 C 197.253 0.269919 2.75983 0
M  V30 2111 H 200.204 0.612876 1.46388 0
M  V30 2112 H 200.225 -0.965343 3.68051 0
M  V30 2113 H 199.737 0.856387 3.78534 0
M  V30 2114 H 197.838 -1.57527 3.37663 0
M  V30 2115 H 197.951 -0.318402 4.78041 0
M  V30 2116 H 196.315 -0.265696 2.5331 0
M  V30 2117 H 197.098 1.27175 3.18875 0
M  V30 2118 N 199.544 -1.57102 0.125237 0
M  V30 2119 C 200.955 -1.82384 -0.399142 0
M  V30 2120 C 201.306 -1.04276 -1.66195 0
M  V30 2121 O 200.431 -0.281269 -2.14564 0
M  V30 2122 C 201.026 -3.30821 -0.730932 0
M  V30 2123 C 199.585 -3.56762 -1.19992 0
M  V30 2124 C 198.732 -2.7649 -0.211792 0
M  V30 2125 H 201.683 -1.54786 0.350277 0
M  V30 2126 H 201.704 -3.4579 -1.58775 0
M  V30 2127 H 201.216 -3.87643 0.188345 0
M  V30 2128 H 199.317 -3.05305 -2.13588 0
M  V30 2129 H 199.43 -4.65317 -1.14093 0
M  V30 2130 H 197.794 -2.4489 -0.700085 0
M  V30 2131 H 198.577 -3.36073 0.700691 0
M  V30 2132 N 201.022 0.148545 -1.56898 0
M  V30 2133 C 201.932 1.20293 -2.01412 0
M  V30 2134 C 202.948 1.47107 -0.929273 0
M  V30 2135 O 204.124 1.58807 -1.23863 0
M  V30 2136 C 201.189 2.51682 -2.38447 0
M  V30 2137 C 200.25 2.32529 -3.60872 0
M  V30 2138 C 199.483 3.57653 -3.96132 0
M  V30 2139 O 199.706 4.63771 -3.32073 0
M  V30 2140 O 198.64 3.50408 -4.89385 0
M  V30 2141 H 202.466 0.855025 -2.91416 0
M  V30 2142 H 200.051 0.357151 -1.45068 0
M  V30 2143 H 201.933 3.29147 -2.63135 0
M  V30 2144 H 200.608 2.86006 -1.51599 0
M  V30 2145 H 199.515 1.53019 -3.41373 0
M  V30 2146 H 200.848 2.03121 -4.48333 0
M  V30 2147 N 202.5 1.5196 0.417844 0
M  V30 2148 C 203.448 1.75278 1.52907 0
M  V30 2149 C 204.442 0.619611 1.57662 0
M  V30 2150 O 205.648 0.801457 1.61173 0
M  V30 2151 H 202.023 0.554141 0.508362 0
M  V30 2152 H 203.994 2.68389 1.30422 0
M  V30 2153 C 202.743 1.91262 2.90369 0
M  V30 2154 H 202.066 2.77872 2.8745 0
M  V30 2155 H 203.506 2.11581 3.67436 0
M  V30 2156 C 201.965 0.677431 3.30019 0
M  V30 2157 O 202.495 -0.158799 4.01386 0
M  V30 2158 N 200.701 0.515851 2.85985 0
M  V30 2159 H 200.248 1.19744 2.28077 0
M  V30 2160 H 200.206 -0.309315 3.12875 0
M  V30 2161 N 203.978 -0.674533 1.42435 0
M  V30 2162 C 205.225 -1.43459 1.42919 0
M  V30 2163 C 205.553 -1.94446 0.0457312 0
M  V30 2164 O 204.808 -1.7132 -0.94593 0
M  V30 2165 C 205.107 -2.64767 2.40069 0
M  V30 2166 C 204.773 -2.3232 3.86443 0
M  V30 2167 C 203.435 -2.23182 4.26314 0
M  V30 2168 C 205.787 -2.05977 4.78773 0
M  V30 2169 C 203.115 -1.85827 5.56494 0
M  V30 2170 C 205.467 -1.70125 6.09295 0
M  V30 2171 C 204.131 -1.59498 6.48164 0
M  V30 2172 H 203.401 -0.524952 0.522978 0
M  V30 2173 H 206.048 -0.769097 1.75377 0
M  V30 2174 H 204.353 -3.36349 2.00939 0
M  V30 2175 H 206.05 -3.22949 2.37707 0
M  V30 2176 H 202.64 -2.40334 3.54877 0
M  V30 2177 H 206.824 -2.11969 4.48757 0
M  V30 2178 H 202.08 -1.76168 5.8547 0
M  V30 2179 H 206.254 -1.48767 6.80324 0
M  V30 2180 H 203.881 -1.30322 7.48946 0
M  V30 2181 N 205.456 -1.28612 -0.910864 0
M  V30 2182 C 206.702 -1.16106 -1.66274 0
M  V30 2183 C 207.035 0.289113 -1.92036 0
M  V30 2184 O 206.31 1.21 -1.52281 0
M  V30 2185 C 206.593 -1.96309 -3.01885 0
M  V30 2186 C 206.446 -3.49405 -2.8326 0
M  V30 2187 C 207.765 -1.78076 -4.02463 0
M  V30 2188 H 204.884 -0.423152 -0.603417 0
M  V30 2189 H 207.526 -1.57961 -1.05586 0
M  V30 2190 H 205.676 -1.60742 -3.53687 0
M  V30 2191 H 207.348 -3.94894 -2.38446 0
M  V30 2192 H 205.591 -3.74893 -2.18261 0
M  V30 2193 H 206.262 -4.00784 -3.79574 0
M  V30 2194 H 208.738 -2.0912 -3.59733 0
M  V30 2195 H 207.614 -2.36561 -4.95308 0
M  V30 2196 H 207.875 -0.733008 -4.35981 0
M  V30 2197 N 206.934 1.1197 -1.10907 0
M  V30 2198 C 207.844 2.21433 -0.774896 0
M  V30 2199 C 208.86 1.72478 0.229657 0
M  V30 2200 O 210.036 2.01288 0.0672008 0
M  V30 2201 C 207.101 3.4602 -0.216986 0
M  V30 2202 C 206.162 4.09791 -1.27944 0
M  V30 2203 C 205.395 5.28431 -0.748055 0
M  V30 2204 O 205.618 5.68823 0.423833 0
M  V30 2205 O 204.552 5.82644 -1.51027 0
M  V30 2206 H 208.378 2.5242 -1.68873 0
M  V30 2207 H 205.963 1.20399 -0.884555 0
M  V30 2208 H 207.845 4.21304 0.090059 0
M  V30 2209 H 206.52 3.16698 0.669633 0
M  V30 2210 H 205.427 3.36265 -1.63941 0
M  V30 2211 H 206.76 4.4328 -2.13925 0
M  V30 2212 N 208.412 0.89855 1.29475 0
M  V30 2213 C 209.359 0.373819 2.27753 0
M  V30 2214 C 210.329 -0.543444 1.56958 0
M  V30 2215 O 211.514 -0.468934 1.84948 0
M  V30 2216 C 208.654 -0.393648 3.42848 0
M  V30 2217 C 207.767 0.554379 4.28428 0
M  V30 2218 C 206.902 -0.230026 5.30702 0
M  V30 2219 C 205.941 0.712599 6.07938 0
M  V30 2220 N 205.078 -0.0373283 7.0209 0
M  V30 2221 H 209.918 1.21699 2.72017 0
M  V30 2222 H 207.455 0.611456 1.33789 0
M  V30 2223 H 209.413 -0.85466 4.08352 0
M  V30 2224 H 208.043 -1.20128 2.99615 0
M  V30 2225 H 207.095 1.13391 3.63107 0
M  V30 2226 H 208.407 1.27597 4.82204 0
M  V30 2227 H 207.561 -0.752288 6.02018 0
M  V30 2228 H 206.3 -0.984758 4.77654 0
M  V30 2229 H 205.305 1.24637 5.35486 0
M  V30 2230 H 206.53 1.46664 6.63074 0
M  V30 2231 H 204.476 -0.774348 6.51414 0
M  V30 2232 H 204.393 0.624374 7.53417 0
M  V30 2233 H 205.661 -0.539891 7.77628 0
M  V30 2234 N 209.89 -1.43072 0.660911 0
M  V30 2235 C 210.82 -2.33497 -0.0122829 0
M  V30 2236 C 211.801 -1.49903 -0.803925 0
M  V30 2237 O 212.986 -1.78546 -0.763864 0
M  V30 2238 C 210.116 -3.33363 -0.973994 0
M  V30 2239 C 209.07 -4.27003 -0.291928 0
M  V30 2240 C 208.396 -5.16967 -1.36562 0
M  V30 2241 C 209.696 -5.15816 0.820462 0
M  V30 2242 H 211.39 -2.90038 0.742873 0
M  V30 2243 H 208.936 -1.39461 0.358688 0
M  V30 2244 H 210.889 -3.95524 -1.45392 0
M  V30 2245 H 209.613 -2.75095 -1.7604 0
M  V30 2246 H 208.272 -3.66217 0.167623 0
M  V30 2247 H 207.92 -4.55034 -2.14366 0
M  V30 2248 H 207.62 -5.80441 -0.914454 0
M  V30 2249 H 209.144 -5.82003 -1.84675 0
M  V30 2250 H 210.558 -5.71742 0.422366 0
M  V30 2251 H 208.955 -5.8805 1.19656 0
M  V30 2252 H 210.025 -4.55045 1.67518 0
M  V30 2253 N 211.368 -0.403325 -1.52352 0
M  V30 2254 C 212.784 -0.0539281 -1.59509 0
M  V30 2255 C 212.984 1.43307 -1.41652 0
M  V30 2256 O 212.04 2.19924 -1.24056 0
M  V30 2257 C 213.353 -0.543654 -2.95745 0
M  V30 2258 C 214.901 -0.501125 -3.08962 0
M  V30 2259 C 215.376 -0.967267 -4.47669 0
M  V30 2260 N 216.867 -0.923849 -4.53893 0
M  V30 2261 C 217.602 -1.25578 -5.5948 0
M  V30 2262 N 217.098 -1.65889 -6.72646 0
M  V30 2263 N 218.891 -1.17613 -5.49658 0
M  V30 2264 H 211.042 -1.37123 -1.62206 0
M  V30 2265 H 213.305 -0.56294 -0.76276 0
M  V30 2266 H 213.011 -1.58275 -3.14073 0
M  V30 2267 H 212.885 0.0498042 -3.77167 0
M  V30 2268 H 215.272 0.528909 -2.90321 0
M  V30 2269 H 215.353 -1.13056 -2.2946 0
M  V30 2270 H 214.997 -1.9956 -4.67053 0
M  V30 2271 H 214.927 -0.314698 -5.25659 0
M  V30 2272 H 217.418 -0.627403 -3.72655 0
M  V30 2273 H 217.731 -1.89543 -7.49195 0
M  V30 2274 H 216.076 -1.69787 -6.73942 0
M  V30 2275 H 219.267 -0.860115 -4.6013 0
M  V30 2276 H 219.44 -1.43812 -6.3184 0
M  V30 2277 N 212.846 1.57033 -0.133567 0
M  V30 2278 C 213.778 2.13176 0.841944 0
M  V30 2279 C 214.791 1.07794 1.22001 0
M  V30 2280 O 215.98 1.35117 1.16643 0
M  V30 2281 C 213.08 2.62847 2.13926 0
M  V30 2282 C 212.253 3.92486 1.93064 0
M  V30 2283 C 211.312 4.27605 3.0666 0
M  V30 2284 O 210.338 4.96168 2.78937 0
M  V30 2285 N 211.54 3.861 4.33483 0
M  V30 2286 H 214.305 2.97503 0.362192 0
M  V30 2287 H 211.866 1.61821 0.05042 0
M  V30 2288 H 213.858 2.83363 2.88942 0
M  V30 2289 H 212.428 1.83319 2.53205 0
M  V30 2290 H 211.648 3.80732 1.02159 0
M  V30 2291 H 212.936 4.77225 1.76447 0
M  V30 2292 H 212.334 3.30828 4.58878 0
M  V30 2293 H 210.891 4.11694 5.05323 0
M  V30 2294 N 214.325 -0.140222 1.56975 0
M  V30 2295 C 215.55 -0.870414 1.88251 0
M  V30 2296 C 215.975 -1.73637 0.723312 0
M  V30 2297 O 215.333 -1.78329 -0.32689 0
M  V30 2298 C 215.381 -1.69737 3.18154 0
M  V30 2299 O 214.485 -2.80229 3.02565 0
M  V30 2300 H 213.826 -0.242025 0.61832 0
M  V30 2301 H 216.356 -0.128999 2.04193 0
M  V30 2302 H 216.366 -2.09099 3.50345 0
M  V30 2303 H 215.041 -1.06152 4.02125 0
M  V30 2304 H 213.618 -2.44224 2.81796 0
M  V30 2305 N 215.803 -1.52179 -0.40978 0
M  V30 2306 C 216.733 -1.78435 -1.5061 0
M  V30 2307 C 217.714 -0.635295 -1.57791 0
M  V30 2308 O 218.899 -0.880823 -1.73076 0
M  V30 2309 C 216.029 -1.93444 -2.88439 0
M  V30 2310 C 214.983 -3.09038 -2.96108 0
M  V30 2311 C 214.309 -3.09268 -4.36185 0
M  V30 2312 C 215.609 -4.48508 -2.67652 0
M  V30 2313 H 217.303 -2.70237 -1.28889 0
M  V30 2314 H 214.849 -1.30036 -0.618605 0
M  V30 2315 H 216.802 -2.10394 -3.65119 0
M  V30 2316 H 215.526 -0.983129 -3.11452 0
M  V30 2317 H 214.185 -2.91837 -2.21872 0
M  V30 2318 H 213.833 -2.11861 -4.56206 0
M  V30 2319 H 213.533 -3.86907 -4.42241 0
M  V30 2320 H 215.057 -3.28348 -5.14801 0
M  V30 2321 H 216.471 -4.65918 -3.34056 0
M  V30 2322 H 214.868 -5.28059 -2.85085 0
M  V30 2323 H 215.938 -4.56649 -1.63095 0
M  V30 2324 N 217.281 0.66697 -1.42791 0
M  V30 2325 C 218.211 1.79218 -1.49677 0
M  V30 2326 C 219.192 1.66405 -0.352623 0
M  V30 2327 O 220.377 1.85708 -0.567993 0
M  V30 2328 C 217.507 3.17565 -1.40605 0
M  V30 2329 C 216.461 3.45124 -2.53127 0
M  V30 2330 C 215.787 4.83127 -2.29112 0
M  V30 2331 C 217.087 3.41236 -3.95418 0
M  V30 2332 H 218.781 1.73713 -2.43853 0
M  V30 2333 H 216.327 0.83432 -1.17367 0
M  V30 2334 H 218.28 3.96022 -1.44029 0
M  V30 2335 H 217.004 3.23767 -0.429271 0
M  V30 2336 H 215.663 2.69031 -2.49034 0
M  V30 2337 H 215.311 4.85988 -1.29709 0
M  V30 2338 H 215.011 5.02528 -3.04531 0
M  V30 2339 H 216.535 5.63859 -2.34297 0
M  V30 2340 H 217.949 4.09651 -4.01073 0
M  V30 2341 H 216.346 3.72173 -4.70752 0
M  V30 2342 H 217.416 2.39665 -4.21532 0
M  V30 2343 N 218.759 1.29093 0.90403 0
M  V30 2344 C 219.984 1.19809 1.69294 0
M  V30 2345 C 220.409 -0.238481 1.86582 0
M  V30 2346 O 219.767 -1.1723 1.383 0
M  V30 2347 C 219.815 1.91202 3.05736 0
M  V30 2348 O 218.919 1.22611 3.93752 0
M  V30 2349 H 218.26 0.415385 0.518027 0
M  V30 2350 H 220.79 1.70586 1.12967 0
M  V30 2351 H 220.8 1.99487 3.55906 0
M  V30 2352 H 219.475 2.95692 2.92471 0
M  V30 2353 H 218.052 1.22554 3.52186 0
M  V30 2354 N 220.237 -1.11381 1.11499 0
M  V30 2355 C 221.483 -1.83403 0.865512 0
M  V30 2356 C 221.816 -1.84459 -0.607329 0
M  V30 2357 O 221.091 -1.29811 -1.44842 0
M  V30 2358 C 221.374 -3.30552 1.42855 0
M  V30 2359 C 221.227 -3.37886 2.96906 0
M  V30 2360 C 222.546 -4.26643 1.08 0
M  V30 2361 H 219.665 -0.665879 0.31587 0
M  V30 2362 H 222.307 -1.30601 1.37998 0
M  V30 2363 H 220.457 -3.75648 0.990985 0
M  V30 2364 H 222.129 -3.01343 3.49271 0
M  V30 2365 H 220.372 -2.78088 3.32941 0
M  V30 2366 H 221.043 -4.41458 3.31389 0
M  V30 2367 H 223.519 -3.89729 1.45775 0
M  V30 2368 H 222.395 -5.27986 1.50072 0
M  V30 2369 H 222.656 -4.42099 -0.00915037 0
M  V30 2370 N 221.715 -0.905404 -1.28997 0
M  V30 2371 C 222.678 -0.392253 -2.25819 0
M  V30 2372 C 223.678 0.476753 -1.5357 0
M  V30 2373 O 224.868 0.280994 -1.71919 0
M  V30 2374 C 222 0.438588 -3.38067 0
M  V30 2375 H 223.193 -1.24743 -2.72725 0
M  V30 2376 H 220.746 -0.684051 -1.40536 0
M  V30 2377 H 221.481 1.31352 -2.96508 0
M  V30 2378 H 221.266 -0.184167 -3.91667 0
M  V30 2379 H 222.756 0.78873 -4.10084 0
M  V30 2380 N 223.193 1.4272 -0.668489 0
M  V30 2381 C 224.604 1.84793 -0.266151 0
M  V30 2382 C 224.955 1.55959 1.19043 0
M  V30 2383 O 224.08 1.01622 1.91055 0
M  V30 2384 C 224.675 3.35436 -0.476271 0
M  V30 2385 C 223.234 3.76182 -0.128113 0
M  V30 2386 C 222.381 2.66344 -0.771777 0
M  V30 2387 H 225.332 1.32656 -0.871098 0
M  V30 2388 H 225.353 3.79515 0.273561 0
M  V30 2389 H 224.865 3.5639 -1.53647 0
M  V30 2390 H 222.966 3.60836 0.928891 0
M  V30 2391 H 223.079 4.75766 -0.564231 0
M  V30 2392 H 221.443 2.53885 -0.203652 0
M  V30 2393 H 222.226 2.90123 -1.83531 0
M  V30 2394 N 224.671 0.411399 1.52136 0
M  V30 2395 C 225.618 -0.412975 2.27075 0
M  V30 2396 C 226.588 -1.03912 1.29582 0
M  V30 2397 O 227.773 -1.06296 1.58448 0
M  V30 2398 C 224.913 -1.52247 3.09701 0
M  V30 2399 C 224.026 -0.917021 4.22155 0
M  V30 2400 C 223.161 -1.9994 4.92135 0
M  V30 2401 C 222.2 -1.37101 5.96548 0
M  V30 2402 N 221.337 -2.39364 6.60038 0
M  V30 2403 H 226.177 0.232499 2.97092 0
M  V30 2404 H 223.714 0.126496 1.46555 0
M  V30 2405 H 225.672 -2.17674 3.55913 0
M  V30 2406 H 224.302 -2.13794 2.41851 0
M  V30 2407 H 223.354 -0.151742 3.80097 0
M  V30 2408 H 224.666 -0.418006 4.97045 0
M  V30 2409 H 223.82 -2.73088 5.41763 0
M  V30 2410 H 222.559 -2.53208 4.16818 0
M  V30 2411 H 221.564 -0.624873 5.46237 0
M  V30 2412 H 222.789 -0.845998 6.7381 0
M  V30 2413 H 220.735 -2.91759 5.87548 0
M  V30 2414 H 220.652 -1.9428 7.3061 0
M  V30 2415 H 221.92 -3.12074 7.14304 0
M  V30 2416 N 226.149 -1.5696 0.141893 0
M  V30 2417 C 227.397 -1.95573 -0.509484 0
M  V30 2418 C 227.718 -1.02746 -1.65736 0
M  V30 2419 O 226.988 -0.0880311 -1.95702 0
M  V30 2420 H 225.568 -0.722115 -0.191205 0
M  V30 2421 H 228.23 -1.93697 0.216196 0
M  V30 2422 H 227.326 -2.99171 -0.889 0
M  V30 2423 N 227.627 0.131896 -1.57047 0
M  V30 2424 C 228.56 1.19236 -1.94571 0
M  V30 2425 C 229.538 1.40782 -0.813576 0
M  V30 2426 O 230.722 1.55148 -1.07058 0
M  V30 2427 C 227.849 2.54858 -2.23081 0
M  V30 2428 C 226.895 2.49817 -3.45679 0
M  V30 2429 S 227.728 1.95036 -4.98719 0
M  V30 2430 C 228.884 3.32357 -5.30367 0
M  V30 2431 H 229.117 0.872297 -2.84215 0
M  V30 2432 H 226.65 0.338134 -1.50652 0
M  V30 2433 H 228.608 3.32898 -2.40185 0
M  V30 2434 H 227.269 2.84047 -1.34074 0
M  V30 2435 H 226.462 3.49688 -3.62952 0
M  V30 2436 H 226.064 1.79892 -3.27895 0
M  V30 2437 H 228.356 4.28525 -5.2476 0
M  V30 2438 H 229.299 3.19923 -6.31708 0
M  V30 2439 H 229.707 3.3019 -4.57859 0
M  V30 2440 N 229.106 1.52395 0.401703 0
M  V30 2441 C 230.331 1.70972 1.17403 0
M  V30 2442 C 230.756 0.421615 1.83314 0
M  V30 2443 O 230.114 -0.621564 1.70312 0
M  V30 2444 C 230.162 2.85151 2.20728 0
M  V30 2445 O 229.266 2.51238 3.27037 0
M  V30 2446 H 228.607 0.568927 0.342372 0
M  V30 2447 H 231.137 1.99131 0.469891 0
M  V30 2448 H 231.147 3.10279 2.64936 0
M  V30 2449 H 229.822 3.78603 1.7214 0
M  V30 2450 H 228.399 2.36808 2.88057 0
M  V30 2451 N 230.584 -0.659388 1.43143 0
M  V30 2452 C 231.516 -1.7849 1.43784 0
M  V30 2453 C 232.529 -1.5932 0.334787 0
M  V30 2454 O 233.718 -1.68155 0.598842 0
M  V30 2455 C 230.818 -3.15828 1.22906 0
M  V30 2456 C 229.991 -3.61711 2.45934 0
M  V30 2457 C 229.05 -4.77831 2.20371 0
M  V30 2458 O 228.076 -4.87586 2.93681 0
M  V30 2459 N 229.278 -5.67611 1.21647 0
M  V30 2460 H 232.043 -1.7842 2.40803 0
M  V30 2461 H 229.604 -0.84302 1.3822 0
M  V30 2462 H 231.596 -3.91189 1.03697 0
M  V30 2463 H 230.166 -3.10707 0.343542 0
M  V30 2464 H 229.386 -2.76861 2.80609 0
M  V30 2465 H 230.674 -3.89112 3.27825 0
M  V30 2466 H 230.072 -5.62397 0.610449 0
M  V30 2467 H 228.629 -6.42719 1.08423 0
M  V30 2468 N 232.062 -1.29571 -0.897171 0
M  V30 2469 C 232.992 -1.17473 -2.01798 0
M  V30 2470 C 233.973 -0.068323 -1.69963 0
M  V30 2471 O 235.158 -0.248239 -1.92607 0
M  V30 2472 C 232.288 -0.853099 -3.36659 0
M  V30 2473 C 231.242 -1.9161 -3.82713 0
M  V30 2474 C 230.568 -1.44773 -5.14728 0
M  V30 2475 C 231.868 -3.32535 -4.02763 0
M  V30 2476 H 233.562 -2.11237 -2.12177 0
M  V30 2477 H 231.108 -1.01699 -1.01948 0
M  V30 2478 H 233.061 -0.755165 -4.14578 0
M  V30 2479 H 231.785 0.120236 -3.26379 0
M  V30 2480 H 230.444 -2.00346 -3.07013 0
M  V30 2481 H 230.092 -0.462995 -5.00865 0
M  V30 2482 H 229.792 -2.15865 -5.46513 0
M  V30 2483 H 231.316 -1.36334 -5.95185 0
M  V30 2484 H 232.73 -3.26626 -4.71156 0
M  V30 2485 H 231.127 -4.01607 -4.45905 0
M  V30 2486 H 232.197 -3.75326 -3.07016 0
M  V30 2487 N 233.54 1.10788 -1.12088 0
M  V30 2488 C 234.789 1.82036 -0.868659 0
M  V30 2489 C 235.102 1.85929 0.607426 0
M  V30 2490 O 236.308 2.53346 0.97613 0
M  V30 2491 C 234.764 3.26951 -1.50435 0
M  V30 2492 C 234.372 3.31367 -3.01496 0
M  V30 2493 C 236.116 4.03053 -1.33225 0
M  V30 2494 C 234.023 4.7072 -3.58017 0
M  V30 2495 H 232.953 0.682108 -0.321318 0
M  V30 2496 H 235.604 1.24618 -1.34694 0
M  V30 2497 H 233.986 3.84343 -0.953735 0
M  V30 2498 H 235.16 2.83819 -3.6302 0
M  V30 2499 H 233.475 2.6875 -3.18061 0
M  V30 2500 H 236.072 5.05981 -1.72878 0
M  V30 2501 H 236.415 4.15387 -0.275529 0
M  V30 2502 H 236.948 3.52066 -1.85188 0
M  V30 2503 H 233.687 4.63585 -4.63432 0
M  V30 2504 H 233.207 5.1865 -3.01268 0
M  V30 2505 H 234.886 5.39685 -3.56859 0
M  V30 2506 N 235.018 0.912232 1.28515 0
M  V30 2507 C 236.246 0.560416 1.99166 0
M  V30 2508 C 236.661 -0.857927 1.68182 0
M  V30 2509 O 236.018 -1.56805 0.933733 0
M  V30 2510 C 236.069 0.758142 3.53461 0
M  V30 2511 O 235.79 2.12067 3.83352 0
M  V30 2512 C 237.291 0.412954 4.41372 0
M  V30 2513 H 234.511 0.213805 0.636026 0
M  V30 2514 H 237.055 1.22502 1.63749 0
M  V30 2515 H 235.21 0.140556 3.87145 0
M  V30 2516 H 235.624 2.15923 4.77993 0
M  V30 2517 H 237.098 0.60208 5.48707 0
M  V30 2518 H 237.575 -0.65073 4.34353 0
M  V30 2519 H 238.181 1.00802 4.13182 0
M  V30 2520 N 236.496 -1.42363 0.676048 0
M  V30 2521 C 237.429 -2.28141 -0.0516916 0
M  V30 2522 C 238.407 -1.41135 -0.807439 0
M  V30 2523 O 239.591 -1.70573 -0.802305 0
M  V30 2524 C 236.718 -3.21007 -1.08039 0
M  V30 2525 C 235.764 -4.24426 -0.420076 0
M  V30 2526 S 236.597 -5.29134 0.823246 0
M  V30 2527 C 237.753 -6.25566 -0.204344 0
M  V30 2528 H 237.986 -2.89515 0.675884 0
M  V30 2529 H 235.519 -1.47211 0.465635 0
M  V30 2530 H 237.477 -3.75048 -1.66881 0
M  V30 2531 H 236.138 -2.58766 -1.78042 0
M  V30 2532 H 235.331 -4.89596 -1.19633 0
M  V30 2533 H 234.933 -3.7388 0.0947845 0
M  V30 2534 H 237.225 -6.69098 -1.06369 0
M  V30 2535 H 238.168 -7.06895 0.412915 0
M  V30 2536 H 238.576 -5.61811 -0.55038 0
M  V30 2537 N 237.974 -0.419461 -1.51915 0
M  V30 2538 C 238.937 0.389116 -2.25873 0
M  V30 2539 C 239.937 0.964924 -1.28631 0
M  V30 2540 O 241.127 0.842179 -1.52489 0
M  V30 2541 C 238.259 1.54874 -3.03689 0
M  V30 2542 H 239.452 -0.258799 -2.98781 0
M  V30 2543 H 237.005 -0.172209 -1.55348 0
M  V30 2544 H 237.74 2.23323 -2.35154 0
M  V30 2545 H 237.525 1.14223 -3.75094 0
M  V30 2546 H 239.015 2.12046 -3.59759 0
M  V30 2547 N 239.452 1.56882 -0.150215 0
M  V30 2548 C 240.692 1.98119 0.502804 0
M  V30 2549 C 241.056 1.03327 1.61826 0
M  V30 2550 O 242.257 1.33621 2.33236 0
M  V30 2551 C 240.528 3.43329 0.992988 0
M  V30 2552 S 242.087 4.0659 1.65015 0
M  V30 2553 H 238.905 0.692189 0.162467 0
M  V30 2554 H 241.507 1.93988 -0.242689 0
M  V30 2555 H 240.211 4.10046 0.170436 0
M  V30 2556 H 239.742 3.5118 1.77303 0
M  V30 2557 H 241.757 3.99906 2.93752 0
M  V30 2558 N 240.93 -0.123565 1.57115 0
M  V30 2559 C 242.178 -0.83051 1.84247 0
M  V30 2560 C 242.499 -1.80629 0.73471 0
M  V30 2561 O 241.769 -1.94403 -0.241688 0
M  V30 2562 H 240.349 -0.309694 0.679778 0
M  V30 2563 H 243.011 -0.111976 1.94578 0
M  V30 2564 H 242.107 -1.37852 2.80006 0
M  V30 2565 N 242.408 -1.52605 -0.393616 0
M  V30 2566 C 243.633 -1.71592 -1.16495 0
M  V30 2567 C 244.058 -0.43133 -1.83088 0
M  V30 2568 O 243.416 0.612523 -1.7064 0
M  V30 2569 C 243.464 -2.86318 -2.19213 0
M  V30 2570 O 242.568 -2.52969 -3.257 0
M  V30 2571 H 241.909 -0.570734 -0.33935 0
M  V30 2572 H 244.439 -1.99377 -0.459324 0
M  V30 2573 H 244.449 -3.1168 -2.63286 0
M  V30 2574 H 243.124 -3.79511 -1.7013 0
M  V30 2575 H 241.701 -2.38332 -2.86797 0
M  V30 2576 N 243.887 0.651787 -1.4349 0
M  V30 2577 C 245.127 1.42345 -1.46688 0
M  V30 2578 C 245.491 1.91793 -0.0891023 0
M  V30 2579 O 246.692 2.688 0.00423594 0
M  V30 2580 C 244.963 2.57221 -2.48137 0
M  V30 2581 S 246.522 3.45725 -2.70221 0
M  V30 2582 H 243.34 0.485878 -0.51908 0
M  V30 2583 H 245.942 0.756578 -1.80267 0
M  V30 2584 H 244.646 2.1917 -3.46976 0
M  V30 2585 H 244.177 3.28757 -2.16061 0
M  V30 2586 H 246.192 4.53996 -2.00255 0
M  V30 2587 N 245.365 1.30045 0.890287 0
M  V30 2588 C 246.59 1.21598 1.68014 0
M  V30 2589 C 247.015 -0.218678 1.86825 0
M  V30 2590 O 246.373 -1.15756 1.39536 0
M  V30 2591 C 246.421 1.94434 3.03691 0
M  V30 2592 O 245.525 1.2678 3.92429 0
M  V30 2593 H 244.866 0.420856 0.513592 0
M  V30 2594 H 247.396 1.71775 1.11151 0
M  V30 2595 H 247.406 2.03251 3.5377 0
M  V30 2596 H 246.081 2.98777 2.89318 0
M  V30 2597 H 244.658 1.26282 3.50866 0
M  V30 2598 N 246.843 -1.10192 1.12674 0
M  V30 2599 C 247.791 -2.18694 0.792196 0
M  V30 2600 C 248.785 -1.67938 -0.222058 0
M  V30 2601 O 249.991 -1.79822 -0.0800074 0
M  V30 2602 H 246.366 -0.713223 0.238364 0
M  V30 2603 H 248.337 -2.44149 1.71564 0
M  V30 2604 C 247.086 -3.46682 0.265859 0
M  V30 2605 H 246.409 -3.86101 1.03761 0
M  V30 2606 H 247.849 -4.23942 0.0701128 0
M  V30 2607 C 246.308 -3.21506 -1.00675 0
M  V30 2608 O 246.838 -3.43408 -2.08408 0
M  V30 2609 N 245.044 -2.75158 -0.934692 0
M  V30 2610 H 244.591 -2.57535 -0.0578604 0
M  V30 2611 H 244.549 -2.58691 -1.7868 0
M  V30 2612 N 248.321 -0.919034 -1.28029 0
M  V30 2613 C 249.231 -0.416756 -2.30869 0
M  V30 2614 C 250.247 0.498235 -1.66714 0
M  V30 2615 O 251.423 0.383144 -1.97722 0
M  V30 2616 C 248.488 0.330274 -3.45123 0
M  V30 2617 C 247.549 -0.618578 -4.2482 0
M  V30 2618 C 246.782 0.0928959 -5.33619 0
M  V30 2619 O 247.005 1.31375 -5.55065 0
M  V30 2620 O 245.939 -0.574499 -5.99152 0
M  V30 2621 H 249.765 -1.27043 -2.75851 0
M  V30 2622 H 247.35 -0.684052 -1.3282 0
M  V30 2623 H 249.232 0.751972 -4.14636 0
M  V30 2624 H 247.907 1.1597 -3.02213 0
M  V30 2625 H 246.814 -1.08978 -3.57875 0
M  V30 2626 H 248.147 -1.41497 -4.71423 0
M  V30 2627 N 249.799 1.42003 -0.683588 0
M  V30 2628 C 250.747 2.326 0.000815408 0
M  V30 2629 C 251.741 1.50308 0.781278 0
M  V30 2630 O 252.947 1.66322 0.688251 0
M  V30 2631 H 249.322 0.751758 0.0190616 0
M  V30 2632 H 251.293 2.88011 -0.780528 0
M  V30 2633 C 250.042 3.34978 0.93195 0
M  V30 2634 H 249.365 3.98345 0.340817 0
M  V30 2635 H 250.805 4.00936 1.37936 0
M  V30 2636 C 249.264 2.67925 2.04249 0
M  V30 2637 O 249.794 2.51788 3.12995 0
M  V30 2638 N 248 2.2681 1.81675 0
M  V30 2639 H 247.547 2.40135 0.932363 0
M  V30 2640 H 247.505 1.8228 2.56167 0
M  V30 2641 N 251.277 0.427512 1.51691 0
M  V30 2642 C 252.24 -0.377132 2.26076 0
M  V30 2643 C 253.24 -0.958089 1.29141 0
M  V30 2644 O 254.43 -0.83408 1.52934 0
M  V30 2645 C 251.562 -1.53262 3.04506 0
M  V30 2646 H 252.755 0.27464 2.9864 0
M  V30 2647 H 250.308 0.180445 1.55255 0
M  V30 2648 H 251.043 -2.22072 2.36335 0
M  V30 2649 H 250.828 -1.12232 3.75694 0
M  V30 2650 H 252.318 -2.10135 3.60878 0
M  V30 2651 N 252.755 -1.56801 0.158532 0
M  V30 2652 C 253.685 -2.20347 -0.772609 0
M  V30 2653 C 254.666 -1.15518 -1.24859 0
M  V30 2654 O 255.851 -1.43902 -1.30406 0
M  V30 2655 C 252.981 -2.83417 -2.00729 0
M  V30 2656 C 251.935 -3.94174 -1.66765 0
M  V30 2657 C 251.261 -4.44233 -2.97592 0
M  V30 2658 C 252.561 -5.14392 -0.905447 0
M  V30 2659 H 254.255 -2.98413 -0.242959 0
M  V30 2660 H 251.801 -1.43537 -0.115419 0
M  V30 2661 H 253.754 -3.26543 -2.6636 0
M  V30 2662 H 252.478 -2.02701 -2.56086 0
M  V30 2663 H 251.137 -3.51684 -1.03508 0
M  V30 2664 H 250.785 -3.60325 -3.50963 0
M  V30 2665 H 250.485 -5.18945 -2.75626 0
M  V30 2666 H 252.009 -4.90037 -3.64274 0
M  V30 2667 H 253.423 -5.5429 -1.46408 0
M  V30 2668 H 251.82 -5.9494 -0.7853 0
M  V30 2669 H 252.89 -4.84795 0.100668 0
M  V30 2670 N 254.233 0.115231 -1.57178 0
M  V30 2671 C 255.18 1.14115 -2.00615 0
M  V30 2672 C 256.15 1.40939 -0.878941 0
M  V30 2673 O 257.335 1.52741 -1.14345 0
M  V30 2674 C 254.475 2.46156 -2.4187 0
M  V30 2675 C 253.588 2.26236 -3.68024 0
M  V30 2676 C 252.723 3.51534 -3.98243 0
M  V30 2677 C 251.762 3.26787 -5.17568 0
M  V30 2678 N 250.899 4.44298 -5.43639 0
M  V30 2679 H 255.739 0.763743 -2.88047 0
M  V30 2680 H 253.276 0.365615 -1.42484 0
M  V30 2681 H 255.234 3.23189 -2.63827 0
M  V30 2682 H 253.864 2.81783 -1.57475 0
M  V30 2683 H 252.916 1.40102 -3.5366 0
M  V30 2684 H 254.228 2.03929 -4.55208 0
M  V30 2685 H 253.382 4.36984 -4.20868 0
M  V30 2686 H 252.121 3.76876 -3.09541 0
M  V30 2687 H 251.126 2.39729 -4.94783 0
M  V30 2688 H 252.351 3.02812 -6.0785 0
M  V30 2689 H 250.297 4.69754 -4.57895 0
M  V30 2690 H 250.214 4.25109 -6.25154 0
M  V30 2691 H 251.482 5.3087 -5.70786 0
M  V30 2692 N 255.711 1.52812 0.385517 0
M  V30 2693 C 256.939 1.71907 1.15133 0
M  V30 2694 C 257.354 0.439004 1.83625 0
M  V30 2695 O 256.711 -0.586765 1.7281 0
M  V30 2696 C 256.762 2.87099 2.19673 0
M  V30 2697 O 256.483 4.10151 1.53973 0
M  V30 2698 C 257.984 3.17902 3.08955 0
M  V30 2699 H 255.204 0.575479 0.345057 0
M  V30 2700 H 257.748 1.99476 0.45052 0
M  V30 2701 H 255.903 2.61982 2.85384 0
M  V30 2702 H 256.317 4.74514 2.23465 0
M  V30 2703 H 257.791 4.01959 3.7833 0
M  V30 2704 H 258.268 2.3243 3.72657 0
M  V30 2705 H 258.874 3.44871 2.48885 0
M  V30 2706 N 257.189 -0.644168 1.43834 0
M  V30 2707 C 258.438 -1.39985 1.45214 0
M  V30 2708 C 258.751 -1.95421 0.0835494 0
M  V30 2709 O 259.957 -2.71488 -0.0251748 0
M  V30 2710 C 258.413 -2.53384 2.55587 0
M  V30 2711 C 258.021 -2.04517 3.98594 0
M  V30 2712 C 259.765 -3.30685 2.66172 0
M  V30 2713 C 257.672 -3.1518 5.00416 0
M  V30 2714 H 256.602 -0.526005 0.540218 0
M  V30 2715 H 259.253 -0.694367 1.69855 0
M  V30 2716 H 257.635 -3.26446 2.24163 0
M  V30 2717 H 258.809 -1.38405 4.39523 0
M  V30 2718 H 257.124 -1.40068 3.92135 0
M  V30 2719 H 259.721 -4.13158 3.39418 0
M  V30 2720 H 260.064 -3.79312 1.71546 0
M  V30 2721 H 260.597 -2.64708 2.96942 0
M  V30 2722 H 257.336 -2.71511 5.96625 0
M  V30 2723 H 256.856 -3.79974 4.64091 0
M  V30 2724 H 258.535 -3.80166 5.23529 0
M  V30 2725 N 258.668 -1.30515 -0.883378 0
M  V30 2726 C 259.915 -1.1943 -1.63532 0
M  V30 2727 C 260.243 0.250627 -1.92878 0
M  V30 2728 O 259.498 1.19556 -1.54935 0
M  V30 2729 C 259.797 -1.96994 -2.98209 0
M  V30 2730 C 259.463 -3.466 -2.88408 0
M  V30 2731 C 258.125 -3.87397 -2.85442 0
M  V30 2732 C 260.477 -4.41863 -2.76418 0
M  V30 2733 C 257.805 -5.21745 -2.68327 0
M  V30 2734 C 260.157 -5.7632 -2.60841 0
M  V30 2735 C 258.821 -6.16354 -2.56251 0
M  V30 2736 H 258.091 -0.437025 -0.598406 0
M  V30 2737 H 260.738 -1.61635 -1.02696 0
M  V30 2738 H 259.043 -1.47429 -3.63004 0
M  V30 2739 H 260.74 -1.85808 -3.55354 0
M  V30 2740 H 257.33 -3.14182 -2.91527 0
M  V30 2741 H 261.514 -4.11285 -2.77775 0
M  V30 2742 H 256.77 -5.51853 -2.63189 0
M  V30 2743 H 260.944 -6.49772 -2.50538 0
M  V30 2744 H 258.571 -7.20401 -2.42748 0
M  V30 2745 N 260.146 1.09593 -1.13257 0
M  V30 2746 C 261.079 2.15451 -0.752061 0
M  V30 2747 C 262.057 1.60493 0.260913 0
M  V30 2748 O 263.241 1.8788 0.152819 0
M  V30 2749 C 260.368 3.38506 -0.114594 0
M  V30 2750 C 259.414 4.12183 -1.09579 0
M  V30 2751 S 260.247 4.6661 -2.62745 0
M  V30 2752 C 261.403 5.92966 -2.00354 0
M  V30 2753 H 261.636 2.47395 -1.64872 0
M  V30 2754 H 259.169 1.21515 -0.952545 0
M  V30 2755 H 261.127 4.09757 0.246808 0
M  V30 2756 H 259.788 3.04784 0.759309 0
M  V30 2757 H 258.981 5.00445 -0.597545 0
M  V30 2758 H 258.583 3.46785 -1.40057 0
M  V30 2759 H 260.875 6.63882 -1.35156 0
M  V30 2760 H 261.818 6.47467 -2.86691 0
M  V30 2761 H 262.226 5.45405 -1.4558 0
M  V30 2762 N 261.624 0.925811 1.2754 0
M  V30 2763 C 262.87 0.575575 1.95086 0
M  V30 2764 C 263.225 -0.873246 1.71441 0
M  V30 2765 O 262.518 -1.61443 1.03183 0
M  V30 2766 C 262.712 0.835296 3.47502 0
M  V30 2767 C 262.541 2.30781 3.85967 0
M  V30 2768 C 261.311 2.96017 4.09514 0
M  V30 2769 C 263.509 3.28519 3.95702 0
M  V30 2770 N 261.491 4.3344 4.34744 0
M  V30 2771 C 262.862 4.51146 4.25285 0
M  V30 2772 C 264.917 3.23753 3.7827 0
M  V30 2773 C 263.62 5.69606 4.39251 0
M  V30 2774 C 265.646 4.41523 3.9346 0
M  V30 2775 C 265.008 5.62928 4.23428 0
M  V30 2776 H 261.107 0.260711 0.737261 0
M  V30 2777 H 263.691 1.19204 1.53943 0
M  V30 2778 H 261.862 0.248005 3.87607 0
M  V30 2779 H 263.594 0.447878 4.02214 0
M  V30 2780 H 260.349 2.46695 4.04275 0
M  V30 2781 H 260.773 5.04528 4.5142 0
M  V30 2782 H 265.415 2.3096 3.54143 0
M  V30 2783 H 263.133 6.62866 4.62205 0
M  V30 2784 H 266.719 4.39351 3.81394 0
M  V30 2785 H 265.599 6.52538 4.34929 0
M  V30 2786 N 263.102 -1.41638 0.69111 0
M  V30 2787 C 264.332 -2.0533 0.228758 0
M  V30 2788 C 264.74 -1.52089 -1.12541 0
M  V30 2789 O 264.083 -0.662145 -1.71351 0
M  V30 2790 C 264.145 -3.59349 0.10407 0
M  V30 2791 C 263.809 -4.35362 1.38956 0
M  V30 2792 C 264.806 -4.64942 2.32648 0
M  V30 2793 C 262.491 -4.74714 1.64169 0
M  V30 2794 C 264.485 -5.32828 3.49818 0
M  V30 2795 C 262.172 -5.42338 2.81625 0
M  V30 2796 C 263.17 -5.71322 3.74273 0
M  V30 2797 O 262.858 -6.37554 4.89673 0
M  V30 2798 H 262.59 -0.667796 0.104997 0
M  V30 2799 H 265.144 -1.82477 0.942938 0
M  V30 2800 H 263.374 -3.80924 -0.665839 0
M  V30 2801 H 265.063 -4.04633 -0.320519 0
M  V30 2802 H 265.829 -4.35025 2.14425 0
M  V30 2803 H 261.708 -4.51538 0.929202 0
M  V30 2804 H 265.252 -5.55368 4.22152 0
M  V30 2805 H 261.149 -5.71673 2.99768 0
M  V30 2806 H 261.917 -6.56049 4.8943 0
M  V30 2807 N 264.58 -0.43555 -1.51462 0
M  V30 2808 C 265.996 -0.0877501 -1.59359 0
M  V30 2809 C 266.196 1.4027 -1.4466 0
M  V30 2810 O 265.252 2.17243 -1.28693 0
M  V30 2811 C 266.565 -0.606264 -2.94525 0
M  V30 2812 C 268.113 -0.566548 -3.0783 0
M  V30 2813 C 268.588 -1.06201 -4.45517 0
M  V30 2814 N 270.079 -1.01992 -4.51832 0
M  V30 2815 C 270.814 -1.37417 -5.5669 0
M  V30 2816 N 270.31 -1.80119 -6.68976 0
M  V30 2817 N 272.103 -1.29245 -5.47039 0
M  V30 2818 H 264.254 -1.40533 -1.59261 0
M  V30 2819 H 266.517 -0.578992 -0.750648 0
M  V30 2820 H 266.223 -1.64901 -3.10645 0
M  V30 2821 H 266.097 -0.0302097 -3.77188 0
M  V30 2822 H 268.484 0.467208 -2.91378 0
M  V30 2823 H 268.565 -1.17898 -2.2701 0
M  V30 2824 H 268.209 -2.09422 -4.62715 0
M  V30 2825 H 268.139 -0.426127 -5.24873 0
M  V30 2826 H 270.63 -0.706308 -3.71241 0
M  V30 2827 H 270.943 -2.05392 -7.45006 0
M  V30 2828 H 269.288 -1.84044 -6.70189 0
M  V30 2829 H 272.479 -0.957522 -4.58202 0
M  V30 2830 H 272.652 -1.57182 -6.28648 0
M  V30 2831 N 266.058 1.56714 -0.166846 0
M  V30 2832 C 267.283 2.01557 0.488833 0
M  V30 2833 C 267.708 1.0463 1.56314 0
M  V30 2834 O 267.066 0.0251304 1.81283 0
M  V30 2835 C 267.114 3.4503 1.04818 0
M  V30 2836 O 266.218 3.51163 2.16236 0
M  V30 2837 H 265.559 0.653516 0.117526 0
M  V30 2838 H 268.089 2.02818 -0.269421 0
M  V30 2839 H 268.099 3.84243 1.37191 0
M  V30 2840 H 266.774 4.15077 0.261572 0
M  V30 2841 H 265.351 3.23807 1.84942 0
M  V30 2842 N 267.536 -0.106894 1.57237 0
M  V30 2843 C 268.483 -1.13049 2.01217 0
M  V30 2844 C 269.453 -1.40471 0.886403 0
M  V30 2845 O 270.638 -1.52133 1.15153 0
M  V30 2846 C 267.778 -2.4487 2.43172 0
M  V30 2847 C 266.891 -2.24281 3.69218 0
M  V30 2848 C 266.026 -3.49417 4.00101 0
M  V30 2849 C 265.065 -3.24038 5.19294 0
M  V30 2850 N 264.202 -4.41409 5.45988 0
M  V30 2851 H 269.042 -0.748456 2.88448 0
M  V30 2852 H 266.579 -0.358054 1.42676 0
M  V30 2853 H 268.537 -3.21786 2.65537 0
M  V30 2854 H 267.167 -2.80944 1.58967 0
M  V30 2855 H 266.219 -1.38224 3.54398 0
M  V30 2856 H 267.531 -2.01512 4.56283 0
M  V30 2857 H 266.685 -4.34746 4.2318 0
M  V30 2858 H 265.424 -3.75229 3.11535 0
M  V30 2859 H 264.429 -2.37102 4.96047 0
M  V30 2860 H 265.654 -2.99584 6.09447 0
M  V30 2861 H 263.6 -4.67319 4.60379 0
M  V30 2862 H 263.517 -4.21788 6.274 0
M  V30 2863 H 264.785 -5.27836 5.73593 0
M  V30 2864 N 269.014 -1.53014 -0.377408 0
M  V30 2865 C 269.924 -1.81557 -1.48574 0
M  V30 2866 C 270.94 -0.703102 -1.59162 0
M  V30 2867 O 272.116 -0.99192 -1.75279 0
M  V30 2868 C 269.181 -1.9889 -2.83978 0
M  V30 2869 C 268.242 -3.22801 -2.83016 0
M  V30 2870 C 267.475 -3.39298 -4.11962 0
M  V30 2871 O 267.698 -2.60345 -5.0752 0
M  V30 2872 O 266.632 -4.32604 -4.18494 0
M  V30 2873 H 270.458 -2.75695 -1.27382 0
M  V30 2874 H 268.043 -1.38248 -0.566373 0
M  V30 2875 H 269.925 -2.11931 -3.6423 0
M  V30 2876 H 268.6 -1.07942 -3.05172 0
M  V30 2877 H 267.507 -3.15193 -2.01505 0
M  V30 2878 H 268.84 -4.13632 -2.66775 0
M  V30 2879 N 270.492 0.636531 -1.44174 0
M  V30 2880 C 271.908 0.954104 -1.27941 0
M  V30 2881 C 272.108 2.0039 -0.211248 0
M  V30 2882 O 271.164 2.49236 0.404695 0
M  V30 2883 C 272.477 1.4225 -2.64925 0
M  V30 2884 C 274.025 1.53827 -2.72592 0
M  V30 2885 C 274.5 2.04053 -4.10032 0
M  V30 2886 N 275.991 2.11331 -4.12182 0
M  V30 2887 C 276.726 2.51352 -5.15374 0
M  V30 2888 N 276.222 2.90549 -6.2893 0
M  V30 2889 N 278.015 2.51438 -5.02728 0
M  V30 2890 H 270.166 -0.0578386 -2.12321 0
M  V30 2891 H 272.429 0.0367406 -0.947288 0
M  V30 2892 H 272.135 0.725466 -3.44136 0
M  V30 2893 H 272.009 2.39451 -2.9145 0
M  V30 2894 H 274.396 2.22628 -1.93702 0
M  V30 2895 H 274.477 0.550154 -2.49814 0
M  V30 2896 H 274.121 1.35848 -4.89395 0
M  V30 2897 H 274.051 3.03726 -4.30184 0
M  V30 2898 H 276.542 1.83745 -3.30222 0
M  V30 2899 H 276.855 3.19884 -7.03487 0
M  V30 2900 H 275.2 2.88313 -6.32377 0
M  V30 2901 H 278.391 2.20203 -4.13072 0
M  V30 2902 H 278.564 2.82304 -5.83274 0
M  V30 2903 N 271.97 1.30982 0.876444 0
M  V30 2904 C 273.218 1.20058 1.62575 0
M  V30 2905 C 273.539 -0.242947 1.93481 0
M  V30 2906 O 272.809 -1.1619 1.57724 0
M  V30 2907 H 271.389 0.44135 0.602677 0
M  V30 2908 H 274.051 1.64222 1.04962 0
M  V30 2909 H 273.147 1.76762 2.57219 0
M  V30 2910 N 273.449 -1.08991 1.13837 0
M  V30 2911 C 274.381 -2.15606 0.777612 0
M  V30 2912 C 275.394 -1.61533 -0.202739 0
M  V30 2913 O 276.583 -1.78491 0.0181055 0
M  V30 2914 C 273.683 -3.3864 0.132623 0
M  V30 2915 C 272.856 -4.22115 1.1462 0
M  V30 2916 C 271.915 -5.23564 0.526074 0
M  V30 2917 O 270.941 -5.56678 1.18735 0
M  V30 2918 N 272.143 -5.76266 -0.699866 0
M  V30 2919 H 274.908 -2.47159 1.69506 0
M  V30 2920 H 272.469 -1.24747 1.03198 0
M  V30 2921 H 274.461 -4.03626 -0.29459 0
M  V30 2922 H 273.031 -3.04938 -0.687849 0
M  V30 2923 H 272.251 -3.53199 1.75055 0
M  V30 2924 H 273.539 -4.74709 1.83109 0
M  V30 2925 H 272.937 -5.51585 -1.25581 0
M  V30 2926 H 271.494 -6.42963 -1.06968 0
M  V30 2927 N 274.927 -0.932562 -1.27047 0
M  V30 2928 C 276.343 -0.633544 -1.46487 0
M  V30 2929 C 276.543 0.815746 -1.84249 0
M  V30 2930 O 275.599 1.59319 -1.95892 0
M  V30 2931 C 276.912 -1.58758 -2.55375 0
M  V30 2932 C 278.46 -1.59634 -2.69232 0
M  V30 2933 C 278.935 -2.53747 -3.81283 0
M  V30 2934 N 280.426 -2.51982 -3.88664 0
M  V30 2935 C 281.161 -3.21491 -4.74796 0
M  V30 2936 N 280.657 -4.00395 -5.65381 0
M  V30 2937 N 282.45 -3.10485 -4.68568 0
M  V30 2938 H 274.601 -1.86946 -1.00821 0
M  V30 2939 H 276.864 -0.802897 -0.504044 0
M  V30 2940 H 276.57 -2.62172 -2.34432 0
M  V30 2941 H 276.444 -1.33301 -3.52861 0
M  V30 2942 H 278.831 -0.569488 -2.89553 0
M  V30 2943 H 278.912 -1.89142 -1.72218 0
M  V30 2944 H 278.556 -3.56545 -3.61715 0
M  V30 2945 H 278.486 -2.21532 -4.77735 0
M  V30 2946 H 280.977 -1.94681 -3.23895 0
M  V30 2947 H 281.29 -4.50406 -6.27976 0
M  V30 2948 H 279.635 -4.04498 -5.65161 0
M  V30 2949 H 282.826 -2.48331 -3.96799 0
M  V30 2950 H 282.999 -3.64925 -5.35475 0
M  V30 2951 N 276.405 1.4127 -0.698611 0
M  V30 2952 C 277.653 2.00782 -0.230409 0
M  V30 2953 C 277.974 1.5562 1.17505 0
M  V30 2954 O 277.244 0.78815 1.79346 0
M  V30 2955 H 275.824 0.742464 -0.0821944 0
M  V30 2956 H 278.486 1.72852 -0.90045 0
M  V30 2957 H 277.582 3.11095 -0.25021 0
M  V30 2958 N 277.883 0.443576 1.51229 0
M  V30 2959 C 279.13 -0.120796 2.02139 0
M  V30 2960 C 279.458 -1.42166 1.32736 0
M  V30 2961 O 278.713 -1.90849 0.43301 0
M  V30 2962 C 279.012 -0.380579 3.55368 0
M  V30 2963 C 278.678 0.83523 4.43097 0
M  V30 2964 C 277.34 1.16864 4.66794 0
M  V30 2965 C 279.692 1.64601 4.94526 0
M  V30 2966 C 277.02 2.31339 5.39165 0
M  V30 2967 C 279.372 2.78181 5.68153 0
M  V30 2968 C 278.036 3.11969 5.90112 0
M  V30 2969 H 277.306 -0.0442023 0.73968 0
M  V30 2970 H 279.953 0.592046 1.82118 0
M  V30 2971 H 278.258 -1.17538 3.73754 0
M  V30 2972 H 279.955 -0.830777 3.923 0
M  V30 2973 H 276.545 0.565437 4.24854 0
M  V30 2974 H 280.729 1.40163 4.76097 0
M  V30 2975 H 275.985 2.57823 5.5438 0
M  V30 2976 H 280.159 3.41371 6.06992 0
M  V30 2977 H 277.786 4.00784 6.45969 0
M  V30 2978 N 279.361 -1.56624 0.175154 0
M  V30 2979 C 280.586 -2.01813 -0.478137 0
M  V30 2980 C 281.011 -1.05457 -1.55757 0
M  V30 2981 O 280.369 -0.0347439 -1.81267 0
M  V30 2982 C 280.417 -3.45581 -1.02987 0
M  V30 2983 O 279.521 -3.52305 -2.14371 0
M  V30 2984 H 278.862 -0.65413 -0.114059 0
M  V30 2985 H 281.392 -2.02673 0.280173 0
M  V30 2986 H 281.402 -3.84965 -1.35151 0
M  V30 2987 H 280.077 -4.1521 -0.239556 0
M  V30 2988 H 278.654 -3.24783 -1.83222 0
M  V30 2989 N 280.839 0.0985539 -1.57292 0
M  V30 2990 C 281.771 1.14595 -1.98496 0
M  V30 2991 C 282.784 1.36512 -0.887031 0
M  V30 2992 O 283.973 1.35225 -1.16518 0
M  V30 2993 C 281.073 2.50216 -2.28572 0
M  V30 2994 C 280.246 2.48624 -3.59868 0
M  V30 2995 C 279.305 3.66146 -3.7792 0
M  V30 2996 O 278.331 3.48795 -4.49812 0
M  V30 2997 N 279.533 4.85496 -3.18235 0
M  V30 2998 H 282.298 0.795277 -2.88956 0
M  V30 2999 H 279.859 0.287579 -1.59325 0
M  V30 3000 H 281.851 3.27432 -2.37845 0
M  V30 3001 H 280.421 2.77387 -1.44136 0
M  V30 3002 H 279.641 1.56978 -3.61596 0
M  V30 3003 H 280.929 2.44635 -4.46129 0
M  V30 3004 H 280.327 5.02497 -2.59833 0
M  V30 3005 H 278.884 5.60317 -3.32999 0
M  V30 3006 N 282.317 1.53212 0.369288 0
M  V30 3007 C 283.227 1.82342 1.47609 0
M  V30 3008 C 284.243 0.711532 1.58787 0
M  V30 3009 O 285.419 1.0012 1.74751 0
M  V30 3010 C 282.484 2.00393 2.8292 0
M  V30 3011 C 281.545 3.24297 2.81301 0
M  V30 3012 C 280.778 3.41478 4.10157 0
M  V30 3013 O 281.001 2.63033 5.06132 0
M  V30 3014 O 279.935 4.34817 4.16194 0
M  V30 3015 H 283.761 2.76366 1.25918 0
M  V30 3016 H 281.346 1.38547 0.559034 0
M  V30 3017 H 283.228 2.13859 3.63101 0
M  V30 3018 H 281.903 1.09559 3.04596 0
M  V30 3019 H 280.81 3.16257 1.99831 0
M  V30 3020 H 282.143 4.15041 2.64578 0
M  V30 3021 N 283.795 -0.628877 1.44509 0
M  V30 3022 C 284.705 -1.7694 1.54044 0
M  V30 3023 C 285.721 -1.68705 0.425987 0
M  V30 3024 O 286.897 -1.89442 0.683656 0
M  V30 3025 C 283.962 -3.13332 1.48405 0
M  V30 3026 C 283.023 -3.33181 2.70719 0
M  V30 3027 C 282.256 -4.63067 2.6534 0
M  V30 3028 O 282.479 -5.44017 1.71469 0
M  V30 3029 O 281.413 -4.85167 3.56226 0
M  V30 3030 H 285.239 -1.71848 2.50403 0
M  V30 3031 H 282.824 -0.790378 1.26781 0
M  V30 3032 H 284.706 -3.94634 1.47791 0
M  V30 3033 H 283.381 -3.1896 0.551898 0
M  V30 3034 H 282.288 -2.51549 2.769 0
M  V30 3035 H 283.621 -3.32416 3.62988 0
M  V30 3036 N 285.273 -1.31445 -0.869486 0
M  V30 3037 C 286.203 -1.21727 -1.99261 0
M  V30 3038 C 287.184 -0.104359 -1.6978 0
M  V30 3039 O 288.369 -0.289038 -1.92037 0
M  V30 3040 C 285.499 -0.924317 -3.34774 0
M  V30 3041 C 284.453 -1.99685 -3.78563 0
M  V30 3042 C 283.779 -1.55658 -5.11541 0
M  V30 3043 C 285.079 -3.41003 -3.95619 0
M  V30 3044 H 286.773 -2.1569 -2.07649 0
M  V30 3045 H 284.319 -1.03839 -0.997675 0
M  V30 3046 H 286.272 -0.842934 -4.12883 0
M  V30 3047 H 284.996 0.0509793 -3.2656 0
M  V30 3048 H 283.655 -2.06813 -3.02694 0
M  V30 3049 H 283.303 -0.569132 -4.9977 0
M  V30 3050 H 283.003 -2.27409 -5.41811 0
M  V30 3051 H 284.527 -1.48928 -5.92159 0
M  V30 3052 H 285.941 -3.36547 -4.64122 0
M  V30 3053 H 284.338 -4.10975 -4.37286 0
M  V30 3054 H 285.408 -3.81754 -2.98985 0
M  V30 3055 N 286.751 1.08385 -1.14413 0
M  V30 3056 C 287.661 2.18856 -0.844951 0
M  V30 3057 C 288.677 1.73121 0.174668 0
M  V30 3058 O 289.853 2.014 0.00312857 0
M  V30 3059 C 286.918 3.45155 -0.32696 0
M  V30 3060 C 285.979 4.05513 -1.40916 0
M  V30 3061 C 285.212 5.25784 -0.915793 0
M  V30 3062 O 285.435 5.69884 0.242651 0
M  V30 3063 O 284.369 5.77545 -1.69487 0
M  V30 3064 H 288.195 2.46919 -1.76818 0
M  V30 3065 H 285.78 1.17524 -0.922411 0
M  V30 3066 H 287.662 4.21377 -0.0440211 0
M  V30 3067 H 286.337 3.18668 0.568539 0
M  V30 3068 H 285.244 3.30879 -1.74556 0
M  V30 3069 H 286.577 4.3625 -2.27919 0
M  V30 3070 N 288.23 0.939286 1.26551 0
M  V30 3071 C 289.458 0.602536 1.97932 0
M  V30 3072 C 289.873 -0.82206 1.69964 0
M  V30 3073 O 289.23 -1.54789 0.966784 0
M  V30 3074 C 289.281 0.832946 3.51773 0
M  V30 3075 O 289.002 2.20151 3.78768 0
M  V30 3076 C 290.503 0.506483 4.40397 0
M  V30 3077 H 287.723 0.227248 0.631347 0
M  V30 3078 H 290.267 1.25948 1.61113 0
M  V30 3079 H 288.422 0.222644 3.8676 0
M  V30 3080 H 288.836 2.26013 4.73306 0
M  V30 3081 H 290.31 0.718333 5.47306 0
M  V30 3082 H 290.787 -0.558451 4.35635 0
M  V30 3083 H 291.393 1.09543 4.10951 0
M  V30 3084 N 289.708 -1.40897 0.706093 0
M  V30 3085 C 290.948 -2.02916 0.245827 0
M  V30 3086 C 291.312 -1.54751 -1.13649 0
M  V30 3087 O 292.513 -2.08768 -1.69321 0
M  V30 3088 C 290.784 -3.56031 0.312537 0
M  V30 3089 S 292.343 -4.38741 -0.0721388 0
M  V30 3090 H 289.161 -0.704186 0.0982007 0
M  V30 3091 H 291.763 -1.72168 0.926207 0
M  V30 3092 H 290.467 -3.88579 1.32039 0
M  V30 3093 H 289.998 -3.91495 -0.386641 0
M  V30 3094 H 292.013 -4.78952 -1.29692 0
M  V30 3095 N 291.186 -0.45159 -1.50991 0
M  V30 3096 C 292.119 0.398179 -2.24699 0
M  V30 3097 C 293.097 1.01276 -1.27208 0
M  V30 3098 O 294.281 1.05247 -1.56382 0
M  V30 3099 C 291.408 1.55618 -3.00833 0
M  V30 3100 C 290.454 1.0609 -4.13095 0
M  V30 3101 S 291.287 -0.00865136 -5.35499 0
M  V30 3102 C 292.443 1.15369 -6.15175 0
M  V30 3103 H 292.676 -0.227555 -2.96428 0
M  V30 3104 H 290.209 -0.236251 -1.52582 0
M  V30 3105 H 292.167 2.21997 -3.45293 0
M  V30 3106 H 290.828 2.15337 -2.28667 0
M  V30 3107 H 290.021 1.92726 -4.65696 0
M  V30 3108 H 289.623 0.47513 -3.7097 0
M  V30 3109 H 291.915 2.06925 -6.45126 0
M  V30 3110 H 292.858 0.667344 -7.04948 0
M  V30 3111 H 293.266 1.3987 -5.46897 0
M  V30 3112 N 292.664 1.56529 -0.183458 0
M  V30 3113 C 293.913 1.96419 0.458511 0
M  V30 3114 C 294.226 1.0727 1.63562 0
M  V30 3115 O 295.432 1.36893 2.34462 0
M  V30 3116 C 293.888 3.49298 0.867122 0
M  V30 3117 C 293.496 4.47092 -0.285057 0
M  V30 3118 C 295.24 3.97983 1.47683 0
M  V30 3119 C 293.147 5.91225 0.143862 0
M  V30 3120 H 292.077 0.733394 0.175071 0
M  V30 3121 H 294.728 1.81448 -0.273624 0
M  V30 3122 H 293.11 3.59731 1.65559 0
M  V30 3123 H 294.284 4.48383 -1.0625 0
M  V30 3124 H 292.599 4.08535 -0.805503 0
M  V30 3125 H 295.196 5.03134 1.80999 0
M  V30 3126 H 295.539 3.41618 2.37914 0
M  V30 3127 H 296.072 3.90617 0.752562 0
M  V30 3128 H 292.811 6.5149 -0.723974 0
M  V30 3129 H 292.331 5.93214 0.886413 0
M  V30 3130 H 294.01 6.44362 0.583628 0
M  V30 3131 N 294.142 -0.090211 1.57342 0
M  V30 3132 C 295.09 -1.12792 2.03422 0
M  V30 3133 C 296.084 -1.41182 0.936166 0
M  V30 3134 O 297.29 -1.40805 1.12133 0
M  V30 3135 H 293.665 -0.380986 0.648347 0
M  V30 3136 H 295.636 -0.71299 2.89757 0
M  V30 3137 C 294.385 -2.43855 2.47851 0
M  V30 3138 H 293.708 -2.22855 3.31927 0
M  V30 3139 H 295.148 -3.14955 2.83865 0
M  V30 3140 C 293.607 -3.08503 1.3538 0
M  V30 3141 O 294.137 -3.95805 0.685641 0
M  V30 3142 N 292.343 -2.68831 1.10355 0
M  V30 3143 H 291.89 -1.97929 1.64869 0
M  V30 3144 H 291.848 -3.12412 0.353031 0
M  V30 3145 N 295.62 -1.53406 -0.361157 0
M  V30 3146 C 296.552 -1.76446 -1.46286 0
M  V30 3147 C 297.565 -0.645322 -1.49464 0
M  V30 3148 O 298.754 -0.921681 -1.52864 0
M  V30 3149 C 295.854 -1.83332 -2.85031 0
M  V30 3150 C 295.027 -3.13033 -3.05498 0
M  V30 3151 C 294.086 -3.11104 -4.24383 0
M  V30 3152 O 293.112 -3.84888 -4.19344 0
M  V30 3153 N 294.314 -2.32234 -5.32022 0
M  V30 3154 H 297.079 -2.71508 -1.26899 0
M  V30 3155 H 294.64 -1.52238 -0.550915 0
M  V30 3156 H 296.632 -1.79514 -3.62708 0
M  V30 3157 H 295.202 -0.955342 -2.97644 0
M  V30 3158 H 294.422 -3.30119 -2.15442 0
M  V30 3159 H 295.71 -3.9874 -3.16044 0
M  V30 3160 H 295.108 -1.71807 -5.38979 0
M  V30 3161 H 293.665 -2.3423 -6.08259 0
M  V30 3162 N 297.098 0.621204 -1.44841 0
M  V30 3163 C 298.061 1.71459 -1.521 0
M  V30 3164 C 299.061 1.55696 -0.401933 0
M  V30 3165 O 300.251 1.61011 -0.664925 0
M  V30 3166 C 297.383 3.10624 -1.40447 0
M  V30 3167 H 298.576 1.66394 -2.49506 0
M  V30 3168 H 296.129 0.835745 -1.3208 0
M  V30 3169 H 296.864 3.21277 -0.441737 0
M  V30 3170 H 296.649 3.23473 -2.21602 0
M  V30 3171 H 298.139 3.90293 -1.4853 0
M  V30 3172 N 298.576 1.31904 0.862503 0
M  V30 3173 C 299.987 1.19803 1.43193 0
M  V30 3174 C 300.338 -0.192567 1.95253 0
M  V30 3175 O 299.463 -1.09081 1.86896 0
M  V30 3176 C 300.058 2.16883 2.60283 0
M  V30 3177 C 298.617 2.08692 3.13248 0
M  V30 3178 C 297.764 2.05691 1.85975 0
M  V30 3179 H 300.715 1.43846 0.670365 0
M  V30 3180 H 300.736 1.76278 3.37204 0
M  V30 3181 H 300.248 3.18083 2.22363 0
M  V30 3182 H 298.349 1.10713 3.55771 0
M  V30 3183 H 298.462 2.9815 3.75025 0
M  V30 3184 H 296.826 1.50814 2.05249 0
M  V30 3185 H 297.609 3.08659 1.50282 0
M  V30 3186 N 300.054 -1.07777 1.14986 0
M  V30 3187 C 301.302 -1.79934 0.920235 0
M  V30 3188 C 301.623 -1.86955 -0.554336 0
M  V30 3189 O 300.893 -1.36731 -1.40291 0
M  V30 3190 H 299.473 -0.666424 0.337473 0
M  V30 3191 H 302.135 -1.3027 1.44968 0
M  V30 3192 H 301.231 -2.82539 1.32583 0
M  V30 3193 N 301.532 -0.945985 -1.26051 0
M  V30 3194 C 302.772 -0.603665 -1.95282 0
M  V30 3195 C 303.136 0.842377 -1.72534 0
M  V30 3196 O 304.337 1.29387 -2.35611 0
M  V30 3197 C 302.608 -0.942292 -3.44754 0
M  V30 3198 S 304.167 -0.711242 -4.32997 0
M  V30 3199 H 300.985 -0.222176 -0.675395 0
M  V30 3200 H 303.587 -1.21832 -1.52896 0
M  V30 3201 H 302.291 -1.99203 -3.58812 0
M  V30 3202 H 301.822 -0.317546 -3.92116 0
M  V30 3203 H 303.837 0.422221 -4.944 0
M  V30 3204 N 303.011 1.40521 -0.713556 0
M  V30 3205 C 304.422 1.83853 -0.324807 0
M  V30 3206 C 304.773 1.59667 1.14021 0
M  V30 3207 O 303.898 1.07649 1.87725 0
M  V30 3208 C 304.493 3.33751 -0.582746 0
M  V30 3209 C 303.052 3.75584 -0.247727 0
M  V30 3210 C 302.199 2.63753 -0.856121 0
M  V30 3211 H 305.15 1.29817 -0.91286 0
M  V30 3212 H 305.171 3.80194 0.152682 0
M  V30 3213 H 304.683 3.51322 -1.64908 0
M  V30 3214 H 302.784 3.63608 0.813624 0
M  V30 3215 H 302.897 4.7373 -0.715307 0
M  V30 3216 H 301.261 2.53108 -0.28432 0
M  V30 3217 H 302.044 2.84137 -1.92668 0
M  V30 3218 N 304.489 0.459591 1.5075 0
M  V30 3219 C 305.766 -0.160371 1.94941 0
M  V30 3220 C 306.146 -1.58048 1.39943 0
M  V30 3221 O 305.494 -2.206 0.595629 0
M  V30 3222 C 305.704 -0.115432 3.48809 0
M  V30 3223 C 307.052 -0.310026 4.23467 0
M  V30 3224 O 308.076 -0.192543 3.55679 0
M  V30 3225 O 306.935 -0.546031 5.43765 0
M  V30 3226 H 304.029 -0.117925 0.818549 0
M  V30 3227 H 306.575 0.519169 1.61563 0
M  V30 3228 H 305.347 0.87652 3.81357 0
M  V30 3229 H 304.97 -0.836928 3.88692 0
M  V30 3230 N 305.967 -1.56429 0.191757 0
M  V30 3231 C 307.197 -2.01574 -0.452928 0
M  V30 3232 C 307.605 -1.07107 -1.55964 0
M  V30 3233 O 306.948 -0.067534 -1.83576 0
M  V30 3234 C 307.01 -3.43121 -1.07278 0
M  V30 3235 C 306.674 -4.56879 -0.105214 0
M  V30 3236 C 307.671 -5.15379 0.684149 0
M  V30 3237 C 305.356 -5.023 0.00489824 0
M  V30 3238 C 307.35 -6.17746 1.57062 0
M  V30 3239 C 305.037 -6.04511 0.894935 0
M  V30 3240 C 306.035 -6.62108 1.67637 0
M  V30 3241 O 305.723 -7.62335 2.55149 0
M  V30 3242 H 305.455 -0.665554 -0.118379 0
M  V30 3243 H 308.009 -2.03245 0.296737 0
M  V30 3244 H 306.239 -3.38425 -1.87097 0
M  V30 3245 H 307.928 -3.72093 -1.62177 0
M  V30 3246 H 308.694 -4.81157 0.609365 0
M  V30 3247 H 304.573 -4.57168 -0.593156 0
M  V30 3248 H 308.117 -6.6263 2.181 0
M  V30 3249 H 304.014 -6.38157 0.970847 0
M  V30 3250 H 304.782 -7.79741 2.48892 0
M  V30 3251 N 307.445 0.0818655 -1.57387 0
M  V30 3252 C 308.67 0.799946 -1.91352 0
M  V30 3253 C 309.095 1.70833 -0.787258 0
M  V30 3254 O 308.453 1.79419 0.26048 0
M  V30 3255 C 308.501 1.57812 -3.24234 0
M  V30 3256 O 307.605 2.68806 -3.12757 0
M  V30 3257 H 306.946 0.21891 -0.626877 0
M  V30 3258 H 309.476 0.0531256 -2.04531 0
M  V30 3259 H 309.486 1.95952 -3.57864 0
M  V30 3260 H 308.161 0.911548 -4.05788 0
M  V30 3261 H 306.738 2.33597 -2.90666 0
M  V30 3262 N 308.923 1.53595 0.353017 0
M  V30 3263 C 310.172 1.69603 1.09168 0
M  V30 3264 C 310.485 0.460925 1.90092 0
M  V30 3265 O 311.691 0.501774 2.66823 0
M  V30 3266 C 310.147 2.99872 1.9901 0
M  V30 3267 C 309.755 4.30687 1.23339 0
M  V30 3268 C 311.499 3.25246 2.72792 0
M  V30 3269 C 309.406 5.52036 2.12156 0
M  V30 3270 H 308.336 0.631966 0.411261 0
M  V30 3271 H 310.987 1.80096 0.351802 0
M  V30 3272 H 309.369 2.83212 2.7678 0
M  V30 3273 H 310.543 4.58019 0.505456 0
M  V30 3274 H 308.858 4.11853 0.613663 0
M  V30 3275 H 311.455 4.13095 3.39495 0
M  V30 3276 H 311.798 2.41846 3.38846 0
M  V30 3277 H 312.331 3.42638 2.021 0
M  V30 3278 H 309.07 6.37951 1.50659 0
M  V30 3279 H 308.59 5.28966 2.82764 0
M  V30 3280 H 310.269 5.87313 2.71427 0
M  V30 3281 N 310.401 -0.613514 1.45168 0
M  V30 3282 C 311.331 -1.7354 1.56225 0
M  V30 3283 C 312.312 -1.64981 0.41414 0
M  V30 3284 O 313.497 -1.83472 0.636526 0
M  V30 3285 C 310.627 -3.12128 1.52295 0
M  V30 3286 C 309.581 -3.35491 2.65762 0
M  V30 3287 C 308.907 -4.74291 2.46885 0
M  V30 3288 C 310.207 -3.26325 4.0781 0
M  V30 3289 H 311.901 -1.64543 2.50132 0
M  V30 3290 H 309.447 -0.790185 1.20383 0
M  V30 3291 H 311.4 -3.90404 1.58628 0
M  V30 3292 H 310.124 -3.2195 0.549139 0
M  V30 3293 H 308.783 -2.59603 2.58847 0
M  V30 3294 H 308.431 -4.80839 1.47657 0
M  V30 3295 H 308.131 -4.9088 3.22972 0
M  V30 3296 H 309.655 -5.54775 2.55063 0
M  V30 3297 H 311.069 -3.94483 4.16 0
M  V30 3298 H 309.466 -3.54445 4.8424 0
M  V30 3299 H 310.536 -2.23855 4.30136 0
M  V30 3300 N 311.879 -1.3236 -0.855495 0
M  V30 3301 C 313.104 -1.2601 -1.64731 0
M  V30 3302 C 313.529 0.169068 -1.87339 0
M  V30 3303 O 312.887 1.12016 -1.42556 0
M  V30 3304 C 312.935 -2.02417 -2.98429 0
M  V30 3305 O 312.039 -1.3714 -3.8893 0
M  V30 3306 H 311.38 -0.434325 -0.502253 0
M  V30 3307 H 313.91 -1.74661 -1.06558 0
M  V30 3308 H 313.92 -2.12559 -3.48257 0
M  V30 3309 H 312.595 -3.06343 -2.81295 0
M  V30 3310 H 311.172 -1.3554 -3.47395 0
M  V30 3311 N 313.357 1.07166 -1.15556 0
M  V30 3312 C 314.604 1.79798 -0.931604 0
M  V30 3313 C 314.932 1.8682 0.54115 0
M  V30 3314 O 314.187 1.34942 1.41736 0
M  V30 3315 C 314.486 3.24707 -1.49332 0
M  V30 3316 C 314.152 3.37781 -2.98688 0
M  V30 3317 C 312.814 3.41057 -3.39461 0
M  V30 3318 C 315.166 3.40424 -3.94665 0
M  V30 3319 C 312.494 3.4458 -4.74849 0
M  V30 3320 C 314.846 3.45485 -5.29927 0
M  V30 3321 C 313.51 3.47039 -5.70193 0
M  V30 3322 H 312.78 0.657928 -0.340898 0
M  V30 3323 H 315.427 1.26091 -1.44129 0
M  V30 3324 H 313.732 3.81208 -0.904859 0
M  V30 3325 H 315.429 3.79486 -1.29582 0
M  V30 3326 H 312.019 3.35932 -2.66172 0
M  V30 3327 H 316.203 3.37113 -3.64237 0
M  V30 3328 H 311.459 3.44083 -5.05388 0
M  V30 3329 H 315.633 3.46476 -6.04092 0
M  V30 3330 H 313.26 3.49522 -6.75084 0
M  V30 3331 N 314.835 0.952656 1.25548 0
M  V30 3332 C 315.768 0.415525 2.24385 0
M  V30 3333 C 316.746 -0.502046 1.54655 0
M  V30 3334 O 317.93 -0.436875 1.83368 0
M  V30 3335 C 315.057 -0.401734 3.36309 0
M  V30 3336 C 314.103 0.455949 4.24056 0
M  V30 3337 S 314.936 1.88698 5.01152 0
M  V30 3338 C 316.092 1.07809 6.16545 0
M  V30 3339 H 316.325 1.25315 2.69599 0
M  V30 3340 H 313.858 0.756587 1.34592 0
M  V30 3341 H 315.816 -0.867329 4.01233 0
M  V30 3342 H 314.477 -1.21416 2.89684 0
M  V30 3343 H 313.67 -0.170776 5.03711 0
M  V30 3344 H 313.272 0.856675 3.64056 0
M  V30 3345 H 315.564 0.325816 6.76716 0
M  V30 3346 H 316.507 1.84849 6.83547 0
M  V30 3347 H 316.915 0.60909 5.61204 0
M  V30 3348 N 316.313 -1.40141 0.720998 0
M  V30 3349 C 317.561 -2.0039 0.262323 0
M  V30 3350 C 317.882 -1.57469 -1.15015 0
M  V30 3351 O 317.152 -0.816582 -1.78069 0
M  V30 3352 H 315.732 -0.741063 0.093996 0
M  V30 3353 H 318.394 -1.71398 0.927835 0
M  V30 3354 H 317.49 -3.10658 0.299671 0
M  V30 3355 N 317.792 -0.46758 -1.50504 0
M  V30 3356 C 318.755 0.317059 -2.26996 0
M  V30 3357 C 319.755 0.923513 -1.31635 0
M  V30 3358 O 320.945 0.793239 -1.55091 0
M  V30 3359 C 318.077 1.45134 -3.08462 0
M  V30 3360 H 319.27 -0.353723 -2.97807 0
M  V30 3361 H 316.823 -0.221545 -1.54722 0
M  V30 3362 H 317.558 2.15728 -2.4214 0
M  V30 3363 H 317.343 1.02232 -3.78538 0
M  V30 3364 H 318.833 2.00493 -3.66323 0
M  V30 3365 N 319.27 1.56325 -0.20005 0
M  V30 3366 C 320.517 1.97719 0.437411 0
M  V30 3367 C 320.845 1.08709 1.61284 0
M  V30 3368 O 320.1 0.127261 1.95286 0
M  V30 3369 C 320.399 3.4495 0.935103 0
M  V30 3370 C 320.065 4.5072 -0.12749 0
M  V30 3371 C 318.727 4.79368 -0.419451 0
M  V30 3372 C 321.079 5.14268 -0.847231 0
M  V30 3373 C 318.407 5.68854 -1.43604 0
M  V30 3374 C 320.759 6.04852 -1.85301 0
M  V30 3375 C 319.423 6.31855 -2.15211 0
M  V30 3376 H 318.693 0.723507 0.16006 0
M  V30 3377 H 321.34 1.89166 -0.298056 0
M  V30 3378 H 319.645 3.50599 1.74894 0
M  V30 3379 H 321.342 3.74337 1.43781 0
M  V30 3380 H 317.932 4.28458 0.11023 0
M  V30 3381 H 322.116 4.92222 -0.634901 0
M  V30 3382 H 317.372 5.88047 -1.67364 0
M  V30 3383 H 321.546 6.53152 -2.41591 0
M  V30 3384 H 319.173 7.00994 -2.94129 0
M  V30 3385 N 320.748 -0.0735177 1.57428 0
M  V30 3386 C 321.698 -1.09442 2.00016 0
M  V30 3387 C 322.682 -1.34575 0.881947 0
M  V30 3388 O 323.874 -1.34905 1.14585 0
M  V30 3389 C 321.003 -2.40865 2.4462 0
M  V30 3390 C 320.089 -2.19014 3.63172 0
M  V30 3391 N 320.48 -1.67087 4.77405 0
M  V30 3392 C 318.778 -2.49494 3.69688 0
M  V30 3393 C 319.479 -1.6001 5.5926 0
M  V30 3394 N 318.455 -2.05999 5.03056 0
M  V30 3395 H 322.257 -0.686227 2.85776 0
M  V30 3396 H 319.771 -0.280617 1.59957 0
M  V30 3397 H 321.768 -3.14763 2.73368 0
M  V30 3398 H 320.428 -2.82403 1.60246 0
M  V30 3399 H 321.439 -1.35975 4.99731 0
M  V30 3400 H 318.116 -2.94409 2.96023 0
M  V30 3401 H 319.506 -1.2073 6.60964 0
M  V30 3402 N 322.226 -1.5378 -0.344866 0
M  V30 3403 C 323.474 -1.70625 -1.08311 0
M  V30 3404 C 323.795 -0.471447 -1.89215 0
M  V30 3405 O 323.065 0.514616 -1.8902 0
M  V30 3406 H 321.645 -0.629058 -0.402859 0
M  V30 3407 H 324.307 -1.9103 -0.386459 0
M  V30 3408 H 323.403 -2.57656 -1.76124 0
M  V30 3409 N 323.704 0.605807 -1.45491 0
M  V30 3410 C 325.12 0.926751 -1.29936 0
M  V30 3411 C 325.32 1.99896 -0.253706 0
M  V30 3412 O 324.376 2.50038 0.351737 0
M  V30 3413 C 325.689 1.36599 -2.67883 0
M  V30 3414 C 327.237 1.4801 -2.75793 0
M  V30 3415 C 327.712 1.95309 -4.14268 0
M  V30 3416 N 329.203 2.0254 -4.16571 0
M  V30 3417 C 329.938 2.40363 -5.20589 0
M  V30 3418 N 329.434 2.77143 -6.34952 0
M  V30 3419 N 331.227 2.40718 -5.07948 0
M  V30 3420 H 323.378 -0.102862 -2.12151 0
M  V30 3421 H 325.641 0.016639 -0.947854 0
M  V30 3422 H 325.347 0.652306 -3.45598 0
M  V30 3423 H 325.221 2.33215 -2.96463 0
M  V30 3424 H 327.608 2.1847 -1.98381 0
M  V30 3425 H 327.689 0.497041 -2.50925 0
M  V30 3426 H 327.333 1.25436 -4.92167 0
M  V30 3427 H 327.263 2.94532 -4.3653 0
M  V30 3428 H 329.754 1.76699 -3.34045 0
M  V30 3429 H 330.067 3.0489 -7.10114 0
M  V30 3430 H 328.412 2.74834 -6.3835 0
M  V30 3431 H 331.603 2.11392 -4.1765 0
M  V30 3432 H 331.776 2.69869 -5.89131 0
M  V30 3433 N 325.182 1.32811 0.848464 0
M  V30 3434 C 326.41 1.26739 1.63538 0
M  V30 3435 C 326.825 -0.163484 1.88091 0
M  V30 3436 O 326.182 -1.10258 1.45429 0
M  V30 3437 C 326.233 2.03013 2.99112 0
M  V30 3438 O 325.954 3.40518 2.75643 0
M  V30 3439 C 327.455 2.04038 3.93552 0
M  V30 3440 H 324.675 0.437024 0.509167 0
M  V30 3441 H 327.219 1.75033 1.05753 0
M  V30 3442 H 325.374 1.58426 3.53525 0
M  V30 3443 H 325.788 3.79635 3.61908 0
M  V30 3444 H 327.262 2.61877 4.85926 0
M  V30 3445 H 327.739 1.0282 4.26995 0
M  V30 3446 H 328.345 2.486 3.45077 0
M  V30 3447 N 326.66 -1.06551 1.16123 0
M  V30 3448 C 327.593 -2.13382 0.80892 0
M  V30 3449 C 328.571 -1.61128 -0.21827 0
M  V30 3450 O 329.755 -1.88219 -0.102952 0
M  V30 3451 C 326.882 -3.38083 0.204303 0
M  V30 3452 C 325.928 -4.09133 1.20469 0
M  V30 3453 S 326.761 -4.5948 2.75024 0
M  V30 3454 C 327.917 -5.87446 2.16005 0
M  V30 3455 H 328.15 -2.42937 1.71373 0
M  V30 3456 H 325.683 -1.18947 0.984428 0
M  V30 3457 H 327.641 -4.10268 -0.138081 0
M  V30 3458 H 326.302 -3.0669 -0.678234 0
M  V30 3459 H 325.495 -4.98685 0.730019 0
M  V30 3460 H 325.097 -3.4295 1.49202 0
M  V30 3461 H 327.389 -6.60065 1.5271 0
M  V30 3462 H 328.332 -6.39639 3.03756 0
M  V30 3463 H 328.74 -5.41354 1.59989 0
M  V30 3464 N 328.138 -0.959301 -1.25041 0
M  V30 3465 C 329.386 -0.615393 -1.92503 0
M  V30 3466 C 329.707 0.850969 -1.75452 0
M  V30 3467 O 328.977 1.60658 -1.12098 0
M  V30 3468 H 327.557 -0.224613 -0.712431 0
M  V30 3469 H 330.219 -1.21855 -1.5211 0
M  V30 3470 H 329.315 -0.848738 -3.00338 0
M  V30 3471 N 329.616 1.39756 -0.72842 0
M  V30 3472 C 330.856 2.025 -0.278078 0
M  V30 3473 C 331.22 1.5654 1.11173 0
M  V30 3474 O 332.421 2.11435 1.65978 0
M  V30 3475 C 330.692 3.55489 -0.369139 0
M  V30 3476 S 332.251 4.388 0.00232983 0
M  V30 3477 H 329.069 0.702534 -0.109391 0
M  V30 3478 H 331.671 1.70672 -0.95348 0
M  V30 3479 H 330.375 3.86429 -1.38204 0
M  V30 3480 H 329.906 3.92061 0.324308 0
M  V30 3481 H 331.921 4.80954 1.22055 0
M  V30 3482 N 331.094 0.475555 1.50254 0
M  V30 3483 C 332.024 -0.30611 2.31485 0
M  V30 3484 C 333.005 -0.986228 1.38591 0
M  V30 3485 O 334.19 -0.982541 1.67511 0
M  V30 3486 C 331.32 -1.38588 3.1845 0
M  V30 3487 C 330.274 -0.827115 4.19932 0
M  V30 3488 C 329.6 -2.00551 4.95665 0
M  V30 3489 C 330.9 0.16463 5.2204 0
M  V30 3490 H 332.594 0.371866 2.97082 0
M  V30 3491 H 330.14 0.180282 1.42867 0
M  V30 3492 H 332.093 -1.94023 3.74076 0
M  V30 3493 H 330.817 -2.09269 2.50747 0
M  V30 3494 H 329.476 -0.294702 3.65414 0
M  V30 3495 H 329.124 -2.6994 4.2443 0
M  V30 3496 H 328.824 -1.63784 5.64313 0
M  V30 3497 H 330.348 -2.56468 5.54127 0
M  V30 3498 H 331.762 -0.300699 5.72511 0
M  V30 3499 H 330.159 0.446813 5.98434 0
M  V30 3500 H 331.229 1.08905 4.72512 0
M  V30 3501 N 332.573 -1.56217 0.208337 0
M  V30 3502 C 333.536 -2.18455 -0.693557 0
M  V30 3503 C 334.536 -1.14268 -1.13135 0
M  V30 3504 O 335.726 -1.39577 -1.0423 0
M  V30 3505 C 332.858 -2.79727 -1.94848 0
M  V30 3506 H 334.051 -2.99519 -0.15114 0
M  V30 3507 H 331.604 -1.56245 -0.041287 0
M  V30 3508 H 332.339 -2.02497 -2.53309 0
M  V30 3509 H 332.124 -3.56009 -1.64316 0
M  V30 3510 H 333.614 -3.27475 -2.59133 0
M  V30 3511 N 334.051 0.0651679 -1.57465 0
M  V30 3512 C 335.279 0.775808 -1.91804 0
M  V30 3513 C 335.694 1.70782 -0.804916 0
M  V30 3514 O 335.051 1.81153 0.221311 0
M  V30 3515 C 335.102 1.56381 -3.25925 0
M  V30 3516 O 334.823 0.669248 -4.32958 0
M  V30 3517 C 336.324 2.37485 -3.7432 0
M  V30 3518 H 333.544 0.2202 -0.63384 0
M  V30 3519 H 336.088 0.0334587 -2.04473 0
M  V30 3520 H 334.243 2.25837 -3.14764 0
M  V30 3521 H 334.657 1.21801 -5.10162 0
M  V30 3522 H 336.131 2.88223 -4.70778 0
M  V30 3523 H 336.608 3.17307 -3.03666 0
M  V30 3524 H 337.214 1.73173 -3.88447 0
M  V30 3525 N 335.529 1.53961 0.336706 0
M  V30 3526 C 336.757 1.75483 1.09605 0
M  V30 3527 C 337.172 0.4972 1.82136 0
M  V30 3528 O 336.529 -0.53149 1.74589 0
M  V30 3529 C 336.58 2.93943 2.10428 0
M  V30 3530 O 336.301 4.14842 1.40846 0
M  V30 3531 C 337.802 3.27571 2.98684 0
M  V30 3532 H 335.022 0.586166 0.326574 0
M  V30 3533 H 337.566 2.00808 0.38683 0
M  V30 3534 H 335.721 2.70929 2.76905 0
M  V30 3535 H 336.135 4.81383 2.08255 0
M  V30 3536 H 337.609 4.13791 3.6535 0
M  V30 3537 H 338.086 2.44168 3.65074 0
M  V30 3538 H 338.692 3.52615 2.37787 0
M  V30 3539 N 337.007 -0.598083 1.45811 0
M  V30 3540 C 337.957 -1.70272 1.51629 0
M  V30 3541 C 338.941 -1.56382 0.378629 0
M  V30 3542 O 340.133 -1.65557 0.626087 0
M  V30 3543 C 337.262 -3.09042 1.49493 0
M  V30 3544 C 336.348 -3.28284 2.68496 0
M  V30 3545 N 336.739 -3.17748 3.93535 0
M  V30 3546 C 335.037 -3.59182 2.64394 0
M  V30 3547 C 335.738 -3.38579 4.7301 0
M  V30 3548 N 334.714 -3.63016 4.04624 0
M  V30 3549 H 338.516 -1.60634 2.46118 0
M  V30 3550 H 336.03 -0.801642 1.41235 0
M  V30 3551 H 338.027 -3.88302 1.51747 0
M  V30 3552 H 336.687 -3.19823 0.560683 0
M  V30 3553 H 337.698 -2.95944 4.25014 0
M  V30 3554 H 334.375 -3.76742 1.79922 0
M  V30 3555 H 335.765 -3.35747 5.82 0
M  V30 3556 N 338.485 -1.33259 -0.841409 0
M  V30 3557 C 339.71 -1.2775 -1.63385 0
M  V30 3558 C 340.135 0.149188 -1.87507 0
M  V30 3559 O 339.493 1.10498 -1.43736 0
M  V30 3560 C 339.541 -2.05571 -2.96265 0
M  V30 3561 O 338.645 -1.41257 -3.87453 0
M  V30 3562 H 337.986 -0.439627 -0.497618 0
M  V30 3563 H 340.516 -1.75782 -1.04699 0
M  V30 3564 H 340.526 -2.16241 -3.45982 0
M  V30 3565 H 339.201 -3.09309 -2.7803 0
M  V30 3566 H 337.778 -1.39217 -3.45938 0
M  V30 3567 N 339.963 1.05934 -1.16686 0
M  V30 3568 C 340.91 2.13499 -0.876748 0
M  V30 3569 C 341.88 1.65162 0.176299 0
M  V30 3570 O 343.065 1.90757 0.0407143 0
M  V30 3571 C 340.205 3.42912 -0.387967 0
M  V30 3572 C 339.318 4.04964 -1.50426 0
M  V30 3573 C 338.453 5.22266 -0.970125 0
M  V30 3574 C 337.492 5.76309 -2.06238 0
M  V30 3575 N 336.629 6.84922 -1.54356 0
M  V30 3576 H 341.469 2.37654 -1.7979 0
M  V30 3577 H 339.006 1.16598 -0.896843 0
M  V30 3578 H 340.964 4.17111 -0.086186 0
M  V30 3579 H 339.594 3.18963 0.496235 0
M  V30 3580 H 338.646 3.28277 -1.92193 0
M  V30 3581 H 339.958 4.41122 -2.32836 0
M  V30 3582 H 339.112 6.03506 -0.621743 0
M  V30 3583 H 337.851 4.87564 -0.115377 0
M  V30 3584 H 336.856 4.93704 -2.41942 0
M  V30 3585 H 338.081 6.13062 -2.92115 0
M  V30 3586 H 336.027 6.52131 -0.711406 0
M  V30 3587 H 335.944 7.20043 -2.30379 0
M  V30 3588 H 337.212 7.69832 -1.22387 0
M  V30 3589 N 341.441 0.965919 1.2453 0
M  V30 3590 C 342.404 0.499547 2.2369 0
M  V30 3591 C 343.404 -0.40294 1.5567 0
M  V30 3592 O 344.594 -0.19865 1.73064 0
M  V30 3593 C 341.726 -0.276792 3.39774 0
M  V30 3594 H 342.919 1.37613 2.66463 0
M  V30 3595 H 340.472 0.750324 1.37112 0
M  V30 3596 H 341.207 -1.17055 3.02438 0
M  V30 3597 H 340.992 0.370826 3.90343 0
M  V30 3598 H 342.482 -0.592175 4.1338 0
M  V30 3599 N 342.919 -1.39368 0.735821 0
M  V30 3600 C 344.168 -1.99733 0.281004 0
M  V30 3601 C 344.481 -1.59055 -1.13846 0
M  V30 3602 O 345.687 -2.12262 -1.69284 0
M  V30 3603 C 344.143 -3.57057 0.451462 0
M  V30 3604 C 343.751 -4.06697 1.87886 0
M  V30 3605 C 345.495 -4.2446 0.0584616 0
M  V30 3606 C 343.402 -5.56598 1.99883 0
M  V30 3607 H 342.332 -0.747163 0.101311 0
M  V30 3608 H 344.983 -1.59357 0.909819 0
M  V30 3609 H 343.365 -3.95234 -0.246263 0
M  V30 3610 H 344.539 -3.79853 2.60861 0
M  V30 3611 H 342.854 -3.5196 2.22515 0
M  V30 3612 H 345.451 -5.34549 0.127099 0
M  V30 3613 H 345.794 -4.04444 -0.986433 0
M  V30 3614 H 346.327 -3.9146 0.707374 0
M  V30 3615 H 343.066 -5.81494 3.02564 0
M  V30 3616 H 342.586 -5.85242 1.31346 0
M  V30 3617 H 344.265 -6.22022 1.78039 0
M  V30 3618 N 344.397 -0.483516 -1.5 0
M  V30 3619 C 345.347 0.32306 -2.257 0
M  V30 3620 C 346.331 0.950755 -1.29805 0
M  V30 3621 O 347.523 0.861247 -1.54634 0
M  V30 3622 C 344.652 1.39724 -3.13579 0
M  V30 3623 C 343.738 0.776663 -4.16928 0
M  V30 3624 N 344.129 -0.1104 -5.0568 0
M  V30 3625 C 342.427 1.03922 -4.33724 0
M  V30 3626 C 343.128 -0.46387 -5.79848 0
M  V30 3627 N 342.104 0.163987 -5.43353 0
M  V30 3628 H 345.906 -0.360086 -2.91686 0
M  V30 3629 H 343.42 -0.298456 -1.59634 0
M  V30 3630 H 345.417 1.98837 -3.66428 0
M  V30 3631 H 344.077 2.08225 -2.49143 0
M  V30 3632 H 345.088 -0.480069 -5.1567 0
M  V30 3633 H 341.765 1.71829 -3.80501 0
M  V30 3634 H 343.155 -1.18854 -6.61304 0
M  V30 3635 N 345.875 1.56104 -0.216619 0
M  V30 3636 C 346.822 2.2007 0.695531 0
M  V30 3637 C 347.792 1.15471 1.19397 0
M  V30 3638 O 348.977 1.43807 1.25396 0
M  V30 3639 C 346.117 2.88073 1.90021 0
M  V30 3640 C 345.23 4.07253 1.44113 0
M  V30 3641 C 344.365 4.63052 2.603 0
M  V30 3642 C 343.404 5.74545 2.11103 0
M  V30 3643 N 342.541 6.24656 3.20545 0
M  V30 3644 H 347.381 2.97655 0.143327 0
M  V30 3645 H 344.918 1.46982 0.0589934 0
M  V30 3646 H 346.876 3.25681 2.60745 0
M  V30 3647 H 345.506 2.13015 2.42538 0
M  V30 3648 H 344.558 3.75164 0.628999 0
M  V30 3649 H 345.87 4.8783 1.04036 0
M  V30 3650 H 345.024 5.03078 3.39113 0
M  V30 3651 H 343.763 3.81628 3.03663 0
M  V30 3652 H 342.768 5.34027 1.3075 0
M  V30 3653 H 343.993 6.57801 1.68746 0
M  V30 3654 H 341.939 5.46148 3.63399 0
M  V30 3655 H 341.856 7.00343 2.84704 0
M  V30 3656 H 343.124 6.69338 3.99508 0
M  V30 3657 N 347.353 -0.0568162 1.57498 0
M  V30 3658 C 348.602 -0.752001 1.87157 0
M  V30 3659 C 348.915 -1.77978 0.811375 0
M  V30 3660 O 350.121 -2.52559 0.996293 0
M  V30 3661 C 348.577 -1.38844 3.3204 0
M  V30 3662 C 348.185 -0.398456 4.46225 0
M  V30 3663 C 349.929 -2.06512 3.70882 0
M  V30 3664 C 347.836 -1.04166 5.82154 0
M  V30 3665 H 346.766 -0.28461 0.698222 0
M  V30 3666 H 349.417 -0.00561272 1.83499 0
M  V30 3667 H 347.799 -2.1836 3.30356 0
M  V30 3668 H 348.973 0.367977 4.59328 0
M  V30 3669 H 347.288 0.174592 4.16034 0
M  V30 3670 H 349.885 -2.55437 4.6974 0
M  V30 3671 H 350.228 -2.87117 3.01445 0
M  V30 3672 H 350.761 -1.33808 3.7462 0
M  V30 3673 H 347.5 -0.275614 6.5492 0
M  V30 3674 H 347.02 -1.7786 5.72823 0
M  V30 3675 H 348.699 -1.55715 6.27982 0
M  V30 3676 N 348.832 -1.54138 -0.328536 0
M  V30 3677 C 350.109 -1.62749 -1.08499 0
M  V30 3678 C 350.489 -0.458198 -2.06067 0
M  V30 3679 O 349.837 0.548046 -2.2183 0
M  V30 3680 C 350.047 -2.99519 -1.79135 0
M  V30 3681 C 351.395 -3.55394 -2.32337 0
M  V30 3682 O 352.419 -3.01792 -1.89209 0
M  V30 3683 O 351.278 -4.49186 -3.11279 0
M  V30 3684 H 348.372 -0.65886 -0.499832 0
M  V30 3685 H 350.918 -1.66484 -0.328826 0
M  V30 3686 H 349.69 -3.76061 -1.08139 0
M  V30 3687 H 349.313 -2.99441 -2.61574 0
M  V30 3688 N 350.31 0.590341 -1.46126 0
M  V30 3689 C 351.559 1.34499 -1.50309 0
M  V30 3690 C 351.872 1.94977 -0.156021 0
M  V30 3691 O 353.078 2.71395 -0.0756037 0
M  V30 3692 C 351.534 2.43723 -2.64815 0
M  V30 3693 C 351.142 1.89582 -4.0591 0
M  V30 3694 C 352.886 3.20579 -2.78262 0
M  V30 3695 C 350.793 2.9639 -5.11769 0
M  V30 3696 H 349.723 0.505593 -0.559368 0
M  V30 3697 H 352.374 0.630848 -1.72315 0
M  V30 3698 H 350.756 3.17902 -2.36124 0
M  V30 3699 H 351.93 1.21997 -4.44357 0
M  V30 3700 H 350.245 1.25418 -3.97063 0
M  V30 3701 H 352.842 4.00276 -3.54519 0
M  V30 3702 H 353.185 3.72684 -1.85505 0
M  V30 3703 H 353.718 2.53505 -3.06562 0
M  V30 3704 H 350.457 2.49181 -6.06291 0
M  V30 3705 H 349.977 3.62487 -4.77873 0
M  V30 3706 H 351.656 3.60474 -5.37278 0
M  V30 3707 N 351.788 1.33704 0.83433 0
M  V30 3708 C 353.199 1.22813 1.4062 0
M  V30 3709 C 353.55 -0.151107 1.95617 0
M  V30 3710 O 352.675 -1.05092 1.89168 0
M  V30 3711 C 353.27 2.22355 2.55624 0
M  V30 3712 C 351.829 2.1529 3.08751 0
M  V30 3713 C 350.976 2.09589 1.8157 0
M  V30 3714 H 353.927 1.45236 0.639702 0
M  V30 3715 H 353.948 1.83391 3.33389 0
M  V30 3716 H 353.46 3.22728 2.15566 0
M  V30 3717 H 351.561 1.18235 3.53343 0
M  V30 3718 H 351.674 3.06038 3.68616 0
M  V30 3719 H 350.038 1.55134 2.02004 0
M  V30 3720 H 350.821 3.11777 1.43701 0
M  V30 3721 N 353.266 -1.05314 1.17247 0
M  V30 3722 C 354.491 -1.82509 0.985148 0
M  V30 3723 C 354.916 -1.82343 -0.461788 0
M  V30 3724 O 354.274 -1.23151 -1.33055 0
M  V30 3725 C 354.322 -3.26566 1.52929 0
M  V30 3726 O 353.426 -4.05666 0.742225 0
M  V30 3727 H 352.767 -0.564347 0.349869 0
M  V30 3728 H 355.297 -1.32718 1.55715 0
M  V30 3729 H 355.307 -3.77369 1.55103 0
M  V30 3730 H 353.982 -3.26001 2.58256 0
M  V30 3731 H 352.559 -3.64397 0.791794 0
M  V30 3732 N 354.744 -0.972509 -1.24016 0
M  V30 3733 C 355.991 -0.637034 -1.92219 0
M  V30 3734 C 356.319 0.828418 -1.75976 0
M  V30 3735 O 355.574 1.61206 -1.10955 0
M  V30 3736 C 355.873 -0.963694 -3.44162 0
M  V30 3737 C 355.539 -2.41807 -3.80579 0
M  V30 3738 C 354.201 -2.81556 -3.9023 0
M  V30 3739 C 356.553 -3.36172 -3.98293 0
M  V30 3740 C 353.881 -4.14702 -4.15017 0
M  V30 3741 C 356.233 -4.68952 -4.24578 0
M  V30 3742 C 354.897 -5.08472 -4.32449 0
M  V30 3743 H 354.167 -0.233107 -0.703379 0
M  V30 3744 H 356.814 -1.2249 -1.47202 0
M  V30 3745 H 355.119 -0.29365 -3.90698 0
M  V30 3746 H 356.816 -0.682449 -3.9515 0
M  V30 3747 H 353.406 -2.09988 -3.73635 0
M  V30 3748 H 357.59 -3.06644 -3.90234 0
M  V30 3749 H 352.846 -4.4494 -4.19331 0
M  V30 3750 H 357.02 -5.42037 -4.37229 0
M  V30 3751 H 354.647 -6.11665 -4.51409 0
M  V30 3752 N 356.222 1.38976 -0.743202 0
M  V30 3753 C 357.499 1.94351 -0.220705 0
M  V30 3754 C 357.879 1.67935 1.2791 0
M  V30 3755 O 357.227 1.01211 2.04862 0
M  V30 3756 C 357.437 3.44426 -0.563171 0
M  V30 3757 C 358.785 4.2144 -0.517046 0
M  V30 3758 O 359.809 3.52661 -0.500846 0
M  V30 3759 O 358.668 5.44032 -0.518806 0
M  V30 3760 H 355.762 0.825879 -0.043047 0
M  V30 3761 H 358.308 1.48429 -0.822618 0
M  V30 3762 H 357.08 3.5712 -1.59941 0
M  V30 3763 H 356.703 3.97543 0.0672883 0
M  V30 3764 N 357.7 0.491464 1.49741 0
M  V30 3765 C 358.946 -0.0485431 2.03342 0
M  V30 3766 C 359.301 -1.35566 1.36527 0
M  V30 3767 O 358.594 -1.85262 0.488729 0
M  V30 3768 C 358.788 -0.267329 3.56399 0
M  V30 3769 C 358.617 1.01703 4.38049 0
M  V30 3770 C 357.387 1.56614 4.80417 0
M  V30 3771 C 359.585 1.91782 4.77204 0
M  V30 3772 N 357.567 2.7974 5.4646 0
M  V30 3773 C 358.938 2.99489 5.42868 0
M  V30 3774 C 360.993 1.92575 4.5915 0
M  V30 3775 C 359.696 4.08005 5.92389 0
M  V30 3776 C 361.722 3.0006 5.09626 0
M  V30 3777 C 361.084 4.06485 5.75282 0
M  V30 3778 H 357.183 0.0227779 0.781668 0
M  V30 3779 H 359.767 0.664204 1.8302 0
M  V30 3780 H 357.938 -0.949126 3.76625 0
M  V30 3781 H 359.67 -0.803492 3.96644 0
M  V30 3782 H 356.425 1.11256 4.60347 0
M  V30 3783 H 356.849 3.42323 5.84075 0
M  V30 3784 H 361.491 1.11605 4.07804 0
M  V30 3785 H 359.209 4.89779 6.42761 0
M  V30 3786 H 362.795 3.01681 4.97473 0
M  V30 3787 H 361.675 4.88287 6.13633 0
M  V30 3788 N 359.178 -1.55987 0.224894 0
M  V30 3789 C 360.589 -1.84553 -0.282345 0
M  V30 3790 C 360.94 -1.14634 -1.59227 0
M  V30 3791 O 360.065 -0.417155 -2.12341 0
M  V30 3792 C 360.66 -3.348 -0.519062 0
M  V30 3793 C 359.219 -3.63671 -0.970604 0
M  V30 3794 C 358.366 -2.77277 -0.0355261 0
M  V30 3795 H 361.317 -1.52245 0.448006 0
M  V30 3796 H 361.338 -3.55187 -1.36463 0
M  V30 3797 H 360.85 -3.8566 0.43449 0
M  V30 3798 H 358.951 -3.1827 -1.9374 0
M  V30 3799 H 359.064 -4.71631 -0.842698 0
M  V30 3800 H 357.428 -2.48846 -0.542927 0
M  V30 3801 H 358.211 -3.30937 0.913003 0
M  V30 3802 N 360.656 0.0484629 -1.57525 0
M  V30 3803 C 361.905 0.742065 -1.87553 0
M  V30 3804 C 362.218 1.77545 -0.820802 0
M  V30 3805 O 363.424 2.52027 -1.00967 0
M  V30 3806 C 361.88 1.37081 -3.32771 0
M  V30 3807 C 361.488 0.374786 -4.4643 0
M  V30 3808 C 363.232 2.04542 -3.71972 0
M  V30 3809 C 361.139 1.01077 -5.82698 0
M  V30 3810 H 360.069 0.280903 -0.699721 0
M  V30 3811 H 362.72 -0.00411877 -1.835 0
M  V30 3812 H 361.102 2.16605 -3.31509 0
M  V30 3813 H 362.276 -0.392331 -4.59127 0
M  V30 3814 H 360.591 -0.196653 -4.15935 0
M  V30 3815 H 363.188 2.52943 -4.71088 0
M  V30 3816 H 363.531 2.85515 -3.02964 0
M  V30 3817 H 364.064 1.31819 -3.75325 0
M  V30 3818 H 360.803 0.240878 -6.55057 0
M  V30 3819 H 360.323 1.74819 -5.73758 0
M  V30 3820 H 362.002 1.52383 -6.28799 0
M  V30 3821 N 362.134 1.5431 0.320358 0
M  V30 3822 C 363.097 1.83195 1.3774 0
M  V30 3823 C 364.097 0.703906 1.44575 0
M  V30 3824 O 365.287 0.972214 1.44546 0
M  V30 3825 C 362.419 1.99487 2.76438 0
M  V30 3826 H 363.612 2.77642 1.1338 0
M  V30 3827 H 361.165 1.46076 0.556012 0
M  V30 3828 H 361.9 1.07262 3.06048 0
M  V30 3829 H 361.685 2.81575 2.7287 0
M  V30 3830 H 363.175 2.23271 3.52902 0
M  V30 3831 N 363.613 -0.582584 1.46437 0
M  V30 3832 C 365.024 -1.1647 1.45916 0
M  V30 3833 C 365.375 -1.95177 0.200077 0
M  V30 3834 O 364.5 -2.04874 -0.696819 0
M  V30 3835 C 365.095 -2.11885 2.64367 0
M  V30 3836 C 363.654 -2.65421 2.66887 0
M  V30 3837 C 362.801 -1.41294 2.38603 0
M  V30 3838 H 365.752 -0.370514 1.54314 0
M  V30 3839 H 365.773 -2.9535 2.39892 0
M  V30 3840 H 365.285 -1.54573 3.5599 0
M  V30 3841 H 363.386 -3.26602 1.79338 0
M  V30 3842 H 363.499 -3.08147 3.66854 0
M  V30 3843 H 361.863 -1.71109 1.88663 0
M  V30 3844 H 362.646 -0.858125 3.32402 0
M  V30 3845 N 365.091 -1.34144 -0.827227 0
M  V30 3846 C 366.338 -1.26258 -1.58319 0
M  V30 3847 C 366.666 0.168595 -1.93768 0
M  V30 3848 O 365.921 1.12877 -1.59866 0
M  V30 3849 C 366.22 -2.09464 -2.89585 0
M  V30 3850 C 365.886 -3.58521 -2.73448 0
M  V30 3851 C 364.548 -3.99155 -2.68754 0
M  V30 3852 C 366.9 -4.53189 -2.57428 0
M  V30 3853 C 364.228 -5.32656 -2.45957 0
M  V30 3854 C 366.58 -5.86864 -2.36163 0
M  V30 3855 C 365.244 -6.26667 -2.29879 0
M  V30 3856 H 364.514 -0.462013 -0.579332 0
M  V30 3857 H 367.161 -1.65845 -0.95748 0
M  V30 3858 H 365.466 -1.62692 -3.56425 0
M  V30 3859 H 367.163 -2.00712 -3.47154 0
M  V30 3860 H 363.753 -3.26264 -2.77939 0
M  V30 3861 H 367.937 -4.22696 -2.60081 0
M  V30 3862 H 363.193 -5.62519 -2.39546 0
M  V30 3863 H 367.367 -6.59813 -2.22754 0
M  V30 3864 H 364.994 -7.30049 -2.11975 0
M  V30 3865 N 366.569 1.04691 -1.17803 0
M  V30 3866 C 367.98 1.59238 -0.974689 0
M  V30 3867 C 368.331 1.90306 0.477292 0
M  V30 3868 O 367.456 1.68846 1.35352 0
M  V30 3869 C 368.051 2.89318 -1.76296 0
M  V30 3870 C 366.61 3.40506 -1.60414 0
M  V30 3871 C 365.757 2.14172 -1.76141 0
M  V30 3872 H 368.708 0.874395 -1.32439 0
M  V30 3873 H 368.729 3.5944 -1.24833 0
M  V30 3874 H 368.241 2.66675 -2.81968 0
M  V30 3875 H 366.342 3.68175 -0.572519 0
M  V30 3876 H 366.455 4.14753 -2.39827 0
M  V30 3877 H 364.819 2.25176 -1.19028 0
M  V30 3878 H 365.602 1.93992 -2.83235 0
M  V30 3879 N 368.047 0.979072 1.23499 0
M  V30 3880 C 369.463 0.687475 1.44034 0
M  V30 3881 C 369.663 -0.746801 1.8715 0
M  V30 3882 O 368.719 -1.51939 2.0167 0
M  V30 3883 C 370.032 1.68127 2.49307 0
M  V30 3884 C 371.58 1.69516 2.63122 0
M  V30 3885 C 372.055 2.67723 3.71603 0
M  V30 3886 N 373.546 2.66233 3.79044 0
M  V30 3887 C 374.281 3.38891 4.62537 0
M  V30 3888 N 373.777 4.21103 5.50131 0
M  V30 3889 N 375.57 3.27661 4.56721 0
M  V30 3890 H 367.721 1.90559 0.938135 0
M  V30 3891 H 369.984 0.821051 0.473897 0
M  V30 3892 H 369.69 2.70693 2.2454 0
M  V30 3893 H 369.564 1.46306 3.4767 0
M  V30 3894 H 371.951 0.676561 2.8724 0
M  V30 3895 H 372.032 1.95404 1.65079 0
M  V30 3896 H 371.676 3.69724 3.48233 0
M  V30 3897 H 371.606 2.39111 4.69184 0
M  V30 3898 H 374.097 2.06568 3.16446 0
M  V30 3899 H 374.41 4.73403 6.10827 0
M  V30 3900 H 372.755 4.25195 5.49759 0
M  V30 3901 H 375.946 2.62887 3.87309 0
M  V30 3902 H 376.119 3.84547 5.21562 0
M  V30 3903 N 369.525 -1.3858 0.750561 0
M  V30 3904 C 370.455 -2.33102 0.136237 0
M  V30 3905 C 371.436 -1.54713 -0.706965 0
M  V30 3906 O 372.621 -1.83043 -0.648769 0
M  V30 3907 C 369.751 -3.38882 -0.760017 0
M  V30 3908 C 368.705 -4.27995 -0.0197785 0
M  V30 3909 C 368.031 -5.24605 -1.03408 0
M  V30 3910 C 369.331 -5.09554 1.14684 0
M  V30 3911 H 371.025 -2.84726 0.925822 0
M  V30 3912 H 368.571 -1.36898 0.446654 0
M  V30 3913 H 370.524 -4.0397 -1.19943 0
M  V30 3914 H 369.248 -2.85734 -1.58189 0
M  V30 3915 H 367.907 -3.64409 0.400184 0
M  V30 3916 H 367.555 -4.67746 -1.84994 0
M  V30 3917 H 367.255 -5.85081 -0.543464 0
M  V30 3918 H 368.779 -5.9257 -1.47288 0
M  V30 3919 H 370.193 -5.67899 0.785118 0
M  V30 3920 H 368.59 -5.7925 1.56812 0
M  V30 3921 H 369.66 -4.4347 1.96118 0
M  V30 3922 N 371.003 -0.499398 -1.49478 0
M  V30 3923 C 371.95 0.279881 -2.29097 0
M  V30 3924 C 372.92 0.961805 -1.3542 0
M  V30 3925 O 374.105 0.968777 -1.64376 0
M  V30 3926 C 371.245 1.33932 -3.18051 0
M  V30 3927 C 370.358 0.669333 -4.26783 0
M  V30 3928 C 369.493 1.70907 -5.02955 0
M  V30 3929 C 368.532 1.02087 -6.03527 0
M  V30 3930 N 367.669 2.00474 -6.7287 0
M  V30 3931 H 372.509 -0.405317 -2.95231 0
M  V30 3932 H 370.046 -0.211726 -1.45568 0
M  V30 3933 H 372.004 1.96553 -3.67998 0
M  V30 3934 H 370.634 1.9933 -2.53904 0
M  V30 3935 H 369.686 -0.0701234 -3.80335 0
M  V30 3936 H 370.998 0.127503 -4.98637 0
M  V30 3937 H 370.152 2.41037 -5.56764 0
M  V30 3938 H 368.891 2.28476 -4.30871 0
M  V30 3939 H 367.896 0.305338 -5.48951 0
M  V30 3940 H 369.121 0.451708 -6.77596 0
M  V30 3941 H 367.067 2.57007 -6.03559 0
M  V30 3942 H 366.984 1.51353 -7.40694 0
M  V30 3943 H 368.252 2.69897 -7.31284 0
M  V30 3944 N 372.481 1.55866 -0.233164 0
M  V30 3945 C 373.711 2.02704 0.399325 0
M  V30 3946 C 374.119 1.11204 1.53069 0
M  V30 3947 O 373.462 0.116182 1.83332 0
M  V30 3948 C 373.524 3.45844 0.981429 0
M  V30 3949 C 373.188 4.56997 -0.0159561 0
M  V30 3950 C 374.185 5.13384 -0.820552 0
M  V30 3951 C 371.87 5.0211 -0.138072 0
M  V30 3952 C 373.864 6.13365 -1.73386 0
M  V30 3953 C 371.551 6.01926 -1.0549 0
M  V30 3954 C 372.549 6.57431 -1.85132 0
M  V30 3955 O 372.237 7.55302 -2.75272 0
M  V30 3956 H 371.969 0.668459 0.100692 0
M  V30 3957 H 374.523 2.02387 -0.35052 0
M  V30 3958 H 372.753 3.43267 1.78058 0
M  V30 3959 H 374.442 3.76262 1.52255 0
M  V30 3960 H 375.208 4.79372 -0.736721 0
M  V30 3961 H 371.087 4.5858 0.471737 0
M  V30 3962 H 374.631 6.56614 -2.35592 0
M  V30 3963 H 370.528 6.35359 -1.1397 0
M  V30 3964 H 371.296 7.72867 -2.69477 0
M  V30 3965 N 373.959 -0.0401083 1.57549 0
M  V30 3966 C 375.37 -0.588097 1.77196 0
M  V30 3967 C 375.721 -1.76209 0.862832 0
M  V30 3968 O 374.846 -2.16331 0.0548389 0
M  V30 3969 C 375.441 -1.07363 3.21339 0
M  V30 3970 C 374 -1.56723 3.42221 0
M  V30 3971 C 373.147 -0.50041 2.72747 0
M  V30 3972 H 376.098 0.186119 1.57605 0
M  V30 3973 H 376.119 -1.94143 3.27244 0
M  V30 3974 H 375.631 -0.218975 3.87482 0
M  V30 3975 H 373.732 -2.4441 2.81237 0
M  V30 3976 H 373.845 -1.62234 4.50796 0
M  V30 3977 H 372.209 -0.952894 2.36203 0
M  V30 3978 H 372.992 0.344599 3.41566 0
M  V30 3979 N 375.437 -1.54477 -0.31217 0
M  V30 3980 C 376.367 -1.87652 -1.38957 0
M  V30 3981 C 377.348 -0.734358 -1.53431 0
M  V30 3982 O 378.533 -0.98911 -1.67123 0
M  V30 3983 C 375.663 -2.11396 -2.75552 0
M  V30 3984 C 374.617 -3.27243 -2.75855 0
M  V30 3985 C 373.943 -3.36382 -4.15633 0
M  V30 3986 C 375.243 -4.64622 -2.38587 0
M  V30 3987 H 376.937 -2.77887 -1.11442 0
M  V30 3988 H 374.483 -1.33707 -0.534655 0
M  V30 3989 H 376.436 -2.33189 -3.51 0
M  V30 3990 H 375.16 -1.17921 -3.04569 0
M  V30 3991 H 373.819 -3.05356 -2.02863 0
M  V30 3992 H 373.467 -2.40445 -4.41809 0
M  V30 3993 H 373.167 -4.14249 -4.1674 0
M  V30 3994 H 374.691 -3.60422 -4.92877 0
M  V30 3995 H 376.105 -4.86219 -3.03749 0
M  V30 3996 H 374.502 -5.45121 -2.50925 0
M  V30 3997 H 375.572 -4.66097 -1.33723 0
M  V30 3998 N 376.915 0.57481 -1.46744 0
M  V30 3999 C 377.825 1.711 -1.60505 0
M  V30 4000 C 378.841 1.67008 -0.488307 0
M  V30 4001 O 380.017 1.86774 -0.753495 0
M  V30 4002 C 377.082 3.07608 -1.59932 0
M  V30 4003 C 376.143 3.22904 -2.82898 0
M  V30 4004 C 375.376 4.529 -2.82343 0
M  V30 4005 O 375.599 5.37278 -1.91542 0
M  V30 4006 O 374.533 4.71611 -3.73987 0
M  V30 4007 H 378.359 1.62436 -2.56609 0
M  V30 4008 H 375.944 0.742779 -1.29627 0
M  V30 4009 H 377.826 3.88877 -1.62336 0
M  V30 4010 H 376.501 3.16692 -0.669898 0
M  V30 4011 H 375.408 2.41099 -2.86046 0
M  V30 4012 H 376.741 3.18715 -3.75076 0
M  V30 4013 N 378.394 1.34581 0.820102 0
M  V30 4014 C 379.304 1.28471 1.96297 0
M  V30 4015 C 380.32 0.191902 1.72939 0
M  V30 4016 O 381.496 0.418879 1.96996 0
M  V30 4017 C 378.561 1.04281 3.30645 0
M  V30 4018 C 377.622 2.22745 3.66992 0
M  V30 4019 C 376.855 1.997 4.9493 0
M  V30 4020 O 377.078 0.956656 5.6232 0
M  V30 4021 O 376.012 2.86723 5.2922 0
M  V30 4022 H 379.838 2.24624 2.04396 0
M  V30 4023 H 377.423 1.14816 0.955913 0
M  V30 4024 H 379.305 0.925841 4.11104 0
M  V30 4025 H 377.98 0.111697 3.23507 0
M  V30 4026 H 376.887 2.40003 2.86966 0
M  V30 4027 H 378.22 3.14257 3.78819 0
M  V30 4028 N 379.872 -1.04064 1.18357 0
M  V30 4029 C 381.119 -1.77265 0.978947 0
M  V30 4030 C 381.447 -1.88189 -0.491428 0
M  V30 4031 O 380.702 -1.38653 -1.38108 0
M  V30 4032 C 381.001 -3.20634 1.57888 0
M  V30 4033 C 380.667 -3.29743 3.07539 0
M  V30 4034 C 379.329 -3.31937 3.48384 0
M  V30 4035 C 381.681 -3.29841 4.03552 0
M  V30 4036 C 379.009 -3.3187 4.83818 0
M  V30 4037 C 381.361 -3.31313 5.38901 0
M  V30 4038 C 380.025 -3.31799 5.79194 0
M  V30 4039 H 379.295 -0.648659 0.358222 0
M  V30 4040 H 381.942 -1.22225 1.47422 0
M  V30 4041 H 380.247 -3.78675 1.00561 0
M  V30 4042 H 381.944 -3.75917 1.39598 0
M  V30 4043 H 378.534 -3.28757 2.74986 0
M  V30 4044 H 382.718 -3.27337 3.73047 0
M  V30 4045 H 377.974 -3.30562 5.14333 0
M  V30 4046 H 382.148 -3.30338 6.13066 0
M  V30 4047 H 379.775 -3.315 6.84114 0
M  V30 4048 N 381.35 -0.985608 -1.22978 0
M  V30 4049 C 382.596 -0.65836 -1.91816 0
M  V30 4050 C 382.929 0.806692 -1.76653 0
M  V30 4051 O 382.204 1.58252 -1.13078 0
M  V30 4052 C 382.487 -1.056 -3.44268 0
M  V30 4053 C 382.34 -2.57906 -3.68516 0
M  V30 4054 C 383.659 -0.603781 -4.35939 0
M  V30 4055 H 380.778 -0.24065 -0.696604 0
M  V30 4056 H 383.42 -1.22783 -1.44998 0
M  V30 4057 H 381.57 -0.571445 -3.84274 0
M  V30 4058 H 383.242 -3.13976 -3.3796 0
M  V30 4059 H 381.485 -3.00305 -3.13048 0
M  V30 4060 H 382.156 -2.80779 -4.75255 0
M  V30 4061 H 384.632 -1.01987 -4.03408 0
M  V30 4062 H 383.508 -0.910383 -5.41298 0
M  V30 4063 H 383.769 0.495761 -4.39312 0
M  V30 4064 N 382.828 1.3818 -0.7579 0
M  V30 4065 C 383.775 2.30416 -0.133057 0
M  V30 4066 C 384.745 1.50398 0.704957 0
M  V30 4067 O 385.93 1.79014 0.660192 0
M  V30 4068 C 383.07 3.36834 0.750813 0
M  V30 4069 C 382.183 4.31879 -0.102297 0
M  V30 4070 C 381.318 5.25368 0.784979 0
M  V30 4071 C 380.357 6.12058 -0.0715046 0
M  V30 4072 N 379.494 6.97832 0.772972 0
M  V30 4073 H 384.334 2.83274 -0.925186 0
M  V30 4074 H 381.871 1.39461 -0.467866 0
M  V30 4075 H 383.829 3.97145 1.27794 0
M  V30 4076 H 382.459 2.85374 1.50868 0
M  V30 4077 H 381.511 3.72991 -0.747095 0
M  V30 4078 H 382.823 4.92921 -0.763552 0
M  V30 4079 H 381.977 5.90818 1.37911 0
M  V30 4080 H 380.716 4.64703 1.47996 0
M  V30 4081 H 379.721 5.456 -0.678272 0
M  V30 4082 H 380.946 6.74793 -0.763606 0
M  V30 4083 H 378.892 6.3971 1.45282 0
M  V30 4084 H 378.809 7.55812 0.168709 0
M  V30 4085 H 380.077 7.67687 1.35194 0
M  V30 4086 N 384.306 0.507319 1.49211 0
M  V30 4087 C 385.216 -0.272136 2.33016 0
M  V30 4088 C 386.232 -0.961206 1.45041 0
M  V30 4089 O 387.408 -0.941191 1.78055 0
M  V30 4090 C 384.473 -1.31895 3.20631 0
M  V30 4091 C 383.534 -0.642648 4.24463 0
M  V30 4092 C 382.767 -1.63959 5.07891 0
M  V30 4093 O 382.99 -2.87007 4.92933 0
M  V30 4094 O 381.924 -1.19143 5.8999 0
M  V30 4095 H 385.75 0.413982 3.00865 0
M  V30 4096 H 383.335 0.268556 1.46966 0
M  V30 4097 H 385.217 -1.92446 3.7489 0
M  V30 4098 H 383.892 -1.98788 2.5547 0
M  V30 4099 H 382.799 0.00276252 3.741 0
M  V30 4100 H 384.132 -0.0160534 4.92197 0
M  V30 4101 N 385.784 -1.5574 0.241426 0
M  V30 4102 C 386.732 -2.22538 -0.676718 0
M  V30 4103 C 387.726 -1.21117 -1.18436 0
M  V30 4104 O 388.932 -1.39144 -1.14188 0
M  V30 4105 H 385.307 -0.713776 -0.236701 0
M  V30 4106 H 387.278 -2.98264 -0.0901187 0
M  V30 4107 C 386.027 -2.93439 -1.86518 0
M  V30 4108 H 385.35 -3.7125 -1.4837 0
M  V30 4109 H 386.79 -3.43549 -2.48495 0
M  V30 4110 C 385.249 -1.97008 -2.73294 0
M  V30 4111 O 385.779 -1.49965 -3.72657 0
M  V30 4112 N 383.985 -1.64227 -2.39745 0
M  V30 4113 H 383.532 -2.02677 -1.58996 0
M  V30 4114 H 383.49 -0.999708 -2.98083 0
M  V30 4115 N 387.262 0.0317525 -1.57568 0
M  V30 4116 C 388.194 1.06073 -2.03178 0
M  V30 4117 C 389.207 1.32627 -0.944132 0
M  V30 4118 O 390.396 1.30162 -1.22148 0
M  V30 4119 C 387.496 2.40297 -2.38978 0
M  V30 4120 C 386.669 2.33137 -3.70089 0
M  V30 4121 C 385.728 3.49787 -3.9311 0
M  V30 4122 O 384.754 3.29403 -4.64201 0
M  V30 4123 N 385.956 4.71562 -3.38541 0
M  V30 4124 H 388.721 0.672006 -2.92069 0
M  V30 4125 H 386.282 0.219745 -1.60402 0
M  V30 4126 H 388.274 3.1705 -2.51518 0
M  V30 4127 H 386.844 2.71024 -1.55771 0
M  V30 4128 H 386.064 1.415 -3.67928 0
M  V30 4129 H 387.352 2.25493 -4.56104 0
M  V30 4130 H 386.75 4.91024 -2.80912 0
M  V30 4131 H 385.307 5.45689 -3.56464 0
M  V30 4132 N 388.74 1.54641 0.303973 0
M  V30 4133 C 389.672 1.81754 1.39636 0
M  V30 4134 C 390.685 0.70035 1.46966 0
M  V30 4135 O 391.874 0.97778 1.49338 0
M  V30 4136 C 388.974 1.93785 2.7803 0
M  V30 4137 C 388.147 3.24156 2.93669 0
M  V30 4138 C 387.206 3.26641 4.12544 0
M  V30 4139 O 386.232 4.00187 4.04771 0
M  V30 4140 N 387.434 2.5182 5.23036 0
M  V30 4141 H 390.199 2.76031 1.16734 0
M  V30 4142 H 387.76 1.54178 0.494033 0
M  V30 4143 H 389.752 1.92852 3.55795 0
M  V30 4144 H 388.322 1.06515 2.93893 0
M  V30 4145 H 387.542 3.37887 2.03042 0
M  V30 4146 H 388.83 4.10195 3.01027 0
M  V30 4147 H 388.228 1.91692 5.32232 0
M  V30 4148 H 386.785 2.56644 5.99147 0
M  V30 4149 N 390.218 -0.567019 1.47046 0
M  V30 4150 C 391.128 -1.70247 1.6141 0
M  V30 4151 C 392.144 -1.66746 0.497157 0
M  V30 4152 O 393.32 -1.86371 0.763389 0
M  V30 4153 C 390.385 -3.06756 1.61561 0
M  V30 4154 C 389.446 -3.21399 2.84607 0
M  V30 4155 C 388.679 -4.51396 2.84741 0
M  V30 4156 O 388.902 -5.36255 1.94388 0
M  V30 4157 O 387.836 -4.69621 3.76483 0
M  V30 4158 H 391.662 -1.61073 2.57467 0
M  V30 4159 H 389.247 -0.735894 1.30019 0
M  V30 4160 H 391.129 -3.8801 1.64396 0
M  V30 4161 H 389.804 -3.16333 0.686684 0
M  V30 4162 H 388.711 -2.39579 2.8732 0
M  V30 4163 H 390.044 -3.16721 3.76761 0
M  V30 4164 N 391.696 -1.35014 -0.812953 0
M  V30 4165 C 392.606 -1.2951 -1.95613 0
M  V30 4166 C 393.622 -0.20107 -1.72834 0
M  V30 4167 O 394.798 -0.42932 -1.96771 0
M  V30 4168 C 391.863 -1.06033 -3.30088 0
M  V30 4169 C 390.924 -2.24688 -3.65805 0
M  V30 4170 C 390.157 -2.02322 -4.93864 0
M  V30 4171 O 390.38 -0.986464 -5.61805 0
M  V30 4172 O 389.314 -2.89525 -5.27692 0
M  V30 4173 H 393.14 -2.25705 -2.03202 0
M  V30 4174 H 390.725 -1.15321 -0.949811 0
M  V30 4175 H 392.607 -0.94763 -4.10607 0
M  V30 4176 H 391.282 -0.128852 -3.23443 0
M  V30 4177 H 390.189 -2.41521 -2.85689 0
M  V30 4178 H 391.522 -3.16261 -3.77147 0
M  V30 4179 N 393.175 1.03435 -1.18907 0
M  V30 4180 C 394.138 2.09756 -0.923844 0
M  V30 4181 C 395.138 1.60528 0.093416 0
M  V30 4182 O 396.328 1.73631 -0.140727 0
M  V30 4183 C 393.46 3.38692 -0.387354 0
M  V30 4184 H 394.653 2.34719 -1.86674 0
M  V30 4185 H 392.206 1.19959 -1.00197 0
M  V30 4186 H 392.941 3.19396 0.561845 0
M  V30 4187 H 392.726 3.75742 -1.12074 0
M  V30 4188 H 394.216 4.17016 -0.220694 0
M  V30 4189 N 394.653 0.992116 1.22453 0
M  V30 4190 C 396.069 0.702713 1.43297 0
M  V30 4191 C 396.269 -0.726909 1.87932 0
M  V30 4192 O 395.325 -1.49792 2.0327 0
M  V30 4193 C 396.638 1.70762 2.47509 0
M  V30 4194 C 398.186 1.72298 2.61309 0
M  V30 4195 C 398.661 2.71649 3.68742 0
M  V30 4196 N 400.152 2.70239 3.76199 0
M  V30 4197 C 400.887 3.43778 4.58917 0
M  V30 4198 N 400.383 4.26914 5.45633 0
M  V30 4199 N 402.176 3.32487 4.5322 0
M  V30 4200 H 394.327 1.91543 0.917871 0
M  V30 4201 H 396.59 0.826031 0.465162 0
M  V30 4202 H 396.296 2.73059 2.21657 0
M  V30 4203 H 396.17 1.49985 3.46099 0
M  V30 4204 H 398.557 0.706989 2.86506 0
M  V30 4205 H 398.638 1.97143 1.62997 0
M  V30 4206 H 398.282 3.73397 3.44292 0
M  V30 4207 H 398.212 2.44074 4.66622 0
M  V30 4208 H 400.703 2.09912 3.14237 0
M  V30 4209 H 401.016 4.79855 6.05771 0
M  V30 4210 H 399.361 4.31002 5.45218 0
M  V30 4211 H 402.552 2.6698 3.84499 0
M  V30 4212 H 402.725 3.90058 5.17454 0
M  V30 4213 N 396.131 -1.37776 0.765217 0
M  V30 4214 C 397.371 -2.01691 0.331669 0
M  V30 4215 C 397.735 -1.59432 -1.06983 0
M  V30 4216 O 398.936 -2.15761 -1.60314 0
M  V30 4217 C 397.207 -3.54385 0.463261 0
M  V30 4218 S 398.766 -4.38652 0.114011 0
M  V30 4219 H 395.584 -0.699387 0.127979 0
M  V30 4220 H 398.186 -1.68084 0.998396 0
M  V30 4221 H 396.89 -3.82629 1.48401 0
M  V30 4222 H 396.421 -3.92783 -0.220246 0
M  V30 4223 H 398.436 -4.84021 -1.09261 0
M  V30 4224 N 397.609 -0.515225 -1.4894 0
M  V30 4225 C 398.539 0.244628 -2.32215 0
M  V30 4226 C 399.52 0.949136 -1.41157 0
M  V30 4227 O 400.705 0.937783 -1.70057 0
M  V30 4228 C 397.835 1.30096 -3.22013 0
M  V30 4229 C 396.789 0.715486 -4.21977 0
M  V30 4230 C 396.115 1.87339 -5.00808 0
M  V30 4231 C 397.415 -0.302982 -5.2142 0
M  V30 4232 H 399.109 -0.450501 -2.95991 0
M  V30 4233 H 396.655 -0.218098 -1.42339 0
M  V30 4234 H 398.608 1.84037 -3.79089 0
M  V30 4235 H 397.332 2.02547 -2.56207 0
M  V30 4236 H 395.991 0.197715 -3.66066 0
M  V30 4237 H 395.639 2.58592 -4.31438 0
M  V30 4238 H 395.339 1.48764 -5.68457 0
M  V30 4239 H 396.863 2.41686 -5.60732 0
M  V30 4240 H 398.277 0.148802 -5.73107 0
M  V30 4241 H 396.674 -0.60532 -5.97039 0
M  V30 4242 H 397.744 -1.21395 -4.69459 0
M  V30 4243 N 399.087 1.5561 -0.249682 0
M  V30 4244 C 399.997 2.25143 0.659375 0
M  V30 4245 C 401.013 1.2685 1.19101 0
M  V30 4246 O 402.189 1.59732 1.22669 0
M  V30 4247 C 399.254 2.93945 1.8384 0
M  V30 4248 C 398.315 4.07655 1.34596 0
M  V30 4249 C 397.548 4.73167 2.46878 0
M  V30 4250 O 397.771 4.37768 3.65671 0
M  V30 4251 O 396.705 5.61623 2.16478 0
M  V30 4252 H 400.531 3.03545 0.0968698 0
M  V30 4253 H 398.116 1.49389 -0.018074 0
M  V30 4254 H 399.998 3.37271 2.52638 0
M  V30 4255 H 398.673 2.18481 2.38847 0
M  V30 4256 H 397.58 3.68839 0.625174 0
M  V30 4257 H 398.913 4.84946 0.841941 0
M  V30 4258 N 400.565 -0.0233959 1.57583 0
M  V30 4259 C 401.475 -1.03907 2.10334 0
M  V30 4260 C 402.491 -1.39257 1.04323 0
M  V30 4261 O 403.667 -1.48462 1.36091 0
M  V30 4262 C 400.732 -2.31938 2.57693 0
M  V30 4263 C 399.793 -2.03117 3.78209 0
M  V30 4264 C 399.026 -3.25043 4.233 0
M  V30 4265 O 399.249 -4.35916 3.67876 0
M  V30 4266 O 398.183 -3.10411 5.15683 0
M  V30 4267 H 402.009 -0.620748 2.97288 0
M  V30 4268 H 399.594 -0.240743 1.47448 0
M  V30 4269 H 401.476 -3.07196 2.88458 0
M  V30 4270 H 400.151 -2.73055 1.73847 0
M  V30 4271 H 399.058 -1.25408 3.52454 0
M  V30 4272 H 400.391 -1.66852 4.63056 0
M  V30 4273 N 402.043 -1.548 -0.295768 0
M  V30 4274 C 403.289 -1.74588 -1.03184 0
M  V30 4275 C 403.622 -0.532962 -1.86744 0
M  V30 4276 O 402.897 0.469872 -1.88739 0
M  V30 4277 C 403.18 -3.03791 -1.93347 0
M  V30 4278 C 403.033 -4.35392 -1.12933 0
M  V30 4279 C 404.352 -3.28892 -2.92435 0
M  V30 4280 H 401.471 -0.635221 -0.373715 0
M  V30 4281 H 404.113 -1.87519 -0.30606 0
M  V30 4282 H 402.263 -2.92898 -2.55232 0
M  V30 4283 H 403.935 -4.58211 -0.532943 0
M  V30 4284 H 402.178 -4.31642 -0.432168 0
M  V30 4285 H 402.849 -5.22074 -1.79284 0
M  V30 4286 H 405.325 -3.39429 -2.4068 0
M  V30 4287 H 404.201 -4.20603 -3.52682 0
M  V30 4288 H 404.462 -2.47437 -3.6637 0
M  V30 4289 N 403.521 0.559213 -1.47345 0
M  V30 4290 C 404.431 1.69388 -1.62311 0
M  V30 4291 C 405.447 1.6648 -0.505993 0
M  V30 4292 O 406.623 1.85964 -0.773262 0
M  V30 4293 C 403.688 3.05894 -1.63185 0
M  V30 4294 C 402.749 3.19885 -2.86307 0
M  V30 4295 C 401.982 4.49879 -2.87131 0
M  V30 4296 O 402.205 5.35217 -1.97229 0
M  V30 4297 O 401.139 4.67618 -3.78968 0
M  V30 4298 H 404.965 1.59706 -2.58317 0
M  V30 4299 H 402.55 0.728989 -1.30407 0
M  V30 4300 H 404.432 3.87133 -1.66451 0
M  V30 4301 H 403.107 3.15964 -0.70345 0
M  V30 4302 H 402.014 2.38052 -2.88587 0
M  V30 4303 H 403.347 3.14718 -3.78435 0
M  V30 4304 N 404.999 1.35443 0.805782 0
M  V30 4305 C 406.276 1.19325 1.54987 0
M  V30 4306 C 406.656 -0.227294 2.09873 0
M  V30 4307 O 406.004 -1.2309 1.92512 0
M  V30 4308 C 406.214 2.26196 2.65775 0
M  V30 4309 C 407.562 2.62043 3.34094 0
M  V30 4310 O 408.586 2.25115 2.76046 0
M  V30 4311 O 407.445 3.25542 4.38958 0
M  V30 4312 H 404.539 0.463623 0.684823 0
M  V30 4313 H 407.085 1.47127 0.845674 0
M  V30 4314 H 405.857 3.21471 2.23096 0
M  V30 4315 H 405.48 1.99667 3.43829 0
M  V30 4316 N 406.477 -1.02803 1.19454 0
M  V30 4317 C 407.407 -2.12999 0.956758 0
M  V30 4318 C 408.388 -1.69743 -0.110188 0
M  V30 4319 O 409.573 -1.94148 0.0450038 0
M  V30 4320 C 406.703 -3.43746 0.495553 0
M  V30 4321 C 405.657 -4.00688 1.50443 0
M  V30 4322 C 404.983 -5.27067 0.900275 0
M  V30 4323 C 406.283 -4.35397 2.8849 0
M  V30 4324 H 407.977 -2.33148 1.87836 0
M  V30 4325 H 405.523 -1.12045 0.904539 0
M  V30 4326 H 407.476 -4.2021 0.316493 0
M  V30 4327 H 406.2 -3.23321 -0.461646 0
M  V30 4328 H 404.859 -3.2632 1.67065 0
M  V30 4329 H 404.507 -5.02959 -0.064503 0
M  V30 4330 H 404.207 -5.66127 1.57397 0
M  V30 4331 H 405.731 -6.06196 0.73203 0
M  V30 4332 H 407.145 -5.02795 2.75446 0
M  V30 4333 H 405.542 -4.85541 3.52661 0
M  V30 4334 H 406.612 -3.44662 3.41081 0
M  V30 4335 N 407.956 -0.998596 -1.21925 0
M  V30 4336 C 409.205 -0.673085 -1.90138 0
M  V30 4337 C 409.518 0.79895 -1.78539 0
M  V30 4338 O 410.724 1.23628 -2.4172 0
M  V30 4339 C 409.18 -1.15339 -3.40918 0
M  V30 4340 C 408.788 -2.65106 -3.61141 0
M  V30 4341 C 410.532 -0.902476 -4.14796 0
M  V30 4342 C 408.439 -3.0671 -5.05651 0
M  V30 4343 H 407.369 -0.248057 -0.712028 0
M  V30 4344 H 410.02 -1.20891 -1.38049 0
M  V30 4345 H 408.402 -0.545658 -3.92223 0
M  V30 4346 H 409.576 -3.31274 -3.20304 0
M  V30 4347 H 407.891 -2.88142 -3.00605 0
M  V30 4348 H 410.488 -1.18895 -5.21314 0
M  V30 4349 H 410.831 0.161349 -4.15987 0
M  V30 4350 H 411.364 -1.47269 -3.69536 0
M  V30 4351 H 408.103 -4.12292 -5.09603 0
M  V30 4352 H 407.623 -2.45249 -5.47369 0
M  V30 4353 H 409.302 -2.9833 -5.74115 0
M  V30 4354 N 409.434 1.37368 -0.772513 0
M  V30 4355 C 410.68 1.99969 -0.337681 0
M  V30 4356 C 411.013 1.61184 1.08321 0
M  V30 4357 O 410.288 0.858395 1.74533 0
M  V30 4358 C 410.571 3.56858 -0.482121 0
M  V30 4359 C 410.424 4.0555 -1.94549 0
M  V30 4360 C 411.743 4.39955 0.113143 0
M  V30 4361 H 408.862 0.726464 -0.124171 0
M  V30 4362 H 411.504 1.63034 -0.975699 0
M  V30 4363 H 409.654 3.88452 0.0610361 0
M  V30 4364 H 411.326 3.84518 -2.54841 0
M  V30 4365 H 409.569 3.57715 -2.45403 0
M  V30 4366 H 410.24 5.14587 -1.9976 0
M  V30 4367 H 412.716 4.14623 -0.35031 0
M  V30 4368 H 411.592 5.48897 -0.0180514 0
M  V30 4369 H 411.853 4.25403 1.20354 0
M  V30 4370 N 410.912 0.523116 1.48665 0
M  V30 4371 C 411.859 -0.243398 2.29513 0
M  V30 4372 C 412.829 -0.940139 1.36933 0
M  V30 4373 O 414.014 -0.942503 1.65896 0
M  V30 4374 C 411.154 -1.28855 3.20141 0
M  V30 4375 C 410.267 -0.60135 4.27794 0
M  V30 4376 C 409.402 -1.62884 5.05611 0
M  V30 4377 C 408.441 -0.924726 6.05075 0
M  V30 4378 N 407.578 -1.89744 6.75975 0
M  V30 4379 H 412.418 0.452234 2.94549 0
M  V30 4380 H 409.955 0.234858 1.45213 0
M  V30 4381 H 411.913 -1.90674 3.71079 0
M  V30 4382 H 410.543 -1.95266 2.57043 0
M  V30 4383 H 409.595 0.130623 3.80176 0
M  V30 4384 H 410.907 -0.0481585 4.98777 0
M  V30 4385 H 410.061 -2.32149 5.60528 0
M  V30 4386 H 408.8 -2.21592 4.34452 0
M  V30 4387 H 407.805 -0.217966 5.49368 0
M  V30 4388 H 409.03 -0.343851 6.78229 0
M  V30 4389 H 406.976 -2.47373 6.07571 0
M  V30 4390 H 406.893 -1.3955 7.43009 0
M  V30 4391 H 408.161 -2.58229 7.35485 0
M  V30 4392 N 412.39 -1.55475 0.257931 0
M  V30 4393 C 413.62 -2.03314 -0.367026 0
M  V30 4394 C 414.028 -1.13625 -1.51281 0
M  V30 4395 O 413.371 -0.145334 -1.83124 0
M  V30 4396 C 413.433 -3.47362 -0.926284 0
M  V30 4397 C 413.097 -4.56914 0.0886584 0
M  V30 4398 C 414.094 -5.12013 0.902123 0
M  V30 4399 C 411.779 -5.01827 0.217936 0
M  V30 4400 C 413.773 -6.10529 1.83122 0
M  V30 4401 C 411.46 -6.00172 1.15052 0
M  V30 4402 C 412.458 -6.54402 1.95568 0
M  V30 4403 O 412.146 -7.50827 2.87253 0
M  V30 4404 H 411.878 -0.669976 -0.0900443 0
M  V30 4405 H 414.432 -2.01804 0.382673 0
M  V30 4406 H 412.662 -3.46056 -1.72575 0
M  V30 4407 H 414.351 -3.78637 -1.46249 0
M  V30 4408 H 415.117 -4.78139 0.812891 0
M  V30 4409 H 410.996 -4.59272 -0.398721 0
M  V30 4410 H 414.54 -6.52783 2.46008 0
M  V30 4411 H 410.437 -6.33465 1.24064 0
M  V30 4412 H 411.205 -7.68483 2.81739 0
M  V30 4413 N 413.868 0.0150385 -1.57593 0
M  V30 4414 C 415.284 0.370907 -1.5523 0
M  V30 4415 C 415.484 1.75735 -0.985882 0
M  V30 4416 O 414.54 2.44944 -0.613077 0
M  V30 4417 C 415.853 0.259908 -2.99575 0
M  V30 4418 C 417.401 0.335959 -3.11192 0
M  V30 4419 C 417.876 0.254253 -4.57294 0
M  V30 4420 N 419.367 0.312618 -4.62144 0
M  V30 4421 C 420.102 0.272505 -5.72752 0
M  V30 4422 N 419.598 0.183864 -6.92556 0
M  V30 4423 N 421.391 0.323267 -5.6117 0
M  V30 4424 H 413.542 -0.892104 -1.92757 0
M  V30 4425 H 415.805 -0.340563 -0.884715 0
M  V30 4426 H 415.511 -0.693403 -3.44797 0
M  V30 4427 H 415.385 1.048 -3.62349 0
M  V30 4428 H 417.772 1.27971 -2.65909 0
M  V30 4429 H 417.853 -0.481739 -2.51223 0
M  V30 4430 H 417.497 -0.685887 -5.03247 0
M  V30 4431 H 417.427 1.09024 -5.15191 0
M  V30 4432 H 419.918 0.38307 -3.75953 0
M  V30 4433 H 420.231 0.15874 -7.72637 0
M  V30 4434 H 418.576 0.149708 -6.94839 0
M  V30 4435 H 421.767 0.390607 -4.66467 0
M  V30 4436 H 421.94 0.288539 -6.47357 0
M  V30 4437 N 415.346 1.54954 0.287554 0
M  V30 4438 C 416.293 1.86834 1.35505 0
M  V30 4439 C 417.263 0.718452 1.49758 0
M  V30 4440 O 418.448 0.968358 1.644 0
M  V30 4441 C 415.588 2.13303 2.71286 0
M  V30 4442 C 414.701 3.40883 2.65373 0
M  V30 4443 C 413.836 3.57125 3.93236 0
M  V30 4444 C 412.875 4.78449 3.81776 0
M  V30 4445 N 412.012 4.91426 5.01443 0
M  V30 4446 H 416.852 2.77889 1.07619 0
M  V30 4447 H 414.389 1.37593 0.520241 0
M  V30 4448 H 416.347 2.26646 3.50267 0
M  V30 4449 H 414.977 1.25499 2.97405 0
M  V30 4450 H 414.029 3.36088 1.78182 0
M  V30 4451 H 415.341 4.29993 2.52799 0
M  V30 4452 H 414.495 3.70207 4.80658 0
M  V30 4453 H 413.234 2.66173 4.0866 0
M  V30 4454 H 412.239 4.65386 2.92738 0
M  V30 4455 H 413.464 5.70822 3.67884 0
M  V30 4456 H 411.41 4.03401 5.17304 0
M  V30 4457 H 411.327 5.74559 4.91343 0
M  V30 4458 H 412.595 5.08879 5.90477 0
M  V30 4459 N 416.824 -0.551391 1.4764 0
M  V30 4460 C 417.771 -1.65796 1.60563 0
M  V30 4461 C 418.741 -1.59932 0.448428 0
M  V30 4462 O 419.926 -1.78679 0.669222 0
M  V30 4463 C 417.066 -3.04108 1.63133 0
M  V30 4464 C 416.179 -3.20365 2.89811 0
M  V30 4465 C 415.314 -4.49109 2.8368 0
M  V30 4466 C 414.353 -4.58819 4.05156 0
M  V30 4467 N 413.49 -5.78926 3.97227 0
M  V30 4468 H 418.33 -1.54088 2.5507 0
M  V30 4469 H 415.867 -0.75052 1.26513 0
M  V30 4470 H 417.825 -3.84207 1.62606 0
M  V30 4471 H 416.455 -3.14637 0.721341 0
M  V30 4472 H 415.507 -2.33659 3.00179 0
M  V30 4473 H 416.819 -3.23402 3.79753 0
M  V30 4474 H 415.973 -5.37475 2.81434 0
M  V30 4475 H 414.712 -4.4856 1.91431 0
M  V30 4476 H 413.717 -3.68864 4.077 0
M  V30 4477 H 414.942 -4.61124 4.98539 0
M  V30 4478 H 412.888 -5.79314 3.07785 0
M  V30 4479 H 412.805 -5.83367 4.80853 0
M  V30 4480 H 414.073 -6.69637 3.99007 0
M  V30 4481 N 418.302 -1.35869 -0.798587 0
M  V30 4482 C 419.249 -1.29446 -1.91082 0
M  V30 4483 C 420.219 -0.16487 -1.6528 0
M  V30 4484 O 421.404 -0.349888 -1.87564 0
M  V30 4485 C 418.544 -1.0804 -3.27752 0
M  V30 4486 C 417.657 -2.29993 -3.65687 0
M  V30 4487 C 416.792 -2.01673 -4.91428 0
M  V30 4488 C 415.831 -3.19636 -5.22015 0
M  V30 4489 N 414.968 -2.91039 -6.38937 0
M  V30 4490 H 419.808 -2.24553 -1.95907 0
M  V30 4491 H 417.345 -1.11615 -0.958148 0
M  V30 4492 H 419.303 -0.936586 -4.06551 0
M  V30 4493 H 417.933 -0.16592 -3.22373 0
M  V30 4494 H 416.985 -2.55211 -2.82085 0
M  V30 4495 H 418.297 -3.18052 -3.84245 0
M  V30 4496 H 417.451 -1.84168 -5.78072 0
M  V30 4497 H 416.19 -1.10911 -4.74921 0
M  V30 4498 H 415.195 -3.37709 -4.33858 0
M  V30 4499 H 416.42 -4.11211 -5.40447 0
M  V30 4500 H 414.366 -2.0288 -6.2384 0
M  V30 4501 H 414.283 -3.72635 -6.57784 0
M  V30 4502 H 415.551 -2.77093 -7.28587 0
M  V30 4503 N 419.78 1.02168 -1.19998 0
M  V30 4504 C 420.727 2.10601 -0.944228 0
M  V30 4505 C 421.697 1.65639 0.123664 0
M  V30 4506 O 422.882 1.9079 -0.0199941 0
M  V30 4507 C 420.022 3.41504 -0.496865 0
M  V30 4508 C 419.135 3.99973 -1.63234 0
M  V30 4509 C 418.27 5.18915 -1.13579 0
M  V30 4510 C 417.309 5.69456 -2.24468 0
M  V30 4511 N 416.446 6.79665 -1.76068 0
M  V30 4512 H 421.286 2.31814 -1.8726 0
M  V30 4513 H 418.823 1.13686 -0.933483 0
M  V30 4514 H 420.781 4.16626 -0.218843 0
M  V30 4515 H 419.411 3.2038 0.394508 0
M  V30 4516 H 418.463 3.21997 -2.0254 0
M  V30 4517 H 419.775 4.33492 -2.46752 0
M  V30 4518 H 418.929 6.01222 -0.813429 0
M  V30 4519 H 417.668 4.8695 -0.270434 0
M  V30 4520 H 416.673 4.85757 -2.57526 0
M  V30 4521 H 417.898 6.03459 -3.11472 0
M  V30 4522 H 415.844 6.49538 -0.918516 0
M  V30 4523 H 415.761 7.12349 -2.5317 0
M  V30 4524 H 417.029 7.65549 -1.46817 0
M  V30 4525 N 421.258 1.00505 1.21394 0
M  V30 4526 C 422.486 0.706609 1.9446 0
M  V30 4527 C 422.901 -0.73081 1.74082 0
M  V30 4528 O 422.258 -1.49446 1.04747 0
M  V30 4529 C 422.309 1.01824 3.46863 0
M  V30 4530 O 422.03 2.39919 3.66566 0
M  V30 4531 C 423.531 0.739216 4.37093 0
M  V30 4532 H 420.751 0.260394 0.618414 0
M  V30 4533 H 423.295 1.34311 1.54211 0
M  V30 4534 H 421.45 0.427343 3.85036 0
M  V30 4535 H 421.864 2.50784 4.6066 0
M  V30 4536 H 423.338 1.00744 5.42729 0
M  V30 4537 H 423.815 -0.326746 4.37983 0
M  V30 4538 H 424.421 1.31173 4.04566 0
M  V30 4539 N 422.737 -1.36956 0.779787 0
M  V30 4540 C 423.983 -1.99787 0.348281 0
M  V30 4541 C 424.316 -1.61756 -1.07465 0
M  V30 4542 O 423.591 -0.867639 -1.74075 0
M  V30 4543 C 423.874 -3.56597 0.50104 0
M  V30 4544 C 423.727 -4.04513 1.96697 0
M  V30 4545 C 425.046 -4.40008 -0.0898097 0
M  V30 4546 H 422.165 -0.725796 0.128022 0
M  V30 4547 H 424.807 -1.62514 0.984331 0
M  V30 4548 H 422.957 -3.88479 -0.0404347 0
M  V30 4549 H 424.629 -3.83161 2.56876 0
M  V30 4550 H 422.872 -3.56408 2.47297 0
M  V30 4551 H 423.543 -5.1352 2.02486 0
M  V30 4552 H 426.019 -4.14431 0.372293 0
M  V30 4553 H 424.895 -5.4888 0.0471605 0
M  V30 4554 H 425.156 -4.26035 -1.18096 0
M  V30 4555 N 424.215 -0.530993 -1.48385 0
M  V30 4556 C 425.178 0.220497 -2.28137 0
M  V30 4557 C 426.178 0.866851 -1.35434 0
M  V30 4558 O 427.368 0.726746 -1.58316 0
M  V30 4559 C 424.5 1.31921 -3.1434 0
M  V30 4560 H 425.693 -0.479714 -2.96038 0
M  V30 4561 H 423.246 -0.286968 -1.53643 0
M  V30 4562 H 423.981 2.05264 -2.51072 0
M  V30 4563 H 423.766 0.86085 -3.82533 0
M  V30 4564 H 425.256 1.84776 -3.74497 0
M  V30 4565 N 425.693 1.55336 -0.266172 0
M  V30 4566 C 426.941 1.99003 0.35246 0
M  V30 4567 C 427.262 1.15591 1.57047 0
M  V30 4568 O 426.532 0.243268 1.94384 0
M  V30 4569 H 425.112 0.735025 0.133217 0
M  V30 4570 H 427.774 1.91367 -0.369434 0
M  V30 4571 H 426.87 3.05289 0.648453 0
M  V30 4572 N 427.171 -0.0066808 1.57599 0
M  V30 4573 C 428.42 -0.692078 1.89455 0
M  V30 4574 C 428.733 -1.75306 0.867586 0
M  V30 4575 O 429.939 -2.49262 1.07614 0
M  V30 4576 C 428.395 -1.2821 3.36289 0
M  V30 4577 C 428.003 -0.256291 4.47266 0
M  V30 4578 C 429.747 -1.94608 3.77264 0
M  V30 4579 C 427.654 -0.855927 5.85173 0
M  V30 4580 H 426.584 -0.262252 0.706923 0
M  V30 4581 H 429.235 0.052769 1.83424 0
M  V30 4582 H 427.617 -2.0774 3.37135 0
M  V30 4583 H 428.791 0.513923 4.57925 0
M  V30 4584 H 427.106 0.306862 4.15268 0
M  V30 4585 H 429.703 -2.40364 4.77629 0
M  V30 4586 H 430.046 -2.77382 3.10427 0
M  V30 4587 H 430.579 -1.21822 3.78688 0
M  V30 4588 H 427.318 -0.0671161 6.55466 0
M  V30 4589 H 426.838 -1.59546 5.78191 0
M  V30 4590 H 428.517 -1.35658 6.32618 0
M  V30 4591 N 428.649 -1.55105 -0.279332 0
M  V30 4592 C 429.898 -1.74618 -1.00952 0
M  V30 4593 C 430.211 -0.551096 -1.87676 0
M  V30 4594 O 431.417 -0.628507 -2.64125 0
M  V30 4595 C 429.873 -3.09025 -1.84476 0
M  V30 4596 C 429.481 -4.36081 -1.0265 0
M  V30 4597 C 431.225 -3.37891 -2.56963 0
M  V30 4598 C 429.132 -5.6153 -1.85576 0
M  V30 4599 H 428.062 -0.650868 -0.38064 0
M  V30 4600 H 430.713 -1.81569 -0.265475 0
M  V30 4601 H 429.095 -2.96095 -2.62952 0
M  V30 4602 H 430.269 -4.59909 -0.286354 0
M  V30 4603 H 428.584 -4.14312 -0.416464 0
M  V30 4604 H 431.181 -4.28822 -3.19399 0
M  V30 4605 H 431.524 -2.57737 -3.26921 0
M  V30 4606 H 432.057 -3.5189 -1.85522 0
M  V30 4607 H 428.796 -6.44413 -1.2005 0
M  V30 4608 H 428.316 -5.41854 -2.57204 0
M  V30 4609 H 429.995 -5.99594 -2.43096 0
M  V30 4610 N 430.127 0.543554 -1.4793 0
M  V30 4611 C 431.373 1.30201 -1.55485 0
M  V30 4612 C 431.706 1.92925 -0.222201 0
M  V30 4613 O 430.981 1.78586 0.77053 0
M  V30 4614 C 431.264 2.40174 -2.68307 0
M  V30 4615 C 431.117 1.8223 -4.11233 0
M  V30 4616 C 432.436 3.42024 -2.76961 0
M  V30 4617 H 429.555 0.472036 -0.565996 0
M  V30 4618 H 432.197 0.606914 -1.80046 0
M  V30 4619 H 430.347 2.99463 -2.47495 0
M  V30 4620 H 432.019 1.27096 -4.43446 0
M  V30 4621 H 430.262 1.12832 -4.18869 0
M  V30 4622 H 430.933 2.61793 -4.85972 0
M  V30 4623 H 433.409 2.92672 -2.95774 0
M  V30 4624 H 432.285 4.16383 -3.57654 0
M  V30 4625 H 432.546 4.0173 -1.84568 0
M  V30 4626 N 431.605 1.3629 0.791371 0
M  V30 4627 C 432.515 1.32606 1.93527 0
M  V30 4628 C 433.531 0.228541 1.72493 0
M  V30 4629 O 434.707 0.460571 1.96063 0
M  V30 4630 C 431.772 1.11271 3.28359 0
M  V30 4631 C 430.833 2.3048 3.62185 0
M  V30 4632 C 430.066 2.10154 4.90583 0
M  V30 4633 O 430.289 1.07572 5.60165 0
M  V30 4634 O 429.223 2.97884 5.23019 0
M  V30 4635 H 433.049 2.28909 1.99585 0
M  V30 4636 H 430.634 1.16818 0.931344 0
M  V30 4637 H 432.516 1.01283 4.09047 0
M  V30 4638 H 431.191 0.180292 3.23198 0
M  V30 4639 H 430.098 2.46036 2.81811 0
M  V30 4640 H 431.431 3.22221 3.72068 0
M  V30 4641 N 433.083 -1.0153 1.20538 0
M  V30 4642 C 434.494 -1.56598 1.01657 0
M  V30 4643 C 434.845 -1.91505 -0.426668 0
M  V30 4644 O 433.97 -1.72375 -1.30827 0
M  V30 4645 C 434.565 -2.84542 1.83905 0
M  V30 4646 C 433.124 -3.36133 1.69386 0
M  V30 4647 C 432.271 -2.09427 1.81757 0
M  V30 4648 H 435.222 -0.838974 1.34711 0
M  V30 4649 H 435.243 -3.56004 1.34319 0
M  V30 4650 H 434.755 -2.59105 2.8894 0
M  V30 4651 H 432.856 -3.66528 0.669933 0
M  V30 4652 H 432.969 -4.08248 2.50739 0
M  V30 4653 H 431.333 -2.21941 1.24957 0
M  V30 4654 H 432.116 -1.86414 2.88279 0
M  V30 4655 N 434.561 -1.01147 -1.20859 0
M  V30 4656 C 435.81 -0.693214 -1.89413 0
M  V30 4657 C 436.123 0.779969 -1.79376 0
M  V30 4658 O 437.329 1.21057 -2.43017 0
M  V30 4659 C 435.785 -1.18949 -3.39675 0
M  V30 4660 C 435.393 -2.68921 -3.58309 0
M  V30 4661 C 437.137 -0.94642 -4.13815 0
M  V30 4662 C 435.044 -3.12056 -5.0237 0
M  V30 4663 H 433.974 -0.255595 -0.709357 0
M  V30 4664 H 436.625 -1.22349 -1.36759 0
M  V30 4665 H 435.007 -0.587228 -3.91622 0
M  V30 4666 H 436.181 -3.34652 -3.16772 0
M  V30 4667 H 434.496 -2.91314 -2.97532 0
M  V30 4668 H 437.093 -1.24417 -5.20023 0
M  V30 4669 H 437.436 0.117219 -4.16135 0
M  V30 4670 H 437.969 -1.5118 -3.67953 0
M  V30 4671 H 434.708 -4.17674 -5.05202 0
M  V30 4672 H 434.228 -2.51041 -5.44737 0
M  V30 4673 H 435.907 -3.04403 -5.70918 0
M  V30 4674 N 436.039 1.36541 -0.78704 0
M  V30 4675 C 436.971 2.28761 -0.141773 0
M  V30 4676 C 437.984 1.49365 0.647599 0
M  V30 4677 O 439.173 1.71836 0.483173 0
M  V30 4678 C 436.273 3.28771 0.822368 0
M  V30 4679 C 435.446 4.3732 0.0835594 0
M  V30 4680 C 434.505 5.17307 0.963296 0
M  V30 4681 O 433.531 5.67638 0.421419 0
M  V30 4682 N 434.733 5.33515 2.28784 0
M  V30 4683 H 437.498 2.84777 -0.933919 0
M  V30 4684 H 435.059 1.48682 -0.640735 0
M  V30 4685 H 437.051 3.79169 1.41468 0
M  V30 4686 H 435.621 2.73412 1.5154 0
M  V30 4687 H 434.841 3.88118 -0.689809 0
M  V30 4688 H 436.129 5.0701 -0.426358 0
M  V30 4689 H 435.527 4.94234 2.75226 0
M  V30 4690 H 434.084 5.87165 2.82985 0
M  V30 4691 N 437.518 0.538854 1.48102 0
M  V30 4692 C 438.743 0.0102694 2.07397 0
M  V30 4693 C 439.168 -1.26562 1.39153 0
M  V30 4694 O 438.526 -1.75357 0.460387 0
M  V30 4695 C 438.574 -0.187602 3.60112 0
M  V30 4696 O 437.678 -1.25432 3.92862 0
M  V30 4697 H 437.019 0.0430975 0.6626 0
M  V30 4698 H 439.549 0.749301 1.90385 0
M  V30 4699 H 439.559 -0.407517 4.0596 0
M  V30 4700 H 438.234 0.744386 4.09184 0
M  V30 4701 H 436.811 -1.01636 3.58782 0
M  V30 4702 N 438.996 -1.55193 0.274407 0
M  V30 4703 C 439.906 -2.26164 -0.623473 0
M  V30 4704 C 440.922 -1.28729 -1.17068 0
M  V30 4705 O 442.098 -1.61663 -1.20112 0
M  V30 4706 C 439.163 -2.96833 -1.7914 0
M  V30 4707 C 438.224 -4.09745 -1.28093 0
M  V30 4708 C 437.457 -4.77034 -2.3932 0
M  V30 4709 O 437.68 -4.4353 -3.5866 0
M  V30 4710 O 436.614 -5.64996 -2.07516 0
M  V30 4711 H 440.44 -3.03661 -0.0485661 0
M  V30 4712 H 438.025 -1.49341 0.0418382 0
M  V30 4713 H 439.907 -3.41248 -2.4724 0
M  V30 4714 H 438.582 -2.22253 -2.35341 0
M  V30 4715 H 437.489 -3.69787 -0.566416 0
M  V30 4716 H 438.822 -4.86224 -0.764683 0
M  V30 4717 N 440.474 -0.00167713 -1.576 0
M  V30 4718 C 441.722 0.681471 -1.90264 0
M  V30 4719 C 442.043 1.7422 -0.875924 0
M  V30 4720 O 441.313 1.95709 0.0864412 0
M  V30 4721 H 439.893 0.254696 -0.702239 0
M  V30 4722 H 442.555 -0.0429996 -1.94853 0
M  V30 4723 H 441.651 1.15166 -2.90075 0
M  V30 4724 N 441.952 1.55251 0.271103 0
M  V30 4725 C 443.2 1.75599 1.00047 0
M  V30 4726 C 443.521 0.561188 1.8675 0
M  V30 4727 O 442.791 -0.423846 1.9126 0
M  V30 4728 H 441.371 0.647562 0.372387 0
M  V30 4729 H 444.033 1.92656 0.294876 0
M  V30 4730 H 443.129 2.65766 1.6363 0
M  V30 4731 N 443.43 -0.535701 1.48216 0
M  V30 4732 C 444.707 -1.29683 1.46429 0
M  V30 4733 C 445.087 -2.10391 0.172852 0
M  V30 4734 O 444.435 -2.12282 -0.845488 0
M  V30 4735 C 444.645 -2.18313 2.72287 0
M  V30 4736 C 445.993 -2.78639 3.20383 0
M  V30 4737 O 447.017 -2.28604 2.73164 0
M  V30 4738 O 445.876 -3.69636 4.02531 0
M  V30 4739 H 442.97 -0.585026 0.584529 0
M  V30 4740 H 445.516 -0.552827 1.60443 0
M  V30 4741 H 444.288 -1.58421 3.57797 0
M  V30 4742 H 443.911 -2.99971 2.60966 0
M  V30 4743 N 444.908 -1.36708 -0.784132 0
M  V30 4744 C 445.856 -1.31533 -1.91838 0
M  V30 4745 C 446.85 -0.206205 -1.6814 0
M  V30 4746 O 448.056 -0.373519 -1.76082 0
M  V30 4747 H 444.431 -0.409613 -0.630651 0
M  V30 4748 H 446.402 -2.2731 -1.9332 0
M  V30 4749 C 445.151 -1.12679 -3.28936 0
M  V30 4750 H 444.474 -1.97274 -3.4774 0
M  V30 4751 H 445.914 -1.13106 -4.08636 0
M  V30 4752 C 444.373 0.168281 -3.36479 0
M  V30 4753 O 444.903 1.15625 -3.84699 0
M  V30 4754 N 443.109 0.214762 -2.89805 0
M  V30 4755 H 442.656 -0.589852 -2.50756 0
M  V30 4756 H 442.614 1.08094 -2.95234 0
M  V30 4757 N 446.386 1.0089 -1.21074 0
M  V30 4758 C 447.336 2.0799 -0.934034 0
M  V30 4759 C 448.32 1.60529 0.10919 0
M  V30 4760 O 449.512 1.76722 -0.0992198 0
M  V30 4761 C 446.641 3.39693 -0.496334 0
M  V30 4762 C 445.727 3.93833 -1.57341 0
M  V30 4763 N 446.118 4.21388 -2.7976 0
M  V30 4764 C 444.416 4.22067 -1.44137 0
M  V30 4765 C 445.117 4.65156 -3.49292 0
M  V30 4766 N 444.093 4.67895 -2.76722 0
M  V30 4767 H 447.895 2.27213 -1.86417 0
M  V30 4768 H 445.409 1.18927 -1.10589 0
M  V30 4769 H 447.406 4.15962 -0.279471 0
M  V30 4770 H 446.066 3.21879 0.427084 0
M  V30 4771 H 447.077 4.10061 -3.1634 0
M  V30 4772 H 443.754 4.1341 -0.582947 0
M  V30 4773 H 445.144 4.95231 -4.54088 0
M  V30 4774 N 447.864 1.01787 1.20321 0
M  V30 4775 C 448.827 0.593972 2.2137 0
M  V30 4776 C 449.827 -0.336553 1.57239 0
M  V30 4777 O 451.017 -0.125069 1.7375 0
M  V30 4778 C 448.149 -0.132433 3.40643 0
M  V30 4779 H 449.342 1.48791 2.60387 0
M  V30 4780 H 446.895 0.807803 1.33807 0
M  V30 4781 H 447.63 -1.04123 3.0713 0
M  V30 4782 H 447.415 0.53605 3.88418 0
M  V30 4783 H 448.905 -0.416314 4.1552 0
M  V30 4784 N 449.342 -1.36122 0.79427 0
M  V30 4785 C 450.567 -2.03891 0.379871 0
M  V30 4786 C 450.992 -1.59488 -0.997251 0
M  V30 4787 O 450.35 -0.765652 -1.64339 0
M  V30 4788 C 450.398 -3.57687 0.457442 0
M  V30 4789 O 449.502 -4.08931 -0.5338 0
M  V30 4790 H 448.843 -0.6443 0.160541 0
M  V30 4791 H 451.373 -1.73976 1.07673 0
M  V30 4792 H 451.383 -4.06721 0.322792 0
M  V30 4793 H 450.058 -3.89357 1.46199 0
M  V30 4794 H 448.635 -3.71154 -0.360409 0
M  V30 4795 N 450.82 -0.546701 -1.47814 0
M  V30 4796 C 452.097 0.0464413 -1.95545 0
M  V30 4797 C 452.477 1.4962 -1.48919 0
M  V30 4798 O 451.825 2.16752 -0.723232 0
M  V30 4799 C 452.035 -0.0881298 -3.48889 0
M  V30 4800 C 453.383 0.0626059 -4.24554 0
M  V30 4801 O 454.407 -0.0151555 -3.56197 0
M  V30 4802 O 453.266 0.228071 -5.46024 0
M  V30 4803 H 450.36 0.0700004 -0.824032 0
M  V30 4804 H 452.906 -0.612482 -1.58262 0
M  V30 4805 H 451.678 -1.09737 -3.75597 0
M  V30 4806 H 451.301 0.608886 -3.9291 0
M  V30 4807 N 452.299 1.55045 -0.282633 0
M  V30 4808 C 453.576 1.9179 0.384166 0
M  V30 4809 C 453.956 1.20778 1.73136 0
M  V30 4810 O 453.304 0.33719 2.25998 0
M  V30 4811 C 453.514 3.45149 0.517014 0
M  V30 4812 C 454.862 4.17064 0.796427 0
M  V30 4813 O 455.886 3.51084 0.601535 0
M  V30 4814 O 454.745 5.33837 1.16962 0
M  V30 4815 H 451.839 0.799483 0.211558 0
M  V30 4816 H 454.385 1.66474 -0.32934 0
M  V30 4817 H 453.157 3.88922 -0.430772 0
M  V30 4818 H 452.78 3.76443 1.2797 0
M  V30 4819 N 453.777 0.010035 1.57597 0
M  V30 4820 C 455.024 -0.6727 1.91 0
M  V30 4821 C 455.352 -1.73219 0.884614 0
M  V30 4822 O 454.607 -1.95395 -0.109215 0
M  V30 4823 C 454.906 -1.34434 3.31153 0
M  V30 4824 C 454.572 -0.417083 4.48967 0
M  V30 4825 C 453.234 -0.161809 4.80928 0
M  V30 4826 C 455.586 0.220753 5.20732 0
M  V30 4827 C 452.914 0.739426 5.82022 0
M  V30 4828 C 455.266 1.10993 6.22787 0
M  V30 4829 C 453.93 1.37428 6.532 0
M  V30 4830 H 453.2 -0.246158 0.698918 0
M  V30 4831 H 455.847 0.0677145 1.9138 0
M  V30 4832 H 454.152 -2.15905 3.26944 0
M  V30 4833 H 455.849 -1.87883 3.54261 0
M  V30 4834 H 452.439 -0.626217 4.24001 0
M  V30 4835 H 456.623 0.0365643 4.96287 0
M  V30 4836 H 451.879 0.952139 6.03941 0
M  V30 4837 H 456.053 1.61046 6.77523 0
M  V30 4838 H 453.68 2.0743 7.31353 0
M  V30 4839 N 455.255 -1.55392 -0.262866 0
M  V30 4840 C 456.502 -1.76476 -0.993109 0
M  V30 4841 C 456.83 -0.571479 -1.85915 0
M  V30 4842 O 456.085 0.445733 -1.90556 0
M  V30 4843 C 456.384 -3.02889 -1.89718 0
M  V30 4844 C 456.05 -4.34974 -1.18781 0
M  V30 4845 C 454.712 -4.7087 -0.991699 0
M  V30 4846 C 457.064 -5.16695 -0.683798 0
M  V30 4847 C 454.392 -5.86036 -0.279024 0
M  V30 4848 C 456.744 -6.32598 0.0153327 0
M  V30 4849 C 455.408 -6.67127 0.223062 0
M  V30 4850 H 454.678 -0.64577 -0.363404 0
M  V30 4851 H 457.325 -1.89664 -0.264525 0
M  V30 4852 H 455.63 -2.84644 -2.6923 0
M  V30 4853 H 457.327 -3.16399 -2.46359 0
M  V30 4854 H 453.917 -4.06765 -1.35058 0
M  V30 4855 H 458.101 -4.8943 -0.8229 0
M  V30 4856 H 453.357 -6.11306 -0.107456 0
M  V30 4857 H 457.531 -6.95171 0.413584 0
M  V30 4858 H 455.158 -7.56216 0.777265 0
M  V30 4859 N 456.733 0.527833 -1.48498 0
M  V30 4860 C 458.149 0.856571 -1.34666 0
M  V30 4861 C 458.349 1.98271 -0.35931 0
M  V30 4862 O 457.405 2.51551 0.218703 0
M  V30 4863 C 458.718 1.22207 -2.74747 0
M  V30 4864 C 460.266 1.33183 -2.83251 0
M  V30 4865 C 460.741 1.73075 -4.24039 0
M  V30 4866 N 462.232 1.80174 -4.26722 0
M  V30 4867 C 462.967 2.1243 -5.32598 0
M  V30 4868 N 462.463 2.43096 -6.4875 0
M  V30 4869 N 464.256 2.13454 -5.19994 0
M  V30 4870 H 456.407 -0.215174 -2.11307 0
M  V30 4871 H 458.67 -0.0336281 -0.947403 0
M  V30 4872 H 458.376 0.468195 -3.4857 0
M  V30 4873 H 458.25 2.17173 -3.08409 0
M  V30 4874 H 460.637 2.07647 -2.09683 0
M  V30 4875 H 460.718 0.363333 -2.53206 0
M  V30 4876 H 460.362 0.991712 -4.98124 0
M  V30 4877 H 460.292 2.70979 -4.51529 0
M  V30 4878 H 462.783 1.58744 -3.42942 0
M  V30 4879 H 463.096 2.6682 -7.25277 0
M  V30 4880 H 461.441 2.40611 -6.52021 0
M  V30 4881 H 464.632 1.88956 -4.28268 0
M  V30 4882 H 464.805 2.38261 -6.02608 0
M  V30 4883 N 458.211 1.37122 0.776871 0
M  V30 4884 C 459.158 1.3247 1.88998 0
M  V30 4885 C 460.128 0.191143 1.64997 0
M  V30 4886 O 461.313 0.379683 1.86984 0
M  V30 4887 C 458.453 1.13241 3.25992 0
M  V30 4888 C 457.566 2.35782 3.61982 0
M  V30 4889 C 456.701 2.09465 4.88158 0
M  V30 4890 C 455.74 3.279 5.16864 0
M  V30 4891 N 454.877 3.01167 6.34226 0
M  V30 4892 H 459.717 2.27642 1.9231 0
M  V30 4893 H 457.254 1.13125 0.94027 0
M  V30 4894 H 459.212 1.00115 4.0501 0
M  V30 4895 H 457.842 0.217186 3.22069 0
M  V30 4896 H 456.894 2.59666 2.77989 0
M  V30 4897 H 458.206 3.24125 3.79137 0
M  V30 4898 H 457.36 1.93341 5.75069 0
M  V30 4899 H 456.099 1.18452 4.73097 0
M  V30 4900 H 455.104 3.44569 4.2843 0
M  V30 4901 H 456.329 4.19757 5.33836 0
M  V30 4902 H 454.275 2.12779 6.20533 0
M  V30 4903 H 454.192 3.83052 6.51772 0
M  V30 4904 H 455.46 2.88649 7.24087 0
M  V30 4905 N 459.689 -1.00246 1.21608 0
M  V30 4906 C 460.619 -2.10921 1.00172 0
M  V30 4907 C 461.6 -1.69938 -0.0741587 0
M  V30 4908 O 462.785 -1.94009 0.0861753 0
M  V30 4909 C 459.915 -3.42618 0.568355 0
M  V30 4910 C 458.869 -3.97407 1.58909 0
M  V30 4911 C 458.195 -5.25038 1.01187 0
M  V30 4912 C 459.495 -4.2918 2.97661 0
M  V30 4913 H 461.189 -2.29112 1.92739 0
M  V30 4914 H 458.735 -1.10101 0.928102 0
M  V30 4915 H 460.688 -4.19444 0.405555 0
M  V30 4916 H 459.412 -3.24227 -0.392961 0
M  V30 4917 H 458.071 -3.22703 1.73949 0
M  V30 4918 H 457.719 -5.02982 0.0421965 0
M  V30 4919 H 457.419 -5.62661 1.6937 0
M  V30 4920 H 458.943 -6.04507 0.860448 0
M  V30 4921 H 460.357 -4.96839 2.86049 0
M  V30 4922 H 458.754 -4.77952 3.6288 0
M  V30 4923 H 459.824 -3.3735 3.48315 0
M  V30 4924 N 461.167 -1.02423 -1.1978 0
M  V30 4925 C 462.583 -0.740459 -1.41384 0
M  V30 4926 C 462.783 0.676827 -1.89793 0
M  V30 4927 O 461.839 1.4435 -2.0717 0
M  V30 4928 C 463.152 -1.77264 -2.42895 0
M  V30 4929 C 464.7 -1.79165 -2.56649 0
M  V30 4930 C 465.175 -2.8133 -3.6141 0
M  V30 4931 N 466.666 -2.80118 -3.68901 0
M  V30 4932 C 467.401 -3.55824 -4.49641 0
M  V30 4933 N 466.897 -4.41231 -5.34123 0
M  V30 4934 N 468.69 -3.44387 -4.44246 0
M  V30 4935 H 460.841 -1.9391 -0.866764 0
M  V30 4936 H 463.104 -0.838074 -0.443098 0
M  V30 4937 H 462.81 -2.7884 -2.14339 0
M  V30 4938 H 462.684 -1.59108 -3.42001 0
M  V30 4939 H 465.071 -0.782702 -2.84531 0
M  V30 4940 H 465.152 -2.01396 -1.57713 0
M  V30 4941 H 464.796 -3.82394 -3.34271 0
M  V30 4942 H 464.726 -2.56359 -4.59986 0
M  V30 4943 H 467.217 -2.1817 -3.08562 0
M  V30 4944 H 467.53 -4.95747 -5.92836 0
M  V30 4945 H 465.875 -4.45306 -5.33599 0
M  V30 4946 H 469.066 -2.7708 -3.77285 0
M  V30 4947 H 469.239 -4.0364 -5.06931 0
M  V30 4948 N 462.645 1.35699 -0.801477 0
M  V30 4949 C 463.922 1.9324 -0.302937 0
M  V30 4950 C 464.302 1.73209 1.20672 0
M  V30 4951 O 463.65 1.09809 2.00385 0
M  V30 4952 C 463.86 3.41728 -0.708747 0
M  V30 4953 C 465.208 4.18868 -0.695328 0
M  V30 4954 O 466.232 3.5022 -0.649971 0
M  V30 4955 O 465.091 5.41342 -0.749081 0
M  V30 4956 H 462.185 0.82331 -0.0780367 0
M  V30 4957 H 464.731 1.44806 -0.884832 0
M  V30 4958 H 463.503 3.50015 -1.74944 0
M  V30 4959 H 463.126 3.97471 -0.101384 0
M  V30 4960 N 464.123 0.554532 1.47522 0
M  V30 4961 C 465.372 0.0273458 2.01681 0
M  V30 4962 C 465.685 -1.32962 1.43459 0
M  V30 4963 O 466.891 -1.94657 1.89265 0
M  V30 4964 C 465.347 -0.00159057 3.599 0
M  V30 4965 C 464.955 1.35197 4.27113 0
M  V30 4966 C 466.699 -0.476311 4.21819 0
M  V30 4967 C 464.606 1.28229 5.77331 0
M  V30 4968 H 463.536 0.00645269 0.753972 0
M  V30 4969 H 466.187 0.701985 1.69542 0
M  V30 4970 H 464.569 -0.741821 3.8899 0
M  V30 4971 H 465.743 2.1097 4.09668 0
M  V30 4972 H 464.058 1.76441 3.77171 0
M  V30 4973 H 466.655 -0.5468 5.31897 0
M  V30 4974 H 466.998 -1.4877 3.8881 0
M  V30 4975 H 467.531 0.20898 3.97251 0
M  V30 4976 H 464.27 2.26959 6.14955 0
M  V30 4977 H 463.79 0.566314 5.97121 0
M  V30 4978 H 465.469 0.983226 6.39485 0
M  V30 4979 N 465.601 -1.54893 0.290851 0
M  V30 4980 C 466.564 -2.21824 -0.576784 0
M  V30 4981 C 467.564 -1.20104 -1.06919 0
M  V30 4982 O 468.754 -1.44906 -0.966843 0
M  V30 4983 C 465.886 -2.89662 -1.79747 0
M  V30 4984 H 467.079 -2.99899 0.00784051 0
M  V30 4985 H 464.632 -1.56245 0.0415934 0
M  V30 4986 H 465.367 -2.15639 -2.42219 0
M  V30 4987 H 465.152 -3.64219 -1.45214 0
M  V30 4988 H 466.642 -3.4075 -2.4141 0
M  V30 4989 N 467.08 -0.0183926 -1.57589 0
M  V30 4990 C 468.496 0.337897 -1.55982 0
M  V30 4991 C 468.696 1.73604 -1.02294 0
M  V30 4992 O 467.752 2.43589 -0.664895 0
M  V30 4993 C 469.065 0.196305 -3.00059 0
M  V30 4994 C 470.613 0.269875 -3.11834 0
M  V30 4995 C 471.088 0.157197 -4.5773 0
M  V30 4996 N 472.579 0.214521 -4.62703 0
M  V30 4997 C 473.314 0.150955 -5.73201 0
M  V30 4998 N 472.81 0.0369212 -6.9279 0
M  V30 4999 N 474.603 0.204162 -5.61729 0
M  V30 5000 H 466.754 -0.93279 -1.90821 0
M  V30 5001 H 469.017 -0.359253 -0.877292 0
M  V30 5002 H 468.723 -0.766383 -3.43248 0
M  V30 5003 H 468.597 0.970908 -3.6449 0
M  V30 5004 H 470.984 1.22302 -2.68563 0
M  V30 5005 H 471.065 -0.534918 -2.50144 0
M  V30 5006 H 470.709 -0.792479 -5.01679 0
M  V30 5007 H 470.639 0.980717 -5.17387 0
M  V30 5008 H 473.13 0.303238 -3.76681 0
M  V30 5009 H 473.443 -0.00518321 -7.728 0
M  V30 5010 H 471.788 0.0022886 -6.95 0
M  V30 5011 H 474.979 0.291575 -4.67191 0
M  V30 5012 H 475.152 0.15116 -6.47824 0
M  V30 5013 N 468.558 1.5553 0.254621 0
M  V30 5014 C 469.505 1.89666 1.31512 0
M  V30 5015 C 470.475 0.750057 1.482 0
M  V30 5016 O 471.66 1.00301 1.62309 0
M  V30 5017 C 468.8 2.19009 2.667 0
M  V30 5018 C 467.913 3.46435 2.58083 0
M  V30 5019 C 467.048 3.65386 3.85573 0
M  V30 5020 C 466.087 4.8644 3.71541 0
M  V30 5021 N 465.224 5.01952 4.90906 0
M  V30 5022 H 470.064 2.80109 1.017 0
M  V30 5023 H 467.601 1.38666 0.490938 0
M  V30 5024 H 469.559 2.34025 3.45381 0
M  V30 5025 H 468.189 1.31779 2.94676 0
M  V30 5026 H 467.241 3.39792 1.71013 0
M  V30 5027 H 468.553 4.35258 2.43622 0
M  V30 5028 H 467.707 3.80319 4.72697 0
M  V30 5029 H 466.446 2.74781 4.02922 0
M  V30 5030 H 465.451 4.71491 2.82801 0
M  V30 5031 H 466.676 5.78497 3.55694 0
M  V30 5032 H 464.622 4.14283 5.08631 0
M  V30 5033 H 464.539 5.84851 4.79046 0
M  V30 5034 H 465.807 5.21289 5.7955 0
M  V30 5035 N 470.036 -0.519951 1.48776 0
M  V30 5036 C 470.986 -1.61995 1.60442 0
M  V30 5037 C 471.97 -1.54155 0.460991 0
M  V30 5038 O 473.162 -1.62006 0.712965 0
M  V30 5039 C 470.291 -3.00683 1.65664 0
M  V30 5040 C 469.377 -3.1359 2.8552 0
M  V30 5041 N 469.768 -2.96441 4.09825 0
M  V30 5042 C 468.066 -3.44662 2.83062 0
M  V30 5043 C 468.767 -3.1303 4.90293 0
M  V30 5044 N 467.743 -3.41058 4.23297 0
M  V30 5045 H 471.545 -1.47362 2.54287 0
M  V30 5046 H 469.059 -0.725649 1.45286 0
M  V30 5047 H 471.056 -3.79712 1.72117 0
M  V30 5048 H 469.716 -3.16401 0.729425 0
M  V30 5049 H 470.727 -2.72999 4.40104 0
M  V30 5050 H 467.404 -3.66675 1.9964 0
M  V30 5051 H 468.794 -3.04424 5.98979 0
M  V30 5052 N 471.514 -1.37532 -0.769588 0
M  V30 5053 C 472.762 -1.32597 -1.5252 0
M  V30 5054 C 473.083 0.0884294 -1.94799 0
M  V30 5055 O 472.353 1.03289 -1.66458 0
M  V30 5056 H 470.933 -0.487846 -0.565699 0
M  V30 5057 H 473.595 -1.72044 -0.915806 0
M  V30 5058 H 472.691 -1.96643 -2.42359 0
M  V30 5059 N 472.992 0.995999 -1.22138 0
M  V30 5060 C 474.232 1.75032 -1.05561 0
M  V30 5061 C 474.596 1.87729 0.402698 0
M  V30 5062 O 475.797 2.59813 0.689234 0
M  V30 5063 C 474.068 3.11973 -1.74379 0
M  V30 5064 S 475.627 4.03182 -1.73175 0
M  V30 5065 H 472.445 0.602137 -0.37809 0
M  V30 5066 H 475.047 1.19107 -1.55028 0
M  V30 5067 H 473.751 3.00371 -2.79652 0
M  V30 5068 H 473.282 3.7297 -1.25128 0
M  V30 5069 H 475.297 4.90043 -0.77923 0
M  V30 5070 N 474.47 1.03057 1.19235 0
M  V30 5071 C 475.433 0.617418 2.20727 0
M  V30 5072 C 476.433 -0.319856 1.57587 0
M  V30 5073 O 477.623 -0.106633 1.73873 0
M  V30 5074 C 474.755 -0.096296 3.40764 0
M  V30 5075 H 475.948 1.51544 2.58794 0
M  V30 5076 H 473.501 0.821949 1.32942 0
M  V30 5077 H 474.236 -1.00859 3.08217 0
M  V30 5078 H 474.021 0.577217 3.87828 0
M  V30 5079 H 475.511 -0.372219 4.15938 0
M  V30 5080 N 475.948 -1.35272 0.808662 0
M  V30 5081 C 477.195 -1.98709 0.390003 0
M  V30 5082 C 477.523 -1.64148 -1.04335 0
M  V30 5083 O 476.778 -0.897797 -1.73891 0
M  V30 5084 C 477.077 -3.53556 0.522798 0
M  V30 5085 C 476.743 -4.0799 1.91977 0
M  V30 5086 C 475.405 -4.22568 2.30195 0
M  V30 5087 C 477.757 -4.37442 2.83361 0
M  V30 5088 C 475.085 -4.63918 3.59162 0
M  V30 5089 C 477.437 -4.80232 4.11776 0
M  V30 5090 C 476.101 -4.93016 4.49991 0
M  V30 5091 H 475.371 -0.727127 0.142712 0
M  V30 5092 H 478.018 -1.6145 1.02985 0
M  V30 5093 H 476.323 -3.91287 -0.200494 0
M  V30 5094 H 478.02 -4.00598 0.179608 0
M  V30 5095 H 474.61 -3.97096 1.61284 0
M  V30 5096 H 478.794 -4.25731 2.55083 0
M  V30 5097 H 474.05 -4.72005 3.88615 0
M  V30 5098 H 478.224 -5.01982 4.82687 0
M  V30 5099 H 475.851 -5.24814 5.49976 0
M  V30 5100 N 477.426 -0.562348 -1.47226 0
M  V30 5101 C 478.356 0.170627 -2.32876 0
M  V30 5102 C 479.337 0.903748 -1.44106 0
M  V30 5103 O 480.522 0.883206 -1.72954 0
M  V30 5104 C 477.652 1.19786 -3.25989 0
M  V30 5105 C 476.606 0.580875 -4.2404 0
M  V30 5106 C 475.932 1.71311 -5.06514 0
M  V30 5107 C 477.232 -0.468714 -5.20193 0
M  V30 5108 H 478.926 -0.544441 -2.94408 0
M  V30 5109 H 476.472 -0.263271 -1.41573 0
M  V30 5110 H 478.425 1.71884 -3.84752 0
M  V30 5111 H 477.149 1.94294 -2.62521 0
M  V30 5112 H 475.808 0.0811538 -3.6651 0
M  V30 5113 H 475.456 2.44736 -4.39447 0
M  V30 5114 H 475.156 1.30604 -5.72902 0
M  V30 5115 H 476.68 2.23725 -5.68137 0
M  V30 5116 H 478.094 -0.0336028 -5.7329 0
M  V30 5117 H 476.491 -0.794957 -5.94811 0
M  V30 5118 H 477.561 -1.36269 -4.65359 0
M  V30 5119 N 478.904 1.54736 -0.299062 0
M  V30 5120 C 480.15 2.00397 0.311244 0
M  V30 5121 C 480.483 1.18716 1.53688 0
M  V30 5122 O 479.758 0.263154 1.92712 0
M  V30 5123 C 480.041 3.53817 0.669761 0
M  V30 5124 C 479.894 4.46239 -0.564882 0
M  V30 5125 C 481.213 4.13856 1.49702 0
M  V30 5126 H 478.332 0.728493 0.111653 0
M  V30 5127 H 480.974 1.85506 -0.410774 0
M  V30 5128 H 479.124 3.66637 1.28491 0
M  V30 5129 H 480.796 4.45328 -1.20337 0
M  V30 5130 H 479.039 4.16916 -1.19849 0
M  V30 5131 H 479.71 5.5134 -0.269918 0
M  V30 5132 H 482.186 4.04461 0.977284 0
M  V30 5133 H 481.062 5.21365 1.71666 0
M  V30 5134 H 481.323 3.65608 2.48563 0
M  V30 5135 N 480.382 0.0267497 1.57577 0
M  V30 5136 C 481.659 -0.690926 1.82991 0
M  V30 5137 C 482.039 -1.90471 0.910164 0
M  V30 5138 O 481.387 -2.28474 -0.0347985 0
M  V30 5139 C 481.597 -1.07139 3.32148 0
M  V30 5140 C 482.945 -1.46402 3.98562 0
M  V30 5141 O 483.969 -1.16443 3.36629 0
M  V30 5142 O 482.828 -2.02214 5.07712 0
M  V30 5143 H 479.922 -0.338747 0.75444 0
M  V30 5144 H 482.468 0.0542506 1.69613 0
M  V30 5145 H 481.24 -0.207394 3.9075 0
M  V30 5146 H 480.863 -1.87481 3.50623 0
M  V30 5147 N 481.861 -1.55662 -0.24637 0
M  V30 5148 C 482.771 -1.93495 -1.32653 0
M  V30 5149 C 483.787 -0.835462 -1.5263 0
M  V30 5150 O 484.963 -1.1369 -1.66242 0
M  V30 5151 C 482.028 -2.22242 -2.66101 0
M  V30 5152 C 481.089 -3.45625 -2.54641 0
M  V30 5153 C 480.322 -3.72991 -3.81724 0
M  V30 5154 O 480.545 -3.02421 -4.8363 0
M  V30 5155 O 479.479 -4.66515 -3.80325 0
M  V30 5156 H 483.305 -2.85498 -1.03559 0
M  V30 5157 H 480.89 -1.42551 -0.44717 0
M  V30 5158 H 482.772 -2.42037 -3.44958 0
M  V30 5159 H 481.447 -1.33417 -2.94926 0
M  V30 5160 H 480.354 -3.31136 -1.74067 0
M  V30 5161 H 481.687 -4.34754 -2.3076 0
M  V30 5162 N 483.339 0.512053 -1.4905 0
M  V30 5163 C 484.585 1.26874 -1.58212 0
M  V30 5164 C 484.918 1.9241 -0.263073 0
M  V30 5165 O 484.193 1.80181 0.732476 0
M  V30 5166 C 484.476 2.34428 -2.73341 0
M  V30 5167 C 484.329 1.73466 -4.15006 0
M  V30 5168 C 485.648 3.36073 -2.84154 0
M  V30 5169 H 482.767 0.459924 -0.575881 0
M  V30 5170 H 485.409 0.568587 -1.81293 0
M  V30 5171 H 483.559 2.94146 -2.53792 0
M  V30 5172 H 485.231 1.17661 -4.46042 0
M  V30 5173 H 483.474 1.03921 -4.21168 0
M  V30 5174 H 484.145 2.51426 -4.91415 0
M  V30 5175 H 486.621 2.86332 -3.01916 0
M  V30 5176 H 485.497 4.08703 -3.66406 0
M  V30 5177 H 485.758 3.97725 -1.93048 0
M  V30 5178 N 484.817 1.37938 0.762283 0
M  V30 5179 C 485.749 1.30349 1.88525 0
M  V30 5180 C 486.762 0.217402 1.61342 0
M  V30 5181 O 487.951 0.474291 1.72084 0
M  V30 5182 C 485.051 0.994844 3.23969 0
M  V30 5183 C 484.224 2.18829 3.78725 0
M  V30 5184 C 483.283 1.84844 4.92665 0
M  V30 5185 O 482.309 2.57244 5.07754 0
M  V30 5186 N 483.511 0.798201 5.74986 0
M  V30 5187 H 486.276 2.27114 1.95549 0
M  V30 5188 H 483.837 1.31686 0.941825 0
M  V30 5189 H 485.829 0.748168 3.97724 0
M  V30 5190 H 484.399 0.115446 3.12387 0
M  V30 5191 H 483.619 2.59615 2.96637 0
M  V30 5192 H 484.907 2.98497 4.1204 0
M  V30 5193 H 484.305 0.197611 5.65355 0
M  V30 5194 H 482.862 0.611396 6.48926 0
M  V30 5195 N 486.295 -0.989507 1.22664 0
M  V30 5196 C 487.523 -1.76496 1.07967 0
M  V30 5197 C 487.938 -1.85148 -0.369543 0
M  V30 5198 O 487.295 -1.32408 -1.25596 0
M  V30 5199 C 487.346 -3.19642 1.68853 0
M  V30 5200 O 487.067 -3.11453 3.08105 0
M  V30 5201 C 488.568 -4.13621 1.59475 0
M  V30 5202 H 485.788 -0.55418 0.378319 0
M  V30 5203 H 488.332 -1.24378 1.62328 0
M  V30 5204 H 486.487 -3.68816 1.18547 0
M  V30 5205 H 486.901 -4.01499 3.37489 0
M  V30 5206 H 488.375 -5.11801 2.06795 0
M  V30 5207 H 488.852 -4.35718 0.55191 0
M  V30 5208 H 489.458 -3.70346 2.09103 0
M  V30 5209 N 487.773 -1.03688 -1.18687 0
M  V30 5210 C 489.021 -0.736572 -1.88199 0
M  V30 5211 C 489.342 0.737665 -1.80509 0
M  V30 5212 O 488.612 1.53204 -1.22088 0
M  V30 5213 H 487.192 -0.269466 -0.696704 0
M  V30 5214 H 489.854 -1.31282 -1.44052 0
M  V30 5215 H 488.95 -1.03802 -2.94332 0
M  V30 5216 N 489.251 1.34841 -0.815825 0
M  V30 5217 C 490.499 1.98107 -0.399744 0
M  V30 5218 C 490.82 1.65019 1.03894 0
M  V30 5219 O 490.09 0.937311 1.72021 0
M  V30 5220 H 488.67 0.732827 -0.144823 0
M  V30 5221 H 491.332 1.64599 -1.0437 0
M  V30 5222 H 490.428 3.07856 -0.512965 0
M  V30 5223 N 490.729 0.570148 1.46925 0
M  V30 5224 C 491.977 0.0508523 2.02036 0
M  V30 5225 C 492.298 -1.30885 1.44548 0
M  V30 5226 O 491.568 -1.85647 0.625453 0
M  V30 5227 H 490.148 0.0158088 0.746833 0
M  V30 5228 H 492.81 0.743086 1.80178 0
M  V30 5229 H 491.906 -0.027575 3.12088 0
M  V30 5230 N 492.207 -1.54576 0.307264 0
M  V30 5231 C 493.447 -2.02172 -0.300962 0
M  V30 5232 C 493.811 -1.19081 -1.50611 0
M  V30 5233 O 495.012 -1.56405 -2.18612 0
M  V30 5234 C 493.283 -3.51576 -0.642591 0
M  V30 5235 S 494.842 -4.21127 -1.23279 0
M  V30 5236 H 491.66 -0.705021 -0.0920141 0
M  V30 5237 H 494.262 -1.90563 0.436594 0
M  V30 5238 H 492.966 -4.09681 0.242901 0
M  V30 5239 H 492.497 -3.67234 -1.41077 0
M  V30 5240 H 494.512 -4.27426 -2.52034 0
M  V30 5241 N 493.685 -0.035106 -1.57561 0
M  V30 5242 C 494.913 0.652258 -1.9635 0
M  V30 5243 C 495.328 1.65317 -0.911897 0
M  V30 5244 O 494.685 1.82194 0.105657 0
M  V30 5245 C 494.736 1.35337 -3.35211 0
M  V30 5246 O 494.457 0.392548 -4.36338 0
M  V30 5247 C 495.958 2.13199 -3.88666 0
M  V30 5248 H 493.178 0.179444 -0.646561 0
M  V30 5249 H 495.722 -0.0966459 -2.04271 0
M  V30 5250 H 493.877 2.05362 -3.28489 0
M  V30 5251 H 494.291 0.891097 -5.16875 0
M  V30 5252 H 495.765 2.577 -4.88154 0
M  V30 5253 H 496.242 2.97353 -3.23231 0
M  V30 5254 H 496.848 1.48118 -3.98674 0
M  V30 5255 N 495.163 1.55791 0.238111 0
M  V30 5256 C 496.411 1.77681 0.963001 0
M  V30 5257 C 496.732 0.600674 1.85518 0
M  V30 5258 O 496.002 -0.383182 1.92116 0
M  V30 5259 H 494.582 0.655315 0.358568 0
M  V30 5260 H 497.244 1.93239 0.253945 0
M  V30 5261 H 496.34 2.69177 1.57956 0
M  V30 5262 N 496.642 -0.504142 1.49319 0
M  V30 5263 C 497.589 -1.60603 1.65756 0
M  V30 5264 C 498.559 -1.58425 0.499082 0
M  V30 5265 O 499.744 -1.76459 0.725728 0
M  V30 5266 C 496.884 -2.98764 1.72726 0
M  V30 5267 C 495.997 -3.10982 2.99857 0
M  V30 5268 C 495.132 -4.39857 2.97824 0
M  V30 5269 C 494.171 -4.45697 4.19548 0
M  V30 5270 N 493.308 -5.65995 4.15444 0
M  V30 5271 H 498.148 -1.45895 2.59843 0
M  V30 5272 H 495.685 -0.709891 1.28837 0
M  V30 5273 H 497.643 -3.78839 1.74747 0
M  V30 5274 H 496.273 -3.12183 0.821075 0
M  V30 5275 H 495.325 -2.23991 3.07461 0
M  V30 5276 H 496.637 -3.11157 3.89849 0
M  V30 5277 H 495.791 -5.2825 2.98391 0
M  V30 5278 H 494.53 -4.42242 2.05604 0
M  V30 5279 H 493.535 -3.55707 4.19229 0
M  V30 5280 H 494.76 -4.4503 5.12957 0
M  V30 5281 H 492.706 -5.69229 3.26059 0
M  V30 5282 H 492.623 -5.67773 4.99169 0
M  V30 5283 H 493.891 -6.56604 4.20109 0
M  V30 5284 N 498.12 -1.38341 -0.754957 0
M  V30 5285 C 499.367 -1.34473 -1.51404 0
M  V30 5286 C 499.695 0.0656458 -1.94389 0
M  V30 5287 O 498.95 1.04244 -1.65625 0
M  V30 5288 C 499.249 -2.2452 -2.78075 0
M  V30 5289 C 498.915 -3.72512 -2.54059 0
M  V30 5290 C 497.577 -4.1284 -2.47218 0
M  V30 5291 C 499.929 -4.66197 -2.33044 0
M  V30 5292 C 497.257 -5.44945 -2.17376 0
M  V30 5293 C 499.609 -5.98558 -2.04723 0
M  V30 5294 C 498.273 -6.37972 -1.96337 0
M  V30 5295 H 497.543 -0.492072 -0.554027 0
M  V30 5296 H 500.19 -1.70687 -0.868223 0
M  V30 5297 H 498.495 -1.81357 -3.473 0
M  V30 5298 H 500.192 -2.18832 -3.36026 0
M  V30 5299 H 496.782 -3.40538 -2.60253 0
M  V30 5300 H 500.966 -4.35888 -2.37309 0
M  V30 5301 H 496.222 -5.74426 -2.09391 0
M  V30 5302 H 500.396 -6.70693 -1.87465 0
M  V30 5303 H 498.023 -7.40258 -1.72978 0
M  V30 5304 N 499.598 0.982988 -1.23187 0
M  V30 5305 C 500.844 1.7273 -1.07405 0
M  V30 5306 C 501.199 1.885 0.385447 0
M  V30 5307 O 500.492 1.4243 1.28157 0
M  V30 5308 C 500.686 3.12736 -1.73006 0
M  V30 5309 C 500.515 3.10621 -3.25184 0
M  V30 5310 C 499.285 3.15957 -3.94334 0
M  V30 5311 C 501.483 2.93992 -4.21987 0
M  V30 5312 N 499.465 3.03701 -5.33516 0
M  V30 5313 C 500.836 2.8987 -5.48065 0
M  V30 5314 C 502.891 2.78457 -4.12754 0
M  V30 5315 C 501.594 2.71804 -6.65969 0
M  V30 5316 C 503.62 2.61754 -5.30319 0
M  V30 5317 C 502.982 2.58328 -6.55321 0
M  V30 5318 H 499.081 0.641279 -0.447533 0
M  V30 5319 H 501.665 1.16664 -1.55877 0
M  V30 5320 H 499.836 3.67026 -1.2707 0
M  V30 5321 H 501.568 3.75786 -1.50224 0
M  V30 5322 H 498.323 3.24034 -3.45397 0
M  V30 5323 H 498.747 3.00855 -6.06478 0
M  V30 5324 H 503.389 2.79898 -3.16886 0
M  V30 5325 H 501.107 2.69108 -7.61975 0
M  V30 5326 H 504.693 2.50702 -5.25014 0
M  V30 5327 H 503.573 2.45564 -7.4476 0
M  V30 5328 N 501.076 1.04316 1.18135 0
M  V30 5329 C 502.039 0.640794 2.2006 0
M  V30 5330 C 503.039 -0.303124 1.57917 0
M  V30 5331 O 504.229 -0.0881855 1.73977 0
M  V30 5332 C 501.361 -0.060148 3.40847 0
M  V30 5333 H 502.554 1.54281 2.57172 0
M  V30 5334 H 500.107 0.836004 1.32063 0
M  V30 5335 H 500.842 -0.975845 3.0927 0
M  V30 5336 H 500.627 0.618319 3.87194 0
M  V30 5337 H 502.117 -0.328082 4.16309 0
M  V30 5338 N 502.554 -1.34406 0.822964 0
M  V30 5339 C 503.504 -2.26963 0.217208 0
M  V30 5340 C 504.488 -1.48536 -0.618545 0
M  V30 5341 O 505.68 -1.7056 -0.473118 0
M  V30 5342 C 502.809 -3.37655 -0.619973 0
M  V30 5343 C 501.895 -4.23495 0.226411 0
M  V30 5344 N 502.286 -4.88876 1.29744 0
M  V30 5345 C 500.584 -4.45999 0.0107554 0
M  V30 5346 C 501.285 -5.52642 1.81553 0
M  V30 5347 N 500.261 -5.31949 1.11942 0
M  V30 5348 H 504.063 -2.75017 1.03647 0
M  V30 5349 H 501.577 -1.48126 0.665777 0
M  V30 5350 H 503.574 -4.02932 -1.07011 0
M  V30 5351 H 502.234 -2.91151 -1.43739 0
M  V30 5352 H 503.245 -4.89886 1.68024 0
M  V30 5353 H 499.922 -4.10253 -0.774495 0
M  V30 5354 H 501.312 -6.14755 2.71156 0
M  V30 5355 N 504.032 -0.577932 -1.46621 0
M  V30 5356 C 504.942 0.160651 -2.34049 0
M  V30 5357 C 505.958 0.890911 -1.49462 0
M  V30 5358 O 507.134 0.855166 -1.82343 0
M  V30 5359 C 504.199 1.16447 -3.26559 0
M  V30 5360 C 503.26 0.4394 -4.27045 0
M  V30 5361 C 502.493 1.3954 -5.15135 0
M  V30 5362 O 502.716 2.63162 -5.06065 0
M  V30 5363 O 501.65 0.908585 -5.95003 0
M  V30 5364 H 505.476 -0.557057 -2.98547 0
M  V30 5365 H 503.061 -0.338369 -1.45518 0
M  V30 5366 H 504.943 1.7434 -3.83645 0
M  V30 5367 H 503.618 1.86373 -2.64663 0
M  V30 5368 H 502.525 -0.181247 -3.73661 0
M  V30 5369 H 503.858 -0.218799 -4.91713 0
M  V30 5370 N 505.51 1.54411 -0.315457 0
M  V30 5371 C 506.46 2.20772 0.569549 0
M  V30 5372 C 507.444 1.18551 1.08787 0
M  V30 5373 O 508.636 1.44213 1.02624 0
M  V30 5374 C 505.765 2.96293 1.73394 0
M  V30 5375 C 504.851 4.05844 1.2309 0
M  V30 5376 N 505.242 5.03822 0.446927 0
M  V30 5377 C 503.54 4.19648 1.51035 0
M  V30 5378 C 504.241 5.8143 0.17725 0
M  V30 5379 N 503.217 5.38245 0.761118 0
M  V30 5380 H 507.019 2.93877 -0.0368076 0
M  V30 5381 H 504.533 1.61949 -0.120915 0
M  V30 5382 H 506.53 3.42313 2.37965 0
M  V30 5383 H 505.19 2.24708 2.34386 0
M  V30 5384 H 506.201 5.17821 0.0905027 0
M  V30 5385 H 502.878 3.59274 2.1267 0
M  V30 5386 H 504.268 6.70369 -0.45335 0
M  V30 5387 N 506.988 0.0434614 1.5754 0
M  V30 5388 C 508.234 -0.627109 1.93491 0
M  V30 5389 C 508.589 -1.68904 0.921362 0
M  V30 5390 O 507.882 -1.91504 -0.0605799 0
M  V30 5391 C 508.076 -1.2738 3.3393 0
M  V30 5392 C 507.905 -0.27603 4.48852 0
M  V30 5393 C 506.675 0.129244 5.05135 0
M  V30 5394 C 508.873 0.475462 5.12098 0
M  V30 5395 N 506.855 1.12068 6.03584 0
M  V30 5396 C 508.226 1.32021 6.05781 0
M  V30 5397 C 510.281 0.534611 4.95022 0
M  V30 5398 C 508.984 2.2188 6.84223 0
M  V30 5399 C 511.01 1.42059 5.74085 0
M  V30 5400 C 510.372 2.25309 6.67394 0
M  V30 5401 H 506.471 -0.201354 0.755633 0
M  V30 5402 H 509.055 0.113991 1.94366 0
M  V30 5403 H 507.226 -1.98496 3.33847 0
M  V30 5404 H 508.958 -1.90255 3.57191 0
M  V30 5405 H 505.713 -0.248145 4.72949 0
M  V30 5406 H 506.137 1.61306 6.57502 0
M  V30 5407 H 510.779 -0.0947817 4.22694 0
M  V30 5408 H 508.497 2.85868 7.55847 0
M  V30 5409 H 512.083 1.47083 5.62901 0
M  V30 5410 H 510.963 2.92754 7.27506 0
M  V30 5411 N 508.466 -1.55915 -0.229846 0
M  V30 5412 C 509.714 -1.7819 -0.953565 0
M  V30 5413 C 510.035 -0.610504 -1.85197 0
M  V30 5414 O 509.305 0.372988 -1.92316 0
M  V30 5415 H 507.885 -0.657208 -0.355087 0
M  V30 5416 H 510.547 -1.9337 -0.243693 0
M  V30 5417 H 509.643 -2.70011 -1.56527 0
M  V30 5418 N 509.944 0.496216 -1.49584 0
M  V30 5419 C 510.874 1.60576 -1.69521 0
M  V30 5420 C 511.855 1.61169 -0.543933 0
M  V30 5421 O 513.04 1.77834 -0.78031 0
M  V30 5422 C 510.17 2.99038 -1.76616 0
M  V30 5423 C 509.124 3.13312 -2.91581 0
M  V30 5424 C 508.45 4.53172 -2.83794 0
M  V30 5425 C 509.75 2.92886 -4.32452 0
M  V30 5426 H 511.444 1.44146 -2.62416 0
M  V30 5427 H 508.99 0.692024 -1.26282 0
M  V30 5428 H 510.943 3.76564 -1.8915 0
M  V30 5429 H 509.667 3.16568 -0.80324 0
M  V30 5430 H 508.326 2.38213 -2.78658 0
M  V30 5431 H 507.974 4.67585 -1.854 0
M  V30 5432 H 507.674 4.63662 -3.60958 0
M  V30 5433 H 509.198 5.32752 -2.98342 0
M  V30 5434 H 510.612 3.60178 -4.46032 0
M  V30 5435 H 509.009 3.14844 -5.10875 0
M  V30 5436 H 510.079 1.88966 -4.46565 0
M  V30 5437 N 511.423 1.38739 0.74761 0
M  V30 5438 C 512.7 1.25791 1.49786 0
M  V30 5439 C 513.08 -0.138075 2.10648 0
M  V30 5440 O 512.428 -1.14815 1.9756 0
M  V30 5441 C 512.638 2.37265 2.55942 0
M  V30 5442 C 513.986 2.75978 3.22679 0
M  V30 5443 O 515.01 2.36621 2.6625 0
M  V30 5444 O 513.869 3.43867 4.24756 0
M  V30 5445 H 510.963 0.492251 0.664543 0
M  V30 5446 H 513.509 1.50582 0.782511 0
M  V30 5447 H 512.281 3.30644 2.0926 0
M  V30 5448 H 511.904 2.14071 3.35051 0
M  V30 5449 N 512.901 -0.976442 1.23707 0
M  V30 5450 C 514.178 -1.69296 0.979699 0
M  V30 5451 C 514.558 -2.0508 -0.500555 0
M  V30 5452 O 513.906 -1.74708 -1.47273 0
M  V30 5453 C 514.116 -2.93143 1.89389 0
M  V30 5454 C 515.464 -3.65572 2.15968 0
M  V30 5455 O 516.488 -3.03184 1.86971 0
M  V30 5456 O 515.347 -4.77859 2.65167 0
M  V30 5457 H 512.441 -0.739708 0.369812 0
M  V30 5458 H 514.987 -1.03131 1.34767 0
M  V30 5459 H 513.759 -2.63327 2.89439 0
M  V30 5460 H 513.382 -3.67044 1.52854 0
M  V30 5461 N 514.379 -1.04941 -1.1758 0
M  V30 5462 C 515.79 -0.784501 -1.69418 0
M  V30 5463 C 516.141 0.693625 -1.8353 0
M  V30 5464 O 515.266 1.53925 -1.52106 0
M  V30 5465 C 515.861 -1.41746 -3.07723 0
M  V30 5466 C 514.42 -1.20066 -3.56737 0
M  V30 5467 C 513.567 -1.5026 -2.33061 0
M  V30 5468 H 516.518 -1.21469 -1.02133 0
M  V30 5469 H 516.539 -0.825381 -3.7144 0
M  V30 5470 H 516.051 -2.49325 -2.9742 0
M  V30 5471 H 514.152 -0.144006 -3.72322 0
M  V30 5472 H 514.265 -1.90384 -4.39648 0
M  V30 5473 H 512.629 -0.922598 -2.37403 0
M  V30 5474 H 513.412 -2.58967 -2.25368 0
M  V30 5475 N 515.857 1.33968 -0.830081 0
M  V30 5476 C 516.82 2.27694 -0.26235 0
M  V30 5477 C 517.82 1.50589 0.563876 0
M  V30 5478 O 519.01 1.70028 0.378941 0
M  V30 5479 C 516.142 3.35002 0.63138 0
M  V30 5480 H 517.335 2.79419 -1.08928 0
M  V30 5481 H 514.888 1.44221 -0.602486 0
M  V30 5482 H 515.623 2.88504 1.48109 0
M  V30 5483 H 515.408 3.92079 0.0403276 0
M  V30 5484 H 516.898 4.04897 1.02217 0
M  V30 5485 N 517.335 0.585699 1.46312 0
M  V30 5486 C 518.612 0.00542031 1.95599 0
M  V30 5487 C 518.992 -1.45619 1.52834 0
M  V30 5488 O 518.34 -2.14759 0.780446 0
M  V30 5489 C 518.55 0.180601 3.48532 0
M  V30 5490 C 519.898 0.049979 4.24571 0
M  V30 5491 O 520.922 0.109589 3.56031 0
M  V30 5492 O 519.781 -0.0832226 5.46437 0
M  V30 5493 H 516.875 -0.0481281 0.825598 0
M  V30 5494 H 519.421 0.654227 1.56582 0
M  V30 5495 H 518.193 1.19657 3.72556 0
M  V30 5496 H 517.816 -0.504498 3.94386 0
M  V30 5497 N 518.813 -1.54241 0.323641 0
M  V30 5498 C 520.059 -2.00867 -0.279323 0
M  V30 5499 C 520.392 -1.21146 -1.5178 0
M  V30 5500 O 519.667 -0.29378 -1.92269 0
M  V30 5501 C 519.95 -3.54837 -0.613387 0
M  V30 5502 C 519.803 -4.45284 0.635803 0
M  V30 5503 C 521.122 -4.16186 -1.43099 0
M  V30 5504 H 518.241 -0.730177 -0.100049 0
M  V30 5505 H 520.883 -1.84829 0.440235 0
M  V30 5506 H 519.033 -3.68634 -1.22641 0
M  V30 5507 H 520.705 -4.43357 1.27406 0
M  V30 5508 H 518.948 -4.14956 1.26466 0
M  V30 5509 H 519.619 -5.5084 0.357597 0
M  V30 5510 H 522.095 -4.05964 -0.912814 0
M  V30 5511 H 520.971 -5.24031 -1.6335 0
M  V30 5512 H 521.232 -3.69516 -2.42715 0
M  V30 5513 N 520.291 -0.0518155 -1.57515 0
M  V30 5514 C 521.224 0.957758 -2.07129 0
M  V30 5515 C 522.202 1.30355 -0.971927 0
M  V30 5516 O 523.386 1.41631 -1.2439 0
M  V30 5517 C 520.513 2.27157 -2.51232 0
M  V30 5518 C 519.559 2.07879 -3.72409 0
M  V30 5519 S 520.392 1.35656 -5.18033 0
M  V30 5520 C 521.548 2.68359 -5.65451 0
M  V30 5521 H 521.781 0.53552 -2.92437 0
M  V30 5522 H 519.314 0.160465 -1.53564 0
M  V30 5523 H 521.272 3.02676 -2.77304 0
M  V30 5524 H 519.933 2.66509 -1.66228 0
M  V30 5525 H 519.126 3.05061 -4.01191 0
M  V30 5526 H 518.728 1.40499 -3.46606 0
M  V30 5527 H 521.02 3.64526 -5.71076 0
M  V30 5528 H 521.963 2.44213 -6.64654 0
M  V30 5529 H 522.371 2.74647 -4.93183 0
M  V30 5530 N 521.769 1.56035 0.221574 0
M  V30 5531 C 522.997 1.8313 0.962864 0
M  V30 5532 C 523.412 0.630934 1.77946 0
M  V30 5533 O 522.769 -0.400519 1.78051 0
M  V30 5534 C 522.82 3.08742 1.88045 0
M  V30 5535 O 522.541 4.24147 1.09686 0
M  V30 5536 C 524.042 3.48824 2.73563 0
M  V30 5537 H 521.262 0.608775 0.282194 0
M  V30 5538 H 523.806 2.03124 0.23681 0
M  V30 5539 H 521.961 2.90723 2.56045 0
M  V30 5540 H 522.375 4.95505 1.71974 0
M  V30 5541 H 523.849 4.39752 3.3365 0
M  V30 5542 H 524.326 2.70575 3.45956 0
M  V30 5543 H 524.932 3.69282 2.10976 0
M  V30 5544 N 523.247 -0.488276 1.49845 0
M  V30 5545 C 524.494 -1.24157 1.59973 0
M  V30 5546 C 524.822 -1.92293 0.292182 0
M  V30 5547 O 524.077 -1.81942 -0.720813 0
M  V30 5548 C 524.376 -2.32152 2.71735 0
M  V30 5549 C 524.042 -1.81387 4.12807 0
M  V30 5550 C 522.704 -1.67262 4.51195 0
M  V30 5551 C 525.056 -1.43537 5.01045 0
M  V30 5552 C 522.384 -1.13685 5.7558 0
M  V30 5553 C 524.736 -0.914081 6.25961 0
M  V30 5554 C 523.4 -0.759327 6.63167 0
M  V30 5555 H 522.67 -0.454322 0.585383 0
M  V30 5556 H 525.317 -0.540261 1.83721 0
M  V30 5557 H 523.622 -3.08122 2.42008 0
M  V30 5558 H 525.319 -2.90164 2.76778 0
M  V30 5559 H 521.909 -1.93344 3.82513 0
M  V30 5560 H 526.093 -1.53292 4.72033 0
M  V30 5561 H 521.349 -1.00426 6.03096 0
M  V30 5562 H 525.523 -0.612066 6.93705 0
M  V30 5563 H 523.15 -0.342002 7.5943 0
M  V30 5564 N 524.725 -1.39134 -0.740242 0
M  V30 5565 C 525.95 -1.39518 -1.53459 0
M  V30 5566 C 526.375 0.00968883 -1.88098 0
M  V30 5567 O 525.733 0.995312 -1.51536 0
M  V30 5568 C 525.781 -2.26981 -2.802 0
M  V30 5569 O 524.885 -1.69609 -3.75908 0
M  V30 5570 H 524.226 -0.475328 -0.463637 0
M  V30 5571 H 526.756 -1.83064 -0.913717 0
M  V30 5572 H 526.766 -2.41309 -3.28989 0
M  V30 5573 H 525.441 -3.29081 -2.5432 0
M  V30 5574 H 524.018 -1.64495 -3.34658 0
M  V30 5575 N 526.204 0.969867 -1.24223 0
M  V30 5576 C 527.151 2.06407 -1.0327 0
M  V30 5577 C 528.121 1.66014 0.0533 0
M  V30 5578 O 529.306 1.90533 -0.100896 0
M  V30 5579 C 526.446 3.3909 -0.641262 0
M  V30 5580 C 525.559 3.9269 -1.80051 0
M  V30 5581 C 524.694 5.13631 -1.35486 0
M  V30 5582 C 523.733 5.59423 -2.48419 0
M  V30 5583 N 522.87 6.71586 -2.04737 0
M  V30 5584 H 527.71 2.23663 -1.96923 0
M  V30 5585 H 525.247 1.09624 -0.980862 0
M  V30 5586 H 527.205 4.15323 -0.395351 0
M  V30 5587 H 525.835 3.21765 0.258269 0
M  V30 5588 H 524.887 3.13116 -2.16014 0
M  V30 5589 H 526.199 4.22636 -2.64916 0
M  V30 5590 H 525.353 5.97231 -1.0677 0
M  V30 5591 H 524.092 4.85364 -0.476722 0
M  V30 5592 H 523.097 4.74398 -2.77897 0
M  V30 5593 H 524.322 5.89705 -3.36786 0
M  V30 5594 H 522.268 6.45058 -1.19318 0
M  V30 5595 H 522.185 7.0097 -2.83156 0
M  V30 5596 H 523.453 7.58633 -1.79154 0
M  V30 5597 N 527.682 1.05563 1.17022 0
M  V30 5598 C 528.629 0.659893 2.21165 0
M  V30 5599 C 529.599 -0.339813 1.62587 0
M  V30 5600 O 530.784 -0.230378 1.89404 0
M  V30 5601 C 527.924 0.0447297 3.45071 0
M  V30 5602 C 527.037 1.09372 4.17926 0
M  V30 5603 C 526.172 0.445481 5.29329 0
M  V30 5604 C 525.211 1.47852 5.93975 0
M  V30 5605 N 524.348 0.854172 6.96885 0
M  V30 5606 H 529.188 1.55243 2.54369 0
M  V30 5607 H 526.725 0.776336 1.24946 0
M  V30 5608 H 528.683 -0.329404 4.15898 0
M  V30 5609 H 527.313 -0.811244 3.1244 0
M  V30 5610 H 526.365 1.58564 3.45777 0
M  V30 5611 H 527.677 1.87773 4.62107 0
M  V30 5612 H 526.831 0.0179688 6.06697 0
M  V30 5613 H 525.57 -0.370481 4.86291 0
M  V30 5614 H 524.575 1.91601 5.15334 0
M  V30 5615 H 525.8 2.29645 6.39093 0
M  V30 5616 H 523.746 0.0587882 6.55974 0
M  V30 5617 H 523.663 1.57567 7.39397 0
M  V30 5618 H 524.931 0.451559 7.78191 0
M  V30 5619 N 529.16 -1.33526 0.837174 0
M  V30 5620 C 530.093 -2.27192 0.214233 0
M  V30 5621 C 531.071 -1.49575 -0.637657 0
M  V30 5622 O 532.255 -1.78753 -0.598291 0
M  V30 5623 C 529.382 -3.31401 -0.699367 0
M  V30 5624 C 528.428 -4.26431 0.0768429 0
M  V30 5625 S 529.261 -5.15954 1.4336 0
M  V30 5626 C 530.417 -6.23692 0.525251 0
M  V30 5627 H 530.65 -2.79679 1.00831 0
M  V30 5628 H 528.183 -1.4079 0.633834 0
M  V30 5629 H 530.141 -3.91924 -1.22088 0
M  V30 5630 H 528.802 -2.77732 -1.46709 0
M  V30 5631 H 527.995 -5.00193 -0.618268 0
M  V30 5632 H 527.597 -3.70235 0.529364 0
M  V30 5633 H 529.889 -6.76931 -0.277575 0
M  V30 5634 H 530.832 -6.97283 1.23299 0
M  V30 5635 H 531.24 -5.64398 0.107351 0
M  V30 5636 N 530.638 -0.59345 -1.46 0
M  V30 5637 C 531.571 0.182196 -2.27472 0
M  V30 5638 C 532.549 0.886901 -1.36282 0
M  V30 5639 O 533.733 0.898627 -1.65701 0
M  V30 5640 C 530.86 1.26236 -3.14296 0
M  V30 5641 C 529.906 0.662331 -4.21326 0
M  V30 5642 S 530.739 -0.519017 -5.32979 0
M  V30 5643 C 531.895 0.562086 -6.23371 0
M  V30 5644 H 532.128 -0.509056 -2.92909 0
M  V30 5645 H 529.661 -0.380607 -1.49635 0
M  V30 5646 H 531.619 1.88075 -3.64881 0
M  V30 5647 H 530.28 1.92562 -2.48151 0
M  V30 5648 H 529.473 1.47461 -4.81945 0
M  V30 5649 H 529.075 0.119381 -3.73809 0
M  V30 5650 H 531.367 1.44494 -6.61912 0
M  V30 5651 H 532.31 -0.00760776 -7.081 0
M  V30 5652 H 532.718 0.871061 -5.57739 0
M  V30 5653 N 532.116 1.54067 -0.331816 0
M  V30 5654 C 533.344 2.05131 0.269996 0
M  V30 5655 C 533.759 1.20749 1.45138 0
M  V30 5656 O 533.116 0.240069 1.80914 0
M  V30 5657 C 533.167 3.54728 0.696456 0
M  V30 5658 O 532.888 4.35906 -0.43794 0
M  V30 5659 C 534.389 4.21916 1.36021 0
M  V30 5660 H 531.609 0.668807 0.0542042 0
M  V30 5661 H 534.153 1.98777 -0.4804 0
M  V30 5662 H 532.308 3.61342 1.39681 0
M  V30 5663 H 532.722 5.24404 -0.100334 0
M  V30 5664 H 534.196 5.28015 1.60947 0
M  V30 5665 H 534.673 3.73538 2.31011 0
M  V30 5666 H 535.279 4.19463 0.702212 0
M  V30 5667 N 533.594 0.0601682 1.57485 0
M  V30 5668 C 534.842 -0.610386 1.92662 0
M  V30 5669 C 535.163 -1.70849 0.939981 0
M  V30 5670 O 534.433 -1.95895 -0.0137455 0
M  V30 5671 H 533.013 -0.228457 0.711208 0
M  V30 5672 H 535.675 0.115288 1.94559 0
M  V30 5673 H 534.771 -1.0432 2.94149 0
M  V30 5674 N 535.072 -1.5615 -0.213296 0
M  V30 5675 C 536.32 -1.79191 -0.934612 0
M  V30 5676 C 536.641 -0.630112 -1.84539 0
M  V30 5677 O 535.911 0.35257 -1.92701 0
M  V30 5678 H 534.491 -0.660937 -0.348097 0
M  V30 5679 H 537.153 -1.93618 -0.22317 0
M  V30 5680 H 536.249 -2.71656 -1.53654 0
M  V30 5681 N 536.55 0.480323 -1.50102 0
M  V30 5682 C 537.797 1.23307 -1.60629 0
M  V30 5683 C 538.125 1.92135 -0.302375 0
M  V30 5684 O 537.38 1.82321 0.711154 0
M  V30 5685 C 537.679 2.30708 -2.72963 0
M  V30 5686 C 537.345 1.79195 -4.13763 0
M  V30 5687 C 536.007 1.64867 -4.52076 0
M  V30 5688 C 538.359 1.40878 -5.018 0
M  V30 5689 C 535.687 1.10631 -5.76175 0
M  V30 5690 C 538.039 0.880872 -6.26437 0
M  V30 5691 C 536.703 0.724146 -6.6356 0
M  V30 5692 H 535.973 0.451211 -0.587784 0
M  V30 5693 H 538.62 0.53051 -1.84005 0
M  V30 5694 H 536.925 3.06834 -2.43639 0
M  V30 5695 H 538.622 2.88692 -2.78313 0
M  V30 5696 H 535.212 1.91313 -3.83533 0
M  V30 5697 H 539.396 1.50786 -4.7284 0
M  V30 5698 H 534.652 0.972263 -6.0362 0
M  V30 5699 H 538.826 0.575269 -6.9402 0
M  V30 5700 H 536.453 0.301722 -7.59601 0
M  V30 5701 N 538.028 1.39524 0.732853 0
M  V30 5702 C 539.275 1.36865 1.49246 0
M  V30 5703 C 539.603 -0.0347118 1.94469 0
M  V30 5704 O 538.858 -1.01596 1.67262 0
M  V30 5705 C 539.157 2.28916 2.74468 0
M  V30 5706 C 538.823 3.76506 2.481 0
M  V30 5707 C 537.485 4.16721 2.40619 0
M  V30 5708 C 539.837 4.69846 2.25598 0
M  V30 5709 C 537.165 5.48334 2.08679 0
M  V30 5710 C 539.517 6.01739 1.95174 0
M  V30 5711 C 538.181 6.41015 1.86163 0
M  V30 5712 H 537.451 0.500824 0.546129 0
M  V30 5713 H 540.098 1.72047 0.840958 0
M  V30 5714 H 538.403 1.86859 3.4437 0
M  V30 5715 H 540.1 2.2415 3.32502 0
M  V30 5716 H 536.69 3.44635 2.54803 0
M  V30 5717 H 540.874 4.39608 2.30344 0
M  V30 5718 H 536.13 5.77685 2.00226 0
M  V30 5719 H 540.304 6.73591 1.76771 0
M  V30 5720 H 537.931 7.42917 1.61179 0
M  V30 5721 N 539.506 -0.963266 1.24736 0
M  V30 5722 C 540.456 -2.0438 1.01058 0
M  V30 5723 C 541.44 -1.60824 -0.0495354 0
M  V30 5724 O 542.632 -1.76232 0.164741 0
M  V30 5725 C 539.761 -3.37617 0.622067 0
M  V30 5726 C 538.847 -3.87722 1.7185 0
M  V30 5727 N 539.238 -4.10715 2.95207 0
M  V30 5728 C 537.536 -4.16426 1.59703 0
M  V30 5729 C 538.237 -4.51872 3.66315 0
M  V30 5730 N 537.213 -4.57302 2.93897 0
M  V30 5731 H 541.015 -2.20138 1.94721 0
M  V30 5732 H 538.529 -1.14741 1.14927 0
M  V30 5733 H 540.526 -4.14638 0.43366 0
M  V30 5734 H 539.186 -3.23242 -0.307327 0
M  V30 5735 H 540.197 -3.98037 3.31341 0
M  V30 5736 H 536.874 -4.10962 0.73598 0
M  V30 5737 H 538.264 -4.78037 4.72155 0
M  V30 5738 N 540.985 -1.06182 -1.16461 0
M  V30 5739 C 541.932 -0.671613 -2.20812 0
M  V30 5740 C 542.902 0.331186 -1.62765 0
M  V30 5741 O 544.087 0.22033 -1.89524 0
M  V30 5742 C 541.227 -0.063029 -3.45042 0
M  V30 5743 C 540.34 -1.11587 -4.1734 0
M  V30 5744 C 539.475 -0.473546 -5.29085 0
M  V30 5745 C 538.514 -1.51 -5.93182 0
M  V30 5746 N 537.651 -0.891118 -6.96422 0
M  V30 5747 H 542.491 -1.56589 -2.53542 0
M  V30 5748 H 540.028 -0.782951 -1.24532 0
M  V30 5749 H 541.986 0.307344 -4.16066 0
M  V30 5750 H 540.616 0.794663 -3.12866 0
M  V30 5751 H 539.668 -1.60396 -3.44931 0
M  V30 5752 H 540.98 -1.90221 -4.61104 0
M  V30 5753 H 540.134 -0.0501432 -6.06679 0
M  V30 5754 H 538.873 0.344687 -4.8648 0
M  V30 5755 H 537.878 -1.94331 -5.14311 0
M  V30 5756 H 539.103 -2.33031 -6.37866 0
M  V30 5757 H 537.049 -0.0935753 -6.55933 0
M  V30 5758 H 536.966 -1.61486 -7.38551 0
M  V30 5759 H 538.234 -0.492822 -7.77941 0
M  V30 5760 N 542.463 1.3308 -0.844243 0
M  V30 5761 C 543.373 2.32876 -0.283922 0
M  V30 5762 C 544.389 1.63589 0.592846 0
M  V30 5763 O 545.565 1.95205 0.495693 0
M  V30 5764 C 542.63 3.42667 0.527283 0
M  V30 5765 C 541.691 4.27664 -0.374394 0
M  V30 5766 C 540.924 5.32212 0.39819 0
M  V30 5767 O 541.147 5.46635 1.62932 0
M  V30 5768 O 540.081 6.01458 -0.2306 0
M  V30 5769 H 543.907 2.82671 -1.11045 0
M  V30 5770 H 541.492 1.36518 -0.606903 0
M  V30 5771 H 543.374 4.09652 0.988078 0
M  V30 5772 H 542.049 2.95079 1.33078 0
M  V30 5773 H 540.956 3.63526 -0.883144 0
M  V30 5774 H 542.289 4.78749 -1.1428 0
M  V30 5775 N 543.941 0.601185 1.45683 0
M  V30 5776 C 544.851 -0.123395 2.34275 0
M  V30 5777 C 545.867 -0.86702 1.5086 0
M  V30 5778 O 547.043 -0.826049 1.8368 0
M  V30 5779 C 544.108 -1.11237 3.2837 0
M  V30 5780 C 543.169 -0.371405 4.2769 0
M  V30 5781 C 542.402 -1.31327 5.1729 0
M  V30 5782 O 542.625 -2.55078 5.10188 0
M  V30 5783 O 541.559 -0.813811 5.96373 0
M  V30 5784 H 545.385 0.604483 2.97623 0
M  V30 5785 H 542.97 0.361477 1.44961 0
M  V30 5786 H 544.852 -1.68214 3.8637 0
M  V30 5787 H 543.527 -1.82139 2.67595 0
M  V30 5788 H 542.434 0.24067 3.73325 0
M  V30 5789 H 543.767 0.296998 4.91303 0
M  V30 5790 N 545.419 -1.53889 0.339982 0
M  V30 5791 C 546.666 -2.00855 -0.257621 0
M  V30 5792 C 546.994 -1.22788 -1.50842 0
M  V30 5793 O 546.249 -0.302567 -1.93347 0
M  V30 5794 C 546.548 -3.51968 -0.620735 0
M  V30 5795 C 546.214 -4.47741 0.532771 0
M  V30 5796 C 544.876 -4.73645 0.849339 0
M  V30 5797 C 547.228 -5.04551 1.3068 0
M  V30 5798 C 544.556 -5.53614 1.94237 0
M  V30 5799 C 546.908 -5.85713 2.39005 0
M  V30 5800 C 545.572 -6.09912 2.71225 0
M  V30 5801 H 544.842 -0.734979 -0.0942703 0
M  V30 5802 H 547.489 -1.85714 0.467159 0
M  V30 5803 H 545.794 -3.64921 -1.42618 0
M  V30 5804 H 547.491 -3.85762 -1.09495 0
M  V30 5805 H 544.081 -4.27711 0.275973 0
M  V30 5806 H 548.265 -4.84507 1.07549 0
M  V30 5807 H 543.521 -5.7059 2.19628 0
M  V30 5808 H 547.695 -6.28748 2.99415 0
M  V30 5809 H 545.322 -6.71665 3.56047 0
M  V30 5810 N 546.897 -0.0685191 -1.57451 0
M  V30 5811 C 548.313 0.288101 -1.56978 0
M  V30 5812 C 548.513 1.70262 -1.07765 0
M  V30 5813 O 547.569 2.4135 -0.742054 0
M  V30 5814 C 548.882 0.100745 -3.00531 0
M  V30 5815 C 550.43 0.170531 -3.12535 0
M  V30 5816 C 550.905 0.0114944 -4.57999 0
M  V30 5817 N 552.396 0.0672065 -4.63151 0
M  V30 5818 C 553.131 -0.0314813 -5.73391 0
M  V30 5819 N 552.627 -0.183503 -6.92557 0
M  V30 5820 N 554.42 0.0253489 -5.62094 0
M  V30 5821 H 546.571 -0.993026 -1.87757 0
M  V30 5822 H 548.834 -0.386981 -0.865419 0
M  V30 5823 H 548.54 -0.875197 -3.40636 0
M  V30 5824 H 548.414 0.854457 -3.67395 0
M  V30 5825 H 550.801 1.13696 -2.72318 0
M  V30 5826 H 550.882 -0.614229 -2.48316 0
M  V30 5827 H 550.526 -0.951684 -4.98904 0
M  V30 5828 H 550.456 0.815617 -5.20245 0
M  V30 5829 H 552.947 0.183246 -3.77455 0
M  V30 5830 H 553.26 -0.251041 -7.72392 0
M  V30 5831 H 551.605 -0.218822 -6.94655 0
M  V30 5832 H 554.796 0.142794 -4.67882 0
M  V30 5833 H 554.969 -0.0550166 -6.47977 0
M  V30 5834 N 548.375 1.56261 0.205012 0
M  V30 5835 C 549.786 1.70056 0.770574 0
M  V30 5836 C 550.137 0.673398 1.84282 0
M  V30 5837 O 549.262 -0.172196 2.15714 0
M  V30 5838 C 549.857 3.08316 1.40451 0
M  V30 5839 C 548.416 3.2391 1.91727 0
M  V30 5840 C 547.563 2.66001 0.783516 0
M  V30 5841 H 550.514 1.58688 -0.019911 0
M  V30 5842 H 550.535 3.05094 2.27371 0
M  V30 5843 H 550.047 3.83053 0.623882 0
M  V30 5844 H 548.148 2.54072 2.7254 0
M  V30 5845 H 548.261 4.3131 2.08588 0
M  V30 5846 H 546.625 2.24915 1.19521 0
M  V30 5847 H 547.408 3.43297 0.0152883 0
M  V30 5848 N 549.853 -0.472356 1.50355 0
M  V30 5849 C 550.801 -1.59126 1.69651 0
M  V30 5850 C 551.795 -1.59793 0.56237 0
M  V30 5851 O 553.001 -1.63957 0.742832 0
M  V30 5852 H 549.376 -0.528008 0.535454 0
M  V30 5853 H 551.347 -1.40013 2.63513 0
M  V30 5854 C 550.096 -2.97075 1.8067 0
M  V30 5855 H 549.419 -2.9728 2.67329 0
M  V30 5856 H 550.859 -3.74825 1.98197 0
M  V30 5857 C 549.318 -3.32247 0.558016 0
M  V30 5858 O 549.848 -4.00553 -0.303399 0
M  V30 5859 N 548.054 -2.87659 0.412415 0
M  V30 5860 H 547.601 -2.32246 1.11443 0
M  V30 5861 H 547.559 -3.11556 -0.421908 0
M  V30 5862 N 551.331 -1.39911 -0.725443 0
M  V30 5863 C 552.294 -1.39156 -1.82121 0
M  V30 5864 C 553.294 -0.287018 -1.58218 0
M  V30 5865 O 554.484 -0.545421 -1.65441 0
M  V30 5866 C 551.616 -1.1736 -3.20062 0
M  V30 5867 H 552.809 -2.36672 -1.84191 0
M  V30 5868 H 550.362 -1.25615 -0.930079 0
M  V30 5869 H 551.097 -0.205648 -3.23647 0
M  V30 5870 H 550.882 -1.97358 -3.3881 0
M  V30 5871 H 552.372 -1.19596 -4.00108 0
M  V30 5872 N 552.809 0.956637 -1.25245 0
M  V30 5873 C 554.22 1.51569 -1.09012 0
M  V30 5874 C 554.571 1.93322 0.334813 0
M  V30 5875 O 553.696 1.78421 1.22454 0
M  V30 5876 C 554.291 2.75444 -1.97271 0
M  V30 5877 C 552.85 3.27669 -1.8523 0
M  V30 5878 C 551.997 2.00517 -1.91542 0
M  V30 5879 H 554.948 0.773746 -1.3856 0
M  V30 5880 H 554.969 3.4919 -1.51151 0
M  V30 5881 H 554.481 2.45024 -3.00973 0
M  V30 5882 H 552.582 3.62914 -0.844045 0
M  V30 5883 H 552.695 3.9582 -2.69932 0
M  V30 5884 H 551.059 2.15727 -1.35404 0
M  V30 5885 H 551.842 1.72448 -2.96844 0
M  V30 5886 N 554.287 1.06798 1.15896 0
M  V30 5887 C 555.517 0.807522 1.90165 0
M  V30 5888 C 555.925 -0.642417 1.7796 0
M  V30 5889 O 555.268 -1.45193 1.12537 0
M  V30 5890 C 555.33 1.12939 3.41299 0
M  V30 5891 C 554.994 2.57879 3.7729 0
M  V30 5892 C 555.991 3.56118 3.78782 0
M  V30 5893 C 553.676 2.93311 4.07767 0
M  V30 5894 C 555.67 4.87827 4.10248 0
M  V30 5895 C 553.357 4.25219 4.38899 0
M  V30 5896 C 554.355 5.22287 4.4012 0
M  V30 5897 O 554.043 6.51826 4.70508 0
M  V30 5898 H 553.775 0.291946 0.609708 0
M  V30 5899 H 556.329 1.42627 1.47806 0
M  V30 5900 H 554.559 0.45359 3.84031 0
M  V30 5901 H 556.248 0.852363 3.9685 0
M  V30 5902 H 557.014 3.30086 3.55342 0
M  V30 5903 H 552.893 2.18409 4.05979 0
M  V30 5904 H 556.437 5.63586 4.11116 0
M  V30 5905 H 552.334 4.51006 4.61805 0
M  V30 5906 H 553.102 6.56893 4.88298 0
M  V30 5907 N 555.766 -1.3263 0.851289 0
M  V30 5908 C 557.182 -1.50162 0.5407 0
M  V30 5909 C 557.382 -1.78788 -0.929369 0
M  V30 5910 O 556.438 -1.85545 -1.71258 0
M  V30 5911 C 557.751 -2.64803 1.42478 0
M  V30 5912 C 559.299 -2.78688 1.42485 0
M  V30 5913 C 559.774 -3.96405 2.29407 0
M  V30 5914 N 561.265 -4.0366 2.27184 0
M  V30 5915 C 562 -4.93971 2.9117 0
M  V30 5916 N 561.496 -5.89313 3.64256 0
M  V30 5917 N 563.289 -4.87066 2.80576 0
M  V30 5918 H 555.44 -1.12315 1.80275 0
M  V30 5919 H 557.703 -0.553266 0.769806 0
M  V30 5920 H 557.409 -2.50368 2.46999 0
M  V30 5921 H 557.283 -3.60506 1.10974 0
M  V30 5922 H 559.67 -2.92547 0.387304 0
M  V30 5923 H 559.751 -1.83708 1.78002 0
M  V30 5924 H 559.395 -3.83304 3.33228 0
M  V30 5925 H 559.325 -4.90654 1.91224 0
M  V30 5926 H 561.816 -3.35435 1.74045 0
M  V30 5927 H 562.129 -6.54913 4.10255 0
M  V30 5928 H 560.474 -5.8935 3.68364 0
M  V30 5929 H 563.665 -4.11552 2.23031 0
M  V30 5930 H 563.838 -5.57248 3.30725 0
M  V30 5931 N 557.244 -0.608902 -1.45362 0
M  V30 5932 C 558.493 -0.10218 -2.01441 0
M  V30 5933 C 558.806 1.27546 -1.48295 0
M  V30 5934 O 560.012 1.87498 -1.96359 0
M  V30 5935 C 558.468 -0.131985 -3.59658 0
M  V30 5936 C 558.076 -1.50956 -4.21801 0
M  V30 5937 C 559.82 0.319427 -4.23296 0
M  V30 5938 C 557.727 -1.49568 -5.72174 0
M  V30 5939 H 556.657 -0.0344314 -0.753213 0
M  V30 5940 H 559.308 -0.764426 -1.6682 0
M  V30 5941 H 557.69 0.596939 -3.91475 0
M  V30 5942 H 558.864 -2.26029 -4.01556 0
M  V30 5943 H 557.179 -1.90318 -3.70362 0
M  V30 5944 H 559.776 0.349013 -5.3356 0
M  V30 5945 H 560.119 1.34237 -3.94064 0
M  V30 5946 H 560.652 -0.356273 -3.96201 0
M  V30 5947 H 557.391 -2.49626 -6.06108 0
M  V30 5948 H 556.911 -0.787542 -5.94607 0
M  V30 5949 H 558.59 -1.21989 -6.35396 0
M  V30 5950 N 558.722 1.53707 -0.348139 0
M  V30 5951 C 559.969 2.00988 0.246966 0
M  V30 5952 C 560.297 1.23586 1.50189 0
M  V30 5953 O 559.552 0.312817 1.93184 0
M  V30 5954 C 559.851 3.52292 0.602061 0
M  V30 5955 C 559.517 4.47453 -0.556509 0
M  V30 5956 C 558.179 4.73188 -0.874446 0
M  V30 5957 C 560.531 5.03851 -1.33354 0
M  V30 5958 C 557.859 5.52577 -1.9717 0
M  V30 5959 C 560.211 5.84437 -2.42108 0
M  V30 5960 C 558.875 6.08465 -2.74456 0
M  V30 5961 H 558.145 0.735469 0.0903712 0
M  V30 5962 H 560.792 1.85464 -0.477001 0
M  V30 5963 H 559.097 3.65672 1.40681 0
M  V30 5964 H 560.794 3.86337 1.07447 0
M  V30 5965 H 557.384 4.27558 -0.298652 0
M  V30 5966 H 561.568 4.8393 -1.10117 0
M  V30 5967 H 556.824 5.69418 -2.22651 0
M  V30 5968 H 560.998 6.27151 -3.02745 0
M  V30 5969 H 558.625 6.69768 -3.59604 0
M  V30 5970 N 560.2 0.0768682 1.57412 0
M  V30 5971 C 561.148 -0.906229 2.1422 0
M  V30 5972 C 562.142 -1.30477 1.08037 0
M  V30 5973 O 563.348 -1.28143 1.2641 0
M  V30 5974 H 559.723 -0.310207 0.685037 0
M  V30 5975 H 561.694 -0.402228 2.95677 0
M  V30 5976 C 560.443 -2.16245 2.72274 0
M  V30 5977 H 559.766 -1.86463 3.53655 0
M  V30 5978 H 561.206 -2.83134 3.15613 0
M  V30 5979 C 559.665 -2.92437 1.67279 0
M  V30 5980 O 560.195 -3.86322 1.10081 0
M  V30 5981 N 558.401 -2.55637 1.38195 0
M  V30 5982 H 557.948 -1.79363 1.84897 0
M  V30 5983 H 557.906 -3.06919 0.681787 0
M  V30 5984 N 561.678 -1.56367 -0.196722 0
M  V30 5985 C 562.906 -1.84639 -0.933608 0
M  V30 5986 C 563.321 -0.659164 -1.76919 0
M  V30 5987 O 562.678 0.372142 -1.78665 0
M  V30 5988 C 562.729 -3.11694 -1.83109 0
M  V30 5989 O 562.45 -4.25838 -1.02924 0
M  V30 5990 C 563.951 -3.53132 -2.67979 0
M  V30 5991 H 561.171 -0.613188 -0.272473 0
M  V30 5992 H 563.715 -2.03475 -0.204465 0
M  V30 5993 H 561.87 -2.94759 -2.51387 0
M  V30 5994 H 562.284 -4.98178 -1.64069 0
M  V30 5995 H 563.758 -4.45005 -3.26611 0
M  V30 5996 H 564.235 -2.76045 -3.41608 0
M  V30 5997 H 564.841 -3.72592 -2.05074 0
M  V30 5998 N 563.156 0.464375 -1.50603 0
M  V30 5999 C 564.402 1.21485 -1.63135 0
M  V30 6000 C 564.757 1.89538 -0.33063 0
M  V30 6001 O 564.05 1.79432 0.671903 0
M  V30 6002 C 564.244 2.278 -2.75394 0
M  V30 6003 C 564.073 1.70178 -4.16257 0
M  V30 6004 C 562.843 1.49854 -4.82568 0
M  V30 6005 C 565.041 1.19298 -5.00272 0
M  V30 6006 N 563.023 0.875458 -6.07626 0
M  V30 6007 C 564.394 0.693527 -6.16109 0
M  V30 6008 C 566.449 1.08216 -4.85998 0
M  V30 6009 C 565.152 0.0941808 -7.19238 0
M  V30 6010 C 567.178 0.496745 -5.8931 0
M  V30 6011 C 566.54 0.00770448 -7.044 0
M  V30 6012 H 562.639 0.433184 -0.651057 0
M  V30 6013 H 565.223 0.515748 -1.87745 0
M  V30 6014 H 563.394 2.95129 -2.52495 0
M  V30 6015 H 565.126 2.94814 -2.77249 0
M  V30 6016 H 561.881 1.75269 -4.39975 0
M  V30 6017 H 562.305 0.582135 -6.74493 0
M  V30 6018 H 566.947 1.44617 -3.97298 0
M  V30 6019 H 564.665 -0.28202 -8.07608 0
M  V30 6020 H 568.251 0.413275 -5.8033 0
M  V30 6021 H 567.131 -0.438188 -7.82975 0
M  V30 6022 N 564.634 1.40294 0.718013 0
M  V30 6023 C 565.564 1.43118 1.84498 0
M  V30 6024 C 566.545 0.292403 1.67568 0
M  V30 6025 O 567.73 0.500675 1.87635 0
M  V30 6026 C 564.86 1.29065 3.22427 0
M  V30 6027 C 563.814 2.40521 3.54025 0
M  V30 6028 C 563.14 2.11546 4.91073 0
M  V30 6029 C 564.44 3.82859 3.55269 0
M  V30 6030 H 566.134 2.37432 1.82391 0
M  V30 6031 H 563.68 1.14283 0.87609 0
M  V30 6032 H 565.633 1.29658 4.00957 0
M  V30 6033 H 564.357 0.312271 3.25104 0
M  V30 6034 H 563.016 2.39173 2.77834 0
M  V30 6035 H 562.664 1.12104 4.90348 0
M  V30 6036 H 562.364 2.86216 5.1318 0
M  V30 6037 H 563.888 2.13817 5.71939 0
M  V30 6038 H 565.302 3.86044 4.23843 0
M  V30 6039 H 563.699 4.57029 3.88902 0
M  V30 6040 H 564.769 4.12617 2.54706 0
M  V30 6041 N 566.112 -0.949982 1.2575 0
M  V30 6042 C 567.36 -1.6918 1.10555 0
M  V30 6043 C 567.681 -1.91773 -0.353298 0
M  V30 6044 O 566.951 -1.50814 -1.25027 0
M  V30 6045 H 565.531 -0.626952 0.406129 0
M  V30 6046 H 568.193 -1.1419 1.57945 0
M  V30 6047 H 567.289 -2.66915 1.61749 0
M  V30 6048 N 567.59 -1.07411 -1.15328 0
M  V30 6049 C 568.867 -0.710732 -1.82231 0
M  V30 6050 C 569.247 0.806732 -1.95077 0
M  V30 6051 O 568.595 1.72139 -1.50268 0
M  V30 6052 C 568.805 -1.42586 -3.18544 0
M  V30 6053 C 570.153 -1.57836 -3.94174 0
M  V30 6054 O 571.177 -1.38669 -3.281 0
M  V30 6055 O 570.036 -1.8938 -5.12638 0
M  V30 6056 H 567.13 -0.25297 -0.78736 0
M  V30 6057 H 569.676 -1.17508 -1.22434 0
M  V30 6058 H 568.448 -2.46008 -3.04296 0
M  V30 6059 H 568.071 -0.952332 -3.86026 0
M  V30 6060 N 569.068 1.32177 -0.85831 0
M  V30 6061 C 570.479 1.79381 -0.517621 0
M  V30 6062 C 570.83 1.70841 0.964769 0
M  V30 6063 O 569.955 1.26917 1.75274 0
M  V30 6064 C 570.55 3.25706 -0.932801 0
M  V30 6065 C 569.109 3.70851 -0.643953 0
M  V30 6066 C 568.256 2.53208 -1.13054 0
M  V30 6067 H 571.207 1.19424 -1.04516 0
M  V30 6068 H 571.228 3.79673 -0.250674 0
M  V30 6069 H 570.74 3.31889 -2.01174 0
M  V30 6070 H 568.841 3.70178 0.424112 0
M  V30 6071 H 568.954 4.63495 -1.21281 0
M  V30 6072 H 567.318 2.48676 -0.550679 0
M  V30 6073 H 568.101 2.62143 -2.21666 0
M  V30 6074 N 570.547 0.616602 1.45037 0
M  V30 6075 C 571.772 0.120192 2.07051 0
M  V30 6076 C 572.197 -1.19008 1.45666 0
M  V30 6077 O 571.555 -1.7267 0.552692 0
M  V30 6078 C 571.603 0.00354901 3.606 0
M  V30 6079 O 570.707 -1.04431 3.98958 0
M  V30 6080 H 570.048 0.0781599 0.659384 0
M  V30 6081 H 572.578 0.849167 1.86146 0
M  V30 6082 H 572.588 -0.191754 4.07549 0
M  V30 6083 H 571.263 0.960239 4.04663 0
M  V30 6084 H 569.84 -0.824749 3.63665 0
M  V30 6085 N 572.025 -1.5352 0.356285 0
M  V30 6086 C 572.972 -2.25439 -0.494569 0
M  V30 6087 C 573.942 -1.25752 -1.08516 0
M  V30 6088 O 575.127 -1.54513 -1.1194 0
M  V30 6089 C 572.267 -3.04011 -1.63313 0
M  V30 6090 C 571.38 -4.18574 -1.06862 0
M  V30 6091 C 570.515 -4.84607 -2.17552 0
M  V30 6092 C 569.554 -5.91218 -1.58518 0
M  V30 6093 N 568.691 -6.50979 -2.63003 0
M  V30 6094 H 573.531 -2.97737 0.125244 0
M  V30 6095 H 571.068 -1.46916 0.0735789 0
M  V30 6096 H 573.026 -3.47834 -2.30363 0
M  V30 6097 H 571.656 -2.33986 -2.22374 0
M  V30 6098 H 570.708 -3.79303 -0.288672 0
M  V30 6099 H 572.02 -4.95215 -0.596924 0
M  V30 6100 H 571.174 -5.31566 -2.92442 0
M  V30 6101 H 569.913 -4.07418 -2.6807 0
M  V30 6102 H 568.918 -5.4363 -0.821391 0
M  V30 6103 H 570.143 -6.70322 -1.08836 0
M  V30 6104 H 568.089 -5.76648 -3.12751 0
M  V30 6105 H 568.006 -7.23131 -2.20493 0
M  V30 6106 H 569.274 -7.02589 -3.37623 0
M  V30 6107 N 573.503 -0.0852151 -1.57369 0
M  V30 6108 C 574.451 0.894856 -2.14698 0
M  V30 6109 C 575.445 1.29903 -1.08727 0
M  V30 6110 O 576.651 1.27471 -1.27088 0
M  V30 6111 H 573.026 0.306569 -0.686673 0
M  V30 6112 H 574.997 0.386542 -2.95886 0
M  V30 6113 C 573.746 2.14798 -2.73417 0
M  V30 6114 H 573.069 1.84585 -3.54638 0
M  V30 6115 H 574.509 2.81456 -3.1711 0
M  V30 6116 C 572.968 2.91546 -1.68828 0
M  V30 6117 O 573.498 3.85733 -1.12129 0
M  V30 6118 N 571.704 2.54901 -1.39549 0
M  V30 6119 H 571.251 1.7838 -1.85845 0
M  V30 6120 H 571.209 3.06553 -0.698054 0
M  V30 6121 N 574.981 1.5647 0.188427 0
M  V30 6122 C 575.911 1.98101 1.23606 0
M  V30 6123 C 576.892 0.853961 1.47111 0
M  V30 6124 O 578.077 1.11879 1.58735 0
M  V30 6125 C 575.207 2.32624 2.57882 0
M  V30 6126 C 574.161 3.48129 2.48978 0
M  V30 6127 C 573.487 3.68347 3.87588 0
M  V30 6128 C 574.787 4.82112 2.00911 0
M  V30 6129 H 576.481 2.85864 0.890068 0
M  V30 6130 H 574.027 1.37532 0.426714 0
M  V30 6131 H 575.98 2.60343 3.3136 0
M  V30 6132 H 574.704 1.41751 2.94235 0
M  V30 6133 H 573.363 3.20511 1.77956 0
M  V30 6134 H 573.011 2.74793 4.21305 0
M  V30 6135 H 572.711 4.46055 3.82503 0
M  V30 6136 H 574.235 3.98449 4.62678 0
M  V30 6137 H 575.649 5.08819 2.64151 0
M  V30 6138 H 574.046 5.63337 2.06814 0
M  V30 6139 H 575.116 4.75249 0.96262 0
M  V30 6140 N 576.459 -0.456382 1.50847 0
M  V30 6141 C 577.389 -1.56025 1.73719 0
M  V30 6142 C 578.37 -1.5967 0.586473 0
M  V30 6143 O 579.555 -1.75702 0.827185 0
M  V30 6144 C 576.685 -2.94251 1.84483 0
M  V30 6145 C 575.639 -3.05471 2.99786 0
M  V30 6146 C 574.965 -4.45489 2.95709 0
M  V30 6147 C 576.265 -2.81318 4.40065 0
M  V30 6148 H 577.959 -1.37138 2.66146 0
M  V30 6149 H 575.505 -0.658299 1.28072 0
M  V30 6150 H 577.458 -3.71417 1.99067 0
M  V30 6151 H 576.182 -3.14328 0.886891 0
M  V30 6152 H 574.841 -2.30741 2.84876 0
M  V30 6153 H 574.489 -4.62505 1.97732 0
M  V30 6154 H 574.189 -4.53929 3.73125 0
M  V30 6155 H 575.713 -5.24655 3.12362 0
M  V30 6156 H 577.127 -3.48226 4.55425 0
M  V30 6157 H 575.524 -3.01188 5.19043 0
M  V30 6158 H 576.594 -1.7706 4.51418 0
M  V30 6159 N 577.937 -1.40673 -0.710563 0
M  V30 6160 C 578.867 -1.44095 -1.83736 0
M  V30 6161 C 579.848 -0.301286 -1.67411 0
M  V30 6162 O 581.033 -0.510618 -1.87367 0
M  V30 6163 C 578.163 -1.30773 -3.21738 0
M  V30 6164 C 577.117 -2.42395 -3.52745 0
M  V30 6165 C 576.443 -2.14147 -4.89944 0
M  V30 6166 C 577.743 -3.84738 -3.53234 0
M  V30 6167 H 579.437 -2.38396 -1.81129 0
M  V30 6168 H 576.983 -1.14746 -0.870017 0
M  V30 6169 H 578.936 -1.31783 -4.00264 0
M  V30 6170 H 577.66 -0.329507 -3.24934 0
M  V30 6171 H 576.319 -2.40643 -2.76562 0
M  V30 6172 H 575.967 -1.14703 -4.89747 0
M  V30 6173 H 575.667 -2.88934 -5.11655 0
M  V30 6174 H 577.191 -2.16848 -5.70797 0
M  V30 6175 H 578.605 -3.88286 -4.2179 0
M  V30 6176 H 577.002 -4.59085 -3.86473 0
M  V30 6177 H 578.072 -4.13962 -2.52514 0
M  V30 6178 N 579.415 0.9433 -1.26252 0
M  V30 6179 C 580.378 2.02326 -1.07689 0
M  V30 6180 C 581.378 1.60779 -0.0259174 0
M  V30 6181 O 582.568 1.72108 -0.269134 0
M  V30 6182 C 579.7 3.34886 -0.63752 0
M  V30 6183 H 580.893 2.20225 -2.0357 0
M  V30 6184 H 578.446 1.12197 -1.08819 0
M  V30 6185 H 579.181 3.22684 0.323377 0
M  V30 6186 H 578.966 3.66393 -1.39637 0
M  V30 6187 H 580.456 4.14231 -0.529418 0
M  V30 6188 N 580.893 1.08022 1.14757 0
M  V30 6189 C 581.803 0.718292 2.23333 0
M  V30 6190 C 582.819 -0.273477 1.71837 0
M  V30 6191 O 583.995 -0.118406 2.01052 0
M  V30 6192 C 581.06 0.128855 3.4646 0
M  V30 6193 C 580.121 1.17473 4.12915 0
M  V30 6194 C 579.354 0.61333 5.30164 0
M  V30 6195 O 579.577 -0.568458 5.6756 0
M  V30 6196 O 578.511 1.3615 5.86299 0
M  V30 6197 H 582.337 1.62394 2.56636 0
M  V30 6198 H 579.922 0.853628 1.22611 0
M  V30 6199 H 581.804 -0.197249 4.20938 0
M  V30 6200 H 580.479 -0.750014 3.14891 0
M  V30 6201 H 579.386 1.5533 3.40328 0
M  V30 6202 H 580.719 2.02574 4.48581 0
M  V30 6203 N 582.371 -1.3172 0.865308 0
M  V30 6204 C 583.617 -1.97168 0.474633 0
M  V30 6205 C 583.95 -1.68263 -0.969604 0
M  V30 6206 O 583.225 -0.976588 -1.68205 0
M  V30 6207 C 583.508 -3.52689 0.726808 0
M  V30 6208 C 583.361 -3.91185 2.22024 0
M  V30 6209 C 584.68 -4.39689 0.190201 0
M  V30 6210 H 581.799 -0.716185 0.17392 0
M  V30 6211 H 584.441 -1.55925 1.08569 0
M  V30 6212 H 582.591 -3.8795 0.206705 0
M  V30 6213 H 584.263 -3.66049 2.80724 0
M  V30 6214 H 582.506 -3.3996 2.69462 0
M  V30 6215 H 583.177 -4.99604 2.34735 0
M  V30 6216 H 585.653 -4.11225 0.635103 0
M  V30 6217 H 584.529 -5.47469 0.396132 0
M  V30 6218 H 584.79 -4.32683 -0.907625 0
M  V30 6219 N 583.85 -0.624285 -1.44708 0
M  V30 6220 C 585.099 -0.123539 -2.01321 0
M  V30 6221 C 585.412 1.25966 -1.49639 0
M  V30 6222 O 586.618 1.85405 -1.98336 0
M  V30 6223 C 585.074 -0.170124 -3.59498 0
M  V30 6224 C 584.682 -1.55421 -4.20176 0
M  V30 6225 C 586.426 0.274513 -4.23611 0
M  V30 6226 C 584.332 -1.55628 -5.70556 0
M  V30 6227 H 583.263 -0.0424183 -0.752806 0
M  V30 6228 H 585.913 -0.782076 -1.65999 0
M  V30 6229 H 584.296 0.555385 -3.92086 0
M  V30 6230 H 585.47 -2.30276 -3.99136 0
M  V30 6231 H 583.784 -1.94235 -3.68323 0
M  V30 6232 H 586.382 0.292402 -5.339 0
M  V30 6233 H 586.725 1.3005 -3.95465 0
M  V30 6234 H 587.258 -0.398275 -3.95801 0
M  V30 6235 H 583.997 -2.56041 -6.03426 0
M  V30 6236 H 583.517 -0.850563 -5.93739 0
M  V30 6237 H 585.196 -1.28721 -6.34066 0
M  V30 6238 N 585.328 1.53329 -0.364422 0
M  V30 6239 C 586.276 2.27212 0.497737 0
M  V30 6240 C 587.27 1.30146 1.08437 0
M  V30 6241 O 588.476 1.47778 1.0277 0
M  V30 6242 H 584.851 0.730329 0.179232 0
M  V30 6243 H 586.822 2.98037 -0.147182 0
M  V30 6244 C 585.571 3.07333 1.6261 0
M  V30 6245 H 584.894 3.81866 1.184 0
M  V30 6246 H 586.334 3.62209 2.20409 0
M  V30 6247 C 584.793 2.18102 2.56775 0
M  V30 6248 O 585.323 1.79104 3.59562 0
M  V30 6249 N 583.529 1.82759 2.25937 0
M  V30 6250 H 583.076 2.14671 1.42387 0
M  V30 6251 H 583.034 1.23342 2.89196 0
M  V30 6252 N 586.806 0.0935595 1.57322 0
M  V30 6253 C 588.055 -0.570191 1.93473 0
M  V30 6254 C 588.368 -1.69434 0.977318 0
M  V30 6255 O 589.574 -2.41914 1.23248 0
M  V30 6256 C 588.03 -1.06564 3.43762 0
M  V30 6257 C 587.638 0.0286723 4.47991 0
M  V30 6258 C 589.382 -1.70221 3.88877 0
M  V30 6259 C 587.289 -0.482046 5.89432 0
M  V30 6260 H 586.219 -0.216764 0.72217 0
M  V30 6261 H 588.87 0.169313 1.82717 0
M  V30 6262 H 587.252 -1.85878 3.49664 0
M  V30 6263 H 588.426 0.804106 4.5373 0
M  V30 6264 H 586.741 0.570336 4.12476 0
M  V30 6265 H 589.338 -2.09502 4.91948 0
M  V30 6266 H 589.681 -2.57078 3.27439 0
M  V30 6267 H 590.214 -0.974919 3.85668 0
M  V30 6268 H 586.953 0.349871 6.54566 0
M  V30 6269 H 586.473 -1.22452 5.87167 0
M  V30 6270 H 588.152 -0.951508 6.39965 0
M  V30 6271 N 588.284 -1.56567 -0.180126 0
M  V30 6272 C 589.533 -1.80685 -0.896426 0
M  V30 6273 C 589.846 -0.669335 -1.83791 0
M  V30 6274 O 591.052 -0.795209 -2.59593 0
M  V30 6275 C 589.508 -3.20132 -1.6445 0
M  V30 6276 C 589.116 -4.41727 -0.747088 0
M  V30 6277 C 590.86 -3.53549 -2.34955 0
M  V30 6278 C 588.767 -5.72195 -1.49489 0
M  V30 6279 H 587.697 -0.673758 -0.338477 0
M  V30 6280 H 590.348 -1.8289 -0.149467 0
M  V30 6281 H 588.73 -3.12218 -2.43589 0
M  V30 6282 H 589.904 -4.608 0.00671129 0
M  V30 6283 H 588.219 -4.16122 -0.152134 0
M  V30 6284 H 590.816 -4.48267 -2.91481 0
M  V30 6285 H 591.159 -2.78006 -3.09868 0
M  V30 6286 H 591.692 -3.62976 -1.62768 0
M  V30 6287 H 588.431 -6.50743 -0.788251 0
M  V30 6288 H 587.951 -5.57115 -2.22224 0
M  V30 6289 H 589.63 -6.1384 -2.04472 0
M  V30 6290 N 589.762 0.448376 -1.51087 0
M  V30 6291 C 590.709 1.54341 -1.71603 0
M  V30 6292 C 591.679 1.56463 -0.557536 0
M  V30 6293 O 592.864 1.73644 -0.79072 0
M  V30 6294 C 590.004 2.92148 -1.83695 0
M  V30 6295 C 589.117 2.99639 -3.11192 0
M  V30 6296 C 588.252 4.285 -3.13944 0
M  V30 6297 C 587.291 4.29819 -4.35801 0
M  V30 6298 N 586.428 5.50186 -4.36164 0
M  V30 6299 H 591.268 1.36151 -2.65079 0
M  V30 6300 H 588.805 0.661585 -1.31383 0
M  V30 6301 H 590.763 3.72093 -1.88687 0
M  V30 6302 H 589.393 3.0892 -0.936374 0
M  V30 6303 H 588.445 2.12425 -3.15562 0
M  V30 6304 H 589.757 2.96474 -4.01129 0
M  V30 6305 H 588.911 5.16811 -3.17791 0
M  V30 6306 H 587.65 4.34307 -2.21876 0
M  V30 6307 H 586.655 3.39902 -4.32142 0
M  V30 6308 H 587.88 4.25685 -5.29121 0
M  V30 6309 H 585.826 5.56735 -3.46961 0
M  V30 6310 H 585.743 5.48856 -5.19897 0
M  V30 6311 H 587.011 6.40559 -4.44189 0
M  V30 6312 N 591.24 1.41047 0.703093 0
M  V30 6313 C 592.656 1.23351 1.01275 0
M  V30 6314 C 592.856 0.11754 2.01157 0
M  V30 6315 O 591.912 -0.520518 2.47077 0
M  V30 6316 C 593.225 2.58001 1.54454 0
M  V30 6317 C 594.773 2.65119 1.66376 0
M  V30 6318 C 595.248 4.00067 2.22958 0
M  V30 6319 N 596.739 4.01875 2.30328 0
M  V30 6320 C 597.474 5.03087 2.75119 0
M  V30 6321 N 596.97 6.14692 3.19571 0
M  V30 6322 N 598.763 4.90451 2.74616 0
M  V30 6323 H 590.914 2.1236 0.0412686 0
M  V30 6324 H 593.177 0.944543 0.08089 0
M  V30 6325 H 592.883 3.40378 0.88521 0
M  V30 6326 H 592.757 2.79962 2.52786 0
M  V30 6327 H 595.144 1.83106 2.31422 0
M  V30 6328 H 595.225 2.46975 0.666089 0
M  V30 6329 H 594.869 4.82526 1.58529 0
M  V30 6330 H 594.799 4.15547 3.23462 0
M  V30 6331 H 597.29 3.21291 1.98949 0
M  V30 6332 H 597.603 6.87799 3.52352 0
M  V30 6333 H 595.948 6.18239 3.17498 0
M  V30 6334 H 599.139 4.0235 2.39233 0
M  V30 6335 H 599.312 5.6947 3.09206 0
M  V30 6336 N 592.718 -0.936591 1.26751 0
M  V30 6337 C 593.628 -2.06949 1.10496 0
M  V30 6338 C 594.644 -1.7396 0.037271 0
M  V30 6339 O 595.82 -1.99941 0.241944 0
M  V30 6340 C 592.885 -3.38612 0.744491 0
M  V30 6341 C 591.946 -3.85355 1.89209 0
M  V30 6342 C 591.179 -5.10735 1.54873 0
M  V30 6343 O 591.402 -5.68602 0.452546 0
M  V30 6344 O 590.336 -5.52632 2.38499 0
M  V30 6345 H 594.162 -2.23571 2.05547 0
M  V30 6346 H 591.747 -1.05428 1.05855 0
M  V30 6347 H 593.629 -4.17711 0.556396 0
M  V30 6348 H 592.304 -3.23218 -0.176582 0
M  V30 6349 H 591.211 -3.07182 2.13518 0
M  V30 6350 H 592.544 -4.05277 2.79305 0
M  V30 6351 N 594.196 -1.08629 -1.14182 0
M  V30 6352 C 595.473 -0.73002 -1.81466 0
M  V30 6353 C 595.853 0.785996 -1.95922 0
M  V30 6354 O 595.201 1.70535 -1.52086 0
M  V30 6355 C 595.411 -1.45957 -3.17014 0
M  V30 6356 C 596.759 -1.62008 -3.92477 0
M  V30 6357 O 597.783 -1.42141 -3.26611 0
M  V30 6358 O 596.642 -1.94806 -5.106 0
M  V30 6359 H 593.736 -0.261307 -0.784632 0
M  V30 6360 H 596.282 -1.188 -1.2118 0
M  V30 6361 H 595.054 -2.49221 -3.01669 0
M  V30 6362 H 594.677 -0.993222 -3.84995 0
M  V30 6363 N 595.674 1.31259 -0.872281 0
M  V30 6364 C 596.604 2.30929 -0.345554 0
M  V30 6365 C 597.585 1.60449 0.5648 0
M  V30 6366 O 598.77 1.8814 0.481335 0
M  V30 6367 C 595.9 3.44348 0.451823 0
M  V30 6368 C 594.854 4.26435 -0.365641 0
M  V30 6369 C 594.18 5.31785 0.557562 0
M  V30 6370 C 595.48 4.97159 -1.60095 0
M  V30 6371 H 597.174 2.75234 -1.17841 0
M  V30 6372 H 594.72 1.3232 -0.568094 0
M  V30 6373 H 596.673 4.13128 0.830854 0
M  V30 6374 H 595.397 2.98816 1.31821 0
M  V30 6375 H 594.056 3.59326 -0.726649 0
M  V30 6376 H 593.704 4.82502 1.4213 0
M  V30 6377 H 593.404 5.87598 0.0144878 0
M  V30 6378 H 594.928 6.03424 0.933387 0
M  V30 6379 H 596.342 5.58523 -1.29323 0
M  V30 6380 H 594.739 5.62779 -2.08327 0
M  V30 6381 H 595.809 4.24012 -2.35249 0
M  V30 6382 N 597.152 0.631951 1.44375 0
M  V30 6383 C 598.082 -0.0593243 2.33425 0
M  V30 6384 C 599.063 -0.833964 1.48253 0
M  V30 6385 O 600.248 -0.799682 1.76971 0
M  V30 6386 C 597.378 -1.04096 3.31333 0
M  V30 6387 C 596.332 -0.377899 4.26328 0
M  V30 6388 C 595.658 -1.4695 5.14111 0
M  V30 6389 C 596.958 0.716371 5.17364 0
M  V30 6390 H 598.652 0.684287 2.91475 0
M  V30 6391 H 596.198 0.330518 1.40156 0
M  V30 6392 H 598.151 -1.53331 3.92514 0
M  V30 6393 H 596.875 -1.81547 2.71493 0
M  V30 6394 H 595.534 0.0938054 3.6648 0
M  V30 6395 H 595.182 -2.2349 4.50623 0
M  V30 6396 H 594.882 -1.03121 5.78481 0
M  V30 6397 H 596.406 -1.96363 5.78164 0
M  V30 6398 H 597.82 0.307089 5.72477 0
M  V30 6399 H 596.217 1.07784 5.90341 0
M  V30 6400 H 597.287 1.58316 4.58327 0
M  V30 6401 N 598.631 -1.53133 0.372548 0
M  V30 6402 C 599.579 -2.27473 -0.485681 0
M  V30 6403 C 600.573 -1.30719 -1.07745 0
M  V30 6404 O 601.779 -1.48321 -1.01985 0
M  V30 6405 H 598.154 -0.731269 -0.175356 0
M  V30 6406 H 600.125 -2.97955 0.162986 0
M  V30 6407 C 598.874 -3.08191 -1.60978 0
M  V30 6408 H 598.197 -3.82488 -1.16373 0
M  V30 6409 H 599.637 -3.63373 -2.18485 0
M  V30 6410 C 598.096 -2.19461 -2.55614 0
M  V30 6411 O 598.626 -1.81008 -3.58607 0
M  V30 6412 N 596.832 -1.83955 -2.24965 0
M  V30 6413 H 596.379 -2.15423 -1.41247 0
M  V30 6414 H 596.337 -1.24874 -2.88538 0
M  V30 6415 N 600.109 -0.101901 -1.5727 0
M  V30 6416 C 601.057 0.872034 -2.15635 0
M  V30 6417 C 602.051 1.28742 -1.10099 0
M  V30 6418 O 603.257 1.26116 -1.28432 0
M  V30 6419 H 599.632 0.299269 -0.689886 0
M  V30 6420 H 601.603 0.355137 -2.96279 0
M  V30 6421 C 600.352 2.11886 -2.7568 0
M  V30 6422 H 599.675 1.80813 -3.56576 0
M  V30 6423 H 601.115 2.78077 -3.20077 0
M  V30 6424 C 599.574 2.89739 -1.7191 0
M  V30 6425 O 600.104 3.84522 -1.16213 0
M  V30 6426 N 598.31 2.53407 -1.42245 0
M  V30 6427 H 597.857 1.76398 -1.87727 0
M  V30 6428 H 597.815 3.05795 -0.730529 0
M  V30 6429 N 601.587 1.56661 0.17182 0
M  V30 6430 C 602.55 1.9549 1.19651 0
M  V30 6431 C 603.55 0.838501 1.37207 0
M  V30 6432 O 604.74 1.10556 1.34622 0
M  V30 6433 C 601.872 2.24927 2.56166 0
M  V30 6434 H 603.065 2.87184 0.864007 0
M  V30 6435 H 600.618 1.50711 0.41425 0
M  V30 6436 H 601.353 1.35944 2.94431 0
M  V30 6437 H 601.138 3.06301 2.4479 0
M  V30 6438 H 602.628 2.55891 3.30014 0
M  V30 6439 N 603.065 -0.440357 1.51323 0
M  V30 6440 C 604.028 -1.51679 1.71832 0
M  V30 6441 C 605.028 -1.49648 0.588386 0
M  V30 6442 O 606.218 -1.51724 0.855891 0
M  V30 6443 C 603.35 -2.91228 1.77199 0
M  V30 6444 H 604.543 -1.34799 2.67898 0
M  V30 6445 H 602.096 -0.66883 1.41267 0
M  V30 6446 H 602.831 -3.13516 0.829363 0
M  V30 6447 H 602.616 -2.94107 2.59314 0
M  V30 6448 H 604.106 -3.69321 1.94915 0
M  V30 6449 N 604.543 -1.41418 -0.695603 0
M  V30 6450 C 605.493 -1.39731 -1.80165 0
M  V30 6451 C 606.477 -0.271689 -1.5859 0
M  V30 6452 O 607.669 -0.512354 -1.69422 0
M  V30 6453 C 604.798 -1.28187 -3.1847 0
M  V30 6454 C 603.884 -2.45612 -3.45739 0
M  V30 6455 N 604.275 -3.71077 -3.43708 0
M  V30 6456 C 602.573 -2.39424 -3.76288 0
M  V30 6457 C 603.274 -4.48957 -3.69882 0
M  V30 6458 N 602.25 -3.7907 -3.89624 0
M  V30 6459 H 606.052 -2.34656 -1.76957 0
M  V30 6460 H 603.566 -1.35473 -0.89559 0
M  V30 6461 H 605.563 -1.2506 -3.977 0
M  V30 6462 H 604.223 -0.342468 -3.22889 0
M  V30 6463 H 605.234 -4.03963 -3.2409 0
M  V30 6464 H 601.911 -1.53955 -3.88077 0
M  V30 6465 H 603.301 -5.57887 -3.74448 0
M  V30 6466 N 606.021 0.929856 -1.27246 0
M  V30 6467 C 606.984 2.01172 -1.09829 0
M  V30 6468 C 607.984 1.60743 -0.0429687 0
M  V30 6469 O 609.174 1.71813 -0.287373 0
M  V30 6470 C 606.306 3.34191 -0.673003 0
M  V30 6471 H 607.499 2.18054 -2.05895 0
M  V30 6472 H 605.052 1.11036 -1.10003 0
M  V30 6473 H 605.787 3.23009 0.289134 0
M  V30 6474 H 605.572 3.64892 -1.43515 0
M  V30 6475 H 607.062 4.13646 -0.573323 0
M  V30 6476 N 607.499 1.09233 1.13605 0
M  V30 6477 C 608.747 0.825525 1.84471 0
M  V30 6478 C 609.068 -0.650702 1.83823 0
M  V30 6479 O 608.338 -1.47204 1.29259 0
M  V30 6480 H 606.918 0.3024 0.683054 0
M  V30 6481 H 609.58 1.38006 1.37624 0
M  V30 6482 H 608.676 1.17727 2.89045 0
M  V30 6483 N 608.977 -1.30795 0.87923 0
M  V30 6484 C 609.924 -2.28282 0.339968 0
M  V30 6485 C 610.894 -1.56134 -0.566685 0
M  V30 6486 O 612.079 -1.84231 -0.496338 0
M  V30 6487 C 609.219 -3.42225 -0.444501 0
M  V30 6488 C 608.332 -4.29204 0.490717 0
M  V30 6489 C 607.467 -5.30302 -0.308784 0
M  V30 6490 C 606.506 -6.08929 0.622272 0
M  V30 6491 N 605.643 -7.01957 -0.14155 0
M  V30 6492 H 610.483 -2.73794 1.17647 0
M  V30 6493 H 608.02 -1.34682 0.591527 0
M  V30 6494 H 609.978 -4.07038 -0.915186 0
M  V30 6495 H 608.608 -2.97799 -1.24562 0
M  V30 6496 H 607.66 -3.6475 1.07988 0
M  V30 6497 H 608.972 -4.84045 1.20425 0
M  V30 6498 H 608.126 -6.00835 -0.841575 0
M  V30 6499 H 606.865 -4.7614 -1.05556 0
M  V30 6500 H 605.87 -5.37278 1.16674 0
M  V30 6501 H 607.095 -6.65178 1.36804 0
M  V30 6502 H 605.041 -6.50192 -0.870966 0
M  V30 6503 H 604.958 -7.54261 0.51246 0
M  V30 6504 H 606.226 -7.76741 -0.655271 0
M  V30 6505 N 610.455 -0.639598 -1.44038 0
M  V30 6506 C 611.418 0.0506628 -2.29144 0
M  V30 6507 C 612.418 0.764001 -1.41491 0
M  V30 6508 O 613.608 0.607309 -1.63271 0
M  V30 6509 C 610.74 1.0824 -3.2326 0
M  V30 6510 H 611.933 -0.697987 -2.91664 0
M  V30 6511 H 609.486 -0.400146 -1.51091 0
M  V30 6512 H 610.221 1.86075 -2.65606 0
M  V30 6513 H 610.006 0.574725 -3.87865 0
M  V30 6514 H 611.496 1.56487 -3.87171 0
M  V30 6515 N 611.933 1.52934 -0.380664 0
M  V30 6516 C 612.863 2.29118 0.450268 0
M  V30 6517 C 613.844 1.32153 1.07096 0
M  V30 6518 O 615.029 1.61038 1.08537 0
M  V30 6519 C 612.159 3.09161 1.58231 0
M  V30 6520 C 611.113 4.13938 1.0881 0
M  V30 6521 C 610.439 4.82153 2.31155 0
M  V30 6522 C 611.739 5.22048 0.162146 0
M  V30 6523 H 613.433 2.98826 -0.185361 0
M  V30 6524 H 610.979 1.43715 -0.0905886 0
M  V30 6525 H 612.932 3.61211 2.17036 0
M  V30 6526 H 611.656 2.3717 2.2454 0
M  V30 6527 H 610.315 3.62855 0.522633 0
M  V30 6528 H 609.963 4.06719 2.95953 0
M  V30 6529 H 609.663 5.52966 1.98752 0
M  V30 6530 H 611.187 5.37004 2.90618 0
M  V30 6531 H 612.601 5.6951 0.658126 0
M  V30 6532 H 610.998 6.00057 -0.0717122 0
M  V30 6533 H 612.068 4.78398 -0.791438 0
M  V30 6534 N 613.412 0.11024 1.57214 0
M  V30 6535 C 614.342 -0.840002 2.17867 0
M  V30 6536 C 615.323 -1.28352 1.11624 0
M  V30 6537 O 616.508 -1.3477 1.39824 0
M  V30 6538 C 613.638 -2.09349 2.77111 0
M  V30 6539 C 612.592 -1.78807 3.8886 0
M  V30 6540 C 611.918 -3.11112 4.34872 0
M  V30 6541 C 613.218 -1.0632 5.11364 0
M  V30 6542 H 614.912 -0.334608 2.97524 0
M  V30 6543 H 612.458 -0.159502 1.43114 0
M  V30 6544 H 614.411 -2.76275 3.18198 0
M  V30 6545 H 613.135 -2.62198 1.9473 0
M  V30 6546 H 611.794 -1.14273 3.48335 0
M  V30 6547 H 611.442 -3.61877 3.49362 0
M  V30 6548 H 611.142 -2.91453 5.10224 0
M  V30 6549 H 612.666 -3.79171 4.78604 0
M  V30 6550 H 614.08 -1.63383 5.49526 0
M  V30 6551 H 612.477 -0.967876 5.92243 0
M  V30 6552 H 613.547 -0.0484569 4.84876 0
M  V30 6553 N 614.89 -1.56749 -0.16351 0
M  V30 6554 C 616.118 -1.86577 -0.894233 0
M  V30 6555 C 616.533 -0.696543 -1.75481 0
M  V30 6556 O 615.89 0.334161 -1.79415 0
M  V30 6557 C 615.941 -3.15508 -1.76456 0
M  V30 6558 O 615.662 -4.27926 -0.938685 0
M  V30 6559 C 617.163 -3.58737 -2.60428 0
M  V30 6560 H 614.383 -0.618829 -0.259405 0
M  V30 6561 H 616.927 -2.03863 -0.161259 0
M  V30 6562 H 615.082 -3.00025 -2.45079 0
M  V30 6563 H 615.496 -5.01546 -1.53465 0
M  V30 6564 H 616.97 -4.51832 -3.17099 0
M  V30 6565 H 617.447 -2.83229 -3.35675 0
M  V30 6566 H 618.053 -3.76858 -1.97125 0
M  V30 6567 N 616.368 0.432326 -1.51554 0
M  V30 6568 C 617.616 1.17901 -1.64146 0
M  V30 6569 C 617.937 1.91604 -0.362367 0
M  V30 6570 O 617.207 1.85764 0.621968 0
M  V30 6571 H 615.787 0.438206 -0.604966 0
M  V30 6572 H 618.449 0.495172 -1.88505 0
M  V30 6573 H 617.545 1.90584 -2.47152 0
M  V30 6574 N 617.846 1.41785 0.688094 0
M  V30 6575 C 618.776 1.47 1.8142 0
M  V30 6576 C 619.757 0.327881 1.6691 0
M  V30 6577 O 620.942 0.540362 1.86531 0
M  V30 6578 C 618.072 1.35876 3.19617 0
M  V30 6579 C 617.026 2.47976 3.48844 0
M  V30 6580 C 616.352 2.21915 4.86475 0
M  V30 6581 C 617.652 3.90309 3.47068 0
M  V30 6582 H 619.346 2.41247 1.77314 0
M  V30 6583 H 616.892 1.16116 0.851651 0
M  V30 6584 H 618.845 1.38134 3.98117 0
M  V30 6585 H 617.569 0.38116 3.24368 0
M  V30 6586 H 616.228 2.45013 2.72698 0
M  V30 6587 H 615.876 1.2248 4.8786 0
M  V30 6588 H 615.576 2.97037 5.06994 0
M  V30 6589 H 617.1 2.25901 5.67275 0
M  V30 6590 H 618.514 3.94947 4.1556 0
M  V30 6591 H 616.911 4.65175 3.7912 0
M  V30 6592 H 617.981 4.17927 2.45896 0
M  V30 6593 N 619.324 -0.923095 1.27737 0
M  V30 6594 C 620.254 -2.04124 1.13383 0
M  V30 6595 C 621.235 -1.70066 0.0340658 0
M  V30 6596 O 622.42 -1.93068 0.209383 0
M  V30 6597 C 619.55 -3.3831 0.785097 0
M  V30 6598 C 618.504 -3.86496 1.8386 0
M  V30 6599 C 617.83 -5.1754 1.34373 0
M  V30 6600 C 619.13 -4.09381 3.24353 0
M  V30 6601 H 620.824 -2.1639 2.06919 0
M  V30 6602 H 618.37 -1.03976 0.996243 0
M  V30 6603 H 620.323 -4.16016 0.671485 0
M  V30 6604 H 619.047 -3.2607 -0.185969 0
M  V30 6605 H 617.706 -3.10987 1.9412 0
M  V30 6606 H 617.354 -5.01696 0.361989 0
M  V30 6607 H 617.054 -5.50751 2.04811 0
M  V30 6608 H 618.578 -5.97811 1.24315 0
M  V30 6609 H 619.992 -4.77641 3.17067 0
M  V30 6610 H 618.389 -4.53906 3.92542 0
M  V30 6611 H 619.459 -3.14515 3.69064 0
M  V30 6612 N 620.802 -1.09834 -1.13024 0
M  V30 6613 C 622.079 -0.749225 -1.80682 0
M  V30 6614 C 622.459 0.765171 -1.96744 0
M  V30 6615 O 621.807 1.68912 -1.53886 0
M  V30 6616 C 622.017 -1.49311 -3.15448 0
M  V30 6617 C 623.365 -1.66162 -3.90737 0
M  V30 6618 O 624.389 -1.45597 -3.25085 0
M  V30 6619 O 623.248 -2.00211 -5.08505 0
M  V30 6620 H 620.342 -0.269614 -0.781817 0
M  V30 6621 H 622.888 -1.20078 -1.19914 0
M  V30 6622 H 621.66 -2.52407 -2.99009 0
M  V30 6623 H 621.283 -1.034 -3.8392 0
M  V30 6624 N 622.28 1.30327 -0.886154 0
M  V30 6625 C 623.21 2.30549 -0.370028 0
M  V30 6626 C 624.191 1.61039 0.547751 0
M  V30 6627 O 625.376 1.8864 0.461353 0
M  V30 6628 C 622.506 3.44808 0.415275 0
M  V30 6629 C 621.46 4.26024 -0.41085 0
M  V30 6630 C 620.786 5.32347 0.501128 0
M  V30 6631 C 622.086 4.95433 -1.65359 0
M  V30 6632 H 623.78 2.73969 -1.20754 0
M  V30 6633 H 621.326 1.3171 -0.582097 0
M  V30 6634 H 623.279 4.13986 0.78699 0
M  V30 6635 H 622.003 3.00197 1.28644 0
M  V30 6636 H 620.662 3.58535 -0.764719 0
M  V30 6637 H 620.31 4.83982 1.37004 0
M  V30 6638 H 620.01 5.87581 -0.0478356 0
M  V30 6639 H 621.534 6.0438 0.869333 0
M  V30 6640 H 622.948 5.5712 -1.35239 0
M  V30 6641 H 621.345 5.60537 -2.14284 0
M  V30 6642 H 622.415 4.21493 -2.39733 0
M  V30 6643 N 623.758 0.647228 1.43697 0
M  V30 6644 C 624.69 -0.0866232 2.29036 0
M  V30 6645 C 625.703 -0.793051 1.42178 0
M  V30 6646 O 626.892 -0.651807 1.66174 0
M  V30 6647 C 623.992 -1.14552 3.18953 0
M  V30 6648 C 623.165 -0.518422 4.34317 0
M  V30 6649 C 622.224 -1.4734 5.05151 0
M  V30 6650 O 621.25 -0.984312 5.60625 0
M  V30 6651 N 622.452 -2.8075 5.08094 0
M  V30 6652 H 625.217 0.645834 2.92659 0
M  V30 6653 H 622.778 0.489567 1.54321 0
M  V30 6654 H 624.77 -1.78505 3.63205 0
M  V30 6655 H 623.34 -1.78001 2.56971 0
M  V30 6656 H 622.56 0.300079 3.93056 0
M  V30 6657 H 623.848 -0.080401 5.08736 0
M  V30 6658 H 623.246 -3.23052 4.64386 0
M  V30 6659 H 621.803 -3.40022 5.56083 0
M  V30 6660 N 625.236 -1.5273 0.388769 0
M  V30 6661 C 626.199 -2.25043 -0.434544 0
M  V30 6662 C 627.199 -1.26661 -0.990644 0
M  V30 6663 O 628.389 -1.50762 -0.872731 0
M  V30 6664 C 625.521 -3.00507 -1.60961 0
M  V30 6665 H 626.714 -2.99242 0.198549 0
M  V30 6666 H 624.267 -1.55664 0.140875 0
M  V30 6667 H 625.002 -2.30607 -2.28015 0
M  V30 6668 H 624.787 -3.72716 -1.21757 0
M  V30 6669 H 626.277 -3.55413 -2.19251 0
M  V30 6670 N 626.714 -0.118576 -1.57153 0
M  V30 6671 C 628.13 0.238014 -1.57815 0
M  V30 6672 C 628.33 1.66747 -1.13127 0
M  V30 6673 O 627.386 2.38867 -0.818462 0
M  V30 6674 C 628.699 0.00508207 -3.007 0
M  V30 6675 C 630.247 0.0710139 -3.12919 0
M  V30 6676 C 630.722 -0.13422 -4.57803 0
M  V30 6677 N 632.213 -0.0801755 -4.63131 0
M  V30 6678 C 632.948 -0.213885 -5.73001 0
M  V30 6679 N 632.444 -0.403742 -6.91623 0
M  V30 6680 N 634.237 -0.15349 -5.6189 0
M  V30 6681 H 626.388 -1.05226 -1.84503 0
M  V30 6682 H 628.651 -0.414318 -0.852669 0
M  V30 6683 H 628.357 -0.983125 -3.3768 0
M  V30 6684 H 628.231 0.73714 -3.69927 0
M  V30 6685 H 630.618 1.04975 -2.75798 0
M  V30 6686 H 630.699 -0.692918 -2.46236 0
M  V30 6687 H 630.343 -1.10992 -4.95624 0
M  V30 6688 H 630.273 0.649692 -5.22577 0
M  V30 6689 H 632.764 0.0630689 -3.77847 0
M  V30 6690 H 633.077 -0.496645 -7.71202 0
M  V30 6691 H 631.422 -0.43971 -6.93608 0
M  V30 6692 H 634.613 -0.00613174 -4.681 0
M  V30 6693 H 634.786 -0.261138 -6.47474 0
M  V30 6694 N 628.193 1.56834 0.155195 0
M  V30 6695 C 629.423 1.86778 0.883044 0
M  V30 6696 C 629.831 0.703824 1.75622 0
M  V30 6697 O 629.174 -0.33581 1.80605 0
M  V30 6698 C 629.236 3.1133 1.79761 0
M  V30 6699 C 628.9 4.43504 1.10242 0
M  V30 6700 C 629.897 5.17859 0.460204 0
M  V30 6701 C 627.582 4.90233 1.09437 0
M  V30 6702 C 629.576 6.37144 -0.180782 0
M  V30 6703 C 627.263 6.09444 0.449569 0
M  V30 6704 C 628.261 6.82744 -0.186888 0
M  V30 6705 O 627.949 7.99692 -0.821486 0
M  V30 6706 H 627.681 0.62352 0.261149 0
M  V30 6707 H 630.235 2.04813 0.155204 0
M  V30 6708 H 628.465 2.89282 2.56618 0
M  V30 6709 H 630.154 3.27587 2.39669 0
M  V30 6710 H 630.92 4.8283 0.458289 0
M  V30 6711 H 626.799 4.33109 1.57917 0
M  V30 6712 H 630.343 6.94296 -0.678154 0
M  V30 6713 H 626.24 6.43936 0.449123 0
M  V30 6714 H 627.008 8.15306 -0.722337 0
M  V30 6715 N 629.671 -0.424282 1.51781 0
M  V30 6716 C 631.082 -1.00368 1.57427 0
M  V30 6717 C 631.433 -1.91962 0.40558 0
M  V30 6718 O 630.558 -2.111 -0.47601 0
M  V30 6719 C 631.153 -1.82707 2.85313 0
M  V30 6720 C 629.712 -2.35675 2.93487 0
M  V30 6721 C 628.859 -1.1524 2.5222 0
M  V30 6722 H 631.81 -0.205064 1.5737 0
M  V30 6723 H 631.831 -2.68294 2.69812 0
M  V30 6724 H 631.343 -1.16017 3.70353 0
M  V30 6725 H 629.444 -3.05781 2.12906 0
M  V30 6726 H 629.557 -2.67578 3.97415 0
M  V30 6727 H 627.921 -1.50174 2.05718 0
M  V30 6728 H 628.704 -0.5014 3.39619 0
M  V30 6729 N 631.149 -1.42148 -0.680565 0
M  V30 6730 C 632.081 -1.41119 -1.80605 0
M  V30 6731 C 633.094 -0.311099 -1.598 0
M  V30 6732 O 634.283 -0.573813 -1.69026 0
M  V30 6733 C 631.383 -1.18204 -3.17618 0
M  V30 6734 C 630.556 -2.40537 -3.65322 0
M  V30 6735 C 629.615 -2.13254 -4.8105 0
M  V30 6736 O 628.641 -2.8641 -4.91892 0
M  V30 6737 N 629.843 -1.13208 -5.69354 0
M  V30 6738 H 632.608 -2.38128 -1.81975 0
M  V30 6739 H 630.169 -1.36953 -0.863446 0
M  V30 6740 H 632.161 -0.97878 -3.92686 0
M  V30 6741 H 630.731 -0.29738 -3.11182 0
M  V30 6742 H 629.951 -2.76468 -2.80996 0
M  V30 6743 H 631.239 -3.22012 -3.93936 0
M  V30 6744 H 630.637 -0.526893 -5.63241 0
M  V30 6745 H 629.194 -0.988699 -6.44258 0
M  V30 6746 N 632.627 0.916307 -1.28225 0
M  V30 6747 C 633.874 1.66518 -1.1523 0
M  V30 6748 C 634.202 1.92178 0.299632 0
M  V30 6749 O 633.457 1.51842 1.2346 0
M  V30 6750 C 633.756 3.03125 -1.8934 0
M  V30 6751 C 633.422 2.97135 -3.39148 0
M  V30 6752 C 632.084 2.95208 -3.80007 0
M  V30 6753 C 634.436 2.87574 -4.34685 0
M  V30 6754 C 631.764 2.81518 -5.14747 0
M  V30 6755 C 634.116 2.75424 -5.69495 0
M  V30 6756 C 632.78 2.71854 -6.09632 0
M  V30 6757 H 632.05 0.609334 -0.421655 0
M  V30 6758 H 634.697 1.06776 -1.58969 0
M  V30 6759 H 633.002 3.66639 -1.38143 0
M  V30 6760 H 634.699 3.59968 -1.76704 0
M  V30 6761 H 631.289 2.99428 -3.06661 0
M  V30 6762 H 635.473 2.88152 -4.04082 0
M  V30 6763 H 630.729 2.77148 -5.44976 0
M  V30 6764 H 634.903 2.66993 -6.43185 0
M  V30 6765 H 632.53 2.61003 -7.1399 0
M  V30 6766 N 634.105 1.10431 1.1244 0
M  V30 6767 C 635.354 0.841539 1.83306 0
M  V30 6768 C 635.667 -0.634961 1.85007 0
M  V30 6769 O 636.873 -1.01363 2.51869 0
M  V30 6770 C 635.329 1.45565 3.29149 0
M  V30 6771 C 634.937 2.96544 3.35806 0
M  V30 6772 C 636.681 1.27227 4.04986 0
M  V30 6773 C 634.588 3.5099 4.75983 0
M  V30 6774 H 633.518 0.311156 0.686803 0
M  V30 6775 H 636.169 1.32829 1.26604 0
M  V30 6776 H 634.551 0.896574 3.85717 0
M  V30 6777 H 635.725 3.58766 2.89177 0
M  V30 6778 H 634.04 3.14036 2.73442 0
M  V30 6779 H 636.637 1.65348 5.08492 0
M  V30 6780 H 636.98 0.213834 4.1575 0
M  V30 6781 H 637.513 1.79941 3.54776 0
M  V30 6782 H 634.252 4.56499 4.70413 0
M  V30 6783 H 633.772 2.93535 5.23065 0
M  V30 6784 H 635.451 3.48808 5.44924 0
M  V30 6785 N 635.583 -1.29855 0.893053 0
M  V30 6786 C 636.808 -2.00512 0.530066 0
M  V30 6787 C 637.233 -1.66446 -0.876199 0
M  V30 6788 O 636.591 -0.885446 -1.58207 0
M  V30 6789 C 636.639 -3.53308 0.721505 0
M  V30 6790 O 635.743 -4.11764 -0.228994 0
M  V30 6791 H 635.084 -0.630617 0.207891 0
M  V30 6792 H 637.614 -1.6551 1.20282 0
M  V30 6793 H 637.624 -4.03206 0.623599 0
M  V30 6794 H 636.299 -3.77439 1.74678 0
M  V30 6795 H 634.876 -3.72805 -0.0841034 0
M  V30 6796 N 637.061 -0.65484 -1.43351 0
M  V30 6797 C 638.477 -0.32255 -1.56307 0
M  V30 6798 C 638.677 1.17324 -1.63821 0
M  V30 6799 O 637.733 1.95813 -1.59417 0
M  V30 6800 C 639.046 -1.03533 -2.82314 0
M  V30 6801 C 640.594 -1.01574 -2.9606 0
M  V30 6802 C 641.069 -1.70945 -4.24902 0
M  V30 6803 N 642.56 -1.67716 -4.3177 0
M  V30 6804 C 643.295 -2.18265 -5.30234 0
M  V30 6805 N 642.791 -2.7711 -6.34966 0
M  V30 6806 N 644.584 -2.08756 -5.21898 0
M  V30 6807 H 636.735 -1.62549 -1.36717 0
M  V30 6808 H 638.998 -0.683676 -0.656727 0
M  V30 6809 H 638.704 -2.09045 -2.8283 0
M  V30 6810 H 638.578 -0.587913 -3.7259 0
M  V30 6811 H 640.965 0.0309834 -2.95084 0
M  V30 6812 H 641.046 -1.50186 -2.07069 0
M  V30 6813 H 640.69 -2.75574 -4.26639 0
M  V30 6814 H 640.62 -1.19797 -5.12793 0
M  V30 6815 H 643.111 -1.24777 -3.56706 0
M  V30 6816 H 643.424 -3.13353 -7.06421 0
M  V30 6817 H 641.769 -2.81171 -6.35585 0
M  V30 6818 H 644.96 -1.62488 -4.38994 0
M  V30 6819 H 645.133 -2.48459 -5.98475 0
M  V30 6820 N 638.539 1.52521 -0.396863 0
M  V30 6821 C 639.785 2.01971 0.183169 0
M  V30 6822 C 640.118 1.2825 1.45827 0
M  V30 6823 O 639.393 0.385179 1.90648 0
M  V30 6824 C 639.676 3.5736 0.443391 0
M  V30 6825 C 639.529 4.41743 -0.84753 0
M  V30 6826 C 640.848 4.22539 1.2308 0
M  V30 6827 H 637.967 0.734119 0.0650976 0
M  V30 6828 H 640.609 1.82519 -0.527918 0
M  V30 6829 H 638.759 3.74066 1.04914 0
M  V30 6830 H 640.431 4.36773 -1.48414 0
M  V30 6831 H 638.674 4.0845 -1.4612 0
M  V30 6832 H 639.345 5.48507 -0.620003 0
M  V30 6833 H 641.821 4.09857 0.718084 0
M  V30 6834 H 640.697 5.31227 1.38162 0
M  V30 6835 H 640.958 3.80675 2.24808 0
M  V30 6836 N 640.017 0.126909 1.57088 0
M  V30 6837 C 641.433 -0.229641 1.57939 0
M  V30 6838 C 641.633 -1.66145 1.1401 0
M  V30 6839 O 640.689 -2.3843 0.831119 0
M  V30 6840 C 642.002 0.0108648 3.00698 0
M  V30 6841 C 643.55 -0.054418 3.12953 0
M  V30 6842 C 644.025 0.158497 4.57726 0
M  V30 6843 N 645.516 0.104735 4.63082 0
M  V30 6844 C 646.251 0.24427 5.72879 0
M  V30 6845 N 645.747 0.440415 6.91399 0
M  V30 6846 N 647.54 0.183286 5.61801 0
M  V30 6847 H 639.691 1.06203 1.83942 0
M  V30 6848 H 641.954 0.418834 0.85046 0
M  V30 6849 H 641.66 1.00102 3.37154 0
M  V30 6850 H 641.534 -0.717512 3.70313 0
M  V30 6851 H 643.921 -1.0351 2.7635 0
M  V30 6852 H 644.002 0.705967 2.45865 0
M  V30 6853 H 643.646 1.13619 4.95028 0
M  V30 6854 H 643.576 -0.62197 5.22914 0
M  V30 6855 H 646.067 -0.0430298 3.77876 0
M  V30 6856 H 646.38 0.537536 7.70928 0
M  V30 6857 H 644.725 0.476488 6.93365 0
M  V30 6858 H 647.916 0.0309561 4.6809 0
M  V30 6859 H 648.089 0.295471 6.47326 0
M  V30 6860 N 641.495 -1.56914 -0.146875 0
M  V30 6861 C 642.743 -1.82994 -0.85777 0
M  V30 6862 C 643.064 -0.707814 -1.817 0
M  V30 6863 O 642.334 0.270521 -1.94023 0
M  V30 6864 H 640.914 -0.675106 -0.319751 0
M  V30 6865 H 643.576 -1.9439 -0.140849 0
M  V30 6866 H 642.672 -2.77928 -1.41994 0
M  V30 6867 N 642.974 0.416227 -1.52004 0
M  V30 6868 C 644.39 0.754319 -1.40649 0
M  V30 6869 C 644.59 1.95059 -0.505392 0
M  V30 6870 O 643.646 2.5248 0.0315057 0
M  V30 6871 C 644.959 1.0149 -2.83055 0
M  V30 6872 C 646.507 1.11805 -2.9235 0
M  V30 6873 C 646.982 1.41144 -4.35709 0
M  V30 6874 N 648.473 1.48024 -4.38911 0
M  V30 6875 C 649.208 1.72338 -5.46889 0
M  V30 6876 N 648.704 1.94303 -6.64995 0
M  V30 6877 N 650.497 1.74294 -5.34395 0
M  V30 6878 H 642.648 -0.371324 -2.09129 0
M  V30 6879 H 644.911 -0.103811 -0.942299 0
M  V30 6880 H 644.617 0.208345 -3.51082 0
M  V30 6881 H 644.491 1.93697 -3.23668 0
M  V30 6882 H 646.878 1.91521 -2.24508 0
M  V30 6883 H 646.959 0.17451 -2.55204 0
M  V30 6884 H 646.603 0.619484 -5.04108 0
M  V30 6885 H 646.533 2.36739 -4.70385 0
M  V30 6886 H 649.024 1.32868 -3.53772 0
M  V30 6887 H 649.337 2.12286 -7.43071 0
M  V30 6888 H 647.682 1.91582 -6.68073 0
M  V30 6889 H 650.873 1.56667 -4.41104 0
M  V30 6890 H 651.046 1.92904 -6.18621 0
M  V30 6891 N 644.452 1.42507 0.673017 0
M  V30 6892 C 645.7 1.42789 1.43023 0
M  V30 6893 C 646.021 0.0459738 1.94946 0
M  V30 6894 O 645.291 -0.915765 1.73178 0
M  V30 6895 H 643.871 0.525657 0.530748 0
M  V30 6896 H 646.533 1.77944 0.795113 0
M  V30 6897 H 645.629 2.12872 2.28237 0
M  V30 6898 N 645.93 -0.909495 1.28709 0
M  V30 6899 C 647.158 -1.69272 1.18973 0
M  V30 6900 C 647.573 -1.87123 -0.251048 0
M  V30 6901 O 646.93 -1.40127 -1.16922 0
M  V30 6902 C 646.981 -3.08257 1.88839 0
M  V30 6903 O 646.702 -2.91228 3.27289 0
M  V30 6904 C 648.203 -4.02642 1.85457 0
M  V30 6905 H 645.423 -0.528999 0.412797 0
M  V30 6906 H 647.967 -1.13803 1.69909 0
M  V30 6907 H 646.122 -3.6053 1.41762 0
M  V30 6908 H 646.536 -3.79223 3.6234 0
M  V30 6909 H 648.01 -4.97613 2.38925 0
M  V30 6910 H 648.487 -4.31327 0.827893 0
M  V30 6911 H 649.093 -3.56298 2.32233 0
M  V30 6912 N 647.408 -1.11026 -1.11852 0
M  V30 6913 C 648.655 -0.85646 -1.83497 0
M  V30 6914 C 648.983 0.617938 -1.84423 0
M  V30 6915 O 648.238 1.47194 -1.28966 0
M  V30 6916 C 648.537 -1.35777 -3.30604 0
M  V30 6917 C 648.203 -2.84465 -3.49843 0
M  V30 6918 C 646.865 -3.25068 -3.54802 0
M  V30 6919 C 649.217 -3.80251 -3.56453 0
M  V30 6920 C 646.545 -4.60194 -3.63921 0
M  V30 6921 C 648.897 -5.15188 -3.67102 0
M  V30 6922 C 647.561 -5.55356 -3.70319 0
M  V30 6923 H 646.831 -0.313401 -0.671462 0
M  V30 6924 H 649.478 -1.38792 -1.31943 0
M  V30 6925 H 647.783 -0.746455 -3.84624 0
M  V30 6926 H 649.48 -1.13779 -3.8452 0
M  V30 6927 H 646.07 -2.52054 -3.46651 0
M  V30 6928 H 650.254 -3.49986 -3.51886 0
M  V30 6929 H 645.51 -4.90728 -3.64686 0
M  V30 6930 H 649.684 -5.89248 -3.71159 0
M  V30 6931 H 647.311 -6.60054 -3.77138 0
M  V30 6932 N 648.886 1.2938 -0.899927 0
M  V30 6933 C 650.126 1.97332 -0.532871 0
M  V30 6934 C 650.49 1.69385 0.904029 0
M  V30 6935 O 651.691 2.30793 1.37797 0
M  V30 6936 C 649.962 3.47927 -0.817393 0
M  V30 6937 S 651.521 4.3528 -0.55468 0
M  V30 6938 H 648.339 0.682966 -0.197683 0
M  V30 6939 H 650.941 1.57189 -1.16241 0
M  V30 6940 H 649.645 3.65761 -1.86138 0
M  V30 6941 H 649.176 3.93006 -0.175978 0
M  V30 6942 H 651.191 4.92557 0.600182 0
M  V30 6943 N 650.364 0.662433 1.43002 0
M  V30 6944 C 651.589 0.186003 2.06564 0
M  V30 6945 C 652.014 -1.14314 1.49379 0
M  V30 6946 O 651.372 -1.70824 0.607346 0
M  V30 6947 C 651.42 0.118269 3.60406 0
M  V30 6948 O 650.524 -0.916859 4.02079 0
M  V30 6949 H 649.865 0.0990981 0.656563 0
M  V30 6950 H 652.395 0.907958 1.8335 0
M  V30 6951 H 652.405 -0.0619981 4.07953 0
M  V30 6952 H 651.08 1.08849 4.01403 0
M  V30 6953 H 649.657 -0.708635 3.66105 0
M  V30 6954 N 651.842 -1.52309 0.404946 0
M  V30 6955 C 653.089 -2.01767 -0.1722 0
M  V30 6956 C 653.417 -1.29075 -1.45498 0
M  V30 6957 O 652.672 -0.3843 -1.9189 0
M  V30 6958 C 652.971 -3.54284 -0.470895 0
M  V30 6959 C 652.637 -4.45079 0.722194 0
M  V30 6960 C 651.299 -4.69617 1.04946 0
M  V30 6961 C 653.651 -4.98555 1.51962 0
M  V30 6962 C 650.979 -5.44878 2.17543 0
M  V30 6963 C 653.331 -5.75049 2.63632 0
M  V30 6964 C 651.995 -5.9786 2.9685 0
M  V30 6965 H 651.265 -0.738316 -0.0630125 0
M  V30 6966 H 653.912 -1.83566 0.545506 0
M  V30 6967 H 652.217 -3.70642 -1.27012 0
M  V30 6968 H 653.914 -3.90058 -0.930346 0
M  V30 6969 H 650.504 -4.26155 0.457131 0
M  V30 6970 H 654.688 -4.79509 1.28002 0
M  V30 6971 H 649.944 -5.60762 2.43631 0
M  V30 6972 H 654.118 -6.15483 3.25813 0
M  V30 6973 H 651.745 -6.5596 3.84215 0
M  V30 6974 N 653.32 -0.135238 -1.57019 0
M  V30 6975 C 654.597 0.563227 -1.87316 0
M  V30 6976 C 654.977 1.83749 -1.03921 0
M  V30 6977 O 654.325 2.2817 -0.122675 0
M  V30 6978 C 654.535 0.840031 -3.3874 0
M  V30 6979 C 655.883 1.18598 -4.077 0
M  V30 6980 O 656.907 0.92977 -3.43851 0
M  V30 6981 O 655.766 1.66758 -5.20436 0
M  V30 6982 H 652.86 0.285971 -0.775983 0
M  V30 6983 H 655.406 -0.170965 -1.68837 0
M  V30 6984 H 654.178 -0.0622785 -3.9125 0
M  V30 6985 H 653.801 1.62882 -3.62706 0
M  V30 6986 N 654.798 1.5699 0.138552 0
M  V30 6987 C 656.026 1.87976 0.864437 0
M  V30 6988 C 656.441 0.724372 1.74351 0
M  V30 6989 O 655.798 -0.305575 1.79924 0
M  V30 6990 C 655.849 3.18276 1.71414 0
M  V30 6991 O 655.57 4.29365 0.870487 0
M  V30 6992 C 657.071 3.62834 2.54688 0
M  V30 6993 H 654.291 0.622878 0.249528 0
M  V30 6994 H 656.835 2.04094 0.128805 0
M  V30 6995 H 654.99 3.03886 2.40274 0
M  V30 6996 H 655.404 5.03924 1.45466 0
M  V30 6997 H 656.878 4.5682 3.0987 0
M  V30 6998 H 657.355 2.88533 3.31127 0
M  V30 6999 H 657.961 3.79946 1.91105 0
M  V30 7000 N 656.276 -0.40816 1.52223 0
M  V30 7001 C 657.687 -0.986929 1.58482 0
M  V30 7002 C 658.038 -1.91521 0.425917 0
M  V30 7003 O 657.163 -2.11593 -0.453593 0
M  V30 7004 C 657.758 -1.7967 2.87235 0
M  V30 7005 C 656.317 -2.32549 2.9597 0
M  V30 7006 C 655.464 -1.12558 2.53428 0
M  V30 7007 H 658.415 -0.188362 1.57578 0
M  V30 7008 H 658.436 -2.65417 2.72642 0
M  V30 7009 H 657.948 -1.12082 3.71563 0
M  V30 7010 H 656.049 -3.03505 2.16137 0
M  V30 7011 H 656.162 -2.63348 4.00231 0
M  V30 7012 H 654.526 -1.47984 2.07299 0
M  V30 7013 H 655.309 -0.465351 3.40131 0
M  V30 7014 N 657.755 -1.42862 -0.66545 0
M  V30 7015 C 659.032 -1.3431 -1.42197 0
M  V30 7016 C 659.412 0.0150265 -2.11095 0
M  V30 7017 O 658.76 1.03101 -2.03918 0
M  V30 7018 C 658.97 -2.51783 -2.41674 0
M  V30 7019 C 660.318 -2.94321 -3.0604 0
M  V30 7020 O 661.342 -2.51741 -2.52001 0
M  V30 7021 O 660.201 -3.68047 -4.03985 0
M  V30 7022 H 657.295 -0.530159 -0.634713 0
M  V30 7023 H 659.841 -1.54888 -0.693386 0
M  V30 7024 H 658.613 -3.42282 -1.89627 0
M  V30 7025 H 658.236 -2.33241 -3.22001 0
M  V30 7026 N 659.233 0.902656 -1.29189 0
M  V30 7027 C 660.51 1.63296 -1.07674 0
M  V30 7028 C 660.89 2.07649 0.380137 0
M  V30 7029 O 660.238 1.82997 1.36837 0
M  V30 7030 C 660.448 2.81603 -2.06158 0
M  V30 7031 C 661.796 3.52359 -2.36914 0
M  V30 7032 O 662.82 2.91767 -2.04329 0
M  V30 7033 O 661.679 4.61586 -2.92576 0
M  V30 7034 H 658.773 0.716889 -0.41231 0
M  V30 7035 H 661.319 0.950984 -1.4055 0
M  V30 7036 H 660.091 2.46004 -3.04299 0
M  V30 7037 H 659.714 3.57508 -1.73993 0
M  V30 7038 N 660.711 1.11618 1.11262 0
M  V30 7039 C 661.936 0.889013 1.8738 0
M  V30 7040 C 662.361 -0.555884 1.79698 0
M  V30 7041 O 661.719 -1.39272 1.16073 0
M  V30 7042 C 661.767 1.35759 3.34069 0
M  V30 7043 O 660.871 0.530499 4.08974 0
M  V30 7044 H 660.212 0.320082 0.581759 0
M  V30 7045 H 662.742 1.48611 1.40627 0
M  V30 7046 H 662.752 1.35291 3.84916 0
M  V30 7047 H 661.427 2.40973 3.38976 0
M  V30 7048 H 660.004 0.601439 3.68018 0
M  V30 7049 N 662.189 -1.289 0.906776 0
M  V30 7050 C 663.438 -1.9455 0.532262 0
M  V30 7051 C 663.751 -1.72219 -0.927353 0
M  V30 7052 O 664.957 -2.32033 -1.40971 0
M  V30 7053 C 663.413 -3.48438 0.901041 0
M  V30 7054 C 663.021 -3.79558 2.37991 0
M  V30 7055 C 664.765 -4.20284 0.596777 0
M  V30 7056 C 662.672 -5.26723 2.68918 0
M  V30 7057 H 661.602 -0.728259 0.195333 0
M  V30 7058 H 664.253 -1.46519 1.10474 0
M  V30 7059 H 662.635 -3.95162 0.257419 0
M  V30 7060 H 663.809 -3.43668 3.06967 0
M  V30 7061 H 662.124 -3.20868 2.65391 0
M  V30 7062 H 664.721 -5.28612 0.8046 0
M  V30 7063 H 665.064 -4.13694 -0.465072 0
M  V30 7064 H 665.597 -3.79315 1.19855 0
M  V30 7065 H 662.336 -5.38384 3.73928 0
M  V30 7066 H 661.856 -5.63836 2.04571 0
M  V30 7067 H 663.535 -5.94391 2.55555 0
M  V30 7068 N 663.667 -0.670007 -1.42649 0
M  V30 7069 C 665.083 -0.33911 -1.55956 0
M  V30 7070 C 665.283 1.1558 -1.65056 0
M  V30 7071 O 664.339 1.94111 -1.61485 0
M  V30 7072 C 665.652 -1.06522 -2.812 0
M  V30 7073 C 667.2 -1.04708 -2.94966 0
M  V30 7074 C 667.675 -1.75442 -4.23065 0
M  V30 7075 N 669.166 -1.72286 -4.29967 0
M  V30 7076 C 669.901 -2.23877 -5.27889 0
M  V30 7077 N 669.397 -2.83829 -6.31991 0
M  V30 7078 N 671.19 -2.14279 -5.19654 0
M  V30 7079 H 663.341 -1.6399 -1.34986 0
M  V30 7080 H 665.604 -0.690603 -0.649439 0
M  V30 7081 H 665.31 -2.12033 -2.80597 0
M  V30 7082 H 665.184 -0.627398 -3.71946 0
M  V30 7083 H 667.571 -0.000315966 -2.951 0
M  V30 7084 H 667.652 -1.52374 -2.05465 0
M  V30 7085 H 667.296 -2.80084 -4.23693 0
M  V30 7086 H 667.226 -1.25229 -5.11493 0
M  V30 7087 H 669.717 -1.28554 -3.55362 0
M  V30 7088 H 670.03 -3.20827 -7.03057 0
M  V30 7089 H 668.375 -2.87896 -6.32567 0
M  V30 7090 H 671.566 -1.67135 -4.37245 0
M  V30 7091 H 671.739 -2.54792 -5.95806 0
M  V30 7092 N 665.145 1.52092 -0.413018 0
M  V30 7093 C 666.093 2.28681 0.425199 0
M  V30 7094 C 667.087 1.3353 1.04241 0
M  V30 7095 O 668.293 1.50973 0.980166 0
M  V30 7096 H 664.668 0.735661 0.155906 0
M  V30 7097 H 666.639 2.97418 -0.241926 0
M  V30 7098 C 665.388 3.1235 1.5275 0
M  V30 7099 H 664.711 3.85439 1.06191 0
M  V30 7100 H 666.151 3.69038 2.08774 0
M  V30 7101 C 664.61 2.26161 2.49706 0
M  V30 7102 O 665.14 1.90452 3.53682 0
M  V30 7103 N 663.346 1.89854 2.20008 0
M  V30 7104 H 662.893 2.19092 1.35486 0
M  V30 7105 H 662.851 1.3248 2.85125 0
M  V30 7106 N 666.623 0.143563 1.56945 0
M  V30 7107 C 667.57 -0.797433 2.16586 0
M  V30 7108 C 668.54 -1.24654 1.09775 0
M  V30 7109 O 669.725 -1.31968 1.37801 0
M  V30 7110 C 666.865 -2.03253 2.78895 0
M  V30 7111 C 665.978 -1.62954 4.00087 0
M  V30 7112 C 665.113 -2.81617 4.50406 0
M  V30 7113 C 664.152 -2.37675 5.64072 0
M  V30 7114 N 663.289 -3.49335 6.09023 0
M  V30 7115 H 668.129 -0.282023 2.96662 0
M  V30 7116 H 665.666 -0.127494 1.46546 0
M  V30 7117 H 667.624 -2.75653 3.13163 0
M  V30 7118 H 666.254 -2.52211 2.01469 0
M  V30 7119 H 665.306 -0.803322 3.71821 0
M  V30 7120 H 666.618 -1.26679 4.82446 0
M  V30 7121 H 665.772 -3.62212 4.86711 0
M  V30 7122 H 664.511 -3.21134 3.67048 0
M  V30 7123 H 663.516 -1.55519 5.27346 0
M  V30 7124 H 664.741 -1.99247 6.49213 0
M  V30 7125 H 662.687 -3.8848 5.28601 0
M  V30 7126 H 662.604 -3.17064 6.86299 0
M  V30 7127 H 663.872 -4.30297 6.49973 0
M  V30 7128 N 668.101 -1.57061 -0.130224 0
M  V30 7129 C 669.031 -2.02552 -1.16168 0
M  V30 7130 C 670.012 -0.907971 -1.4384 0
M  V30 7131 O 671.197 -1.17693 -1.54473 0
M  V30 7132 C 668.327 -2.42035 -2.49071 0
M  V30 7133 C 667.281 -3.5713 -2.35886 0
M  V30 7134 C 666.607 -3.82478 -3.7365 0
M  V30 7135 C 667.907 -4.89236 -1.8288 0
M  V30 7136 H 669.601 -2.8897 -0.783359 0
M  V30 7137 H 667.147 -1.39021 -0.375376 0
M  V30 7138 H 669.1 -2.72462 -3.21469 0
M  V30 7139 H 667.824 -1.52573 -2.88771 0
M  V30 7140 H 666.483 -3.26895 -1.65938 0
M  V30 7141 H 666.131 -2.9024 -4.10816 0
M  V30 7142 H 665.831 -4.59944 -3.65685 0
M  V30 7143 H 667.355 -4.15347 -4.47571 0
M  V30 7144 H 668.769 -5.18272 -2.45085 0
M  V30 7145 H 667.166 -5.70624 -1.85763 0
M  V30 7146 H 668.236 -4.78494 -0.785571 0
M  V30 7147 N 669.579 0.400081 -1.52437 0
M  V30 7148 C 670.828 1.14332 -1.66166 0
M  V30 7149 C 671.141 1.91419 -0.402253 0
M  V30 7150 O 672.347 2.6824 -0.419487 0
M  V30 7151 C 670.803 2.08137 -2.9361 0
M  V30 7152 C 670.411 1.36524 -4.26691 0
M  V30 7153 C 672.155 2.82664 -3.16703 0
M  V30 7154 C 670.062 2.29031 -5.45251 0
M  V30 7155 H 668.992 0.430499 -0.61902 0
M  V30 7156 H 671.643 0.407017 -1.78929 0
M  V30 7157 H 670.025 2.85358 -2.74567 0
M  V30 7158 H 671.199 0.646061 -4.56249 0
M  V30 7159 H 669.514 0.74002 -4.09771 0
M  V30 7160 H 672.111 3.52037 -4.0246 0
M  V30 7161 H 672.454 3.46122 -2.31312 0
M  V30 7162 H 672.987 2.12541 -3.36261 0
M  V30 7163 H 669.726 1.70206 -6.33017 0
M  V30 7164 H 669.246 2.98896 -5.2002 0
M  V30 7165 H 670.925 2.89359 -5.78689 0
M  V30 7166 N 671.057 1.43213 0.657864 0
M  V30 7167 C 671.987 1.50815 1.78262 0
M  V30 7168 C 672.968 0.363211 1.66177 0
M  V30 7169 O 674.153 0.579806 1.85343 0
M  V30 7170 C 671.283 1.42625 3.16663 0
M  V30 7171 C 670.237 2.5532 3.43505 0
M  V30 7172 C 669.563 2.32184 4.81658 0
M  V30 7173 C 670.863 3.97583 3.38711 0
M  V30 7174 H 672.557 2.44954 1.72157 0
M  V30 7175 H 670.103 1.17896 0.82683 0
M  V30 7176 H 672.056 1.46548 3.95097 0
M  V30 7177 H 670.78 0.449877 3.23487 0
M  V30 7178 H 669.439 2.50742 2.6744 0
M  V30 7179 H 669.087 1.32801 4.85153 0
M  V30 7180 H 668.787 3.07724 5.00579 0
M  V30 7181 H 670.311 2.37883 5.62356 0
M  V30 7182 H 671.725 4.03673 4.07089 0
M  V30 7183 H 670.122 4.73112 3.69168 0
M  V30 7184 H 671.192 4.23049 2.36976 0
M  V30 7185 N 672.536 -0.895792 1.29666 0
M  V30 7186 C 673.785 -1.64131 1.17234 0
M  V30 7187 C 674.098 -1.93665 -0.274416 0
M  V30 7188 O 675.304 -2.66472 -0.520105 0
M  V30 7189 C 673.76 -2.95764 2.05065 0
M  V30 7190 C 673.368 -2.7381 3.54587 0
M  V30 7191 C 675.112 -3.737 2.01367 0
M  V30 7192 C 673.019 -4.01194 4.34508 0
M  V30 7193 H 671.949 -0.615742 0.435175 0
M  V30 7194 H 674.6 -0.992626 1.54335 0
M  V30 7195 H 672.982 -3.61867 1.60837 0
M  V30 7196 H 674.156 -2.16277 4.06892 0
M  V30 7197 H 672.471 -2.09265 3.59996 0
M  V30 7198 H 675.068 -4.68152 2.58337 0
M  V30 7199 H 675.411 -4.04245 0.994575 0
M  V30 7200 H 675.944 -3.14444 2.43659 0
M  V30 7201 H 672.683 -3.75813 5.37071 0
M  V30 7202 H 672.203 -4.58272 3.86971 0
M  V30 7203 H 673.882 -4.69307 4.45376 0
M  V30 7204 N 674.014 -1.12206 -1.10668 0
M  V30 7205 C 674.977 -0.790867 -2.15123 0
M  V30 7206 C 675.977 0.193618 -1.5963 0
M  V30 7207 O 677.167 -0.0318728 -1.74171 0
M  V30 7208 C 674.299 -0.174797 -3.40452 0
M  V30 7209 H 675.492 -1.7163 -2.45933 0
M  V30 7210 H 673.045 -0.924993 -1.2599 0
M  V30 7211 H 673.78 0.760478 -3.15257 0
M  V30 7212 H 673.565 -0.88358 -3.82015 0
M  V30 7213 H 675.055 0.0405162 -4.1758 0
M  V30 7214 N 675.492 1.28418 -0.913599 0
M  V30 7215 C 676.908 1.47411 -0.611728 0
M  V30 7216 C 677.108 1.83018 0.843008 0
M  V30 7217 O 676.164 1.93505 1.6221 0
M  V30 7218 C 677.477 2.57703 -1.5495 0
M  V30 7219 C 679.025 2.71572 -1.5562 0
M  V30 7220 C 679.5 3.85008 -2.48058 0
M  V30 7221 N 680.991 3.92361 -2.46184 0
M  V30 7222 C 681.726 4.79516 -3.14407 0
M  V30 7223 N 681.222 5.71262 -3.91958 0
M  V30 7224 N 683.015 4.73125 -3.03495 0
M  V30 7225 H 675.166 1.03585 -1.85429 0
M  V30 7226 H 677.429 0.515907 -0.795326 0
M  V30 7227 H 677.135 2.38298 -2.58663 0
M  V30 7228 H 677.009 3.54801 -1.28048 0
M  V30 7229 H 679.396 2.90366 -0.526441 0
M  V30 7230 H 679.477 1.75006 -1.86565 0
M  V30 7231 H 679.121 3.66969 -3.51136 0
M  V30 7232 H 679.051 4.80971 -2.14416 0
M  V30 7233 H 681.542 3.26749 -1.89851 0
M  V30 7234 H 681.855 6.34593 -4.41034 0
M  V30 7235 H 680.2 5.71103 -3.96063 0
M  V30 7236 H 683.391 4.00442 -2.42413 0
M  V30 7237 H 683.564 5.40834 -3.56935 0
M  V30 7238 N 676.97 0.677563 1.42291 0
M  V30 7239 C 677.918 -0.0106755 2.32598 0
M  V30 7240 C 678.912 -0.787643 1.49975 0
M  V30 7241 O 680.118 -0.695295 1.66029 0
M  V30 7242 H 676.493 -0.0222482 0.751671 0
M  V30 7243 H 678.464 0.768312 2.88339 0
M  V30 7244 C 677.213 -0.946142 3.3458 0
M  V30 7245 H 676.536 -0.357701 3.98197 0
M  V30 7246 H 677.976 -1.39634 4.00348 0
M  V30 7247 C 676.435 -2.05383 2.67057 0
M  V30 7248 O 676.965 -3.1406 2.50458 0
M  V30 7249 N 675.171 -1.82635 2.26038 0
M  V30 7250 H 674.718 -0.942534 2.39737 0
M  V30 7251 H 674.676 -2.56937 1.81192 0
M  V30 7252 N 678.448 -1.51871 0.421078 0
M  V30 7253 C 679.395 -2.27334 -0.398508 0
M  V30 7254 C 680.365 -1.30241 -1.03085 0
M  V30 7255 O 681.55 -1.59121 -1.05285 0
M  V30 7256 C 678.69 -3.10664 -1.50272 0
M  V30 7257 C 677.803 -4.2273 -0.890122 0
M  V30 7258 C 676.938 -4.93399 -1.96803 0
M  V30 7259 C 675.977 -5.97409 -1.333 0
M  V30 7260 N 675.114 -6.61548 -2.35156 0
M  V30 7261 H 679.954 -2.96938 0.251411 0
M  V30 7262 H 677.491 -1.46472 0.135825 0
M  V30 7263 H 679.449 -3.57292 -2.15403 0
M  V30 7264 H 678.079 -2.43207 -2.1225 0
M  V30 7265 H 677.131 -3.80186 -0.127537 0
M  V30 7266 H 678.443 -4.97302 -0.386349 0
M  V30 7267 H 677.597 -5.43491 -2.69633 0
M  V30 7268 H 676.336 -4.18421 -2.50549 0
M  V30 7269 H 675.341 -5.46624 -0.59008 0
M  V30 7270 H 676.566 -6.74335 -0.803076 0
M  V30 7271 H 674.512 -5.89394 -2.88012 0
M  V30 7272 H 674.429 -7.31832 -1.89624 0
M  V30 7273 H 675.697 -7.16276 -3.0752 0
M  V30 7274 N 679.926 -0.151884 -1.56866 0
M  V30 7275 C 681.174 0.497021 -1.95893 0
M  V30 7276 C 681.495 1.65078 -1.03799 0
M  V30 7277 O 680.765 1.95642 -0.10049 0
M  V30 7278 H 679.345 0.186603 -0.723318 0
M  V30 7279 H 682.007 -0.228525 -1.93556 0
M  V30 7280 H 681.103 0.869933 -2.99731 0
M  V30 7281 N 681.404 1.57128 0.121893 0
M  V30 7282 C 682.65 1.84974 0.831418 0
M  V30 7283 C 682.983 0.737204 1.79663 0
M  V30 7284 O 682.258 -0.257199 1.92792 0
M  V30 7285 C 682.541 3.23397 1.58386 0
M  V30 7286 C 682.394 4.45246 0.638445 0
M  V30 7287 C 683.713 3.59355 2.54071 0
M  V30 7288 H 680.832 0.67282 0.300803 0
M  V30 7289 H 683.474 1.89759 0.0957587 0
M  V30 7290 H 681.624 3.19449 2.21098 0
M  V30 7291 H 683.296 4.61295 0.0203925 0
M  V30 7292 H 681.539 4.33771 -0.05023 0
M  V30 7293 H 682.21 5.38765 1.20151 0
M  V30 7294 H 684.686 3.64075 2.01465 0
M  V30 7295 H 683.562 4.57193 3.03752 0
M  V30 7296 H 683.823 2.86622 3.36601 0
M  V30 7297 N 682.882 -0.391992 1.52647 0
M  V30 7298 C 684.128 -1.139 1.67793 0
M  V30 7299 C 684.461 -1.89711 0.41514 0
M  V30 7300 O 683.736 -1.85431 -0.586979 0
M  V30 7301 C 684.019 -2.11966 2.91105 0
M  V30 7302 C 683.872 -1.39939 4.27478 0
M  V30 7303 C 685.191 -3.1243 3.09961 0
M  V30 7304 H 682.31 -0.412707 0.610608 0
M  V30 7305 H 684.952 -0.422725 1.85238 0
M  V30 7306 H 683.102 -2.73048 2.76364 0
M  V30 7307 H 684.774 -0.818439 4.53982 0
M  V30 7308 H 683.017 -0.701246 4.28095 0
M  V30 7309 H 683.688 -2.1158 5.09841 0
M  V30 7310 H 686.164 -2.61435 3.23714 0
M  V30 7311 H 685.04 -3.78294 3.97725 0
M  V30 7312 H 685.301 -3.81127 2.24042 0
M  V30 7313 N 684.36 -1.4356 -0.65026 0
M  V30 7314 C 685.29 -1.51758 -1.77459 0
M  V30 7315 C 686.271 -0.372019 -1.65982 0
M  V30 7316 O 687.456 -0.589627 -1.85033 0
M  V30 7317 C 684.586 -1.44302 -3.15902 0
M  V30 7318 C 683.54 -2.57138 -3.42146 0
M  V30 7319 C 682.866 -2.34735 -4.8042 0
M  V30 7320 C 684.166 -3.99373 -3.36598 0
M  V30 7321 H 685.86 -2.45863 -1.70855 0
M  V30 7322 H 683.406 -1.18333 -0.820566 0
M  V30 7323 H 685.359 -1.48641 -3.94314 0
M  V30 7324 H 684.083 -0.467026 -3.23244 0
M  V30 7325 H 682.742 -2.52157 -2.66106 0
M  V30 7326 H 682.39 -1.35372 -4.84441 0
M  V30 7327 H 682.09 -3.10375 -4.9894 0
M  V30 7328 H 683.614 -2.40862 -5.61086 0
M  V30 7329 H 685.028 -4.05826 -4.04942 0
M  V30 7330 H 683.425 -4.75063 -3.66654 0
M  V30 7331 H 684.495 -4.243 -2.34729 0
M  V30 7332 N 685.838 0.888903 -1.30139 0
M  V30 7333 C 687.086 1.63713 -1.18501 0
M  V30 7334 C 687.407 1.9324 0.261399 0
M  V30 7335 O 686.677 1.56608 1.17689 0
M  V30 7336 H 685.257 0.606861 -0.435579 0
M  V30 7337 H 687.919 1.06525 -1.63213 0
M  V30 7338 H 687.015 2.58894 -1.743 0
M  V30 7339 N 687.317 1.12792 1.10072 0
M  V30 7340 C 688.565 0.883796 1.81751 0
M  V30 7341 C 688.886 -0.591891 1.858 0
M  V30 7342 O 688.156 -1.43017 1.33876 0
M  V30 7343 H 686.736 0.323978 0.673088 0
M  V30 7344 H 689.398 1.42314 1.33164 0
M  V30 7345 H 688.494 1.26863 2.85153 0
M  V30 7346 N 688.795 -1.27931 0.920396 0
M  V30 7347 C 690.035 -1.96459 0.564198 0
M  V30 7348 C 690.399 -1.70802 -0.876967 0
M  V30 7349 O 691.6 -2.32956 -1.34107 0
M  V30 7350 C 689.871 -3.46583 0.872641 0
M  V30 7351 S 691.43 -4.34343 0.623859 0
M  V30 7352 H 688.248 -0.679735 0.208523 0
M  V30 7353 H 690.85 -1.55319 1.18727 0
M  V30 7354 H 689.554 -3.62753 1.91933 0
M  V30 7355 H 689.085 -3.92677 0.238479 0
M  V30 7356 H 691.1 -4.93449 -0.521744 0
M  V30 7357 N 690.273 -0.685099 -1.4193 0
M  V30 7358 C 691.521 -0.21124 -2.00993 0
M  V30 7359 C 691.842 1.18985 -1.54491 0
M  V30 7360 O 691.112 1.8009 -0.771 0
M  V30 7361 H 689.692 -0.0751059 -0.743215 0
M  V30 7362 H 692.354 -0.883915 -1.73704 0
M  V30 7363 H 691.45 -0.220513 -3.1132 0
M  V30 7364 N 691.751 1.51645 -0.429126 0
M  V30 7365 C 693.028 1.94579 0.199614 0
M  V30 7366 C 693.408 1.3673 1.60836 0
M  V30 7367 O 692.756 0.551062 2.21756 0
M  V30 7368 C 692.966 3.48506 0.185685 0
M  V30 7369 C 694.314 4.22756 0.395282 0
M  V30 7370 O 695.338 3.55219 0.264165 0
M  V30 7371 O 694.197 5.42555 0.655475 0
M  V30 7372 H 691.291 0.816007 0.134393 0
M  V30 7373 H 693.837 1.62577 -0.486513 0
M  V30 7374 H 692.609 3.83045 -0.799508 0
M  V30 7375 H 692.232 3.86927 0.91507 0
M  V30 7376 N 693.229 0.160201 1.56784 0
M  V30 7377 C 694.176 -0.774416 2.1742 0
M  V30 7378 C 695.146 -1.23483 1.11091 0
M  V30 7379 O 696.331 -1.30499 1.39193 0
M  V30 7380 C 693.471 -2.00283 2.81035 0
M  V30 7381 C 692.584 -1.58701 4.01793 0
M  V30 7382 C 691.719 -2.76824 4.53367 0
M  V30 7383 C 690.758 -2.31679 5.66561 0
M  V30 7384 N 689.895 -3.42856 6.12694 0
M  V30 7385 H 694.735 -0.250542 2.96945 0
M  V30 7386 H 692.272 -0.111943 1.46673 0
M  V30 7387 H 694.23 -2.72316 3.16069 0
M  V30 7388 H 692.86 -2.5006 2.04132 0
M  V30 7389 H 691.912 -0.76384 3.72652 0
M  V30 7390 H 693.224 -1.21555 4.83762 0
M  V30 7391 H 692.378 -3.57029 4.90525 0
M  V30 7392 H 691.117 -3.17223 3.70433 0
M  V30 7393 H 690.122 -1.49917 5.28966 0
M  V30 7394 H 691.347 -1.9235 6.5129 0
M  V30 7395 H 689.293 -3.82852 5.32692 0
M  V30 7396 H 689.21 -3.09767 6.89624 0
M  V30 7397 H 690.478 -4.23379 6.545 0
M  V30 7398 N 694.707 -1.5719 -0.113559 0
M  V30 7399 C 695.932 -1.89702 -0.838336 0
M  V30 7400 C 696.357 -0.752679 -1.72384 0
M  V30 7401 O 695.715 0.296575 -1.78858 0
M  V30 7402 C 695.763 -3.20989 -1.64312 0
M  V30 7403 O 694.867 -3.07278 -2.75053 0
M  V30 7404 H 694.208 -0.622339 -0.231496 0
M  V30 7405 H 696.738 -2.04382 -0.0943228 0
M  V30 7406 H 696.748 -3.53843 -2.03123 0
M  V30 7407 H 695.423 -4.03869 -0.993119 0
M  V30 7408 H 694 -2.85901 -2.39406 0
M  V30 7409 N 696.185 0.383891 -1.52853 0
M  V30 7410 C 697.434 1.12563 -1.67369 0
M  V30 7411 C 697.747 1.90982 -0.422533 0
M  V30 7412 O 698.953 2.6778 -0.447914 0
M  V30 7413 C 697.409 2.05011 -2.95801 0
M  V30 7414 C 697.017 1.31991 -4.28115 0
M  V30 7415 C 698.761 2.79289 -3.19684 0
M  V30 7416 C 696.668 2.23235 -5.4765 0
M  V30 7417 H 695.598 0.42391 -0.623552 0
M  V30 7418 H 698.249 0.388016 -1.79351 0
M  V30 7419 H 696.631 2.82429 -2.77578 0
M  V30 7420 H 697.805 0.597633 -4.56908 0
M  V30 7421 H 696.12 0.696517 -4.10533 0
M  V30 7422 H 698.717 3.47749 -4.06171 0
M  V30 7423 H 699.06 3.43649 -2.3497 0
M  V30 7424 H 699.593 2.08962 -3.38496 0
M  V30 7425 H 696.332 1.63482 -6.34786 0
M  V30 7426 H 695.852 2.93364 -5.23161 0
M  V30 7427 H 697.531 2.83205 -5.81725 0
M  V30 7428 N 697.663 1.43903 0.642637 0
M  V30 7429 C 699.079 1.27536 0.959519 0
M  V30 7430 C 699.279 0.202751 2.00477 0
M  V30 7431 O 698.335 -0.415256 2.49062 0
M  V30 7432 C 699.648 2.6432 1.43372 0
M  V30 7433 C 701.196 2.71937 1.54981 0
M  V30 7434 C 701.671 4.09164 2.05789 0
M  V30 7435 N 703.162 4.11282 2.13076 0
M  V30 7436 C 703.897 5.14303 2.53534 0
M  V30 7437 N 703.393 6.27693 2.93212 0
M  V30 7438 N 705.186 5.01657 2.53567 0
M  V30 7439 H 697.337 2.12344 -0.0488376 0
M  V30 7440 H 699.6 0.947124 0.0407559 0
M  V30 7441 H 699.306 3.43826 0.740048 0
M  V30 7442 H 699.18 2.90432 2.40685 0
M  V30 7443 H 701.567 1.92757 2.23448 0
M  V30 7444 H 701.648 2.49578 0.560739 0
M  V30 7445 H 701.292 4.88815 1.37921 0
M  V30 7446 H 701.222 4.28893 3.05546 0
M  V30 7447 H 703.713 3.2944 1.85143 0
M  V30 7448 H 704.026 7.02125 3.22863 0
M  V30 7449 H 702.371 6.31149 2.90991 0
M  V30 7450 H 705.562 4.12134 2.21952 0
M  V30 7451 H 705.735 5.82072 2.84774 0
M  V30 7452 N 699.141 -0.881989 1.30609 0
M  V30 7453 C 700.388 -1.63405 1.19604 0
M  V30 7454 C 700.716 -1.92905 -0.248574 0
M  V30 7455 O 699.971 -1.55062 -1.19391 0
M  V30 7456 C 700.27 -2.97999 1.97311 0
M  V30 7457 C 699.936 -2.88039 3.46907 0
M  V30 7458 C 698.598 -2.85029 3.877 0
M  V30 7459 C 700.95 -2.75948 4.42156 0
M  V30 7460 C 698.278 -2.67772 5.2203 0
M  V30 7461 C 700.63 -2.60228 5.76597 0
M  V30 7462 C 699.294 -2.55595 6.16626 0
M  V30 7463 H 698.564 -0.597941 0.437662 0
M  V30 7464 H 701.211 -1.02524 1.61744 0
M  V30 7465 H 699.516 -3.62847 1.47815 0
M  V30 7466 H 701.213 -3.55156 1.86186 0
M  V30 7467 H 697.803 -2.91192 3.14492 0
M  V30 7468 H 701.987 -2.77337 4.1158 0
M  V30 7469 H 697.243 -2.62601 5.52133 0
M  V30 7470 H 701.417 -2.49847 6.50038 0
M  V30 7471 H 699.044 -2.41981 7.20659 0
M  V30 7472 N 700.619 -1.13374 -1.09472 0
M  V30 7473 C 702.035 -0.871846 -1.33682 0
M  V30 7474 C 702.235 0.492847 -1.9538 0
M  V30 7475 O 701.291 1.23946 -2.19985 0
M  V30 7476 C 702.604 -1.99608 -2.24893 0
M  V30 7477 C 704.152 -2.02812 -2.38404 0
M  V30 7478 C 704.627 -3.14497 -3.3295 0
M  V30 7479 N 706.118 -3.14004 -3.40523 0
M  V30 7480 C 706.853 -3.97061 -4.13679 0
M  V30 7481 N 706.349 -4.90131 -4.89636 0
M  V30 7482 N 708.142 -3.85162 -4.09398 0
M  V30 7483 H 700.293 -2.01288 -0.677995 0
M  V30 7484 H 702.556 -0.876492 -0.361201 0
M  V30 7485 H 702.262 -2.98 -1.86786 0
M  V30 7486 H 702.136 -1.90981 -3.25278 0
M  V30 7487 H 704.523 -1.05034 -2.75775 0
M  V30 7488 H 704.604 -2.15511 -1.37799 0
M  V30 7489 H 704.248 -4.12514 -2.96302 0
M  V30 7490 H 704.178 -2.99035 -4.33458 0
M  V30 7491 H 706.669 -2.46587 -2.86362 0
M  V30 7492 H 706.982 -5.49996 -5.42885 0
M  V30 7493 H 705.327 -4.94138 -4.88726 0
M  V30 7494 H 708.518 -3.11779 -3.49158 0
M  V30 7495 H 708.691 -4.5012 -4.6615 0
M  V30 7496 N 702.098 1.27442 -0.927168 0
M  V30 7497 C 703.509 1.76385 -0.611979 0
M  V30 7498 C 703.86 1.75715 0.872853 0
M  V30 7499 O 702.985 1.3603 1.683 0
M  V30 7500 C 703.58 3.20303 -1.10414 0
M  V30 7501 C 702.139 3.66916 -0.839628 0
M  V30 7502 C 701.286 2.46859 -1.26317 0
M  V30 7503 H 704.237 1.13716 -1.107 0
M  V30 7504 H 704.258 3.77811 -0.451578 0
M  V30 7505 H 703.77 3.20759 -2.18484 0
M  V30 7506 H 701.871 3.71906 0.227292 0
M  V30 7507 H 701.984 4.56415 -1.45679 0
M  V30 7508 H 700.348 2.45407 -0.681723 0
M  V30 7509 H 701.131 2.50025 -2.3525 0
M  V30 7510 N 703.576 0.692616 1.41565 0
M  V30 7511 C 704.804 0.231279 2.05603 0
M  V30 7512 C 705.219 -1.11837 1.52111 0
M  V30 7513 O 704.576 -1.6983 0.66813 0
M  V30 7514 C 704.627 0.177125 3.61066 0
M  V30 7515 O 704.348 1.47346 4.12578 0
M  V30 7516 C 705.849 -0.30556 4.42246 0
M  V30 7517 H 703.069 0.108238 0.662213 0
M  V30 7518 H 705.613 0.944369 1.81389 0
M  V30 7519 H 703.768 -0.486769 3.8433 0
M  V30 7520 H 704.182 1.35861 5.06599 0
M  V30 7521 H 705.656 -0.29233 5.51225 0
M  V30 7522 H 706.133 -1.34393 4.18133 0
M  V30 7523 H 706.739 0.327229 4.24039 0
M  V30 7524 N 705.054 -1.51416 0.437162 0
M  V30 7525 C 705.984 -2.30631 -0.364922 0
M  V30 7526 C 706.965 -1.36037 -1.02118 0
M  V30 7527 O 708.15 -1.64956 -1.02485 0
M  V30 7528 C 705.28 -3.1482 -1.46648 0
M  V30 7529 C 704.234 -4.17691 -0.933717 0
M  V30 7530 C 703.56 -4.904 -2.13101 0
M  V30 7531 C 704.86 -5.2229 0.0317201 0
M  V30 7532 H 706.554 -2.97932 0.29614 0
M  V30 7533 H 704.1 -1.4328 0.143865 0
M  V30 7534 H 706.053 -3.69017 -2.03481 0
M  V30 7535 H 704.777 -2.4534 -2.15583 0
M  V30 7536 H 703.436 -3.64545 -0.387602 0
M  V30 7537 H 703.084 -4.17423 -2.80654 0
M  V30 7538 H 702.784 -5.59962 -1.78092 0
M  V30 7539 H 704.308 -5.4742 -2.70487 0
M  V30 7540 H 705.722 -5.7156 -0.446302 0
M  V30 7541 H 704.119 -5.99378 0.29437 0
M  V30 7542 H 705.189 -4.75131 0.968447 0
M  V30 7543 N 706.532 -0.168513 -1.56696 0
M  V30 7544 C 707.778 0.477865 -1.9709 0
M  V30 7545 C 708.111 1.63084 -1.05438 0
M  V30 7546 O 707.386 1.94238 -0.10095 0
M  V30 7547 C 707.669 0.963521 -3.4697 0
M  V30 7548 C 707.522 -0.189443 -4.49401 0
M  V30 7549 C 708.841 1.83813 -3.99876 0
M  V30 7550 H 705.96 0.172229 -0.716593 0
M  V30 7551 H 708.602 -0.254083 -1.88293 0
M  V30 7552 H 706.752 1.58724 -3.54597 0
M  V30 7553 H 708.424 -0.826451 -4.53836 0
M  V30 7554 H 706.667 -0.845366 -4.25483 0
M  V30 7555 H 707.338 0.192446 -5.51664 0
M  V30 7556 H 709.814 1.31235 -3.94863 0
M  V30 7557 H 708.69 2.14697 -5.0517 0
M  V30 7558 H 708.951 2.78289 -3.43523 0
M  V30 7559 N 708.01 1.57248 0.105221 0
M  V30 7560 C 709.257 1.8557 0.810552 0
M  V30 7561 C 709.585 0.755595 1.79223 0
M  V30 7562 O 708.84 -0.251788 1.94073 0
M  V30 7563 C 709.139 3.20437 1.58287 0
M  V30 7564 C 708.805 4.44716 0.744235 0
M  V30 7565 C 707.467 4.78458 0.513013 0
M  V30 7566 C 709.819 5.20953 0.160578 0
M  V30 7567 C 707.147 5.8587 -0.311894 0
M  V30 7568 C 709.499 6.29235 -0.651596 0
M  V30 7569 C 708.163 6.615 -0.893005 0
M  V30 7570 H 707.433 0.67905 0.296602 0
M  V30 7571 H 710.08 1.91363 0.0723968 0
M  V30 7572 H 708.385 3.10283 2.39232 0
M  V30 7573 H 710.082 3.39576 2.13282 0
M  V30 7574 H 706.672 4.18287 0.934555 0
M  V30 7575 H 710.856 4.95226 0.3264 0
M  V30 7576 H 706.112 6.09286 -0.508012 0
M  V30 7577 H 710.286 6.87484 -1.11077 0
M  V30 7578 H 707.913 7.44562 -1.53401 0
M  V30 7579 N 709.488 -0.375779 1.53054 0
M  V30 7580 C 710.904 -0.716764 1.426 0
M  V30 7581 C 711.104 -1.93651 0.556931 0
M  V30 7582 O 710.16 -2.52475 0.0354461 0
M  V30 7583 C 711.473 -0.939499 2.85646 0
M  V30 7584 C 713.021 -1.04015 2.95212 0
M  V30 7585 C 713.496 -1.29543 4.39298 0
M  V30 7586 N 714.987 -1.36335 4.42682 0
M  V30 7587 C 715.722 -1.57778 5.51266 0
M  V30 7588 N 715.218 -1.76604 6.69913 0
M  V30 7589 N 717.011 -1.60065 5.38828 0
M  V30 7590 H 709.162 0.42664 2.08071 0
M  V30 7591 H 711.425 0.128758 0.939215 0
M  V30 7592 H 711.131 -0.115189 3.51511 0
M  V30 7593 H 711.005 -1.85048 3.2869 0
M  V30 7594 H 713.392 -1.85501 2.29507 0
M  V30 7595 H 713.473 -0.106785 2.55577 0
M  V30 7596 H 713.117 -0.485611 5.05573 0
M  V30 7597 H 713.047 -2.24184 4.76497 0
M  V30 7598 H 715.538 -1.23441 3.5717 0
M  V30 7599 H 715.851 -1.9251 7.48438 0
M  V30 7600 H 714.196 -1.73802 6.72917 0
M  V30 7601 H 717.387 -1.44917 4.45103 0
M  V30 7602 H 717.56 -1.76435 6.23518 0
M  V30 7603 N 710.966 -1.44241 -0.634997 0
M  V30 7604 C 712.243 -1.37296 -1.39317 0
M  V30 7605 C 712.623 -0.0297532 -2.11079 0
M  V30 7606 O 711.971 0.987524 -2.06059 0
M  V30 7607 C 712.181 -2.56853 -2.36279 0
M  V30 7608 C 713.529 -3.00747 -2.99728 0
M  V30 7609 O 714.553 -2.5703 -2.46605 0
M  V30 7610 O 713.412 -3.76533 -3.96087 0
M  V30 7611 H 710.506 -0.543503 -0.623325 0
M  V30 7612 H 713.052 -1.56324 -0.660376 0
M  V30 7613 H 711.824 -3.46228 -1.82324 0
M  V30 7614 H 711.447 -2.40019 -3.16981 0
M  V30 7615 N 712.444 0.87505 -1.31075 0
M  V30 7616 C 713.394 1.96933 -1.14898 0
M  V30 7617 C 714.378 1.60783 -0.0613703 0
M  V30 7618 O 715.57 1.74678 -0.285751 0
M  V30 7619 C 712.699 3.3253 -0.853166 0
M  V30 7620 C 711.785 3.74963 -1.98151 0
M  V30 7621 N 712.176 3.89403 -3.22799 0
M  V30 7622 C 710.474 4.04436 -1.8801 0
M  V30 7623 C 711.175 4.25563 -3.96574 0
M  V30 7624 N 710.151 4.3597 -3.24701 0
M  V30 7625 H 713.953 2.06201 -2.09424 0
M  V30 7626 H 711.467 1.06551 -1.22558 0
M  V30 7627 H 713.464 4.10666 -0.718266 0
M  V30 7628 H 712.124 3.24592 0.0839218 0
M  V30 7629 H 713.135 3.74266 -3.57974 0
M  V30 7630 H 709.812 4.04915 -1.01733 0
M  V30 7631 H 711.202 4.44375 -5.03965 0
M  V30 7632 N 713.922 1.13953 1.08869 0
M  V30 7633 C 714.872 0.790812 2.13846 0
M  V30 7634 C 715.856 -0.217819 1.59419 0
M  V30 7635 O 717.048 -0.0208723 1.76988 0
M  V30 7636 C 714.177 0.26479 3.42277 0
M  V30 7637 C 713.263 1.30267 4.03598 0
M  V30 7638 N 713.654 2.50535 4.39393 0
M  V30 7639 C 711.952 1.15178 4.30871 0
M  V30 7640 C 712.653 3.16938 4.87776 0
M  V30 7641 N 711.629 2.44349 4.85587 0
M  V30 7642 H 715.431 1.70577 2.39334 0
M  V30 7643 H 712.945 1.02268 1.26154 0
M  V30 7644 H 714.942 -0.00330398 4.169 0
M  V30 7645 H 713.602 -0.644419 3.18241 0
M  V30 7646 H 714.613 2.87798 4.30572 0
M  V30 7647 H 711.29 0.301204 4.16412 0
M  V30 7648 H 712.68 4.19453 5.2489 0
M  V30 7649 N 715.4 -1.26948 0.933913 0
M  V30 7650 C 716.363 -2.24889 0.442457 0
M  V30 7651 C 717.363 -1.54594 -0.442426 0
M  V30 7652 O 718.553 -1.72502 -0.242629 0
M  V30 7653 C 715.685 -3.3896 -0.363173 0
M  V30 7654 H 716.878 -2.69879 1.30787 0
M  V30 7655 H 714.431 -1.38978 0.715187 0
M  V30 7656 H 715.166 -2.99361 -1.24714 0
M  V30 7657 H 714.951 -3.9116 0.271366 0
M  V30 7658 H 716.441 -4.11739 -0.697186 0
M  V30 7659 N 716.879 -0.700114 -1.41195 0
M  V30 7660 C 717.829 -0.0144098 -2.27995 0
M  V30 7661 C 718.813 0.748249 -1.42443 0
M  V30 7662 O 720.005 0.622995 -1.65674 0
M  V30 7663 C 717.134 0.917938 -3.308 0
M  V30 7664 C 716.22 0.151286 -4.2383 0
M  V30 7665 N 716.611 -0.85732 -4.98481 0
M  V30 7666 C 714.909 0.386108 -4.44326 0
M  V30 7667 C 715.61 -1.31663 -5.66604 0
M  V30 7668 N 714.586 -0.641689 -5.39799 0
M  V30 7669 H 718.388 -0.787662 -2.83149 0
M  V30 7670 H 715.902 -0.531344 -1.53462 0
M  V30 7671 H 717.899 1.42437 -3.91813 0
M  V30 7672 H 716.559 1.69074 -2.77208 0
M  V30 7673 H 717.57 -1.2377 -5.02893 0
M  V30 7674 H 714.247 1.13644 -4.01735 0
M  V30 7675 H 715.637 -2.15384 -6.36443 0
M  V30 7676 N 718.357 1.51182 -0.445186 0
M  V30 7677 C 719.287 2.30821 0.352686 0
M  V30 7678 C 720.268 1.36576 1.01395 0
M  V30 7679 O 721.453 1.65497 1.01609 0
M  V30 7680 C 718.583 3.15593 1.44976 0
M  V30 7681 C 717.537 4.1818 0.911553 0
M  V30 7682 C 716.863 4.91523 2.10497 0
M  V30 7683 C 718.163 5.22266 -0.059418 0
M  V30 7684 H 719.857 2.97771 -0.311936 0
M  V30 7685 H 717.403 1.43201 -0.151461 0
M  V30 7686 H 719.356 3.70091 2.01521 0
M  V30 7687 H 718.08 2.4648 2.14278 0
M  V30 7688 H 716.739 3.64746 0.368264 0
M  V30 7689 H 716.387 4.18906 2.78437 0
M  V30 7690 H 716.087 5.60898 1.7512 0
M  V30 7691 H 717.611 5.48847 2.6758 0
M  V30 7692 H 719.025 5.71789 0.415985 0
M  V30 7693 H 717.422 5.99213 -0.326152 0
M  V30 7694 H 718.492 4.7461 -0.993631 0
M  V30 7695 N 719.835 0.176821 1.56605 0
M  V30 7696 C 721.082 -0.466715 1.97048 0
M  V30 7697 C 721.41 -1.6288 1.06302 0
M  V30 7698 O 720.665 -1.95453 0.0982571 0
M  V30 7699 C 720.964 -0.986208 3.43524 0
M  V30 7700 C 720.63 0.0605667 4.50859 0
M  V30 7701 C 719.292 0.348242 4.79938 0
M  V30 7702 C 721.644 0.770794 5.15469 0
M  V30 7703 C 718.972 1.35144 5.70923 0
M  V30 7704 C 721.324 1.76301 6.07537 0
M  V30 7705 C 719.988 2.05808 6.3498 0
M  V30 7706 H 719.258 -0.170783 0.721051 0
M  V30 7707 H 721.905 0.269942 1.89588 0
M  V30 7708 H 720.21 -1.80079 3.47964 0
M  V30 7709 H 721.907 -1.49323 3.72161 0
M  V30 7710 H 718.497 -0.173823 4.28247 0
M  V30 7711 H 722.681 0.56176 4.9311 0
M  V30 7712 H 717.937 1.58616 5.90467 0
M  V30 7713 H 722.111 2.31868 6.56666 0
M  V30 7714 H 719.738 2.8369 7.05283 0
M  V30 7715 N 721.313 -1.57302 -0.09688 0
M  V30 7716 C 722.243 -2.0497 -1.11846 0
M  V30 7717 C 723.224 -0.938278 -1.41882 0
M  V30 7718 O 724.409 -1.20943 -1.51942 0
M  V30 7719 C 721.539 -2.47264 -2.43881 0
M  V30 7720 C 720.493 -3.62053 -2.28257 0
M  V30 7721 C 719.819 -3.90318 -3.65453 0
M  V30 7722 C 721.119 -4.93005 -1.72461 0
M  V30 7723 H 722.813 -2.90567 -0.721888 0
M  V30 7724 H 720.359 -1.39786 -0.345803 0
M  V30 7725 H 722.312 -2.7922 -3.15617 0
M  V30 7726 H 721.036 -1.58664 -2.8547 0
M  V30 7727 H 719.695 -3.30341 -1.58967 0
M  V30 7728 H 719.343 -2.98889 -4.04567 0
M  V30 7729 H 719.043 -4.67597 -3.55846 0
M  V30 7730 H 720.567 -4.24747 -4.3866 0
M  V30 7731 H 721.981 -5.23354 -2.34036 0
M  V30 7732 H 720.378 -5.74436 -1.73618 0
M  V30 7733 H 721.448 -4.80053 -0.683898 0
M  V30 7734 N 722.791 0.367657 -1.53252 0
M  V30 7735 C 723.739 1.47061 -1.8021 0
M  V30 7736 C 724.733 1.55539 -0.671112 0
M  V30 7737 O 725.939 1.58451 -0.854014 0
M  V30 7738 H 722.314 0.489868 -0.570555 0
M  V30 7739 H 724.285 1.21527 -2.72532 0
M  V30 7740 C 723.034 2.83924 -2.00706 0
M  V30 7741 H 722.357 2.78158 -2.87172 0
M  V30 7742 H 723.797 3.60281 -2.23547 0
M  V30 7743 C 722.256 3.27613 -0.785568 0
M  V30 7744 O 722.786 4.01691 0.0267459 0
M  V30 7745 N 720.992 2.84134 -0.609597 0
M  V30 7746 H 720.539 2.24017 -1.27178 0
M  V30 7747 H 720.497 3.13723 0.206281 0
M  V30 7748 N 724.269 1.44576 0.627338 0
M  V30 7749 C 725.518 1.46837 1.38281 0
M  V30 7750 C 725.831 0.10635 1.95311 0
M  V30 7751 O 727.037 0.00651084 2.71499 0
M  V30 7752 C 725.493 2.58527 2.50384 0
M  V30 7753 C 725.101 4.00953 1.99851 0
M  V30 7754 C 726.845 2.70013 3.27557 0
M  V30 7755 C 724.752 5.0406 3.09318 0
M  V30 7756 H 723.682 0.546319 0.519664 0
M  V30 7757 H 726.333 1.70654 0.674497 0
M  V30 7758 H 724.715 2.27957 3.23808 0
M  V30 7759 H 725.889 4.41108 1.33267 0
M  V30 7760 H 724.204 3.93743 1.35482 0
M  V30 7761 H 726.801 3.44217 4.09168 0
M  V30 7762 H 727.144 1.75961 3.77284 0
M  V30 7763 H 727.677 3.00011 2.61224 0
M  V30 7764 H 724.416 5.99753 2.6453 0
M  V30 7765 H 723.936 4.68493 3.74532 0
M  V30 7766 H 725.615 5.2793 3.74031 0
M  V30 7767 N 725.747 -0.868086 1.31537 0
M  V30 7768 C 726.994 -1.62127 1.2133 0
M  V30 7769 C 727.322 -1.93158 -0.2281 0
M  V30 7770 O 726.577 -1.5632 -1.1774 0
M  V30 7771 C 726.876 -2.95889 2.0046 0
M  V30 7772 C 726.542 -2.84343 3.49943 0
M  V30 7773 C 725.204 -2.80901 3.90702 0
M  V30 7774 C 727.556 -2.71243 4.45058 0
M  V30 7775 C 724.884 -2.6222 5.24841 0
M  V30 7776 C 727.236 -2.54098 5.79325 0
M  V30 7777 C 725.9 -2.4904 6.19302 0
M  V30 7778 H 725.17 -0.593265 0.443979 0
M  V30 7779 H 727.817 -1.00803 1.62822 0
M  V30 7780 H 726.122 -3.61259 1.51655 0
M  V30 7781 H 727.819 -3.53161 1.89942 0
M  V30 7782 H 724.409 -2.8784 3.17563 0
M  V30 7783 H 728.593 -2.72956 4.14498 0
M  V30 7784 H 723.849 -2.56731 5.54887 0
M  V30 7785 H 728.023 -2.42938 6.52652 0
M  V30 7786 H 725.65 -2.34324 7.23185 0
M  V30 7787 N 727.225 -1.14528 -1.08264 0
M  V30 7788 C 728.45 -0.938381 -1.84957 0
M  V30 7789 C 728.875 0.508044 -1.81109 0
M  V30 7790 O 728.233 1.36146 -1.19724 0
M  V30 7791 C 728.281 -1.44568 -3.30352 0
M  V30 7792 O 727.385 -0.638745 -4.07423 0
M  V30 7793 H 726.726 -0.335394 -0.573068 0
M  V30 7794 H 729.256 -1.52287 -1.36637 0
M  V30 7795 H 729.266 -1.45449 -3.81194 0
M  V30 7796 H 727.941 -2.49876 -3.32468 0
M  V30 7797 H 726.518 -0.698801 -3.66294 0
M  V30 7798 N 728.703 1.26451 -0.940633 0
M  V30 7799 C 729.98 1.88947 -0.505811 0
M  V30 7800 C 730.36 1.85011 1.01657 0
M  V30 7801 O 729.708 1.30406 1.87634 0
M  V30 7802 C 729.918 3.32304 -1.06654 0
M  V30 7803 C 731.266 4.09153 -1.13486 0
M  V30 7804 O 732.29 3.41371 -1.01708 0
M  V30 7805 O 731.149 5.30369 -1.31797 0
M  V30 7806 H 728.243 0.810422 -0.164759 0
M  V30 7807 H 730.789 1.34625 -1.03316 0
M  V30 7808 H 729.561 3.29527 -2.11015 0
M  V30 7809 H 729.184 3.94164 -0.521603 0
M  V30 7810 N 730.181 0.707592 1.40822 0
M  V30 7811 C 731.43 0.240705 2.00259 0
M  V30 7812 C 731.743 -1.17027 1.56729 0
M  V30 7813 O 732.949 -1.73526 2.08809 0
M  V30 7814 C 731.405 0.379432 3.57894 0
M  V30 7815 C 731.013 1.79654 4.104 0
M  V30 7816 C 732.757 -0.0270684 4.24491 0
M  V30 7817 C 730.664 1.88628 5.60512 0
M  V30 7818 H 729.594 0.0862369 0.749052 0
M  V30 7819 H 732.245 0.877528 1.61157 0
M  V30 7820 H 730.627 -0.325842 3.94657 0
M  V30 7821 H 731.801 2.53155 3.85032 0
M  V30 7822 H 730.116 2.15379 3.56372 0
M  V30 7823 H 732.713 0.0193743 5.34696 0
M  V30 7824 H 733.056 -1.06772 4.02375 0
M  V30 7825 H 733.589 0.628361 3.92806 0
M  V30 7826 H 730.328 2.90787 5.87472 0
M  V30 7827 H 729.848 1.19528 5.8777 0
M  V30 7828 H 731.527 1.6547 6.25483 0
M  V30 7829 N 731.66 -1.50943 0.453197 0
M  V30 7830 C 732.59 -2.31005 -0.34044 0
M  V30 7831 C 733.571 -1.37112 -1.00669 0
M  V30 7832 O 734.756 -1.66033 -1.0073 0
M  V30 7833 C 731.886 -3.16358 -1.433 0
M  V30 7834 C 730.84 -4.18658 -0.889363 0
M  V30 7835 C 730.166 -4.92633 -2.07887 0
M  V30 7836 C 731.466 -5.22227 0.0871142 0
M  V30 7837 H 733.16 -2.97601 0.327723 0
M  V30 7838 H 730.706 -1.43119 0.159054 0
M  V30 7839 H 732.659 -3.71155 -1.99555 0
M  V30 7840 H 731.383 -2.47613 -2.12968 0
M  V30 7841 H 730.042 -3.64936 -0.348915 0
M  V30 7842 H 729.69 -4.20376 -2.76211 0
M  V30 7843 H 729.39 -5.61819 -1.72143 0
M  V30 7844 H 730.914 -5.50258 -2.64666 0
M  V30 7845 H 732.328 -5.72001 -0.385656 0
M  V30 7846 H 730.725 -5.99032 0.357926 0
M  V30 7847 H 731.795 -4.74077 1.01879 0
M  V30 7848 N 733.138 -0.185124 -1.56509 0
M  V30 7849 C 734.101 0.72591 -2.17401 0
M  V30 7850 C 735.101 1.14819 -1.12575 0
M  V30 7851 O 736.291 1.0629 -1.38015 0
M  V30 7852 C 733.423 1.98979 -2.76803 0
M  V30 7853 H 734.616 0.195588 -2.99262 0
M  V30 7854 H 732.169 0.0644772 -1.56167 0
M  V30 7855 H 732.904 2.56287 -1.98714 0
M  V30 7856 H 732.689 1.69583 -3.53531 0
M  V30 7857 H 734.179 2.63966 -3.23592 0
M  V30 7858 N 734.616 1.57351 0.0885366 0
M  V30 7859 C 735.893 1.77449 0.822873 0
M  V30 7860 C 736.273 0.768463 1.96616 0
M  V30 7861 O 735.621 -0.201757 2.27608 0
M  V30 7862 C 735.831 3.23425 1.31137 0
M  V30 7863 C 737.179 3.86791 1.75152 0
M  V30 7864 O 738.203 3.27215 1.40745 0
M  V30 7865 O 737.062 4.91568 2.38794 0
M  V30 7866 H 734.156 0.727653 0.393002 0
M  V30 7867 H 736.702 1.69556 0.0699095 0
M  V30 7868 H 735.474 3.88188 0.49254 0
M  V30 7869 H 735.097 3.35977 2.12615 0
M  V30 7870 N 736.094 -0.359525 1.53444 0
M  V30 7871 C 737.341 -1.10152 1.6992 0
M  V30 7872 C 737.669 -1.89125 0.4541 0
M  V30 7873 O 736.924 -1.87396 -0.564023 0
M  V30 7874 C 737.223 -2.08287 2.90433 0
M  V30 7875 C 736.889 -1.45749 4.26694 0
M  V30 7876 C 735.551 -1.28421 4.63747 0
M  V30 7877 C 737.903 -1.00557 5.11408 0
M  V30 7878 C 735.231 -0.644951 5.83144 0
M  V30 7879 C 737.583 -0.380288 6.31456 0
M  V30 7880 C 736.247 -0.194557 6.67216 0
M  V30 7881 H 735.517 -0.403076 0.621781 0
M  V30 7882 H 738.164 -0.382612 1.87639 0
M  V30 7883 H 736.469 -2.86503 2.67251 0
M  V30 7884 H 738.166 -2.65662 3.00374 0
M  V30 7885 H 734.756 -1.6023 3.97523 0
M  V30 7886 H 738.94 -1.12735 4.83326 0
M  V30 7887 H 734.196 -0.48952 6.09437 0
M  V30 7888 H 738.37 -0.0219455 6.96397 0
M  V30 7889 H 735.997 0.30285 7.59597 0
M  V30 7890 N 737.572 -1.44907 -0.619662 0
M  V30 7891 C 738.519 -1.52654 -1.73105 0
M  V30 7892 C 739.489 -0.373334 -1.6185 0
M  V30 7893 O 740.674 -0.585143 -1.81606 0
M  V30 7894 C 737.814 -1.48769 -3.11387 0
M  V30 7895 C 736.927 -2.74551 -3.33535 0
M  V30 7896 C 736.062 -2.62421 -4.61854 0
M  V30 7897 C 735.101 -3.83312 -4.77219 0
M  V30 7898 N 734.238 -3.69789 -5.96826 0
M  V30 7899 H 739.078 -2.47605 -1.65819 0
M  V30 7900 H 736.615 -1.22875 -0.808719 0
M  V30 7901 H 738.573 -1.44507 -3.91374 0
M  V30 7902 H 737.203 -0.573783 -3.1766 0
M  V30 7903 H 736.255 -2.88953 -2.47408 0
M  V30 7904 H 737.567 -3.64253 -3.40765 0
M  V30 7905 H 736.721 -2.56056 -5.50019 0
M  V30 7906 H 735.46 -1.70298 -4.57001 0
M  V30 7907 H 734.465 -3.90049 -3.87481 0
M  V30 7908 H 735.69 -4.76486 -4.83878 0
M  V30 7909 H 733.636 -2.80426 -5.93041 0
M  V30 7910 H 733.553 -4.53116 -6.05163 0
M  V30 7911 H 734.821 -3.67335 -6.87521 0
M  V30 7912 O 739.089 0.763334 -1.42322 0
M  V30 7913 H 739.78 1.41133 -1.3267 0
M  V30 END ATOM
M  V30 BEGIN BOND
M  V30 END BOND
M  V30 END CTAB
M  END
$$$$
