drugbank_target|O75390 Citrate synthase, mitochondrial (DB01969; DB01992; DB02637; DB03182; DB03499; DB04230; DB04272)
 OpenBabel12092120533D

  0  0  0     0  0            999 V3000
M  V30 BEGIN CTAB
M  V30 COUNTS 7287 7373 0 0 0
M  V30 BEGIN ATOM
M  V30 1 H -0.908 1.98254 -0.117106 0
M  V30 2 N 0 1.576 0 0
M  V30 3 C 0.933 2.03868 1.02534 0
M  V30 4 C 1.911 0.928543 1.3348 0
M  V30 5 O 3.095 1.19667 1.45644 0
M  V30 6 C 0.222 2.43627 2.35294 0
M  V30 7 C -0.732 3.65373 2.2001 0
M  V30 8 S 0.101 5.13292 1.52614 0
M  V30 9 C 1.257 5.56322 2.86805 0
M  V30 10 H 1.49 2.90518 0.631377 0
M  V30 11 H -0.977 1.52953 0.210867 0
M  V30 12 H 0.981 2.67203 3.11629 0
M  V30 13 H -0.358 1.57376 2.7183 0
M  V30 14 H -1.165 3.90944 3.18086 0
M  V30 15 H -1.563 3.418 1.51819 0
M  V30 16 H 0.729 5.58782 3.83104 0
M  V30 17 H 1.672 6.56266 2.65933 0
M  V30 18 H 2.08 4.83886 2.90714 0
M  V30 19 N 1.4781 -0.272755 1.55222 0
M  V30 20 C 2.4411 -1.32041 1.87344 0
M  V30 21 C 3.4411 -1.42342 0.74803 0
M  V30 22 O 4.6311 -1.41488 1.0162 0
M  V30 23 C 1.7631 -2.70173 2.07893 0
M  V30 24 H 2.9561 -1.04789 2.80997 0
M  V30 25 H 0.5091 -0.51083 1.47717 0
M  V30 26 H 1.2441 -3.02605 1.16622 0
M  V30 27 H 1.0291 -2.64082 2.89833 0
M  V30 28 H 2.5191 -3.45869 2.34017 0
M  V30 29 N 2.9562 -1.48159 -0.537278 0
M  V30 30 C 3.8862 -1.65029 -1.6519 0
M  V30 31 C 4.8672 -0.499281 -1.62607 0
M  V30 32 O 6.0522 -0.730972 -1.79918 0
M  V30 33 C 3.1822 -1.68303 -3.03795 0
M  V30 34 C 2.1362 -2.8283 -3.21234 0
M  V30 35 C 1.4622 -2.71189 -4.60826 0
M  V30 36 C 2.7622 -4.24211 -3.04701 0
M  V30 37 H 4.4562 -2.58341 -1.51328 0
M  V30 38 H 2.0022 -1.24325 -0.726585 0
M  V30 39 H 3.9552 -1.78693 -3.81637 0
M  V30 40 H 2.6792 -0.715635 -3.18663 0
M  V30 41 H 1.3382 -2.71983 -2.45807 0
M  V30 42 H 0.9862 -1.72435 -4.7252 0
M  V30 43 H 0.6862 -3.48035 -4.7344 0
M  V30 44 H 2.2102 -2.83537 -5.40777 0
M  V30 45 H 3.6242 -4.3593 -3.72341 0
M  V30 46 H 2.0212 -5.01998 -3.28813 0
M  V30 47 H 3.0912 -4.41184 -2.01209 0
M  V30 48 N 4.4343 0.785586 -1.36625 0
M  V30 49 C 5.3643 1.91259 -1.33949 0
M  V30 50 C 6.3453 1.68795 -0.210325 0
M  V30 51 O 7.5303 1.89854 -0.408561 0
M  V30 52 C 4.6603 3.28339 -1.13186 0
M  V30 53 C 3.6143 3.65335 -2.22967 0
M  V30 54 C 2.9403 5.00806 -1.87342 0
M  V30 55 C 4.2403 3.7352 -3.65075 0
M  V30 56 H 5.9343 1.93755 -2.28253 0
M  V30 57 H 3.4803 0.930788 -1.09874 0
M  V30 58 H 5.4333 4.06804 -1.09948 0
M  V30 59 H 4.1573 3.2624 -0.153332 0
M  V30 60 H 2.8163 2.89169 -2.25337 0
M  V30 61 H 2.4643 4.95233 -0.880545 0
M  V30 62 H 2.1643 5.26529 -2.60846 0
M  V30 63 H 3.6883 5.81687 -1.85667 0
M  V30 64 H 5.1023 4.42168 -3.64911 0
M  V30 65 H 3.4993 4.10731 -4.37516 0
M  V30 66 H 4.5693 2.74527 -3.99703 0
M  V30 67 N 5.9124 1.20967 1.01018 0
M  V30 68 C 7.1404 1.04956 1.78303 0
M  V30 69 C 7.5554 -0.400915 1.84494 0
M  V30 70 O 6.9124 -1.27826 1.30257 0
M  V30 71 C 6.9634 1.63403 3.22462 0
M  V30 72 O 6.6844 3.02775 3.16637 0
M  V30 73 C 8.1854 1.52432 4.16268 0
M  V30 74 H 5.4054 0.368858 0.560522 0
M  V30 75 H 7.9494 1.60193 1.27116 0
M  V30 76 H 6.1044 1.1227 3.70775 0
M  V30 77 H 6.5184 3.30626 4.07169 0
M  V30 78 H 7.9924 1.98078 5.15237 0
M  V30 79 H 8.4694 0.477875 4.36592 0
M  V30 80 H 9.0754 2.02787 3.73841 0
M  V30 81 N 7.3905 -1.2043 1.01659 0
M  V30 82 C 8.3535 -2.21433 0.591616 0
M  V30 83 C 9.3535 -1.57203 -0.338226 0
M  V30 84 O 10.5435 -1.73737 -0.126918 0
M  V30 85 C 7.6755 -3.40628 -0.136058 0
M  V30 86 H 8.8685 -2.60545 1.48514 0
M  V30 87 H 6.4215 -1.33893 0.806379 0
M  V30 88 H 7.1565 -3.07019 -1.04449 0
M  V30 89 H 6.9415 -3.88475 0.531917 0
M  V30 90 H 8.4315 -4.15475 -0.420735 0
M  V30 91 N 8.8686 -0.792821 -1.36206 0
M  V30 92 C 9.8316 -0.199459 -2.2833 0
M  V30 93 C 10.8316 0.605189 -1.48977 0
M  V30 94 O 12.0216 0.425685 -1.68919 0
M  V30 95 C 9.1536 0.723523 -3.33134 0
M  V30 96 H 10.3466 -1.01181 -2.82316 0
M  V30 97 H 7.8996 -0.562485 -1.45828 0
M  V30 98 H 8.6346 1.56008 -2.84309 0
M  V30 99 H 8.4196 0.148436 -3.91819 0
M  V30 100 H 9.9096 1.13344 -4.01924 0
M  V30 101 N 10.3467 1.47872 -0.545128 0
M  V30 102 C 11.3097 2.28337 0.198717 0
M  V30 103 C 12.3097 1.36255 0.853888 0
M  V30 104 O 13.4997 1.59003 0.711606 0
M  V30 105 C 10.6317 3.15585 1.28915 0
M  V30 106 H 11.8247 2.95567 -0.507941 0
M  V30 107 H 9.3777 1.53362 -0.301616 0
M  V30 108 H 10.1127 2.53019 2.02859 0
M  V30 109 H 9.8977 3.83337 0.824309 0
M  V30 110 H 11.3877 3.76243 1.81194 0
M  V30 111 N 11.8248 0.280983 1.55075 0
M  V30 112 C 13.2408 -0.0729964 1.59433 0
M  V30 113 C 13.4408 -1.5411 1.29817 0
M  V30 114 O 12.4968 -2.29086 1.06187 0
M  V30 115 C 13.8098 0.306921 2.9913 0
M  V30 116 C 15.3578 0.254023 3.11968 0
M  V30 117 C 15.8328 0.608467 4.5394 0
M  V30 118 N 17.3238 0.560241 4.59799 0
M  V30 119 C 18.0588 0.80722 5.6769 0
M  V30 120 N 17.5548 1.11912 6.83701 0
M  V30 121 N 19.3478 0.735623 5.57266 0
M  V30 122 H 11.4988 1.238 1.7259 0
M  V30 123 H 13.7618 0.500547 0.805082 0
M  V30 124 H 13.4678 1.32816 3.25657 0
M  V30 125 H 13.3418 -0.349363 3.75579 0
M  V30 126 H 15.7288 -0.75794 2.852 0
M  V30 127 H 15.8098 0.944649 2.37718 0
M  V30 128 H 15.4538 1.61814 4.81434 0
M  V30 129 H 15.3838 -0.104013 5.26497 0
M  V30 130 H 17.8748 0.329288 3.76463 0
M  V30 131 H 18.1878 1.29409 7.61888 0
M  V30 132 H 16.5328 1.15695 6.85303 0
M  V30 133 H 19.7238 0.491752 4.6551 0
M  V30 134 H 19.8968 0.931482 6.4127 0
M  V30 135 N 13.3029 -1.57598 0.00835791 0
M  V30 136 C 14.2329 -2.1198 -0.979113 0
M  V30 137 C 15.2139 -1.03091 -1.35301 0
M  V30 138 O 16.3989 -1.30818 -1.43528 0
M  V30 139 C 13.5289 -2.62995 -2.26828 0
M  V30 140 C 12.4829 -3.76485 -2.03576 0
M  V30 141 C 11.8089 -4.13846 -3.38579 0
M  V30 142 C 13.1089 -5.0342 -1.39161 0
M  V30 143 H 14.8029 -2.94738 -0.526281 0
M  V30 144 H 12.3489 -1.41783 -0.251704 0
M  V30 145 H 14.3019 -2.99669 -2.96271 0
M  V30 146 H 13.0259 -1.7737 -2.7424 0
M  V30 147 H 11.6849 -3.40217 -1.36557 0
M  V30 148 H 11.3329 -3.25232 -3.83709 0
M  V30 149 H 11.0329 -4.90312 -3.23834 0
M  V30 150 H 12.5569 -4.53086 -4.09323 0
M  V30 151 H 13.9709 -5.37812 -1.98573 0
M  V30 152 H 12.3679 -5.84746 -1.34878 0
M  V30 153 H 13.4379 -4.83548 -0.361868 0
M  V30 154 N 14.781 0.264519 -1.55364 0
M  V30 155 C 15.711 1.33121 -1.91836 0
M  V30 156 C 16.692 1.51101 -0.781192 0
M  V30 157 O 17.877 1.64003 -1.04003 0
M  V30 158 C 15.007 2.68921 -2.19769 0
M  V30 159 C 13.961 2.65661 -3.35571 0
M  V30 160 C 13.287 4.05093 -3.49004 0
M  V30 161 C 14.587 2.24187 -4.71739 0
M  V30 162 H 16.281 1.02844 -2.81182 0
M  V30 163 H 13.827 0.493286 -1.35287 0
M  V30 164 H 15.78 3.43663 -2.43872 0
M  V30 165 H 14.504 3.00799 -1.27231 0
M  V30 166 H 13.163 1.93377 -3.1145 0
M  V30 167 H 12.811 4.34206 -2.53917 0
M  V30 168 H 12.511 4.03804 -4.26868 0
M  V30 169 H 14.035 4.81561 -3.75408 0
M  V30 170 H 15.449 2.88654 -4.9533 0
M  V30 171 H 13.846 2.34044 -5.52579 0
M  V30 172 H 14.916 1.19327 -4.69988 0
M  V30 173 N 16.2591 1.48442 0.529413 0
M  V30 174 C 17.5071 1.56179 1.28267 0
M  V30 175 C 17.8281 0.237721 1.93546 0
M  V30 176 O 17.0981 -0.740779 1.81354 0
M  V30 177 H 15.6781 0.575367 0.476405 0
M  V30 178 H 18.3401 1.84909 0.61602 0
M  V30 179 H 17.4361 2.34312 2.06165 0
M  V30 180 N 17.7372 -0.778329 1.37039 0
M  V30 181 C 18.9652 -1.56734 1.35063 0
M  V30 182 C 19.3802 -1.88686 -0.0655597 0
M  V30 183 O 18.7372 -1.5096 -1.02554 0
M  V30 184 C 18.7882 -2.88163 2.18276 0
M  V30 185 O 18.5092 -2.57583 3.54376 0
M  V30 186 C 20.0102 -3.82422 2.24206 0
M  V30 187 H 17.2302 -0.485778 0.462883 0
M  V30 188 H 19.7742 -0.965185 1.8029 0
M  V30 189 H 17.9292 -3.44818 1.76576 0
M  V30 190 H 18.3432 -3.41699 3.97922 0
M  V30 191 H 19.8172 -4.71667 2.86765 0
M  V30 192 H 20.2942 -4.21078 1.24861 0
M  V30 193 H 20.9002 -3.31697 2.6619 0
M  V30 194 N 19.2153 -1.21501 -1.00376 0
M  V30 195 C 20.1623 -0.975387 -2.09177 0
M  V30 196 C 21.1323 0.0990615 -1.65804 0
M  V30 197 O 22.3173 -0.0483147 -1.90739 0
M  V30 198 C 19.4573 -0.547507 -3.40729 0
M  V30 199 C 18.5703 -1.69153 -3.97506 0
M  V30 200 C 17.7053 -1.2127 -5.17172 0
M  V30 201 C 16.7443 -2.32897 -5.66061 0
M  V30 202 N 15.8813 -1.86138 -6.76976 0
M  V30 203 H 20.7213 -1.9068 -2.29009 0
M  V30 204 H 18.2583 -0.950257 -1.12288 0
M  V30 205 H 20.2163 -0.280667 -4.16255 0
M  V30 206 H 18.8463 0.346904 -3.20931 0
M  V30 207 H 17.8983 -2.07298 -3.18954 0
M  V30 208 H 19.2103 -2.5316 -4.29781 0
M  V30 209 H 18.3643 -0.902591 -5.99948 0
M  V30 210 H 17.1033 -0.342692 -4.86495 0
M  V30 211 H 16.1083 -2.64709 -4.81881 0
M  V30 212 H 17.3333 -3.20396 -5.98768 0
M  V30 213 H 15.2793 -1.01484 -6.48103 0
M  V30 214 H 15.1963 -2.63717 -7.08512 0
M  V30 215 H 16.4643 -1.58165 -7.63285 0
M  V30 216 N 20.6934 1.19889 -1.02296 0
M  V30 217 C 21.6414 2.24938 -0.592081 0
M  V30 218 C 22.6354 1.65257 0.372357 0
M  V30 219 O 23.8414 1.78371 0.241583 0
M  V30 220 H 20.2164 0.731787 -0.173182 0
M  V30 221 H 22.1874 2.58603 -1.48885 0
M  V30 222 C 20.9364 3.47668 0.047351 0
M  V30 223 H 20.2594 3.93875 -0.685772 0
M  V30 224 H 21.6994 4.22852 0.311862 0
M  V30 225 C 20.1584 3.11136 1.29212 0
M  V30 226 O 20.6884 3.2325 2.38479 0
M  V30 227 N 18.8944 2.65625 1.17863 0
M  V30 228 H 18.4414 2.55968 0.289493 0
M  V30 229 H 18.3994 2.41553 2.01245 0
M  V30 230 N 22.1715 0.800033 1.35784 0
M  V30 231 C 23.1345 0.211565 2.28221 0
M  V30 232 C 24.1345 -0.59728 1.49296 0
M  V30 233 O 25.3245 -0.416721 1.69142 0
M  V30 234 C 22.4565 -0.705846 3.33513 0
M  V30 235 H 23.6495 1.02677 2.81776 0
M  V30 236 H 21.2025 0.570211 1.45528 0
M  V30 237 H 21.9375 -1.54498 2.85133 0
M  V30 238 H 21.7225 -0.127655 3.91892 0
M  V30 239 H 23.2125 -1.11211 4.02519 0
M  V30 240 N 23.6496 -1.47581 0.552962 0
M  V30 241 C 24.8746 -2.07378 0.0300593 0
M  V30 242 C 25.2996 -1.40355 -1.25229 0
M  V30 243 O 24.6576 -0.477099 -1.7491 0
M  V30 244 C 24.7056 -3.60274 -0.153231 0
M  V30 245 O 23.8096 -3.94041 -1.21678 0
M  V30 246 H 23.1506 -0.662158 0.0494182 0
M  V30 247 H 25.6806 -1.89662 0.767434 0
M  V30 248 H 25.6906 -4.0633 -0.368761 0
M  V30 249 H 24.3656 -4.08455 0.783397 0
M  V30 250 H 22.9426 -3.59735 -0.982079 0
M  V30 251 N 25.1277 -0.289203 -1.54924 0
M  V30 252 C 26.3677 0.324536 -2.01807 0
M  V30 253 C 26.7317 1.5199 -1.17316 0
M  V30 254 O 27.9327 2.20422 -1.53843 0
M  V30 255 C 26.2037 0.683578 -3.50802 0
M  V30 256 S 27.7627 1.28185 -4.19659 0
M  V30 257 H 24.5807 0.100236 -0.703899 0
M  V30 258 H 27.1827 -0.414325 -1.91059 0
M  V30 259 H 25.8867 -0.195073 -4.09936 0
M  V30 260 H 25.4177 1.45354 -3.65562 0
M  V30 261 H 27.4327 2.57006 -4.24456 0
M  V30 262 N 26.6058 1.57591 -0.0167156 0
M  V30 263 C 27.5358 2.12496 0.967858 0
M  V30 264 C 28.5168 1.03807 1.34752 0
M  V30 265 O 29.7018 1.31577 1.42833 0
M  V30 266 C 26.8318 2.64194 2.25431 0
M  V30 267 C 25.7858 3.77559 2.01576 0
M  V30 268 C 25.1118 4.15636 3.36379 0
M  V30 269 C 26.4118 5.04151 1.36489 0
M  V30 270 H 28.1058 2.95013 0.510643 0
M  V30 271 H 25.6518 1.41915 0.244181 0
M  V30 272 H 27.6048 3.01236 2.94678 0
M  V30 273 H 26.3288 1.78821 2.73296 0
M  V30 274 H 24.9878 3.40937 1.34751 0
M  V30 275 H 24.6358 3.27263 3.81979 0
M  V30 276 H 24.3358 4.92022 3.21229 0
M  V30 277 H 25.8598 4.5525 4.06915 0
M  V30 278 H 27.2738 5.38857 1.95718 0
M  V30 279 H 25.6708 5.85453 1.31776 0
M  V30 280 H 26.7408 4.83733 0.336219 0
M  V30 281 N 28.0839 -0.256276 1.55502 0
M  V30 282 C 29.3299 -0.987079 1.77157 0
M  V30 283 C 29.6629 -1.85327 0.580315 0
M  V30 284 O 28.9379 -1.89874 -0.421686 0
M  V30 285 C 29.2209 -1.85553 3.08613 0
M  V30 286 C 29.0739 -1.01816 4.38125 0
M  V30 287 C 30.3929 -2.8397 3.36228 0
M  V30 288 H 27.5119 -0.357428 0.644526 0
M  V30 289 H 30.1539 -0.258239 1.88237 0
M  V30 290 H 28.3039 -2.47695 2.99298 0
M  V30 291 H 29.9759 -0.416159 4.59419 0
M  V30 292 H 28.2189 -0.322178 4.32602 0
M  V30 293 H 28.8899 -1.65939 5.26468 0
M  V30 294 H 31.3659 -2.31964 3.45445 0
M  V30 295 H 30.2419 -3.41864 4.29442 0
M  V30 296 H 30.5029 -3.59955 2.56681 0
M  V30 297 N 29.562 -1.4872 -0.521534 0
M  V30 298 C 30.492 -1.66771 -1.63431 0
M  V30 299 C 31.473 -0.516499 -1.62069 0
M  V30 300 O 32.658 -0.750013 -1.79132 0
M  V30 301 C 29.788 -1.71515 -3.01993 0
M  V30 302 C 28.742 -2.86222 -3.18216 0
M  V30 303 C 28.068 -2.76061 -4.57924 0
M  V30 304 C 29.368 -4.27419 -3.00184 0
M  V30 305 H 31.062 -2.59932 -1.48579 0
M  V30 306 H 28.608 -1.25089 -0.713358 0
M  V30 307 H 30.561 -1.82731 -3.7972 0
M  V30 308 H 29.285 -0.749393 -3.17886 0
M  V30 309 H 27.944 -2.74575 -2.42908 0
M  V30 310 H 27.592 -1.77437 -4.70665 0
M  V30 311 H 27.292 -3.53037 -4.69722 0
M  V30 312 H 28.816 -2.89256 -5.37739 0
M  V30 313 H 30.23 -4.39855 -3.67697 0
M  V30 314 H 28.627 -5.05458 -3.2347 0
M  V30 315 H 29.697 -4.43293 -1.96518 0
M  V30 316 N 31.0401 0.771051 -1.3745 0
M  V30 317 C 32.0031 1.86598 -1.33093 0
M  V30 318 C 33.0031 1.59076 -0.234845 0
M  V30 319 O 34.1931 1.67145 -0.490732 0
M  V30 320 C 31.3251 3.23747 -1.06773 0
M  V30 321 H 32.5181 1.91873 -2.30488 0
M  V30 322 H 30.0711 0.970876 -1.2249 0
M  V30 323 H 30.8061 3.24148 -0.099129 0
M  V30 324 H 30.5911 3.45115 -1.86112 0
M  V30 325 H 32.0811 4.03824 -1.06377 0
M  V30 326 N 32.5182 1.22032 0.997298 0
M  V30 327 C 33.4812 0.987909 2.06816 0
M  V30 328 C 34.4812 -0.0440084 1.6074 0
M  V30 329 O 35.6712 0.194053 1.73116 0
M  V30 330 C 32.8032 0.49132 3.37341 0
M  V30 331 H 33.9962 1.93803 2.28868 0
M  V30 332 H 31.5492 1.03838 1.16822 0
M  V30 333 H 32.2842 -0.463364 3.20973 0
M  V30 334 H 32.0692 1.23575 3.72118 0
M  V30 335 H 33.5592 0.348824 4.16141 0
M  V30 336 N 33.9963 -1.19345 1.0293 0
M  V30 337 C 35.4123 -1.41069 0.746446 0
M  V30 338 C 35.6123 -1.90078 -0.668776 0
M  V30 339 O 34.6683 -2.0778 -1.4347 0
M  V30 340 C 35.9813 -2.42141 1.78292 0
M  V30 341 C 37.5293 -2.55887 1.80252 0
M  V30 342 C 38.0043 -3.60214 2.8286 0
M  V30 343 N 39.4953 -3.67711 2.81679 0
M  V30 344 C 40.2303 -4.48128 3.57727 0
M  V30 345 N 39.7263 -5.32248 4.43491 0
M  V30 346 N 41.5193 -4.42782 3.46267 0
M  V30 347 H 33.6703 -0.858536 1.94275 0
M  V30 348 H 35.9333 -0.439541 0.839945 0
M  V30 349 H 35.6393 -2.13155 2.79746 0
M  V30 350 H 35.5133 -3.41323 1.60557 0
M  V30 351 H 37.9003 -2.84196 0.794757 0
M  V30 352 H 37.9813 -1.56858 2.02062 0
M  V30 353 H 37.6253 -3.32647 3.83807 0
M  V30 354 H 37.5553 -4.58895 2.58307 0
M  V30 355 H 40.0463 -3.07634 2.19476 0
M  V30 356 H 40.3593 -5.90729 4.98256 0
M  V30 357 H 38.7043 -5.31707 4.47564 0
M  V30 358 H 41.8953 -3.76107 2.78677 0
M  V30 359 H 42.0683 -5.05215 4.05785 0
M  V30 360 N 35.4744 -0.807222 -1.35358 0
M  V30 361 C 36.4244 -0.190706 -2.27201 0
M  V30 362 C 37.4084 0.635838 -1.47804 0
M  V30 363 O 38.6004 0.492991 -1.69996 0
M  V30 364 C 35.7294 0.659337 -3.36909 0
M  V30 365 C 34.8154 -0.176971 -4.23731 0
M  V30 366 N 35.2064 -1.24029 -4.90357 0
M  V30 367 C 33.5044 0.0412953 -4.45981 0
M  V30 368 C 34.2054 -1.75092 -5.54723 0
M  V30 369 N 33.1814 -1.05727 -5.33219 0
M  V30 370 H 36.9834 -1.0043 -2.76208 0
M  V30 371 H 34.4974 -0.648445 -1.48892 0
M  V30 372 H 36.4944 1.11706 -4.01656 0
M  V30 373 H 35.1544 1.47127 -2.89454 0
M  V30 374 H 36.1654 -1.62295 -4.91814 0
M  V30 375 H 32.8424 0.82232 -4.09322 0
M  V30 376 H 34.2324 -2.63963 -6.17878 0
M  V30 377 N 36.9525 1.47285 -0.560781 0
M  V30 378 C 37.9155 2.28535 0.174488 0
M  V30 379 C 38.9155 1.37153 0.839388 0
M  V30 380 O 40.1055 1.59748 0.694702 0
M  V30 381 C 37.2375 3.16934 1.25561 0
M  V30 382 H 38.4305 2.95012 -0.539262 0
M  V30 383 H 35.9835 1.53034 -0.317865 0
M  V30 384 H 36.7185 2.55157 2.00164 0
M  V30 385 H 36.5035 3.8419 0.783604 0
M  V30 386 H 37.9935 3.78143 1.77193 0
M  V30 387 N 38.4306 0.297415 1.54768 0
M  V30 388 C 39.6556 -0.318435 2.04941 0
M  V30 389 C 40.0806 -1.4701 1.17345 0
M  V30 390 O 39.4386 -1.80436 0.176758 0
M  V30 391 C 39.4866 -0.755749 3.52592 0
M  V30 392 O 38.5906 -1.86088 3.68028 0
M  V30 393 H 37.9316 -0.062421 0.661059 0
M  V30 394 H 40.4616 0.438215 1.99852 0
M  V30 395 H 40.4716 -1.04552 3.94376 0
M  V30 396 H 39.1466 0.0867233 4.1581 0
M  V30 397 H 37.7236 -1.57193 3.38149 0
M  V30 398 N 39.9087 -1.5758 0.0250728 0
M  V30 399 C 40.8717 -2.08896 -0.943139 0
M  V30 400 C 41.8717 -1.00321 -1.25668 0
M  V30 401 O 43.0617 -1.26495 -1.19769 0
M  V30 402 C 40.1937 -2.55143 -2.26086 0
M  V30 403 H 41.3867 -2.95723 -0.498775 0
M  V30 404 H 38.9397 -1.54703 -0.222888 0
M  V30 405 H 39.6747 -1.71633 -2.75159 0
M  V30 406 H 39.4597 -3.34461 -2.04641 0
M  V30 407 H 40.9497 -2.95083 -2.95492 0
M  V30 408 N 41.3868 0.248026 -1.55636 0
M  V30 409 C 42.6118 0.998028 -1.81808 0
M  V30 410 C 43.0368 1.78207 -0.601979 0
M  V30 411 O 42.3948 1.75653 0.448961 0
M  V30 412 C 42.4428 1.9125 -3.05705 0
M  V30 413 O 41.5468 3.00406 -2.82542 0
M  V30 414 H 40.8878 0.284045 -0.600179 0
M  V30 415 H 43.4178 0.269357 -2.02819 0
M  V30 416 H 43.4278 2.32737 -3.35108 0
M  V30 417 H 42.1028 1.33602 -3.93857 0
M  V30 418 H 40.6798 2.63056 -2.64303 0
M  V30 419 N 42.8649 1.48995 0.513639 0
M  V30 420 C 44.0899 1.61792 1.29762 0
M  V30 421 C 44.5149 0.284475 1.85936 0
M  V30 422 O 43.8729 -0.746185 1.65232 0
M  V30 423 C 43.9209 2.67993 2.41272 0
M  V30 424 O 43.0249 2.26287 3.44772 0
M  V30 425 H 42.3659 0.541963 0.38363 0
M  V30 426 H 44.8959 1.95097 0.616307 0
M  V30 427 H 44.9059 2.89772 2.87221 0
M  V30 428 H 43.5809 3.64791 1.9975 0
M  V30 429 H 42.1579 2.14788 3.04829 0
M  V30 430 N 44.343 -0.763751 1.37857 0
M  V30 431 C 45.571 -1.55293 1.36718 0
M  V30 432 C 45.986 -1.88745 -0.0455434 0
M  V30 433 O 45.343 -1.52039 -1.00947 0
M  V30 434 C 45.394 -2.85831 2.2132 0
M  V30 435 O 45.115 -2.5381 3.57089 0
M  V30 436 C 46.616 -3.80023 2.28249 0
M  V30 437 H 43.836 -0.480841 0.468009 0
M  V30 438 H 46.38 -0.946009 1.81303 0
M  V30 439 H 44.535 -3.42926 1.80223 0
M  V30 440 H 44.949 -3.37459 4.01524 0
M  V30 441 H 46.423 -4.68599 2.91752 0
M  V30 442 H 46.9 -4.1973 1.2932 0
M  V30 443 H 47.506 -3.28855 2.69693 0
M  V30 444 N 45.8211 -1.22559 -0.990812 0
M  V30 445 C 46.7691 -0.994798 -2.10253 0
M  V30 446 C 47.7631 0.0627798 -1.69284 0
M  V30 447 O 48.9691 -0.0898392 -1.79776 0
M  V30 448 H 45.3441 -0.304527 -0.687581 0
M  V30 449 H 47.3151 -1.93812 -2.26891 0
M  V30 450 C 46.0641 -0.591439 -3.42633 0
M  V30 451 H 45.3871 -1.3969 -3.74602 0
M  V30 452 H 46.8271 -0.469385 -4.21394 0
M  V30 453 C 45.2861 0.699232 -3.29564 0
M  V30 454 O 45.8161 1.75112 -3.61523 0
M  V30 455 N 44.0221 0.671182 -2.82743 0
M  V30 456 H 43.5691 -0.185136 -2.56934 0
M  V30 457 H 43.5271 1.53502 -2.7438 0
M  V30 458 N 47.2992 1.18797 -1.03562 0
M  V30 459 C 48.2292 2.24472 -0.643019 0
M  V30 460 C 49.2102 1.66433 0.351283 0
M  V30 461 O 50.3952 1.92803 0.232505 0
M  V30 462 C 47.5252 3.473 4.24935e-05 0
M  V30 463 C 46.4792 4.18055 -0.917257 0
M  V30 464 C 45.8052 5.34519 -0.138941 0
M  V30 465 C 47.1052 4.72109 -2.23407 0
M  V30 466 H 48.7992 2.57566 -1.52643 0
M  V30 467 H 46.3452 1.23806 -0.735394 0
M  V30 468 H 48.2982 4.20426 0.286383 0
M  V30 469 H 47.0222 3.13424 0.918299 0
M  V30 470 H 45.6812 3.46821 -1.1879 0
M  V30 471 H 45.3292 4.96891 0.781562 0
M  V30 472 H 45.0292 5.82794 -0.750005 0
M  V30 473 H 46.5532 6.10438 0.1405 0
M  V30 474 H 47.9672 5.36955 -2.00879 0
M  V30 475 H 46.3642 5.30897 -2.79765 0
M  V30 476 H 47.4342 3.89807 -2.88407 0
M  V30 477 N 48.7773 0.814389 1.34928 0
M  V30 478 C 49.7243 0.22822 2.29669 0
M  V30 479 C 50.6943 -0.642164 1.53184 0
M  V30 480 O 51.8793 -0.585605 1.81591 0
M  V30 481 C 49.0193 -0.61089 3.3965 0
M  V30 482 C 48.1323 0.280792 4.31086 0
M  V30 483 C 47.2673 -0.567067 5.28165 0
M  V30 484 C 46.3063 0.324531 6.11239 0
M  V30 485 N 45.4433 -0.483756 7.00431 0
M  V30 486 H 50.2833 1.04153 2.79206 0
M  V30 487 H 47.8203 0.525133 1.37407 0
M  V30 488 H 49.7783 -1.11263 4.0209 0
M  V30 489 H 48.4083 -1.38939 2.91369 0
M  V30 490 H 47.4603 0.900688 3.69583 0
M  V30 491 H 48.7723 0.966723 4.89342 0
M  V30 492 H 47.9263 -1.13363 5.96015 0
M  V30 493 H 46.6653 -1.28654 4.70425 0
M  V30 494 H 45.6703 0.903298 5.42329 0
M  V30 495 H 46.8953 1.04198 6.71059 0
M  V30 496 H 44.8413 -1.18706 6.45171 0
M  V30 497 H 44.7583 0.143965 7.55863 0
M  V30 498 H 46.0263 -1.03334 7.7262 0
M  V30 499 N 50.2554 -1.46986 0.568584 0
M  V30 500 C 51.5324 -1.95592 -0.0174074 0
M  V30 501 C 51.9124 -1.51124 -1.47393 0
M  V30 502 O 51.2604 -0.755329 -2.15655 0
M  V30 503 C 51.4704 -3.48719 0.139913 0
M  V30 504 C 52.8184 -4.246 0.000426376 0
M  V30 505 O 53.8424 -3.56135 0.0680316 0
M  V30 506 O 52.7014 -5.46302 -0.146988 0
M  V30 507 H 49.7954 -0.82498 -0.0577599 0
M  V30 508 H 52.3414 -1.57335 0.635909 0
M  V30 509 H 51.1134 -3.73927 1.15301 0
M  V30 510 H 50.7364 -3.93771 -0.550491 0
M  V30 511 N 51.7335 -0.305618 -1.54608 0
M  V30 512 C 52.9825 0.303098 -1.9941 0
M  V30 513 C 53.2955 1.54648 -1.19764 0
M  V30 514 O 54.5015 2.23007 -1.54855 0
M  V30 515 C 52.9575 0.590588 -3.55021 0
M  V30 516 C 52.5655 -0.634719 -4.43481 0
M  V30 517 C 54.3095 1.16025 -4.08336 0
M  V30 518 C 52.2165 -0.320126 -5.90533 0
M  V30 519 H 51.1465 0.117031 -0.744862 0
M  V30 520 H 53.7975 -0.415045 -1.78745 0
M  V30 521 H 52.1795 1.36845 -3.71604 0
M  V30 522 H 53.3535 -1.41079 -4.38672 0
M  V30 523 H 51.6685 -1.12333 -4.00962 0
M  V30 524 H 54.2655 1.40994 -5.15776 0
M  V30 525 H 54.6085 2.10397 -3.5922 0
M  V30 526 H 55.1415 0.443985 -3.95315 0
M  V30 527 H 51.8805 -1.23254 -6.43808 0
M  V30 528 H 51.4005 0.418579 -5.98338 0
M  V30 529 H 53.0795 0.0766241 -6.46955 0
M  V30 530 N 53.2116 1.57565 -0.0334293 0
M  V30 531 C 54.1416 2.13511 0.945265 0
M  V30 532 C 55.1226 1.05231 1.33643 0
M  V30 533 O 56.3076 1.33084 1.41429 0
M  V30 534 C 53.4376 2.6657 2.22616 0
M  V30 535 C 52.3916 3.79676 1.97561 0
M  V30 536 C 51.7176 4.1918 3.31952 0
M  V30 537 C 53.0176 5.0557 1.31135 0
M  V30 538 H 54.7116 2.95538 0.479325 0
M  V30 539 H 52.2576 1.42166 0.229115 0
M  V30 540 H 54.2106 3.04344 2.91466 0
M  V30 541 H 52.9346 1.8171 2.71384 0
M  V30 542 H 51.5936 3.42347 1.31127 0
M  V30 543 H 51.2416 3.31296 3.78487 0
M  V30 544 H 50.9416 4.95402 3.15992 0
M  V30 545 H 52.4656 4.59541 4.02063 0
M  V30 546 H 53.8796 5.40903 1.89992 0
M  V30 547 H 52.2766 5.86818 1.25559 0
M  V30 548 H 53.3466 4.84062 0.284894 0
M  V30 549 N 54.6897 -0.239769 1.55765 0
M  V30 550 C 55.6527 -1.28038 1.90103 0
M  V30 551 C 56.6527 -1.40723 0.778055 0
M  V30 552 O 57.8427 -1.39301 1.04599 0
M  V30 553 C 54.9747 -2.65702 2.13577 0
M  V30 554 H 56.1677 -0.988048 2.83157 0
M  V30 555 H 53.7207 -0.479382 1.48767 0
M  V30 556 H 54.4557 -3.00063 1.23015 0
M  V30 557 H 54.2407 -2.57875 2.95369 0
M  V30 558 H 55.7307 -3.40828 2.41301 0
M  V30 559 N 56.1678 -1.49265 -0.50573 0
M  V30 560 C 57.4448 -1.49012 -1.26707 0
M  V30 561 C 57.8248 -0.215205 -2.1 0
M  V30 562 O 57.1728 0.802547 -2.13943 0
M  V30 563 C 57.3828 -2.7663 -2.12783 0
M  V30 564 C 58.7308 -3.25932 -2.72127 0
M  V30 565 O 59.7548 -2.77715 -2.23054 0
M  V30 566 O 58.6138 -4.09897 -3.61451 0
M  V30 567 H 55.7078 -0.596197 -0.57313 0
M  V30 568 H 58.2538 -1.61524 -0.52039 0
M  V30 569 H 57.0258 -3.60916 -1.5118 0
M  V30 570 H 56.6488 -2.66956 -2.94653 0
M  V30 571 N 57.6459 0.756429 -1.3826 0
M  V30 572 C 58.5759 1.88374 -1.37976 0
M  V30 573 C 59.5569 1.68311 -0.246082 0
M  V30 574 O 60.7419 1.88944 -0.44874 0
M  V30 575 C 57.8719 3.25864 -1.20125 0
M  V30 576 C 56.8259 3.60523 -2.30666 0
M  V30 577 C 56.1519 4.9672 -1.97923 0
M  V30 578 C 57.4519 3.65692 -3.72916 0
M  V30 579 H 59.1459 1.88869 -2.32312 0
M  V30 580 H 56.6919 0.907272 -1.11824 0
M  V30 581 H 58.6449 4.0438 -1.18552 0
M  V30 582 H 57.3689 3.25841 -0.222498 0
M  V30 583 H 56.0279 2.84324 -2.3142 0
M  V30 584 H 55.6759 4.93253 -0.985393 0
M  V30 585 H 55.3759 5.20878 -2.71955 0
M  V30 586 H 56.8999 5.77618 -1.97964 0
M  V30 587 H 58.3139 4.34328 -3.74208 0
M  V30 588 H 56.7109 4.01358 -4.4613 0
M  V30 589 H 57.7809 2.65987 -4.05436 0
M  V30 590 N 59.124 1.23083 0.984299 0
M  V30 591 C 60.373 1.05466 1.71929 0
M  V30 592 C 60.686 -0.409211 1.91272 0
M  V30 593 O 61.892 -0.705226 2.62181 0
M  V30 594 C 60.348 1.83874 3.09384 0
M  V30 595 C 59.956 3.34566 2.97943 0
M  V30 596 C 61.7 1.74734 3.8687 0
M  V30 597 C 59.607 4.05381 4.30605 0
M  V30 598 H 58.537 0.391039 0.644674 0
M  V30 599 H 61.188 1.47013 1.09815 0
M  V30 600 H 59.57 1.35131 3.72231 0
M  V30 601 H 60.744 3.90767 2.44209 0
M  V30 602 H 59.059 3.44476 2.33934 0
M  V30 603 H 61.656 2.24957 4.85076 0
M  V30 604 H 61.999 0.709372 4.10212 0
M  V30 605 H 62.532 2.21067 3.30717 0
M  V30 606 H 59.271 5.09467 4.1246 0
M  V30 607 H 58.791 3.53967 4.84218 0
M  V30 608 H 60.47 4.11458 4.99311 0
M  V30 609 N 60.6021 -1.18246 1.0419 0
M  V30 610 C 62.0131 -1.69914 0.773698 0
M  V30 611 C 62.3641 -1.83085 -0.705297 0
M  V30 612 O 61.4891 -1.51123 -1.5489 0
M  V30 613 C 62.0841 -3.08619 1.39784 0
M  V30 614 C 60.6431 -3.57494 1.17792 0
M  V30 615 C 59.7901 -2.34013 1.48773 0
M  V30 616 H 62.7411 -1.02904 1.20816 0
M  V30 617 H 62.7621 -3.71958 0.801714 0
M  V30 618 H 62.2741 -2.99001 2.47426 0
M  V30 619 H 60.3751 -3.72406 0.120295 0
M  V30 620 H 60.4881 -4.40852 1.87581 0
M  V30 621 H 58.8521 -2.37986 0.907463 0
M  V30 622 H 59.6351 -2.27013 2.57527 0
M  V30 623 N 62.0802 -0.821533 -1.34494 0
M  V30 624 C 63.0272 -0.240397 -2.29545 0
M  V30 625 C 63.9972 0.634031 -1.53523 0
M  V30 626 O 65.1822 0.575966 -1.81899 0
M  V30 627 C 62.3222 0.592869 -3.39969 0
M  V30 628 C 61.4352 -0.30365 -4.30932 0
M  V30 629 C 60.5702 0.539049 -5.28458 0
M  V30 630 C 59.6092 -0.356942 -6.11058 0
M  V30 631 N 58.7462 0.446603 -7.00678 0
M  V30 632 H 63.5862 -1.05632 -2.7865 0
M  V30 633 H 61.1232 -0.532413 -1.37127 0
M  V30 634 H 63.0812 1.09129 -4.02675 0
M  V30 635 H 61.7112 1.37392 -2.92102 0
M  V30 636 H 60.7632 -0.920276 -3.691 0
M  V30 637 H 62.0752 -0.992661 -4.88823 0
M  V30 638 H 61.2292 1.102 -5.96608 0
M  V30 639 H 59.9682 1.26157 -4.71101 0
M  V30 640 H 58.9732 -0.932047 -5.41842 0
M  V30 641 H 60.1982 -1.07755 -6.70497 0
M  V30 642 H 58.1442 1.15282 -6.45791 0
M  V30 643 H 58.0612 -0.184048 -7.55776 0
M  V30 644 H 59.3292 0.992352 -7.73158 0
M  V30 645 N 63.5583 1.46682 -0.576371 0
M  V30 646 C 64.4683 2.34032 0.163141 0
M  V30 647 C 65.4843 1.49367 0.892501 0
M  V30 648 O 66.6603 1.82252 0.857106 0
M  V30 649 C 63.7253 3.26435 1.16795 0
M  V30 650 C 62.7863 4.26998 0.443944 0
M  V30 651 C 62.0193 5.14986 1.40088 0
M  V30 652 O 62.2423 5.05785 2.637 0
M  V30 653 O 61.1763 5.94906 0.914917 0
M  V30 654 H 65.0023 2.98607 -0.55388 0
M  V30 655 H 62.5873 1.45554 -0.336821 0
M  V30 656 H 64.4693 3.83459 1.74748 0
M  V30 657 H 63.1443 2.64465 1.86655 0
M  V30 658 H 62.0513 3.7368 -0.177271 0
M  V30 659 H 63.3843 4.91736 -0.213566 0
M  V30 660 N 65.0364 0.313813 1.54444 0
M  V30 661 C 65.9684 -0.590425 2.21465 0
M  V30 662 C 66.9814 -1.08753 1.21147 0
M  V30 663 O 68.1704 -1.00278 1.4767 0
M  V30 664 C 65.2704 -1.82179 2.85769 0
M  V30 665 C 64.4434 -1.46502 4.12136 0
M  V30 666 C 63.5024 -2.55288 4.60124 0
M  V30 667 O 62.5284 -2.19842 5.25032 0
M  V30 668 N 63.7304 -3.86053 4.33525 0
M  V30 669 H 66.4954 -0.0166033 2.99695 0
M  V30 670 H 64.0564 0.136578 1.61323 0
M  V30 671 H 66.0484 -2.54328 3.14801 0
M  V30 672 H 64.6184 -2.30369 2.11303 0
M  V30 673 H 63.8384 -0.575595 3.89975 0
M  V30 674 H 65.1264 -1.20221 4.94393 0
M  V30 675 H 64.5244 -4.17654 3.81552 0
M  V30 676 H 63.0814 -4.54461 4.67235 0
M  V30 677 N 66.5145 -1.57545 0.0417849 0
M  V30 678 C 67.4775 -2.09885 -0.92093 0
M  V30 679 C 68.4775 -1.01648 -1.24596 0
M  V30 680 O 69.6675 -1.27759 -1.1842 0
M  V30 681 C 66.7995 -2.57527 -2.23367 0
M  V30 682 H 67.9925 -2.96236 -0.467382 0
M  V30 683 H 65.5455 -1.5493 -0.206467 0
M  V30 684 H 66.2805 -1.74542 -2.73323 0
M  V30 685 H 66.0655 -3.36613 -2.01083 0
M  V30 686 H 67.5555 -2.98201 -2.92346 0
M  V30 687 N 67.9926 0.231505 -1.5589 0
M  V30 688 C 69.4086 0.580748 -1.48659 0
M  V30 689 C 69.6086 1.87617 -0.73498 0
M  V30 690 O 68.6646 2.51046 -0.270586 0
M  V30 691 C 69.9776 0.669202 -2.93159 0
M  V30 692 C 71.5256 0.760499 -3.03621 0
M  V30 693 C 72.0006 0.880383 -4.49459 0
M  V30 694 N 73.4916 0.944861 -4.53461 0
M  V30 695 C 74.2266 1.05716 -5.63571 0
M  V30 696 N 73.7226 1.13403 -6.83456 0
M  V30 697 N 75.5156 1.09152 -5.514 0
M  V30 698 H 67.6666 -0.618695 -2.03189 0
M  V30 699 H 69.9296 -0.215728 -0.923128 0
M  V30 700 H 69.6356 -0.212904 -3.51055 0
M  V30 701 H 69.5096 1.5361 -3.44505 0
M  V30 702 H 71.8966 1.63305 -2.45796 0
M  V30 703 H 71.9776 -0.131864 -2.5546 0
M  V30 704 H 71.6216 0.0123284 -5.07899 0
M  V30 705 H 71.5516 1.78802 -4.95316 0
M  V30 706 H 74.0426 0.896176 -3.6712 0
M  V30 707 H 74.3556 1.21921 -7.63122 0
M  V30 708 H 72.7006 1.10333 -6.86186 0
M  V30 709 H 75.8916 1.02805 -4.56671 0
M  V30 710 H 76.0646 1.17558 -6.37247 0
M  V30 711 N 69.4707 1.49531 0.497807 0
M  V30 712 C 70.7197 1.58426 1.24837 0
M  V30 713 C 71.0327 0.277643 1.93619 0
M  V30 714 O 72.2387 0.24517 2.70391 0
M  V30 715 C 70.6947 2.79538 2.26686 0
M  V30 716 C 70.3027 4.16971 1.63828 0
M  V30 717 C 72.0467 2.97764 3.0255 0
M  V30 718 C 69.9537 5.29301 2.63807 0
M  V30 719 H 68.8837 0.58989 0.469623 0
M  V30 720 H 71.5347 1.75923 0.521857 0
M  V30 721 H 69.9167 2.55542 3.02514 0
M  V30 722 H 71.0907 4.51116 0.939711 0
M  V30 723 H 69.4057 4.04129 1.00342 0
M  V30 724 H 72.0027 3.78856 3.77323 0
M  V30 725 H 72.3457 2.08448 3.60354 0
M  V30 726 H 72.8787 3.21815 2.33838 0
M  V30 727 H 69.6177 6.20687 2.10779 0
M  V30 728 H 69.1377 4.99606 3.31894 0
M  V30 729 H 70.8167 5.58768 3.2617 0
M  V30 730 N 70.9488 -0.749086 1.3866 0
M  V30 731 C 71.8958 -1.86291 1.36251 0
M  V30 732 C 72.8658 -1.64578 0.224347 0
M  V30 733 O 74.0508 -1.86181 0.417279 0
M  V30 734 C 71.1908 -3.23644 1.19786 0
M  V30 735 C 70.3038 -3.57158 2.43027 0
M  V30 736 C 69.4388 -4.83838 2.19258 0
M  V30 737 C 68.4778 -5.10152 3.38247 0
M  V30 738 N 67.6148 -6.28029 3.13884 0
M  V30 739 H 72.4548 -1.87685 2.3147 0
M  V30 740 H 69.9918 -0.917287 1.14997 0
M  V30 741 H 71.9498 -4.0291 1.08254 0
M  V30 742 H 70.5798 -3.21566 0.282031 0
M  V30 743 H 69.6318 -2.72701 2.65214 0
M  V30 744 H 70.9438 -3.7253 3.31697 0
M  V30 745 H 70.0978 -5.71057 2.04888 0
M  V30 746 H 68.8368 -4.70614 1.2796 0
M  V30 747 H 67.8418 -4.21401 3.53131 0
M  V30 748 H 69.0668 -5.25271 4.30427 0
M  V30 749 H 67.0128 -6.1612 2.25238 0
M  V30 750 H 66.9298 -6.43922 3.96106 0
M  V30 751 H 68.1978 -7.18124 3.03179 0
M  V30 752 N 72.4269 -1.23603 -0.977757 0
M  V30 753 C 73.6549 -1.09646 -1.75458 0
M  V30 754 C 74.0699 0.351859 -1.85492 0
M  V30 755 O 73.4269 1.24327 -1.336 0
M  V30 756 C 73.4779 -1.71895 -3.18016 0
M  V30 757 O 73.1989 -3.11063 -3.08498 0
M  V30 758 C 74.6999 -1.63415 -4.12081 0
M  V30 759 H 71.9199 -0.38359 -0.550545 0
M  V30 760 H 74.4639 -1.63507 -1.22824 0
M  V30 761 H 72.6189 -1.22061 -3.67668 0
M  V30 762 H 73.0329 -3.41305 -3.9826 0
M  V30 763 H 74.5069 -2.11669 -5.09804 0
M  V30 764 H 74.9839 -0.593462 -4.35172 0
M  V30 765 H 75.5899 -2.12628 -3.68334 0
M  V30 766 N 73.905 1.17692 -1.04816 0
M  V30 767 C 75.152 1.87859 -0.75599 0
M  V30 768 C 75.48 1.80812 0.716752 0
M  V30 769 O 74.735 1.20819 1.53952 0
M  V30 770 C 75.034 3.37462 -1.17703 0
M  V30 771 C 74.7 3.64713 -2.65133 0
M  V30 772 C 73.362 3.71859 -3.05408 0
M  V30 773 C 75.714 3.76492 -3.60421 0
M  V30 774 C 73.042 3.88271 -4.39843 0
M  V30 775 C 75.394 3.94421 -4.94585 0
M  V30 776 C 74.058 3.99806 -5.3452 0
M  V30 777 H 73.328 0.687425 -0.276636 0
M  V30 778 H 75.975 1.39255 -1.31455 0
M  V30 779 H 74.28 3.88097 -0.537395 0
M  V30 780 H 75.977 3.90109 -0.928218 0
M  V30 781 H 72.567 3.59772 -2.32942 0
M  V30 782 H 76.751 3.70295 -3.30447 0
M  V30 783 H 72.007 3.90687 -4.70291 0
M  V30 784 H 76.181 4.02477 -5.68318 0
M  V30 785 H 73.808 4.12276 -6.38696 0
M  V30 786 N 75.3831 0.828654 1.34056 0
M  V30 787 C 76.7991 0.515135 1.51058 0
M  V30 788 C 76.9991 -0.959581 1.77184 0
M  V30 789 O 76.0551 -1.74382 1.82612 0
M  V30 790 C 77.3681 1.37963 2.67183 0
M  V30 791 C 78.9161 1.37735 2.81066 0
M  V30 792 C 79.3911 2.22645 4.00241 0
M  V30 793 N 80.8821 2.203 4.07458 0
M  V30 794 C 81.6171 2.82744 4.98842 0
M  V30 795 N 81.1131 3.54201 5.9541 0
M  V30 796 N 82.9061 2.72268 4.91759 0
M  V30 797 H 75.0571 1.78343 1.15358 0
M  V30 798 H 77.3201 0.760304 0.566252 0
M  V30 799 H 77.0261 2.42714 2.54525 0
M  V30 800 H 76.9001 1.0484 3.62338 0
M  V30 801 H 79.2871 0.337593 2.93163 0
M  V30 802 H 79.3681 1.74859 1.86703 0
M  V30 803 H 79.0121 3.26674 3.88905 0
M  V30 804 H 78.9421 1.82869 4.93829 0
M  V30 805 H 81.4331 1.68327 3.38341 0
M  V30 806 H 81.7461 3.9908 6.61782 0
M  V30 807 H 80.0911 3.58308 5.95517 0
M  V30 808 H 83.2821 2.16014 4.15278 0
M  V30 809 H 83.4551 3.21219 5.62781 0
M  V30 810 N 76.8612 -1.46375 0.584142 0
M  V30 811 C 77.7932 -2.28443 -0.186119 0
M  V30 812 C 78.8062 -1.38596 -0.854115 0
M  V30 813 O 79.9952 -1.63183 -0.723438 0
M  V30 814 C 77.0952 -3.13671 -1.28311 0
M  V30 815 C 76.2682 -4.31652 -0.706758 0
M  V30 816 C 75.3272 -4.98267 -1.69163 0
M  V30 817 O 74.3532 -5.55815 -1.22712 0
M  V30 818 N 75.5552 -4.95408 -3.02575 0
M  V30 819 H 78.3202 -2.9519 0.517986 0
M  V30 820 H 75.8812 -1.56303 0.42201 0
M  V30 821 H 77.8732 -3.55101 -1.94128 0
M  V30 822 H 76.4432 -2.48989 -1.89005 0
M  V30 823 H 75.6632 -3.93989 0.128908 0
M  V30 824 H 76.9512 -5.07906 -0.301506 0
M  V30 825 H 76.3492 -4.49902 -3.42936 0
M  V30 826 H 74.9062 -5.40774 -3.63877 0
M  V30 827 N 78.3393 -0.321999 -1.54275 0
M  V30 828 C 79.2713 0.578671 -2.21775 0
M  V30 829 C 80.2843 1.08109 -1.21722 0
M  V30 830 O 81.4733 0.994938 -1.482 0
M  V30 831 C 78.5733 1.80661 -2.86731 0
M  V30 832 C 77.7463 1.44314 -4.12907 0
M  V30 833 C 76.8053 2.52845 -4.61472 0
M  V30 834 O 75.8313 2.17054 -5.2619 0
M  V30 835 N 77.0333 3.83748 -4.35566 0
M  V30 836 H 79.7983 0.000709447 -2.997 0
M  V30 837 H 77.3593 -0.145132 -1.61248 0
M  V30 838 H 79.3513 2.52655 -3.16145 0
M  V30 839 H 77.9213 2.29245 -2.12521 0
M  V30 840 H 77.1413 0.554906 -3.90275 0
M  V30 841 H 78.4293 1.17598 -4.95023 0
M  V30 842 H 77.8273 4.15625 -3.83761 0
M  V30 843 H 76.3843 4.51977 -4.69638 0
M  V30 844 N 79.8174 1.5752 -0.0501392 0
M  V30 845 C 80.7674 2.07981 0.934231 0
M  V30 846 C 81.7514 0.984745 1.27246 0
M  V30 847 O 82.9434 1.24809 1.25506 0
M  V30 848 C 80.0724 2.62751 2.20945 0
M  V30 849 C 79.1584 3.79225 1.89865 0
M  V30 850 N 79.5494 4.89036 1.29142 0
M  V30 851 C 77.8474 3.88111 2.19741 0
M  V30 852 C 78.5484 5.70084 1.15669 0
M  V30 853 N 77.5244 5.17659 1.65923 0
M  V30 854 H 81.3264 2.90277 0.460053 0
M  V30 855 H 78.8404 1.61665 0.15434 0
M  V30 856 H 80.8374 2.97205 2.9236 0
M  V30 857 H 79.4974 1.81894 2.6897 0
M  V30 858 H 80.5084 5.08854 0.963756 0
M  V30 859 H 77.1854 3.18194 2.70293 0
M  V30 860 H 78.5754 6.68395 0.685356 0
M  V30 861 N 81.2955 -0.223234 1.56011 0
M  V30 862 C 82.5435 -0.946003 1.78592 0
M  V30 863 C 82.8645 -1.84936 0.618349 0
M  V30 864 O 82.1345 -1.92473 -0.364833 0
M  V30 865 H 80.7145 -0.352298 0.658707 0
M  V30 866 H 83.3765 -0.235494 1.93472 0
M  V30 867 H 82.4725 -1.55381 2.70672 0
M  V30 868 N 82.7736 -1.49793 -0.48987 0
M  V30 869 C 83.7206 -1.67281 -1.59014 0
M  V30 870 C 84.6906 -0.514177 -1.57941 0
M  V30 871 O 85.8756 -0.742533 -1.75759 0
M  V30 872 C 83.0156 -1.75569 -2.97102 0
M  V30 873 C 82.1286 -3.0281 -3.08107 0
M  V30 874 C 81.2636 -3.02008 -4.36995 0
M  V30 875 C 80.3026 -4.23782 -4.41673 0
M  V30 876 N 79.4396 -4.20826 -5.62005 0
M  V30 877 H 84.2796 -2.61224 -1.43409 0
M  V30 878 H 81.8166 -1.29508 -0.697565 0
M  V30 879 H 83.7746 -1.78354 -3.77155 0
M  V30 880 H 82.4046 -0.850827 -3.11385 0
M  V30 881 H 81.4566 -3.09584 -2.21047 0
M  V30 882 H 82.7686 -3.92801 -3.07423 0
M  V30 883 H 81.9226 -3.03418 -5.25378 0
M  V30 884 H 80.6616 -2.09815 -4.4026 0
M  V30 885 H 79.6666 -4.22604 -3.5169 0
M  V30 886 H 80.8916 -5.17181 -4.40115 0
M  V30 887 H 78.8376 -3.31476 -5.66091 0
M  V30 888 H 78.7546 -5.04564 -5.62984 0
M  V30 889 H 80.0226 -4.26355 -6.52565 0
M  V30 890 N 84.2517 0.741722 -1.39055 0
M  V30 891 C 85.4797 1.53098 -1.39171 0
M  V30 892 C 85.8947 1.88794 0.0155099 0
M  V30 893 O 85.2517 1.53626 0.985159 0
M  V30 894 C 85.3027 2.82274 -2.2584 0
M  V30 895 O 85.0237 2.48097 -3.61081 0
M  V30 896 C 86.5247 3.76343 -2.34266 0
M  V30 897 H 83.7447 0.473335 -0.4756 0
M  V30 898 H 86.2887 0.917045 -1.82785 0
M  V30 899 H 84.4437 3.40015 -1.85656 0
M  V30 900 H 84.8577 3.31029 -4.06842 0
M  V30 901 H 86.3317 4.63898 -2.9917 0
M  V30 902 H 86.8087 4.17619 -1.35982 0
M  V30 903 H 87.4147 3.24523 -2.74891 0
M  V30 904 N 85.7298 1.2412 0.971189 0
M  V30 905 C 86.9758 1.08041 1.71625 0
M  V30 906 C 87.3088 -0.380407 1.90438 0
M  V30 907 O 86.5838 -1.28127 1.46334 0
M  V30 908 C 86.8668 1.81682 3.10908 0
M  V30 909 C 86.7198 3.35493 2.99608 0
M  V30 910 C 88.0388 1.58671 4.10501 0
M  V30 911 H 85.1578 0.39388 0.622919 0
M  V30 912 H 87.7998 1.52743 1.13003 0
M  V30 913 H 85.9498 1.43684 3.60953 0
M  V30 914 H 87.6218 3.83068 2.57015 0
M  V30 915 H 85.8648 3.64052 2.35899 0
M  V30 916 H 86.5358 3.82217 3.98264 0
M  V30 917 H 89.0118 1.91719 3.69301 0
M  V30 918 H 87.8878 2.1266 5.06031 0
M  V30 919 H 88.1488 0.524161 4.38982 0
M  V30 920 N 87.2079 -1.17134 1.05439 0
M  V30 921 C 88.4539 -1.87733 0.767077 0
M  V30 922 C 88.7869 -1.8098 -0.704253 0
M  V30 923 O 88.0619 -1.21951 -1.5152 0
M  V30 924 C 88.3449 -3.37659 1.25133 0
M  V30 925 C 88.1979 -3.53149 2.78578 0
M  V30 926 C 89.5169 -4.31768 0.852324 0
M  V30 927 H 86.6359 -0.681687 0.280129 0
M  V30 928 H 89.2779 -1.37732 1.30881 0
M  V30 929 H 87.4279 -3.80373 0.790469 0
M  V30 930 H 89.0999 -3.19434 3.32806 0
M  V30 931 H 87.3429 -2.95345 3.17732 0
M  V30 932 H 88.0139 -4.58403 3.07523 0
M  V30 933 H 90.4899 -3.96909 1.24911 0
M  V30 934 H 89.3659 -5.35199 1.21873 0
M  V30 935 H 89.6269 -4.41429 -0.243485 0
M  V30 936 N 88.686 -0.835752 -1.33615 0
M  V30 937 C 89.934 -0.429109 -1.97492 0
M  V30 938 C 90.255 1.01433 -1.66543 0
M  V30 939 O 89.525 1.70611 -0.962744 0
M  V30 940 H 88.105 -0.155686 -0.730596 0
M  V30 941 H 90.767 -1.06802 -1.63031 0
M  V30 942 H 89.863 -0.55861 -3.0706 0
M  V30 943 N 90.1641 1.46063 -0.591896 0
M  V30 944 C 91.0961 2.28539 0.174001 0
M  V30 945 C 92.1091 1.39047 0.846753 0
M  V30 946 O 93.2981 1.63564 0.714774 0
M  V30 947 C 90.3981 3.14347 1.26645 0
M  V30 948 C 89.5711 4.32021 0.683856 0
M  V30 949 C 88.6301 4.99157 1.66518 0
M  V30 950 O 87.6561 5.56458 1.19763 0
M  V30 951 N 88.8581 4.97005 2.99943 0
M  V30 952 H 91.6231 2.94911 -0.533633 0
M  V30 953 H 89.1841 1.56077 -0.430294 0
M  V30 954 H 91.1761 3.56125 1.92242 0
M  V30 955 H 89.7461 2.49988 1.87682 0
M  V30 956 H 88.9661 3.93915 -0.1498 0
M  V30 957 H 90.2541 5.08059 0.274567 0
M  V30 958 H 89.6521 4.51714 3.40545 0
M  V30 959 H 88.2091 5.42696 3.61004 0
M  V30 960 N 91.6422 0.330177 1.54103 0
M  V30 961 C 92.8912 -0.271336 1.99867 0
M  V30 962 C 93.2042 -1.52723 1.22209 0
M  V30 963 O 94.4102 -2.20515 1.58383 0
M  V30 964 C 92.8662 -0.534032 3.55916 0
M  V30 965 C 92.4742 0.705193 4.42415 0
M  V30 966 C 94.2182 -1.09514 4.1013 0
M  V30 967 C 92.1252 0.414035 5.89949 0
M  V30 968 H 91.0552 -0.105166 0.74663 0
M  V30 969 H 93.7062 0.443429 1.78062 0
M  V30 970 H 92.0882 -1.30915 3.73734 0
M  V30 971 H 93.2622 1.4804 4.36372 0
M  V30 972 H 91.5772 1.18698 3.99124 0
M  V30 973 H 94.1742 -1.3277 5.17954 0
M  V30 974 H 94.5172 -2.04656 3.62521 0
M  V30 975 H 95.0502 -0.381038 3.95971 0
M  V30 976 H 91.7892 1.33481 6.41766 0
M  V30 977 H 91.3092 -0.323336 5.98928 0
M  V30 978 H 92.9882 0.0263105 6.46995 0
M  V30 979 N 93.1203 -1.57491 0.0584922 0
M  V30 980 C 94.3483 -1.97296 -0.623037 0
M  V30 981 C 94.7633 -0.936338 -1.63946 0
M  V30 982 O 94.1203 0.0785981 -1.82331 0
M  V30 983 C 94.1713 -3.37183 -1.30345 0
M  V30 984 O 93.8923 -4.36872 -0.32773 0
M  V30 985 C 95.3933 -3.91788 -2.07406 0
M  V30 986 H 92.6133 -0.649153 -0.169826 0
M  V30 987 H 95.1573 -2.04106 0.12696 0
M  V30 988 H 93.3123 -3.31502 -2.00463 0
M  V30 989 H 93.7263 -5.18141 -0.814269 0
M  V30 990 H 95.2003 -4.91926 -2.50425 0
M  V30 991 H 95.6773 -3.27609 -2.92521 0
M  V30 992 H 96.2833 -4.00829 -1.42184 0
M  V30 993 N 94.5984 0.214957 -1.56127 0
M  V30 994 C 95.8444 0.939762 -1.79712 0
M  V30 995 C 96.1774 1.83723 -0.629247 0
M  V30 996 O 95.4524 1.90925 0.371197 0
M  V30 997 C 95.7354 1.77306 -3.13424 0
M  V30 998 C 95.5884 0.90164 -4.40671 0
M  V30 999 C 96.9074 2.74956 -3.43638 0
M  V30 1000 H 94.0264 0.340214 -0.653776 0
M  V30 1001 H 96.6684 0.20824 -1.88855 0
M  V30 1002 H 94.8184 2.39673 -3.0576 0
M  V30 1003 H 96.4904 0.294206 -4.60361 0
M  V30 1004 H 94.7334 0.207368 -4.33304 0
M  V30 1005 H 95.4044 1.51923 -5.30682 0
M  V30 1006 H 97.8804 2.22724 -3.51473 0
M  V30 1007 H 96.7564 3.30358 -4.38355 0
M  V30 1008 H 97.0174 3.53023 -2.66134 0
M  V30 1009 N 96.0765 1.50051 0.48192 0
M  V30 1010 C 97.3535 1.51009 1.2432 0
M  V30 1011 C 97.7335 0.248587 2.09631 0
M  V30 1012 O 97.0815 -0.768409 2.15192 0
M  V30 1013 C 97.2915 2.79981 2.08355 0
M  V30 1014 C 98.6395 3.3022 2.66908 0
M  V30 1015 O 99.6635 2.81228 2.18607 0
M  V30 1016 O 98.5225 4.15595 3.54884 0
M  V30 1017 H 95.6165 0.605239 0.563573 0
M  V30 1018 H 98.1625 1.62332 0.494627 0
M  V30 1019 H 96.9345 3.63275 1.45419 0
M  V30 1020 H 96.5575 2.7161 2.90368 0
M  V30 1021 N 97.5546 -0.734337 1.39446 0
M  V30 1022 C 98.4876 -1.85715 1.32609 0
M  V30 1023 C 99.4656 -1.6137 0.199636 0
M  V30 1024 O 100.65 -1.84626 0.380195 0
M  V30 1025 C 97.7766 -3.21709 1.05929 0
M  V30 1026 C 96.8226 -3.64913 2.20773 0
M  V30 1027 S 97.6556 -3.74203 3.83056 0
M  V30 1028 C 98.8116 -5.12986 3.58603 0
M  V30 1029 H 99.0446 -1.91232 2.27635 0
M  V30 1030 H 96.5776 -0.899263 1.25509 0
M  V30 1031 H 98.5356 -4.00236 0.912203 0
M  V30 1032 H 97.1966 -3.13848 0.125883 0
M  V30 1033 H 96.3896 -4.63606 1.97699 0
M  V30 1034 H 95.9916 -2.93593 2.31688 0
M  V30 1035 H 98.2836 -5.99339 3.15909 0
M  V30 1036 H 99.2266 -5.41088 4.5676 0
M  V30 1037 H 99.6346 -4.82694 2.9269 0
M  V30 1038 N 99.0327 -1.24633 -0.964593 0
M  V30 1039 C 99.9657 -0.984662 -2.05863 0
M  V30 1040 C 100.944 0.0826554 -1.6239 0
M  V30 1041 O 102.128 -0.0549296 -1.8842 0
M  V30 1042 C 99.2547 -0.486529 -3.35187 0
M  V30 1043 C 98.3007 -1.54286 -3.97615 0
M  V30 1044 S 99.1337 -3.12513 -4.34851 0
M  V30 1045 C 100.29 -2.6441 -5.67308 0
M  V30 1046 H 100.523 -1.91104 -2.27743 0
M  V30 1047 H 98.0557 -1.08052 -1.10291 0
M  V30 1048 H 100.014 -0.205757 -4.09984 0
M  V30 1049 H 98.6747 0.419186 -3.1129 0
M  V30 1050 H 97.8677 -1.14481 -4.90826 0
M  V30 1051 H 97.4697 -1.7738 -3.2926 0
M  V30 1052 H 99.7617 -2.07416 -6.44969 0
M  V30 1053 H 100.705 -3.56222 -6.11973 0
M  V30 1054 H 101.113 -2.04734 -5.26065 0
M  V30 1055 N 100.511 1.16574 -1.06058 0
M  V30 1056 C 101.741 1.90675 -0.795397 0
M  V30 1057 C 102.149 1.77547 0.653735 0
M  V30 1058 O 101.492 1.11611 1.45907 0
M  V30 1059 C 101.554 3.42011 -1.10764 0
M  V30 1060 C 101.218 3.78924 -2.55471 0
M  V30 1061 C 102.215 3.81042 -3.53699 0
M  V30 1062 C 99.8998 4.09626 -2.90708 0
M  V30 1063 C 101.894 4.13346 -4.85205 0
M  V30 1064 C 99.5808 4.41597 -4.22416 0
M  V30 1065 C 100.579 4.43436 -5.19474 0
M  V30 1066 O 100.267 4.74649 -6.48817 0
M  V30 1067 H 99.9988 0.611554 -0.288058 0
M  V30 1068 H 102.553 1.48711 -1.41683 0
M  V30 1069 H 100.783 3.84312 -0.429128 0
M  V30 1070 H 102.472 3.97384 -0.827077 0
M  V30 1071 H 103.238 3.57437 -3.27817 0
M  V30 1072 H 99.1168 4.07361 -2.15819 0
M  V30 1073 H 102.661 4.14696 -5.60957 0
M  V30 1074 H 98.5578 4.64667 -4.48056 0
M  V30 1075 H 99.3258 4.9247 -6.5377 0
M  V30 1076 N 101.989 0.842826 1.3317 0
M  V30 1077 C 103.237 0.439577 1.97262 0
M  V30 1078 C 103.558 -1.00548 1.67078 0
M  V30 1079 O 102.828 -1.70098 0.971779 0
M  V30 1080 H 101.408 0.159558 0.72976 0
M  V30 1081 H 104.07 1.07665 1.62463 0
M  V30 1082 H 103.166 0.574886 3.0676 0
M  V30 1083 N 103.467 -1.45747 0.599634 0
M  V30 1084 C 104.715 -2.01893 0.0915472 0
M  V30 1085 C 105.036 -1.47155 -1.27946 0
M  V30 1086 O 104.306 -0.66273 -1.84349 0
M  V30 1087 H 102.886 -0.746363 0.0308524 0
M  V30 1088 H 105.548 -1.78645 0.779237 0
M  V30 1089 H 104.644 -3.1208 0.0353086 0
M  V30 1090 N 104.945 -0.338344 -1.53925 0
M  V30 1091 C 105.878 0.563758 -2.21127 0
M  V30 1092 C 106.856 1.10433 -1.19345 0
M  V30 1093 O 108.04 1.16557 -1.48144 0
M  V30 1094 C 105.167 1.77505 -2.88461 0
M  V30 1095 C 104.213 1.3644 -4.04087 0
M  V30 1096 S 105.046 0.388593 -5.34088 0
M  V30 1097 C 106.202 1.60683 -6.04923 0
M  V30 1098 H 106.435 -0.00704546 -2.97299 0
M  V30 1099 H 103.968 -0.122418 -1.53914 0
M  V30 1100 H 105.926 2.46999 -3.27875 0
M  V30 1101 H 104.587 2.31706 -2.12064 0
M  V30 1102 H 103.78 2.26739 -4.50117 0
M  V30 1103 H 103.382 0.748998 -3.66423 0
M  V30 1104 H 105.674 2.54209 -6.28 0
M  V30 1105 H 106.617 1.18842 -6.98056 0
M  V30 1106 H 107.025 1.80052 -5.35015 0
M  V30 1107 N 106.423 1.57458 -0.0668435 0
M  V30 1108 C 107.839 1.56947 0.289772 0
M  V30 1109 C 108.039 1.07584 1.70376 0
M  V30 1110 O 107.095 0.739486 2.41429 0
M  V30 1111 C 108.408 3.0052 0.103943 0
M  V30 1112 C 109.956 3.12517 0.173857 0
M  V30 1113 C 110.431 4.57997 0.0163682 0
M  V30 1114 N 111.922 4.63144 0.0721352 0
M  V30 1115 C 112.657 5.73394 -0.0253794 0
M  V30 1116 N 112.153 6.92576 -0.176133 0
M  V30 1117 N 113.946 5.62091 0.0313305 0
M  V30 1118 H 106.097 1.87863 -0.991027 0
M  V30 1119 H 108.36 0.86583 -0.38606 0
M  V30 1120 H 108.066 3.40729 -0.871572 0
M  V30 1121 H 107.94 3.67304 0.858366 0
M  V30 1122 H 110.327 2.72197 1.13985 0
M  V30 1123 H 110.408 2.48381 -0.611586 0
M  V30 1124 H 110.052 4.99005 -0.946374 0
M  V30 1125 H 109.982 5.20158 0.821153 0
M  V30 1126 H 112.473 3.77436 0.187263 0
M  V30 1127 H 112.786 7.72418 -0.242821 0
M  V30 1128 H 111.131 6.94678 -0.211429 0
M  V30 1129 H 114.322 4.67867 0.147773 0
M  V30 1130 H 114.495 6.47982 -0.048121 0
M  V30 1131 N 107.901 -0.206675 1.56239 0
M  V30 1132 C 109.149 -0.927007 1.79586 0
M  V30 1133 C 109.47 -1.8427 0.637929 0
M  V30 1134 O 108.74 -1.92849 -0.344398 0
M  V30 1135 H 107.32 -0.345292 0.662407 0
M  V30 1136 H 109.982 -0.21496 1.93711 0
M  V30 1137 H 109.078 -1.52501 2.72305 0
M  V30 1138 N 109.379 -1.50304 -0.473955 0
M  V30 1139 C 110.312 -1.63595 -1.59097 0
M  V30 1140 C 111.29 -0.484142 -1.55225 0
M  V30 1141 O 112.474 -0.703271 -1.7489 0
M  V30 1142 C 109.601 -1.61589 -2.97669 0
M  V30 1143 C 108.647 -2.82295 -3.19705 0
M  V30 1144 S 109.48 -4.43635 -2.99913 0
M  V30 1145 C 110.636 -4.44317 -4.40832 0
M  V30 1146 H 110.869 -2.58082 -1.47583 0
M  V30 1147 H 108.402 -1.39531 -0.661087 0
M  V30 1148 H 110.36 -1.61116 -3.7756 0
M  V30 1149 H 109.021 -0.683421 -3.06575 0
M  V30 1150 H 108.214 -2.77188 -4.20931 0
M  V30 1151 H 107.816 -2.8032 -2.47582 0
M  V30 1152 H 110.108 -4.17703 -5.33414 0
M  V30 1153 H 111.051 -5.45911 -4.50984 0
M  V30 1154 H 111.459 -3.74059 -4.22777 0
M  V30 1155 N 110.857 0.726932 -1.39834 0
M  V30 1156 C 111.804 1.841 -1.39197 0
M  V30 1157 C 112.774 1.642 -0.250502 0
M  V30 1158 O 113.959 1.85494 -0.446846 0
M  V30 1159 C 111.099 3.21697 -1.24919 0
M  V30 1160 C 110.212 3.53247 -2.48678 0
M  V30 1161 C 109.347 4.80289 -2.26928 0
M  V30 1162 C 108.386 5.04707 -3.4632 0
M  V30 1163 N 107.523 6.22956 -3.23836 0
M  V30 1164 H 112.363 1.83979 -2.34427 0
M  V30 1165 H 109.9 0.898876 -1.16442 0
M  V30 1166 H 111.858 4.01137 -1.1465 0
M  V30 1167 H 110.488 3.21076 -0.333153 0
M  V30 1168 H 109.54 2.68447 -2.69519 0
M  V30 1169 H 110.852 3.67205 -3.37582 0
M  V30 1170 H 110.006 5.67725 -2.13947 0
M  V30 1171 H 108.745 4.68519 -1.35431 0
M  V30 1172 H 107.75 4.1573 -3.5979 0
M  V30 1173 H 108.975 5.18357 -4.38729 0
M  V30 1174 H 106.921 6.12459 -2.35011 0
M  V30 1175 H 106.838 6.37539 -4.063 0
M  V30 1176 H 108.106 7.1321 -3.14566 0
M  V30 1177 N 112.336 1.25143 0.95797 0
M  V30 1178 C 113.584 1.09476 1.69881 0
M  V30 1179 C 113.905 -0.365502 1.91544 0
M  V30 1180 O 113.175 -1.25985 1.50015 0
M  V30 1181 H 111.755 0.402128 0.629525 0
M  V30 1182 H 114.417 1.57214 1.15194 0
M  V30 1183 H 113.513 1.60046 2.6794 0
M  V30 1184 N 113.814 -1.1601 1.06675 0
M  V30 1185 C 114.744 -2.22688 0.702307 0
M  V30 1186 C 115.725 -1.67306 -0.307032 0
M  V30 1187 O 116.91 -1.93352 -0.181305 0
M  V30 1188 C 114.04 -3.47178 0.092038 0
M  V30 1189 C 112.994 -4.15477 1.02777 0
M  V30 1190 C 112.32 -5.33963 0.28061 0
M  V30 1191 C 113.62 -4.66019 2.35846 0
M  V30 1192 H 115.314 -2.53429 1.59419 0
M  V30 1193 H 112.86 -1.21813 0.767961 0
M  V30 1194 H 114.813 -4.21037 -0.174814 0
M  V30 1195 H 113.537 -3.15749 -0.834877 0
M  V30 1196 H 112.196 -3.43549 1.27944 0
M  V30 1197 H 111.844 -4.98788 -0.649545 0
M  V30 1198 H 111.544 -5.806 0.904258 0
M  V30 1199 H 113.068 -6.10596 0.021396 0
M  V30 1200 H 114.482 -5.3144 2.15045 0
M  V30 1201 H 112.879 -5.23293 2.93743 0
M  V30 1202 H 113.949 -3.82023 2.98641 0
M  V30 1203 N 115.292 -0.849877 -1.32721 0
M  V30 1204 C 116.538 -0.451591 -1.97708 0
M  V30 1205 C 116.871 0.989175 -1.6712 0
M  V30 1206 O 116.146 1.69334 -0.956891 0
M  V30 1207 C 116.429 -0.685598 -3.53513 0
M  V30 1208 C 116.282 -2.17444 -3.93749 0
M  V30 1209 C 117.601 -0.138874 -4.39881 0
M  V30 1210 H 114.72 -0.16555 -0.718166 0
M  V30 1211 H 117.362 -1.06742 -1.57182 0
M  V30 1212 H 115.512 -0.161416 -3.88165 0
M  V30 1213 H 117.184 -2.76433 -3.693 0
M  V30 1214 H 115.427 -2.65476 -3.43081 0
M  V30 1215 H 116.098 -2.28888 -5.02309 0
M  V30 1216 H 118.574 -0.587068 -4.11938 0
M  V30 1217 H 117.45 -0.332213 -5.47894 0
M  V30 1218 H 117.711 0.95806 -4.31594 0
M  V30 1219 N 116.77 1.45427 -0.607355 0
M  V30 1220 C 118 2.06314 -0.108656 0
M  V30 1221 C 118.408 1.45269 1.21217 0
M  V30 1222 O 117.751 0.561115 1.74921 0
M  V30 1223 C 117.813 3.59345 0.105618 0
M  V30 1224 C 117.477 4.42723 -1.13337 0
M  V30 1225 C 118.474 4.77715 -2.05145 0
M  V30 1226 C 116.159 4.83478 -1.36213 0
M  V30 1227 C 118.153 5.52317 -3.18158 0
M  V30 1228 C 115.84 5.57835 -2.49527 0
M  V30 1229 C 116.838 5.92171 -3.40327 0
M  V30 1230 O 116.526 6.65019 -4.51669 0
M  V30 1231 H 116.258 0.672782 -0.0658842 0
M  V30 1232 H 118.812 1.87664 -0.834945 0
M  V30 1233 H 117.042 3.76394 0.886796 0
M  V30 1234 H 118.731 4.02076 0.555886 0
M  V30 1235 H 119.497 4.46787 -1.88697 0
M  V30 1236 H 115.376 4.56188 -0.664362 0
M  V30 1237 H 118.92 5.79036 -3.89054 0
M  V30 1238 H 114.817 5.88177 -2.65928 0
M  V30 1239 H 115.585 6.83469 -4.50348 0
M  V30 1240 N 118.248 0.346503 1.53744 0
M  V30 1241 C 119.158 -0.517293 2.28826 0
M  V30 1242 C 120.174 -1.10935 1.3405 0
M  V30 1243 O 121.35 -1.1244 1.6709 0
M  V30 1244 C 118.415 -1.65098 3.04866 0
M  V30 1245 C 117.476 -1.0884 4.15274 0
M  V30 1246 C 116.709 -2.16806 4.87679 0
M  V30 1247 O 116.932 -3.3758 4.59778 0
M  V30 1248 O 115.866 -1.80934 5.74061 0
M  V30 1249 H 119.692 0.0931396 3.03557 0
M  V30 1250 H 117.277 0.111458 1.48984 0
M  V30 1251 H 119.159 -2.31053 3.5241 0
M  V30 1252 H 117.834 -2.24717 2.32989 0
M  V30 1253 H 116.741 -0.3933 3.72027 0
M  V30 1254 H 118.074 -0.537036 4.89261 0
M  V30 1255 N 119.726 -1.57421 0.075193 0
M  V30 1256 C 120.954 -1.97946 -0.602076 0
M  V30 1257 C 121.369 -0.953674 -1.62943 0
M  V30 1258 O 120.726 0.0592551 -1.82404 0
M  V30 1259 C 120.777 -3.38546 -1.26762 0
M  V30 1260 O 120.498 -4.37195 -0.281376 0
M  V30 1261 C 121.999 -3.93966 -2.03239 0
M  V30 1262 H 119.219 -0.650918 -0.162931 0
M  V30 1263 H 121.763 -2.03959 0.148601 0
M  V30 1264 H 119.918 -3.33609 -1.96936 0
M  V30 1265 H 120.332 -5.18975 -0.759267 0
M  V30 1266 H 121.806 -4.94555 -2.45193 0
M  V30 1267 H 122.283 -3.30693 -2.8903 0
M  V30 1268 H 122.889 -4.02315 -1.37924 0
M  V30 1269 N 121.204 0.198386 -1.56346 0
M  V30 1270 C 122.429 0.939682 -1.84891 0
M  V30 1271 C 122.854 1.76202 -0.658369 0
M  V30 1272 O 122.212 1.76993 0.392851 0
M  V30 1273 C 122.26 1.81428 -3.11635 0
M  V30 1274 O 121.364 2.91265 -2.91956 0
M  V30 1275 H 120.705 0.264807 -0.608912 0
M  V30 1276 H 123.235 0.204695 -2.03573 0
M  V30 1277 H 123.245 2.21958 -3.42343 0
M  V30 1278 H 121.92 1.21004 -3.97908 0
M  V30 1279 H 120.497 2.54514 -2.72538 0
M  V30 1280 N 122.682 1.50554 0.465978 0
M  V30 1281 C 123.928 1.62038 1.21949 0
M  V30 1282 C 124.261 0.322116 1.9151 0
M  V30 1283 O 123.536 -0.676723 1.82348 0
M  V30 1284 C 123.819 2.80421 2.25912 0
M  V30 1285 C 123.672 4.20144 1.60622 0
M  V30 1286 C 124.991 2.94354 3.27176 0
M  V30 1287 H 122.11 0.589752 0.441998 0
M  V30 1288 H 124.752 1.82956 0.51257 0
M  V30 1289 H 122.902 2.62717 2.86203 0
M  V30 1290 H 124.574 4.49449 1.03889 0
M  V30 1291 H 122.817 4.24165 0.909211 0
M  V30 1292 H 123.488 4.98914 2.36196 0
M  V30 1293 H 125.964 3.10578 2.76913 0
M  V30 1294 H 124.84 3.788 3.97242 0
M  V30 1295 H 125.101 2.05186 3.916 0
M  V30 1296 N 124.16 -0.719506 1.40217 0
M  V30 1297 C 125.09 -1.8465 1.42922 0
M  V30 1298 C 126.071 -1.67599 0.29062 0
M  V30 1299 O 127.256 -1.87688 0.498677 0
M  V30 1300 C 124.386 -3.22565 1.28722 0
M  V30 1301 C 123.34 -3.54281 2.40144 0
M  V30 1302 C 122.666 -4.91298 2.11023 0
M  V30 1303 C 123.966 -3.55676 3.82481 0
M  V30 1304 H 125.66 -1.82644 2.37237 0
M  V30 1305 H 123.206 -0.877305 1.1419 0
M  V30 1306 H 125.159 -4.01095 1.29232 0
M  V30 1307 H 123.883 -3.25137 0.308811 0
M  V30 1308 H 122.542 -2.78088 2.38877 0
M  V30 1309 H 122.19 -4.90468 1.11582 0
M  V30 1310 H 121.89 -5.13485 2.8567 0
M  V30 1311 H 123.414 -5.72166 2.13209 0
M  V30 1312 H 124.828 -4.24254 3.85592 0
M  V30 1313 H 123.225 -3.89388 4.56614 0
M  V30 1314 H 124.295 -2.55144 4.12346 0
M  V30 1315 N 125.638 -1.25649 -0.95132 0
M  V30 1316 C 126.915 -1.01361 -1.67288 0
M  V30 1317 C 127.295 0.459135 -2.06046 0
M  V30 1318 O 126.643 1.43723 -1.7764 0
M  V30 1319 C 126.853 -1.95256 -2.89268 0
M  V30 1320 C 128.201 -2.23289 -3.61147 0
M  V30 1321 O 129.225 -1.93041 -2.99355 0
M  V30 1322 O 128.084 -2.74741 -4.72419 0
M  V30 1323 H 125.178 -0.38464 -0.732107 0
M  V30 1324 H 127.724 -1.36817 -1.00395 0
M  V30 1325 H 126.496 -2.94685 -2.57442 0
M  V30 1326 H 126.119 -1.60218 -3.6389 0
M  V30 1327 N 127.117 1.15442 -1.07289 0
M  V30 1328 C 128.528 1.67803 -0.818475 0
M  V30 1329 C 128.879 1.8489 0.656507 0
M  V30 1330 O 128.004 1.55176 1.50829 0
M  V30 1331 C 128.599 3.04805 -1.47917 0
M  V30 1332 C 127.158 3.54245 -1.27229 0
M  V30 1333 C 126.305 2.29986 -1.54925 0
M  V30 1334 H 129.256 0.996646 -1.23502 0
M  V30 1335 H 129.277 3.69702 -0.90005 0
M  V30 1336 H 128.789 2.92336 -2.55267 0
M  V30 1337 H 126.89 3.71956 -0.21899 0
M  V30 1338 H 127.003 4.35723 -1.99203 0
M  V30 1339 H 125.367 2.35496 -0.970242 0
M  V30 1340 H 126.15 2.20105 -2.63455 0
M  V30 1341 N 128.595 0.856903 1.32268 0
M  V30 1342 C 129.872 0.382583 1.91822 0
M  V30 1343 C 130.252 -1.13407 1.78051 0
M  V30 1344 O 129.6 -1.95673 1.18001 0
M  V30 1345 C 129.81 0.849446 3.38505 0
M  V30 1346 C 131.158 0.867936 4.15634 0
M  V30 1347 O 132.182 0.794232 3.47232 0
M  V30 1348 O 131.041 0.972286 5.37781 0
M  V30 1349 H 128.135 0.112014 0.819379 0
M  V30 1350 H 130.681 0.943952 1.41024 0
M  V30 1351 H 129.453 1.89267 3.42482 0
M  V30 1352 H 129.076 0.265652 3.96712 0
M  V30 1353 N 130.073 -1.45103 0.615059 0
M  V30 1354 C 130.983 -2.34382 -0.101034 0
M  V30 1355 C 131.999 -1.51681 -0.852585 0
M  V30 1356 O 133.175 -1.8446 -0.808484 0
M  V30 1357 C 130.24 -3.29417 -1.08099 0
M  V30 1358 C 129.301 -4.28025 -0.330577 0
M  V30 1359 C 128.534 -5.1852 -1.26385 0
M  V30 1360 O 128.757 -5.12598 -2.50198 0
M  V30 1361 O 127.691 -5.97122 -0.756866 0
M  V30 1362 H 131.517 -2.97033 0.632855 0
M  V30 1363 H 129.102 -1.4461 0.375293 0
M  V30 1364 H 130.984 -3.87958 -1.6452 0
M  V30 1365 H 129.659 -2.69321 -1.79577 0
M  V30 1366 H 128.566 -3.73078 0.276283 0
M  V30 1367 H 129.899 -4.90997 0.343866 0
M  V30 1368 N 131.551 -0.354651 -1.53558 0
M  V30 1369 C 132.799 0.237972 -2.00694 0
M  V30 1370 C 133.12 1.50173 -1.24391 0
M  V30 1371 O 132.39 1.92673 -0.354135 0
M  V30 1372 H 130.97 0.0909256 -0.741446 0
M  V30 1373 H 133.632 -0.478368 -1.88938 0
M  V30 1374 H 132.728 0.47264 -3.085 0
M  V30 1375 N 133.029 1.57378 -0.0835403 0
M  V30 1376 C 134.278 1.93106 0.582498 0
M  V30 1377 C 134.591 0.96651 1.70053 0
M  V30 1378 O 135.797 1.21705 2.42693 0
M  V30 1379 C 134.253 3.43076 1.08751 0
M  V30 1380 C 133.861 4.48 -0.000146404 0
M  V30 1381 C 135.605 3.87785 1.72694 0
M  V30 1382 C 133.512 5.89113 0.519568 0
M  V30 1383 H 132.442 0.720775 0.221358 0
M  V30 1384 H 135.093 1.82821 -0.157675 0
M  V30 1385 H 133.475 3.48474 1.88101 0
M  V30 1386 H 134.649 4.54233 -0.775199 0
M  V30 1387 H 132.964 4.1283 -0.54406 0
M  V30 1388 H 135.561 4.90604 2.1263 0
M  V30 1389 H 135.904 3.25796 2.59158 0
M  V30 1390 H 136.437 3.8504 0.999457 0
M  V30 1391 H 133.176 6.54775 -0.308186 0
M  V30 1392 H 132.696 5.86376 1.26188 0
M  V30 1393 H 134.375 6.39346 0.992237 0
M  V30 1394 N 134.507 -0.190092 1.56449 0
M  V30 1395 C 135.923 -0.54113 1.50146 0
M  V30 1396 C 136.123 -1.85603 0.784465 0
M  V30 1397 O 135.179 -2.5024 0.337051 0
M  V30 1398 C 136.492 -0.591241 2.9483 0
M  V30 1399 C 138.04 -0.679732 3.0553 0
M  V30 1400 C 138.515 -0.760908 4.51635 0
M  V30 1401 N 140.006 -0.824302 4.55806 0
M  V30 1402 C 140.741 -0.907365 5.66175 0
M  V30 1403 N 140.237 -0.952422 6.86222 0
M  V30 1404 N 142.03 -0.94494 5.541 0
M  V30 1405 H 134.181 0.67235 2.01478 0
M  V30 1406 H 136.444 0.240127 0.917084 0
M  V30 1407 H 136.15 0.305905 3.50367 0
M  V30 1408 H 136.024 -1.44422 3.48457 0
M  V30 1409 H 138.411 -1.56731 2.50039 0
M  V30 1410 H 138.492 0.199549 2.5502 0
M  V30 1411 H 138.136 0.122336 5.07753 0
M  V30 1412 H 138.066 -1.65606 4.99882 0
M  V30 1413 H 140.557 -0.798526 3.69367 0
M  V30 1414 H 140.87 -1.01645 7.66086 0
M  V30 1415 H 139.215 -0.921014 6.8887 0
M  V30 1416 H 142.406 -0.906612 4.59236 0
M  V30 1417 H 142.579 -1.00622 6.4014 0
M  V30 1418 N 135.985 -1.50799 -0.457987 0
M  V30 1419 C 137.232 -1.62442 -1.20908 0
M  V30 1420 C 137.56 -0.330865 -1.91665 0
M  V30 1421 O 136.815 0.68401 -1.83357 0
M  V30 1422 C 137.114 -2.76358 -2.2663 0
M  V30 1423 C 136.78 -4.16378 -1.73033 0
M  V30 1424 C 135.442 -4.54473 -1.58138 0
M  V30 1425 C 137.794 -5.03836 -1.33413 0
M  V30 1426 C 135.122 -5.77754 -1.02065 0
M  V30 1427 C 137.474 -6.27676 -0.78778 0
M  V30 1428 C 136.138 -6.64562 -0.625561 0
M  V30 1429 H 135.408 -0.594417 -0.442435 0
M  V30 1430 H 138.055 -1.84772 -0.503136 0
M  V30 1431 H 136.36 -2.48167 -3.03184 0
M  V30 1432 H 138.057 -2.82568 -2.84528 0
M  V30 1433 H 134.647 -3.86331 -1.85598 0
M  V30 1434 H 138.831 -4.75026 -1.4375 0
M  V30 1435 H 134.087 -6.04997 -0.882547 0
M  V30 1436 H 138.261 -6.94797 -0.472177 0
M  V30 1437 H 135.888 -7.59965 -0.188926 0
M  V30 1438 N 137.463 0.71206 -1.40597 0
M  V30 1439 C 138.879 1.02058 -1.22704 0
M  V30 1440 C 139.079 2.01228 -0.104729 0
M  V30 1441 O 138.135 2.4674 0.53624 0
M  V30 1442 C 139.448 1.56094 -2.57012 0
M  V30 1443 C 140.996 1.6806 -2.64054 0
M  V30 1444 C 141.471 2.25501 -3.9864 0
M  V30 1445 N 142.962 2.32882 -4.004 0
M  V30 1446 C 143.697 2.78317 -5.01325 0
M  V30 1447 N 143.193 3.23478 -6.12645 0
M  V30 1448 N 144.986 2.77733 -4.88693 0
M  V30 1449 H 137.137 0.0547896 -2.12329 0
M  V30 1450 H 139.4 0.0869027 -0.944008 0
M  V30 1451 H 139.106 0.906865 -3.39807 0
M  V30 1452 H 138.98 2.54564 -2.78347 0
M  V30 1453 H 141.367 2.32583 -1.81629 0
M  V30 1454 H 141.448 0.681802 -2.46546 0
M  V30 1455 H 141.092 1.61598 -4.81506 0
M  V30 1456 H 141.022 3.26102 -4.13479 0
M  V30 1457 H 143.513 2.00991 -3.20017 0
M  V30 1458 H 143.826 3.56725 -6.85542 0
M  V30 1459 H 142.171 3.21429 -6.16205 0
M  V30 1460 H 145.362 2.4179 -4.00818 0
M  V30 1461 H 145.535 3.12826 -5.67489 0
M  V30 1462 N 138.941 1.26152 0.944643 0
M  V30 1463 C 140.189 1.11271 1.6871 0
M  V30 1464 C 140.51 -0.345166 1.91921 0
M  V30 1465 O 139.78 -1.24387 1.51343 0
M  V30 1466 H 138.36 0.408783 0.625224 0
M  V30 1467 H 141.022 1.58427 1.1352 0
M  V30 1468 H 140.118 1.62879 2.66227 0
M  V30 1469 N 140.419 -1.14872 1.07899 0
M  V30 1470 C 141.666 -1.85789 0.805532 0
M  V30 1471 C 141.994 -1.82649 -0.668561 0
M  V30 1472 O 141.249 -1.24858 -1.50695 0
M  V30 1473 C 141.548 -3.34223 1.26609 0
M  V30 1474 C 141.214 -3.57555 2.74709 0
M  V30 1475 C 139.876 -3.63631 3.1516 0
M  V30 1476 C 142.228 -3.66803 3.70277 0
M  V30 1477 C 139.556 -3.76473 4.49983 0
M  V30 1478 C 141.908 -3.8117 5.04869 0
M  V30 1479 C 140.572 -3.85494 5.44932 0
M  V30 1480 H 139.842 -0.679849 0.294765 0
M  V30 1481 H 142.489 -1.3572 1.35101 0
M  V30 1482 H 140.794 -3.86536 0.640103 0
M  V30 1483 H 142.491 -3.87511 1.03132 0
M  V30 1484 H 139.081 -3.5347 2.42398 0
M  V30 1485 H 143.265 -3.61404 3.40149 0
M  V30 1486 H 138.521 -3.7808 4.80484 0
M  V30 1487 H 142.695 -3.87268 5.78789 0
M  V30 1488 H 140.322 -3.95197 6.49403 0
M  V30 1489 N 141.898 -0.863906 -1.31812 0
M  V30 1490 C 143.123 -0.48527 -2.01643 0
M  V30 1491 C 143.548 0.913058 -1.64453 0
M  V30 1492 O 142.906 1.6014 -0.849985 0
M  V30 1493 C 142.954 -0.642625 -3.54828 0
M  V30 1494 O 142.058 0.320659 -4.11151 0
M  V30 1495 H 141.399 -0.193793 -0.635091 0
M  V30 1496 H 143.929 -1.16565 -1.68148 0
M  V30 1497 H 143.939 -0.533628 -4.04495 0
M  V30 1498 H 142.614 -1.66227 -3.81237 0
M  V30 1499 H 141.191 0.167126 -3.72525 0
M  V30 1500 N 143.376 1.44774 -0.622745 0
M  V30 1501 C 144.625 2.01334 -0.121397 0
M  V30 1502 C 144.938 1.49505 1.26125 0
M  V30 1503 O 146.144 1.98139 1.85616 0
M  V30 1504 C 144.6 3.59516 -0.166298 0
M  V30 1505 C 144.208 4.20342 -1.54974 0
M  V30 1506 C 145.952 4.23582 0.279021 0
M  V30 1507 C 143.859 5.70721 -1.55021 0
M  V30 1508 H 142.789 0.752851 -0.0416172 0
M  V30 1509 H 145.44 1.66083 -0.780309 0
M  V30 1510 H 143.822 3.92027 0.559557 0
M  V30 1511 H 144.996 3.99381 -2.29851 0
M  V30 1512 H 143.311 3.68529 -1.93843 0
M  V30 1513 H 145.908 5.33868 0.298083 0
M  V30 1514 H 146.251 3.95327 1.30471 0
M  V30 1515 H 146.784 3.95843 -0.394063 0
M  V30 1516 H 143.523 6.03698 -2.55399 0
M  V30 1517 H 143.043 5.93829 -0.844245 0
M  V30 1518 H 144.722 6.34203 -1.28047 0
M  V30 1519 N 144.854 0.36279 1.53368 0
M  V30 1520 C 146.265 -0.117022 1.86333 0
M  V30 1521 C 146.616 -1.48397 1.28347 0
M  V30 1522 O 145.741 -2.07787 0.604428 0
M  V30 1523 C 146.336 -0.21912 3.38091 0
M  V30 1524 C 144.895 -0.643184 3.70864 0
M  V30 1525 C 144.042 0.211318 2.76494 0
M  V30 1526 H 146.993 0.581687 1.47655 0
M  V30 1527 H 147.014 -1.04319 3.6592 0
M  V30 1528 H 146.526 0.775902 3.80265 0
M  V30 1529 H 144.627 -1.64654 3.34245 0
M  V30 1530 H 144.74 -0.41973 4.77258 0
M  V30 1531 H 143.104 -0.319367 2.5269 0
M  V30 1532 H 143.887 1.20383 3.21501 0
M  V30 1533 N 146.332 -1.57332 0.0918853 0
M  V30 1534 C 147.242 -2.17368 -0.882505 0
M  V30 1535 C 148.258 -1.14226 -1.31257 0
M  V30 1536 O 149.434 -1.46582 -1.38115 0
M  V30 1537 C 146.499 -2.73962 -2.12476 0
M  V30 1538 C 145.56 -3.92048 -1.7492 0
M  V30 1539 C 144.793 -4.45933 -2.93223 0
M  V30 1540 O 145.016 -3.98764 -4.07852 0
M  V30 1541 O 143.95 -5.36999 -2.71875 0
M  V30 1542 H 147.776 -3.01031 -0.40172 0
M  V30 1543 H 145.361 -1.48813 -0.132291 0
M  V30 1544 H 147.243 -3.10147 -2.85283 0
M  V30 1545 H 145.918 -1.93347 -2.59613 0
M  V30 1546 H 144.825 -3.6068 -0.993025 0
M  V30 1547 H 146.158 -4.74017 -1.32548 0
M  V30 1548 N 147.81 0.181792 -1.56548 0
M  V30 1549 C 149.05 0.906711 -1.83189 0
M  V30 1550 C 149.414 1.79882 -0.671312 0
M  V30 1551 O 150.615 2.56054 -0.81792 0
M  V30 1552 C 148.886 1.69023 -3.14906 0
M  V30 1553 S 150.445 2.46535 -3.62996 0
M  V30 1554 H 147.263 0.303877 -0.642791 0
M  V30 1555 H 149.865 0.169107 -1.94767 0
M  V30 1556 H 148.569 1.02571 -3.97376 0
M  V30 1557 H 148.1 2.46941 -3.06241 0
M  V30 1558 H 150.115 3.71014 -3.29489 0
M  V30 1559 N 149.288 1.51039 0.449983 0
M  V30 1560 C 150.22 1.67617 1.56324 0
M  V30 1561 C 151.233 0.557083 1.52972 0
M  V30 1562 O 152.422 0.830989 1.57977 0
M  V30 1563 C 149.522 1.66402 2.95235 0
M  V30 1564 C 148.695 2.9469 3.23229 0
M  V30 1565 C 147.754 2.85832 4.41799 0
M  V30 1566 O 146.78 3.59785 4.41071 0
M  V30 1567 N 147.982 2.00821 5.44657 0
M  V30 1568 H 150.747 2.63648 1.42512 0
M  V30 1569 H 148.308 1.48767 0.638737 0
M  V30 1570 H 150.3 1.58062 3.72557 0
M  V30 1571 H 148.87 0.780182 3.02708 0
M  V30 1572 H 148.09 3.16996 2.34323 0
M  V30 1573 H 149.378 3.79636 3.38754 0
M  V30 1574 H 148.776 1.40091 5.48079 0
M  V30 1575 H 147.333 1.98368 6.20881 0
M  V30 1576 N 150.766 -0.704594 1.40972 0
M  V30 1577 C 151.713 -1.81862 1.42109 0
M  V30 1578 C 152.683 -1.63781 0.276593 0
M  V30 1579 O 153.868 -1.84759 0.4763 0
M  V30 1580 C 151.008 -3.19669 1.30022 0
M  V30 1581 C 150.121 -3.49246 2.54267 0
M  V30 1582 C 149.256 -4.76618 2.3454 0
M  V30 1583 C 148.295 -4.99133 3.54306 0
M  V30 1584 N 147.432 -6.17726 3.33706 0
M  V30 1585 H 152.272 -1.80226 2.37324 0
M  V30 1586 H 149.809 -0.880238 1.17857 0
M  V30 1587 H 151.767 -3.99263 1.21018 0
M  V30 1588 H 150.397 -3.20506 0.384192 0
M  V30 1589 H 149.449 -2.64125 2.73756 0
M  V30 1590 H 150.761 -3.61788 3.43381 0
M  V30 1591 H 149.915 -5.64249 2.22952 0
M  V30 1592 H 148.654 -4.66305 1.42867 0
M  V30 1593 H 147.659 -4.09953 3.66359 0
M  V30 1594 H 148.884 -5.11311 4.4692 0
M  V30 1595 H 146.83 -6.08642 2.44725 0
M  V30 1596 H 146.747 -6.30995 4.16391 0
M  V30 1597 H 148.015 -7.08115 3.25873 0
M  V30 1598 N 152.244 -1.26651 -0.937939 0
M  V30 1599 C 153.174 -1.10993 -2.05433 0
M  V30 1600 C 154.155 -0.0142161 -1.70094 0
M  V30 1601 O 155.34 -0.186837 -1.93299 0
M  V30 1602 C 152.47 -0.745561 -3.39203 0
M  V30 1603 C 151.424 -1.79337 -3.88616 0
M  V30 1604 C 150.75 -1.28324 -5.19073 0
M  V30 1605 C 152.05 -3.19553 -4.13138 0
M  V30 1606 H 153.744 -2.0438 -2.1879 0
M  V30 1607 H 151.29 -0.984041 -1.05131 0
M  V30 1608 H 153.243 -0.622888 -4.16771 0
M  V30 1609 H 151.967 0.22401 -3.25831 0
M  V30 1610 H 150.626 -1.90477 -3.13231 0
M  V30 1611 H 150.274 -0.303414 -5.02084 0
M  V30 1612 H 149.974 -1.98369 -5.53103 0
M  V30 1613 H 151.498 -1.1733 -5.99221 0
M  V30 1614 H 152.912 -3.11471 -4.81309 0
M  V30 1615 H 151.309 -3.87218 -4.58457 0
M  V30 1616 H 152.379 -3.65368 -3.18801 0
M  V30 1617 N 153.722 1.14298 -1.08507 0
M  V30 1618 C 154.652 2.21542 -0.737646 0
M  V30 1619 C 155.633 1.67773 0.280377 0
M  V30 1620 O 156.818 1.93616 0.150521 0
M  V30 1621 C 153.948 3.46988 -0.147259 0
M  V30 1622 C 152.902 4.13789 -1.09374 0
M  V30 1623 C 152.228 5.33449 -0.365524 0
M  V30 1624 C 153.528 4.62208 -2.4323 0
M  V30 1625 H 155.222 2.5086 -1.6343 0
M  V30 1626 H 152.768 1.20576 -0.787243 0
M  V30 1627 H 154.721 4.21262 0.107808 0
M  V30 1628 H 153.445 3.17037 0.784538 0
M  V30 1629 H 152.104 3.4147 -1.33393 0
M  V30 1630 H 151.752 4.99759 0.57011 0
M  V30 1631 H 151.452 5.79088 -0.996512 0
M  V30 1632 H 152.976 6.10485 -0.118534 0
M  V30 1633 H 154.39 5.27952 -2.23472 0
M  V30 1634 H 152.787 5.18553 -3.02031 0
M  V30 1635 H 153.857 3.77224 -3.04681 0
M  V30 1636 N 155.201 0.870884 1.31352 0
M  V30 1637 C 156.612 0.534714 1.78879 0
M  V30 1638 C 156.963 -0.948423 1.71754 0
M  V30 1639 O 156.088 -1.74055 1.28584 0
M  V30 1640 C 156.683 0.963839 3.24801 0
M  V30 1641 C 155.242 0.679311 3.70219 0
M  V30 1642 C 154.389 1.15465 2.52117 0
M  V30 1643 H 157.34 1.05651 1.18421 0
M  V30 1644 H 157.361 0.286892 3.79417 0
M  V30 1645 H 156.873 2.04332 3.29955 0
M  V30 1646 H 154.974 -0.388769 3.70566 0
M  V30 1647 H 155.087 1.25698 4.62317 0
M  V30 1648 H 153.451 0.574383 2.48139 0
M  V30 1649 H 154.234 2.24157 2.60016 0
M  V30 1650 N 156.679 -1.44442 0.630414 0
M  V30 1651 C 157.626 -2.30678 -0.0749355 0
M  V30 1652 C 158.596 -1.4344 -0.837502 0
M  V30 1653 O 159.781 -1.72343 -0.818684 0
M  V30 1654 C 156.921 -3.28706 -1.05103 0
M  V30 1655 C 156.034 -4.31046 -0.286954 0
M  V30 1656 C 155.169 -5.16167 -1.2548 0
M  V30 1657 C 154.208 -6.10216 -0.479843 0
M  V30 1658 N 153.345 -6.88039 -1.39811 0
M  V30 1659 H 158.185 -2.90454 0.666386 0
M  V30 1660 H 155.722 -1.43107 0.340404 0
M  V30 1661 H 157.68 -3.84027 -1.63031 0
M  V30 1662 H 156.31 -2.70632 -1.75949 0
M  V30 1663 H 155.362 -3.78203 0.408243 0
M  V30 1664 H 156.674 -4.97794 0.316657 0
M  V30 1665 H 155.828 -5.76002 -1.90544 0
M  V30 1666 H 154.567 -4.49491 -1.89233 0
M  V30 1667 H 153.572 -5.49491 0.184295 0
M  V30 1668 H 154.797 -6.78928 0.152965 0
M  V30 1669 H 152.743 -6.24032 -2.02287 0
M  V30 1670 H 152.66 -7.51223 -0.848508 0
M  V30 1671 H 153.928 -7.52397 -2.03762 0
M  V30 1672 N 158.157 -0.370918 -1.53173 0
M  V30 1673 C 159.12 0.460778 -2.24521 0
M  V30 1674 C 160.12 1.00536 -1.25496 0
M  V30 1675 O 161.31 0.890266 -1.49733 0
M  V30 1676 C 158.442 1.64457 -2.98608 0
M  V30 1677 H 159.635 -0.163613 -2.99453 0
M  V30 1678 H 157.188 -0.122699 -1.55818 0
M  V30 1679 H 157.923 2.30691 -2.2793 0
M  V30 1680 H 157.708 1.26099 -3.7127 0
M  V30 1681 H 159.198 2.23384 -3.5283 0
M  V30 1682 N 159.635 1.57281 -0.100228 0
M  V30 1683 C 160.582 2.14305 0.856858 0
M  V30 1684 C 161.552 1.06296 1.27634 0
M  V30 1685 O 162.737 1.34109 1.35718 0
M  V30 1686 C 159.877 2.73184 2.10866 0
M  V30 1687 C 158.99 3.95442 1.73925 0
M  V30 1688 C 158.125 4.42468 2.93931 0
M  V30 1689 C 157.164 5.57303 2.5314 0
M  V30 1690 N 156.301 5.99158 3.65997 0
M  V30 1691 H 161.141 2.95772 0.363726 0
M  V30 1692 H 158.678 1.46139 0.167858 0
M  V30 1693 H 160.636 3.05442 2.84185 0
M  V30 1694 H 159.266 1.94437 2.57671 0
M  V30 1695 H 158.318 3.69464 0.905554 0
M  V30 1696 H 159.63 4.78769 1.39935 0
M  V30 1697 H 158.784 4.76537 3.75496 0
M  V30 1698 H 157.523 3.58052 3.31134 0
M  V30 1699 H 156.528 5.22857 1.70003 0
M  V30 1700 H 157.753 6.43471 2.17075 0
M  V30 1701 H 155.699 5.17687 4.02909 0
M  V30 1702 H 155.616 6.77295 3.35869 0
M  V30 1703 H 156.884 6.3786 4.48057 0
M  V30 1704 N 161.113 -0.173488 1.56642 0
M  V30 1705 C 162.361 -0.888706 1.81512 0
M  V30 1706 C 162.682 -1.82875 0.676872 0
M  V30 1707 O 161.952 -1.93536 -0.303414 0
M  V30 1708 H 160.532 -0.331164 0.669582 0
M  V30 1709 H 163.194 -0.173823 1.94123 0
M  V30 1710 H 162.29 -1.46691 2.75478 0
M  V30 1711 N 162.591 -1.51276 -0.441967 0
M  V30 1712 C 163.839 -1.63392 -1.18943 0
M  V30 1713 C 164.16 -0.350159 -1.9183 0
M  V30 1714 O 163.43 0.633784 -1.85364 0
M  V30 1715 H 162.01 -0.602164 -0.442049 0
M  V30 1716 H 164.672 -1.88186 -0.507165 0
M  V30 1717 H 163.768 -2.45934 -1.92154 0
M  V30 1718 N 164.069 0.697108 -1.41344 0
M  V30 1719 C 164.979 1.84088 -1.45427 0
M  V30 1720 C 165.995 1.70545 -0.34501 0
M  V30 1721 O 167.171 1.92488 -0.592492 0
M  V30 1722 C 164.236 3.20056 -1.33286 0
M  V30 1723 C 163.297 3.45718 -2.54514 0
M  V30 1724 C 162.53 4.75199 -2.42944 0
M  V30 1725 O 162.753 5.51579 -1.45318 0
M  V30 1726 O 161.687 5.0161 -3.32672 0
M  V30 1727 H 165.513 1.836 -2.41919 0
M  V30 1728 H 163.098 0.849966 -1.22866 0
M  V30 1729 H 164.98 4.01236 -1.28794 0
M  V30 1730 H 163.655 3.2123 -0.39909 0
M  V30 1731 H 162.562 2.64474 -2.64583 0
M  V30 1732 H 163.895 3.49356 -3.46715 0
M  V30 1733 N 165.547 1.27147 0.931209 0
M  V30 1734 C 166.457 1.11372 2.06478 0
M  V30 1735 C 167.473 0.044645 1.73943 0
M  V30 1736 O 168.649 0.250417 1.99837 0
M  V30 1737 C 165.714 0.758838 3.38294 0
M  V30 1738 C 164.775 1.90841 3.84549 0
M  V30 1739 C 164.008 1.57036 5.10074 0
M  V30 1740 O 164.231 0.476645 5.68405 0
M  V30 1741 O 163.165 2.40839 5.51616 0
M  V30 1742 H 166.991 2.06493 2.22698 0
M  V30 1743 H 164.576 1.06301 1.04978 0
M  V30 1744 H 166.458 0.574098 4.17471 0
M  V30 1745 H 165.133 -0.162879 3.2329 0
M  V30 1746 H 164.04 2.14819 3.06274 0
M  V30 1747 H 165.373 2.81021 4.04089 0
M  V30 1748 N 167.025 -1.13721 1.09112 0
M  V30 1749 C 168.436 -1.6648 0.845068 0
M  V30 1750 C 168.787 -1.85911 -0.62701 0
M  V30 1751 O 167.912 -1.57556 -1.48341 0
M  V30 1752 C 168.507 -3.02413 1.52748 0
M  V30 1753 C 167.066 -3.52176 1.32849 0
M  V30 1754 C 166.213 -2.27492 1.58564 0
M  V30 1755 H 169.164 -0.976872 1.25072 0
M  V30 1756 H 169.185 -3.68223 0.958752 0
M  V30 1757 H 168.697 -2.88238 2.59885 0
M  V30 1758 H 166.798 -3.7156 0.278137 0
M  V30 1759 H 166.911 -4.32499 2.0611 0
M  V30 1760 H 165.275 -2.33923 1.00758 0
M  V30 1761 H 166.058 -2.15886 2.66924 0
M  V30 1762 N 168.503 -0.877838 -1.30888 0
M  V30 1763 C 169.433 -0.35534 -2.3078 0
M  V30 1764 C 170.414 0.557994 -1.60687 0
M  V30 1765 O 171.599 0.473355 -1.88343 0
M  V30 1766 C 168.729 0.437221 -3.44537 0
M  V30 1767 C 167.683 -0.383715 -4.26276 0
M  V30 1768 C 167.009 0.535014 -5.32017 0
M  V30 1769 C 168.309 -1.62201 -4.96476 0
M  V30 1770 H 170.003 -1.19007 -2.74732 0
M  V30 1771 H 167.549 -0.573698 -1.32078 0
M  V30 1772 H 169.502 0.813334 -4.13477 0
M  V30 1773 H 168.226 1.30553 -2.99372 0
M  V30 1774 H 166.885 -0.741874 -3.59015 0
M  V30 1775 H 166.533 1.40083 -4.831 0
M  V30 1776 H 166.233 -0.0104211 -5.87599 0
M  V30 1777 H 167.757 0.907799 -6.03814 0
M  V30 1778 H 169.171 -1.31689 -5.5797 0
M  V30 1779 H 167.568 -2.10711 -5.61891 0
M  V30 1780 H 168.638 -2.37044 -4.23011 0
M  V30 1781 N 169.982 1.44106 -0.638065 0
M  V30 1782 C 171.393 1.85316 -0.226894 0
M  V30 1783 C 171.744 1.53399 1.22324 0
M  V30 1784 O 170.869 0.975463 1.93167 0
M  V30 1785 C 171.464 3.3637 -0.405013 0
M  V30 1786 C 170.023 3.76369 -0.0482902 0
M  V30 1787 C 169.17 2.67921 -0.715108 0
M  V30 1788 H 172.121 1.34474 -0.842764 0
M  V30 1789 H 172.142 3.7885 0.354 0
M  V30 1790 H 171.654 3.59569 -1.46053 0
M  V30 1791 H 169.755 3.58784 1.00522 0
M  V30 1792 H 169.868 4.76856 -0.463187 0
M  V30 1793 H 168.232 2.54259 -0.149753 0
M  V30 1794 H 169.015 2.93951 -1.77335 0
M  V30 1795 N 171.46 0.379036 1.52974 0
M  V30 1796 C 172.37 -0.468639 2.29872 0
M  V30 1797 C 173.386 -1.08067 1.36373 0
M  V30 1798 O 174.562 -1.08871 1.69438 0
M  V30 1799 C 171.627 -1.58594 3.083 0
M  V30 1800 C 170.688 -1.00007 4.17489 0
M  V30 1801 C 169.921 -2.06413 4.92168 0
M  V30 1802 O 170.144 -3.27751 4.66835 0
M  V30 1803 O 169.078 -1.68717 5.7777 0
M  V30 1804 H 172.904 0.157508 3.03291 0
M  V30 1805 H 170.489 0.143035 1.48714 0
M  V30 1806 H 172.371 -2.23525 3.57232 0
M  V30 1807 H 171.046 -2.19724 2.37703 0
M  V30 1808 H 169.953 -0.314299 3.72777 0
M  V30 1809 H 171.286 -0.433135 4.90291 0
M  V30 1810 N 172.938 -1.57226 0.108567 0
M  V30 1811 C 174.186 -1.94448 -0.550853 0
M  V30 1812 C 174.507 -0.992074 -1.67878 0
M  V30 1813 O 173.777 -0.0465 -1.95845 0
M  V30 1814 H 172.357 -0.717897 -0.206479 0
M  V30 1815 H 175.019 -1.94112 0.175062 0
M  V30 1816 H 174.115 -2.97218 -0.952259 0
M  V30 1817 N 174.416 0.165178 -1.56732 0
M  V30 1818 C 175.346 1.20651 -1.99914 0
M  V30 1819 C 176.327 1.45827 -0.875705 0
M  V30 1820 O 177.512 1.57057 -1.14223 0
M  V30 1821 C 174.642 2.54401 -2.36427 0
M  V30 1822 C 173.596 2.43782 -3.51787 0
M  V30 1823 C 172.922 3.82078 -3.7406 0
M  V30 1824 C 174.222 1.93732 -4.85041 0
M  V30 1825 H 175.916 0.847534 -2.87154 0
M  V30 1826 H 173.462 0.40625 -1.38151 0
M  V30 1827 H 175.415 3.27458 -2.65234 0
M  V30 1828 H 174.139 2.92098 -1.46103 0
M  V30 1829 H 172.798 1.73178 -3.23117 0
M  V30 1830 H 172.446 4.17179 -2.81017 0
M  V30 1831 H 172.146 3.7584 -4.51684 0
M  V30 1832 H 173.67 4.56712 -4.05274 0
M  V30 1833 H 175.084 2.56569 -5.12684 0
M  V30 1834 H 173.481 1.98428 -5.66345 0
M  V30 1835 H 174.551 0.891962 -4.76626 0
M  V30 1836 N 175.894 1.51508 0.433938 0
M  V30 1837 C 177.141 1.64345 1.18309 0
M  V30 1838 C 177.469 0.361315 1.91115 0
M  V30 1839 O 176.724 -0.654753 1.84422 0
M  V30 1840 C 177.023 2.79928 2.22205 0
M  V30 1841 C 176.689 4.19078 1.66387 0
M  V30 1842 C 175.351 4.56932 1.50887 0
M  V30 1843 C 177.703 5.05894 1.25381 0
M  V30 1844 C 175.031 5.79305 0.928608 0
M  V30 1845 C 177.383 6.2885 0.687823 0
M  V30 1846 C 176.047 6.65473 0.519755 0
M  V30 1847 H 175.317 0.601381 0.432923 0
M  V30 1848 H 177.964 1.85549 0.473676 0
M  V30 1849 H 176.269 2.52959 2.99197 0
M  V30 1850 H 177.966 2.87059 2.79997 0
M  V30 1851 H 174.556 3.89234 1.79428 0
M  V30 1852 H 178.74 4.77253 1.36175 0
M  V30 1853 H 173.996 6.06324 0.786186 0
M  V30 1854 H 178.17 6.95461 0.361581 0
M  V30 1855 H 175.797 7.6017 0.0679979 0
M  V30 1856 N 177.372 -0.689602 1.41712 0
M  V30 1857 C 178.618 -1.45041 1.42599 0
M  V30 1858 C 178.973 -1.92366 0.0363764 0
M  V30 1859 O 178.266 -1.67022 -0.938844 0
M  V30 1860 C 178.46 -2.67298 2.37247 0
M  V30 1861 C 178.289 -2.31935 3.85274 0
M  V30 1862 C 177.059 -2.2201 4.53916 0
M  V30 1863 C 179.257 -1.94526 4.76093 0
M  V30 1864 N 177.239 -1.79594 5.87043 0
M  V30 1865 C 178.61 -1.62915 5.98213 0
M  V30 1866 C 180.665 -1.81388 4.63684 0
M  V30 1867 C 179.368 -1.19486 7.09306 0
M  V30 1868 C 181.394 -1.39364 5.74745 0
M  V30 1869 C 180.756 -1.08668 6.95967 0
M  V30 1870 H 176.855 -0.527806 0.577014 0
M  V30 1871 H 179.439 -0.797266 1.77628 0
M  V30 1872 H 177.61 -3.30325 2.04304 0
M  V30 1873 H 179.342 -3.33806 2.28814 0
M  V30 1874 H 176.097 -2.406 4.07932 0
M  V30 1875 H 176.521 -1.60851 6.57614 0
M  V30 1876 H 181.163 -2.03772 3.70455 0
M  V30 1877 H 178.881 -0.958477 8.02396 0
M  V30 1878 H 182.467 -1.2974 5.6715 0
M  V30 1879 H 181.347 -0.766417 7.80446 0
M  V30 1880 N 178.85 -1.27639 -0.924453 0
M  V30 1881 C 179.78 -1.13166 -2.04244 0
M  V30 1882 C 180.761 -0.032256 -1.70069 0
M  V30 1883 O 181.946 -0.207328 -1.9309 0
M  V30 1884 C 179.076 -0.781496 -3.38393 0
M  V30 1885 C 178.03 -1.83449 -3.86692 0
M  V30 1886 C 177.356 -1.33822 -5.17683 0
M  V30 1887 C 178.656 -3.23917 -4.09726 0
M  V30 1888 H 180.35 -2.06689 -2.1661 0
M  V30 1889 H 177.896 -0.995136 -1.04082 0
M  V30 1890 H 179.849 -0.667057 -4.16087 0
M  V30 1891 H 178.573 0.189439 -3.2605 0
M  V30 1892 H 177.232 -1.93789 -3.11193 0
M  V30 1893 H 176.88 -0.35665 -5.01734 0
M  V30 1894 H 176.58 -2.04224 -5.50968 0
M  V30 1895 H 178.104 -1.23679 -5.97943 0
M  V30 1896 H 179.518 -3.16559 -4.77978 0
M  V30 1897 H 177.915 -3.92059 -4.54324 0
M  V30 1898 H 178.985 -3.68729 -3.14908 0
M  V30 1899 N 180.328 1.1314 -1.09713 0
M  V30 1900 C 181.258 2.20748 -0.761102 0
M  V30 1901 C 182.239 1.68061 0.262566 0
M  V30 1902 O 183.424 1.93765 0.129977 0
M  V30 1903 C 180.554 3.46812 -0.184054 0
M  V30 1904 C 179.508 4.12606 -1.13757 0
M  V30 1905 C 178.834 5.33031 -0.422083 0
M  V30 1906 C 180.134 4.59603 -2.48118 0
M  V30 1907 H 181.828 2.49113 -1.66082 0
M  V30 1908 H 179.374 1.19734 -0.799987 0
M  V30 1909 H 181.327 4.21353 0.0631215 0
M  V30 1910 H 180.051 3.17851 0.750868 0
M  V30 1911 H 178.71 3.40036 -1.37007 0
M  V30 1912 H 178.358 5.00335 0.517072 0
M  V30 1913 H 178.058 5.77999 -1.05788 0
M  V30 1914 H 179.582 6.10325 -0.183277 0
M  V30 1915 H 180.996 5.25552 -2.29059 0
M  V30 1916 H 179.393 5.15321 -3.07514 0
M  V30 1917 H 180.463 3.73971 -3.08665 0
M  V30 1918 N 181.806 0.884767 1.30421 0
M  V30 1919 C 183.052 0.503851 1.96441 0
M  V30 1920 C 183.385 -0.944518 1.69684 0
M  V30 1921 O 182.66 -1.66737 1.00145 0
M  V30 1922 C 182.943 0.779085 3.51571 0
M  V30 1923 C 182.796 2.27807 3.87846 0
M  V30 1924 C 184.115 0.255452 4.39358 0
M  V30 1925 H 181.234 0.184533 0.713524 0
M  V30 1926 H 183.876 1.10872 1.54297 0
M  V30 1927 H 182.026 0.264274 3.876 0
M  V30 1928 H 183.698 2.86127 3.61841 0
M  V30 1929 H 181.941 2.74479 3.35922 0
M  V30 1930 H 182.612 2.42125 4.96064 0
M  V30 1931 H 185.088 0.696079 4.10236 0
M  V30 1932 H 183.964 0.477361 5.4682 0
M  V30 1933 H 184.225 -0.843293 4.33983 0
M  V30 1934 N 183.284 -1.43765 0.645699 0
M  V30 1935 C 184.512 -2.06253 0.163556 0
M  V30 1936 C 184.927 -1.48352 -1.16778 0
M  V30 1937 O 184.284 -0.611932 -1.71935 0
M  V30 1938 C 184.335 -3.61453 0.0583186 0
M  V30 1939 O 184.056 -4.172 1.33702 0
M  V30 1940 C 185.557 -4.41002 -0.450795 0
M  V30 1941 H 182.777 -0.665413 0.0864077 0
M  V30 1942 H 185.321 -1.84396 0.884222 0
M  V30 1943 H 183.476 -3.82522 -0.612865 0
M  V30 1944 H 183.89 -5.10791 1.19131 0
M  V30 1945 H 185.364 -5.49966 -0.473403 0
M  V30 1946 H 185.841 -4.13488 -1.48068 0
M  V30 1947 H 186.447 -4.24886 0.187637 0
M  V30 1948 N 184.763 -0.387143 -1.52771 0
M  V30 1949 C 186.011 0.195349 -2.01154 0
M  V30 1950 C 186.332 1.475 -1.27549 0
M  V30 1951 O 185.602 1.91878 -0.394924 0
M  V30 1952 H 184.182 0.075178 -0.743207 0
M  V30 1953 H 186.844 -0.518337 -1.87881 0
M  V30 1954 H 185.94 0.407096 -3.09434 0
M  V30 1955 N 186.241 1.57166 -0.116904 0
M  V30 1956 C 187.191 2.11756 0.845178 0
M  V30 1957 C 188.175 1.03783 1.22955 0
M  V30 1958 O 189.367 1.3002 1.20099 0
M  V30 1959 C 186.496 2.71886 2.09602 0
M  V30 1960 C 185.582 3.86937 1.7361 0
M  V30 1961 N 185.973 4.94073 1.08284 0
M  V30 1962 C 184.271 3.97082 2.03082 0
M  V30 1963 C 184.972 5.74477 0.913855 0
M  V30 1964 N 183.948 5.2423 1.43818 0
M  V30 1965 H 187.75 2.91967 0.336523 0
M  V30 1966 H 185.264 1.62174 0.0856332 0
M  V30 1967 H 187.261 3.09338 2.79492 0
M  V30 1968 H 185.921 1.93138 2.61013 0
M  V30 1969 H 186.932 5.12483 0.747067 0
M  V30 1970 H 183.609 3.29372 2.56554 0
M  V30 1971 H 184.999 6.70701 0.40125 0
M  V30 1972 N 187.719 -0.156864 1.56817 0
M  V30 1973 C 188.968 -0.869504 1.81996 0
M  V30 1974 C 189.281 -1.82777 0.696545 0
M  V30 1975 O 190.487 -2.58384 0.833658 0
M  V30 1976 C 188.943 -1.59679 3.22538 0
M  V30 1977 C 188.551 -0.681431 4.42787 0
M  V30 1978 C 190.295 -2.2968 3.56997 0
M  V30 1979 C 188.202 -1.40978 5.74351 0
M  V30 1980 H 187.132 -0.328438 0.678708 0
M  V30 1981 H 189.783 -0.1223 1.83092 0
M  V30 1982 H 188.165 -2.38927 3.158 0
M  V30 1983 H 189.339 0.0751166 4.60739 0
M  V30 1984 H 187.654 -0.0903431 4.16302 0
M  V30 1985 H 190.251 -2.84794 4.52544 0
M  V30 1986 H 190.594 -3.05707 2.82576 0
M  V30 1987 H 191.127 -1.57361 3.65352 0
M  V30 1988 H 187.866 -0.691561 6.51842 0
M  V30 1989 H 187.386 -2.13929 5.60352 0
M  V30 1990 H 189.065 -1.95337 6.16808 0
M  V30 1991 N 189.197 -1.51736 -0.425897 0
M  V30 1992 C 190.608 -1.5732 -1.00536 0
M  V30 1993 C 190.959 -0.403537 -1.92005 0
M  V30 1994 O 190.084 0.478256 -2.11049 0
M  V30 1995 C 190.679 -2.85119 -1.8301 0
M  V30 1996 C 189.238 -2.93236 -2.35987 0
M  V30 1997 C 188.385 -2.52098 -1.15508 0
M  V30 1998 H 191.336 -1.57348 -0.206739 0
M  V30 1999 H 191.357 -2.69526 -2.68581 0
M  V30 2000 H 190.869 -3.7023 -1.16411 0
M  V30 2001 H 188.97 -2.12581 -3.06007 0
M  V30 2002 H 189.083 -3.9713 -2.68001 0
M  V30 2003 H 187.447 -2.05558 -1.50393 0
M  V30 2004 H 188.23 -3.39565 -0.505014 0
M  V30 2005 N 190.675 0.682077 -1.42076 0
M  V30 2006 C 191.903 1.47057 -1.4554 0
M  V30 2007 C 192.318 1.8869 -0.0645779 0
M  V30 2008 O 191.675 1.57666 0.919115 0
M  V30 2009 C 191.726 2.72442 -2.37609 0
M  V30 2010 O 191.447 2.32559 -3.71279 0
M  V30 2011 C 192.948 3.66069 -2.50017 0
M  V30 2012 H 190.168 0.452737 -0.495248 0
M  V30 2013 H 192.712 0.838695 -1.8651 0
M  V30 2014 H 190.867 3.31835 -1.9991 0
M  V30 2015 H 191.281 3.13475 -4.20516 0
M  V30 2016 H 192.755 4.50792 -3.18576 0
M  V30 2017 H 193.232 4.11476 -1.53572 0
M  V30 2018 H 193.838 3.12572 -2.88407 0
M  V30 2019 N 192.153 1.28127 0.917671 0
M  V30 2020 C 193.063 1.13556 2.05286 0
M  V30 2021 C 194.079 0.0630914 1.73886 0
M  V30 2022 O 195.255 0.271598 1.9956 0
M  V30 2023 C 192.32 0.794676 3.3747 0
M  V30 2024 C 191.381 1.94909 3.82504 0
M  V30 2025 C 190.614 1.62437 5.0838 0
M  V30 2026 O 190.837 0.536905 5.67867 0
M  V30 2027 O 189.771 2.46677 5.4903 0
M  V30 2028 H 193.597 2.08844 2.20495 0
M  V30 2029 H 191.182 1.07409 1.03845 0
M  V30 2030 H 193.064 0.618344 4.16839 0
M  V30 2031 H 191.739 -0.128581 3.23445 0
M  V30 2032 H 190.646 2.18055 3.03978 0
M  V30 2033 H 191.979 2.85291 4.01086 0
M  V30 2034 N 193.631 -1.12557 1.10312 0
M  V30 2035 C 194.541 -2.21841 0.763142 0
M  V30 2036 C 195.557 -1.72354 -0.238801 0
M  V30 2037 O 196.733 -2.01249 -0.0778746 0
M  V30 2038 C 193.798 -3.46131 0.198632 0
M  V30 2039 C 192.859 -4.10464 1.25769 0
M  V30 2040 C 192.092 -5.28821 0.72002 0
M  V30 2041 O 192.315 -5.6859 -0.453993 0
M  V30 2042 O 191.249 -5.83437 1.47935 0
M  V30 2043 H 195.075 -2.53312 1.67532 0
M  V30 2044 H 192.66 -1.20867 0.878157 0
M  V30 2045 H 194.542 -4.2125 -0.112401 0
M  V30 2046 H 193.217 -3.16338 -0.686419 0
M  V30 2047 H 192.124 -3.3713 1.62156 0
M  V30 2048 H 193.457 -4.44408 2.11571 0
M  V30 2049 N 195.109 -0.891671 -1.2995 0
M  V30 2050 C 196.041 -0.320695 -2.26945 0
M  V30 2051 C 197.054 0.528497 -1.53983 0
M  V30 2052 O 198.243 0.346959 -1.75096 0
M  V30 2053 C 195.343 0.562066 -3.34207 0
M  V30 2054 C 194.516 -0.259576 -4.36629 0
M  V30 2055 C 193.575 0.554739 -5.23268 0
M  V30 2056 O 192.601 -0.0249311 -5.69195 0
M  V30 2057 N 193.803 1.8625 -5.4981 0
M  V30 2058 H 196.568 -1.15432 -2.76578 0
M  V30 2059 H 194.129 -0.755336 -1.432 0
M  V30 2060 H 196.121 1.11304 -3.89093 0
M  V30 2061 H 194.691 1.29637 -2.84452 0
M  V30 2062 H 193.911 -0.991986 -3.81514 0
M  V30 2063 H 195.199 -0.822564 -5.02107 0
M  V30 2064 H 194.597 2.35628 -5.14292 0
M  V30 2065 H 193.154 2.36078 -6.07545 0
M  V30 2066 N 196.587 1.43421 -0.653314 0
M  V30 2067 C 197.833 2.02111 -0.166992 0
M  V30 2068 C 198.166 1.51423 1.21592 0
M  V30 2069 O 197.441 0.707389 1.8118 0
M  V30 2070 C 197.724 3.5966 -0.177948 0
M  V30 2071 C 197.577 4.20579 -1.59478 0
M  V30 2072 C 198.896 4.37413 0.4856 0
M  V30 2073 H 196.015 0.734374 -0.0621557 0
M  V30 2074 H 198.657 1.70717 -0.834016 0
M  V30 2075 H 196.807 3.86537 0.390032 0
M  V30 2076 H 198.479 4.04732 -2.21336 0
M  V30 2077 H 196.722 3.77226 -2.14204 0
M  V30 2078 H 197.393 5.29665 -1.5543 0
M  V30 2079 H 199.869 4.161 0.00234528 0
M  V30 2080 H 198.745 5.47075 0.447207 0
M  V30 2081 H 199.006 4.13672 1.55974 0
M  V30 2082 N 198.065 0.39524 1.52563 0
M  V30 2083 C 199.29 -0.187456 2.06551 0
M  V30 2084 C 199.715 -1.39249 1.26457 0
M  V30 2085 O 199.073 -1.78947 0.291151 0
M  V30 2086 C 199.121 -0.529985 3.56684 0
M  V30 2087 O 198.225 -1.62307 3.79118 0
M  V30 2088 H 197.566 -0.0202537 0.663691 0
M  V30 2089 H 200.096 0.564426 1.96661 0
M  V30 2090 H 200.106 -0.792598 4.00227 0
M  V30 2091 H 198.781 0.350987 4.14416 0
M  V30 2092 H 197.358 -1.3537 3.47461 0
M  V30 2093 N 199.544 -1.57102 0.125237 0
M  V30 2094 C 200.79 -1.96488 -0.525753 0
M  V30 2095 C 201.145 -1.00786 -1.6389 0
M  V30 2096 O 200.438 -0.038979 -1.9156 0
M  V30 2097 C 200.632 -3.40096 -1.09862 0
M  V30 2098 C 200.461 -4.4968 -0.0425004 0
M  V30 2099 C 199.231 -5.03781 0.391463 0
M  V30 2100 C 201.429 -5.08936 0.740829 0
M  V30 2101 N 199.411 -5.96948 1.4327 0
M  V30 2102 C 200.782 -5.98105 1.6331 0
M  V30 2103 C 202.837 -4.91576 0.791029 0
M  V30 2104 C 201.54 -6.71774 2.57122 0
M  V30 2105 C 203.566 -5.6593 1.71688 0
M  V30 2106 C 202.928 -6.5479 2.59672 0
M  V30 2107 H 199.027 -0.765072 -0.161831 0
M  V30 2108 H 201.611 -1.93511 0.214801 0
M  V30 2109 H 199.782 -3.43707 -1.80887 0
M  V30 2110 H 201.514 -3.66591 -1.71444 0
M  V30 2111 H 198.269 -4.736 -0.00213584 0
M  V30 2112 H 198.693 -6.48236 1.95243 0
M  V30 2113 H 203.335 -4.22615 0.124915 0
M  V30 2114 H 201.053 -7.39977 3.24744 0
M  V30 2115 H 204.639 -5.54501 1.76125 0
M  V30 2116 H 203.519 -7.11316 3.30149 0
M  V30 2117 N 201.022 0.148545 -1.56898 0
M  V30 2118 C 201.952 1.18524 -2.01182 0
M  V30 2119 C 202.933 1.4489 -0.891123 0
M  V30 2120 O 204.118 1.55836 -1.15882 0
M  V30 2121 C 201.248 2.51879 -2.39112 0
M  V30 2122 C 200.202 2.40038 -3.54353 0
M  V30 2123 C 199.528 3.78089 -3.78091 0
M  V30 2124 C 200.828 1.88577 -4.87069 0
M  V30 2125 H 202.522 0.817029 -2.88036 0
M  V30 2126 H 200.068 0.391575 -1.38574 0
M  V30 2127 H 202.021 3.24627 -2.68692 0
M  V30 2128 H 200.745 2.90532 -1.49193 0
M  V30 2129 H 199.404 1.69742 -3.24936 0
M  V30 2130 H 199.052 4.14175 -2.85426 0
M  V30 2131 H 198.752 3.71028 -4.55645 0
M  V30 2132 H 200.276 4.52387 -4.10095 0
M  V30 2133 H 201.69 2.51117 -5.15377 0
M  V30 2134 H 200.087 1.9241 -5.68417 0
M  V30 2135 H 201.157 0.84136 -4.77545 0
M  V30 2136 N 202.5 1.5196 0.417844 0
M  V30 2137 C 203.725 1.69717 1.1921 0
M  V30 2138 C 204.15 0.402148 1.83751 0
M  V30 2139 O 203.508 -0.639593 1.69643 0
M  V30 2140 C 203.556 2.82794 2.2374 0
M  V30 2141 O 202.66 2.47756 3.29683 0
M  V30 2142 H 202.001 0.565263 0.348387 0
M  V30 2143 H 204.531 1.98621 0.490985 0
M  V30 2144 H 204.541 3.07452 2.68212 0
M  V30 2145 H 203.216 3.76756 1.76146 0
M  V30 2146 H 201.793 2.33739 2.90552 0
M  V30 2147 N 203.978 -0.674533 1.42435 0
M  V30 2148 C 204.925 -1.78807 1.45934 0
M  V30 2149 C 205.895 -1.63157 0.311271 0
M  V30 2150 O 207.08 -1.83707 0.515383 0
M  V30 2151 C 204.22 -3.16839 1.36773 0
M  V30 2152 C 203.333 -3.43774 2.61617 0
M  V30 2153 C 202.468 -4.71536 2.44597 0
M  V30 2154 C 201.507 -4.91505 3.64814 0
M  V30 2155 N 200.644 -6.10508 3.46734 0
M  V30 2156 H 205.484 -1.75151 2.41093 0
M  V30 2157 H 203.021 -0.85504 1.19697 0
M  V30 2158 H 204.979 -3.96606 1.29459 0
M  V30 2159 H 203.609 -3.19619 0.452089 0
M  V30 2160 H 202.661 -2.58259 2.79297 0
M  V30 2161 H 203.973 -3.54423 3.50978 0
M  V30 2162 H 203.127 -5.59393 2.3487 0
M  V30 2163 H 201.866 -4.6317 1.52726 0
M  V30 2164 H 200.871 -4.0209 3.74972 0
M  V30 2165 H 202.096 -5.01716 4.57665 0
M  V30 2166 H 200.042 -6.03315 2.5758 0
M  V30 2167 H 199.959 -6.2202 4.29682 0
M  V30 2168 H 201.227 -7.01044 3.40819 0
M  V30 2169 N 205.456 -1.28612 -0.910864 0
M  V30 2170 C 206.366 -1.14643 -2.0468 0
M  V30 2171 C 207.382 -0.0723121 -1.7385 0
M  V30 2172 O 208.558 -0.282178 -1.99413 0
M  V30 2173 C 205.623 -0.812561 -3.37044 0
M  V30 2174 C 204.684 -1.96935 -3.81465 0
M  V30 2175 C 203.917 -1.65131 -5.07511 0
M  V30 2176 O 204.14 -0.567013 -5.67575 0
M  V30 2177 O 203.074 -2.49585 -5.47714 0
M  V30 2178 H 206.9 -2.1001 -2.19384 0
M  V30 2179 H 204.485 -1.07958 -1.03274 0
M  V30 2180 H 206.367 -0.640441 -4.16505 0
M  V30 2181 H 205.042 0.111426 -3.23508 0
M  V30 2182 H 203.949 -2.19664 -3.02818 0
M  V30 2183 H 205.282 -2.87414 -3.99567 0
M  V30 2184 N 206.934 1.1197 -1.10907 0
M  V30 2185 C 208.18 1.84059 -0.865674 0
M  V30 2186 C 208.535 1.82731 0.602254 0
M  V30 2187 O 207.828 1.26543 1.43866 0
M  V30 2188 C 208.022 3.30749 -1.35425 0
M  V30 2189 C 207.851 3.46363 -2.86815 0
M  V30 2190 C 206.621 3.59712 -3.54874 0
M  V30 2191 C 208.819 3.41116 -3.84895 0
M  V30 2192 N 206.801 3.63741 -4.94536 0
M  V30 2193 C 208.172 3.51698 -5.10596 0
M  V30 2194 C 210.227 3.24612 -3.77533 0
M  V30 2195 C 208.93 3.4748 -6.29802 0
M  V30 2196 C 210.956 3.21708 -4.96244 0
M  V30 2197 C 210.318 3.32856 -6.20795 0
M  V30 2198 H 206.417 0.689015 -0.369841 0
M  V30 2199 H 209.001 1.34016 -1.41237 0
M  V30 2200 H 207.172 3.79322 -0.834814 0
M  V30 2201 H 208.904 3.90718 -1.05458 0
M  V30 2202 H 205.659 3.62038 -3.05329 0
M  V30 2203 H 206.083 3.69408 -5.67333 0
M  V30 2204 H 210.725 3.14883 -2.8215 0
M  V30 2205 H 208.443 3.55978 -7.25469 0
M  V30 2206 H 212.029 3.10113 -4.92261 0
M  V30 2207 H 210.909 3.3059 -7.11112 0
M  V30 2208 N 208.412 0.89855 1.29475 0
M  V30 2209 C 209.375 0.380272 2.26023 0
M  V30 2210 C 210.375 -0.484891 1.53315 0
M  V30 2211 O 211.565 -0.290108 1.71767 0
M  V30 2212 C 208.697 -0.45651 3.3783 0
M  V30 2213 H 209.89 1.23295 2.73383 0
M  V30 2214 H 207.443 0.676589 1.40897 0
M  V30 2215 H 208.178 -1.32922 2.95808 0
M  V30 2216 H 207.963 0.163393 3.91759 0
M  V30 2217 H 209.453 -0.810466 4.0966 0
M  V30 2218 N 209.89 -1.43072 0.660911 0
M  V30 2219 C 210.837 -2.30785 -0.0259884 0
M  V30 2220 C 211.807 -1.45184 -0.806888 0
M  V30 2221 O 212.992 -1.74041 -0.781943 0
M  V30 2222 C 210.132 -3.30861 -0.981067 0
M  V30 2223 C 209.245 -4.31558 -0.195458 0
M  V30 2224 C 208.38 -5.18712 -1.14503 0
M  V30 2225 C 207.419 -6.11097 -0.350299 0
M  V30 2226 N 206.556 -6.90849 -1.25186 0
M  V30 2227 H 211.396 -2.88975 0.727846 0
M  V30 2228 H 208.933 -1.42353 0.370682 0
M  V30 2229 H 210.891 -3.87399 -1.54849 0
M  V30 2230 H 209.521 -2.74304 -1.70169 0
M  V30 2231 H 208.573 -3.77252 0.488374 0
M  V30 2232 H 209.885 -4.9701 0.422176 0
M  V30 2233 H 209.039 -5.79914 -1.78284 0
M  V30 2234 H 207.778 -4.53404 -1.79656 0
M  V30 2235 H 206.783 -5.48976 0.300808 0
M  V30 2236 H 208.008 -6.7845 0.296941 0
M  V30 2237 H 205.954 -6.28182 -1.89005 0
M  V30 2238 H 205.871 -7.52854 -0.688971 0
M  V30 2239 H 207.139 -7.5655 -1.87757 0
M  V30 2240 N 211.368 -0.403325 -1.52352 0
M  V30 2241 C 212.784 -0.0539281 -1.59509 0
M  V30 2242 C 212.984 1.43307 -1.41652 0
M  V30 2243 O 212.04 2.19924 -1.24056 0
M  V30 2244 C 213.353 -0.543654 -2.95745 0
M  V30 2245 C 214.901 -0.501125 -3.08962 0
M  V30 2246 C 215.376 -0.967267 -4.47669 0
M  V30 2247 N 216.867 -0.923849 -4.53893 0
M  V30 2248 C 217.602 -1.25578 -5.5948 0
M  V30 2249 N 217.098 -1.65889 -6.72646 0
M  V30 2250 N 218.891 -1.17613 -5.49658 0
M  V30 2251 H 211.042 -1.37123 -1.62206 0
M  V30 2252 H 213.305 -0.56294 -0.76276 0
M  V30 2253 H 213.011 -1.58275 -3.14073 0
M  V30 2254 H 212.885 0.0498042 -3.77167 0
M  V30 2255 H 215.272 0.528909 -2.90321 0
M  V30 2256 H 215.353 -1.13056 -2.2946 0
M  V30 2257 H 214.997 -1.9956 -4.67053 0
M  V30 2258 H 214.927 -0.314698 -5.25659 0
M  V30 2259 H 217.418 -0.627403 -3.72655 0
M  V30 2260 H 217.731 -1.89543 -7.49195 0
M  V30 2261 H 216.076 -1.69787 -6.73942 0
M  V30 2262 H 219.267 -0.860115 -4.6013 0
M  V30 2263 H 219.44 -1.43812 -6.3184 0
M  V30 2264 N 212.846 1.57033 -0.133567 0
M  V30 2265 C 213.809 2.14897 0.796995 0
M  V30 2266 C 214.809 1.0874 1.18458 0
M  V30 2267 O 215.999 1.34446 1.1077 0
M  V30 2268 C 213.131 2.70112 2.07973 0
M  V30 2269 H 214.324 2.98457 0.293873 0
M  V30 2270 H 211.877 1.55871 0.115787 0
M  V30 2271 H 212.612 1.9018 2.62682 0
M  V30 2272 H 212.397 3.47764 1.81115 0
M  V30 2273 H 213.887 3.14738 2.74462 0
M  V30 2274 N 214.325 -0.140222 1.56975 0
M  V30 2275 C 215.288 -1.15689 1.97861 0
M  V30 2276 C 216.288 -1.3549 0.865974 0
M  V30 2277 O 217.478 -1.32367 1.13246 0
M  V30 2278 C 214.61 -2.51582 2.30042 0
M  V30 2279 H 215.803 -0.805971 2.88867 0
M  V30 2280 H 213.356 -0.383801 1.51515 0
M  V30 2281 H 214.091 -2.91632 1.41849 0
M  V30 2282 H 213.876 -2.38569 3.11171 0
M  V30 2283 H 215.366 -3.24792 2.62488 0
M  V30 2284 N 215.803 -1.52179 -0.40978 0
M  V30 2285 C 216.733 -1.78435 -1.5061 0
M  V30 2286 C 217.714 -0.635295 -1.57791 0
M  V30 2287 O 218.899 -0.880823 -1.73076 0
M  V30 2288 C 216.029 -1.93444 -2.88439 0
M  V30 2289 C 214.983 -3.09038 -2.96108 0
M  V30 2290 C 214.309 -3.09268 -4.36185 0
M  V30 2291 C 215.609 -4.48508 -2.67652 0
M  V30 2292 H 217.303 -2.70237 -1.28889 0
M  V30 2293 H 214.849 -1.30036 -0.618605 0
M  V30 2294 H 216.802 -2.10394 -3.65119 0
M  V30 2295 H 215.526 -0.983129 -3.11452 0
M  V30 2296 H 214.185 -2.91837 -2.21872 0
M  V30 2297 H 213.833 -2.11861 -4.56206 0
M  V30 2298 H 213.533 -3.86907 -4.42241 0
M  V30 2299 H 215.057 -3.28348 -5.14801 0
M  V30 2300 H 216.471 -4.65918 -3.34056 0
M  V30 2301 H 214.868 -5.28059 -2.85085 0
M  V30 2302 H 215.938 -4.56649 -1.63095 0
M  V30 2303 N 217.281 0.66697 -1.42791 0
M  V30 2304 C 218.692 1.2478 -1.38877 0
M  V30 2305 C 219.043 1.96012 -0.0859426 0
M  V30 2306 O 218.168 2.00463 0.815081 0
M  V30 2307 C 218.763 2.26938 -2.51564 0
M  V30 2308 C 217.322 2.80529 -2.50959 0
M  V30 2309 C 216.469 1.54965 -2.29959 0
M  V30 2310 H 219.42 0.459853 -1.51892 0
M  V30 2311 H 219.441 3.08834 -2.22265 0
M  V30 2312 H 218.953 1.75065 -3.46372 0
M  V30 2313 H 217.054 3.36502 -1.59991 0
M  V30 2314 H 217.167 3.29012 -3.48265 0
M  V30 2315 H 215.531 1.81817 -1.78366 0
M  V30 2316 H 216.314 1.05047 -3.26833 0
M  V30 2317 N 218.759 1.29093 0.90403 0
M  V30 2318 C 219.984 1.19809 1.69294 0
M  V30 2319 C 220.409 -0.238481 1.86582 0
M  V30 2320 O 219.767 -1.1723 1.383 0
M  V30 2321 C 219.815 1.91202 3.05736 0
M  V30 2322 O 218.919 1.22611 3.93752 0
M  V30 2323 H 218.26 0.415385 0.518027 0
M  V30 2324 H 220.79 1.70586 1.12967 0
M  V30 2325 H 220.8 1.99487 3.55906 0
M  V30 2326 H 219.475 2.95692 2.92471 0
M  V30 2327 H 218.052 1.22554 3.52186 0
M  V30 2328 N 220.237 -1.11381 1.11499 0
M  V30 2329 C 221.187 -2.15555 0.74298 0
M  V30 2330 C 222.171 -1.58894 -0.253276 0
M  V30 2331 O 223.363 -1.76897 -0.0602918 0
M  V30 2332 C 220.492 -3.42782 0.188481 0
M  V30 2333 C 219.578 -4.064 1.21244 0
M  V30 2334 N 219.969 -4.44864 2.40685 0
M  V30 2335 C 218.267 -4.3333 1.05552 0
M  V30 2336 C 218.968 -4.94715 3.05994 0
M  V30 2337 N 217.944 -4.90909 2.33472 0
M  V30 2338 H 221.746 -2.43074 1.65203 0
M  V30 2339 H 219.26 -1.28401 0.994329 0
M  V30 2340 H 221.257 -4.16789 -0.0961693 0
M  V30 2341 H 219.917 -3.16727 -0.715149 0
M  V30 2342 H 220.928 -4.36876 2.78136 0
M  V30 2343 H 217.605 -4.1698 0.208372 0
M  V30 2344 H 218.995 -5.34103 4.07656 0
M  V30 2345 N 221.715 -0.905404 -1.28997 0
M  V30 2346 C 222.961 -0.535039 -1.95615 0
M  V30 2347 C 223.294 0.917404 -1.71165 0
M  V30 2348 O 222.569 1.65123 -1.02785 0
M  V30 2349 C 222.852 -0.834918 -3.50287 0
M  V30 2350 C 222.705 -2.33948 -3.84172 0
M  V30 2351 C 224.024 -0.325318 -4.38896 0
M  V30 2352 H 221.143 -0.195861 -0.710498 0
M  V30 2353 H 223.785 -1.13313 -1.52513 0
M  V30 2354 H 221.935 -0.325904 -3.87131 0
M  V30 2355 H 223.607 -2.91847 -3.57243 0
M  V30 2356 H 221.85 -2.79789 -3.31513 0
M  V30 2357 H 222.521 -2.49987 -4.92149 0
M  V30 2358 H 224.997 -0.761256 -4.09077 0
M  V30 2359 H 223.873 -0.564295 -5.45992 0
M  V30 2360 H 224.134 0.774144 -4.35269 0
M  V30 2361 N 223.193 1.4272 -0.668489 0
M  V30 2362 C 224.439 2.01923 -0.188419 0
M  V30 2363 C 224.772 1.52704 1.19979 0
M  V30 2364 O 224.047 0.726566 1.8042 0
M  V30 2365 C 224.33 3.59451 -0.216085 0
M  V30 2366 C 224.183 4.18864 -1.6393 0
M  V30 2367 C 225.502 4.37903 0.439179 0
M  V30 2368 H 222.621 0.733674 -0.0699412 0
M  V30 2369 H 225.263 1.69822 -0.852076 0
M  V30 2370 H 223.413 3.86929 0.349012 0
M  V30 2371 H 225.085 4.02362 -2.25616 0
M  V30 2372 H 223.328 3.74933 -2.18193 0
M  V30 2373 H 223.999 5.27987 -1.61039 0
M  V30 2374 H 226.475 4.16079 -0.0417878 0
M  V30 2375 H 225.351 5.47519 0.389157 0
M  V30 2376 H 225.612 4.15303 1.51577 0
M  V30 2377 N 224.671 0.411399 1.52136 0
M  V30 2378 C 225.899 -0.163076 2.06256 0
M  V30 2379 C 226.314 -1.3867 1.28125 0
M  V30 2380 O 225.671 -1.79423 0.333721 0
M  V30 2381 C 225.722 -0.511252 3.57867 0
M  V30 2382 O 225.443 0.66378 4.33042 0
M  V30 2383 C 226.944 -1.13921 4.28412 0
M  V30 2384 H 224.164 -0.0193897 0.67072 0
M  V30 2385 H 226.708 0.583007 1.96013 0
M  V30 2386 H 224.863 -1.20723 3.6811 0
M  V30 2387 H 225.277 0.372601 5.23175 0
M  V30 2388 H 226.751 -1.33302 5.35663 0
M  V30 2389 H 227.228 -2.11296 3.85033 0
M  V30 2390 H 227.834 -0.483373 4.22544 0
M  V30 2391 N 226.149 -1.5696 0.141893 0
M  V30 2392 C 227.082 -2.12271 -0.837627 0
M  V30 2393 C 228.06 -1.04495 -1.24578 0
M  V30 2394 O 229.244 -1.32293 -1.34278 0
M  V30 2395 C 226.371 -2.63822 -2.12404 0
M  V30 2396 C 225.417 -3.83698 -1.86221 0
M  V30 2397 S 226.25 -5.24948 -1.05781 0
M  V30 2398 C 227.406 -5.79884 -2.35552 0
M  V30 2399 H 227.639 -2.95023 -0.367249 0
M  V30 2400 H 225.172 -1.54231 -0.0723014 0
M  V30 2401 H 227.13 -2.94175 -2.86307 0
M  V30 2402 H 225.791 -1.8121 -2.56557 0
M  V30 2403 H 224.984 -4.17995 -2.81596 0
M  V30 2404 H 224.586 -3.5408 -1.20429 0
M  V30 2405 H 226.878 -5.91005 -3.31239 0
M  V30 2406 H 227.821 -6.77544 -2.05767 0
M  V30 2407 H 228.229 -5.08095 -2.45967 0
M  V30 2408 N 227.627 0.131896 -1.57047 0
M  V30 2409 C 228.557 1.16384 -2.02428 0
M  V30 2410 C 229.538 1.43936 -0.90644 0
M  V30 2411 O 230.723 1.54599 -1.17528 0
M  V30 2412 C 227.853 2.49328 -2.4177 0
M  V30 2413 C 226.807 2.36266 -3.56879 0
M  V30 2414 C 226.133 3.74057 -3.8208 0
M  V30 2415 C 227.433 1.834 -4.89042 0
M  V30 2416 H 229.127 0.786433 -2.88887 0
M  V30 2417 H 226.673 0.376855 -1.38981 0
M  V30 2418 H 228.626 3.21759 -2.7212 0
M  V30 2419 H 227.35 2.88934 -1.52266 0
M  V30 2420 H 226.009 1.66286 -3.26718 0
M  V30 2421 H 225.657 4.11125 -2.89803 0
M  V30 2422 H 225.357 3.66174 -4.59554 0
M  V30 2423 H 226.881 4.48012 -4.1487 0
M  V30 2424 H 228.295 2.45636 -5.18011 0
M  V30 2425 H 226.692 1.8637 -5.70426 0
M  V30 2426 H 227.762 0.790662 -4.7841 0
M  V30 2427 N 229.106 1.52395 0.401703 0
M  V30 2428 C 230.383 1.57387 1.16141 0
M  V30 2429 C 230.763 0.359359 2.08019 0
M  V30 2430 O 230.111 -0.65326 2.18963 0
M  V30 2431 C 230.321 2.90631 1.93221 0
M  V30 2432 C 231.669 3.43904 2.49028 0
M  V30 2433 O 232.693 2.92421 2.03393 0
M  V30 2434 O 231.552 4.33823 3.32356 0
M  V30 2435 H 228.646 0.634262 0.530698 0
M  V30 2436 H 231.192 1.64725 0.407883 0
M  V30 2437 H 229.964 3.70473 1.25958 0
M  V30 2438 H 229.587 2.8662 2.75563 0
M  V30 2439 N 230.584 -0.659388 1.43143 0
M  V30 2440 C 231.532 -1.79374 1.4808 0
M  V30 2441 C 232.526 -1.65639 0.354988 0
M  V30 2442 O 233.732 -1.7206 0.528704 0
M  V30 2443 H 230.107 -0.591705 0.4641 0
M  V30 2444 H 232.078 -1.72329 2.43609 0
M  V30 2445 C 230.827 -3.17606 1.41499 0
M  V30 2446 H 230.15 -3.28809 2.27431 0
M  V30 2447 H 231.59 -3.96951 1.49015 0
M  V30 2448 C 230.049 -3.36642 0.131765 0
M  V30 2449 O 230.579 -3.93461 -0.809386 0
M  V30 2450 N 228.785 -2.90567 0.0439396 0
M  V30 2451 H 228.332 -2.44513 0.810619 0
M  V30 2452 H 228.29 -3.03681 -0.813969 0
M  V30 2453 N 232.062 -1.29571 -0.897171 0
M  V30 2454 C 233.309 -1.17689 -1.6479 0
M  V30 2455 C 233.637 0.27107 -1.92602 0
M  V30 2456 O 232.892 1.21193 -1.53658 0
M  V30 2457 C 233.191 -1.9382 -3.00281 0
M  V30 2458 C 232.857 -3.43522 -2.92068 0
M  V30 2459 C 231.519 -3.84348 -2.89535 0
M  V30 2460 C 233.871 -4.38906 -2.81089 0
M  V30 2461 C 231.199 -5.18869 -2.73846 0
M  V30 2462 C 233.551 -5.73521 -2.66939 0
M  V30 2463 C 232.215 -6.13601 -2.62774 0
M  V30 2464 H 231.485 -0.430654 -0.603008 0
M  V30 2465 H 234.132 -1.60536 -1.04404 0
M  V30 2466 H 232.437 -1.4357 -3.64547 0
M  V30 2467 H 234.134 -1.82028 -3.57305 0
M  V30 2468 H 230.724 -3.11072 -2.94842 0
M  V30 2469 H 234.908 -4.08315 -2.82121 0
M  V30 2470 H 230.164 -5.4903 -2.69027 0
M  V30 2471 H 234.338 -6.47078 -2.57416 0
M  V30 2472 H 231.965 -7.17786 -2.50375 0
M  V30 2473 N 233.54 1.10788 -1.12088 0
M  V30 2474 C 234.951 1.64181 -0.88891 0
M  V30 2475 C 235.302 1.87508 0.577498 0
M  V30 2476 O 234.427 1.61434 1.44112 0
M  V30 2477 C 235.022 2.98257 -1.60712 0
M  V30 2478 C 233.581 3.4853 -1.42139 0
M  V30 2479 C 232.728 2.23208 -1.6454 0
M  V30 2480 H 235.679 0.943368 -1.27618 0
M  V30 2481 H 235.7 3.65552 -1.05604 0
M  V30 2482 H 235.212 2.81246 -2.67436 0
M  V30 2483 H 233.313 3.70692 -0.376552 0
M  V30 2484 H 233.426 4.26882 -2.17505 0
M  V30 2485 H 231.79 2.31169 -1.06925 0
M  V30 2486 H 232.573 2.08733 -2.72554 0
M  V30 2487 N 235.018 0.912232 1.28515 0
M  V30 2488 C 236.246 0.560416 1.99166 0
M  V30 2489 C 236.661 -0.857927 1.68182 0
M  V30 2490 O 236.018 -1.56805 0.933733 0
M  V30 2491 C 236.069 0.758142 3.53461 0
M  V30 2492 O 235.79 2.12067 3.83352 0
M  V30 2493 C 237.291 0.412954 4.41372 0
M  V30 2494 H 234.511 0.213805 0.636026 0
M  V30 2495 H 237.055 1.22502 1.63749 0
M  V30 2496 H 235.21 0.140556 3.87145 0
M  V30 2497 H 235.624 2.15923 4.77993 0
M  V30 2498 H 237.098 0.60208 5.48707 0
M  V30 2499 H 237.575 -0.65073 4.34353 0
M  V30 2500 H 238.181 1.00802 4.13182 0
M  V30 2501 N 236.496 -1.42363 0.676048 0
M  V30 2502 C 237.444 -2.32596 -0.0131507 0
M  V30 2503 C 238.438 -1.49891 -0.789238 0
M  V30 2504 O 239.644 -1.65955 -0.697061 0
M  V30 2505 H 236.019 -0.751647 -0.0230481 0
M  V30 2506 H 237.99 -2.88421 0.765243 0
M  V30 2507 C 236.739 -3.34479 -0.949702 0
M  V30 2508 H 236.062 -3.98158 -0.361938 0
M  V30 2509 H 237.502 -4.00199 -1.4006 0
M  V30 2510 C 235.961 -2.66838 -2.05667 0
M  V30 2511 O 236.491 -2.50124 -3.14326 0
M  V30 2512 N 234.697 -2.25843 -1.82875 0
M  V30 2513 H 234.244 -2.39637 -0.945085 0
M  V30 2514 H 234.202 -1.80918 -2.5713 0
M  V30 2515 N 237.974 -0.419461 -1.51915 0
M  V30 2516 C 238.904 0.391813 -2.30189 0
M  V30 2517 C 239.885 1.03699 -1.34836 0
M  V30 2518 O 241.07 1.04403 -1.63748 0
M  V30 2519 C 238.2 1.50312 -3.13087 0
M  V30 2520 C 237.154 0.9824 -4.16573 0
M  V30 2521 C 236.48 2.18809 -4.8788 0
M  V30 2522 C 237.78 0.0292356 -5.22292 0
M  V30 2523 H 239.474 -0.26135 -2.98257 0
M  V30 2524 H 237.02 -0.127134 -1.43438 0
M  V30 2525 H 238.973 2.07773 -3.66617 0
M  V30 2526 H 237.697 2.18431 -2.42807 0
M  V30 2527 H 236.356 0.430119 -3.64068 0
M  V30 2528 H 236.004 2.85507 -4.14119 0
M  V30 2529 H 235.704 1.84615 -5.57845 0
M  V30 2530 H 237.228 2.76858 -5.44226 0
M  V30 2531 H 238.642 0.512976 -5.71 0
M  V30 2532 H 237.039 -0.2244 -5.9968 0
M  V30 2533 H 238.109 -0.912931 -4.76228 0
M  V30 2534 N 239.452 1.56882 -0.150215 0
M  V30 2535 C 240.402 2.13501 0.800071 0
M  V30 2536 C 241.386 1.06368 1.20726 0
M  V30 2537 O 242.578 1.32538 1.17314 0
M  V30 2538 C 239.707 2.76271 2.03787 0
M  V30 2539 C 238.793 3.90533 1.65364 0
M  V30 2540 N 239.184 4.96259 0.977794 0
M  V30 2541 C 237.482 4.013 1.94613 0
M  V30 2542 C 238.183 5.76286 0.791794 0
M  V30 2543 N 237.159 5.27163 1.32666 0
M  V30 2544 H 240.961 2.92615 0.274517 0
M  V30 2545 H 238.475 1.62319 0.0512144 0
M  V30 2546 H 240.472 3.15197 2.72867 0
M  V30 2547 H 239.132 1.98631 2.56857 0
M  V30 2548 H 240.143 5.13953 0.638193 0
M  V30 2549 H 236.82 3.3474 2.4951 0
M  V30 2550 H 238.21 6.71401 0.258894 0
M  V30 2551 N 240.93 -0.123565 1.57115 0
M  V30 2552 C 242.341 -0.681198 1.73829 0
M  V30 2553 C 242.692 -1.80535 0.768214 0
M  V30 2554 O 241.817 -2.16317 -0.0599103 0
M  V30 2555 C 242.412 -1.24246 3.15196 0
M  V30 2556 C 240.971 -1.74643 3.33432 0
M  V30 2557 C 240.118 -0.644284 2.69711 0
M  V30 2558 H 243.069 0.102315 1.5837 0
M  V30 2559 H 243.09 -2.11216 3.16493 0
M  V30 2560 H 242.602 -0.424062 3.85776 0
M  V30 2561 H 240.703 -2.58974 2.67886 0
M  V30 2562 H 240.816 -1.85902 4.41562 0
M  V30 2563 H 239.18 -1.07676 2.3082 0
M  V30 2564 H 239.963 0.163058 3.42913 0
M  V30 2565 N 242.408 -1.52605 -0.393616 0
M  V30 2566 C 243.341 -1.71798 -1.50202 0
M  V30 2567 C 244.319 -0.565743 -1.52441 0
M  V30 2568 O 245.503 -0.794987 -1.70916 0
M  V30 2569 C 242.63 -1.7714 -2.88685 0
M  V30 2570 C 241.676 -2.98845 -3.04292 0
M  V30 2571 S 242.509 -4.58909 -2.75976 0
M  V30 2572 C 243.665 -4.6706 -4.1666 0
M  V30 2573 H 243.898 -2.65542 -1.33696 0
M  V30 2574 H 241.431 -1.42839 -0.586195 0
M  V30 2575 H 243.389 -1.80903 -3.68489 0
M  V30 2576 H 242.05 -0.844969 -3.02521 0
M  V30 2577 H 241.243 -2.99111 -4.05646 0
M  V30 2578 H 240.845 -2.9305 -2.32374 0
M  V30 2579 H 243.137 -4.45391 -5.10523 0
M  V30 2580 H 244.08 -5.6905 -4.21412 0
M  V30 2581 H 244.488 -3.95944 -4.02354 0
M  V30 2582 N 243.887 0.651787 -1.4349 0
M  V30 2583 C 245.112 1.44434 -1.48841 0
M  V30 2584 C 245.537 1.8779 -0.107955 0
M  V30 2585 O 244.895 1.57464 0.898602 0
M  V30 2586 C 244.943 2.65458 -2.44059 0
M  V30 2587 O 244.047 3.64566 -1.92784 0
M  V30 2588 H 243.388 0.433005 -0.503391 0
M  V30 2589 H 245.918 0.797451 -1.88419 0
M  V30 2590 H 245.928 3.13255 -2.6141 0
M  V30 2591 H 244.603 2.33244 -3.4434 0
M  V30 2592 H 243.18 3.23716 -1.851 0
M  V30 2593 N 245.365 1.30045 0.890287 0
M  V30 2594 C 246.297 1.11786 2.00091 0
M  V30 2595 C 247.31 0.0626307 1.62679 0
M  V30 2596 O 248.499 0.308112 1.75821 0
M  V30 2597 C 245.599 0.681527 3.31977 0
M  V30 2598 C 244.772 1.81735 3.97858 0
M  V30 2599 C 243.831 1.37045 5.08041 0
M  V30 2600 O 242.857 2.07677 5.29961 0
M  V30 2601 N 244.059 0.246525 5.79976 0
M  V30 2602 H 246.824 2.07441 2.16306 0
M  V30 2603 H 244.385 1.2211 1.06305 0
M  V30 2604 H 246.377 0.365675 4.03045 0
M  V30 2605 H 244.947 -0.182828 3.12065 0
M  V30 2606 H 244.167 2.30159 3.20032 0
M  V30 2607 H 245.455 2.57865 4.38615 0
M  V30 2608 H 244.853 -0.34215 5.64664 0
M  V30 2609 H 243.41 -0.00990438 6.51799 0
M  V30 2610 N 246.843 -1.10192 1.12674 0
M  V30 2611 C 247.773 -2.18652 0.819362 0
M  V30 2612 C 248.754 -1.68698 -0.217915 0
M  V30 2613 O 249.939 -1.94041 -0.0785581 0
M  V30 2614 C 247.069 -3.46202 0.27594 0
M  V30 2615 C 246.023 -4.09444 1.24656 0
M  V30 2616 C 245.349 -5.31725 0.563258 0
M  V30 2617 C 246.649 -4.52863 2.60217 0
M  V30 2618 H 248.343 -2.44622 1.72628 0
M  V30 2619 H 245.889 -1.17571 0.831451 0
M  V30 2620 H 247.842 -4.21372 0.0486149 0
M  V30 2621 H 246.566 -3.1973 -0.666331 0
M  V30 2622 H 245.225 -3.36284 1.45974 0
M  V30 2623 H 244.873 -5.0153 -0.384235 0
M  V30 2624 H 244.573 -5.74991 1.21075 0
M  V30 2625 H 246.097 -6.09624 0.34503 0
M  V30 2626 H 247.511 -5.19294 2.42913 0
M  V30 2627 H 245.908 -5.06986 3.21068 0
M  V30 2628 H 246.978 -3.65656 3.18471 0
M  V30 2629 N 248.321 -0.919034 -1.28029 0
M  V30 2630 C 249.546 -0.570357 -1.99403 0
M  V30 2631 C 249.971 0.842486 -1.68178 0
M  V30 2632 O 249.329 1.56391 -0.917141 0
M  V30 2633 C 249.377 -0.792541 -3.51783 0
M  V30 2634 O 248.481 0.145988 -4.12142 0
M  V30 2635 H 247.822 -0.220555 -0.6263 0
M  V30 2636 H 250.352 -1.23592 -1.63053 0
M  V30 2637 H 250.362 -0.704708 -4.01868 0
M  V30 2638 H 249.037 -1.82247 -3.73844 0
M  V30 2639 H 247.614 0.00897528 -3.72899 0
M  V30 2640 N 249.799 1.42003 -0.683588 0
M  V30 2641 C 250.762 2.29191 -0.0198243 0
M  V30 2642 C 251.762 1.43773 0.72013 0
M  V30 2643 O 252.952 1.65061 0.556815 0
M  V30 2644 C 250.084 3.26435 0.982487 0
M  V30 2645 H 251.277 2.8938 -0.787345 0
M  V30 2646 H 248.83 1.49789 -0.446418 0
M  V30 2647 H 249.565 2.71203 1.77819 0
M  V30 2648 H 249.35 3.89449 0.455182 0
M  V30 2649 H 250.84 3.918 1.44508 0
M  V30 2650 N 251.277 0.427512 1.51691 0
M  V30 2651 C 252.24 -0.377132 2.26076 0
M  V30 2652 C 253.24 -0.958089 1.29141 0
M  V30 2653 O 254.43 -0.83408 1.52934 0
M  V30 2654 C 251.562 -1.53262 3.04506 0
M  V30 2655 H 252.755 0.27464 2.9864 0
M  V30 2656 H 250.308 0.180445 1.55255 0
M  V30 2657 H 251.043 -2.22072 2.36335 0
M  V30 2658 H 250.828 -1.12232 3.75694 0
M  V30 2659 H 252.318 -2.10135 3.60878 0
M  V30 2660 N 252.755 -1.56801 0.158532 0
M  V30 2661 C 254.001 -1.96781 -0.490405 0
M  V30 2662 C 254.334 -1.04397 -1.63753 0
M  V30 2663 O 253.609 -0.0885805 -1.94298 0
M  V30 2664 C 253.892 -3.4635 -0.985594 0
M  V30 2665 C 253.745 -4.49512 0.160824 0
M  V30 2666 C 255.064 -3.98697 -1.86355 0
M  V30 2667 H 252.183 -0.715482 -0.176788 0
M  V30 2668 H 254.825 -1.88451 0.242088 0
M  V30 2669 H 252.975 -3.53579 -1.60978 0
M  V30 2670 H 254.647 -4.54353 0.797537 0
M  V30 2671 H 252.89 -4.26013 0.818256 0
M  V30 2672 H 253.561 -5.51531 -0.227569 0
M  V30 2673 H 256.037 -3.94019 -1.33746 0
M  V30 2674 H 254.913 -5.03792 -2.17909 0
M  V30 2675 H 255.174 -3.41744 -2.8047 0
M  V30 2676 N 254.233 0.115231 -1.57178 0
M  V30 2677 C 255.461 0.836437 -1.89239 0
M  V30 2678 C 255.876 1.73256 -0.750175 0
M  V30 2679 O 255.233 1.80357 0.278832 0
M  V30 2680 C 255.284 1.66671 -3.20785 0
M  V30 2681 O 255.005 0.806652 -4.3061 0
M  V30 2682 C 256.506 2.49274 -3.66575 0
M  V30 2683 H 253.726 0.240253 -0.626514 0
M  V30 2684 H 256.27 0.0984932 -2.04263 0
M  V30 2685 H 254.425 2.35737 -3.0742 0
M  V30 2686 H 254.839 1.37969 -5.06028 0
M  V30 2687 H 256.313 3.03055 -4.6137 0
M  V30 2688 H 256.79 3.26807 -2.93417 0
M  V30 2689 H 257.396 1.85443 -3.82741 0
M  V30 2690 N 255.711 1.52812 0.385517 0
M  V30 2691 C 256.674 1.77188 1.45386 0
M  V30 2692 C 257.674 0.641953 1.4743 0
M  V30 2693 O 258.864 0.910033 1.4854 0
M  V30 2694 C 255.996 1.87582 2.8465 0
M  V30 2695 H 257.189 2.72583 1.25054 0
M  V30 2696 H 254.742 1.43586 0.617467 0
M  V30 2697 H 255.477 0.941849 3.10322 0
M  V30 2698 H 255.262 2.69748 2.84567 0
M  V30 2699 H 256.752 2.08102 3.62054 0
M  V30 2700 N 257.189 -0.644168 1.43834 0
M  V30 2701 C 258.119 -1.76814 1.52509 0
M  V30 2702 C 259.1 -1.65823 0.379052 0
M  V30 2703 O 260.285 -1.84781 0.597466 0
M  V30 2704 C 257.415 -3.15288 1.4564 0
M  V30 2705 C 256.369 -3.41053 2.58586 0
M  V30 2706 C 255.695 -4.79421 2.36769 0
M  V30 2707 C 256.995 -3.34902 4.00797 0
M  V30 2708 H 258.689 -1.69812 2.46586 0
M  V30 2709 H 256.235 -0.815542 1.1868 0
M  V30 2710 H 258.188 -3.93681 1.50311 0
M  V30 2711 H 256.912 -3.23043 0.480725 0
M  V30 2712 H 255.571 -2.65035 2.53282 0
M  V30 2713 H 255.219 -4.83863 1.37424 0
M  V30 2714 H 254.919 -4.9762 3.12487 0
M  V30 2715 H 256.443 -5.6006 2.43238 0
M  V30 2716 H 257.857 -4.03218 4.07539 0
M  V30 2717 H 256.254 -3.64637 4.76613 0
M  V30 2718 H 257.324 -2.32928 4.25291 0
M  V30 2719 N 258.668 -1.30515 -0.883378 0
M  V30 2720 C 259.616 -1.16941 -2.01066 0
M  V30 2721 C 260.61 -0.0809148 -1.69207 0
M  V30 2722 O 261.816 -0.241877 -1.78367 0
M  V30 2723 H 258.191 -0.361705 -0.659298 0
M  V30 2724 H 260.162 -2.12344 -2.09649 0
M  V30 2725 C 258.911 -0.879694 -3.36388 0
M  V30 2726 H 258.234 -1.70936 -3.61415 0
M  V30 2727 H 259.674 -0.82483 -4.159 0
M  V30 2728 C 258.133 0.417409 -3.34304 0
M  V30 2729 O 258.663 1.43843 -3.75063 0
M  V30 2730 N 256.869 0.429141 -2.87414 0
M  V30 2731 H 256.416 -0.402222 -2.5444 0
M  V30 2732 H 256.374 1.29696 -2.86403 0
M  V30 2733 N 260.146 1.09593 -1.13257 0
M  V30 2734 C 261.371 1.8604 -0.916732 0
M  V30 2735 C 261.796 1.80504 0.529146 0
M  V30 2736 O 261.154 1.18127 1.37534 0
M  V30 2737 C 261.202 3.32017 -1.40703 0
M  V30 2738 O 260.306 4.08141 -0.591153 0
M  V30 2739 H 259.647 0.576943 -0.328683 0
M  V30 2740 H 262.177 1.38405 -1.50682 0
M  V30 2741 H 262.187 3.82865 -1.4099 0
M  V30 2742 H 260.862 3.35361 -2.45979 0
M  V30 2743 H 259.439 3.67084 -0.656005 0
M  V30 2744 N 261.624 0.925811 1.2754 0
M  V30 2745 C 262.534 0.428993 2.30644 0
M  V30 2746 C 263.55 -0.489387 1.66976 0
M  V30 2747 O 264.726 -0.372653 1.97922 0
M  V30 2748 C 261.791 -0.311967 3.45294 0
M  V30 2749 C 260.852 0.641098 4.24486 0
M  V30 2750 C 260.085 -0.0645955 5.33661 0
M  V30 2751 O 260.308 -1.28429 5.55754 0
M  V30 2752 O 259.242 0.606265 5.98839 0
M  V30 2753 H 263.068 1.28504 2.75173 0
M  V30 2754 H 260.653 0.691086 1.32455 0
M  V30 2755 H 262.535 -0.729972 4.15029 0
M  V30 2756 H 261.21 -1.14365 3.02824 0
M  V30 2757 H 260.117 1.10874 3.57292 0
M  V30 2758 H 261.45 1.43995 4.70666 0
M  V30 2759 N 263.102 -1.41638 0.69111 0
M  V30 2760 C 264.327 -2.06148 0.227583 0
M  V30 2761 C 264.752 -1.51652 -1.11281 0
M  V30 2762 O 264.11 -0.64164 -1.69566 0
M  V30 2763 C 264.158 -3.60095 0.190858 0
M  V30 2764 O 263.262 -4.03845 -0.835664 0
M  V30 2765 H 262.603 -0.654434 0.112306 0
M  V30 2766 H 265.133 -1.81484 0.944714 0
M  V30 2767 H 265.143 -4.07995 0.020207 0
M  V30 2768 H 263.818 -3.99129 1.16915 0
M  V30 2769 H 262.395 -3.67458 -0.63473 0
M  V30 2770 N 264.58 -0.43555 -1.51462 0
M  V30 2771 C 265.528 0.391205 -2.29287 0
M  V30 2772 C 266.522 1.02247 -1.35062 0
M  V30 2773 O 267.728 0.957646 -1.52411 0
M  V30 2774 H 264.103 0.144968 -0.737895 0
M  V30 2775 H 266.074 -0.286051 -2.97026 0
M  V30 2776 C 264.823 1.48096 -3.14583 0
M  V30 2777 H 264.146 1.00457 -3.86973 0
M  V30 2778 H 265.586 2.03273 -3.72097 0
M  V30 2779 C 264.045 2.46321 -2.29843 0
M  V30 2780 O 264.575 3.50815 -1.95682 0
M  V30 2781 N 262.781 2.17166 -1.931 0
M  V30 2782 H 262.328 1.32218 -2.21079 0
M  V30 2783 H 262.286 2.83127 -1.36698 0
M  V30 2784 N 266.058 1.56714 -0.166846 0
M  V30 2785 C 267.305 1.96747 0.479252 0
M  V30 2786 C 267.633 1.05263 1.63554 0
M  V30 2787 O 266.888 0.0858098 1.95512 0
M  V30 2788 C 267.187 3.42889 1.00806 0
M  V30 2789 C 266.853 4.50889 -0.0318574 0
M  V30 2790 C 265.515 4.8015 -0.317675 0
M  V30 2791 C 267.867 5.15949 -0.737956 0
M  V30 2792 C 265.195 5.71772 -1.31506 0
M  V30 2793 C 267.547 6.08647 -1.72429 0
M  V30 2794 C 266.211 6.36277 -2.0176 0
M  V30 2795 H 265.481 0.719949 0.175371 0
M  V30 2796 H 268.128 1.89756 -0.257864 0
M  V30 2797 H 266.433 3.4681 1.82291 0
M  V30 2798 H 268.13 3.71203 1.51689 0
M  V30 2799 H 264.72 4.28128 0.201088 0
M  V30 2800 H 268.904 4.93458 -0.530351 0
M  V30 2801 H 264.16 5.91465 -1.54853 0
M  V30 2802 H 268.334 6.58129 -2.27682 0
M  V30 2803 H 265.961 7.07075 -2.79194 0
M  V30 2804 N 267.536 -0.106894 1.57237 0
M  V30 2805 C 268.499 -1.11466 2.0027 0
M  V30 2806 C 269.499 -1.33623 0.894519 0
M  V30 2807 O 270.689 -1.29935 1.16028 0
M  V30 2808 C 267.821 -2.46646 2.35327 0
M  V30 2809 H 269.014 -0.744516 2.90512 0
M  V30 2810 H 266.567 -0.351576 1.52295 0
M  V30 2811 H 267.302 -2.88558 1.48003 0
M  V30 2812 H 267.087 -2.31915 3.16161 0
M  V30 2813 H 268.577 -3.19151 2.69318 0
M  V30 2814 N 269.014 -1.53014 -0.377408 0
M  V30 2815 C 270.43 -1.42523 -0.718281 0
M  V30 2816 C 270.63 -0.55487 -1.9371 0
M  V30 2817 O 269.686 -0.0327593 -2.52479 0
M  V30 2818 C 270.999 -2.85546 -0.942539 0
M  V30 2819 C 272.547 -2.95101 -1.04329 0
M  V30 2820 C 273.022 -4.3916 -1.3001 0
M  V30 2821 N 274.513 -4.42536 -1.36806 0
M  V30 2822 C 275.248 -5.51097 -1.58364 0
M  V30 2823 N 274.744 -6.69724 -1.77317 0
M  V30 2824 N 276.537 -5.38657 -1.60638 0
M  V30 2825 H 268.688 -2.08116 0.424426 0
M  V30 2826 H 270.951 -0.939352 0.127759 0
M  V30 2827 H 270.657 -3.51499 -0.118929 0
M  V30 2828 H 270.531 -3.28493 -1.85397 0
M  V30 2829 H 272.918 -2.29309 -1.85745 0
M  V30 2830 H 272.999 -2.55566 -0.109505 0
M  V30 2831 H 272.643 -5.05521 -0.490991 0
M  V30 2832 H 272.573 -4.76258 -2.24691 0
M  V30 2833 H 275.064 -3.57039 -1.23821 0
M  V30 2834 H 275.377 -7.48233 -1.93306 0
M  V30 2835 H 273.722 -6.72732 -1.74518 0
M  V30 2836 H 276.913 -4.44948 -1.45391 0
M  V30 2837 H 277.086 -6.2333 -1.77098 0
M  V30 2838 N 270.492 0.636531 -1.44174 0
M  V30 2839 C 271.455 1.73063 -1.50273 0
M  V30 2840 C 272.455 1.56113 -0.385397 0
M  V30 2841 O 273.645 1.61707 -0.64781 0
M  V30 2842 C 270.777 3.12096 -1.37145 0
M  V30 2843 H 271.97 1.69031 -2.47727 0
M  V30 2844 H 269.523 0.849706 -1.31186 0
M  V30 2845 H 270.258 3.21728 -0.407636 0
M  V30 2846 H 270.043 3.25805 -2.18159 0
M  V30 2847 H 271.533 3.91846 -1.44382 0
M  V30 2848 N 271.97 1.30982 0.876444 0
M  V30 2849 C 273.2 1.23063 1.65949 0
M  V30 2850 C 273.608 -0.207537 1.88058 0
M  V30 2851 O 272.951 -1.14781 1.43426 0
M  V30 2852 C 273.013 1.89768 3.05333 0
M  V30 2853 C 272.677 3.39106 3.0636 0
M  V30 2854 C 273.674 4.3496 2.84791 0
M  V30 2855 C 271.359 3.80693 3.27686 0
M  V30 2856 C 273.353 5.70375 2.84519 0
M  V30 2857 C 271.04 5.16223 3.27043 0
M  V30 2858 C 272.038 6.10875 3.05485 0
M  V30 2859 O 271.726 7.43928 3.04674 0
M  V30 2860 H 271.458 0.426685 0.524324 0
M  V30 2861 H 274.012 1.7329 1.10271 0
M  V30 2862 H 272.242 1.34082 3.6271 0
M  V30 2863 H 273.931 1.75853 3.65829 0
M  V30 2864 H 274.697 4.0416 2.68103 0
M  V30 2865 H 270.576 3.07457 3.43499 0
M  V30 2866 H 274.12 6.44228 2.67611 0
M  V30 2867 H 270.017 5.4666 3.43269 0
M  V30 2868 H 270.785 7.53022 3.2078 0
M  V30 2869 N 273.449 -1.08991 1.13837 0
M  V30 2870 C 274.412 -2.13925 0.822715 0
M  V30 2871 C 275.412 -1.599 -0.1699 0
M  V30 2872 O 276.602 -1.74104 0.0577251 0
M  V30 2873 C 273.734 -3.40155 0.225318 0
M  V30 2874 H 274.927 -2.43358 1.75262 0
M  V30 2875 H 272.48 -1.24603 0.943594 0
M  V30 2876 H 273.215 -3.16352 -0.713594 0
M  V30 2877 H 273 -3.80661 0.940193 0
M  V30 2878 H 274.49 -4.17594 0.0214784 0
M  V30 2879 N 274.927 -0.932562 -1.27047 0
M  V30 2880 C 275.859 -0.392734 -2.2581 0
M  V30 2881 C 276.872 0.479241 -1.55586 0
M  V30 2882 O 278.061 0.291078 -1.76111 0
M  V30 2883 C 275.161 0.455456 -3.35826 0
M  V30 2884 C 274.334 -0.398355 -4.35582 0
M  V30 2885 C 273.393 0.387985 -5.24768 0
M  V30 2886 O 272.419 -0.206003 -5.68827 0
M  V30 2887 N 273.621 1.68664 -5.55457 0
M  V30 2888 H 276.386 -1.24173 -2.72766 0
M  V30 2889 H 273.947 -0.800511 -1.40725 0
M  V30 2890 H 275.939 0.988692 -3.92437 0
M  V30 2891 H 274.509 1.20522 -2.88432 0
M  V30 2892 H 273.729 -1.11286 -3.78165 0
M  V30 2893 H 275.017 -0.981889 -4.99236 0
M  V30 2894 H 274.415 2.19147 -5.21528 0
M  V30 2895 H 272.972 2.1663 -6.14748 0
M  V30 2896 N 276.405 1.4127 -0.698611 0
M  V30 2897 C 277.653 2.00782 -0.230409 0
M  V30 2898 C 277.974 1.5562 1.17505 0
M  V30 2899 O 277.244 0.78815 1.79346 0
M  V30 2900 H 275.824 0.742464 -0.0821944 0
M  V30 2901 H 278.486 1.72852 -0.90045 0
M  V30 2902 H 277.582 3.11095 -0.25021 0
M  V30 2903 N 277.883 0.443576 1.51229 0
M  V30 2904 C 279.132 -0.122332 2.01329 0
M  V30 2905 C 279.445 -1.43237 1.33201 0
M  V30 2906 O 280.651 -2.0816 1.74304 0
M  V30 2907 C 279.107 -0.268551 3.58897 0
M  V30 2908 C 278.715 1.03142 4.35965 0
M  V30 2909 C 280.459 -0.787894 4.17124 0
M  V30 2910 C 278.366 0.850504 5.85252 0
M  V30 2911 H 277.296 -0.0494929 0.752374 0
M  V30 2912 H 279.947 0.574289 1.74282 0
M  V30 2913 H 278.329 -1.02832 3.82415 0
M  V30 2914 H 279.503 1.80001 4.24189 0
M  V30 2915 H 277.818 1.47977 3.89219 0
M  V30 2916 H 280.415 -0.939841 5.26375 0
M  V30 2917 H 280.758 -1.77201 3.76703 0
M  V30 2918 H 281.291 -0.0862669 3.97706 0
M  V30 2919 H 278.03 1.80718 6.30096 0
M  V30 2920 H 277.55 0.121825 5.99676 0
M  V30 2921 H 279.229 0.506163 6.45017 0
M  V30 2922 N 279.361 -1.56624 0.175154 0
M  V30 2923 C 280.586 -2.01813 -0.478137 0
M  V30 2924 C 281.011 -1.05457 -1.55757 0
M  V30 2925 O 280.369 -0.0347439 -1.81267 0
M  V30 2926 C 280.417 -3.45581 -1.02987 0
M  V30 2927 O 279.521 -3.52305 -2.14371 0
M  V30 2928 H 278.862 -0.65413 -0.114059 0
M  V30 2929 H 281.392 -2.02673 0.280173 0
M  V30 2930 H 281.402 -3.84965 -1.35151 0
M  V30 2931 H 280.077 -4.1521 -0.239556 0
M  V30 2932 H 278.654 -3.24783 -1.83222 0
M  V30 2933 N 280.839 0.0985539 -1.57292 0
M  V30 2934 C 282.255 0.45267 -1.53046 0
M  V30 2935 C 282.455 1.80713 -0.891342 0
M  V30 2936 O 281.511 2.4785 -0.482375 0
M  V30 2937 C 282.824 0.418341 -2.97776 0
M  V30 2938 C 284.372 0.500443 -3.08973 0
M  V30 2939 C 284.847 0.496297 -4.55303 0
M  V30 2940 N 286.338 0.557151 -4.59837 0
M  V30 2941 C 287.073 0.575726 -5.70502 0
M  V30 2942 N 286.569 0.550714 -6.90608 0
M  V30 2943 N 288.362 0.620277 -5.58667 0
M  V30 2944 H 280.513 -0.788673 -1.97215 0
M  V30 2945 H 282.776 -0.293188 -0.901524 0
M  V30 2946 H 282.482 -0.509659 -3.47988 0
M  V30 2947 H 282.356 1.2386 -3.56284 0
M  V30 2948 H 284.743 1.41886 -2.58751 0
M  V30 2949 H 284.824 -0.347894 -2.53423 0
M  V30 2950 H 284.468 -0.418162 -5.06176 0
M  V30 2951 H 284.398 1.3618 -5.08687 0
M  V30 2952 H 286.889 0.581816 -3.73394 0
M  V30 2953 H 287.202 0.568075 -7.70709 0
M  V30 2954 H 285.547 0.517816 -6.93068 0
M  V30 2955 H 288.738 0.637322 -4.63741 0
M  V30 2956 H 288.911 0.631283 -6.44918 0
M  V30 2957 N 282.317 1.53212 0.369288 0
M  V30 2958 C 283.545 1.73119 1.13303 0
M  V30 2959 C 283.96 0.458455 1.83149 0
M  V30 2960 O 283.317 -0.568403 1.73423 0
M  V30 2961 C 283.368 2.89413 2.16616 0
M  V30 2962 O 283.089 4.11761 1.49614 0
M  V30 2963 C 284.59 3.21161 3.05566 0
M  V30 2964 H 281.81 0.579107 0.338934 0
M  V30 2965 H 284.354 1.99942 0.429338 0
M  V30 2966 H 282.509 2.64994 2.82589 0
M  V30 2967 H 282.923 4.76858 2.18419 0
M  V30 2968 H 284.397 4.05949 3.74045 0
M  V30 2969 H 284.874 2.36369 3.70171 0
M  V30 2970 H 285.48 3.47492 2.45213 0
M  V30 2971 N 283.795 -0.628877 1.44509 0
M  V30 2972 C 284.742 -1.74074 1.51549 0
M  V30 2973 C 285.712 -1.62084 0.363021 0
M  V30 2974 O 286.897 -1.81975 0.573567 0
M  V30 2975 C 284.037 -3.12328 1.46784 0
M  V30 2976 C 283.15 -3.35277 2.72422 0
M  V30 2977 C 282.285 -4.63515 2.59475 0
M  V30 2978 C 281.324 -4.7965 3.80266 0
M  V30 2979 N 280.461 -5.99168 3.65981 0
M  V30 2980 H 285.301 -1.67392 2.46544 0
M  V30 2981 H 282.838 -0.816527 1.22357 0
M  V30 2982 H 284.796 -3.92286 1.42012 0
M  V30 2983 H 283.426 -3.18018 0.553544 0
M  V30 2984 H 282.478 -2.49242 2.87372 0
M  V30 2985 H 283.79 -3.43078 3.62076 0
M  V30 2986 H 282.944 -5.51638 2.52548 0
M  V30 2987 H 281.683 -4.58076 1.67384 0
M  V30 2988 H 280.688 -3.89957 3.87574 0
M  V30 2989 H 281.913 -4.86902 4.73395 0
M  V30 2990 H 279.859 -5.94814 2.76644 0
M  V30 2991 H 279.776 -6.08035 4.49254 0
M  V30 2992 H 281.044 -6.89846 3.6295 0
M  V30 2993 N 285.273 -1.31445 -0.869486 0
M  V30 2994 C 286.503 -1.23942 -1.65294 0
M  V30 2995 C 286.911 0.197561 -1.88166 0
M  V30 2996 O 286.254 1.14019 -1.44033 0
M  V30 2997 C 286.316 -1.91385 -3.04322 0
M  V30 2998 C 285.98 -3.40726 -3.04557 0
M  V30 2999 C 286.977 -4.36464 -2.82481 0
M  V30 3000 C 284.662 -3.82425 -3.25663 0
M  V30 3001 C 286.656 -5.71876 -2.8149 0
M  V30 3002 C 284.343 -5.1795 -3.243 0
M  V30 3003 C 285.341 -6.12486 -3.02241 0
M  V30 3004 O 285.029 -7.45534 -3.00724 0
M  V30 3005 H 284.761 -0.429459 -0.522054 0
M  V30 3006 H 287.315 -1.73873 -1.0935 0
M  V30 3007 H 285.545 -1.36004 -3.61994 0
M  V30 3008 H 287.234 -1.77791 -3.64891 0
M  V30 3009 H 288 -4.05576 -2.65956 0
M  V30 3010 H 283.879 -3.09274 -3.41863 0
M  V30 3011 H 287.423 -6.45638 -2.64191 0
M  V30 3012 H 283.32 -5.48473 -3.40365 0
M  V30 3013 H 284.088 -7.54713 -3.16782 0
M  V30 3014 N 286.751 1.08385 -1.14413 0
M  V30 3015 C 287.997 1.81212 -0.923793 0
M  V30 3016 C 288.352 1.84555 0.543814 0
M  V30 3017 O 287.645 1.31056 1.39767 0
M  V30 3018 C 287.839 3.26273 -1.45879 0
M  V30 3019 C 287.668 3.37063 -2.97689 0
M  V30 3020 C 286.438 3.4824 -3.66138 0
M  V30 3021 C 288.636 3.28698 -3.95553 0
M  V30 3022 N 286.618 3.47824 -5.05858 0
M  V30 3023 C 287.989 3.35276 -5.21527 0
M  V30 3024 C 290.044 3.12437 -3.8767 0
M  V30 3025 C 288.747 3.27267 -6.40538 0
M  V30 3026 C 290.773 3.05757 -5.06228 0
M  V30 3027 C 290.135 3.12938 -6.3107 0
M  V30 3028 H 286.234 0.6769 -0.391574 0
M  V30 3029 H 288.818 1.29455 -1.45429 0
M  V30 3030 H 286.989 3.76474 -0.95507 0
M  V30 3031 H 288.721 3.87165 -1.17835 0
M  V30 3032 H 285.476 3.52141 -3.16692 0
M  V30 3033 H 285.9 3.51171 -5.78798 0
M  V30 3034 H 290.542 3.05747 -2.92025 0
M  V30 3035 H 288.26 3.32718 -7.36427 0
M  V30 3036 H 291.846 2.94295 -5.01878 0
M  V30 3037 H 290.726 3.078 -7.21269 0
M  V30 3038 N 288.23 0.939286 1.26551 0
M  V30 3039 C 289.14 0.453432 2.30176 0
M  V30 3040 C 290.156 -0.471649 1.67486 0
M  V30 3041 O 291.332 -0.35164 1.98306 0
M  V30 3042 C 288.397 -0.275326 3.45605 0
M  V30 3043 C 287.458 0.686084 4.23782 0
M  V30 3044 C 286.691 -0.00798994 5.33699 0
M  V30 3045 O 286.914 -1.22528 5.57085 0
M  V30 3046 O 285.848 0.669746 5.98162 0
M  V30 3047 H 289.674 1.31416 2.73795 0
M  V30 3048 H 287.259 0.705095 1.31715 0
M  V30 3049 H 289.141 -0.685911 4.1578 0
M  V30 3050 H 287.816 -1.11147 3.0402 0
M  V30 3051 H 286.723 1.14658 3.56096 0
M  V30 3052 H 288.056 1.48979 4.69112 0
M  V30 3053 N 289.708 -1.40897 0.706093 0
M  V30 3054 C 290.638 -2.33418 0.0620085 0
M  V30 3055 C 291.619 -1.52385 -0.755827 0
M  V30 3056 O 292.804 -1.80886 -0.706674 0
M  V30 3057 C 289.934 -3.36293 -0.867445 0
M  V30 3058 C 288.888 -4.27716 -0.155932 0
M  V30 3059 C 288.214 -5.2105 -1.20046 0
M  V30 3060 C 289.514 -5.12944 0.984149 0
M  V30 3061 H 291.208 -2.87527 0.83477 0
M  V30 3062 H 288.754 -1.38249 0.402875 0
M  V30 3063 H 290.707 -3.99949 -1.32735 0
M  V30 3064 H 289.431 -2.80556 -1.67199 0
M  V30 3065 H 288.09 -3.65498 0.284047 0
M  V30 3066 H 287.738 -4.61624 -1.99781 0
M  V30 3067 H 287.438 -5.83056 -0.729328 0
M  V30 3068 H 288.962 -5.87584 -1.66066 0
M  V30 3069 H 290.376 -5.70109 0.604048 0
M  V30 3070 H 288.773 -5.83945 1.38304 0
M  V30 3071 H 289.843 -4.49485 1.81911 0
M  V30 3072 N 291.186 -0.45159 -1.50991 0
M  V30 3073 C 292.435 0.111653 -2.01391 0
M  V30 3074 C 292.748 1.42529 -1.33959 0
M  V30 3075 O 293.954 2.07232 -1.75405 0
M  V30 3076 C 292.41 0.249514 -3.59034 0
M  V30 3077 C 292.018 -1.05453 -4.35412 0
M  V30 3078 C 293.762 0.765762 -4.17536 0
M  V30 3079 C 291.669 -0.881529 -5.84793 0
M  V30 3080 H 290.599 0.0455022 -0.752626 0
M  V30 3081 H 293.25 -0.583524 -1.73975 0
M  V30 3082 H 291.632 1.00803 -3.82955 0
M  V30 3083 H 292.806 -1.82248 -4.23229 0
M  V30 3084 H 291.121 -1.50039 -3.88429 0
M  V30 3085 H 293.718 0.911913 -5.26866 0
M  V30 3086 H 294.061 1.75201 -3.77638 0
M  V30 3087 H 294.594 0.0651744 -3.97747 0
M  V30 3088 H 291.333 -1.84057 -6.29129 0
M  V30 3089 H 290.853 -0.153625 -5.99603 0
M  V30 3090 H 292.532 -0.540363 -6.4474 0
M  V30 3091 N 292.664 1.56529 -0.183458 0
M  V30 3092 C 293.894 2.01331 0.463612 0
M  V30 3093 C 294.302 1.06278 1.5653 0
M  V30 3094 O 293.645 0.0577976 1.83609 0
M  V30 3095 C 293.707 3.42547 1.09096 0
M  V30 3096 C 293.371 4.56817 0.129442 0
M  V30 3097 C 294.368 5.15734 -0.656807 0
M  V30 3098 C 292.053 5.02295 0.02174 0
M  V30 3099 C 294.047 6.1857 -1.53784 0
M  V30 3100 C 291.734 6.04978 -0.862864 0
M  V30 3101 C 292.732 6.62988 -1.64123 0
M  V30 3102 O 292.42 7.63677 -2.51103 0
M  V30 3103 H 292.152 0.664917 0.121907 0
M  V30 3104 H 294.706 2.034 -0.285954 0
M  V30 3105 H 292.936 3.37428 1.88889 0
M  V30 3106 H 294.625 3.71228 1.64148 0
M  V30 3107 H 295.391 4.81473 -0.583839 0
M  V30 3108 H 291.27 4.56847 0.617392 0
M  V30 3109 H 294.814 6.63777 -2.14583 0
M  V30 3110 H 290.711 6.38663 -0.93699 0
M  V30 3111 H 291.479 7.81049 -2.44753 0
M  V30 3112 N 294.142 -0.090211 1.57342 0
M  V30 3113 C 295.052 -1.12735 2.05738 0
M  V30 3114 C 296.068 -1.43557 0.983231 0
M  V30 3115 O 297.244 -1.54101 1.29672 0
M  V30 3116 C 294.309 -2.42659 2.47624 0
M  V30 3117 C 293.37 -2.18975 3.69254 0
M  V30 3118 C 292.603 -3.42704 4.09133 0
M  V30 3119 O 292.826 -4.51127 3.49057 0
M  V30 3120 O 291.76 -3.32003 5.02053 0
M  V30 3121 H 295.586 -0.746279 2.94388 0
M  V30 3122 H 293.171 -0.303064 1.46294 0
M  V30 3123 H 295.053 -3.19155 2.7517 0
M  V30 3124 H 293.728 -2.80182 1.62109 0
M  V30 3125 H 292.635 -1.40244 3.46818 0
M  V30 3126 H 293.968 -1.86342 4.55563 0
M  V30 3127 N 295.62 -1.53406 -0.361157 0
M  V30 3128 C 296.897 -1.60411 -1.11927 0
M  V30 3129 C 297.277 -0.414385 -2.06993 0
M  V30 3130 O 296.625 0.594976 -2.20618 0
M  V30 3131 C 296.835 -2.95652 -1.85448 0
M  V30 3132 C 298.183 -3.50386 -2.39823 0
M  V30 3133 O 299.207 -2.97711 -1.95568 0
M  V30 3134 O 298.066 -4.42482 -3.20737 0
M  V30 3135 H 295.16 -0.64811 -0.513695 0
M  V30 3136 H 297.706 -1.65749 -0.364065 0
M  V30 3137 H 296.478 -3.73682 -1.16091 0
M  V30 3138 H 296.101 -2.93825 -2.67866 0
M  V30 3139 N 297.098 0.621204 -1.44841 0
M  V30 3140 C 298.323 1.41244 -1.51871 0
M  V30 3141 C 298.748 1.87519 -0.147764 0
M  V30 3142 O 298.106 1.59334 0.865 0
M  V30 3143 C 298.154 2.60221 -2.49634 0
M  V30 3144 O 297.258 3.60395 -2.00473 0
M  V30 3145 H 296.599 0.42223 -0.512463 0
M  V30 3146 H 299.129 0.757305 -1.90069 0
M  V30 3147 H 299.139 3.0764 -2.67996 0
M  V30 3148 H 297.814 2.25887 -3.4921 0
M  V30 3149 H 296.391 3.19717 -1.91925 0
M  V30 3150 N 298.576 1.31904 0.862503 0
M  V30 3151 C 299.509 1.14514 1.97388 0
M  V30 3152 C 300.487 0.0466493 1.62533 0
M  V30 3153 O 301.671 0.204484 1.87388 0
M  V30 3154 C 298.798 0.751347 3.30261 0
M  V30 3155 C 297.844 1.85395 3.84098 0
M  V30 3156 S 298.677 3.46081 4.08642 0
M  V30 3157 C 299.833 3.08655 5.44502 0
M  V30 3158 H 300.066 2.08597 2.11836 0
M  V30 3159 H 297.599 1.16475 1.01356 0
M  V30 3160 H 299.557 0.530901 4.07052 0
M  V30 3161 H 298.218 -0.170493 3.13637 0
M  V30 3162 H 297.411 1.53122 4.80177 0
M  V30 3163 H 297.013 2.02984 3.14123 0
M  V30 3164 H 299.305 2.58012 6.26447 0
M  V30 3165 H 300.248 4.03726 5.81731 0
M  V30 3166 H 300.656 2.45891 5.08132 0
M  V30 3167 N 300.054 -1.07777 1.14986 0
M  V30 3168 C 301.331 -1.7699 0.832695 0
M  V30 3169 C 301.711 -2.001 -0.672561 0
M  V30 3170 O 301.059 -1.61598 -1.6155 0
M  V30 3171 C 301.269 -3.08139 1.63863 0
M  V30 3172 C 302.617 -3.8256 1.84208 0
M  V30 3173 O 303.641 -3.17939 1.60603 0
M  V30 3174 O 302.5 -4.98612 2.23714 0
M  V30 3175 H 299.594 -0.768389 0.305791 0
M  V30 3176 H 302.14 -1.14182 1.25541 0
M  V30 3177 H 300.912 -2.86909 2.6608 0
M  V30 3178 H 300.535 -3.78678 1.21197 0
M  V30 3179 N 301.532 -0.945985 -1.26051 0
M  V30 3180 C 302.462 -0.477172 -2.28572 0
M  V30 3181 C 303.443 0.472032 -1.63419 0
M  V30 3182 O 304.628 0.372853 -1.90587 0
M  V30 3183 C 301.758 0.253975 -3.4637 0
M  V30 3184 C 300.712 -0.609135 -4.23643 0
M  V30 3185 C 300.038 0.252252 -5.34105 0
M  V30 3186 C 301.338 -1.8829 -4.8718 0
M  V30 3187 H 303.032 -1.33402 -2.68038 0
M  V30 3188 H 300.578 -0.642904 -1.28852 0
M  V30 3189 H 302.531 0.593016 -4.17207 0
M  V30 3190 H 301.255 1.145 -3.05871 0
M  V30 3191 H 299.914 -0.931138 -3.54578 0
M  V30 3192 H 299.562 1.14278 -4.89846 0
M  V30 3193 H 299.262 -0.32188 -5.86718 0
M  V30 3194 H 300.786 0.586454 -6.07777 0
M  V30 3195 H 302.2 -1.61081 -5.50205 0
M  V30 3196 H 300.597 -2.40199 -5.49931 0
M  V30 3197 H 301.667 -2.59134 -4.09851 0
M  V30 3198 N 303.011 1.40521 -0.713556 0
M  V30 3199 C 304.26 2.00155 -0.249192 0
M  V30 3200 C 304.573 1.57224 1.16362 0
M  V30 3201 O 305.779 2.09542 1.72639 0
M  V30 3202 C 304.235 3.5773 -0.3946 0
M  V30 3203 C 303.843 4.09635 -1.81392 0
M  V30 3204 C 305.587 4.24499 0.00907364 0
M  V30 3205 C 303.494 5.59707 -1.91003 0
M  V30 3206 H 302.424 0.74868 -0.0894114 0
M  V30 3207 H 305.075 1.60784 -0.884352 0
M  V30 3208 H 303.457 3.94792 0.30911 0
M  V30 3209 H 304.631 3.83955 -2.54785 0
M  V30 3210 H 302.946 3.55456 -2.16888 0
M  V30 3211 H 305.543 5.34683 -0.0420404 0
M  V30 3212 H 305.886 4.02824 1.05065 0
M  V30 3213 H 306.419 3.92536 -0.645007 0
M  V30 3214 H 303.158 5.86234 -2.93275 0
M  V30 3215 H 302.678 5.87258 -1.22019 0
M  V30 3216 H 304.357 6.24776 -1.6812 0
M  V30 3217 N 304.489 0.459591 1.5075 0
M  V30 3218 C 305.452 -0.329093 2.26825 0
M  V30 3219 C 306.452 -0.930481 1.31144 0
M  V30 3220 O 307.642 -0.801453 1.54669 0
M  V30 3221 C 304.774 -1.46768 3.07688 0
M  V30 3222 H 305.967 0.337924 2.9799 0
M  V30 3223 H 303.52 0.213336 1.54837 0
M  V30 3224 H 304.255 -2.17009 2.40993 0
M  V30 3225 H 304.04 -1.04238 3.77991 0
M  V30 3226 H 305.53 -2.02433 3.65254 0
M  V30 3227 N 305.967 -1.56429 0.191757 0
M  V30 3228 C 306.914 -2.18936 -0.730454 0
M  V30 3229 C 307.884 -1.13557 -1.21219 0
M  V30 3230 O 309.069 -1.41794 -1.27668 0
M  V30 3231 C 306.209 -2.85013 -1.9458 0
M  V30 3232 C 305.322 -4.04909 -1.50574 0
M  V30 3233 C 304.457 -4.58853 -2.67634 0
M  V30 3234 C 303.496 -5.71114 -2.20217 0
M  V30 3235 N 302.633 -6.19478 -3.30442 0
M  V30 3236 H 307.473 -2.97389 -0.190664 0
M  V30 3237 H 305.01 -1.46869 -0.0823694 0
M  V30 3238 H 306.968 -3.21492 -2.65893 0
M  V30 3239 H 305.598 -2.09129 -2.45896 0
M  V30 3240 H 304.65 -3.74115 -0.688605 0
M  V30 3241 H 305.962 -4.86113 -1.11784 0
M  V30 3242 H 305.116 -4.97619 -3.47074 0
M  V30 3243 H 303.855 -3.76749 -3.09696 0
M  V30 3244 H 302.86 -5.31879 -1.3923 0
M  V30 3245 H 304.085 -6.55033 -1.79189 0
M  V30 3246 H 302.031 -5.40297 -3.72041 0
M  V30 3247 H 301.948 -6.95725 -2.9581 0
M  V30 3248 H 303.216 -6.62898 -4.10106 0
M  V30 3249 N 307.445 0.0818655 -1.57387 0
M  V30 3250 C 308.375 1.09885 -2.06028 0
M  V30 3251 C 309.356 1.4098 -0.951774 0
M  V30 3252 O 310.541 1.50781 -1.22387 0
M  V30 3253 C 307.671 2.4151 -2.4958 0
M  V30 3254 C 306.625 2.24792 -3.64215 0
M  V30 3255 C 305.951 3.61712 -3.93787 0
M  V30 3256 C 307.251 1.67749 -4.94629 0
M  V30 3257 H 308.945 0.694128 -2.91243 0
M  V30 3258 H 306.491 0.332448 -1.4011 0
M  V30 3259 H 308.444 3.12939 -2.82219 0
M  V30 3260 H 307.168 2.83943 -1.61381 0
M  V30 3261 H 305.827 1.55807 -3.31843 0
M  V30 3262 H 305.475 4.01697 -3.02735 0
M  V30 3263 H 305.175 3.51368 -4.70971 0
M  V30 3264 H 306.699 4.34587 -4.28913 0
M  V30 3265 H 308.113 2.29032 -5.25564 0
M  V30 3266 H 306.51 1.68128 -5.76067 0
M  V30 3267 H 307.58 0.638059 -4.80684 0
M  V30 3268 N 308.923 1.53595 0.353017 0
M  V30 3269 C 310.334 1.61937 0.929153 0
M  V30 3270 C 310.685 0.494686 1.89861 0
M  V30 3271 O 309.81 -0.377017 2.1309 0
M  V30 3272 C 310.405 2.93526 1.69199 0
M  V30 3273 C 308.964 3.04161 2.21727 0
M  V30 3274 C 308.111 2.57322 1.03348 0
M  V30 3275 H 311.062 1.58155 0.131431 0
M  V30 3276 H 311.083 2.82034 2.55416 0
M  V30 3277 H 310.595 3.75362 0.986144 0
M  V30 3278 H 308.696 2.26938 2.95516 0
M  V30 3279 H 308.809 4.09465 2.48748 0
M  V30 3280 H 307.173 2.12499 1.40414 0
M  V30 3281 H 307.956 3.41588 0.342428 0
M  V30 3282 N 310.401 -0.613514 1.45168 0
M  V30 3283 C 311.641 -1.38405 1.5041 0
M  V30 3284 C 312.005 -1.91489 0.139922 0
M  V30 3285 O 313.206 -2.68716 0.067033 0
M  V30 3286 C 311.477 -2.50552 2.5487 0
M  V30 3287 S 313.036 -3.38439 2.79292 0
M  V30 3288 H 309.854 -0.471945 0.531779 0
M  V30 3289 H 312.456 -0.708518 1.82209 0
M  V30 3290 H 311.16 -2.09894 3.52665 0
M  V30 3291 H 310.691 -3.22913 2.24701 0
M  V30 3292 H 312.706 -4.48527 2.12222 0
M  V30 3293 N 311.879 -1.3236 -0.855495 0
M  V30 3294 C 313.125 -1.23054 -1.612 0
M  V30 3295 C 313.458 0.207404 -1.93089 0
M  V30 3296 O 312.733 1.14432 -1.57275 0
M  V30 3297 C 313.016 -2.08937 -2.93287 0
M  V30 3298 C 312.869 -3.61105 -2.68185 0
M  V30 3299 C 314.188 -1.94986 -3.94549 0
M  V30 3300 H 311.307 -0.448364 -0.584926 0
M  V30 3301 H 313.949 -1.62297 -0.987917 0
M  V30 3302 H 312.099 -1.75599 -3.46551 0
M  V30 3303 H 313.771 -4.04652 -2.21483 0
M  V30 3304 H 312.014 -3.83813 -2.02164 0
M  V30 3305 H 312.685 -4.16522 -3.62234 0
M  V30 3306 H 315.161 -2.24189 -3.5054 0
M  V30 3307 H 314.037 -2.57356 -4.84829 0
M  V30 3308 H 314.298 -0.917263 -4.3248 0
M  V30 3309 N 313.357 1.07166 -1.15556 0
M  V30 3310 C 314.32 2.12589 -0.856644 0
M  V30 3311 C 315.32 1.6015 0.14444 0
M  V30 3312 O 316.51 1.7399 -0.0854163 0
M  V30 3313 C 313.642 3.39753 -0.279405 0
M  V30 3314 H 314.835 2.40539 -1.79112 0
M  V30 3315 H 312.388 1.23086 -0.963298 0
M  V30 3316 H 313.123 3.17447 0.663174 0
M  V30 3317 H 312.908 3.79117 -1.00063 0
M  V30 3318 H 314.398 4.17507 -0.0879113 0
M  V30 3319 N 314.835 0.952656 1.25548 0
M  V30 3320 C 315.798 0.475794 2.24207 0
M  V30 3321 C 316.798 -0.419428 1.55234 0
M  V30 3322 O 317.988 -0.216994 1.72843 0
M  V30 3323 C 315.12 -0.312814 3.39462 0
M  V30 3324 H 316.313 1.34779 2.67908 0
M  V30 3325 H 313.866 0.735739 1.37901 0
M  V30 3326 H 314.601 -1.20257 3.01179 0
M  V30 3327 H 314.386 0.329404 3.90714 0
M  V30 3328 H 315.876 -0.635986 4.12729 0
M  V30 3329 N 316.313 -1.40141 0.720998 0
M  V30 3330 C 317.26 -2.30688 0.071919 0
M  V30 3331 C 318.23 -1.48476 -0.744584 0
M  V30 3332 O 319.415 -1.77201 -0.707423 0
M  V30 3333 C 316.555 -3.34724 -0.839855 0
M  V30 3334 C 315.668 -4.31998 -0.0122438 0
M  V30 3335 C 314.803 -5.23102 -0.923995 0
M  V30 3336 C 313.842 -6.12033 -0.0907969 0
M  V30 3337 N 312.979 -6.95537 -0.957718 0
M  V30 3338 H 317.819 -2.85628 0.849755 0
M  V30 3339 H 315.356 -1.40653 0.430726 0
M  V30 3340 H 317.314 -3.93618 -1.38279 0
M  V30 3341 H 315.944 -2.81274 -1.58381 0
M  V30 3342 H 314.996 -3.74841 0.64794 0
M  V30 3343 H 316.308 -4.94772 0.632595 0
M  V30 3344 H 315.462 -5.86953 -1.53527 0
M  V30 3345 H 314.201 -4.60615 -1.60264 0
M  V30 3346 H 313.206 -5.47207 0.533377 0
M  V30 3347 H 314.431 -6.76581 0.584428 0
M  V30 3348 H 312.377 -6.35633 -1.62192 0
M  V30 3349 H 312.294 -7.55099 -0.36904 0
M  V30 3350 H 313.562 -7.63832 -1.555 0
M  V30 3351 N 317.792 -0.46758 -1.50504 0
M  V30 3352 C 319.041 0.0902868 -2.01498 0
M  V30 3353 C 319.354 1.411 -1.35463 0
M  V30 3354 O 320.56 2.0536 -1.77594 0
M  V30 3355 C 319.016 0.21142 -3.59278 0
M  V30 3356 C 318.624 -1.10065 -4.34269 0
M  V30 3357 C 320.368 0.721433 -4.18325 0
M  V30 3358 C 318.275 -0.943505 -5.83825 0
M  V30 3359 H 317.205 0.037517 -0.753066 0
M  V30 3360 H 319.856 -0.601943 -1.73346 0
M  V30 3361 H 318.238 0.967352 -3.84003 0
M  V30 3362 H 319.412 -1.86726 -4.21272 0
M  V30 3363 H 317.727 -1.5415 -3.86816 0
M  V30 3364 H 320.324 0.85598 -5.27804 0
M  V30 3365 H 320.667 1.71186 -3.79475 0
M  V30 3366 H 321.2 0.0229843 -3.97793 0
M  V30 3367 H 317.939 -1.90719 -6.27141 0
M  V30 3368 H 317.459 -0.217213 -5.99407 0
M  V30 3369 H 319.138 -0.608715 -6.4413 0
M  V30 3370 N 319.27 1.56325 -0.20005 0
M  V30 3371 C 320.5 2.01811 0.442232 0
M  V30 3372 C 320.908 1.07932 1.55394 0
M  V30 3373 O 320.251 0.0772685 1.83537 0
M  V30 3374 C 320.313 3.43685 1.05457 0
M  V30 3375 C 319.977 4.56928 0.0809833 0
M  V30 3376 C 320.974 5.15009 -0.711471 0
M  V30 3377 C 318.659 5.0229 -0.0315364 0
M  V30 3378 C 320.653 6.16904 -1.60336 0
M  V30 3379 C 318.34 6.04028 -0.926981 0
M  V30 3380 C 319.338 6.6121 -1.71146 0
M  V30 3381 O 319.026 7.60971 -2.59189 0
M  V30 3382 H 318.758 0.666173 0.114848 0
M  V30 3383 H 321.312 2.03085 -0.307511 0
M  V30 3384 H 319.542 3.39413 1.85299 0
M  V30 3385 H 321.231 3.72948 1.60201 0
M  V30 3386 H 321.997 4.80827 -0.634873 0
M  V30 3387 H 317.876 4.57476 0.568902 0
M  V30 3388 H 321.42 6.61464 -2.21611 0
M  V30 3389 H 317.317 6.37634 -1.00468 0
M  V30 3390 H 318.085 7.7841 -2.53023 0
M  V30 3391 N 320.748 -0.0735177 1.57428 0
M  V30 3392 C 322.164 -0.428264 1.53747 0
M  V30 3393 C 322.364 -1.79272 0.91998 0
M  V30 3394 O 321.42 -2.47051 0.521745 0
M  V30 3395 C 322.733 -0.370914 2.98404 0
M  V30 3396 C 324.281 -0.451224 3.0973 0
M  V30 3397 C 324.756 -0.4238 4.56035 0
M  V30 3398 N 326.247 -0.483925 4.60665 0
M  V30 3399 C 326.982 -0.484891 5.71346 0
M  V30 3400 N 326.478 -0.440775 6.91396 0
M  V30 3401 N 328.271 -0.531319 5.59583 0
M  V30 3402 H 320.422 0.819949 1.95935 0
M  V30 3403 H 322.685 0.307493 0.896745 0
M  V30 3404 H 322.391 0.564956 3.47133 0
M  V30 3405 H 322.265 -1.18176 3.5821 0
M  V30 3406 H 324.652 -1.37752 2.60976 0
M  V30 3407 H 324.733 0.388167 2.52838 0
M  V30 3408 H 324.377 0.498638 5.05446 0
M  V30 3409 H 324.307 -1.2807 5.10789 0
M  V30 3410 H 326.798 -0.522338 3.74273 0
M  V30 3411 H 327.111 -0.44539 7.71515 0
M  V30 3412 H 325.456 -0.40749 6.93804 0
M  V30 3413 H 328.647 -0.563464 4.64696 0
M  V30 3414 H 328.82 -0.528603 6.4584 0
M  V30 3415 N 322.226 -1.5378 -0.344866 0
M  V30 3416 C 323.174 -1.82373 -1.4437 0
M  V30 3417 C 324.168 -0.694128 -1.54526 0
M  V30 3418 O 325.374 -0.877442 -1.57165 0
M  V30 3419 H 321.749 -0.577765 -0.481344 0
M  V30 3420 H 323.72 -2.74306 -1.17468 0
M  V30 3421 C 322.469 -2.04898 -2.80913 0
M  V30 3422 H 321.792 -2.9127 -2.73865 0
M  V30 3423 H 323.232 -2.28871 -3.56923 0
M  V30 3424 C 321.691 -0.834116 -3.26411 0
M  V30 3425 O 322.221 -0.0328885 -4.01687 0
M  V30 3426 N 320.427 -0.65171 -2.83198 0
M  V30 3427 H 319.974 -1.30489 -2.22104 0
M  V30 3428 H 319.932 0.159686 -3.13994 0
M  V30 3429 N 323.704 0.605807 -1.45491 0
M  V30 3430 C 324.634 1.72709 -1.57143 0
M  V30 3431 C 325.615 1.6476 -0.422884 0
M  V30 3432 O 326.8 1.83132 -0.646247 0
M  V30 3433 C 323.93 3.11316 -1.53948 0
M  V30 3434 C 322.884 3.34077 -2.67537 0
M  V30 3435 C 322.21 4.72975 -2.49397 0
M  V30 3436 C 323.51 3.24158 -4.09535 0
M  V30 3437 H 325.204 1.63214 -2.51001 0
M  V30 3438 H 322.75 0.78379 -1.208 0
M  V30 3439 H 324.703 3.89557 -1.60696 0
M  V30 3440 H 323.427 3.21655 -0.566205 0
M  V30 3441 H 322.086 2.58227 -2.6022 0
M  V30 3442 H 321.734 4.8005 -1.50205 0
M  V30 3443 H 321.434 4.8916 -3.25571 0
M  V30 3444 H 322.958 5.53414 -2.58002 0
M  V30 3445 H 324.372 3.92271 -4.18086 0
M  V30 3446 H 322.769 3.51872 -4.86113 0
M  V30 3447 H 323.839 2.2157 -4.31317 0
M  V30 3448 N 325.182 1.32811 0.848464 0
M  V30 3449 C 326.412 1.26556 1.63301 0
M  V30 3450 C 326.82 -0.1676 1.88456 0
M  V30 3451 O 326.163 -1.11713 1.45828 0
M  V30 3452 C 326.225 1.96202 3.01239 0
M  V30 3453 C 325.889 3.45528 2.99098 0
M  V30 3454 C 326.886 4.40903 2.75501 0
M  V30 3455 C 324.571 3.87558 3.19537 0
M  V30 3456 C 326.565 5.76282 2.72356 0
M  V30 3457 C 324.252 5.23044 3.16019 0
M  V30 3458 C 325.25 6.17217 2.92458 0
M  V30 3459 O 324.938 7.50223 2.88825 0
M  V30 3460 H 324.67 0.43771 0.515156 0
M  V30 3461 H 327.224 1.7559 1.0657 0
M  V30 3462 H 325.454 1.41746 3.59785 0
M  V30 3463 H 327.143 1.83573 3.62016 0
M  V30 3464 H 327.909 4.09756 2.5947 0
M  V30 3465 H 323.788 3.14674 3.369 0
M  V30 3466 H 327.332 6.4976 2.53886 0
M  V30 3467 H 323.229 5.53818 3.31596 0
M  V30 3468 H 323.997 7.59657 3.04735 0
M  V30 3469 N 326.66 -1.06551 1.16123 0
M  V30 3470 C 328.076 -1.3142 0.905585 0
M  V30 3471 C 328.276 -1.96571 -0.442964 0
M  V30 3472 O 327.332 -2.23068 -1.18308 0
M  V30 3473 C 328.645 -2.19741 2.05267 0
M  V30 3474 C 330.193 -2.33165 2.08813 0
M  V30 3475 C 330.668 -3.24838 3.22868 0
M  V30 3476 N 332.159 -3.32421 3.22568 0
M  V30 3477 C 332.894 -4.0344 4.0746 0
M  V30 3478 N 332.39 -4.77003 5.02434 0
M  V30 3479 N 334.183 -3.99464 3.95456 0
M  V30 3480 H 326.334 -0.626548 2.02949 0
M  V30 3481 H 328.597 -0.338777 0.8854 0
M  V30 3482 H 328.303 -1.79142 3.02657 0
M  V30 3483 H 328.177 -3.20313 1.99198 0
M  V30 3484 H 330.564 -2.73013 1.12018 0
M  V30 3485 H 330.645 -1.3227 2.18948 0
M  V30 3486 H 330.289 -2.85708 4.19921 0
M  V30 3487 H 330.219 -4.25707 3.0997 0
M  V30 3488 H 332.71 -2.79994 2.53795 0
M  V30 3489 H 333.023 -5.28712 5.63634 0
M  V30 3490 H 331.368 -4.75992 5.06415 0
M  V30 3491 H 334.559 -3.4111 3.20564 0
M  V30 3492 H 334.732 -4.54544 4.61837 0
M  V30 3493 N 328.138 -0.959301 -1.25041 0
M  V30 3494 C 329.048 -0.489994 -2.29426 0
M  V30 3495 C 330.064 0.444944 -1.68215 0
M  V30 3496 O 331.24 0.320046 -1.98841 0
M  V30 3497 C 328.305 0.220309 -3.45999 0
M  V30 3498 C 327.366 -0.753418 -4.22637 0
M  V30 3499 C 326.599 -0.076918 -5.33645 0
M  V30 3500 O 326.822 1.13649 -5.58963 0
M  V30 3501 O 325.756 -0.764824 -5.97021 0
M  V30 3502 H 329.582 -1.35755 -2.71669 0
M  V30 3503 H 327.167 -0.725961 -1.30576 0
M  V30 3504 H 329.049 0.619677 -4.16819 0
M  V30 3505 H 327.724 1.06296 -3.0575 0
M  V30 3506 H 326.631 -1.20308 -3.54227 0
M  V30 3507 H 327.964 -1.56423 -4.66683 0
M  V30 3508 N 329.616 1.39756 -0.72842 0
M  V30 3509 C 330.864 2.00248 -0.272946 0
M  V30 3510 C 331.185 1.58077 1.14178 0
M  V30 3511 O 330.455 0.826014 1.77634 0
M  V30 3512 H 329.035 0.740554 -0.0979247 0
M  V30 3513 H 331.697 1.70903 -0.936912 0
M  V30 3514 H 330.793 3.10495 -0.316142 0
M  V30 3515 N 331.094 0.475555 1.50254 0
M  V30 3516 C 332.319 -0.0777042 2.07254 0
M  V30 3517 C 332.744 -1.3235 1.3366 0
M  V30 3518 O 332.102 -1.77152 0.385597 0
M  V30 3519 C 332.15 -0.340169 3.58992 0
M  V30 3520 O 331.254 -1.41982 3.87188 0
M  V30 3521 H 330.595 0.0149556 0.663832 0
M  V30 3522 H 333.125 0.667878 1.93392 0
M  V30 3523 H 333.135 -0.579332 4.03866 0
M  V30 3524 H 331.81 0.570167 4.11973 0
M  V30 3525 H 330.387 -1.16762 3.54148 0
M  V30 3526 N 332.573 -1.56217 0.208337 0
M  V30 3527 C 333.821 -1.97558 -0.426076 0
M  V30 3528 C 334.142 -1.09683 -1.61229 0
M  V30 3529 O 333.412 -0.170956 -1.95153 0
M  V30 3530 H 331.992 -0.729575 -0.160405 0
M  V30 3531 H 334.654 -1.92606 0.298155 0
M  V30 3532 H 333.75 -3.02672 -0.761312 0
M  V30 3533 N 334.051 0.0651679 -1.57465 0
M  V30 3534 C 335.3 0.761916 -1.86756 0
M  V30 3535 C 335.613 1.78406 -0.801925 0
M  V30 3536 O 336.819 2.53084 -0.982885 0
M  V30 3537 C 335.275 1.40603 -3.31299 0
M  V30 3538 C 334.883 0.422115 -4.46007 0
M  V30 3539 C 336.627 2.08476 -3.69781 0
M  V30 3540 C 334.534 1.07252 -5.81593 0
M  V30 3541 H 333.464 0.288308 -0.696702 0
M  V30 3542 H 336.115 0.015344 -1.83494 0
M  V30 3543 H 334.497 2.20109 -3.29193 0
M  V30 3544 H 335.671 -0.343613 -4.59517 0
M  V30 3545 H 333.986 -0.152527 -4.16121 0
M  V30 3546 H 336.583 2.57925 -4.68379 0
M  V30 3547 H 336.926 2.88712 -2.99919 0
M  V30 3548 H 337.459 1.35792 -3.73905 0
M  V30 3549 H 334.198 0.310342 -6.54765 0
M  V30 3550 H 333.718 1.80895 -5.71872 0
M  V30 3551 H 335.397 1.59043 -6.27148 0
M  V30 3552 N 335.529 1.53961 0.336706 0
M  V30 3553 C 336.777 1.71197 1.07405 0
M  V30 3554 C 337.098 0.481475 1.88962 0
M  V30 3555 O 336.368 -0.504585 1.8929 0
M  V30 3556 H 334.948 0.631185 0.399517 0
M  V30 3557 H 337.61 1.91232 0.376323 0
M  V30 3558 H 336.706 2.58587 1.74755 0
M  V30 3559 N 337.007 -0.598083 1.45811 0
M  V30 3560 C 337.97 -1.69018 1.54808 0
M  V30 3561 C 338.97 -1.55037 0.426652 0
M  V30 3562 O 340.16 -1.59932 0.690456 0
M  V30 3563 C 337.292 -3.0835 1.45371 0
M  V30 3564 H 338.485 -1.62403 2.52121 0
M  V30 3565 H 336.038 -0.814626 1.33392 0
M  V30 3566 H 336.773 -3.20534 0.492793 0
M  V30 3567 H 336.558 -3.19907 2.26721 0
M  V30 3568 H 338.048 -3.8788 1.54721 0
M  V30 3569 N 338.485 -1.33259 -0.841409 0
M  V30 3570 C 339.734 -1.23921 -1.59143 0
M  V30 3571 C 340.047 0.1941 -1.94635 0
M  V30 3572 O 341.253 0.409474 -2.68394 0
M  V30 3573 C 339.709 -2.17119 -2.87032 0
M  V30 3574 C 339.317 -3.65606 -2.58914 0
M  V30 3575 C 341.061 -2.16648 -3.65053 0
M  V30 3576 C 338.968 -4.50726 -3.82884 0
M  V30 3577 H 337.898 -0.460264 -0.597221 0
M  V30 3578 H 340.549 -1.58307 -0.927959 0
M  V30 3579 H 338.931 -1.75663 -3.54906 0
M  V30 3580 H 340.105 -4.15487 -1.99267 0
M  V30 3581 H 338.42 -3.68341 -1.942 0
M  V30 3582 H 341.017 -2.77474 -4.57069 0
M  V30 3583 H 341.36 -1.16088 -3.99787 0
M  V30 3584 H 341.893 -2.56453 -3.041 0
M  V30 3585 H 338.632 -5.52151 -3.53283 0
M  V30 3586 H 338.152 -4.0559 -4.41879 0
M  V30 3587 H 339.831 -4.64401 -4.50489 0
M  V30 3588 N 339.963 1.05934 -1.16686 0
M  V30 3589 C 341.24 1.75643 -0.860747 0
M  V30 3590 C 341.62 2.01144 0.640641 0
M  V30 3591 O 340.968 1.64147 1.58959 0
M  V30 3592 C 341.178 3.05493 -1.68745 0
M  V30 3593 C 342.526 3.79581 -1.90271 0
M  V30 3594 O 343.55 3.15344 -1.65641 0
M  V30 3595 O 342.409 4.9499 -2.31618 0
M  V30 3596 H 339.503 0.763426 -0.317977 0
M  V30 3597 H 342.049 1.1217 -1.27342 0
M  V30 3598 H 340.821 2.8264 -2.70611 0
M  V30 3599 H 340.444 3.76702 -1.27206 0
M  V30 3600 N 341.441 0.965919 1.2453 0
M  V30 3601 C 342.666 0.643971 1.97149 0
M  V30 3602 C 343.091 -0.779487 1.71189 0
M  V30 3603 O 342.449 -1.5288 0.974553 0
M  V30 3604 C 342.497 0.922557 3.48599 0
M  V30 3605 O 341.601 0.00707672 4.12399 0
M  V30 3606 H 340.942 0.243647 0.617683 0
M  V30 3607 H 343.472 1.29558 1.58353 0
M  V30 3608 H 343.482 0.853373 3.98976 0
M  V30 3609 H 342.157 1.95996 3.66822 0
M  V30 3610 H 340.734 0.12943 3.72675 0
M  V30 3611 N 342.919 -1.39368 0.735821 0
M  V30 3612 C 343.867 -2.32443 0.0855131 0
M  V30 3613 C 344.861 -1.53104 -0.724954 0
M  V30 3614 O 346.067 -1.68762 -0.626047 0
M  V30 3615 H 342.442 -0.751948 0.00885257 0
M  V30 3616 H 344.413 -2.84916 0.886883 0
M  V30 3617 C 343.162 -3.38206 -0.806983 0
M  V30 3618 H 342.485 -3.99335 -0.19274 0
M  V30 3619 H 343.925 -4.05779 -1.2296 0
M  V30 3620 C 342.384 -2.75321 -1.94165 0
M  V30 3621 O 342.914 -2.63231 -3.03435 0
M  V30 3622 N 341.12 -2.33396 -1.73132 0
M  V30 3623 H 340.667 -2.4343 -0.842596 0
M  V30 3624 H 340.625 -1.91661 -2.49225 0
M  V30 3625 N 344.397 -0.483516 -1.5 0
M  V30 3626 C 345.327 0.293829 -2.31644 0
M  V30 3627 C 346.308 0.978864 -1.39112 0
M  V30 3628 O 347.493 0.973644 -1.68029 0
M  V30 3629 C 344.623 1.36897 -3.19181 0
M  V30 3630 C 343.577 0.804833 -4.20365 0
M  V30 3631 C 342.903 1.9792 -4.96721 0
M  V30 3632 C 344.203 -0.192313 -5.21946 0
M  V30 3633 H 345.897 -0.387616 -2.9688 0
M  V30 3634 H 343.443 -0.187856 -1.42769 0
M  V30 3635 H 345.396 1.92037 -3.751 0
M  V30 3636 H 344.12 2.07936 -2.51853 0
M  V30 3637 H 342.779 0.275319 -3.65565 0
M  V30 3638 H 342.427 2.67686 -4.25856 0
M  V30 3639 H 342.127 1.60789 -5.65173 0
M  V30 3640 H 343.651 2.53526 -5.55479 0
M  V30 3641 H 345.065 0.270333 -5.72662 0
M  V30 3642 H 343.462 -0.478543 -5.98189 0
M  V30 3643 H 344.532 -1.11409 -4.71928 0
M  V30 3644 N 345.875 1.56104 -0.216619 0
M  V30 3645 C 347.152 1.89988 0.465165 0
M  V30 3646 C 347.532 1.13326 1.78102 0
M  V30 3647 O 346.88 0.241033 2.27225 0
M  V30 3648 C 347.09 3.42646 0.662939 0
M  V30 3649 C 348.438 4.13311 0.972602 0
M  V30 3650 O 349.462 3.48217 0.749901 0
M  V30 3651 O 348.321 5.28396 1.39499 0
M  V30 3652 H 345.415 0.78979 0.245276 0
M  V30 3653 H 347.961 1.67721 -0.258436 0
M  V30 3654 H 346.733 3.90399 -0.26543 0
M  V30 3655 H 346.356 3.70677 1.43821 0
M  V30 3656 N 347.353 -0.0568162 1.57498 0
M  V30 3657 C 348.599 -0.748893 1.89111 0
M  V30 3658 C 348.954 -1.74422 0.81208 0
M  V30 3659 O 348.247 -1.90731 -0.182247 0
M  V30 3660 C 348.441 -1.48359 3.25153 0
M  V30 3661 C 348.27 -0.560924 4.46188 0
M  V30 3662 C 347.04 -0.192264 5.04934 0
M  V30 3663 C 349.238 0.148824 5.14085 0
M  V30 3664 N 347.22 0.734555 6.0949 0
M  V30 3665 C 348.591 0.932286 6.12951 0
M  V30 3666 C 350.646 0.218713 4.97419 0
M  V30 3667 C 349.349 1.77917 6.96949 0
M  V30 3668 C 351.375 1.05262 5.81957 0
M  V30 3669 C 350.737 1.82409 6.80372 0
M  V30 3670 H 346.836 -0.249002 0.741298 0
M  V30 3671 H 349.42 -0.00984926 1.94698 0
M  V30 3672 H 347.591 -2.19326 3.20547 0
M  V30 3673 H 349.323 -2.12586 3.44368 0
M  V30 3674 H 346.078 -0.548421 4.70414 0
M  V30 3675 H 346.502 1.19165 6.6643 0
M  V30 3676 H 351.144 -0.363407 4.21235 0
M  V30 3677 H 348.862 2.3722 7.72497 0
M  V30 3678 H 352.448 1.10987 5.71116 0
M  V30 3679 H 351.328 2.45895 7.44651 0
M  V30 3680 N 348.832 -1.54138 -0.328536 0
M  V30 3681 C 350.057 -1.76378 -1.09112 0
M  V30 3682 C 350.482 -0.508596 -1.81094 0
M  V30 3683 O 349.84 0.539598 -1.73084 0
M  V30 3684 C 349.888 -2.95358 -2.06872 0
M  V30 3685 O 348.992 -2.66556 -3.14677 0
M  V30 3686 H 348.333 -0.584614 -0.314838 0
M  V30 3687 H 350.863 -2.01146 -0.374348 0
M  V30 3688 H 350.873 -3.22566 -2.4983 0
M  V30 3689 H 349.548 -3.86385 -1.5388 0
M  V30 3690 H 348.125 -2.50282 -2.7643 0
M  V30 3691 N 350.31 0.590341 -1.46126 0
M  V30 3692 C 351.26 1.69466 -1.5253 0
M  V30 3693 C 352.244 1.56179 -0.386917 0
M  V30 3694 O 353.436 1.65223 -0.634858 0
M  V30 3695 C 350.565 3.08245 -1.5113 0
M  V30 3696 C 349.651 3.26856 -2.70233 0
M  V30 3697 N 350.042 3.15657 -3.95214 0
M  V30 3698 C 348.34 3.57775 -2.66296 0
M  V30 3699 C 349.041 3.36066 -4.74799 0
M  V30 3700 N 348.017 3.60865 -4.06543 0
M  V30 3701 H 351.819 1.59326 -2.46966 0
M  V30 3702 H 349.333 0.79414 -1.41659 0
M  V30 3703 H 351.33 3.87492 -1.53804 0
M  V30 3704 H 349.99 3.19521 -0.577636 0
M  V30 3705 H 351.001 2.93686 -4.26578 0
M  V30 3706 H 347.678 3.75782 -1.81918 0
M  V30 3707 H 349.068 3.32655 -5.83772 0
M  V30 3708 N 351.788 1.33704 0.83433 0
M  V30 3709 C 352.736 1.24323 1.96587 0
M  V30 3710 C 353.73 0.143659 1.6879 0
M  V30 3711 O 354.936 0.30791 1.77347 0
M  V30 3712 H 351.311 0.385925 0.645419 0
M  V30 3713 H 353.282 2.19978 2.01624 0
M  V30 3714 C 352.031 1.00394 3.32891 0
M  V30 3715 H 351.354 1.84231 3.54822 0
M  V30 3716 H 352.794 0.97862 4.12552 0
M  V30 3717 C 351.253 -0.293047 3.35623 0
M  V30 3718 O 351.783 -1.29823 3.80143 0
M  V30 3719 N 349.989 -0.322174 2.88809 0
M  V30 3720 H 349.536 0.496379 2.52772 0
M  V30 3721 H 349.494 -1.18977 2.91019 0
M  V30 3722 N 353.266 -1.05314 1.17247 0
M  V30 3723 C 354.513 -1.78293 0.960091 0
M  V30 3724 C 354.841 -1.87658 -0.51136 0
M  V30 3725 O 354.096 -1.3718 -1.39571 0
M  V30 3726 C 354.395 -3.2229 1.54479 0
M  V30 3727 C 354.061 -3.32987 3.04024 0
M  V30 3728 C 352.723 -3.35613 3.44844 0
M  V30 3729 C 355.075 -3.34102 4.00031 0
M  V30 3730 C 352.403 -3.36982 4.8027 0
M  V30 3731 C 354.755 -3.3701 5.35357 0
M  V30 3732 C 353.419 -3.37923 5.75642 0
M  V30 3733 H 352.689 -0.652422 0.351322 0
M  V30 3734 H 355.336 -1.23782 1.46117 0
M  V30 3735 H 353.641 -3.7972 0.965391 0
M  V30 3736 H 355.338 -3.77376 1.35603 0
M  V30 3737 H 351.928 -3.31655 2.71483 0
M  V30 3738 H 356.112 -3.31276 3.69554 0
M  V30 3739 H 351.368 -3.35999 5.10798 0
M  V30 3740 H 355.542 -3.36822 6.09528 0
M  V30 3741 H 353.169 -3.38738 6.80559 0
M  V30 3742 N 354.744 -0.972509 -1.24016 0
M  V30 3743 C 355.972 -0.654803 -1.96265 0
M  V30 3744 C 356.387 0.776708 -1.72083 0
M  V30 3745 O 355.744 1.52171 -1.00748 0
M  V30 3746 C 355.795 -0.92592 -3.49441 0
M  V30 3747 O 355.516 -2.30116 -3.72798 0
M  V30 3748 C 357.017 -0.623068 -4.38899 0
M  V30 3749 H 354.237 -0.243907 -0.6251 0
M  V30 3750 H 356.781 -1.30175 -1.57717 0
M  V30 3751 H 354.936 -0.325108 -3.86033 0
M  V30 3752 H 355.35 -2.38483 -4.67147 0
M  V30 3753 H 356.824 -0.863189 -5.45209 0
M  V30 3754 H 357.301 0.442754 -4.36963 0
M  V30 3755 H 357.907 -1.204 -4.07902 0
M  V30 3756 N 356.222 1.38976 -0.743202 0
M  V30 3757 C 357.17 2.32394 -0.0978389 0
M  V30 3758 C 358.164 1.53486 0.716824 0
M  V30 3759 O 359.37 1.69092 0.617088 0
M  V30 3760 H 355.745 0.75189 -0.0128402 0
M  V30 3761 H 357.716 2.84441 -0.901981 0
M  V30 3762 C 356.465 3.38629 0.789036 0
M  V30 3763 H 355.788 3.99432 0.171559 0
M  V30 3764 H 357.228 4.06426 1.20807 0
M  V30 3765 C 355.687 2.76347 1.92702 0
M  V30 3766 O 356.217 2.64836 3.02034 0
M  V30 3767 N 354.423 2.34311 1.71891 0
M  V30 3768 H 353.97 2.43873 0.829675 0
M  V30 3769 H 353.928 1.9298 2.48205 0
M  V30 3770 N 357.7 0.491464 1.49741 0
M  V30 3771 C 358.633 -0.338464 2.25676 0
M  V30 3772 C 359.611 -0.978676 1.29849 0
M  V30 3773 O 360.795 -1.01064 1.59117 0
M  V30 3774 C 357.922 -1.47588 3.04853 0
M  V30 3775 C 356.968 -0.951 4.15762 0
M  V30 3776 S 357.801 0.150626 5.35288 0
M  V30 3777 C 358.957 -0.990178 6.18018 0
M  V30 3778 H 359.19 0.306068 2.9572 0
M  V30 3779 H 356.723 0.276622 1.51902 0
M  V30 3780 H 358.681 -2.12764 3.51058 0
M  V30 3781 H 357.342 -2.09199 2.34296 0
M  V30 3782 H 356.535 -1.80311 4.70642 0
M  V30 3783 H 356.137 -0.376607 3.72099 0
M  V30 3784 H 358.429 -1.89748 6.50386 0
M  V30 3785 H 359.372 -0.480205 7.0647 0
M  V30 3786 H 359.78 -1.25321 5.50413 0
M  V30 3787 N 359.178 -1.55987 0.224894 0
M  V30 3788 C 360.108 -2.23426 -0.678457 0
M  V30 3789 C 361.089 -1.20709 -1.19847 0
M  V30 3790 O 362.274 -1.49304 -1.24186 0
M  V30 3791 C 359.404 -2.91676 -1.88527 0
M  V30 3792 C 358.358 -4.00893 -1.49896 0
M  V30 3793 C 357.684 -4.56455 -2.78483 0
M  V30 3794 C 358.984 -5.17769 -0.686461 0
M  V30 3795 H 360.678 -2.99175 -0.116173 0
M  V30 3796 H 358.224 -1.43897 -0.054436 0
M  V30 3797 H 360.177 -3.37547 -2.5227 0
M  V30 3798 H 358.901 -2.1338 -2.47258 0
M  V30 3799 H 357.56 -3.55758 -0.884985 0
M  V30 3800 H 357.208 -3.74886 -3.35365 0
M  V30 3801 H 356.908 -5.30169 -2.53368 0
M  V30 3802 H 358.432 -5.05047 -3.43162 0
M  V30 3803 H 359.846 -5.60001 -1.22767 0
M  V30 3804 H 358.243 -5.97735 -0.532259 0
M  V30 3805 H 359.313 -4.83932 0.306196 0
M  V30 3806 N 360.656 0.0484629 -1.57525 0
M  V30 3807 C 361.904 0.741657 -1.88 0
M  V30 3808 C 362.225 1.76918 -0.820054 0
M  V30 3809 O 361.495 1.95335 0.148661 0
M  V30 3810 H 360.075 0.276908 -0.69378 0
M  V30 3811 H 362.737 0.019013 -1.94891 0
M  V30 3812 H 361.833 1.24336 -2.86264 0
M  V30 3813 N 362.134 1.5431 0.320358 0
M  V30 3814 C 363.364 1.7638 1.07582 0
M  V30 3815 C 363.772 0.513944 1.82086 0
M  V30 3816 O 363.115 -0.525123 1.76035 0
M  V30 3817 C 363.177 2.9055 2.1171 0
M  V30 3818 C 362.841 4.2934 1.56575 0
M  V30 3819 C 363.838 5.10077 1.00586 0
M  V30 3820 C 361.523 4.75893 1.60722 0
M  V30 3821 C 363.517 6.35477 0.494756 0
M  V30 3822 C 361.204 6.0126 1.09224 0
M  V30 3823 C 362.202 6.80886 0.53696 0
M  V30 3824 O 361.89 8.03894 0.0297371 0
M  V30 3825 H 361.622 0.592369 0.325692 0
M  V30 3826 H 364.176 2.02019 0.37116 0
M  V30 3827 H 362.406 2.60489 2.85801 0
M  V30 3828 H 364.095 3.00373 2.73003 0
M  V30 3829 H 364.861 4.75265 0.966869 0
M  V30 3830 H 360.74 4.13957 2.02882 0
M  V30 3831 H 364.284 6.97574 0.0606842 0
M  V30 3832 H 360.181 6.35562 1.12831 0
M  V30 3833 H 360.949 8.18372 0.14486 0
M  V30 3834 N 363.613 -0.582584 1.46437 0
M  V30 3835 C 364.841 -1.36682 1.55324 0
M  V30 3836 C 365.256 -1.87796 0.194409 0
M  V30 3837 O 364.613 -1.63623 -0.808318 0
M  V30 3838 C 364.664 -2.55426 2.55812 0
M  V30 3839 O 364.385 -2.0643 3.86417 0
M  V30 3840 C 365.886 -3.47976 2.74641 0
M  V30 3841 H 363.106 -0.417545 0.525259 0
M  V30 3842 H 365.65 -0.708219 1.91845 0
M  V30 3843 H 363.805 -3.17275 2.22295 0
M  V30 3844 H 364.219 -2.83762 4.41111 0
M  V30 3845 H 365.693 -4.27775 3.48874 0
M  V30 3846 H 366.17 -3.99919 1.81553 0
M  V30 3847 H 366.776 -2.91962 3.09255 0
M  V30 3848 N 365.091 -1.34144 -0.827227 0
M  V30 3849 C 366.368 -1.16844 -1.56865 0
M  V30 3850 C 366.748 0.260654 -2.09485 0
M  V30 3851 O 366.096 1.26138 -1.9053 0
M  V30 3852 C 366.306 -2.21939 -2.6934 0
M  V30 3853 C 367.654 -2.56695 -3.3822 0
M  V30 3854 O 368.678 -2.20695 -2.79593 0
M  V30 3855 O 367.537 -3.18518 -4.44082 0
M  V30 3856 H 364.631 -0.452669 -0.692112 0
M  V30 3857 H 367.177 -1.45763 -0.868973 0
M  V30 3858 H 365.949 -3.17882 -2.28182 0
M  V30 3859 H 365.572 -1.94172 -3.46962 0
M  V30 3860 N 366.569 1.04691 -1.17803 0
M  V30 3861 C 367.519 2.10856 -0.867391 0
M  V30 3862 C 368.503 1.601 0.160206 0
M  V30 3863 O 369.695 1.76948 -0.042947 0
M  V30 3864 C 366.824 3.411 -0.388012 0
M  V30 3865 C 365.91 3.9864 -1.44732 0
M  V30 3866 N 366.301 4.30075 -2.66212 0
M  V30 3867 C 364.599 4.26439 -1.30637 0
M  V30 3868 C 365.3 4.76033 -3.34317 0
M  V30 3869 N 364.276 4.76462 -2.61696 0
M  V30 3870 H 368.078 2.33029 -1.79094 0
M  V30 3871 H 365.592 1.22386 -1.0675 0
M  V30 3872 H 367.589 4.16641 -0.146994 0
M  V30 3873 H 366.249 3.20357 0.529271 0
M  V30 3874 H 367.26 4.19917 -3.03134 0
M  V30 3875 H 363.937 4.15056 -0.451129 0
M  V30 3876 H 365.327 5.09427 -4.38103 0
M  V30 3877 N 368.047 0.979072 1.23499 0
M  V30 3878 C 368.979 0.476271 2.24197 0
M  V30 3879 C 369.992 -0.421166 1.57258 0
M  V30 3880 O 371.181 -0.225515 1.7707 0
M  V30 3881 C 368.281 -0.330503 3.37285 0
M  V30 3882 C 367.454 0.559744 4.33804 0
M  V30 3883 C 366.513 -0.192954 5.25846 0
M  V30 3884 O 365.539 0.416978 5.67671 0
M  V30 3885 N 366.741 -1.47932 5.61334 0
M  V30 3886 H 369.506 1.34211 2.67969 0
M  V30 3887 H 367.067 0.852189 1.37657 0
M  V30 3888 H 369.059 -0.842361 3.95836 0
M  V30 3889 H 367.629 -1.09734 2.92707 0
M  V30 3890 H 366.849 1.25245 3.73775 0
M  V30 3891 H 368.137 1.1665 4.95248 0
M  V30 3892 H 367.535 -1.9964 5.29302 0
M  V30 3893 H 366.092 -1.93664 6.22364 0
M  V30 3894 N 369.525 -1.3858 0.750561 0
M  V30 3895 C 370.772 -2.00184 0.305373 0
M  V30 3896 C 371.1 -1.59575 -1.11203 0
M  V30 3897 O 370.355 -0.823236 -1.77542 0
M  V30 3898 C 370.654 -3.55455 0.372373 0
M  V30 3899 C 370.32 -4.15765 1.745 0
M  V30 3900 C 368.982 -4.31951 2.12065 0
M  V30 3901 C 371.334 -4.49067 2.64553 0
M  V30 3902 C 368.662 -4.78734 3.39162 0
M  V30 3903 C 371.014 -4.97265 3.91038 0
M  V30 3904 C 369.678 -5.11658 4.28676 0
M  V30 3905 H 368.948 -0.732526 0.111744 0
M  V30 3906 H 371.595 -1.65673 0.960451 0
M  V30 3907 H 369.9 -3.90084 -0.366272 0
M  V30 3908 H 371.597 -4.00999 0.00953918 0
M  V30 3909 H 368.187 -4.03579 1.44297 0
M  V30 3910 H 372.371 -4.36166 2.36796 0
M  V30 3911 H 367.627 -4.88062 3.68246 0
M  V30 3912 H 371.801 -5.22003 4.60962 0
M  V30 3913 H 369.428 -5.47668 5.27222 0
M  V30 3914 N 371.003 -0.499398 -1.49478 0
M  V30 3915 C 372.231 0.0425456 -2.06856 0
M  V30 3916 C 372.646 1.30964 -1.35992 0
M  V30 3917 O 372.003 1.77172 -0.437762 0
M  V30 3918 C 372.054 0.301735 -3.60239 0
M  V30 3919 O 371.775 -0.915127 -4.28436 0
M  V30 3920 C 373.276 0.887499 -4.34325 0
M  V30 3921 H 370.496 -0.0197482 -0.670709 0
M  V30 3922 H 373.04 -0.696297 -1.92281 0
M  V30 3923 H 371.195 0.990556 -3.74522 0
M  V30 3924 H 371.609 -0.676993 -5.20113 0
M  V30 3925 H 373.083 1.01845 -5.42523 0
M  V30 3926 H 373.56 1.88488 -3.96698 0
M  V30 3927 H 374.166 0.236196 -4.24644 0
M  V30 3928 N 372.481 1.55866 -0.233164 0
M  V30 3929 C 373.391 2.24431 0.683217 0
M  V30 3930 C 374.407 1.2558 1.2044 0
M  V30 3931 O 375.583 1.58422 1.24356 0
M  V30 3932 C 372.648 2.91979 1.86947 0
M  V30 3933 C 371.709 4.06204 1.38912 0
M  V30 3934 C 370.942 4.70522 2.51883 0
M  V30 3935 O 371.165 4.33865 3.70293 0
M  V30 3936 O 370.099 5.59296 2.22423 0
M  V30 3937 H 373.925 3.03426 0.129059 0
M  V30 3938 H 371.51 1.494 -0.0022283 0
M  V30 3939 H 373.392 3.34573 2.56201 0
M  V30 3940 H 372.067 2.15935 2.41151 0
M  V30 3941 H 370.974 3.68155 0.664259 0
M  V30 3942 H 372.307 4.84025 0.893328 0
M  V30 3943 N 373.959 -0.0401083 1.57549 0
M  V30 3944 C 374.889 -1.04384 2.08869 0
M  V30 3945 C 375.87 -1.38407 0.988817 0
M  V30 3946 O 377.055 -1.47483 1.26342 0
M  V30 3947 C 374.185 -2.34808 2.55895 0
M  V30 3948 C 373.139 -2.15057 3.70047 0
M  V30 3949 C 372.465 -3.51145 4.03239 0
M  V30 3950 C 373.765 -1.54576 4.98902 0
M  V30 3951 H 375.459 -0.616666 2.92981 0
M  V30 3952 H 373.005 -0.295184 1.40942 0
M  V30 3953 H 374.958 -3.05346 2.90417 0
M  V30 3954 H 373.682 -2.79565 1.68853 0
M  V30 3955 H 372.341 -1.46954 3.35857 0
M  V30 3956 H 371.989 -3.93529 3.13279 0
M  V30 3957 H 371.689 -3.38758 4.80122 0
M  V30 3958 H 373.213 -4.23062 4.40285 0
M  V30 3959 H 374.627 -2.15017 5.31451 0
M  V30 3960 H 373.024 -1.52796 5.80322 0
M  V30 3961 H 374.094 -0.51039 4.82206 0
M  V30 3962 N 375.437 -1.54477 -0.31217 0
M  V30 3963 C 376.665 -1.77205 -1.068 0
M  V30 3964 C 377.08 -0.526114 -1.81321 0
M  V30 3965 O 376.437 0.503647 -1.75413 0
M  V30 3966 C 376.488 -2.97253 -2.05725 0
M  V30 3967 O 376.209 -4.1703 -1.34228 0
M  V30 3968 C 377.71 -3.32281 -2.93435 0
M  V30 3969 H 374.93 -0.591287 -0.317208 0
M  V30 3970 H 377.474 -2.01398 -0.354834 0
M  V30 3971 H 375.629 -2.753 -2.72559 0
M  V30 3972 H 376.043 -4.84636 -2.00571 0
M  V30 3973 H 377.517 -4.19551 -3.58721 0
M  V30 3974 H 377.994 -2.49945 -3.61143 0
M  V30 3975 H 378.6 -3.56353 -2.32147 0
M  V30 3976 N 376.915 0.57481 -1.46744 0
M  V30 3977 C 378.331 0.898981 -1.31873 0
M  V30 3978 C 378.531 1.99313 -0.29605 0
M  V30 3979 O 377.587 2.50728 0.298621 0
M  V30 3980 C 378.9 1.30886 -2.7072 0
M  V30 3981 C 380.448 1.42127 -2.78871 0
M  V30 3982 C 380.923 1.86478 -4.18318 0
M  V30 3983 N 382.414 1.93658 -4.20774 0
M  V30 3984 C 383.149 2.29267 -5.2557 0
M  V30 3985 N 382.645 2.63612 -6.40688 0
M  V30 3986 N 384.438 2.29889 -5.1294 0
M  V30 3987 H 376.589 -0.147839 -2.11885 0
M  V30 3988 H 378.852 -0.00347013 -0.947994 0
M  V30 3989 H 378.558 0.578853 -3.46904 0
M  V30 3990 H 378.432 2.26874 -3.01343 0
M  V30 3991 H 380.819 2.14213 -2.0297 0
M  V30 3992 H 380.9 0.443705 -2.51922 0
M  V30 3993 H 380.544 1.14968 -4.94717 0
M  V30 3994 H 380.474 2.85207 -4.42679 0
M  V30 3995 H 382.965 1.69574 -3.37718 0
M  V30 3996 H 383.278 2.89759 -7.16421 0
M  V30 3997 H 381.623 2.61232 -6.44036 0
M  V30 3998 H 384.814 2.02485 -4.22039 0
M  V30 3999 H 384.987 2.57312 -5.94722 0
M  V30 4000 N 378.394 1.34581 0.820102 0
M  V30 4001 C 379.324 1.29038 1.94606 0
M  V30 4002 C 380.305 0.1673 1.69275 0
M  V30 4003 O 381.49 0.360112 1.90832 0
M  V30 4004 C 378.62 1.04793 3.31113 0
M  V30 4005 C 377.574 2.13597 3.70891 0
M  V30 4006 C 376.9 1.74537 5.05412 0
M  V30 4007 C 378.2 3.55451 3.8269 0
M  V30 4008 H 379.894 2.23248 1.99501 0
M  V30 4009 H 377.44 1.0747 0.958449 0
M  V30 4010 H 379.393 0.995592 4.0947 0
M  V30 4011 H 378.117 0.0702565 3.26524 0
M  V30 4012 H 376.776 2.17905 2.9481 0
M  V30 4013 H 376.424 0.754226 4.97313 0
M  V30 4014 H 376.124 2.47361 5.32997 0
M  V30 4015 H 377.648 1.70803 5.86224 0
M  V30 4016 H 379.062 3.5354 4.51312 0
M  V30 4017 H 377.459 4.26922 4.21732 0
M  V30 4018 H 378.529 3.92587 2.84611 0
M  V30 4019 N 379.872 -1.04064 1.18357 0
M  V30 4020 C 381.102 -1.80654 1.00238 0
M  V30 4021 C 381.51 -1.83713 -0.452362 0
M  V30 4022 O 380.853 -1.27135 -1.32599 0
M  V30 4023 C 380.915 -3.27582 1.48088 0
M  V30 4024 C 380.579 -3.48184 2.96002 0
M  V30 4025 C 381.576 -3.39372 3.93856 0
M  V30 4026 C 379.261 -3.7478 3.34433 0
M  V30 4027 C 381.255 -3.5686 5.28138 0
M  V30 4028 C 378.942 -3.91915 4.68877 0
M  V30 4029 C 379.94 -3.82956 5.65539 0
M  V30 4030 O 379.628 -3.996 6.97549 0
M  V30 4031 H 379.36 -0.575751 0.354241 0
M  V30 4032 H 381.914 -1.32044 1.57333 0
M  V30 4033 H 380.144 -3.77161 0.853588 0
M  V30 4034 H 381.833 -3.8573 1.2636 0
M  V30 4035 H 382.599 -3.18789 3.65511 0
M  V30 4036 H 378.478 -3.80852 2.59756 0
M  V30 4037 H 382.022 -3.49783 6.03571 0
M  V30 4038 H 377.919 -4.11992 4.96923 0
M  V30 4039 H 378.687 -4.1676 7.04452 0
M  V30 4040 N 381.35 -0.985608 -1.22978 0
M  V30 4041 C 382.28 -0.549649 -2.26939 0
M  V30 4042 C 383.261 0.419803 -1.64838 0
M  V30 4043 O 384.446 0.31203 -1.91677 0
M  V30 4044 C 381.576 0.143652 -3.47003 0
M  V30 4045 C 380.53 -0.743606 -4.21491 0
M  V30 4046 C 379.856 0.0822027 -5.34637 0
M  V30 4047 C 381.156 -2.03694 -4.80943 0
M  V30 4048 H 382.85 -1.41862 -2.63658 0
M  V30 4049 H 380.396 -0.683571 -1.26741 0
M  V30 4050 H 382.349 0.459985 -4.18882 0
M  V30 4051 H 381.073 1.04711 -3.09359 0
M  V30 4052 H 379.732 -1.04347 -3.51436 0
M  V30 4053 H 379.38 0.986359 -4.93234 0
M  V30 4054 H 379.08 -0.508377 -5.85397 0
M  V30 4055 H 380.604 0.392797 -6.09335 0
M  V30 4056 H 382.018 -1.78504 -5.44802 0
M  V30 4057 H 380.415 -2.57573 -5.42011 0
M  V30 4058 H 381.485 -2.72042 -4.01399 0
M  V30 4059 N 382.828 1.3818 -0.7579 0
M  V30 4060 C 384.056 2.04301 -0.326937 0
M  V30 4061 C 384.471 1.57163 1.0462 0
M  V30 4062 O 383.828 0.746626 1.66529 0
M  V30 4063 C 383.879 3.59846 -0.345363 0
M  V30 4064 O 383.6 4.05256 -1.66432 0
M  V30 4065 C 385.101 4.4319 0.098927 0
M  V30 4066 H 382.321 0.656443 -0.139012 0
M  V30 4067 H 384.865 1.76786 -1.02796 0
M  V30 4068 H 383.02 3.86182 0.306955 0
M  V30 4069 H 383.434 4.99709 -1.59345 0
M  V30 4070 H 384.908 5.51989 0.0348745 0
M  V30 4071 H 385.385 4.23947 1.14741 0
M  V30 4072 H 385.991 4.22051 -0.52468 0
M  V30 4073 N 384.306 0.507319 1.49211 0
M  V30 4074 C 385.555 -0.0368315 2.01666 0
M  V30 4075 C 385.868 -1.37459 1.39156 0
M  V30 4076 O 387.074 -2.00579 1.82976 0
M  V30 4077 C 385.53 -0.116089 3.59713 0
M  V30 4078 C 385.138 1.2154 4.31198 0
M  V30 4079 C 386.882 -0.610268 4.2009 0
M  V30 4080 C 384.789 1.09796 5.81119 0
M  V30 4081 H 383.719 -0.0175376 0.753796 0
M  V30 4082 H 386.37 0.647691 1.71689 0
M  V30 4083 H 384.752 -0.8652 3.86433 0
M  V30 4084 H 385.926 1.9783 4.16173 0
M  V30 4085 H 384.241 1.64352 3.82593 0
M  V30 4086 H 386.838 -0.715742 5.29888 0
M  V30 4087 H 387.181 -1.61064 3.8388 0
M  V30 4088 H 387.714 0.0824916 3.97714 0
M  V30 4089 H 384.453 2.0728 6.21864 0
M  V30 4090 H 383.973 0.376058 5.9862 0
M  V30 4091 H 385.652 0.779281 6.4229 0
M  V30 4092 N 385.784 -1.5574 0.241426 0
M  V30 4093 C 386.734 -2.17803 -0.674233 0
M  V30 4094 C 387.718 -1.13225 -1.14319 0
M  V30 4095 O 388.91 -1.39153 -1.09387 0
M  V30 4096 C 386.039 -2.87682 -1.87333 0
M  V30 4097 C 385.125 -3.99509 -1.42313 0
M  V30 4098 N 385.516 -5.01115 -0.686798 0
M  V30 4099 C 383.814 -4.11964 -1.70885 0
M  V30 4100 C 384.515 -5.79922 -0.454456 0
M  V30 4101 N 383.491 -5.34001 -1.01705 0
M  V30 4102 H 387.293 -2.93718 -0.103447 0
M  V30 4103 H 384.807 -1.62342 0.0435095 0
M  V30 4104 H 386.804 -3.3057 -2.54026 0
M  V30 4105 H 385.464 -2.13269 -2.4484 0
M  V30 4106 H 386.475 -5.16799 -0.337459 0
M  V30 4107 H 383.152 -3.48718 -2.2957 0
M  V30 4108 H 384.542 -6.71768 0.132992 0
M  V30 4109 N 387.262 0.0317525 -1.57568 0
M  V30 4110 C 388.487 0.738664 -1.938 0
M  V30 4111 C 388.912 1.68242 -0.841208 0
M  V30 4112 O 388.27 1.80157 0.203267 0
M  V30 4113 C 388.318 1.47417 -3.29091 0
M  V30 4114 O 387.422 2.5872 -3.2115 0
M  V30 4115 H 386.763 0.198856 -0.633524 0
M  V30 4116 H 389.293 -0.0119713 -2.04596 0
M  V30 4117 H 389.303 1.84468 -3.63917 0
M  V30 4118 H 387.978 0.781988 -4.08482 0
M  V30 4119 H 386.555 2.24231 -2.97951 0
M  V30 4120 N 388.74 1.54641 0.303973 0
M  V30 4121 C 390.017 1.64455 1.05896 0
M  V30 4122 C 390.397 0.490923 2.05312 0
M  V30 4123 O 389.745 -0.512685 2.22674 0
M  V30 4124 C 389.955 3.02331 1.74347 0
M  V30 4125 C 391.303 3.59045 2.26653 0
M  V30 4126 O 392.327 3.04764 1.84384 0
M  V30 4127 O 391.186 4.54081 3.04093 0
M  V30 4128 H 388.28 0.666729 0.489287 0
M  V30 4129 H 390.826 1.66986 0.302298 0
M  V30 4130 H 389.598 3.77734 1.02142 0
M  V30 4131 H 389.221 3.03565 2.56777 0
M  V30 4132 N 390.218 -0.567019 1.47046 0
M  V30 4133 C 391.168 -1.67018 1.55207 0
M  V30 4134 C 392.152 -1.55543 0.411714 0
M  V30 4135 O 393.344 -1.64192 0.661064 0
M  V30 4136 C 390.473 -3.05801 1.56014 0
M  V30 4137 C 389.559 -3.22515 2.75399 0
M  V30 4138 N 389.95 -3.09329 4.00186 0
M  V30 4139 C 388.248 -3.53493 2.71954 0
M  V30 4140 C 388.949 -3.2847 4.80086 0
M  V30 4141 N 387.925 -3.54352 4.12233 0
M  V30 4142 H 391.727 -1.55377 2.4947 0
M  V30 4143 H 389.241 -0.771503 1.42904 0
M  V30 4144 H 391.238 -3.84996 1.59949 0
M  V30 4145 H 389.898 -3.18561 0.628396 0
M  V30 4146 H 390.909 -2.86863 4.31196 0
M  V30 4147 H 387.586 -3.7284 1.87873 0
M  V30 4148 H 388.976 -3.23326 5.88991 0
M  V30 4149 N 391.696 -1.35014 -0.812953 0
M  V30 4150 C 392.606 -1.2951 -1.95613 0
M  V30 4151 C 393.622 -0.20107 -1.72834 0
M  V30 4152 O 394.798 -0.42932 -1.96771 0
M  V30 4153 C 391.863 -1.06033 -3.30088 0
M  V30 4154 C 390.924 -2.24688 -3.65805 0
M  V30 4155 C 390.157 -2.02322 -4.93864 0
M  V30 4156 O 390.38 -0.986464 -5.61805 0
M  V30 4157 O 389.314 -2.89525 -5.27692 0
M  V30 4158 H 393.14 -2.25705 -2.03202 0
M  V30 4159 H 390.725 -1.15321 -0.949811 0
M  V30 4160 H 392.607 -0.94763 -4.10607 0
M  V30 4161 H 391.282 -0.128852 -3.23443 0
M  V30 4162 H 390.189 -2.41521 -2.85689 0
M  V30 4163 H 391.522 -3.16261 -3.77147 0
M  V30 4164 N 393.175 1.03435 -1.18907 0
M  V30 4165 C 394.423 1.76394 -0.986382 0
M  V30 4166 C 394.744 1.88883 0.484567 0
M  V30 4167 O 394.014 1.41843 1.3512 0
M  V30 4168 H 392.594 0.65344 -0.361975 0
M  V30 4169 H 395.256 1.248 -1.49703 0
M  V30 4170 H 394.352 2.77424 -1.42978 0
M  V30 4171 N 394.653 0.992116 1.22453 0
M  V30 4172 C 395.901 0.666215 1.90804 0
M  V30 4173 C 396.222 -0.804152 1.77647 0
M  V30 4174 O 395.492 -1.57629 1.16318 0
M  V30 4175 H 394.072 0.243423 0.706225 0
M  V30 4176 H 396.734 1.25845 1.48825 0
M  V30 4177 H 395.83 0.928069 2.97982 0
M  V30 4178 N 396.131 -1.37776 0.765217 0
M  V30 4179 C 397.079 -2.32209 0.134798 0
M  V30 4180 C 398.073 -1.54607 -0.692315 0
M  V30 4181 O 399.279 -1.70052 -0.590109 0
M  V30 4182 H 395.654 -0.751591 0.0248005 0
M  V30 4183 H 397.625 -2.8297 0.947119 0
M  V30 4184 C 396.374 -3.39841 -0.735063 0
M  V30 4185 H 395.697 -3.99654 -0.107991 0
M  V30 4186 H 397.137 -4.08296 -1.14326 0
M  V30 4187 C 395.596 -2.79378 -1.88281 0
M  V30 4188 O 396.126 -2.69608 -2.97783 0
M  V30 4189 N 394.332 -2.37016 -1.68142 0
M  V30 4190 H 393.879 -2.45162 -0.790772 0
M  V30 4191 H 393.837 -1.96905 -2.45104 0
M  V30 4192 N 397.609 -0.515225 -1.4894 0
M  V30 4193 C 398.855 0.0242508 -2.02785 0
M  V30 4194 C 399.188 1.35323 -1.39289 0
M  V30 4195 O 398.463 1.87041 -0.533469 0
M  V30 4196 C 398.746 0.16184 -3.59736 0
M  V30 4197 C 398.599 -1.19127 -4.33738 0
M  V30 4198 C 399.918 0.895719 -4.30888 0
M  V30 4199 H 397.037 0.00733914 -0.736963 0
M  V30 4200 H 399.679 -0.669395 -1.77818 0
M  V30 4201 H 397.829 0.752624 -3.8114 0
M  V30 4202 H 399.501 -1.82202 -4.23792 0
M  V30 4203 H 397.744 -1.77695 -3.95736 0
M  V30 4204 H 398.415 -1.04815 -5.41957 0
M  V30 4205 H 400.891 0.394528 -4.14225 0
M  V30 4206 H 399.767 0.960859 -5.40425 0
M  V30 4207 H 400.028 1.9427 -3.97129 0
M  V30 4208 N 399.087 1.5561 -0.249682 0
M  V30 4209 C 400.312 2.03865 0.381305 0
M  V30 4210 C 400.737 1.12769 1.50548 0
M  V30 4211 O 400.095 0.121189 1.80895 0
M  V30 4212 C 400.143 3.50101 0.863816 0
M  V30 4213 O 399.247 3.62132 1.97318 0
M  V30 4214 H 398.588 0.658827 0.0827194 0
M  V30 4215 H 401.118 2.01105 -0.376552 0
M  V30 4216 H 401.128 3.90975 1.1663 0
M  V30 4217 H 399.803 4.1588 0.0411816 0
M  V30 4218 H 398.38 3.33155 1.67517 0
M  V30 4219 N 400.565 -0.0233959 1.57583 0
M  V30 4220 C 401.528 -1.00693 2.05897 0
M  V30 4221 C 402.528 -1.28693 0.964092 0
M  V30 4222 O 403.718 -1.23602 1.22753 0
M  V30 4223 C 400.85 -2.33825 2.4807 0
M  V30 4224 H 402.043 -0.589476 2.9405 0
M  V30 4225 H 399.596 -0.270354 1.53944 0
M  V30 4226 H 400.331 -2.80307 1.6309 0
M  V30 4227 H 400.116 -2.1483 3.2801 0
M  V30 4228 H 401.606 -3.04426 2.85857 0
M  V30 4229 N 402.043 -1.548 -0.295768 0
M  V30 4230 C 402.993 -1.82497 -1.3667 0
M  V30 4231 C 403.977 -0.682434 -1.45711 0
M  V30 4232 O 405.169 -0.943207 -1.49775 0
M  V30 4233 C 402.298 -2.08036 -2.73086 0
M  V30 4234 C 401.384 -3.28488 -2.68247 0
M  V30 4235 N 401.775 -4.48924 -2.33025 0
M  V30 4236 C 400.073 -3.3062 -2.99343 0
M  V30 4237 C 400.774 -5.30956 -2.37613 0
M  V30 4238 N 399.75 -4.68805 -2.75178 0
M  V30 4239 H 403.552 -2.73175 -1.0841 0
M  V30 4240 H 401.066 -1.5437 -0.504361 0
M  V30 4241 H 403.063 -2.26027 -3.5031 0
M  V30 4242 H 401.723 -1.18629 -3.02254 0
M  V30 4243 H 402.734 -4.75432 -2.05389 0
M  V30 4244 H 399.411 -2.51336 -3.33371 0
M  V30 4245 H 400.801 -6.37199 -2.13135 0
M  V30 4246 N 403.521 0.559213 -1.47345 0
M  V30 4247 C 404.749 1.34194 -1.57479 0
M  V30 4248 C 405.164 1.87463 -0.224261 0
M  V30 4249 O 404.521 1.64888 0.782185 0
M  V30 4250 C 404.572 2.51324 -2.59843 0
M  V30 4251 O 404.293 2.00256 -3.89653 0
M  V30 4252 C 405.794 3.43563 -2.80142 0
M  V30 4253 H 403.014 0.409136 -0.531835 0
M  V30 4254 H 405.558 0.677609 -1.92947 0
M  V30 4255 H 403.713 3.13699 -2.27314 0
M  V30 4256 H 404.127 2.76708 -4.4557 0
M  V30 4257 H 405.601 4.2217 -3.55635 0
M  V30 4258 H 406.078 3.9698 -1.87892 0
M  V30 4259 H 406.684 2.87005 -3.1386 0
M  V30 4260 N 404.999 1.35443 0.805782 0
M  V30 4261 C 406.224 1.32037 1.59941 0
M  V30 4262 C 406.649 -0.0994215 1.87837 0
M  V30 4263 O 406.007 -1.06648 1.46615 0
M  V30 4264 C 406.055 2.13354 2.90711 0
M  V30 4265 O 405.159 1.5148 3.83572 0
M  V30 4266 H 404.5 0.452666 0.485787 0
M  V30 4267 H 407.03 1.78496 1.00002 0
M  V30 4268 H 407.04 2.25338 3.40128 0
M  V30 4269 H 405.715 3.16572 2.69732 0
M  V30 4270 H 404.292 1.4834 3.42125 0
M  V30 4271 N 406.477 -1.02803 1.19454 0
M  V30 4272 C 407.427 -2.0945 0.900827 0
M  V30 4273 C 408.411 -1.60335 -0.134715 0
M  V30 4274 O 409.603 -1.76857 0.0710924 0
M  V30 4275 C 406.732 -3.4044 0.442229 0
M  V30 4276 C 405.818 -3.96286 1.51056 0
M  V30 4277 N 406.209 -4.25785 2.73021 0
M  V30 4278 C 404.507 -4.24307 1.37404 0
M  V30 4279 C 405.208 -4.70654 3.41848 0
M  V30 4280 N 404.184 -4.72238 2.69243 0
M  V30 4281 H 407.986 -2.3015 1.82779 0
M  V30 4282 H 405.5 -1.20672 1.08683 0
M  V30 4283 H 407.497 -4.16354 0.21326 0
M  V30 4284 H 406.157 -3.21159 -0.478238 0
M  V30 4285 H 407.168 -4.15041 3.09776 0
M  V30 4286 H 403.845 -4.14285 0.517103 0
M  V30 4287 H 405.235 -5.02392 4.46152 0
M  V30 4288 N 407.956 -0.998596 -1.21925 0
M  V30 4289 C 408.886 -0.573688 -2.26343 0
M  V30 4290 C 409.867 0.402296 -1.65274 0
M  V30 4291 O 411.052 0.291683 -1.91997 0
M  V30 4292 C 408.182 0.106839 -3.47136 0
M  V30 4293 C 407.136 -0.788269 -4.20678 0
M  V30 4294 C 406.462 0.0254927 -5.34694 0
M  V30 4295 C 407.762 -2.08784 -4.78755 0
M  V30 4296 H 409.456 -1.44651 -2.62138 0
M  V30 4297 H 407.002 -0.696975 -1.26009 0
M  V30 4298 H 408.955 0.415531 -4.19346 0
M  V30 4299 H 407.679 1.01424 -3.10452 0
M  V30 4300 H 406.338 -1.08069 -3.50309 0
M  V30 4301 H 405.986 0.933989 -4.94253 0
M  V30 4302 H 405.686 -0.570437 -5.84825 0
M  V30 4303 H 407.21 0.328147 -6.09718 0
M  V30 4304 H 408.624 -1.84272 -5.42878 0
M  V30 4305 H 407.021 -2.63307 -5.39249 0
M  V30 4306 H 408.091 -2.76284 -3.98491 0
M  V30 4307 N 409.434 1.37368 -0.772513 0
M  V30 4308 C 410.68 1.99969 -0.337681 0
M  V30 4309 C 411.013 1.61184 1.08321 0
M  V30 4310 O 410.288 0.858395 1.74533 0
M  V30 4311 C 410.571 3.56858 -0.482121 0
M  V30 4312 C 410.424 4.0555 -1.94549 0
M  V30 4313 C 411.743 4.39955 0.113143 0
M  V30 4314 H 408.862 0.726464 -0.124171 0
M  V30 4315 H 411.504 1.63034 -0.975699 0
M  V30 4316 H 409.654 3.88452 0.0610361 0
M  V30 4317 H 411.326 3.84518 -2.54841 0
M  V30 4318 H 409.569 3.57715 -2.45403 0
M  V30 4319 H 410.24 5.14587 -1.9976 0
M  V30 4320 H 412.716 4.14623 -0.35031 0
M  V30 4321 H 411.592 5.48897 -0.0180514 0
M  V30 4322 H 411.853 4.25403 1.20354 0
M  V30 4323 N 410.912 0.523116 1.48665 0
M  V30 4324 C 412.16 -0.0134497 2.02096 0
M  V30 4325 C 412.481 -1.35418 1.40311 0
M  V30 4326 O 411.751 -1.87543 0.566074 0
M  V30 4327 H 410.331 -0.00795915 0.746958 0
M  V30 4328 H 412.993 0.685388 1.82451 0
M  V30 4329 H 412.089 -0.126849 3.11842 0
M  V30 4330 N 412.39 -1.55475 0.257931 0
M  V30 4331 C 413.615 -2.04064 -0.370488 0
M  V30 4332 C 414.04 -1.13565 -1.49948 0
M  V30 4333 O 413.398 -0.130781 -1.80828 0
M  V30 4334 C 413.446 -3.50554 -0.845237 0
M  V30 4335 O 412.55 -3.63173 -1.95394 0
M  V30 4336 H 411.891 -0.659257 -0.0792243 0
M  V30 4337 H 414.421 -2.00903 0.387212 0
M  V30 4338 H 414.431 -3.91588 -1.14555 0
M  V30 4339 H 413.106 -4.15896 -0.0191259 0
M  V30 4340 H 411.683 -3.34039 -1.65748 0
M  V30 4341 N 413.868 0.0150385 -1.57593 0
M  V30 4342 C 414.831 0.995996 -2.06428 0
M  V30 4343 C 415.831 1.2818 -0.970903 0
M  V30 4344 O 417.021 1.22949 -1.23406 0
M  V30 4345 C 414.153 2.32506 -2.49307 0
M  V30 4346 H 415.346 0.573873 -2.94358 0
M  V30 4347 H 412.899 0.262186 -1.54085 0
M  V30 4348 H 413.634 2.79438 -1.64575 0
M  V30 4349 H 413.419 2.13087 -3.29145 0
M  V30 4350 H 414.909 3.02906 -2.87468 0
M  V30 4351 N 415.346 1.54954 0.287554 0
M  V30 4352 C 416.276 1.89839 1.35954 0
M  V30 4353 C 417.257 0.758675 1.52244 0
M  V30 4354 O 418.442 1.01557 1.65529 0
M  V30 4355 C 415.572 2.15753 2.72154 0
M  V30 4356 C 414.526 3.3159 2.70614 0
M  V30 4357 C 413.852 3.42952 4.10229 0
M  V30 4358 C 415.152 4.68359 2.31165 0
M  V30 4359 H 416.846 2.79625 1.07007 0
M  V30 4360 H 414.392 1.3454 0.513316 0
M  V30 4361 H 416.345 2.38743 3.47246 0
M  V30 4362 H 415.069 1.22752 3.02654 0
M  V30 4363 H 413.728 3.08545 1.97979 0
M  V30 4364 H 413.376 2.47443 4.37928 0
M  V30 4365 H 413.076 4.20826 4.10097 0
M  V30 4366 H 414.6 3.68218 4.87081 0
M  V30 4367 H 416.014 4.9099 2.95976 0
M  V30 4368 H 414.411 5.49044 2.42221 0
M  V30 4369 H 415.481 4.68165 1.26291 0
M  V30 4370 N 416.824 -0.551391 1.4764 0
M  V30 4371 C 418.049 -1.33837 1.58437 0
M  V30 4372 C 418.474 -1.866 0.237063 0
M  V30 4373 O 417.832 -1.6328 -0.787994 0
M  V30 4374 C 417.88 -2.48014 2.61766 0
M  V30 4375 O 416.984 -3.50419 2.1744 0
M  V30 4376 H 416.325 -0.397299 0.532024 0
M  V30 4377 H 418.855 -0.665759 1.93465 0
M  V30 4378 H 418.865 -2.94503 2.82369 0
M  V30 4379 H 417.54 -2.08969 3.5959 0
M  V30 4380 H 416.117 -3.10196 2.06961 0
M  V30 4381 N 418.302 -1.35869 -0.798587 0
M  V30 4382 C 419.579 -1.20145 -1.54352 0
M  V30 4383 C 419.959 0.216161 -2.0999 0
M  V30 4384 O 419.307 1.22068 -1.93162 0
M  V30 4385 C 419.517 -2.27602 -2.64572 0
M  V30 4386 C 420.865 -2.63811 -3.32699 0
M  V30 4387 O 421.889 -2.26576 -2.74849 0
M  V30 4388 O 420.748 -3.27866 -4.37226 0
M  V30 4389 H 417.842 -0.467248 -0.682355 0
M  V30 4390 H 420.388 -1.47574 -0.837859 0
M  V30 4391 H 419.16 -3.2265 -2.21388 0
M  V30 4392 H 418.783 -2.01488 -3.42766 0
M  V30 4393 N 419.78 1.02168 -1.19998 0
M  V30 4394 C 421.191 1.57135 -1.00825 0
M  V30 4395 C 421.542 1.91276 0.436818 0
M  V30 4396 O 420.667 1.71679 1.3174 0
M  V30 4397 C 421.262 2.85514 -1.82393 0
M  V30 4398 C 419.821 3.37027 -1.67601 0
M  V30 4399 C 418.968 2.10388 -1.80644 0
M  V30 4400 H 421.919 0.846106 -1.34264 0
M  V30 4401 H 421.94 3.56711 -1.32429 0
M  V30 4402 H 421.452 2.60634 -2.87561 0
M  V30 4403 H 419.553 3.66878 -0.650485 0
M  V30 4404 H 419.666 4.09572 -2.4857 0
M  V30 4405 H 418.03 2.22601 -1.23778 0
M  V30 4406 H 418.813 1.8794 -2.87286 0
M  V30 4407 N 421.258 1.00505 1.21394 0
M  V30 4408 C 422.488 0.705584 1.94178 0
M  V30 4409 C 422.896 -0.735846 1.74304 0
M  V30 4410 O 422.239 -1.50954 1.04683 0
M  V30 4411 C 422.301 0.94689 3.46806 0
M  V30 4412 C 421.965 2.37517 3.90429 0
M  V30 4413 C 422.962 3.35539 3.97127 0
M  V30 4414 C 420.647 2.71284 4.22742 0
M  V30 4415 C 422.641 4.65395 4.3553 0
M  V30 4416 C 420.328 4.01356 4.60822 0
M  V30 4417 C 421.326 4.98223 4.67186 0
M  V30 4418 O 421.014 6.25969 5.04399 0
M  V30 4419 H 420.746 0.259216 0.624326 0
M  V30 4420 H 423.3 1.34592 1.55159 0
M  V30 4421 H 421.53 0.249386 3.85895 0
M  V30 4422 H 423.219 0.640804 4.0081 0
M  V30 4423 H 423.985 3.10786 3.7234 0
M  V30 4424 H 419.864 1.96581 4.16985 0
M  V30 4425 H 423.408 5.41002 4.40412 0
M  V30 4426 H 419.305 4.25893 4.85063 0
M  V30 4427 H 420.073 6.30085 5.22431 0
M  V30 4428 N 422.737 -1.36956 0.779787 0
M  V30 4429 C 423.667 -2.32761 0.185651 0
M  V30 4430 C 424.648 -1.56177 -0.673989 0
M  V30 4431 O 425.833 -1.84378 -0.609797 0
M  V30 4432 C 422.963 -3.40418 -0.687964 0
M  V30 4433 C 421.917 -4.27941 0.0710102 0
M  V30 4434 C 421.243 -5.26681 -0.922573 0
M  V30 4435 C 422.543 -5.07006 1.25467 0
M  V30 4436 H 424.237 -2.82698 0.986008 0
M  V30 4437 H 421.783 -1.3592 0.475592 0
M  V30 4438 H 423.736 -4.06423 -1.11348 0
M  V30 4439 H 422.46 -2.89025 -1.52093 0
M  V30 4440 H 421.119 -3.63478 0.47739 0
M  V30 4441 H 420.767 -4.71565 -1.7503 0
M  V30 4442 H 420.467 -5.86103 -0.419237 0
M  V30 4443 H 421.991 -5.9556 -1.34686 0
M  V30 4444 H 423.405 -5.66105 0.905401 0
M  V30 4445 H 421.802 -5.75793 1.69063 0
M  V30 4446 H 422.872 -4.3921 2.05481 0
M  V30 4447 N 424.215 -0.530993 -1.48385 0
M  V30 4448 C 425.44 0.000729535 -2.074 0
M  V30 4449 C 425.865 1.27298 -1.3848 0
M  V30 4450 O 425.223 1.75599 -0.451081 0
M  V30 4451 C 425.271 0.206697 -3.60007 0
M  V30 4452 O 424.375 1.27514 -3.92191 0
M  V30 4453 H 423.716 -0.039583 -0.662819 0
M  V30 4454 H 426.246 -0.739194 -1.9078 0
M  V30 4455 H 426.256 0.42904 -4.05738 0
M  V30 4456 H 424.931 -0.722675 -4.09573 0
M  V30 4457 H 423.508 1.03537 -3.58238 0
M  V30 4458 N 425.693 1.55336 -0.266172 0
M  V30 4459 C 426.94 1.99397 0.353158 0
M  V30 4460 C 427.268 1.15451 1.56529 0
M  V30 4461 O 426.523 0.209974 1.9457 0
M  V30 4462 C 426.822 3.48606 0.787957 0
M  V30 4463 C 426.488 4.49773 -0.318541 0
M  V30 4464 C 425.15 4.77158 -0.62239 0
M  V30 4465 C 427.502 5.10212 -1.06459 0
M  V30 4466 C 424.83 5.62251 -1.67602 0
M  V30 4467 C 427.182 5.96449 -2.10788 0
M  V30 4468 C 425.846 6.22158 -2.41817 0
M  V30 4469 H 425.116 0.729644 0.12923 0
M  V30 4470 H 427.763 1.87732 -0.37802 0
M  V30 4471 H 426.068 3.57701 1.59866 0
M  V30 4472 H 427.765 3.80098 1.27775 0
M  V30 4473 H 424.355 4.2854 -0.0715925 0
M  V30 4474 H 428.539 4.89086 -0.843098 0
M  V30 4475 H 423.795 5.80419 -1.92155 0
M  V30 4476 H 427.969 6.42317 -2.69076 0
M  V30 4477 H 425.596 6.87888 -3.23596 0
M  V30 4478 N 427.171 -0.0066808 1.57599 0
M  V30 4479 C 428.134 -0.985035 2.06953 0
M  V30 4480 C 429.134 -1.27663 0.977687 0
M  V30 4481 O 430.324 -1.22293 1.24057 0
M  V30 4482 C 427.456 -2.3118 2.50536 0
M  V30 4483 H 428.649 -0.558255 2.94658 0
M  V30 4484 H 426.202 -0.254011 1.54222 0
M  V30 4485 H 426.937 -2.78561 1.66054 0
M  V30 4486 H 426.722 -2.11338 3.3027 0
M  V30 4487 H 428.212 -3.01377 2.8907 0
M  V30 4488 N 428.649 -1.55105 -0.279332 0
M  V30 4489 C 429.612 -1.86783 -1.32834 0
M  V30 4490 C 430.612 -0.74199 -1.42657 0
M  V30 4491 O 431.802 -1.0102 -1.41918 0
M  V30 4492 C 428.934 -2.06746 -2.71052 0
M  V30 4493 H 430.127 -2.8055 -1.05979 0
M  V30 4494 H 427.68 -1.47499 -0.517087 0
M  V30 4495 H 428.415 -1.15339 -3.03097 0
M  V30 4496 H 428.2 -2.88711 -2.65309 0
M  V30 4497 H 429.69 -2.32549 -3.46858 0
M  V30 4498 N 430.127 0.543554 -1.4793 0
M  V30 4499 C 431.09 1.63156 -1.60975 0
M  V30 4500 C 432.09 1.53346 -0.483899 0
M  V30 4501 O 433.28 1.5726 -0.749339 0
M  V30 4502 C 430.412 3.02743 -1.56716 0
M  V30 4503 H 431.605 1.52934 -2.57975 0
M  V30 4504 H 429.158 0.764557 -1.36324 0
M  V30 4505 H 429.893 3.18484 -0.611418 0
M  V30 4506 H 429.678 3.11272 -2.38438 0
M  V30 4507 H 431.168 3.81871 -1.6901 0
M  V30 4508 N 431.605 1.3629 0.791371 0
M  V30 4509 C 432.538 1.24816 1.9104 0
M  V30 4510 C 433.516 0.132739 1.62057 0
M  V30 4511 O 434.7 0.303527 1.8604 0
M  V30 4512 C 431.827 0.925355 3.25814 0
M  V30 4513 C 430.873 2.05495 3.7373 0
M  V30 4514 S 431.706 3.67255 3.89723 0
M  V30 4515 C 432.862 3.37084 5.27376 0
M  V30 4516 H 433.095 2.19533 2.00481 0
M  V30 4517 H 430.628 1.21684 0.950393 0
M  V30 4518 H 432.586 0.745924 4.03666 0
M  V30 4519 H 431.247 -0.00400098 3.141 0
M  V30 4520 H 430.44 1.7836 4.71385 0
M  V30 4521 H 430.042 2.1935 3.02922 0
M  V30 4522 H 432.334 2.90856 6.1189 0
M  V30 4523 H 433.277 4.33995 5.59512 0
M  V30 4524 H 433.685 2.7248 4.94383 0
M  V30 4525 N 433.083 -1.0153 1.20538 0
M  V30 4526 C 434.031 -2.12215 0.952235 0
M  V30 4527 C 435.025 -1.69123 -0.0968735 0
M  V30 4528 O 436.231 -1.7992 0.0536006 0
M  V30 4529 H 432.606 -0.693576 0.290613 0
M  V30 4530 H 434.577 -2.3075 1.89201 0
M  V30 4531 C 433.326 -3.43755 0.522287 0
M  V30 4532 H 432.649 -3.7734 1.32115 0
M  V30 4533 H 434.089 -4.22254 0.384389 0
M  V30 4534 C 432.548 -3.28088 -0.765489 0
M  V30 4535 O 433.078 -3.57921 -1.8236 0
M  V30 4536 N 431.284 -2.81333 -0.728011 0
M  V30 4537 H 430.831 -2.57255 0.133332 0
M  V30 4538 H 430.789 -2.71232 -1.58999 0
M  V30 4539 N 434.561 -1.01147 -1.20859 0
M  V30 4540 C 435.809 -0.696486 -1.89719 0
M  V30 4541 C 436.13 0.775788 -1.78904 0
M  V30 4542 O 435.4 1.55759 -1.18811 0
M  V30 4543 H 433.98 -0.254628 -0.702263 0
M  V30 4544 H 436.642 -1.28197 -1.46804 0
M  V30 4545 H 435.738 -0.975357 -2.96468 0
M  V30 4546 N 436.039 1.36541 -0.78704 0
M  V30 4547 C 436.969 2.32659 -0.197992 0
M  V30 4548 C 437.95 1.56533 0.665697 0
M  V30 4549 O 439.135 1.84698 0.60001 0
M  V30 4550 C 436.265 3.40778 0.669901 0
M  V30 4551 C 435.219 4.27897 -0.0937039 0
M  V30 4552 C 434.545 5.27163 0.894629 0
M  V30 4553 C 435.845 5.06334 -1.28154 0
M  V30 4554 H 437.539 2.82171 -1.00099 0
M  V30 4555 H 435.085 1.35665 -0.482793 0
M  V30 4556 H 437.038 4.07008 1.09191 0
M  V30 4557 H 435.762 2.89827 1.50558 0
M  V30 4558 H 434.421 3.6322 -0.49666 0
M  V30 4559 H 434.069 4.72486 1.72527 0
M  V30 4560 H 433.769 5.86317 0.388149 0
M  V30 4561 H 435.293 5.96266 1.31525 0
M  V30 4562 H 436.707 5.65617 -0.93541 0
M  V30 4563 H 435.104 5.74888 -1.72115 0
M  V30 4564 H 436.174 4.38114 -2.07807 0
M  V30 4565 N 437.518 0.538854 1.48102 0
M  V30 4566 C 438.481 -0.208395 2.28251 0
M  V30 4567 C 439.481 -0.859656 1.35892 0
M  V30 4568 O 440.671 -0.71834 1.58699 0
M  V30 4569 C 437.803 -1.30252 3.15035 0
M  V30 4570 H 438.996 0.495407 2.9578 0
M  V30 4571 H 436.549 0.295112 1.53489 0
M  V30 4572 H 437.284 -2.0393 2.52157 0
M  V30 4573 H 437.069 -0.840551 3.82985 0
M  V30 4574 H 438.559 -1.82787 3.75471 0
M  V30 4575 N 438.996 -1.55193 0.274407 0
M  V30 4576 C 440.244 -1.99187 -0.341902 0
M  V30 4577 C 440.565 -1.16422 -1.56431 0
M  V30 4578 O 439.835 -0.253573 -1.94252 0
M  V30 4579 H 438.415 -0.735721 -0.129317 0
M  V30 4580 H 441.077 -1.91168 0.379578 0
M  V30 4581 H 440.173 -3.05629 -0.632253 0
M  V30 4582 N 440.474 -0.00167713 -1.576 0
M  V30 4583 C 441.885 0.54091 -1.78693 0
M  V30 4584 C 442.236 1.7386 -0.909247 0
M  V30 4585 O 441.361 2.16109 -0.112176 0
M  V30 4586 C 441.956 0.98806 -3.24072 0
M  V30 4587 C 440.515 1.47594 -3.46256 0
M  V30 4588 C 439.662 0.42792 -2.73978 0
M  V30 4589 H 442.613 -0.22784 -1.57056 0
M  V30 4590 H 442.634 1.85398 -3.32277 0
M  V30 4591 H 442.146 0.116164 -3.87926 0
M  V30 4592 H 440.247 2.36868 -2.87618 0
M  V30 4593 H 440.36 1.50225 -4.54939 0
M  V30 4594 H 438.724 0.889934 -2.38647 0
M  V30 4595 H 439.507 -0.435038 -3.40532 0
M  V30 4596 N 441.952 1.55251 0.271103 0
M  V30 4597 C 442.882 1.9127 1.33933 0
M  V30 4598 C 443.863 0.77478 1.5143 0
M  V30 4599 O 445.048 1.03307 1.64442 0
M  V30 4600 C 442.178 2.18627 2.69851 0
M  V30 4601 C 441.132 3.34442 2.67081 0
M  V30 4602 C 440.458 3.47284 4.06569 0
M  V30 4603 C 441.758 4.70784 2.26185 0
M  V30 4604 H 443.452 2.80744 1.04035 0
M  V30 4605 H 440.998 1.35077 0.499017 0
M  V30 4606 H 442.951 2.42413 3.44694 0
M  V30 4607 H 441.675 1.25955 3.01335 0
M  V30 4608 H 440.334 3.10627 1.94695 0
M  V30 4609 H 439.982 2.52074 4.35279 0
M  V30 4610 H 439.682 4.25152 4.0561 0
M  V30 4611 H 441.206 3.73363 4.83148 0
M  V30 4612 H 442.62 4.94102 2.90751 0
M  V30 4613 H 441.017 5.51582 2.36384 0
M  V30 4614 H 442.087 4.69478 1.21319 0
M  V30 4615 N 443.43 -0.535701 1.48216 0
M  V30 4616 C 444.38 -1.63688 1.58714 0
M  V30 4617 C 445.364 -1.54635 0.444615 0
M  V30 4618 O 446.556 -1.62753 0.695742 0
M  V30 4619 C 443.685 -3.02423 1.62466 0
M  V30 4620 C 442.771 -3.16601 2.82178 0
M  V30 4621 N 443.162 -3.00771 4.06658 0
M  V30 4622 C 441.46 -3.47645 2.79391 0
M  V30 4623 C 442.161 -3.18213 4.86945 0
M  V30 4624 N 441.137 -3.45528 4.19656 0
M  V30 4625 H 444.939 -1.5005 2.5271 0
M  V30 4626 H 442.453 -0.741018 1.44508 0
M  V30 4627 H 444.45 -3.81517 1.6808 0
M  V30 4628 H 443.11 -3.17157 0.695826 0
M  V30 4629 H 444.121 -2.77652 4.37184 0
M  V30 4630 H 440.798 -3.68771 1.95739 0
M  V30 4631 H 442.188 -3.1076 5.95716 0
M  V30 4632 N 444.908 -1.36708 -0.784132 0
M  V30 4633 C 446.156 -1.30972 -1.53918 0
M  V30 4634 C 446.477 0.109086 -1.94695 0
M  V30 4635 O 445.747 1.05048 -1.65353 0
M  V30 4636 H 444.327 -0.481819 -0.570841 0
M  V30 4637 H 446.989 -1.71063 -0.934002 0
M  V30 4638 H 446.085 -1.94061 -2.44431 0
M  V30 4639 N 446.386 1.0089 -1.21074 0
M  V30 4640 C 447.316 2.1145 -0.990523 0
M  V30 4641 C 448.297 1.69897 0.0831699 0
M  V30 4642 O 449.482 1.94052 -0.0758853 0
M  V30 4643 C 446.612 3.42914 -0.550177 0
M  V30 4644 C 445.566 3.98244 -1.56799 0
M  V30 4645 C 444.892 5.25568 -0.984013 0
M  V30 4646 C 446.192 4.30752 -2.95381 0
M  V30 4647 H 447.886 2.3013 -1.91521 0
M  V30 4648 H 445.432 1.10592 -0.92225 0
M  V30 4649 H 447.385 4.19653 -0.383305 0
M  V30 4650 H 446.109 3.24014 0.41015 0
M  V30 4651 H 444.768 3.23621 -1.72236 0
M  V30 4652 H 444.416 5.02998 -0.0155216 0
M  V30 4653 H 444.116 5.63551 -1.66384 0
M  V30 4654 H 445.64 6.04955 -0.828378 0
M  V30 4655 H 447.054 4.98349 -2.8341 0
M  V30 4656 H 445.451 4.79869 -3.60341 0
M  V30 4657 H 446.521 3.39192 -3.46521 0
M  V30 4658 N 447.864 1.01787 1.20321 0
M  V30 4659 C 448.827 0.593972 2.2137 0
M  V30 4660 C 449.827 -0.336553 1.57239 0
M  V30 4661 O 451.017 -0.125069 1.7375 0
M  V30 4662 C 448.149 -0.132433 3.40643 0
M  V30 4663 H 449.342 1.48791 2.60387 0
M  V30 4664 H 446.895 0.807803 1.33807 0
M  V30 4665 H 447.63 -1.04123 3.0713 0
M  V30 4666 H 447.415 0.53605 3.88418 0
M  V30 4667 H 448.905 -0.416314 4.1552 0
M  V30 4668 N 449.342 -1.36122 0.79427 0
M  V30 4669 C 450.29 -2.31871 0.184023 0
M  V30 4670 C 451.284 -1.56041 -0.659365 0
M  V30 4671 O 452.49 -1.71266 -0.553906 0
M  V30 4672 H 448.865 -0.750896 0.0407373 0
M  V30 4673 H 450.836 -2.80898 1.00693 0
M  V30 4674 C 449.585 -3.41324 -0.662813 0
M  V30 4675 H 448.908 -3.99793 -0.0231944 0
M  V30 4676 H 450.348 -4.10629 -1.05639 0
M  V30 4677 C 448.807 -2.83308 -1.82313 0
M  V30 4678 O 449.337 -2.75863 -2.91997 0
M  V30 4679 N 447.543 -2.40529 -1.63077 0
M  V30 4680 H 447.09 -2.46785 -0.738591 0
M  V30 4681 H 447.048 -2.02059 -2.40872 0
M  V30 4682 N 450.82 -0.546701 -1.47814 0
M  V30 4683 C 451.752 0.244196 -2.27895 0
M  V30 4684 C 452.765 0.88911 -1.36377 0
M  V30 4685 O 453.954 0.764733 -1.61289 0
M  V30 4686 C 451.054 1.36252 -3.10304 0
M  V30 4687 C 450.227 0.816382 -4.29714 0
M  V30 4688 C 449.286 1.81789 -4.93801 0
M  V30 4689 O 448.312 1.36818 -5.52512 0
M  V30 4690 N 449.514 3.15085 -4.87547 0
M  V30 4691 H 452.279 -0.442694 -2.96412 0
M  V30 4692 H 449.84 -0.382095 -1.57327 0
M  V30 4693 H 451.832 2.03102 -3.50045 0
M  V30 4694 H 450.402 1.95281 -2.44099 0
M  V30 4695 H 449.622 -0.0285981 -3.9419 0
M  V30 4696 H 450.91 0.430668 -5.06974 0
M  V30 4697 H 450.308 3.54275 -4.41028 0
M  V30 4698 H 448.865 3.77522 -5.31339 0
M  V30 4699 N 452.299 1.55045 -0.282633 0
M  V30 4700 C 453.209 2.26491 0.61147 0
M  V30 4701 C 454.225 1.29348 1.16384 0
M  V30 4702 O 455.401 1.62298 1.19253 0
M  V30 4703 C 452.466 2.97779 1.77563 0
M  V30 4704 C 451.527 4.10418 1.25919 0
M  V30 4705 C 450.76 4.78297 2.36786 0
M  V30 4706 O 450.983 4.45426 3.56303 0
M  V30 4707 O 449.917 5.66089 2.04517 0
M  V30 4708 H 453.743 3.03683 0.0324615 0
M  V30 4709 H 451.328 1.49317 -0.0497576 0
M  V30 4710 H 453.21 3.42554 2.45427 0
M  V30 4711 H 451.885 2.23498 2.34159 0
M  V30 4712 H 450.792 3.70082 0.546797 0
M  V30 4713 H 452.125 4.86622 0.738887 0
M  V30 4714 N 453.777 0.010035 1.57597 0
M  V30 4715 C 455.023 -0.673697 1.91283 0
M  V30 4716 C 455.356 -1.72863 0.884979 0
M  V30 4717 O 454.631 -1.94268 -0.0949487 0
M  V30 4718 C 454.914 -1.30766 3.35518 0
M  V30 4719 C 454.767 -0.263578 4.49027 0
M  V30 4720 C 456.086 -2.23105 3.79358 0
M  V30 4721 H 453.205 -0.243439 0.695634 0
M  V30 4722 H 455.847 0.0633864 1.89894 0
M  V30 4723 H 453.997 -1.93588 3.36832 0
M  V30 4724 H 455.669 0.365738 4.59848 0
M  V30 4725 H 453.912 0.413077 4.31829 0
M  V30 4726 H 454.583 -0.746398 5.4693 0
M  V30 4727 H 457.059 -1.70289 3.79659 0
M  V30 4728 H 455.935 -2.64424 4.81011 0
M  V30 4729 H 456.196 -3.11433 3.13787 0
M  V30 4730 N 455.255 -1.55392 -0.262866 0
M  V30 4731 C 456.185 -1.91978 -1.32917 0
M  V30 4732 C 457.166 -0.7828 -1.51017 0
M  V30 4733 O 458.351 -1.04178 -1.63892 0
M  V30 4734 C 455.481 -2.20055 -2.68687 0
M  V30 4735 C 454.435 -3.35854 -2.65304 0
M  V30 4736 C 453.761 -3.49435 -4.04721 0
M  V30 4737 C 455.061 -4.71977 -2.23685 0
M  V30 4738 H 456.755 -2.81292 -1.02544 0
M  V30 4739 H 454.301 -1.3534 -0.491846 0
M  V30 4740 H 456.254 -2.44237 -3.43404 0
M  V30 4741 H 454.978 -1.27551 -3.00663 0
M  V30 4742 H 453.637 -3.11655 -1.93045 0
M  V30 4743 H 453.285 -2.54379 -4.33936 0
M  V30 4744 H 452.985 -4.27297 -4.0335 0
M  V30 4745 H 454.509 -3.7592 -4.81161 0
M  V30 4746 H 455.923 -4.95637 -2.88127 0
M  V30 4747 H 454.32 -5.52828 -2.33456 0
M  V30 4748 H 455.39 -4.70115 -1.18827 0
M  V30 4749 N 456.733 0.527833 -1.48498 0
M  V30 4750 C 457.979 1.28545 -1.56857 0
M  V30 4751 C 458.312 1.92678 -0.242651 0
M  V30 4752 O 457.587 1.79394 0.751545 0
M  V30 4753 C 457.87 2.37314 -2.70839 0
M  V30 4754 C 457.723 1.77858 -4.13142 0
M  V30 4755 C 459.042 3.39068 -2.80573 0
M  V30 4756 H 456.161 0.466006 -0.570971 0
M  V30 4757 H 458.803 0.587784 -1.8068 0
M  V30 4758 H 456.953 2.96821 -2.50658 0
M  V30 4759 H 458.625 1.22385 -4.44769 0
M  V30 4760 H 456.868 1.08383 -4.20042 0
M  V30 4761 H 457.539 2.56624 -4.88721 0
M  V30 4762 H 460.015 2.89518 -2.98862 0
M  V30 4763 H 458.891 4.12566 -3.6205 0
M  V30 4764 H 459.152 3.9975 -1.88818 0
M  V30 4765 N 458.211 1.37122 0.776871 0
M  V30 4766 C 459.457 1.3325 1.53675 0
M  V30 4767 C 459.812 -0.0839891 1.92217 0
M  V30 4768 O 459.105 -1.04145 1.60824 0
M  V30 4769 C 459.299 2.20068 2.81611 0
M  V30 4770 C 459.128 3.70016 2.55574 0
M  V30 4771 C 457.898 4.39144 2.4996 0
M  V30 4772 C 460.096 4.62996 2.23917 0
M  V30 4773 N 458.078 5.74663 2.15953 0
M  V30 4774 C 459.449 5.86854 2.00005 0
M  V30 4775 C 461.504 4.51433 2.1003 0
M  V30 4776 C 460.207 7.00446 1.63609 0
M  V30 4777 C 462.233 5.64905 1.75033 0
M  V30 4778 C 461.595 6.8781 1.51977 0
M  V30 4779 H 457.694 0.542878 0.562856 0
M  V30 4780 H 460.278 1.72295 0.906784 0
M  V30 4781 H 458.449 1.83248 3.42454 0
M  V30 4782 H 460.181 2.07492 3.47461 0
M  V30 4783 H 456.936 3.92088 2.65639 0
M  V30 4784 H 457.36 6.46268 2.0166 0
M  V30 4785 H 462.002 3.56987 2.26539 0
M  V30 4786 H 459.72 7.94831 1.45837 0
M  V30 4787 H 463.306 5.57926 1.64952 0
M  V30 4788 H 462.186 7.74126 1.25296 0
M  V30 4789 N 459.689 -1.00246 1.21608 0
M  V30 4790 C 460.619 -2.10921 1.00172 0
M  V30 4791 C 461.6 -1.69938 -0.0741587 0
M  V30 4792 O 462.785 -1.94009 0.0861753 0
M  V30 4793 C 459.915 -3.42618 0.568355 0
M  V30 4794 C 458.869 -3.97407 1.58909 0
M  V30 4795 C 458.195 -5.25038 1.01187 0
M  V30 4796 C 459.495 -4.2918 2.97661 0
M  V30 4797 H 461.189 -2.29112 1.92739 0
M  V30 4798 H 458.735 -1.10101 0.928102 0
M  V30 4799 H 460.688 -4.19444 0.405555 0
M  V30 4800 H 459.412 -3.24227 -0.392961 0
M  V30 4801 H 458.071 -3.22703 1.73949 0
M  V30 4802 H 457.719 -5.02982 0.0421965 0
M  V30 4803 H 457.419 -5.62661 1.6937 0
M  V30 4804 H 458.943 -6.04507 0.860448 0
M  V30 4805 H 460.357 -4.96839 2.86049 0
M  V30 4806 H 458.754 -4.77952 3.6288 0
M  V30 4807 H 459.824 -3.3735 3.48315 0
M  V30 4808 N 461.167 -1.02423 -1.1978 0
M  V30 4809 C 462.395 -0.737456 -1.93311 0
M  V30 4810 C 462.81 0.703023 -1.75223 0
M  V30 4811 O 462.167 1.47761 -1.07112 0
M  V30 4812 C 462.218 -1.0733 -3.45199 0
M  V30 4813 O 461.939 -2.4572 -3.62702 0
M  V30 4814 C 463.44 -0.80866 -4.35862 0
M  V30 4815 H 460.66 -0.2702 -0.614193 0
M  V30 4816 H 463.204 -1.36747 -1.52054 0
M  V30 4817 H 461.359 -0.488545 -3.84307 0
M  V30 4818 H 461.773 -2.58081 -4.56612 0
M  V30 4819 H 463.247 -1.09365 -5.41057 0
M  V30 4820 H 463.724 0.257025 -4.38447 0
M  V30 4821 H 464.33 -1.37592 -4.02428 0
M  V30 4822 N 462.645 1.35699 -0.801477 0
M  V30 4823 C 463.577 2.28598 -0.166028 0
M  V30 4824 C 464.59 1.50044 0.631721 0
M  V30 4825 O 465.779 1.72339 0.464921 0
M  V30 4826 C 462.879 3.29625 0.787451 0
M  V30 4827 C 462.052 4.37384 0.037171 0
M  V30 4828 C 461.111 5.183 0.908375 0
M  V30 4829 O 460.137 5.68053 0.361189 0
M  V30 4830 N 461.339 5.35912 2.23112 0
M  V30 4831 H 464.104 2.83771 -0.964071 0
M  V30 4832 H 461.665 1.47994 -0.656469 0
M  V30 4833 H 463.657 3.80648 1.37439 0
M  V30 4834 H 462.227 2.75004 1.48632 0
M  V30 4835 H 461.447 3.87364 -0.730935 0
M  V30 4836 H 462.735 5.0653 -0.480109 0
M  V30 4837 H 462.133 4.97125 2.69968 0
M  V30 4838 H 460.69 5.90133 2.76741 0
M  V30 4839 N 464.123 0.554532 1.47522 0
M  V30 4840 C 465.053 -0.182974 2.32782 0
M  V30 4841 C 466.034 -0.911377 1.43624 0
M  V30 4842 O 467.219 -0.892366 1.72483 0
M  V30 4843 C 464.349 -1.21513 3.25349 0
M  V30 4844 C 463.303 -0.603355 4.23726 0
M  V30 4845 C 462.629 -1.73995 5.05598 0
M  V30 4846 C 463.929 0.441121 5.20434 0
M  V30 4847 H 465.623 0.52882 2.94693 0
M  V30 4848 H 463.169 0.255759 1.41711 0
M  V30 4849 H 465.122 -1.73922 3.83835 0
M  V30 4850 H 463.846 -1.95683 2.61487 0
M  V30 4851 H 462.505 -0.10059 3.66462 0
M  V30 4852 H 462.153 -2.47063 4.38143 0
M  V30 4853 H 461.853 -1.3364 5.72201 0
M  V30 4854 H 463.377 -2.26735 5.66942 0
M  V30 4855 H 464.791 0.00319931 5.733 0
M  V30 4856 H 463.188 0.763402 5.95224 0
M  V30 4857 H 464.258 1.33799 4.66075 0
M  V30 4858 N 465.601 -1.54893 0.290851 0
M  V30 4859 C 466.533 -2.20564 -0.623236 0
M  V30 4860 C 467.546 -1.19519 -1.1054 0
M  V30 4861 O 468.735 -1.46165 -1.02459 0
M  V30 4862 C 465.835 -2.83033 -1.86401 0
M  V30 4863 C 465.008 -4.09916 -1.52604 0
M  V30 4864 C 464.067 -4.56284 -2.62091 0
M  V30 4865 O 463.093 -5.2171 -2.27612 0
M  V30 4866 N 464.295 -4.27746 -3.92446 0
M  V30 4867 H 467.06 -2.99638 -0.0610915 0
M  V30 4868 H 464.621 -1.61508 0.112615 0
M  V30 4869 H 466.613 -3.1099 -2.58973 0
M  V30 4870 H 465.183 -2.0786 -2.33481 0
M  V30 4871 H 464.403 -3.89078 -0.633424 0
M  V30 4872 H 465.691 -4.92554 -1.27547 0
M  V30 4873 H 465.089 -3.7531 -4.23272 0
M  V30 4874 H 463.646 -4.60437 -4.61347 0
M  V30 4875 N 467.08 -0.0183926 -1.57589 0
M  V30 4876 C 468.027 0.967022 -2.09565 0
M  V30 4877 C 468.997 1.32983 -0.995225 0
M  V30 4878 O 470.182 1.42501 -1.26878 0
M  V30 4879 C 467.322 2.24772 -2.61861 0
M  V30 4880 C 466.435 1.94232 -3.85873 0
M  V30 4881 C 465.57 3.16518 -4.26603 0
M  V30 4882 C 464.609 2.81748 -5.43401 0
M  V30 4883 N 463.746 3.96626 -5.79338 0
M  V30 4884 H 468.586 0.516874 -2.93483 0
M  V30 4885 H 466.123 0.243544 -1.4507 0
M  V30 4886 H 468.081 2.99667 -2.90268 0
M  V30 4887 H 466.711 2.67423 -1.8079 0
M  V30 4888 H 465.763 1.09625 -3.64262 0
M  V30 4889 H 467.075 1.64616 -4.70853 0
M  V30 4890 H 466.229 3.99743 -4.56389 0
M  V30 4891 H 464.968 3.49286 -3.40368 0
M  V30 4892 H 463.973 1.96933 -5.1332 0
M  V30 4893 H 465.198 2.50207 -6.31327 0
M  V30 4894 H 463.144 4.29257 -4.96059 0
M  V30 4895 H 463.061 3.70598 -6.58933 0
M  V30 4896 H 464.329 4.80586 -6.13724 0
M  V30 4897 N 468.558 1.5553 0.254621 0
M  V30 4898 C 469.468 1.92789 1.33677 0
M  V30 4899 C 470.484 0.827356 1.53071 0
M  V30 4900 O 471.66 1.12807 1.66843 0
M  V30 4901 C 468.725 2.20827 2.67275 0
M  V30 4902 C 467.786 3.4427 2.5647 0
M  V30 4903 C 467.019 3.70961 3.83697 0
M  V30 4904 O 467.242 2.99852 4.85227 0
M  V30 4905 O 466.176 4.64491 3.82794 0
M  V30 4906 H 470.002 2.84945 1.05071 0
M  V30 4907 H 467.587 1.42312 0.454723 0
M  V30 4908 H 469.469 2.40204 3.46237 0
M  V30 4909 H 468.144 1.31851 2.9563 0
M  V30 4910 H 467.051 3.30209 1.75821 0
M  V30 4911 H 468.384 4.33524 2.33062 0
M  V30 4912 N 470.036 -0.519951 1.48776 0
M  V30 4913 C 471.282 -1.27711 1.57536 0
M  V30 4914 C 471.615 -1.92547 0.252866 0
M  V30 4915 O 470.89 -1.7979 -0.742021 0
M  V30 4916 C 471.173 -2.35875 2.72094 0
M  V30 4917 C 471.026 -1.75664 4.1408 0
M  V30 4918 C 472.345 -3.37575 2.82367 0
M  V30 4919 H 469.464 -0.462971 0.573434 0
M  V30 4920 H 472.106 -0.578194 1.80989 0
M  V30 4921 H 470.256 -2.95488 2.52228 0
M  V30 4922 H 471.928 -1.20025 4.45412 0
M  V30 4923 H 470.171 -1.06154 4.20611 0
M  V30 4924 H 470.842 -2.54029 4.90075 0
M  V30 4925 H 473.318 -2.87929 3.00393 0
M  V30 4926 H 472.194 -4.1064 3.64233 0
M  V30 4927 H 472.455 -3.98743 1.90936 0
M  V30 4928 N 471.514 -1.37532 -0.769588 0
M  V30 4929 C 472.762 -1.32597 -1.5252 0
M  V30 4930 C 473.083 0.0884294 -1.94799 0
M  V30 4931 O 472.353 1.03289 -1.66458 0
M  V30 4932 H 470.933 -0.487846 -0.565699 0
M  V30 4933 H 473.595 -1.72044 -0.915806 0
M  V30 4934 H 472.691 -1.96643 -2.42359 0
M  V30 4935 N 472.992 0.995999 -1.22138 0
M  V30 4936 C 473.939 2.08551 -0.988687 0
M  V30 4937 C 474.909 1.65864 0.0885021 0
M  V30 4938 O 476.094 1.90704 -0.0604589 0
M  V30 4939 C 473.234 3.40374 -0.569191 0
M  V30 4940 C 472.347 3.96421 -1.71681 0
M  V30 4941 C 471.482 5.1639 -1.2456 0
M  V30 4942 C 470.521 5.64567 -2.36497 0
M  V30 4943 N 469.658 6.75777 -1.90445 0
M  V30 4944 H 474.498 2.2779 -1.92135 0
M  V30 4945 H 472.035 1.1168 -0.957388 0
M  V30 4946 H 473.993 4.16068 -0.307166 0
M  V30 4947 H 472.623 3.21145 0.326462 0
M  V30 4948 H 471.675 3.17628 -2.09324 0
M  V30 4949 H 472.987 4.2816 -2.55891 0
M  V30 4950 H 472.141 5.99362 -0.940774 0
M  V30 4951 H 470.88 4.86266 -0.373662 0
M  V30 4952 H 469.885 4.80185 -2.67772 0
M  V30 4953 H 471.11 5.96716 -3.24202 0
M  V30 4954 H 469.056 6.47443 -1.05609 0
M  V30 4955 H 468.973 7.06818 -2.68223 0
M  V30 4956 H 470.241 7.62262 -1.63022 0
M  V30 4957 N 474.47 1.03057 1.19235 0
M  V30 4958 C 475.747 0.642608 1.84743 0
M  V30 4959 C 476.127 -0.878577 1.91948 0
M  V30 4960 O 475.475 -1.77597 1.43776 0
M  V30 4961 C 475.685 1.30665 3.23616 0
M  V30 4962 C 477.033 1.43098 3.9976 0
M  V30 4963 O 478.057 1.26396 3.3302 0
M  V30 4964 O 476.916 1.70223 5.19313 0
M  V30 4965 H 474.01 0.223573 0.796206 0
M  V30 4966 H 476.556 1.12883 1.26711 0
M  V30 4967 H 475.328 2.34544 3.13217 0
M  V30 4968 H 474.951 0.808405 3.89295 0
M  V30 4969 N 475.948 -1.35272 0.808662 0
M  V30 4970 C 477.194 -1.99003 0.390581 0
M  V30 4971 C 477.527 -1.63999 -1.0401 0
M  V30 4972 O 476.802 -0.904368 -1.72196 0
M  V30 4973 C 477.085 -3.55454 0.576566 0
M  V30 4974 C 476.938 -4.00249 2.05233 0
M  V30 4975 C 478.257 -4.401 0.00354277 0
M  V30 4976 H 475.376 -0.722917 0.143388 0
M  V30 4977 H 478.018 -1.6039 1.01858 0
M  V30 4978 H 476.168 -3.88477 0.0419766 0
M  V30 4979 H 477.84 -3.77626 2.64946 0
M  V30 4980 H 476.083 -3.51082 2.54801 0
M  V30 4981 H 476.754 -5.0911 2.13333 0
M  V30 4982 H 479.23 -4.13548 0.460117 0
M  V30 4983 H 478.106 -5.48656 0.163575 0
M  V30 4984 H 478.367 -4.28444 -1.09032 0
M  V30 4985 N 477.426 -0.562348 -1.47226 0
M  V30 4986 C 478.651 -0.0432632 -2.07355 0
M  V30 4987 C 479.076 1.24332 -1.41149 0
M  V30 4988 O 478.434 1.74603 -0.488226 0
M  V30 4989 C 478.482 0.130288 -3.60365 0
M  V30 4990 O 477.586 1.19166 -3.94808 0
M  V30 4991 H 476.927 -0.0536334 -0.66183 0
M  V30 4992 H 479.457 -0.779495 -1.89169 0
M  V30 4993 H 479.467 0.342881 -4.06557 0
M  V30 4994 H 478.142 -0.809389 -4.07948 0
M  V30 4995 H 476.719 0.959153 -3.60354 0
M  V30 4996 N 478.904 1.54736 -0.299062 0
M  V30 4997 C 480.181 1.92187 0.363802 0
M  V30 4998 C 480.561 1.22607 1.71845 0
M  V30 4999 O 479.909 0.361141 2.25628 0
M  V30 5000 C 480.119 3.45678 0.480377 0
M  V30 5001 C 481.467 4.17885 0.752147 0
M  V30 5002 O 482.491 3.51702 0.564264 0
M  V30 5003 O 481.35 5.35048 1.11294 0
M  V30 5004 H 478.444 0.801681 0.203066 0
M  V30 5005 H 480.99 1.66115 -0.346978 0
M  V30 5006 H 479.762 3.88443 -0.471999 0
M  V30 5007 H 479.385 3.77779 1.2397 0
M  V30 5008 N 480.382 0.0267497 1.57577 0
M  V30 5009 C 481.292 -0.971633 2.13533 0
M  V30 5010 C 482.308 -1.35868 1.08701 0
M  V30 5011 O 483.484 -1.44058 1.40746 0
M  V30 5012 C 480.549 -2.23622 2.64941 0
M  V30 5013 C 479.61 -1.90982 3.8448 0
M  V30 5014 C 478.843 -3.11411 4.33427 0
M  V30 5015 O 479.066 -4.23992 3.81558 0
M  V30 5016 O 478 -2.93848 5.25297 0
M  V30 5017 H 481.826 -0.525853 2.99113 0
M  V30 5018 H 479.411 -0.193712 1.48139 0
M  V30 5019 H 481.293 -2.97864 2.98086 0
M  V30 5020 H 479.968 -2.67386 1.82446 0
M  V30 5021 H 478.875 -1.14132 3.56265 0
M  V30 5022 H 480.208 -1.52036 4.6813 0
M  V30 5023 N 481.861 -1.55662 -0.24637 0
M  V30 5024 C 482.808 -1.90361 -1.30504 0
M  V30 5025 C 483.778 -0.757905 -1.47801 0
M  V30 5026 O 484.963 -1.01161 -1.61775 0
M  V30 5027 C 482.103 -2.2042 -2.65535 0
M  V30 5028 C 481.216 -3.47799 -2.56242 0
M  V30 5029 C 480.351 -3.67426 -3.8363 0
M  V30 5030 C 479.39 -4.88403 -3.68956 0
M  V30 5031 N 478.527 -5.04548 -4.88237 0
M  V30 5032 H 483.367 -2.80645 -1.00213 0
M  V30 5033 H 480.904 -1.38924 -0.483577 0
M  V30 5034 H 482.862 -2.35853 -3.44135 0
M  V30 5035 H 481.492 -1.3334 -2.93973 0
M  V30 5036 H 480.544 -3.40694 -1.69208 0
M  V30 5037 H 481.856 -4.36544 -2.4131 0
M  V30 5038 H 481.01 -3.82821 -4.70673 0
M  V30 5039 H 479.749 -2.76914 -4.01459 0
M  V30 5040 H 478.754 -4.72984 -2.80296 0
M  V30 5041 H 479.979 -5.80375 -3.52621 0
M  V30 5042 H 477.925 -4.16974 -5.06427 0
M  V30 5043 H 477.842 -5.87384 -4.75937 0
M  V30 5044 H 479.11 -5.24355 -5.76777 0
M  V30 5045 N 483.339 0.512053 -1.4905 0
M  V30 5046 C 484.269 1.62365 -1.67809 0
M  V30 5047 C 485.25 1.61737 -0.526809 0
M  V30 5048 O 486.435 1.78651 -0.761404 0
M  V30 5049 C 483.565 3.00895 -1.73435 0
M  V30 5050 C 482.519 3.16387 -2.88242 0
M  V30 5051 C 481.845 4.56157 -2.78971 0
M  V30 5052 C 483.145 2.97457 -4.29321 0
M  V30 5053 H 484.839 1.46921 -2.60873 0
M  V30 5054 H 482.385 0.705379 -1.2554 0
M  V30 5055 H 484.338 3.78549 -1.85145 0
M  V30 5056 H 483.062 3.17403 -0.769619 0
M  V30 5057 H 481.721 2.41155 -2.76116 0
M  V30 5058 H 481.369 4.69525 -1.8043 0
M  V30 5059 H 481.069 4.67465 -3.5602 0
M  V30 5060 H 482.593 5.35886 -2.92675 0
M  V30 5061 H 484.007 3.64888 -4.42187 0
M  V30 5062 H 482.404 3.20245 -5.07507 0
M  V30 5063 H 483.474 1.93692 -4.44535 0
M  V30 5064 N 484.817 1.37938 0.762283 0
M  V30 5065 C 486.233 1.18945 1.06415 0
M  V30 5066 C 486.433 0.0321163 2.01474 0
M  V30 5067 O 485.489 -0.624844 2.44647 0
M  V30 5068 C 486.802 2.51218 1.65258 0
M  V30 5069 C 488.35 2.57824 1.7747 0
M  V30 5070 C 488.825 3.90251 2.39725 0
M  V30 5071 N 490.316 3.91744 2.47166 0
M  V30 5072 C 491.051 4.90966 2.96209 0
M  V30 5073 N 490.547 6.00585 3.45354 0
M  V30 5074 N 492.34 4.78363 2.9517 0
M  V30 5075 H 484.491 2.11994 0.131301 0
M  V30 5076 H 486.754 0.940262 0.120879 0
M  V30 5077 H 486.46 3.36317 1.02878 0
M  V30 5078 H 486.334 2.68989 2.64433 0
M  V30 5079 H 488.721 1.73126 2.3898 0
M  V30 5080 H 488.802 2.43928 0.770241 0
M  V30 5081 H 488.446 4.75368 1.78852 0
M  V30 5082 H 488.376 4.01454 3.40796 0
M  V30 5083 H 490.867 3.12563 2.12397 0
M  V30 5084 H 491.18 6.72236 3.81207 0
M  V30 5085 H 489.525 6.04217 3.43434 0
M  V30 5086 H 492.716 3.91841 2.56082 0
M  V30 5087 H 492.889 5.55843 3.33081 0
M  V30 5088 N 486.295 -0.989507 1.22664 0
M  V30 5089 C 487.572 -1.70326 0.961688 0
M  V30 5090 C 487.952 -2.04537 -0.522279 0
M  V30 5091 O 487.3 -1.73136 -1.49118 0
M  V30 5092 C 487.51 -2.95135 1.86269 0
M  V30 5093 C 488.858 -3.67842 2.12078 0
M  V30 5094 O 489.882 -3.0515 1.83745 0
M  V30 5095 O 488.741 -4.80644 2.60083 0
M  V30 5096 H 485.835 -0.743589 0.361946 0
M  V30 5097 H 488.381 -1.04555 1.33665 0
M  V30 5098 H 487.153 -2.66382 2.8663 0
M  V30 5099 H 486.776 -3.68645 1.48952 0
M  V30 5100 N 487.773 -1.03688 -1.18687 0
M  V30 5101 C 489.003 -0.756819 -1.92239 0
M  V30 5102 C 489.411 0.689374 -1.76194 0
M  V30 5103 O 488.754 1.48126 -1.08648 0
M  V30 5104 C 488.816 -1.03851 -3.44173 0
M  V30 5105 C 488.48 -2.47785 -3.83994 0
M  V30 5106 C 489.477 -3.4595 -3.88091 0
M  V30 5107 C 487.162 -2.82397 -4.154 0
M  V30 5108 C 489.156 -4.76779 -4.23038 0
M  V30 5109 C 486.843 -4.13433 -4.50018 0
M  V30 5110 C 487.841 -5.10434 -4.53813 0
M  V30 5111 O 487.529 -6.39122 -4.87625 0
M  V30 5112 H 487.261 -0.275678 -0.617234 0
M  V30 5113 H 489.815 -1.38658 -1.51536 0
M  V30 5114 H 488.045 -0.351612 -3.85098 0
M  V30 5115 H 489.734 -0.746846 -3.9897 0
M  V30 5116 H 490.5 -3.20549 -3.63969 0
M  V30 5117 H 486.379 -2.07568 -4.11627 0
M  V30 5118 H 489.923 -5.52488 -4.25914 0
M  V30 5119 H 485.82 -4.38604 -4.736 0
M  V30 5120 H 486.588 -6.43715 -5.05542 0
M  V30 5121 N 489.251 1.34841 -0.815825 0
M  V30 5122 C 490.5 1.97755 -0.396976 0
M  V30 5123 C 490.813 1.65422 1.04379 0
M  V30 5124 O 492.019 2.21771 1.5662 0
M  V30 5125 C 490.475 3.53818 -0.658869 0
M  V30 5126 C 490.083 3.95051 -2.11278 0
M  V30 5127 C 491.827 4.23397 -0.305834 0
M  V30 5128 C 489.734 5.43997 -2.31994 0
M  V30 5129 H 488.664 0.739985 -0.1447 0
M  V30 5130 H 491.315 1.53781 -1.00118 0
M  V30 5131 H 489.697 3.95997 0.0154112 0
M  V30 5132 H 490.871 3.63998 -2.82564 0
M  V30 5133 H 489.186 3.38388 -2.42657 0
M  V30 5134 H 491.783 5.32899 -0.43854 0
M  V30 5135 H 492.126 4.09508 0.748952 0
M  V30 5136 H 492.659 3.8667 -0.934403 0
M  V30 5137 H 489.398 5.62865 -3.35952 0
M  V30 5138 H 488.918 5.76589 -1.65244 0
M  V30 5139 H 490.597 6.10584 -2.14001 0
M  V30 5140 N 490.729 0.570148 1.46925 0
M  V30 5141 C 491.975 0.0593124 2.03314 0
M  V30 5142 C 492.33 -1.28139 1.43521 0
M  V30 5143 O 491.623 -1.82411 0.586245 0
M  V30 5144 C 491.817 -0.0780336 3.57315 0
M  V30 5145 C 491.646 1.2478 4.32042 0
M  V30 5146 C 490.416 1.81859 4.7144 0
M  V30 5147 C 492.614 2.16808 4.66368 0
M  V30 5148 N 490.596 3.08313 5.30864 0
M  V30 5149 C 491.967 3.27845 5.2623 0
M  V30 5150 C 494.022 2.16643 4.48297 0
M  V30 5151 C 492.725 4.38832 5.69929 0
M  V30 5152 C 494.751 3.26652 4.93004 0
M  V30 5153 C 494.113 4.36408 5.52926 0
M  V30 5154 H 490.212 0.0641804 0.779362 0
M  V30 5155 H 492.796 0.760285 1.79242 0
M  V30 5156 H 490.967 -0.748151 3.81126 0
M  V30 5157 H 492.699 -0.59211 4.00345 0
M  V30 5158 H 489.454 1.35502 4.53802 0
M  V30 5159 H 489.878 3.72802 5.65108 0
M  V30 5160 H 494.52 1.33065 4.01315 0
M  V30 5161 H 492.238 5.23162 6.15896 0
M  V30 5162 H 495.824 3.27627 4.80782 0
M  V30 5163 H 494.704 5.20127 5.86888 0
M  V30 5164 N 492.207 -1.54576 0.307264 0
M  V30 5165 C 493.155 -2.25208 -0.581723 0
M  V30 5166 C 494.149 -1.26031 -1.13192 0
M  V30 5167 O 495.355 -1.43862 -1.08184 0
M  V30 5168 H 491.73 -0.723173 -0.206214 0
M  V30 5169 H 493.701 -2.98378 0.0364663 0
M  V30 5170 C 492.45 -3.01086 -1.73904 0
M  V30 5171 H 491.773 -3.77208 -1.32491 0
M  V30 5172 H 493.213 -3.5378 -2.33701 0
M  V30 5173 C 491.672 -2.08422 -2.64692 0
M  V30 5174 O 492.202 -1.65636 -3.65961 0
M  V30 5175 N 490.408 -1.74247 -2.32564 0
M  V30 5176 H 489.955 -2.09238 -1.50257 0
M  V30 5177 H 489.913 -1.12524 -2.93574 0
M  V30 5178 N 493.685 -0.035106 -1.57561 0
M  V30 5179 C 494.913 0.652258 -1.9635 0
M  V30 5180 C 495.328 1.65317 -0.911897 0
M  V30 5181 O 494.685 1.82194 0.105657 0
M  V30 5182 C 494.736 1.35337 -3.35211 0
M  V30 5183 O 494.457 0.392548 -4.36338 0
M  V30 5184 C 495.958 2.13199 -3.88666 0
M  V30 5185 H 493.178 0.179444 -0.646561 0
M  V30 5186 H 495.722 -0.0966459 -2.04271 0
M  V30 5187 H 493.877 2.05362 -3.28489 0
M  V30 5188 H 494.291 0.891097 -5.16875 0
M  V30 5189 H 495.765 2.577 -4.88154 0
M  V30 5190 H 496.242 2.97353 -3.23231 0
M  V30 5191 H 496.848 1.48118 -3.98674 0
M  V30 5192 N 495.163 1.55791 0.238111 0
M  V30 5193 C 496.093 1.94068 1.29846 0
M  V30 5194 C 497.074 0.806726 1.49753 0
M  V30 5195 O 498.259 1.06772 1.62214 0
M  V30 5196 C 495.389 2.24302 2.65153 0
M  V30 5197 C 494.343 3.40032 2.59927 0
M  V30 5198 C 493.669 3.55829 3.99111 0
M  V30 5199 C 494.969 4.75476 2.16148 0
M  V30 5200 H 496.663 2.82887 0.980563 0
M  V30 5201 H 494.209 1.36105 0.470253 0
M  V30 5202 H 496.162 2.4967 3.39475 0
M  V30 5203 H 494.886 1.32318 2.98596 0
M  V30 5204 H 493.545 3.14687 1.88063 0
M  V30 5205 H 493.193 2.6125 4.29834 0
M  V30 5206 H 492.893 4.3366 3.96501 0
M  V30 5207 H 494.417 3.83528 4.7512 0
M  V30 5208 H 495.831 5.00158 2.80205 0
M  V30 5209 H 494.228 5.56472 2.24631 0
M  V30 5210 H 495.298 4.71946 1.11333 0
M  V30 5211 N 496.642 -0.504142 1.49319 0
M  V30 5212 C 497.59 -1.62689 1.66238 0
M  V30 5213 C 498.584 -1.6095 0.528349 0
M  V30 5214 O 499.79 -1.65496 0.707887 0
M  V30 5215 H 496.165 -0.539247 0.524134 0
M  V30 5216 H 498.136 -1.45571 2.60484 0
M  V30 5217 C 496.885 -3.00841 1.74328 0
M  V30 5218 H 496.208 -3.02884 2.60963 0
M  V30 5219 H 497.648 -3.78945 1.90202 0
M  V30 5220 C 496.107 -3.33355 0.487416 0
M  V30 5221 O 496.637 -3.99819 -0.388294 0
M  V30 5222 N 494.843 -2.88469 0.351306 0
M  V30 5223 H 494.39 -2.34557 1.06492 0
M  V30 5224 H 494.348 -3.10591 -0.487899 0
M  V30 5225 N 498.12 -1.38341 -0.754957 0
M  V30 5226 C 499.345 -1.37882 -1.5493 0
M  V30 5227 C 499.77 0.0296385 -1.88077 0
M  V30 5228 O 499.128 1.01133 -1.50472 0
M  V30 5229 C 499.176 -2.23996 -2.82592 0
M  V30 5230 O 498.28 -1.65612 -3.77686 0
M  V30 5231 H 497.621 -0.470384 -0.468652 0
M  V30 5232 H 500.151 -1.82084 -0.933082 0
M  V30 5233 H 500.161 -2.37806 -3.3153 0
M  V30 5234 H 498.836 -3.26365 -2.57796 0
M  V30 5235 H 497.413 -1.60936 -3.36384 0
M  V30 5236 N 499.598 0.982988 -1.23187 0
M  V30 5237 C 500.846 1.72052 -1.06031 0
M  V30 5238 C 501.167 1.90769 0.404019 0
M  V30 5239 O 500.437 1.47446 1.28982 0
M  V30 5240 H 499.017 0.637499 -0.389363 0
M  V30 5241 H 501.679 1.18338 -1.54862 0
M  V30 5242 H 500.775 2.7111 -1.54615 0
M  V30 5243 N 501.076 1.04316 1.18135 0
M  V30 5244 C 502.492 0.762858 1.40188 0
M  V30 5245 C 502.692 -0.646547 1.90846 0
M  V30 5246 O 501.748 -1.41036 2.0944 0
M  V30 5247 C 503.061 1.81106 2.40044 0
M  V30 5248 C 504.609 1.83226 2.53766 0
M  V30 5249 C 505.084 2.87044 3.56889 0
M  V30 5250 N 506.575 2.85951 3.64398 0
M  V30 5251 C 507.31 3.62932 4.43923 0
M  V30 5252 N 506.806 4.49672 5.27036 0
M  V30 5253 N 508.599 3.51411 4.38711 0
M  V30 5254 H 500.75 1.95264 0.835805 0
M  V30 5255 H 503.013 0.845017 0.429709 0
M  V30 5256 H 502.719 2.82214 2.09876 0
M  V30 5257 H 502.593 1.64529 3.39426 0
M  V30 5258 H 504.98 0.827869 2.8325 0
M  V30 5259 H 505.061 2.03879 1.54489 0
M  V30 5260 H 504.705 3.87663 3.28145 0
M  V30 5261 H 504.635 2.63645 4.5585 0
M  V30 5262 H 507.126 2.23051 3.05052 0
M  V30 5263 H 507.439 5.05116 5.84874 0
M  V30 5264 H 505.784 4.53738 5.26447 0
M  V30 5265 H 508.975 2.83047 3.72829 0
M  V30 5266 H 509.148 4.11654 5.00445 0
M  V30 5267 N 502.554 -1.34406 0.822964 0
M  V30 5268 C 503.8 -1.98578 0.411666 0
M  V30 5269 C 504.133 -1.65093 -1.02264 0
M  V30 5270 O 503.408 -0.92258 -1.71227 0
M  V30 5271 C 503.691 -3.54823 0.614235 0
M  V30 5272 C 503.544 -3.9805 2.09466 0
M  V30 5273 C 504.863 -4.40071 0.050221 0
M  V30 5274 H 501.982 -0.721355 0.151047 0
M  V30 5275 H 504.624 -1.59301 1.03554 0
M  V30 5276 H 502.774 -3.88411 0.0831774 0
M  V30 5277 H 504.446 -3.74795 2.68936 0
M  V30 5278 H 502.689 -3.4836 2.5851 0
M  V30 5279 H 503.36 -5.06819 2.18721 0
M  V30 5280 H 505.836 -4.13037 0.503953 0
M  V30 5281 H 504.712 -5.48452 0.221759 0
M  V30 5282 H 504.973 -4.29576 -1.04482 0
M  V30 5283 N 504.032 -0.577932 -1.46621 0
M  V30 5284 C 505.278 -0.0617793 -2.02706 0
M  V30 5285 C 505.611 1.29294 -1.44903 0
M  V30 5286 O 504.886 1.8461 -0.61232 0
M  V30 5287 C 505.169 0.00911824 -3.60099 0
M  V30 5288 C 505.022 -1.37416 -4.28295 0
M  V30 5289 C 506.341 0.712159 -4.343 0
M  V30 5290 H 503.46 -0.0239246 -0.736612 0
M  V30 5291 H 506.102 -0.744211 -1.74818 0
M  V30 5292 H 504.252 0.590292 -3.83989 0
M  V30 5293 H 505.924 -2.00013 -4.15683 0
M  V30 5294 H 504.167 -1.94319 -3.87843 0
M  V30 5295 H 504.838 -1.27707 -5.37024 0
M  V30 5296 H 507.314 0.218486 -4.15526 0
M  V30 5297 H 506.19 0.730782 -5.44014 0
M  V30 5298 H 506.451 1.77251 -4.05012 0
M  V30 5299 N 505.51 1.54411 -0.315457 0
M  V30 5300 C 506.921 1.85885 0.174265 0
M  V30 5301 C 507.272 1.23723 1.52273 0
M  V30 5302 O 506.397 0.540246 2.09548 0
M  V30 5303 C 506.992 3.37257 0.322981 0
M  V30 5304 C 505.551 3.68711 0.756922 0
M  V30 5305 C 504.698 2.77013 -0.126195 0
M  V30 5306 H 507.649 1.49374 -0.536007 0
M  V30 5307 H 507.67 3.62539 1.15522 0
M  V30 5308 H 507.182 3.82471 -0.658602 0
M  V30 5309 H 505.283 3.29024 1.74854 0
M  V30 5310 H 505.396 4.75741 0.566291 0
M  V30 5311 H 503.76 2.51588 0.39692 0
M  V30 5312 H 504.543 3.25051 -1.1044 0
M  V30 5313 N 506.988 0.0434614 1.5754 0
M  V30 5314 C 508.236 -0.630786 1.92004 0
M  V30 5315 C 508.557 -1.71836 0.921807 0
M  V30 5316 O 507.827 -1.9587 -0.034522 0
M  V30 5317 H 506.407 -0.235988 0.708745 0
M  V30 5318 H 509.069 0.0946462 1.9467 0
M  V30 5319 H 508.165 -1.07434 2.93026 0
M  V30 5320 N 508.466 -1.55915 -0.229846 0
M  V30 5321 C 509.696 -1.82352 -0.971152 0
M  V30 5322 C 510.104 -0.619231 -1.7878 0
M  V30 5323 O 509.447 0.421597 -1.78797 0
M  V30 5324 C 509.509 -3.02399 -1.9441 0
M  V30 5325 C 509.173 -4.37739 -1.31277 0
M  V30 5326 C 510.17 -5.15074 -0.706757 0
M  V30 5327 C 507.855 -4.84454 -1.32702 0
M  V30 5328 C 509.849 -6.37281 -0.123413 0
M  V30 5329 C 507.536 -6.06605 -0.739831 0
M  V30 5330 C 508.534 -6.82858 -0.139071 0
M  V30 5331 O 508.222 -8.027 0.439007 0
M  V30 5332 H 507.954 -0.61035 -0.290601 0
M  V30 5333 H 510.508 -2.03839 -0.252746 0
M  V30 5334 H 508.738 -2.76709 -2.70128 0
M  V30 5335 H 510.427 -3.15779 -2.55026 0
M  V30 5336 H 511.193 -4.80093 -0.688131 0
M  V30 5337 H 507.072 -4.25081 -1.78402 0
M  V30 5338 H 510.616 -6.96741 0.346124 0
M  V30 5339 H 506.513 -6.4106 -0.755841 0
M  V30 5340 H 507.281 -8.17824 0.332521 0
M  V30 5341 N 509.944 0.496216 -1.49584 0
M  V30 5342 C 511.192 1.24756 -1.58998 0
M  V30 5343 C 511.513 1.92968 -0.280775 0
M  V30 5344 O 510.783 1.82959 0.700198 0
M  V30 5345 H 509.363 0.463471 -0.585836 0
M  V30 5346 H 512.025 0.574678 -1.86235 0
M  V30 5347 H 511.121 2.00895 -2.38847 0
M  V30 5348 N 511.423 1.38739 0.74761 0
M  V30 5349 C 512.373 1.32948 1.85226 0
M  V30 5350 C 513.357 0.212642 1.59489 0
M  V30 5351 O 514.549 0.449121 1.71207 0
M  V30 5352 C 511.678 1.16279 3.23008 0
M  V30 5353 C 510.764 2.32611 3.54617 0
M  V30 5354 N 511.155 3.58065 3.57244 0
M  V30 5355 C 509.453 2.25293 3.84914 0
M  V30 5356 C 510.154 4.34919 3.8629 0
M  V30 5357 N 509.13 3.64348 4.03425 0
M  V30 5358 H 512.932 2.27927 1.85544 0
M  V30 5359 H 510.446 1.32056 0.945253 0
M  V30 5360 H 512.443 1.10214 4.02068 0
M  V30 5361 H 511.103 0.222394 3.23937 0
M  V30 5362 H 512.114 3.91656 3.3886 0
M  V30 5363 H 508.791 1.39446 3.93524 0
M  V30 5364 H 510.181 5.43605 3.94896 0
M  V30 5365 N 512.901 -0.976442 1.23707 0
M  V30 5366 C 513.864 -2.0511 1.02287 0
M  V30 5367 C 514.864 -1.60791 -0.0167195 0
M  V30 5368 O 516.054 -1.72761 0.223408 0
M  V30 5369 C 513.186 -3.36458 0.548507 0
M  V30 5370 H 514.379 -2.25545 1.9766 0
M  V30 5371 H 511.932 -1.15042 1.05806 0
M  V30 5372 H 512.667 -3.21713 -0.408818 0
M  V30 5373 H 512.452 -3.69967 1.29874 0
M  V30 5374 H 513.942 -4.15489 0.419406 0
M  V30 5375 N 514.379 -1.04941 -1.1758 0
M  V30 5376 C 515.625 -0.759112 -1.88057 0
M  V30 5377 C 515.958 0.711918 -1.8068 0
M  V30 5378 O 515.233 1.52035 -1.21308 0
M  V30 5379 C 515.516 -1.237 -3.38187 0
M  V30 5380 C 515.369 -2.77078 -3.54327 0
M  V30 5381 C 516.688 -0.834014 -4.32125 0
M  V30 5382 H 513.807 -0.277237 -0.682868 0
M  V30 5383 H 516.449 -1.30296 -1.38286 0
M  V30 5384 H 514.599 -0.774337 -3.80705 0
M  V30 5385 H 516.271 -3.31449 -3.20842 0
M  V30 5386 H 514.514 -3.16477 -2.96689 0
M  V30 5387 H 515.185 -3.05577 -4.59703 0
M  V30 5388 H 517.661 -1.23228 -3.97434 0
M  V30 5389 H 516.537 -1.19603 -5.35711 0
M  V30 5390 H 516.798 0.262195 -4.41322 0
M  V30 5391 N 515.857 1.33968 -0.830081 0
M  V30 5392 C 516.787 2.31911 -0.271911 0
M  V30 5393 C 517.768 1.58571 0.61556 0
M  V30 5394 O 518.953 1.86514 0.540946 0
M  V30 5395 C 516.083 3.42737 0.561146 0
M  V30 5396 C 515.037 4.27383 -0.229789 0
M  V30 5397 C 514.363 5.29742 0.726463 0
M  V30 5398 C 515.663 5.02 -1.44197 0
M  V30 5399 H 517.357 2.78844 -1.09025 0
M  V30 5400 H 514.903 1.34061 -0.52571 0
M  V30 5401 H 516.856 4.10276 0.961867 0
M  V30 5402 H 515.58 2.94471 1.41261 0
M  V30 5403 H 514.239 3.61456 -0.611964 0
M  V30 5404 H 513.887 4.77736 1.57408 0
M  V30 5405 H 513.587 5.87255 0.20142 0
M  V30 5406 H 515.111 6.00149 1.12489 0
M  V30 5407 H 516.525 5.62355 -1.11488 0
M  V30 5408 H 514.922 5.69122 -1.90317 0
M  V30 5409 H 515.992 4.31281 -2.2164 0
M  V30 5410 N 517.335 0.585699 1.46312 0
M  V30 5411 C 518.751 0.247607 1.57668 0
M  V30 5412 C 518.951 -1.25007 1.58037 0
M  V30 5413 O 518.007 -2.03196 1.49893 0
M  V30 5414 C 519.32 0.899456 2.86933 0
M  V30 5415 C 520.868 0.873326 3.00569 0
M  V30 5416 C 521.343 1.50477 4.32574 0
M  V30 5417 N 522.834 1.46925 4.3928 0
M  V30 5418 C 523.569 1.92719 5.40044 0
M  V30 5419 N 523.065 2.46499 6.47464 0
M  V30 5420 N 524.858 1.83617 5.31264 0
M  V30 5421 H 517.009 1.55841 1.44317 0
M  V30 5422 H 519.272 0.651564 0.688599 0
M  V30 5423 H 518.978 1.95313 2.92482 0
M  V30 5424 H 518.852 0.409476 3.74971 0
M  V30 5425 H 521.239 -0.171736 2.946 0
M  V30 5426 H 521.32 1.40136 2.13999 0
M  V30 5427 H 520.964 2.54905 4.39302 0
M  V30 5428 H 520.894 0.951944 5.17924 0
M  V30 5429 H 523.385 1.07616 3.62253 0
M  V30 5430 H 523.698 2.79291 7.20567 0
M  V30 5431 H 522.043 2.50526 6.48276 0
M  V30 5432 H 525.234 1.41358 4.46246 0
M  V30 5433 H 525.407 2.19622 6.09648 0
M  V30 5434 N 518.813 -1.54241 0.323641 0
M  V30 5435 C 519.76 -2.24339 -0.542277 0
M  V30 5436 C 520.73 -1.23421 -1.11159 0
M  V30 5437 O 521.915 -1.52104 -1.15192 0
M  V30 5438 C 519.055 -3.00479 -1.69725 0
M  V30 5439 C 518.168 -4.16214 -1.15716 0
M  V30 5440 C 517.303 -4.79884 -2.27783 0
M  V30 5441 C 516.342 -5.87722 -1.71023 0
M  V30 5442 N 515.479 -6.45254 -2.76752 0
M  V30 5443 H 520.319 -2.97935 0.0620613 0
M  V30 5444 H 517.856 -1.47039 0.0423993 0
M  V30 5445 H 519.814 -3.42869 -2.3769 0
M  V30 5446 H 518.444 -2.29217 -2.27288 0
M  V30 5447 H 517.496 -3.78605 -0.369063 0
M  V30 5448 H 518.808 -4.93838 -0.701832 0
M  V30 5449 H 517.962 -5.25243 -3.03651 0
M  V30 5450 H 516.701 -4.01641 -2.76652 0
M  V30 5451 H 515.706 -5.41765 -0.936518 0
M  V30 5452 H 516.931 -6.67863 -1.2303 0
M  V30 5453 H 514.877 -5.69884 -3.24912 0
M  V30 5454 H 514.794 -7.18292 -2.35782 0
M  V30 5455 H 516.062 -6.95269 -3.5245 0
M  V30 5456 N 520.291 -0.0518155 -1.57515 0
M  V30 5457 C 521.519 0.631395 -1.9703 0
M  V30 5458 C 521.934 1.64341 -0.92938 0
M  V30 5459 O 521.291 1.82296 0.0863266 0
M  V30 5460 C 521.342 1.31774 -3.36627 0
M  V30 5461 O 521.063 0.346247 -4.3673 0
M  V30 5462 C 522.564 2.09065 -3.90905 0
M  V30 5463 H 519.784 0.172576 -0.648428 0
M  V30 5464 H 522.328 -0.118306 -2.04158 0
M  V30 5465 H 520.483 2.01867 -3.30649 0
M  V30 5466 H 520.897 0.836226 -5.17791 0
M  V30 5467 H 522.371 2.52508 -4.9086 0
M  V30 5468 H 522.848 2.93908 -3.26366 0
M  V30 5469 H 523.454 1.43882 -4.00223 0
M  V30 5470 N 521.769 1.56035 0.221574 0
M  V30 5471 C 523.046 1.69837 0.970301 0
M  V30 5472 C 523.426 0.599065 2.02421 0
M  V30 5473 O 522.774 -0.393929 2.25079 0
M  V30 5474 C 522.984 3.11148 1.58076 0
M  V30 5475 C 524.332 3.70555 2.07302 0
M  V30 5476 O 525.356 3.14109 1.6797 0
M  V30 5477 O 524.215 4.69562 2.79596 0
M  V30 5478 H 521.309 0.691727 0.453257 0
M  V30 5479 H 523.855 1.68353 0.213358 0
M  V30 5480 H 522.627 3.82617 0.819759 0
M  V30 5481 H 522.25 3.16749 2.40324 0
M  V30 5482 N 523.247 -0.488276 1.49845 0
M  V30 5483 C 524.658 -1.06955 1.53028 0
M  V30 5484 C 525.009 -1.9351 0.323797 0
M  V30 5485 O 524.134 -2.08891 -0.565116 0
M  V30 5486 C 524.729 -1.94643 2.77307 0
M  V30 5487 C 523.288 -2.4791 2.83227 0
M  V30 5488 C 522.435 -1.25833 2.47106 0
M  V30 5489 H 525.386 -0.271626 1.56358 0
M  V30 5490 H 525.407 -2.79496 2.5819 0
M  V30 5491 H 524.919 -1.31621 3.65099 0
M  V30 5492 H 523.02 -3.14535 1.99745 0
M  V30 5493 H 523.133 -2.84193 3.85709 0
M  V30 5494 H 521.497 -1.58764 1.99163 0
M  V30 5495 H 522.28 -0.644993 3.37186 0
M  V30 5496 N 524.725 -1.39134 -0.740242 0
M  V30 5497 C 526.141 -1.20623 -1.0451 0
M  V30 5498 C 526.341 -0.0641651 -2.01398 0
M  V30 5499 O 525.397 0.585843 -2.4561 0
M  V30 5500 C 526.71 -2.53815 -1.6124 0
M  V30 5501 C 528.258 -2.60615 -1.73346 0
M  V30 5502 C 528.733 -3.94015 -2.33486 0
M  V30 5503 N 530.224 -3.95627 -2.40902 0
M  V30 5504 C 530.959 -4.95616 -2.88361 0
M  V30 5505 N 530.455 -6.06003 -3.35756 0
M  V30 5506 N 532.248 -4.82998 -2.87523 0
M  V30 5507 H 524.399 -2.12176 -0.0975576 0
M  V30 5508 H 526.662 -0.942066 -0.105904 0
M  V30 5509 H 526.368 -3.37911 -0.975144 0
M  V30 5510 H 526.242 -2.73162 -2.6012 0
M  V30 5511 H 528.629 -1.76906 -2.36195 0
M  V30 5512 H 528.71 -2.45123 -0.731336 0
M  V30 5513 H 528.354 -4.78153 -1.71267 0
M  V30 5514 H 528.284 -4.06825 -3.34366 0
M  V30 5515 H 530.775 -3.15903 -2.07398 0
M  V30 5516 H 531.088 -6.78215 -3.70464 0
M  V30 5517 H 529.433 -6.09604 -3.33778 0
M  V30 5518 H 532.624 -3.95866 -2.49816 0
M  V30 5519 H 532.797 -5.61072 -3.24196 0
M  V30 5520 N 526.204 0.969867 -1.24223 0
M  V30 5521 C 527.434 1.74502 -1.106 0
M  V30 5522 C 527.842 1.86038 0.344483 0
M  V30 5523 O 527.185 1.3465 1.24961 0
M  V30 5524 C 527.247 3.18391 -1.66935 0
M  V30 5525 C 526.911 3.30334 -3.15798 0
M  V30 5526 C 527.908 3.15832 -4.12973 0
M  V30 5527 C 525.593 3.54644 -3.55715 0
M  V30 5528 C 527.587 3.25461 -5.48045 0
M  V30 5529 C 525.274 3.63912 -4.90929 0
M  V30 5530 C 526.272 3.49332 -5.86904 0
M  V30 5531 O 525.96 3.58251 -7.1966 0
M  V30 5532 H 525.692 0.554119 -0.387206 0
M  V30 5533 H 528.246 1.22646 -1.64764 0
M  V30 5534 H 526.476 3.71543 -1.07203 0
M  V30 5535 H 528.165 3.77707 -1.48634 0
M  V30 5536 H 528.931 2.96937 -3.83476 0
M  V30 5537 H 524.81 3.65059 -2.81519 0
M  V30 5538 H 528.354 3.13998 -6.22937 0
M  V30 5539 H 524.251 3.82319 -5.20098 0
M  V30 5540 H 525.019 3.7498 -7.27552 0
M  V30 5541 N 527.682 1.05563 1.17022 0
M  V30 5542 C 528.91 0.78845 1.91288 0
M  V30 5543 C 529.325 -0.656318 1.77025 0
M  V30 5544 O 528.682 -1.44869 1.10992 0
M  V30 5545 C 528.733 1.16444 3.42232 0
M  V30 5546 O 528.454 2.5525 3.5606 0
M  V30 5547 C 529.955 0.923937 4.33565 0
M  V30 5548 H 527.175 0.286389 0.606813 0
M  V30 5549 H 529.719 1.4073 1.48375 0
M  V30 5550 H 527.874 0.590266 3.82877 0
M  V30 5551 H 528.288 2.70097 4.49609 0
M  V30 5552 H 529.762 1.23672 5.37968 0
M  V30 5553 H 530.239 -0.140688 4.38975 0
M  V30 5554 H 530.845 1.48214 3.98639 0
M  V30 5555 N 529.16 -1.33526 0.837174 0
M  V30 5556 C 530.4 -1.99649 0.438115 0
M  V30 5557 C 530.764 -1.64879 -0.983816 0
M  V30 5558 O 531.965 -2.23956 -1.48651 0
M  V30 5559 C 530.236 -3.51431 0.650461 0
M  V30 5560 S 531.795 -4.37431 0.346371 0
M  V30 5561 H 528.613 -0.69162 0.164872 0
M  V30 5562 H 531.215 -1.62556 1.08609 0
M  V30 5563 H 529.919 -3.74225 1.68475 0
M  V30 5564 H 529.45 -3.93398 -0.0117309 0
M  V30 5565 H 531.465 -4.89132 -0.834504 0
M  V30 5566 N 530.638 -0.59345 -1.46 0
M  V30 5567 C 531.57 0.171569 -2.28557 0
M  V30 5568 C 532.583 0.845273 -1.39137 0
M  V30 5569 O 533.772 0.713033 -1.6364 0
M  V30 5570 C 530.872 1.26311 -3.14482 0
M  V30 5571 C 530.045 0.679258 -4.32094 0
M  V30 5572 C 529.104 1.65987 -4.99334 0
M  V30 5573 O 528.13 1.19171 -5.56585 0
M  V30 5574 N 529.332 2.99414 -4.97324 0
M  V30 5575 H 532.097 -0.536771 -2.94854 0
M  V30 5576 H 529.658 -0.431954 -1.56031 0
M  V30 5577 H 531.65 1.91863 -3.5633 0
M  V30 5578 H 530.22 1.87416 -2.50188 0
M  V30 5579 H 529.44 -0.153992 -3.93899 0
M  V30 5580 H 530.728 0.26916 -5.08088 0
M  V30 5581 H 530.126 3.40064 -4.52076 0
M  V30 5582 H 528.683 3.60426 -5.4308 0
M  V30 5583 N 532.116 1.54067 -0.331816 0
M  V30 5584 C 533.532 1.59587 0.0205388 0
M  V30 5585 C 533.732 1.34813 1.49759 0
M  V30 5586 O 532.788 1.13661 2.25471 0
M  V30 5587 C 534.101 2.97959 -0.405103 0
M  V30 5588 C 535.649 3.10964 -0.356454 0
M  V30 5589 C 536.124 4.51694 -0.757384 0
M  V30 5590 N 537.615 4.57709 -0.71111 0
M  V30 5591 C 538.35 5.64729 -0.993427 0
M  V30 5592 N 537.846 6.79652 -1.3433 0
M  V30 5593 N 539.639 5.54546 -0.918442 0
M  V30 5594 H 531.79 1.68426 -1.29407 0
M  V30 5595 H 534.053 0.78819 -0.526745 0
M  V30 5596 H 533.759 3.21115 -1.43451 0
M  V30 5597 H 533.633 3.76524 0.225692 0
M  V30 5598 H 536.02 2.87538 0.663763 0
M  V30 5599 H 536.101 2.34484 -1.02229 0
M  V30 5600 H 535.745 4.75853 -1.77555 0
M  V30 5601 H 535.675 5.26555 -0.0691444 0
M  V30 5602 H 538.166 3.75176 -0.452883 0
M  V30 5603 H 538.479 7.57221 -1.54388 0
M  V30 5604 H 536.824 6.81128 -1.38164 0
M  V30 5605 H 540.015 4.63641 -0.644536 0
M  V30 5606 H 540.188 6.37861 -1.14181 0
M  V30 5607 N 533.594 0.0601682 1.57485 0
M  V30 5608 C 534.504 -0.926121 2.15546 0
M  V30 5609 C 535.52 -1.33532 1.11558 0
M  V30 5610 O 536.696 -1.4104 1.4377 0
M  V30 5611 C 533.761 -2.17952 2.69625 0
M  V30 5612 C 532.822 -1.82783 3.88444 0
M  V30 5613 C 532.055 -3.02148 4.39935 0
M  V30 5614 O 532.278 -4.15803 3.90466 0
M  V30 5615 O 531.212 -2.82639 5.31412 0
M  V30 5616 H 535.038 -0.462289 3.00161 0
M  V30 5617 H 532.623 -0.162246 1.48516 0
M  V30 5618 H 534.505 -2.91474 3.04337 0
M  V30 5619 H 533.18 -2.63456 1.88077 0
M  V30 5620 H 532.087 -1.06549 3.58606 0
M  V30 5621 H 533.42 -1.42072 4.7125 0
M  V30 5622 N 535.072 -1.5615 -0.213296 0
M  V30 5623 C 536.319 -1.79546 -0.936462 0
M  V30 5624 C 536.647 -0.630337 -1.84003 0
M  V30 5625 O 535.902 0.384883 -1.91878 0
M  V30 5626 C 536.201 -3.08772 -1.79985 0
M  V30 5627 C 535.867 -4.38532 -1.04882 0
M  V30 5628 C 534.529 -4.73787 -0.841393 0
M  V30 5629 C 536.881 -5.18609 -0.51907 0
M  V30 5630 C 534.209 -5.86627 -0.0924403 0
M  V30 5631 C 536.561 -6.32229 0.216581 0
M  V30 5632 C 535.225 -6.6608 0.435191 0
M  V30 5633 H 534.495 -0.657004 -0.342676 0
M  V30 5634 H 537.142 -1.9041 -0.204051 0
M  V30 5635 H 535.447 -2.93065 -2.60038 0
M  V30 5636 H 537.144 -3.24077 -2.36168 0
M  V30 5637 H 533.734 -4.10855 -1.22048 0
M  V30 5638 H 537.918 -4.91801 -0.666775 0
M  V30 5639 H 533.174 -6.11338 0.087081 0
M  V30 5640 H 537.348 -6.93503 0.634538 0
M  V30 5641 H 534.975 -7.5336 1.01746 0
M  V30 5642 N 536.55 0.480323 -1.50102 0
M  V30 5643 C 537.513 1.56181 -1.6775 0
M  V30 5644 C 538.513 1.51156 -0.548503 0
M  V30 5645 O 539.703 1.5394 -0.815363 0
M  V30 5646 C 536.835 2.95823 -1.69415 0
M  V30 5647 H 538.028 1.41855 -2.6423 0
M  V30 5648 H 535.581 0.70605 -1.39444 0
M  V30 5649 H 536.316 3.15604 -0.745948 0
M  V30 5650 H 536.101 3.00878 -2.51425 0
M  V30 5651 H 537.591 3.74359 -1.85054 0
M  V30 5652 N 538.028 1.39524 0.732853 0
M  V30 5653 C 538.958 1.41153 1.86005 0
M  V30 5654 C 539.939 0.274614 1.67869 0
M  V30 5655 O 541.124 0.480745 1.88155 0
M  V30 5656 C 538.254 1.25638 3.23778 0
M  V30 5657 C 537.208 2.36752 3.56556 0
M  V30 5658 C 536.534 2.06326 4.93289 0
M  V30 5659 C 537.834 3.79069 3.5931 0
M  V30 5660 H 539.528 2.35484 1.84899 0
M  V30 5661 H 537.074 1.13348 0.888162 0
M  V30 5662 H 539.027 1.25398 4.0231 0
M  V30 5663 H 537.751 0.277772 3.25417 0
M  V30 5664 H 536.41 2.36213 2.80355 0
M  V30 5665 H 536.058 1.06897 4.9151 0
M  V30 5666 H 535.758 2.80757 5.16187 0
M  V30 5667 H 537.282 2.07739 5.74175 0
M  V30 5668 H 538.696 3.81526 4.27914 0
M  V30 5669 H 537.093 4.52878 3.93728 0
M  V30 5670 H 538.163 4.09893 2.59068 0
M  V30 5671 N 539.506 -0.963266 1.24736 0
M  V30 5672 C 540.453 -2.05857 1.04363 0
M  V30 5673 C 541.423 -1.6604 -0.0444951 0
M  V30 5674 O 542.608 -1.90477 0.110999 0
M  V30 5675 C 539.748 -3.38745 0.659235 0
M  V30 5676 C 538.861 -3.9173 1.82131 0
M  V30 5677 C 537.996 -5.12906 1.38208 0
M  V30 5678 C 537.035 -5.58098 2.51382 0
M  V30 5679 N 536.172 -6.7049 2.08295 0
M  V30 5680 H 541.012 -2.22616 1.98107 0
M  V30 5681 H 538.549 -1.09103 0.986661 0
M  V30 5682 H 540.507 -4.15107 0.417371 0
M  V30 5683 H 539.137 -3.21898 -0.241201 0
M  V30 5684 H 538.189 -3.11966 2.17672 0
M  V30 5685 H 539.501 -4.21225 2.67153 0
M  V30 5686 H 538.655 -5.96657 1.09935 0
M  V30 5687 H 537.394 -4.85105 0.502456 0
M  V30 5688 H 536.399 -4.72917 2.80409 0
M  V30 5689 H 537.624 -5.87911 3.39909 0
M  V30 5690 H 535.57 -6.44416 1.22737 0
M  V30 5691 H 535.487 -6.99458 2.86869 0
M  V30 5692 H 536.755 -7.57672 1.83175 0
M  V30 5693 N 540.985 -1.06182 -1.16461 0
M  V30 5694 C 541.935 -0.641619 -2.18786 0
M  V30 5695 C 542.919 0.327122 -1.5754 0
M  V30 5696 O 544.111 0.142746 -1.76423 0
M  V30 5697 C 541.24 -0.0283734 -3.43288 0
M  V30 5698 C 540.326 -1.02154 -4.11613 0
M  V30 5699 N 540.717 -2.19671 -4.55608 0
M  V30 5700 C 539.015 -0.852229 -4.37782 0
M  V30 5701 C 539.716 -2.82583 -5.0845 0
M  V30 5702 N 538.692 -2.10318 -5.01266 0
M  V30 5703 H 542.494 -1.53684 -2.50516 0
M  V30 5704 H 540.008 -0.933349 -1.329 0
M  V30 5705 H 542.005 0.29049 -4.15887 0
M  V30 5706 H 540.665 0.862118 -3.13046 0
M  V30 5707 H 541.676 -2.57453 -4.49375 0
M  V30 5708 H 538.353 -0.0136314 -4.17498 0
M  V30 5709 H 539.743 -3.82298 -5.52538 0
M  V30 5710 N 542.463 1.3308 -0.844243 0
M  V30 5711 C 543.393 2.3161 -0.296493 0
M  V30 5712 C 544.374 1.59215 0.598707 0
M  V30 5713 O 545.559 1.87077 0.521134 0
M  V30 5714 C 542.689 3.43313 0.524762 0
M  V30 5715 C 541.643 4.27115 -0.275106 0
M  V30 5716 C 540.969 5.30483 0.670236 0
M  V30 5717 C 542.269 5.00443 -1.49514 0
M  V30 5718 H 543.963 2.77672 -1.11976 0
M  V30 5719 H 541.509 1.33496 -0.539899 0
M  V30 5720 H 543.462 4.11273 0.918298 0
M  V30 5721 H 542.186 2.95952 1.3813 0
M  V30 5722 H 540.845 3.60787 -0.650267 0
M  V30 5723 H 540.493 4.79379 1.52332 0
M  V30 5724 H 540.193 5.87435 0.139123 0
M  V30 5725 H 541.717 6.01308 1.06117 0
M  V30 5726 H 543.131 5.61141 -1.17447 0
M  V30 5727 H 541.528 5.67071 -1.96343 0
M  V30 5728 H 542.598 4.28906 -2.26202 0
M  V30 5729 N 543.941 0.601185 1.45683 0
M  V30 5730 C 545.352 0.179659 1.85834 0
M  V30 5731 C 545.703 -1.26189 1.50236 0
M  V30 5732 O 544.828 -1.95587 0.925987 0
M  V30 5733 C 545.423 0.319277 3.37292 0
M  V30 5734 C 543.982 -0.0475092 3.7637 0
M  V30 5735 C 543.129 0.646692 2.69654 0
M  V30 5736 H 546.08 0.808268 1.36575 0
M  V30 5737 H 546.101 -0.4503 3.77826 0
M  V30 5738 H 545.613 1.36855 3.6317 0
M  V30 5739 H 543.714 -1.0962 3.5611 0
M  V30 5740 H 543.827 0.34168 4.7788 0
M  V30 5741 H 542.191 0.0849971 2.54558 0
M  V30 5742 H 542.974 1.69797 2.98369 0
M  V30 5743 N 545.419 -1.53889 0.339982 0
M  V30 5744 C 546.367 -2.26391 -0.533822 0
M  V30 5745 C 547.361 -1.28404 -1.10493 0
M  V30 5746 O 548.567 -1.46124 -1.05108 0
M  V30 5747 H 544.942 -0.727385 -0.190828 0
M  V30 5748 H 546.913 -2.98233 0.0997484 0
M  V30 5749 C 545.662 -3.04707 -1.67479 0
M  V30 5750 H 544.985 -3.79934 -1.2446 0
M  V30 5751 H 546.425 -3.58657 -2.26144 0
M  V30 5752 C 544.884 -2.13989 -2.60212 0
M  V30 5753 O 545.414 -1.73361 -3.62366 0
M  V30 5754 N 543.62 -1.79141 -2.28816 0
M  V30 5755 H 543.167 -2.12378 -1.45785 0
M  V30 5756 H 543.125 -1.18725 -2.91121 0
M  V30 5757 N 546.897 -0.0685191 -1.57451 0
M  V30 5758 C 548.174 0.642167 -1.84758 0
M  V30 5759 C 548.554 1.87991 -0.960344 0
M  V30 5760 O 547.902 2.28485 -0.0257894 0
M  V30 5761 C 548.112 0.982946 -3.34872 0
M  V30 5762 C 549.46 1.35784 -4.02303 0
M  V30 5763 O 550.484 1.07477 -3.39598 0
M  V30 5764 O 549.343 1.88681 -5.12895 0
M  V30 5765 H 546.437 0.318625 -0.763156 0
M  V30 5766 H 548.983 -0.0992015 -1.6941 0
M  V30 5767 H 547.755 0.10372 -3.91163 0
M  V30 5768 H 547.378 1.78119 -3.55471 0
M  V30 5769 N 548.375 1.56261 0.205012 0
M  V30 5770 C 549.786 1.70056 0.770574 0
M  V30 5771 C 550.137 0.673398 1.84282 0
M  V30 5772 O 549.262 -0.172196 2.15714 0
M  V30 5773 C 549.857 3.08316 1.40451 0
M  V30 5774 C 548.416 3.2391 1.91727 0
M  V30 5775 C 547.563 2.66001 0.783516 0
M  V30 5776 H 550.514 1.58688 -0.019911 0
M  V30 5777 H 550.535 3.05094 2.27371 0
M  V30 5778 H 550.047 3.83053 0.623882 0
M  V30 5779 H 548.148 2.54072 2.7254 0
M  V30 5780 H 548.261 4.3131 2.08588 0
M  V30 5781 H 546.625 2.24915 1.19521 0
M  V30 5782 H 547.408 3.43297 0.0152883 0
M  V30 5783 N 549.853 -0.472356 1.50355 0
M  V30 5784 C 550.786 -1.58923 1.63764 0
M  V30 5785 C 551.764 -1.55173 0.485793 0
M  V30 5786 O 552.948 -1.74815 0.705132 0
M  V30 5787 C 550.075 -2.97497 1.61905 0
M  V30 5788 C 549.121 -3.19405 2.82635 0
M  V30 5789 S 549.954 -2.99441 4.43954 0
M  V30 5790 C 551.11 -4.40359 4.44786 0
M  V30 5791 H 551.343 -1.47309 2.58239 0
M  V30 5792 H 548.876 -0.659601 1.39602 0
M  V30 5793 H 550.834 -3.77389 1.61518 0
M  V30 5794 H 549.495 -3.06502 0.686683 0
M  V30 5795 H 548.688 -4.20636 2.77636 0
M  V30 5796 H 548.29 -2.47283 2.80583 0
M  V30 5797 H 550.582 -5.32969 4.1827 0
M  V30 5798 H 551.525 -4.50403 5.46391 0
M  V30 5799 H 551.933 -4.22378 3.74509 0
M  V30 5800 N 551.331 -1.39911 -0.725443 0
M  V30 5801 C 552.578 -1.37654 -1.48518 0
M  V30 5802 C 552.906 0.0243982 -1.94485 0
M  V30 5803 O 552.161 1.00708 -1.67799 0
M  V30 5804 C 552.46 -2.30368 -2.7325 0
M  V30 5805 C 552.126 -3.77817 -2.461 0
M  V30 5806 C 550.788 -4.17991 -2.38405 0
M  V30 5807 C 553.14 -4.71036 -2.23103 0
M  V30 5808 C 550.468 -5.49433 -2.05768 0
M  V30 5809 C 552.82 -6.02766 -1.9198 0
M  V30 5810 C 551.484 -6.41993 -1.82761 0
M  V30 5811 H 550.754 -0.503713 -0.543465 0
M  V30 5812 H 553.401 -1.7249 -0.831822 0
M  V30 5813 H 551.706 -1.88683 -3.43375 0
M  V30 5814 H 553.403 -2.2591 -3.31309 0
M  V30 5815 H 549.993 -3.45982 -2.52972 0
M  V30 5816 H 554.177 -4.40823 -2.2801 0
M  V30 5817 H 549.433 -5.78738 -1.9716 0
M  V30 5818 H 553.607 -6.74519 -1.73197 0
M  V30 5819 H 551.234 -7.43761 -1.57237 0
M  V30 5820 N 552.809 0.956637 -1.25245 0
M  V30 5821 C 553.756 2.053 -1.05454 0
M  V30 5822 C 554.726 1.66062 0.0356889 0
M  V30 5823 O 555.911 1.90415 -0.121099 0
M  V30 5824 C 553.051 3.38391 -0.677191 0
M  V30 5825 C 552.164 3.90758 -1.84206 0
M  V30 5826 C 551.299 5.12165 -1.40926 0
M  V30 5827 C 550.338 5.56757 -2.54338 0
M  V30 5828 N 549.475 6.69376 -2.11848 0
M  V30 5829 H 554.315 2.21562 -1.99284 0
M  V30 5830 H 551.852 1.08578 -0.992434 0
M  V30 5831 H 553.81 4.1488 -0.43938 0
M  V30 5832 H 552.44 3.22021 0.224127 0
M  V30 5833 H 551.492 3.10808 -2.19323 0
M  V30 5834 H 552.804 4.19802 -2.69383 0
M  V30 5835 H 551.958 5.96065 -1.13098 0
M  V30 5836 H 550.697 4.84832 -0.528175 0
M  V30 5837 H 549.702 4.71423 -2.82913 0
M  V30 5838 H 550.927 5.861 -3.43022 0
M  V30 5839 H 548.873 6.43756 -1.26153 0
M  V30 5840 H 548.79 6.97927 -2.90574 0
M  V30 5841 H 550.058 7.5669 -1.87191 0
M  V30 5842 N 554.287 1.06798 1.15896 0
M  V30 5843 C 555.217 0.704677 2.22613 0
M  V30 5844 C 556.198 -0.305252 1.67339 0
M  V30 5845 O 557.383 -0.179247 1.93371 0
M  V30 5846 C 554.513 0.0957325 3.47168 0
M  V30 5847 C 553.467 1.0322 4.15367 0
M  V30 5848 C 552.793 0.286293 5.33933 0
M  V30 5849 C 554.093 2.36341 4.65768 0
M  V30 5850 H 555.787 1.59688 2.53259 0
M  V30 5851 H 553.333 0.769257 1.21731 0
M  V30 5852 H 555.286 -0.170333 4.21056 0
M  V30 5853 H 554.01 -0.831516 3.15838 0
M  V30 5854 H 552.669 1.28309 3.43413 0
M  V30 5855 H 552.317 -0.644237 4.98857 0
M  V30 5856 H 552.017 0.910436 5.80504 0
M  V30 5857 H 553.541 0.0278938 6.10594 0
M  V30 5858 H 554.955 2.1561 5.31211 0
M  V30 5859 H 553.352 2.94299 5.2298 0
M  V30 5860 H 554.422 2.99047 3.81705 0
M  V30 5861 N 555.766 -1.3263 0.851289 0
M  V30 5862 C 557.012 -1.9766 0.453694 0
M  V30 5863 C 557.345 -1.67225 -0.987396 0
M  V30 5864 O 556.62 -0.958693 -1.69232 0
M  V30 5865 C 556.903 -3.5344 0.68936 0
M  V30 5866 C 556.756 -3.93517 2.17862 0
M  V30 5867 C 558.075 -4.39866 0.143555 0
M  V30 5868 H 555.194 -0.717989 0.166314 0
M  V30 5869 H 557.836 -1.57068 1.06909 0
M  V30 5870 H 555.986 -3.88147 0.165546 0
M  V30 5871 H 557.658 -3.69006 2.76826 0
M  V30 5872 H 555.901 -3.42798 2.65841 0
M  V30 5873 H 556.572 -5.02065 2.29422 0
M  V30 5874 H 559.048 -4.11875 0.591451 0
M  V30 5875 H 557.924 -5.47858 0.338043 0
M  V30 5876 H 558.185 -4.31696 -0.953466 0
M  V30 5877 N 557.244 -0.608902 -1.45362 0
M  V30 5878 C 558.207 0.0992563 -2.28985 0
M  V30 5879 C 559.207 0.793841 -1.39838 0
M  V30 5880 O 560.397 0.641804 -1.61946 0
M  V30 5881 C 557.529 1.15073 -3.20891 0
M  V30 5882 H 558.722 -0.635964 -2.93079 0
M  V30 5883 H 556.275 -0.368007 -1.51906 0
M  V30 5884 H 557.01 1.91667 -2.616 0
M  V30 5885 H 556.795 0.656867 -3.86559 0
M  V30 5886 H 558.285 1.64665 -3.83765 0
M  V30 5887 N 558.722 1.53707 -0.348139 0
M  V30 5888 C 559.654 2.22725 0.540946 0
M  V30 5889 C 560.667 1.2354 1.06027 0
M  V30 5890 O 561.856 1.49867 0.96964 0
M  V30 5891 C 558.956 2.89756 1.75768 0
M  V30 5892 C 558.129 4.15297 1.37285 0
M  V30 5893 C 557.188 4.65697 2.44976 0
M  V30 5894 O 556.214 5.29798 2.08092 0
M  V30 5895 N 557.416 4.42017 3.763 0
M  V30 5896 H 560.181 2.99658 -0.0501592 0
M  V30 5897 H 557.742 1.60979 -0.17248 0
M  V30 5898 H 559.734 3.20388 2.47252 0
M  V30 5899 H 558.304 2.16382 2.25605 0
M  V30 5900 H 557.524 3.9116 0.488584 0
M  V30 5901 H 558.812 4.96948 1.09179 0
M  V30 5902 H 558.21 3.9076 4.09051 0
M  V30 5903 H 556.767 4.77242 4.4394 0
M  V30 5904 N 560.2 0.0768682 1.57412 0
M  V30 5905 C 561.13 -0.886026 2.16037 0
M  V30 5906 C 562.111 -1.30691 1.08876 0
M  V30 5907 O 563.296 -1.37705 1.36934 0
M  V30 5908 C 560.426 -2.1518 2.72608 0
M  V30 5909 C 559.38 -1.87015 3.8498 0
M  V30 5910 C 558.706 -3.20266 4.28175 0
M  V30 5911 C 560.006 -1.17143 5.08994 0
M  V30 5912 H 561.7 -0.397642 2.96748 0
M  V30 5913 H 559.246 -0.189823 1.42743 0
M  V30 5914 H 561.199 -2.82962 3.12266 0
M  V30 5915 H 559.923 -2.66269 1.89125 0
M  V30 5916 H 558.582 -1.21636 3.45833 0
M  V30 5917 H 558.23 -3.69207 3.41607 0
M  V30 5918 H 557.93 -3.0221 5.03927 0
M  V30 5919 H 559.454 -3.89237 4.70454 0
M  V30 5920 H 560.868 -1.75003 5.45937 0
M  V30 5921 H 559.265 -1.09328 5.90057 0
M  V30 5922 H 560.335 -0.151295 4.84664 0
M  V30 5923 N 561.678 -1.56367 -0.196722 0
M  V30 5924 C 562.908 -1.84371 -0.932254 0
M  V30 5925 C 563.316 -0.657013 -1.77426 0
M  V30 5926 O 562.659 0.383576 -1.79651 0
M  V30 5927 C 562.721 -3.06454 -1.87952 0
M  V30 5928 C 562.385 -4.40425 -1.21962 0
M  V30 5929 C 563.382 -5.16457 -0.597343 0
M  V30 5930 C 561.067 -4.8716 -1.22396 0
M  V30 5931 C 563.061 -6.37399 0.0117913 0
M  V30 5932 C 560.748 -6.08038 -0.610995 0
M  V30 5933 C 561.746 -6.83 0.00580487 0
M  V30 5934 O 561.434 -8.01589 0.609173 0
M  V30 5935 H 561.166 -0.616377 -0.277589 0
M  V30 5936 H 563.72 -2.04329 -0.209452 0
M  V30 5937 H 561.95 -2.82377 -2.64197 0
M  V30 5938 H 563.639 -3.21118 -2.48271 0
M  V30 5939 H 564.405 -4.81445 -0.586142 0
M  V30 5940 H 560.284 -4.2877 -1.69345 0
M  V30 5941 H 563.828 -6.9585 0.493836 0
M  V30 5942 H 559.725 -6.42519 -0.619693 0
M  V30 5943 H 560.493 -8.16935 0.505919 0
M  V30 5944 N 563.156 0.464375 -1.50603 0
M  V30 5945 C 564.103 1.56152 -1.69956 0
M  V30 5946 C 565.073 1.57046 -0.54091 0
M  V30 5947 O 566.258 1.74473 -0.772258 0
M  V30 5948 C 563.398 2.94079 -1.80586 0
M  V30 5949 C 562.511 3.02923 -3.07996 0
M  V30 5950 C 561.646 4.31806 -3.09382 0
M  V30 5951 C 560.685 4.34417 -4.31218 0
M  V30 5952 N 559.822 5.54782 -4.30304 0
M  V30 5953 H 564.662 1.38955 -2.6362 0
M  V30 5954 H 562.199 0.675482 -1.30674 0
M  V30 5955 H 564.157 3.74073 -1.8473 0
M  V30 5956 H 562.787 3.09896 -0.903556 0
M  V30 5957 H 561.839 2.1576 -3.13292 0
M  V30 5958 H 563.151 3.00712 -3.97962 0
M  V30 5959 H 562.305 5.20153 -3.12292 0
M  V30 5960 H 561.044 4.36636 -2.17257 0
M  V30 5961 H 560.049 3.44467 -4.28512 0
M  V30 5962 H 561.274 4.31273 -5.24576 0
M  V30 5963 H 559.22 5.60384 -3.41037 0
M  V30 5964 H 559.137 5.54339 -5.14047 0
M  V30 5965 H 560.405 6.45235 -4.3737 0
M  V30 5966 N 564.634 1.40294 0.718013 0
M  V30 5967 C 565.883 1.37746 1.4734 0
M  V30 5968 C 566.196 -0.0180754 1.95592 0
M  V30 5969 O 567.402 -0.166166 2.70991 0
M  V30 5970 C 565.858 2.4208 2.66318 0
M  V30 5971 C 565.466 3.87432 2.24945 0
M  V30 5972 C 567.21 2.48635 3.44065 0
M  V30 5973 C 565.117 4.83368 3.40748 0
M  V30 5974 H 564.047 0.512165 0.553356 0
M  V30 5975 H 566.698 1.66019 0.781661 0
M  V30 5976 H 565.08 2.06903 3.3765 0
M  V30 5977 H 566.254 4.3174 1.6105 0
M  V30 5978 H 564.569 3.8433 1.60249 0
M  V30 5979 H 567.166 3.17499 4.30231 0
M  V30 5980 H 567.509 1.51611 3.87711 0
M  V30 5981 H 568.042 2.82791 2.79775 0
M  V30 5982 H 564.781 5.81716 3.02136 0
M  V30 5983 H 564.301 4.43726 4.03568 0
M  V30 5984 H 565.98 5.03074 4.06848 0
M  V30 5985 N 566.112 -0.949982 1.2575 0
M  V30 5986 C 567.358 -1.69766 1.10938 0
M  V30 5987 C 567.691 -1.91056 -0.348028 0
M  V30 5988 O 566.966 -1.48488 -1.25625 0
M  V30 5989 C 567.249 -3.07779 1.86933 0
M  V30 5990 C 567.102 -2.9387 3.4053 0
M  V30 5991 C 568.421 -4.07749 1.65616 0
M  V30 5992 H 565.54 -0.616144 0.404396 0
M  V30 5993 H 568.182 -1.10394 1.54639 0
M  V30 5994 H 566.332 -3.58462 1.4979 0
M  V30 5995 H 568.004 -2.50476 3.87375 0
M  V30 5996 H 566.247 -2.29686 3.68004 0
M  V30 5997 H 566.918 -3.91719 3.88922 0
M  V30 5998 H 569.394 -3.65994 1.97959 0
M  V30 5999 H 568.27 -5.02348 2.21218 0
M  V30 6000 H 568.531 -4.38029 0.598595 0
M  V30 6001 N 567.59 -1.07411 -1.15328 0
M  V30 6002 C 569.001 -0.820261 -1.67716 0
M  V30 6003 C 569.352 0.654539 -1.8496 0
M  V30 6004 O 568.477 1.50664 -1.55337 0
M  V30 6005 C 569.072 -1.48242 -3.04647 0
M  V30 6006 C 567.631 -1.27606 -3.5411 0
M  V30 6007 C 566.778 -1.5517 -2.29821 0
M  V30 6008 H 569.729 -1.23608 -0.995332 0
M  V30 6009 H 569.75 -0.903984 -3.69606 0
M  V30 6010 H 569.262 -2.55578 -2.92064 0
M  V30 6011 H 567.363 -0.222948 -3.71932 0
M  V30 6012 H 567.476 -1.99667 -4.35511 0
M  V30 6013 H 565.84 -0.972747 -2.35393 0
M  V30 6014 H 566.623 -2.63689 -2.19824 0
M  V30 6015 N 569.068 1.32177 -0.85831 0
M  V30 6016 C 570.016 2.30729 -0.294442 0
M  V30 6017 C 571.01 1.59009 0.584165 0
M  V30 6018 O 572.216 1.73713 0.471562 0
M  V30 6019 H 568.591 0.748097 -0.0765171 0
M  V30 6020 H 570.562 2.75774 -1.1398 0
M  V30 6021 C 569.311 3.44098 0.499208 0
M  V30 6022 H 568.634 3.99449 -0.167579 0
M  V30 6023 H 570.074 4.15202 0.859273 0
M  V30 6024 C 568.533 2.91684 1.68588 0
M  V30 6025 O 569.063 2.89481 2.78503 0
M  V30 6026 N 567.269 2.48036 1.51415 0
M  V30 6027 H 566.816 2.50027 0.620006 0
M  V30 6028 H 566.774 2.13322 2.30957 0
M  V30 6029 N 570.547 0.616602 1.45037 0
M  V30 6030 C 571.793 0.115501 2.02471 0
M  V30 6031 C 572.126 -1.25406 1.4828 0
M  V30 6032 O 571.401 -1.82922 0.661051 0
M  V30 6033 C 571.684 0.0863588 3.59996 0
M  V30 6034 C 571.537 1.48723 4.24501 0
M  V30 6035 C 572.856 -0.596762 4.36035 0
M  V30 6036 H 569.975 0.0434461 0.735718 0
M  V30 6037 H 572.617 0.7903 1.72784 0
M  V30 6038 H 570.767 -0.488277 3.85419 0
M  V30 6039 H 572.439 2.10964 4.10234 0
M  V30 6040 H 570.682 2.04534 3.82555 0
M  V30 6041 H 571.353 1.419 5.3345 0
M  V30 6042 H 573.829 -0.10824 4.15959 0
M  V30 6043 H 572.705 -0.586289 5.4576 0
M  V30 6044 H 572.966 -1.66451 4.09569 0
M  V30 6045 N 572.025 -1.5352 0.356285 0
M  V30 6046 C 572.955 -2.28372 -0.486661 0
M  V30 6047 C 573.936 -1.30432 -1.09185 0
M  V30 6048 O 575.121 -1.59291 -1.11085 0
M  V30 6049 C 572.251 -3.06604 -1.63129 0
M  V30 6050 C 571.205 -4.12154 -1.15381 0
M  V30 6051 C 570.531 -4.78415 -2.38796 0
M  V30 6052 C 571.831 -5.21724 -0.245179 0
M  V30 6053 H 573.525 -2.99083 0.137797 0
M  V30 6054 H 571.071 -1.43841 0.0677134 0
M  V30 6055 H 573.024 -3.57712 -2.22755 0
M  V30 6056 H 571.748 -2.33568 -2.28284 0
M  V30 6057 H 570.407 -3.61978 -0.580294 0
M  V30 6058 H 570.055 -4.01959 -3.02387 0
M  V30 6059 H 569.755 -5.49734 -2.07524 0
M  V30 6060 H 571.279 -5.32313 -2.99125 0
M  V30 6061 H 572.693 -5.68391 -0.748646 0
M  V30 6062 H 571.09 -6.00095 -0.0237608 0
M  V30 6063 H 572.16 -4.79596 0.715229 0
M  V30 6064 N 573.503 -0.0852151 -1.57369 0
M  V30 6065 C 574.433 0.874556 -2.16503 0
M  V30 6066 C 575.414 1.30111 -1.09568 0
M  V30 6067 O 576.599 1.36977 -1.37662 0
M  V30 6068 C 573.729 2.13731 -2.73745 0
M  V30 6069 C 572.683 1.84971 -3.85966 0
M  V30 6070 C 572.009 3.17991 -4.29867 0
M  V30 6071 C 573.309 1.14442 -5.09608 0
M  V30 6072 H 575.003 0.381899 -2.96954 0
M  V30 6073 H 572.549 0.18225 -1.42842 0
M  V30 6074 H 574.502 2.81302 -3.13763 0
M  V30 6075 H 573.226 2.65263 -1.90534 0
M  V30 6076 H 571.885 1.19801 -3.46473 0
M  V30 6077 H 571.533 3.6739 -3.4356 0
M  V30 6078 H 571.233 2.99534 -5.05523 0
M  V30 6079 H 572.757 3.86737 -4.72511 0
M  V30 6080 H 574.171 1.72105 -5.46857 0
M  V30 6081 H 572.568 1.06197 -5.90629 0
M  V30 6082 H 573.638 0.12559 -4.84737 0
M  V30 6083 N 574.981 1.5647 0.188427 0
M  V30 6084 C 575.891 1.98285 1.2538 0
M  V30 6085 C 576.907 0.891535 1.49424 0
M  V30 6086 O 578.083 1.19782 1.61908 0
M  V30 6087 C 575.148 2.31965 2.57669 0
M  V30 6088 C 574.209 3.54838 2.41638 0
M  V30 6089 C 573.442 3.86901 3.67618 0
M  V30 6090 O 573.665 3.20163 4.72072 0
M  V30 6091 O 572.599 4.80309 3.62749 0
M  V30 6092 H 576.425 2.89145 0.928912 0
M  V30 6093 H 574.01 1.44112 0.393955 0
M  V30 6094 H 575.892 2.54673 3.35737 0
M  V30 6095 H 574.567 1.44271 2.89771 0
M  V30 6096 H 573.474 3.37369 1.61658 0
M  V30 6097 H 574.807 4.43019 2.14465 0
M  V30 6098 N 576.459 -0.456382 1.50847 0
M  V30 6099 C 577.391 -1.57033 1.66953 0
M  V30 6100 C 578.404 -1.53207 0.550593 0
M  V30 6101 O 579.593 -1.58328 0.824285 0
M  V30 6102 C 576.693 -2.95937 1.65149 0
M  V30 6103 C 575.866 -3.24475 2.93317 0
M  V30 6104 C 574.925 -4.43007 2.83957 0
M  V30 6105 O 573.951 -4.42592 3.57912 0
M  V30 6106 N 575.153 -5.45503 1.9851 0
M  V30 6107 H 577.918 -1.43629 2.63042 0
M  V30 6108 H 575.479 -0.645037 1.48495 0
M  V30 6109 H 577.471 -3.73224 1.56481 0
M  V30 6110 H 576.041 -3.03036 0.767343 0
M  V30 6111 H 575.261 -2.35664 3.16 0
M  V30 6112 H 576.549 -3.4036 3.78196 0
M  V30 6113 H 575.947 -5.48668 1.37766 0
M  V30 6114 H 574.504 -6.21716 1.95735 0
M  V30 6115 N 577.937 -1.40673 -0.710563 0
M  V30 6116 C 579.185 -1.38947 -1.46759 0
M  V30 6117 C 579.506 0.00572879 -1.94999 0
M  V30 6118 O 578.776 0.961358 -1.70689 0
M  V30 6119 H 577.356 -0.5114 -0.544499 0
M  V30 6120 H 580.018 -1.75773 -0.842012 0
M  V30 6121 H 579.114 -2.06745 -2.33801 0
M  V30 6122 N 579.415 0.9433 -1.26252 0
M  V30 6123 C 580.362 2.0417 -1.07625 0
M  V30 6124 C 581.332 1.6609 0.0180738 0
M  V30 6125 O 582.517 1.90276 -0.141289 0
M  V30 6126 C 579.657 3.37653 -0.713043 0
M  V30 6127 C 578.77 3.88783 -1.8834 0
M  V30 6128 C 577.905 5.10642 -1.4635 0
M  V30 6129 C 576.944 5.54028 -2.60229 0
M  V30 6130 N 576.081 6.67092 -2.18936 0
M  V30 6131 H 580.921 2.19436 -2.01623 0
M  V30 6132 H 578.458 1.07519 -1.00389 0
M  V30 6133 H 580.416 4.14391 -0.483358 0
M  V30 6134 H 579.046 3.22241 0.18996 0
M  V30 6135 H 578.098 3.08464 -2.22608 0
M  V30 6136 H 579.41 4.16922 -2.73821 0
M  V30 6137 H 578.564 5.94832 -1.19414 0
M  V30 6138 H 577.303 4.84244 -0.579568 0
M  V30 6139 H 576.308 4.68396 -2.87898 0
M  V30 6140 H 577.533 5.82429 -3.49219 0
M  V30 6141 H 575.479 6.42381 -1.32974 0
M  V30 6142 H 575.396 6.94806 -2.97961 0
M  V30 6143 H 576.664 7.54662 -1.95206 0
M  V30 6144 N 580.893 1.08022 1.14757 0
M  V30 6145 C 581.856 0.71048 2.1791 0
M  V30 6146 C 582.856 -0.252731 1.58801 0
M  V30 6147 O 584.046 -0.0327915 1.74169 0
M  V30 6148 C 581.178 0.0483203 3.40866 0
M  V30 6149 H 582.371 1.62384 2.52134 0
M  V30 6150 H 579.924 0.877595 1.29337 0
M  V30 6151 H 580.659 -0.876959 3.12218 0
M  V30 6152 H 580.444 0.741189 3.85031 0
M  V30 6153 H 581.934 -0.195471 4.17142 0
M  V30 6154 N 582.371 -1.3172 0.865308 0
M  V30 6155 C 583.318 -2.2863 0.315736 0
M  V30 6156 C 584.288 -1.55524 -0.583213 0
M  V30 6157 O 585.473 -1.83694 -0.51585 0
M  V30 6158 C 582.613 -3.41735 -0.480773 0
M  V30 6159 C 581.726 -4.297 0.445167 0
M  V30 6160 C 580.861 -5.29944 -0.365012 0
M  V30 6161 C 579.9 -6.09554 0.557651 0
M  V30 6162 N 579.037 -7.01768 -0.215994 0
M  V30 6163 H 583.877 -2.75026 1.14736 0
M  V30 6164 H 581.414 -1.35302 0.577209 0
M  V30 6165 H 583.372 -4.06045 -0.958306 0
M  V30 6166 H 582.002 -2.96461 -1.27714 0
M  V30 6167 H 581.054 -3.65875 1.04113 0
M  V30 6168 H 582.366 -4.85295 1.15284 0
M  V30 6169 H 581.52 -5.99908 -0.905255 0
M  V30 6170 H 580.259 -4.74994 -1.106 0
M  V30 6171 H 579.264 -5.38485 1.10969 0
M  V30 6172 H 580.489 -6.66591 1.29742 0
M  V30 6173 H 578.435 -6.49232 -0.939878 0
M  V30 6174 H 578.352 -7.54762 0.432431 0
M  V30 6175 H 579.62 -7.76002 -0.737618 0
M  V30 6176 N 583.85 -0.624285 -1.44708 0
M  V30 6177 C 584.798 0.0969952 -2.32398 0
M  V30 6178 C 585.792 0.842762 -1.46949 0
M  V30 6179 O 586.998 0.756436 -1.63334 0
M  V30 6180 H 583.373 0.0501306 -0.750327 0
M  V30 6181 H 585.344 -0.660767 -2.90992 0
M  V30 6182 C 584.093 1.06967 -3.30837 0
M  V30 6183 H 583.416 0.505242 -3.96595 0
M  V30 6184 H 584.856 1.54397 -3.94889 0
M  V30 6185 C 583.315 2.15153 -2.5925 0
M  V30 6186 O 583.845 3.23139 -2.3863 0
M  V30 6187 N 582.051 1.90898 -2.19103 0
M  V30 6188 H 581.598 1.03086 -2.36074 0
M  V30 6189 H 581.556 2.63485 -1.71531 0
M  V30 6190 N 585.328 1.53329 -0.364422 0
M  V30 6191 C 586.739 1.86345 0.115039 0
M  V30 6192 C 587.09 1.28505 1.4826 0
M  V30 6193 O 586.215 0.606639 2.07723 0
M  V30 6194 C 586.81 3.38114 0.215522 0
M  V30 6195 C 585.369 3.70932 0.639237 0
M  V30 6196 C 584.516 2.76471 -0.214261 0
M  V30 6197 H 587.467 1.47593 -0.583258 0
M  V30 6198 H 587.488 3.66031 1.0393 0
M  V30 6199 H 587 3.80182 -0.779948 0
M  V30 6200 H 585.101 3.3442 1.64298 0
M  V30 6201 H 585.214 4.77302 0.41465 0
M  V30 6202 H 583.578 2.52724 0.316678 0
M  V30 6203 H 584.361 3.21373 -1.20725 0
M  V30 6204 N 586.806 0.0935595 1.57322 0
M  V30 6205 C 588.052 -0.565234 1.95388 0
M  V30 6206 C 588.407 -1.65888 0.974632 0
M  V30 6207 O 587.7 -1.916 0.000376385 0
M  V30 6208 C 587.894 -1.16692 3.37813 0
M  V30 6209 C 587.723 -0.133091 4.49503 0
M  V30 6210 C 586.493 0.289884 5.04468 0
M  V30 6211 C 588.691 0.638141 5.10326 0
M  V30 6212 N 586.673 1.31214 5.99713 0
M  V30 6213 C 588.044 1.51227 6.01274 0
M  V30 6214 C 590.099 0.691827 4.9307 0
M  V30 6215 C 588.802 2.43536 6.76818 0
M  V30 6216 C 590.828 1.60251 5.69274 0
M  V30 6217 C 590.19 2.46427 6.59889 0
M  V30 6218 H 586.289 -0.177212 0.761656 0
M  V30 6219 H 588.873 0.175769 1.93905 0
M  V30 6220 H 587.044 -1.87775 3.39993 0
M  V30 6221 H 588.776 -1.78795 3.63063 0
M  V30 6222 H 585.531 -0.0975541 4.735 0
M  V30 6223 H 585.955 1.82143 6.52038 0
M  V30 6224 H 590.597 0.0397431 4.22781 0
M  V30 6225 H 588.315 3.0977 7.4637 0
M  V30 6226 H 591.901 1.64917 5.57937 0
M  V30 6227 H 590.781 3.15751 7.17824 0
M  V30 6228 N 588.284 -1.56567 -0.180126 0
M  V30 6229 C 589.695 -1.7126 -0.743422 0
M  V30 6230 C 590.046 -0.70263 -1.83187 0
M  V30 6231 O 589.171 0.137856 -2.1596 0
M  V30 6232 C 589.766 -3.10512 -1.35528 0
M  V30 6233 C 588.325 -3.26919 -1.8655 0
M  V30 6234 C 587.472 -2.67213 -0.741099 0
M  V30 6235 H 590.423 -1.58636 0.0451543 0
M  V30 6236 H 590.444 -3.08673 -2.22489 0
M  V30 6237 H 589.956 -3.83997 -0.562862 0
M  V30 6238 H 588.057 -2.58376 -2.68464 0
M  V30 6239 H 588.17 -4.34574 -2.01699 0
M  V30 6240 H 586.534 -2.26788 -1.15927 0
M  V30 6241 H 587.317 -3.43277 0.0393291 0
M  V30 6242 N 589.762 0.448376 -1.51087 0
M  V30 6243 C 590.71 1.56407 -1.72161 0
M  V30 6244 C 591.704 1.58878 -0.587721 0
M  V30 6245 O 592.91 1.62755 -0.768822 0
M  V30 6246 H 589.285 0.519423 -0.543786 0
M  V30 6247 H 591.256 1.35803 -2.65707 0
M  V30 6248 C 590.005 2.94163 -1.85373 0
M  V30 6249 H 589.328 2.9299 -2.72024 0
M  V30 6250 H 590.768 3.71625 -2.04135 0
M  V30 6251 C 589.227 3.31317 -0.610803 0
M  V30 6252 O 589.757 4.00985 0.239636 0
M  V30 6253 N 587.963 2.86966 -0.458127 0
M  V30 6254 H 587.51 2.30443 -1.15124 0
M  V30 6255 H 587.468 3.12188 0.372289 0
M  V30 6256 N 591.24 1.41047 0.703093 0
M  V30 6257 C 592.486 1.40207 1.46526 0
M  V30 6258 C 592.819 0.00847763 1.94198 0
M  V30 6259 O 592.094 -0.962437 1.69019 0
M  V30 6260 C 592.377 2.40238 2.6825 0
M  V30 6261 C 592.23 3.88674 2.26391 0
M  V30 6262 C 593.549 2.37627 3.70434 0
M  V30 6263 H 590.668 0.510594 0.531472 0
M  V30 6264 H 593.31 1.72271 0.801422 0
M  V30 6265 H 591.46 2.13026 3.24888 0
M  V30 6266 H 593.132 4.2676 1.75138 0
M  V30 6267 H 591.375 4.03903 1.58255 0
M  V30 6268 H 592.046 4.542 3.13698 0
M  V30 6269 H 594.522 2.61759 3.23452 0
M  V30 6270 H 593.398 3.09645 4.53223 0
M  V30 6271 H 593.659 1.39223 4.19606 0
M  V30 6272 N 592.718 -0.936591 1.26751 0
M  V30 6273 C 593.995 -1.66094 1.03306 0
M  V30 6274 C 594.375 -2.06568 -0.435058 0
M  V30 6275 O 593.723 -1.79305 -1.41641 0
M  V30 6276 C 593.933 -2.86969 1.98619 0
M  V30 6277 C 595.281 -3.58516 2.27489 0
M  V30 6278 O 596.305 -2.97082 1.96522 0
M  V30 6279 O 595.164 -4.69181 2.80235 0
M  V30 6280 H 592.258 -0.727568 0.393158 0
M  V30 6281 H 594.804 -0.987914 1.3798 0
M  V30 6282 H 593.576 -2.53985 2.9767 0
M  V30 6283 H 593.199 -3.61996 1.64454 0
M  V30 6284 N 594.196 -1.08629 -1.14182 0
M  V30 6285 C 595.159 -0.722027 -2.1753 0
M  V30 6286 C 596.159 0.244305 -1.58933 0
M  V30 6287 O 597.349 0.0235545 -1.74184 0
M  V30 6288 C 594.481 -0.0663966 -3.40835 0
M  V30 6289 H 595.674 -1.63719 -2.51269 0
M  V30 6290 H 593.227 -0.884442 -1.28869 0
M  V30 6291 H 593.962 0.860389 -3.12678 0
M  V30 6292 H 593.747 -0.761598 -3.84632 0
M  V30 6293 H 595.237 0.173346 -4.1724 0
M  V30 6294 N 595.674 1.31259 -0.872281 0
M  V30 6295 C 596.624 2.26 -0.301295 0
M  V30 6296 C 597.608 1.50729 0.562991 0
M  V30 6297 O 598.8 1.72198 0.40949 0
M  V30 6298 C 595.929 3.39724 0.494227 0
M  V30 6299 C 595.015 4.22363 -0.383432 0
M  V30 6300 N 595.406 4.83724 -1.47799 0
M  V30 6301 C 593.704 4.45652 -0.176278 0
M  V30 6302 C 594.405 5.45523 -2.01939 0
M  V30 6303 N 593.381 5.27428 -1.31608 0
M  V30 6304 H 597.183 2.70981 -1.13782 0
M  V30 6305 H 594.697 1.45552 -0.720294 0
M  V30 6306 H 596.694 4.06626 0.919828 0
M  V30 6307 H 595.354 2.96286 1.32834 0
M  V30 6308 H 596.365 4.83313 -1.8609 0
M  V30 6309 H 593.042 4.12845 0.621698 0
M  V30 6310 H 594.432 6.04268 -2.93786 0
M  V30 6311 N 597.152 0.631951 1.44375 0
M  V30 6312 C 598.377 0.142146 2.06912 0
M  V30 6313 C 598.802 -1.17456 1.4692 0
M  V30 6314 O 598.16 -1.72074 0.570975 0
M  V30 6315 C 598.208 0.0417952 3.60576 0
M  V30 6316 O 597.312 -1.00194 4.00044 0
M  V30 6317 H 596.653 0.0851491 0.658518 0
M  V30 6318 H 599.183 0.868863 1.85235 0
M  V30 6319 H 599.193 -0.148517 4.0773 0
M  V30 6320 H 597.868 1.0031 4.03622 0
M  V30 6321 H 596.445 -0.786131 3.64519 0
M  V30 6322 N 598.631 -1.53133 0.372548 0
M  V30 6323 C 599.879 -2.00958 -0.214534 0
M  V30 6324 C 600.2 -1.26135 -1.48711 0
M  V30 6325 O 599.47 -0.376597 -1.92246 0
M  V30 6326 H 598.05 -0.742456 -0.0822664 0
M  V30 6327 H 600.712 -1.88367 0.500385 0
M  V30 6328 H 599.808 -3.09031 -0.436605 0
M  V30 6329 N 600.109 -0.101901 -1.5727 0
M  V30 6330 C 601.355 0.561027 -1.94885 0
M  V30 6331 C 601.688 1.6741 -0.984258 0
M  V30 6332 O 600.963 1.94491 -0.0184767 0
M  V30 6333 C 601.246 1.10982 -3.42571 0
M  V30 6334 C 601.099 0.00133418 -4.498 0
M  V30 6335 C 602.418 2.00608 -3.9172 0
M  V30 6336 H 599.537 0.202467 -0.708644 0
M  V30 6337 H 602.179 -0.173992 -1.89202 0
M  V30 6338 H 600.329 1.73621 -3.47546 0
M  V30 6339 H 602.001 -0.63322 -4.56933 0
M  V30 6340 H 600.244 -0.664143 -4.28686 0
M  V30 6341 H 600.915 0.426253 -5.50352 0
M  V30 6342 H 603.391 1.47864 -3.88941 0
M  V30 6343 H 602.267 2.3593 -4.95609 0
M  V30 6344 H 602.528 2.92608 -3.3141 0
M  V30 6345 N 601.587 1.56661 0.17182 0
M  V30 6346 C 602.517 1.99401 1.21498 0
M  V30 6347 C 603.498 0.869516 1.46197 0
M  V30 6348 O 604.683 1.13556 1.57539 0
M  V30 6349 C 601.813 2.35346 2.55401 0
M  V30 6350 C 600.767 3.5075 2.45272 0
M  V30 6351 C 600.093 3.72437 3.8366 0
M  V30 6352 C 601.393 4.84216 1.95787 0
M  V30 6353 H 603.087 2.86792 0.859699 0
M  V30 6354 H 600.633 1.37977 0.412103 0
M  V30 6355 H 602.586 2.63843 3.2858 0
M  V30 6356 H 601.31 1.44864 2.92715 0
M  V30 6357 H 599.969 3.2238 1.74547 0
M  V30 6358 H 599.617 2.79246 4.18367 0
M  V30 6359 H 599.317 4.50087 3.77751 0
M  V30 6360 H 600.841 4.03334 4.58426 0
M  V30 6361 H 602.255 5.11592 2.5874 0
M  V30 6362 H 600.652 5.65498 2.00827 0
M  V30 6363 H 601.722 4.76243 0.912159 0
M  V30 6364 N 603.065 -0.440357 1.51323 0
M  V30 6365 C 603.995 -1.54174 1.75364 0
M  V30 6366 C 604.976 -1.59039 0.603375 0
M  V30 6367 O 606.161 -1.74815 0.845774 0
M  V30 6368 C 603.291 -2.92277 1.87593 0
M  V30 6369 C 602.245 -3.02274 3.03009 0
M  V30 6370 C 601.571 -4.42327 3.00418 0
M  V30 6371 C 602.871 -2.76634 4.43024 0
M  V30 6372 H 604.565 -1.34307 2.67585 0
M  V30 6373 H 602.111 -0.644678 1.28763 0
M  V30 6374 H 604.064 -3.69284 2.02995 0
M  V30 6375 H 602.788 -3.13369 0.920179 0
M  V30 6376 H 601.447 -2.27706 2.87307 0
M  V30 6377 H 601.095 -4.60382 2.02626 0
M  V30 6378 H 600.795 -4.49946 3.77918 0
M  V30 6379 H 602.319 -5.21312 3.17909 0
M  V30 6380 H 603.733 -3.43376 4.59093 0
M  V30 6381 H 602.13 -2.95666 5.22208 0
M  V30 6382 H 603.2 -1.72262 4.5327 0
M  V30 6383 N 604.543 -1.41418 -0.695603 0
M  V30 6384 C 605.475 -1.39195 -1.82092 0
M  V30 6385 C 606.488 -0.294132 -1.60121 0
M  V30 6386 O 607.677 -0.555854 -1.69625 0
M  V30 6387 C 604.777 -1.14828 -3.18854 0
M  V30 6388 C 603.95 -2.36649 -3.67853 0
M  V30 6389 C 603.009 -2.08139 -4.83285 0
M  V30 6390 O 602.035 -2.81177 -4.94902 0
M  V30 6391 N 603.237 -1.07162 -5.70523 0
M  V30 6392 H 606.002 -2.36185 -1.84491 0
M  V30 6393 H 603.563 -1.3603 -0.877923 0
M  V30 6394 H 605.555 -0.937075 -3.93702 0
M  V30 6395 H 604.125 -0.264358 -3.1148 0
M  V30 6396 H 603.345 -2.73472 -2.83913 0
M  V30 6397 H 604.633 -3.17816 -3.97329 0
M  V30 6398 H 604.031 -0.467124 -5.63768 0
M  V30 6399 H 602.588 -0.920311 -6.4527 0
M  V30 6400 N 606.021 0.929856 -1.27246 0
M  V30 6401 C 607.251 1.70895 -1.16096 0
M  V30 6402 C 607.659 1.87039 0.285122 0
M  V30 6403 O 607.002 1.38557 1.20614 0
M  V30 6404 C 607.064 3.12919 -1.7698 0
M  V30 6405 C 606.728 3.2012 -3.26148 0
M  V30 6406 C 607.725 3.02533 -4.22812 0
M  V30 6407 C 605.41 3.43148 -3.66817 0
M  V30 6408 C 607.404 3.07861 -5.58122 0
M  V30 6409 C 605.091 3.48109 -5.02258 0
M  V30 6410 C 606.089 3.30483 -5.97721 0
M  V30 6411 O 605.777 3.35175 -7.30694 0
M  V30 6412 H 605.509 0.54152 -0.404639 0
M  V30 6413 H 608.063 1.17342 -1.68582 0
M  V30 6414 H 606.293 3.67945 -1.18969 0
M  V30 6415 H 607.982 3.72787 -1.60576 0
M  V30 6416 H 608.748 2.84586 -3.92728 0
M  V30 6417 H 604.627 3.55918 -2.9299 0
M  V30 6418 H 608.171 2.94021 -6.32612 0
M  V30 6419 H 604.068 3.65579 -5.31998 0
M  V30 6420 H 604.836 3.51644 -7.39114 0
M  V30 6421 N 607.499 1.09233 1.13605 0
M  V30 6422 C 608.729 0.847677 1.88409 0
M  V30 6423 C 609.137 -0.604524 1.79282 0
M  V30 6424 O 608.48 -1.42773 1.15592 0
M  V30 6425 C 608.542 1.20153 3.38827 0
M  V30 6426 C 608.206 2.65824 3.71735 0
M  V30 6427 C 609.203 3.64072 3.71143 0
M  V30 6428 C 606.888 3.01894 4.01454 0
M  V30 6429 C 608.882 4.96419 3.99808 0
M  V30 6430 C 606.569 4.34433 4.29781 0
M  V30 6431 C 607.567 5.31505 4.28942 0
M  V30 6432 O 607.255 6.61659 4.56576 0
M  V30 6433 H 606.987 0.304813 0.603378 0
M  V30 6434 H 609.541 1.4573 1.44748 0
M  V30 6435 H 607.771 0.534946 3.82982 0
M  V30 6436 H 609.46 0.936349 3.94952 0
M  V30 6437 H 610.226 3.37549 3.4826 0
M  V30 6438 H 606.105 2.26971 4.01255 0
M  V30 6439 H 609.649 5.7218 3.99069 0
M  V30 6440 H 605.546 4.607 4.52135 0
M  V30 6441 H 606.314 6.67102 4.74254 0
M  V30 6442 N 608.977 -1.30795 0.87923 0
M  V30 6443 C 610.225 -1.95974 0.493809 0
M  V30 6444 C 610.546 -1.69787 -0.959021 0
M  V30 6445 O 609.816 -1.01832 -1.67353 0
M  V30 6446 H 608.396 -0.725083 0.179622 0
M  V30 6447 H 611.058 -1.59432 1.12105 0
M  V30 6448 H 610.154 -3.05058 0.659263 0
M  V30 6449 N 610.455 -0.639598 -1.44038 0
M  V30 6450 C 611.388 0.109736 -2.27936 0
M  V30 6451 C 612.366 0.843095 -1.39035 0
M  V30 6452 O 613.55 0.845456 -1.68476 0
M  V30 6453 C 610.677 1.16173 -3.18153 0
M  V30 6454 C 609.723 0.527954 -4.2322 0
M  V30 6455 S 610.556 -0.688318 -5.31058 0
M  V30 6456 C 611.712 0.363481 -6.24844 0
M  V30 6457 H 611.945 -0.601986 -2.91142 0
M  V30 6458 H 609.478 -0.42802 -1.48349 0
M  V30 6459 H 611.436 1.76372 -3.7068 0
M  V30 6460 H 610.097 1.84569 -2.54151 0
M  V30 6461 H 609.29 1.32054 -4.86393 0
M  V30 6462 H 608.892 0.000396444 -3.74 0
M  V30 6463 H 611.184 1.23362 -6.66174 0
M  V30 6464 H 612.127 -0.23288 -7.07717 0
M  V30 6465 H 612.535 0.693179 -5.60228 0
M  V30 6466 N 611.933 1.52934 -0.380664 0
M  V30 6467 C 613.161 2.05886 0.204599 0
M  V30 6468 C 613.576 1.25305 1.41223 0
M  V30 6469 O 612.933 0.297504 1.80059 0
M  V30 6470 C 612.984 3.56764 0.583249 0
M  V30 6471 O 612.705 4.34292 -0.576398 0
M  V30 6472 C 614.206 4.2603 1.2253 0
M  V30 6473 H 611.426 0.670193 0.0328991 0
M  V30 6474 H 613.97 1.97148 -0.543397 0
M  V30 6475 H 612.125 3.65603 1.28115 0
M  V30 6476 H 612.539 5.23819 -0.267119 0
M  V30 6477 H 614.013 5.32868 1.44068 0
M  V30 6478 H 614.49 3.80698 2.19011 0
M  V30 6479 H 615.096 4.21485 0.568407 0
M  V30 6480 N 613.412 0.11024 1.57214 0
M  V30 6481 C 614.322 -0.857077 2.18383 0
M  V30 6482 C 615.338 -1.29915 1.1575 0
M  V30 6483 O 616.514 -1.36394 1.48184 0
M  V30 6484 C 613.579 -2.09264 2.76423 0
M  V30 6485 C 612.64 -1.70333 3.94063 0
M  V30 6486 C 611.873 -2.87999 4.49324 0
M  V30 6487 O 612.096 -4.0317 4.03497 0
M  V30 6488 O 611.03 -2.6559 5.40135 0
M  V30 6489 H 614.856 -0.366561 3.0148 0
M  V30 6490 H 612.441 -0.114914 1.48957 0
M  V30 6491 H 614.323 -2.81644 3.13456 0
M  V30 6492 H 612.998 -2.57339 1.96363 0
M  V30 6493 H 611.905 -0.950864 3.61814 0
M  V30 6494 H 613.238 -1.27007 4.75531 0
M  V30 6495 N 614.89 -1.56749 -0.16351 0
M  V30 6496 C 615.823 -1.9213 -1.23132 0
M  V30 6497 C 616.801 -0.785047 -1.42393 0
M  V30 6498 O 617.985 -1.0391 -1.57273 0
M  V30 6499 C 615.112 -2.17901 -2.59301 0
M  V30 6500 C 614.158 -3.40576 -2.5673 0
M  V30 6501 S 614.991 -4.94689 -2.05045 0
M  V30 6502 C 616.147 -5.23564 -3.42975 0
M  V30 6503 H 616.38 -2.824 -0.929383 0
M  V30 6504 H 613.913 -1.4994 -0.368418 0
M  V30 6505 H 615.871 -2.33429 -3.3767 0
M  V30 6506 H 614.532 -1.28324 -2.86691 0
M  V30 6507 H 613.725 -3.55833 -3.5693 0
M  V30 6508 H 613.327 -3.24204 -1.86462 0
M  V30 6509 H 615.619 -5.16019 -4.3901 0
M  V30 6510 H 616.562 -6.25134 -3.32586 0
M  V30 6511 H 616.97 -4.51113 -3.39348 0
M  V30 6512 N 616.368 0.432326 -1.51554 0
M  V30 6513 C 617.316 1.54572 -1.73811 0
M  V30 6514 C 618.31 1.58246 -0.604539 0
M  V30 6515 O 619.516 1.6193 -0.786041 0
M  V30 6516 H 615.891 0.513626 -0.549265 0
M  V30 6517 H 617.862 1.32977 -2.67132 0
M  V30 6518 C 616.611 2.92181 -1.88483 0
M  V30 6519 H 615.934 2.90088 -2.75116 0
M  V30 6520 H 617.374 3.69439 -2.08065 0
M  V30 6521 C 615.833 3.3065 -0.645909 0
M  V30 6522 O 616.363 4.01216 0.197093 0
M  V30 6523 N 614.569 2.86464 -0.488538 0
M  V30 6524 H 614.116 2.29209 -1.17562 0
M  V30 6525 H 614.074 3.12565 0.339156 0
M  V30 6526 N 617.846 1.41785 0.688094 0
M  V30 6527 C 619.076 1.44705 1.47459 0
M  V30 6528 C 619.484 0.052916 1.89126 0
M  V30 6529 O 618.827 -0.939781 1.57841 0
M  V30 6530 C 618.889 2.29935 2.76352 0
M  V30 6531 C 618.553 3.77996 2.56843 0
M  V30 6532 C 619.55 4.69976 2.22304 0
M  V30 6533 C 617.235 4.2212 2.7225 0
M  V30 6534 C 619.229 6.04068 2.03421 0
M  V30 6535 C 616.916 5.56275 2.52985 0
M  V30 6536 C 617.914 6.47065 2.18621 0
M  V30 6537 O 617.602 7.78744 1.9953 0
M  V30 6538 H 617.334 0.494703 0.460701 0
M  V30 6539 H 619.888 1.86802 0.854057 0
M  V30 6540 H 618.118 1.82664 3.40839 0
M  V30 6541 H 619.807 2.24467 3.38186 0
M  V30 6542 H 620.573 4.37175 2.10008 0
M  V30 6543 H 616.452 3.51752 2.97979 0
M  V30 6544 H 619.996 6.74897 1.76523 0
M  V30 6545 H 615.893 5.88653 2.64873 0
M  V30 6546 H 616.661 7.89966 2.14234 0
M  V30 6547 N 619.324 -0.923095 1.27737 0
M  V30 6548 C 620.554 -1.70277 1.17001 0
M  V30 6549 C 620.962 -1.87188 -0.275199 0
M  V30 6550 O 620.305 -1.39195 -1.19877 0
M  V30 6551 C 620.367 -3.11976 1.78637 0
M  V30 6552 C 620.031 -3.18386 3.27841 0
M  V30 6553 C 621.028 -3.00287 4.2441 0
M  V30 6554 C 618.713 -3.41198 3.68632 0
M  V30 6555 C 620.707 -3.04896 5.59747 0
M  V30 6556 C 618.394 -3.4544 5.04097 0
M  V30 6557 C 619.392 -3.27309 5.99465 0
M  V30 6558 O 619.08 -3.31295 7.32461 0
M  V30 6559 H 618.812 -0.539366 0.407505 0
M  V30 6560 H 621.366 -1.16446 1.69202 0
M  V30 6561 H 619.596 -3.67308 1.20919 0
M  V30 6562 H 621.285 -3.7193 1.6255 0
M  V30 6563 H 622.051 -2.825 3.94232 0
M  V30 6564 H 617.93 -3.54359 2.94873 0
M  V30 6565 H 621.474 -2.90662 6.34162 0
M  V30 6566 H 617.371 -3.62753 5.33929 0
M  V30 6567 H 618.139 -3.47719 7.40968 0
M  V30 6568 N 620.802 -1.09834 -1.13024 0
M  V30 6569 C 622.03 -0.858902 -1.8823 0
M  V30 6570 C 622.445 0.590164 -1.79339 0
M  V30 6571 O 621.802 1.4065 -1.16292 0
M  V30 6572 C 621.853 -1.29066 -3.37675 0
M  V30 6573 O 621.574 -2.6829 -3.46341 0
M  V30 6574 C 623.075 -1.08421 -4.29837 0
M  V30 6575 H 620.295 -0.308713 -0.595766 0
M  V30 6576 H 622.839 -1.4614 -1.4305 0
M  V30 6577 H 620.994 -0.731961 -3.80422 0
M  V30 6578 H 621.408 -2.86598 -4.39274 0
M  V30 6579 H 622.882 -1.43553 -5.33007 0
M  V30 6580 H 623.359 -0.0223315 -4.39194 0
M  V30 6581 H 623.965 -1.62907 -3.92863 0
M  V30 6582 N 622.28 1.30327 -0.886154 0
M  V30 6583 C 623.526 1.96388 -0.505941 0
M  V30 6584 C 623.859 1.69784 0.942712 0
M  V30 6585 O 623.134 1.00322 1.6663 0
M  V30 6586 C 623.417 3.51488 -0.782826 0
M  V30 6587 C 623.27 3.87603 -2.28219 0
M  V30 6588 C 624.589 4.39331 -0.260128 0
M  V30 6589 H 621.708 0.713327 -0.185292 0
M  V30 6590 H 624.35 1.54178 -1.11036 0
M  V30 6591 H 622.5 3.87572 -0.268399 0
M  V30 6592 H 624.172 3.61537 -2.86512 0
M  V30 6593 H 622.415 3.3563 -2.74837 0
M  V30 6594 H 623.086 4.95806 -2.42653 0
M  V30 6595 H 625.562 4.10162 -0.700444 0
M  V30 6596 H 624.438 5.46769 -0.483179 0
M  V30 6597 H 624.699 4.34072 0.838674 0
M  V30 6598 N 623.758 0.647228 1.43697 0
M  V30 6599 C 624.688 -0.0345631 2.33474 0
M  V30 6600 C 625.669 -0.818193 1.4913 0
M  V30 6601 O 626.854 -0.780867 1.77809 0
M  V30 6602 C 623.984 -1.00576 3.32418 0
M  V30 6603 C 622.938 -0.33266 4.26705 0
M  V30 6604 C 622.264 -1.41489 5.1564 0
M  V30 6605 C 623.564 0.771204 5.16575 0
M  V30 6606 H 625.258 0.715163 2.90733 0
M  V30 6607 H 622.804 0.345364 1.39797 0
M  V30 6608 H 624.757 -1.49159 3.94119 0
M  V30 6609 H 623.481 -1.78657 2.73403 0
M  V30 6610 H 622.14 0.13267 3.6636 0
M  V30 6611 H 621.788 -2.18698 4.52968 0
M  V30 6612 H 621.488 -0.969799 5.79542 0
M  V30 6613 H 623.012 -1.9022 5.80214 0
M  V30 6614 H 624.426 0.36779 5.72119 0
M  V30 6615 H 622.823 1.1404 5.89165 0
M  V30 6616 H 623.893 1.63169 4.56622 0
M  V30 6617 N 625.236 -1.5273 0.388769 0
M  V30 6618 C 626.483 -2.01573 -0.19359 0
M  V30 6619 C 626.811 -1.27525 -1.46859 0
M  V30 6620 O 626.066 -0.363926 -1.92286 0
M  V30 6621 C 626.365 -3.53765 -0.508445 0
M  V30 6622 C 626.031 -4.4582 0.674947 0
M  V30 6623 C 624.693 -4.70703 0.999596 0
M  V30 6624 C 627.045 -5.00138 1.46666 0
M  V30 6625 C 624.373 -5.47155 2.11751 0
M  V30 6626 C 626.725 -5.77812 2.57518 0
M  V30 6627 C 625.389 -6.00975 2.90492 0
M  V30 6628 H 624.659 -0.737606 -0.0708397 0
M  V30 6629 H 627.306 -1.84134 0.526006 0
M  V30 6630 H 625.611 -3.69274 -1.30936 0
M  V30 6631 H 627.308 -3.8905 -0.971664 0
M  V30 6632 H 623.898 -4.26616 0.411906 0
M  V30 6633 H 628.082 -4.8084 1.22909 0
M  V30 6634 H 623.338 -5.63314 2.3767 0
M  V30 6635 H 627.512 -6.18904 3.19267 0
M  V30 6636 H 625.139 -6.59998 3.77236 0
M  V30 6637 N 626.714 -0.118576 -1.57153 0
M  V30 6638 C 627.962 0.538461 -1.94795 0
M  V30 6639 C 628.283 1.67243 -1.00274 0
M  V30 6640 O 627.553 1.95811 -0.0589692 0
M  V30 6641 H 626.133 0.201904 -0.719197 0
M  V30 6642 H 628.795 -0.187418 -1.93997 0
M  V30 6643 H 627.891 0.933315 -2.97818 0
M  V30 6644 N 628.193 1.56834 0.155195 0
M  V30 6645 C 629.439 1.83169 0.870467 0
M  V30 6646 C 629.772 0.698929 1.81187 0
M  V30 6647 O 629.047 -0.298035 1.92203 0
M  V30 6648 C 629.33 3.19965 1.65211 0
M  V30 6649 C 629.183 4.43792 0.732744 0
M  V30 6650 C 630.502 3.53885 2.61636 0
M  V30 6651 H 627.621 0.666288 0.315006 0
M  V30 6652 H 630.263 1.89513 0.135988 0
M  V30 6653 H 628.413 3.14687 2.27825 0
M  V30 6654 H 630.085 4.61148 0.118236 0
M  V30 6655 H 628.328 4.3378 0.0417906 0
M  V30 6656 H 628.999 5.36095 1.31552 0
M  V30 6657 H 631.475 3.5972 2.09143 0
M  V30 6658 H 630.351 4.50648 3.13381 0
M  V30 6659 H 630.612 2.79418 3.42605 0
M  V30 6660 N 629.671 -0.424282 1.51781 0
M  V30 6661 C 630.896 -1.19928 1.6921 0
M  V30 6662 C 631.321 -1.8392 0.394355 0
M  V30 6663 O 630.679 -1.69371 -0.646778 0
M  V30 6664 C 630.727 -2.24937 2.81843 0
M  V30 6665 O 629.831 -3.3073 2.46356 0
M  V30 6666 H 629.172 -0.35078 0.563781 0
M  V30 6667 H 631.702 -0.499401 1.98412 0
M  V30 6668 H 631.712 -2.69512 3.06312 0
M  V30 6669 H 630.387 -1.77742 3.76006 0
M  V30 6670 H 628.964 -2.9154 2.32505 0
M  V30 6671 N 631.149 -1.42148 -0.680565 0
M  V30 6672 C 632.565 -1.24947 -0.992995 0
M  V30 6673 C 632.765 -0.149527 -2.00944 0
M  V30 6674 O 631.821 0.481145 -2.47873 0
M  V30 6675 C 633.134 -2.60426 -1.5033 0
M  V30 6676 C 634.682 -2.67733 -1.62137 0
M  V30 6677 C 635.157 -4.03564 -2.16565 0
M  V30 6678 N 636.648 -4.05488 -2.23905 0
M  V30 6679 C 637.383 -5.07401 -2.67081 0
M  V30 6680 N 636.879 -6.19698 -3.09751 0
M  V30 6681 N 638.672 -4.94758 -2.66778 0
M  V30 6682 H 630.823 -2.12399 -0.0074788 0
M  V30 6683 H 633.086 -0.94571 -0.0658529 0
M  V30 6684 H 632.792 -3.41743 -0.830947 0
M  V30 6685 H 632.666 -2.83949 -2.483 0
M  V30 6686 H 635.053 -1.86765 -2.2848 0
M  V30 6687 H 635.134 -2.48004 -0.626713 0
M  V30 6688 H 634.778 -4.84987 -1.50833 0
M  V30 6689 H 634.708 -4.20641 -3.1681 0
M  V30 6690 H 637.199 -3.24415 -1.93812 0
M  V30 6691 H 637.512 -6.93318 -3.41365 0
M  V30 6692 H 635.857 -6.23212 -3.07623 0
M  V30 6693 H 639.048 -4.06105 -2.32801 0
M  V30 6694 H 639.221 -5.74317 -3.00107 0
M  V30 6695 N 632.627 0.916307 -1.28225 0
M  V30 6696 C 633.59 1.99996 -1.11957 0
M  V30 6697 C 634.59 1.60688 -0.0600152 0
M  V30 6698 O 635.78 1.71499 -0.30558 0
M  V30 6699 C 632.912 3.33458 -0.708411 0
M  V30 6700 H 634.105 2.15858 -2.08196 0
M  V30 6701 H 631.658 1.09863 -1.11175 0
M  V30 6702 H 632.393 3.23297 0.254859 0
M  V30 6703 H 632.178 3.63349 -1.47377 0
M  V30 6704 H 633.668 4.13014 -0.617164 0
M  V30 6705 N 634.105 1.10431 1.1244 0
M  V30 6706 C 635.035 0.775143 2.20258 0
M  V30 6707 C 636.016 -0.25186 1.68225 0
M  V30 6708 O 637.201 -0.117637 1.93843 0
M  V30 6709 C 634.331 0.206133 3.46688 0
M  V30 6710 C 633.285 1.16382 4.11873 0
M  V30 6711 C 632.611 0.456014 5.32752 0
M  V30 6712 C 633.911 2.5104 4.58013 0
M  V30 6713 H 635.605 1.67665 2.4805 0
M  V30 6714 H 633.151 0.807595 1.19222 0
M  V30 6715 H 635.104 -0.036291 4.21384 0
M  V30 6716 H 633.828 -0.730614 3.18323 0
M  V30 6717 H 632.487 1.39169 3.39157 0
M  V30 6718 H 632.135 -0.485203 5.00654 0
M  V30 6719 H 631.835 1.09466 5.77314 0
M  V30 6720 H 633.359 0.222135 6.10196 0
M  V30 6721 H 634.773 2.32401 5.24083 0
M  V30 6722 H 633.17 3.10789 5.13352 0
M  V30 6723 H 634.24 3.11039 3.71998 0
M  V30 6724 N 635.583 -1.29855 0.893053 0
M  V30 6725 C 636.831 -1.9544 0.514566 0
M  V30 6726 C 637.152 -1.70795 -0.940959 0
M  V30 6727 O 636.422 -1.03601 -1.66264 0
M  V30 6728 H 635.002 -0.723137 0.187302 0
M  V30 6729 H 637.664 -1.58234 1.13789 0
M  V30 6730 H 636.76 -3.04341 0.691581 0
M  V30 6731 N 637.061 -0.65484 -1.43351 0
M  V30 6732 C 638.307 -0.169142 -2.02093 0
M  V30 6733 C 638.64 1.21431 -1.51553 0
M  V30 6734 O 637.915 1.81105 -0.709317 0
M  V30 6735 C 638.198 -0.181775 -3.59641 0
M  V30 6736 C 638.051 -1.59926 -4.20409 0
M  V30 6737 C 639.37 0.480945 -4.37464 0
M  V30 6738 H 636.489 -0.0629371 -0.734308 0
M  V30 6739 H 639.131 -0.835833 -1.70628 0
M  V30 6740 H 637.281 0.385918 -3.86578 0
M  V30 6741 H 638.953 -2.21766 -4.04497 0
M  V30 6742 H 637.196 -2.14605 -3.76998 0
M  V30 6743 H 637.867 -1.55994 -5.295 0
M  V30 6744 H 640.343 -0.00208273 -4.161 0
M  V30 6745 H 639.219 0.441384 -5.47122 0
M  V30 6746 H 639.48 1.55533 -4.13838 0
M  V30 6747 N 638.539 1.52521 -0.396863 0
M  V30 6748 C 639.469 2.29582 0.425941 0
M  V30 6749 C 640.45 1.33281 1.05689 0
M  V30 6750 O 641.635 1.62181 1.06823 0
M  V30 6751 C 638.765 3.10821 1.54943 0
M  V30 6752 C 637.719 4.15069 1.04413 0
M  V30 6753 C 637.045 4.84578 2.26028 0
M  V30 6754 C 638.345 5.22191 0.106767 0
M  V30 6755 H 640.039 2.98612 -0.217045 0
M  V30 6756 H 637.585 1.43611 -0.105826 0
M  V30 6757 H 639.538 3.63492 2.13193 0
M  V30 6758 H 638.262 2.39538 2.22011 0
M  V30 6759 H 636.921 3.63389 0.484118 0
M  V30 6760 H 636.569 4.09835 2.91623 0
M  V30 6761 H 636.269 5.55043 1.92876 0
M  V30 6762 H 637.793 5.40056 2.84906 0
M  V30 6763 H 639.207 5.70176 0.597685 0
M  V30 6764 H 637.604 5.99947 -0.135352 0
M  V30 6765 H 638.674 4.77531 -0.842134 0
M  V30 6766 N 640.017 0.126909 1.57088 0
M  V30 6767 C 640.98 -0.806097 2.14557 0
M  V30 6768 C 641.98 -1.18918 1.08236 0
M  V30 6769 O 643.17 -1.11339 1.33975 0
M  V30 6770 C 640.302 -2.09116 2.69227 0
M  V30 6771 H 641.495 -0.306522 2.98329 0
M  V30 6772 H 639.048 -0.122393 1.5582 0
M  V30 6773 H 639.783 -2.63486 1.89065 0
M  V30 6774 H 639.568 -1.82588 3.46993 0
M  V30 6775 H 641.058 -2.75794 3.13572 0
M  V30 6776 N 641.495 -1.56914 -0.146875 0
M  V30 6777 C 642.427 -1.94878 -1.20645 0
M  V30 6778 C 643.44 -0.844633 -1.39175 0
M  V30 6779 O 644.629 -1.12304 -1.38744 0
M  V30 6780 C 641.729 -2.20769 -2.57127 0
M  V30 6781 C 640.902 -3.52053 -2.59572 0
M  V30 6782 C 639.961 -3.66482 -3.77594 0
M  V30 6783 O 638.987 -4.38873 -3.62462 0
M  V30 6784 N 640.189 -3.03156 -4.95052 0
M  V30 6785 H 642.954 -2.86374 -0.883757 0
M  V30 6786 H 640.515 -1.58366 -0.336436 0
M  V30 6787 H 642.507 -2.27664 -3.34591 0
M  V30 6788 H 641.077 -1.35538 -2.81688 0
M  V30 6789 H 640.297 -3.56598 -1.68023 0
M  V30 6790 H 641.585 -4.38396 -2.58238 0
M  V30 6791 H 640.983 -2.44258 -5.10249 0
M  V30 6792 H 639.54 -3.15611 -5.70292 0
M  V30 6793 N 642.974 0.416227 -1.52004 0
M  V30 6794 C 643.904 1.51365 -1.77795 0
M  V30 6795 C 644.885 1.58059 -0.628601 0
M  V30 6796 O 646.07 1.73447 -0.873478 0
M  V30 6797 C 643.2 2.89256 -1.92219 0
M  V30 6798 C 642.154 2.97415 -3.0778 0
M  V30 6799 C 641.48 4.37492 -3.07417 0
M  V30 6800 C 642.78 2.69551 -4.47369 0
M  V30 6801 H 644.474 1.30033 -2.69688 0
M  V30 6802 H 642.02 0.624112 -1.29772 0
M  V30 6803 H 643.973 3.66008 -2.08845 0
M  V30 6804 H 642.697 3.11866 -0.969917 0
M  V30 6805 H 641.356 2.23107 -2.90893 0
M  V30 6806 H 641.004 4.571 -2.09925 0
M  V30 6807 H 640.704 4.43877 -3.85029 0
M  V30 6808 H 642.228 5.16188 -3.26162 0
M  V30 6809 H 643.642 3.36028 -4.64497 0
M  V30 6810 H 642.039 2.87321 -5.26846 0
M  V30 6811 H 643.109 1.65029 -4.55953 0
M  V30 6812 N 644.452 1.42507 0.673017 0
M  V30 6813 C 645.701 1.42364 1.42883 0
M  V30 6814 C 646.014 0.0441598 1.9555 0
M  V30 6815 O 647.22 -0.0798679 2.71382 0
M  V30 6816 C 645.676 2.5043 2.58482 0
M  V30 6817 C 645.284 3.94392 2.12506 0
M  V30 6818 C 647.028 2.59455 3.35981 0
M  V30 6819 C 644.935 4.93964 3.25198 0
M  V30 6820 H 643.865 0.52951 0.536782 0
M  V30 6821 H 646.516 1.68422 0.728448 0
M  V30 6822 H 644.898 2.1754 3.30896 0
M  V30 6823 H 646.072 4.36645 1.47233 0
M  V30 6824 H 644.387 3.89233 1.4794 0
M  V30 6825 H 646.984 3.31025 4.19912 0
M  V30 6826 H 647.327 1.63869 3.82691 0
M  V30 6827 H 647.86 2.91549 2.70637 0
M  V30 6828 H 644.599 5.91034 2.83477 0
M  V30 6829 H 644.119 4.56341 3.89247 0
M  V30 6830 H 645.798 5.15763 3.90637 0
M  V30 6831 N 645.93 -0.909495 1.28709 0
M  V30 6832 C 647.176 -1.66175 1.17293 0
M  V30 6833 C 647.531 -1.90426 -0.274891 0
M  V30 6834 O 646.824 -1.49659 -1.19635 0
M  V30 6835 C 647.018 -3.02117 1.90945 0
M  V30 6836 C 646.847 -2.91134 3.42741 0
M  V30 6837 C 645.617 -2.92429 4.12085 0
M  V30 6838 C 647.815 -2.68889 4.3841 0
M  V30 6839 N 645.797 -2.72078 5.50315 0
M  V30 6840 C 647.168 -2.57423 5.64033 0
M  V30 6841 C 649.223 -2.53919 4.28287 0
M  V30 6842 C 647.926 -2.32513 6.80683 0
M  V30 6843 C 649.952 -2.3039 5.44678 0
M  V30 6844 C 649.314 -2.19682 6.69268 0
M  V30 6845 H 645.413 -0.614095 0.48416 0
M  V30 6846 H 647.997 -1.07377 1.62414 0
M  V30 6847 H 646.168 -3.58993 1.48252 0
M  V30 6848 H 647.9 -3.66388 1.71878 0
M  V30 6849 H 644.655 -3.03345 3.63701 0
M  V30 6850 H 645.079 -2.64983 6.22987 0
M  V30 6851 H 649.721 -2.60946 3.32666 0
M  V30 6852 H 647.439 -2.24225 7.76369 0
M  V30 6853 H 651.025 -2.19665 5.38738 0
M  V30 6854 H 649.905 -2.01725 7.5781 0
M  V30 6855 N 647.408 -1.11026 -1.11852 0
M  V30 6856 C 648.633 -0.879064 -1.87849 0
M  V30 6857 C 649.058 0.565406 -1.79401 0
M  V30 6858 O 648.416 1.39886 -1.15333 0
M  V30 6859 C 648.464 -1.33985 -3.34784 0
M  V30 6860 O 647.568 -0.508803 -4.09249 0
M  V30 6861 H 646.909 -0.316992 -0.583448 0
M  V30 6862 H 649.439 -1.47863 -1.41413 0
M  V30 6863 H 649.449 -1.33248 -3.85628 0
M  V30 6864 H 648.124 -2.39172 -3.40249 0
M  V30 6865 H 646.701 -0.581913 -3.68332 0
M  V30 6866 N 648.886 1.2938 -0.899927 0
M  V30 6867 C 650.302 1.48052 -0.596059 0
M  V30 6868 C 650.502 1.82114 0.862372 0
M  V30 6869 O 649.558 1.91774 1.64253 0
M  V30 6870 C 650.871 2.59332 -1.52208 0
M  V30 6871 C 652.419 2.73208 -1.5273 0
M  V30 6872 C 652.894 3.87617 -2.43961 0
M  V30 6873 N 654.385 3.9495 -2.42009 0
M  V30 6874 C 655.12 4.82824 -3.09303 0
M  V30 6875 N 654.616 5.75387 -3.85877 0
M  V30 6876 N 656.409 4.76317 -2.98459 0
M  V30 6877 H 648.56 1.05546 -1.8432 0
M  V30 6878 H 650.823 0.524314 -0.78981 0
M  V30 6879 H 650.529 2.41029 -2.56121 0
M  V30 6880 H 650.403 3.56139 -1.24278 0
M  V30 6881 H 652.79 2.90908 -0.495614 0
M  V30 6882 H 652.871 1.76975 -1.84698 0
M  V30 6883 H 652.515 3.70672 -3.47224 0
M  V30 6884 H 652.445 4.83218 -2.09303 0
M  V30 6885 H 654.936 3.28744 -1.86375 0
M  V30 6886 H 655.249 6.39235 -4.34279 0
M  V30 6887 H 653.594 5.75272 -3.89984 0
M  V30 6888 H 656.785 4.0299 -2.38152 0
M  V30 6889 H 656.958 5.44589 -3.51179 0
M  V30 6890 N 650.364 0.662433 1.43002 0
M  V30 6891 C 651.327 -0.0142016 2.29196 0
M  V30 6892 C 652.327 -0.741394 1.42688 0
M  V30 6893 O 653.517 -0.581257 1.64216 0
M  V30 6894 C 650.649 -1.03084 3.24941 0
M  V30 6895 H 651.842 0.7443 2.90517 0
M  V30 6896 H 649.395 0.424133 1.50435 0
M  V30 6897 H 650.13 -1.81826 2.68533 0
M  V30 6898 H 649.915 -0.512946 3.8873 0
M  V30 6899 H 651.405 -1.50308 3.89612 0
M  V30 6900 N 651.842 -1.52309 0.404946 0
M  V30 6901 C 652.772 -2.29805 -0.41376 0
M  V30 6902 C 653.753 -1.3384 -1.0498 0
M  V30 6903 O 654.938 -1.62745 -1.05961 0
M  V30 6904 C 652.068 -3.11639 -1.53292 0
M  V30 6905 C 651.022 -4.15616 -1.02211 0
M  V30 6906 C 650.348 -4.8577 -2.23455 0
M  V30 6907 C 651.648 -5.2224 -0.0790725 0
M  V30 6908 H 653.342 -2.98493 0.232878 0
M  V30 6909 H 650.888 -1.43552 0.113441 0
M  V30 6910 H 652.841 -3.64618 -2.11262 0
M  V30 6911 H 651.565 -2.40712 -2.20738 0
M  V30 6912 H 650.224 -3.63641 -0.46484 0
M  V30 6913 H 649.872 -4.11376 -2.89445 0
M  V30 6914 H 649.572 -5.56058 -1.89929 0
M  V30 6915 H 651.096 -5.4156 -2.82038 0
M  V30 6916 H 652.51 -5.70485 -0.567438 0
M  V30 6917 H 650.907 -5.99867 0.167167 0
M  V30 6918 H 651.977 -4.77078 0.867447 0
M  V30 6919 N 653.32 -0.135238 -1.57019 0
M  V30 6920 C 654.568 0.51777 -1.95355 0
M  V30 6921 C 654.889 1.6617 -1.02042 0
M  V30 6922 O 654.159 1.95738 -0.0797343 0
M  V30 6923 H 652.739 0.194264 -0.721298 0
M  V30 6924 H 655.401 -0.207983 -1.93787 0
M  V30 6925 H 654.497 0.901675 -2.98791 0
M  V30 6926 N 654.798 1.5699 0.138552 0
M  V30 6927 C 656.045 1.83809 0.849732 0
M  V30 6928 C 656.373 0.717409 1.80786 0
M  V30 6929 O 655.628 -0.292897 1.93496 0
M  V30 6930 C 655.927 3.17007 1.65049 0
M  V30 6931 C 655.593 4.43037 0.838398 0
M  V30 6932 C 654.255 4.77262 0.614385 0
M  V30 6933 C 656.607 5.20495 0.271044 0
M  V30 6934 C 653.935 5.864 -0.187552 0
M  V30 6935 C 656.287 6.30476 -0.517979 0
M  V30 6936 C 654.951 6.63245 -0.75249 0
M  V30 6937 H 654.221 0.672605 0.310939 0
M  V30 6938 H 656.868 1.91166 0.112971 0
M  V30 6939 H 655.173 3.05138 2.4576 0
M  V30 6940 H 656.87 3.34975 2.20437 0
M  V30 6941 H 653.46 4.16211 1.02307 0
M  V30 6942 H 657.644 4.94422 0.431371 0
M  V30 6943 H 652.9 6.10226 -0.378659 0
M  V30 6944 H 657.074 6.89686 -0.964694 0
M  V30 6945 H 654.701 7.47648 -1.37573 0
M  V30 6946 N 656.276 -0.40816 1.52223 0
M  V30 6947 C 657.687 -0.986929 1.58482 0
M  V30 6948 C 658.038 -1.91521 0.425917 0
M  V30 6949 O 657.163 -2.11593 -0.453593 0
M  V30 6950 C 657.758 -1.7967 2.87235 0
M  V30 6951 C 656.317 -2.32549 2.9597 0
M  V30 6952 C 655.464 -1.12558 2.53428 0
M  V30 6953 H 658.415 -0.188362 1.57578 0
M  V30 6954 H 658.436 -2.65417 2.72642 0
M  V30 6955 H 657.948 -1.12082 3.71563 0
M  V30 6956 H 656.049 -3.03505 2.16137 0
M  V30 6957 H 656.162 -2.63348 4.00231 0
M  V30 6958 H 654.526 -1.47984 2.07299 0
M  V30 6959 H 655.309 -0.465351 3.40131 0
M  V30 6960 N 657.755 -1.42862 -0.66545 0
M  V30 6961 C 658.685 -1.49867 -1.79059 0
M  V30 6962 C 659.666 -0.354394 -1.66367 0
M  V30 6963 O 660.851 -0.569969 -1.85647 0
M  V30 6964 C 657.981 -1.40943 -3.17415 0
M  V30 6965 C 656.935 -2.53495 -3.44854 0
M  V30 6966 C 656.261 -2.29626 -4.82883 0
M  V30 6967 C 657.561 -3.95781 -3.40815 0
M  V30 6968 H 659.255 -2.44037 -1.73453 0
M  V30 6969 H 656.801 -1.17456 -0.833071 0
M  V30 6970 H 658.754 -1.4445 -3.95869 0
M  V30 6971 H 657.478 -0.432716 -3.23721 0
M  V30 6972 H 656.137 -2.4932 -2.68766 0
M  V30 6973 H 655.785 -1.30226 -4.8585 0
M  V30 6974 H 655.485 -3.05065 -5.02204 0
M  V30 6975 H 657.009 -2.34897 -5.63609 0
M  V30 6976 H 658.423 -4.01508 -4.09224 0
M  V30 6977 H 656.82 -4.71148 -3.71672 0
M  V30 6978 H 657.89 -4.21786 -2.39216 0
M  V30 6979 N 659.233 0.902656 -1.29189 0
M  V30 6980 C 660.143 2.03946 -1.15944 0
M  V30 6981 C 661.159 1.738 -0.0833803 0
M  V30 6982 O 662.335 1.9923 -0.29487 0
M  V30 6983 C 659.4 3.36519 -0.834006 0
M  V30 6984 C 658.461 3.80203 -1.9936 0
M  V30 6985 C 657.694 5.06449 -1.68359 0
M  V30 6986 O 657.917 5.67202 -0.603141 0
M  V30 6987 O 656.851 5.46114 -2.53067 0
M  V30 6988 H 660.677 2.18043 -2.11403 0
M  V30 6989 H 658.262 1.02584 -1.08613 0
M  V30 6990 H 660.144 4.16089 -0.666949 0
M  V30 6991 H 658.819 3.23573 0.0908245 0
M  V30 6992 H 657.726 3.01413 -2.21588 0
M  V30 6993 H 659.059 3.97729 -2.89952 0
M  V30 6994 N 660.711 1.11618 1.11262 0
M  V30 6995 C 662.127 0.850468 1.35053 0
M  V30 6996 C 662.327 -0.523868 1.94571 0
M  V30 6997 O 661.383 -1.2743 2.17986 0
M  V30 6998 C 662.696 1.96005 2.28041 0
M  V30 6999 C 664.244 1.98993 2.416 0
M  V30 7000 C 664.719 3.0916 3.37911 0
M  V30 7001 N 666.21 3.08547 3.45475 0
M  V30 7002 C 666.945 3.9043 4.19943 0
M  V30 7003 N 666.441 4.8228 4.97371 0
M  V30 7004 N 668.234 3.786 4.15474 0
M  V30 7005 H 660.385 2.00184 0.709932 0
M  V30 7006 H 662.648 0.870635 0.375099 0
M  V30 7007 H 662.354 2.9499 1.91503 0
M  V30 7008 H 662.228 1.85782 3.28275 0
M  V30 7009 H 664.615 1.00633 2.77411 0
M  V30 7010 H 664.696 2.13292 1.4121 0
M  V30 7011 H 664.34 4.07748 3.02827 0
M  V30 7012 H 664.27 2.92102 4.3816 0
M  V30 7013 H 666.761 2.42 2.90249 0
M  V30 7014 H 667.074 5.41289 5.51567 0
M  V30 7015 H 665.419 4.863 4.96525 0
M  V30 7016 H 668.61 3.06185 3.54074 0
M  V30 7017 H 668.783 4.42647 4.73253 0
M  V30 7018 N 662.189 -1.289 0.906776 0
M  V30 7019 C 663.6 -1.77336 0.58384 0
M  V30 7020 C 663.951 -1.74304 -0.900697 0
M  V30 7021 O 663.076 -1.33335 -1.70443 0
M  V30 7022 C 663.671 -3.22019 1.05304 0
M  V30 7023 C 662.23 -3.68205 0.781148 0
M  V30 7024 C 661.377 -2.48837 1.22373 0
M  V30 7025 H 664.328 -1.15462 1.08877 0
M  V30 7026 H 664.349 -3.78481 0.391414 0
M  V30 7027 H 663.861 -3.24194 2.13353 0
M  V30 7028 H 661.962 -3.71497 -0.28643 0
M  V30 7029 H 662.075 -4.58675 1.384 0
M  V30 7030 H 660.439 -2.46461 0.642594 0
M  V30 7031 H 661.222 -2.53736 2.31242 0
M  V30 7032 N 663.667 -0.670007 -1.42649 0
M  V30 7033 C 664.614 0.0112928 -2.30797 0
M  V30 7034 C 665.584 0.797627 -1.45695 0
M  V30 7035 O 666.769 0.770845 -1.74535 0
M  V30 7036 C 663.909 0.95998 -3.31479 0
M  V30 7037 C 663.022 0.167975 -4.31673 0
M  V30 7038 C 662.157 1.11198 -5.19431 0
M  V30 7039 C 661.196 0.311381 -6.11307 0
M  V30 7040 N 660.333 1.20784 -6.91633 0
M  V30 7041 H 665.173 -0.746231 -2.88505 0
M  V30 7042 H 662.71 -0.379739 -1.42114 0
M  V30 7043 H 664.668 1.52379 -3.88377 0
M  V30 7044 H 663.298 1.68419 -2.75382 0
M  V30 7045 H 662.35 -0.512385 -3.76933 0
M  V30 7046 H 663.662 -0.453814 -4.96731 0
M  V30 7047 H 662.816 1.74587 -5.81037 0
M  V30 7048 H 661.555 1.76766 -4.54538 0
M  V30 7049 H 660.56 -0.335758 -5.48774 0
M  V30 7050 H 661.785 -0.340135 -6.78248 0
M  V30 7051 H 659.731 1.85001 -6.29373 0
M  V30 7052 H 659.648 0.64102 -7.53277 0
M  V30 7053 H 660.916 1.82936 -7.5773 0
M  V30 7054 N 665.145 1.52092 -0.413018 0
M  V30 7055 C 666.37 2.06756 0.163338 0
M  V30 7056 C 666.795 1.28073 1.37764 0
M  V30 7057 O 666.153 0.312015 1.78595 0
M  V30 7058 C 666.201 3.57278 0.488322 0
M  V30 7059 O 665.305 3.80986 1.57871 0
M  V30 7060 H 664.646 0.663882 0.0125068 0
M  V30 7061 H 667.176 1.95988 -0.587339 0
M  V30 7062 H 667.186 4.01125 0.745836 0
M  V30 7063 H 665.861 4.13978 -0.399327 0
M  V30 7064 H 664.438 3.49017 1.31306 0
M  V30 7065 N 666.623 0.143563 1.56945 0
M  V30 7066 C 667.556 -0.835367 2.1236 0
M  V30 7067 C 668.534 -1.24466 1.04627 0
M  V30 7068 O 669.718 -1.34138 1.32436 0
M  V30 7069 C 666.845 -2.12123 2.64048 0
M  V30 7070 C 665.891 -1.85812 3.83896 0
M  V30 7071 S 666.724 -1.05222 5.25061 0
M  V30 7072 C 667.88 -2.34935 5.80135 0
M  V30 7073 H 668.113 -0.364109 2.95062 0
M  V30 7074 H 665.646 -0.0706601 1.54238 0
M  V30 7075 H 667.604 -2.85993 2.94479 0
M  V30 7076 H 666.265 -2.56364 1.81483 0
M  V30 7077 H 665.458 -2.81151 4.18294 0
M  V30 7078 H 665.06 -1.20052 3.54208 0
M  V30 7079 H 667.352 -3.3061 5.91357 0
M  V30 7080 H 668.295 -2.05046 6.77762 0
M  V30 7081 H 668.703 -2.45426 5.08356 0
M  V30 7082 N 668.101 -1.57061 -0.130224 0
M  V30 7083 C 669.326 -1.88802 -0.858409 0
M  V30 7084 C 669.751 -0.734353 -1.73173 0
M  V30 7085 O 669.109 0.315529 -1.78533 0
M  V30 7086 C 669.157 -3.19228 -1.67708 0
M  V30 7087 O 668.261 -3.04343 -2.78297 0
M  V30 7088 H 667.602 -0.619849 -0.238083 0
M  V30 7089 H 670.132 -2.04271 -0.115995 0
M  V30 7090 H 670.142 -3.51669 -2.06864 0
M  V30 7091 H 668.817 -4.02793 -1.0359 0
M  V30 7092 H 667.394 -2.83346 -2.42425 0
M  V30 7093 N 669.579 0.400081 -1.52437 0
M  V30 7094 C 670.807 1.16768 -1.70801 0
M  V30 7095 C 671.222 1.84036 -0.421462 0
M  V30 7096 O 670.579 1.72242 0.603228 0
M  V30 7097 C 670.63 2.22403 -2.8499 0
M  V30 7098 O 670.351 1.57879 -4.08663 0
M  V30 7099 C 671.852 3.11974 -3.1494 0
M  V30 7100 H 669.072 0.350533 -0.57216 0
M  V30 7101 H 671.616 0.469534 -1.99037 0
M  V30 7102 H 669.771 2.87871 -2.59247 0
M  V30 7103 H 670.185 2.27982 -4.7236 0
M  V30 7104 H 671.659 3.82148 -3.9833 0
M  V30 7105 H 672.136 3.74858 -2.28863 0
M  V30 7106 H 672.742 2.52165 -3.42481 0
M  V30 7107 N 671.057 1.43213 0.657864 0
M  V30 7108 C 671.967 1.50448 1.80007 0
M  V30 7109 C 672.983 0.39191 1.69529 0
M  V30 7110 O 674.159 0.645349 1.90781 0
M  V30 7111 C 671.224 1.42062 3.16258 0
M  V30 7112 C 670.285 2.63951 3.38568 0
M  V30 7113 C 669.518 2.55956 4.68318 0
M  V30 7114 O 669.741 1.60473 5.47361 0
M  V30 7115 O 668.675 3.46378 4.92245 0
M  V30 7116 H 672.501 2.4689 1.76858 0
M  V30 7117 H 670.086 1.25163 0.81576 0
M  V30 7118 H 671.968 1.3981 3.97531 0
M  V30 7119 H 670.643 0.487524 3.20008 0
M  V30 7120 H 669.55 2.71776 2.57077 0
M  V30 7121 H 670.883 3.56217 3.39662 0
M  V30 7122 N 672.536 -0.895792 1.29666 0
M  V30 7123 C 673.784 -1.64339 1.17631 0
M  V30 7124 C 674.105 -1.93099 -0.271643 0
M  V30 7125 O 673.375 -1.55981 -1.18518 0
M  V30 7126 H 671.955 -0.609162 0.432354 0
M  V30 7127 H 674.617 -1.07389 1.62646 0
M  V30 7128 H 673.713 -2.59815 1.72924 0
M  V30 7129 N 674.014 -1.12206 -1.10668 0
M  V30 7130 C 674.944 -0.810086 -2.18997 0
M  V30 7131 C 675.925 0.225065 -1.68604 0
M  V30 7132 O 677.11 0.086783 -1.94006 0
M  V30 7133 C 674.24 -0.261262 -3.46316 0
M  V30 7134 C 673.194 -1.2292 -4.09969 0
M  V30 7135 C 672.52 -0.540713 -5.31959 0
M  V30 7136 C 673.82 -2.58295 -4.53962 0
M  V30 7137 H 675.514 -1.7159 -2.45352 0
M  V30 7138 H 673.06 -0.82646 -1.17922 0
M  V30 7139 H 675.013 -0.0307522 -4.21389 0
M  V30 7140 H 673.737 0.679879 -3.19445 0
M  V30 7141 H 672.396 -1.44548 -3.369 0
M  V30 7142 H 672.044 0.405492 -5.01363 0
M  V30 7143 H 671.744 -1.18637 -5.75499 0
M  V30 7144 H 673.268 -0.319184 -6.09765 0
M  V30 7145 H 674.682 -2.40709 -5.20319 0
M  V30 7146 H 673.079 -3.18916 -5.08343 0
M  V30 7147 H 674.149 -3.16918 -3.67002 0
M  V30 7148 N 675.492 1.28418 -0.913599 0
M  V30 7149 C 676.425 2.25557 -0.346328 0
M  V30 7150 C 677.403 1.53038 0.549366 0
M  V30 7151 O 678.587 1.81937 0.493055 0
M  V30 7152 C 675.714 3.34915 0.504961 0
M  V30 7153 C 674.76 4.25257 -0.325334 0
M  V30 7154 S 675.593 5.06718 -1.73198 0
M  V30 7155 C 676.749 6.19569 -0.887988 0
M  V30 7156 H 676.982 2.73325 -1.16965 0
M  V30 7157 H 674.515 1.36855 -0.714841 0
M  V30 7158 H 676.473 3.98376 0.990301 0
M  V30 7159 H 675.134 2.85814 1.30267 0
M  V30 7160 H 674.327 5.02947 0.325589 0
M  V30 7161 H 673.929 3.66519 -0.744321 0
M  V30 7162 H 676.221 6.77398 -0.117568 0
M  V30 7163 H 677.164 6.88908 -1.63742 0
M  V30 7164 H 677.572 5.62812 -0.436228 0
M  V30 7165 N 676.97 0.677563 1.42291 0
M  V30 7166 C 677.917 0.000947061 2.308 0
M  V30 7167 C 678.887 -0.789889 1.46116 0
M  V30 7168 O 680.072 -0.761578 1.74942 0
M  V30 7169 C 677.212 -0.942387 3.31984 0
M  V30 7170 C 676.325 -0.14508 4.31756 0
M  V30 7171 C 675.46 -1.08442 5.20013 0
M  V30 7172 C 674.499 -0.278958 6.11464 0
M  V30 7173 N 673.636 -1.17115 6.92263 0
M  V30 7174 H 678.476 0.761521 2.88106 0
M  V30 7175 H 676.013 0.38727 1.41911 0
M  V30 7176 H 677.971 -1.50317 3.89179 0
M  V30 7177 H 676.601 -1.66956 2.76271 0
M  V30 7178 H 675.653 0.532368 3.76656 0
M  V30 7179 H 676.965 0.48015 4.96484 0
M  V30 7180 H 676.119 -1.71504 5.81955 0
M  V30 7181 H 674.858 -1.74353 4.55469 0
M  V30 7182 H 673.863 0.364856 5.48588 0
M  V30 7183 H 675.088 0.376099 6.78058 0
M  V30 7184 H 673.034 -1.81661 6.30345 0
M  V30 7185 H 672.951 -0.601063 7.53607 0
M  V30 7186 H 674.219 -1.78915 7.58689 0
M  V30 7187 N 678.448 -1.51871 0.421078 0
M  V30 7188 C 679.695 -2.01938 -0.15079 0
M  V30 7189 C 680.023 -1.30611 -1.44121 0
M  V30 7190 O 679.278 -0.404631 -1.91471 0
M  V30 7191 C 679.577 -3.54764 -0.433292 0
M  V30 7192 C 679.243 -4.44288 0.76936 0
M  V30 7193 C 677.905 -4.68477 1.09921 0
M  V30 7194 C 680.257 -4.96915 1.57242 0
M  V30 7195 C 677.585 -5.4254 2.2331 0
M  V30 7196 C 679.937 -5.7222 2.69716 0
M  V30 7197 C 678.601 -5.94678 3.03174 0
M  V30 7198 H 677.871 -0.738943 -0.0551781 0
M  V30 7199 H 680.518 -1.82977 0.564945 0
M  V30 7200 H 678.823 -3.71968 -1.23074 0
M  V30 7201 H 680.52 -3.91023 -0.888922 0
M  V30 7202 H 677.11 -4.25646 0.502305 0
M  V30 7203 H 681.294 -4.78125 1.3308 0
M  V30 7204 H 676.55 -5.58146 2.49565 0
M  V30 7205 H 680.724 -6.11992 3.32323 0
M  V30 7206 H 678.351 -6.51848 3.9115 0
M  V30 7207 N 679.926 -0.151884 -1.56866 0
M  V30 7208 C 681.172 0.498742 -1.96572 0
M  V30 7209 C 681.505 1.64194 -1.03702 0
M  V30 7210 O 680.78 1.94334 -0.0803432 0
M  V30 7211 C 681.063 1.00027 -3.45929 0
M  V30 7212 C 680.916 -0.141767 -4.49577 0
M  V30 7213 C 682.235 1.88044 -3.97904 0
M  V30 7214 H 679.354 0.17982 -0.714726 0
M  V30 7215 H 681.996 -0.234097 -1.88552 0
M  V30 7216 H 680.146 1.62476 -3.52894 0
M  V30 7217 H 681.818 -0.778269 -4.54687 0
M  V30 7218 H 680.061 -0.80019 -4.26356 0
M  V30 7219 H 680.732 0.250947 -5.51429 0
M  V30 7220 H 683.208 1.35416 -3.93449 0
M  V30 7221 H 682.084 2.20043 -5.02864 0
M  V30 7222 H 682.345 2.81916 -3.40552 0
M  V30 7223 N 681.404 1.57128 0.121893 0
M  V30 7224 C 682.681 1.75664 0.860327 0
M  V30 7225 C 683.061 0.726585 1.98202 0
M  V30 7226 O 682.409 -0.24999 2.27128 0
M  V30 7227 C 682.619 3.20571 1.37968 0
M  V30 7228 C 683.967 3.82988 1.83317 0
M  V30 7229 O 684.991 3.24156 1.47654 0
M  V30 7230 O 683.85 4.86393 2.49168 0
M  V30 7231 H 680.944 0.719153 0.408348 0
M  V30 7232 H 683.49 1.6937 0.105859 0
M  V30 7233 H 682.262 3.87056 0.57477 0
M  V30 7234 H 681.885 3.31392 2.19694 0
M  V30 7235 N 682.882 -0.391992 1.52647 0
M  V30 7236 C 684.107 -1.16312 1.71716 0
M  V30 7237 C 684.532 -1.83042 0.433279 0
M  V30 7238 O 683.89 -1.70705 -0.610707 0
M  V30 7239 C 683.938 -2.18908 2.86551 0
M  V30 7240 O 683.042 -3.2543 2.53316 0
M  V30 7241 H 682.383 -0.338743 0.571095 0
M  V30 7242 H 684.913 -0.457202 1.99426 0
M  V30 7243 H 684.923 -2.62954 3.1196 0
M  V30 7244 H 683.598 -1.69726 3.79692 0
M  V30 7245 H 682.175 -2.86543 2.38637 0
M  V30 7246 N 684.36 -1.4356 -0.65026 0
M  V30 7247 C 685.307 -1.48948 -1.76304 0
M  V30 7248 C 686.277 -0.338919 -1.62605 0
M  V30 7249 O 687.462 -0.54649 -1.82806 0
M  V30 7250 C 684.602 -1.42131 -3.14472 0
M  V30 7251 C 683.715 -2.67415 -3.39284 0
M  V30 7252 C 682.85 -2.52565 -4.67316 0
M  V30 7253 C 681.889 -3.73103 -4.85243 0
M  V30 7254 N 681.026 -3.57046 -6.04535 0
M  V30 7255 H 685.866 -2.44032 -1.71034 0
M  V30 7256 H 683.403 -1.21131 -0.834601 0
M  V30 7257 H 685.361 -1.36172 -3.94351 0
M  V30 7258 H 683.991 -0.506273 -3.18805 0
M  V30 7259 H 683.043 -2.8364 -2.53481 0
M  V30 7260 H 684.355 -3.56943 -3.48415 0
M  V30 7261 H 683.509 -2.44331 -5.55326 0
M  V30 7262 H 682.248 -1.60566 -4.60511 0
M  V30 7263 H 681.253 -3.81743 -3.95667 0
M  V30 7264 H 682.478 -4.66115 -4.93876 0
M  V30 7265 H 680.424 -2.67783 -5.98856 0
M  V30 7266 H 680.341 -4.40178 -6.14638 0
M  V30 7267 H 681.609 -3.52669 -6.95158 0
M  V30 7268 N 685.838 0.888903 -1.30139 0
M  V30 7269 C 687.063 1.67884 -1.21777 0
M  V30 7270 C 687.488 1.86848 0.216689 0
M  V30 7271 O 686.846 1.39659 1.15608 0
M  V30 7272 C 686.894 3.03483 -1.94757 0
M  V30 7273 O 685.998 3.92294 -1.27198 0
M  V30 7274 H 685.339 0.513144 -0.421402 0
M  V30 7275 H 687.869 1.10968 -1.71893 0
M  V30 7276 H 687.879 3.53553 -2.03627 0
M  V30 7277 H 686.554 2.89 -2.99085 0
M  V30 7278 H 685.131 3.50732 -1.26655 0
M  V30 7279 N 687.317 1.12792 1.10072 0
M  V30 7280 C 688.565 0.883796 1.81751 0
M  V30 7281 C 688.886 -0.591891 1.858 0
M  V30 7282 O 688.156 -1.43017 1.33876 0
M  V30 7283 H 686.736 0.323978 0.673088 0
M  V30 7284 H 689.398 1.42314 1.33164 0
M  V30 7285 H 688.494 1.26863 2.85153 0
M  V30 7286 O 688.834 -1.22539 1.05197 0
M  V30 7287 H 689.525 -1.79492 0.728171 0
M  V30 END ATOM
M  V30 BEGIN BOND
M  V30 END BOND
M  V30 END CTAB
M  END
$$$$
