drugbank_target|P09693 T-cell surface glycoprotein CD3 gamma chain (DB00075)
 OpenBabel12092120323D

  0  0  0     0  0            999 V3000
M  V30 BEGIN CTAB
M  V30 COUNTS 2887 2910 0 0 0
M  V30 BEGIN ATOM
M  V30 1 H -0.908 1.98254 -0.117106 0
M  V30 2 N 0 1.576 0 0
M  V30 3 C 0.933 2.03868 1.02534 0
M  V30 4 C 1.911 0.928543 1.3348 0
M  V30 5 O 3.095 1.19667 1.45644 0
M  V30 6 C 0.222 2.43627 2.35294 0
M  V30 7 C -0.732 3.65373 2.2001 0
M  V30 8 S 0.101 5.13292 1.52614 0
M  V30 9 C 1.257 5.56322 2.86805 0
M  V30 10 H 1.49 2.90518 0.631377 0
M  V30 11 H -0.977 1.52953 0.210867 0
M  V30 12 H 0.981 2.67203 3.11629 0
M  V30 13 H -0.358 1.57376 2.7183 0
M  V30 14 H -1.165 3.90944 3.18086 0
M  V30 15 H -1.563 3.418 1.51819 0
M  V30 16 H 0.729 5.58782 3.83104 0
M  V30 17 H 1.672 6.56266 2.65933 0
M  V30 18 H 2.08 4.83886 2.90714 0
M  V30 19 N 1.4781 -0.272755 1.55222 0
M  V30 20 C 2.3881 -1.35918 1.91216 0
M  V30 21 C 3.4041 -1.54026 0.809436 0
M  V30 22 O 4.5801 -1.68148 1.10852 0
M  V30 23 C 1.6451 -2.69834 2.17693 0
M  V30 24 C 0.7061 -2.6047 3.41253 0
M  V30 25 C -0.0609 -3.88 3.66458 0
M  V30 26 O 0.1621 -4.88693 2.94169 0
M  V30 27 O -0.9039 -3.88189 4.59992 0
M  V30 28 H 2.9221 -1.0839 2.83699 0
M  V30 29 H 0.5071 -0.471301 1.41771 0
M  V30 30 H 2.3891 -3.49017 2.36147 0
M  V30 31 H 1.0641 -2.97148 1.28392 0
M  V30 32 H -0.0289 -1.79663 3.28134 0
M  V30 33 H 1.3041 -2.38106 4.30774 0
M  V30 34 N 2.9562 -1.48159 -0.537278 0
M  V30 35 C 3.8882 -1.58218 -1.65831 0
M  V30 36 C 4.9012 -0.466948 -1.5596 0
M  V30 37 O 6.0902 -0.73747 -1.62553 0
M  V30 38 C 3.1902 -1.48906 -3.04434 0
M  V30 39 C 2.3632 -2.75343 -3.3986 0
M  V30 40 C 1.4222 -2.59588 -4.57712 0
M  V30 41 O 0.4482 -3.33457 -4.61297 0
M  V30 42 N 1.6502 -1.68724 -5.55439 0
M  V30 43 H 4.4152 -2.54891 -1.57641 0
M  V30 44 H 1.9762 -1.4479 -0.724386 0
M  V30 45 H 3.9682 -1.36072 -3.81139 0
M  V30 46 H 2.5382 -0.602368 -3.06741 0
M  V30 47 H 1.7582 -3.02795 -2.52406 0
M  V30 48 H 3.0462 -3.5924 -3.60311 0
M  V30 49 H 2.4442 -1.07898 -5.55315 0
M  V30 50 H 1.0012 -1.61832 -6.3139 0
M  V30 51 N 4.4343 0.785586 -1.36625 0
M  V30 52 C 5.6823 1.54057 -1.30808 0
M  V30 53 C 6.0033 1.94683 0.111157 0
M  V30 54 O 5.2733 1.65241 1.05224 0
M  V30 55 H 3.8533 0.571354 -0.481211 0
M  V30 56 H 6.5153 0.935821 -1.70963 0
M  V30 57 H 5.6113 2.44637 -1.93801 0
M  V30 58 N 5.9124 1.20967 1.01018 0
M  V30 59 C 6.8594 0.964281 2.09691 0
M  V30 60 C 7.8294 -0.107853 1.65749 0
M  V30 61 O 9.0144 0.0381987 1.90762 0
M  V30 62 C 6.1544 0.52943 3.41015 0
M  V30 63 C 5.2674 1.67043 3.98398 0
M  V30 64 C 4.4024 1.18525 5.17808 0
M  V30 65 C 3.4414 2.29892 5.67288 0
M  V30 66 N 2.5784 1.82546 6.77954 0
M  V30 67 H 7.4184 1.89463 2.30017 0
M  V30 68 H 4.9554 0.944289 1.1279 0
M  V30 69 H 6.9134 0.258588 4.16398 0
M  V30 70 H 5.5434 -0.363919 3.20742 0
M  V30 71 H 4.5954 2.05603 3.20049 0
M  V30 72 H 5.9074 2.50877 4.31117 0
M  V30 73 H 5.0614 0.870762 6.00419 0
M  V30 74 H 3.8004 0.316887 4.86669 0
M  V30 75 H 2.8054 2.6215 4.83278 0
M  V30 76 H 4.0304 3.17216 6.00459 0
M  V30 77 H 1.9764 0.980454 6.48632 0
M  V30 78 H 1.8934 2.59956 7.09901 0
M  V30 79 H 3.1614 1.54115 7.64113 0
M  V30 80 N 7.3905 -1.2043 1.01659 0
M  V30 81 C 8.6385 -1.89423 0.704522 0
M  V30 82 C 8.9595 -1.79231 -0.768197 0
M  V30 83 O 8.2295 -1.1947 -1.55254 0
M  V30 84 H 6.8095 -0.701178 0.257602 0
M  V30 85 H 9.4715 -1.4626 1.28818 0
M  V30 86 H 8.5675 -2.96052 0.987916 0
M  V30 87 N 8.8686 -0.792821 -1.36206 0
M  V30 88 C 9.7986 -0.207853 -2.32573 0
M  V30 89 C 10.7796 0.659055 -1.56813 0
M  V30 90 O 11.9646 0.592176 -1.84951 0
M  V30 91 C 9.0946 0.655449 -3.41059 0
M  V30 92 C 8.0486 -0.111842 -4.27854 0
M  V30 93 C 7.3746 0.872274 -5.27537 0
M  V30 94 C 8.6746 -1.30299 -5.05786 0
M  V30 95 H 10.3686 -1.01294 -2.81744 0
M  V30 96 H 7.9146 -0.48854 -1.3546 0
M  V30 97 H 9.8676 1.07464 -4.07467 0
M  V30 98 H 8.5916 1.49328 -2.90463 0
M  V30 99 H 7.2506 -0.512053 -3.63006 0
M  V30 100 H 6.8986 1.70523 -4.73214 0
M  V30 101 H 6.5986 0.363291 -5.86476 0
M  V30 102 H 8.1226 1.28996 -5.96818 0
M  V30 103 H 9.5366 -0.959379 -5.65216 0
M  V30 104 H 7.9336 -1.7455 -5.74154 0
M  V30 105 H 9.0036 -2.09663 -4.37229 0
M  V30 106 N 10.3467 1.47872 -0.545128 0
M  V30 107 C 11.3097 2.28337 0.198717 0
M  V30 108 C 12.3097 1.36255 0.853888 0
M  V30 109 O 13.4997 1.59003 0.711606 0
M  V30 110 C 10.6317 3.15585 1.28915 0
M  V30 111 H 11.8247 2.95567 -0.507941 0
M  V30 112 H 9.3777 1.53362 -0.301616 0
M  V30 113 H 10.1127 2.53019 2.02859 0
M  V30 114 H 9.8977 3.83337 0.824309 0
M  V30 115 H 11.3877 3.76243 1.81194 0
M  V30 116 N 11.8248 0.280983 1.55075 0
M  V30 117 C 13.0708 -0.33461 2.00021 0
M  V30 118 C 13.4038 -1.55063 1.16915 0
M  V30 119 O 12.6788 -1.93006 0.240646 0
M  V30 120 C 12.9618 -0.711007 3.53011 0
M  V30 121 C 12.8148 0.512766 4.46868 0
M  V30 122 C 14.1338 -1.54522 4.12081 0
M  V30 123 H 11.2528 -0.120147 0.727141 0
M  V30 124 H 13.8948 0.389097 1.85973 0
M  V30 125 H 12.0448 -1.32761 3.65112 0
M  V30 126 H 13.7168 1.15131 4.46702 0
M  V30 127 H 11.9598 1.14975 4.18286 0
M  V30 128 H 12.6308 0.205556 5.51617 0
M  V30 129 H 15.1068 -1.02442 4.03293 0
M  V30 130 H 13.9828 -1.77739 5.19327 0
M  V30 131 H 14.2438 -2.52813 3.62682 0
M  V30 132 N 13.3029 -1.57598 0.00835791 0
M  V30 133 C 14.2329 -2.1198 -0.979113 0
M  V30 134 C 15.2139 -1.03091 -1.35301 0
M  V30 135 O 16.3989 -1.30818 -1.43528 0
M  V30 136 C 13.5289 -2.62995 -2.26828 0
M  V30 137 C 12.4829 -3.76485 -2.03576 0
M  V30 138 C 11.8089 -4.13846 -3.38579 0
M  V30 139 C 13.1089 -5.0342 -1.39161 0
M  V30 140 H 14.8029 -2.94738 -0.526281 0
M  V30 141 H 12.3489 -1.41783 -0.251704 0
M  V30 142 H 14.3019 -2.99669 -2.96271 0
M  V30 143 H 13.0259 -1.7737 -2.7424 0
M  V30 144 H 11.6849 -3.40217 -1.36557 0
M  V30 145 H 11.3329 -3.25232 -3.83709 0
M  V30 146 H 11.0329 -4.90312 -3.23834 0
M  V30 147 H 12.5569 -4.53086 -4.09323 0
M  V30 148 H 13.9709 -5.37812 -1.98573 0
M  V30 149 H 12.3679 -5.84746 -1.34878 0
M  V30 150 H 13.4379 -4.83548 -0.361868 0
M  V30 151 N 14.781 0.264519 -1.55364 0
M  V30 152 C 16.03 0.992812 -1.75574 0
M  V30 153 C 16.343 1.87142 -0.568979 0
M  V30 154 O 17.549 2.63513 -0.653682 0
M  V30 155 C 16.005 1.81519 -3.10771 0
M  V30 156 C 15.613 0.984839 -4.37041 0
M  V30 157 C 17.357 2.53727 -3.40327 0
M  V30 158 C 15.264 1.80209 -5.63275 0
M  V30 159 H 14.194 0.374412 -0.65447 0
M  V30 160 H 16.845 0.248138 -1.81815 0
M  V30 161 H 15.227 2.60115 -2.98591 0
M  V30 162 H 16.401 0.242455 -4.60162 0
M  V30 163 H 14.716 0.37691 -4.14691 0
M  V30 164 H 17.313 3.15292 -4.3185 0
M  V30 165 H 17.656 3.24447 -2.60845 0
M  V30 166 H 18.189 1.82156 -3.53644 0
M  V30 167 H 14.928 1.13896 -6.45529 0
M  V30 168 H 14.448 2.52022 -5.44284 0
M  V30 169 H 16.127 2.37364 -6.01887 0
M  V30 170 N 16.2591 1.48442 0.529413 0
M  V30 171 C 17.1891 1.65902 1.64313 0
M  V30 172 C 18.1701 0.507897 1.6234 0
M  V30 173 O 19.3551 0.740503 1.79528 0
M  V30 174 C 16.4851 1.69911 3.02898 0
M  V30 175 C 15.4391 2.8453 3.19729 0
M  V30 176 C 14.7651 2.73629 4.59381 0
M  V30 177 C 16.0651 4.25821 3.02447 0
M  V30 178 H 17.7591 2.5914 1.49955 0
M  V30 179 H 15.3051 1.24709 0.719982 0
M  V30 180 H 17.2581 1.80715 3.80684 0
M  V30 181 H 15.9821 0.732524 3.18279 0
M  V30 182 H 14.6411 2.73283 2.44361 0
M  V30 183 H 14.2891 1.74938 4.71599 0
M  V30 184 H 13.9891 3.50541 4.71588 0
M  V30 185 H 15.5131 2.86401 5.39265 0
M  V30 186 H 16.9271 4.37898 3.70024 0
M  V30 187 H 15.3241 5.03735 3.26146 0
M  V30 188 H 16.3941 4.42244 1.98867 0
M  V30 189 N 17.7372 -0.778329 1.37039 0
M  V30 190 C 18.7002 -1.87301 1.32102 0
M  V30 191 C 19.7002 -1.59198 0.226405 0
M  V30 192 O 20.8902 -1.67403 0.481861 0
M  V30 193 C 18.0222 -3.24309 1.05055 0
M  V30 194 H 19.2152 -1.93093 2.29467 0
M  V30 195 H 16.7682 -0.977358 1.21973 0
M  V30 196 H 17.5032 -3.24196 0.0819373 0
M  V30 197 H 17.2882 -3.46098 1.84279 0
M  V30 198 H 18.7782 -4.04382 1.04234 0
M  V30 199 N 19.2153 -1.21501 -1.00376 0
M  V30 200 C 20.4643 -1.02718 -1.73586 0
M  V30 201 C 20.7773 0.439589 -1.90596 0
M  V30 202 O 21.9833 0.746848 -2.61026 0
M  V30 203 C 20.4393 -1.78929 -3.1227 0
M  V30 204 C 20.0473 -3.29783 -3.03228 0
M  V30 205 C 21.7913 -1.68557 -3.89601 0
M  V30 206 C 19.6983 -3.98479 -4.36999 0
M  V30 207 H 18.6283 -0.380733 -0.650814 0
M  V30 208 H 21.2793 -1.45248 -1.1214 0
M  V30 209 H 19.6613 -1.29192 -3.74333 0
M  V30 210 H 20.8353 -3.86832 -2.50395 0
M  V30 211 H 19.1503 -3.40711 -2.39385 0
M  V30 212 H 21.7473 -2.17211 -4.88593 0
M  V30 213 H 22.0903 -0.644021 -4.11288 0
M  V30 214 H 22.6233 -2.15778 -3.34193 0
M  V30 215 H 19.3623 -5.02841 -4.20513 0
M  V30 216 H 18.8823 -3.46219 -4.89788 0
M  V30 217 H 20.5613 -4.03462 -5.05794 0
M  V30 218 N 20.6934 1.19889 -1.02296 0
M  V30 219 C 21.9424 1.88743 -0.711257 0
M  V30 220 C 22.2554 1.80112 0.762817 0
M  V30 221 O 23.4614 2.44161 1.18733 0
M  V30 222 C 21.9174 3.38525 -1.22185 0
M  V30 223 C 21.5254 3.55727 -2.72328 0
M  V30 224 C 23.2694 4.12893 -0.985864 0
M  V30 225 C 21.1764 4.99369 -3.16835 0
M  V30 226 H 20.1064 0.706885 -0.262353 0
M  V30 227 H 22.7574 1.35586 -1.23648 0
M  V30 228 H 21.1394 3.91044 -0.624571 0
M  V30 229 H 22.3134 3.13564 -3.3766 0
M  V30 230 H 20.6284 2.94739 -2.9414 0
M  V30 231 H 23.2254 5.18813 -1.29374 0
M  V30 232 H 23.5684 4.16228 0.0775055 0
M  V30 233 H 24.1014 3.66494 -1.54684 0
M  V30 234 H 20.8404 5.01193 -4.22476 0
M  V30 235 H 20.3604 5.42317 -2.56228 0
M  V30 236 H 22.0394 5.67988 -3.09837 0
M  V30 237 N 22.1715 0.800033 1.35784 0
M  V30 238 C 23.1015 0.220184 2.3246 0
M  V30 239 C 24.0825 -0.65073 1.57161 0
M  V30 240 O 25.2675 -0.582359 1.85263 0
M  V30 241 C 22.3975 -0.637353 3.41402 0
M  V30 242 C 21.3515 0.134531 4.27789 0
M  V30 243 C 20.6775 -0.844285 5.27992 0
M  V30 244 C 21.9775 1.32979 5.05088 0
M  V30 245 H 23.6715 1.02787 2.81203 0
M  V30 246 H 21.2175 0.495717 1.35199 0
M  V30 247 H 23.1705 -1.05302 4.08031 0
M  V30 248 H 21.8945 -1.47785 2.91251 0
M  V30 249 H 20.5535 0.531296 3.6273 0
M  V30 250 H 20.2015 -1.68011 4.74111 0
M  V30 251 H 19.9015 -0.332184 5.8666 0
M  V30 252 H 21.4255 -1.2583 5.97494 0
M  V30 253 H 22.8395 0.98934 5.64699 0
M  V30 254 H 21.2365 1.77593 5.7322 0
M  V30 255 H 22.3065 2.11978 4.36111 0
M  V30 256 N 23.6496 -1.47581 0.552962 0
M  V30 257 C 24.5796 -2.32762 -0.185451 0
M  V30 258 C 25.5606 -1.43527 -0.912905 0
M  V30 259 O 26.7456 -1.72388 -0.894201 0
M  V30 260 C 23.8756 -3.25219 -1.21859 0
M  V30 261 C 22.8296 -4.23661 -0.607864 0
M  V30 262 C 22.1556 -5.05413 -1.74533 0
M  V30 263 C 23.4556 -5.20481 0.435582 0
M  V30 264 H 25.1496 -2.94749 0.525684 0
M  V30 265 H 22.6956 -1.41738 0.254251 0
M  V30 266 H 24.6486 -3.8365 -1.7433 0
M  V30 267 H 23.3726 -2.61279 -1.95961 0
M  V30 268 H 22.0316 -3.66451 -0.104489 0
M  V30 269 H 21.6796 -4.3788 -2.47529 0
M  V30 270 H 21.3796 -5.72059 -1.34249 0
M  V30 271 H 22.9036 -5.66701 -2.27338 0
M  V30 272 H 24.3176 -5.733 -0.00290157 0
M  V30 273 H 22.7146 -5.95305 0.757067 0
M  V30 274 H 23.7846 -4.66217 1.33303 0
M  V30 275 N 25.1277 -0.289203 -1.54924 0
M  V30 276 C 26.0597 0.625583 -2.20497 0
M  V30 277 C 27.0727 1.10667 -1.19402 0
M  V30 278 O 28.2617 1.02615 -1.46056 0
M  V30 279 C 25.3617 1.86702 -2.82835 0
M  V30 280 C 24.5347 1.5304 -4.09753 0
M  V30 281 C 23.5937 2.62576 -4.56005 0
M  V30 282 O 22.6197 2.28167 -5.21468 0
M  V30 283 N 23.8217 3.92901 -4.27328 0
M  V30 284 H 26.5867 0.0642801 -2.99631 0
M  V30 285 H 24.1477 -0.110896 -1.6152 0
M  V30 286 H 26.1397 2.59304 -3.10715 0
M  V30 287 H 24.7097 2.33702 -2.07611 0
M  V30 288 H 23.9297 0.637564 -3.8901 0
M  V30 289 H 25.2177 1.28072 -4.92418 0
M  V30 290 H 24.6157 4.23671 -3.74859 0
M  V30 291 H 23.1727 4.61837 -4.59946 0
M  V30 292 N 26.6058 1.57591 -0.0167156 0
M  V30 293 C 27.8538 1.90906 0.663285 0
M  V30 294 C 28.1748 0.892509 1.73376 0
M  V30 295 O 27.4448 -0.0677623 1.95783 0
M  V30 296 H 26.0248 0.704637 0.247983 0
M  V30 297 H 28.6868 1.94803 -0.0615909 0
M  V30 298 H 27.7828 2.9116 1.12393 0
M  V30 299 N 28.0839 -0.256276 1.55502 0
M  V30 300 C 29.3119 -1.00342 1.8094 0
M  V30 301 C 29.7269 -1.79307 0.59114 0
M  V30 302 O 29.0839 -1.77114 -0.440081 0
M  V30 303 C 29.1349 -1.94875 3.04476 0
M  V30 304 O 28.8559 -1.19107 4.21598 0
M  V30 305 C 30.3569 -2.81266 3.42644 0
M  V30 306 H 27.5769 -0.295685 0.602338 0
M  V30 307 H 30.1209 -0.281998 2.02546 0
M  V30 308 H 28.2759 -2.62457 2.84947 0
M  V30 309 H 28.6899 -1.82969 4.91551 0
M  V30 310 H 30.1639 -3.43362 4.32211 0
M  V30 311 H 30.6409 -3.51897 2.62802 0
M  V30 312 H 31.2469 -2.1915 3.64491 0
M  V30 313 N 29.562 -1.4872 -0.521534 0
M  V30 314 C 30.492 -1.66771 -1.63431 0
M  V30 315 C 31.473 -0.516499 -1.62069 0
M  V30 316 O 32.658 -0.750013 -1.79132 0
M  V30 317 C 29.788 -1.71515 -3.01993 0
M  V30 318 C 28.742 -2.86222 -3.18216 0
M  V30 319 C 28.068 -2.76061 -4.57924 0
M  V30 320 C 29.368 -4.27419 -3.00184 0
M  V30 321 H 31.062 -2.59932 -1.48579 0
M  V30 322 H 28.608 -1.25089 -0.713358 0
M  V30 323 H 30.561 -1.82731 -3.7972 0
M  V30 324 H 29.285 -0.749393 -3.17886 0
M  V30 325 H 27.944 -2.74575 -2.42908 0
M  V30 326 H 27.592 -1.77437 -4.70665 0
M  V30 327 H 27.292 -3.53037 -4.69722 0
M  V30 328 H 28.816 -2.89256 -5.37739 0
M  V30 329 H 30.23 -4.39855 -3.67697 0
M  V30 330 H 28.627 -5.05458 -3.2347 0
M  V30 331 H 29.697 -4.43293 -1.96518 0
M  V30 332 N 31.0401 0.771051 -1.3745 0
M  V30 333 C 32.0031 1.86598 -1.33093 0
M  V30 334 C 33.0031 1.59076 -0.234845 0
M  V30 335 O 34.1931 1.67145 -0.490732 0
M  V30 336 C 31.3251 3.23747 -1.06773 0
M  V30 337 H 32.5181 1.91873 -2.30488 0
M  V30 338 H 30.0711 0.970876 -1.2249 0
M  V30 339 H 30.8061 3.24148 -0.099129 0
M  V30 340 H 30.5911 3.45115 -1.86112 0
M  V30 341 H 32.0811 4.03824 -1.06377 0
M  V30 342 N 32.5182 1.22032 0.997298 0
M  V30 343 C 33.4502 0.944263 2.08845 0
M  V30 344 C 34.4632 -0.0754663 1.62625 0
M  V30 345 O 35.6522 0.157994 1.77799 0
M  V30 346 C 32.7522 0.397723 3.36558 0
M  V30 347 C 31.9252 1.47362 4.11829 0
M  V30 348 C 30.9842 0.934951 5.17827 0
M  V30 349 O 30.0102 1.62016 5.45655 0
M  V30 350 N 31.2122 -0.245895 5.79979 0
M  V30 351 H 33.9772 1.88363 2.33109 0
M  V30 352 H 31.5382 1.12661 1.16272 0
M  V30 353 H 33.5302 0.0227771 4.04694 0
M  V30 354 H 32.1002 -0.446646 3.09393 0
M  V30 355 H 31.3202 2.02208 3.38386 0
M  V30 356 H 32.6082 2.19764 4.58891 0
M  V30 357 H 32.0062 -0.819475 5.59733 0
M  V30 358 H 30.5632 -0.562272 6.4937 0
M  V30 359 N 33.9963 -1.19345 1.0293 0
M  V30 360 C 35.2213 -1.93538 0.745511 0
M  V30 361 C 35.6463 -1.75007 -0.689511 0
M  V30 362 O 35.0043 -1.05265 -1.47611 0
M  V30 363 C 35.0523 -3.43336 1.10239 0
M  V30 364 O 34.1563 -4.11806 0.221289 0
M  V30 365 H 33.4973 -0.604193 0.275404 0
M  V30 366 H 36.0273 -1.5141 1.37609 0
M  V30 367 H 36.0373 -3.94004 1.05947 0
M  V30 368 H 34.7123 -3.56146 2.14786 0
M  V30 369 H 33.2893 -3.715 0.322842 0
M  V30 370 N 35.4744 -0.807222 -1.35358 0
M  V30 371 C 36.7234 -0.384376 -1.98004 0
M  V30 372 C 37.0364 1.0543 -1.64754 0
M  V30 373 O 38.2424 1.58029 -2.20769 0
M  V30 374 C 36.6984 -0.636326 -3.5423 0
M  V30 375 C 36.3064 -2.08759 -3.96388 0
M  V30 376 C 38.0504 -0.278869 -4.23583 0
M  V30 377 C 35.9574 -2.28525 -5.45463 0
M  V30 378 H 34.8874 -0.139986 -0.740891 0
M  V30 379 H 37.5384 -0.991369 -1.54415 0
M  V30 380 H 35.9204 0.0406256 -3.95979 0
M  V30 381 H 37.0944 -2.8024 -3.6579 0
M  V30 382 H 35.4094 -2.40497 -3.39926 0
M  V30 383 H 38.0064 -0.404599 -5.33167 0
M  V30 384 H 38.3494 0.775012 -4.09022 0
M  V30 385 H 38.8824 -0.909764 -3.87257 0
M  V30 386 H 35.6214 -3.32361 -5.64992 0
M  V30 387 H 35.1414 -1.61569 -5.77629 0
M  V30 388 H 36.8204 -2.10109 -6.11934 0
M  V30 389 N 36.9525 1.47285 -0.560781 0
M  V30 390 C 37.8995 2.30058 0.18491 0
M  V30 391 C 38.8695 1.39281 0.904986 0
M  V30 392 O 40.0545 1.68241 0.899979 0
M  V30 393 C 37.1945 3.23317 1.20666 0
M  V30 394 C 36.3075 4.29186 0.492285 0
M  V30 395 C 35.4425 5.09592 1.49964 0
M  V30 396 C 34.4815 6.07232 0.770439 0
M  V30 397 N 33.6185 6.80584 1.72479 0
M  V30 398 H 38.4585 2.93302 -0.527048 0
M  V30 399 H 35.9955 1.44568 -0.271738 0
M  V30 400 H 37.9535 3.75811 1.81168 0
M  V30 401 H 36.5835 2.61929 1.88661 0
M  V30 402 H 35.6355 3.7972 -0.227333 0
M  V30 403 H 36.9475 4.98738 -0.0787929 0
M  V30 404 H 36.1015 5.66254 2.17809 0
M  V30 405 H 34.8405 4.3995 2.10464 0
M  V30 406 H 33.8455 5.49745 0.0780846 0
M  V30 407 H 35.0705 6.78884 0.171134 0
M  V30 408 H 33.0165 6.1367 2.3183 0
M  V30 409 H 32.9335 7.46319 1.20596 0
M  V30 410 H 34.2015 7.41818 2.39428 0
M  V30 411 N 38.4306 0.297415 1.54768 0
M  V30 412 C 39.6786 -0.312295 1.99673 0
M  V30 413 C 39.9996 -1.54686 1.18732 0
M  V30 414 O 39.2696 -1.93854 0.282382 0
M  V30 415 H 37.8496 -0.118381 0.73756 0
M  V30 416 H 40.5116 0.407915 1.90583 0
M  V30 417 H 39.6076 -0.586813 3.06534 0
M  V30 418 N 39.9087 -1.5758 0.0250728 0
M  V30 419 C 40.8567 -2.11125 -0.97617 0
M  V30 420 C 41.8507 -1.03689 -1.33959 0
M  V30 421 O 43.0567 -1.22128 -1.3223 0
M  V30 422 H 39.4317 -0.674468 -0.332561 0
M  V30 423 H 41.4027 -2.94194 -0.499223 0
M  V30 424 C 40.1517 -2.65017 -2.2508 0
M  V30 425 H 39.4747 -3.47333 -1.9799 0
M  V30 426 H 40.9147 -3.06133 -2.93357 0
M  V30 427 C 39.3737 -1.57574 -2.97779 0
M  V30 428 O 39.9037 -0.973203 -3.89733 0
M  V30 429 N 38.1097 -1.29716 -2.60043 0
M  V30 430 H 37.6567 -1.789 -1.85345 0
M  V30 431 H 37.6147 -0.58051 -3.08994 0
M  V30 432 N 41.3868 0.248026 -1.55636 0
M  V30 433 C 42.3368 1.30994 -1.86614 0
M  V30 434 C 43.3208 1.43543 -0.726918 0
M  V30 435 O 44.5128 1.46804 -0.988818 0
M  V30 436 C 41.6418 2.6656 -2.16335 0
M  V30 437 C 40.7278 2.58019 -3.36581 0
M  V30 438 N 41.1188 2.1911 -4.55878 0
M  V30 439 C 39.4168 2.89035 -3.39669 0
M  V30 440 C 40.1178 2.21174 -5.38012 0
M  V30 441 N 39.0938 2.60632 -4.77045 0
M  V30 442 H 42.8958 0.999583 -2.76379 0
M  V30 443 H 40.4098 0.456652 -1.55848 0
M  V30 444 H 42.4068 3.43194 -2.36692 0
M  V30 445 H 41.0668 2.98463 -1.27867 0
M  V30 446 H 42.0778 1.90672 -4.81523 0
M  V30 447 H 38.7548 3.25485 -2.61469 0
M  V30 448 H 40.1448 1.9344 -6.43452 0
M  V30 449 N 42.8649 1.48995 0.513639 0
M  V30 450 C 43.7949 1.67636 1.62544 0
M  V30 451 C 44.7759 0.525087 1.61793 0
M  V30 452 O 45.9609 0.759502 1.78732 0
M  V30 453 C 43.0909 1.73114 3.01079 0
M  V30 454 C 42.0449 2.87905 3.16693 0
M  V30 455 C 41.3709 2.78486 4.56453 0
M  V30 456 C 42.6709 4.29005 2.97913 0
M  V30 457 H 44.3649 2.60716 1.47198 0
M  V30 458 H 41.9109 1.25465 0.706714 0
M  V30 459 H 43.8639 1.84742 3.78746 0
M  V30 460 H 42.5879 0.766241 3.17484 0
M  V30 461 H 41.2469 2.75859 2.41448 0
M  V30 462 H 40.8949 1.7993 4.69717 0
M  V30 463 H 40.5949 3.55523 4.67843 0
M  V30 464 H 42.1189 2.92104 5.36197 0
M  V30 465 H 43.5329 4.41798 3.65359 0
M  V30 466 H 41.9299 5.07166 3.20785 0
M  V30 467 H 42.9999 4.44329 1.94165 0
M  V30 468 N 44.343 -0.763751 1.37857 0
M  V30 469 C 45.589 -1.52483 1.33704 0
M  V30 470 C 45.922 -1.94051 -0.0759612 0
M  V30 471 O 45.197 -1.64675 -1.03501 0
M  V30 472 C 45.48 -2.78441 2.28348 0
M  V30 473 C 45.333 -2.43075 3.78463 0
M  V30 474 C 46.652 -3.80415 2.21298 0
M  V30 475 H 43.771 -0.553169 0.487005 0
M  V30 476 H 46.413 -0.875562 1.68624 0
M  V30 477 H 44.563 -3.33842 1.987 0
M  V30 478 H 46.235 -1.93527 4.18742 0
M  V30 479 H 44.478 -1.75666 3.96641 0
M  V30 480 H 45.149 -3.33149 4.40132 0
M  V30 481 H 47.625 -3.34527 2.47449 0
M  V30 482 H 46.501 -4.66257 2.89647 0
M  V30 483 H 46.762 -4.25262 1.20849 0
M  V30 484 N 45.8211 -1.22559 -0.990812 0
M  V30 485 C 46.7681 -0.997519 -2.0813 0
M  V30 486 C 47.7381 0.0814702 -1.659 0
M  V30 487 O 48.9231 -0.0685424 -1.90677 0
M  V30 488 C 46.0631 -0.583615 -3.40129 0
M  V30 489 C 45.1761 -1.7336 -3.9569 0
M  V30 490 C 44.3111 -1.26748 -5.15857 0
M  V30 491 C 43.3501 -2.38888 -5.63559 0
M  V30 492 N 42.4871 -1.93308 -6.74964 0
M  V30 493 H 47.3271 -1.93099 -2.26973 0
M  V30 494 H 44.8641 -0.962114 -1.11273 0
M  V30 495 H 46.8221 -0.324801 -4.15934 0
M  V30 496 H 45.4521 0.312845 -3.2128 0
M  V30 497 H 44.5041 -2.10669 -3.16738 0
M  V30 498 H 45.8161 -2.57704 -4.27071 0
M  V30 499 H 44.9701 -0.966173 -5.98957 0
M  V30 500 H 43.7091 -0.394272 -4.86104 0
M  V30 501 H 42.7141 -2.69805 -4.79046 0
M  V30 502 H 43.9391 -3.26728 -5.95336 0
M  V30 503 H 41.8851 -1.08352 -6.4699 0
M  V30 504 H 41.8021 -2.71217 -7.05675 0
M  V30 505 H 43.0701 -1.66252 -7.61564 0
M  V30 506 N 47.2992 1.18797 -1.03562 0
M  V30 507 C 48.5452 1.8893 -0.737113 0
M  V30 508 C 48.8782 1.79837 0.732956 0
M  V30 509 O 48.1532 1.19525 1.5344 0
M  V30 510 C 48.4362 3.39607 -1.19745 0
M  V30 511 C 48.2892 3.57537 -2.72924 0
M  V30 512 C 49.6082 4.33069 -0.783526 0
M  V30 513 H 46.7272 0.686057 -0.269249 0
M  V30 514 H 49.3692 1.39797 -1.28673 0
M  V30 515 H 47.5192 3.81583 -0.729855 0
M  V30 516 H 49.1912 3.24688 -3.27682 0
M  V30 517 H 47.4342 3.00363 -3.12993 0
M  V30 518 H 48.1052 4.63238 -3.00191 0
M  V30 519 H 50.5812 3.98846 -1.18581 0
M  V30 520 H 49.4572 5.3707 -1.13343 0
M  V30 521 H 49.7182 4.40986 0.313681 0
M  V30 522 N 48.7773 0.814389 1.34928 0
M  V30 523 C 50.0073 0.41054 2.0248 0
M  V30 524 C 50.4153 -0.985625 1.61499 0
M  V30 525 O 49.7583 -1.64781 0.811976 0
M  V30 526 C 49.8203 0.423384 3.56998 0
M  V30 527 C 49.4843 1.77141 4.21272 0
M  V30 528 C 50.4813 2.73093 4.42398 0
M  V30 529 C 48.1663 2.05755 4.58225 0
M  V30 530 C 50.1603 3.95838 4.9959 0
M  V30 531 C 47.8473 3.28762 5.1513 0
M  V30 532 C 48.8453 4.23621 5.35755 0
M  V30 533 O 48.5333 5.44456 5.91458 0
M  V30 534 H 48.2653 0.163997 0.655806 0
M  V30 535 H 50.8193 1.10155 1.73364 0
M  V30 536 H 49.0493 -0.324276 3.85338 0
M  V30 537 H 50.7383 0.0407683 4.0588 0
M  V30 538 H 51.5043 2.5228 4.14222 0
M  V30 539 H 47.3833 1.32727 4.4148 0
M  V30 540 H 50.9273 4.69891 5.15605 0
M  V30 541 H 46.8243 3.49443 5.42734 0
M  V30 542 H 47.5923 5.4586 6.09901 0
M  V30 543 N 50.2554 -1.46986 0.568584 0
M  V30 544 C 51.5324 -1.95592 -0.0174074 0
M  V30 545 C 51.9124 -1.51124 -1.47393 0
M  V30 546 O 51.2604 -0.755329 -2.15655 0
M  V30 547 C 51.4704 -3.48719 0.139913 0
M  V30 548 C 52.8184 -4.246 0.000426376 0
M  V30 549 O 53.8424 -3.56135 0.0680316 0
M  V30 550 O 52.7014 -5.46302 -0.146988 0
M  V30 551 H 49.7954 -0.82498 -0.0577599 0
M  V30 552 H 52.3414 -1.57335 0.635909 0
M  V30 553 H 51.1134 -3.73927 1.15301 0
M  V30 554 H 50.7364 -3.93771 -0.550491 0
M  V30 555 N 51.7335 -0.305618 -1.54608 0
M  V30 556 C 52.9635 0.304333 -2.04346 0
M  V30 557 C 53.3715 1.47715 -1.18224 0
M  V30 558 O 52.7145 1.82591 -0.201577 0
M  V30 559 C 52.7765 0.819031 -3.50046 0
M  V30 560 C 52.4405 -0.22912 -4.56425 0
M  V30 561 C 53.4375 -1.05914 -5.08997 0
M  V30 562 C 51.1225 -0.372148 -5.0092 0
M  V30 563 C 53.1165 -2.01809 -6.04609 0
M  V30 564 C 50.8035 -1.33454 -5.9635 0
M  V30 565 C 51.8015 -2.15599 -6.48079 0
M  V30 566 O 51.4895 -3.10205 -7.41639 0
M  V30 567 H 51.2215 0.0693996 -0.672428 0
M  V30 568 H 53.7755 -0.444548 -2.00532 0
M  V30 569 H 52.0055 1.61852 -3.51199 0
M  V30 570 H 53.6945 1.34537 -3.82955 0
M  V30 571 H 54.4605 -0.959538 -4.75413 0
M  V30 572 H 50.3395 0.257304 -4.60281 0
M  V30 573 H 53.8835 -2.65966 -6.44909 0
M  V30 574 H 49.7805 -1.43485 -6.29351 0
M  V30 575 H 50.5485 -3.05237 -7.59455 0
M  V30 576 N 53.2116 1.57565 -0.0334293 0
M  V30 577 C 54.1436 2.0739 0.975811 0
M  V30 578 C 55.1566 0.998166 1.2861 0
M  V30 579 O 56.3456 1.27426 1.25 0
M  V30 580 C 53.4456 2.4871 2.30209 0
M  V30 581 C 52.6186 3.79413 2.17634 0
M  V30 582 C 51.6776 4.07237 3.33233 0
M  V30 583 O 50.7036 4.77425 3.09927 0
M  V30 584 N 51.9056 3.5775 4.5716 0
M  V30 585 H 54.6706 2.94598 0.55066 0
M  V30 586 H 52.2316 1.61173 0.15323 0
M  V30 587 H 54.2236 2.64413 3.06378 0
M  V30 588 H 52.7936 1.66845 2.64351 0
M  V30 589 H 52.0136 3.73465 1.26165 0
M  V30 590 H 53.3016 4.65038 2.0644 0
M  V30 591 H 52.6996 3.00976 4.78989 0
M  V30 592 H 51.2566 3.78724 5.30482 0
M  V30 593 N 54.6897 -0.239769 1.55765 0
M  V30 594 C 55.5997 -1.31831 1.94056 0
M  V30 595 C 56.6157 -1.52275 0.841925 0
M  V30 596 O 57.7917 -1.65759 1.14394 0
M  V30 597 C 54.8567 -2.65156 2.23368 0
M  V30 598 C 53.9177 -2.53173 3.46701 0
M  V30 599 C 53.1507 -3.8014 3.74606 0
M  V30 600 O 53.3737 -4.82343 3.04469 0
M  V30 601 O 52.3077 -3.78344 4.68123 0
M  V30 602 H 56.1337 -1.02347 2.85935 0
M  V30 603 H 53.7187 -0.441123 1.42739 0
M  V30 604 H 55.6007 -3.43929 2.43497 0
M  V30 605 H 54.2757 -2.94358 1.34666 0
M  V30 606 H 53.1827 -1.72662 3.31871 0
M  V30 607 H 54.5157 -2.28915 4.35728 0
M  V30 608 N 56.1678 -1.49265 -0.50573 0
M  V30 609 C 57.4448 -1.49012 -1.26707 0
M  V30 610 C 57.8248 -0.215205 -2.1 0
M  V30 611 O 57.1728 0.802547 -2.13943 0
M  V30 612 C 57.3828 -2.7663 -2.12783 0
M  V30 613 C 58.7308 -3.25932 -2.72127 0
M  V30 614 O 59.7548 -2.77715 -2.23054 0
M  V30 615 O 58.6138 -4.09897 -3.61451 0
M  V30 616 H 55.7078 -0.596197 -0.57313 0
M  V30 617 H 58.2538 -1.61524 -0.52039 0
M  V30 618 H 57.0258 -3.60916 -1.5118 0
M  V30 619 H 56.6488 -2.66956 -2.94653 0
M  V30 620 N 57.6459 0.756429 -1.3826 0
M  V30 621 C 58.8939 1.51248 -1.34047 0
M  V30 622 C 59.2149 1.94875 0.0698372 0
M  V30 623 O 58.4849 1.67436 1.01696 0
M  V30 624 H 57.0649 0.561018 -0.493222 0
M  V30 625 H 59.7269 0.899347 -1.7291 0
M  V30 626 H 58.8229 2.40472 -1.98947 0
M  V30 627 N 59.124 1.23083 0.984299 0
M  V30 628 C 60.349 1.088 1.76571 0
M  V30 629 C 60.774 -0.356657 1.84688 0
M  V30 630 O 60.132 -1.25788 1.30565 0
M  V30 631 C 60.18 1.71371 3.17277 0
M  V30 632 O 59.284 0.973213 4.00752 0
M  V30 633 H 58.625 0.381599 0.543395 0
M  V30 634 H 61.155 1.63057 1.23587 0
M  V30 635 H 61.165 1.76449 3.67872 0
M  V30 636 H 59.84 2.76493 3.10684 0
M  V30 637 H 58.417 0.999078 3.59267 0
M  V30 638 N 60.6021 -1.18246 1.0419 0
M  V30 639 C 61.8481 -1.88536 0.747122 0
M  V30 640 C 62.1811 -1.80223 -0.723409 0
M  V30 641 O 61.4561 -1.20337 -1.52804 0
M  V30 642 C 61.7391 -3.38968 1.21544 0
M  V30 643 C 61.5921 -3.56084 2.74816 0
M  V30 644 C 62.9111 -4.32648 0.806482 0
M  V30 645 H 60.0301 -0.684619 0.272883 0
M  V30 646 H 62.6721 -1.39113 1.29413 0
M  V30 647 H 60.8221 -3.8119 0.750081 0
M  V30 648 H 62.4941 -3.22946 3.29399 0
M  V30 649 H 60.7371 -2.98699 3.14582 0
M  V30 650 H 61.4081 -4.61639 3.02644 0
M  V30 651 H 63.8841 -3.98211 1.20695 0
M  V30 652 H 62.7601 -5.36462 1.1619 0
M  V30 653 H 63.0211 -4.41146 -0.29029 0
M  V30 654 N 62.0802 -0.821533 -1.34494 0
M  V30 655 C 63.0102 -0.257138 -2.3208 0
M  V30 656 C 63.9912 0.625645 -1.58176 0
M  V30 657 O 65.1762 0.552811 -1.86166 0
M  V30 658 C 62.3062 0.582958 -3.42372 0
M  V30 659 C 61.2602 -0.202571 -4.2752 0
M  V30 660 C 60.5862 0.760179 -5.29269 0
M  V30 661 C 61.8862 -1.40998 -5.02908 0
M  V30 662 H 63.5802 -1.07247 -2.79532 0
M  V30 663 H 61.1262 -0.517163 -1.34393 0
M  V30 664 H 63.0792 0.987972 -4.09655 0
M  V30 665 H 61.8032 1.43133 -2.93565 0
M  V30 666 H 60.4622 -0.588936 -3.61838 0
M  V30 667 H 60.1102 1.60447 -4.76724 0
M  V30 668 H 59.8102 0.238809 -5.87115 0
M  V30 669 H 61.3342 1.16308 -5.9942 0
M  V30 670 H 62.7482 -1.07905 -5.63054 0
M  V30 671 H 61.1452 -1.86689 -5.70322 0
M  V30 672 H 62.2152 -2.1889 -4.32684 0
M  V30 673 N 63.5583 1.46682 -0.576371 0
M  V30 674 C 64.4883 2.33028 0.148397 0
M  V30 675 C 65.4693 1.44961 0.889956 0
M  V30 676 O 66.6543 1.73789 0.866662 0
M  V30 677 C 63.7843 3.27117 1.1667 0
M  V30 678 C 62.7383 4.24575 0.540386 0
M  V30 679 C 62.0643 5.08126 1.6647 0
M  V30 680 C 63.3643 5.19722 -0.518331 0
M  V30 681 H 65.0583 2.93875 -0.572509 0
M  V30 682 H 62.6043 1.41315 -0.276768 0
M  V30 683 H 64.5573 3.86374 1.68204 0
M  V30 684 H 63.2813 2.64364 1.9178 0
M  V30 685 H 61.9403 3.66571 0.0461769 0
M  V30 686 H 61.5883 4.41762 2.40531 0
M  V30 687 H 61.2883 5.74122 1.25131 0
M  V30 688 H 62.8123 5.70246 2.18293 0
M  V30 689 H 64.2263 5.73232 -0.0883058 0
M  V30 690 H 62.6233 5.94026 -0.851679 0
M  V30 691 H 63.6933 4.64037 -1.40703 0
M  V30 692 N 65.0364 0.313813 1.54444 0
M  V30 693 C 66.2644 -0.293918 2.04802 0
M  V30 694 C 66.6794 -1.46537 1.19047 0
M  V30 695 O 66.0364 -1.81182 0.218939 0
M  V30 696 C 66.0874 -0.737806 3.53891 0
M  V30 697 O 65.8084 0.387038 4.36387 0
M  V30 698 C 67.3094 -1.40936 4.203 0
M  V30 699 H 64.5294 -0.0620057 0.668129 0
M  V30 700 H 67.0734 0.457169 1.99324 0
M  V30 701 H 65.2284 -1.43889 3.59687 0
M  V30 702 H 65.6424 0.0391274 5.24485 0
M  V30 703 H 67.1164 -1.67099 5.26101 0
M  V30 704 H 67.5934 -2.35355 3.70816 0
M  V30 705 H 68.1994 -0.751117 4.18615 0
M  V30 706 N 66.5145 -1.57545 0.0417849 0
M  V30 707 C 67.7545 -1.94185 -0.63809 0
M  V30 708 C 68.1185 -0.919339 -1.68559 0
M  V30 709 O 69.3195 -1.17236 -2.41886 0
M  V30 710 C 67.5905 -3.35672 -1.22714 0
M  V30 711 S 69.1495 -3.94256 -1.92633 0
M  V30 712 H 65.9675 -0.679353 -0.209764 0
M  V30 713 H 68.5695 -1.95199 0.108479 0
M  V30 714 H 67.2735 -4.07898 -0.452503 0
M  V30 715 H 66.8045 -3.38132 -2.01073 0
M  V30 716 H 68.8195 -3.7872 -3.20602 0
M  V30 717 N 67.9926 0.231505 -1.5589 0
M  V30 718 C 69.2696 0.981096 -1.69215 0
M  V30 719 C 69.6496 2.02799 -0.586164 0
M  V30 720 O 68.9976 2.24823 0.408253 0
M  V30 721 C 69.2076 1.60054 -3.10135 0
M  V30 722 C 70.5556 2.09658 -3.69227 0
M  V30 723 O 71.5796 1.69967 -3.13033 0
M  V30 724 O 70.4386 2.8258 -4.67772 0
M  V30 725 H 67.5326 0.457653 -0.688827 0
M  V30 726 H 70.0786 0.224073 -1.68214 0
M  V30 727 H 68.8506 0.844105 -3.82087 0
M  V30 728 H 68.4736 2.42336 -3.15212 0
M  V30 729 N 69.4707 1.49531 0.497807 0
M  V30 730 C 70.4337 1.65916 1.58128 0
M  V30 731 C 71.4337 0.530825 1.51786 0
M  V30 732 O 72.6237 0.797342 1.54881 0
M  V30 733 C 69.7557 1.65951 2.9778 0
M  V30 734 H 70.9487 2.62556 1.44929 0
M  V30 735 H 68.5017 1.38611 0.722275 0
M  V30 736 H 69.2367 0.709065 3.16453 0
M  V30 737 H 69.0217 2.47897 3.03792 0
M  V30 738 H 70.5117 1.80673 3.76493 0
M  V30 739 N 70.9488 -0.749086 1.3866 0
M  V30 740 C 71.8588 -1.89358 1.38494 0
M  V30 741 C 72.8748 -1.71708 0.281476 0
M  V30 742 O 74.0508 -1.94554 0.520643 0
M  V30 743 C 71.1158 -3.24782 1.21316 0
M  V30 744 C 70.1768 -3.54926 2.41508 0
M  V30 745 C 69.4098 -4.83888 2.2514 0
M  V30 746 O 69.6328 -5.56592 1.24746 0
M  V30 747 O 68.5668 -5.13612 3.13826 0
M  V30 748 H 72.3928 -1.92452 2.34938 0
M  V30 749 H 69.9778 -0.894981 1.19626 0
M  V30 750 H 71.8598 -4.05739 1.13814 0
M  V30 751 H 70.5348 -3.2249 0.279592 0
M  V30 752 H 69.4418 -2.74112 2.54585 0
M  V30 753 H 70.7748 -3.61983 3.3351 0
M  V30 754 N 72.4269 -1.23603 -0.977757 0
M  V30 755 C 73.3899 -1.02069 -2.05218 0
M  V30 756 C 74.3899 0.0184305 -1.60789 0
M  V30 757 O 75.5799 -0.221569 -1.72785 0
M  V30 758 C 72.7119 -0.544926 -3.36517 0
M  V30 759 H 73.9049 -1.9742 -2.25755 0
M  V30 760 H 71.4579 -1.05684 -1.15155 0
M  V30 761 H 72.1929 0.412241 -3.21669 0
M  V30 762 H 71.9779 -1.2948 -3.70105 0
M  V30 763 H 73.4679 -0.414985 -4.15533 0
M  V30 764 N 73.905 1.17692 -1.04816 0
M  V30 765 C 74.852 2.21581 -0.645797 0
M  V30 766 C 75.822 1.62367 0.350159 0
M  V30 767 O 77.007 1.89254 0.242433 0
M  V30 768 C 74.147 3.45092 -0.0227568 0
M  V30 769 C 73.26 4.18613 -1.06709 0
M  V30 770 C 72.395 5.29602 -0.411767 0
M  V30 771 C 71.434 5.94904 -1.44067 0
M  V30 772 N 70.571 6.97414 -0.809781 0
M  V30 773 H 75.411 2.55353 -1.5362 0
M  V30 774 H 72.948 1.25438 -0.768364 0
M  V30 775 H 74.906 4.15679 0.35588 0
M  V30 776 H 73.536 3.11917 0.831122 0
M  V30 777 H 72.588 3.46779 -1.5636 0
M  V30 778 H 73.9 4.63293 -1.84827 0
M  V30 779 H 73.054 6.06696 0.0206623 0
M  V30 780 H 71.793 4.86045 0.401438 0
M  V30 781 H 70.798 5.16544 -1.88316 0
M  V30 782 H 72.023 6.40542 -2.25571 0
M  V30 783 H 69.969 6.55998 -0.0170186 0
M  V30 784 H 69.886 7.40386 -1.52856 0
M  V30 785 H 71.154 7.78463 -0.401999 0
M  V30 786 N 75.3831 0.828654 1.34056 0
M  V30 787 C 76.3311 0.242973 2.31327 0
M  V30 788 C 77.3251 -0.61944 1.57668 0
M  V30 789 O 78.5311 -0.51014 1.7262 0
M  V30 790 H 74.9061 0.059834 0.749616 0
M  V30 791 H 76.8771 1.07809 2.78244 0
M  V30 792 C 75.6261 -0.575733 3.429 0
M  V30 793 H 74.9491 0.0785582 3.99723 0
M  V30 794 H 76.3891 -0.951547 4.13185 0
M  V30 795 C 74.8481 -1.75044 2.87856 0
M  V30 796 O 75.3781 -2.84882 2.83205 0
M  V30 797 N 73.5841 -1.56903 2.44602 0
M  V30 798 H 73.1311 -0.675547 2.48584 0
M  V30 799 H 73.0891 -2.35652 2.08124 0
M  V30 800 N 76.8612 -1.46375 0.584142 0
M  V30 801 C 78.1102 -2.01585 0.0679741 0
M  V30 802 C 78.4232 -1.46109 -1.30045 0
M  V30 803 O 79.6292 -1.93148 -1.90804 0
M  V30 804 C 78.0852 -3.5983 0.0709207 0
M  V30 805 C 77.6932 -4.24303 1.43775 0
M  V30 806 C 79.4372 -4.22693 -0.391228 0
M  V30 807 C 77.3442 -5.74631 1.39834 0
M  V30 808 H 76.2742 -0.753689 0.0216421 0
M  V30 809 H 78.9252 -1.68093 0.736001 0
M  V30 810 H 77.3072 -3.90405 -0.663299 0
M  V30 811 H 78.4812 -4.05335 2.19181 0
M  V30 812 H 76.7962 -3.73539 1.84004 0
M  V30 813 H 79.3932 -5.3289 -0.439524 0
M  V30 814 H 79.7362 -3.91728 -1.40906 0
M  V30 815 H 80.2692 -3.96749 0.288974 0
M  V30 816 H 77.0082 -6.10258 2.39303 0
M  V30 817 H 76.5282 -5.95858 0.686505 0
M  V30 818 H 78.2072 -6.37375 1.11187 0
M  V30 819 N 78.3393 -0.321999 -1.54275 0
M  V30 820 C 79.5673 0.283052 -2.04955 0
M  V30 821 C 79.9823 1.45904 -1.19823 0
M  V30 822 O 79.3393 1.81063 -0.228545 0
M  V30 823 C 79.3903 0.719028 -3.54277 0
M  V30 824 O 79.1113 -0.410175 -4.36176 0
M  V30 825 C 80.6123 1.38705 -4.21041 0
M  V30 826 H 77.8323 0.0584616 -0.668448 0
M  V30 827 H 80.3763 -0.467734 -1.99079 0
M  V30 828 H 78.5313 1.41979 -3.60445 0
M  V30 829 H 78.9453 -0.0669416 -5.24457 0
M  V30 830 H 80.4193 1.64306 -5.2698 0
M  V30 831 H 80.8963 2.33385 -3.72059 0
M  V30 832 H 81.5023 0.728906 -4.19007 0
M  V30 833 N 79.8174 1.5752 -0.0501392 0
M  V30 834 C 81.0634 1.93755 0.618901 0
M  V30 835 C 81.4184 0.928514 1.68512 0
M  V30 836 O 80.7114 -0.0524613 1.91528 0
M  V30 837 C 80.9054 3.34467 1.25963 0
M  V30 838 C 80.7344 4.48965 0.257 0
M  V30 839 C 79.5044 5.05075 -0.150656 0
M  V30 840 C 81.7024 5.11891 -0.497166 0
M  V30 841 N 79.6844 6.03104 -1.14626 0
M  V30 842 C 81.0554 6.05216 -1.34588 0
M  V30 843 C 83.1104 4.9479 -0.55559 0
M  V30 844 C 81.8134 6.83277 -2.24778 0
M  V30 845 C 83.8394 5.73477 -1.44492 0
M  V30 846 C 83.2014 6.66433 -2.28136 0
M  V30 847 H 79.3004 0.756479 0.198149 0
M  V30 848 H 81.8844 1.94316 -0.122229 0
M  V30 849 H 80.0554 3.34685 1.97079 0
M  V30 850 H 81.7874 3.57994 1.88739 0
M  V30 851 H 78.5424 4.7305 0.228094 0
M  V30 852 H 78.9664 6.56813 -1.64092 0
M  V30 853 H 83.6084 4.2273 0.0768625 0
M  V30 854 H 81.3264 7.54629 -2.89069 0
M  V30 855 H 84.9124 5.62273 -1.49468 0
M  V30 856 H 83.7924 7.26258 -2.95835 0
M  V30 857 N 81.2955 -0.223234 1.56011 0
M  V30 858 C 82.5425 -0.947875 1.78946 0
M  V30 859 C 82.8705 -1.844 0.618608 0
M  V30 860 O 82.1255 -1.91629 -0.397093 0
M  V30 861 C 82.4245 -1.81948 3.0762 0
M  V30 862 C 82.0905 -1.07672 4.37856 0
M  V30 863 C 80.7525 -0.871544 4.73242 0
M  V30 864 C 83.1045 -0.552081 5.18268 0
M  V30 865 C 80.4325 -0.129791 5.86556 0
M  V30 866 C 82.7845 0.17632 6.32354 0
M  V30 867 C 81.4485 0.39277 6.66343 0
M  V30 868 H 80.7185 -0.346852 0.654809 0
M  V30 869 H 83.3655 -0.216171 1.90276 0
M  V30 870 H 81.6705 -2.61899 2.91404 0
M  V30 871 H 83.3675 -2.38227 3.22566 0
M  V30 872 H 79.9575 -1.24662 4.1007 0
M  V30 873 H 84.1415 -0.698076 4.91366 0
M  V30 874 H 79.3975 0.048153 6.11381 0
M  V30 875 H 83.5715 0.590367 6.93893 0
M  V30 876 H 81.1985 0.969466 7.53993 0
M  V30 877 N 82.7736 -1.49793 -0.48987 0
M  V30 878 C 83.7206 -1.67281 -1.59014 0
M  V30 879 C 84.6906 -0.514177 -1.57941 0
M  V30 880 O 85.8756 -0.742533 -1.75759 0
M  V30 881 C 83.0156 -1.75569 -2.97102 0
M  V30 882 C 82.1286 -3.0281 -3.08107 0
M  V30 883 C 81.2636 -3.02008 -4.36995 0
M  V30 884 C 80.3026 -4.23782 -4.41673 0
M  V30 885 N 79.4396 -4.20826 -5.62005 0
M  V30 886 H 84.2796 -2.61224 -1.43409 0
M  V30 887 H 81.8166 -1.29508 -0.697565 0
M  V30 888 H 83.7746 -1.78354 -3.77155 0
M  V30 889 H 82.4046 -0.850827 -3.11385 0
M  V30 890 H 81.4566 -3.09584 -2.21047 0
M  V30 891 H 82.7686 -3.92801 -3.07423 0
M  V30 892 H 81.9226 -3.03418 -5.25378 0
M  V30 893 H 80.6616 -2.09815 -4.4026 0
M  V30 894 H 79.6666 -4.22604 -3.5169 0
M  V30 895 H 80.8916 -5.17181 -4.40115 0
M  V30 896 H 78.8376 -3.31476 -5.66091 0
M  V30 897 H 78.7546 -5.04564 -5.62984 0
M  V30 898 H 80.0226 -4.26355 -6.52565 0
M  V30 899 N 84.2517 0.741722 -1.39055 0
M  V30 900 C 85.5287 1.49252 -1.26425 0
M  V30 901 C 85.9087 2.10705 0.129144 0
M  V30 902 O 85.2567 1.98045 1.13976 0
M  V30 903 C 85.4667 2.54934 -2.38347 0
M  V30 904 C 86.8147 3.21506 -2.77343 0
M  V30 905 O 87.8387 2.65245 -2.37747 0
M  V30 906 O 86.6977 4.23294 -3.45665 0
M  V30 907 H 83.7917 0.662451 -0.495064 0
M  V30 908 H 86.3377 0.776121 -1.50912 0
M  V30 909 H 85.1097 2.07857 -3.31529 0
M  V30 910 H 84.7327 3.34141 -2.15489 0
M  V30 911 N 85.7298 1.2412 0.971189 0
M  V30 912 C 86.9778 1.07668 1.71032 0
M  V30 913 C 87.2988 -0.385797 1.91146 0
M  V30 914 O 86.5688 -1.27569 1.4867 0
M  V30 915 H 85.1488 0.395429 0.633755 0
M  V30 916 H 87.8108 1.55984 1.16855 0
M  V30 917 H 86.9068 1.57195 2.69622 0
M  V30 918 N 87.2079 -1.17134 1.05439 0
M  V30 919 C 88.1549 -2.21235 0.657539 0
M  V30 920 C 89.1249 -1.62551 -0.341543 0
M  V30 921 O 90.3099 -1.89379 -0.232393 0
M  V30 922 C 87.4499 -3.45076 0.0410575 0
M  V30 923 C 86.5629 -4.18042 1.08927 0
M  V30 924 C 85.6979 -5.29376 0.439848 0
M  V30 925 C 84.7369 -5.94132 1.4722 0
M  V30 926 N 83.8739 -6.96975 0.846756 0
M  V30 927 H 88.7139 -2.54534 1.54972 0
M  V30 928 H 86.2509 -1.25028 0.775006 0
M  V30 929 H 88.2089 -4.15862 -0.33383 0
M  V30 930 H 86.8389 -3.12353 -0.814568 0
M  V30 931 H 85.8909 -3.45945 1.58196 0
M  V30 932 H 87.2029 -4.62306 1.87282 0
M  V30 933 H 86.3569 -6.06699 0.0115125 0
M  V30 934 H 85.0959 -4.86251 -0.375656 0
M  V30 935 H 84.1009 -5.15538 1.91052 0
M  V30 936 H 85.3259 -6.39337 2.28965 0
M  V30 937 H 83.2719 -6.5598 0.0518075 0
M  V30 938 H 83.1889 -7.39565 1.5678 0
M  V30 939 H 84.4569 -7.78239 0.443277 0
M  V30 940 N 88.686 -0.835752 -1.33615 0
M  V30 941 C 89.619 -0.211815 -2.27215 0
M  V30 942 C 90.597 0.639249 -1.49507 0
M  V30 943 O 91.781 0.600193 -1.78689 0
M  V30 944 C 88.908 0.702893 -3.31326 0
M  V30 945 C 87.954 -0.0723049 -4.26439 0
M  V30 946 S 88.787 -1.42811 -5.16106 0
M  V30 947 C 89.943 -0.518613 -6.23748 0
M  V30 948 H 90.176 -1.00533 -2.79786 0
M  V30 949 H 87.709 -0.632336 -1.40858 0
M  V30 950 H 89.667 1.22505 -3.91794 0
M  V30 951 H 88.328 1.47004 -2.77576 0
M  V30 952 H 87.521 0.62359 -5.00127 0
M  V30 953 H 87.123 -0.525424 -3.70291 0
M  V30 954 H 89.415 0.284778 -6.76901 0
M  V30 955 H 90.358 -1.22556 -6.97413 0
M  V30 956 H 90.766 -0.101344 -5.64409 0
M  V30 957 N 90.1641 1.46063 -0.591896 0
M  V30 958 C 91.4131 2.01547 -0.0786637 0
M  V30 959 C 91.7261 1.46796 1.29268 0
M  V30 960 O 92.9321 1.94157 1.89777 0
M  V30 961 C 91.3881 3.59787 -0.0900024 0
M  V30 962 C 90.9961 4.23534 -1.46023 0
M  V30 963 C 92.7401 4.22895 0.368806 0
M  V30 964 C 90.6471 5.73881 -1.4288 0
M  V30 965 H 89.5771 0.753564 -0.0256388 0
M  V30 966 H 92.2281 1.677 -0.744905 0
M  V30 967 H 90.6101 3.90752 0.642586 0
M  V30 968 H 91.7841 4.04167 -2.21328 0
M  V30 969 H 90.0991 3.72558 -1.85982 0
M  V30 970 H 92.6961 5.33116 0.411258 0
M  V30 971 H 93.0391 3.9247 1.38827 0
M  V30 972 H 93.5721 3.9659 -0.31001 0
M  V30 973 H 90.3111 6.0898 -2.42536 0
M  V30 974 H 89.8311 5.95486 -0.718095 0
M  V30 975 H 91.5101 6.36776 -1.14565 0
M  V30 976 N 91.6422 0.330177 1.54103 0
M  V30 977 C 92.8902 -0.269871 2.0029 0
M  V30 978 C 93.2112 -1.52133 1.21986 0
M  V30 979 O 92.4812 -1.93212 0.323438 0
M  V30 980 H 91.0612 -0.10271 0.739905 0
M  V30 981 H 93.7232 0.448249 1.89675 0
M  V30 982 H 92.8192 -0.52166 3.07709 0
M  V30 983 N 93.1203 -1.57491 0.0584922 0
M  V30 984 C 94.3673 -1.92978 -0.613648 0
M  V30 985 C 94.6953 -0.937461 -1.70417 0
M  V30 986 O 93.9503 0.049078 -1.95638 0
M  V30 987 C 94.2493 -3.3513 -1.24188 0
M  V30 988 C 93.9153 -4.50037 -0.278826 0
M  V30 989 C 92.5773 -4.81198 -0.0138447 0
M  V30 990 C 94.9293 -5.19807 0.380777 0
M  V30 991 C 92.2573 -5.79473 0.918052 0
M  V30 992 C 94.6093 -6.19079 1.30091 0
M  V30 993 C 93.2733 -6.48665 1.57449 0
M  V30 994 H 92.5433 -0.706157 -0.22455 0
M  V30 995 H 95.1903 -1.91082 0.126533 0
M  V30 996 H 93.4953 -3.33429 -2.05749 0
M  V30 997 H 95.1923 -3.59871 -1.769 0
M  V30 998 H 91.7823 -4.25726 -0.495539 0
M  V30 999 H 95.9663 -4.95939 0.189158 0
M  V30 1000 H 91.2223 -6.00727 1.1374 0
M  V30 1001 H 95.3963 -6.7225 1.81804 0
M  V30 1002 H 93.0233 -7.24628 2.29822 0
M  V30 1003 N 94.5984 0.214957 -1.56127 0
M  V30 1004 C 95.5284 1.2695 -1.95974 0
M  V30 1005 C 96.5094 1.48539 -0.828868 0
M  V30 1006 O 97.6944 1.60611 -1.09168 0
M  V30 1007 C 94.8244 2.61794 -2.28214 0
M  V30 1008 C 93.7784 2.54851 -3.43853 0
M  V30 1009 C 93.1044 3.93785 -3.61715 0
M  V30 1010 C 94.4044 2.09065 -4.78632 0
M  V30 1011 H 96.0984 0.93846 -2.84312 0
M  V30 1012 H 93.6444 0.449996 -1.36788 0
M  V30 1013 H 95.5974 3.35731 -2.54682 0
M  V30 1014 H 94.3214 2.96599 -1.36736 0
M  V30 1015 H 92.9804 1.8337 -3.17444 0
M  V30 1016 H 92.6284 4.25908 -2.67602 0
M  V30 1017 H 92.3284 3.90019 -4.39498 0
M  V30 1018 H 93.8524 4.69374 -3.90539 0
M  V30 1019 H 95.2664 2.7275 -5.04262 0
M  V30 1020 H 93.6634 2.16346 -5.59745 0
M  V30 1021 H 94.7334 1.04315 -4.73547 0
M  V30 1022 N 96.0765 1.50051 0.48192 0
M  V30 1023 C 97.3045 1.64237 1.25832 0
M  V30 1024 C 97.7195 0.321336 1.86045 0
M  V30 1025 O 97.0765 -0.695478 1.68729 0
M  V30 1026 C 97.1275 2.72548 2.37487 0
M  V30 1027 O 96.8485 3.99529 1.79745 0
M  V30 1028 C 98.3495 2.9761 3.28547 0
M  V30 1029 H 95.5695 0.55237 0.380957 0
M  V30 1030 H 98.1135 1.96207 0.576467 0
M  V30 1031 H 96.2685 2.43303 3.01467 0
M  V30 1032 H 96.6825 4.59342 2.5319 0
M  V30 1033 H 98.1565 3.77084 4.03127 0
M  V30 1034 H 98.6335 2.0826 3.86684 0
M  V30 1035 H 99.2395 3.28345 2.70314 0
M  V30 1036 N 97.5546 -0.734337 1.39446 0
M  V30 1037 C 98.4646 -1.87879 1.40495 0
M  V30 1038 C 99.4806 -1.714 0.299672 0
M  V30 1039 O 100.657 -1.93991 0.541249 0
M  V30 1040 C 97.7216 -3.23477 1.24754 0
M  V30 1041 C 96.7826 -3.52344 2.45259 0
M  V30 1042 C 96.0156 -4.81473 2.30259 0
M  V30 1043 O 96.2386 -5.55237 1.30643 0
M  V30 1044 O 95.1726 -5.10254 3.19256 0
M  V30 1045 H 98.9986 -1.89949 2.36966 0
M  V30 1046 H 96.5836 -0.882243 1.20569 0
M  V30 1047 H 98.4656 -4.04509 1.18111 0
M  V30 1048 H 97.1406 -3.22176 0.313781 0
M  V30 1049 H 96.0476 -2.71396 2.57478 0
M  V30 1050 H 97.3806 -3.58426 3.37331 0
M  V30 1051 N 99.0327 -1.24633 -0.964593 0
M  V30 1052 C 100.31 -0.995809 -1.68354 0
M  V30 1053 C 100.69 0.480964 -2.05548 0
M  V30 1054 O 100.038 1.45599 -1.76105 0
M  V30 1055 C 100.248 -1.92177 -2.91323 0
M  V30 1056 C 101.596 -2.19446 -3.63495 0
M  V30 1057 O 102.62 -1.89855 -3.01386 0
M  V30 1058 O 101.479 -2.69714 -4.75307 0
M  V30 1059 H 98.5727 -0.376854 -0.736146 0
M  V30 1060 H 101.119 -1.35745 -1.0184 0
M  V30 1061 H 99.8907 -2.91938 -2.60553 0
M  V30 1062 H 99.5137 -1.56349 -3.65569 0
M  V30 1063 N 100.511 1.16574 -1.06058 0
M  V30 1064 C 101.458 2.20883 -0.669263 0
M  V30 1065 C 102.428 1.62729 0.332918 0
M  V30 1066 O 103.613 1.895 0.222346 0
M  V30 1067 C 100.753 3.45049 -0.0593572 0
M  V30 1068 C 99.8658 4.17458 -1.11143 0
M  V30 1069 C 99.0008 5.29135 -0.467916 0
M  V30 1070 C 98.0398 5.93343 -1.50369 0
M  V30 1071 N 97.1768 6.96516 -0.883706 0
M  V30 1072 H 102.017 2.53709 -1.5632 0
M  V30 1073 H 99.5538 1.24616 -0.781625 0
M  V30 1074 H 101.512 4.16033 0.311771 0
M  V30 1075 H 100.142 3.12781 0.797992 0
M  V30 1076 H 99.1938 3.45101 -1.60029 0
M  V30 1077 H 100.506 4.61307 -1.89731 0
M  V30 1078 H 99.6598 6.06684 -0.0436871 0
M  V30 1079 H 98.3988 4.86443 0.349864 0
M  V30 1080 H 97.4038 5.14517 -1.93784 0
M  V30 1081 H 98.6288 6.38114 -2.32352 0
M  V30 1082 H 96.5748 6.55943 -0.086595 0
M  V30 1083 H 96.4918 7.38723 -1.607 0
M  V30 1084 H 97.7598 7.77993 -0.484543 0
M  V30 1085 N 101.989 0.842826 1.3317 0
M  V30 1086 C 102.936 0.276885 2.29133 0
M  V30 1087 C 103.906 -0.609527 1.54512 0
M  V30 1088 O 105.091 -0.546955 1.82792 0
M  V30 1089 C 102.231 -0.538707 3.40869 0
M  V30 1090 C 101.344 0.372169 4.30394 0
M  V30 1091 C 100.479 -0.454908 5.29249 0
M  V30 1092 C 99.5179 0.45411 6.10413 0
M  V30 1093 N 98.6549 -0.335075 7.013 0
M  V30 1094 H 103.495 1.10052 2.76934 0
M  V30 1095 H 101.032 0.554161 1.36262 0
M  V30 1096 H 102.99 -1.02709 4.0436 0
M  V30 1097 H 101.62 -1.32727 2.9425 0
M  V30 1098 H 100.672 0.97888 3.6759 0
M  V30 1099 H 101.984 1.0703 4.87182 0
M  V30 1100 H 101.138 -1.00695 5.98285 0
M  V30 1101 H 99.8769 -1.18646 4.73048 0
M  V30 1102 H 98.8819 1.01813 5.40291 0
M  V30 1103 H 100.107 1.18409 6.68697 0
M  V30 1104 H 98.0529 -1.04994 6.47543 0
M  V30 1105 H 97.9699 0.304262 7.55387 0
M  V30 1106 H 99.2379 -0.869224 7.74638 0
M  V30 1107 N 103.467 -1.45747 0.599634 0
M  V30 1108 C 104.414 -2.30467 -0.123849 0
M  V30 1109 C 105.384 -1.41632 -0.86774 0
M  V30 1110 O 106.569 -1.70568 -0.855056 0
M  V30 1111 C 103.709 -3.26402 -1.12051 0
M  V30 1112 C 102.822 -4.3034 -0.37832 0
M  V30 1113 C 101.957 -5.13389 -1.364 0
M  V30 1114 C 100.996 -6.09061 -0.609171 0
M  V30 1115 N 100.133 -6.84918 -1.54374 0
M  V30 1116 H 104.973 -2.91802 0.604627 0
M  V30 1117 H 102.51 -1.43797 0.309972 0
M  V30 1118 H 104.468 -3.80482 -1.7114 0
M  V30 1119 H 103.098 -2.66839 -1.8165 0
M  V30 1120 H 102.15 -3.78984 0.327929 0
M  V30 1121 H 103.462 -4.98354 0.210997 0
M  V30 1122 H 102.616 -5.7183 -2.02719 0
M  V30 1123 H 101.355 -4.45376 -1.98725 0
M  V30 1124 H 100.36 -5.49758 0.0676979 0
M  V30 1125 H 101.585 -6.79099 0.00891991 0
M  V30 1126 H 99.531 -6.19601 -2.15478 0
M  V30 1127 H 99.448 -7.49254 -1.00766 0
M  V30 1128 H 100.716 -7.47906 -2.19676 0
M  V30 1129 N 104.945 -0.338344 -1.53925 0
M  V30 1130 C 106.191 0.252842 -2.01822 0
M  V30 1131 C 106.546 1.48612 -1.22197 0
M  V30 1132 O 105.839 1.89238 -0.299892 0
M  V30 1133 C 106.033 0.62448 -3.51902 0
M  V30 1134 C 105.862 -0.571235 -4.46057 0
M  V30 1135 C 104.632 -1.07493 -4.93734 0
M  V30 1136 C 106.83 -1.42807 -4.94076 0
M  V30 1137 N 104.812 -2.23351 -5.71828 0
M  V30 1138 C 106.183 -2.43362 -5.70241 0
M  V30 1139 C 108.238 -1.45412 -4.76193 0
M  V30 1140 C 106.941 -3.46346 -6.30426 0
M  V30 1141 C 108.967 -2.47274 -5.37224 0
M  V30 1142 C 108.329 -3.46555 -6.13253 0
M  V30 1143 H 104.428 0.0559669 -0.779995 0
M  V30 1144 H 107.012 -0.476732 -1.88773 0
M  V30 1145 H 105.183 1.32317 -3.65167 0
M  V30 1146 H 106.915 1.19841 -3.86549 0
M  V30 1147 H 103.67 -0.643848 -4.69203 0
M  V30 1148 H 104.094 -2.81834 -6.15548 0
M  V30 1149 H 108.736 -0.700171 -4.16962 0
M  V30 1150 H 106.454 -4.22638 -6.88769 0
M  V30 1151 H 110.04 -2.50109 -5.25297 0
M  V30 1152 H 108.92 -4.24083 -6.59638 0
M  V30 1153 N 106.423 1.57458 -0.0668435 0
M  V30 1154 C 107.371 2.13639 0.919851 0
M  V30 1155 C 108.365 1.07204 1.31163 0
M  V30 1156 O 109.571 1.25591 1.28945 0
M  V30 1157 H 105.946 0.683048 0.314562 0
M  V30 1158 H 107.917 2.95415 0.421047 0
M  V30 1159 C 106.666 2.70892 2.17975 0
M  V30 1160 H 105.989 3.5246 1.88711 0
M  V30 1161 H 107.429 3.13803 2.85138 0
M  V30 1162 C 105.888 1.65414 2.93496 0
M  V30 1163 O 106.418 1.07619 3.87015 0
M  V30 1164 N 104.624 1.36564 2.56512 0
M  V30 1165 H 104.171 1.83751 1.80536 0
M  V30 1166 H 104.129 0.66223 3.07347 0
M  V30 1167 N 107.901 -0.206675 1.56239 0
M  V30 1168 C 108.831 -1.25909 1.96645 0
M  V30 1169 C 109.812 -1.48097 0.836734 0
M  V30 1170 O 110.997 -1.6003 1.10019 0
M  V30 1171 C 108.127 -2.6058 2.29599 0
M  V30 1172 C 107.081 -2.53024 3.452 0
M  V30 1173 C 106.407 -3.91861 3.63798 0
M  V30 1174 C 107.707 -2.06524 4.79734 0
M  V30 1175 H 109.401 -0.923369 2.84806 0
M  V30 1176 H 106.947 -0.442735 1.37025 0
M  V30 1177 H 108.9 -3.34375 2.56459 0
M  V30 1178 H 107.624 -2.95869 1.38307 0
M  V30 1179 H 106.283 -1.81684 3.18412 0
M  V30 1180 H 105.931 -4.24483 2.69857 0
M  V30 1181 H 105.631 -3.87683 4.4156 0
M  V30 1182 H 107.155 -4.67296 3.93022 0
M  V30 1183 H 108.569 -2.70072 5.05702 0
M  V30 1184 H 106.966 -2.13374 5.60885 0
M  V30 1185 H 108.036 -1.01802 4.74093 0
M  V30 1186 N 109.379 -1.50304 -0.473955 0
M  V30 1187 C 110.627 -1.60832 -1.22382 0
M  V30 1188 C 110.948 -0.30939 -1.9253 0
M  V30 1189 O 110.218 0.67296 -1.83978 0
M  V30 1190 H 108.798 -0.592652 -0.454723 0
M  V30 1191 H 111.46 -1.87068 -0.546968 0
M  V30 1192 H 110.556 -2.41803 -1.97327 0
M  V30 1193 N 110.857 0.726932 -1.39834 0
M  V30 1194 C 112.082 1.52121 -1.40976 0
M  V30 1195 C 112.507 1.88098 -0.00826029 0
M  V30 1196 O 111.865 1.52479 0.980807 0
M  V30 1197 C 111.913 2.78021 -2.29644 0
M  V30 1198 O 111.017 3.74272 -1.73188 0
M  V30 1199 H 110.358 0.45908 -0.479731 0
M  V30 1200 H 112.888 0.896207 -1.83927 0
M  V30 1201 H 112.898 3.26671 -2.44438 0
M  V30 1202 H 111.573 2.51169 -3.31492 0
M  V30 1203 H 110.15 3.33073 -1.6768 0
M  V30 1204 N 112.336 1.25143 0.95797 0
M  V30 1205 C 113.284 1.05019 2.07542 0
M  V30 1206 C 114.278 -0.0178751 1.69391 0
M  V30 1207 O 115.484 0.137472 1.79474 0
M  V30 1208 H 111.859 0.32265 0.679265 0
M  V30 1209 H 113.83 1.99759 2.21673 0
M  V30 1210 C 112.579 0.682074 3.40944 0
M  V30 1211 H 111.902 1.49573 3.70767 0
M  V30 1212 H 113.342 0.580945 4.20001 0
M  V30 1213 C 111.801 -0.611608 3.31302 0
M  V30 1214 O 112.331 -1.65465 3.66038 0
M  V30 1215 N 110.537 -0.595982 2.84423 0
M  V30 1216 H 110.084 0.253192 2.56353 0
M  V30 1217 H 110.042 -1.46173 2.78354 0
M  V30 1218 N 113.814 -1.1601 1.06675 0
M  V30 1219 C 114.777 -2.18724 0.685001 0
M  V30 1220 C 115.777 -1.58496 -0.271246 0
M  V30 1221 O 116.967 -1.74119 -0.0531156 0
M  V30 1222 C 114.099 -3.40899 0.00853648 0
M  V30 1223 H 115.292 -2.54011 1.59431 0
M  V30 1224 H 112.845 -1.30352 0.862441 0
M  V30 1225 H 113.58 -3.11173 -0.913337 0
M  V30 1226 H 113.365 -3.8587 0.696204 0
M  V30 1227 H 114.855 -4.16886 -0.24414 0
M  V30 1228 N 115.292 -0.849877 -1.32721 0
M  V30 1229 C 116.239 -0.289033 -2.28983 0
M  V30 1230 C 117.209 0.601324 -1.54833 0
M  V30 1231 O 118.394 0.537253 -1.8308 0
M  V30 1232 C 115.534 0.520623 -3.4115 0
M  V30 1233 C 114.647 -0.394989 -4.3019 0
M  V30 1234 C 113.782 0.426834 -5.29482 0
M  V30 1235 C 112.821 -0.486476 -6.10164 0
M  V30 1236 N 111.958 0.297879 -7.01468 0
M  V30 1237 H 116.798 -1.11519 -2.76347 0
M  V30 1238 H 114.335 -0.56138 -1.35967 0
M  V30 1239 H 116.293 1.00563 -4.04899 0
M  V30 1240 H 114.923 1.31165 -2.9495 0
M  V30 1241 H 113.975 -0.99836 -3.67065 0
M  V30 1242 H 115.287 -1.09612 -4.86607 0
M  V30 1243 H 114.441 0.975205 -5.98811 0
M  V30 1244 H 113.18 1.16136 -4.73671 0
M  V30 1245 H 112.185 -1.04677 -5.39743 0
M  V30 1246 H 113.41 -1.21953 -6.6806 0
M  V30 1247 H 111.356 1.01558 -6.48091 0
M  V30 1248 H 111.273 -0.344318 -7.55216 0
M  V30 1249 H 112.541 0.828131 -7.75089 0
M  V30 1250 N 116.77 1.45427 -0.607355 0
M  V30 1251 C 118.047 1.9557 -0.0344566 0
M  V30 1252 C 118.427 1.54979 1.43334 0
M  V30 1253 O 117.775 0.812241 2.13576 0
M  V30 1254 C 117.985 3.48226 -0.232321 0
M  V30 1255 C 119.333 4.2445 -0.113001 0
M  V30 1256 O 120.357 3.55829 -0.162431 0
M  V30 1257 O 119.216 5.465 0.00209442 0
M  V30 1258 H 116.31 0.826222 0.0358667 0
M  V30 1259 H 118.856 1.55594 -0.6774 0
M  V30 1260 H 117.628 3.70739 -1.25174 0
M  V30 1261 H 117.251 3.95092 0.445896 0
M  V30 1262 N 118.248 0.346503 1.53744 0
M  V30 1263 C 119.659 -0.136779 1.86198 0
M  V30 1264 C 120.01 -1.49749 1.26766 0
M  V30 1265 O 119.135 -2.08417 0.582355 0
M  V30 1266 C 119.73 -0.254966 3.37839 0
M  V30 1267 C 118.289 -0.682482 3.70161 0
M  V30 1268 C 117.436 0.181981 2.76702 0
M  V30 1269 H 120.387 0.565994 1.48264 0
M  V30 1270 H 120.408 -1.08195 3.64793 0
M  V30 1271 H 119.92 0.735526 3.81066 0
M  V30 1272 H 118.021 -1.68189 3.3248 0
M  V30 1273 H 118.134 -0.470326 4.76786 0
M  V30 1274 H 116.498 -0.34615 2.52337 0
M  V30 1275 H 117.281 1.16966 3.2276 0
M  V30 1276 N 119.726 -1.57421 0.075193 0
M  V30 1277 C 121.142 -1.57099 -0.281444 0
M  V30 1278 C 121.342 -1.08486 -1.69803 0
M  V30 1279 O 120.398 -0.752279 -2.41033 0
M  V30 1280 C 121.711 -3.00571 -0.0880041 0
M  V30 1281 C 123.259 -3.12605 -0.157281 0
M  V30 1282 C 123.734 -4.57999 0.0079207 0
M  V30 1283 N 125.225 -4.63176 -0.0475725 0
M  V30 1284 C 125.96 -5.73373 0.0557876 0
M  V30 1285 N 125.456 -6.92473 0.21286 0
M  V30 1286 N 127.249 -5.621 -0.00152098 0
M  V30 1287 H 119.4 -1.87335 1.00098 0
M  V30 1288 H 121.663 -0.86377 0.390646 0
M  V30 1289 H 121.369 -3.40262 0.889629 0
M  V30 1290 H 121.243 -3.67754 -0.838875 0
M  V30 1291 H 123.63 -2.72798 -1.1254 0
M  V30 1292 H 123.711 -2.48053 0.62475 0
M  V30 1293 H 123.355 -4.98496 0.972824 0
M  V30 1294 H 123.285 -5.20586 -0.793556 0
M  V30 1295 H 125.776 -3.7753 -0.167244 0
M  V30 1296 H 126.089 -7.72279 0.283781 0
M  V30 1297 H 124.434 -6.94556 0.248267 0
M  V30 1298 H 127.625 -4.67938 -0.122958 0
M  V30 1299 H 127.798 -6.47948 0.0824844 0
M  V30 1300 N 121.204 0.198386 -1.56346 0
M  V30 1301 C 122.452 0.91747 -1.80075 0
M  V30 1302 C 122.773 1.83929 -0.647692 0
M  V30 1303 O 122.043 1.93029 0.334166 0
M  V30 1304 H 120.623 0.341774 -0.664228 0
M  V30 1305 H 123.285 0.204684 -1.93822 0
M  V30 1306 H 122.381 1.51055 -2.7311 0
M  V30 1307 N 122.682 1.50554 0.465978 0
M  V30 1308 C 123.615 1.64436 1.58227 0
M  V30 1309 C 124.593 0.492367 1.54966 0
M  V30 1310 O 125.777 0.712536 1.74514 0
M  V30 1311 C 122.904 1.63165 2.96808 0
M  V30 1312 C 121.95 2.83987 3.18204 0
M  V30 1313 S 122.783 4.45219 2.97557 0
M  V30 1314 C 123.939 4.46649 4.3847 0
M  V30 1315 H 124.172 2.58861 1.46213 0
M  V30 1316 H 121.705 1.3988 0.653678 0
M  V30 1317 H 123.663 1.63116 3.76701 0
M  V30 1318 H 122.324 0.69967 3.06208 0
M  V30 1319 H 121.517 2.79416 4.19455 0
M  V30 1320 H 121.119 2.81629 2.46092 0
M  V30 1321 H 123.411 4.20526 5.31191 0
M  V30 1322 H 124.354 5.48295 4.48082 0
M  V30 1323 H 124.762 3.76296 4.20787 0
M  V30 1324 N 124.16 -0.719506 1.40217 0
M  V30 1325 C 125.39 -1.50646 1.41384 0
M  V30 1326 C 125.798 -1.89197 0.0107743 0
M  V30 1327 O 125.141 -1.55709 -0.974708 0
M  V30 1328 C 125.203 -2.81405 2.23722 0
M  V30 1329 C 124.867 -2.65199 3.72181 0
M  V30 1330 C 125.864 -2.32717 4.64907 0
M  V30 1331 C 123.549 -2.81586 4.1595 0
M  V30 1332 C 125.543 -2.16827 5.99387 0
M  V30 1333 C 123.23 -2.65313 5.50502 0
M  V30 1334 C 124.228 -2.32981 6.42035 0
M  V30 1335 O 123.916 -2.16827 7.74107 0
M  V30 1336 H 123.648 -0.471606 0.484318 0
M  V30 1337 H 126.202 -0.895456 1.84853 0
M  V30 1338 H 124.432 -3.44823 1.75026 0
M  V30 1339 H 126.121 -3.43102 2.16878 0
M  V30 1340 H 126.887 -2.19694 4.32388 0
M  V30 1341 H 122.766 -3.0574 3.45027 0
M  V30 1342 H 126.31 -1.91513 6.70797 0
M  V30 1343 H 122.207 -2.7792 5.82607 0
M  V30 1344 H 122.975 -2.31778 7.84998 0
M  V30 1345 N 125.638 -1.25649 -0.95132 0
M  V30 1346 C 126.57 -1.02112 -2.05197 0
M  V30 1347 C 127.583 0.0150571 -1.62793 0
M  V30 1348 O 128.772 -0.223874 -1.77091 0
M  V30 1349 C 125.872 -0.522361 -3.3485 0
M  V30 1350 C 125.045 -1.62546 -4.06076 0
M  V30 1351 C 124.104 -1.12649 -5.14001 0
M  V30 1352 O 123.13 -1.82156 -5.39266 0
M  V30 1353 N 124.332 0.03047 -5.80492 0
M  V30 1354 H 127.097 -1.96885 -2.25957 0
M  V30 1355 H 124.658 -1.16899 -1.1201 0
M  V30 1356 H 126.65 -0.172961 -4.0433 0
M  V30 1357 H 125.22 0.33151 -3.10837 0
M  V30 1358 H 124.44 -2.14628 -3.30649 0
M  V30 1359 H 125.728 -2.36644 -4.50419 0
M  V30 1360 H 125.126 0.611169 -5.62389 0
M  V30 1361 H 123.683 0.320875 -6.5101 0
M  V30 1362 N 127.117 1.15442 -1.07289 0
M  V30 1363 C 128.357 1.8788 -0.805012 0
M  V30 1364 C 128.721 1.80413 0.656907 0
M  V30 1365 O 129.922 2.47874 1.0398 0
M  V30 1366 C 128.193 3.3298 -1.29843 0
M  V30 1367 S 129.752 4.23158 -1.16114 0
M  V30 1368 H 126.57 0.64839 -0.291739 0
M  V30 1369 H 129.172 1.39285 -1.37186 0
M  V30 1370 H 127.876 3.35958 -2.35712 0
M  V30 1371 H 127.407 3.86629 -0.726767 0
M  V30 1372 H 129.422 4.96103 -0.0982778 0
M  V30 1373 N 128.595 0.856903 1.32268 0
M  V30 1374 C 129.542 0.301172 2.28827 0
M  V30 1375 C 130.512 -0.593104 1.5515 0
M  V30 1376 O 131.697 -0.527537 1.83362 0
M  V30 1377 C 128.837 -0.502523 3.41422 0
M  V30 1378 C 127.95 0.417797 4.29975 0
M  V30 1379 C 127.085 -0.398749 5.29701 0
M  V30 1380 C 126.124 0.518827 6.09897 0
M  V30 1381 N 125.261 -0.260674 7.01616 0
M  V30 1382 H 130.101 1.12983 2.75751 0
M  V30 1383 H 127.638 0.568582 1.35667 0
M  V30 1384 H 129.596 -0.984141 4.05426 0
M  V30 1385 H 128.226 -1.29599 2.95642 0
M  V30 1386 H 127.278 1.01781 3.66531 0
M  V30 1387 H 128.59 1.12191 4.86019 0
M  V30 1388 H 127.744 -0.943435 5.9932 0
M  V30 1389 H 126.483 -1.13622 4.7428 0
M  V30 1390 H 125.488 1.07538 5.39181 0
M  V30 1391 H 126.713 1.25495 6.67404 0
M  V30 1392 H 124.659 -0.981198 6.4862 0
M  V30 1393 H 124.576 0.384364 7.55022 0
M  V30 1394 H 125.844 -0.787014 7.75517 0
M  V30 1395 N 130.073 -1.45103 0.615059 0
M  V30 1396 C 131.321 -2.01784 0.112955 0
M  V30 1397 C 131.642 -1.48504 -1.26378 0
M  V30 1398 O 130.912 -0.682245 -1.83636 0
M  V30 1399 H 129.492 -0.745993 0.0387668 0
M  V30 1400 H 132.154 -1.77808 0.798141 0
M  V30 1401 H 131.25 -3.12025 0.0684069 0
M  V30 1402 N 131.551 -0.354651 -1.53558 0
M  V30 1403 C 132.776 0.242153 -2.05981 0
M  V30 1404 C 133.201 1.42553 -1.2272 0
M  V30 1405 O 132.559 1.79656 -0.243604 0
M  V30 1406 C 132.607 0.624367 -3.55154 0
M  V30 1407 O 131.711 1.72301 -3.74681 0
M  V30 1408 H 131.052 0.0378432 -0.662921 0
M  V30 1409 H 133.582 -0.512087 -1.98088 0
M  V30 1410 H 133.592 0.898433 -3.97985 0
M  V30 1411 H 132.267 -0.240989 -4.15201 0
M  V30 1412 H 130.844 1.44535 -3.4375 0
M  V30 1413 N 133.029 1.57378 -0.0835403 0
M  V30 1414 C 133.961 2.10389 0.909338 0
M  V30 1415 C 134.974 1.03858 1.25369 0
M  V30 1416 O 136.163 1.31338 1.20882 0
M  V30 1417 C 133.263 2.55908 2.2218 0
M  V30 1418 C 132.436 3.86145 2.05453 0
M  V30 1419 C 131.495 4.17633 3.20108 0
M  V30 1420 O 130.521 4.87043 2.94581 0
M  V30 1421 N 131.723 3.72113 4.45547 0
M  V30 1422 H 134.488 2.962 0.456657 0
M  V30 1423 H 132.049 1.61579 0.101877 0
M  V30 1424 H 134.041 2.74027 2.97811 0
M  V30 1425 H 132.611 1.75171 2.58909 0
M  V30 1426 H 131.831 3.7729 1.1422 0
M  V30 1427 H 133.119 4.7137 1.91541 0
M  V30 1428 H 132.517 3.16062 4.69171 0
M  V30 1429 H 131.074 3.95409 5.18165 0
M  V30 1430 N 134.507 -0.190092 1.56449 0
M  V30 1431 C 135.455 -1.25501 1.95837 0
M  V30 1432 C 136.449 -1.4685 0.844485 0
M  V30 1433 O 137.655 -1.47651 1.02952 0
M  V30 1434 H 134.03 -0.421447 0.622805 0
M  V30 1435 H 136.001 -0.895821 2.84636 0
M  V30 1436 C 134.75 -2.59124 2.31841 0
M  V30 1437 H 134.073 -2.43514 3.17082 0
M  V30 1438 H 135.513 -3.32371 2.6326 0
M  V30 1439 C 133.972 -3.16488 1.15486 0
M  V30 1440 O 134.502 -3.99365 0.432535 0
M  V30 1441 N 132.708 -2.75305 0.930349 0
M  V30 1442 H 132.255 -2.08013 1.51948 0
M  V30 1443 H 132.213 -3.14024 0.153634 0
M  V30 1444 N 135.985 -1.50799 -0.457987 0
M  V30 1445 C 136.932 -1.70617 -1.5543 0
M  V30 1446 C 137.902 -0.547562 -1.56815 0
M  V30 1447 O 139.087 -0.779647 -1.74144 0
M  V30 1448 C 136.227 -1.81831 -2.93311 0
M  V30 1449 C 135.34 -3.09278 -3.01615 0
M  V30 1450 C 134.475 -3.11209 -4.30491 0
M  V30 1451 C 133.514 -4.33055 -4.32585 0
M  V30 1452 N 132.651 -4.32652 -5.52952 0
M  V30 1453 H 137.491 -2.64207 -1.37836 0
M  V30 1454 H 135.028 -1.30959 -0.669937 0
M  V30 1455 H 136.986 -1.86314 -3.73287 0
M  V30 1456 H 135.616 -0.916685 -3.0951 0
M  V30 1457 H 134.668 -3.14203 -2.1443 0
M  V30 1458 H 135.98 -3.99233 -2.99022 0
M  V30 1459 H 135.134 -3.14494 -5.18824 0
M  V30 1460 H 133.873 -2.19106 -4.35711 0
M  V30 1461 H 132.878 -4.29969 -3.42647 0
M  V30 1462 H 134.103 -5.264 -4.29046 0
M  V30 1463 H 132.049 -3.43409 -5.58933 0
M  V30 1464 H 131.966 -5.16392 -5.52155 0
M  V30 1465 H 133.234 -4.40101 -6.43375 0
M  V30 1466 N 137.463 0.71206 -1.40597 0
M  V30 1467 C 138.688 1.50617 -1.42581 0
M  V30 1468 C 139.113 1.88079 -0.0282102 0
M  V30 1469 O 138.471 1.53511 0.964579 0
M  V30 1470 C 138.519 2.7557 -2.3258 0
M  V30 1471 O 137.623 3.72414 -1.77148 0
M  V30 1472 H 136.964 0.453966 -0.484573 0
M  V30 1473 H 139.494 0.876649 -1.84868 0
M  V30 1474 H 139.504 3.2406 -2.47889 0
M  V30 1475 H 138.179 2.47639 -3.34138 0
M  V30 1476 H 136.756 3.31276 -1.71204 0
M  V30 1477 N 138.941 1.26152 0.944643 0
M  V30 1478 C 139.888 1.07408 2.04285 0
M  V30 1479 C 140.858 -0.0198413 1.66088 0
M  V30 1480 O 142.043 0.139264 1.90291 0
M  V30 1481 C 139.183 0.70945 3.37729 0
M  V30 1482 C 138.296 1.87926 3.88983 0
M  V30 1483 C 137.431 1.45807 5.10797 0
M  V30 1484 C 136.47 2.5964 5.54305 0
M  V30 1485 N 135.607 2.18226 6.67324 0
M  V30 1486 H 140.447 2.01389 2.1965 0
M  V30 1487 H 137.984 1.00275 1.07626 0
M  V30 1488 H 139.942 0.478948 4.14442 0
M  V30 1489 H 138.572 -0.193389 3.2222 0
M  V30 1490 H 137.624 2.22279 3.08701 0
M  V30 1491 H 138.936 2.73377 4.17213 0
M  V30 1492 H 138.09 1.18781 5.94959 0
M  V30 1493 H 136.829 0.574414 4.84305 0
M  V30 1494 H 135.834 2.87399 4.68702 0
M  V30 1495 H 137.059 3.48599 5.828 0
M  V30 1496 H 135.005 1.3229 6.42523 0
M  V30 1497 H 134.922 2.97221 6.95123 0
M  V30 1498 H 136.19 1.94403 7.54869 0
M  V30 1499 N 140.419 -1.14872 1.07899 0
M  V30 1500 C 141.83 -1.67367 0.827363 0
M  V30 1501 C 142.181 -1.85236 -0.646693 0
M  V30 1502 O 141.306 -1.55974 -1.50004 0
M  V30 1503 C 141.901 -3.04016 1.49532 0
M  V30 1504 C 140.46 -3.53566 1.29106 0
M  V30 1505 C 139.607 -2.29161 1.56143 0
M  V30 1506 H 142.558 -0.990083 1.24028 0
M  V30 1507 H 142.579 -3.69219 0.919643 0
M  V30 1508 H 142.091 -2.90978 2.56814 0
M  V30 1509 H 140.192 -3.71835 0.238713 0
M  V30 1510 H 140.305 -4.34661 2.01511 0
M  V30 1511 H 138.669 -2.34978 0.982717 0
M  V30 1512 H 139.452 -2.18705 2.64619 0
M  V30 1513 N 141.898 -0.863906 -1.31812 0
M  V30 1514 C 142.828 -0.330843 -2.31144 0
M  V30 1515 C 143.809 0.575005 -1.60087 0
M  V30 1516 O 144.994 0.493304 -1.8783 0
M  V30 1517 C 142.124 0.47374 -3.44054 0
M  V30 1518 C 141.078 -0.338481 -4.26659 0
M  V30 1519 C 140.404 0.591412 -5.31419 0
M  V30 1520 C 141.704 -1.56926 -4.98168 0
M  V30 1521 H 143.398 -1.16086 -2.75979 0
M  V30 1522 H 140.944 -0.559657 -1.32679 0
M  V30 1523 H 142.897 0.857143 -4.12591 0
M  V30 1524 H 141.621 1.33721 -2.9797 0
M  V30 1525 H 140.28 -0.703754 -3.59782 0
M  V30 1526 H 139.928 1.45199 -4.81587 0
M  V30 1527 H 139.628 0.0519022 -5.87577 0
M  V30 1528 H 141.152 0.97179 -6.02817 0
M  V30 1529 H 142.566 -1.25764 -5.59336 0
M  V30 1530 H 140.963 -2.04739 -5.64094 0
M  V30 1531 H 142.033 -2.32544 -4.25501 0
M  V30 1532 N 143.376 1.44774 -0.622745 0
M  V30 1533 C 144.308 2.28856 0.125485 0
M  V30 1534 C 145.321 1.40811 0.817069 0
M  V30 1535 O 146.51 1.65044 0.679918 0
M  V30 1536 C 143.61 3.16963 1.19949 0
M  V30 1537 C 142.783 4.33374 0.592064 0
M  V30 1538 C 141.842 5.02577 1.55893 0
M  V30 1539 O 140.868 5.58873 1.07933 0
M  V30 1540 N 142.07 5.03256 2.89334 0
M  V30 1541 H 144.835 2.93713 -0.596068 0
M  V30 1542 H 142.396 1.55129 -0.463303 0
M  V30 1543 H 144.388 3.60123 1.84644 0
M  V30 1544 H 142.958 2.53913 1.82337 0
M  V30 1545 H 142.178 3.93509 -0.233322 0
M  V30 1546 H 143.466 5.08527 0.166738 0
M  V30 1547 H 142.864 4.58836 3.30887 0
M  V30 1548 H 141.421 5.50232 3.49412 0
M  V30 1549 N 144.854 0.36279 1.53368 0
M  V30 1550 C 146.1 -0.228113 2.01513 0
M  V30 1551 C 146.433 -1.48648 1.2497 0
M  V30 1552 O 145.708 -1.91459 0.342616 0
M  V30 1553 C 145.991 -0.522884 3.56284 0
M  V30 1554 C 145.844 0.74892 4.43521 0
M  V30 1555 C 147.163 -1.32461 4.19693 0
M  V30 1556 H 144.282 -0.0814343 0.732487 0
M  V30 1557 H 146.924 0.48713 1.83649 0
M  V30 1558 H 145.074 -1.1322 3.71636 0
M  V30 1559 H 146.746 1.38648 4.39971 0
M  V30 1560 H 144.989 1.36986 4.11603 0
M  V30 1561 H 145.66 0.497667 5.49752 0
M  V30 1562 H 148.136 -0.809203 4.08156 0
M  V30 1563 H 147.012 -1.49961 5.28018 0
M  V30 1564 H 147.273 -2.33232 3.75573 0
M  V30 1565 N 146.332 -1.57332 0.0918853 0
M  V30 1566 C 147.562 -1.98286 -0.580205 0
M  V30 1567 C 147.97 -0.969713 -1.6246 0
M  V30 1568 O 147.313 0.0493501 -1.83634 0
M  V30 1569 C 147.375 -3.35603 -1.28882 0
M  V30 1570 C 147.039 -4.55285 -0.395559 0
M  V30 1571 C 148.036 -5.18687 0.355002 0
M  V30 1572 C 145.721 -5.01314 -0.314556 0
M  V30 1573 C 147.715 -6.26484 1.17458 0
M  V30 1574 C 145.402 -6.08979 0.508677 0
M  V30 1575 C 146.4 -6.71429 1.2519 0
M  V30 1576 O 146.088 -7.77018 2.06151 0
M  V30 1577 H 145.82 -0.656678 -0.160466 0
M  V30 1578 H 148.374 -2.04721 0.16688 0
M  V30 1579 H 146.604 -3.25842 -2.08241 0
M  V30 1580 H 148.293 -3.61026 -1.85512 0
M  V30 1581 H 149.059 -4.84058 0.302134 0
M  V30 1582 H 144.938 -4.5247 -0.882697 0
M  V30 1583 H 148.482 -6.75159 1.75518 0
M  V30 1584 H 144.379 -6.4304 0.563037 0
M  V30 1585 H 145.147 -7.93991 1.98799 0
M  V30 1586 N 147.81 0.181792 -1.56548 0
M  V30 1587 C 149.04 0.914618 -1.85252 0
M  V30 1588 C 149.448 1.76791 -0.673914 0
M  V30 1589 O 148.791 1.80009 0.366416 0
M  V30 1590 C 148.853 1.85019 -3.08234 0
M  V30 1591 C 148.517 1.17754 -4.41569 0
M  V30 1592 C 149.514 0.548035 -5.17003 0
M  V30 1593 C 147.199 1.17742 -4.88305 0
M  V30 1594 C 149.193 -0.0726128 -6.37359 0
M  V30 1595 C 146.88 0.552946 -6.08593 0
M  V30 1596 C 147.878 -0.070978 -6.82963 0
M  V30 1597 O 147.566 -0.685635 -8.00971 0
M  V30 1598 H 147.298 0.271695 -0.618998 0
M  V30 1599 H 149.852 0.189944 -2.0452 0
M  V30 1600 H 148.082 2.61491 -2.84885 0
M  V30 1601 H 149.771 2.45195 -3.23472 0
M  V30 1602 H 150.537 0.540174 -4.81982 0
M  V30 1603 H 146.416 1.65246 -4.30366 0
M  V30 1604 H 149.96 -0.560213 -6.95347 0
M  V30 1605 H 145.857 0.558354 -6.43081 0
M  V30 1606 H 146.625 -0.58385 -8.16415 0
M  V30 1607 N 149.288 1.51039 0.449983 0
M  V30 1608 C 150.704 1.38934 0.785462 0
M  V30 1609 C 150.904 0.461817 1.96136 0
M  V30 1610 O 149.96 -0.0877389 2.52348 0
M  V30 1611 C 151.273 2.80724 1.0777 0
M  V30 1612 C 152.821 2.89787 1.1829 0
M  V30 1613 C 153.296 4.32457 1.50815 0
M  V30 1614 N 154.787 4.35505 1.57764 0
M  V30 1615 C 155.522 5.42914 1.84477 0
M  V30 1616 N 155.018 6.60502 2.09068 0
M  V30 1617 N 156.811 5.3038 1.86155 0
M  V30 1618 H 148.962 2.09904 -0.324647 0
M  V30 1619 H 151.225 0.944378 -0.0827957 0
M  V30 1620 H 150.931 3.50531 0.286498 0
M  V30 1621 H 150.805 3.19273 2.00859 0
M  V30 1622 H 153.192 2.20186 1.96474 0
M  V30 1623 H 153.273 2.54752 0.231314 0
M  V30 1624 H 152.917 5.02603 0.731622 0
M  V30 1625 H 152.847 4.64995 2.47158 0
M  V30 1626 H 155.338 3.50724 1.40715 0
M  V30 1627 H 155.651 7.38158 2.28785 0
M  V30 1628 H 153.996 6.63639 2.06416 0
M  V30 1629 H 157.187 4.37505 1.66454 0
M  V30 1630 H 157.36 6.1417 2.06637 0
M  V30 1631 N 150.766 -0.704594 1.40972 0
M  V30 1632 C 151.699 -1.82861 1.36518 0
M  V30 1633 C 152.677 -1.6091 0.23382 0
M  V30 1634 O 153.861 -1.83778 0.419271 0
M  V30 1635 C 150.988 -3.1939 1.12729 0
M  V30 1636 C 150.034 -3.60148 2.28463 0
M  V30 1637 S 150.867 -3.65994 3.90907 0
M  V30 1638 C 152.023 -5.05264 3.69403 0
M  V30 1639 H 152.256 -1.86361 2.3164 0
M  V30 1640 H 149.789 -0.872439 1.27389 0
M  V30 1641 H 151.747 -3.98211 0.996893 0
M  V30 1642 H 150.408 -3.1351 0.192427 0
M  V30 1643 H 149.601 -4.59309 2.07489 0
M  V30 1644 H 149.203 -2.88612 2.37863 0
M  V30 1645 H 151.495 -5.92504 3.28551 0
M  V30 1646 H 152.438 -5.31278 4.68134 0
M  V30 1647 H 152.846 -4.76377 3.02862 0
M  V30 1648 N 152.244 -1.26651 -0.937939 0
M  V30 1649 C 153.484 -1.13611 -1.69917 0
M  V30 1650 C 153.848 0.314687 -1.89404 0
M  V30 1651 O 155.049 0.567285 -2.62746 0
M  V30 1652 C 153.32 -1.88742 -3.03498 0
M  V30 1653 S 154.879 -1.91794 -3.94665 0
M  V30 1654 H 151.697 -0.405767 -0.583844 0
M  V30 1655 H 154.299 -1.60416 -1.11745 0
M  V30 1656 H 153.003 -2.9336 -2.86999 0
M  V30 1657 H 152.534 -1.42391 -3.66727 0
M  V30 1658 H 154.549 -1.00698 -4.85875 0
M  V30 1659 N 153.722 1.14298 -1.08507 0
M  V30 1660 C 154.654 2.1907 -0.673859 0
M  V30 1661 C 155.667 1.60381 0.279577 0
M  V30 1662 O 156.856 1.78374 0.0670754 0
M  V30 1663 C 153.956 3.38888 0.0290979 0
M  V30 1664 C 153.129 4.27103 -0.943494 0
M  V30 1665 C 152.188 5.25477 -0.275676 0
M  V30 1666 O 151.214 5.61709 -0.920401 0
M  V30 1667 N 152.416 5.7227 0.974013 0
M  V30 1668 H 155.181 2.54965 -1.57521 0
M  V30 1669 H 152.742 1.29528 -0.971287 0
M  V30 1670 H 154.734 4.01761 0.48683 0
M  V30 1671 H 153.304 3.01309 0.832555 0
M  V30 1672 H 152.524 3.61149 -1.58004 0
M  V30 1673 H 153.812 4.82905 -1.60251 0
M  V30 1674 H 153.21 5.44965 1.51755 0
M  V30 1675 H 151.767 6.37127 1.37522 0
M  V30 1676 N 155.201 0.870884 1.31352 0
M  V30 1677 C 156.149 0.316445 2.30437 0
M  V30 1678 C 157.143 -0.568965 1.59559 0
M  V30 1679 O 158.349 -0.454964 1.74155 0
M  V30 1680 H 154.724 0.0836521 0.747333 0
M  V30 1681 H 156.695 1.16606 2.74673 0
M  V30 1682 C 155.444 -0.46635 3.44558 0
M  V30 1683 H 154.767 0.205687 3.99271 0
M  V30 1684 H 156.207 -0.819614 4.16003 0
M  V30 1685 C 154.666 -1.65797 2.9328 0
M  V30 1686 O 155.196 -2.75728 2.92125 0
M  V30 1687 N 153.402 -1.49041 2.4947 0
M  V30 1688 H 152.949 -0.59612 2.50608 0
M  V30 1689 H 152.907 -2.28911 2.15516 0
M  V30 1690 N 156.679 -1.44442 0.630414 0
M  V30 1691 C 157.919 -2.03934 0.137919 0
M  V30 1692 C 158.283 -1.48509 -1.21692 0
M  V30 1693 O 159.484 -1.99499 -1.80149 0
M  V30 1694 C 157.755 -3.57187 0.123373 0
M  V30 1695 S 159.314 -4.37741 -0.304604 0
M  V30 1696 H 156.132 -0.708401 0.0607353 0
M  V30 1697 H 158.734 -1.76835 0.833643 0
M  V30 1698 H 157.438 -3.95032 1.11256 0
M  V30 1699 H 156.969 -3.88895 -0.59362 0
M  V30 1700 H 158.984 -4.71403 -1.54897 0
M  V30 1701 N 158.157 -0.370918 -1.53173 0
M  V30 1702 C 159.406 0.218249 -2.00516 0
M  V30 1703 C 159.719 1.49429 -1.26215 0
M  V30 1704 O 160.925 2.16239 -1.64174 0
M  V30 1705 C 159.381 0.43948 -3.57207 0
M  V30 1706 C 158.989 -0.822244 -4.4039 0
M  V30 1707 C 160.733 0.986012 -4.1289 0
M  V30 1708 C 158.64 -0.570304 -5.88644 0
M  V30 1709 H 157.57 0.0853333 -0.749156 0
M  V30 1710 H 160.221 -0.490483 -1.76823 0
M  V30 1711 H 158.603 1.20961 -3.77074 0
M  V30 1712 H 159.777 -1.59557 -4.32294 0
M  V30 1713 H 158.092 -1.29238 -3.95836 0
M  V30 1714 H 160.689 1.18991 -5.21292 0
M  V30 1715 H 161.032 1.94972 -3.6782 0
M  V30 1716 H 161.565 0.27592 -3.96842 0
M  V30 1717 H 158.304 -1.50449 -6.38001 0
M  V30 1718 H 157.824 0.164427 -5.99575 0
M  V30 1719 H 159.503 -0.19784 -6.46697 0
M  V30 1720 N 159.635 1.57281 -0.100228 0
M  V30 1721 C 160.545 2.17833 0.870965 0
M  V30 1722 C 161.561 1.14921 1.30649 0
M  V30 1723 O 162.737 1.47313 1.37335 0
M  V30 1724 C 159.802 2.75085 2.1102 0
M  V30 1725 C 158.863 3.9297 1.72838 0
M  V30 1726 C 158.096 4.47482 2.90854 0
M  V30 1727 O 158.319 4.00922 4.05731 0
M  V30 1728 O 157.253 5.38433 2.69023 0
M  V30 1729 H 161.079 3.0124 0.38575 0
M  V30 1730 H 158.664 1.48881 0.124397 0
M  V30 1731 H 160.546 3.11656 2.83634 0
M  V30 1732 H 159.221 1.94721 2.58584 0
M  V30 1733 H 158.128 3.61201 0.973883 0
M  V30 1734 H 159.461 4.74713 1.30033 0
M  V30 1735 N 161.113 -0.173488 1.56642 0
M  V30 1736 C 162.043 -1.2171 1.99271 0
M  V30 1737 C 163.024 -1.46289 0.867959 0
M  V30 1738 O 164.209 -1.5766 1.13388 0
M  V30 1739 C 161.339 -2.55651 2.35074 0
M  V30 1740 C 160.293 -2.45645 3.50489 0
M  V30 1741 C 159.619 -3.84056 3.72028 0
M  V30 1742 C 160.919 -1.96302 4.84007 0
M  V30 1743 H 162.613 -0.86275 2.867 0
M  V30 1744 H 160.159 -0.413571 1.37933 0
M  V30 1745 H 162.112 -3.2886 2.63494 0
M  V30 1746 H 160.836 -2.92869 1.44552 0
M  V30 1747 H 159.495 -1.7489 3.22194 0
M  V30 1748 H 159.143 -4.18664 2.788 0
M  V30 1749 H 158.843 -3.7823 4.49684 0
M  V30 1750 H 160.367 -4.58854 4.02846 0
M  V30 1751 H 161.781 -2.59284 5.11317 0
M  V30 1752 H 160.178 -2.01429 5.65284 0
M  V30 1753 H 161.248 -0.917226 4.76146 0
M  V30 1754 N 162.591 -1.51276 -0.441967 0
M  V30 1755 C 163.539 -1.72823 -1.55676 0
M  V30 1756 C 164.533 -0.59445 -1.58627 0
M  V30 1757 O 165.739 -0.775715 -1.62427 0
M  V30 1758 H 162.114 -0.545983 -0.517113 0
M  V30 1759 H 164.085 -2.6628 -1.34675 0
M  V30 1760 C 162.834 -1.86619 -2.93375 0
M  V30 1761 H 162.157 -2.73264 -2.91834 0
M  V30 1762 H 163.597 -2.05709 -3.70756 0
M  V30 1763 C 162.056 -0.624842 -3.31055 0
M  V30 1764 O 162.586 0.222636 -4.01083 0
M  V30 1765 N 160.792 -0.470288 -2.86769 0
M  V30 1766 H 160.339 -1.161 -2.29953 0
M  V30 1767 H 160.297 0.359051 -3.12343 0
M  V30 1768 N 164.069 0.697108 -1.41344 0
M  V30 1769 C 165.032 1.79281 -1.42797 0
M  V30 1770 C 166.032 1.57607 -0.318837 0
M  V30 1771 O 167.222 1.64309 -0.578642 0
M  V30 1772 C 164.354 3.17632 -1.23785 0
M  V30 1773 H 165.547 1.79385 -2.40335 0
M  V30 1774 H 163.1 0.904582 -1.27464 0
M  V30 1775 H 163.835 3.23167 -0.270814 0
M  V30 1776 H 163.62 3.34765 -2.04144 0
M  V30 1777 H 165.11 3.97617 -1.27633 0
M  V30 1778 N 165.547 1.27147 0.931209 0
M  V30 1779 C 166.51 1.09615 2.01289 0
M  V30 1780 C 167.51 0.0412581 1.60747 0
M  V30 1781 O 168.7 0.285545 1.71844 0
M  V30 1782 C 165.832 0.669447 3.34262 0
M  V30 1783 H 167.025 2.05662 2.18273 0
M  V30 1784 H 164.578 1.09885 1.11153 0
M  V30 1785 H 165.313 -0.292572 3.22978 0
M  V30 1786 H 165.098 1.43127 3.65044 0
M  V30 1787 H 166.588 0.568921 4.13706 0
M  V30 1788 N 167.025 -1.13721 1.09112 0
M  V30 1789 C 168.253 -1.88773 0.846899 0
M  V30 1790 C 168.668 -1.7896 -0.601572 0
M  V30 1791 O 168.025 -1.15394 -1.41388 0
M  V30 1792 C 168.076 -3.3849 1.26913 0
M  V30 1793 O 167.797 -3.48043 2.66079 0
M  V30 1794 C 169.298 -4.30518 1.05682 0
M  V30 1795 H 166.518 -0.59772 0.304914 0
M  V30 1796 H 169.062 -1.43977 1.45227 0
M  V30 1797 H 167.217 -3.80881 0.707723 0
M  V30 1798 H 167.631 -4.4109 2.83795 0
M  V30 1799 H 169.105 -5.3391 1.40156 0
M  V30 1800 H 169.582 -4.392 -0.00563416 0
M  V30 1801 H 170.188 -3.93893 1.60402 0
M  V30 1802 N 168.503 -0.877838 -1.30888 0
M  V30 1803 C 169.752 -0.488793 -1.95688 0
M  V30 1804 C 170.065 0.965485 -1.70111 0
M  V30 1805 O 171.271 1.46104 -2.28836 0
M  V30 1806 C 169.727 -0.823201 -3.50359 0
M  V30 1807 C 169.335 -2.29477 -3.84765 0
M  V30 1808 C 171.079 -0.503009 -4.21509 0
M  V30 1809 C 168.986 -2.57118 -5.32583 0
M  V30 1810 H 167.916 -0.179062 -0.732429 0
M  V30 1811 H 170.567 -1.07183 -1.48943 0
M  V30 1812 H 168.949 -0.169331 -3.95638 0
M  V30 1813 H 170.123 -2.99236 -3.5042 0
M  V30 1814 H 168.438 -2.58178 -3.267 0
M  V30 1815 H 171.035 -0.68665 -5.30273 0
M  V30 1816 H 171.378 0.557109 -4.12555 0
M  V30 1817 H 171.911 -1.11376 -3.8189 0
M  V30 1818 H 168.65 -3.61843 -5.4658 0
M  V30 1819 H 168.17 -1.91961 -5.68253 0
M  V30 1820 H 169.849 -2.42251 -5.99936 0
M  V30 1821 N 169.982 1.44106 -0.638065 0
M  V30 1822 C 171.207 2.0685 -0.150916 0
M  V30 1823 C 171.632 1.47417 1.16833 0
M  V30 1824 O 170.99 0.578264 1.71831 0
M  V30 1825 C 171.038 3.60555 -0.05708 0
M  V30 1826 O 170.142 4.00465 0.984972 0
M  V30 1827 H 169.483 0.658151 -0.0879399 0
M  V30 1828 H 172.013 1.84865 -0.876707 0
M  V30 1829 H 172.023 4.07789 0.131232 0
M  V30 1830 H 170.698 4.03193 -1.02021 0
M  V30 1831 H 169.275 3.64849 0.770672 0
M  V30 1832 N 171.46 0.379036 1.52974 0
M  V30 1833 C 172.708 -0.206014 2.01047 0
M  V30 1834 C 173.029 -1.48175 1.26765 0
M  V30 1835 O 172.299 -1.92085 0.384743 0
M  V30 1836 H 170.879 -0.0791184 0.742798 0
M  V30 1837 H 173.541 0.508366 1.88153 0
M  V30 1838 H 172.637 -0.423501 3.09213 0
M  V30 1839 N 172.938 -1.57226 0.108567 0
M  V30 1840 C 174.185 -1.94833 -0.551943 0
M  V30 1841 C 174.513 -0.991204 -1.67348 0
M  V30 1842 O 173.768 -0.0131878 -1.95696 0
M  V30 1843 C 174.067 -3.38911 -1.13463 0
M  V30 1844 C 173.733 -4.50696 -0.135509 0
M  V30 1845 C 172.395 -4.80998 0.139252 0
M  V30 1846 C 174.747 -5.18333 0.545957 0
M  V30 1847 C 172.075 -5.76259 1.10194 0
M  V30 1848 C 174.427 -6.14627 1.49721 0
M  V30 1849 C 173.091 -6.43327 1.78006 0
M  V30 1850 H 172.361 -0.712944 -0.20197 0
M  V30 1851 H 175.008 -1.90582 0.18726 0
M  V30 1852 H 173.313 -3.39805 -1.95037 0
M  V30 1853 H 175.01 -3.65317 -1.65362 0
M  V30 1854 H 171.6 -4.27087 -0.359846 0
M  V30 1855 H 175.784 -4.95087 0.346842 0
M  V30 1856 H 171.04 -5.96804 1.32795 0
M  V30 1857 H 175.214 -6.66126 2.03099 0
M  V30 1858 H 172.841 -7.1695 2.52759 0
M  V30 1859 N 174.416 0.165178 -1.56732 0
M  V30 1860 C 175.346 1.20651 -1.99914 0
M  V30 1861 C 176.327 1.45827 -0.875705 0
M  V30 1862 O 177.512 1.57057 -1.14223 0
M  V30 1863 C 174.642 2.54401 -2.36427 0
M  V30 1864 C 173.596 2.43782 -3.51787 0
M  V30 1865 C 172.922 3.82078 -3.7406 0
M  V30 1866 C 174.222 1.93732 -4.85041 0
M  V30 1867 H 175.916 0.847534 -2.87154 0
M  V30 1868 H 173.462 0.40625 -1.38151 0
M  V30 1869 H 175.415 3.27458 -2.65234 0
M  V30 1870 H 174.139 2.92098 -1.46103 0
M  V30 1871 H 172.798 1.73178 -3.23117 0
M  V30 1872 H 172.446 4.17179 -2.81017 0
M  V30 1873 H 172.146 3.7584 -4.51684 0
M  V30 1874 H 173.67 4.56712 -4.05274 0
M  V30 1875 H 175.084 2.56569 -5.12684 0
M  V30 1876 H 173.481 1.98428 -5.66345 0
M  V30 1877 H 174.551 0.891962 -4.76626 0
M  V30 1878 N 175.894 1.51508 0.433938 0
M  V30 1879 C 177.141 1.64345 1.18309 0
M  V30 1880 C 177.469 0.361315 1.91115 0
M  V30 1881 O 176.724 -0.654753 1.84422 0
M  V30 1882 C 177.023 2.79928 2.22205 0
M  V30 1883 C 176.689 4.19078 1.66387 0
M  V30 1884 C 175.351 4.56932 1.50887 0
M  V30 1885 C 177.703 5.05894 1.25381 0
M  V30 1886 C 175.031 5.79305 0.928608 0
M  V30 1887 C 177.383 6.2885 0.687823 0
M  V30 1888 C 176.047 6.65473 0.519755 0
M  V30 1889 H 175.317 0.601381 0.432923 0
M  V30 1890 H 177.964 1.85549 0.473676 0
M  V30 1891 H 176.269 2.52959 2.99197 0
M  V30 1892 H 177.966 2.87059 2.79997 0
M  V30 1893 H 174.556 3.89234 1.79428 0
M  V30 1894 H 178.74 4.77253 1.36175 0
M  V30 1895 H 173.996 6.06324 0.786186 0
M  V30 1896 H 178.17 6.95461 0.361581 0
M  V30 1897 H 175.797 7.6017 0.0679979 0
M  V30 1898 N 177.372 -0.689602 1.41712 0
M  V30 1899 C 178.335 -1.78521 1.43746 0
M  V30 1900 C 179.335 -1.57436 0.327191 0
M  V30 1901 O 180.525 -1.64 0.587348 0
M  V30 1902 C 177.657 -3.16971 1.25467 0
M  V30 1903 H 178.85 -1.78108 2.41283 0
M  V30 1904 H 176.403 -0.89781 1.27942 0
M  V30 1905 H 177.138 -3.23019 0.287948 0
M  V30 1906 H 176.923 -3.33678 2.05917 0
M  V30 1907 H 178.413 -3.96935 1.2974 0
M  V30 1908 N 178.85 -1.27639 -0.924453 0
M  V30 1909 C 179.76 -1.12466 -2.05885 0
M  V30 1910 C 180.776 -0.053869 -1.73917 0
M  V30 1911 O 181.952 -0.261012 -1.99702 0
M  V30 1912 C 179.017 -0.776768 -3.37886 0
M  V30 1913 C 178.078 -1.92878 -3.83532 0
M  V30 1914 C 177.311 -1.59739 -5.09234 0
M  V30 1915 O 177.534 -0.506782 -5.68144 0
M  V30 1916 O 176.468 -2.43761 -5.50331 0
M  V30 1917 H 180.294 -2.07671 -2.21599 0
M  V30 1918 H 177.879 -1.06857 -1.04413 0
M  V30 1919 H 179.761 -0.596229 -4.17161 0
M  V30 1920 H 178.436 0.145732 -3.23372 0
M  V30 1921 H 177.343 -2.1644 -3.0513 0
M  V30 1922 H 178.676 -2.8316 -4.02593 0
M  V30 1923 N 180.328 1.1314 -1.09713 0
M  V30 1924 C 181.577 1.83838 -0.829851 0
M  V30 1925 C 181.89 1.84599 0.646728 0
M  V30 1926 O 183.096 2.51218 1.02965 0
M  V30 1927 C 181.552 3.30069 -1.43466 0
M  V30 1928 C 181.16 3.37688 -2.94399 0
M  V30 1929 C 182.904 4.05788 -1.24645 0
M  V30 1930 C 180.811 4.78209 -3.47952 0
M  V30 1931 H 179.741 0.68877 -0.306777 0
M  V30 1932 H 182.392 1.27448 -1.3202 0
M  V30 1933 H 180.774 3.8628 -0.871996 0
M  V30 1934 H 181.948 2.91456 -3.56918 0
M  V30 1935 H 180.263 2.75436 -3.12289 0
M  V30 1936 H 182.86 5.09535 -1.62107 0
M  V30 1937 H 183.203 4.15878 -0.187357 0
M  V30 1938 H 183.736 3.55915 -1.77678 0
M  V30 1939 H 180.475 4.73311 -4.53495 0
M  V30 1940 H 179.995 5.24924 -2.90198 0
M  V30 1941 H 181.674 5.47133 -3.45332 0
M  V30 1942 N 181.806 0.884767 1.30421 0
M  V30 1943 C 183.052 0.503851 1.96441 0
M  V30 1944 C 183.385 -0.944518 1.69684 0
M  V30 1945 O 182.66 -1.66737 1.00145 0
M  V30 1946 C 182.943 0.779085 3.51571 0
M  V30 1947 C 182.796 2.27807 3.87846 0
M  V30 1948 C 184.115 0.255452 4.39358 0
M  V30 1949 H 181.234 0.184533 0.713524 0
M  V30 1950 H 183.876 1.10872 1.54297 0
M  V30 1951 H 182.026 0.264274 3.876 0
M  V30 1952 H 183.698 2.86127 3.61841 0
M  V30 1953 H 181.941 2.74479 3.35922 0
M  V30 1954 H 182.612 2.42125 4.96064 0
M  V30 1955 H 185.088 0.696079 4.10236 0
M  V30 1956 H 183.964 0.477361 5.4682 0
M  V30 1957 H 184.225 -0.843293 4.33983 0
M  V30 1958 N 183.284 -1.43765 0.645699 0
M  V30 1959 C 184.509 -2.06767 0.161883 0
M  V30 1960 C 184.934 -1.48034 -1.16049 0
M  V30 1961 O 184.292 -0.587369 -1.71522 0
M  V30 1962 C 184.34 -3.60519 0.0762003 0
M  V30 1963 O 183.444 -4.00982 -0.963721 0
M  V30 1964 H 182.785 -0.657675 0.091429 0
M  V30 1965 H 185.315 -1.84397 0.886499 0
M  V30 1966 H 185.325 -4.07853 -0.109604 0
M  V30 1967 H 184 -4.02646 1.04157 0
M  V30 1968 H 182.577 -3.65253 -0.751312 0
M  V30 1969 N 184.763 -0.387143 -1.52771 0
M  V30 1970 C 186.012 0.19697 -2.00736 0
M  V30 1971 C 186.325 1.48082 -1.27793 0
M  V30 1972 O 187.531 2.14485 -1.66458 0
M  V30 1973 C 185.987 0.401568 -3.57653 0
M  V30 1974 C 185.595 -0.868907 -4.39493 0
M  V30 1975 C 187.339 0.942164 -4.13912 0
M  V30 1976 C 185.246 -0.632705 -5.88006 0
M  V30 1977 H 184.176 0.0773827 -0.750019 0
M  V30 1978 H 186.827 -0.50921 -1.76293 0
M  V30 1979 H 185.209 1.16954 -3.78335 0
M  V30 1980 H 186.383 -1.64133 -4.30577 0
M  V30 1981 H 184.698 -1.33429 -3.94443 0
M  V30 1982 H 187.295 1.13455 -5.22525 0
M  V30 1983 H 187.638 1.9106 -3.69867 0
M  V30 1984 H 188.171 0.233814 -3.97112 0
M  V30 1985 H 184.91 -1.57208 -6.36369 0
M  V30 1986 H 184.43 0.100825 -5.99715 0
M  V30 1987 H 186.109 -0.26642 -6.46451 0
M  V30 1988 N 186.241 1.57166 -0.116904 0
M  V30 1989 C 187.488 1.95123 0.541603 0
M  V30 1990 C 187.816 1.00006 1.6682 0
M  V30 1991 O 187.071 0.0235658 1.95686 0
M  V30 1992 C 187.37 3.39508 1.11664 0
M  V30 1993 C 187.036 4.50762 0.111606 0
M  V30 1994 C 185.698 4.80918 -0.164758 0
M  V30 1995 C 188.05 5.18036 -0.573438 0
M  V30 1996 C 185.378 5.75666 -1.13249 0
M  V30 1997 C 187.73 6.13824 -1.52978 0
M  V30 1998 C 186.394 6.42374 -1.81415 0
M  V30 1999 H 185.664 0.714005 0.198187 0
M  V30 2000 H 188.311 1.9048 -0.197365 0
M  V30 2001 H 186.616 3.40835 1.93232 0
M  V30 2002 H 188.313 3.66189 1.63422 0
M  V30 2003 H 184.903 4.27272 0.337192 0
M  V30 2004 H 189.087 4.94896 -0.373092 0
M  V30 2005 H 184.343 5.96092 -1.35958 0
M  V30 2006 H 188.517 6.65039 -2.06629 0
M  V30 2007 H 186.144 7.15599 -2.56557 0
M  V30 2008 N 187.719 -0.156864 1.56817 0
M  V30 2009 C 188.965 -0.872416 1.83076 0
M  V30 2010 C 189.298 -1.81261 0.697001 0
M  V30 2011 O 188.573 -1.92171 -0.30008 0
M  V30 2012 C 188.856 -1.65551 3.19789 0
M  V30 2013 C 188.709 -0.737467 4.43713 0
M  V30 2014 C 190.028 -2.62012 3.53606 0
M  V30 2015 H 187.147 -0.315715 0.665953 0
M  V30 2016 H 189.789 -0.138004 1.89498 0
M  V30 2017 H 187.939 -2.28159 3.14445 0
M  V30 2018 H 189.611 -0.123143 4.61136 0
M  V30 2019 H 187.854 -0.0464067 4.33775 0
M  V30 2020 H 188.525 -1.32122 5.35955 0
M  V30 2021 H 191.001 -2.09525 3.59497 0
M  V30 2022 H 189.877 -3.13861 4.50314 0
M  V30 2023 H 190.138 -3.42902 2.79053 0
M  V30 2024 N 189.197 -1.51736 -0.425897 0
M  V30 2025 C 190.127 -1.76827 -1.52494 0
M  V30 2026 C 191.108 -0.618524 -1.58456 0
M  V30 2027 O 192.293 -0.862416 -1.74 0
M  V30 2028 C 189.423 -1.90374 -2.90474 0
M  V30 2029 C 188.377 -3.0588 -2.99369 0
M  V30 2030 C 187.703 -3.04625 -4.3944 0
M  V30 2031 C 189.003 -4.45644 -2.72394 0
M  V30 2032 H 190.697 -2.68855 -1.31748 0
M  V30 2033 H 188.243 -1.29372 -0.632362 0
M  V30 2034 H 190.196 -2.0651 -3.6733 0
M  V30 2035 H 188.92 -0.95004 -3.12477 0
M  V30 2036 H 187.579 -2.89467 -2.24954 0
M  V30 2037 H 187.227 -2.0701 -4.58428 0
M  V30 2038 H 186.927 -3.82195 -4.46319 0
M  V30 2039 H 188.451 -3.22869 -5.18255 0
M  V30 2040 H 189.865 -4.62348 -3.38979 0
M  V30 2041 H 188.262 -5.25006 -2.9067 0
M  V30 2042 H 189.332 -4.54893 -1.67929 0
M  V30 2043 N 190.675 0.682077 -1.42076 0
M  V30 2044 C 191.638 1.77756 -1.44691 0
M  V30 2045 C 192.638 1.5726 -0.335535 0
M  V30 2046 O 193.828 1.63686 -0.596037 0
M  V30 2047 C 190.96 3.16301 -1.27146 0
M  V30 2048 H 192.153 1.76826 -2.42224 0
M  V30 2049 H 189.706 0.891012 -1.28416 0
M  V30 2050 H 190.441 3.22862 -0.305075 0
M  V30 2051 H 190.226 3.32581 -2.07683 0
M  V30 2052 H 191.716 3.96241 -1.31843 0
M  V30 2053 N 192.153 1.28127 0.917671 0
M  V30 2054 C 193.399 1.15223 1.66888 0
M  V30 2055 C 193.732 -0.299293 1.9188 0
M  V30 2056 O 193.007 -1.21805 1.51637 0
M  V30 2057 C 193.29 1.94706 3.02922 0
M  V30 2058 C 193.143 3.47898 2.85109 0
M  V30 2059 C 194.462 1.75939 4.03402 0
M  V30 2060 H 191.581 0.419946 0.605652 0
M  V30 2061 H 194.223 1.57398 1.06423 0
M  V30 2062 H 192.373 1.58864 3.54534 0
M  V30 2063 H 194.045 3.93624 2.40537 0
M  V30 2064 H 192.288 3.7373 2.20246 0
M  V30 2065 H 192.959 3.98765 3.81694 0
M  V30 2066 H 195.435 2.07209 3.60837 0
M  V30 2067 H 194.311 2.33931 4.96556 0
M  V30 2068 H 194.572 0.709877 4.36364 0
M  V30 2069 N 193.631 -1.12557 1.10312 0
M  V30 2070 C 194.879 -1.83675 0.843091 0
M  V30 2071 C 195.2 -1.84435 -0.633131 0
M  V30 2072 O 194.47 -1.30657 -1.45964 0
M  V30 2073 H 193.05 -0.680138 0.308904 0
M  V30 2074 H 195.712 -1.36301 1.39313 0
M  V30 2075 H 194.808 -2.87908 1.2048 0
M  V30 2076 N 195.109 -0.891671 -1.2995 0
M  V30 2077 C 196.355 -0.514261 -1.96171 0
M  V30 2078 C 196.688 0.935506 -1.70182 0
M  V30 2079 O 195.963 1.66204 -1.01028 0
M  V30 2080 C 196.246 -0.797719 -3.51153 0
M  V30 2081 C 196.099 -2.2986 -3.86632 0
M  V30 2082 C 197.418 -0.278749 -4.39216 0
M  V30 2083 H 194.537 -0.188314 -0.712535 0
M  V30 2084 H 197.179 -1.11689 -1.53706 0
M  V30 2085 H 195.329 -0.284826 -3.87455 0
M  V30 2086 H 197.001 -2.88042 -3.60319 0
M  V30 2087 H 195.244 -2.76257 -3.34462 0
M  V30 2088 H 195.915 -2.44753 -4.94773 0
M  V30 2089 H 198.391 -0.717825 -4.09862 0
M  V30 2090 H 197.267 -0.506353 -5.46559 0
M  V30 2091 H 197.528 0.820266 -4.34424 0
M  V30 2092 N 196.587 1.43421 -0.653314 0
M  V30 2093 C 197.817 2.05864 -0.174238 0
M  V30 2094 C 198.225 1.49052 1.16534 0
M  V30 2095 O 197.568 0.616481 1.73047 0
M  V30 2096 C 197.63 3.59499 -0.00875873 0
M  V30 2097 C 197.294 4.38893 -1.27364 0
M  V30 2098 C 198.291 4.70947 -2.20239 0
M  V30 2099 C 195.976 4.789 -1.51525 0
M  V30 2100 C 197.97 5.41916 -3.35568 0
M  V30 2101 C 195.657 5.49614 -2.67147 0
M  V30 2102 C 196.655 5.81044 -3.58994 0
M  V30 2103 O 196.343 6.50313 -4.72597 0
M  V30 2104 H 196.075 0.670345 -0.0872549 0
M  V30 2105 H 198.629 1.84913 -0.894226 0
M  V30 2106 H 196.859 3.79025 0.7666 0
M  V30 2107 H 198.548 4.0364 0.427687 0
M  V30 2108 H 199.314 4.40558 -2.02815 0
M  V30 2109 H 195.193 4.53843 -0.809158 0
M  V30 2110 H 198.737 5.66365 -4.07279 0
M  V30 2111 H 194.634 5.79419 -2.84505 0
M  V30 2112 H 195.402 6.68795 -4.71864 0
M  V30 2113 N 198.065 0.39524 1.52563 0
M  V30 2114 C 199.312 -0.185044 2.01653 0
M  V30 2115 C 199.64 -1.46317 1.28146 0
M  V30 2116 O 198.895 -1.9213 0.372074 0
M  V30 2117 C 199.194 -0.493444 3.53977 0
M  V30 2118 C 198.86 0.69384 4.4553 0
M  V30 2119 C 197.522 1.01954 4.70275 0
M  V30 2120 C 199.874 1.48785 4.99512 0
M  V30 2121 C 197.202 2.14069 5.46252 0
M  V30 2122 C 199.554 2.59965 5.76716 0
M  V30 2123 C 198.218 2.93037 5.99738 0
M  V30 2124 H 197.488 -0.0677123 0.7379 0
M  V30 2125 H 200.135 0.533807 1.8391 0
M  V30 2126 H 198.44 -1.29369 3.69825 0
M  V30 2127 H 200.137 -0.955163 3.89458 0
M  V30 2128 H 196.727 0.429987 4.26438 0
M  V30 2129 H 200.911 1.24946 4.80315 0
M  V30 2130 H 196.167 2.40056 5.62302 0
M  V30 2131 H 200.341 3.21887 6.17545 0
M  V30 2132 H 197.968 3.8003 6.58393 0
M  V30 2133 N 199.544 -1.57102 0.125237 0
M  V30 2134 C 200.793 -1.94582 -0.531095 0
M  V30 2135 C 201.106 -1.01126 -1.6743 0
M  V30 2136 O 202.312 -1.28097 -2.39381 0
M  V30 2137 C 200.768 -3.45839 -0.996164 0
M  V30 2138 C 200.376 -4.47842 0.118926 0
M  V30 2139 C 202.12 -3.92227 -1.62352 0
M  V30 2140 C 200.027 -5.90284 -0.363192 0
M  V30 2141 H 198.957 -0.726391 -0.20217 0
M  V30 2142 H 201.608 -1.82339 0.206092 0
M  V30 2143 H 199.99 -3.53338 -1.78796 0
M  V30 2144 H 201.164 -4.52018 0.895358 0
M  V30 2145 H 199.479 -4.11243 0.653324 0
M  V30 2146 H 202.076 -4.96069 -1.99548 0
M  V30 2147 H 202.419 -3.32552 -2.50429 0
M  V30 2148 H 202.952 -3.87554 -0.897019 0
M  V30 2149 H 199.691 -6.53728 0.481679 0
M  V30 2150 H 199.211 -5.89515 -1.10597 0
M  V30 2151 H 200.89 -6.41752 -0.822377 0
M  V30 2152 N 201.022 0.148545 -1.56898 0
M  V30 2153 C 201.985 1.16736 -1.97244 0
M  V30 2154 C 202.985 1.35947 -0.858777 0
M  V30 2155 O 204.175 1.32966 -1.12542 0
M  V30 2156 C 201.307 2.52798 -2.28705 0
M  V30 2157 H 202.5 0.821279 -2.88435 0
M  V30 2158 H 200.053 0.391831 -1.51309 0
M  V30 2159 H 200.788 2.92381 -1.403 0
M  V30 2160 H 200.573 2.40216 -3.09901 0
M  V30 2161 H 202.063 3.26179 -2.60762 0
M  V30 2162 N 202.5 1.5196 0.417844 0
M  V30 2163 C 203.748 1.65263 1.16329 0
M  V30 2164 C 204.069 0.380634 1.91249 0
M  V30 2165 O 203.339 -0.604214 1.86349 0
M  V30 2166 H 201.919 0.60912 0.432414 0
M  V30 2167 H 204.581 1.88969 0.477162 0
M  V30 2168 H 203.677 2.4896 1.88217 0
M  V30 2169 N 203.978 -0.674533 1.42435 0
M  V30 2170 C 204.91 -1.80005 1.41883 0
M  V30 2171 C 205.923 -1.59667 0.31787 0
M  V30 2172 O 207.112 -1.68781 0.580973 0
M  V30 2173 C 204.212 -3.17114 1.19549 0
M  V30 2174 C 203.385 -3.64299 2.42084 0
M  V30 2175 C 202.444 -4.80142 2.15291 0
M  V30 2176 O 201.47 -4.90673 2.88493 0
M  V30 2177 N 202.672 -5.68869 1.1562 0
M  V30 2178 H 205.437 -1.80964 2.38898 0
M  V30 2179 H 202.998 -0.857633 1.37318 0
M  V30 2180 H 204.99 -3.92267 0.995417 0
M  V30 2181 H 203.56 -3.11053 0.310569 0
M  V30 2182 H 202.78 -2.79822 2.77657 0
M  V30 2183 H 204.068 -3.92567 3.23679 0
M  V30 2184 H 203.466 -5.63012 0.550765 0
M  V30 2185 H 202.023 -6.43833 1.016 0
M  V30 2186 N 205.456 -1.28612 -0.910864 0
M  V30 2187 C 206.733 -1.06632 -1.63979 0
M  V30 2188 C 207.113 0.393351 -2.07403 0
M  V30 2189 O 206.461 1.37999 -1.82122 0
M  V30 2190 C 206.671 -2.0436 -2.8291 0
M  V30 2191 C 208.019 -2.34666 -3.5386 0
M  V30 2192 O 209.043 -2.02467 -2.93062 0
M  V30 2193 O 207.902 -2.89631 -4.63439 0
M  V30 2194 H 204.996 -0.407737 -0.7195 0
M  V30 2195 H 207.542 -1.39942 -0.959914 0
M  V30 2196 H 206.314 -3.02727 -2.47936 0
M  V30 2197 H 205.937 -1.71714 -3.58609 0
M  V30 2198 N 206.934 1.1197 -1.10907 0
M  V30 2199 C 208.182 1.83225 -0.852819 0
M  V30 2200 C 208.503 1.84769 0.623341 0
M  V30 2201 O 207.773 1.3143 1.45269 0
M  V30 2202 H 206.353 0.67849 -0.312507 0
M  V30 2203 H 209.015 1.3556 -1.40033 0
M  V30 2204 H 208.111 2.87265 -1.22005 0
M  V30 2205 N 208.412 0.89855 1.29475 0
M  V30 2206 C 209.658 0.524658 1.95896 0
M  V30 2207 C 209.991 -0.926468 1.70676 0
M  V30 2208 O 209.266 -1.65665 1.01908 0
M  V30 2209 C 209.549 0.81633 3.50725 0
M  V30 2210 C 209.402 2.31907 3.85408 0
M  V30 2211 C 210.721 0.302038 4.39062 0
M  V30 2212 H 207.84 0.19209 0.711527 0
M  V30 2213 H 210.482 1.12502 1.53112 0
M  V30 2214 H 208.632 0.305369 3.87298 0
M  V30 2215 H 210.304 2.89949 3.58786 0
M  V30 2216 H 208.547 2.78027 3.32992 0
M  V30 2217 H 209.218 2.47373 4.93468 0
M  V30 2218 H 211.694 0.739551 4.09475 0
M  V30 2219 H 210.57 0.535331 5.46283 0
M  V30 2220 H 210.831 -0.797216 4.34853 0
M  V30 2221 N 209.89 -1.43072 0.660911 0
M  V30 2222 C 211.306 -1.56169 0.329173 0
M  V30 2223 C 211.506 -1.64317 -1.16629 0
M  V30 2224 O 210.562 -1.60245 -1.95135 0
M  V30 2225 C 211.875 -2.81873 1.04729 0
M  V30 2226 C 213.423 -2.95627 1.02828 0
M  V30 2227 C 213.898 -4.24174 1.72744 0
M  V30 2228 N 215.389 -4.31055 1.69545 0
M  V30 2229 C 216.124 -5.29304 2.20511 0
M  V30 2230 N 215.62 -6.33786 2.79799 0
M  V30 2231 N 217.413 -5.21008 2.10966 0
M  V30 2232 H 209.564 -1.36027 1.63127 0
M  V30 2233 H 211.827 -0.653823 0.686454 0
M  V30 2234 H 211.533 -2.81942 2.10242 0
M  V30 2235 H 211.407 -3.72338 0.603702 0
M  V30 2236 H 213.794 -2.95094 -0.0184742 0
M  V30 2237 H 213.875 -2.06431 1.51063 0
M  V30 2238 H 213.519 -4.25467 2.7738 0
M  V30 2239 H 213.449 -5.1228 1.2197 0
M  V30 2240 H 215.94 -3.56174 1.26288 0
M  V30 2241 H 216.253 -7.05086 3.16344 0
M  V30 2242 H 214.598 -6.34387 2.83863 0
M  V30 2243 H 217.789 -4.38301 1.64347 0
M  V30 2244 H 217.962 -5.97416 2.50993 0
M  V30 2245 N 211.368 -0.403325 -1.52352 0
M  V30 2246 C 212.3 0.4603 -2.2453 0
M  V30 2247 C 213.313 1.01505 -1.27282 0
M  V30 2248 O 214.502 0.914982 -1.53266 0
M  V30 2249 C 211.602 1.65208 -2.95905 0
M  V30 2250 C 210.775 1.22224 -4.19976 0
M  V30 2251 C 209.834 2.28028 -4.74226 0
M  V30 2252 O 208.86 1.88857 -5.36956 0
M  V30 2253 N 210.062 3.6012 -4.55295 0
M  V30 2254 H 212.827 -0.158156 -2.99282 0
M  V30 2255 H 210.388 -0.230402 -1.60252 0
M  V30 2256 H 212.38 2.35541 -3.29093 0
M  V30 2257 H 210.95 2.17658 -2.24374 0
M  V30 2258 H 210.17 0.34725 -3.92668 0
M  V30 2259 H 211.458 0.911924 -5.00561 0
M  V30 2260 H 210.856 3.94698 -4.05253 0
M  V30 2261 H 209.413 4.26447 -4.92936 0
M  V30 2262 N 212.846 1.57033 -0.133567 0
M  V30 2263 C 214.071 2.00475 0.531477 0
M  V30 2264 C 214.496 1.01291 1.58499 0
M  V30 2265 O 213.854 -0.0133279 1.81295 0
M  V30 2266 C 213.902 3.42729 1.12113 0
M  V30 2267 O 213.006 3.46498 2.23636 0
M  V30 2268 H 212.347 0.650876 0.131362 0
M  V30 2269 H 214.877 2.03344 -0.22634 0
M  V30 2270 H 214.887 3.81246 1.4531 0
M  V30 2271 H 213.562 4.14428 0.349557 0
M  V30 2272 H 212.139 3.19811 1.91769 0
M  V30 2273 N 214.325 -0.140222 1.56975 0
M  V30 2274 C 215.741 -0.493088 1.51792 0
M  V30 2275 C 215.941 -1.83013 0.843116 0
M  V30 2276 O 214.997 -2.49041 0.416493 0
M  V30 2277 C 216.31 -0.497144 2.96562 0
M  V30 2278 C 217.858 -0.582186 3.07538 0
M  V30 2279 C 218.333 -0.616838 4.53827 0
M  V30 2280 N 219.824 -0.678873 4.58198 0
M  V30 2281 C 220.559 -0.726782 5.68775 0
M  V30 2282 N 220.055 -0.733623 6.88905 0
M  V30 2283 N 221.848 -0.768179 5.56826 0
M  V30 2284 H 213.999 0.736108 1.99237 0
M  V30 2285 H 216.262 0.269182 0.90898 0
M  V30 2286 H 215.968 0.417217 3.49217 0
M  V30 2287 H 215.842 -1.33263 3.52875 0
M  V30 2288 H 218.229 -1.48697 2.54899 0
M  V30 2289 H 218.31 0.280581 2.54257 0
M  V30 2290 H 217.954 0.283812 5.07106 0
M  V30 2291 H 217.884 -1.49619 5.04898 0
M  V30 2292 H 220.375 -0.68061 3.7172 0
M  V30 2293 H 220.688 -0.772215 7.68932 0
M  V30 2294 H 219.033 -0.701389 6.91452 0
M  V30 2295 H 222.224 -0.760051 4.61888 0
M  V30 2296 H 222.397 -0.80205 6.43017 0
M  V30 2297 N 215.803 -1.52179 -0.40978 0
M  V30 2298 C 216.766 -1.74853 -1.48186 0
M  V30 2299 C 217.766 -0.618417 -1.48433 0
M  V30 2300 O 218.956 -0.886286 -1.49969 0
M  V30 2301 C 216.088 -1.8303 -2.87598 0
M  V30 2302 H 217.281 -2.70559 -1.29374 0
M  V30 2303 H 214.834 -1.42586 -0.640233 0
M  V30 2304 H 215.569 -0.89236 -3.11781 0
M  V30 2305 H 215.354 -2.65187 -2.88822 0
M  V30 2306 H 216.844 -2.02316 -3.65319 0
M  V30 2307 N 217.281 0.66697 -1.42791 0
M  V30 2308 C 218.506 1.46004 -1.47301 0
M  V30 2309 C 218.931 1.87894 -0.0880317 0
M  V30 2310 O 218.289 1.56502 0.915253 0
M  V30 2311 C 218.337 2.68031 -2.41229 0
M  V30 2312 O 217.441 3.6659 -1.88906 0
M  V30 2313 H 216.782 0.43832 -0.49877 0
M  V30 2314 H 219.312 0.817391 -1.87563 0
M  V30 2315 H 219.322 3.1601 -2.58073 0
M  V30 2316 H 217.997 2.36883 -3.41847 0
M  V30 2317 H 216.574 3.25661 -1.81656 0
M  V30 2318 N 218.759 1.29093 0.90403 0
M  V30 2319 C 220.036 1.075 1.63411 0
M  V30 2320 C 220.416 -0.382346 2.07609 0
M  V30 2321 O 219.764 -1.37031 1.82851 0
M  V30 2322 C 219.974 2.05858 2.81822 0
M  V30 2323 C 221.322 2.36539 3.52611 0
M  V30 2324 O 222.346 2.04019 2.91984 0
M  V30 2325 O 221.205 2.92085 4.61897 0
M  V30 2326 H 218.299 0.411547 0.717327 0
M  V30 2327 H 220.845 1.40449 0.952479 0
M  V30 2328 H 219.617 3.04037 2.46327 0
M  V30 2329 H 219.24 1.73613 3.57693 0
M  V30 2330 N 220.237 -1.11381 1.11499 0
M  V30 2331 C 221.184 -2.17439 0.773887 0
M  V30 2332 C 222.154 -1.64132 -0.254899 0
M  V30 2333 O 223.339 -1.90345 -0.13168 0
M  V30 2334 C 220.479 -3.44373 0.223917 0
M  V30 2335 C 219.592 -4.1168 1.30934 0
M  V30 2336 C 218.727 -5.263 0.71984 0
M  V30 2337 C 217.766 -5.85493 1.78507 0
M  V30 2338 N 216.903 -6.91507 1.21502 0
M  V30 2339 H 221.743 -2.45962 1.68246 0
M  V30 2340 H 219.28 -1.20744 0.840191 0
M  V30 2341 H 221.238 -4.17047 -0.112921 0
M  V30 2342 H 219.868 -3.16232 -0.647851 0
M  V30 2343 H 218.92 -3.37073 1.76312 0
M  V30 2344 H 220.232 -4.51729 2.11524 0
M  V30 2345 H 219.386 -6.05785 0.333094 0
M  V30 2346 H 218.125 -4.87559 -0.117377 0
M  V30 2347 H 217.13 -5.04686 2.18111 0
M  V30 2348 H 218.355 -6.26301 2.62533 0
M  V30 2349 H 216.301 -6.54783 0.399455 0
M  V30 2350 H 216.218 -7.30214 1.95763 0
M  V30 2351 H 217.486 -7.74795 0.855181 0
M  V30 2352 N 221.715 -0.905404 -1.28997 0
M  V30 2353 C 222.647 -0.344748 -2.26592 0
M  V30 2354 C 223.66 0.512135 -1.54535 0
M  V30 2355 O 224.849 0.328368 -1.75454 0
M  V30 2356 C 221.949 0.526587 -3.34784 0
M  V30 2357 C 221.122 -0.305871 -4.36329 0
M  V30 2358 C 220.181 0.499209 -5.23827 0
M  V30 2359 O 219.207 -0.0853004 -5.69136 0
M  V30 2360 N 220.409 1.80408 -5.51755 0
M  V30 2361 H 223.174 -1.18359 -2.75338 0
M  V30 2362 H 220.735 -0.770481 -1.42391 0
M  V30 2363 H 222.727 1.07171 -3.90252 0
M  V30 2364 H 221.297 1.26613 -2.85811 0
M  V30 2365 H 220.517 -1.0324 -3.80441 0
M  V30 2366 H 221.805 -0.875773 -5.01206 0
M  V30 2367 H 221.203 2.3016 -5.16762 0
M  V30 2368 H 219.76 2.29621 -6.10014 0
M  V30 2369 N 223.193 1.4272 -0.668489 0
M  V30 2370 C 224.421 2.05966 -0.196348 0
M  V30 2371 C 224.836 1.50191 1.14403 0
M  V30 2372 O 224.193 0.639208 1.7094 0
M  V30 2373 C 224.244 3.61314 -0.115815 0
M  V30 2374 O 223.965 4.1502 -1.40322 0
M  V30 2375 C 225.466 4.41663 0.380579 0
M  V30 2376 H 222.686 0.663954 -0.0969829 0
M  V30 2377 H 225.23 1.82966 -0.913446 0
M  V30 2378 H 223.385 3.83448 0.551931 0
M  V30 2379 H 223.799 5.08832 -1.27243 0
M  V30 2380 H 225.273 5.5065 0.385848 0
M  V30 2381 H 225.75 4.15792 1.41471 0
M  V30 2382 H 226.356 4.24534 -0.255209 0
M  V30 2383 N 224.671 0.411399 1.52136 0
M  V30 2384 C 225.601 -0.404015 2.29978 0
M  V30 2385 C 226.582 -1.04412 1.34284 0
M  V30 2386 O 227.767 -1.0527 1.63192 0
M  V30 2387 C 224.897 -1.5197 3.12286 0
M  V30 2388 C 223.851 -1.00448 4.16046 0
M  V30 2389 C 223.177 -2.21393 4.86712 0
M  V30 2390 C 224.477 -0.0569336 5.22269 0
M  V30 2391 H 226.171 0.245529 2.98392 0
M  V30 2392 H 223.717 0.119525 1.43503 0
M  V30 2393 H 225.67 -2.09715 3.6551 0
M  V30 2394 H 224.394 -2.19716 2.41646 0
M  V30 2395 H 223.053 -0.449421 3.63835 0
M  V30 2396 H 222.701 -2.87699 4.12599 0
M  V30 2397 H 222.401 -1.87571 5.56858 0
M  V30 2398 H 223.925 -2.7974 5.4275 0
M  V30 2399 H 225.339 -0.54325 5.7072 0
M  V30 2400 H 223.736 0.192594 5.99791 0
M  V30 2401 H 224.806 0.887663 4.76706 0
M  V30 2402 N 226.149 -1.5696 0.141893 0
M  V30 2403 C 227.079 -2.19516 -0.795936 0
M  V30 2404 C 228.06 -1.14187 -1.26077 0
M  V30 2405 O 229.245 -1.42511 -1.31925 0
M  V30 2406 C 226.375 -2.81272 -2.03723 0
M  V30 2407 C 225.329 -3.92384 -1.70936 0
M  V30 2408 C 224.655 -4.41052 -3.02287 0
M  V30 2409 C 225.955 -5.13403 -0.959954 0
M  V30 2410 H 227.649 -2.98138 -0.274596 0
M  V30 2411 H 225.195 -1.43406 -0.130636 0
M  V30 2412 H 227.148 -3.237 -2.69808 0
M  V30 2413 H 225.872 -1.99973 -2.58221 0
M  V30 2414 H 224.531 -3.50566 -1.07232 0
M  V30 2415 H 224.179 -3.56582 -3.54765 0
M  V30 2416 H 223.879 -5.15993 -2.81114 0
M  V30 2417 H 225.403 -4.86146 -3.69451 0
M  V30 2418 H 226.817 -5.52706 -1.52279 0
M  V30 2419 H 225.214 -5.94073 -0.848357 0
M  V30 2420 H 226.284 -4.84875 0.0492434 0
M  V30 2421 N 227.627 0.131896 -1.57047 0
M  V30 2422 C 229.038 0.690407 -1.73465 0
M  V30 2423 C 229.389 1.8094 -0.758629 0
M  V30 2424 O 228.514 2.16282 0.0713813 0
M  V30 2425 C 229.109 1.25916 -3.14532 0
M  V30 2426 C 227.668 1.76409 -3.32501 0
M  V30 2427 C 226.815 0.658579 -2.69366 0
M  V30 2428 H 229.766 -0.0939144 -1.58422 0
M  V30 2429 H 229.787 2.12892 -3.15369 0
M  V30 2430 H 229.299 0.444515 -3.85546 0
M  V30 2431 H 227.4 2.60391 -2.66509 0
M  V30 2432 H 227.513 1.88241 -4.4057 0
M  V30 2433 H 225.877 1.08899 -2.30246 0
M  V30 2434 H 226.66 -0.14487 -3.42994 0
M  V30 2435 N 229.106 1.52395 0.401703 0
M  V30 2436 C 230.054 1.7689 1.51039 0
M  V30 2437 C 231.048 0.636298 1.56996 0
M  V30 2438 O 232.254 0.818507 1.60314 0
M  V30 2439 H 228.629 0.559502 0.502456 0
M  V30 2440 H 230.6 2.69757 1.27568 0
M  V30 2441 C 229.349 1.94331 2.88324 0
M  V30 2442 H 228.672 2.80905 2.84486 0
M  V30 2443 H 230.112 2.15466 3.65172 0
M  V30 2444 C 228.571 0.712396 3.29282 0
M  V30 2445 O 229.101 -0.116218 4.01532 0
M  V30 2446 N 227.307 0.546154 2.85422 0
M  V30 2447 H 226.854 1.22156 2.26794 0
M  V30 2448 H 226.812 -0.276113 3.13185 0
M  V30 2449 N 230.584 -0.659388 1.43143 0
M  V30 2450 C 231.861 -1.41627 1.34912 0
M  V30 2451 C 232.241 -2.11099 -0.00607785 0
M  V30 2452 O 231.589 -2.04353 -1.02236 0
M  V30 2453 C 231.799 -2.40604 2.52805 0
M  V30 2454 C 233.147 -3.04789 2.95616 0
M  V30 2455 O 234.171 -2.50932 2.52807 0
M  V30 2456 O 233.03 -4.02421 3.69756 0
M  V30 2457 H 230.124 -0.63246 0.532844 0
M  V30 2458 H 232.67 -0.686814 1.5518 0
M  V30 2459 H 231.442 -1.88174 3.43083 0
M  V30 2460 H 231.065 -3.21009 2.34604 0
M  V30 2461 N 232.062 -1.29571 -0.897171 0
M  V30 2462 C 232.994 -1.10724 -2.00681 0
M  V30 2463 C 234.007 -0.0540026 -1.6271 0
M  V30 2464 O 235.196 -0.298783 -1.75982 0
M  V30 2465 C 232.296 -0.663912 -3.32333 0
M  V30 2466 C 231.469 -1.79622 -3.98816 0
M  V30 2467 C 230.528 -1.34349 -5.0876 0
M  V30 2468 O 229.554 -2.04864 -5.31055 0
M  V30 2469 N 230.756 -0.215764 -5.80099 0
M  V30 2470 H 233.521 -2.06291 -2.17403 0
M  V30 2471 H 231.082 -1.21544 -1.06951 0
M  V30 2472 H 233.074 -0.344295 -4.03233 0
M  V30 2473 H 231.644 0.199375 -3.11964 0
M  V30 2474 H 230.864 -2.28459 -3.21248 0
M  V30 2475 H 232.152 -2.55535 -4.39976 0
M  V30 2476 H 231.55 0.372091 -5.64475 0
M  V30 2477 H 230.107 0.0444707 -6.51785 0
M  V30 2478 N 233.54 1.10788 -1.12088 0
M  V30 2479 C 234.47 2.19083 -0.807755 0
M  V30 2480 C 235.451 1.6858 0.226859 0
M  V30 2481 O 236.636 1.93997 0.0888475 0
M  V30 2482 C 233.766 3.46344 -0.257576 0
M  V30 2483 C 232.72 4.101 -1.22483 0
M  V30 2484 C 232.046 5.32016 -0.535052 0
M  V30 2485 C 233.346 4.54236 -2.57811 0
M  V30 2486 H 235.04 2.45534 -1.71328 0
M  V30 2487 H 232.586 1.1801 -0.825205 0
M  V30 2488 H 234.539 4.21392 -0.0262679 0
M  V30 2489 H 233.263 3.19373 0.683278 0
M  V30 2490 H 231.922 3.37054 -1.44189 0
M  V30 2491 H 231.57 5.01319 0.410827 0
M  V30 2492 H 231.27 5.75625 -1.18024 0
M  V30 2493 H 232.794 6.09799 -0.312695 0
M  V30 2494 H 234.208 5.20575 -2.40155 0
M  V30 2495 H 232.605 5.08682 -3.18375 0
M  V30 2496 H 233.675 3.6734 -3.16528 0
M  V30 2497 N 235.018 0.912232 1.28515 0
M  V30 2498 C 236.248 0.559604 1.98877 0
M  V30 2499 C 236.656 -0.863113 1.68366 0
M  V30 2500 O 235.999 -1.58304 0.931969 0
M  V30 2501 C 236.061 0.68703 3.52874 0
M  V30 2502 C 235.725 2.07901 4.06972 0
M  V30 2503 C 236.722 3.05157 4.20922 0
M  V30 2504 C 234.407 2.39178 4.417 0
M  V30 2505 C 236.401 4.31806 4.68852 0
M  V30 2506 C 234.088 3.66068 4.89324 0
M  V30 2507 C 235.086 4.62195 5.02856 0
M  V30 2508 O 234.774 5.86829 5.49442 0
M  V30 2509 H 234.506 0.212191 0.641834 0
M  V30 2510 H 237.06 1.22712 1.64715 0
M  V30 2511 H 235.29 -0.0375486 3.86682 0
M  V30 2512 H 236.979 0.341727 4.04459 0
M  V30 2513 H 237.745 2.82311 3.94367 0
M  V30 2514 H 233.624 1.65109 4.30418 0
M  V30 2515 H 237.168 5.06842 4.79329 0
M  V30 2516 H 233.065 3.88739 5.15318 0
M  V30 2517 H 233.833 5.89597 5.6773 0
M  V30 2518 N 236.496 -1.42363 0.676048 0
M  V30 2519 C 237.428 -2.29164 -0.0404605 0
M  V30 2520 C 238.441 -1.43747 -0.764245 0
M  V30 2521 O 239.63 -1.67453 -0.618195 0
M  V30 2522 C 236.73 -3.21196 -1.08103 0
M  V30 2523 C 235.903 -4.35273 -0.430812 0
M  V30 2524 C 234.962 -5.08017 -1.37133 0
M  V30 2525 O 233.988 -5.62494 -0.87116 0
M  V30 2526 N 235.19 -5.13647 -2.70456 0
M  V30 2527 H 237.955 -2.91298 0.704667 0
M  V30 2528 H 235.516 -1.53303 0.520559 0
M  V30 2529 H 237.508 -3.66728 -1.71152 0
M  V30 2530 H 236.078 -2.60505 -1.72788 0
M  V30 2531 H 235.298 -3.92372 0.379209 0
M  V30 2532 H 236.586 -5.08795 0.0221132 0
M  V30 2533 H 235.984 -4.708 -3.1363 0
M  V30 2534 H 234.541 -5.62821 -3.28749 0
M  V30 2535 N 237.974 -0.419461 -1.51915 0
M  V30 2536 C 239.385 0.0477853 -1.86639 0
M  V30 2537 C 239.736 1.43531 -1.33766 0
M  V30 2538 O 238.861 2.05401 -0.68113 0
M  V30 2539 C 239.456 0.0934885 -3.38671 0
M  V30 2540 C 238.015 0.505097 -3.72996 0
M  V30 2541 C 237.162 -0.313792 -2.75519 0
M  V30 2542 H 240.113 -0.636088 -1.45395 0
M  V30 2543 H 240.134 0.906667 -3.6954 0
M  V30 2544 H 239.646 -0.916501 -3.77123 0
M  V30 2545 H 237.747 1.52135 -3.40126 0
M  V30 2546 H 237.86 0.242309 -4.78487 0
M  V30 2547 H 236.224 0.225363 -2.53701 0
M  V30 2548 H 237.007 -1.32232 -3.16812 0
M  V30 2549 N 239.452 1.56882 -0.150215 0
M  V30 2550 C 240.382 2.19935 0.784284 0
M  V30 2551 C 241.363 1.14854 1.25469 0
M  V30 2552 O 242.548 1.43209 1.31168 0
M  V30 2553 C 239.678 2.82349 2.02229 0
M  V30 2554 C 238.632 3.93285 1.68853 0
M  V30 2555 C 237.958 4.42649 2.99944 0
M  V30 2556 C 239.258 5.13904 0.932714 0
M  V30 2557 H 240.952 2.9828 0.258781 0
M  V30 2558 H 238.498 1.43473 0.123029 0
M  V30 2559 H 240.451 3.25126 2.68088 0
M  V30 2560 H 239.175 2.0134 2.57157 0
M  V30 2561 H 237.834 3.5113 1.05371 0
M  V30 2562 H 237.482 3.58458 3.52869 0
M  V30 2563 H 237.182 5.17476 2.78374 0
M  V30 2564 H 238.706 4.88099 3.66868 0
M  V30 2565 H 240.12 5.53506 1.49345 0
M  V30 2566 H 238.517 5.94515 0.81684 0
M  V30 2567 H 239.587 4.84842 -0.0749568 0
M  V30 2568 N 240.93 -0.123565 1.57115 0
M  V30 2569 C 241.877 -1.15177 2.00007 0
M  V30 2570 C 242.847 -1.41403 0.871454 0
M  V30 2571 O 244.032 -1.53346 1.13533 0
M  V30 2572 C 241.172 -2.47436 2.40561 0
M  V30 2573 C 240.285 -2.28184 3.66819 0
M  V30 2574 C 239.42 -3.53641 3.96373 0
M  V30 2575 C 238.459 -3.29528 5.15827 0
M  V30 2576 N 237.596 -4.47175 5.41275 0
M  V30 2577 H 242.436 -0.779008 2.87638 0
M  V30 2578 H 239.973 -0.373166 1.42288 0
M  V30 2579 H 241.931 -3.24584 2.62109 0
M  V30 2580 H 240.561 -2.82614 1.55978 0
M  V30 2581 H 239.613 -1.41976 3.52912 0
M  V30 2582 H 240.925 -2.0634 4.5412 0
M  V30 2583 H 240.079 -4.39209 4.18545 0
M  V30 2584 H 238.818 -3.78512 3.07538 0
M  V30 2585 H 237.823 -2.42349 4.93505 0
M  V30 2586 H 239.048 -3.06031 6.06236 0
M  V30 2587 H 236.994 -4.72175 4.55397 0
M  V30 2588 H 236.911 -4.28419 6.22891 0
M  V30 2589 H 238.179 -5.3389 5.67963 0
M  V30 2590 N 242.408 -1.52605 -0.393616 0
M  V30 2591 C 243.685 -1.58001 -1.15304 0
M  V30 2592 C 244.065 -0.370385 -2.07825 0
M  V30 2593 O 243.413 0.641638 -2.19306 0
M  V30 2594 C 243.623 -2.91652 -1.91677 0
M  V30 2595 C 244.971 -3.4522 -2.47201 0
M  V30 2596 O 245.995 -2.93495 -2.01839 0
M  V30 2597 O 244.854 -4.35579 -3.3005 0
M  V30 2598 H 241.948 -0.637068 -0.527327 0
M  V30 2599 H 244.494 -1.64939 -0.399141 0
M  V30 2600 H 243.266 -3.71136 -1.23992 0
M  V30 2601 H 242.889 -2.88077 -2.74039 0
M  V30 2602 N 243.887 0.651787 -1.4349 0
M  V30 2603 C 245.303 0.96762 -1.26922 0
M  V30 2604 C 245.503 2.00602 -0.189982 0
M  V30 2605 O 244.559 2.48793 0.431107 0
M  V30 2606 C 245.872 1.45052 -2.63401 0
M  V30 2607 C 247.42 1.5671 -2.70945 0
M  V30 2608 C 247.895 2.0839 -4.07845 0
M  V30 2609 N 249.386 2.1569 -4.09917 0
M  V30 2610 C 250.121 2.56804 -5.12679 0
M  V30 2611 N 249.617 2.97203 -6.25813 0
M  V30 2612 N 251.41 2.56756 -5.00033 0
M  V30 2613 H 243.561 -0.0353158 -2.12371 0
M  V30 2614 H 245.824 0.0467858 -0.946845 0
M  V30 2615 H 245.53 0.761926 -3.43348 0
M  V30 2616 H 245.404 2.42529 -2.88894 0
M  V30 2617 H 247.791 2.2467 -1.9133 0
M  V30 2618 H 247.872 0.57662 -2.49216 0
M  V30 2619 H 247.516 1.41031 -4.87927 0
M  V30 2620 H 247.446 3.08271 -4.26938 0
M  V30 2621 H 249.937 1.87237 -3.28254 0
M  V30 2622 H 250.25 3.27328 -7.00055 0
M  V30 2623 H 248.595 2.95004 -6.29283 0
M  V30 2624 H 251.786 2.24572 -4.10713 0
M  V30 2625 H 251.959 2.88475 -5.80247 0
M  V30 2626 N 245.365 1.30045 0.890287 0
M  V30 2627 C 246.275 1.17885 2.02831 0
M  V30 2628 C 247.291 0.0999609 1.73713 0
M  V30 2629 O 248.467 0.313867 1.98939 0
M  V30 2630 C 245.532 0.866079 3.35708 0
M  V30 2631 C 244.593 2.02979 3.78283 0
M  V30 2632 C 243.826 1.73184 5.0482 0
M  V30 2633 O 244.049 0.657237 5.66601 0
M  V30 2634 O 242.983 2.58267 5.43674 0
M  V30 2635 H 246.809 2.13474 2.16015 0
M  V30 2636 H 244.394 1.09587 1.01543 0
M  V30 2637 H 246.276 0.706623 4.15433 0
M  V30 2638 H 244.951 -0.0599443 3.23644 0
M  V30 2639 H 243.858 2.24454 2.99285 0
M  V30 2640 H 245.191 2.93734 3.94944 0
M  V30 2641 N 246.843 -1.10192 1.12674 0
M  V30 2642 C 248.12 -1.78717 0.794965 0
M  V30 2643 C 248.5 -1.98628 -0.714853 0
M  V30 2644 O 247.848 -1.58135 -1.64941 0
M  V30 2645 C 248.058 -3.11546 1.5729 0
M  V30 2646 C 249.406 -3.86382 1.76052 0
M  V30 2647 O 250.43 -3.21274 1.53823 0
M  V30 2648 O 249.289 -5.03246 2.13087 0
M  V30 2649 H 246.383 -0.774702 0.289423 0
M  V30 2650 H 248.929 -1.16819 1.23091 0
M  V30 2651 H 247.701 -2.92489 2.59935 0
M  V30 2652 H 247.324 -3.81164 1.13137 0
M  V30 2653 N 248.321 -0.919034 -1.28029 0
M  V30 2654 C 249.598 -0.473668 -1.89778 0
M  V30 2655 C 249.978 1.04783 -1.83259 0
M  V30 2656 O 249.326 1.8982 -1.27202 0
M  V30 2657 C 249.536 -1.00998 -3.34066 0
M  V30 2658 C 250.884 -1.06525 -4.1102 0
M  V30 2659 O 251.908 -0.958996 -3.43048 0
M  V30 2660 O 250.767 -1.22776 -5.3253 0
M  V30 2661 H 247.861 -0.15098 -0.813101 0
M  V30 2662 H 250.407 -1.01016 -1.36359 0
M  V30 2663 H 249.179 -2.05392 -3.33061 0
M  V30 2664 H 248.802 -0.454626 -3.94992 0
M  V30 2665 N 249.799 1.42003 -0.683588 0
M  V30 2666 C 250.731 2.29183 0.0283068 0
M  V30 2667 C 251.744 1.4415 0.756611 0
M  V30 2668 O 252.933 1.67779 0.609306 0
M  V30 2669 C 250.033 3.21765 1.06398 0
M  V30 2670 C 249.206 4.35496 0.407723 0
M  V30 2671 C 248.265 5.08737 1.34437 0
M  V30 2672 O 247.291 5.62948 0.841318 0
M  V30 2673 N 248.493 5.15075 2.67728 0
M  V30 2674 H 251.258 2.9092 -0.720105 0
M  V30 2675 H 248.819 1.53025 -0.528682 0
M  V30 2676 H 250.811 3.6763 1.69204 0
M  V30 2677 H 249.381 2.61418 1.71404 0
M  V30 2678 H 248.601 3.92165 -0.400012 0
M  V30 2679 H 249.889 5.08776 -0.0490956 0
M  V30 2680 H 249.287 4.72457 3.11129 0
M  V30 2681 H 247.844 5.64556 3.2576 0
M  V30 2682 N 251.277 0.427512 1.51691 0
M  V30 2683 C 252.507 -0.140986 2.06118 0
M  V30 2684 C 252.915 -1.37854 1.29588 0
M  V30 2685 O 252.258 -1.80411 0.346036 0
M  V30 2686 C 252.32 -0.538276 3.55447 0
M  V30 2687 C 251.984 0.591095 4.53161 0
M  V30 2688 C 252.981 1.46027 4.98971 0
M  V30 2689 C 250.666 0.769028 4.96378 0
M  V30 2690 C 252.66 2.49216 5.8666 0
M  V30 2691 C 250.347 1.80421 5.83859 0
M  V30 2692 C 251.345 2.66417 6.28897 0
M  V30 2693 O 251.033 3.68159 7.14643 0
M  V30 2694 H 250.765 -0.0157455 0.675817 0
M  V30 2695 H 253.319 0.602495 1.96365 0
M  V30 2696 H 251.549 -1.33432 3.6295 0
M  V30 2697 H 253.238 -1.0368 3.92435 0
M  V30 2698 H 254.004 1.33429 4.66285 0
M  V30 2699 H 249.883 0.109273 4.6087 0
M  V30 2700 H 253.427 3.16372 6.21735 0
M  V30 2701 H 249.324 1.93042 6.15959 0
M  V30 2702 H 250.092 3.64622 7.32798 0
M  V30 2703 N 252.755 -1.56801 0.158532 0
M  V30 2704 C 253.98 -2.01295 -0.499516 0
M  V30 2705 C 254.405 -1.03799 -1.56867 0
M  V30 2706 O 253.763 -0.0155162 -1.81293 0
M  V30 2707 C 253.811 -3.44469 -1.06647 0
M  V30 2708 O 252.915 -3.50012 -2.18095 0
M  V30 2709 H 252.256 -0.652884 -0.12099 0
M  V30 2710 H 254.786 -2.02958 0.258661 0
M  V30 2711 H 254.796 -3.8351 -1.39227 0
M  V30 2712 H 253.471 -4.14932 -0.283581 0
M  V30 2713 H 252.048 -3.22822 -1.86656 0
M  V30 2714 N 254.233 0.115231 -1.57178 0
M  V30 2715 C 255.183 1.14707 -1.97044 0
M  V30 2716 C 256.167 1.36866 -0.845957 0
M  V30 2717 O 257.359 1.37895 -1.10968 0
M  V30 2718 C 254.488 2.47266 -2.38148 0
M  V30 2719 C 253.574 2.28566 -3.57237 0
M  V30 2720 N 253.965 1.79685 -4.72807 0
M  V30 2721 C 252.263 2.59208 -3.62943 0
M  V30 2722 C 252.964 1.74781 -5.54821 0
M  V30 2723 N 251.94 2.19264 -4.97417 0
M  V30 2724 H 255.742 0.761754 -2.83857 0
M  V30 2725 H 253.256 0.322928 -1.59157 0
M  V30 2726 H 255.253 3.219 -2.64927 0
M  V30 2727 H 253.913 2.86552 -1.52702 0
M  V30 2728 H 254.924 1.49177 -4.9595 0
M  V30 2729 H 251.601 3.02154 -2.88113 0
M  V30 2730 H 252.991 1.38212 -6.57531 0
M  V30 2731 N 255.711 1.52812 0.385517 0
M  V30 2732 C 256.641 1.80808 1.47752 0
M  V30 2733 C 257.622 0.660318 1.5676 0
M  V30 2734 O 258.807 0.908246 1.71652 0
M  V30 2735 C 255.937 1.98008 2.85324 0
M  V30 2736 C 254.891 3.13709 2.91154 0
M  V30 2737 C 254.217 3.16169 4.31209 0
M  V30 2738 C 255.517 4.52709 2.60483 0
M  V30 2739 H 257.211 2.72253 1.24573 0
M  V30 2740 H 254.757 1.31003 0.597839 0
M  V30 2741 H 256.71 2.16176 3.61726 0
M  V30 2742 H 255.434 1.03255 3.09848 0
M  V30 2743 H 254.093 2.95329 2.17201 0
M  V30 2744 H 253.741 2.19092 4.52778 0
M  V30 2745 H 253.441 3.93894 4.36029 0
M  V30 2746 H 254.965 3.36496 5.09512 0
M  V30 2747 H 256.379 4.71173 3.26602 0
M  V30 2748 H 254.776 5.32528 2.76648 0
M  V30 2749 H 255.846 4.59186 1.55809 0
M  V30 2750 N 257.189 -0.644168 1.43834 0
M  V30 2751 C 258.121 -1.76955 1.45669 0
M  V30 2752 C 259.134 -1.58956 0.351666 0
M  V30 2753 O 260.323 -1.6751 0.616644 0
M  V30 2754 C 257.423 -3.14507 1.26248 0
M  V30 2755 C 256.596 -3.59083 2.49757 0
M  V30 2756 C 255.655 -4.75467 2.25427 0
M  V30 2757 O 254.681 -4.84444 2.98836 0
M  V30 2758 N 255.883 -5.66289 1.27661 0
M  V30 2759 H 258.648 -1.75856 2.42682 0
M  V30 2760 H 256.209 -0.828312 1.39106 0
M  V30 2761 H 258.201 -3.90067 1.0784 0
M  V30 2762 H 256.771 -3.10325 0.376478 0
M  V30 2763 H 255.991 -2.7387 2.8353 0
M  V30 2764 H 257.279 -3.85613 3.31934 0
M  V30 2765 H 256.677 -5.61718 0.670064 0
M  V30 2766 H 255.234 -6.41533 1.15234 0
M  V30 2767 N 258.668 -1.30515 -0.883378 0
M  V30 2768 C 259.916 -1.19194 -1.63209 0
M  V30 2769 C 260.237 0.253205 -1.93349 0
M  V30 2770 O 259.507 1.17025 -1.57105 0
M  V30 2771 H 258.087 -0.438148 -0.605009 0
M  V30 2772 H 260.749 -1.63663 -1.05832 0
M  V30 2773 H 259.845 -1.75396 -2.58153 0
M  V30 2774 N 260.146 1.09593 -1.13257 0
M  V30 2775 C 261.094 2.18271 -0.803783 0
M  V30 2776 C 262.088 1.68054 0.213148 0
M  V30 2777 O 263.294 1.79862 0.0704699 0
M  V30 2778 H 259.669 0.711949 -0.242143 0
M  V30 2779 H 261.64 2.43235 -1.72856 0
M  V30 2780 C 260.389 3.46536 -0.28424 0
M  V30 2781 H 259.712 3.85545 -1.05807 0
M  V30 2782 H 261.152 4.23899 -0.0925945 0
M  V30 2783 C 259.611 3.22036 0.989684 0
M  V30 2784 O 260.141 3.44509 2.06584 0
M  V30 2785 N 258.347 2.7565 0.920086 0
M  V30 2786 H 257.894 2.57562 0.0442019 0
M  V30 2787 H 257.852 2.59635 1.77306 0
M  V30 2788 N 261.624 0.925811 1.2754 0
M  V30 2789 C 262.556 0.380753 2.26015 0
M  V30 2790 C 263.569 -0.487485 1.5533 0
M  V30 2791 O 264.758 -0.300413 1.75954 0
M  V30 2792 C 261.858 -0.473259 3.35579 0
M  V30 2793 C 261.031 0.375249 4.35787 0
M  V30 2794 C 260.09 -0.415809 5.24555 0
M  V30 2795 O 259.116 0.175834 5.68928 0
M  V30 2796 N 260.318 -1.71607 5.54555 0
M  V30 2797 H 263.083 1.22725 2.73421 0
M  V30 2798 H 260.644 0.793037 1.41147 0
M  V30 2799 H 262.636 -1.00949 3.91907 0
M  V30 2800 H 261.206 -1.2205 2.87789 0
M  V30 2801 H 260.426 1.09279 3.7875 0
M  V30 2802 H 261.714 0.955399 4.99749 0
M  V30 2803 H 261.112 -2.2191 5.20358 0
M  V30 2804 H 259.669 -2.19887 6.1359 0
M  V30 2805 N 263.102 -1.41638 0.69111 0
M  V30 2806 C 264.032 -2.3347 0.037248 0
M  V30 2807 C 265.013 -1.51575 -0.771947 0
M  V30 2808 O 266.198 -1.80126 -0.72582 0
M  V30 2809 C 263.328 -3.35354 -0.903064 0
M  V30 2810 C 262.282 -4.27526 -0.201288 0
M  V30 2811 C 261.608 -5.19747 -1.25565 0
M  V30 2812 C 262.908 -5.13959 0.929689 0
M  V30 2813 H 264.602 -2.88397 0.804227 0
M  V30 2814 H 262.148 -1.38669 0.388189 0
M  V30 2815 H 264.101 -3.98519 -1.36969 0
M  V30 2816 H 262.825 -2.78767 -1.70166 0
M  V30 2817 H 261.484 -3.65779 0.245265 0
M  V30 2818 H 261.132 -4.59479 -2.04666 0
M  V30 2819 H 260.832 -5.8225 -0.791128 0
M  V30 2820 H 262.356 -5.85789 -1.72288 0
M  V30 2821 H 263.77 -5.70718 0.543546 0
M  V30 2822 H 262.167 -5.85379 1.32103 0
M  V30 2823 H 263.237 -4.51389 1.77133 0
M  V30 2824 N 264.58 -0.43555 -1.51462 0
M  V30 2825 C 265.996 -0.0877501 -1.59359 0
M  V30 2826 C 266.196 1.4027 -1.4466 0
M  V30 2827 O 265.252 2.17243 -1.28693 0
M  V30 2828 C 266.565 -0.606264 -2.94525 0
M  V30 2829 C 268.113 -0.566548 -3.0783 0
M  V30 2830 C 268.588 -1.06201 -4.45517 0
M  V30 2831 N 270.079 -1.01992 -4.51832 0
M  V30 2832 C 270.814 -1.37417 -5.5669 0
M  V30 2833 N 270.31 -1.80119 -6.68976 0
M  V30 2834 N 272.103 -1.29245 -5.47039 0
M  V30 2835 H 264.254 -1.40533 -1.59261 0
M  V30 2836 H 266.517 -0.578992 -0.750648 0
M  V30 2837 H 266.223 -1.64901 -3.10645 0
M  V30 2838 H 266.097 -0.0302097 -3.77188 0
M  V30 2839 H 268.484 0.467208 -2.91378 0
M  V30 2840 H 268.565 -1.17898 -2.2701 0
M  V30 2841 H 268.209 -2.09422 -4.62715 0
M  V30 2842 H 268.139 -0.426127 -5.24873 0
M  V30 2843 H 270.63 -0.706308 -3.71241 0
M  V30 2844 H 270.943 -2.05392 -7.45006 0
M  V30 2845 H 269.288 -1.84044 -6.70189 0
M  V30 2846 H 272.479 -0.957522 -4.58202 0
M  V30 2847 H 272.652 -1.57182 -6.28648 0
M  V30 2848 N 266.058 1.56714 -0.166846 0
M  V30 2849 C 267.474 1.58473 0.189372 0
M  V30 2850 C 267.674 1.18201 1.63189 0
M  V30 2851 O 266.73 0.891528 2.36237 0
M  V30 2852 C 268.043 3.00573 -0.0873872 0
M  V30 2853 C 269.591 3.1299 -0.0252443 0
M  V30 2854 C 270.066 4.57174 -0.274934 0
M  V30 2855 N 271.557 4.62665 -0.222553 0
M  V30 2856 C 272.292 5.72072 -0.389985 0
M  V30 2857 N 271.788 6.90054 -0.616229 0
M  V30 2858 N 273.581 5.61153 -0.326202 0
M  V30 2859 H 265.732 1.8118 -1.10849 0
M  V30 2860 H 267.995 0.839525 -0.440342 0
M  V30 2861 H 267.701 3.34497 -1.0865 0
M  V30 2862 H 267.575 3.72019 0.623037 0
M  V30 2863 H 269.962 2.78895 0.96444 0
M  V30 2864 H 270.043 2.43989 -0.768309 0
M  V30 2865 H 269.687 4.91976 -1.26181 0
M  V30 2866 H 269.617 5.24328 0.48869 0
M  V30 2867 H 272.108 3.77863 -0.0531512 0
M  V30 2868 H 272.421 7.69311 -0.733559 0
M  V30 2869 H 270.766 6.91927 -0.652791 0
M  V30 2870 H 273.957 4.67859 -0.150072 0
M  V30 2871 H 274.13 6.46364 -0.460116 0
M  V30 2872 N 267.536 -0.106894 1.57237 0
M  V30 2873 C 268.484 -1.14944 2.02215 0
M  V30 2874 C 269.478 -1.42167 0.92114 0
M  V30 2875 O 270.684 -1.41987 1.10634 0
M  V30 2876 H 267.059 -0.387841 0.64427 0
M  V30 2877 H 269.03 -0.743683 2.88984 0
M  V30 2878 C 267.779 -2.4647 2.4525 0
M  V30 2879 H 267.102 -2.26363 3.29545 0
M  V30 2880 H 268.542 -3.17948 2.80508 0
M  V30 2881 C 267.001 -3.09921 1.321 0
M  V30 2882 O 267.531 -3.9651 0.643622 0
M  V30 2883 N 265.737 -2.69986 1.07497 0
M  V30 2884 H 265.284 -1.99667 1.62761 0
M  V30 2885 H 265.242 -3.12769 0.319876 0
M  V30 2886 O 269.053 -1.59537 -0.25105 0
M  V30 2887 H 269.744 -1.71804 -0.894607 0
M  V30 END ATOM
M  V30 BEGIN BOND
M  V30 END BOND
M  V30 END CTAB
M  END
$$$$
