6323520
  -OEChem-10051719523D

 54 57  0     1  0  0  0  0  0999 V2000
    5.2336   -1.7290   -1.5279 O   0  0  0  0  0  0  0  0  0  0  0  0
   -3.9122   -1.8117   -1.9058 O   0  0  0  0  0  0  0  0  0  0  0  0
   -6.5788   -2.7824    2.0278 O   0  0  0  0  0  0  0  0  0  0  0  0
   -5.2798   -1.0808    2.7808 O   0  0  0  0  0  0  0  0  0  0  0  0
   -7.7129    3.1234    0.5802 O   0  0  0  0  0  0  0  0  0  0  0  0
   -8.5138    1.6380   -0.9363 O   0  0  0  0  0  0  0  0  0  0  0  0
    4.0852    0.6840   -0.6121 N   0  0  3  0  0  0  0  0  0  0  0  0
    1.8121    0.8531   -1.0181 N   0  0  1  0  0  0  0  0  0  0  0  0
    5.4366    2.0085    1.4259 N   0  0  0  0  0  0  0  0  0  0  0  0
    7.0630    0.2246    1.3981 N   0  0  0  0  0  0  0  0  0  0  0  0
    6.9156   -1.6745    0.0154 N   0  0  0  0  0  0  0  0  0  0  0  0
   -4.2327   -0.9050    0.2041 N   0  0  0  0  0  0  0  0  0  0  0  0
    8.6435   -1.4318    1.5905 N   0  0  0  0  0  0  0  0  0  0  0  0
    3.7152    2.0695   -0.3720 C   0  0  1  0  0  0  0  0  0  0  0  0
    2.1917    2.0334   -0.2437 C   0  0  0  0  0  0  0  0  0  0  0  0
    2.9662   -0.0225   -1.2196 C   0  0  0  0  0  0  0  0  0  0  0  0
    5.2428    0.1583   -0.0730 C   0  0  0  0  0  0  0  0  0  0  0  0
    4.4156    2.5753    0.8583 C   0  0  0  0  0  0  0  0  0  0  0  0
    0.5396    0.3675   -0.9991 C   0  0  0  0  0  0  0  0  0  0  0  0
    5.9154    0.8142    0.9061 C   0  0  0  0  0  0  0  0  0  0  0  0
    5.7825   -1.1582   -0.5897 C   0  0  0  0  0  0  0  0  0  0  0  0
   -0.4817    0.9829   -0.2286 C   0  0  0  0  0  0  0  0  0  0  0  0
    0.1669   -0.7783   -1.7499 C   0  0  0  0  0  0  0  0  0  0  0  0
   -1.7852    0.4867   -0.2101 C   0  0  0  0  0  0  0  0  0  0  0  0
   -1.1366   -1.2744   -1.7314 C   0  0  0  0  0  0  0  0  0  0  0  0
   -2.1126   -0.6419   -0.9615 C   0  0  0  0  0  0  0  0  0  0  0  0
    7.5124   -0.9917    0.9537 C   0  0  0  0  0  0  0  0  0  0  0  0
   -5.5890   -1.3711    0.3826 C   0  0  2  0  0  0  0  0  0  0  0  0
   -3.4721   -1.1585   -0.9432 C   0  0  0  0  0  0  0  0  0  0  0  0
   -6.6353   -0.3885   -0.1572 C   0  0  0  0  0  0  0  0  0  0  0  0
   -6.6858    0.9801    0.5338 C   0  0  0  0  0  0  0  0  0  0  0  0
   -5.7676   -1.7071    1.8490 C   0  0  0  0  0  0  0  0  0  0  0  0
   -7.7419    1.9079   -0.0268 C   0  0  0  0  0  0  0  0  0  0  0  0
    4.0113    2.6933   -1.2237 H   0  0  0  0  0  0  0  0  0  0  0  0
    1.9123    1.9241    0.8120 H   0  0  0  0  0  0  0  0  0  0  0  0
    1.7409    2.9496   -0.6407 H   0  0  0  0  0  0  0  0  0  0  0  0
    3.1448   -0.1808   -2.2885 H   0  0  0  0  0  0  0  0  0  0  0  0
    2.8165   -0.9856   -0.7170 H   0  0  0  0  0  0  0  0  0  0  0  0
    4.0588    3.5319    1.2753 H   0  0  0  0  0  0  0  0  0  0  0  0
   -0.2844    1.8737    0.3626 H   0  0  0  0  0  0  0  0  0  0  0  0
    0.8992   -1.2916   -2.3700 H   0  0  0  0  0  0  0  0  0  0  0  0
    7.5441    0.7248    2.1376 H   0  0  0  0  0  0  0  0  0  0  0  0
   -2.5210    1.0304    0.3750 H   0  0  0  0  0  0  0  0  0  0  0  0
   -1.3709   -2.1560   -2.3224 H   0  0  0  0  0  0  0  0  0  0  0  0
   -5.6774   -2.3096   -0.1795 H   0  0  0  0  0  0  0  0  0  0  0  0
   -6.4618   -0.2337   -1.2302 H   0  0  0  0  0  0  0  0  0  0  0  0
   -7.6265   -0.8531   -0.0725 H   0  0  0  0  0  0  0  0  0  0  0  0
   -3.8188   -0.4034    0.9829 H   0  0  0  0  0  0  0  0  0  0  0  0
   -6.9018    0.8500    1.5995 H   0  0  0  0  0  0  0  0  0  0  0  0
   -5.7157    1.4785    0.4285 H   0  0  0  0  0  0  0  0  0  0  0  0
    9.0693   -2.3202    1.3499 H   0  0  0  0  0  0  0  0  0  0  0  0
    9.0888   -0.8833    2.3180 H   0  0  0  0  0  0  0  0  0  0  0  0
   -6.7082   -2.9884    2.9782 H   0  0  0  0  0  0  0  0  0  0  0  0
   -8.3841    3.7339    0.2074 H   0  0  0  0  0  0  0  0  0  0  0  0
  1 21  2  0  0  0  0
  2 29  2  0  0  0  0
  3 32  1  0  0  0  0
  3 53  1  0  0  0  0
  4 32  2  0  0  0  0
  5 33  1  0  0  0  0
  5 54  1  0  0  0  0
  6 33  2  0  0  0  0
  7 14  1  0  0  0  0
  7 16  1  0  0  0  0
  7 17  1  0  0  0  0
  8 15  1  0  0  0  0
  8 16  1  0  0  0  0
  8 19  1  0  0  0  0
  9 18  2  0  0  0  0
  9 20  1  0  0  0  0
 10 20  1  0  0  0  0
 10 27  1  0  0  0  0
 10 42  1  0  0  0  0
 11 21  1  0  0  0  0
 11 27  2  0  0  0  0
 12 28  1  0  0  0  0
 12 29  1  0  0  0  0
 12 48  1  0  0  0  0
 13 27  1  0  0  0  0
 13 51  1  0  0  0  0
 13 52  1  0  0  0  0
 14 15  1  0  0  0  0
 14 18  1  0  0  0  0
 14 34  1  0  0  0  0
 15 35  1  0  0  0  0
 15 36  1  0  0  0  0
 16 37  1  0  0  0  0
 16 38  1  0  0  0  0
 17 20  2  0  0  0  0
 17 21  1  0  0  0  0
 18 39  1  0  0  0  0
 19 22  2  0  0  0  0
 19 23  1  0  0  0  0
 22 24  1  0  0  0  0
 22 40  1  0  0  0  0
 23 25  2  0  0  0  0
 23 41  1  0  0  0  0
 24 26  2  0  0  0  0
 24 43  1  0  0  0  0
 25 26  1  0  0  0  0
 25 44  1  0  0  0  0
 26 29  1  0  0  0  0
 28 30  1  0  0  0  0
 28 32  1  0  0  0  0
 28 45  1  0  0  0  0
 30 31  1  0  0  0  0
 30 46  1  0  0  0  0
 30 47  1  0  0  0  0
 31 33  1  0  0  0  0
 31 49  1  0  0  0  0
 31 50  1  0  0  0  0
M  END
> <DATABASE_ID>
DB02301

> <DATABASE_NAME>
drugbank

> <ORIGINAL_SOURCE>
PUBCHEM

> <ORIGINAL_SOURCE_URL>
https://pubchem.ncbi.nlm.nih.gov/rest/pug/compound/inchikey/BHJAPJNOACHPNI-CHWSQXEVSA-N/SDF?record_type=3d

> <SMILES>
NC1=NC(=O)C2=C(N1)N=C[C@@H]1CN(CN21)C1=CC=C(C=C1)C(=O)N[C@H](CCC(O)=O)C(O)=O

> <INCHI_IDENTIFIER>
InChI=1S/C20H21N7O6/c21-20-24-16-15(18(31)25-20)27-9-26(8-12(27)7-22-16)11-3-1-10(2-4-11)17(30)23-13(19(32)33)5-6-14(28)29/h1-4,7,12-13H,5-6,8-9H2,(H,23,30)(H,28,29)(H,32,33)(H3,21,24,25,31)/t12-,13-/m1/s1

> <INCHI_KEY>
BHJAPJNOACHPNI-CHWSQXEVSA-N

> <FORMULA>
C20H21N7O6

> <MOLECULAR_WEIGHT>
455.424

> <EXACT_MASS>
455.155331439

> <JCHEM_ACCEPTOR_COUNT>
12

> <JCHEM_AVERAGE_POLARIZABILITY>
44.32645025697269

> <JCHEM_BIOAVAILABILITY>
1

> <JCHEM_DONOR_COUNT>
5

> <JCHEM_FORMAL_CHARGE>
0

> <JCHEM_GHOSE_FILTER>
0

> <JCHEM_IUPAC>
(2R)-2-({4-[(6aS)-3-amino-1-oxo-1H,4H,6aH,7H,8H,9H-imidazolidino[1,5-f]pteridin-8-yl]phenyl}formamido)pentanedioic acid

> <ALOGPS_LOGP>
-0.78

> <JCHEM_LOGP>
-2.854077592072697

> <ALOGPS_LOGS>
-3.13

> <JCHEM_MDDR_LIKE_RULE>
1

> <JCHEM_NUMBER_OF_RINGS>
4

> <JCHEM_PHYSIOLOGICAL_CHARGE>
-2

> <JCHEM_PKA>
4.072102602832858

> <JCHEM_PKA_STRONGEST_ACIDIC>
3.2372033916682508

> <JCHEM_PKA_STRONGEST_BASIC>
5.1949492761868346

> <JCHEM_POLAR_SURFACE_AREA>
190.01999999999995

> <JCHEM_REFRACTIVITY>
123.22029999999997

> <JCHEM_ROTATABLE_BOND_COUNT>
7

> <JCHEM_RULE_OF_FIVE>
0

> <ALOGPS_SOLUBILITY>
3.35e-01 g/l

> <JCHEM_TRADITIONAL_IUPAC>
(2R)-2-({4-[(6aS)-3-amino-1-oxo-4H,6aH,7H,9H-imidazolidino[1,5-f]pteridin-8-yl]phenyl}formamido)pentanedioic acid

> <JCHEM_VEBER_RULE>
0

> <DRUGBANK_ID>
DB02301

> <SECONDARY_ACCESSION_NUMBERS>
EXPT03070

> <DRUG_GROUPS>
experimental

> <GENERIC_NAME>
5,10-Methylene-6-Hydrofolic Acid

$$$$