drugbank_target|Q99500 Sphingosine 1-phosphate receptor 3 (DB08868)
 OpenBabel12092121223D

  0  0  0     0  0            999 V3000
M  V30 BEGIN CTAB
M  V30 COUNTS 6069 6136 0 0 0
M  V30 BEGIN ATOM
M  V30 1 H -0.908 1.98254 -0.117106 0
M  V30 2 N 0 1.576 0 0
M  V30 3 C 0.933 2.03868 1.02534 0
M  V30 4 C 1.911 0.928543 1.3348 0
M  V30 5 O 3.095 1.19667 1.45644 0
M  V30 6 C 0.222 2.43627 2.35294 0
M  V30 7 C -0.732 3.65373 2.2001 0
M  V30 8 S 0.101 5.13292 1.52614 0
M  V30 9 C 1.257 5.56322 2.86805 0
M  V30 10 H 1.49 2.90518 0.631377 0
M  V30 11 H -0.977 1.52953 0.210867 0
M  V30 12 H 0.981 2.67203 3.11629 0
M  V30 13 H -0.358 1.57376 2.7183 0
M  V30 14 H -1.165 3.90944 3.18086 0
M  V30 15 H -1.563 3.418 1.51819 0
M  V30 16 H 0.729 5.58782 3.83104 0
M  V30 17 H 1.672 6.56266 2.65933 0
M  V30 18 H 2.08 4.83886 2.90714 0
M  V30 19 N 1.4781 -0.272755 1.55222 0
M  V30 20 C 2.4411 -1.32041 1.87344 0
M  V30 21 C 3.4411 -1.42342 0.74803 0
M  V30 22 O 4.6311 -1.41488 1.0162 0
M  V30 23 C 1.7631 -2.70173 2.07893 0
M  V30 24 H 2.9561 -1.04789 2.80997 0
M  V30 25 H 0.5091 -0.51083 1.47717 0
M  V30 26 H 1.2441 -3.02605 1.16622 0
M  V30 27 H 1.0291 -2.64082 2.89833 0
M  V30 28 H 2.5191 -3.45869 2.34017 0
M  V30 29 N 2.9562 -1.48159 -0.537278 0
M  V30 30 C 4.1842 -1.59454 -1.31841 0
M  V30 31 C 4.5992 -0.252065 -1.8711 0
M  V30 32 O 3.9562 0.757621 -1.66031 0
M  V30 33 C 4.0072 -2.63546 -2.47439 0
M  V30 34 O 3.7282 -3.92583 -1.94449 0
M  V30 35 C 5.2292 -2.85212 -3.39366 0
M  V30 36 H 2.4492 -0.53785 -0.401196 0
M  V30 37 H 4.9932 -1.93932 -0.648891 0
M  V30 38 H 3.1482 -2.31946 -3.1029 0
M  V30 39 H 3.5622 -4.49629 -2.70063 0
M  V30 40 H 5.0362 -3.61863 -4.16844 0
M  V30 41 H 5.5132 -1.93765 -3.94147 0
M  V30 42 H 6.1192 -3.18086 -2.82314 0
M  V30 43 N 4.4343 0.785586 -1.36625 0
M  V30 44 C 5.3973 1.87999 -1.31107 0
M  V30 45 C 6.3973 1.59316 -0.217959 0
M  V30 46 O 7.5873 1.67656 -0.472977 0
M  V30 47 C 4.7193 3.24861 -1.03334 0
M  V30 48 H 5.9123 1.94307 -2.2844 0
M  V30 49 H 3.4653 0.983813 -1.21453 0
M  V30 50 H 4.2003 3.24235 -0.0647432 0
M  V30 51 H 3.9853 3.4707 -1.82441 0
M  V30 52 H 5.4753 4.04929 -1.02088 0
M  V30 53 N 5.9124 1.20967 1.01018 0
M  V30 54 C 6.8424 0.988272 2.11555 0
M  V30 55 C 7.8234 -0.0849778 1.69888 0
M  V30 56 O 9.0084 0.0738202 1.9406 0
M  V30 57 C 6.1384 0.546528 3.42973 0
M  V30 58 C 5.0924 1.56375 3.9841 0
M  V30 59 C 4.4184 0.97842 5.25672 0
M  V30 60 C 5.7184 2.94922 4.31066 0
M  V30 61 H 7.4124 1.91276 2.30334 0
M  V30 62 H 4.9584 0.921073 1.1069 0
M  V30 63 H 6.9114 0.378839 4.19694 0
M  V30 64 H 5.6354 -0.413598 3.23971 0
M  V30 65 H 4.2944 1.71891 3.23804 0
M  V30 66 H 3.9424 0.0101688 5.02999 0
M  V30 67 H 3.6424 1.65784 5.63728 0
M  V30 68 H 5.1664 0.821939 6.05043 0
M  V30 69 H 6.5804 2.8288 4.9865 0
M  V30 70 H 4.9774 3.5983 4.80253 0
M  V30 71 H 6.0474 3.4616 3.39561 0
M  V30 72 N 7.3905 -1.2043 1.01659 0
M  V30 73 C 8.8015 -1.71517 0.737482 0
M  V30 74 C 9.1525 -1.81547 -0.743973 0
M  V30 75 O 8.2775 -1.47803 -1.58061 0
M  V30 76 C 8.8725 -3.11515 1.33206 0
M  V30 77 C 7.4315 -3.59912 1.10183 0
M  V30 78 C 6.5785 -2.37116 1.43776 0
M  V30 79 H 9.5295 -1.05444 1.18606 0
M  V30 80 H 9.5505 -3.73575 0.722636 0
M  V30 81 H 9.0625 -3.04182 2.41028 0
M  V30 82 H 7.1635 -3.72577 0.0412756 0
M  V30 83 H 7.2765 -4.44731 1.78188 0
M  V30 84 H 5.6405 -2.39857 0.856778 0
M  V30 85 H 6.4235 -2.32424 2.52654 0
M  V30 86 N 8.8686 -0.792821 -1.36206 0
M  V30 87 C 10.2796 -0.429513 -1.81692 0
M  V30 88 C 10.6306 1.04695 -1.65932 0
M  V30 89 O 9.7556 1.81256 -1.18218 0
M  V30 90 C 10.3506 -0.772831 -3.29868 0
M  V30 91 C 8.9096 -0.462307 -3.7355 0
M  V30 92 C 8.0566 -1.00569 -2.5842 0
M  V30 93 H 11.0076 -0.985672 -1.24379 0
M  V30 94 H 11.0286 -0.0651928 -3.80444 0
M  V30 95 H 10.5406 -1.84747 -3.41307 0
M  V30 96 H 8.6416 0.604158 -3.67669 0
M  V30 97 H 8.7546 -0.985299 -4.68859 0
M  V30 98 H 7.1186 -0.428734 -2.51066 0
M  V30 99 H 7.9016 -2.08616 -2.72643 0
M  V30 100 N 10.3467 1.47872 -0.545128 0
M  V30 101 C 11.7627 1.5829 -0.204032 0
M  V30 102 C 11.9627 1.54529 1.29317 0
M  V30 103 O 11.0187 1.44232 2.07252 0
M  V30 104 C 12.3317 2.89304 -0.819987 0
M  V30 105 C 13.8797 3.02864 -0.790105 0
M  V30 106 C 14.3547 4.3656 -1.38491 0
M  V30 107 N 15.8457 4.43165 -1.34755 0
M  V30 108 C 16.5807 5.45153 -1.77753 0
M  V30 109 N 16.0767 6.54016 -2.2855 0
M  V30 110 N 17.8697 5.36125 -1.68897 0
M  V30 111 H 10.0207 1.4856 -1.51802 0
M  V30 112 H 12.2837 0.706305 -0.632327 0
M  V30 113 H 11.9897 2.97757 -1.87173 0
M  V30 114 H 11.8637 3.75957 -0.305915 0
M  V30 115 H 14.2507 2.94014 0.252913 0
M  V30 116 H 14.3317 2.17782 -1.34181 0
M  V30 117 H 13.9757 4.46164 -2.42693 0
M  V30 118 H 13.9057 5.20353 -0.808754 0
M  V30 119 H 16.3967 3.65083 -0.975855 0
M  V30 120 H 16.7097 7.27994 -2.59314 0
M  V30 121 H 15.0547 6.54938 -2.32553 0
M  V30 122 H 18.2457 4.49975 -1.28998 0
M  V30 123 H 18.4187 6.15472 -2.02726 0
M  V30 124 N 11.8248 0.280983 1.55075 0
M  V30 125 C 12.7548 -0.597469 2.25727 0
M  V30 126 C 13.7358 -1.15417 1.24952 0
M  V30 127 O 14.9208 -1.18722 1.53684 0
M  V30 128 C 12.0508 -1.7789 2.98283 0
M  V30 129 C 11.0048 -1.35347 4.06036 0
M  V30 130 C 10.3308 -2.61846 4.66198 0
M  V30 131 C 11.6308 -0.499354 5.19907 0
M  V30 132 H 13.3248 -0.00824265 2.99399 0
M  V30 133 H 10.8708 -0.0025244 1.44 0
M  V30 134 H 12.8238 -2.39937 3.46422 0
M  V30 135 H 11.5478 -2.39405 2.22155 0
M  V30 136 H 10.2068 -0.756156 3.58717 0
M  V30 137 H 9.8548 -3.21632 3.86732 0
M  V30 138 H 9.5548 -2.3409 5.38958 0
M  V30 139 H 11.0788 -3.24732 5.1709 0
M  V30 140 H 12.4928 -1.02498 5.64063 0
M  V30 141 H 10.8898 -0.316424 5.99265 0
M  V30 142 H 11.9598 0.480459 4.82514 0
M  V30 143 N 13.3029 -1.57598 0.00835791 0
M  V30 144 C 14.2349 -2.05811 -1.00868 0
M  V30 145 C 15.2479 -0.977579 -1.30182 0
M  V30 146 O 16.4369 -1.25421 -1.27011 0
M  V30 147 C 13.5369 -2.45016 -2.34137 0
M  V30 148 C 12.7099 -3.75903 -2.23643 0
M  V30 149 C 11.7689 -4.01884 -3.3967 0
M  V30 150 O 10.7949 -4.72433 -3.17483 0
M  V30 151 N 11.9969 -3.50432 -4.62793 0
M  V30 152 H 14.7619 -2.93684 -0.597458 0
M  V30 153 H 12.3229 -1.60909 -0.178852 0
M  V30 154 H 14.3149 -2.59506 -3.10546 0
M  V30 155 H 12.8849 -1.62618 -2.66972 0
M  V30 156 H 12.1049 -3.7141 -1.32091 0
M  V30 157 H 13.3929 -4.61695 -2.13812 0
M  V30 158 H 12.7909 -2.93317 -4.83716 0
M  V30 159 H 11.3479 -3.70236 -5.3644 0
M  V30 160 N 14.781 0.264519 -1.55364 0
M  V30 161 C 16.192 0.834936 -1.6699 0
M  V30 162 C 16.543 1.86718 -0.602552 0
M  V30 163 O 15.668 2.14899 0.254425 0
M  V30 164 C 16.263 1.5212 -3.02729 0
M  V30 165 C 14.822 2.03954 -3.16354 0
M  V30 166 C 13.969 0.884498 -2.62815 0
M  V30 167 H 16.92 0.0406869 -1.58648 0
M  V30 168 H 16.941 2.38853 -2.96191 0
M  V30 169 H 16.453 0.769668 -3.80392 0
M  V30 170 H 14.554 2.82041 -2.43482 0
M  V30 171 H 14.667 2.24902 -4.23032 0
M  V30 172 H 13.031 1.2802 -2.20188 0
M  V30 173 H 13.814 0.14634 -3.42988 0
M  V30 174 N 16.2591 1.48442 0.529413 0
M  V30 175 C 17.5051 1.5672 1.28711 0
M  V30 176 C 17.8381 0.2406 1.92704 0
M  V30 177 O 17.1131 -0.753454 1.79313 0
M  V30 178 C 17.3961 2.70587 2.37603 0
M  V30 179 C 17.2491 4.12953 1.78297 0
M  V30 180 C 18.5681 2.80212 3.39366 0
M  V30 181 H 15.6871 0.570474 0.466613 0
M  V30 182 H 18.3291 1.80617 0.589706 0
M  V30 183 H 16.4791 2.50342 2.97088 0
M  V30 184 H 18.1511 4.44639 1.22858 0
M  V30 185 H 16.3941 4.19927 1.0883 0
M  V30 186 H 17.0651 4.88448 2.57144 0
M  V30 187 H 19.5411 2.98553 2.89836 0
M  V30 188 H 18.4171 3.61611 4.12951 0
M  V30 189 H 18.6781 1.88393 3.99951 0
M  V30 190 N 17.7372 -0.778329 1.37039 0
M  V30 191 C 19.1532 -1.07796 1.17695 0
M  V30 192 C 19.3532 -2.01498 0.00860115 0
M  V30 193 O 18.4092 -2.43901 -0.653352 0
M  V30 194 C 19.7222 -1.68178 2.49272 0
M  V30 195 C 21.2702 -1.80467 2.55735 0
M  V30 196 C 21.7452 -2.44263 3.87427 0
M  V30 197 N 23.2362 -2.51721 3.88833 0
M  V30 198 C 23.9712 -3.01919 4.87476 0
M  V30 199 N 23.4672 -3.5234 5.96513 0
M  V30 200 N 25.2602 -3.00733 4.74885 0
M  V30 201 H 17.4112 -0.156032 2.11826 0
M  V30 202 H 19.6742 -0.131844 0.938787 0
M  V30 203 H 19.3802 -1.06796 3.35093 0
M  V30 204 H 19.2542 -2.67554 2.65885 0
M  V30 205 H 21.6412 -2.40984 1.70325 0
M  V30 206 H 21.7222 -0.798656 2.43013 0
M  V30 207 H 21.3662 -1.84388 4.73248 0
M  V30 208 H 21.2962 -3.45458 3.9745 0
M  V30 209 H 23.7872 -2.1603 3.10063 0
M  V30 210 H 24.1002 -3.89027 6.67741 0
M  V30 211 H 22.4452 -3.50462 6.00168 0
M  V30 212 H 25.6362 -2.60638 3.88826 0
M  V30 213 H 25.8092 -3.39545 5.51918 0
M  V30 214 N 19.2153 -1.21501 -1.00376 0
M  V30 215 C 20.4633 -1.03095 -1.73827 0
M  V30 216 C 20.7843 0.436341 -1.90055 0
M  V30 217 O 20.0543 1.31466 -1.45236 0
M  V30 218 H 18.6343 -0.378487 -0.644016 0
M  V30 219 H 21.2963 -1.52831 -1.20949 0
M  V30 220 H 20.3923 -1.49991 -2.73695 0
M  V30 221 N 20.6934 1.19889 -1.02296 0
M  V30 222 C 21.6414 2.24938 -0.592081 0
M  V30 223 C 22.6354 1.65257 0.372357 0
M  V30 224 O 23.8414 1.78371 0.241583 0
M  V30 225 H 20.2164 0.731787 -0.173182 0
M  V30 226 H 22.1874 2.58603 -1.48885 0
M  V30 227 C 20.9364 3.47668 0.047351 0
M  V30 228 H 20.2594 3.93875 -0.685772 0
M  V30 229 H 21.6994 4.22852 0.311862 0
M  V30 230 C 20.1584 3.11136 1.29212 0
M  V30 231 O 20.6884 3.2325 2.38479 0
M  V30 232 N 18.8944 2.65625 1.17863 0
M  V30 233 H 18.4414 2.55968 0.289493 0
M  V30 234 H 18.3994 2.41553 2.01245 0
M  V30 235 N 22.1715 0.800033 1.35784 0
M  V30 236 C 23.0815 0.207204 2.33683 0
M  V30 237 C 24.0975 -0.64631 1.61551 0
M  V30 238 O 25.2735 -0.559604 1.93469 0
M  V30 239 C 22.3385 -0.639659 3.40748 0
M  V30 240 C 21.3995 0.233585 4.28664 0
M  V30 241 C 20.6325 -0.572954 5.30616 0
M  V30 242 O 20.8555 -1.80816 5.40982 0
M  V30 243 O 19.7895 0.0327285 6.01891 0
M  V30 244 H 23.6155 1.01692 2.86169 0
M  V30 245 H 21.2005 0.561691 1.38439 0
M  V30 246 H 23.0825 -1.12223 4.06182 0
M  V30 247 H 21.7575 -1.42708 2.90544 0
M  V30 248 H 20.6645 0.763147 3.66233 0
M  V30 249 H 21.9975 0.984784 4.82248 0
M  V30 250 N 23.6496 -1.47581 0.552962 0
M  V30 251 C 24.8776 -2.06875 0.0320556 0
M  V30 252 C 25.2926 -1.40625 -1.25976 0
M  V30 253 O 24.6496 -0.501349 -1.75479 0
M  V30 254 C 24.7006 -3.61092 -0.17167 0
M  V30 255 O 24.4216 -4.24858 1.06899 0
M  V30 256 C 25.9226 -4.37242 -0.730344 0
M  V30 257 H 23.1426 -0.669561 0.043915 0
M  V30 258 H 25.6866 -1.89646 0.765163 0
M  V30 259 H 23.8416 -3.7785 -0.854894 0
M  V30 260 H 24.2556 -5.17334 0.864059 0
M  V30 261 H 25.7296 -5.45842 -0.822203 0
M  V30 262 H 26.2066 -4.03235 -1.74064 0
M  V30 263 H 26.8126 -4.25219 -0.0829543 0
M  V30 264 N 25.1277 -0.289203 -1.54924 0
M  V30 265 C 26.0577 0.58549 -2.2604 0
M  V30 266 C 27.0387 1.14753 -1.25562 0
M  V30 267 O 28.2237 1.17906 -1.54311 0
M  V30 268 C 25.3537 1.76305 -2.99222 0
M  V30 269 C 24.3077 1.33191 -4.06748 0
M  V30 270 C 23.6337 2.5937 -4.6758 0
M  V30 271 C 24.9337 0.471775 -5.20165 0
M  V30 272 H 26.6277 -0.00763532 -2.99399 0
M  V30 273 H 24.1737 -0.00511229 -1.43999 0
M  V30 274 H 26.1267 2.38097 -3.47689 0
M  V30 275 H 24.8507 2.38223 -2.23422 0
M  V30 276 H 23.5097 0.737121 -3.59113 0
M  V30 277 H 23.1577 3.19576 -3.88433 0
M  V30 278 H 22.8577 2.31228 -5.40192 0
M  V30 279 H 24.3817 3.21985 -5.18804 0
M  V30 280 H 25.7957 0.995056 -5.64599 0
M  V30 281 H 24.1927 0.284639 -5.99425 0
M  V30 282 H 25.2627 -0.506041 -4.82252 0
M  V30 283 N 26.6058 1.57591 -0.0167156 0
M  V30 284 C 28.0218 1.55946 0.339557 0
M  V30 285 C 28.2218 1.02109 1.73713 0
M  V30 286 O 27.2778 0.662303 2.43659 0
M  V30 287 C 28.5908 3.00037 0.199499 0
M  V30 288 C 30.1388 3.11805 0.273193 0
M  V30 289 C 30.6138 4.57713 0.162068 0
M  V30 290 N 32.1048 4.6268 0.219444 0
M  V30 291 C 32.8398 5.73185 0.157054 0
M  V30 292 N 32.3358 6.92786 0.0442936 0
M  V30 293 N 34.1288 5.61707 0.21014 0
M  V30 294 H 26.2798 1.90921 -0.930758 0
M  V30 295 H 28.5428 0.877674 -0.358319 0
M  V30 296 H 28.2488 3.4333 -0.76273 0
M  V30 297 H 28.1228 3.64387 0.974786 0
M  V30 298 H 30.5098 2.68433 1.22587 0
M  V30 299 H 30.5908 2.50201 -0.532256 0
M  V30 300 H 30.2348 5.01763 -0.78714 0
M  V30 301 H 30.1648 5.17283 0.986222 0
M  V30 302 H 32.6558 3.76649 0.307246 0
M  V30 303 H 32.9688 7.728 0.00304069 0
M  V30 304 H 31.3138 6.94999 0.00968457 0
M  V30 305 H 34.5048 4.6716 0.296546 0
M  V30 306 H 34.6778 6.47807 0.158054 0
M  V30 307 N 28.0839 -0.256276 1.55502 0
M  V30 308 C 28.9939 -1.33882 1.92647 0
M  V30 309 C 30.0099 -1.53159 0.825727 0
M  V30 310 O 31.1859 -1.66963 1.12629 0
M  V30 311 C 28.2509 -2.6751 2.20543 0
M  V30 312 C 27.3119 -2.56836 3.43997 0
M  V30 313 C 26.5449 -3.84092 3.70553 0
M  V30 314 O 26.7679 -4.85545 2.99336 0
M  V30 315 O 25.7019 -3.83288 4.64084 0
M  V30 316 H 29.5279 -1.05374 2.84833 0
M  V30 317 H 27.1129 -0.456237 1.42263 0
M  V30 318 H 28.9949 -3.46492 2.39835 0
M  V30 319 H 27.6699 -2.9577 1.31536 0
M  V30 320 H 26.5769 -1.76172 3.30021 0
M  V30 321 H 27.9099 -2.33523 4.33275 0
M  V30 322 N 29.562 -1.4872 -0.521534 0
M  V30 323 C 30.512 -1.60269 -1.62166 0
M  V30 324 C 31.496 -0.45935 -1.54204 0
M  V30 325 O 32.688 -0.711241 -1.62081 0
M  V30 326 C 29.817 -1.65344 -3.00859 0
M  V30 327 C 28.903 -2.85187 -3.13894 0
M  V30 328 N 29.294 -4.09509 -2.96877 0
M  V30 329 C 27.592 -2.82695 -3.44963 0
M  V30 330 C 28.293 -4.89959 -3.13552 0
M  V30 331 N 27.269 -4.22934 -3.41508 0
M  V30 332 H 31.071 -2.5413 -1.47632 0
M  V30 333 H 28.585 -1.45209 -0.727194 0
M  V30 334 H 30.582 -1.71713 -3.79895 0
M  V30 335 H 29.242 -0.726058 -3.16478 0
M  V30 336 H 30.253 -4.39814 -2.73467 0
M  V30 337 H 26.93 -1.99249 -3.66887 0
M  V30 338 H 28.32 -5.98654 -3.05061 0
M  V30 339 N 31.0401 0.771051 -1.3745 0
M  V30 340 C 32.2701 1.55789 -1.35696 0
M  V30 341 C 32.6781 1.89107 0.0594523 0
M  V30 342 O 32.0211 1.51984 1.03183 0
M  V30 343 C 32.0831 2.89515 -2.13123 0
M  V30 344 C 31.7471 2.78829 -3.62082 0
M  V30 345 C 32.7441 2.49812 -4.5595 0
M  V30 346 C 30.4291 2.9683 -4.05213 0
M  V30 347 C 32.4231 2.38923 -5.90927 0
M  V30 348 C 30.1101 2.85562 -5.40276 0
M  V30 349 C 31.1081 2.56649 -6.32946 0
M  V30 350 O 30.7961 2.45408 -7.65526 0
M  V30 351 H 30.5281 0.489257 -0.466481 0
M  V30 352 H 33.0821 0.963446 -1.81403 0
M  V30 353 H 31.3121 3.51081 -1.62107 0
M  V30 354 H 33.0011 3.50915 -2.03994 0
M  V30 355 H 33.7671 2.3559 -4.23937 0
M  V30 356 H 29.6461 3.18335 -3.33442 0
M  V30 357 H 33.1901 2.16277 -6.63227 0
M  V30 358 H 29.0871 2.99351 -5.71891 0
M  V30 359 H 29.8551 2.60753 -7.75855 0
M  V30 360 N 32.5182 1.22032 0.997298 0
M  V30 361 C 33.4502 0.944263 2.08845 0
M  V30 362 C 34.4632 -0.0754663 1.62625 0
M  V30 363 O 35.6522 0.157994 1.77799 0
M  V30 364 C 32.7522 0.397723 3.36558 0
M  V30 365 C 31.9252 1.47362 4.11829 0
M  V30 366 C 30.9842 0.934951 5.17827 0
M  V30 367 O 30.0102 1.62016 5.45655 0
M  V30 368 N 31.2122 -0.245895 5.79979 0
M  V30 369 H 33.9772 1.88363 2.33109 0
M  V30 370 H 31.5382 1.12661 1.16272 0
M  V30 371 H 33.5302 0.0227771 4.04694 0
M  V30 372 H 32.1002 -0.446646 3.09393 0
M  V30 373 H 31.3202 2.02208 3.38386 0
M  V30 374 H 32.6082 2.19764 4.58891 0
M  V30 375 H 32.0062 -0.819475 5.59733 0
M  V30 376 H 30.5632 -0.562272 6.4937 0
M  V30 377 N 33.9963 -1.19345 1.0293 0
M  V30 378 C 35.2263 -1.92717 0.744563 0
M  V30 379 C 35.6343 -1.75751 -0.700579 0
M  V30 380 O 34.9773 -1.07703 -1.48815 0
M  V30 381 C 35.0393 -3.44828 1.01657 0
M  V30 382 C 34.7033 -3.85564 2.45335 0
M  V30 383 C 35.7003 -3.90286 3.43472 0
M  V30 384 C 33.3853 -4.1719 2.79746 0
M  V30 385 C 35.3793 -4.26065 4.74075 0
M  V30 386 C 33.0663 -4.52642 4.10559 0
M  V30 387 C 34.0643 -4.57054 5.07534 0
M  V30 388 O 33.7523 -4.91685 6.36004 0
M  V30 389 H 33.4843 -0.618977 0.271742 0
M  V30 390 H 36.0383 -1.52415 1.37691 0
M  V30 391 H 34.2683 -3.85314 0.327084 0
M  V30 392 H 35.9573 -3.99437 0.721427 0
M  V30 393 H 36.7233 -3.66002 3.18225 0
M  V30 394 H 32.6023 -4.1294 2.04943 0
M  V30 395 H 36.1463 -4.29423 5.49765 0
M  V30 396 H 32.0433 -4.76383 4.35579 0
M  V30 397 H 32.8113 -5.09631 6.40483 0
M  V30 398 N 35.4744 -0.807222 -1.35358 0
M  V30 399 C 36.7204 -0.388463 -1.99045 0
M  V30 400 C 37.0534 1.04184 -1.63888 0
M  V30 401 O 36.3284 1.72292 -0.902535 0
M  V30 402 C 36.6114 -0.572783 -3.55515 0
M  V30 403 C 36.4644 -2.04807 -4.00468 0
M  V30 404 C 37.7834 0.00114064 -4.401 0
M  V30 405 H 34.9024 -0.142619 -0.723069 0
M  V30 406 H 37.5444 -1.01687 -1.60498 0
M  V30 407 H 35.6944 -0.0378425 -3.88482 0
M  V30 408 H 37.3664 -2.64544 -3.77908 0
M  V30 409 H 35.6094 -2.54427 -3.51353 0
M  V30 410 H 36.2804 -2.12792 -5.09337 0
M  V30 411 H 38.7564 -0.455716 -4.13597 0
M  V30 412 H 37.6324 -0.157737 -5.48673 0
M  V30 413 H 37.8934 1.09488 -4.28328 0
M  V30 414 N 36.9525 1.47285 -0.560781 0
M  V30 415 C 38.2005 2.02064 -0.0379868 0
M  V30 416 C 38.5215 1.43711 1.31803 0
M  V30 417 O 37.7915 0.61362 1.86042 0
M  V30 418 H 36.3715 0.746918 -0.0110531 0
M  V30 419 H 39.0335 1.80648 -0.731598 0
M  V30 420 H 38.1295 3.12064 0.0474463 0
M  V30 421 N 38.4306 0.297415 1.54768 0
M  V30 422 C 39.3776 -0.580276 2.23386 0
M  V30 423 C 40.3476 -1.13238 1.21517 0
M  V30 424 O 41.5326 -1.17757 1.50126 0
M  V30 425 C 38.6726 -1.74801 2.97555 0
M  V30 426 C 37.7856 -1.22764 4.1419 0
M  V30 427 C 36.9206 -2.35895 4.75949 0
M  V30 428 C 35.9596 -1.80974 5.84735 0
M  V30 429 N 35.0966 -2.87664 6.40464 0
M  V30 430 H 39.9366 0.0114833 2.97998 0
M  V30 431 H 37.4736 0.0174361 1.4709 0
M  V30 432 H 39.4316 -2.43475 3.38786 0
M  V30 433 H 38.0616 -2.31145 2.25326 0
M  V30 434 H 37.1136 -0.433271 3.77924 0
M  V30 435 H 38.4256 -0.785551 4.92575 0
M  V30 436 H 37.5796 -3.12523 5.20014 0
M  V30 437 H 36.3186 -2.83429 3.96887 0
M  V30 438 H 35.3236 -1.02834 5.40097 0
M  V30 439 H 36.5486 -1.34348 6.65678 0
M  V30 440 H 34.4946 -3.34538 5.64287 0
M  V30 441 H 34.4116 -2.4794 7.14186 0
M  V30 442 H 35.6796 -3.642 6.89187 0
M  V30 443 N 39.9087 -1.5758 0.0250728 0
M  V30 444 C 40.8387 -2.13007 -0.956575 0
M  V30 445 C 41.8197 -1.0452 -1.342 0
M  V30 446 O 43.0047 -1.32332 -1.42133 0
M  V30 447 C 40.1347 -2.65386 -2.24026 0
M  V30 448 C 39.0887 -3.78623 -1.99571 0
M  V30 449 C 38.4147 -4.17414 -3.3417 0
M  V30 450 C 39.7147 -5.04867 -1.33814 0
M  V30 451 H 41.4087 -2.9528 -0.494991 0
M  V30 452 H 38.9547 -1.42042 -0.236651 0
M  V30 453 H 40.9077 -3.02794 -2.93076 0
M  V30 454 H 39.6317 -1.80268 -2.72343 0
M  V30 455 H 38.2907 -3.41646 -1.32941 0
M  V30 456 H 37.9387 -3.29284 -3.80238 0
M  V30 457 H 37.6387 -4.93719 -3.18615 0
M  V30 458 H 39.1627 -4.57402 -4.04495 0
M  V30 459 H 40.5767 -5.39888 -1.92857 0
M  V30 460 H 38.9737 -5.86144 -1.28669 0
M  V30 461 H 40.0437 -4.83904 -0.310561 0
M  V30 462 N 41.3868 0.248026 -1.55636 0
M  V30 463 C 42.3498 1.29044 -1.89421 0
M  V30 464 C 43.3498 1.41134 -0.770581 0
M  V30 465 O 44.5398 1.39854 -1.03858 0
M  V30 466 C 41.6718 2.66831 -2.12165 0
M  V30 467 H 42.8648 1.00305 -2.82629 0
M  V30 468 H 40.4178 0.487265 -1.48511 0
M  V30 469 H 41.1528 3.00711 -1.21422 0
M  V30 470 H 40.9378 2.59438 -2.93997 0
M  V30 471 H 42.4278 3.42103 -2.3949 0
M  V30 472 N 42.8649 1.48995 0.513639 0
M  V30 473 C 44.1129 1.57531 1.26604 0
M  V30 474 C 44.4339 0.258236 1.93283 0
M  V30 475 O 43.7039 -0.721502 1.8213 0
M  V30 476 H 42.2839 0.580387 0.470276 0
M  V30 477 H 44.9459 1.85552 0.596373 0
M  V30 478 H 44.0419 2.36486 2.03669 0
M  V30 479 N 44.343 -0.763751 1.37857 0
M  V30 480 C 45.759 -1.06542 1.18832 0
M  V30 481 C 45.959 -2.01478 0.0299722 0
M  V30 482 O 45.015 -2.4458 -0.627447 0
M  V30 483 C 46.328 -1.65525 2.51042 0
M  V30 484 C 47.876 -1.77745 2.57635 0
M  V30 485 C 48.351 -2.4014 3.89996 0
M  V30 486 N 49.842 -2.47582 3.91481 0
M  V30 487 C 50.577 -2.96732 4.9065 0
M  V30 488 N 50.073 -3.45993 6.00217 0
M  V30 489 N 51.866 -2.95679 4.78048 0
M  V30 490 H 44.017 -0.133556 2.1198 0
M  V30 491 H 46.28 -0.121879 0.940133 0
M  V30 492 H 45.986 -1.03236 3.36207 0
M  V30 493 H 45.86 -2.64719 2.68707 0
M  V30 494 H 48.247 -2.39164 1.72872 0
M  V30 495 H 48.328 -0.772836 2.43846 0
M  V30 496 H 47.972 -1.79358 4.75177 0
M  V30 497 H 47.902 -3.41223 4.01092 0
M  V30 498 H 50.393 -2.1273 3.12337 0
M  V30 499 H 50.706 -3.81922 6.7183 0
M  V30 500 H 49.051 -3.44077 6.03851 0
M  V30 501 H 52.242 -2.56499 3.91568 0
M  V30 502 H 52.415 -3.33672 5.55488 0
M  V30 503 N 45.8211 -1.22559 -0.990812 0
M  V30 504 C 46.7511 -1.0218 -2.09956 0
M  V30 505 C 47.7321 0.0579394 -1.70001 0
M  V30 506 O 48.9171 -0.104684 -1.93918 0
M  V30 507 C 46.0471 -0.601023 -3.4206 0
M  V30 508 C 45.0011 -1.62694 -3.95872 0
M  V30 509 C 44.3271 -1.06193 -5.24049 0
M  V30 510 C 45.6271 -3.01743 -4.2632 0
M  V30 511 H 47.3211 -1.94916 -2.27262 0
M  V30 512 H 44.8671 -0.938566 -1.09211 0
M  V30 513 H 46.8201 -0.445561 -4.19038 0
M  V30 514 H 45.5441 0.362005 -3.24588 0
M  V30 515 H 44.2031 -1.77021 -3.21028 0
M  V30 516 H 43.8511 -0.0901903 -5.02919 0
M  V30 517 H 43.5511 -1.74732 -5.61019 0
M  V30 518 H 45.0751 -0.918092 -6.03658 0
M  V30 519 H 46.4891 -2.90777 -4.94087 0
M  V30 520 H 44.8861 -3.67425 -4.74467 0
M  V30 521 H 45.9561 -3.51518 -3.34011 0
M  V30 522 N 47.2992 1.18797 -1.03562 0
M  V30 523 C 48.2462 2.22253 -0.622259 0
M  V30 524 C 49.2162 1.61987 0.36736 0
M  V30 525 O 50.4012 1.88986 0.262492 0
M  V30 526 C 47.5412 3.45097 0.0138462 0
M  V30 527 C 46.6542 4.19722 -1.02263 0
M  V30 528 C 45.7892 5.30009 -0.355573 0
M  V30 529 C 44.8282 5.96399 -1.37749 0
M  V30 530 N 43.9652 6.98234 -0.735766 0
M  V30 531 H 48.8052 2.56968 -1.50903 0
M  V30 532 H 46.3422 1.26245 -0.755017 0
M  V30 533 H 48.3002 4.15279 0.399948 0
M  V30 534 H 46.9302 3.11018 0.864158 0
M  V30 535 H 45.9822 3.48418 -1.52673 0
M  V30 536 H 47.2942 4.65227 -1.79903 0
M  V30 537 H 46.4482 6.0664 0.0850095 0
M  V30 538 H 45.1872 4.85592 0.452967 0
M  V30 539 H 44.1922 5.18512 -1.82826 0
M  V30 540 H 45.4172 6.42899 -2.18764 0
M  V30 541 H 43.3632 6.55979 0.0525597 0
M  V30 542 H 43.2802 7.41965 -1.44995 0
M  V30 543 H 44.5482 7.78845 -0.31941 0
M  V30 544 N 48.7773 0.814389 1.34928 0
M  V30 545 C 49.6873 0.231978 2.3345 0
M  V30 546 C 50.7033 -0.629139 1.62228 0
M  V30 547 O 51.8793 -0.539052 1.94052 0
M  V30 548 C 48.9443 -0.603482 3.41407 0
M  V30 549 C 48.0053 0.279037 4.28392 0
M  V30 550 C 47.2383 -0.516643 5.31193 0
M  V30 551 O 47.4613 -1.75068 5.4287 0
M  V30 552 O 46.3953 0.0965652 6.01823 0
M  V30 553 H 50.2213 1.04721 2.85074 0
M  V30 554 H 47.8063 0.576343 1.37836 0
M  V30 555 H 49.6883 -1.07908 4.0735 0
M  V30 556 H 48.3633 -1.39618 2.92042 0
M  V30 557 H 47.2703 0.801948 3.65403 0
M  V30 558 H 48.6033 1.03588 4.81176 0
M  V30 559 N 50.2554 -1.46986 0.568584 0
M  V30 560 C 51.2184 -2.28624 -0.162366 0
M  V30 561 C 52.2184 -1.37596 -0.832103 0
M  V30 562 O 53.4084 -1.60115 -0.68622 0
M  V30 563 C 50.5404 -3.17596 -1.23878 0
M  V30 564 H 51.7334 -2.94722 0.554899 0
M  V30 565 H 49.2864 -1.52863 0.325976 0
M  V30 566 H 50.0214 -2.56214 -1.98808 0
M  V30 567 H 49.8064 -3.846 -0.763219 0
M  V30 568 H 51.2964 -3.79078 -1.75185 0
M  V30 569 N 51.7335 -0.305618 -1.54608 0
M  V30 570 C 52.9585 0.307562 -2.05107 0
M  V30 571 C 53.3835 1.46385 -1.18123 0
M  V30 572 O 52.7415 1.8034 -0.186324 0
M  V30 573 C 52.7895 0.73704 -3.52987 0
M  V30 574 O 51.8935 1.84134 -3.6901 0
M  V30 575 H 51.2345 0.0589143 -0.661381 0
M  V30 576 H 53.7645 -0.448807 -1.99617 0
M  V30 577 H 53.7745 1.02459 -3.94925 0
M  V30 578 H 52.4495 -0.108773 -4.15758 0
M  V30 579 H 51.0265 1.55398 -3.38978 0
M  V30 580 N 53.2116 1.57565 -0.0334293 0
M  V30 581 C 54.1216 2.13943 0.962572 0
M  V30 582 C 55.1376 1.09276 1.35406 0
M  V30 583 O 56.3136 1.41355 1.4346 0
M  V30 584 C 53.3786 2.65887 2.22497 0
M  V30 585 C 52.4396 3.85286 1.8935 0
M  V30 586 C 51.6726 4.34743 3.09571 0
M  V30 587 O 51.8956 3.83352 4.22371 0
M  V30 588 O 50.8296 5.26538 2.91618 0
M  V30 589 H 54.6556 2.99333 0.513169 0
M  V30 590 H 52.2406 1.4822 0.18743 0
M  V30 591 H 54.1226 2.99346 2.96598 0
M  V30 592 H 52.7976 1.83578 2.6661 0
M  V30 593 H 51.7046 3.56746 1.1262 0
M  V30 594 H 53.0376 4.68771 1.5005 0
M  V30 595 N 54.6897 -0.239769 1.55765 0
M  V30 596 C 55.9377 -0.964892 1.77579 0
M  V30 597 C 56.2587 -1.85582 0.598699 0
M  V30 598 O 55.5287 -1.92075 -0.385226 0
M  V30 599 H 54.1087 -0.359265 0.654933 0
M  V30 600 H 56.7707 -0.256001 1.93211 0
M  V30 601 H 55.8667 -1.58243 2.69009 0
M  V30 602 N 56.1678 -1.49265 -0.50573 0
M  V30 603 C 57.3928 -1.62478 -1.28902 0
M  V30 604 C 57.8178 -0.294332 -1.85783 0
M  V30 605 O 57.1758 0.737412 -1.65626 0
M  V30 606 C 57.2238 -2.69268 -2.39848 0
M  V30 607 O 56.3278 -2.28113 -3.43567 0
M  V30 608 H 55.6688 -0.54399 -0.380751 0
M  V30 609 H 58.1988 -1.95421 -0.605952 0
M  V30 610 H 58.2088 -2.91291 -2.85681 0
M  V30 611 H 56.8838 -3.65846 -1.97812 0
M  V30 612 H 55.4608 -2.16401 -3.03685 0
M  V30 613 N 57.6459 0.756429 -1.3826 0
M  V30 614 C 58.8739 1.54565 -1.3754 0
M  V30 615 C 59.2889 1.88767 0.0355331 0
M  V30 616 O 58.6459 1.52572 1.0014 0
M  V30 617 C 58.6969 2.84654 -2.22833 0
M  V30 618 O 58.4179 2.51912 -3.5843 0
M  V30 619 C 59.9189 3.78807 -2.30261 0
M  V30 620 H 57.1389 0.478353 -0.470553 0
M  V30 621 H 59.6829 0.936381 -1.81803 0
M  V30 622 H 57.8379 3.41965 -1.8204 0
M  V30 623 H 58.2519 3.35325 -4.03308 0
M  V30 624 H 59.7259 4.67045 -2.94233 0
M  V30 625 H 60.2029 4.19038 -1.31545 0
M  V30 626 H 60.8089 3.2742 -2.71433 0
M  V30 627 N 59.124 1.23083 0.984299 0
M  V30 628 C 60.054 1.03292 2.09411 0
M  V30 629 C 61.035 -0.048923 1.7003 0
M  V30 630 O 62.22 0.114967 1.93859 0
M  V30 631 C 59.35 0.619155 3.41736 0
M  V30 632 C 58.304 1.64791 3.95004 0
M  V30 633 C 57.63 1.0897 5.23478 0
M  V30 634 C 58.93 3.03999 4.24714 0
M  V30 635 H 60.624 1.96119 2.26225 0
M  V30 636 H 58.17 0.944344 1.08711 0
M  V30 637 H 60.123 0.467777 4.18796 0
M  V30 638 H 58.847 -0.344786 3.24775 0
M  V30 639 H 57.506 1.78721 3.20085 0
M  V30 640 H 57.154 0.11686 5.02864 0
M  V30 641 H 56.854 1.77704 5.60085 0
M  V30 642 H 58.378 0.950093 6.03163 0
M  V30 643 H 59.792 2.93393 4.92538 0
M  V30 644 H 58.189 3.69936 4.72512 0
M  V30 645 H 59.259 3.53285 3.32142 0
M  V30 646 N 60.6021 -1.18246 1.0419 0
M  V30 647 C 61.8301 -1.92195 0.766072 0
M  V30 648 C 62.2451 -1.76247 -0.676933 0
M  V30 649 O 61.6021 -1.09293 -1.46155 0
M  V30 650 C 61.6531 -3.43568 1.12442 0
M  V30 651 O 61.3741 -3.59015 2.51078 0
M  V30 652 C 62.8751 -4.34613 0.873275 0
M  V30 653 H 60.0951 -0.610114 0.279288 0
M  V30 654 H 62.6391 -1.50007 1.38989 0
M  V30 655 H 60.7941 -3.8354 0.545542 0
M  V30 656 H 61.2081 -4.5273 2.64831 0
M  V30 657 H 62.6821 -5.39374 1.17385 0
M  V30 658 H 63.1591 -4.38781 -0.191909 0
M  V30 659 H 63.7651 -4.00341 1.43551 0
M  V30 660 N 62.0802 -0.821533 -1.34494 0
M  V30 661 C 63.3082 -0.421884 -2.02553 0
M  V30 662 C 63.7232 0.971745 -1.61872 0
M  V30 663 O 63.0802 1.62864 -0.823496 0
M  V30 664 C 63.1312 -0.51285 -3.57844 0
M  V30 665 O 62.8522 -1.85155 -3.97051 0
M  V30 666 C 64.3532 -0.107921 -4.43169 0
M  V30 667 H 61.5732 -0.169482 -0.649243 0
M  V30 668 H 64.1172 -1.1093 -1.71798 0
M  V30 669 H 62.2722 0.126474 -3.87193 0
M  V30 670 H 62.6862 -1.82482 -4.91732 0
M  V30 671 H 64.1602 -0.222657 -5.51551 0
M  V30 672 H 64.6372 0.948401 -4.28838 0
M  V30 673 H 65.2432 -0.720989 -4.19144 0
M  V30 674 N 63.5583 1.46682 -0.576371 0
M  V30 675 C 64.8043 2.02712 -0.0596221 0
M  V30 676 C 65.1373 1.44765 1.29448 0
M  V30 677 O 64.4123 0.610355 1.84675 0
M  V30 678 C 64.6953 3.60098 0.0129503 0
M  V30 679 C 64.5483 4.28441 -1.3696 0
M  V30 680 C 65.8673 4.34224 0.71678 0
M  V30 681 H 62.9863 0.736637 -0.0231407 0
M  V30 682 H 65.6283 1.74898 -0.742351 0
M  V30 683 H 63.7783 3.83926 0.594378 0
M  V30 684 H 65.4503 4.15896 -1.9957 0
M  V30 685 H 63.6933 3.8805 -1.93907 0
M  V30 686 H 64.3643 5.3716 -1.27135 0
M  V30 687 H 66.8403 4.15503 0.222908 0
M  V30 688 H 65.7163 5.43936 0.73657 0
M  V30 689 H 65.9773 4.04823 1.77682 0
M  V30 690 N 65.0364 0.313813 1.54444 0
M  V30 691 C 65.9664 -0.549454 2.26943 0
M  V30 692 C 66.9474 -1.12741 1.27372 0
M  V30 693 O 68.1324 -1.15436 1.56167 0
M  V30 694 C 65.2624 -1.71523 3.01989 0
M  V30 695 C 64.2164 -1.26703 4.08816 0
M  V30 696 C 63.5424 -2.51898 4.71647 0
M  V30 697 C 64.8424 -0.388962 5.2085 0
M  V30 698 H 66.5364 0.0552661 2.99349 0
M  V30 699 H 64.0824 0.0280207 1.43973 0
M  V30 700 H 66.0354 -2.32535 3.51433 0
M  V30 701 H 64.7594 -2.34639 2.27183 0
M  V30 702 H 63.4184 -0.679896 3.6024 0
M  V30 703 H 63.0664 -3.13356 3.93468 0
M  V30 704 H 62.7664 -2.22605 5.43802 0
M  V30 705 H 64.2904 -3.1369 5.23861 0
M  V30 706 H 65.7044 -0.905107 5.6611 0
M  V30 707 H 64.1014 -0.18924 5.99802 0
M  V30 708 H 65.1714 0.582699 4.81386 0
M  V30 709 N 66.5145 -1.57545 0.0417849 0
M  V30 710 C 67.7615 -1.92317 -0.634082 0
M  V30 711 C 68.0895 -0.919334 -1.71402 0
M  V30 712 O 67.3445 0.0698253 -1.95575 0
M  V30 713 C 67.6435 -3.33794 -1.27735 0
M  V30 714 C 67.3095 -4.49716 -0.326543 0
M  V30 715 C 65.9715 -4.81156 -0.0648814 0
M  V30 716 C 68.3235 -5.20182 0.325623 0
M  V30 717 C 65.6515 -5.80414 0.856539 0
M  V30 718 C 68.0035 -6.20424 1.23518 0
M  V30 719 C 66.6675 -6.50298 1.5056 0
M  V30 720 H 65.9375 -0.703736 -0.232027 0
M  V30 721 H 68.5845 -1.91205 0.106259 0
M  V30 722 H 66.8895 -3.31228 -2.09274 0
M  V30 723 H 68.5865 -3.57975 -1.80707 0
M  V30 724 H 65.1765 -4.25176 -0.540665 0
M  V30 725 H 69.3605 -4.96112 0.136546 0
M  V30 726 H 64.6165 -6.019 1.07363 0
M  V30 727 H 68.7905 -6.74141 1.74664 0
M  V30 728 H 66.4175 -7.27025 2.22123 0
M  V30 729 N 67.9926 0.231505 -1.5589 0
M  V30 730 C 68.9226 1.29022 -1.94617 0
M  V30 731 C 69.9036 1.4941 -0.813067 0
M  V30 732 O 71.0886 1.6176 -1.07459 0
M  V30 733 C 68.2186 2.64199 -2.25424 0
M  V30 734 C 67.1726 2.58484 -3.41131 0
M  V30 735 C 66.4986 3.97599 -3.57518 0
M  V30 736 C 67.7986 2.1413 -4.76388 0
M  V30 737 H 69.4926 0.968563 -2.83301 0
M  V30 738 H 67.0386 0.464479 -1.36303 0
M  V30 739 H 68.9916 3.38413 -2.51107 0
M  V30 740 H 67.7156 2.98032 -1.33583 0
M  V30 741 H 66.3746 1.86727 -3.15481 0
M  V30 742 H 66.0226 4.28723 -2.6307 0
M  V30 743 H 65.7226 3.94659 -4.35337 0
M  V30 744 H 67.2466 4.7349 -3.85538 0
M  V30 745 H 68.6606 2.78083 -5.01341 0
M  V30 746 H 67.0576 2.2227 -5.57419 0
M  V30 747 H 68.1276 1.09331 -4.72414 0
M  V30 748 N 69.4707 1.49531 0.497807 0
M  V30 749 C 70.7167 1.59415 1.25358 0
M  V30 750 C 71.0497 0.281422 1.9215 0
M  V30 751 O 70.3247 -0.715249 1.80871 0
M  V30 752 C 70.6077 2.75566 2.3181 0
M  V30 753 C 70.4607 4.16642 1.69498 0
M  V30 754 C 71.7797 2.87347 3.33346 0
M  V30 755 H 68.8987 0.580244 0.454408 0
M  V30 756 H 71.5407 1.81827 0.551262 0
M  V30 757 H 69.6907 2.56587 2.91711 0
M  V30 758 H 71.3627 4.47145 1.13399 0
M  V30 759 H 69.6057 4.22141 0.998978 0
M  V30 760 H 70.2767 4.93792 2.46725 0
M  V30 761 H 72.7527 3.04634 2.83438 0
M  V30 762 H 71.6287 3.70289 4.05188 0
M  V30 763 H 71.8897 1.96834 3.95865 0
M  V30 764 N 70.9488 -0.749086 1.3866 0
M  V30 765 C 72.1978 -1.50371 1.3443 0
M  V30 766 C 72.5108 -1.95503 -0.0616397 0
M  V30 767 O 73.7168 -2.70554 -0.226489 0
M  V30 768 C 72.1728 -2.71644 2.36088 0
M  V30 769 C 71.7808 -2.3352 3.82325 0
M  V30 770 C 73.5248 -3.49518 2.40909 0
M  V30 771 C 71.4318 -3.51431 4.75658 0
M  V30 772 H 70.3618 -0.564628 0.499712 0
M  V30 773 H 73.0128 -0.818449 1.64237 0
M  V30 774 H 71.3948 -3.42175 1.9933 0
M  V30 775 H 72.5688 -1.70627 4.28046 0
M  V30 776 H 70.8838 -1.6877 3.80665 0
M  V30 777 H 73.4808 -4.37197 3.07836 0
M  V30 778 H 73.8238 -3.90992 1.42937 0
M  V30 779 H 74.3568 -2.86005 2.76489 0
M  V30 780 H 71.0958 -3.15019 5.74842 0
M  V30 781 H 70.6158 -4.13352 4.34627 0
M  V30 782 H 72.2948 -4.17953 4.93887 0
M  V30 783 N 72.4269 -1.23603 -0.977757 0
M  V30 784 C 73.6669 -1.08148 -1.73446 0
M  V30 785 C 74.0309 0.374785 -1.88307 0
M  V30 786 O 75.2319 0.650588 -2.60808 0
M  V30 787 C 73.5029 -1.78991 -3.0935 0
M  V30 788 S 75.0619 -1.79141 -4.00567 0
M  V30 789 H 71.8799 -0.386987 -0.596458 0
M  V30 790 H 74.4819 -1.5678 -1.16792 0
M  V30 791 H 73.1859 -2.8408 -2.96187 0
M  V30 792 H 72.7169 -1.30651 -3.71071 0
M  V30 793 H 74.7319 -0.851892 -4.88833 0
M  V30 794 N 73.905 1.17692 -1.04816 0
M  V30 795 C 75.13 1.92327 -0.776207 0
M  V30 796 C 75.555 1.76082 0.661581 0
M  V30 797 O 74.913 1.076 1.45917 0
M  V30 798 C 74.961 3.41539 -1.15687 0
M  V30 799 O 74.065 4.11402 -0.286775 0
M  V30 800 H 73.406 0.599735 -0.284981 0
M  V30 801 H 75.936 1.49201 -1.4 0
M  V30 802 H 75.946 3.92269 -1.12202 0
M  V30 803 H 74.621 3.52684 -2.20425 0
M  V30 804 H 73.198 3.70939 -0.381903 0
M  V30 805 N 75.3831 0.828654 1.34056 0
M  V30 806 C 76.6301 0.419458 1.98108 0
M  V30 807 C 76.9581 -1.01886 1.65679 0
M  V30 808 O 76.2131 -1.72539 0.923512 0
M  V30 809 C 76.5121 0.575226 3.52741 0
M  V30 810 C 76.1781 1.98012 4.05095 0
M  V30 811 C 74.8401 2.36442 4.19104 0
M  V30 812 C 77.1921 2.89824 4.33188 0
M  V30 813 C 74.5201 3.66009 4.58535 0
M  V30 814 C 76.8721 4.1886 4.74066 0
M  V30 815 C 75.5361 4.5726 4.86281 0
M  V30 816 H 74.8061 0.153491 0.724929 0
M  V30 817 H 77.4531 1.05371 1.59904 0
M  V30 818 H 75.7581 -0.142385 3.91541 0
M  V30 819 H 77.4551 0.239057 4.00287 0
M  V30 820 H 74.0451 1.67162 3.94658 0
M  V30 821 H 78.2291 2.61375 4.21897 0
M  V30 822 H 73.4851 3.95579 4.66184 0
M  V30 823 H 77.6591 4.90086 4.94761 0
M  V30 824 H 75.2861 5.57707 5.16592 0
M  V30 825 N 76.8612 -1.46375 0.584142 0
M  V30 826 C 78.1102 -2.01585 0.0679741 0
M  V30 827 C 78.4232 -1.46109 -1.30045 0
M  V30 828 O 79.6292 -1.93148 -1.90804 0
M  V30 829 C 78.0852 -3.5983 0.0709207 0
M  V30 830 C 77.6932 -4.24303 1.43775 0
M  V30 831 C 79.4372 -4.22693 -0.391228 0
M  V30 832 C 77.3442 -5.74631 1.39834 0
M  V30 833 H 76.2742 -0.753689 0.0216421 0
M  V30 834 H 78.9252 -1.68093 0.736001 0
M  V30 835 H 77.3072 -3.90405 -0.663299 0
M  V30 836 H 78.4812 -4.05335 2.19181 0
M  V30 837 H 76.7962 -3.73539 1.84004 0
M  V30 838 H 79.3932 -5.3289 -0.439524 0
M  V30 839 H 79.7362 -3.91728 -1.40906 0
M  V30 840 H 80.2692 -3.96749 0.288974 0
M  V30 841 H 77.0082 -6.10258 2.39303 0
M  V30 842 H 76.5282 -5.95858 0.686505 0
M  V30 843 H 78.2072 -6.37375 1.11187 0
M  V30 844 N 78.3393 -0.321999 -1.54275 0
M  V30 845 C 79.5853 0.281461 -2.00837 0
M  V30 846 C 79.9183 1.51909 -1.20985 0
M  V30 847 O 79.1933 1.923 -0.291733 0
M  V30 848 C 79.4763 0.617162 -3.54772 0
M  V30 849 C 79.3293 -0.631064 -4.45351 0
M  V30 850 C 80.6483 1.43542 -4.16033 0
M  V30 851 H 77.7673 0.100826 -0.730071 0
M  V30 852 H 80.4093 -0.438268 -1.84876 0
M  V30 853 H 78.5593 1.23034 -3.68504 0
M  V30 854 H 80.2313 -1.26934 -4.43492 0
M  V30 855 H 78.4743 -1.26025 -4.15091 0
M  V30 856 H 79.1453 -0.351735 -5.50878 0
M  V30 857 H 81.6213 0.917134 -4.05867 0
M  V30 858 H 80.4973 1.63907 -5.23856 0
M  V30 859 H 80.7583 2.43108 -3.69257 0
M  V30 860 N 79.8174 1.5752 -0.0501392 0
M  V30 861 C 80.7474 2.14502 0.922566 0
M  V30 862 C 81.7284 1.06642 1.3252 0
M  V30 863 O 82.9134 1.34577 1.4001 0
M  V30 864 C 80.0434 2.68916 2.19776 0
M  V30 865 C 78.9974 3.8175 1.93523 0
M  V30 866 C 78.3234 4.22677 3.27487 0
M  V30 867 C 79.6234 5.06932 1.25765 0
M  V30 868 H 81.3174 2.9603 0.447952 0
M  V30 869 H 78.8634 1.42401 0.214024 0
M  V30 870 H 80.8164 3.07419 2.88222 0
M  V30 871 H 79.5404 1.84578 2.69441 0
M  V30 872 H 78.1994 3.43718 1.27489 0
M  V30 873 H 77.8474 3.35291 3.74952 0
M  V30 874 H 77.5474 4.98725 3.1072 0
M  V30 875 H 79.0714 4.63779 3.97166 0
M  V30 876 H 80.4854 5.42888 1.84244 0
M  V30 877 H 78.8824 5.88116 1.19328 0
M  V30 878 H 79.9524 4.84337 0.233536 0
M  V30 879 N 81.2955 -0.223234 1.56011 0
M  V30 880 C 82.2055 -1.29766 1.95443 0
M  V30 881 C 83.2215 -1.51373 0.858028 0
M  V30 882 O 84.3975 -1.64536 1.16146 0
M  V30 883 C 81.4625 -2.62772 2.26167 0
M  V30 884 C 80.5235 -2.49482 3.49367 0
M  V30 885 C 79.7565 -3.76145 3.78616 0
M  V30 886 O 79.9795 -4.79087 3.09568 0
M  V30 887 O 78.9135 -3.73358 4.72109 0
M  V30 888 H 82.7395 -0.99309 2.87004 0
M  V30 889 H 80.3245 -0.425958 1.43199 0
M  V30 890 H 82.2065 -3.41327 2.47131 0
M  V30 891 H 80.8815 -2.92913 1.37781 0
M  V30 892 H 79.7885 -1.69133 3.33684 0
M  V30 893 H 81.1215 -2.2428 4.38131 0
M  V30 894 N 82.7736 -1.49793 -0.48987 0
M  V30 895 C 83.7216 -1.67783 -1.61095 0
M  V30 896 C 84.7156 -0.543683 -1.60438 0
M  V30 897 O 85.9216 -0.723647 -1.64813 0
M  V30 898 H 82.2966 -0.529255 -0.534222 0
M  V30 899 H 84.2676 -2.61861 -1.43078 0
M  V30 900 C 83.0166 -1.77191 -2.99164 0
M  V30 901 H 82.3396 -2.63841 -3.0038 0
M  V30 902 H 83.7796 -1.93809 -3.77113 0
M  V30 903 C 82.2386 -0.519203 -3.32875 0
M  V30 904 O 82.7686 0.350124 -4.00171 0
M  V30 905 N 80.9746 -0.378816 -2.8812 0
M  V30 906 H 80.5216 -1.08725 -2.33531 0
M  V30 907 H 80.4796 0.458239 -3.11043 0
M  V30 908 N 84.2517 0.741722 -1.39055 0
M  V30 909 C 85.1817 1.869 -1.39966 0
M  V30 910 C 86.1627 1.6804 -0.26392 0
M  V30 911 O 87.3477 1.88458 -0.468755 0
M  V30 912 C 84.4777 3.24572 -1.23574 0
M  V30 913 C 83.4317 3.58056 -2.34477 0
M  V30 914 C 82.7577 4.94593 -2.0318 0
M  V30 915 C 84.0577 3.61716 -3.76774 0
M  V30 916 H 85.7517 1.86395 -2.34302 0
M  V30 917 H 83.2977 0.895361 -1.1278 0
M  V30 918 H 85.2507 4.031 -1.22834 0
M  V30 919 H 83.9747 3.25587 -0.257045 0
M  V30 920 H 82.6337 2.81854 -2.34423 0
M  V30 921 H 82.2817 4.92181 -1.03765 0
M  V30 922 H 81.9817 5.17964 -2.77465 0
M  V30 923 H 83.5057 5.75486 -2.04079 0
M  V30 924 H 84.9197 4.30335 -3.78794 0
M  V30 925 H 83.3167 3.96603 -4.50362 0
M  V30 926 H 84.3867 2.61672 -4.08235 0
M  V30 927 N 85.7298 1.2412 0.971189 0
M  V30 928 C 86.6628 0.97373 2.06382 0
M  V30 929 C 87.6408 -0.0912662 1.62344 0
M  V30 930 O 88.8248 0.0449365 1.88446 0
M  V30 931 C 85.9518 0.468746 3.35441 0
M  V30 932 C 84.9978 1.52176 3.98428 0
M  V30 933 S 85.8308 3.10203 4.36503 0
M  V30 934 C 86.9868 2.61398 5.68702 0
M  V30 935 H 87.2198 1.89893 2.28753 0
M  V30 936 H 84.7528 1.07466 1.10862 0
M  V30 937 H 86.7108 0.184012 4.10087 0
M  V30 938 H 85.3718 -0.435688 3.11064 0
M  V30 939 H 84.5648 1.11876 4.91426 0
M  V30 940 H 84.1668 1.75632 3.30196 0
M  V30 941 H 86.4588 2.03992 6.4606 0
M  V30 942 H 87.4018 3.52972 6.13854 0
M  V30 943 H 87.8098 2.01941 5.27143 0
M  V30 944 N 87.2079 -1.17134 1.05439 0
M  V30 945 C 88.4539 -1.87733 0.767077 0
M  V30 946 C 88.7869 -1.8098 -0.704253 0
M  V30 947 O 88.0619 -1.21951 -1.5152 0
M  V30 948 C 88.3449 -3.37659 1.25133 0
M  V30 949 C 88.1979 -3.53149 2.78578 0
M  V30 950 C 89.5169 -4.31768 0.852324 0
M  V30 951 H 86.6359 -0.681687 0.280129 0
M  V30 952 H 89.2779 -1.37732 1.30881 0
M  V30 953 H 87.4279 -3.80373 0.790469 0
M  V30 954 H 89.0999 -3.19434 3.32806 0
M  V30 955 H 87.3429 -2.95345 3.17732 0
M  V30 956 H 88.0139 -4.58403 3.07523 0
M  V30 957 H 90.4899 -3.96909 1.24911 0
M  V30 958 H 89.3659 -5.35199 1.21873 0
M  V30 959 H 89.6269 -4.41429 -0.243485 0
M  V30 960 N 88.686 -0.835752 -1.33615 0
M  V30 961 C 89.616 -0.281739 -2.31794 0
M  V30 962 C 90.597 0.608833 -1.58831 0
M  V30 963 O 91.782 0.533035 -1.86741 0
M  V30 964 C 88.912 0.546612 -3.42971 0
M  V30 965 C 87.866 -0.247904 -4.27281 0
M  V30 966 C 87.192 0.704001 -5.30045 0
M  V30 967 C 88.492 -1.46324 -5.01385 0
M  V30 968 H 90.186 -1.10206 -2.78379 0
M  V30 969 H 87.732 -0.531388 -1.33837 0
M  V30 970 H 89.685 0.944467 -4.1068 0
M  V30 971 H 88.409 1.40011 -2.95067 0
M  V30 972 H 87.068 -0.627281 -3.61194 0
M  V30 973 H 86.716 1.55381 -4.78399 0
M  V30 974 H 86.416 0.176524 -5.87335 0
M  V30 975 H 87.94 1.09944 -6.0062 0
M  V30 976 H 89.354 -1.13871 -5.61877 0
M  V30 977 H 87.751 -1.92728 -5.6831 0
M  V30 978 H 88.821 -2.23467 -4.30338 0
M  V30 979 N 90.1641 1.46063 -0.591896 0
M  V30 980 C 91.4131 2.01547 -0.0786637 0
M  V30 981 C 91.7261 1.46796 1.29268 0
M  V30 982 O 92.9321 1.94157 1.89777 0
M  V30 983 C 91.3881 3.59787 -0.0900024 0
M  V30 984 C 90.9961 4.23534 -1.46023 0
M  V30 985 C 92.7401 4.22895 0.368806 0
M  V30 986 C 90.6471 5.73881 -1.4288 0
M  V30 987 H 89.5771 0.753564 -0.0256388 0
M  V30 988 H 92.2281 1.677 -0.744905 0
M  V30 989 H 90.6101 3.90752 0.642586 0
M  V30 990 H 91.7841 4.04167 -2.21328 0
M  V30 991 H 90.0991 3.72558 -1.85982 0
M  V30 992 H 92.6961 5.33116 0.411258 0
M  V30 993 H 93.0391 3.9247 1.38827 0
M  V30 994 H 93.5721 3.9659 -0.31001 0
M  V30 995 H 90.3111 6.0898 -2.42536 0
M  V30 996 H 89.8311 5.95486 -0.718095 0
M  V30 997 H 91.5101 6.36776 -1.14565 0
M  V30 998 N 91.6422 0.330177 1.54103 0
M  V30 999 C 92.6052 -0.520144 2.2322 0
M  V30 1000 C 93.6052 -1.03828 1.22786 0
M  V30 1001 O 94.7952 -0.929652 1.4732 0
M  V30 1002 C 91.9272 -1.72317 2.94142 0
M  V30 1003 H 93.1202 0.0841605 2.99782 0
M  V30 1004 H 90.6732 0.0813433 1.56088 0
M  V30 1005 H 91.4082 -2.36653 2.21734 0
M  V30 1006 H 91.1932 -1.35898 3.67796 0
M  V30 1007 H 92.6832 -2.3266 3.46784 0
M  V30 1008 N 93.1203 -1.57491 0.0584922 0
M  V30 1009 C 94.3693 -1.92155 -0.613146 0
M  V30 1010 C 94.6823 -0.939334 -1.71569 0
M  V30 1011 O 95.8883 -1.17829 -2.44599 0
M  V30 1012 C 94.3443 -3.41303 -1.14195 0
M  V30 1013 C 93.9523 -4.47944 -0.0711265 0
M  V30 1014 C 95.6963 -3.84988 -1.78841 0
M  V30 1015 C 93.6033 -5.88212 -0.613225 0
M  V30 1016 H 92.5333 -0.717162 -0.232796 0
M  V30 1017 H 95.1843 -1.83049 0.12857 0
M  V30 1018 H 93.5663 -3.45437 -1.93621 0
M  V30 1019 H 94.7403 -4.55408 0.702836 0
M  V30 1020 H 93.0553 -4.13644 0.478313 0
M  V30 1021 H 95.6523 -4.87159 -2.20408 0
M  V30 1022 H 95.9953 -3.21632 -2.64308 0
M  V30 1023 H 96.5283 -3.83401 -1.06059 0
M  V30 1024 H 93.2673 -6.55183 0.203978 0
M  V30 1025 H 92.7873 -5.84294 -1.35501 0
M  V30 1026 H 94.4663 -6.37687 -1.09383 0
M  V30 1027 N 94.5984 0.214957 -1.56127 0
M  V30 1028 C 95.8444 0.935325 -1.80619 0
M  V30 1029 C 96.1994 1.81706 -0.632507 0
M  V30 1030 O 95.4924 1.87931 0.373182 0
M  V30 1031 C 95.6864 1.80314 -3.0858 0
M  V30 1032 C 95.5154 1.00691 -4.38282 0
M  V30 1033 C 94.2854 0.699211 -5.00439 0
M  V30 1034 C 96.4834 0.369057 -5.12974 0
M  V30 1035 N 94.4654 -0.117734 -6.13787 0
M  V30 1036 C 95.8364 -0.310981 -6.1922 0
M  V30 1037 C 97.8914 0.282759 -4.97096 0
M  V30 1038 C 96.5944 -1.06907 -7.11311 0
M  V30 1039 C 98.6204 -0.461881 -5.89594 0
M  V30 1040 C 97.9824 -1.13044 -6.9527 0
M  V30 1041 H 94.0814 0.322307 -0.71249 0
M  V30 1042 H 96.6654 0.205649 -1.93611 0
M  V30 1043 H 94.8364 2.50458 -2.96859 0
M  V30 1044 H 96.5684 2.46148 -3.21237 0
M  V30 1045 H 93.3234 1.01884 -4.62511 0
M  V30 1046 H 93.7474 -0.515235 -6.75037 0
M  V30 1047 H 98.3894 0.785292 -4.15443 0
M  V30 1048 H 96.1074 -1.5831 -7.92442 0
M  V30 1049 H 99.6934 -0.529746 -5.79383 0
M  V30 1050 H 98.5734 -1.69742 -7.65609 0
M  V30 1051 N 96.0765 1.50051 0.48192 0
M  V30 1052 C 97.0235 1.68122 1.58125 0
M  V30 1053 C 97.9935 0.522545 1.57666 0
M  V30 1054 O 99.1785 0.751844 1.75362 0
M  V30 1055 C 96.3185 1.77142 2.96167 0
M  V30 1056 C 95.4315 3.0444 3.06497 0
M  V30 1057 C 94.5665 3.04321 4.35387 0
M  V30 1058 C 93.6055 4.26118 4.3942 0
M  V30 1059 N 92.7425 4.238 5.59766 0
M  V30 1060 H 97.5825 2.6198 1.42022 0
M  V30 1061 H 95.1195 1.29877 0.690687 0
M  V30 1062 H 97.0775 1.80352 3.76203 0
M  V30 1063 H 95.7075 0.867329 3.1093 0
M  V30 1064 H 94.7595 3.10752 2.19402 0
M  V30 1065 H 96.0715 3.94426 3.05336 0
M  V30 1066 H 95.2255 3.062 5.23762 0
M  V30 1067 H 93.9645 2.12147 4.39141 0
M  V30 1068 H 92.9695 4.24463 3.49444 0
M  V30 1069 H 94.1945 5.19507 4.37366 0
M  V30 1070 H 92.1405 3.34474 5.64326 0
M  V30 1071 H 92.0575 5.07542 5.60301 0
M  V30 1072 H 93.3255 4.2981 6.50295 0
M  V30 1073 N 97.5546 -0.734337 1.39446 0
M  V30 1074 C 98.5026 -1.86971 1.38364 0
M  V30 1075 C 99.4966 -1.67288 0.266687 0
M  V30 1076 O 100.703 -1.74621 0.436755 0
M  V30 1077 H 97.0776 -0.615474 0.432082 0
M  V30 1078 H 99.0486 -1.85 2.34132 0
M  V30 1079 C 97.7976 -3.2466 1.24465 0
M  V30 1080 H 97.1206 -3.40402 2.09682 0
M  V30 1081 H 98.5606 -4.04292 1.27764 0
M  V30 1082 C 97.0196 -3.36867 -0.0468674 0
M  V30 1083 O 97.5496 -3.88618 -1.01681 0
M  V30 1084 N 95.7556 -2.90391 -0.110145 0
M  V30 1085 H 95.3026 -2.48466 0.679868 0
M  V30 1086 H 95.2606 -2.98939 -0.973799 0
M  V30 1087 N 99.0327 -1.24633 -0.964593 0
M  V30 1088 C 99.9807 -1.03917 -2.08096 0
M  V30 1089 C 100.975 0.0268581 -1.69379 0
M  V30 1090 O 102.181 -0.127952 -1.79545 0
M  V30 1091 H 98.5557 -0.319044 -0.680966 0
M  V30 1092 H 100.527 -1.98581 -2.22729 0
M  V30 1093 C 99.2757 -0.663983 -3.41301 0
M  V30 1094 H 98.5987 -1.47605 -3.71555 0
M  V30 1095 H 100.039 -0.558663 -4.20303 0
M  V30 1096 C 98.4977 0.629169 -3.30973 0
M  V30 1097 O 99.0277 1.67404 -3.65156 0
M  V30 1098 N 97.2337 0.611057 -2.84103 0
M  V30 1099 H 96.7807 -0.239593 -2.56483 0
M  V30 1100 H 96.7387 1.47647 -2.77575 0
M  V30 1101 N 100.511 1.16574 -1.06058 0
M  V30 1102 C 101.458 2.20883 -0.669263 0
M  V30 1103 C 102.428 1.62729 0.332918 0
M  V30 1104 O 103.613 1.895 0.222346 0
M  V30 1105 C 100.753 3.45049 -0.0593572 0
M  V30 1106 C 99.8658 4.17458 -1.11143 0
M  V30 1107 C 99.0008 5.29135 -0.467916 0
M  V30 1108 C 98.0398 5.93343 -1.50369 0
M  V30 1109 N 97.1768 6.96516 -0.883706 0
M  V30 1110 H 102.017 2.53709 -1.5632 0
M  V30 1111 H 99.5538 1.24616 -0.781625 0
M  V30 1112 H 101.512 4.16033 0.311771 0
M  V30 1113 H 100.142 3.12781 0.797992 0
M  V30 1114 H 99.1938 3.45101 -1.60029 0
M  V30 1115 H 100.506 4.61307 -1.89731 0
M  V30 1116 H 99.6598 6.06684 -0.0436871 0
M  V30 1117 H 98.3988 4.86443 0.349864 0
M  V30 1118 H 97.4038 5.14517 -1.93784 0
M  V30 1119 H 98.6288 6.38114 -2.32352 0
M  V30 1120 H 96.5748 6.55943 -0.086595 0
M  V30 1121 H 96.4918 7.38723 -1.607 0
M  V30 1122 H 97.7598 7.77993 -0.484543 0
M  V30 1123 N 101.989 0.842826 1.3317 0
M  V30 1124 C 103.236 0.440447 1.97652 0
M  V30 1125 C 103.564 -1.00123 1.6675 0
M  V30 1126 O 102.819 -1.7155 0.941761 0
M  V30 1127 C 103.118 0.612607 3.52111 0
M  V30 1128 C 102.784 2.02297 4.02972 0
M  V30 1129 C 101.446 2.40874 4.16573 0
M  V30 1130 C 103.798 2.94402 4.30089 0
M  V30 1131 C 101.126 3.70852 4.54627 0
M  V30 1132 C 103.478 4.23865 4.69597 0
M  V30 1133 C 102.142 4.62392 4.81404 0
M  V30 1134 H 101.412 0.161171 0.72326 0
M  V30 1135 H 104.059 1.07061 1.58777 0
M  V30 1136 H 102.364 -0.100849 3.9167 0
M  V30 1137 H 104.061 0.2815 4.00011 0
M  V30 1138 H 100.651 1.71338 3.92863 0
M  V30 1139 H 104.835 2.65835 4.19101 0
M  V30 1140 H 100.091 4.00501 4.61962 0
M  V30 1141 H 104.265 4.95306 4.89536 0
M  V30 1142 H 101.892 5.63154 5.10648 0
M  V30 1143 N 103.467 -1.45747 0.599634 0
M  V30 1144 C 104.417 -2.27538 -0.145107 0
M  V30 1145 C 105.401 -1.3686 -0.846055 0
M  V30 1146 O 106.593 -1.6091 -0.737357 0
M  V30 1147 C 103.722 -3.23569 -1.14708 0
M  V30 1148 C 102.808 -4.21734 -0.447383 0
M  V30 1149 N 103.199 -5.03257 0.506535 0
M  V30 1150 C 101.497 -4.40536 -0.695966 0
M  V30 1151 C 102.198 -5.74426 0.917068 0
M  V30 1152 N 101.174 -5.42966 0.26253 0
M  V30 1153 H 104.976 -2.87965 0.587672 0
M  V30 1154 H 102.49 -1.56803 0.422697 0
M  V30 1155 H 104.487 -3.8089 -1.69495 0
M  V30 1156 H 103.147 -2.64702 -1.8805 0
M  V30 1157 H 104.158 -5.10319 0.882899 0
M  V30 1158 H 100.835 -3.92802 -1.41467 0
M  V30 1159 H 102.225 -6.4995 1.70338 0
M  V30 1160 N 104.945 -0.338344 -1.53925 0
M  V30 1161 C 105.893 0.536231 -2.26335 0
M  V30 1162 C 106.887 1.1063 -1.28286 0
M  V30 1163 O 108.093 1.05264 -1.46012 0
M  V30 1164 H 104.468 0.191602 -0.727181 0
M  V30 1165 H 106.439 -0.0965747 -2.98244 0
M  V30 1166 C 105.188 1.67803 -3.04528 0
M  V30 1167 H 104.511 1.24864 -3.79801 0
M  V30 1168 H 105.951 2.26526 -3.58416 0
M  V30 1169 C 104.41 2.60439 -2.13712 0
M  V30 1170 O 104.94 3.6255 -1.72975 0
M  V30 1171 N 103.146 2.29006 -1.78898 0
M  V30 1172 H 102.693 1.46011 -2.12223 0
M  V30 1173 H 102.651 2.91248 -1.18416 0
M  V30 1174 N 106.423 1.57458 -0.0668435 0
M  V30 1175 C 107.839 1.56947 0.289772 0
M  V30 1176 C 108.039 1.07584 1.70376 0
M  V30 1177 O 107.095 0.739486 2.41429 0
M  V30 1178 C 108.408 3.0052 0.103943 0
M  V30 1179 C 109.956 3.12517 0.173857 0
M  V30 1180 C 110.431 4.57997 0.0163682 0
M  V30 1181 N 111.922 4.63144 0.0721352 0
M  V30 1182 C 112.657 5.73394 -0.0253794 0
M  V30 1183 N 112.153 6.92576 -0.176133 0
M  V30 1184 N 113.946 5.62091 0.0313305 0
M  V30 1185 H 106.097 1.87863 -0.991027 0
M  V30 1186 H 108.36 0.86583 -0.38606 0
M  V30 1187 H 108.066 3.40729 -0.871572 0
M  V30 1188 H 107.94 3.67304 0.858366 0
M  V30 1189 H 110.327 2.72197 1.13985 0
M  V30 1190 H 110.408 2.48381 -0.611586 0
M  V30 1191 H 110.052 4.99005 -0.946374 0
M  V30 1192 H 109.982 5.20158 0.821153 0
M  V30 1193 H 112.473 3.77436 0.187263 0
M  V30 1194 H 112.786 7.72418 -0.242821 0
M  V30 1195 H 111.131 6.94678 -0.211429 0
M  V30 1196 H 114.322 4.67867 0.147773 0
M  V30 1197 H 114.495 6.47982 -0.048121 0
M  V30 1198 N 107.901 -0.206675 1.56239 0
M  V30 1199 C 108.834 -1.28383 1.88661 0
M  V30 1200 C 109.812 -1.44504 0.745481 0
M  V30 1201 O 110.996 -1.60079 0.995336 0
M  V30 1202 C 108.123 -2.65211 2.10667 0
M  V30 1203 C 107.169 -2.66025 3.33366 0
M  V30 1204 S 108.002 -2.18609 4.88846 0
M  V30 1205 C 109.158 -3.57283 5.13906 0
M  V30 1206 H 109.391 -1.00691 2.7973 0
M  V30 1207 H 106.924 -0.409627 1.48867 0
M  V30 1208 H 108.882 -3.43979 2.24029 0
M  V30 1209 H 107.543 -2.90121 1.20369 0
M  V30 1210 H 106.736 -3.66607 3.45855 0
M  V30 1211 H 106.338 -1.95331 3.18938 0
M  V30 1212 H 108.63 -4.53074 5.03717 0
M  V30 1213 H 109.573 -3.49699 6.15724 0
M  V30 1214 H 109.981 -3.51659 4.41583 0
M  V30 1215 N 109.379 -1.50304 -0.473955 0
M  V30 1216 C 110.609 -1.64663 -1.24778 0
M  V30 1217 C 111.017 -0.328174 -1.86332 0
M  V30 1218 O 110.36 0.699536 -1.69859 0
M  V30 1219 C 110.422 -2.6778 -2.39863 0
M  V30 1220 C 110.086 -4.11413 -1.98969 0
M  V30 1221 C 111.083 -4.97372 -1.51385 0
M  V30 1222 C 108.768 -4.57312 -2.07777 0
M  V30 1223 C 110.762 -6.27277 -1.13148 0
M  V30 1224 C 108.449 -5.87223 -1.69152 0
M  V30 1225 C 109.447 -6.72031 -1.21915 0
M  V30 1226 O 109.135 -7.99518 -0.838237 0
M  V30 1227 H 108.867 -0.556602 -0.383627 0
M  V30 1228 H 111.421 -1.9726 -0.572491 0
M  V30 1229 H 109.651 -2.30419 -3.10554 0
M  V30 1230 H 111.34 -2.71388 -3.01833 0
M  V30 1231 H 112.106 -4.63128 -1.44004 0
M  V30 1232 H 107.985 -3.91449 -2.43493 0
M  V30 1233 H 111.529 -6.93425 -0.762077 0
M  V30 1234 H 107.426 -6.20989 -1.76191 0
M  V30 1235 H 108.194 -8.12764 -0.967339 0
M  V30 1236 N 110.857 0.726932 -1.39834 0
M  V30 1237 C 112.104 1.48664 -1.37496 0
M  V30 1238 C 112.432 1.94482 0.0264678 0
M  V30 1239 O 111.687 1.67692 1.00886 0
M  V30 1240 C 111.986 2.73495 -2.30077 0
M  V30 1241 C 111.652 2.46502 -3.77555 0
M  V30 1242 C 110.314 2.3885 -4.17737 0
M  V30 1243 C 112.666 2.23604 -4.70798 0
M  V30 1244 C 109.994 2.06352 -5.49214 0
M  V30 1245 C 112.346 1.92622 -6.02561 0
M  V30 1246 C 111.01 1.83444 -6.41798 0
M  V30 1247 H 110.28 0.544001 -0.503135 0
M  V30 1248 H 112.927 0.833657 -1.72402 0
M  V30 1249 H 111.232 3.43575 -1.88317 0
M  V30 1250 H 112.929 3.31549 -2.25558 0
M  V30 1251 H 109.519 2.5334 -3.45712 0
M  V30 1252 H 113.703 2.28479 -4.40581 0
M  V30 1253 H 108.959 1.97776 -5.78528 0
M  V30 1254 H 113.133 1.73914 -6.74334 0
M  V30 1255 H 110.76 1.58029 -7.43593 0
M  V30 1256 N 112.336 1.25143 0.95797 0
M  V30 1257 C 113.583 1.09692 1.70217 0
M  V30 1258 C 113.911 -0.362654 1.91089 0
M  V30 1259 O 113.166 -1.28386 1.47701 0
M  V30 1260 C 113.465 1.79272 3.09187 0
M  V30 1261 C 113.131 3.29196 3.08125 0
M  V30 1262 C 111.793 3.70096 3.07543 0
M  V30 1263 C 114.145 4.24995 3.0171 0
M  V30 1264 C 111.473 5.05213 2.9829 0
M  V30 1265 C 113.825 5.60132 2.93999 0
M  V30 1266 C 112.489 6.00365 2.9175 0
M  V30 1267 H 111.759 0.401393 0.622868 0
M  V30 1268 H 114.406 1.55372 1.11945 0
M  V30 1269 H 112.711 1.26014 3.70982 0
M  V30 1270 H 114.408 1.64773 3.65583 0
M  V30 1271 H 110.998 2.96651 3.09348 0
M  V30 1272 H 115.182 3.9439 3.01281 0
M  V30 1273 H 110.438 5.35569 2.94916 0
M  V30 1274 H 114.612 6.3406 2.87996 0
M  V30 1275 H 112.239 7.05023 2.84336 0
M  V30 1276 N 113.814 -1.1601 1.06675 0
M  V30 1277 C 115.063 -1.85973 0.780818 0
M  V30 1278 C 115.376 -1.82819 -0.695444 0
M  V30 1279 O 116.582 -2.484 -1.09589 0
M  V30 1280 C 115.038 -3.33757 1.34665 0
M  V30 1281 C 114.646 -3.45374 2.85343 0
M  V30 1282 C 116.39 -4.0895 1.13843 0
M  V30 1283 C 114.297 -4.87266 3.35151 0
M  V30 1284 H 113.227 -0.696661 0.288407 0
M  V30 1285 H 115.878 -1.30903 1.28595 0
M  V30 1286 H 114.26 -3.88456 0.769274 0
M  V30 1287 H 115.434 -3.00816 3.49065 0
M  V30 1288 H 113.749 -2.83619 3.04876 0
M  V30 1289 H 116.346 -5.13654 1.4854 0
M  V30 1290 H 116.689 -4.16229 0.0770282 0
M  V30 1291 H 117.222 -3.605 1.68179 0
M  V30 1292 H 113.961 -4.85168 4.40786 0
M  V30 1293 H 113.481 -5.32433 2.76179 0
M  V30 1294 H 115.16 -5.56097 3.30704 0
M  V30 1295 N 115.292 -0.849877 -1.32721 0
M  V30 1296 C 116.54 -0.450032 -1.97026 0
M  V30 1297 C 116.861 0.996604 -1.67609 0
M  V30 1298 O 116.131 1.6958 -0.980786 0
M  V30 1299 H 114.711 -0.163426 -0.728904 0
M  V30 1300 H 117.373 -1.08526 -1.6189 0
M  V30 1301 H 116.469 -0.591146 -3.0645 0
M  V30 1302 N 116.77 1.45427 -0.607355 0
M  V30 1303 C 117.718 2.32269 0.12411 0
M  V30 1304 C 118.712 1.45955 0.859854 0
M  V30 1305 O 119.918 1.6244 0.775447 0
M  V30 1306 H 116.293 0.749691 0.0588839 0
M  V30 1307 H 118.264 2.91743 -0.626762 0
M  V30 1308 C 117.013 3.29567 1.1082 0
M  V30 1309 H 116.336 3.95978 0.551492 0
M  V30 1310 H 117.776 3.93061 1.58995 0
M  V30 1311 C 116.235 2.56722 2.18164 0
M  V30 1312 O 116.765 2.34842 3.25902 0
M  V30 1313 N 114.971 2.16861 1.93442 0
M  V30 1314 H 114.518 2.34855 1.05834 0
M  V30 1315 H 114.476 1.68444 2.65469 0
M  V30 1316 N 118.248 0.346503 1.53744 0
M  V30 1317 C 119.178 -0.501193 2.28058 0
M  V30 1318 C 120.159 -1.10014 1.29734 0
M  V30 1319 O 121.344 -1.12097 1.58581 0
M  V30 1320 C 118.474 -1.65078 3.05559 0
M  V30 1321 C 117.428 -1.18003 4.11411 0
M  V30 1322 C 116.754 -2.41837 4.76884 0
M  V30 1323 C 118.054 -0.278394 5.21558 0
M  V30 1324 H 119.748 0.11875 2.99164 0
M  V30 1325 H 117.294 0.0585531 1.43881 0
M  V30 1326 H 119.247 -2.25028 3.56287 0
M  V30 1327 H 117.971 -2.29767 2.32109 0
M  V30 1328 H 116.63 -0.603331 3.61601 0
M  V30 1329 H 116.278 -3.0494 4.00026 0
M  V30 1330 H 115.978 -2.1102 5.48402 0
M  V30 1331 H 117.502 -3.02508 5.30397 0
M  V30 1332 H 118.916 -0.784823 5.67903 0
M  V30 1333 H 117.313 -0.0619707 6.00068 0
M  V30 1334 H 118.383 0.684677 4.80042 0
M  V30 1335 N 119.726 -1.57421 0.075193 0
M  V30 1336 C 120.689 -2.11791 -0.876203 0
M  V30 1337 C 121.689 -1.04268 -1.22412 0
M  V30 1338 O 122.879 -1.30242 -1.15684 0
M  V30 1339 C 120.011 -2.62207 -2.17854 0
M  V30 1340 H 121.204 -2.9716 -0.40444 0
M  V30 1341 H 118.757 -1.55333 -0.173557 0
M  V30 1342 H 119.492 -1.803 -2.6956 0
M  V30 1343 H 119.277 -3.40802 -1.93897 0
M  V30 1344 H 120.767 -3.04335 -2.85955 0
M  V30 1345 N 121.204 0.198386 -1.56346 0
M  V30 1346 C 122.134 1.24865 -1.9731 0
M  V30 1347 C 123.115 1.47651 -0.844576 0
M  V30 1348 O 124.3 1.59444 -1.10866 0
M  V30 1349 C 121.43 2.59358 -2.30977 0
M  V30 1350 C 120.384 2.5119 -3.46537 0
M  V30 1351 C 119.71 3.89926 -3.65871 0
M  V30 1352 C 121.01 2.03977 -4.80823 0
M  V30 1353 H 122.704 0.908252 -2.85291 0
M  V30 1354 H 120.25 0.435462 -1.37258 0
M  V30 1355 H 122.203 3.33011 -2.58228 0
M  V30 1356 H 120.927 2.95132 -1.39874 0
M  V30 1357 H 119.586 1.79993 -3.19371 0
M  V30 1358 H 119.234 4.23046 -2.72105 0
M  V30 1359 H 118.934 3.85336 -4.4361 0
M  V30 1360 H 120.458 4.65205 -3.95495 0
M  V30 1361 H 121.872 2.67386 -5.07127 0
M  V30 1362 H 120.269 2.10397 -5.62008 0
M  V30 1363 H 121.339 0.992861 -4.74626 0
M  V30 1364 N 122.682 1.50554 0.465978 0
M  V30 1365 C 123.922 1.63439 1.22747 0
M  V30 1366 C 124.286 0.329822 1.89146 0
M  V30 1367 O 125.487 0.334161 2.66715 0
M  V30 1368 C 123.758 2.78542 2.2394 0
M  V30 1369 S 125.317 3.11591 3.0896 0
M  V30 1370 H 122.135 0.576113 0.416672 0
M  V30 1371 H 124.737 1.88357 0.523641 0
M  V30 1372 H 123.441 3.71805 1.7375 0
M  V30 1373 H 122.972 2.55726 2.98944 0
M  V30 1374 H 124.987 2.55811 4.25176 0
M  V30 1375 N 124.16 -0.719506 1.40217 0
M  V30 1376 C 125.437 -1.47221 1.28784 0
M  V30 1377 C 125.817 -2.10883 -0.0956067 0
M  V30 1378 O 125.165 -1.99833 -1.10811 0
M  V30 1379 C 125.375 -2.5111 2.42373 0
M  V30 1380 C 126.723 -3.17053 2.82423 0
M  V30 1381 O 127.747 -2.61429 2.41937 0
M  V30 1382 O 126.606 -4.17742 3.52355 0
M  V30 1383 H 123.7 -0.654491 0.50554 0
M  V30 1384 H 126.246 -0.752014 1.52128 0
M  V30 1385 H 125.018 -2.02556 3.34793 0
M  V30 1386 H 124.641 -3.3067 2.20778 0
M  V30 1387 N 125.638 -1.25649 -0.95132 0
M  V30 1388 C 126.568 -1.08808 -2.06599 0
M  V30 1389 C 127.549 0.00382547 -1.701 0
M  V30 1390 O 128.734 -0.166325 -1.93486 0
M  V30 1391 C 125.864 -0.709542 -3.39975 0
M  V30 1392 C 124.818 -1.75206 -3.90496 0
M  V30 1393 C 124.144 -1.22811 -5.20405 0
M  V30 1394 C 125.444 -3.15153 -4.16504 0
M  V30 1395 H 127.138 -2.02048 -2.20946 0
M  V30 1396 H 124.684 -0.972835 -1.06169 0
M  V30 1397 H 126.637 -0.578649 -4.17408 0
M  V30 1398 H 125.361 0.258556 -3.25575 0
M  V30 1399 H 124.02 -1.87145 -3.15234 0
M  V30 1400 H 123.668 -0.250145 -5.02378 0
M  V30 1401 H 123.368 -1.92492 -5.55176 0
M  V30 1402 H 124.892 -1.10968 -6.00432 0
M  V30 1403 H 126.306 -3.06349 -4.84586 0
M  V30 1404 H 124.703 -3.82333 -4.62538 0
M  V30 1405 H 125.773 -3.61966 -3.22658 0
M  V30 1406 N 127.117 1.15442 -1.07289 0
M  V30 1407 C 128.047 2.22312 -0.714107 0
M  V30 1408 C 129.028 1.67467 0.298155 0
M  V30 1409 O 130.213 1.93445 0.171048 0
M  V30 1410 C 127.343 3.47124 -0.110448 0
M  V30 1411 C 126.297 4.14926 -1.04979 0
M  V30 1412 C 125.623 5.33807 -0.308924 0
M  V30 1413 C 126.923 4.64762 -2.38314 0
M  V30 1414 H 128.617 2.5258 -1.6076 0
M  V30 1415 H 126.163 1.21404 -0.77441 0
M  V30 1416 H 128.116 4.21124 0.152482 0
M  V30 1417 H 126.84 3.16187 0.81812 0
M  V30 1418 H 125.499 3.42866 -1.29764 0
M  V30 1419 H 125.147 4.99126 0.623084 0
M  V30 1420 H 124.847 5.80113 -0.935036 0
M  V30 1421 H 126.371 6.10576 -0.0537771 0
M  V30 1422 H 127.785 5.30292 -2.1786 0
M  V30 1423 H 126.182 5.21728 -2.96514 0
M  V30 1424 H 127.252 3.80434 -3.00663 0
M  V30 1425 N 128.595 0.856903 1.32268 0
M  V30 1426 C 129.558 0.308171 2.27119 0
M  V30 1427 C 130.558 -0.533421 1.51695 0
M  V30 1428 O 131.748 -0.344607 1.70757 0
M  V30 1429 C 128.88 -0.563757 3.36206 0
M  V30 1430 H 130.073 1.14535 2.77167 0
M  V30 1431 H 127.626 0.631421 1.42978 0
M  V30 1432 H 128.361 -1.42266 2.91429 0
M  V30 1433 H 128.146 0.0386749 3.92081 0
M  V30 1434 H 129.636 -0.940386 4.06874 0
M  V30 1435 N 130.073 -1.45103 0.615059 0
M  V30 1436 C 131.321 -2.01784 0.112955 0
M  V30 1437 C 131.642 -1.48504 -1.26378 0
M  V30 1438 O 130.912 -0.682245 -1.83636 0
M  V30 1439 H 129.492 -0.745993 0.0387668 0
M  V30 1440 H 132.154 -1.77808 0.798141 0
M  V30 1441 H 131.25 -3.12025 0.0684069 0
M  V30 1442 N 131.551 -0.354651 -1.53558 0
M  V30 1443 C 132.8 0.239504 -2.00273 0
M  V30 1444 C 133.113 1.50759 -1.24623 0
M  V30 1445 O 134.319 2.17968 -1.61871 0
M  V30 1446 C 132.775 0.477341 -3.5672 0
M  V30 1447 C 132.383 -0.775488 -4.41237 0
M  V30 1448 C 134.127 1.02975 -4.11821 0
M  V30 1449 C 132.034 -0.507838 -5.89216 0
M  V30 1450 H 130.964 0.0932743 -0.748208 0
M  V30 1451 H 133.615 -0.471701 -1.77334 0
M  V30 1452 H 131.997 1.24953 -3.7577 0
M  V30 1453 H 133.171 -1.54963 -4.33962 0
M  V30 1454 H 131.486 -1.25033 -3.97185 0
M  V30 1455 H 134.083 1.24513 -5.2 0
M  V30 1456 H 134.426 1.98862 -3.65731 0
M  V30 1457 H 134.959 0.317994 -3.96527 0
M  V30 1458 H 131.698 -1.43674 -6.39561 0
M  V30 1459 H 131.218 0.228011 -5.99366 0
M  V30 1460 H 132.897 -0.129238 -6.46871 0
M  V30 1461 N 133.029 1.57378 -0.0835403 0
M  V30 1462 C 133.992 2.12252 0.864959 0
M  V30 1463 C 134.992 1.04916 1.21858 0
M  V30 1464 O 136.182 1.30853 1.14991 0
M  V30 1465 C 133.314 2.63358 2.16461 0
M  V30 1466 H 134.507 2.97371 0.388676 0
M  V30 1467 H 132.06 1.55423 0.165317 0
M  V30 1468 H 132.795 1.81727 2.686 0
M  V30 1469 H 132.58 3.41826 1.92087 0
M  V30 1470 H 134.07 3.05847 2.84337 0
M  V30 1471 N 134.507 -0.190092 1.56449 0
M  V30 1472 C 135.737 -0.92443 1.84764 0
M  V30 1473 C 136.145 -1.77146 0.664529 0
M  V30 1474 O 135.488 -1.79812 -0.375957 0
M  V30 1475 C 135.55 -1.86651 3.07248 0
M  V30 1476 C 135.214 -1.20094 4.40938 0
M  V30 1477 C 136.211 -0.575445 5.16706 0
M  V30 1478 C 133.896 -1.2033 4.87674 0
M  V30 1479 C 135.89 0.0388111 6.37388 0
M  V30 1480 C 133.577 -0.585214 6.08291 0
M  V30 1481 C 134.575 0.0347578 6.82991 0
M  V30 1482 O 134.263 0.643147 8.01323 0
M  V30 1483 H 133.995 -0.274974 0.617548 0
M  V30 1484 H 136.549 -0.200788 2.04416 0
M  V30 1485 H 134.779 -2.62998 2.83494 0
M  V30 1486 H 136.468 -2.46907 3.22167 0
M  V30 1487 H 137.234 -0.565728 4.81689 0
M  V30 1488 H 133.113 -1.67526 4.29484 0
M  V30 1489 H 136.657 0.523329 6.95634 0
M  V30 1490 H 132.554 -0.592451 6.42775 0
M  V30 1491 H 133.322 0.540545 8.16713 0
M  V30 1492 N 135.985 -1.50799 -0.457987 0
M  V30 1493 C 136.932 -1.70617 -1.5543 0
M  V30 1494 C 137.902 -0.547562 -1.56815 0
M  V30 1495 O 139.087 -0.779647 -1.74144 0
M  V30 1496 C 136.227 -1.81831 -2.93311 0
M  V30 1497 C 135.34 -3.09278 -3.01615 0
M  V30 1498 C 134.475 -3.11209 -4.30491 0
M  V30 1499 C 133.514 -4.33055 -4.32585 0
M  V30 1500 N 132.651 -4.32652 -5.52952 0
M  V30 1501 H 137.491 -2.64207 -1.37836 0
M  V30 1502 H 135.028 -1.30959 -0.669937 0
M  V30 1503 H 136.986 -1.86314 -3.73287 0
M  V30 1504 H 135.616 -0.916685 -3.0951 0
M  V30 1505 H 134.668 -3.14203 -2.1443 0
M  V30 1506 H 135.98 -3.99233 -2.99022 0
M  V30 1507 H 135.134 -3.14494 -5.18824 0
M  V30 1508 H 133.873 -2.19106 -4.35711 0
M  V30 1509 H 132.878 -4.29969 -3.42647 0
M  V30 1510 H 134.103 -5.264 -4.29046 0
M  V30 1511 H 132.049 -3.43409 -5.58933 0
M  V30 1512 H 131.966 -5.16392 -5.52155 0
M  V30 1513 H 133.234 -4.40101 -6.43375 0
M  V30 1514 N 137.463 0.71206 -1.40597 0
M  V30 1515 C 138.709 1.47416 -1.39271 0
M  V30 1516 C 139.042 1.942 0.00388791 0
M  V30 1517 O 138.317 1.68403 0.973179 0
M  V30 1518 C 138.6 2.69774 -2.38525 0
M  V30 1519 C 138.453 2.28861 -3.87224 0
M  V30 1520 C 139.772 3.71939 -2.35264 0
M  V30 1521 H 136.891 0.534713 -0.5072 0
M  V30 1522 H 139.533 0.812375 -1.71757 0
M  V30 1523 H 137.683 3.26238 -2.10953 0
M  V30 1524 H 139.355 1.77852 -4.25636 0
M  V30 1525 H 137.598 1.60824 -4.02887 0
M  V30 1526 H 138.269 3.16584 -4.52193 0
M  V30 1527 H 140.745 3.25113 -2.59694 0
M  V30 1528 H 139.621 4.55186 -3.06753 0
M  V30 1529 H 139.882 4.20484 -1.36549 0
M  V30 1530 N 138.941 1.26152 0.944643 0
M  V30 1531 C 139.889 1.07215 2.06417 0
M  V30 1532 C 140.883 9.2007e-05 1.694 0
M  V30 1533 O 142.089 0.1565 1.79318 0
M  V30 1534 H 138.464 0.329837 0.675805 0
M  V30 1535 H 140.435 2.02099 2.19541 0
M  V30 1536 C 139.184 0.718197 3.40202 0
M  V30 1537 H 138.507 1.53497 3.69159 0
M  V30 1538 H 139.947 0.625459 4.19361 0
M  V30 1539 C 138.406 -0.576435 3.31932 0
M  V30 1540 O 138.936 -1.61574 3.67773 0
M  V30 1541 N 137.142 -0.565781 2.85039 0
M  V30 1542 H 136.689 0.280367 2.5607 0
M  V30 1543 H 136.647 -1.43213 2.79888 0
M  V30 1544 N 140.419 -1.14872 1.07899 0
M  V30 1545 C 141.668 -1.85135 0.800499 0
M  V30 1546 C 141.981 -1.83547 -0.676014 0
M  V30 1547 O 143.187 -2.49548 -1.06948 0
M  V30 1548 C 141.643 -3.3231 1.38197 0
M  V30 1549 C 141.251 -3.42329 2.8899 0
M  V30 1550 C 142.995 -4.0772 1.18174 0
M  V30 1551 C 140.902 -4.83684 3.403 0
M  V30 1552 H 139.832 -0.693563 0.29578 0
M  V30 1553 H 142.483 -1.29532 1.29976 0
M  V30 1554 H 140.865 -3.87618 0.810431 0
M  V30 1555 H 142.039 -2.97097 3.52236 0
M  V30 1556 H 140.354 -2.80369 3.07867 0
M  V30 1557 H 142.951 -5.12049 1.5398 0
M  V30 1558 H 143.294 -4.16124 0.12117 0
M  V30 1559 H 143.827 -3.58696 1.71994 0
M  V30 1560 H 140.566 -4.80465 4.45907 0
M  V30 1561 H 140.086 -5.29474 2.81811 0
M  V30 1562 H 141.765 -5.52558 3.36584 0
M  V30 1563 N 141.898 -0.863906 -1.31812 0
M  V30 1564 C 142.828 -0.330843 -2.31144 0
M  V30 1565 C 143.809 0.575005 -1.60087 0
M  V30 1566 O 144.994 0.493304 -1.8783 0
M  V30 1567 C 142.124 0.47374 -3.44054 0
M  V30 1568 C 141.078 -0.338481 -4.26659 0
M  V30 1569 C 140.404 0.591412 -5.31419 0
M  V30 1570 C 141.704 -1.56926 -4.98168 0
M  V30 1571 H 143.398 -1.16086 -2.75979 0
M  V30 1572 H 140.944 -0.559657 -1.32679 0
M  V30 1573 H 142.897 0.857143 -4.12591 0
M  V30 1574 H 141.621 1.33721 -2.9797 0
M  V30 1575 H 140.28 -0.703754 -3.59782 0
M  V30 1576 H 139.928 1.45199 -4.81587 0
M  V30 1577 H 139.628 0.0519022 -5.87577 0
M  V30 1578 H 141.152 0.97179 -6.02817 0
M  V30 1579 H 142.566 -1.25764 -5.59336 0
M  V30 1580 H 140.963 -2.04739 -5.64094 0
M  V30 1581 H 142.033 -2.32544 -4.25501 0
M  V30 1582 N 143.376 1.44774 -0.622745 0
M  V30 1583 C 144.309 2.27792 0.136329 0
M  V30 1584 C 145.287 1.38041 0.859264 0
M  V30 1585 O 146.471 1.67478 0.86506 0
M  V30 1586 C 143.598 3.16776 1.19878 0
M  V30 1587 C 142.644 4.22575 0.57731 0
M  V30 1588 S 143.477 5.31825 -0.626294 0
M  V30 1589 C 144.633 6.24377 0.436378 0
M  V30 1590 H 144.866 2.91824 -0.567967 0
M  V30 1591 H 142.399 1.48838 -0.410677 0
M  V30 1592 H 144.357 3.68596 1.80686 0
M  V30 1593 H 143.018 2.5198 1.87523 0
M  V30 1594 H 142.211 4.84818 1.37721 0
M  V30 1595 H 141.813 3.73974 0.0440439 0
M  V30 1596 H 144.105 6.64689 1.31128 0
M  V30 1597 H 145.048 7.07941 -0.150271 0
M  V30 1598 H 145.456 5.59381 0.758513 0
M  V30 1599 N 144.854 0.36279 1.53368 0
M  V30 1600 C 146.079 -0.231226 2.06107 0
M  V30 1601 C 146.504 -1.419 1.23474 0
M  V30 1602 O 145.862 -1.79524 0.253128 0
M  V30 1603 C 145.91 -0.605523 3.5548 0
M  V30 1604 O 145.014 -1.70312 3.7559 0
M  V30 1605 H 144.355 -0.034327 0.663112 0
M  V30 1606 H 146.885 0.522584 1.97814 0
M  V30 1607 H 146.895 -0.877314 3.98456 0
M  V30 1608 H 145.57 0.263004 4.15068 0
M  V30 1609 H 144.147 -1.4271 3.44512 0
M  V30 1610 N 146.332 -1.57332 0.0918853 0
M  V30 1611 C 147.58 -1.93853 -0.571446 0
M  V30 1612 C 147.901 -0.974212 -1.6892 0
M  V30 1613 O 147.171 -0.0257254 -1.95883 0
M  V30 1614 H 145.751 -0.715666 -0.214082 0
M  V30 1615 H 148.413 -1.94287 0.154464 0
M  V30 1616 H 147.509 -2.96191 -0.983729 0
M  V30 1617 N 147.81 0.181792 -1.56548 0
M  V30 1618 C 148.757 1.22521 -1.95595 0
M  V30 1619 C 149.727 1.4454 -0.818373 0
M  V30 1620 O 150.912 1.57454 -1.07763 0
M  V30 1621 C 148.052 2.56193 -2.31212 0
M  V30 1622 C 147.165 2.41641 -3.58097 0
M  V30 1623 C 146.3 3.68108 -3.82975 0
M  V30 1624 C 145.339 3.48445 -5.03242 0
M  V30 1625 N 144.476 4.66956 -5.24306 0
M  V30 1626 H 149.316 0.885226 -2.84548 0
M  V30 1627 H 146.853 0.425718 -1.40805 0
M  V30 1628 H 148.811 3.34088 -2.49882 0
M  V30 1629 H 147.441 2.88208 -1.45382 0
M  V30 1630 H 146.493 1.54976 -3.474 0
M  V30 1631 H 147.805 2.23052 -4.46149 0
M  V30 1632 H 146.959 4.54441 -4.01956 0
M  V30 1633 H 145.698 3.89666 -2.93278 0
M  V30 1634 H 144.703 2.60499 -4.8417 0
M  V30 1635 H 145.928 3.2832 -5.9446 0
M  V30 1636 H 143.874 4.88752 -4.37559 0
M  V30 1637 H 143.791 4.51242 -6.06561 0
M  V30 1638 H 145.059 5.54602 -5.47756 0
M  V30 1639 N 149.288 1.51039 0.449983 0
M  V30 1640 C 150.235 1.71439 1.54523 0
M  V30 1641 C 151.205 0.555871 1.56522 0
M  V30 1642 O 152.39 0.788871 1.73728 0
M  V30 1643 C 149.53 1.83384 2.92343 0
M  V30 1644 C 148.643 3.10873 2.9997 0
M  V30 1645 C 147.778 3.13488 4.28834 0
M  V30 1646 C 146.817 4.35343 4.30282 0
M  V30 1647 N 145.954 4.35579 5.5065 0
M  V30 1648 H 150.794 2.64934 1.36433 0
M  V30 1649 H 148.331 1.31312 0.662982 0
M  V30 1650 H 150.289 1.88291 3.72293 0
M  V30 1651 H 148.919 0.933086 3.0902 0
M  V30 1652 H 147.971 3.15336 2.12761 0
M  V30 1653 H 149.283 4.00814 2.96901 0
M  V30 1654 H 148.437 3.17241 5.17149 0
M  V30 1655 H 147.176 2.21414 4.34543 0
M  V30 1656 H 146.181 4.3178 3.40362 0
M  V30 1657 H 147.406 5.28668 4.26248 0
M  V30 1658 H 145.352 3.46369 5.57104 0
M  V30 1659 H 145.269 5.19313 5.49409 0
M  V30 1660 H 146.537 4.43507 6.41032 0
M  V30 1661 N 150.766 -0.704594 1.40972 0
M  V30 1662 C 151.994 -1.49354 1.43182 0
M  V30 1663 C 152.409 -1.88768 0.0345508 0
M  V30 1664 O 151.766 -1.56184 -0.944081 0
M  V30 1665 C 151.817 -2.76187 2.33244 0
M  V30 1666 O 151.538 -2.38436 3.67532 0
M  V30 1667 C 153.039 -3.7 2.44162 0
M  V30 1668 H 150.259 -0.460559 0.487982 0
M  V30 1669 H 152.803 -0.868261 1.85153 0
M  V30 1670 H 150.958 -3.34974 1.94606 0
M  V30 1671 H 151.372 -3.20126 4.15475 0
M  V30 1672 H 152.846 -4.55803 3.11364 0
M  V30 1673 H 153.323 -4.13867 1.47006 0
M  V30 1674 H 153.929 -3.17121 2.83398 0
M  V30 1675 N 152.244 -1.26651 -0.937939 0
M  V30 1676 C 153.491 -1.12387 -1.6845 0
M  V30 1677 C 153.819 0.332208 -1.91642 0
M  V30 1678 O 153.074 1.2602 -1.49725 0
M  V30 1679 C 153.373 -1.84168 -3.06295 0
M  V30 1680 C 153.039 -3.34056 -3.02849 0
M  V30 1681 C 151.701 -3.74942 -3.01616 0
M  V30 1682 C 154.053 -4.29741 -2.9491 0
M  V30 1683 C 151.381 -5.09894 -2.90215 0
M  V30 1684 C 153.733 -5.64738 -2.8505 0
M  V30 1685 C 152.397 -6.0493 -2.82162 0
M  V30 1686 H 151.667 -0.411252 -0.616403 0
M  V30 1687 H 154.314 -1.57134 -1.09459 0
M  V30 1688 H 152.619 -1.319 -3.6893 0
M  V30 1689 H 154.316 -1.70569 -3.62915 0
M  V30 1690 H 150.906 -3.01534 -3.0459 0
M  V30 1691 H 155.09 -3.99133 -2.94969 0
M  V30 1692 H 150.346 -5.40194 -2.86358 0
M  V30 1693 H 154.52 -6.38561 -2.77872 0
M  V30 1694 H 152.147 -7.09457 -2.73084 0
M  V30 1695 N 153.722 1.14298 -1.08507 0
M  V30 1696 C 154.947 1.8976 -0.837001 0
M  V30 1697 C 155.372 1.78097 0.605228 0
M  V30 1698 O 154.73 1.12188 1.4242 0
M  V30 1699 C 154.778 3.37685 -1.26495 0
M  V30 1700 O 153.882 4.10281 -0.417514 0
M  V30 1701 H 153.223 0.590365 -0.303917 0
M  V30 1702 H 155.753 1.44672 -1.44676 0
M  V30 1703 H 155.763 3.88501 -1.24625 0
M  V30 1704 H 154.438 3.45492 -2.31534 0
M  V30 1705 H 153.015 3.69536 -0.499722 0
M  V30 1706 N 155.201 0.870884 1.31352 0
M  V30 1707 C 156.131 0.343096 2.30966 0
M  V30 1708 C 157.112 -0.566507 1.60389 0
M  V30 1709 O 158.297 -0.483336 1.88089 0
M  V30 1710 C 155.427 -0.455487 3.443 0
M  V30 1711 C 154.381 0.361103 4.26474 0
M  V30 1712 C 153.707 -0.563221 5.31725 0
M  V30 1713 C 155.007 1.59566 4.97329 0
M  V30 1714 H 156.701 1.17548 2.75359 0
M  V30 1715 H 154.247 0.566686 1.32381 0
M  V30 1716 H 156.2 -0.83525 4.13039 0
M  V30 1717 H 154.924 -1.32139 2.98675 0
M  V30 1718 H 153.583 0.722825 3.59403 0
M  V30 1719 H 153.231 -1.42643 4.82351 0
M  V30 1720 H 152.931 -0.0207409 5.87596 0
M  V30 1721 H 154.455 -0.939808 6.03324 0
M  V30 1722 H 155.869 1.28728 5.58661 0
M  V30 1723 H 154.266 2.07728 5.63 0
M  V30 1724 H 155.336 2.34798 4.24262 0
M  V30 1725 N 156.679 -1.44442 0.630414 0
M  V30 1726 C 157.904 -2.06927 0.139944 0
M  V30 1727 C 158.329 -1.46795 -1.17613 0
M  V30 1728 O 157.687 -0.569144 -1.72135 0
M  V30 1729 C 157.735 -3.6058 0.0379581 0
M  V30 1730 O 156.839 -3.99937 -1.0062 0
M  V30 1731 H 156.18 -0.658608 0.0844483 0
M  V30 1732 H 158.71 -1.85327 0.866891 0
M  V30 1733 H 158.72 -4.07714 -0.152856 0
M  V30 1734 H 157.395 -4.03728 0.998809 0
M  V30 1735 H 155.972 -3.64436 -0.79001 0
M  V30 1736 N 158.157 -0.370918 -1.53173 0
M  V30 1737 C 159.568 0.107139 -1.86392 0
M  V30 1738 C 159.919 1.47714 -1.29132 0
M  V30 1739 O 159.044 2.07464 -0.615439 0
M  V30 1740 C 159.639 0.201187 -3.38202 0
M  V30 1741 C 158.198 0.623507 -3.712 0
M  V30 1742 C 157.345 -0.225978 -2.76378 0
M  V30 1743 H 160.296 -0.58951 -1.47345 0
M  V30 1744 H 160.317 1.02377 -3.66468 0
M  V30 1745 H 159.829 -0.796058 -3.79848 0
M  V30 1746 H 157.93 1.62879 -3.35114 0
M  V30 1747 H 158.043 0.394414 -4.77474 0
M  V30 1748 H 156.407 0.305962 -2.52856 0
M  V30 1749 H 157.19 -1.22086 -3.20858 0
M  V30 1750 N 159.635 1.57281 -0.100228 0
M  V30 1751 C 160.863 1.98879 0.570509 0
M  V30 1752 C 161.278 0.979476 1.61405 0
M  V30 1753 O 160.635 -0.0302288 1.82475 0
M  V30 1754 C 160.686 3.4052 1.2136 0
M  V30 1755 O 160.407 4.37588 0.211786 0
M  V30 1756 C 161.908 3.97149 1.96945 0
M  V30 1757 H 159.128 0.653428 0.152555 0
M  V30 1758 H 161.672 2.03697 -0.18103 0
M  V30 1759 H 159.827 3.367 1.91603 0
M  V30 1760 H 160.241 5.20118 0.676607 0
M  V30 1761 H 161.715 4.98393 2.37294 0
M  V30 1762 H 162.192 3.3525 2.83733 0
M  V30 1763 H 162.798 4.04458 1.31506 0
M  V30 1764 N 161.113 -0.173488 1.56642 0
M  V30 1765 C 162.359 -0.891784 1.8214 0
M  V30 1766 C 162.692 -1.8199 0.677736 0
M  V30 1767 O 161.967 -1.91842 -0.320446 0
M  V30 1768 C 162.25 -1.68933 3.18015 0
M  V30 1769 C 162.103 -0.784487 4.42906 0
M  V30 1770 C 163.422 -2.65748 3.50808 0
M  V30 1771 H 160.541 -0.322761 0.662567 0
M  V30 1772 H 163.183 -0.158095 1.89341 0
M  V30 1773 H 161.333 -2.31482 3.12007 0
M  V30 1774 H 163.005 -0.172046 4.60979 0
M  V30 1775 H 161.248 -0.0924117 4.33702 0
M  V30 1776 H 161.919 -1.37799 5.34524 0
M  V30 1777 H 164.395 -2.13327 3.57255 0
M  V30 1778 H 163.271 -3.18619 4.4696 0
M  V30 1779 H 163.532 -3.45842 2.75401 0
M  V30 1780 N 162.591 -1.51276 -0.441967 0
M  V30 1781 C 163.837 -1.6492 -1.1905 0
M  V30 1782 C 164.192 -0.358731 -1.89026 0
M  V30 1783 O 163.485 0.645193 -1.8041 0
M  V30 1784 C 163.679 -2.78746 -2.23686 0
M  V30 1785 C 163.508 -4.18737 -1.63979 0
M  V30 1786 C 162.278 -4.84739 -1.42674 0
M  V30 1787 C 164.476 -5.01988 -1.11858 0
M  V30 1788 N 162.458 -6.08858 -0.785159 0
M  V30 1789 C 163.829 -6.17071 -0.601989 0
M  V30 1790 C 165.884 -4.87551 -1.0099 0
M  V30 1791 C 164.587 -7.19299 0.0126012 0
M  V30 1792 C 166.613 -5.89983 -0.409206 0
M  V30 1793 C 165.975 -7.04333 0.0968651 0
M  V30 1794 H 162.074 -0.657416 -0.423471 0
M  V30 1795 H 164.658 -1.8849 -0.48782 0
M  V30 1796 H 162.829 -2.56848 -2.91348 0
M  V30 1797 H 164.561 -2.81595 -2.90666 0
M  V30 1798 H 161.316 -4.42528 -1.68719 0
M  V30 1799 H 161.74 -6.75282 -0.481942 0
M  V30 1800 H 166.382 -3.99401 -1.38703 0
M  V30 1801 H 164.1 -8.071 0.401879 0
M  V30 1802 H 167.686 -5.8088 -0.327079 0
M  V30 1803 H 166.566 -7.82238 0.554373 0
M  V30 1804 N 164.069 0.697108 -1.41344 0
M  V30 1805 C 165.316 1.45714 -1.40619 0
M  V30 1806 C 165.644 1.94494 -0.0147907 0
M  V30 1807 O 164.899 1.69794 0.973066 0
M  V30 1808 C 165.198 2.68553 -2.35826 0
M  V30 1809 C 164.864 2.38438 -3.82698 0
M  V30 1810 C 163.526 2.29936 -4.22709 0
M  V30 1811 C 165.878 2.13567 -4.75435 0
M  V30 1812 C 163.206 1.94656 -5.53467 0
M  V30 1813 C 165.558 1.79797 -6.06511 0
M  V30 1814 C 164.222 1.69789 -6.45545 0
M  V30 1815 H 163.492 0.533206 -0.51456 0
M  V30 1816 H 166.139 0.796901 -1.74131 0
M  V30 1817 H 164.444 3.39503 -1.95563 0
M  V30 1818 H 166.141 3.2669 -2.32539 0
M  V30 1819 H 162.731 2.4595 -3.51008 0
M  V30 1820 H 166.915 2.19082 -4.45328 0
M  V30 1821 H 162.171 1.8546 -5.82593 0
M  V30 1822 H 166.345 1.59572 -6.77872 0
M  V30 1823 H 163.972 1.4222 -7.46778 0
M  V30 1824 N 165.547 1.27147 0.931209 0
M  V30 1825 C 166.477 1.12081 2.04842 0
M  V30 1826 C 167.458 0.0232364 1.70084 0
M  V30 1827 O 168.643 0.197085 1.93197 0
M  V30 1828 C 165.773 0.76354 3.38803 0
M  V30 1829 C 164.727 1.81396 3.87659 0
M  V30 1830 C 164.053 1.31075 5.18385 0
M  V30 1831 C 165.353 3.21739 4.11438 0
M  V30 1832 H 167.047 2.05537 2.17703 0
M  V30 1833 H 164.593 0.989603 1.04608 0
M  V30 1834 H 166.546 0.644982 4.16435 0
M  V30 1835 H 165.27 -0.206727 3.25945 0
M  V30 1836 H 163.929 1.92136 3.12217 0
M  V30 1837 H 163.577 0.330037 5.01916 0
M  V30 1838 H 163.277 2.013 5.52044 0
M  V30 1839 H 164.801 1.20506 5.98591 0
M  V30 1840 H 166.215 3.14019 4.79651 0
M  V30 1841 H 164.612 3.89644 4.56397 0
M  V30 1842 H 165.682 3.67054 3.16859 0
M  V30 1843 N 167.025 -1.13721 1.09112 0
M  V30 1844 C 168.441 -1.36914 0.820174 0
M  V30 1845 C 168.641 -1.93356 -0.567079 0
M  V30 1846 O 167.697 -2.15093 -1.32255 0
M  V30 1847 C 169.01 -2.3235 1.90877 0
M  V30 1848 C 170.558 -2.45973 1.93562 0
M  V30 1849 C 171.033 -3.44714 3.01556 0
M  V30 1850 N 172.524 -3.52263 3.00775 0
M  V30 1851 C 173.259 -4.28536 3.80978 0
M  V30 1852 N 172.755 -5.07991 4.71081 0
M  V30 1853 N 174.548 -4.23804 3.69251 0
M  V30 1854 H 166.699 -0.754348 1.98553 0
M  V30 1855 H 168.962 -0.3944 0.862063 0
M  V30 1856 H 168.668 -1.98027 2.90651 0
M  V30 1857 H 168.542 -3.32332 1.78424 0
M  V30 1858 H 170.929 -2.79584 0.944286 0
M  V30 1859 H 171.01 -1.45926 2.10093 0
M  V30 1860 H 170.654 -3.11835 4.00901 0
M  V30 1861 H 170.584 -4.44558 2.82269 0
M  V30 1862 H 173.075 -2.95567 2.35475 0
M  V30 1863 H 173.388 -5.63487 5.28869 0
M  V30 1864 H 171.733 -5.07235 4.75119 0
M  V30 1865 H 174.924 -3.60806 2.98222 0
M  V30 1866 H 175.097 -4.82995 4.31995 0
M  V30 1867 N 168.503 -0.877838 -1.30888 0
M  V30 1868 C 169.413 -0.343096 -2.32078 0
M  V30 1869 C 170.429 0.551022 -1.65045 0
M  V30 1870 O 171.605 0.445854 -1.96403 0
M  V30 1871 C 168.67 0.439905 -3.43898 0
M  V30 1872 C 167.731 -0.483111 -4.26573 0
M  V30 1873 C 166.964 0.262616 -5.33053 0
M  V30 1874 O 167.187 1.48967 -5.50604 0
M  V30 1875 O 166.121 -0.383593 -6.00676 0
M  V30 1876 H 169.947 -1.18203 -2.79753 0
M  V30 1877 H 167.532 -0.64145 -1.34929 0
M  V30 1878 H 169.414 0.883504 -4.12034 0
M  V30 1879 H 168.089 1.25526 -2.98371 0
M  V30 1880 H 166.996 -0.975374 -3.61161 0
M  V30 1881 H 168.329 -1.26427 -4.75686 0
M  V30 1882 N 169.982 1.44106 -0.638065 0
M  V30 1883 C 171.23 2.01579 -0.145043 0
M  V30 1884 C 171.551 1.50496 1.24 0
M  V30 1885 O 170.821 0.711374 1.82527 0
M  V30 1886 H 169.401 0.745282 -0.05063 0
M  V30 1887 H 172.063 1.76516 -0.826327 0
M  V30 1888 H 171.159 3.11877 -0.118039 0
M  V30 1889 N 171.46 0.379036 1.52974 0
M  V30 1890 C 172.685 -0.209353 2.06341 0
M  V30 1891 C 173.11 -1.40583 1.24972 0
M  V30 1892 O 172.468 -1.79246 0.272155 0
M  V30 1893 C 172.516 -0.567786 3.56102 0
M  V30 1894 O 171.62 -1.66318 3.77375 0
M  V30 1895 H 170.961 -0.0272919 0.663439 0
M  V30 1896 H 173.491 0.543536 1.97248 0
M  V30 1897 H 173.501 -0.835003 3.99364 0
M  V30 1898 H 172.176 0.307013 4.14765 0
M  V30 1899 H 170.753 -1.39048 3.46006 0
M  V30 1900 N 172.938 -1.57226 0.108567 0
M  V30 1901 C 173.871 -2.10447 -0.882464 0
M  V30 1902 C 174.849 -1.01829 -1.26766 0
M  V30 1903 O 176.033 -1.29415 -1.37054 0
M  V30 1904 C 173.16 -2.59258 -2.17952 0
M  V30 1905 C 172.206 -3.79662 -1.94318 0
M  V30 1906 S 173.039 -5.22586 -1.16892 0
M  V30 1907 C 174.195 -5.74758 -2.47799 0
M  V30 1908 H 174.428 -2.94178 -0.429745 0
M  V30 1909 H 171.961 -1.54043 -0.105 0
M  V30 1910 H 173.919 -2.88036 -2.92482 0
M  V30 1911 H 172.58 -1.75728 -2.60343 0
M  V30 1912 H 171.773 -4.11928 -2.90399 0
M  V30 1913 H 171.375 -3.51446 -1.27913 0
M  V30 1914 H 173.667 -5.83846 -3.43701 0
M  V30 1915 H 174.61 -6.73027 -2.20093 0
M  V30 1916 H 175.018 -5.02763 -2.56689 0
M  V30 1917 N 174.416 0.165178 -1.56732 0
M  V30 1918 C 175.663 0.880807 -1.8234 0
M  V30 1919 C 175.991 1.81977 -0.686621 0
M  V30 1920 O 175.246 1.92971 0.325697 0
M  V30 1921 C 175.545 1.70405 -3.1416 0
M  V30 1922 C 175.211 0.913475 -4.4155 0
M  V30 1923 C 173.873 0.695303 -4.7615 0
M  V30 1924 C 176.225 0.359349 -5.1996 0
M  V30 1925 C 173.553 -0.0879947 -5.86634 0
M  V30 1926 C 175.905 -0.410893 -6.31264 0
M  V30 1927 C 174.569 -0.639808 -6.64427 0
M  V30 1928 H 173.839 0.32231 -0.667231 0
M  V30 1929 H 176.486 0.145402 -1.90947 0
M  V30 1930 H 174.791 2.50903 -3.00923 0
M  V30 1931 H 176.488 2.26091 -3.31186 0
M  V30 1932 H 173.078 1.09357 -4.14414 0
M  V30 1933 H 177.262 0.515228 -4.93618 0
M  V30 1934 H 172.518 -0.27503 -6.10781 0
M  V30 1935 H 176.692 -0.847494 -6.91224 0
M  V30 1936 H 174.319 -1.24864 -7.49875 0
M  V30 1937 N 175.894 1.51508 0.433938 0
M  V30 1938 C 177.14 1.64588 1.18484 0
M  V30 1939 C 177.473 0.362666 1.90784 0
M  V30 1940 O 176.748 -0.637892 1.83742 0
M  V30 1941 C 177.031 2.85149 2.19913 0
M  V30 1942 C 176.884 4.23456 1.51674 0
M  V30 1943 C 178.203 3.01227 3.20858 0
M  V30 1944 H 175.322 0.598994 0.429389 0
M  V30 1945 H 177.964 1.84002 0.473647 0
M  V30 1946 H 176.114 2.68729 2.80566 0
M  V30 1947 H 177.786 4.51552 0.943322 0
M  V30 1948 H 176.029 4.25998 0.819035 0
M  V30 1949 H 176.7 5.03812 2.2556 0
M  V30 1950 H 179.176 3.16382 2.70263 0
M  V30 1951 H 178.052 3.87141 3.89118 0
M  V30 1952 H 178.313 2.13447 3.8716 0
M  V30 1953 N 177.372 -0.689602 1.41712 0
M  V30 1954 C 178.335 -1.78521 1.43746 0
M  V30 1955 C 179.335 -1.57436 0.327191 0
M  V30 1956 O 180.525 -1.64 0.587348 0
M  V30 1957 C 177.657 -3.16971 1.25467 0
M  V30 1958 H 178.85 -1.78108 2.41283 0
M  V30 1959 H 176.403 -0.89781 1.27942 0
M  V30 1960 H 177.138 -3.23019 0.287948 0
M  V30 1961 H 176.923 -3.33678 2.05917 0
M  V30 1962 H 178.413 -3.96935 1.2974 0
M  V30 1963 N 178.85 -1.27639 -0.924453 0
M  V30 1964 C 179.78 -1.13166 -2.04244 0
M  V30 1965 C 180.761 -0.032256 -1.70069 0
M  V30 1966 O 181.946 -0.207328 -1.9309 0
M  V30 1967 C 179.076 -0.781496 -3.38393 0
M  V30 1968 C 178.03 -1.83449 -3.86692 0
M  V30 1969 C 177.356 -1.33822 -5.17683 0
M  V30 1970 C 178.656 -3.23917 -4.09726 0
M  V30 1971 H 180.35 -2.06689 -2.1661 0
M  V30 1972 H 177.896 -0.995136 -1.04082 0
M  V30 1973 H 179.849 -0.667057 -4.16087 0
M  V30 1974 H 178.573 0.189439 -3.2605 0
M  V30 1975 H 177.232 -1.93789 -3.11193 0
M  V30 1976 H 176.88 -0.35665 -5.01734 0
M  V30 1977 H 176.58 -2.04224 -5.50968 0
M  V30 1978 H 178.104 -1.23679 -5.97943 0
M  V30 1979 H 179.518 -3.16559 -4.77978 0
M  V30 1980 H 177.915 -3.92059 -4.54324 0
M  V30 1981 H 178.985 -3.68729 -3.14908 0
M  V30 1982 N 180.328 1.1314 -1.09713 0
M  V30 1983 C 181.576 1.84119 -0.833338 0
M  V30 1984 C 181.897 1.84097 0.642904 0
M  V30 1985 O 181.167 1.29881 1.46655 0
M  V30 1986 H 179.747 0.681766 -0.305293 0
M  V30 1987 H 182.409 1.37038 -1.38588 0
M  V30 1988 H 181.505 2.88543 -1.18951 0
M  V30 1989 N 181.806 0.884767 1.30421 0
M  V30 1990 C 182.769 0.356277 2.26414 0
M  V30 1991 C 183.769 -0.501124 1.52792 0
M  V30 1992 O 184.959 -0.30831 1.7145 0
M  V30 1993 C 182.091 -0.492316 3.37326 0
M  V30 1994 H 183.284 1.20389 2.74675 0
M  V30 1995 H 180.837 0.661607 1.41607 0
M  V30 1996 H 181.572 -1.36052 2.94381 0
M  V30 1997 H 181.357 0.121832 3.91911 0
M  V30 1998 H 182.847 -0.853871 4.08777 0
M  V30 1999 N 183.284 -1.43765 0.645699 0
M  V30 2000 C 184.509 -2.06767 0.161883 0
M  V30 2001 C 184.934 -1.48034 -1.16049 0
M  V30 2002 O 184.292 -0.587369 -1.71522 0
M  V30 2003 C 184.34 -3.60519 0.0762003 0
M  V30 2004 O 183.444 -4.00982 -0.963721 0
M  V30 2005 H 182.785 -0.657675 0.091429 0
M  V30 2006 H 185.315 -1.84397 0.886499 0
M  V30 2007 H 185.325 -4.07853 -0.109604 0
M  V30 2008 H 184 -4.02646 1.04157 0
M  V30 2009 H 182.577 -3.65253 -0.751312 0
M  V30 2010 N 184.763 -0.387143 -1.52771 0
M  V30 2011 C 185.991 0.195869 -2.05971 0
M  V30 2012 C 186.406 1.40691 -1.25903 0
M  V30 2013 O 185.763 1.79931 -0.305134 0
M  V30 2014 C 185.814 0.56812 -3.57008 0
M  V30 2015 O 185.535 -0.594803 -4.34043 0
M  V30 2016 C 187.036 1.20723 -4.26545 0
M  V30 2017 H 184.256 0.0300578 -0.670326 0
M  V30 2018 H 186.8 -0.551749 -1.96916 0
M  V30 2019 H 184.955 1.26564 -3.66143 0
M  V30 2020 H 185.369 -0.289322 -5.23701 0
M  V30 2021 H 186.843 1.41807 -5.33474 0
M  V30 2022 H 187.32 2.17395 -3.81623 0
M  V30 2023 H 187.926 0.550535 -4.21722 0
M  V30 2024 N 186.241 1.57166 -0.116904 0
M  V30 2025 C 187.481 1.97008 0.544715 0
M  V30 2026 C 187.845 0.998713 1.63981 0
M  V30 2027 O 189.046 1.28644 2.36018 0
M  V30 2028 C 187.317 3.41145 1.06559 0
M  V30 2029 S 188.876 4.02998 1.73603 0
M  V30 2030 H 185.694 0.688587 0.177112 0
M  V30 2031 H 188.296 1.94459 -0.201487 0
M  V30 2032 H 187 4.09592 0.257374 0
M  V30 2033 H 186.531 3.4734 1.84712 0
M  V30 2034 H 188.546 3.93585 3.02168 0
M  V30 2035 N 187.719 -0.156864 1.56817 0
M  V30 2036 C 188.944 -0.890331 1.87318 0
M  V30 2037 C 189.369 -1.74394 0.704855 0
M  V30 2038 O 188.727 -1.77972 -0.345786 0
M  V30 2039 C 188.775 -1.73102 3.16336 0
M  V30 2040 O 187.879 -2.83422 2.99576 0
M  V30 2041 H 187.22 -0.24857 0.615718 0
M  V30 2042 H 189.75 -0.150649 2.04045 0
M  V30 2043 H 189.76 -2.12803 3.48107 0
M  V30 2044 H 188.435 -1.10412 4.00976 0
M  V30 2045 H 187.012 -2.47199 2.7919 0
M  V30 2046 N 189.197 -1.51736 -0.425897 0
M  V30 2047 C 190.127 -1.76827 -1.52494 0
M  V30 2048 C 191.108 -0.618524 -1.58456 0
M  V30 2049 O 192.293 -0.862416 -1.74 0
M  V30 2050 C 189.423 -1.90374 -2.90474 0
M  V30 2051 C 188.377 -3.0588 -2.99369 0
M  V30 2052 C 187.703 -3.04625 -4.3944 0
M  V30 2053 C 189.003 -4.45644 -2.72394 0
M  V30 2054 H 190.697 -2.68855 -1.31748 0
M  V30 2055 H 188.243 -1.29372 -0.632362 0
M  V30 2056 H 190.196 -2.0651 -3.6733 0
M  V30 2057 H 188.92 -0.95004 -3.12477 0
M  V30 2058 H 187.579 -2.89467 -2.24954 0
M  V30 2059 H 187.227 -2.0701 -4.58428 0
M  V30 2060 H 186.927 -3.82195 -4.46319 0
M  V30 2061 H 188.451 -3.22869 -5.18255 0
M  V30 2062 H 189.865 -4.62348 -3.38979 0
M  V30 2063 H 188.262 -5.25006 -2.9067 0
M  V30 2064 H 189.332 -4.54893 -1.67929 0
M  V30 2065 N 190.675 0.682077 -1.42076 0
M  V30 2066 C 191.605 1.80796 -1.47767 0
M  V30 2067 C 192.586 1.6677 -0.334954 0
M  V30 2068 O 193.771 1.863 -0.548264 0
M  V30 2069 C 190.901 3.19038 -1.37229 0
M  V30 2070 C 189.855 3.47789 -2.49453 0
M  V30 2071 C 189.181 4.8553 -2.23975 0
M  V30 2072 C 190.481 3.45411 -3.91776 0
M  V30 2073 H 192.175 1.7629 -2.41997 0
M  V30 2074 H 189.721 0.846721 -1.16476 0
M  V30 2075 H 191.674 3.97528 -1.39821 0
M  V30 2076 H 190.398 3.24204 -0.394907 0
M  V30 2077 H 189.057 2.71657 -2.46166 0
M  V30 2078 H 188.705 4.87337 -1.24547 0
M  V30 2079 H 188.405 5.0573 -2.99184 0
M  V30 2080 H 189.929 5.66312 -2.28304 0
M  V30 2081 H 191.343 4.13882 -3.96705 0
M  V30 2082 H 189.74 3.77145 -4.66778 0
M  V30 2083 H 190.81 2.44122 -4.18966 0
M  V30 2084 N 192.153 1.28127 0.917671 0
M  V30 2085 C 193.116 1.11744 2.00115 0
M  V30 2086 C 194.116 0.0583052 1.60694 0
M  V30 2087 O 195.306 0.303755 1.71531 0
M  V30 2088 C 192.438 0.704862 3.33533 0
M  V30 2089 H 193.631 2.07966 2.16079 0
M  V30 2090 H 191.184 1.11058 1.09981 0
M  V30 2091 H 191.919 -0.258299 3.2327 0
M  V30 2092 H 191.704 1.4699 3.63505 0
M  V30 2093 H 193.194 0.612768 4.1308 0
M  V30 2094 N 193.631 -1.12557 1.10312 0
M  V30 2095 C 194.88 -1.83395 0.839588 0
M  V30 2096 C 195.193 -1.84939 -0.636929 0
M  V30 2097 O 196.399 -2.51761 -1.01631 0
M  V30 2098 C 194.855 -3.29303 1.45215 0
M  V30 2099 C 194.463 -3.36122 2.96186 0
M  V30 2100 C 196.207 -4.05121 1.26796 0
M  V30 2101 C 194.114 -4.76357 3.50483 0
M  V30 2102 H 193.044 -0.687133 0.310425 0
M  V30 2103 H 195.695 -1.26746 1.32694 0
M  V30 2104 H 194.077 -3.85812 0.892469 0
M  V30 2105 H 195.251 -2.89559 3.58458 0
M  V30 2106 H 193.566 -2.73776 3.13745 0
M  V30 2107 H 196.163 -5.08668 1.64806 0
M  V30 2108 H 196.506 -4.15773 0.209409 0
M  V30 2109 H 197.039 -3.54967 1.79563 0
M  V30 2110 H 193.778 -4.70899 4.55998 0
M  V30 2111 H 193.298 -5.23377 2.92978 0
M  V30 2112 H 194.977 -5.45294 3.48228 0
M  V30 2113 N 195.109 -0.891671 -1.2995 0
M  V30 2114 C 196.072 -0.36828 -2.26222 0
M  V30 2115 C 197.072 0.493014 -1.53056 0
M  V30 2116 O 198.262 0.299213 -1.71611 0
M  V30 2117 C 195.394 0.47442 -3.37583 0
M  V30 2118 H 196.587 -1.21844 -2.74033 0
M  V30 2119 H 194.14 -0.669107 -1.41254 0
M  V30 2120 H 194.875 1.34489 -2.95099 0
M  V30 2121 H 194.66 -0.142615 -3.91841 0
M  V30 2122 H 196.15 0.83218 -4.09224 0
M  V30 2123 N 196.587 1.43421 -0.653314 0
M  V30 2124 C 197.836 2.01032 -0.164076 0
M  V30 2125 C 198.149 1.52147 1.22926 0
M  V30 2126 O 199.355 2.02031 1.81371 0
M  V30 2127 C 197.811 3.59082 -0.24252 0
M  V30 2128 C 197.419 4.1696 -1.63855 0
M  V30 2129 C 199.163 4.24079 0.18911 0
M  V30 2130 C 197.07 5.67304 -1.67092 0
M  V30 2131 H 196 0.751798 -0.0575769 0
M  V30 2132 H 198.651 1.6439 -0.815362 0
M  V30 2133 H 197.033 3.93125 0.476276 0
M  V30 2134 H 198.207 3.94416 -2.38271 0
M  V30 2135 H 196.522 3.64335 -2.01616 0
M  V30 2136 H 199.119 5.34381 0.184775 0
M  V30 2137 H 199.462 3.98005 1.22056 0
M  V30 2138 H 199.995 3.94918 -0.477938 0
M  V30 2139 H 196.734 5.98145 -2.68146 0
M  V30 2140 H 196.254 5.91904 -0.970014 0
M  V30 2141 H 197.933 6.31344 -1.4147 0
M  V30 2142 N 198.065 0.39524 1.52563 0
M  V30 2143 C 198.975 -0.444232 2.30356 0
M  V30 2144 C 199.991 -1.06615 1.37511 0
M  V30 2145 O 201.167 -1.07067 1.70583 0
M  V30 2146 C 198.232 -1.55315 3.09964 0
M  V30 2147 C 197.293 -0.955734 4.18526 0
M  V30 2148 C 196.526 -2.01181 4.9433 0
M  V30 2149 O 196.749 -3.22781 4.70285 0
M  V30 2150 O 195.683 -1.62579 5.79527 0
M  V30 2151 H 199.509 0.189667 3.03107 0
M  V30 2152 H 197.094 0.1588 1.48554 0
M  V30 2153 H 198.976 -2.19724 3.59582 0
M  V30 2154 H 197.651 -2.17191 2.4002 0
M  V30 2155 H 196.558 -0.274743 3.7309 0
M  V30 2156 H 197.891 -0.381109 4.90722 0
M  V30 2157 N 199.544 -1.57102 0.125237 0
M  V30 2158 C 200.96 -1.57915 -0.231322 0
M  V30 2159 C 201.16 -1.13833 -1.66266 0
M  V30 2160 O 200.216 -0.828581 -2.38518 0
M  V30 2161 C 201.529 -3.00699 0.00766489 0
M  V30 2162 C 203.077 -3.12947 -0.0577483 0
M  V30 2163 C 203.552 -4.57742 0.153626 0
M  V30 2164 N 205.043 -4.63092 0.0998073 0
M  V30 2165 C 205.778 -5.72905 0.238174 0
M  V30 2166 N 205.274 -6.91445 0.433057 0
M  V30 2167 N 207.067 -5.6182 0.177308 0
M  V30 2168 H 199.218 -1.84055 1.06007 0
M  V30 2169 H 201.481 -0.850905 0.417929 0
M  V30 2170 H 201.187 -3.3726 0.997431 0
M  V30 2171 H 201.061 -3.70236 -0.721452 0
M  V30 2172 H 203.448 -2.7624 -1.03804 0
M  V30 2173 H 203.529 -2.4594 0.70335 0
M  V30 2174 H 203.173 -4.95149 1.13092 0
M  V30 2175 H 203.103 -5.22848 -0.627534 0
M  V30 2176 H 205.594 -3.77871 -0.047051 0
M  V30 2177 H 205.907 -7.70985 0.529332 0
M  V30 2178 H 204.252 -6.93415 0.469109 0
M  V30 2179 H 207.443 -4.68093 0.0259748 0
M  V30 2180 H 207.616 -6.47357 0.288582 0
M  V30 2181 N 201.022 0.148545 -1.56898 0
M  V30 2182 C 201.972 1.1886 -1.94567 0
M  V30 2183 C 202.956 1.3863 -0.816735 0
M  V30 2184 O 204.148 1.40218 -1.08018 0
M  V30 2185 C 201.277 2.52262 -2.32849 0
M  V30 2186 C 200.363 2.36092 -3.52309 0
M  V30 2187 N 200.754 1.89674 -4.6889 0
M  V30 2188 C 199.052 2.66848 -3.57363 0
M  V30 2189 C 199.753 1.86511 -5.50989 0
M  V30 2190 N 198.729 2.29766 -4.92655 0
M  V30 2191 H 202.531 0.821793 -2.82177 0
M  V30 2192 H 200.045 0.356615 -1.58436 0
M  V30 2193 H 202.042 3.27447 -2.58039 0
M  V30 2194 H 200.702 2.89727 -1.46589 0
M  V30 2195 H 201.713 1.59663 -4.92674 0
M  V30 2196 H 198.39 3.08198 -2.81639 0
M  V30 2197 H 199.78 1.52128 -6.54452 0
M  V30 2198 N 202.5 1.5196 0.417844 0
M  V30 2199 C 203.43 1.77634 1.51554 0
M  V30 2200 C 204.411 0.626918 1.58126 0
M  V30 2201 O 205.596 0.871632 1.7354 0
M  V30 2202 C 202.726 1.91911 2.8946 0
M  V30 2203 C 201.68 3.07463 2.97743 0
M  V30 2204 C 201.006 3.06951 4.37819 0
M  V30 2205 C 202.306 4.47082 2.70027 0
M  V30 2206 H 204 2.6955 1.3032 0
M  V30 2207 H 201.546 1.29706 0.625492 0
M  V30 2208 H 203.499 2.08455 3.6623 0
M  V30 2209 H 202.223 0.966598 3.11969 0
M  V30 2210 H 200.882 2.90656 2.23416 0
M  V30 2211 H 200.53 2.09438 4.57323 0
M  V30 2212 H 200.23 3.84556 4.44286 0
M  V30 2213 H 201.754 3.25613 5.16535 0
M  V30 2214 H 203.168 4.6414 3.36522 0
M  V30 2215 H 201.565 5.2654 2.87881 0
M  V30 2216 H 202.635 4.55777 1.65514 0
M  V30 2217 N 203.978 -0.674533 1.42435 0
M  V30 2218 C 205.206 -1.46283 1.46317 0
M  V30 2219 C 205.621 -1.88653 0.0745836 0
M  V30 2220 O 204.978 -1.58151 -0.91074 0
M  V30 2221 C 205.029 -2.71178 2.3905 0
M  V30 2222 O 204.75 -2.30586 3.72507 0
M  V30 2223 C 206.251 -3.64738 2.51955 0
M  V30 2224 H 203.471 -0.450104 0.497642 0
M  V30 2225 H 206.015 -0.828792 1.86953 0
M  V30 2226 H 204.17 -3.3077 2.01667 0
M  V30 2227 H 204.584 -3.11241 4.22172 0
M  V30 2228 H 206.058 -4.49096 3.20962 0
M  V30 2229 H 206.535 -4.10656 1.55752 0
M  V30 2230 H 207.141 -3.11038 2.90061 0
M  V30 2231 N 205.456 -1.28612 -0.910864 0
M  V30 2232 C 206.389 -1.07109 -2.01502 0
M  V30 2233 C 207.367 0.013706 -1.62594 0
M  V30 2234 O 208.551 -0.134796 -1.88017 0
M  V30 2235 C 205.678 -0.628255 -3.32822 0
M  V30 2236 C 204.724 -1.71012 -3.90714 0
M  V30 2237 S 205.557 -3.30676 -4.21205 0
M  V30 2238 C 206.713 -2.88234 -5.55583 0
M  V30 2239 H 206.946 -2.00591 -2.19432 0
M  V30 2240 H 204.479 -1.12633 -1.05609 0
M  V30 2241 H 206.437 -0.37946 -4.08742 0
M  V30 2242 H 205.098 0.28678 -3.12788 0
M  V30 2243 H 204.291 -1.35195 -4.85529 0
M  V30 2244 H 203.893 -1.91186 -3.21441 0
M  V30 2245 H 206.185 -2.34584 -6.35591 0
M  V30 2246 H 207.128 -3.81857 -5.96314 0
M  V30 2247 H 207.536 -2.26862 -5.16908 0
M  V30 2248 N 206.934 1.1197 -1.10907 0
M  V30 2249 C 208.183 1.82947 -0.849302 0
M  V30 2250 C 208.496 1.85275 0.627112 0
M  V30 2251 O 209.702 2.52296 1.00295 0
M  V30 2252 C 208.158 3.28529 -1.46959 0
M  V30 2253 C 207.766 3.34546 -2.97965 0
M  V30 2254 C 209.51 4.04443 -1.28942 0
M  V30 2255 C 207.417 4.74491 -3.53004 0
M  V30 2256 H 206.347 0.685477 -0.314065 0
M  V30 2257 H 208.998 1.2604 -1.33365 0
M  V30 2258 H 207.38 3.85333 -0.912917 0
M  V30 2259 H 208.554 2.87654 -3.59989 0
M  V30 2260 H 206.869 2.72108 -3.15192 0
M  V30 2261 H 209.466 5.07787 -1.67502 0
M  V30 2262 H 209.809 4.15656 -0.231456 0
M  V30 2263 H 210.342 3.5401 -1.81443 0
M  V30 2264 H 207.081 4.68474 -4.58489 0
M  V30 2265 H 206.601 5.21816 -2.9575 0
M  V30 2266 H 208.28 5.4344 -3.51115 0
M  V30 2267 N 208.412 0.89855 1.29475 0
M  V30 2268 C 209.359 0.373819 2.27753 0
M  V30 2269 C 210.329 -0.543444 1.56958 0
M  V30 2270 O 211.514 -0.468934 1.84948 0
M  V30 2271 C 208.654 -0.393648 3.42848 0
M  V30 2272 C 207.767 0.554379 4.28428 0
M  V30 2273 C 206.902 -0.230026 5.30702 0
M  V30 2274 C 205.941 0.712599 6.07938 0
M  V30 2275 N 205.078 -0.0373283 7.0209 0
M  V30 2276 H 209.918 1.21699 2.72017 0
M  V30 2277 H 207.455 0.611456 1.33789 0
M  V30 2278 H 209.413 -0.85466 4.08352 0
M  V30 2279 H 208.043 -1.20128 2.99615 0
M  V30 2280 H 207.095 1.13391 3.63107 0
M  V30 2281 H 208.407 1.27597 4.82204 0
M  V30 2282 H 207.561 -0.752288 6.02018 0
M  V30 2283 H 206.3 -0.984758 4.77654 0
M  V30 2284 H 205.305 1.24637 5.35486 0
M  V30 2285 H 206.53 1.46664 6.63074 0
M  V30 2286 H 204.476 -0.774348 6.51414 0
M  V30 2287 H 204.393 0.624374 7.53417 0
M  V30 2288 H 205.661 -0.539891 7.77628 0
M  V30 2289 N 209.89 -1.43072 0.660911 0
M  V30 2290 C 210.823 -2.28074 -0.0758862 0
M  V30 2291 C 211.801 -1.40271 -0.822362 0
M  V30 2292 O 212.985 -1.69713 -0.820352 0
M  V30 2293 C 210.112 -3.19843 -1.11437 0
M  V30 2294 C 209.158 -4.23957 -0.465069 0
M  V30 2295 S 209.991 -5.29978 0.767078 0
M  V30 2296 C 211.147 -6.25314 -0.270682 0
M  V30 2297 H 211.38 -2.90216 0.645139 0
M  V30 2298 H 208.913 -1.47697 0.449995 0
M  V30 2299 H 210.871 -3.73257 -1.70849 0
M  V30 2300 H 209.532 -2.56863 -1.80776 0
M  V30 2301 H 208.725 -4.88299 -1.24819 0
M  V30 2302 H 208.327 -3.73959 0.0551242 0
M  V30 2303 H 210.619 -6.67932 -1.13459 0
M  V30 2304 H 211.562 -7.07293 0.337916 0
M  V30 2305 H 211.97 -5.61195 -0.609937 0
M  V30 2306 N 211.368 -0.403325 -1.52352 0
M  V30 2307 C 212.784 -0.0539281 -1.59509 0
M  V30 2308 C 212.984 1.43307 -1.41652 0
M  V30 2309 O 212.04 2.19924 -1.24056 0
M  V30 2310 C 213.353 -0.543654 -2.95745 0
M  V30 2311 C 214.901 -0.501125 -3.08962 0
M  V30 2312 C 215.376 -0.967267 -4.47669 0
M  V30 2313 N 216.867 -0.923849 -4.53893 0
M  V30 2314 C 217.602 -1.25578 -5.5948 0
M  V30 2315 N 217.098 -1.65889 -6.72646 0
M  V30 2316 N 218.891 -1.17613 -5.49658 0
M  V30 2317 H 211.042 -1.37123 -1.62206 0
M  V30 2318 H 213.305 -0.56294 -0.76276 0
M  V30 2319 H 213.011 -1.58275 -3.14073 0
M  V30 2320 H 212.885 0.0498042 -3.77167 0
M  V30 2321 H 215.272 0.528909 -2.90321 0
M  V30 2322 H 215.353 -1.13056 -2.2946 0
M  V30 2323 H 214.997 -1.9956 -4.67053 0
M  V30 2324 H 214.927 -0.314698 -5.25659 0
M  V30 2325 H 217.418 -0.627403 -3.72655 0
M  V30 2326 H 217.731 -1.89543 -7.49195 0
M  V30 2327 H 216.076 -1.69787 -6.73942 0
M  V30 2328 H 219.267 -0.860115 -4.6013 0
M  V30 2329 H 219.44 -1.43812 -6.3184 0
M  V30 2330 N 212.846 1.57033 -0.133567 0
M  V30 2331 C 214.257 1.82593 0.389464 0
M  V30 2332 C 214.608 1.05156 1.6564 0
M  V30 2333 O 213.733 0.292644 2.14412 0
M  V30 2334 C 214.328 3.31204 0.713377 0
M  V30 2335 C 212.887 3.57393 1.18098 0
M  V30 2336 C 212.034 2.76598 0.197126 0
M  V30 2337 H 214.985 1.54598 -0.358481 0
M  V30 2338 H 215.006 3.46627 1.56939 0
M  V30 2339 H 214.518 3.87537 -0.2089 0
M  V30 2340 H 212.619 3.06433 2.11966 0
M  V30 2341 H 212.732 4.65915 1.11624 0
M  V30 2342 H 211.096 2.45257 0.687088 0
M  V30 2343 H 211.879 3.35697 -0.718504 0
M  V30 2344 N 214.325 -0.140222 1.56975 0
M  V30 2345 C 215.555 -0.865181 1.87612 0
M  V30 2346 C 215.963 -1.74942 0.72055 0
M  V30 2347 O 215.306 -1.80917 -0.318561 0
M  V30 2348 C 215.368 -1.76782 3.13031 0
M  V30 2349 C 215.032 -1.06005 4.44536 0
M  V30 2350 C 216.029 -0.410768 5.18275 0
M  V30 2351 C 213.714 -1.04754 4.91255 0
M  V30 2352 C 215.708 0.241572 6.36942 0
M  V30 2353 C 213.395 -0.391394 6.09845 0
M  V30 2354 C 214.393 0.252029 6.82535 0
M  V30 2355 O 214.081 0.897757 7.98871 0
M  V30 2356 H 213.813 -0.255188 0.625983 0
M  V30 2357 H 216.367 -0.135653 2.04952 0
M  V30 2358 H 214.597 -2.53846 2.91718 0
M  V30 2359 H 216.286 -2.36533 3.29859 0
M  V30 2360 H 217.052 -0.412195 4.83245 0
M  V30 2361 H 212.931 -1.53777 4.34596 0
M  V30 2362 H 216.475 0.744375 6.93617 0
M  V30 2363 H 212.372 -0.387656 6.44335 0
M  V30 2364 H 213.14 0.800102 8.1458 0
M  V30 2365 N 215.803 -1.52179 -0.40978 0
M  V30 2366 C 217.08 -1.56769 -1.16974 0
M  V30 2367 C 217.46 -0.348322 -2.08206 0
M  V30 2368 O 216.808 0.664862 -2.18613 0
M  V30 2369 C 217.018 -2.89603 -1.9476 0
M  V30 2370 C 218.366 -3.42579 -2.50849 0
M  V30 2371 O 219.39 -2.91338 -2.04941 0
M  V30 2372 O 218.249 -4.32054 -3.34652 0
M  V30 2373 H 215.343 -0.631439 -0.534054 0
M  V30 2374 H 217.889 -1.64507 -0.416613 0
M  V30 2375 H 216.661 -3.698 -1.27921 0
M  V30 2376 H 216.284 -2.85155 -2.77079 0
M  V30 2377 N 217.281 0.66697 -1.42791 0
M  V30 2378 C 218.244 1.76211 -1.46568 0
M  V30 2379 C 219.244 1.56896 -0.352196 0
M  V30 2380 O 220.434 1.63044 -0.613364 0
M  V30 2381 C 217.566 3.14935 -1.30494 0
M  V30 2382 H 218.759 1.74247 -2.44086 0
M  V30 2383 H 216.312 0.877342 -1.29354 0
M  V30 2384 H 217.047 3.2252 -0.339301 0
M  V30 2385 H 216.832 3.30359 -2.11199 0
M  V30 2386 H 218.322 3.94821 -1.36038 0
M  V30 2387 N 218.759 1.29093 0.90403 0
M  V30 2388 C 219.707 1.13727 2.02901 0
M  V30 2389 C 220.701 0.0539853 1.69314 0
M  V30 2390 O 221.907 0.213469 1.7873 0
M  V30 2391 H 218.282 0.35117 0.664969 0
M  V30 2392 H 220.253 2.08982 2.13001 0
M  V30 2393 C 219.002 0.826066 3.37745 0
M  V30 2394 H 218.325 1.65164 3.64089 0
M  V30 2395 H 219.765 0.758559 4.17159 0
M  V30 2396 C 218.224 -0.470541 3.33598 0
M  V30 2397 O 218.754 -1.49792 3.72727 0
M  V30 2398 N 216.96 -0.474812 2.86695 0
M  V30 2399 H 216.507 0.361692 2.55048 0
M  V30 2400 H 216.465 -1.34236 2.84303 0
M  V30 2401 N 220.237 -1.11381 1.11499 0
M  V30 2402 C 221.184 -2.17439 0.773887 0
M  V30 2403 C 222.154 -1.64132 -0.254899 0
M  V30 2404 O 223.339 -1.90345 -0.13168 0
M  V30 2405 C 220.479 -3.44373 0.223917 0
M  V30 2406 C 219.592 -4.1168 1.30934 0
M  V30 2407 C 218.727 -5.263 0.71984 0
M  V30 2408 C 217.766 -5.85493 1.78507 0
M  V30 2409 N 216.903 -6.91507 1.21502 0
M  V30 2410 H 221.743 -2.45962 1.68246 0
M  V30 2411 H 219.28 -1.20744 0.840191 0
M  V30 2412 H 221.238 -4.17047 -0.112921 0
M  V30 2413 H 219.868 -3.16232 -0.647851 0
M  V30 2414 H 218.92 -3.37073 1.76312 0
M  V30 2415 H 220.232 -4.51729 2.11524 0
M  V30 2416 H 219.386 -6.05785 0.333094 0
M  V30 2417 H 218.125 -4.87559 -0.117377 0
M  V30 2418 H 217.13 -5.04686 2.18111 0
M  V30 2419 H 218.355 -6.26301 2.62533 0
M  V30 2420 H 216.301 -6.54783 0.399455 0
M  V30 2421 H 216.218 -7.30214 1.95763 0
M  V30 2422 H 217.486 -7.74795 0.855181 0
M  V30 2423 N 221.715 -0.905404 -1.28997 0
M  V30 2424 C 223.131 -0.60233 -1.47798 0
M  V30 2425 C 223.331 0.854645 -1.82478 0
M  V30 2426 O 222.387 1.63439 -1.92468 0
M  V30 2427 C 223.7 -1.53306 -2.58685 0
M  V30 2428 C 225.248 -1.53887 -2.72558 0
M  V30 2429 C 225.723 -2.45602 -3.86579 0
M  V30 2430 N 227.214 -2.43681 -3.93921 0
M  V30 2431 C 227.949 -3.11347 -4.81509 0
M  V30 2432 N 227.445 -3.88313 -5.73746 0
M  V30 2433 N 229.238 -3.00476 -4.75048 0
M  V30 2434 H 221.389 -1.84765 -1.04764 0
M  V30 2435 H 223.652 -0.792025 -0.520961 0
M  V30 2436 H 223.358 -2.57141 -2.39941 0
M  V30 2437 H 223.232 -1.25787 -3.55609 0
M  V30 2438 H 225.619 -0.507941 -2.90696 0
M  V30 2439 H 225.7 -1.85447 -1.76191 0
M  V30 2440 H 225.344 -3.48792 -3.69197 0
M  V30 2441 H 225.274 -2.11349 -4.82327 0
M  V30 2442 H 227.765 -1.87767 -3.27951 0
M  V30 2443 H 228.078 -4.36985 -6.37389 0
M  V30 2444 H 226.423 -3.92419 -5.73614 0
M  V30 2445 H 229.614 -2.39858 -4.01977 0
M  V30 2446 H 229.787 -3.53485 -5.43095 0
M  V30 2447 N 223.193 1.4272 -0.668489 0
M  V30 2448 C 224.143 2.27971 0.0363806 0
M  V30 2449 C 225.127 1.40741 0.779794 0
M  V30 2450 O 226.319 1.64245 0.659745 0
M  V30 2451 C 223.448 3.28673 0.991398 0
M  V30 2452 C 222.534 4.23388 0.245658 0
M  V30 2453 N 222.925 5.00267 -0.746069 0
M  V30 2454 C 221.223 4.43355 0.484988 0
M  V30 2455 C 221.924 5.69396 -1.19009 0
M  V30 2456 N 220.9 5.41095 -0.521287 0
M  V30 2457 H 224.702 2.84833 -0.724394 0
M  V30 2458 H 222.216 1.54607 -0.497028 0
M  V30 2459 H 224.213 3.88543 1.51129 0
M  V30 2460 H 222.873 2.73373 1.75207 0
M  V30 2461 H 223.884 5.05525 -1.12537 0
M  V30 2462 H 220.561 3.99104 1.22565 0
M  V30 2463 H 221.951 6.41083 -2.01153 0
M  V30 2464 N 224.671 0.411399 1.52136 0
M  V30 2465 C 226.087 0.0623865 1.59478 0
M  V30 2466 C 226.287 -1.42554 1.4241 0
M  V30 2467 O 225.343 -2.19263 1.2522 0
M  V30 2468 C 226.656 0.559331 2.95452 0
M  V30 2469 C 228.204 0.517503 3.08692 0
M  V30 2470 C 228.679 0.990994 4.4715 0
M  V30 2471 N 230.17 0.947908 4.53397 0
M  V30 2472 C 230.905 1.28544 5.58806 0
M  V30 2473 N 230.401 1.69454 6.71757 0
M  V30 2474 N 232.194 1.20526 5.49026 0
M  V30 2475 H 224.345 1.37982 1.61477 0
M  V30 2476 H 226.608 0.566977 0.759764 0
M  V30 2477 H 226.314 1.59938 3.1323 0
M  V30 2478 H 226.188 -0.0298014 3.77188 0
M  V30 2479 H 228.575 -0.513505 2.90598 0
M  V30 2480 H 228.656 1.14272 2.28857 0
M  V30 2481 H 228.3 2.02034 4.65988 0
M  V30 2482 H 228.23 0.34257 5.25485 0
M  V30 2483 H 230.721 0.647157 3.72317 0
M  V30 2484 H 231.034 1.93513 7.48179 0
M  V30 2485 H 229.379 1.73359 6.73032 0
M  V30 2486 H 232.57 0.884505 4.59667 0
M  V30 2487 H 232.743 1.47161 6.31069 0
M  V30 2488 N 226.149 -1.5696 0.141893 0
M  V30 2489 C 227.395 -1.9625 -0.511248 0
M  V30 2490 C 227.728 -1.02654 -1.64851 0
M  V30 2491 O 227.003 -0.0679676 -1.94381 0
M  V30 2492 C 227.286 -3.45285 -1.02227 0
M  V30 2493 C 227.139 -4.49658 0.113138 0
M  V30 2494 C 228.458 -3.96698 -1.90574 0
M  V30 2495 H 225.577 -0.713567 -0.184367 0
M  V30 2496 H 228.219 -1.88698 0.222087 0
M  V30 2497 H 226.369 -3.51852 -1.64719 0
M  V30 2498 H 228.041 -4.55174 0.749302 0
M  V30 2499 H 226.284 -4.26857 0.773026 0
M  V30 2500 H 226.955 -5.51258 -0.286053 0
M  V30 2501 H 229.431 -3.92578 -1.37918 0
M  V30 2502 H 228.307 -5.01453 -2.2324 0
M  V30 2503 H 228.568 -3.3875 -2.84079 0
M  V30 2504 N 227.627 0.131896 -1.57047 0
M  V30 2505 C 228.874 0.841932 -1.84168 0
M  V30 2506 C 229.202 1.8048 -0.725066 0
M  V30 2507 O 228.457 1.93618 0.284692 0
M  V30 2508 C 228.756 1.63703 -3.17704 0
M  V30 2509 C 228.422 0.81961 -4.43388 0
M  V30 2510 C 227.084 0.594148 -4.77518 0
M  V30 2511 C 229.436 0.248977 -5.20605 0
M  V30 2512 C 226.764 -0.212409 -5.86315 0
M  V30 2513 C 229.116 -0.544701 -6.30251 0
M  V30 2514 C 227.78 -0.780599 -6.6292 0
M  V30 2515 H 227.05 0.308085 -0.673917 0
M  V30 2516 H 229.697 0.104867 -1.91213 0
M  V30 2517 H 228.002 2.44464 -3.06177 0
M  V30 2518 H 229.699 2.19015 -3.35907 0
M  V30 2519 H 226.289 1.00542 -4.16641 0
M  V30 2520 H 230.473 0.410408 -4.946 0
M  V30 2521 H 225.729 -0.404524 -6.1006 0
M  V30 2522 H 229.903 -0.993922 -6.89271 0
M  V30 2523 H 227.53 -1.40742 -7.47058 0
M  V30 2524 N 229.106 1.52395 0.401703 0
M  V30 2525 C 230.036 1.79231 1.49661 0
M  V30 2526 C 231.017 0.643654 1.57452 0
M  V30 2527 O 232.202 0.889989 1.72606 0
M  V30 2528 C 229.332 1.94971 2.87409 0
M  V30 2529 C 228.286 3.10604 2.94465 0
M  V30 2530 C 227.612 3.11577 4.34538 0
M  V30 2531 C 228.912 4.49921 2.6527 0
M  V30 2532 H 230.606 2.70917 1.27454 0
M  V30 2533 H 228.152 1.30362 0.6117 0
M  V30 2534 H 230.105 2.12328 3.63999 0
M  V30 2535 H 228.829 0.999632 3.10926 0
M  V30 2536 H 227.488 2.93009 2.20321 0
M  V30 2537 H 227.136 2.14277 4.55076 0
M  V30 2538 H 226.836 3.89247 4.40183 0
M  V30 2539 H 228.36 3.31073 5.13053 0
M  V30 2540 H 229.774 4.67683 3.31581 0
M  V30 2541 H 228.171 5.29564 2.82281 0
M  V30 2542 H 229.241 4.57507 1.60671 0
M  V30 2543 N 230.584 -0.659388 1.43143 0
M  V30 2544 C 231.514 -1.78422 1.50625 0
M  V30 2545 C 232.495 -1.66216 0.361443 0
M  V30 2546 O 233.68 -1.85404 0.577834 0
M  V30 2547 C 230.81 -3.16815 1.42287 0
M  V30 2548 C 229.764 -3.43777 2.54954 0
M  V30 2549 C 229.09 -4.81905 2.31671 0
M  V30 2550 C 230.39 -3.39134 3.97222 0
M  V30 2551 H 232.084 -1.72417 2.44771 0
M  V30 2552 H 229.63 -0.828084 1.17808 0
M  V30 2553 H 231.583 -3.95253 1.46127 0
M  V30 2554 H 230.307 -3.23534 0.446435 0
M  V30 2555 H 228.966 -2.67707 2.50457 0
M  V30 2556 H 228.614 -4.85294 1.32284 0
M  V30 2557 H 228.314 -5.00906 3.07192 0
M  V30 2558 H 229.838 -5.62609 2.37284 0
M  V30 2559 H 231.252 -4.07518 4.03239 0
M  V30 2560 H 229.649 -3.69671 4.72719 0
M  V30 2561 H 230.719 -2.37426 4.22797 0
M  V30 2562 N 232.062 -1.29571 -0.897171 0
M  V30 2563 C 233.311 -1.1706 -1.64256 0
M  V30 2564 C 233.624 0.276476 -1.93636 0
M  V30 2565 O 234.83 0.52294 -2.66416 0
M  V30 2566 C 233.286 -2.0475 -2.95982 0
M  V30 2567 C 232.894 -3.54295 -2.74187 0
M  V30 2568 C 234.638 -2.0097 -3.73914 0
M  V30 2569 C 232.545 -4.34081 -4.01656 0
M  V30 2570 H 231.475 -0.43452 -0.616205 0
M  V30 2571 H 234.126 -1.54229 -0.994268 0
M  V30 2572 H 232.508 -1.60452 -3.62038 0
M  V30 2573 H 233.682 -4.06662 -2.1671 0
M  V30 2574 H 231.997 -3.59773 -2.09648 0
M  V30 2575 H 234.594 -2.57838 -4.68427 0
M  V30 2576 H 234.937 -0.990273 -4.0435 0
M  V30 2577 H 235.47 -2.43325 -3.14703 0
M  V30 2578 H 232.209 -5.36671 -3.76384 0
M  V30 2579 H 231.729 -3.86483 -4.58684 0
M  V30 2580 H 233.408 -4.44877 -4.69781 0
M  V30 2581 N 233.54 1.10788 -1.12088 0
M  V30 2582 C 234.788 1.8231 -0.872205 0
M  V30 2583 C 235.109 1.85419 0.603709 0
M  V30 2584 O 234.379 1.32963 1.43867 0
M  V30 2585 H 232.959 0.675137 -0.319686 0
M  V30 2586 H 235.621 1.34068 -1.41463 0
M  V30 2587 H 234.717 2.85955 -1.25045 0
M  V30 2588 N 235.018 0.912232 1.28515 0
M  V30 2589 C 235.951 0.343928 2.25593 0
M  V30 2590 C 236.929 -0.550994 1.5298 0
M  V30 2591 O 238.113 -0.494991 1.81885 0
M  V30 2592 C 235.24 -0.508525 3.34861 0
M  V30 2593 C 234.286 0.320808 4.25292 0
M  V30 2594 S 235.119 1.72658 5.06902 0
M  V30 2595 C 236.275 0.881394 6.19663 0
M  V30 2596 H 236.508 1.16674 2.73449 0
M  V30 2597 H 234.041 0.713384 1.36931 0
M  V30 2598 H 235.999 -0.994539 3.9827 0
M  V30 2599 H 234.66 -1.30571 2.85675 0
M  V30 2600 H 233.853 -0.330941 5.02912 0
M  V30 2601 H 233.455 0.74042 3.66598 0
M  V30 2602 H 235.747 0.110359 6.7741 0
M  V30 2603 H 236.69 1.63009 6.89082 0
M  V30 2604 H 237.098 0.430239 5.62858 0
M  V30 2605 N 236.496 -1.42363 0.676048 0
M  V30 2606 C 237.736 -2.03392 0.20273 0
M  V30 2607 C 238.1 -1.52306 -1.16906 0
M  V30 2608 O 239.301 -2.05129 -1.73711 0
M  V30 2609 C 237.572 -3.56614 0.236947 0
M  V30 2610 S 239.131 -4.38489 -0.165186 0
M  V30 2611 H 235.949 -0.70611 0.0832418 0
M  V30 2612 H 238.551 -1.74093 0.88948 0
M  V30 2613 H 237.255 -3.91293 1.23767 0
M  V30 2614 H 236.786 -3.90587 -0.469596 0
M  V30 2615 H 238.801 -4.76093 -1.39822 0
M  V30 2616 N 237.974 -0.419461 -1.51915 0
M  V30 2617 C 239.22 0.145505 -2.02879 0
M  V30 2618 C 239.575 1.41926 -1.29903 0
M  V30 2619 O 238.868 1.87383 -0.399782 0
M  V30 2620 C 239.062 0.437067 -3.54717 0
M  V30 2621 C 238.891 -0.806877 -4.42402 0
M  V30 2622 C 237.661 -1.33514 -4.87342 0
M  V30 2623 C 239.859 -1.68796 -4.85811 0
M  V30 2624 N 237.841 -2.53349 -5.59185 0
M  V30 2625 C 239.212 -2.73247 -5.56539 0
M  V30 2626 C 241.267 -1.70449 -4.67816 0
M  V30 2627 C 239.97 -3.79276 -6.11181 0
M  V30 2628 C 241.996 -2.75403 -5.23361 0
M  V30 2629 C 241.358 -3.78575 -5.9402 0
M  V30 2630 H 237.457 0.0145424 -0.781865 0
M  V30 2631 H 240.041 -0.576126 -1.85981 0
M  V30 2632 H 238.212 1.12774 -3.71667 0
M  V30 2633 H 239.944 0.99182 -3.92358 0
M  V30 2634 H 236.699 -0.891657 -4.65131 0
M  V30 2635 H 237.123 -3.14066 -5.99743 0
M  V30 2636 H 241.765 -0.920209 -4.12664 0
M  V30 2637 H 239.483 -4.58554 -6.65397 0
M  V30 2638 H 243.069 -2.77603 -5.113 0
M  V30 2639 H 241.949 -4.58453 -6.36231 0
M  V30 2640 N 239.452 1.56882 -0.150215 0
M  V30 2641 C 240.382 2.19935 0.784284 0
M  V30 2642 C 241.363 1.14854 1.25469 0
M  V30 2643 O 242.548 1.43209 1.31168 0
M  V30 2644 C 239.678 2.82349 2.02229 0
M  V30 2645 C 238.632 3.93285 1.68853 0
M  V30 2646 C 237.958 4.42649 2.99944 0
M  V30 2647 C 239.258 5.13904 0.932714 0
M  V30 2648 H 240.952 2.9828 0.258781 0
M  V30 2649 H 238.498 1.43473 0.123029 0
M  V30 2650 H 240.451 3.25126 2.68088 0
M  V30 2651 H 239.175 2.0134 2.57157 0
M  V30 2652 H 237.834 3.5113 1.05371 0
M  V30 2653 H 237.482 3.58458 3.52869 0
M  V30 2654 H 237.182 5.17476 2.78374 0
M  V30 2655 H 238.706 4.88099 3.66868 0
M  V30 2656 H 240.12 5.53506 1.49345 0
M  V30 2657 H 238.517 5.94515 0.81684 0
M  V30 2658 H 239.587 4.84842 -0.0749568 0
M  V30 2659 N 240.93 -0.123565 1.57115 0
M  V30 2660 C 242.179 -0.830704 1.83799 0
M  V30 2661 C 242.492 -1.81259 0.735158 0
M  V30 2662 O 243.698 -2.56558 0.888278 0
M  V30 2663 C 242.154 -1.52802 3.25852 0
M  V30 2664 C 241.762 -0.587356 4.44133 0
M  V30 2665 C 243.506 -2.22056 3.61789 0
M  V30 2666 C 241.413 -1.28764 5.77212 0
M  V30 2667 H 240.343 -0.313967 0.685522 0
M  V30 2668 H 242.994 -0.0834359 1.8331 0
M  V30 2669 H 241.376 -2.32175 3.20797 0
M  V30 2670 H 242.55 0.172829 4.60476 0
M  V30 2671 H 240.865 -0.00201892 4.164 0
M  V30 2672 H 243.462 -2.75131 4.58483 0
M  V30 2673 H 243.805 -2.99644 2.88997 0
M  V30 2674 H 244.338 -1.49576 3.68608 0
M  V30 2675 H 241.077 -0.55314 6.53162 0
M  V30 2676 H 240.597 -2.01995 5.64764 0
M  V30 2677 H 242.276 -1.8221 6.20813 0
M  V30 2678 N 242.408 -1.52605 -0.393616 0
M  V30 2679 C 243.371 -1.76415 -1.46323 0
M  V30 2680 C 244.371 -0.634126 -1.47768 0
M  V30 2681 O 245.561 -0.902142 -1.4902 0
M  V30 2682 C 242.693 -1.8607 -2.85641 0
M  V30 2683 H 243.886 -2.71916 -1.26498 0
M  V30 2684 H 241.439 -1.43257 -0.625073 0
M  V30 2685 H 242.174 -0.925378 -3.10817 0
M  V30 2686 H 241.959 -2.68235 -2.85993 0
M  V30 2687 H 243.449 -2.06179 -3.63153 0
M  V30 2688 N 243.887 0.651787 -1.4349 0
M  V30 2689 C 245.134 1.41167 -1.45183 0
M  V30 2690 C 245.462 1.94349 -0.0766601 0
M  V30 2691 O 244.717 1.72804 0.918555 0
M  V30 2692 C 245.016 2.60914 -2.44251 0
M  V30 2693 C 244.682 2.26142 -3.9009 0
M  V30 2694 C 243.344 2.16371 -4.2981 0
M  V30 2695 C 245.696 1.98334 -4.81989 0
M  V30 2696 C 243.024 1.7695 -5.5938 0
M  V30 2697 C 245.376 1.6041 -6.11924 0
M  V30 2698 C 244.04 1.49166 -6.5062 0
M  V30 2699 H 243.31 0.516566 -0.531263 0
M  V30 2700 H 245.957 0.741099 -1.76579 0
M  V30 2701 H 244.262 3.3311 -2.06265 0
M  V30 2702 H 245.959 3.19127 -2.42815 0
M  V30 2703 H 242.549 2.34658 -3.58655 0
M  V30 2704 H 246.733 2.04803 -4.52072 0
M  V30 2705 H 241.989 1.66831 -5.88198 0
M  V30 2706 H 246.163 1.37925 -6.82605 0
M  V30 2707 H 243.79 1.1839 -7.50925 0
M  V30 2708 N 245.365 1.30045 0.890287 0
M  V30 2709 C 246.593 1.21472 1.67487 0
M  V30 2710 C 247.008 -0.223241 1.87476 0
M  V30 2711 O 246.365 -1.14828 1.41847 0
M  V30 2712 C 246.416 1.93394 3.05419 0
M  V30 2713 O 246.137 3.31576 2.86337 0
M  V30 2714 C 247.638 1.91414 3.99844 0
M  V30 2715 H 244.858 0.420604 0.522813 0
M  V30 2716 H 247.402 1.7158 1.11268 0
M  V30 2717 H 245.557 1.47099 3.58386 0
M  V30 2718 H 245.971 3.67929 3.73802 0
M  V30 2719 H 247.445 2.46285 4.94012 0
M  V30 2720 H 247.922 0.891833 4.3005 0
M  V30 2721 H 248.528 2.37496 3.52811 0
M  V30 2722 N 246.843 -1.10192 1.12674 0
M  V30 2723 C 247.773 -2.18652 0.819362 0
M  V30 2724 C 248.754 -1.68698 -0.217915 0
M  V30 2725 O 249.939 -1.94041 -0.0785581 0
M  V30 2726 C 247.069 -3.46202 0.27594 0
M  V30 2727 C 246.023 -4.09444 1.24656 0
M  V30 2728 C 245.349 -5.31725 0.563258 0
M  V30 2729 C 246.649 -4.52863 2.60217 0
M  V30 2730 H 248.343 -2.44622 1.72628 0
M  V30 2731 H 245.889 -1.17571 0.831451 0
M  V30 2732 H 247.842 -4.21372 0.0486149 0
M  V30 2733 H 246.566 -3.1973 -0.666331 0
M  V30 2734 H 245.225 -3.36284 1.45974 0
M  V30 2735 H 244.873 -5.0153 -0.384235 0
M  V30 2736 H 244.573 -5.74991 1.21075 0
M  V30 2737 H 246.097 -6.09624 0.34503 0
M  V30 2738 H 247.511 -5.19294 2.42913 0
M  V30 2739 H 245.908 -5.06986 3.21068 0
M  V30 2740 H 246.978 -3.65656 3.18471 0
M  V30 2741 N 248.321 -0.919034 -1.28029 0
M  V30 2742 C 249.569 -0.553838 -1.94363 0
M  V30 2743 C 249.89 0.906357 -1.72656 0
M  V30 2744 O 249.16 1.64143 -1.0693 0
M  V30 2745 H 247.74 -0.201834 -0.719216 0
M  V30 2746 H 250.402 -1.16954 -1.55909 0
M  V30 2747 H 249.498 -0.752758 -3.02886 0
M  V30 2748 N 249.799 1.42003 -0.683588 0
M  V30 2749 C 250.762 2.29191 -0.0198243 0
M  V30 2750 C 251.762 1.43773 0.72013 0
M  V30 2751 O 252.952 1.65061 0.556815 0
M  V30 2752 C 250.084 3.26435 0.982487 0
M  V30 2753 H 251.277 2.8938 -0.787345 0
M  V30 2754 H 248.83 1.49789 -0.446418 0
M  V30 2755 H 249.565 2.71203 1.77819 0
M  V30 2756 H 249.35 3.89449 0.455182 0
M  V30 2757 H 250.84 3.918 1.44508 0
M  V30 2758 N 251.277 0.427512 1.51691 0
M  V30 2759 C 252.207 -0.3796 2.30394 0
M  V30 2760 C 253.188 -1.02982 1.35384 0
M  V30 2761 O 254.373 -1.03534 1.643 0
M  V30 2762 C 251.503 -1.48649 3.1388 0
M  V30 2763 C 250.457 -0.960294 4.17088 0
M  V30 2764 C 249.783 -2.16219 4.89033 0
M  V30 2765 C 251.083 -0.00153679 5.223 0
M  V30 2766 H 252.777 0.277164 2.98114 0
M  V30 2767 H 250.323 0.134739 1.43368 0
M  V30 2768 H 252.276 -2.05826 3.67714 0
M  V30 2769 H 251 -2.1714 2.43962 0
M  V30 2770 H 249.659 -0.410806 3.64291 0
M  V30 2771 H 249.307 -2.83307 4.15628 0
M  V30 2772 H 249.007 -1.81654 5.58816 0
M  V30 2773 H 250.531 -2.73968 5.45687 0
M  V30 2774 H 251.945 -0.482687 5.71264 0
M  V30 2775 H 250.342 0.256199 5.99553 0
M  V30 2776 H 251.412 0.938174 4.75738 0
M  V30 2777 N 252.755 -1.56801 0.158532 0
M  V30 2778 C 254.166 -1.83189 -0.360366 0
M  V30 2779 C 254.517 -1.07778 -1.63946 0
M  V30 2780 O 253.642 -0.326718 -2.13919 0
M  V30 2781 C 254.237 -3.32297 -0.660595 0
M  V30 2782 C 252.796 -3.59227 -1.12398 0
M  V30 2783 C 251.943 -2.76877 -0.153097 0
M  V30 2784 H 254.894 -1.54008 0.383031 0
M  V30 2785 H 254.915 -3.4908 -1.51405 0
M  V30 2786 H 254.427 -3.87156 0.270527 0
M  V30 2787 H 252.528 -3.09766 -2.07064 0
M  V30 2788 H 252.641 -4.67632 -1.04197 0
M  V30 2789 H 251.005 -2.46319 -0.647983 0
M  V30 2790 H 251.788 -3.34511 0.77182 0
M  V30 2791 N 254.233 0.115231 -1.57178 0
M  V30 2792 C 255.482 0.820945 -1.84237 0
M  V30 2793 C 255.795 1.80866 -0.744761 0
M  V30 2794 O 257.001 2.56083 -0.901871 0
M  V30 2795 C 255.457 1.51072 -3.26658 0
M  V30 2796 C 255.065 0.563795 -4.44438 0
M  V30 2797 C 256.809 2.20134 -3.62962 0
M  V30 2798 C 254.716 1.25701 -5.77887 0
M  V30 2799 H 253.646 0.310328 -0.687177 0
M  V30 2800 H 256.297 0.0737134 -1.83352 0
M  V30 2801 H 254.679 2.30471 -3.22024 0
M  V30 2802 H 255.853 -0.197247 -4.60378 0
M  V30 2803 H 254.168 -0.0200638 -4.16395 0
M  V30 2804 H 256.765 2.72696 -4.59936 0
M  V30 2805 H 257.108 2.98107 -2.90582 0
M  V30 2806 H 257.641 1.47619 -3.69396 0
M  V30 2807 H 254.38 0.518493 -6.53446 0
M  V30 2808 H 253.9 1.98997 -5.65827 0
M  V30 2809 H 255.579 1.78915 -6.2177 0
M  V30 2810 N 255.711 1.52812 0.385517 0
M  V30 2811 C 256.641 1.80808 1.47752 0
M  V30 2812 C 257.622 0.660318 1.5676 0
M  V30 2813 O 258.807 0.908246 1.71652 0
M  V30 2814 C 255.937 1.98008 2.85324 0
M  V30 2815 C 254.891 3.13709 2.91154 0
M  V30 2816 C 254.217 3.16169 4.31209 0
M  V30 2817 C 255.517 4.52709 2.60483 0
M  V30 2818 H 257.211 2.72253 1.24573 0
M  V30 2819 H 254.757 1.31003 0.597839 0
M  V30 2820 H 256.71 2.16176 3.61726 0
M  V30 2821 H 255.434 1.03255 3.09848 0
M  V30 2822 H 254.093 2.95329 2.17201 0
M  V30 2823 H 253.741 2.19092 4.52778 0
M  V30 2824 H 253.441 3.93894 4.36029 0
M  V30 2825 H 254.965 3.36496 5.09512 0
M  V30 2826 H 256.379 4.71173 3.26602 0
M  V30 2827 H 254.776 5.32528 2.76648 0
M  V30 2828 H 255.846 4.59186 1.55809 0
M  V30 2829 N 257.189 -0.644168 1.43834 0
M  V30 2830 C 258.437 -1.40117 1.45642 0
M  V30 2831 C 258.758 -1.94814 0.0852413 0
M  V30 2832 O 258.028 -1.74988 -0.880688 0
M  V30 2833 H 256.608 -0.52005 0.536243 0
M  V30 2834 H 259.27 -0.7591 1.7951 0
M  V30 2835 H 258.366 -2.23902 2.17427 0
M  V30 2836 N 258.668 -1.30515 -0.883378 0
M  V30 2837 C 259.914 -1.20617 -1.63778 0
M  V30 2838 C 260.269 0.236469 -1.90941 0
M  V30 2839 O 259.562 1.16596 -1.52039 0
M  V30 2840 C 259.756 -1.96994 -2.98209 0
M  V30 2841 C 259.585 -3.48537 -2.84169 0
M  V30 2842 C 258.355 -4.17893 -2.84067 0
M  V30 2843 C 260.553 -4.43738 -2.60001 0
M  V30 2844 N 258.535 -5.55685 -2.60936 0
M  V30 2845 C 259.906 -5.69105 -2.46007 0
M  V30 2846 C 261.961 -4.33316 -2.45239 0
M  V30 2847 C 260.664 -6.8523 -2.18752 0
M  V30 2848 C 262.69 -5.4921 -2.19369 0
M  V30 2849 C 262.052 -6.73558 -2.06153 0
M  V30 2850 H 258.151 -0.496434 -0.604216 0
M  V30 2851 H 260.735 -1.64544 -1.04083 0
M  V30 2852 H 258.906 -1.55455 -3.55933 0
M  V30 2853 H 260.638 -1.79225 -3.62851 0
M  V30 2854 H 257.393 -3.69739 -2.95956 0
M  V30 2855 H 257.817 -6.28199 -2.52378 0
M  V30 2856 H 262.459 -3.37856 -2.54191 0
M  V30 2857 H 260.177 -7.80729 -2.08537 0
M  V30 2858 H 263.763 -5.43054 -2.08766 0
M  V30 2859 H 262.643 -7.61721 -1.86416 0
M  V30 2860 N 260.146 1.09593 -1.13257 0
M  V30 2861 C 261.094 2.18271 -0.803783 0
M  V30 2862 C 262.088 1.68054 0.213148 0
M  V30 2863 O 263.294 1.79862 0.0704699 0
M  V30 2864 H 259.669 0.711949 -0.242143 0
M  V30 2865 H 261.64 2.43235 -1.72856 0
M  V30 2866 C 260.389 3.46536 -0.28424 0
M  V30 2867 H 259.712 3.85545 -1.05807 0
M  V30 2868 H 261.152 4.23899 -0.0925945 0
M  V30 2869 C 259.611 3.22036 0.989684 0
M  V30 2870 O 260.141 3.44509 2.06584 0
M  V30 2871 N 258.347 2.7565 0.920086 0
M  V30 2872 H 257.894 2.57562 0.0442019 0
M  V30 2873 H 257.852 2.59635 1.77306 0
M  V30 2874 N 261.624 0.925811 1.2754 0
M  V30 2875 C 262.864 0.572521 1.96218 0
M  V30 2876 C 263.228 -0.869719 1.71172 0
M  V30 2877 O 264.429 -1.33119 2.33523 0
M  V30 2878 C 262.7 0.887325 3.4621 0
M  V30 2879 S 264.259 0.642266 4.34074 0
M  V30 2880 H 261.077 0.211403 0.678845 0
M  V30 2881 H 263.679 1.19384 1.54815 0
M  V30 2882 H 262.383 1.93469 3.61936 0
M  V30 2883 H 261.914 0.255123 3.92572 0
M  V30 2884 H 263.929 -0.500822 4.93666 0
M  V30 2885 N 263.102 -1.41638 0.69111 0
M  V30 2886 C 264.032 -2.3347 0.037248 0
M  V30 2887 C 265.013 -1.51575 -0.771947 0
M  V30 2888 O 266.198 -1.80126 -0.72582 0
M  V30 2889 C 263.328 -3.35354 -0.903064 0
M  V30 2890 C 262.282 -4.27526 -0.201288 0
M  V30 2891 C 261.608 -5.19747 -1.25565 0
M  V30 2892 C 262.908 -5.13959 0.929689 0
M  V30 2893 H 264.602 -2.88397 0.804227 0
M  V30 2894 H 262.148 -1.38669 0.388189 0
M  V30 2895 H 264.101 -3.98519 -1.36969 0
M  V30 2896 H 262.825 -2.78767 -1.70166 0
M  V30 2897 H 261.484 -3.65779 0.245265 0
M  V30 2898 H 261.132 -4.59479 -2.04666 0
M  V30 2899 H 260.832 -5.8225 -0.791128 0
M  V30 2900 H 262.356 -5.85789 -1.72288 0
M  V30 2901 H 263.77 -5.70718 0.543546 0
M  V30 2902 H 262.167 -5.85379 1.32103 0
M  V30 2903 H 263.237 -4.51389 1.77133 0
M  V30 2904 N 264.58 -0.43555 -1.51462 0
M  V30 2905 C 265.53 0.394701 -2.24558 0
M  V30 2906 C 266.514 0.99157 -1.26715 0
M  V30 2907 O 267.706 0.910007 -1.51815 0
M  V30 2908 C 264.835 1.4963 -3.08975 0
M  V30 2909 C 263.921 0.908912 -4.14246 0
M  V30 2910 N 264.312 0.0505335 -5.05775 0
M  V30 2911 C 262.61 1.17668 -4.30198 0
M  V30 2912 C 263.311 -0.279161 -5.8103 0
M  V30 2913 N 262.287 0.336767 -5.42556 0
M  V30 2914 H 266.089 -0.267106 -2.92684 0
M  V30 2915 H 263.603 -0.247518 -1.60503 0
M  V30 2916 H 265.6 2.10394 -3.59917 0
M  V30 2917 H 264.26 2.16046 -2.42393 0
M  V30 2918 H 265.271 -0.31577 -5.16936 0
M  V30 2919 H 261.948 1.83847 -3.74842 0
M  V30 2920 H 263.338 -0.977553 -6.64751 0
M  V30 2921 N 266.058 1.56714 -0.166846 0
M  V30 2922 C 267.006 2.19056 0.782123 0
M  V30 2923 C 268 1.15328 1.24079 0
M  V30 2924 O 269.206 1.33537 1.20697 0
M  V30 2925 H 265.581 0.70167 0.270486 0
M  V30 2926 H 267.552 2.97494 0.232322 0
M  V30 2927 C 266.301 2.84206 2.00306 0
M  V30 2928 H 265.624 3.63748 1.65914 0
M  V30 2929 H 267.064 3.31302 2.64604 0
M  V30 2930 C 265.523 1.83744 2.82382 0
M  V30 2931 O 266.053 1.32014 3.79388 0
M  V30 2932 N 264.259 1.52601 2.47308 0
M  V30 2933 H 263.806 1.9486 1.68485 0
M  V30 2934 H 263.764 0.856351 3.02513 0
M  V30 2935 N 267.536 -0.106894 1.57237 0
M  V30 2936 C 268.466 -1.13148 2.04254 0
M  V30 2937 C 269.447 -1.42476 0.929224 0
M  V30 2938 O 270.632 -1.52709 1.19973 0
M  V30 2939 C 267.762 -2.4545 2.45706 0
M  V30 2940 C 266.716 -2.30558 3.60592 0
M  V30 2941 C 266.042 -3.67931 3.87983 0
M  V30 2942 C 267.342 -1.75597 4.91897 0
M  V30 2943 H 269.036 -0.740374 2.90101 0
M  V30 2944 H 266.582 -0.354696 1.39563 0
M  V30 2945 H 268.535 -3.17389 2.77205 0
M  V30 2946 H 267.259 -2.86475 1.56843 0
M  V30 2947 H 265.918 -1.61067 3.29322 0
M  V30 2948 H 265.566 -4.06462 2.96306 0
M  V30 2949 H 265.266 -3.58817 4.65322 0
M  V30 2950 H 266.79 -4.41356 4.21945 0
M  V30 2951 H 268.204 -2.37364 5.21854 0
M  V30 2952 H 266.601 -1.77272 5.73319 0
M  V30 2953 H 267.671 -0.714451 4.79608 0
M  V30 2954 N 269.014 -1.53014 -0.377408 0
M  V30 2955 C 270.425 -1.60438 -0.954798 0
M  V30 2956 C 270.776 -0.464418 -1.90624 0
M  V30 2957 O 269.901 0.41087 -2.12464 0
M  V30 2958 C 270.496 -2.90797 -1.73847 0
M  V30 2959 C 269.055 -3.00595 -2.26538 0
M  V30 2960 C 268.202 -2.55645 -1.07429 0
M  V30 2961 H 271.153 -1.57926 -0.156575 0
M  V30 2962 H 271.174 -2.77935 -2.5987 0
M  V30 2963 H 270.686 -3.73746 -1.04574 0
M  V30 2964 H 268.787 -2.22208 -2.99089 0
M  V30 2965 H 268.9 -4.05456 -2.5523 0
M  V30 2966 H 267.264 -2.10239 -1.43777 0
M  V30 2967 H 268.047 -3.41 -0.396728 0
M  V30 2968 N 270.492 0.636531 -1.44174 0
M  V30 2969 C 271.769 1.39463 -1.37148 0
M  V30 2970 C 272.149 2.11082 -0.027507 0
M  V30 2971 O 271.497 2.05954 0.989716 0
M  V30 2972 C 271.707 2.36552 -2.56601 0
M  V30 2973 C 273.055 3.00048 -3.00427 0
M  V30 2974 O 274.079 2.46878 -2.56767 0
M  V30 2975 O 272.938 3.96488 -3.76111 0
M  V30 2976 H 270.032 0.623903 -0.542839 0
M  V30 2977 H 272.578 0.662039 -1.56253 0
M  V30 2978 H 271.35 1.82692 -3.46034 0
M  V30 2979 H 270.973 3.17236 -2.39681 0
M  V30 2980 N 271.97 1.30982 0.876444 0
M  V30 2981 C 273.21 1.21589 1.64303 0
M  V30 2982 C 273.574 -0.223962 1.90689 0
M  V30 2983 O 274.775 -0.44128 2.65153 0
M  V30 2984 C 273.046 2.03007 2.94148 0
M  V30 2985 S 274.605 2.10405 3.85065 0
M  V30 2986 H 271.423 0.433161 0.563819 0
M  V30 2987 H 274.025 1.65565 1.03964 0
M  V30 2988 H 272.729 3.06719 2.72675 0
M  V30 2989 H 272.26 1.59725 3.59515 0
M  V30 2990 H 274.275 1.23765 4.80517 0
M  V30 2991 N 273.449 -1.08991 1.13837 0
M  V30 2992 C 274.674 -1.85551 0.926585 0
M  V30 2993 C 275.099 -1.80782 -0.519566 0
M  V30 2994 O 274.457 -1.18855 -1.36906 0
M  V30 2995 C 274.505 -3.31266 1.42462 0
M  V30 2996 O 273.609 -4.07822 0.612789 0
M  V30 2997 H 272.95 -0.575192 0.331738 0
M  V30 2998 H 275.48 -1.37604 1.51414 0
M  V30 2999 H 275.49 -3.82112 1.43019 0
M  V30 3000 H 274.165 -3.34052 2.47754 0
M  V30 3001 H 272.742 -3.66731 0.675463 0
M  V30 3002 N 274.927 -0.932562 -1.27047 0
M  V30 3003 C 276.155 -0.592031 -1.98249 0
M  V30 3004 C 276.57 0.831062 -1.69525 0
M  V30 3005 O 275.927 1.55299 -0.958561 0
M  V30 3006 C 275.978 -0.814279 -3.5221 0
M  V30 3007 O 275.699 -2.18139 -3.7993 0
M  V30 3008 C 277.2 -0.483121 -4.4066 0
M  V30 3009 H 274.42 -0.223896 -0.632544 0
M  V30 3010 H 276.964 -1.25091 -1.61779 0
M  V30 3011 H 275.119 -0.20213 -3.86872 0
M  V30 3012 H 275.533 -2.235 -4.74498 0
M  V30 3013 H 277.007 -0.689298 -5.47679 0
M  V30 3014 H 277.484 0.581546 -4.35333 0
M  V30 3015 H 278.09 -1.07362 -4.11526 0
M  V30 3016 N 276.405 1.4127 -0.698611 0
M  V30 3017 C 277.654 2.00408 -0.227949 0
M  V30 3018 C 277.967 1.55981 1.18023 0
M  V30 3019 O 279.173 2.07699 1.74852 0
M  V30 3020 C 277.629 3.58129 -0.356636 0
M  V30 3021 C 277.237 4.11536 -1.77037 0
M  V30 3022 C 278.981 4.24466 0.0540969 0
M  V30 3023 C 276.888 5.61701 -1.85055 0
M  V30 3024 H 275.818 0.749586 -0.0814657 0
M  V30 3025 H 278.469 1.61713 -0.867249 0
M  V30 3026 H 276.851 3.94442 0.350965 0
M  V30 3027 H 278.025 3.86636 -2.50698 0
M  V30 3028 H 276.34 3.57736 -2.13105 0
M  V30 3029 H 278.937 5.34698 0.0146723 0
M  V30 3030 H 279.28 4.01687 1.09332 0
M  V30 3031 H 279.813 3.93198 -0.603337 0
M  V30 3032 H 276.552 5.89312 -2.8704 0
M  V30 3033 H 276.072 5.88519 -1.15783 0
M  V30 3034 H 277.751 6.26524 -1.61484 0
M  V30 3035 N 277.883 0.443576 1.51229 0
M  V30 3036 C 278.813 -0.355142 2.30783 0
M  V30 3037 C 279.794 -1.0154 1.36468 0
M  V30 3038 O 280.979 -1.01785 1.65389 0
M  V30 3039 C 278.109 -1.45312 3.15439 0
M  V30 3040 C 277.063 -0.916002 4.18083 0
M  V30 3041 C 276.389 -2.1102 4.91299 0
M  V30 3042 C 277.689 0.0538602 5.22272 0
M  V30 3043 H 279.383 0.308767 2.97804 0
M  V30 3044 H 276.929 0.149937 1.43217 0
M  V30 3045 H 278.882 -2.01914 3.69876 0
M  V30 3046 H 277.606 -2.14541 2.46252 0
M  V30 3047 H 276.265 -0.372145 3.64706 0
M  V30 3048 H 275.913 -2.78882 4.18609 0
M  V30 3049 H 275.613 -1.75717 5.60712 0
M  V30 3050 H 277.137 -2.68164 5.48562 0
M  V30 3051 H 278.551 -0.422069 5.71744 0
M  V30 3052 H 276.948 0.319776 5.99247 0
M  V30 3053 H 278.018 0.98858 4.74716 0
M  V30 3054 N 279.361 -1.56624 0.175154 0
M  V30 3055 C 280.772 -1.83561 -0.340916 0
M  V30 3056 C 281.123 -1.09511 -1.62794 0
M  V30 3057 O 280.248 -0.349389 -2.13561 0
M  V30 3058 C 280.843 -3.32979 -0.625313 0
M  V30 3059 C 279.402 -3.60399 -1.08581 0
M  V30 3060 C 278.549 -2.77024 -0.123722 0
M  V30 3061 H 281.5 -1.53593 0.399344 0
M  V30 3062 H 281.521 -3.50666 -1.47694 0
M  V30 3063 H 281.033 -3.86847 0.311575 0
M  V30 3064 H 279.134 -3.11945 -2.03767 0
M  V30 3065 H 279.247 -4.68711 -0.992317 0
M  V30 3066 H 277.611 -2.46993 -0.621821 0
M  V30 3067 H 278.394 -3.33674 0.807256 0
M  V30 3068 N 280.839 0.0985539 -1.57292 0
M  V30 3069 C 281.769 1.12064 -2.04851 0
M  V30 3070 C 282.75 1.41981 -0.936767 0
M  V30 3071 O 283.935 1.52071 -1.20781 0
M  V30 3072 C 281.065 2.44144 -2.47004 0
M  V30 3073 C 280.019 2.28643 -3.6181 0
M  V30 3074 C 279.345 3.65869 -3.89929 0
M  V30 3075 C 280.645 1.72986 -4.92822 0
M  V30 3076 H 282.339 0.724979 -2.9049 0
M  V30 3077 H 279.885 0.34729 -1.39749 0
M  V30 3078 H 281.838 3.15914 -2.78884 0
M  V30 3079 H 280.562 2.85639 -1.5836 0
M  V30 3080 H 279.221 1.59318 -3.30172 0
M  V30 3081 H 278.869 4.04885 -2.98458 0
M  V30 3082 H 278.569 3.56344 -4.67218 0
M  V30 3083 H 280.093 4.39112 -4.2428 0
M  V30 3084 H 281.507 2.34593 -5.23105 0
M  V30 3085 H 279.904 1.74229 -5.74251 0
M  V30 3086 H 280.974 0.689007 -4.7998 0
M  V30 3087 N 282.317 1.53212 0.369288 0
M  V30 3088 C 283.547 1.72868 1.13139 0
M  V30 3089 C 283.955 0.455754 1.83629 0
M  V30 3090 O 283.298 -0.580861 1.74275 0
M  V30 3091 C 283.36 2.83667 2.20847 0
M  V30 3092 C 283.024 4.24142 1.70155 0
M  V30 3093 C 284.021 5.06619 1.16763 0
M  V30 3094 C 281.706 4.70539 1.7578 0
M  V30 3095 C 283.7 6.33581 0.696678 0
M  V30 3096 C 281.387 5.97481 1.28297 0
M  V30 3097 C 282.385 6.78833 0.753307 0
M  V30 3098 O 282.073 8.03393 0.285475 0
M  V30 3099 H 281.805 0.581707 0.344373 0
M  V30 3100 H 284.359 2.00736 0.435243 0
M  V30 3101 H 282.589 2.51265 2.93944 0
M  V30 3102 H 284.278 2.91536 2.82421 0
M  V30 3103 H 285.044 4.71948 1.11758 0
M  V30 3104 H 280.923 4.07293 2.15949 0
M  V30 3105 H 284.467 6.97027 0.282581 0
M  V30 3106 H 280.364 6.31651 1.32994 0
M  V30 3107 H 281.132 8.17497 0.405145 0
M  V30 3108 N 283.795 -0.628877 1.44509 0
M  V30 3109 C 285.02 -1.42048 1.5112 0
M  V30 3110 C 285.445 -1.87594 0.137818 0
M  V30 3111 O 284.803 -1.58873 -0.873437 0
M  V30 3112 C 284.851 -2.61541 2.48251 0
M  V30 3113 O 283.955 -3.61453 1.98559 0
M  V30 3114 H 283.296 -0.424942 0.510216 0
M  V30 3115 H 285.826 -0.767374 1.89664 0
M  V30 3116 H 285.836 -3.09057 2.66361 0
M  V30 3117 H 284.511 -2.27736 3.48007 0
M  V30 3118 H 283.088 -3.20731 1.90227 0
M  V30 3119 N 285.273 -1.31445 -0.869486 0
M  V30 3120 C 286.22 -1.19135 -1.97675 0
M  V30 3121 C 287.19 -0.0770266 -1.65921 0
M  V30 3122 O 288.375 -0.249972 -1.89155 0
M  V30 3123 C 285.515 -0.905149 -3.33018 0
M  V30 3124 C 284.628 -2.10285 -3.77365 0
M  V30 3125 C 283.763 -1.75339 -5.01427 0
M  V30 3126 C 282.802 -2.91515 -5.38224 0
M  V30 3127 N 281.939 -2.56762 -6.53466 0
M  V30 3128 H 286.779 -2.13853 -2.07535 0
M  V30 3129 H 284.316 -1.06379 -1.01597 0
M  V30 3130 H 286.274 -0.719765 -4.10944 0
M  V30 3131 H 284.904 0.00519624 -3.228 0
M  V30 3132 H 283.956 -2.39899 -2.95216 0
M  V30 3133 H 285.268 -2.97237 -4.00564 0
M  V30 3134 H 284.422 -1.53266 -5.87022 0
M  V30 3135 H 283.161 -0.855801 -4.80133 0
M  V30 3136 H 282.166 -3.14237 -4.51149 0
M  V30 3137 H 283.391 -3.81985 -5.61484 0
M  V30 3138 H 281.337 -1.69526 -6.33717 0
M  V30 3139 H 281.254 -3.37243 -6.76612 0
M  V30 3140 H 282.522 -2.38083 -7.42251 0
M  V30 3141 N 286.751 1.08385 -1.14413 0
M  V30 3142 C 287.698 2.15311 -0.831265 0
M  V30 3143 C 288.668 1.64751 0.211292 0
M  V30 3144 O 289.853 1.90627 0.0811674 0
M  V30 3145 C 286.993 3.43658 -0.315143 0
M  V30 3146 C 286.106 4.08064 -1.41802 0
M  V30 3147 C 285.241 5.24207 -0.859126 0
M  V30 3148 C 284.28 5.80554 -1.93967 0
M  V30 3149 N 283.417 6.88042 -1.39793 0
M  V30 3150 H 288.257 2.41415 -1.74708 0
M  V30 3151 H 285.794 1.18474 -0.871909 0
M  V30 3152 H 287.752 4.172 0.00230884 0
M  V30 3153 H 286.382 3.17839 0.56378 0
M  V30 3154 H 285.434 3.3228 -1.85187 0
M  V30 3155 H 286.746 4.45962 -2.23427 0
M  V30 3156 H 285.9 6.04689 -0.49359 0
M  V30 3157 H 284.639 4.87699 -0.011932 0
M  V30 3158 H 283.644 4.98725 -2.31415 0
M  V30 3159 H 284.869 6.19121 -2.79046 0
M  V30 3160 H 282.815 6.53493 -0.572919 0
M  V30 3161 H 282.732 7.24767 -2.15054 0
M  V30 3162 H 284 7.72255 -1.0603 0
M  V30 3163 N 288.23 0.939286 1.26551 0
M  V30 3164 C 289.46 0.601663 1.97645 0
M  V30 3165 C 289.868 -0.827206 1.70159 0
M  V30 3166 O 289.211 -1.56291 0.965338 0
M  V30 3167 C 289.273 0.761725 3.51337 0
M  V30 3168 C 288.937 2.16487 4.0247 0
M  V30 3169 C 289.934 3.14016 4.14355 0
M  V30 3170 C 287.619 2.48494 4.36527 0
M  V30 3171 C 289.613 4.41654 4.59587 0
M  V30 3172 C 287.3 3.76364 4.81449 0
M  V30 3173 C 288.298 4.72758 4.92939 0
M  V30 3174 O 287.986 5.98352 5.36871 0
M  V30 3175 H 287.718 0.225758 0.637189 0
M  V30 3176 H 290.272 1.26178 1.62075 0
M  V30 3177 H 288.502 0.0444808 3.86674 0
M  V30 3178 H 290.191 0.427442 4.03643 0
M  V30 3179 H 290.957 2.90613 3.8829 0
M  V30 3180 H 286.836 1.74202 4.26819 0
M  V30 3181 H 290.38 5.16896 4.68471 0
M  V30 3182 H 286.277 3.99582 5.06956 0
M  V30 3183 H 287.045 6.01507 5.55096 0
M  V30 3184 N 289.708 -1.40897 0.706093 0
M  V30 3185 C 290.957 -2.00284 0.238574 0
M  V30 3186 C 291.27 -1.56604 -1.17194 0
M  V30 3187 O 292.476 -2.08624 -1.73748 0
M  V30 3188 C 290.932 -3.57934 0.375623 0
M  V30 3189 C 290.54 -4.10591 1.79217 0
M  V30 3190 C 292.284 -4.24488 -0.0315857 0
M  V30 3191 C 290.191 -5.60712 1.88032 0
M  V30 3192 H 289.121 -0.749144 0.0854398 0
M  V30 3193 H 291.772 -1.61251 0.875813 0
M  V30 3194 H 290.154 -3.94622 -0.330042 0
M  V30 3195 H 291.328 -3.85301 2.52745 0
M  V30 3196 H 289.643 -3.56601 2.15 0
M  V30 3197 H 292.24 -5.34698 0.0136842 0
M  V30 3198 H 292.583 -4.02261 -1.072 0
M  V30 3199 H 293.116 -3.92873 0.624181 0
M  V30 3200 H 289.855 -5.87781 2.90161 0
M  V30 3201 H 289.375 -5.87896 1.18903 0
M  V30 3202 H 291.054 -6.25658 1.64805 0
M  V30 3203 N 291.186 -0.45159 -1.50991 0
M  V30 3204 C 292.149 0.341117 -2.26647 0
M  V30 3205 C 293.149 0.937422 -1.30649 0
M  V30 3206 O 294.339 0.809644 -1.54241 0
M  V30 3207 C 291.471 1.48398 -3.06905 0
M  V30 3208 H 292.664 -0.322117 -2.98165 0
M  V30 3209 H 290.217 -0.205122 -1.54948 0
M  V30 3210 H 290.952 2.18284 -2.39838 0
M  V30 3211 H 290.737 1.06241 -3.77432 0
M  V30 3212 H 292.227 2.04367 -3.64176 0
M  V30 3213 N 292.664 1.56529 -0.183458 0
M  V30 3214 C 293.911 1.97244 0.458357 0
M  V30 3215 C 294.239 1.06992 1.62428 0
M  V30 3216 O 293.494 0.106542 1.9541 0
M  V30 3217 C 293.793 3.43939 0.971637 0
M  V30 3218 C 293.459 4.5083 -0.0796784 0
M  V30 3219 C 292.121 4.79786 -0.368584 0
M  V30 3220 C 294.473 5.15138 -0.792638 0
M  V30 3221 C 291.801 5.70345 -1.37563 0
M  V30 3222 C 294.153 6.06784 -1.78875 0
M  V30 3223 C 292.817 6.34102 -2.08497 0
M  V30 3224 H 292.087 0.721768 0.167725 0
M  V30 3225 H 294.734 1.89472 -0.277976 0
M  V30 3226 H 293.039 3.48724 1.78602 0
M  V30 3227 H 294.736 3.72791 1.47744 0
M  V30 3228 H 291.326 4.28317 0.155668 0
M  V30 3229 H 295.51 4.92868 -0.582659 0
M  V30 3230 H 290.766 5.89789 -1.61118 0
M  V30 3231 H 294.94 6.55677 -2.3465 0
M  V30 3232 H 292.567 7.04074 -2.86678 0
M  V30 3233 N 294.142 -0.090211 1.57342 0
M  V30 3234 C 295.382 -0.798365 1.88163 0
M  V30 3235 C 295.746 -1.75662 0.775046 0
M  V30 3236 O 296.947 -2.50849 0.965816 0
M  V30 3237 C 295.218 -1.50376 3.24225 0
M  V30 3238 S 296.777 -2.24952 3.76752 0
M  V30 3239 H 293.595 -0.265883 0.659414 0
M  V30 3240 H 296.197 -0.055264 1.95422 0
M  V30 3241 H 294.901 -0.792286 4.0268 0
M  V30 3242 H 294.432 -2.28666 3.20118 0
M  V30 3243 H 296.447 -3.51173 3.5056 0
M  V30 3244 N 295.62 -1.53406 -0.361157 0
M  V30 3245 C 296.869 -1.69022 -1.10066 0
M  V30 3246 C 297.182 -0.450838 -1.90333 0
M  V30 3247 O 298.388 -0.487617 -2.67085 0
M  V30 3248 C 296.844 -2.98812 -2.00598 0
M  V30 3249 C 296.452 -4.30027 -1.25621 0
M  V30 3250 C 298.196 -3.23795 -2.74513 0
M  V30 3251 C 296.103 -5.50903 -2.1508 0
M  V30 3252 H 295.033 -0.629776 -0.414606 0
M  V30 3253 H 297.684 -1.79907 -0.361348 0
M  V30 3254 H 296.066 -2.8174 -2.78278 0
M  V30 3255 H 297.24 -4.57745 -0.529739 0
M  V30 3256 H 295.555 -4.11522 -0.635496 0
M  V30 3257 H 298.152 -4.11289 -3.41681 0
M  V30 3258 H 298.495 -2.40045 -3.40123 0
M  V30 3259 H 299.028 -3.41561 -2.03914 0
M  V30 3260 H 295.767 -6.37143 -1.54041 0
M  V30 3261 H 295.287 -5.27459 -2.85565 0
M  V30 3262 H 296.966 -5.85865 -2.74538 0
M  V30 3263 N 297.098 0.621204 -1.44841 0
M  V30 3264 C 298.323 1.41244 -1.51871 0
M  V30 3265 C 298.748 1.87519 -0.147764 0
M  V30 3266 O 298.106 1.59334 0.865 0
M  V30 3267 C 298.154 2.60221 -2.49634 0
M  V30 3268 O 297.258 3.60395 -2.00473 0
M  V30 3269 H 296.599 0.42223 -0.512463 0
M  V30 3270 H 299.129 0.757305 -1.90069 0
M  V30 3271 H 299.139 3.0764 -2.67996 0
M  V30 3272 H 297.814 2.25887 -3.4921 0
M  V30 3273 H 296.391 3.19717 -1.91925 0
M  V30 3274 N 298.576 1.31904 0.862503 0
M  V30 3275 C 299.825 1.21373 1.61094 0
M  V30 3276 C 300.138 -0.22504 1.94301 0
M  V30 3277 O 301.344 -0.452121 2.67709 0
M  V30 3278 C 299.8 2.12525 2.9045 0
M  V30 3279 C 299.408 3.61441 2.64697 0
M  V30 3280 C 301.152 2.10813 3.68454 0
M  V30 3281 C 299.059 4.44578 3.90006 0
M  V30 3282 H 297.989 0.450705 0.604468 0
M  V30 3283 H 300.64 1.56811 0.953027 0
M  V30 3284 H 299.022 1.69994 3.57656 0
M  V30 3285 H 300.196 4.12264 2.05851 0
M  V30 3286 H 298.511 3.65205 2.00036 0
M  V30 3287 H 301.108 2.70167 4.61426 0
M  V30 3288 H 301.451 1.09713 4.01583 0
M  V30 3289 H 301.984 2.51583 3.08141 0
M  V30 3290 H 298.723 5.46461 3.62023 0
M  V30 3291 H 298.243 3.98508 4.48276 0
M  V30 3292 H 299.922 4.57176 4.5782 0
M  V30 3293 N 300.054 -1.07777 1.14986 0
M  V30 3294 C 301.301 -1.8029 0.922056 0
M  V30 3295 C 301.629 -1.86531 -0.55105 0
M  V30 3296 O 300.884 -1.34189 -1.42449 0
M  V30 3297 C 301.183 -3.25495 1.47608 0
M  V30 3298 C 300.849 -3.39361 2.96893 0
M  V30 3299 C 299.511 -3.42852 3.37647 0
M  V30 3300 C 301.863 -3.42512 3.92854 0
M  V30 3301 C 299.191 -3.47094 4.73015 0
M  V30 3302 C 301.543 -3.4829 5.28088 0
M  V30 3303 C 300.207 -3.50058 5.68345 0
M  V30 3304 H 299.477 -0.659727 0.337404 0
M  V30 3305 H 302.124 -1.26854 1.43459 0
M  V30 3306 H 300.429 -3.81683 0.88463 0
M  V30 3307 H 302.126 -3.80168 1.27568 0
M  V30 3308 H 298.716 -3.37339 2.64387 0
M  V30 3309 H 302.9 -3.3904 3.62444 0
M  V30 3310 H 298.156 -3.46758 5.03556 0
M  V30 3311 H 302.33 -3.49675 6.02246 0
M  V30 3312 H 299.957 -3.53097 6.73221 0
M  V30 3313 N 301.532 -0.945985 -1.26051 0
M  V30 3314 C 302.76 -0.613025 -1.9761 0
M  V30 3315 C 303.175 0.813035 -1.70397 0
M  V30 3316 O 302.532 1.54274 -0.974979 0
M  V30 3317 C 302.583 -0.85159 -3.51326 0
M  V30 3318 O 302.304 -2.22157 -3.77595 0
M  V30 3319 C 303.805 -0.529831 -4.40122 0
M  V30 3320 H 301.025 -0.230593 -0.630133 0
M  V30 3321 H 303.569 -1.268 -1.60443 0
M  V30 3322 H 301.724 -0.243151 -3.86636 0
M  V30 3323 H 302.138 -2.2852 -4.721 0
M  V30 3324 H 303.612 -0.747348 -5.46917 0
M  V30 3325 H 304.089 0.535341 -4.35925 0
M  V30 3326 H 304.695 -1.11721 -4.10364 0
M  V30 3327 N 303.011 1.40521 -0.713556 0
M  V30 3328 C 303.974 2.29098 -0.0684347 0
M  V30 3329 C 304.974 1.45268 0.689472 0
M  V30 3330 O 306.164 1.66205 0.521677 0
M  V30 3331 C 303.296 3.28446 0.913024 0
M  V30 3332 H 304.489 2.87645 -0.84855 0
M  V30 3333 H 302.042 1.48809 -0.47809 0
M  V30 3334 H 302.777 2.74913 1.72027 0
M  V30 3335 H 302.562 3.90327 0.372472 0
M  V30 3336 H 304.052 3.94777 1.36165 0
M  V30 3337 N 304.489 0.459591 1.5075 0
M  V30 3338 C 305.738 -0.100971 2.01447 0
M  V30 3339 C 306.051 -1.41816 1.34713 0
M  V30 3340 O 307.257 -2.06299 1.76502 0
M  V30 3341 C 305.713 -0.23047 3.59161 0
M  V30 3342 C 305.321 1.0776 4.34847 0
M  V30 3343 C 307.065 -0.743608 4.17936 0
M  V30 3344 C 304.972 0.91253 5.84317 0
M  V30 3345 H 303.902 -0.0415102 0.752856 0
M  V30 3346 H 306.553 0.592742 1.73663 0
M  V30 3347 H 304.935 -0.987703 3.83485 0
M  V30 3348 H 306.109 1.8449 4.22256 0
M  V30 3349 H 304.424 1.52097 3.87628 0
M  V30 3350 H 307.021 -0.883959 5.27343 0
M  V30 3351 H 307.364 -1.73196 3.78562 0
M  V30 3352 H 307.897 -0.04408 3.97776 0
M  V30 3353 H 304.636 1.87391 6.28144 0
M  V30 3354 H 304.156 0.185422 5.99513 0
M  V30 3355 H 305.835 0.574547 6.44444 0
M  V30 3356 N 305.967 -1.56429 0.191757 0
M  V30 3357 C 306.897 -2.21937 -0.725696 0
M  V30 3358 C 307.878 -1.1814 -1.2238 0
M  V30 3359 O 309.063 -1.46636 -1.27325 0
M  V30 3360 C 306.193 -2.87611 -1.94672 0
M  V30 3361 C 305.147 -3.97623 -1.58366 0
M  V30 3362 C 304.473 -4.50446 -2.88102 0
M  V30 3363 C 305.773 -5.16197 -0.796133 0
M  V30 3364 H 307.467 -2.98861 -0.179606 0
M  V30 3365 H 305.013 -1.43749 -0.0849464 0
M  V30 3366 H 306.966 -3.3212 -2.59373 0
M  V30 3367 H 305.69 -2.08087 -2.51728 0
M  V30 3368 H 304.349 -3.53801 -0.960247 0
M  V30 3369 H 303.997 -3.67688 -3.43241 0
M  V30 3370 H 303.697 -5.24675 -2.64556 0
M  V30 3371 H 305.221 -4.97654 -3.53798 0
M  V30 3372 H 306.635 -5.57271 -1.34618 0
M  V30 3373 H 305.032 -5.96471 -0.658928 0
M  V30 3374 H 306.102 -4.84473 0.203478 0
M  V30 3375 N 307.445 0.0818655 -1.57387 0
M  V30 3376 C 308.691 0.784074 -1.8703 0
M  V30 3377 C 309.024 1.77729 -0.782689 0
M  V30 3378 O 308.299 1.93384 0.208051 0
M  V30 3379 C 308.582 1.50105 -3.27323 0
M  V30 3380 C 308.435 0.524925 -4.46727 0
M  V30 3381 C 309.754 2.44843 -3.65705 0
M  V30 3382 H 306.873 0.283582 -0.680257 0
M  V30 3383 H 309.515 0.0474352 -1.89941 0
M  V30 3384 H 307.665 2.12897 -3.24972 0
M  V30 3385 H 309.337 -0.0970111 -4.61198 0
M  V30 3386 H 307.58 -0.160606 -4.33503 0
M  V30 3387 H 308.251 1.064 -5.41648 0
M  V30 3388 H 310.727 1.92135 -3.69085 0
M  V30 3389 H 309.603 2.92018 -4.64776 0
M  V30 3390 H 309.864 3.29197 -2.95096 0
M  V30 3391 N 308.923 1.53595 0.353017 0
M  V30 3392 C 310.151 1.74311 1.1146 0
M  V30 3393 C 310.566 0.477854 1.82653 0
M  V30 3394 O 309.923 -0.549977 1.74016 0
M  V30 3395 C 309.974 2.91694 2.13534 0
M  V30 3396 O 309.695 4.13325 1.45238 0
M  V30 3397 C 311.196 3.24384 3.02142 0
M  V30 3398 H 308.416 0.582669 0.332773 0
M  V30 3399 H 310.96 2.00386 0.408107 0
M  V30 3400 H 309.115 2.67977 2.79763 0
M  V30 3401 H 309.529 4.79148 2.13349 0
M  V30 3402 H 311.003 4.09893 3.69718 0
M  V30 3403 H 311.48 2.40282 3.67643 0
M  V30 3404 H 312.086 3.50073 2.41514 0
M  V30 3405 N 310.401 -0.613514 1.45168 0
M  V30 3406 C 311.65 -1.36874 1.4815 0
M  V30 3407 C 311.963 -1.952 0.124982 0
M  V30 3408 O 313.169 -2.71481 0.0324176 0
M  V30 3409 C 311.625 -2.47905 2.60904 0
M  V30 3410 C 311.233 -1.96016 4.02842 0
M  V30 3411 C 312.977 -3.24965 2.73126 0
M  V30 3412 C 310.884 -3.04494 5.06988 0
M  V30 3413 H 309.814 -0.514428 0.551253 0
M  V30 3414 H 312.465 -0.658182 1.7129 0
M  V30 3415 H 310.847 -3.21618 2.31037 0
M  V30 3416 H 312.021 -1.29051 4.4236 0
M  V30 3417 H 310.336 -1.31719 3.95018 0
M  V30 3418 H 312.933 -4.05865 3.48106 0
M  V30 3419 H 313.276 -3.75588 1.79553 0
M  V30 3420 H 313.809 -2.5835 3.0249 0
M  V30 3421 H 310.548 -2.58795 6.0225 0
M  V30 3422 H 310.068 -3.70044 4.72046 0
M  V30 3423 H 311.747 -3.68976 5.31475 0
M  V30 3424 N 311.879 -1.3236 -0.855495 0
M  V30 3425 C 313.125 -1.23054 -1.612 0
M  V30 3426 C 313.458 0.207404 -1.93089 0
M  V30 3427 O 312.733 1.14432 -1.57275 0
M  V30 3428 C 313.016 -2.08937 -2.93287 0
M  V30 3429 C 312.869 -3.61105 -2.68185 0
M  V30 3430 C 314.188 -1.94986 -3.94549 0
M  V30 3431 H 311.307 -0.448364 -0.584926 0
M  V30 3432 H 313.949 -1.62297 -0.987917 0
M  V30 3433 H 312.099 -1.75599 -3.46551 0
M  V30 3434 H 313.771 -4.04652 -2.21483 0
M  V30 3435 H 312.014 -3.83813 -2.02164 0
M  V30 3436 H 312.685 -4.16522 -3.62234 0
M  V30 3437 H 315.161 -2.24189 -3.5054 0
M  V30 3438 H 314.037 -2.57356 -4.84829 0
M  V30 3439 H 314.298 -0.917263 -4.3248 0
M  V30 3440 N 313.357 1.07166 -1.15556 0
M  V30 3441 C 314.606 1.79181 -0.926132 0
M  V30 3442 C 314.919 1.87768 0.547967 0
M  V30 3443 O 316.125 2.56323 0.895036 0
M  V30 3444 C 314.581 3.22 -1.60761 0
M  V30 3445 C 314.189 3.21607 -3.11886 0
M  V30 3446 C 315.933 3.9861 -1.4598 0
M  V30 3447 C 313.84 4.59092 -3.72812 0
M  V30 3448 H 312.77 0.67154 -0.342856 0
M  V30 3449 H 315.421 1.2027 -1.3859 0
M  V30 3450 H 313.803 3.81115 -1.07553 0
M  V30 3451 H 314.977 2.72127 -3.71865 0
M  V30 3452 H 313.292 2.58495 -3.2645 0
M  V30 3453 H 315.889 5.00225 -1.88888 0
M  V30 3454 H 316.232 4.143 -0.407541 0
M  V30 3455 H 316.765 3.45996 -1.96295 0
M  V30 3456 H 313.504 4.48606 -4.77946 0
M  V30 3457 H 313.024 5.08803 -3.17616 0
M  V30 3458 H 314.703 5.28059 -3.73848 0
M  V30 3459 N 314.835 0.952656 1.25548 0
M  V30 3460 C 315.765 0.489287 2.28316 0
M  V30 3461 C 316.746 -0.463359 1.63667 0
M  V30 3462 O 317.931 -0.36274 1.90782 0
M  V30 3463 C 315.061 -0.235603 3.465 0
M  V30 3464 C 314.015 0.631593 4.23314 0
M  V30 3465 C 313.341 -0.223923 5.34231 0
M  V30 3466 C 314.641 1.90871 4.86174 0
M  V30 3467 H 316.335 1.34822 2.67326 0
M  V30 3468 H 313.881 0.649728 1.28509 0
M  V30 3469 H 315.834 -0.570882 4.17515 0
M  V30 3470 H 314.558 -1.12877 3.06474 0
M  V30 3471 H 313.217 0.949929 3.54079 0
M  V30 3472 H 312.865 -1.11678 4.90446 0
M  V30 3473 H 312.565 0.35299 5.86539 0
M  V30 3474 H 314.089 -0.554214 6.0808 0
M  V30 3475 H 315.503 1.63997 5.49343 0
M  V30 3476 H 313.9 2.43112 5.4865 0
M  V30 3477 H 314.97 2.61304 4.08471 0
M  V30 3478 N 316.313 -1.40141 0.720998 0
M  V30 3479 C 317.543 -2.04798 0.27226 0
M  V30 3480 C 317.951 -1.54442 -1.09289 0
M  V30 3481 O 317.294 -0.698342 -1.69908 0
M  V30 3482 C 317.356 -3.59048 0.18027 0
M  V30 3483 C 317.02 -4.32317 1.48159 0
M  V30 3484 C 318.017 -4.59902 2.42458 0
M  V30 3485 C 315.702 -4.71125 1.74202 0
M  V30 3486 C 317.696 -5.25288 3.61042 0
M  V30 3487 C 315.383 -5.36242 2.93066 0
M  V30 3488 C 316.381 -5.63254 3.86308 0
M  V30 3489 O 316.069 -6.27024 5.03086 0
M  V30 3490 H 315.801 -0.665419 0.119139 0
M  V30 3491 H 318.355 -1.80436 0.981432 0
M  V30 3492 H 316.585 -3.82251 -0.58489 0
M  V30 3493 H 318.274 -4.05221 -0.234618 0
M  V30 3494 H 319.04 -4.30379 2.23604 0
M  V30 3495 H 314.919 -4.49466 1.02477 0
M  V30 3496 H 318.463 -5.46289 4.33837 0
M  V30 3497 H 314.36 -5.65185 3.11826 0
M  V30 3498 H 315.128 -6.4552 5.03235 0
M  V30 3499 N 317.792 -0.46758 -1.50504 0
M  V30 3500 C 318.755 0.317059 -2.26996 0
M  V30 3501 C 319.755 0.923513 -1.31635 0
M  V30 3502 O 320.945 0.793239 -1.55091 0
M  V30 3503 C 318.077 1.45134 -3.08462 0
M  V30 3504 H 319.27 -0.353723 -2.97807 0
M  V30 3505 H 316.823 -0.221545 -1.54722 0
M  V30 3506 H 317.558 2.15728 -2.4214 0
M  V30 3507 H 317.343 1.02232 -3.78538 0
M  V30 3508 H 318.833 2.00493 -3.66323 0
M  V30 3509 N 319.27 1.56325 -0.20005 0
M  V30 3510 C 320.686 1.58839 0.155716 0
M  V30 3511 C 320.886 1.21636 1.60645 0
M  V30 3512 O 319.942 0.941437 2.34293 0
M  V30 3513 C 321.255 3.0032 -0.151124 0
M  V30 3514 C 322.803 3.12866 -0.0916284 0
M  V30 3515 C 323.278 4.56488 -0.371845 0
M  V30 3516 N 324.769 4.62089 -0.320641 0
M  V30 3517 C 325.504 5.71116 -0.511243 0
M  V30 3518 N 325 6.88592 -0.762461 0
M  V30 3519 N 326.793 5.60335 -0.445157 0
M  V30 3520 H 318.944 1.78788 -1.14668 0
M  V30 3521 H 321.207 0.829996 -0.458051 0
M  V30 3522 H 320.913 3.32117 -1.15721 0
M  V30 3523 H 320.787 3.73257 0.543986 0
M  V30 3524 H 323.174 2.80878 0.905065 0
M  V30 3525 H 323.255 2.42304 -0.81989 0
M  V30 3526 H 322.899 4.89189 -1.36588 0
M  V30 3527 H 322.829 5.25246 0.377362 0
M  V30 3528 H 325.32 3.77665 -0.13329 0
M  V30 3529 H 325.633 7.67581 -0.896576 0
M  V30 3530 H 323.978 6.90387 -0.799412 0
M  V30 3531 H 327.169 4.67436 -0.249278 0
M  V30 3532 H 327.342 6.45243 -0.597116 0
M  V30 3533 N 320.748 -0.0735177 1.57428 0
M  V30 3534 C 321.997 -0.771809 1.86349 0
M  V30 3535 C 322.31 -1.78828 0.792452 0
M  V30 3536 O 323.516 -2.53602 0.96945 0
M  V30 3537 C 321.972 -1.42358 3.30548 0
M  V30 3538 C 321.58 -0.445761 4.45777 0
M  V30 3539 C 323.324 -2.10434 3.6867 0
M  V30 3540 C 321.231 -1.10335 5.81016 0
M  V30 3541 H 320.161 -0.291999 0.695164 0
M  V30 3542 H 322.812 -0.0250749 1.83483 0
M  V30 3543 H 321.194 -2.21852 3.28021 0
M  V30 3544 H 322.368 0.319239 4.59693 0
M  V30 3545 H 320.683 0.130457 4.16196 0
M  V30 3546 H 323.28 -2.60405 4.67004 0
M  V30 3547 H 323.623 -2.90298 2.98383 0
M  V30 3548 H 324.156 -1.37773 3.7318 0
M  V30 3549 H 320.895 -0.345061 6.54591 0
M  V30 3550 H 320.415 -1.83925 5.70904 0
M  V30 3551 H 322.094 -1.62367 6.26295 0
M  V30 3552 N 322.226 -1.5378 -0.344866 0
M  V30 3553 C 323.456 -1.74646 -1.10374 0
M  V30 3554 C 323.864 -0.48491 -1.8288 0
M  V30 3555 O 323.207 0.553062 -1.75177 0
M  V30 3556 C 323.269 -2.87145 -2.16306 0
M  V30 3557 C 322.933 -4.26795 -1.63386 0
M  V30 3558 C 323.93 -5.08412 -1.08688 0
M  V30 3559 C 321.615 -4.73276 -1.68272 0
M  V30 3560 C 323.609 -6.34609 -0.595792 0
M  V30 3561 C 321.296 -5.99446 -1.18776 0
M  V30 3562 C 322.294 -6.79946 -0.645215 0
M  V30 3563 O 321.982 -8.03745 -0.157626 0
M  V30 3564 H 321.714 -0.587112 -0.335075 0
M  V30 3565 H 324.268 -2.01403 -0.403252 0
M  V30 3566 H 322.498 -2.55909 -2.89909 0
M  V30 3567 H 324.187 -2.95992 -2.77747 0
M  V30 3568 H 324.953 -4.73666 -1.04236 0
M  V30 3569 H 320.832 -4.10677 -2.09442 0
M  V30 3570 H 324.376 -6.97389 -0.171654 0
M  V30 3571 H 320.273 -6.33687 -1.22928 0
M  V30 3572 H 321.041 -8.18038 -0.275037 0
M  V30 3573 N 323.704 0.605807 -1.45491 0
M  V30 3574 C 324.951 1.36476 -1.49601 0
M  V30 3575 C 325.279 1.94007 -0.138452 0
M  V30 3576 O 324.534 1.75638 0.863114 0
M  V30 3577 C 324.833 2.53012 -2.52428 0
M  V30 3578 C 324.499 2.13617 -3.97087 0
M  V30 3579 C 323.161 2.02587 -4.36477 0
M  V30 3580 C 325.513 1.82899 -4.88055 0
M  V30 3581 C 322.841 1.59064 -5.64726 0
M  V30 3582 C 325.193 1.40861 -6.16718 0
M  V30 3583 C 323.857 1.28391 -6.55036 0
M  V30 3584 H 323.127 0.499402 -0.547429 0
M  V30 3585 H 325.774 0.684546 -1.78847 0
M  V30 3586 H 324.079 3.26379 -2.16758 0
M  V30 3587 H 325.776 3.1124 -2.52845 0
M  V30 3588 H 322.366 2.23129 -3.65939 0
M  V30 3589 H 326.55 1.90317 -4.58359 0
M  V30 3590 H 321.806 1.48034 -5.93208 0
M  V30 3591 H 325.98 1.16138 -6.86648 0
M  V30 3592 H 323.607 0.944403 -7.54311 0
M  V30 3593 N 325.182 1.32811 0.848464 0
M  V30 3594 C 326.112 1.24882 1.97299 0
M  V30 3595 C 327.093 0.131357 1.69592 0
M  V30 3596 O 328.278 0.319553 1.91553 0
M  V30 3597 C 325.408 0.97746 3.33261 0
M  V30 3598 C 324.362 2.05682 3.75338 0
M  V30 3599 C 323.688 1.63777 5.09 0
M  V30 3600 C 324.988 3.47254 3.90144 0
M  V30 3601 H 326.682 2.18966 2.04191 0
M  V30 3602 H 324.228 1.05413 0.981029 0
M  V30 3603 H 326.181 0.908513 4.1149 0
M  V30 3604 H 324.905 0.000980011 3.266 0
M  V30 3605 H 323.564 2.11603 2.99366 0
M  V30 3606 H 323.212 0.648569 4.98801 0
M  V30 3607 H 322.912 2.36 5.38124 0
M  V30 3608 H 324.436 1.5833 5.89715 0
M  V30 3609 H 325.85 3.43888 4.58709 0
M  V30 3610 H 324.247 4.1788 4.30693 0
M  V30 3611 H 325.317 3.86462 2.92874 0
M  V30 3612 N 326.66 -1.06551 1.16123 0
M  V30 3613 C 327.906 -1.79567 0.94252 0
M  V30 3614 C 328.239 -1.86869 -0.528547 0
M  V30 3615 O 327.514 -1.35838 -1.39206 0
M  V30 3616 C 327.797 -3.24195 1.56747 0
M  V30 3617 C 327.65 -3.24989 3.10969 0
M  V30 3618 C 328.969 -4.21678 1.25998 0
M  V30 3619 H 326.088 -0.651883 0.343828 0
M  V30 3620 H 328.73 -1.2463 1.43413 0
M  V30 3621 H 326.88 -3.71107 1.14942 0
M  V30 3622 H 328.552 -2.86258 3.61737 0
M  V30 3623 H 326.795 -2.63716 3.44436 0
M  V30 3624 H 327.466 -4.27005 3.49815 0
M  V30 3625 H 329.942 -3.83196 1.62174 0
M  V30 3626 H 328.818 -5.21146 1.7233 0
M  V30 3627 H 329.079 -4.4174 0.178367 0
M  V30 3628 N 328.138 -0.959301 -1.25041 0
M  V30 3629 C 329.085 -0.482057 -2.2571 0
M  V30 3630 C 330.055 0.467939 -1.59372 0
M  V30 3631 O 331.24 0.380159 -1.86974 0
M  V30 3632 C 328.38 0.229623 -3.44335 0
M  V30 3633 C 327.493 -0.758156 -4.25295 0
M  V30 3634 C 326.628 -0.0234403 -5.31195 0
M  V30 3635 C 325.667 -1.00184 -6.03846 0
M  V30 3636 N 324.804 -0.29769 -7.01469 0
M  V30 3637 H 329.644 -1.34538 -2.65901 0
M  V30 3638 H 327.181 -0.674592 -1.3072 0
M  V30 3639 H 329.139 0.658856 -4.11965 0
M  V30 3640 H 327.769 1.05696 -3.05005 0
M  V30 3641 H 326.821 -1.30586 -3.57284 0
M  V30 3642 H 328.133 -1.50458 -4.75567 0
M  V30 3643 H 327.287 0.464201 -6.04922 0
M  V30 3644 H 326.026 0.755741 -4.81809 0
M  V30 3645 H 325.031 -1.50044 -5.2893 0
M  V30 3646 H 326.256 -1.78133 -6.55321 0
M  V30 3647 H 324.202 0.462668 -6.54366 0
M  V30 3648 H 324.119 -0.983128 -7.4958 0
M  V30 3649 H 325.387 0.16826 -7.79318 0
M  V30 3650 N 329.616 1.39756 -0.72842 0
M  V30 3651 C 330.841 2.05472 -0.282159 0
M  V30 3652 C 331.266 1.54549 1.07221 0
M  V30 3653 O 330.624 0.686372 1.67805 0
M  V30 3654 C 330.672 3.59462 -0.286264 0
M  V30 3655 O 329.776 4.05918 0.728298 0
M  V30 3656 H 329.117 0.651226 -0.129618 0
M  V30 3657 H 331.647 1.78915 -0.992499 0
M  V30 3658 H 331.657 4.07798 -0.128373 0
M  V30 3659 H 330.332 3.95889 -1.27456 0
M  V30 3660 H 328.909 3.69012 0.537081 0
M  V30 3661 N 331.094 0.475555 1.50254 0
M  V30 3662 C 332.319 -0.0777042 2.07254 0
M  V30 3663 C 332.744 -1.3235 1.3366 0
M  V30 3664 O 332.102 -1.77152 0.385597 0
M  V30 3665 C 332.15 -0.340169 3.58992 0
M  V30 3666 O 331.254 -1.41982 3.87188 0
M  V30 3667 H 330.595 0.0149556 0.663832 0
M  V30 3668 H 333.125 0.667878 1.93392 0
M  V30 3669 H 333.135 -0.579332 4.03866 0
M  V30 3670 H 331.81 0.570167 4.11973 0
M  V30 3671 H 330.387 -1.16762 3.54148 0
M  V30 3672 N 332.573 -1.56217 0.208337 0
M  V30 3673 C 333.798 -2.02782 -0.435222 0
M  V30 3674 C 334.223 -1.08738 -1.53485 0
M  V30 3675 O 333.581 -0.0731855 -1.81152 0
M  V30 3676 C 333.629 -3.47687 -0.956335 0
M  V30 3677 O 332.733 -3.56773 -2.06849 0
M  V30 3678 H 332.074 -0.656403 -0.100158 0
M  V30 3679 H 334.604 -2.02033 0.3231 0
M  V30 3680 H 334.614 -3.87745 -1.26955 0
M  V30 3681 H 333.289 -4.15624 -0.15143 0
M  V30 3682 H 331.866 -3.28597 -1.76292 0
M  V30 3683 N 334.051 0.0651679 -1.57465 0
M  V30 3684 C 335.467 0.420105 -1.53972 0
M  V30 3685 C 335.667 1.78782 -0.929474 0
M  V30 3686 O 334.723 2.46771 -0.534839 0
M  V30 3687 C 336.036 0.355084 -2.98596 0
M  V30 3688 C 337.584 0.434792 -3.09965 0
M  V30 3689 C 338.059 0.399609 -4.56253 0
M  V30 3690 N 339.55 0.459488 -4.60915 0
M  V30 3691 C 340.285 0.454584 -5.71595 0
M  V30 3692 N 339.781 0.404102 -6.9162 0
M  V30 3693 N 341.574 0.501635 -5.59857 0
M  V30 3694 H 333.725 -0.830328 -1.95498 0
M  V30 3695 H 335.988 -0.312244 -0.895102 0
M  V30 3696 H 335.694 -0.583357 -3.46828 0
M  V30 3697 H 335.568 1.16275 -3.58831 0
M  V30 3698 H 337.955 1.36366 -2.61703 0
M  V30 3699 H 338.036 -0.40157 -2.52628 0
M  V30 3700 H 337.68 -0.525436 -5.05175 0
M  V30 3701 H 337.61 1.25359 -5.11461 0
M  V30 3702 H 340.101 0.502482 -3.74544 0
M  V30 3703 H 340.414 0.404468 -7.71741 0
M  V30 3704 H 338.759 0.37069 -6.94011 0
M  V30 3705 H 341.95 0.538812 -4.64989 0
M  V30 3706 H 342.123 0.494345 -6.46112 0
M  V30 3707 N 335.529 1.53961 0.336706 0
M  V30 3708 C 336.476 1.82428 1.41381 0
M  V30 3709 C 337.446 0.670444 1.51968 0
M  V30 3710 O 338.631 0.915565 1.67398 0
M  V30 3711 C 335.771 2.04564 2.77934 0
M  V30 3712 C 334.884 3.32267 2.76084 0
M  V30 3713 C 334.019 3.44434 4.04399 0
M  V30 3714 C 333.058 4.66061 3.96804 0
M  V30 3715 N 332.195 4.75224 5.16823 0
M  V30 3716 H 337.035 2.74324 1.16405 0
M  V30 3717 H 334.572 1.35869 0.563752 0
M  V30 3718 H 336.53 2.15388 3.57301 0
M  V30 3719 H 335.16 1.15974 3.01247 0
M  V30 3720 H 334.212 3.3025 1.88784 0
M  V30 3721 H 335.524 4.21733 2.66351 0
M  V30 3722 H 334.678 3.54728 4.92192 0
M  V30 3723 H 333.417 2.53037 4.16921 0
M  V30 3724 H 332.422 4.55838 3.07396 0
M  V30 3725 H 333.647 5.58829 3.85858 0
M  V30 3726 H 331.593 3.86739 5.29876 0
M  V30 3727 H 331.51 5.58636 5.09374 0
M  V30 3728 H 332.778 4.89835 6.06367 0
M  V30 3729 N 337.007 -0.598083 1.45811 0
M  V30 3730 C 338.253 -1.35882 1.50545 0
M  V30 3731 C 338.586 -1.93616 0.150445 0
M  V30 3732 O 337.861 -1.75604 -0.83628 0
M  V30 3733 C 338.144 -2.49966 2.59208 0
M  V30 3734 C 337.997 -1.97367 4.04186 0
M  V30 3735 C 339.316 -3.52068 2.64076 0
M  V30 3736 H 336.435 -0.492717 0.548087 0
M  V30 3737 H 339.077 -0.673319 1.77669 0
M  V30 3738 H 337.227 -3.08443 2.3621 0
M  V30 3739 H 338.899 -1.43466 4.38423 0
M  V30 3740 H 337.142 -1.283 4.14393 0
M  V30 3741 H 337.813 -2.79649 4.75921 0
M  V30 3742 H 340.289 -3.03448 2.84708 0
M  V30 3743 H 339.165 -4.2937 3.41954 0
M  V30 3744 H 339.426 -4.08304 1.69531 0
M  V30 3745 N 338.485 -1.33259 -0.841409 0
M  V30 3746 C 339.448 -1.23221 -1.9326 0
M  V30 3747 C 340.448 -0.151895 -1.60081 0
M  V30 3748 O 341.638 -0.403246 -1.69468 0
M  V30 3749 C 338.77 -0.898123 -3.28856 0
M  V30 3750 H 339.963 -2.2021 -2.03587 0
M  V30 3751 H 337.516 -1.17281 -1.03319 0
M  V30 3752 H 338.251 0.0693841 -3.24226 0
M  V30 3753 H 338.036 -1.67934 -3.54317 0
M  V30 3754 H 339.526 -0.852563 -4.08805 0
M  V30 3755 N 339.963 1.05934 -1.16686 0
M  V30 3756 C 340.911 2.15603 -0.872817 0
M  V30 3757 C 341.905 1.68647 0.159576 0
M  V30 3758 O 343.111 1.79995 0.0132125 0
M  V30 3759 H 339.486 0.703885 -0.264671 0
M  V30 3760 H 341.457 2.37613 -1.80507 0
M  V30 3761 C 340.206 3.45457 -0.394344 0
M  V30 3762 H 339.529 3.81984 -1.18019 0
M  V30 3763 H 340.969 4.2339 -0.227408 0
M  V30 3764 C 339.428 3.25021 0.88673 0
M  V30 3765 O 339.958 3.50906 1.95519 0
M  V30 3766 N 338.164 2.78437 0.831925 0
M  V30 3767 H 337.711 2.57572 -0.0377619 0
M  V30 3768 H 337.669 2.65144 1.68956 0
M  V30 3769 N 341.441 0.965919 1.2453 0
M  V30 3770 C 342.391 0.465731 2.23193 0
M  V30 3771 C 343.375 -0.451277 1.54442 0
M  V30 3772 O 344.567 -0.282489 1.74731 0
M  V30 3773 C 341.696 -0.244511 3.42428 0
M  V30 3774 C 340.782 0.691222 4.18429 0
M  V30 3775 N 341.173 1.82771 4.71623 0
M  V30 3776 C 339.471 0.501649 4.4317 0
M  V30 3777 C 340.172 2.41285 5.29298 0
M  V30 3778 N 339.148 1.69819 5.16394 0
M  V30 3779 H 342.95 1.33291 2.61937 0
M  V30 3780 H 340.464 0.824789 1.39896 0
M  V30 3781 H 342.461 -0.620056 4.12263 0
M  V30 3782 H 341.121 -1.10815 3.05205 0
M  V30 3783 H 342.132 2.20929 4.68413 0
M  V30 3784 H 338.809 -0.318177 4.16286 0
M  V30 3785 H 340.199 3.37181 5.8117 0
M  V30 3786 N 342.919 -1.39368 0.735821 0
M  V30 3787 C 343.867 -2.32443 0.0855131 0
M  V30 3788 C 344.861 -1.53104 -0.724954 0
M  V30 3789 O 346.067 -1.68762 -0.626047 0
M  V30 3790 H 342.442 -0.751948 0.00885257 0
M  V30 3791 H 344.413 -2.84916 0.886883 0
M  V30 3792 C 343.162 -3.38206 -0.806983 0
M  V30 3793 H 342.485 -3.99335 -0.19274 0
M  V30 3794 H 343.925 -4.05779 -1.2296 0
M  V30 3795 C 342.384 -2.75321 -1.94165 0
M  V30 3796 O 342.914 -2.63231 -3.03435 0
M  V30 3797 N 341.12 -2.33396 -1.73132 0
M  V30 3798 H 340.667 -2.4343 -0.842596 0
M  V30 3799 H 340.625 -1.91661 -2.49225 0
M  V30 3800 N 344.397 -0.483516 -1.5 0
M  V30 3801 C 345.345 0.318061 -2.30415 0
M  V30 3802 C 346.339 0.978988 -1.38247 0
M  V30 3803 O 347.545 0.908673 -1.55381 0
M  V30 3804 H 343.92 0.121419 -0.742133 0
M  V30 3805 H 345.891 -0.380403 -2.95965 0
M  V30 3806 C 344.64 1.38013 -3.19136 0
M  V30 3807 H 343.963 0.880952 -3.89973 0
M  V30 3808 H 345.403 1.91332 -3.78375 0
M  V30 3809 C 343.862 2.38884 -2.37563 0
M  V30 3810 O 344.392 3.44412 -2.06744 0
M  V30 3811 N 342.598 2.10912 -1.99911 0
M  V30 3812 H 342.145 1.25118 -2.25174 0
M  V30 3813 H 342.103 2.78635 -1.45636 0
M  V30 3814 N 345.875 1.56104 -0.216619 0
M  V30 3815 C 347.1 2.0301 0.424462 0
M  V30 3816 C 347.525 1.0955 1.52907 0
M  V30 3817 O 346.883 0.0827914 1.81111 0
M  V30 3818 C 346.931 3.4819 0.937883 0
M  V30 3819 O 346.035 3.57865 2.04955 0
M  V30 3820 H 345.376 0.656925 0.0966755 0
M  V30 3821 H 347.906 2.01859 -0.33381 0
M  V30 3822 H 347.916 3.88413 1.24897 0
M  V30 3823 H 346.591 4.15699 0.129387 0
M  V30 3824 H 345.168 3.29527 1.74546 0
M  V30 3825 N 347.353 -0.0568162 1.57498 0
M  V30 3826 C 348.263 -1.08346 2.08083 0
M  V30 3827 C 349.279 -1.41439 1.01346 0
M  V30 3828 O 350.455 -1.51316 1.32912 0
M  V30 3829 C 347.52 -2.37352 2.52715 0
M  V30 3830 C 346.581 -2.11093 3.73816 0
M  V30 3831 C 345.814 -3.33949 4.1631 0
M  V30 3832 O 346.037 -4.43622 3.58547 0
M  V30 3833 O 344.971 -3.21279 5.08983 0
M  V30 3834 H 348.797 -0.683667 2.95905 0
M  V30 3835 H 346.382 -0.271965 1.46904 0
M  V30 3836 H 348.264 -3.13246 2.81877 0
M  V30 3837 H 346.939 -2.76681 1.68016 0
M  V30 3838 H 345.846 -1.32856 3.49714 0
M  V30 3839 H 347.179 -1.76637 4.59413 0
M  V30 3840 N 348.832 -1.54138 -0.328536 0
M  V30 3841 C 350.248 -1.44736 -0.672574 0
M  V30 3842 C 350.448 -0.616217 -1.91846 0
M  V30 3843 O 349.504 -0.113067 -2.52247 0
M  V30 3844 C 350.817 -2.884 -0.851217 0
M  V30 3845 C 352.365 -2.98271 -0.948877 0
M  V30 3846 C 352.84 -4.43074 -1.15973 0
M  V30 3847 N 354.331 -4.46665 -1.22658 0
M  V30 3848 C 355.066 -5.55857 -1.40751 0
M  V30 3849 N 354.562 -6.75026 -1.5592 0
M  V30 3850 N 356.355 -5.43495 -1.4342 0
M  V30 3851 H 348.506 -2.06661 0.490421 0
M  V30 3852 H 350.769 -0.934812 0.157579 0
M  V30 3853 H 350.475 -3.51699 -0.00704236 0
M  V30 3854 H 350.349 -3.34225 -1.74853 0
M  V30 3855 H 352.736 -2.35102 -1.78356 0
M  V30 3856 H 352.817 -2.55785 -0.0281435 0
M  V30 3857 H 352.461 -5.06827 -0.329915 0
M  V30 3858 H 352.391 -4.83165 -2.09426 0
M  V30 3859 H 354.882 -3.60797 -1.124 0
M  V30 3860 H 355.195 -7.54004 -1.69404 0
M  V30 3861 H 353.54 -6.77944 -1.53027 0
M  V30 3862 H 356.731 -4.49349 -1.31162 0
M  V30 3863 H 356.904 -6.28649 -1.57178 0
M  V30 3864 N 350.31 0.590341 -1.46126 0
M  V30 3865 C 351.535 1.37991 -1.54833 0
M  V30 3866 C 351.96 1.87163 -0.187506 0
M  V30 3867 O 351.318 1.61133 0.831008 0
M  V30 3868 C 351.366 2.54867 -2.55098 0
M  V30 3869 O 350.47 3.56061 -2.08073 0
M  V30 3870 H 349.811 0.411265 -0.521303 0
M  V30 3871 H 352.341 0.716819 -1.91632 0
M  V30 3872 H 352.351 3.01886 -2.74461 0
M  V30 3873 H 351.026 2.18429 -3.53923 0
M  V30 3874 H 349.603 3.15574 -1.98664 0
M  V30 3875 N 351.788 1.33704 0.83433 0
M  V30 3876 C 352.721 1.18675 1.94914 0
M  V30 3877 C 353.699 0.0811145 1.62398 0
M  V30 3878 O 354.883 0.244186 1.86912 0
M  V30 3879 C 352.01 0.821231 3.28593 0
M  V30 3880 C 351.056 1.93501 3.80079 0
M  V30 3881 S 351.889 3.54671 4.01209 0
M  V30 3882 C 353.045 3.20136 5.37833 0
M  V30 3883 H 353.278 2.13043 2.07364 0
M  V30 3884 H 350.811 1.18598 0.988624 0
M  V30 3885 H 352.769 0.617123 4.05835 0
M  V30 3886 H 351.43 -0.103927 3.13928 0
M  V30 3887 H 350.623 1.63273 4.76821 0
M  V30 3888 H 350.225 2.09601 3.09747 0
M  V30 3889 H 352.517 2.71242 6.20833 0
M  V30 3890 H 353.46 4.15975 5.73036 0
M  V30 3891 H 353.868 2.56613 5.02802 0
M  V30 3892 N 353.266 -1.05314 1.17247 0
M  V30 3893 C 354.229 -2.112 0.890357 0
M  V30 3894 C 355.229 -1.60359 -0.118943 0
M  V30 3895 O 356.419 -1.73833 0.113086 0
M  V30 3896 C 353.551 -3.39266 0.333422 0
M  V30 3897 H 354.744 -2.37659 1.82916 0
M  V30 3898 H 352.297 -1.21538 0.982758 0
M  V30 3899 H 353.032 -3.18462 -0.612587 0
M  V30 3900 H 352.817 -3.77477 1.06082 0
M  V30 3901 H 354.307 -4.17315 0.154322 0
M  V30 3902 N 354.744 -0.972509 -1.24016 0
M  V30 3903 C 355.674 -0.525548 -2.27509 0
M  V30 3904 C 356.655 0.437262 -1.64384 0
M  V30 3905 O 357.84 0.332343 -1.91335 0
M  V30 3906 C 354.97 0.180448 -3.46831 0
M  V30 3907 C 353.924 -0.698859 -4.22256 0
M  V30 3908 C 353.25 0.138903 -5.3452 0
M  V30 3909 C 354.55 -1.98582 -4.83076 0
M  V30 3910 H 356.244 -1.39058 -2.65148 0
M  V30 3911 H 353.79 -0.67009 -1.27459 0
M  V30 3912 H 355.743 0.504387 -4.18371 0
M  V30 3913 H 354.467 1.07987 -3.08231 0
M  V30 3914 H 353.126 -1.00614 -3.52523 0
M  V30 3915 H 352.774 1.03862 -4.9216 0
M  V30 3916 H 352.474 -0.446259 -5.85903 0
M  V30 3917 H 353.998 0.457404 -6.08884 0
M  V30 3918 H 355.412 -1.72715 -5.46665 0
M  V30 3919 H 353.809 -2.5181 -5.44713 0
M  V30 3920 H 354.879 -2.67769 -4.04262 0
M  V30 3921 N 356.222 1.38976 -0.743202 0
M  V30 3922 C 357.152 2.33171 -0.123873 0
M  V30 3923 C 358.133 1.54336 0.71516 0
M  V30 3924 O 359.318 1.82696 0.658467 0
M  V30 3925 C 356.448 3.38474 0.777978 0
M  V30 3926 C 355.402 4.27979 0.0424758 0
M  V30 3927 C 354.728 5.2405 1.06189 0
M  V30 3928 C 356.028 5.10155 -1.1198 0
M  V30 3929 H 357.722 2.85213 -0.910709 0
M  V30 3930 H 355.268 1.37133 -0.439388 0
M  V30 3931 H 357.221 4.03328 1.22084 0
M  V30 3932 H 355.945 2.84891 1.59702 0
M  V30 3933 H 354.604 3.64616 -0.380853 0
M  V30 3934 H 354.252 4.66758 1.87472 0
M  V30 3935 H 353.952 5.84785 0.574485 0
M  V30 3936 H 355.476 5.9178 1.50428 0
M  V30 3937 H 356.89 5.68307 -0.75499 0
M  V30 3938 H 355.287 5.80073 -1.53738 0
M  V30 3939 H 356.357 4.44504 -1.93764 0
M  V30 3940 N 357.7 0.491464 1.49741 0
M  V30 3941 C 359.116 0.146835 1.58923 0
M  V30 3942 C 359.316 -1.34804 1.49767 0
M  V30 3943 O 358.372 -2.12317 1.36667 0
M  V30 3944 C 359.685 0.715157 2.92072 0
M  V30 3945 C 361.233 0.680407 3.05515 0
M  V30 3946 C 361.708 1.22663 4.41269 0
M  V30 3947 N 363.199 1.18691 4.47735 0
M  V30 3948 C 363.934 1.57984 5.51207 0
M  V30 3949 N 363.43 2.04824 6.6183 0
M  V30 3950 N 365.223 1.49459 5.41866 0
M  V30 3951 H 357.374 1.46347 1.53936 0
M  V30 3952 H 359.637 0.606453 0.728642 0
M  V30 3953 H 359.343 1.76317 3.04311 0
M  V30 3954 H 359.217 0.17018 3.76816 0
M  V30 3955 H 361.604 -0.358743 2.92911 0
M  V30 3956 H 361.685 1.26242 2.22478 0
M  V30 3957 H 361.329 2.26451 4.54623 0
M  V30 3958 H 361.259 0.620637 5.2293 0
M  V30 3959 H 363.75 0.843605 3.68364 0
M  V30 3960 H 364.063 2.32901 7.3687 0
M  V30 3961 H 362.408 2.08791 6.62896 0
M  V30 3962 H 365.599 1.12692 4.54333 0
M  V30 3963 H 365.772 1.80406 6.22381 0
M  V30 3964 N 359.178 -1.55987 0.224894 0
M  V30 3965 C 360.406 -2.02784 -0.410665 0
M  V30 3966 C 360.821 -1.10464 -1.53112 0
M  V30 3967 O 360.178 -0.114871 -1.82138 0
M  V30 3968 C 360.229 -3.49087 -0.939165 0
M  V30 3969 O 359.95 -4.37887 0.136614 0
M  V30 3970 C 361.451 -4.11543 -1.64763 0
M  V30 3971 H 358.671 -0.663484 -0.100148 0
M  V30 3972 H 361.215 -2.01614 0.342326 0
M  V30 3973 H 359.37 -3.50861 -1.64242 0
M  V30 3974 H 359.784 -5.23849 -0.261155 0
M  V30 3975 H 361.258 -5.15673 -1.96939 0
M  V30 3976 H 361.735 -3.56736 -2.56195 0
M  V30 3977 H 362.341 -4.13629 -0.989503 0
M  V30 3978 N 360.656 0.0484629 -1.57525 0
M  V30 3979 C 361.902 0.744226 -1.88651 0
M  V30 3980 C 362.235 1.76029 -0.820212 0
M  V30 3981 O 361.51 1.93782 0.166985 0
M  V30 3982 C 361.793 1.43128 -3.30434 0
M  V30 3983 C 361.646 0.43005 -4.47739 0
M  V30 3984 C 362.965 2.37031 -3.70816 0
M  V30 3985 H 360.084 0.269089 -0.68612 0
M  V30 3986 H 362.726 0.00713532 -1.89999 0
M  V30 3987 H 360.876 2.05956 -3.29415 0
M  V30 3988 H 362.548 -0.194816 -4.60888 0
M  V30 3989 H 360.791 -0.252522 -4.33064 0
M  V30 3990 H 361.462 0.948874 -5.43783 0
M  V30 3991 H 363.938 1.84263 -3.73077 0
M  V30 3992 H 362.814 2.82094 -4.70865 0
M  V30 3993 H 363.075 3.22864 -3.02012 0
M  V30 3994 N 362.134 1.5431 0.320358 0
M  V30 3995 C 363.38 1.72924 1.05949 0
M  V30 3996 C 363.713 0.503185 1.87568 0
M  V30 3997 O 362.988 -0.499839 1.87968 0
M  V30 3998 C 363.271 3.00676 1.98156 0
M  V30 3999 C 363.124 4.3354 1.19845 0
M  V30 4000 C 364.443 3.24198 2.9763 0
M  V30 4001 H 361.562 0.629195 0.383774 0
M  V30 4002 H 364.204 1.87008 0.335854 0
M  V30 4003 H 362.354 2.888 2.59859 0
M  V30 4004 H 364.026 4.57305 0.605773 0
M  V30 4005 H 362.269 4.309 0.500784 0
M  V30 4006 H 362.94 5.19156 1.87567 0
M  V30 4007 H 365.416 3.35557 2.4605 0
M  V30 4008 H 364.292 4.14938 3.59329 0
M  V30 4009 H 364.553 2.41577 3.7026 0
M  V30 4010 N 363.613 -0.582584 1.46437 0
M  V30 4011 C 364.862 -1.337 1.5102 0
M  V30 4012 C 365.175 -1.94891 0.166359 0
M  V30 4013 O 366.381 -2.71351 0.0899954 0
M  V30 4014 C 364.837 -2.42315 2.66104 0
M  V30 4015 C 364.445 -1.87427 4.06909 0
M  V30 4016 C 366.189 -3.19099 2.79958 0
M  V30 4017 C 364.096 -2.93672 5.13333 0
M  V30 4018 H 363.026 -0.502619 0.562041 0
M  V30 4019 H 365.677 -0.621701 1.72647 0
M  V30 4020 H 364.059 -3.16645 2.37807 0
M  V30 4021 H 365.233 -1.19639 4.44998 0
M  V30 4022 H 363.548 -1.2331 3.97723 0
M  V30 4023 H 366.145 -3.9839 3.56636 0
M  V30 4024 H 366.488 -3.71695 1.87479 0
M  V30 4025 H 367.021 -2.51875 3.07902 0
M  V30 4026 H 363.76 -2.45962 6.07604 0
M  V30 4027 H 363.28 -3.59948 4.79789 0
M  V30 4028 H 364.959 -3.5762 5.39182 0
M  V30 4029 N 365.091 -1.34144 -0.827227 0
M  V30 4030 C 366.337 -1.26446 -1.58554 0
M  V30 4031 C 366.67 0.1664 -1.93486 0
M  V30 4032 O 365.945 1.1107 -1.59667 0
M  V30 4033 C 366.228 -2.15111 -2.8879 0
M  V30 4034 C 366.081 -3.66712 -2.60465 0
M  V30 4035 C 367.4 -2.03311 -3.90324 0
M  V30 4036 H 364.519 -0.46067 -0.575284 0
M  V30 4037 H 367.161 -1.64356 -0.953269 0
M  V30 4038 H 365.311 -1.8291 -3.42748 0
M  V30 4039 H 366.983 -4.09259 -2.1285 0
M  V30 4040 H 365.226 -3.88014 -1.93978 0
M  V30 4041 H 365.897 -4.24112 -3.53317 0
M  V30 4042 H 368.373 -2.31574 -3.45706 0
M  V30 4043 H 367.249 -2.67582 -4.79261 0
M  V30 4044 H 367.51 -1.00879 -4.30437 0
M  V30 4045 N 366.569 1.04691 -1.17803 0
M  V30 4046 C 367.815 1.78045 -0.970969 0
M  V30 4047 C 368.148 1.87686 0.498751 0
M  V30 4048 O 367.423 1.38035 1.37027 0
M  V30 4049 C 367.706 3.2166 -1.61884 0
M  V30 4050 C 367.559 3.20001 -3.161 0
M  V30 4051 C 368.878 4.1962 -1.3269 0
M  V30 4052 H 365.997 0.64633 -0.354155 0
M  V30 4053 H 368.639 1.22333 -1.45378 0
M  V30 4054 H 366.789 3.69232 -1.20831 0
M  V30 4055 H 368.461 2.80467 -3.66246 0
M  V30 4056 H 366.704 2.58203 -3.48588 0
M  V30 4057 H 367.375 4.21386 -3.56564 0
M  V30 4058 H 369.851 3.80567 -1.68249 0
M  V30 4059 H 368.727 5.18339 -1.80599 0
M  V30 4060 H 368.988 4.414 -0.248622 0
M  V30 4061 N 368.047 0.979072 1.23499 0
M  V30 4062 C 369.272 0.664845 1.96455 0
M  V30 4063 C 369.697 -0.761287 1.72006 0
M  V30 4064 O 369.055 -1.51837 0.990713 0
M  V30 4065 C 369.103 0.959479 3.47601 0
M  V30 4066 O 368.207 0.0508168 4.12369 0
M  V30 4067 H 367.548 0.250185 0.615064 0
M  V30 4068 H 370.078 1.31231 1.5697 0
M  V30 4069 H 370.088 0.895642 3.98048 0
M  V30 4070 H 368.763 1.99876 3.64723 0
M  V30 4071 H 367.34 0.16895 3.72517 0
M  V30 4072 N 369.525 -1.3858 0.750561 0
M  V30 4073 C 370.771 -2.00481 0.305825 0
M  V30 4074 C 371.104 -1.5944 -1.10872 0
M  V30 4075 O 370.379 -0.83052 -1.75877 0
M  V30 4076 C 370.662 -3.5758 0.425287 0
M  V30 4077 C 370.515 -4.08594 1.88072 0
M  V30 4078 C 371.834 -4.39719 -0.183122 0
M  V30 4079 H 368.953 -0.728348 0.112598 0
M  V30 4080 H 371.595 -1.64566 0.949638 0
M  V30 4081 H 369.745 -3.88306 -0.122828 0
M  V30 4082 H 371.417 -3.88523 2.48691 0
M  V30 4083 H 369.66 -3.61574 2.39681 0
M  V30 4084 H 370.331 -5.177 1.91548 0
M  V30 4085 H 372.807 -4.15128 0.284303 0
M  V30 4086 H 371.683 -5.48856 -0.0692757 0
M  V30 4087 H 371.944 -4.23434 -1.27106 0
M  V30 4088 N 371.003 -0.499398 -1.49478 0
M  V30 4089 C 372.25 0.0456899 -2.02448 0
M  V30 4090 C 372.578 1.37142 -1.37921 0
M  V30 4091 O 371.833 1.89111 -0.503544 0
M  V30 4092 C 372.132 0.248424 -3.56536 0
M  V30 4093 C 371.798 -0.999107 -4.39692 0
M  V30 4094 C 370.46 -1.34108 -4.62135 0
M  V30 4095 C 372.812 -1.82842 -4.88076 0
M  V30 4096 C 370.14 -2.51191 -5.30208 0
M  V30 4097 C 372.492 -2.99076 -5.57437 0
M  V30 4098 C 371.156 -3.33655 -5.78127 0
M  V30 4099 H 370.426 0.0167191 -0.740811 0
M  V30 4100 H 373.073 -0.65923 -1.79795 0
M  V30 4101 H 371.378 1.03586 -3.77859 0
M  V30 4102 H 373.075 0.684605 -3.95113 0
M  V30 4103 H 369.665 -0.722729 -4.22463 0
M  V30 4104 H 373.849 -1.57737 -4.70566 0
M  V30 4105 H 369.105 -2.78221 -5.44429 0
M  V30 4106 H 373.279 -3.63664 -5.93904 0
M  V30 4107 H 370.906 -4.24483 -6.30649 0
M  V30 4108 N 372.481 1.55866 -0.233164 0
M  V30 4109 C 373.73 1.97779 0.39579 0
M  V30 4110 C 374.043 1.12419 1.60066 0
M  V30 4111 O 375.249 1.44283 2.29988 0
M  V30 4112 C 373.705 3.5188 0.755556 0
M  V30 4113 C 373.313 4.45959 -0.427152 0
M  V30 4114 C 375.057 4.02479 1.34946 0
M  V30 4115 C 372.964 5.91383 -0.0443043 0
M  V30 4116 H 371.894 0.738592 0.15165 0
M  V30 4117 H 374.545 1.80486 -0.331212 0
M  V30 4118 H 372.927 3.64816 1.5403 0
M  V30 4119 H 374.101 4.44776 -1.20462 0
M  V30 4120 H 372.416 4.05765 -0.935068 0
M  V30 4121 H 375.013 5.08637 1.649 0
M  V30 4122 H 375.356 3.49014 2.26925 0
M  V30 4123 H 375.889 3.92813 0.62791 0
M  V30 4124 H 372.628 6.48857 -0.930874 0
M  V30 4125 H 372.148 5.95734 0.697238 0
M  V30 4126 H 373.827 6.45893 0.378334 0
M  V30 4127 N 373.959 -0.0401083 1.57549 0
M  V30 4128 C 374.922 -1.02871 2.04817 0
M  V30 4129 C 375.922 -1.29708 0.950388 0
M  V30 4130 O 377.112 -1.24897 1.21435 0
M  V30 4131 C 374.244 -2.36443 2.45576 0
M  V30 4132 H 375.437 -0.620631 2.93408 0
M  V30 4133 H 372.99 -0.286667 1.53649 0
M  V30 4134 H 373.725 -2.82021 1.60108 0
M  V30 4135 H 373.51 -2.18296 3.25713 0
M  V30 4136 H 375 -3.07441 2.82612 0
M  V30 4137 N 375.437 -1.54477 -0.31217 0
M  V30 4138 C 376.677 -1.74958 -1.05684 0
M  V30 4139 C 377.041 -0.518414 -1.84869 0
M  V30 4140 O 378.242 -0.600759 -2.62001 0
M  V30 4141 C 376.513 -2.99656 -1.94785 0
M  V30 4142 S 378.072 -3.4109 -2.76049 0
M  V30 4143 H 374.89 -0.615104 -0.356606 0
M  V30 4144 H 377.492 -1.92669 -0.331514 0
M  V30 4145 H 376.196 -3.87397 -1.35468 0
M  V30 4146 H 375.727 -2.845 -2.71704 0
M  V30 4147 H 377.742 -2.97283 -3.97287 0
M  V30 4148 N 376.915 0.57481 -1.46744 0
M  V30 4149 C 378.161 1.33251 -1.53674 0
M  V30 4150 C 378.516 1.91468 -0.189125 0
M  V30 4151 O 377.809 1.73954 0.803151 0
M  V30 4152 C 378.003 2.476 -2.57738 0
M  V30 4153 C 377.832 2.00586 -4.02487 0
M  V30 4154 C 376.602 1.85237 -4.70123 0
M  V30 4155 C 378.8 1.56078 -4.90045 0
M  V30 4156 N 376.782 1.32377 -5.99458 0
M  V30 4157 C 378.153 1.14863 -6.09267 0
M  V30 4158 C 380.208 1.43968 -4.76632 0
M  V30 4159 C 378.911 0.627435 -7.16558 0
M  V30 4160 C 380.937 0.932512 -5.84002 0
M  V30 4161 C 380.299 0.53019 -7.02402 0
M  V30 4162 H 376.398 0.480284 -0.617131 0
M  V30 4163 H 378.982 0.653592 -1.83402 0
M  V30 4164 H 377.153 3.13045 -2.29907 0
M  V30 4165 H 378.885 3.14567 -2.54616 0
M  V30 4166 H 375.64 2.07423 -4.25761 0
M  V30 4167 H 376.064 1.08085 -6.68316 0
M  V30 4168 H 380.706 1.73689 -3.85476 0
M  V30 4169 H 378.424 0.317821 -8.07475 0
M  V30 4170 H 382.01 0.842611 -5.75666 0
M  V30 4171 H 380.89 0.14381 -7.84068 0
M  V30 4172 N 378.394 1.34581 0.820102 0
M  V30 4173 C 379.619 1.30333 1.61332 0
M  V30 4174 C 380.044 -0.119339 1.87721 0
M  V30 4175 O 379.402 -1.08197 1.45475 0
M  V30 4176 C 379.45 2.10258 2.92957 0
M  V30 4177 O 378.554 1.47404 3.85157 0
M  V30 4178 H 377.895 0.447488 0.490561 0
M  V30 4179 H 380.425 1.77425 1.01889 0
M  V30 4180 H 380.435 2.21718 3.42498 0
M  V30 4181 H 379.11 3.13693 2.73074 0
M  V30 4182 H 377.687 1.44703 3.43679 0
M  V30 4183 N 379.872 -1.04064 1.18357 0
M  V30 4184 C 381.283 -1.58719 0.98312 0
M  V30 4185 C 381.634 -1.90556 -0.467193 0
M  V30 4186 O 380.759 -1.69561 -1.34454 0
M  V30 4187 C 381.354 -2.88379 1.77828 0
M  V30 4188 C 379.913 -3.3965 1.62218 0
M  V30 4189 C 379.06 -2.13235 1.77274 0
M  V30 4190 H 382.011 -0.867359 1.32901 0
M  V30 4191 H 382.032 -3.58773 1.26737 0
M  V30 4192 H 381.544 -2.65176 2.83379 0
M  V30 4193 H 379.645 -3.67866 0.592036 0
M  V30 4194 H 379.758 -4.13475 2.42023 0
M  V30 4195 H 378.122 -2.24542 1.20221 0
M  V30 4196 H 378.905 -1.92487 2.8426 0
M  V30 4197 N 381.35 -0.985608 -1.22978 0
M  V30 4198 C 382.28 -0.549649 -2.26939 0
M  V30 4199 C 383.261 0.419803 -1.64838 0
M  V30 4200 O 384.446 0.31203 -1.91677 0
M  V30 4201 C 381.576 0.143652 -3.47003 0
M  V30 4202 C 380.53 -0.743606 -4.21491 0
M  V30 4203 C 379.856 0.0822027 -5.34637 0
M  V30 4204 C 381.156 -2.03694 -4.80943 0
M  V30 4205 H 382.85 -1.41862 -2.63658 0
M  V30 4206 H 380.396 -0.683571 -1.26741 0
M  V30 4207 H 382.349 0.459985 -4.18882 0
M  V30 4208 H 381.073 1.04711 -3.09359 0
M  V30 4209 H 379.732 -1.04347 -3.51436 0
M  V30 4210 H 379.38 0.986359 -4.93234 0
M  V30 4211 H 379.08 -0.508377 -5.85397 0
M  V30 4212 H 380.604 0.392797 -6.09335 0
M  V30 4213 H 382.018 -1.78504 -5.44802 0
M  V30 4214 H 380.415 -2.57573 -5.42011 0
M  V30 4215 H 381.485 -2.72042 -4.01399 0
M  V30 4216 N 382.828 1.3818 -0.7579 0
M  V30 4217 C 384.075 2.00019 -0.315985 0
M  V30 4218 C 384.403 1.60163 1.10355 0
M  V30 4219 O 383.658 0.83264 1.77103 0
M  V30 4220 C 383.957 3.55252 -0.391218 0
M  V30 4221 C 383.623 4.14834 -1.76702 0
M  V30 4222 C 382.285 4.30821 -2.14353 0
M  V30 4223 C 384.637 4.47658 -2.66931 0
M  V30 4224 C 381.965 4.76928 -3.41696 0
M  V30 4225 C 384.317 4.95184 -3.93669 0
M  V30 4226 C 382.981 5.09377 -4.31383 0
M  V30 4227 H 382.251 0.731923 -0.115627 0
M  V30 4228 H 384.898 1.65161 -0.969223 0
M  V30 4229 H 383.203 3.90273 0.34558 0
M  V30 4230 H 384.9 4.00988 -0.030805 0
M  V30 4231 H 381.49 4.02808 -1.46435 0
M  V30 4232 H 385.674 4.34904 -2.39106 0
M  V30 4233 H 380.93 4.86103 -3.70829 0
M  V30 4234 H 385.104 5.19551 -4.63724 0
M  V30 4235 H 382.731 5.44865 -5.30119 0
M  V30 4236 N 384.306 0.507319 1.49211 0
M  V30 4237 C 385.555 -0.0368315 2.01666 0
M  V30 4238 C 385.868 -1.37459 1.39156 0
M  V30 4239 O 387.074 -2.00579 1.82976 0
M  V30 4240 C 385.53 -0.116089 3.59713 0
M  V30 4241 C 385.138 1.2154 4.31198 0
M  V30 4242 C 386.882 -0.610268 4.2009 0
M  V30 4243 C 384.789 1.09796 5.81119 0
M  V30 4244 H 383.719 -0.0175376 0.753796 0
M  V30 4245 H 386.37 0.647691 1.71689 0
M  V30 4246 H 384.752 -0.8652 3.86433 0
M  V30 4247 H 385.926 1.9783 4.16173 0
M  V30 4248 H 384.241 1.64352 3.82593 0
M  V30 4249 H 386.838 -0.715742 5.29888 0
M  V30 4250 H 387.181 -1.61064 3.8388 0
M  V30 4251 H 387.714 0.0824916 3.97714 0
M  V30 4252 H 384.453 2.0728 6.21864 0
M  V30 4253 H 383.973 0.376058 5.9862 0
M  V30 4254 H 385.652 0.779281 6.4229 0
M  V30 4255 N 385.784 -1.5574 0.241426 0
M  V30 4256 C 386.714 -2.24133 -0.654722 0
M  V30 4257 C 387.695 -1.21974 -1.1856 0
M  V30 4258 O 388.88 -1.50612 -1.22595 0
M  V30 4259 C 386.01 -2.93659 -1.85423 0
M  V30 4260 C 384.964 -4.0246 -1.45636 0
M  V30 4261 C 384.29 -4.59383 -2.73626 0
M  V30 4262 C 385.59 -5.18468 -0.631506 0
M  V30 4263 H 387.284 -2.99281 -0.0844353 0
M  V30 4264 H 384.83 -1.43947 -0.0391707 0
M  V30 4265 H 386.783 -3.40203 -2.48676 0
M  V30 4266 H 385.507 -2.15991 -2.44981 0
M  V30 4267 H 384.166 -3.56676 -0.847202 0
M  V30 4268 H 383.814 -3.78422 -3.3137 0
M  V30 4269 H 383.514 -5.32826 -2.4773 0
M  V30 4270 H 385.038 -5.08658 -3.37786 0
M  V30 4271 H 386.452 -5.61272 -1.1682 0
M  V30 4272 H 384.849 -5.98266 -0.468831 0
M  V30 4273 H 385.919 -4.8358 0.357506 0
M  V30 4274 N 387.262 0.0317525 -1.57568 0
M  V30 4275 C 388.509 0.723104 -1.89149 0
M  V30 4276 C 388.837 1.75504 -0.838377 0
M  V30 4277 O 388.092 1.95037 0.160982 0
M  V30 4278 C 388.391 1.43167 -3.27472 0
M  V30 4279 C 388.057 0.535972 -4.47703 0
M  V30 4280 C 386.719 0.289262 -4.8033 0
M  V30 4281 C 389.071 -0.0826125 -5.21135 0
M  V30 4282 C 386.399 -0.584853 -5.83778 0
M  V30 4283 C 388.751 -0.944414 -6.25511 0
M  V30 4284 C 387.415 -1.20061 -6.56614 0
M  V30 4285 H 386.685 0.264602 -0.692146 0
M  V30 4286 H 389.332 -0.0169496 -1.91492 0
M  V30 4287 H 387.637 2.24497 -3.21105 0
M  V30 4288 H 389.334 1.97209 -3.49155 0
M  V30 4289 H 385.924 0.738414 -4.22191 0
M  V30 4290 H 390.108 0.0950302 -4.96209 0
M  V30 4291 H 385.364 -0.79168 -6.06253 0
M  V30 4292 H 389.538 -1.43026 -6.81554 0
M  V30 4293 H 387.165 -1.87967 -7.36595 0
M  V30 4294 N 388.74 1.54641 0.303973 0
M  V30 4295 C 389.67 1.88386 1.3796 0
M  V30 4296 C 390.651 0.742485 1.5304 0
M  V30 4297 O 391.836 0.997959 1.66597 0
M  V30 4298 C 388.966 2.12854 2.74427 0
M  V30 4299 C 387.92 3.28702 2.74115 0
M  V30 4300 C 387.246 3.38582 4.13844 0
M  V30 4301 C 388.546 4.65881 2.3612 0
M  V30 4302 H 390.24 2.78474 1.09966 0
M  V30 4303 H 387.786 1.33988 0.527556 0
M  V30 4304 H 389.739 2.35047 3.49758 0
M  V30 4305 H 388.463 1.19535 3.03939 0
M  V30 4306 H 387.122 3.06428 2.0124 0
M  V30 4307 H 386.77 2.42784 4.40528 0
M  V30 4308 H 386.47 4.16453 4.14537 0
M  V30 4309 H 387.994 3.63031 4.90959 0
M  V30 4310 H 389.408 4.87823 3.01167 0
M  V30 4311 H 387.805 5.46444 2.48031 0
M  V30 4312 H 388.875 4.66799 1.3125 0
M  V30 4313 N 390.218 -0.567019 1.47046 0
M  V30 4314 C 391.467 -1.32091 1.5243 0
M  V30 4315 C 391.78 -1.94704 0.187021 0
M  V30 4316 O 392.986 -2.7124 0.118771 0
M  V30 4317 C 391.442 -2.39479 2.68659 0
M  V30 4318 C 391.05 -1.831 4.08874 0
M  V30 4319 C 392.794 -3.16111 2.83327 0
M  V30 4320 C 390.701 -2.8821 5.16419 0
M  V30 4321 H 389.631 -0.496629 0.56734 0
M  V30 4322 H 392.282 -0.603354 1.73297 0
M  V30 4323 H 390.664 -3.14105 2.41152 0
M  V30 4324 H 391.838 -1.14913 4.46242 0
M  V30 4325 H 390.153 -1.19085 3.99008 0
M  V30 4326 H 392.75 -3.94585 3.60842 0
M  V30 4327 H 393.093 -3.69686 1.91411 0
M  V30 4328 H 393.626 -2.48595 3.10556 0
M  V30 4329 H 390.365 -2.39504 6.10179 0
M  V30 4330 H 389.885 -3.54839 4.8358 0
M  V30 4331 H 391.564 -3.51881 5.42945 0
M  V30 4332 N 391.696 -1.35014 -0.812953 0
M  V30 4333 C 392.973 -1.18502 -1.55617 0
M  V30 4334 C 393.353 0.238421 -2.09749 0
M  V30 4335 O 392.701 1.2411 -1.91857 0
M  V30 4336 C 392.911 -2.24783 -2.66971 0
M  V30 4337 C 394.259 -2.60268 -3.35478 0
M  V30 4338 O 395.283 -2.23648 -2.77236 0
M  V30 4339 O 394.142 -3.2321 -4.40678 0
M  V30 4340 H 391.236 -0.459984 -0.687272 0
M  V30 4341 H 393.782 -1.46677 -0.853464 0
M  V30 4342 H 392.554 -3.20284 -2.24798 0
M  V30 4343 H 392.177 -1.97841 -3.44884 0
M  V30 4344 N 393.175 1.03435 -1.18907 0
M  V30 4345 C 394.421 1.77005 -0.989798 0
M  V30 4346 C 394.754 1.88205 0.478816 0
M  V30 4347 O 394.029 1.39481 1.35556 0
M  V30 4348 C 394.312 3.19925 -1.65287 0
M  V30 4349 C 394.165 3.1663 -3.19477 0
M  V30 4350 C 395.484 4.18189 -1.37134 0
M  V30 4351 H 392.603 0.642538 -0.360991 0
M  V30 4352 H 395.245 1.20784 -1.46667 0
M  V30 4353 H 393.395 3.67929 -1.24741 0
M  V30 4354 H 395.067 2.76567 -3.692 0
M  V30 4355 H 393.31 2.54491 -3.51307 0
M  V30 4356 H 393.981 4.1758 -3.61013 0
M  V30 4357 H 396.457 3.78761 -1.72276 0
M  V30 4358 H 395.333 5.16394 -1.86087 0
M  V30 4359 H 395.594 4.41112 -0.295424 0
M  V30 4360 N 394.653 0.992116 1.22453 0
M  V30 4361 C 395.616 0.546883 2.2258 0
M  V30 4362 C 396.616 -0.369829 1.56489 0
M  V30 4363 O 397.806 -0.161896 1.73446 0
M  V30 4364 C 394.938 -0.204659 3.40285 0
M  V30 4365 H 396.131 1.43234 2.63484 0
M  V30 4366 H 393.684 0.779239 1.3549 0
M  V30 4367 H 394.419 -1.10614 3.04853 0
M  V30 4368 H 394.204 0.45354 3.89468 0
M  V30 4369 H 395.694 -0.504358 4.14543 0
M  V30 4370 N 396.131 -1.37776 0.765217 0
M  V30 4371 C 397.371 -2.01691 0.331669 0
M  V30 4372 C 397.735 -1.59432 -1.06983 0
M  V30 4373 O 398.936 -2.15761 -1.60314 0
M  V30 4374 C 397.207 -3.54385 0.463261 0
M  V30 4375 S 398.766 -4.38652 0.114011 0
M  V30 4376 H 395.584 -0.699387 0.127979 0
M  V30 4377 H 398.186 -1.68084 0.998396 0
M  V30 4378 H 396.89 -3.82629 1.48401 0
M  V30 4379 H 396.421 -3.92783 -0.220246 0
M  V30 4380 H 398.436 -4.84021 -1.09261 0
M  V30 4381 N 397.609 -0.515225 -1.4894 0
M  V30 4382 C 399.025 -0.172099 -1.58669 0
M  V30 4383 C 399.225 1.32405 -1.51892 0
M  V30 4384 O 398.281 2.10116 -1.40027 0
M  V30 4385 C 399.594 -0.761533 -2.90897 0
M  V30 4386 C 401.142 -0.728926 -3.04394 0
M  V30 4387 C 401.617 -1.29667 -4.39261 0
M  V30 4388 N 403.108 -1.25799 -4.4579 0
M  V30 4389 C 403.843 -1.66733 -5.48623 0
M  V30 4390 N 403.339 -2.15327 -6.58488 0
M  V30 4391 N 405.132 -1.58061 -5.39419 0
M  V30 4392 H 397.283 -1.48778 -1.51588 0
M  V30 4393 H 399.546 -0.617968 -0.718901 0
M  V30 4394 H 399.252 -1.81136 -3.01468 0
M  V30 4395 H 399.126 -0.230106 -3.76497 0
M  V30 4396 H 401.513 0.312098 -2.93445 0
M  V30 4397 H 401.594 -1.29766 -2.20442 0
M  V30 4398 H 401.238 -2.33655 -4.50963 0
M  V30 4399 H 401.168 -0.703752 -5.21876 0
M  V30 4400 H 403.659 -0.902102 -3.66975 0
M  V30 4401 H 403.972 -2.44594 -7.33071 0
M  V30 4402 H 402.317 -2.19311 -6.59491 0
M  V30 4403 H 405.508 -1.19906 -4.52482 0
M  V30 4404 H 405.681 -1.90284 -6.19432 0
M  V30 4405 N 399.087 1.5561 -0.249682 0
M  V30 4406 C 400.333 1.99306 0.374841 0
M  V30 4407 C 400.666 1.13767 1.57387 0
M  V30 4408 O 399.941 0.201711 1.93451 0
M  V30 4409 C 400.224 3.51507 0.781986 0
M  V30 4410 C 400.077 4.4781 -0.422629 0
M  V30 4411 C 401.396 4.08884 1.62793 0
M  V30 4412 H 398.515 0.724572 0.134773 0
M  V30 4413 H 401.157 1.86719 -0.351549 0
M  V30 4414 H 399.307 3.62363 1.4009 0
M  V30 4415 H 400.979 4.48931 -1.06108 0
M  V30 4416 H 399.222 4.20518 -1.06524 0
M  V30 4417 H 399.893 5.51919 -0.0943766 0
M  V30 4418 H 402.369 4.01147 1.10547 0
M  V30 4419 H 401.245 5.1564 1.88166 0
M  V30 4420 H 401.506 3.57515 2.60068 0
M  V30 4421 N 400.565 -0.0233959 1.57583 0
M  V30 4422 C 401.497 -1.04994 2.03737 0
M  V30 4423 C 402.51 -1.32125 0.951152 0
M  V30 4424 O 403.699 -1.29512 1.22837 0
M  V30 4425 C 400.799 -2.39026 2.40249 0
M  V30 4426 C 399.972 -2.31171 3.7132 0
M  V30 4427 C 399.031 -3.47698 3.94959 0
M  V30 4428 O 398.057 -3.26937 4.65941 0
M  V30 4429 N 399.259 -4.6976 3.41037 0
M  V30 4430 H 402.024 -0.656507 2.92421 0
M  V30 4431 H 399.585 -0.211235 1.60516 0
M  V30 4432 H 401.577 -3.15712 2.53196 0
M  V30 4433 H 400.147 -2.70194 1.57207 0
M  V30 4434 H 399.367 -1.39547 3.68674 0
M  V30 4435 H 400.655 -2.23071 4.57293 0
M  V30 4436 H 400.053 -4.89528 2.83512 0
M  V30 4437 H 398.61 -5.43791 3.59353 0
M  V30 4438 N 402.043 -1.548 -0.295768 0
M  V30 4439 C 403.006 -1.85363 -1.34808 0
M  V30 4440 C 404.006 -0.726817 -1.43436 0
M  V30 4441 O 405.196 -0.995088 -1.42981 0
M  V30 4442 C 402.328 -2.03859 -2.73229 0
M  V30 4443 H 403.521 -2.7941 -1.08949 0
M  V30 4444 H 401.074 -1.46942 -0.532702 0
M  V30 4445 H 401.809 -1.12117 -3.04303 0
M  V30 4446 H 401.594 -2.8588 -2.68356 0
M  V30 4447 H 403.084 -2.28857 -3.49305 0
M  V30 4448 N 403.521 0.559213 -1.47345 0
M  V30 4449 C 404.761 1.32728 -1.55444 0
M  V30 4450 C 405.125 1.90838 -0.210895 0
M  V30 4451 O 406.326 2.68282 -0.166719 0
M  V30 4452 C 404.597 2.4092 -2.63993 0
M  V30 4453 S 406.156 3.2784 -2.91661 0
M  V30 4454 H 402.974 0.451883 -0.548929 0
M  V30 4455 H 405.576 0.640404 -1.84714 0
M  V30 4456 H 404.28 1.9666 -3.60212 0
M  V30 4457 H 403.811 3.14351 -2.36531 0
M  V30 4458 H 405.826 4.40341 -2.28722 0
M  V30 4459 N 404.999 1.35443 0.805782 0
M  V30 4460 C 406.41 1.25768 1.37983 0
M  V30 4461 C 406.761 -0.10958 1.95894 0
M  V30 4462 O 405.886 -1.01056 1.91355 0
M  V30 4463 C 406.481 2.27727 2.5085 0
M  V30 4464 C 405.04 2.2179 3.04115 0
M  V30 4465 C 404.187 2.13393 1.77084 0
M  V30 4466 H 407.138 1.4656 0.608752 0
M  V30 4467 H 407.159 1.90422 3.29424 0
M  V30 4468 H 406.671 3.27227 2.08671 0
M  V30 4469 H 404.772 1.25703 3.50756 0
M  V30 4470 H 404.885 3.13788 3.62042 0
M  V30 4471 H 403.249 1.59384 1.98668 0
M  V30 4472 H 404.032 3.14755 1.37056 0
M  V30 4473 N 406.477 -1.02803 1.19454 0
M  V30 4474 C 407.726 -1.7562 0.991996 0
M  V30 4475 C 408.039 -1.89672 -0.477901 0
M  V30 4476 O 409.245 -2.59468 -0.799287 0
M  V30 4477 C 407.701 -3.15812 1.72601 0
M  V30 4478 C 407.309 -3.0981 3.23607 0
M  V30 4479 C 409.053 -3.92918 1.60674 0
M  V30 4480 C 406.96 -4.44939 3.89594 0
M  V30 4481 H 405.89 -0.658352 0.367543 0
M  V30 4482 H 408.541 -1.15044 1.42959 0
M  V30 4483 H 406.923 -3.7686 1.21624 0
M  V30 4484 H 408.097 -2.58138 3.81709 0
M  V30 4485 H 406.412 -2.46201 3.35819 0
M  V30 4486 H 409.009 -4.9287 2.07323 0
M  V30 4487 H 409.352 -4.12502 0.561025 0
M  V30 4488 H 409.885 -3.38472 2.09001 0
M  V30 4489 H 406.624 -4.30559 4.94267 0
M  V30 4490 H 406.144 -4.96664 3.36281 0
M  V30 4491 H 407.823 -5.1382 3.93189 0
M  V30 4492 N 407.956 -0.998596 -1.21925 0
M  V30 4493 C 408.886 -0.573688 -2.26343 0
M  V30 4494 C 409.867 0.402296 -1.65274 0
M  V30 4495 O 411.052 0.291683 -1.91997 0
M  V30 4496 C 408.182 0.106839 -3.47136 0
M  V30 4497 C 407.136 -0.788269 -4.20678 0
M  V30 4498 C 406.462 0.0254927 -5.34694 0
M  V30 4499 C 407.762 -2.08784 -4.78755 0
M  V30 4500 H 409.456 -1.44651 -2.62138 0
M  V30 4501 H 407.002 -0.696975 -1.26009 0
M  V30 4502 H 408.955 0.415531 -4.19346 0
M  V30 4503 H 407.679 1.01424 -3.10452 0
M  V30 4504 H 406.338 -1.08069 -3.50309 0
M  V30 4505 H 405.986 0.933989 -4.94253 0
M  V30 4506 H 405.686 -0.570437 -5.84825 0
M  V30 4507 H 407.21 0.328147 -6.09718 0
M  V30 4508 H 408.624 -1.84272 -5.42878 0
M  V30 4509 H 407.021 -2.63307 -5.39249 0
M  V30 4510 H 408.091 -2.76284 -3.98491 0
M  V30 4511 N 409.434 1.37368 -0.772513 0
M  V30 4512 C 410.681 1.99673 -0.337182 0
M  V30 4513 C 411.009 1.61324 1.0865 0
M  V30 4514 O 410.264 0.851377 1.7621 0
M  V30 4515 C 410.563 3.54817 -0.428876 0
M  V30 4516 C 410.229 4.12936 -1.81092 0
M  V30 4517 C 408.891 4.28523 -2.1891 0
M  V30 4518 C 411.243 4.44801 -2.71664 0
M  V30 4519 C 408.571 4.73277 -3.46735 0
M  V30 4520 C 410.923 4.90981 -3.98899 0
M  V30 4521 C 409.587 5.04773 -4.36761 0
M  V30 4522 H 408.857 0.730656 -0.123384 0
M  V30 4523 H 411.504 1.64124 -0.986686 0
M  V30 4524 H 409.809 3.90618 0.304167 0
M  V30 4525 H 411.506 4.00933 -0.0733334 0
M  V30 4526 H 408.096 4.01233 -1.50699 0
M  V30 4527 H 412.28 4.32344 -2.43706 0
M  V30 4528 H 407.536 4.82142 -3.75964 0
M  V30 4529 H 411.71 5.14603 -4.69208 0
M  V30 4530 H 409.337 5.39211 -5.35868 0
M  V30 4531 N 410.912 0.523116 1.48665 0
M  V30 4532 C 411.859 -0.243398 2.29513 0
M  V30 4533 C 412.829 -0.940139 1.36933 0
M  V30 4534 O 414.014 -0.942503 1.65896 0
M  V30 4535 C 411.154 -1.28855 3.20141 0
M  V30 4536 C 410.267 -0.60135 4.27794 0
M  V30 4537 C 409.402 -1.62884 5.05611 0
M  V30 4538 C 408.441 -0.924726 6.05075 0
M  V30 4539 N 407.578 -1.89744 6.75975 0
M  V30 4540 H 412.418 0.452234 2.94549 0
M  V30 4541 H 409.955 0.234858 1.45213 0
M  V30 4542 H 411.913 -1.90674 3.71079 0
M  V30 4543 H 410.543 -1.95266 2.57043 0
M  V30 4544 H 409.595 0.130623 3.80176 0
M  V30 4545 H 410.907 -0.0481585 4.98777 0
M  V30 4546 H 410.061 -2.32149 5.60528 0
M  V30 4547 H 408.8 -2.21592 4.34452 0
M  V30 4548 H 407.805 -0.217966 5.49368 0
M  V30 4549 H 409.03 -0.343851 6.78229 0
M  V30 4550 H 406.976 -2.47373 6.07571 0
M  V30 4551 H 406.893 -1.3955 7.43009 0
M  V30 4552 H 408.161 -2.58229 7.35485 0
M  V30 4553 N 412.39 -1.55475 0.257931 0
M  V30 4554 C 413.353 -2.20551 -0.623706 0
M  V30 4555 C 414.353 -1.17809 -1.09443 0
M  V30 4556 O 415.543 -1.42823 -0.997362 0
M  V30 4557 C 412.675 -2.85784 -1.8585 0
M  V30 4558 H 413.868 -2.99848 -0.0557743 0
M  V30 4559 H 411.421 -1.56298 0.0084422 0
M  V30 4560 H 412.156 -2.10453 -2.46739 0
M  V30 4561 H 411.941 -3.61057 -1.52907 0
M  V30 4562 H 413.431 -3.35553 -2.48584 0
M  V30 4563 N 413.868 0.0150385 -1.57593 0
M  V30 4564 C 414.8 1.03912 -2.04291 0
M  V30 4565 C 415.813 1.31618 -0.958146 0
M  V30 4566 O 417.002 1.28859 -1.23522 0
M  V30 4567 C 414.102 2.37749 -2.41514 0
M  V30 4568 C 413.275 2.29198 -3.72541 0
M  V30 4569 C 412.334 3.45598 -3.96797 0
M  V30 4570 O 411.36 3.24461 -4.67668 0
M  V30 4571 N 412.562 4.67945 -3.43523 0
M  V30 4572 H 415.327 0.64099 -2.92765 0
M  V30 4573 H 412.888 0.20272 -1.60626 0
M  V30 4574 H 414.88 3.14364 -2.54867 0
M  V30 4575 H 413.45 2.69357 -1.58637 0
M  V30 4576 H 412.67 1.3759 -3.69408 0
M  V30 4577 H 413.958 2.20642 -4.5847 0
M  V30 4578 H 413.356 4.88017 -2.86104 0
M  V30 4579 H 411.913 5.41878 -3.62232 0
M  V30 4580 N 415.346 1.54954 0.287554 0
M  V30 4581 C 416.592 1.76059 1.01856 0
M  V30 4582 C 416.947 0.547056 1.84459 0
M  V30 4583 O 416.24 -0.460442 1.85985 0
M  V30 4584 C 416.434 2.99833 1.94512 0
M  V30 4585 C 416.263 4.33108 1.21026 0
M  V30 4586 C 415.033 4.96632 0.931896 0
M  V30 4587 C 417.231 5.10694 0.607949 0
M  V30 4588 N 415.213 6.13668 0.168716 0
M  V30 4589 C 416.584 6.19996 -0.0217865 0
M  V30 4590 C 418.639 4.95236 0.514338 0
M  V30 4591 C 417.342 7.15524 -0.736092 0
M  V30 4592 C 419.368 5.91106 -0.186343 0
M  V30 4593 C 418.73 6.99786 -0.804875 0
M  V30 4594 H 414.829 0.696679 0.355193 0
M  V30 4595 H 417.413 1.92441 0.295741 0
M  V30 4596 H 415.584 2.84853 2.64033 0
M  V30 4597 H 417.316 3.09405 2.60865 0
M  V30 4598 H 414.071 4.57255 1.23348 0
M  V30 4599 H 414.495 6.76705 -0.199781 0
M  V30 4600 H 419.137 4.11328 0.978234 0
M  V30 4601 H 416.855 7.98964 -1.21172 0
M  V30 4602 H 420.441 5.81224 -0.258897 0
M  V30 4603 H 419.321 7.72694 -1.33843 0
M  V30 4604 N 416.824 -0.551391 1.4764 0
M  V30 4605 C 418.071 -1.3083 1.54563 0
M  V30 4606 C 418.399 -1.93359 0.210361 0
M  V30 4607 O 417.654 -1.78721 -0.797332 0
M  V30 4608 C 417.953 -2.43469 2.61644 0
M  V30 4609 C 417.619 -1.98732 4.04742 0
M  V30 4610 C 416.281 -1.86248 4.43695 0
M  V30 4611 C 418.633 -1.64659 4.94507 0
M  V30 4612 C 415.961 -1.37995 5.70241 0
M  V30 4613 C 418.313 -1.17875 6.21521 0
M  V30 4614 C 416.977 -1.03992 6.5935 0
M  V30 4615 H 416.247 -0.478741 0.565587 0
M  V30 4616 H 418.894 -0.617697 1.81264 0
M  V30 4617 H 417.199 -3.18109 2.28722 0
M  V30 4618 H 418.896 -3.01642 2.64222 0
M  V30 4619 H 415.486 -2.09393 3.73968 0
M  V30 4620 H 419.67 -1.73174 4.65107 0
M  V30 4621 H 414.926 -1.25915 5.98294 0
M  V30 4622 H 419.1 -0.905739 6.90485 0
M  V30 4623 H 416.727 -0.663794 7.57296 0
M  V30 4624 N 418.302 -1.35869 -0.798587 0
M  V30 4625 C 419.551 -1.28921 -1.5512 0
M  V30 4626 C 419.864 0.13208 -1.95154 0
M  V30 4627 O 421.07 0.323879 -2.69561 0
M  V30 4628 C 419.526 -2.26141 -2.79979 0
M  V30 4629 C 419.134 -3.73658 -2.47151 0
M  V30 4630 C 420.878 -2.28152 -3.57976 0
M  V30 4631 C 418.785 -4.62679 -3.6835 0
M  V30 4632 H 417.715 -0.479031 -0.582276 0
M  V30 4633 H 420.366 -1.61179 -0.877125 0
M  V30 4634 H 418.748 -1.86865 -3.49138 0
M  V30 4635 H 419.922 -4.21616 -1.85947 0
M  V30 4636 H 418.237 -3.74333 -1.82383 0
M  V30 4637 H 420.834 -2.91875 -4.4801 0
M  V30 4638 H 421.177 -1.28748 -3.95891 0
M  V30 4639 H 421.71 -2.65998 -2.95787 0
M  V30 4640 H 418.449 -5.63111 -3.35538 0
M  V30 4641 H 417.969 -4.19442 -4.28752 0
M  V30 4642 H 419.648 -4.78498 -4.35487 0
M  V30 4643 N 419.78 1.02168 -1.19998 0
M  V30 4644 C 421.026 1.75945 -1.00852 0
M  V30 4645 C 421.359 1.88702 0.458828 0
M  V30 4646 O 420.634 1.40911 1.34069 0
M  V30 4647 C 420.917 3.18154 -1.68671 0
M  V30 4648 C 420.77 3.13224 -3.22817 0
M  V30 4649 C 422.089 4.16711 -1.41561 0
M  V30 4650 H 419.208 0.638673 -0.367785 0
M  V30 4651 H 421.85 1.19222 -1.4794 0
M  V30 4652 H 420 3.66586 -1.28636 0
M  V30 4653 H 421.672 2.72635 -3.72112 0
M  V30 4654 H 419.915 2.50751 -3.53986 0
M  V30 4655 H 420.586 4.13728 -3.65422 0
M  V30 4656 H 423.062 3.76913 -1.76284 0
M  V30 4657 H 421.938 5.14391 -1.91553 0
M  V30 4658 H 422.199 4.40774 -0.342193 0
M  V30 4659 N 421.258 1.00505 1.21394 0
M  V30 4660 C 422.188 0.585684 2.26035 0
M  V30 4661 C 423.169 -0.393525 1.65485 0
M  V30 4662 O 424.354 -0.281497 1.92149 0
M  V30 4663 C 421.484 -0.0884283 3.47187 0
M  V30 4664 C 420.438 0.810567 4.20254 0
M  V30 4665 C 419.764 0.00286382 5.347 0
M  V30 4666 C 421.064 2.1132 4.77641 0
M  V30 4667 H 422.758 1.46039 2.61368 0
M  V30 4668 H 420.304 0.703648 1.25638 0
M  V30 4669 H 422.257 -0.393286 4.19561 0
M  V30 4670 H 420.981 -0.997766 3.10986 0
M  V30 4671 H 419.64 1.09925 3.49731 0
M  V30 4672 H 419.288 -0.907765 4.94741 0
M  V30 4673 H 418.988 0.601444 5.84514 0
M  V30 4674 H 420.512 -0.295808 6.09883 0
M  V30 4675 H 421.926 1.87148 5.41893 0
M  V30 4676 H 420.323 2.66164 5.37845 0
M  V30 4677 H 421.393 2.78393 3.9702 0
M  V30 4678 N 422.737 -1.36956 0.779787 0
M  V30 4679 C 423.7 -2.2851 0.177662 0
M  V30 4680 C 424.7 -1.48393 -0.619377 0
M  V30 4681 O 425.89 -1.68505 -0.441785 0
M  V30 4682 C 423.022 -3.32428 -0.755279 0
M  V30 4683 H 424.215 -2.83269 0.984823 0
M  V30 4684 H 421.768 -1.46358 0.548544 0
M  V30 4685 H 422.503 -2.82808 -1.58714 0
M  V30 4686 H 422.288 -3.91659 -0.185817 0
M  V30 4687 H 423.778 -4.00824 -1.17174 0
M  V30 4688 N 424.215 -0.530993 -1.48385 0
M  V30 4689 C 425.461 0.00274135 -2.028 0
M  V30 4690 C 425.794 1.33838 -1.40716 0
M  V30 4691 O 425.069 1.86465 -0.553277 0
M  V30 4692 C 425.352 0.123676 -3.59888 0
M  V30 4693 C 425.205 -1.2372 -4.3245 0
M  V30 4694 C 426.524 0.849967 -4.31814 0
M  V30 4695 H 423.643 -0.000477758 -0.737 0
M  V30 4696 H 426.285 -0.688217 -1.77098 0
M  V30 4697 H 424.435 0.712157 -3.81917 0
M  V30 4698 H 426.107 -1.86687 -4.21836 0
M  V30 4699 H 424.35 -1.81882 -3.93829 0
M  V30 4700 H 425.021 -1.10557 -5.40815 0
M  V30 4701 H 427.497 0.350572 -4.14621 0
M  V30 4702 H 426.373 0.903486 -5.41413 0
M  V30 4703 H 426.634 1.90047 -3.99167 0
M  V30 4704 N 425.693 1.55336 -0.266172 0
M  V30 4705 C 426.623 2.25146 0.618981 0
M  V30 4706 C 427.604 1.23845 1.16604 0
M  V30 4707 O 428.789 1.52544 1.20183 0
M  V30 4708 C 425.919 2.96572 1.80728 0
M  V30 4709 C 424.873 4.04726 1.39215 0
M  V30 4710 C 424.199 4.63678 2.66283 0
M  V30 4711 C 425.499 5.19407 0.548942 0
M  V30 4712 H 427.193 2.99377 0.0368116 0
M  V30 4713 H 424.739 1.43991 0.0162651 0
M  V30 4714 H 426.692 3.44116 2.43232 0
M  V30 4715 H 425.416 2.19861 2.41514 0
M  V30 4716 H 424.075 3.57979 0.790351 0
M  V30 4717 H 423.723 3.83646 3.25308 0
M  V30 4718 H 423.423 5.367 2.39222 0
M  V30 4719 H 424.947 5.13967 3.29651 0
M  V30 4720 H 426.361 5.63059 1.07876 0
M  V30 4721 H 424.758 5.98936 0.373593 0
M  V30 4722 H 425.828 4.8295 -0.434394 0
M  V30 4723 N 427.171 -0.0066808 1.57599 0
M  V30 4724 C 428.119 -1.01851 2.09115 0
M  V30 4725 C 429.113 -1.36021 1.00969 0
M  V30 4726 O 430.319 -1.34663 1.19439 0
M  V30 4727 H 426.694 -0.346083 0.667631 0
M  V30 4728 H 428.665 -0.558394 2.93129 0
M  V30 4729 C 427.414 -2.30374 2.60429 0
M  V30 4730 H 426.737 -2.04947 3.43273 0
M  V30 4731 H 428.177 -2.99466 3.00161 0
M  V30 4732 C 426.636 -3.00893 1.51542 0
M  V30 4733 O 427.166 -3.91614 0.894484 0
M  V30 4734 N 425.372 -2.62603 1.2445 0
M  V30 4735 H 424.919 -1.88911 1.75129 0
M  V30 4736 H 424.877 -3.10101 0.518137 0
M  V30 4737 N 428.649 -1.55105 -0.279332 0
M  V30 4738 C 429.874 -1.7976 -1.03446 0
M  V30 4739 C 430.299 -0.565952 -1.79384 0
M  V30 4740 O 429.657 0.484259 -1.74713 0
M  V30 4741 C 429.705 -3.0179 -1.97371 0
M  V30 4742 O 428.809 -2.76432 -3.06038 0
M  V30 4743 H 428.15 -0.594334 -0.29608 0
M  V30 4744 H 430.68 -2.02235 -0.310165 0
M  V30 4745 H 430.69 -3.30351 -2.39441 0
M  V30 4746 H 429.365 -3.91085 -1.4151 0
M  V30 4747 H 427.942 -2.58949 -2.68328 0
M  V30 4748 N 430.127 0.543554 -1.4793 0
M  V30 4749 C 431.09 1.63156 -1.60975 0
M  V30 4750 C 432.09 1.53346 -0.483899 0
M  V30 4751 O 433.28 1.5726 -0.749339 0
M  V30 4752 C 430.412 3.02743 -1.56716 0
M  V30 4753 H 431.605 1.52934 -2.57975 0
M  V30 4754 H 429.158 0.764557 -1.36324 0
M  V30 4755 H 429.893 3.18484 -0.611418 0
M  V30 4756 H 429.678 3.11272 -2.38438 0
M  V30 4757 H 431.168 3.81871 -1.6901 0
M  V30 4758 N 431.605 1.3629 0.791371 0
M  V30 4759 C 432.538 1.24816 1.9104 0
M  V30 4760 C 433.516 0.132739 1.62057 0
M  V30 4761 O 434.7 0.303527 1.8604 0
M  V30 4762 C 431.827 0.925355 3.25814 0
M  V30 4763 C 430.873 2.05495 3.7373 0
M  V30 4764 S 431.706 3.67255 3.89723 0
M  V30 4765 C 432.862 3.37084 5.27376 0
M  V30 4766 H 433.095 2.19533 2.00481 0
M  V30 4767 H 430.628 1.21684 0.950393 0
M  V30 4768 H 432.586 0.745924 4.03666 0
M  V30 4769 H 431.247 -0.00400098 3.141 0
M  V30 4770 H 430.44 1.7836 4.71385 0
M  V30 4771 H 430.042 2.1935 3.02922 0
M  V30 4772 H 432.334 2.90856 6.1189 0
M  V30 4773 H 433.277 4.33995 5.59512 0
M  V30 4774 H 433.685 2.7248 4.94383 0
M  V30 4775 N 433.083 -1.0153 1.20538 0
M  V30 4776 C 434.031 -2.12215 0.952235 0
M  V30 4777 C 435.025 -1.69123 -0.0968735 0
M  V30 4778 O 436.231 -1.7992 0.0536006 0
M  V30 4779 H 432.606 -0.693576 0.290613 0
M  V30 4780 H 434.577 -2.3075 1.89201 0
M  V30 4781 C 433.326 -3.43755 0.522287 0
M  V30 4782 H 432.649 -3.7734 1.32115 0
M  V30 4783 H 434.089 -4.22254 0.384389 0
M  V30 4784 C 432.548 -3.28088 -0.765489 0
M  V30 4785 O 433.078 -3.57921 -1.8236 0
M  V30 4786 N 431.284 -2.81333 -0.728011 0
M  V30 4787 H 430.831 -2.57255 0.133332 0
M  V30 4788 H 430.789 -2.71232 -1.58999 0
M  V30 4789 N 434.561 -1.01147 -1.20859 0
M  V30 4790 C 435.972 -0.730205 -1.71828 0
M  V30 4791 C 436.323 0.751662 -1.8123 0
M  V30 4792 O 435.448 1.58686 -1.47132 0
M  V30 4793 C 436.043 -1.31885 -3.12077 0
M  V30 4794 C 434.602 -1.08656 -3.60376 0
M  V30 4795 C 433.749 -1.42769 -2.37723 0
M  V30 4796 H 436.7 -1.18158 -1.05945 0
M  V30 4797 H 436.721 -0.706793 -3.73878 0
M  V30 4798 H 436.233 -2.39737 -3.05201 0
M  V30 4799 H 434.334 -0.0254814 -3.72591 0
M  V30 4800 H 434.447 -1.76301 -4.45483 0
M  V30 4801 H 432.811 -0.846603 -2.40218 0
M  V30 4802 H 433.594 -2.51666 -2.33493 0
M  V30 4803 N 436.039 1.36541 -0.78704 0
M  V30 4804 C 437.285 1.99599 -0.358872 0
M  V30 4805 C 437.618 1.62323 1.06606 0
M  V30 4806 O 436.893 0.876858 1.73613 0
M  V30 4807 C 437.176 3.56327 -0.519944 0
M  V30 4808 C 437.029 4.03464 -1.98839 0
M  V30 4809 C 438.348 4.4005 0.0664737 0
M  V30 4810 H 435.467 0.725107 -0.131869 0
M  V30 4811 H 438.109 1.6199 -0.992936 0
M  V30 4812 H 436.259 3.88495 0.0198321 0
M  V30 4813 H 437.931 3.81793 -2.58905 0
M  V30 4814 H 436.174 3.55092 -2.49183 0
M  V30 4815 H 436.845 5.12439 -2.05207 0
M  V30 4816 H 439.321 4.14228 -0.394267 0
M  V30 4817 H 438.197 5.48847 -0.0762682 0
M  V30 4818 H 438.458 4.26655 1.15835 0
M  V30 4819 N 437.518 0.538854 1.48102 0
M  V30 4820 C 438.767 0.0059532 2.01699 0
M  V30 4821 C 439.08 -1.34476 1.42041 0
M  V30 4822 O 440.286 -1.96653 1.87189 0
M  V30 4823 C 438.742 -0.0397627 3.59878 0
M  V30 4824 C 438.35 1.30659 4.28523 0
M  V30 4825 C 440.094 -0.521024 4.2129 0
M  V30 4826 C 438.001 1.22098 5.78659 0
M  V30 4827 H 436.931 -0.00154456 0.753998 0
M  V30 4828 H 439.582 0.683963 1.70277 0
M  V30 4829 H 437.964 -0.783037 3.88181 0
M  V30 4830 H 439.138 2.06613 4.11883 0
M  V30 4831 H 437.453 1.7243 3.79021 0
M  V30 4832 H 440.05 -0.603184 5.31287 0
M  V30 4833 H 440.393 -1.52885 3.8721 0
M  V30 4834 H 440.926 0.166834 3.9745 0
M  V30 4835 H 437.665 2.20424 6.17328 0
M  V30 4836 H 437.185 0.50295 5.97688 0
M  V30 4837 H 438.864 0.915345 6.40492 0
M  V30 4838 N 438.996 -1.55193 0.274407 0
M  V30 4839 C 440.226 -2.03692 -0.345442 0
M  V30 4840 C 440.634 -1.15224 -1.50067 0
M  V30 4841 O 439.977 -0.164749 -1.8296 0
M  V30 4842 C 440.039 -3.48325 -0.88939 0
M  V30 4843 C 439.703 -4.56794 0.137115 0
M  V30 4844 C 440.7 -5.11028 0.956378 0
M  V30 4845 C 438.385 -5.01568 0.27115 0
M  V30 4846 C 440.379 -6.08552 1.89587 0
M  V30 4847 C 438.066 -5.98918 1.21412 0
M  V30 4848 C 439.064 -6.52291 2.02498 0
M  V30 4849 O 438.752 -7.47738 2.952 0
M  V30 4850 H 438.484 -0.670893 -0.0829332 0
M  V30 4851 H 441.038 -2.01387 0.404056 0
M  V30 4852 H 439.268 -3.47867 -1.68895 0
M  V30 4853 H 440.957 -3.80167 -1.42225 0
M  V30 4854 H 441.723 -4.7725 0.863559 0
M  V30 4855 H 437.602 -4.5967 -0.349987 0
M  V30 4856 H 441.146 -6.50137 2.52918 0
M  V30 4857 H 437.043 -6.32114 1.30776 0
M  V30 4858 H 437.811 -7.65451 2.89874 0
M  V30 4859 N 440.474 -0.00167713 -1.576 0
M  V30 4860 C 441.702 0.693759 -1.94922 0
M  V30 4861 C 442.117 1.67215 -0.876626 0
M  V30 4862 O 441.474 1.81929 0.144279 0
M  V30 4863 C 441.525 1.42416 -3.32265 0
M  V30 4864 O 441.246 0.485014 -4.35407 0
M  V30 4865 C 442.747 2.21395 -3.84056 0
M  V30 4866 H 439.967 0.193118 -0.642609 0
M  V30 4867 H 442.511 -0.0532952 -2.04431 0
M  V30 4868 H 440.666 2.12284 -3.24059 0
M  V30 4869 H 441.08 1.00053 -5.14868 0
M  V30 4870 H 442.554 2.67996 -4.82578 0
M  V30 4871 H 443.031 3.04142 -3.16851 0
M  V30 4872 H 443.637 1.56542 -3.95443 0
M  V30 4873 N 441.952 1.55251 0.271103 0
M  V30 4874 C 442.882 1.9127 1.33933 0
M  V30 4875 C 443.863 0.77478 1.5143 0
M  V30 4876 O 445.048 1.03307 1.64442 0
M  V30 4877 C 442.178 2.18627 2.69851 0
M  V30 4878 C 441.132 3.34442 2.67081 0
M  V30 4879 C 440.458 3.47284 4.06569 0
M  V30 4880 C 441.758 4.70784 2.26185 0
M  V30 4881 H 443.452 2.80744 1.04035 0
M  V30 4882 H 440.998 1.35077 0.499017 0
M  V30 4883 H 442.951 2.42413 3.44694 0
M  V30 4884 H 441.675 1.25955 3.01335 0
M  V30 4885 H 440.334 3.10627 1.94695 0
M  V30 4886 H 439.982 2.52074 4.35279 0
M  V30 4887 H 439.682 4.25152 4.0561 0
M  V30 4888 H 441.206 3.73363 4.83148 0
M  V30 4889 H 442.62 4.94102 2.90751 0
M  V30 4890 H 441.017 5.51582 2.36384 0
M  V30 4891 H 442.087 4.69478 1.21319 0
M  V30 4892 N 443.43 -0.535701 1.48216 0
M  V30 4893 C 444.393 -1.623 1.61838 0
M  V30 4894 C 445.393 -1.53087 0.492024 0
M  V30 4895 O 446.583 -1.5686 0.757668 0
M  V30 4896 C 443.715 -3.01907 1.58319 0
M  V30 4897 H 444.908 -1.51564 2.58783 0
M  V30 4898 H 442.461 -0.757317 1.36727 0
M  V30 4899 H 443.196 -3.18155 0.628299 0
M  V30 4900 H 442.981 -3.10003 2.40085 0
M  V30 4901 H 444.471 -3.80969 1.71033 0
M  V30 4902 N 444.908 -1.36708 -0.784132 0
M  V30 4903 C 446.133 -1.34565 -1.5782 0
M  V30 4904 C 446.558 0.0695257 -1.87971 0
M  V30 4905 O 445.916 1.04302 -1.48293 0
M  V30 4906 C 445.964 -2.17952 -2.87279 0
M  V30 4907 O 445.068 -1.57563 -3.81114 0
M  V30 4908 H 444.409 -0.460337 -0.478524 0
M  V30 4909 H 446.939 -1.80064 -0.971495 0
M  V30 4910 H 446.949 -2.30721 -3.365 0
M  V30 4911 H 445.624 -3.20823 -2.64661 0
M  V30 4912 H 444.201 -1.53764 -3.39722 0
M  V30 4913 N 446.386 1.0089 -1.21074 0
M  V30 4914 C 447.333 2.09588 -0.966512 0
M  V30 4915 C 448.303 1.65761 0.106089 0
M  V30 4916 O 449.488 1.90758 -0.0402287 0
M  V30 4917 C 446.628 3.40958 -0.533058 0
M  V30 4918 C 445.741 3.9822 -1.67467 0
M  V30 4919 C 444.876 5.17682 -1.19076 0
M  V30 4920 C 443.915 5.67043 -2.30496 0
M  V30 4921 N 443.052 6.77759 -1.83267 0
M  V30 4922 H 447.892 2.29815 -1.89708 0
M  V30 4923 H 445.429 1.12689 -0.945489 0
M  V30 4924 H 447.387 4.1637 -0.263019 0
M  V30 4925 H 446.017 3.20781 0.360505 0
M  V30 4926 H 445.069 3.1983 -2.05944 0
M  V30 4927 H 446.381 4.3085 -2.51336 0
M  V30 4928 H 445.535 6.00326 -0.877151 0
M  V30 4929 H 444.274 4.86635 -0.322066 0
M  V30 4930 H 443.279 4.82999 -2.62664 0
M  V30 4931 H 444.504 6.00121 -3.17855 0
M  V30 4932 H 442.45 6.48527 -0.987356 0
M  V30 4933 H 442.367 7.09624 -2.60711 0
M  V30 4934 H 443.635 7.63949 -1.54928 0
M  V30 4935 N 447.864 1.01787 1.20321 0
M  V30 4936 C 448.774 0.598898 2.26827 0
M  V30 4937 C 449.79 -0.36418 1.70146 0
M  V30 4938 O 450.966 -0.224812 2.00141 0
M  V30 4939 C 448.031 -0.0549769 3.46656 0
M  V30 4940 C 447.092 0.954205 4.18561 0
M  V30 4941 C 446.325 0.331439 5.3267 0
M  V30 4942 O 446.548 -0.86851 5.63749 0
M  V30 4943 O 445.482 1.0488 5.92692 0
M  V30 4944 H 449.308 1.48562 2.64883 0
M  V30 4945 H 446.893 0.787434 1.26964 0
M  V30 4946 H 448.775 -0.420102 4.19301 0
M  V30 4947 H 447.45 -0.915876 3.10473 0
M  V30 4948 H 446.357 1.37072 3.48083 0
M  V30 4949 H 447.69 1.78511 4.58688 0
M  V30 4950 N 449.342 -1.36122 0.79427 0
M  V30 4951 C 450.275 -2.27759 0.141845 0
M  V30 4952 C 451.253 -1.47471 -0.684921 0
M  V30 4953 O 452.437 -1.76759 -0.654857 0
M  V30 4954 C 449.564 -3.29008 -0.804446 0
M  V30 4955 C 448.61 -4.26459 -0.0588617 0
M  V30 4956 S 449.443 -5.20253 1.26873 0
M  V30 4957 C 450.599 -6.25048 0.326562 0
M  V30 4958 H 450.832 -2.82746 0.918818 0
M  V30 4959 H 448.365 -1.42736 0.588722 0
M  V30 4960 H 450.323 -3.87842 -1.34495 0
M  V30 4961 H 448.984 -2.72924 -1.5547 0
M  V30 4962 H 448.177 -4.97973 -0.777087 0
M  V30 4963 H 447.779 -3.71731 0.411309 0
M  V30 4964 H 450.071 -6.75705 -0.492795 0
M  V30 4965 H 451.014 -7.00852 1.01053 0
M  V30 4966 H 451.422 -5.64454 -0.0722627 0
M  V30 4967 N 450.82 -0.546701 -1.47814 0
M  V30 4968 C 452.236 -0.205717 -1.58269 0
M  V30 4969 C 452.436 1.29153 -1.54667 0
M  V30 4970 O 451.492 2.07098 -1.44453 0
M  V30 4971 C 452.805 -0.823065 -2.89216 0
M  V30 4972 C 454.353 -0.793328 -3.02779 0
M  V30 4973 C 454.828 -1.38955 -4.36412 0
M  V30 4974 N 456.319 -1.35227 -4.43021 0
M  V30 4975 C 457.054 -1.78333 -5.44963 0
M  V30 4976 N 456.55 -2.29246 -6.53772 0
M  V30 4977 N 458.343 -1.69467 -5.35945 0
M  V30 4978 H 450.494 -1.5196 -1.48398 0
M  V30 4979 H 452.757 -0.633078 -0.705632 0
M  V30 4980 H 452.463 -1.8749 -2.97558 0
M  V30 4981 H 452.337 -0.309915 -3.75925 0
M  V30 4982 H 454.724 0.249784 -2.94041 0
M  V30 4983 H 454.805 -1.34412 -2.17639 0
M  V30 4984 H 454.449 -2.43168 -4.45906 0
M  V30 4985 H 454.379 -0.814291 -5.20266 0
M  V30 4986 H 456.87 -0.979739 -3.64979 0
M  V30 4987 H 457.183 -2.60089 -7.27718 0
M  V30 4988 H 455.528 -2.3325 -6.5469 0
M  V30 4989 H 458.719 -1.29477 -4.49837 0
M  V30 4990 H 458.892 -2.03381 -6.15256 0
M  V30 4991 N 452.299 1.55045 -0.282633 0
M  V30 4992 C 453.715 1.59441 0.0712997 0
M  V30 4993 C 453.915 1.2998 1.53972 0
M  V30 4994 O 452.971 1.06431 2.28973 0
M  V30 4995 C 454.284 2.99097 -0.310104 0
M  V30 4996 C 455.832 3.1194 -0.257343 0
M  V30 4997 C 456.307 4.53875 -0.613297 0
M  V30 4998 N 457.798 4.5974 -0.565134 0
M  V30 4999 C 458.533 5.67603 -0.81326 0
M  V30 5000 N 458.029 6.83582 -1.1264 0
M  V30 5001 N 459.822 5.57187 -0.741553 0
M  V30 5002 H 451.973 1.72458 -1.23984 0
M  V30 5003 H 454.236 0.804549 -0.501403 0
M  V30 5004 H 453.942 3.25516 -1.33163 0
M  V30 5005 H 453.816 3.75616 0.345366 0
M  V30 5006 H 456.203 2.85281 0.754905 0
M  V30 5007 H 456.284 2.37618 -0.947178 0
M  V30 5008 H 455.928 4.81261 -1.62327 0
M  V30 5009 H 455.858 5.26508 0.09841 0
M  V30 5010 H 458.349 3.76427 -0.333294 0
M  V30 5011 H 458.662 7.6175 -1.30219 0
M  V30 5012 H 457.007 6.85179 -1.16425 0
M  V30 5013 H 460.198 4.65457 -0.496705 0
M  V30 5014 H 460.371 6.41171 -0.938306 0
M  V30 5015 N 453.777 0.010035 1.57597 0
M  V30 5016 C 454.74 -0.963029 2.07986 0
M  V30 5017 C 455.74 -1.26619 0.991173 0
M  V30 5018 O 456.93 -1.2097 1.25347 0
M  V30 5019 C 454.062 -2.2851 2.52974 0
M  V30 5020 H 455.255 -0.526971 2.95234 0
M  V30 5021 H 452.808 -0.237639 1.54483 0
M  V30 5022 H 453.543 -2.76784 1.69 0
M  V30 5023 H 453.328 -2.07824 3.32493 0
M  V30 5024 H 454.818 -2.98294 2.9225 0
M  V30 5025 N 455.255 -1.55392 -0.262866 0
M  V30 5026 C 456.502 -1.76476 -0.993109 0
M  V30 5027 C 456.83 -0.571479 -1.85915 0
M  V30 5028 O 456.085 0.445733 -1.90556 0
M  V30 5029 C 456.384 -3.02889 -1.89718 0
M  V30 5030 C 456.05 -4.34974 -1.18781 0
M  V30 5031 C 454.712 -4.7087 -0.991699 0
M  V30 5032 C 457.064 -5.16695 -0.683798 0
M  V30 5033 C 454.392 -5.86036 -0.279024 0
M  V30 5034 C 456.744 -6.32598 0.0153327 0
M  V30 5035 C 455.408 -6.67127 0.223062 0
M  V30 5036 H 454.678 -0.64577 -0.363404 0
M  V30 5037 H 457.325 -1.89664 -0.264525 0
M  V30 5038 H 455.63 -2.84644 -2.6923 0
M  V30 5039 H 457.327 -3.16399 -2.46359 0
M  V30 5040 H 453.917 -4.06765 -1.35058 0
M  V30 5041 H 458.101 -4.8943 -0.8229 0
M  V30 5042 H 453.357 -6.11306 -0.107456 0
M  V30 5043 H 457.531 -6.95171 0.413584 0
M  V30 5044 H 455.158 -7.56216 0.777265 0
M  V30 5045 N 456.733 0.527833 -1.48498 0
M  V30 5046 C 457.98 1.28354 -1.56625 0
M  V30 5047 C 458.308 1.93 -0.241096 0
M  V30 5048 O 457.563 1.79967 0.768798 0
M  V30 5049 C 457.862 2.39275 -2.65485 0
M  V30 5050 C 457.528 1.92268 -4.07853 0
M  V30 5051 C 456.19 1.79166 -4.46602 0
M  V30 5052 C 458.542 1.56771 -4.97064 0
M  V30 5053 C 455.87 1.28905 -5.72364 0
M  V30 5054 C 458.222 1.07972 -6.23318 0
M  V30 5055 C 456.886 0.934887 -6.60921 0
M  V30 5056 H 456.156 0.469682 -0.573131 0
M  V30 5057 H 458.803 0.588781 -1.82224 0
M  V30 5058 H 457.108 3.1443 -2.33754 0
M  V30 5059 H 458.805 2.974 -2.68988 0
M  V30 5060 H 455.395 2.03417 -3.77252 0
M  V30 5061 H 459.579 1.65753 -4.67803 0
M  V30 5062 H 454.835 1.16381 -6.00221 0
M  V30 5063 H 459.009 0.795775 -6.91838 0
M  V30 5064 H 456.636 0.543231 -7.58257 0
M  V30 5065 N 458.211 1.37122 0.776871 0
M  V30 5066 C 459.627 1.1781 1.07671 0
M  V30 5067 C 459.827 0.0107454 2.01497 0
M  V30 5068 O 458.883 -0.650756 2.4397 0
M  V30 5069 C 460.196 2.49451 1.67913 0
M  V30 5070 C 461.744 2.55927 1.80195 0
M  V30 5071 C 462.219 3.87686 2.43851 0
M  V30 5072 N 463.71 3.891 2.51307 0
M  V30 5073 C 464.445 4.87797 3.014 0
M  V30 5074 N 463.941 5.96888 3.51705 0
M  V30 5075 N 465.734 4.75205 3.00227 0
M  V30 5076 H 457.885 2.11843 0.153778 0
M  V30 5077 H 460.148 0.938927 0.130844 0
M  V30 5078 H 459.854 3.35207 1.06439 0
M  V30 5079 H 459.728 2.66169 2.67271 0
M  V30 5080 H 462.115 1.70582 2.40803 0
M  V30 5081 H 462.196 2.43097 0.796069 0
M  V30 5082 H 461.84 4.73444 1.83884 0
M  V30 5083 H 461.77 3.97817 3.45035 0
M  V30 5084 H 464.261 3.10293 2.157 0
M  V30 5085 H 464.574 6.68155 3.88316 0
M  V30 5086 H 462.919 6.0054 3.49824 0
M  V30 5087 H 466.11 3.89103 2.60224 0
M  V30 5088 H 466.283 5.52279 3.38957 0
M  V30 5089 N 459.689 -1.00246 1.21608 0
M  V30 5090 C 460.619 -2.10921 1.00172 0
M  V30 5091 C 461.6 -1.69938 -0.0741587 0
M  V30 5092 O 462.785 -1.94009 0.0861753 0
M  V30 5093 C 459.915 -3.42618 0.568355 0
M  V30 5094 C 458.869 -3.97407 1.58909 0
M  V30 5095 C 458.195 -5.25038 1.01187 0
M  V30 5096 C 459.495 -4.2918 2.97661 0
M  V30 5097 H 461.189 -2.29112 1.92739 0
M  V30 5098 H 458.735 -1.10101 0.928102 0
M  V30 5099 H 460.688 -4.19444 0.405555 0
M  V30 5100 H 459.412 -3.24227 -0.392961 0
M  V30 5101 H 458.071 -3.22703 1.73949 0
M  V30 5102 H 457.719 -5.02982 0.0421965 0
M  V30 5103 H 457.419 -5.62661 1.6937 0
M  V30 5104 H 458.943 -6.04507 0.860448 0
M  V30 5105 H 460.357 -4.96839 2.86049 0
M  V30 5106 H 458.754 -4.77952 3.6288 0
M  V30 5107 H 459.824 -3.3735 3.48315 0
M  V30 5108 N 461.167 -1.02423 -1.1978 0
M  V30 5109 C 462.413 -0.719051 -1.89625 0
M  V30 5110 C 462.746 0.750083 -1.7913 0
M  V30 5111 O 462.021 1.54574 -1.18056 0
M  V30 5112 C 462.304 -1.16499 -3.40735 0
M  V30 5113 C 462.157 -2.695 -3.60125 0
M  V30 5114 C 463.476 -0.742166 -4.33797 0
M  V30 5115 H 460.595 -0.26269 -0.688595 0
M  V30 5116 H 463.237 -1.27333 -1.41018 0
M  V30 5117 H 461.387 -0.69341 -3.82262 0
M  V30 5118 H 463.059 -3.24569 -3.278 0
M  V30 5119 H 461.302 -3.10113 -3.03336 0
M  V30 5120 H 461.973 -2.95757 -4.66081 0
M  V30 5121 H 464.449 -1.1477 -3.99959 0
M  V30 5122 H 463.325 -1.08213 -5.38127 0
M  V30 5123 H 463.586 0.355747 -4.40666 0
M  V30 5124 N 462.645 1.35699 -0.801477 0
M  V30 5125 C 463.885 2.00741 -0.385027 0
M  V30 5126 C 464.249 1.62213 1.02718 0
M  V30 5127 O 465.45 2.19936 1.54537 0
M  V30 5128 C 463.721 3.53032 -0.557057 0
M  V30 5129 S 465.28 4.38195 -0.230272 0
M  V30 5130 H 462.098 0.695748 -0.146477 0
M  V30 5131 H 464.7 1.65378 -1.04261 0
M  V30 5132 H 463.404 3.7856 -1.58494 0
M  V30 5133 H 462.935 3.93229 0.116029 0
M  V30 5134 H 464.95 4.86748 0.963895 0
M  V30 5135 N 464.123 0.554532 1.47522 0
M  V30 5136 C 465.071 -0.207765 2.3167 0
M  V30 5137 C 466.065 -0.911914 1.4276 0
M  V30 5138 O 467.271 -0.833504 1.59539 0
M  V30 5139 H 463.646 -0.0858726 0.747081 0
M  V30 5140 H 465.617 0.521178 2.93813 0
M  V30 5141 C 464.366 -1.2263 3.25357 0
M  V30 5142 H 463.689 -0.693887 3.93732 0
M  V30 5143 H 465.129 -1.73062 3.87073 0
M  V30 5144 C 463.588 -2.27278 2.4869 0
M  V30 5145 O 464.118 -3.34156 2.22941 0
M  V30 5146 N 462.324 -2.01134 2.09746 0
M  V30 5147 H 461.871 -1.14232 2.30887 0
M  V30 5148 H 461.829 -2.71369 1.58765 0
M  V30 5149 N 465.601 -1.54893 0.290851 0
M  V30 5150 C 466.841 -2.01842 -0.322388 0
M  V30 5151 C 467.205 -1.17477 -1.51865 0
M  V30 5152 O 468.406 -1.54077 -2.20258 0
M  V30 5153 C 466.677 -3.50874 -0.679844 0
M  V30 5154 S 468.236 -4.19796 -1.27739 0
M  V30 5155 H 465.054 -0.704005 -0.0994866 0
M  V30 5156 H 467.656 -1.91015 0.416358 0
M  V30 5157 H 466.36 -4.09915 0.199435 0
M  V30 5158 H 465.891 -3.65717 -1.44964 0
M  V30 5159 H 467.906 -4.24729 -2.56554 0
M  V30 5160 N 467.08 -0.0183926 -1.57589 0
M  V30 5161 C 468.01 0.965596 -2.12599 0
M  V30 5162 C 468.991 1.34641 -1.0395 0
M  V30 5163 O 470.176 1.42693 -1.31729 0
M  V30 5164 C 467.306 2.25149 -2.64434 0
M  V30 5165 C 466.26 2.01175 -3.77773 0
M  V30 5166 C 465.586 3.35937 -4.15994 0
M  V30 5167 C 466.886 1.35953 -5.04296 0
M  V30 5168 H 468.58 0.507504 -2.95067 0
M  V30 5169 H 466.126 0.242671 -1.41941 0
M  V30 5170 H 468.079 2.94357 -3.01549 0
M  V30 5171 H 466.803 2.73105 -1.79112 0
M  V30 5172 H 465.462 1.34388 -3.4108 0
M  V30 5173 H 465.11 3.81631 -3.27669 0
M  V30 5174 H 464.81 3.20705 -4.92364 0
M  V30 5175 H 466.334 4.0643 -4.55683 0
M  V30 5176 H 467.748 1.95144 -5.39065 0
M  V30 5177 H 466.145 1.31152 -5.85593 0
M  V30 5178 H 467.215 0.331071 -4.83768 0
M  V30 5179 N 468.558 1.5553 0.254621 0
M  V30 5180 C 469.804 1.77262 0.985193 0
M  V30 5181 C 470.137 0.582286 1.85265 0
M  V30 5182 O 469.412 -0.419666 1.89919 0
M  V30 5183 C 469.695 3.0881 1.85225 0
M  V30 5184 C 469.548 4.38233 1.0135 0
M  V30 5185 C 470.867 3.3653 2.83612 0
M  V30 5186 H 467.986 0.644906 0.356742 0
M  V30 5187 H 470.628 1.88264 0.256236 0
M  V30 5188 H 468.778 2.99562 2.47376 0
M  V30 5189 H 470.45 4.59463 0.411269 0
M  V30 5190 H 468.693 4.32636 0.317574 0
M  V30 5191 H 469.364 5.26644 1.65379 0
M  V30 5192 H 471.84 3.45691 2.31596 0
M  V30 5193 H 470.716 4.29805 3.41407 0
M  V30 5194 H 470.977 2.57064 3.59681 0
M  V30 5195 N 470.036 -0.519951 1.48776 0
M  V30 5196 C 471.452 -0.849418 1.35119 0
M  V30 5197 C 471.652 -1.98077 0.36982 0
M  V30 5198 O 470.708 -2.51664 -0.205359 0
M  V30 5199 C 472.021 -1.20748 2.75391 0
M  V30 5200 C 473.569 -1.31679 2.83954 0
M  V30 5201 C 474.044 -1.70824 4.24951 0
M  V30 5202 N 475.535 -1.77908 4.27672 0
M  V30 5203 C 476.27 -2.09603 5.33717 0
M  V30 5204 N 475.766 -2.39652 6.5003 0
M  V30 5205 N 477.559 -2.10694 5.21119 0
M  V30 5206 H 469.71 0.226377 2.1119 0
M  V30 5207 H 471.973 0.0386519 0.947212 0
M  V30 5208 H 471.679 -0.449703 3.48813 0
M  V30 5209 H 471.553 -2.15534 3.09556 0
M  V30 5210 H 473.94 -2.06532 2.10781 0
M  V30 5211 H 474.021 -0.3499 2.53396 0
M  V30 5212 H 473.665 -0.965282 4.98643 0
M  V30 5213 H 473.595 -2.6858 4.52959 0
M  V30 5214 H 476.086 -1.56923 3.43779 0
M  V30 5215 H 476.399 -2.6297 7.26682 0
M  V30 5216 H 474.744 -2.37149 6.53288 0
M  V30 5217 H 477.935 -1.86682 4.29264 0
M  V30 5218 H 478.108 -2.35062 6.03863 0
M  V30 5219 N 471.514 -1.37532 -0.769588 0
M  V30 5220 C 472.762 -1.32597 -1.5252 0
M  V30 5221 C 473.083 0.0884294 -1.94799 0
M  V30 5222 O 472.353 1.03289 -1.66458 0
M  V30 5223 H 470.933 -0.487846 -0.565699 0
M  V30 5224 H 473.595 -1.72044 -0.915806 0
M  V30 5225 H 472.691 -1.96643 -2.42359 0
M  V30 5226 N 472.992 0.995999 -1.22138 0
M  V30 5227 C 474.408 1.25917 -0.980667 0
M  V30 5228 C 474.608 1.98819 0.327604 0
M  V30 5229 O 473.664 2.29587 1.05101 0
M  V30 5230 C 474.977 2.07399 -2.17729 0
M  V30 5231 C 476.525 2.20594 -2.22052 0
M  V30 5232 C 477 3.05462 -3.41258 0
M  V30 5233 N 478.491 3.13049 -3.41401 0
M  V30 5234 C 479.226 3.78997 -4.30289 0
M  V30 5235 N 478.722 4.46899 -5.2939 0
M  V30 5236 N 480.515 3.75728 -4.18073 0
M  V30 5237 H 472.666 0.507158 -2.06256 0
M  V30 5238 H 474.929 0.28658 -0.903646 0
M  V30 5239 H 474.635 1.61191 -3.12586 0
M  V30 5240 H 474.509 3.08154 -2.17534 0
M  V30 5241 H 476.896 2.66017 -1.27745 0
M  V30 5242 H 476.977 1.1928 -2.26287 0
M  V30 5243 H 476.621 2.60739 -4.35864 0
M  V30 5244 H 476.551 4.06911 -3.34262 0
M  V30 5245 H 479.042 2.64721 -2.69688 0
M  V30 5246 H 479.355 4.94952 -5.935 0
M  V30 5247 H 477.7 4.45657 -5.33306 0
M  V30 5248 H 480.891 3.2184 -3.39907 0
M  V30 5249 H 481.064 4.26845 -4.87553 0
M  V30 5250 N 474.47 1.03057 1.19235 0
M  V30 5251 C 475.718 0.726581 1.88587 0
M  V30 5252 C 476.039 -0.747227 1.80115 0
M  V30 5253 O 475.309 -1.53849 1.21274 0
M  V30 5254 H 473.889 0.265768 0.698124 0
M  V30 5255 H 476.551 1.30516 1.44746 0
M  V30 5256 H 475.647 1.0224 2.94879 0
M  V30 5257 N 475.948 -1.35272 0.808662 0
M  V30 5258 C 476.911 -2.28082 0.226093 0
M  V30 5259 C 477.911 -1.49673 -0.587762 0
M  V30 5260 O 479.101 -1.69404 -0.405943 0
M  V30 5261 C 476.233 -3.33955 -0.684596 0
M  V30 5262 H 477.426 -2.81116 1.04469 0
M  V30 5263 H 474.979 -1.45162 0.579466 0
M  V30 5264 H 475.714 -2.86111 -1.5268 0
M  V30 5265 H 475.499 -3.91965 -0.102699 0
M  V30 5266 H 476.989 -4.03219 -1.08646 0
M  V30 5267 N 477.426 -0.562348 -1.47226 0
M  V30 5268 C 478.842 -0.222492 -1.58042 0
M  V30 5269 C 479.042 1.27505 -1.56028 0
M  V30 5270 O 478.098 2.05555 -1.46641 0
M  V30 5271 C 479.411 -0.853694 -2.88327 0
M  V30 5272 C 480.959 -0.825397 -3.01921 0
M  V30 5273 C 481.434 -1.43576 -4.34914 0
M  V30 5274 N 482.925 -1.39918 -4.41562 0
M  V30 5275 C 483.66 -1.84103 -5.43041 0
M  V30 5276 N 483.156 -2.36167 -6.51304 0
M  V30 5277 N 484.949 -1.75142 -5.34118 0
M  V30 5278 H 477.1 -1.53525 -1.46778 0
M  V30 5279 H 479.363 -0.640527 -0.698877 0
M  V30 5280 H 479.069 -1.90635 -2.95552 0
M  V30 5281 H 478.943 -0.34977 -3.75575 0
M  V30 5282 H 481.33 0.218583 -2.94289 0
M  V30 5283 H 481.411 -1.36713 -2.16202 0
M  V30 5284 H 481.055 -2.47884 -4.43301 0
M  V30 5285 H 480.985 -0.869427 -5.19373 0
M  V30 5286 H 483.476 -1.0184 -3.63919 0
M  V30 5287 H 483.789 -2.67793 -7.24919 0
M  V30 5288 H 482.134 -2.40181 -6.52179 0
M  V30 5289 H 485.325 -1.34241 -4.48439 0
M  V30 5290 H 485.498 -2.09895 -6.13065 0
M  V30 5291 N 478.904 1.54736 -0.299062 0
M  V30 5292 C 479.867 2.22127 0.565012 0
M  V30 5293 C 480.867 1.20669 1.06281 0
M  V30 5294 O 482.057 1.45417 0.959145 0
M  V30 5295 C 479.189 2.90611 1.78208 0
M  V30 5296 H 480.382 2.99891 -0.0237448 0
M  V30 5297 H 477.935 1.5622 -0.0498788 0
M  V30 5298 H 478.67 2.16921 2.41072 0
M  V30 5299 H 478.455 3.64984 1.43281 0
M  V30 5300 H 479.945 3.42026 2.396 0
M  V30 5301 N 480.382 0.0267497 1.57577 0
M  V30 5302 C 481.607 -0.666227 1.96408 0
M  V30 5303 C 482.032 -1.65004 0.903071 0
M  V30 5304 O 481.39 -1.80787 -0.136263 0
M  V30 5305 C 481.438 -1.35101 3.34335 0
M  V30 5306 O 480.542 -2.46623 3.30531 0
M  V30 5307 H 479.883 -0.175206 0.640468 0
M  V30 5308 H 482.413 0.0878977 2.04411 0
M  V30 5309 H 482.423 -1.70834 3.70513 0
M  V30 5310 H 481.098 -0.629844 4.11103 0
M  V30 5311 H 479.675 -2.13019 3.06068 0
M  V30 5312 N 481.861 -1.55662 -0.24637 0
M  V30 5313 C 483.272 -1.67953 -0.81539 0
M  V30 5314 C 483.623 -0.624302 -1.86002 0
M  V30 5315 O 482.748 0.229328 -2.15181 0
M  V30 5316 C 483.343 -3.04484 -1.48576 0
M  V30 5317 C 481.902 -3.18713 -2.00248 0
M  V30 5318 C 481.049 -2.6383 -0.853766 0
M  V30 5319 H 484 -1.58685 -0.0221692 0
M  V30 5320 H 484.021 -2.98959 -2.3538 0
M  V30 5321 H 483.533 -3.81264 -0.725222 0
M  V30 5322 H 481.634 -2.46757 -2.79181 0
M  V30 5323 H 481.747 -4.25628 -2.1995 0
M  V30 5324 H 480.111 -2.21667 -1.25442 0
M  V30 5325 H 480.894 -3.43135 -0.106302 0
M  V30 5326 N 483.339 0.512053 -1.4905 0
M  V30 5327 C 484.588 1.26343 -1.57227 0
M  V30 5328 C 484.901 1.93876 -0.259155 0
M  V30 5329 O 486.107 2.70612 -0.219358 0
M  V30 5330 C 484.563 2.29343 -2.77362 0
M  V30 5331 C 484.171 1.67799 -4.15388 0
M  V30 5332 C 485.915 3.05378 -2.94864 0
M  V30 5333 C 483.822 2.68845 -5.2676 0
M  V30 5334 H 482.752 0.475231 -0.585382 0
M  V30 5335 H 485.403 0.53862 -1.75417 0
M  V30 5336 H 483.785 3.04938 -2.52643 0
M  V30 5337 H 484.959 0.982715 -4.50199 0
M  V30 5338 H 483.274 1.04194 -4.03153 0
M  V30 5339 H 485.871 3.80921 -3.75238 0
M  V30 5340 H 486.214 3.62327 -2.05 0
M  V30 5341 H 486.747 2.36898 -3.19569 0
M  V30 5342 H 483.486 2.16692 -6.18647 0
M  V30 5343 H 483.006 3.36647 -4.96416 0
M  V30 5344 H 484.685 3.31487 -5.5563 0
M  V30 5345 N 484.817 1.37938 0.762283 0
M  V30 5346 C 485.749 1.30349 1.88525 0
M  V30 5347 C 486.762 0.217402 1.61342 0
M  V30 5348 O 487.951 0.474291 1.72084 0
M  V30 5349 C 485.051 0.994844 3.23969 0
M  V30 5350 C 484.224 2.18829 3.78725 0
M  V30 5351 C 483.283 1.84844 4.92665 0
M  V30 5352 O 482.309 2.57244 5.07754 0
M  V30 5353 N 483.511 0.798201 5.74986 0
M  V30 5354 H 486.276 2.27114 1.95549 0
M  V30 5355 H 483.837 1.31686 0.941825 0
M  V30 5356 H 485.829 0.748168 3.97724 0
M  V30 5357 H 484.399 0.115446 3.12387 0
M  V30 5358 H 483.619 2.59615 2.96637 0
M  V30 5359 H 484.907 2.98497 4.1204 0
M  V30 5360 H 484.305 0.197611 5.65355 0
M  V30 5361 H 482.862 0.611396 6.48926 0
M  V30 5362 N 486.295 -0.989507 1.22664 0
M  V30 5363 C 487.706 -1.54406 1.04955 0
M  V30 5364 C 488.057 -1.92366 -0.385951 0
M  V30 5365 O 487.182 -1.75111 -1.27142 0
M  V30 5366 C 487.777 -2.80578 1.89899 0
M  V30 5367 C 486.336 -3.32464 1.76478 0
M  V30 5368 C 485.483 -2.05524 1.86159 0
M  V30 5369 H 488.434 -0.810211 1.3646 0
M  V30 5370 H 488.455 -3.53075 1.4184 0
M  V30 5371 H 487.967 -2.52918 2.94371 0
M  V30 5372 H 486.068 -3.65024 0.747528 0
M  V30 5373 H 486.181 -4.02838 2.59342 0
M  V30 5374 H 484.545 -2.19241 1.29636 0
M  V30 5375 H 485.328 -1.80258 2.92168 0
M  V30 5376 N 487.773 -1.03688 -1.18687 0
M  V30 5377 C 488.736 -0.629115 -2.20397 0
M  V30 5378 C 489.736 0.311495 -1.57754 0
M  V30 5379 O 490.926 0.0974107 -1.73927 0
M  V30 5380 C 488.058 0.0782231 -3.4081 0
M  V30 5381 H 489.251 -1.52915 -2.57987 0
M  V30 5382 H 486.804 -0.828988 -1.32505 0
M  V30 5383 H 487.539 0.992233 -3.08748 0
M  V30 5384 H 487.324 -0.597776 -3.87517 0
M  V30 5385 H 488.814 0.350156 -4.16129 0
M  V30 5386 N 489.251 1.34841 -0.815825 0
M  V30 5387 C 490.181 2.32187 -0.247298 0
M  V30 5388 C 491.162 1.5791 0.632344 0
M  V30 5389 O 492.347 1.8593 0.560698 0
M  V30 5390 C 489.477 3.42122 0.597466 0
M  V30 5391 C 488.431 4.27602 -0.184446 0
M  V30 5392 C 487.757 5.28942 0.782609 0
M  V30 5393 C 489.057 5.03502 -1.38865 0
M  V30 5394 H 490.751 2.79985 -1.06061 0
M  V30 5395 H 488.297 1.34611 -0.511461 0
M  V30 5396 H 490.25 4.09232 1.00533 0
M  V30 5397 H 488.974 2.92956 1.44376 0
M  V30 5398 H 487.633 3.62085 -0.573592 0
M  V30 5399 H 487.281 4.7604 1.62466 0
M  V30 5400 H 486.981 5.87008 0.263695 0
M  V30 5401 H 488.505 5.98922 1.18848 0
M  V30 5402 H 489.919 5.63506 -1.05518 0
M  V30 5403 H 488.316 5.71108 -1.8427 0
M  V30 5404 H 489.386 4.33608 -2.17054 0
M  V30 5405 N 490.729 0.570148 1.46925 0
M  V30 5406 C 492.006 -0.0153259 1.95594 0
M  V30 5407 C 492.386 -1.47232 1.51281 0
M  V30 5408 O 491.734 -2.15574 0.757624 0
M  V30 5409 C 491.944 0.143624 3.48704 0
M  V30 5410 C 493.292 0.00494484 4.246 0
M  V30 5411 O 494.316 0.0718214 3.56128 0
M  V30 5412 O 493.175 -0.141175 5.46318 0
M  V30 5413 H 490.269 -0.0568819 0.825041 0
M  V30 5414 H 492.815 0.637583 1.57267 0
M  V30 5415 H 491.587 1.15699 3.73804 0
M  V30 5416 H 491.21 -0.5463 3.93829 0
M  V30 5417 N 492.207 -1.54576 0.307264 0
M  V30 5418 C 493.618 -1.8579 -0.184121 0
M  V30 5419 C 493.969 -1.22914 -1.52927 0
M  V30 5420 O 493.094 -0.529126 -2.09831 0
M  V30 5421 C 493.689 -3.37081 -0.340862 0
M  V30 5422 C 492.248 -3.68304 -0.776465 0
M  V30 5423 C 491.395 -2.77076 0.111503 0
M  V30 5424 H 494.346 -1.49656 0.528078 0
M  V30 5425 H 494.367 -3.61922 -1.17443 0
M  V30 5426 H 493.879 -3.82815 0.638309 0
M  V30 5427 H 491.98 -3.28092 -1.76596 0
M  V30 5428 H 492.093 -4.75434 -0.591512 0
M  V30 5429 H 490.457 -2.51374 -0.410256 0
M  V30 5430 H 491.24 -3.25632 1.08714 0
M  V30 5431 N 493.685 -0.035106 -1.57561 0
M  V30 5432 C 494.91 0.655802 -1.96759 0
M  V30 5433 C 495.335 1.64523 -0.911809 0
M  V30 5434 O 494.693 1.80857 0.126673 0
M  V30 5435 C 494.741 1.33326 -3.35047 0
M  V30 5436 O 493.845 2.44866 -3.31835 0
M  V30 5437 H 493.186 0.171807 -0.641388 0
M  V30 5438 H 495.716 -0.0987369 -2.04362 0
M  V30 5439 H 495.726 1.68867 -3.71413 0
M  V30 5440 H 494.401 0.608033 -4.11431 0
M  V30 5441 H 492.978 2.11392 -3.07193 0
M  V30 5442 N 495.163 1.55791 0.238111 0
M  V30 5443 C 496.579 1.48411 0.587045 0
M  V30 5444 C 496.779 0.72702 1.87927 0
M  V30 5445 O 495.835 0.259942 2.51158 0
M  V30 5446 C 497.148 2.92873 0.681623 0
M  V30 5447 C 498.696 3.03295 0.773363 0
M  V30 5448 C 499.171 4.49082 0.899428 0
M  V30 5449 N 500.662 4.53056 0.964075 0
M  V30 5450 C 501.397 5.63117 1.08104 0
M  V30 5451 N 500.893 6.82969 1.16299 0
M  V30 5452 N 502.686 5.50933 1.11488 0
M  V30 5453 H 494.837 2.0345 -0.610076 0
M  V30 5454 H 497.1 0.924034 -0.211813 0
M  V30 5455 H 496.806 3.51142 -0.19802 0
M  V30 5456 H 496.68 3.43851 1.55069 0
M  V30 5457 H 499.067 2.45101 1.64346 0
M  V30 5458 H 499.148 2.55513 -0.121034 0
M  V30 5459 H 498.792 5.07889 0.0338586 0
M  V30 5460 H 498.722 4.94553 1.809 0
M  V30 5461 H 501.213 3.66737 0.91173 0
M  V30 5462 H 501.526 7.62598 1.25155 0
M  V30 5463 H 499.871 6.85712 1.13241 0
M  V30 5464 H 503.062 4.56231 1.0474 0
M  V30 5465 H 503.235 6.36743 1.20259 0
M  V30 5466 N 496.642 -0.504142 1.49319 0
M  V30 5467 C 497.867 -1.28729 1.62615 0
M  V30 5468 C 498.292 -1.85752 0.296309 0
M  V30 5469 O 497.65 -1.65704 -0.735649 0
M  V30 5470 C 497.698 -2.39561 2.69524 0
M  V30 5471 O 496.802 -3.43324 2.28478 0
M  V30 5472 H 496.143 -0.380172 0.544395 0
M  V30 5473 H 498.673 -0.603872 1.95485 0
M  V30 5474 H 498.683 -2.8537 2.91595 0
M  V30 5475 H 497.358 -1.97423 3.66056 0
M  V30 5476 H 495.935 -3.03455 2.16725 0
M  V30 5477 N 498.12 -1.38341 -0.754957 0
M  V30 5478 C 499.067 -1.3546 -1.86867 0
M  V30 5479 C 500.037 -0.217369 -1.64672 0
M  V30 5480 O 501.222 -0.409383 -1.86356 0
M  V30 5481 C 498.362 -1.18413 -3.24149 0
M  V30 5482 C 497.475 -2.41511 -3.58185 0
M  V30 5483 C 496.61 -2.17205 -4.84763 0
M  V30 5484 C 495.649 -3.36081 -5.11582 0
M  V30 5485 N 494.786 -3.11219 -6.29354 0
M  V30 5486 H 499.626 -2.30672 -1.88664 0
M  V30 5487 H 497.163 -1.14607 -0.922154 0
M  V30 5488 H 499.121 -1.06545 -4.03366 0
M  V30 5489 H 497.751 -0.268397 -3.21682 0
M  V30 5490 H 496.803 -2.64056 -2.73822 0
M  V30 5491 H 498.115 -3.30115 -3.73932 0
M  V30 5492 H 497.269 -2.02465 -5.7192 0
M  V30 5493 H 496.008 -1.25964 -4.71152 0
M  V30 5494 H 495.013 -3.51341 -4.22894 0
M  V30 5495 H 496.238 -4.28196 -5.27091 0
M  V30 5496 H 494.184 -2.22624 -6.17069 0
M  V30 5497 H 494.101 -3.93373 -6.45596 0
M  V30 5498 H 495.369 -3.00132 -7.19403 0
M  V30 5499 N 499.598 0.982988 -1.23187 0
M  V30 5500 C 500.823 1.76455 -1.08988 0
M  V30 5501 C 501.248 1.84726 0.354691 0
M  V30 5502 O 500.606 1.30699 1.25649 0
M  V30 5503 C 500.654 3.17094 -1.71708 0
M  V30 5504 O 499.758 4.00648 -0.977477 0
M  V30 5505 H 499.099 0.542988 -0.382177 0
M  V30 5506 H 501.629 1.23413 -1.63188 0
M  V30 5507 H 501.639 3.67684 -1.76841 0
M  V30 5508 H 500.314 3.10389 -2.76823 0
M  V30 5509 H 498.891 3.59161 -1.0029 0
M  V30 5510 N 501.076 1.04316 1.18135 0
M  V30 5511 C 502.301 0.768047 1.92655 0
M  V30 5512 C 502.726 -0.66904 1.758 0
M  V30 5513 O 502.084 -1.46372 1.06981 0
M  V30 5514 C 502.132 1.14239 3.42026 0
M  V30 5515 O 501.236 0.269333 4.1152 0
M  V30 5516 H 500.577 0.282436 0.600937 0
M  V30 5517 H 503.107 1.39367 1.49793 0
M  V30 5518 H 503.117 1.10538 3.92741 0
M  V30 5519 H 501.792 2.18928 3.53615 0
M  V30 5520 H 500.369 0.366175 3.71098 0
M  V30 5521 N 502.554 -1.34406 0.822964 0
M  V30 5522 C 503.779 -2.0304 0.423034 0
M  V30 5523 C 504.204 -1.61568 -0.963196 0
M  V30 5524 O 503.562 -0.800339 -1.62678 0
M  V30 5525 C 503.61 -3.56636 0.53321 0
M  V30 5526 O 502.714 -4.09971 -0.446939 0
M  V30 5527 H 502.055 -0.64075 0.174171 0
M  V30 5528 H 504.585 -1.71653 1.11339 0
M  V30 5529 H 504.595 -4.05945 0.408991 0
M  V30 5530 H 503.27 -3.86168 1.54425 0
M  V30 5531 H 501.847 -3.71835 -0.281601 0
M  V30 5532 N 504.032 -0.577932 -1.46621 0
M  V30 5533 C 505.257 -0.0652536 -2.07297 0
M  V30 5534 C 505.682 1.22828 -1.4246 0
M  V30 5535 O 505.04 1.74075 -0.506718 0
M  V30 5536 C 505.088 0.0920589 -3.60482 0
M  V30 5537 O 504.192 1.14972 -3.96049 0
M  V30 5538 H 503.533 -0.06065 -0.661224 0
M  V30 5539 H 506.063 -0.799515 -1.88332 0
M  V30 5540 H 506.073 0.299741 -4.06897 0
M  V30 5541 H 504.748 -0.852612 -4.07067 0
M  V30 5542 H 503.325 0.920879 -3.61351 0
M  V30 5543 N 505.51 1.54411 -0.315457 0
M  V30 5544 C 506.458 2.25514 0.569771 0
M  V30 5545 C 507.452 1.2663 1.12522 0
M  V30 5546 O 508.658 1.44434 1.07419 0
M  V30 5547 H 505.033 0.724257 0.202376 0
M  V30 5548 H 507.004 2.98354 -0.0522895 0
M  V30 5549 C 505.753 3.02004 1.72305 0
M  V30 5550 H 505.076 3.77906 1.30488 0
M  V30 5551 H 506.516 3.55014 2.31821 0
M  V30 5552 C 504.975 2.09822 2.63583 0
M  V30 5553 O 505.505 1.67574 3.65078 0
M  V30 5554 N 503.711 1.75478 2.31637 0
M  V30 5555 H 503.258 2.10032 1.49145 0
M  V30 5556 H 503.216 1.14079 2.92973 0
M  V30 5557 N 506.988 0.0434614 1.5754 0
M  V30 5558 C 507.936 -0.951465 2.1225 0
M  V30 5559 C 508.93 -1.3274 1.05245 0
M  V30 5560 O 510.136 -1.30795 1.23663 0
M  V30 5561 H 506.511 -0.324667 0.678303 0
M  V30 5562 H 508.482 -0.464855 2.94757 0
M  V30 5563 C 507.231 -2.21972 2.67626 0
M  V30 5564 H 506.554 -1.93923 3.4962 0
M  V30 5565 H 507.994 -2.89765 3.09536 0
M  V30 5566 C 506.453 -2.95919 1.61038 0
M  V30 5567 O 506.983 -3.8857 1.01862 0
M  V30 5568 N 505.189 -2.58511 1.32741 0
M  V30 5569 H 504.736 -1.83244 1.81051 0
M  V30 5570 H 504.694 -3.08296 0.616531 0
M  V30 5571 N 508.466 -1.55915 -0.229846 0
M  V30 5572 C 509.691 -1.8296 -0.976743 0
M  V30 5573 C 510.116 -0.622735 -1.77493 0
M  V30 5574 O 509.474 0.428431 -1.76165 0
M  V30 5575 C 509.522 -3.07916 -1.8767 0
M  V30 5576 O 508.626 -2.86028 -2.97088 0
M  V30 5577 H 507.967 -0.603453 -0.277021 0
M  V30 5578 H 510.497 -2.0312 -0.245669 0
M  V30 5579 H 510.507 -3.37802 -2.2881 0
M  V30 5580 H 509.182 -3.95389 -1.28996 0
M  V30 5581 H 507.759 -2.67355 -2.59954 0
M  V30 5582 N 509.944 0.496216 -1.49584 0
M  V30 5583 C 511.169 1.27865 -1.63295 0
M  V30 5584 C 511.594 1.85592 -0.306156 0
M  V30 5585 O 510.952 1.66092 0.726851 0
M  V30 5586 C 511 2.38128 -2.7079 0
M  V30 5587 O 510.104 3.42108 -2.30296 0
M  V30 5588 H 509.445 0.377279 -0.546403 0
M  V30 5589 H 511.975 0.593497 -1.95803 0
M  V30 5590 H 511.985 2.8382 -2.93104 0
M  V30 5591 H 510.66 1.95479 -3.67098 0
M  V30 5592 H 509.237 3.02301 -2.18331 0
M  V30 5593 N 511.423 1.38739 0.74761 0
M  V30 5594 C 512.373 1.32948 1.85226 0
M  V30 5595 C 513.357 0.212642 1.59489 0
M  V30 5596 O 514.549 0.449121 1.71207 0
M  V30 5597 C 511.678 1.16279 3.23008 0
M  V30 5598 C 510.764 2.32611 3.54617 0
M  V30 5599 N 511.155 3.58065 3.57244 0
M  V30 5600 C 509.453 2.25293 3.84914 0
M  V30 5601 C 510.154 4.34919 3.8629 0
M  V30 5602 N 509.13 3.64348 4.03425 0
M  V30 5603 H 512.932 2.27927 1.85544 0
M  V30 5604 H 510.446 1.32056 0.945253 0
M  V30 5605 H 512.443 1.10214 4.02068 0
M  V30 5606 H 511.103 0.222394 3.23937 0
M  V30 5607 H 512.114 3.91656 3.3886 0
M  V30 5608 H 508.791 1.39446 3.93524 0
M  V30 5609 H 510.181 5.43605 3.94896 0
M  V30 5610 N 512.901 -0.976442 1.23707 0
M  V30 5611 C 514.126 -1.75875 1.09922 0
M  V30 5612 C 514.551 -1.84911 -0.34489 0
M  V30 5613 O 513.909 -1.31363 -1.24954 0
M  V30 5614 C 513.957 -3.16179 1.73388 0
M  V30 5615 O 513.061 -4.00124 0.99871 0
M  V30 5616 H 512.402 -0.540954 0.385052 0
M  V30 5617 H 514.932 -1.22546 1.6384 0
M  V30 5618 H 514.942 -3.66741 1.78788 0
M  V30 5619 H 513.617 -3.08917 2.78466 0
M  V30 5620 H 512.194 -3.58624 1.02193 0
M  V30 5621 N 514.379 -1.04941 -1.1758 0
M  V30 5622 C 515.79 -0.784501 -1.69418 0
M  V30 5623 C 516.141 0.693625 -1.8353 0
M  V30 5624 O 515.266 1.53925 -1.52106 0
M  V30 5625 C 515.861 -1.41746 -3.07723 0
M  V30 5626 C 514.42 -1.20066 -3.56737 0
M  V30 5627 C 513.567 -1.5026 -2.33061 0
M  V30 5628 H 516.518 -1.21469 -1.02133 0
M  V30 5629 H 516.539 -0.825381 -3.7144 0
M  V30 5630 H 516.051 -2.49325 -2.9742 0
M  V30 5631 H 514.152 -0.144006 -3.72322 0
M  V30 5632 H 514.265 -1.90384 -4.39648 0
M  V30 5633 H 512.629 -0.922598 -2.37403 0
M  V30 5634 H 513.412 -2.58967 -2.25368 0
M  V30 5635 N 515.857 1.33968 -0.830081 0
M  V30 5636 C 516.804 2.29387 -0.255008 0
M  V30 5637 C 517.774 1.53923 0.624243 0
M  V30 5638 O 518.959 1.82262 0.564372 0
M  V30 5639 C 516.099 3.4034 0.571209 0
M  V30 5640 C 515.212 4.30729 -0.331083 0
M  V30 5641 C 514.347 5.2879 0.505389 0
M  V30 5642 C 513.386 6.10819 -0.395843 0
M  V30 5643 N 512.523 7.00948 0.401979 0
M  V30 5644 H 517.363 2.77972 -1.07404 0
M  V30 5645 H 514.9 1.36785 -0.541133 0
M  V30 5646 H 516.858 4.03361 1.06562 0
M  V30 5647 H 515.488 2.9297 1.35529 0
M  V30 5648 H 514.54 3.68507 -0.943759 0
M  V30 5649 H 515.852 4.88181 -1.02377 0
M  V30 5650 H 515.006 5.97297 1.06399 0
M  V30 5651 H 513.745 4.71894 1.23155 0
M  V30 5652 H 512.75 5.41238 -0.966529 0
M  V30 5653 H 513.975 6.69797 -1.12023 0
M  V30 5654 H 511.921 6.46512 1.11168 0
M  V30 5655 H 511.838 7.55643 -0.232167 0
M  V30 5656 H 513.106 7.73774 0.943102 0
M  V30 5657 N 517.335 0.585699 1.46312 0
M  V30 5658 C 518.581 0.0725284 2.0267 0
M  V30 5659 C 518.914 -1.28523 1.45586 0
M  V30 5660 O 518.189 -1.84283 0.622101 0
M  V30 5661 C 518.472 0.0099788 3.60099 0
M  V30 5662 C 518.325 1.39685 4.27561 0
M  V30 5663 C 519.644 -0.689117 4.34671 0
M  V30 5664 H 516.763 0.0278307 0.736474 0
M  V30 5665 H 519.405 0.753472 1.74421 0
M  V30 5666 H 517.555 -0.56992 3.84297 0
M  V30 5667 H 519.227 2.02215 4.14617 0
M  V30 5668 H 517.47 1.96374 3.86807 0
M  V30 5669 H 518.141 1.30553 5.36339 0
M  V30 5670 H 520.617 -0.196446 4.15636 0
M  V30 5671 H 519.493 -0.701921 5.44393 0
M  V30 5672 H 519.754 -1.75101 4.05946 0
M  V30 5673 N 518.813 -1.54241 0.323641 0
M  V30 5674 C 519.76 -2.24339 -0.542277 0
M  V30 5675 C 520.73 -1.23421 -1.11159 0
M  V30 5676 O 521.915 -1.52104 -1.15192 0
M  V30 5677 C 519.055 -3.00479 -1.69725 0
M  V30 5678 C 518.168 -4.16214 -1.15716 0
M  V30 5679 C 517.303 -4.79884 -2.27783 0
M  V30 5680 C 516.342 -5.87722 -1.71023 0
M  V30 5681 N 515.479 -6.45254 -2.76752 0
M  V30 5682 H 520.319 -2.97935 0.0620613 0
M  V30 5683 H 517.856 -1.47039 0.0423993 0
M  V30 5684 H 519.814 -3.42869 -2.3769 0
M  V30 5685 H 518.444 -2.29217 -2.27288 0
M  V30 5686 H 517.496 -3.78605 -0.369063 0
M  V30 5687 H 518.808 -4.93838 -0.701832 0
M  V30 5688 H 517.962 -5.25243 -3.03651 0
M  V30 5689 H 516.701 -4.01641 -2.76652 0
M  V30 5690 H 515.706 -5.41765 -0.936518 0
M  V30 5691 H 516.931 -6.67863 -1.2303 0
M  V30 5692 H 514.877 -5.69884 -3.24912 0
M  V30 5693 H 514.794 -7.18292 -2.35782 0
M  V30 5694 H 516.062 -6.95269 -3.5245 0
M  V30 5695 N 520.291 -0.0518155 -1.57515 0
M  V30 5696 C 521.201 0.937539 -2.15052 0
M  V30 5697 C 522.217 1.34121 -1.10849 0
M  V30 5698 O 523.393 1.418 -1.4302 0
M  V30 5699 C 520.458 2.19379 -2.68466 0
M  V30 5700 C 519.519 1.84841 -3.87469 0
M  V30 5701 C 518.752 3.04477 -4.38326 0
M  V30 5702 O 518.975 4.17868 -3.88256 0
M  V30 5703 O 517.909 2.85453 -5.29906 0
M  V30 5704 H 521.735 0.478201 -2.99912 0
M  V30 5705 H 519.32 0.17012 -1.48428 0
M  V30 5706 H 521.202 2.93084 -3.02787 0
M  V30 5707 H 519.877 2.64449 -1.86677 0
M  V30 5708 H 518.784 1.08449 -3.58036 0
M  V30 5709 H 520.117 1.44569 -4.7049 0
M  V30 5710 N 521.769 1.56035 0.221574 0
M  V30 5711 C 523.046 1.69837 0.970301 0
M  V30 5712 C 523.426 0.599065 2.02421 0
M  V30 5713 O 522.774 -0.393929 2.25079 0
M  V30 5714 C 522.984 3.11148 1.58076 0
M  V30 5715 C 524.332 3.70555 2.07302 0
M  V30 5716 O 525.356 3.14109 1.6797 0
M  V30 5717 O 524.215 4.69562 2.79596 0
M  V30 5718 H 521.309 0.691727 0.453257 0
M  V30 5719 H 523.855 1.68353 0.213358 0
M  V30 5720 H 522.627 3.82617 0.819759 0
M  V30 5721 H 522.25 3.16749 2.40324 0
M  V30 5722 N 523.247 -0.488276 1.49845 0
M  V30 5723 C 524.177 -1.59675 1.70371 0
M  V30 5724 C 525.158 -1.60878 0.552473 0
M  V30 5725 O 526.343 -1.77417 0.78973 0
M  V30 5726 C 523.473 -2.98098 1.782 0
M  V30 5727 C 522.427 -3.11761 2.93239 0
M  V30 5728 C 521.753 -4.51661 2.86193 0
M  V30 5729 C 523.053 -2.90589 4.33999 0
M  V30 5730 H 524.747 -1.42752 2.63177 0
M  V30 5731 H 522.293 -0.685317 1.26647 0
M  V30 5732 H 524.246 -3.75555 1.91144 0
M  V30 5733 H 522.97 -3.16138 0.820018 0
M  V30 5734 H 521.629 -2.36732 2.79917 0
M  V30 5735 H 521.277 -4.66595 1.87877 0
M  V30 5736 H 520.977 -4.61742 3.63412 0
M  V30 5737 H 522.501 -5.31162 3.01163 0
M  V30 5738 H 523.915 -3.57807 4.47936 0
M  V30 5739 H 522.312 -3.1213 5.12538 0
M  V30 5740 H 523.382 -1.86595 4.4756 0
M  V30 5741 N 524.725 -1.39134 -0.740242 0
M  V30 5742 C 526.136 -1.32208 -1.31825 0
M  V30 5743 C 526.487 0.0159919 -1.96193 0
M  V30 5744 O 525.612 0.918111 -1.95958 0
M  V30 5745 C 526.207 -2.39436 -2.39699 0
M  V30 5746 C 524.766 -2.36048 -2.93187 0
M  V30 5747 C 523.913 -2.21599 -1.66701 0
M  V30 5748 H 526.864 -1.49298 -0.538133 0
M  V30 5749 H 526.885 -2.05922 -3.19963 0
M  V30 5750 H 526.397 -3.36811 -1.92821 0
M  V30 5751 H 524.498 -1.42295 -3.44359 0
M  V30 5752 H 524.611 -3.30704 -3.46658 0
M  V30 5753 H 522.975 -1.68681 -1.90837 0
M  V30 5754 H 523.758 -3.20936 -1.21882 0
M  V30 5755 N 526.204 0.969867 -1.24223 0
M  V30 5756 C 527.154 2.04913 -0.999732 0
M  V30 5757 C 528.138 1.60795 0.0580636 0
M  V30 5758 O 529.33 1.76317 -0.155392 0
M  V30 5759 C 526.459 3.37942 -0.604154 0
M  V30 5760 C 525.545 3.88628 -1.69791 0
M  V30 5761 N 525.936 4.12274 -2.93025 0
M  V30 5762 C 524.234 4.17268 -1.57492 0
M  V30 5763 C 524.935 4.53808 -3.63914 0
M  V30 5764 N 523.911 4.58855 -2.91468 0
M  V30 5765 H 527.713 2.21168 -1.93551 0
M  V30 5766 H 525.227 1.15349 -1.14317 0
M  V30 5767 H 527.224 4.14863 -0.411665 0
M  V30 5768 H 525.884 3.23075 0.324465 0
M  V30 5769 H 526.895 3.99789 -3.29225 0
M  V30 5770 H 523.572 4.11346 -0.714175 0
M  V30 5771 H 524.962 4.80534 -4.69614 0
M  V30 5772 N 527.682 1.05563 1.17022 0
M  V30 5773 C 528.91 0.78845 1.91288 0
M  V30 5774 C 529.325 -0.656318 1.77025 0
M  V30 5775 O 528.682 -1.44869 1.10992 0
M  V30 5776 C 528.733 1.16444 3.42232 0
M  V30 5777 O 528.454 2.5525 3.5606 0
M  V30 5778 C 529.955 0.923937 4.33565 0
M  V30 5779 H 527.175 0.286389 0.606813 0
M  V30 5780 H 529.719 1.4073 1.48375 0
M  V30 5781 H 527.874 0.590266 3.82877 0
M  V30 5782 H 528.288 2.70097 4.49609 0
M  V30 5783 H 529.762 1.23672 5.37968 0
M  V30 5784 H 530.239 -0.140688 4.38975 0
M  V30 5785 H 530.845 1.48214 3.98639 0
M  V30 5786 N 529.16 -1.33526 0.837174 0
M  V30 5787 C 530.123 -2.27551 0.274421 0
M  V30 5788 C 531.123 -1.50886 -0.555881 0
M  V30 5789 O 532.313 -1.70227 -0.369918 0
M  V30 5790 C 529.445 -3.35332 -0.613605 0
M  V30 5791 H 530.638 -2.78837 1.10408 0
M  V30 5792 H 528.191 -1.439 0.610126 0
M  V30 5793 H 528.926 -2.89285 -1.46577 0
M  V30 5794 H 528.711 -3.92095 -0.0195341 0
M  V30 5795 H 530.201 -4.05433 -1.00068 0
M  V30 5796 N 530.638 -0.59345 -1.46 0
M  V30 5797 C 532.049 -0.169801 -1.85926 0
M  V30 5798 C 532.4 1.26984 -1.49565 0
M  V30 5799 O 531.525 1.96076 -0.915602 0
M  V30 5800 C 532.12 -0.301385 -3.37457 0
M  V30 5801 C 530.679 0.0674684 -3.7634 0
M  V30 5802 C 529.826 -0.632383 -2.69993 0
M  V30 5803 H 532.777 -0.801014 -1.37002 0
M  V30 5804 H 532.798 0.470331 -3.77582 0
M  V30 5805 H 532.31 -1.34927 -3.63891 0
M  V30 5806 H 530.411 1.11507 -3.55523 0
M  V30 5807 H 530.524 -0.316332 -4.78055 0
M  V30 5808 H 528.888 -0.0714961 -2.546 0
M  V30 5809 H 529.671 -1.68212 -2.99265 0
M  V30 5810 N 532.116 1.54067 -0.331816 0
M  V30 5811 C 533.341 2.05599 0.272705 0
M  V30 5812 C 533.766 1.2059 1.44359 0
M  V30 5813 O 533.124 0.216907 1.79998 0
M  V30 5814 C 533.172 3.54188 0.677021 0
M  V30 5815 O 532.276 3.72082 1.77844 0
M  V30 5816 H 531.617 0.662286 0.0476801 0
M  V30 5817 H 534.147 1.98826 -0.482624 0
M  V30 5818 H 534.157 3.96608 0.957415 0
M  V30 5819 H 532.832 4.15513 -0.179325 0
M  V30 5820 H 531.409 3.41566 1.49622 0
M  V30 5821 N 533.594 0.0601682 1.57485 0
M  V30 5822 C 534.819 -0.624416 1.97777 0
M  V30 5823 C 535.244 -1.63051 0.937867 0
M  V30 5824 O 534.602 -1.81036 -0.0978845 0
M  V30 5825 C 534.65 -1.27979 3.37126 0
M  V30 5826 O 533.754 -2.39556 3.35688 0
M  V30 5827 H 533.095 -0.161581 0.64404 0
M  V30 5828 H 535.625 0.131237 2.04179 0
M  V30 5829 H 535.635 -1.62937 3.74053 0
M  V30 5830 H 534.31 -0.542501 4.12347 0
M  V30 5831 H 532.887 -2.06478 3.10517 0
M  V30 5832 N 535.072 -1.5615 -0.213296 0
M  V30 5833 C 536.312 -1.81325 -0.943435 0
M  V30 5834 C 536.676 -0.634934 -1.81198 0
M  V30 5835 O 537.877 -0.766166 -2.5765 0
M  V30 5836 C 536.148 -3.11437 -1.75334 0
M  V30 5837 S 537.707 -3.57955 -2.53799 0
M  V30 5838 H 534.525 -0.636538 -0.316766 0
M  V30 5839 H 537.127 -1.94387 -0.208313 0
M  V30 5840 H 535.831 -3.95228 -1.10556 0
M  V30 5841 H 535.362 -3.01204 -2.53061 0
M  V30 5842 H 537.377 -3.21947 -3.77577 0
M  V30 5843 N 536.55 0.480323 -1.50102 0
M  V30 5844 C 537.799 1.22979 -1.59872 0
M  V30 5845 C 538.112 1.93282 -0.30022 0
M  V30 5846 O 539.318 2.70086 -0.276709 0
M  V30 5847 C 537.774 2.23408 -2.82164 0
M  V30 5848 C 537.382 1.5895 -4.18854 0
M  V30 5849 C 539.126 2.99055 -3.01275 0
M  V30 5850 C 537.033 2.57611 -5.32344 0
M  V30 5851 H 535.963 0.462707 -0.59533 0
M  V30 5852 H 538.614 0.501291 -1.7652 0
M  V30 5853 H 536.996 2.99511 -2.59055 0
M  V30 5854 H 538.17 0.887 -4.52182 0
M  V30 5855 H 536.485 0.956191 -4.05273 0
M  V30 5856 H 539.082 3.72876 -3.83233 0
M  V30 5857 H 539.425 3.57897 -2.12639 0
M  V30 5858 H 539.958 2.30066 -3.24522 0
M  V30 5859 H 536.697 2.03521 -6.23105 0
M  V30 5860 H 536.217 3.26041 -5.03445 0
M  V30 5861 H 537.896 3.19627 -5.62537 0
M  V30 5862 N 538.028 1.39524 0.732853 0
M  V30 5863 C 538.961 1.32806 1.85574 0
M  V30 5864 C 539.939 0.201354 1.61348 0
M  V30 5865 O 541.123 0.38216 1.84585 0
M  V30 5866 C 538.25 1.06271 3.21596 0
M  V30 5867 C 537.296 2.21161 3.64678 0
M  V30 5868 S 538.129 3.83454 3.73796 0
M  V30 5869 C 539.285 3.59149 5.12604 0
M  V30 5870 H 539.518 2.27838 1.9099 0
M  V30 5871 H 537.051 1.25605 0.897927 0
M  V30 5872 H 539.009 0.916461 4.00139 0
M  V30 5873 H 537.67 0.129223 3.13834 0
M  V30 5874 H 536.863 1.98193 4.63396 0
M  V30 5875 H 536.465 2.32 2.93346 0
M  V30 5876 H 538.757 3.16547 5.99003 0
M  V30 5877 H 539.7 4.57335 5.40602 0
M  V30 5878 H 540.108 2.93203 4.82382 0
M  V30 5879 N 539.506 -0.963266 1.24736 0
M  V30 5880 C 540.783 -1.68248 0.9976 0
M  V30 5881 C 541.163 -2.05599 -0.478776 0
M  V30 5882 O 540.511 -1.7626 -1.45412 0
M  V30 5883 C 540.721 -2.91118 1.92487 0
M  V30 5884 C 542.069 -3.63261 2.19833 0
M  V30 5885 O 543.093 -3.01184 1.90176 0
M  V30 5886 O 541.952 -4.75019 2.7022 0
M  V30 5887 H 539.046 -0.735744 0.377637 0
M  V30 5888 H 541.592 -1.01696 1.35853 0
M  V30 5889 H 540.364 -2.60242 2.92215 0
M  V30 5890 H 539.987 -3.65402 1.56738 0
M  V30 5891 N 540.985 -1.06182 -1.16461 0
M  V30 5892 C 541.932 -0.671613 -2.20812 0
M  V30 5893 C 542.902 0.331186 -1.62765 0
M  V30 5894 O 544.087 0.22033 -1.89524 0
M  V30 5895 C 541.227 -0.063029 -3.45042 0
M  V30 5896 C 540.34 -1.11587 -4.1734 0
M  V30 5897 C 539.475 -0.473546 -5.29085 0
M  V30 5898 C 538.514 -1.51 -5.93182 0
M  V30 5899 N 537.651 -0.891118 -6.96422 0
M  V30 5900 H 542.491 -1.56589 -2.53542 0
M  V30 5901 H 540.028 -0.782951 -1.24532 0
M  V30 5902 H 541.986 0.307344 -4.16066 0
M  V30 5903 H 540.616 0.794663 -3.12866 0
M  V30 5904 H 539.668 -1.60396 -3.44931 0
M  V30 5905 H 540.98 -1.90221 -4.61104 0
M  V30 5906 H 540.134 -0.0501432 -6.06679 0
M  V30 5907 H 538.873 0.344687 -4.8648 0
M  V30 5908 H 537.878 -1.94331 -5.14311 0
M  V30 5909 H 539.103 -2.33031 -6.37866 0
M  V30 5910 H 537.049 -0.0935753 -6.55933 0
M  V30 5911 H 536.966 -1.61486 -7.38551 0
M  V30 5912 H 538.234 -0.492822 -7.77941 0
M  V30 5913 N 542.463 1.3308 -0.844243 0
M  V30 5914 C 543.411 2.31028 -0.269954 0
M  V30 5915 C 544.405 1.58381 0.600997 0
M  V30 5916 O 545.611 1.73203 0.48996 0
M  V30 5917 H 541.986 0.748866 -0.0685782 0
M  V30 5918 H 543.957 2.76967 -1.11049 0
M  V30 5919 C 542.706 3.43549 0.535676 0
M  V30 5920 H 542.029 3.99604 -0.125202 0
M  V30 5921 H 543.469 4.14267 0.903262 0
M  V30 5922 C 541.928 2.8988 1.71672 0
M  V30 5923 O 542.458 2.86511 2.81557 0
M  V30 5924 N 540.664 2.46416 1.54037 0
M  V30 5925 H 540.211 2.49356 0.64649 0
M  V30 5926 H 540.169 2.1086 2.33207 0
M  V30 5927 N 543.941 0.601185 1.45683 0
M  V30 5928 C 544.904 -0.111398 2.28929 0
M  V30 5929 C 545.904 -0.801246 1.39416 0
M  V30 5930 O 547.094 -0.650383 1.61603 0
M  V30 5931 C 544.226 -1.16773 3.20276 0
M  V30 5932 H 545.419 0.620412 2.93413 0
M  V30 5933 H 542.972 0.359946 1.52099 0
M  V30 5934 H 543.707 -1.93051 2.60579 0
M  V30 5935 H 543.492 -0.677358 3.86205 0
M  V30 5936 H 544.982 -1.66698 3.82886 0
M  V30 5937 N 545.419 -1.53889 0.339982 0
M  V30 5938 C 546.382 -2.23547 -0.50592 0
M  V30 5939 C 547.382 -1.23445 -1.03044 0
M  V30 5940 O 548.572 -1.47909 -0.920253 0
M  V30 5941 C 545.704 -2.95234 -1.7044 0
M  V30 5942 H 546.897 -2.99722 0.103247 0
M  V30 5943 H 544.45 -1.56033 0.0912804 0
M  V30 5944 H 545.185 -2.23236 -2.35236 0
M  V30 5945 H 544.97 -3.68654 -1.33553 0
M  V30 5946 H 546.46 -3.48258 -2.30447 0
M  V30 5947 N 546.897 -0.0685191 -1.57451 0
M  V30 5948 C 547.827 0.89747 -2.15564 0
M  V30 5949 C 548.808 1.31266 -1.08181 0
M  V30 5950 O 549.993 1.38429 -1.36202 0
M  V30 5951 C 547.123 2.16623 -2.71463 0
M  V30 5952 C 546.077 1.89054 -3.83982 0
M  V30 5953 C 545.403 3.22532 -4.26471 0
M  V30 5954 C 546.703 1.1984 -5.08366 0
M  V30 5955 H 548.397 0.413373 -2.96533 0
M  V30 5956 H 545.943 0.197391 -1.42641 0
M  V30 5957 H 547.896 2.84614 -3.10761 0
M  V30 5958 H 546.62 2.67269 -1.8771 0
M  V30 5959 H 545.279 1.23469 -3.45183 0
M  V30 5960 H 544.927 3.71013 -3.39644 0
M  V30 5961 H 544.627 3.04879 -5.02317 0
M  V30 5962 H 546.151 3.91727 -4.68383 0
M  V30 5963 H 547.565 1.77896 -5.45001 0
M  V30 5964 H 545.962 1.12456 -5.89469 0
M  V30 5965 H 547.032 0.176996 -4.84577 0
M  V30 5966 N 548.375 1.56261 0.205012 0
M  V30 5967 C 549.307 1.90266 1.27795 0
M  V30 5968 C 550.32 0.792397 1.42214 0
M  V30 5969 O 551.509 1.07077 1.42817 0
M  V30 5970 C 548.609 2.11074 2.65143 0
M  V30 5971 C 547.782 3.42176 2.7246 0
M  V30 5972 C 546.841 3.52216 3.90936 0
M  V30 5973 O 545.867 4.25119 3.78501 0
M  V30 5974 N 547.069 2.84573 5.05963 0
M  V30 5975 H 549.834 2.82896 0.989434 0
M  V30 5976 H 547.395 1.57008 0.394981 0
M  V30 5977 H 549.387 2.15089 3.4281 0
M  V30 5978 H 547.957 1.2499 2.86524 0
M  V30 5979 H 547.177 3.50116 1.81142 0
M  V30 5980 H 548.465 4.28509 2.74331 0
M  V30 5981 H 547.863 2.25152 5.18963 0
M  V30 5982 H 546.42 2.94228 5.81613 0
M  V30 5983 N 549.853 -0.472356 1.50355 0
M  V30 5984 C 550.801 -1.59126 1.69651 0
M  V30 5985 C 551.795 -1.59793 0.56237 0
M  V30 5986 O 553.001 -1.63957 0.742832 0
M  V30 5987 H 549.376 -0.528008 0.535454 0
M  V30 5988 H 551.347 -1.40013 2.63513 0
M  V30 5989 C 550.096 -2.97075 1.8067 0
M  V30 5990 H 549.419 -2.9728 2.67329 0
M  V30 5991 H 550.859 -3.74825 1.98197 0
M  V30 5992 C 549.318 -3.32247 0.558016 0
M  V30 5993 O 549.848 -4.00553 -0.303399 0
M  V30 5994 N 548.054 -2.87659 0.412415 0
M  V30 5995 H 547.601 -2.32246 1.11443 0
M  V30 5996 H 547.559 -3.11556 -0.421908 0
M  V30 5997 N 551.331 -1.39911 -0.725443 0
M  V30 5998 C 552.579 -1.37382 -1.48224 0
M  V30 5999 C 552.9 0.0264107 -1.94982 0
M  V30 6000 O 552.17 0.979408 -1.6966 0
M  V30 6001 H 550.75 -0.505596 -0.549892 0
M  V30 6002 H 553.412 -1.7487 -0.860608 0
M  V30 6003 H 552.508 -2.04254 -2.3598 0
M  V30 6004 N 552.809 0.956637 -1.25245 0
M  V30 6005 C 554.058 1.69537 -1.0927 0
M  V30 6006 C 554.371 1.92136 0.366503 0
M  V30 6007 O 555.577 2.63687 0.64665 0
M  V30 6008 C 554.033 3.05211 -1.9072 0
M  V30 6009 C 553.641 2.90416 -3.41119 0
M  V30 6010 C 555.385 3.82882 -1.83308 0
M  V30 6011 C 553.292 4.21468 -4.14872 0
M  V30 6012 H 552.222 0.635804 -0.405302 0
M  V30 6013 H 554.873 1.06513 -1.49423 0
M  V30 6014 H 553.255 3.69128 -1.43389 0
M  V30 6015 H 554.429 2.35444 -3.9611 0
M  V30 6016 H 552.744 2.26203 -3.49602 0
M  V30 6017 H 555.341 4.79944 -2.35706 0
M  V30 6018 H 555.684 4.0853 -0.800572 0
M  V30 6019 H 556.217 3.25711 -2.28379 0
M  V30 6020 H 552.956 4.01009 -5.18529 0
M  V30 6021 H 552.476 4.76213 -3.64665 0
M  V30 6022 H 554.155 4.90022 -4.22478 0
M  V30 6023 N 554.287 1.06798 1.15896 0
M  V30 6024 C 555.534 0.787767 1.86549 0
M  V30 6025 C 555.862 -0.685959 1.82002 0
M  V30 6026 O 555.117 -1.5188 1.23414 0
M  V30 6027 C 555.416 1.23414 3.35416 0
M  V30 6028 C 555.082 2.71285 3.6016 0
M  V30 6029 C 553.744 3.11676 3.66622 0
M  V30 6030 C 556.096 3.6676 3.7032 0
M  V30 6031 C 553.424 4.4637 3.8075 0
M  V30 6032 C 555.776 5.01209 3.8597 0
M  V30 6033 C 554.44 5.41229 3.90676 0
M  V30 6034 H 553.71 0.288264 0.682631 0
M  V30 6035 H 556.357 1.338 1.37003 0
M  V30 6036 H 554.662 0.60319 3.87129 0
M  V30 6037 H 556.359 0.994298 3.88477 0
M  V30 6038 H 552.949 2.39015 3.55767 0
M  V30 6039 H 557.133 3.36685 3.64633 0
M  V30 6040 H 552.389 4.76855 3.82648 0
M  V30 6041 H 556.563 5.75067 3.92773 0
M  V30 6042 H 554.19 6.45602 4.01375 0
M  V30 6043 N 555.766 -1.3263 0.851289 0
M  V30 6044 C 557.006 -1.99174 0.459266 0
M  V30 6045 C 557.37 -1.65913 -0.966273 0
M  V30 6046 O 558.571 -2.2552 -1.46267 0
M  V30 6047 C 556.842 -3.50721 0.687698 0
M  V30 6048 S 558.401 -4.37039 0.392746 0
M  V30 6049 H 555.219 -0.689832 0.172199 0
M  V30 6050 H 557.821 -1.61395 1.10327 0
M  V30 6051 H 556.525 -3.72417 1.72435 0
M  V30 6052 H 556.056 -3.93389 0.0299949 0
M  V30 6053 H 558.071 -4.8999 -0.782578 0
M  V30 6054 N 557.244 -0.608902 -1.45362 0
M  V30 6055 C 558.192 0.121639 -2.32282 0
M  V30 6056 C 559.186 0.858301 -1.46046 0
M  V30 6057 O 560.392 0.773718 -1.62523 0
M  V30 6058 H 556.767 0.058086 -0.749753 0
M  V30 6059 H 558.738 -0.629866 -2.91677 0
M  V30 6060 C 557.487 1.1047 -3.29684 0
M  V30 6061 H 556.81 0.547278 -3.96036 0
M  V30 6062 H 558.25 1.58576 -3.9323 0
M  V30 6063 C 556.709 2.17891 -2.56954 0
M  V30 6064 O 557.239 3.25652 -2.35189 0
M  V30 6065 N 555.445 1.93211 -2.17066 0
M  V30 6066 H 554.992 1.05584 -2.34967 0
M  V30 6067 H 554.95 2.6529 -1.68727 0
M  V30 6068 O 558.761 1.53877 -0.490327 0
M  V30 6069 H 559.452 1.93677 0.0300664 0
M  V30 END ATOM
M  V30 BEGIN BOND
M  V30 END BOND
M  V30 END CTAB
M  END
$$$$
