drugbank_target|P25311 Zinc-alpha-2-glycoprotein (DB03721; DB09130)
 OpenBabel12092120263D

  0  0  0     0  0            999 V3000
M  V30 BEGIN CTAB
M  V30 COUNTS 4767 4836 0 0 0
M  V30 BEGIN ATOM
M  V30 1 H -0.908 1.98254 -0.117106 0
M  V30 2 N 0 1.576 0 0
M  V30 3 C 0.933 2.03868 1.02534 0
M  V30 4 C 1.911 0.928543 1.3348 0
M  V30 5 O 3.095 1.19667 1.45644 0
M  V30 6 C 0.222 2.43627 2.35294 0
M  V30 7 C -0.732 3.65373 2.2001 0
M  V30 8 S 0.101 5.13292 1.52614 0
M  V30 9 C 1.257 5.56322 2.86805 0
M  V30 10 H 1.49 2.90518 0.631377 0
M  V30 11 H -0.977 1.52953 0.210867 0
M  V30 12 H 0.981 2.67203 3.11629 0
M  V30 13 H -0.358 1.57376 2.7183 0
M  V30 14 H -1.165 3.90944 3.18086 0
M  V30 15 H -1.563 3.418 1.51819 0
M  V30 16 H 0.729 5.58782 3.83104 0
M  V30 17 H 1.672 6.56266 2.65933 0
M  V30 18 H 2.08 4.83886 2.90714 0
M  V30 19 N 1.4781 -0.272755 1.55222 0
M  V30 20 C 2.7241 -1.00581 1.761 0
M  V30 21 C 3.0571 -1.85932 0.560625 0
M  V30 22 O 2.3321 -1.89416 -0.441801 0
M  V30 23 C 2.6151 -1.88816 3.06628 0
M  V30 24 C 2.4681 -1.06457 4.37021 0
M  V30 25 C 3.7871 -2.8752 3.33197 0
M  V30 26 H 0.9061 -0.364244 0.640699 0
M  V30 27 H 3.5481 -0.278189 1.87952 0
M  V30 28 H 1.6981 -2.50856 2.96654 0
M  V30 29 H 3.3701 -0.464863 4.58952 0
M  V30 30 H 1.6131 -0.368043 4.32236 0
M  V30 31 H 2.2841 -1.71514 5.24678 0
M  V30 32 H 4.7601 -2.35615 3.42965 0
M  V30 33 H 3.6361 -3.46399 4.25792 0
M  V30 34 H 3.8971 -3.62657 2.52849 0
M  V30 35 N 2.9562 -1.48159 -0.537278 0
M  V30 36 C 4.3722 -1.34118 -0.865129 0
M  V30 37 C 4.5722 -0.346678 -1.98495 0
M  V30 38 O 3.6282 0.234715 -2.51407 0
M  V30 39 C 4.9412 -2.73963 -1.23954 0
M  V30 40 C 6.4892 -2.82397 -1.34984 0
M  V30 41 C 6.9642 -4.22928 -1.75772 0
M  V30 42 N 8.4552 -4.25566 -1.82887 0
M  V30 43 C 9.1902 -5.31235 -2.15817 0
M  V30 44 N 8.6862 -6.47189 -2.47222 0
M  V30 45 N 10.4792 -5.18624 -2.16761 0
M  V30 46 H 2.6302 -2.1144 0.201715 0
M  V30 47 H 4.8932 -0.947598 0.0275949 0
M  V30 48 H 4.5992 -3.48264 -0.490381 0
M  V30 49 H 4.4732 -3.0702 -2.19132 0
M  V30 50 H 6.8602 -2.08356 -2.08978 0
M  V30 51 H 6.9412 -2.5297 -0.379448 0
M  V30 52 H 6.5852 -4.97482 -1.02341 0
M  V30 53 H 6.5152 -4.49794 -2.73848 0
M  V30 54 H 9.0062 -3.41924 -1.60924 0
M  V30 55 H 9.3192 -7.23564 -2.71433 0
M  V30 56 H 7.6642 -6.50476 -2.44757 0
M  V30 57 H 10.8552 -4.27056 -1.91679 0
M  V30 58 H 11.0282 -6.01078 -2.42093 0
M  V30 59 N 4.4343 0.785586 -1.36625 0
M  V30 60 C 5.3673 1.90509 -1.25625 0
M  V30 61 C 6.3453 1.62 -0.139607 0
M  V30 62 O 7.5293 1.8591 -0.31141 0
M  V30 63 C 4.6563 3.25419 -0.939158 0
M  V30 64 C 3.7023 3.72856 -2.07077 0
M  V30 65 S 4.5353 3.88162 -3.68904 0
M  V30 66 C 5.6913 5.25942 -3.39317 0
M  V30 67 H 5.9243 1.99549 -2.20381 0
M  V30 68 H 3.4573 0.945226 -1.22085 0
M  V30 69 H 5.4153 4.03346 -0.763029 0
M  V30 70 H 4.0763 3.14099 -0.00931402 0
M  V30 71 H 3.2693 4.70624 -1.80357 0
M  V30 72 H 2.8713 3.01989 -2.20632 0
M  V30 73 H 5.1633 6.10651 -2.93447 0
M  V30 74 H 6.1063 5.57668 -4.36363 0
M  V30 75 H 6.5143 4.93224 -2.74573 0
M  V30 76 N 5.9124 1.20967 1.01018 0
M  V30 77 C 7.1584 1.02526 1.74975 0
M  V30 78 C 7.4914 -0.4408 1.89131 0
M  V30 79 O 6.7664 -1.32718 1.42184 0
M  V30 80 C 7.0494 1.71699 3.1653 0
M  V30 81 C 6.9024 3.25791 3.10129 0
M  V30 82 C 8.2214 1.45531 4.15342 0
M  V30 83 H 5.3404 0.373863 0.635134 0
M  V30 84 H 7.9824 1.49071 1.17805 0
M  V30 85 H 6.1324 1.32128 3.65341 0
M  V30 86 H 7.8044 3.74697 2.69072 0
M  V30 87 H 6.0474 3.56363 2.47362 0
M  V30 88 H 6.7184 3.69353 4.10222 0
M  V30 89 H 9.1944 1.79872 3.75213 0
M  V30 90 H 8.0704 1.96453 5.1254 0
M  V30 91 H 8.3314 0.384237 4.40427 0
M  V30 92 N 7.3905 -1.2043 1.01659 0
M  V30 93 C 8.8015 -1.71517 0.737482 0
M  V30 94 C 9.1525 -1.81547 -0.743973 0
M  V30 95 O 8.2775 -1.47803 -1.58061 0
M  V30 96 C 8.8725 -3.11515 1.33206 0
M  V30 97 C 7.4315 -3.59912 1.10183 0
M  V30 98 C 6.5785 -2.37116 1.43776 0
M  V30 99 H 9.5295 -1.05444 1.18606 0
M  V30 100 H 9.5505 -3.73575 0.722636 0
M  V30 101 H 9.0625 -3.04182 2.41028 0
M  V30 102 H 7.1635 -3.72577 0.0412756 0
M  V30 103 H 7.2765 -4.44731 1.78188 0
M  V30 104 H 5.6405 -2.39857 0.856778 0
M  V30 105 H 6.4235 -2.32424 2.52654 0
M  V30 106 N 8.8686 -0.792821 -1.36206 0
M  V30 107 C 10.1146 -0.36733 -1.99446 0
M  V30 108 C 10.4476 1.05917 -1.62774 0
M  V30 109 O 9.7226 1.7324 -0.88421 0
M  V30 110 C 10.0056 -0.535044 -3.56103 0
M  V30 111 C 9.8586 -2.00548 -4.02617 0
M  V30 112 C 11.1776 0.0478191 -4.40074 0
M  V30 113 H 8.2966 -0.134941 -0.724541 0
M  V30 114 H 10.9386 -0.999794 -1.61568 0
M  V30 115 H 9.0886 0.00336329 -3.885 0
M  V30 116 H 10.7606 -2.60521 -3.80692 0
M  V30 117 H 9.0036 -2.50686 -3.54032 0
M  V30 118 H 9.6746 -2.07377 -5.11565 0
M  V30 119 H 12.1506 -0.411822 -4.14057 0
M  V30 120 H 11.0266 -0.0995336 -5.4881 0
M  V30 121 H 11.2876 1.14025 -4.27142 0
M  V30 122 N 10.3467 1.47872 -0.545128 0
M  V30 123 C 11.2767 2.32661 0.197793 0
M  V30 124 C 12.2577 1.43041 0.920504 0
M  V30 125 O 13.4427 1.71912 0.90333 0
M  V30 126 C 10.5727 3.24569 1.23582 0
M  V30 127 C 9.5267 4.23333 0.630323 0
M  V30 128 C 8.8527 5.0448 1.77211 0
M  V30 129 C 10.1527 5.20704 -0.407974 0
M  V30 130 H 11.8467 2.95024 -0.510045 0
M  V30 131 H 9.3927 1.4187 -0.246731 0
M  V30 132 H 11.3457 3.8272 1.76362 0
M  V30 133 H 10.0697 2.60236 1.97344 0
M  V30 134 H 8.7287 3.6639 0.123922 0
M  V30 135 H 8.3767 4.36561 2.49847 0
M  V30 136 H 8.0767 5.71339 1.37281 0
M  V30 137 H 9.6007 5.65487 2.3034 0
M  V30 138 H 11.0147 5.7329 0.033305 0
M  V30 139 H 9.4117 5.95699 -0.725486 0
M  V30 140 H 10.4817 4.66917 -1.30828 0
M  V30 141 N 11.8248 0.280983 1.55075 0
M  V30 142 C 12.7548 -0.597469 2.25727 0
M  V30 143 C 13.7358 -1.15417 1.24952 0
M  V30 144 O 14.9208 -1.18722 1.53684 0
M  V30 145 C 12.0508 -1.7789 2.98283 0
M  V30 146 C 11.0048 -1.35347 4.06036 0
M  V30 147 C 10.3308 -2.61846 4.66198 0
M  V30 148 C 11.6308 -0.499354 5.19907 0
M  V30 149 H 13.3248 -0.00824265 2.99399 0
M  V30 150 H 10.8708 -0.0025244 1.44 0
M  V30 151 H 12.8238 -2.39937 3.46422 0
M  V30 152 H 11.5478 -2.39405 2.22155 0
M  V30 153 H 10.2068 -0.756156 3.58717 0
M  V30 154 H 9.8548 -3.21632 3.86732 0
M  V30 155 H 9.5548 -2.3409 5.38958 0
M  V30 156 H 11.0788 -3.24732 5.1709 0
M  V30 157 H 12.4928 -1.02498 5.64063 0
M  V30 158 H 10.8898 -0.316424 5.99265 0
M  V30 159 H 11.9598 0.480459 4.82514 0
M  V30 160 N 13.3029 -1.57598 0.00835791 0
M  V30 161 C 14.5279 -1.95617 -0.689103 0
M  V30 162 C 14.9529 -0.883753 -1.66046 0
M  V30 163 O 14.3109 0.157352 -1.80616 0
M  V30 164 C 14.3589 -3.32736 -1.38994 0
M  V30 165 O 13.4629 -3.27631 -2.50463 0
M  V30 166 H 12.8039 -0.638379 -0.182668 0
M  V30 167 H 15.3339 -2.045 0.064036 0
M  V30 168 H 15.3439 -3.68494 -1.75147 0
M  V30 169 H 14.0189 -4.1034 -0.677778 0
M  V30 170 H 12.5959 -3.03561 -2.16576 0
M  V30 171 N 14.781 0.264519 -1.55364 0
M  V30 172 C 15.711 1.33121 -1.91836 0
M  V30 173 C 16.692 1.51101 -0.781192 0
M  V30 174 O 17.877 1.64003 -1.04003 0
M  V30 175 C 15.007 2.68921 -2.19769 0
M  V30 176 C 13.961 2.65661 -3.35571 0
M  V30 177 C 13.287 4.05093 -3.49004 0
M  V30 178 C 14.587 2.24187 -4.71739 0
M  V30 179 H 16.281 1.02844 -2.81182 0
M  V30 180 H 13.827 0.493286 -1.35287 0
M  V30 181 H 15.78 3.43663 -2.43872 0
M  V30 182 H 14.504 3.00799 -1.27231 0
M  V30 183 H 13.163 1.93377 -3.1145 0
M  V30 184 H 12.811 4.34206 -2.53917 0
M  V30 185 H 12.511 4.03804 -4.26868 0
M  V30 186 H 14.035 4.81561 -3.75408 0
M  V30 187 H 15.449 2.88654 -4.9533 0
M  V30 188 H 13.846 2.34044 -5.52579 0
M  V30 189 H 14.916 1.19327 -4.69988 0
M  V30 190 N 16.2591 1.48442 0.529413 0
M  V30 191 C 17.1891 1.65902 1.64313 0
M  V30 192 C 18.1701 0.507897 1.6234 0
M  V30 193 O 19.3551 0.740503 1.79528 0
M  V30 194 C 16.4851 1.69911 3.02898 0
M  V30 195 C 15.4391 2.8453 3.19729 0
M  V30 196 C 14.7651 2.73629 4.59381 0
M  V30 197 C 16.0651 4.25821 3.02447 0
M  V30 198 H 17.7591 2.5914 1.49955 0
M  V30 199 H 15.3051 1.24709 0.719982 0
M  V30 200 H 17.2581 1.80715 3.80684 0
M  V30 201 H 15.9821 0.732524 3.18279 0
M  V30 202 H 14.6411 2.73283 2.44361 0
M  V30 203 H 14.2891 1.74938 4.71599 0
M  V30 204 H 13.9891 3.50541 4.71588 0
M  V30 205 H 15.5131 2.86401 5.39265 0
M  V30 206 H 16.9271 4.37898 3.70024 0
M  V30 207 H 15.3241 5.03735 3.26146 0
M  V30 208 H 16.3941 4.42244 1.98867 0
M  V30 209 N 17.7372 -0.778329 1.37039 0
M  V30 210 C 18.6672 -1.90546 1.34962 0
M  V30 211 C 19.6482 -1.68681 0.219274 0
M  V30 212 O 20.8332 -1.89634 0.418624 0
M  V30 213 C 17.9632 -3.27734 1.14925 0
M  V30 214 C 16.9172 -3.64147 2.24902 0
M  V30 215 C 16.2432 -4.99806 1.89996 0
M  V30 216 C 17.5432 -3.71579 3.67051 0
M  V30 217 H 19.2372 -1.92541 2.29277 0
M  V30 218 H 16.7832 -0.924948 1.10366 0
M  V30 219 H 18.7362 -4.06215 1.12104 0
M  V30 220 H 17.4602 -3.26154 0.170631 0
M  V30 221 H 16.1192 -2.8797 2.26868 0
M  V30 222 H 15.7672 -4.94759 0.906796 0
M  V30 223 H 15.4672 -5.25139 2.63634 0
M  V30 224 H 16.9912 -5.80694 1.88749 0
M  V30 225 H 18.4052 -4.40227 3.67251 0
M  V30 226 H 16.8022 -4.08405 4.39688 0
M  V30 227 H 17.8722 -2.72404 4.01154 0
M  V30 228 N 19.2153 -1.21501 -1.00376 0
M  V30 229 C 20.1453 -0.999478 -2.11028 0
M  V30 230 C 21.1263 0.0759671 -1.6993 0
M  V30 231 O 22.3113 -0.0841106 -1.94018 0
M  V30 232 C 19.4413 -0.564709 -3.42678 0
M  V30 233 C 18.3953 -1.58486 -3.97576 0
M  V30 234 C 17.7213 -1.00628 -5.25146 0
M  V30 235 C 19.0213 -2.97204 -4.29496 0
M  V30 236 H 20.7153 -1.92495 -2.29317 0
M  V30 237 H 18.2613 -0.92693 -1.102 0
M  V30 238 H 20.2143 -0.401091 -4.19487 0
M  V30 239 H 18.9383 0.396411 -3.24185 0
M  V30 240 H 17.5973 -1.73606 -3.22888 0
M  V30 241 H 17.2453 -0.0368439 -5.02987 0
M  V30 242 H 16.9453 -1.68771 -5.62841 0
M  V30 243 H 18.4693 -0.854015 -6.04598 0
M  V30 244 H 19.8833 -2.8552 -4.97143 0
M  V30 245 H 18.2803 -3.62372 -4.78338 0
M  V30 246 H 19.3503 -3.47956 -3.3772 0
M  V30 247 N 20.6934 1.19889 -1.02296 0
M  V30 248 C 21.6234 2.25141 -0.619174 0
M  V30 249 C 22.6044 1.66051 0.368915 0
M  V30 250 O 23.7894 1.92546 0.252941 0
M  V30 251 C 20.9194 3.4728 0.0368783 0
M  V30 252 C 19.8734 4.19005 -0.872865 0
M  V30 253 C 19.1994 5.34637 -0.0822402 0
M  V30 254 C 20.4994 4.74452 -2.18387 0
M  V30 255 H 22.1934 2.59171 -1.49903 0
M  V30 256 H 19.7394 1.24579 -0.722222 0
M  V30 257 H 21.6924 4.20098 0.330958 0
M  V30 258 H 20.4164 3.12433 0.95149 0
M  V30 259 H 19.0754 3.48061 -1.15105 0
M  V30 260 H 18.7234 4.96034 0.83422 0
M  V30 261 H 18.4234 5.83557 -0.688149 0
M  V30 262 H 19.9474 6.10255 0.205238 0
M  V30 263 H 21.3614 5.39055 -1.95172 0
M  V30 264 H 19.7584 5.33834 -2.74119 0
M  V30 265 H 20.8284 3.92844 -2.84257 0
M  V30 266 N 22.1715 0.800033 1.35784 0
M  V30 267 C 23.4195 0.376597 1.9856 0
M  V30 268 C 23.7405 -1.05812 1.63795 0
M  V30 269 O 23.0105 -1.73103 0.917171 0
M  V30 270 H 21.5905 0.136261 0.734467 0
M  V30 271 H 24.2525 1.02442 1.65806 0
M  V30 272 H 23.3485 0.477002 3.08433 0
M  V30 273 N 23.6496 -1.47581 0.552962 0
M  V30 274 C 25.0606 -1.86324 0.118463 0
M  V30 275 C 25.4116 -1.46006 -1.3106 0
M  V30 276 O 24.5366 -0.861182 -1.98526 0
M  V30 277 C 25.1316 -3.3816 0.20821 0
M  V30 278 C 23.6906 -3.7601 -0.171226 0
M  V30 279 C 22.8376 -2.71634 0.557686 0
M  V30 280 H 25.7886 -1.39159 0.762928 0
M  V30 281 H 25.8096 -3.76141 -0.574278 0
M  V30 282 H 25.3216 -3.67473 1.24841 0
M  V30 283 H 23.4226 -3.52313 -1.21269 0
M  V30 284 H 23.5356 -4.78745 0.184379 0
M  V30 285 H 21.8996 -2.547 0.00125792 0
M  V30 286 H 22.6826 -3.0379 1.59896 0
M  V30 287 N 25.1277 -0.289203 -1.54924 0
M  V30 288 C 26.0907 0.579144 -2.21762 0
M  V30 289 C 27.0907 1.07047 -1.1999 0
M  V30 290 O 28.2807 0.968384 -1.44803 0
M  V30 291 C 25.4127 1.80055 -2.8947 0
M  V30 292 H 26.6057 -0.00464908 -2.999 0
M  V30 293 H 24.1587 -0.0399306 -1.56249 0
M  V30 294 H 24.8937 2.42449 -2.15381 0
M  V30 295 H 24.6787 1.45602 -3.64064 0
M  V30 296 H 26.1687 2.41773 -3.40493 0
M  V30 297 N 26.6058 1.57591 -0.0167156 0
M  V30 298 C 27.8518 1.91567 0.665582 0
M  V30 299 C 28.1848 0.892298 1.72487 0
M  V30 300 O 27.4598 -0.0867127 1.94307 0
M  V30 301 C 27.7428 3.36069 1.29342 0
M  V30 302 C 27.5958 4.49135 0.244541 0
M  V30 303 C 28.9148 3.803 2.21495 0
M  V30 304 H 26.0338 0.69666 0.240488 0
M  V30 305 H 28.6758 1.89866 -0.0714356 0
M  V30 306 H 26.8258 3.3765 1.92158 0
M  V30 307 H 28.4978 4.59689 -0.385228 0
M  V30 308 H 26.7408 4.3165 -0.431379 0
M  V30 309 H 27.4118 5.47242 0.723207 0
M  V30 310 H 29.8878 3.80377 1.68678 0
M  V30 311 H 28.7638 4.82127 2.62382 0
M  V30 312 H 29.0248 3.15104 3.101 0
M  V30 313 N 28.0839 -0.256276 1.55502 0
M  V30 314 C 29.4949 -0.826068 1.67431 0
M  V30 315 C 29.8459 -1.86396 0.612446 0
M  V30 316 O 28.9709 -2.15031 -0.243025 0
M  V30 317 C 29.5659 -1.50512 3.03532 0
M  V30 318 C 28.1249 -2.02273 3.17431 0
M  V30 319 C 27.2719 -0.870548 2.63281 0
M  V30 320 H 30.2229 -0.0322728 1.58667 0
M  V30 321 H 30.2439 -2.37279 2.97454 0
M  V30 322 H 29.7559 -0.749484 3.80794 0
M  V30 323 H 27.8569 -2.80746 2.44974 0
M  V30 324 H 27.9699 -2.22655 4.24219 0
M  V30 325 H 26.3339 -1.26851 2.20864 0
M  V30 326 H 27.1169 -0.128149 3.43061 0
M  V30 327 N 29.562 -1.4872 -0.521534 0
M  V30 328 C 30.494 -1.59968 -1.64143 0
M  V30 329 C 31.507 -0.483463 -1.55456 0
M  V30 330 O 32.696 -0.75467 -1.61762 0
M  V30 331 C 29.796 -1.52127 -3.02838 0
M  V30 332 C 28.969 -2.78932 -3.36921 0
M  V30 333 C 28.028 -2.64428 -4.54933 0
M  V30 334 O 27.054 -3.38331 -4.57735 0
M  V30 335 N 28.256 -1.74606 -5.53618 0
M  V30 336 H 31.021 -2.56548 -1.54929 0
M  V30 337 H 28.582 -1.45551 -0.708988 0
M  V30 338 H 30.574 -1.40106 -3.79674 0
M  V30 339 H 29.144 -0.634868 -3.06085 0
M  V30 340 H 28.364 -3.05455 -2.4918 0
M  V30 341 H 29.652 -3.63041 -3.56481 0
M  V30 342 H 29.05 -1.13782 -5.54139 0
M  V30 343 H 27.607 -1.6852 -6.29638 0
M  V30 344 N 31.0401 0.771051 -1.3745 0
M  V30 345 C 31.9501 1.91538 -1.35464 0
M  V30 346 C 32.9661 1.72134 -0.254123 0
M  V30 347 O 34.1421 1.95358 -0.489626 0
M  V30 348 C 31.2071 3.26671 -1.16134 0
M  V30 349 C 30.2681 3.58723 -2.35831 0
M  V30 350 C 29.5011 4.87409 -2.17413 0
M  V30 351 O 29.7241 5.58506 -1.15876 0
M  V30 352 O 28.6581 5.18539 -3.05615 0
M  V30 353 H 32.4841 1.96165 -2.31847 0
M  V30 354 H 30.0691 0.9139 -1.18187 0
M  V30 355 H 31.9511 4.07499 -1.07345 0
M  V30 356 H 30.6261 3.22894 -0.228251 0
M  V30 357 H 29.5331 2.78127 -2.50192 0
M  V30 358 H 30.8661 3.67243 -3.27709 0
M  V30 359 N 32.5182 1.22032 0.997298 0
M  V30 360 C 33.4662 0.983634 2.10778 0
M  V30 361 C 34.4602 -0.0717564 1.69248 0
M  V30 362 O 35.6662 0.080304 1.79821 0
M  V30 363 H 32.0412 0.300877 0.689186 0
M  V30 364 H 34.0122 1.92606 2.27916 0
M  V30 365 C 32.7612 0.57326 3.42942 0
M  V30 366 H 32.0842 1.37702 3.75338 0
M  V30 367 H 33.5242 0.447031 4.21637 0
M  V30 368 C 31.9832 -0.7167 3.29188 0
M  V30 369 O 32.5132 -1.77027 3.60589 0
M  V30 370 N 30.7192 -0.686167 2.82383 0
M  V30 371 H 30.2662 0.171507 2.57028 0
M  V30 372 H 30.2242 -1.54955 2.73562 0
M  V30 373 N 33.9963 -1.19345 1.0293 0
M  V30 374 C 34.9283 -2.22036 0.56857 0
M  V30 375 C 35.9413 -1.58865 -0.355779 0
M  V30 376 O 37.1303 -1.77851 -0.152103 0
M  V30 377 C 34.2303 -3.38363 -0.190752 0
M  V30 378 C 33.4033 -4.31118 0.738643 0
M  V30 379 C 32.4623 -5.26194 0.0246497 0
M  V30 380 O 31.4883 -5.65461 0.651354 0
M  V30 381 N 32.6903 -5.66971 -1.24594 0
M  V30 382 H 35.4553 -2.6219 1.45177 0
M  V30 383 H 33.0163 -1.34015 0.908381 0
M  V30 384 H 35.0083 -3.98981 -0.677961 0
M  V30 385 H 33.5783 -2.96994 -0.975366 0
M  V30 386 H 32.7983 -3.68276 1.40593 0
M  V30 387 H 34.0863 -4.90001 1.37029 0
M  V30 388 H 33.4843 -5.37104 -1.77583 0
M  V30 389 H 32.0413 -6.2984 -1.67764 0
M  V30 390 N 35.4744 -0.807222 -1.35358 0
M  V30 391 C 36.7514 -0.311126 -1.9311 0
M  V30 392 C 37.1314 1.19937 -1.73719 0
M  V30 393 O 36.4794 1.99918 -1.10657 0
M  V30 394 C 36.6894 -0.723226 -3.41424 0
M  V30 395 C 38.0374 -0.713078 -4.18569 0
M  V30 396 O 39.0614 -0.664811 -3.49941 0
M  V30 397 O 37.9204 -0.772022 -5.41019 0
M  V30 398 H 35.0144 -0.081526 -0.822972 0
M  V30 399 H 37.5604 -0.890962 -1.4443 0
M  V30 400 H 36.3324 -1.76426 -3.4927 0
M  V30 401 H 35.9554 -0.118232 -3.97424 0
M  V30 402 N 36.9525 1.47285 -0.560781 0
M  V30 403 C 38.2005 2.02064 -0.0379868 0
M  V30 404 C 38.5215 1.43711 1.31803 0
M  V30 405 O 37.7915 0.61362 1.86042 0
M  V30 406 H 36.3715 0.746918 -0.0110531 0
M  V30 407 H 39.0335 1.80648 -0.731598 0
M  V30 408 H 38.1295 3.12064 0.0474463 0
M  V30 409 N 38.4306 0.297415 1.54768 0
M  V30 410 C 39.8466 -0.0560823 1.59501 0
M  V30 411 C 40.0466 -1.52725 1.31444 0
M  V30 412 O 39.1026 -2.27947 1.08611 0
M  V30 413 C 40.4156 0.338631 2.98787 0
M  V30 414 C 41.9636 0.287097 3.11681 0
M  V30 415 C 42.4386 0.656579 4.53269 0
M  V30 416 N 43.9296 0.608977 4.59179 0
M  V30 417 C 44.6646 0.867385 5.66802 0
M  V30 418 N 44.1606 1.19157 6.82476 0
M  V30 419 N 45.9536 0.794687 5.56454 0
M  V30 420 H 38.1046 1.25624 1.71267 0
M  V30 421 H 40.3676 0.509057 0.799728 0
M  V30 422 H 40.0736 1.36263 3.2423 0
M  V30 423 H 39.9476 -0.309508 3.75928 0
M  V30 424 H 42.3346 -0.727649 2.85988 0
M  V30 425 H 42.4156 0.969809 2.36703 0
M  V30 426 H 42.0596 1.66912 4.7969 0
M  V30 427 H 41.9896 -0.0481649 5.26578 0
M  V30 428 H 44.4806 0.369198 3.76092 0
M  V30 429 H 44.7936 1.37482 7.60473 0
M  V30 430 H 43.1386 1.22958 6.84037 0
M  V30 431 H 46.3296 0.541098 4.64962 0
M  V30 432 H 46.5026 0.999445 6.40246 0
M  V30 433 N 39.9087 -1.5758 0.0250728 0
M  V30 434 C 41.1387 -1.95646 -0.663783 0
M  V30 435 C 41.5467 -0.899935 -1.66427 0
M  V30 436 O 40.8897 0.127191 -1.83259 0
M  V30 437 C 40.9517 -3.29835 -1.43 0
M  V30 438 C 40.6157 -4.53197 -0.588305 0
M  V30 439 C 41.6127 -5.19726 0.13469 0
M  V30 440 C 39.2977 -4.99529 -0.526897 0
M  V30 441 C 41.2917 -6.30902 0.90781 0
M  V30 442 C 38.9787 -6.10589 0.24993 0
M  V30 443 C 39.9767 -6.76134 0.965994 0
M  V30 444 O 39.6647 -7.85062 1.7301 0
M  V30 445 H 39.3967 -0.649282 -0.188174 0
M  V30 446 H 41.9507 -2.05245 0.0799006 0
M  V30 447 H 40.1807 -3.16716 -2.21873 0
M  V30 448 H 41.8697 -3.52833 -2.00658 0
M  V30 449 H 42.6357 -4.84904 0.0965562 0
M  V30 450 H 38.5147 -4.48319 -1.07381 0
M  V30 451 H 42.0587 -6.81995 1.46724 0
M  V30 452 H 37.9557 -6.44849 0.289795 0
M  V30 453 H 38.7237 -8.01708 1.64944 0
M  V30 454 N 41.3868 0.248026 -1.55636 0
M  V30 455 C 42.6118 0.998028 -1.81808 0
M  V30 456 C 43.0368 1.78207 -0.601979 0
M  V30 457 O 42.3948 1.75653 0.448961 0
M  V30 458 C 42.4428 1.9125 -3.05705 0
M  V30 459 O 41.5468 3.00406 -2.82542 0
M  V30 460 H 40.8878 0.284045 -0.600179 0
M  V30 461 H 43.4178 0.269357 -2.02819 0
M  V30 462 H 43.4278 2.32737 -3.35108 0
M  V30 463 H 42.1028 1.33602 -3.93857 0
M  V30 464 H 40.6798 2.63056 -2.64303 0
M  V30 465 N 42.8649 1.48995 0.513639 0
M  V30 466 C 43.7949 1.67636 1.62544 0
M  V30 467 C 44.7759 0.525087 1.61793 0
M  V30 468 O 45.9609 0.759502 1.78732 0
M  V30 469 C 43.0909 1.73114 3.01079 0
M  V30 470 C 42.0449 2.87905 3.16693 0
M  V30 471 C 41.3709 2.78486 4.56453 0
M  V30 472 C 42.6709 4.29005 2.97913 0
M  V30 473 H 44.3649 2.60716 1.47198 0
M  V30 474 H 41.9109 1.25465 0.706714 0
M  V30 475 H 43.8639 1.84742 3.78746 0
M  V30 476 H 42.5879 0.766241 3.17484 0
M  V30 477 H 41.2469 2.75859 2.41448 0
M  V30 478 H 40.8949 1.7993 4.69717 0
M  V30 479 H 40.5949 3.55523 4.67843 0
M  V30 480 H 42.1189 2.92104 5.36197 0
M  V30 481 H 43.5329 4.41798 3.65359 0
M  V30 482 H 41.9299 5.07166 3.20785 0
M  V30 483 H 42.9999 4.44329 1.94165 0
M  V30 484 N 44.343 -0.763751 1.37857 0
M  V30 485 C 45.571 -1.55293 1.36718 0
M  V30 486 C 45.986 -1.88745 -0.0455434 0
M  V30 487 O 45.343 -1.52039 -1.00947 0
M  V30 488 C 45.394 -2.85831 2.2132 0
M  V30 489 O 45.115 -2.5381 3.57089 0
M  V30 490 C 46.616 -3.80023 2.28249 0
M  V30 491 H 43.836 -0.480841 0.468009 0
M  V30 492 H 46.38 -0.946009 1.81303 0
M  V30 493 H 44.535 -3.42926 1.80223 0
M  V30 494 H 44.949 -3.37459 4.01524 0
M  V30 495 H 46.423 -4.68599 2.91752 0
M  V30 496 H 46.9 -4.1973 1.2932 0
M  V30 497 H 47.506 -3.28855 2.69693 0
M  V30 498 N 45.8211 -1.22559 -0.990812 0
M  V30 499 C 47.0511 -1.07623 -1.76355 0
M  V30 500 C 47.4591 0.37601 -1.85426 0
M  V30 501 O 46.8021 1.27228 -1.32509 0
M  V30 502 C 46.8641 -1.61507 -3.21179 0
M  V30 503 C 46.5281 -3.10146 -3.35646 0
M  V30 504 C 47.5251 -4.07553 -3.22796 0
M  V30 505 C 45.2101 -3.49644 -3.60631 0
M  V30 506 C 47.2041 -5.42442 -3.34716 0
M  V30 507 C 44.8911 -4.84682 -3.72192 0
M  V30 508 C 45.8891 -5.8089 -3.59243 0
M  V30 509 O 45.5771 -7.13476 -3.70415 0
M  V30 510 H 45.3091 -0.377745 -0.560611 0
M  V30 511 H 47.8631 -1.62658 -1.25425 0
M  V30 512 H 46.0931 -1.00881 -3.73309 0
M  V30 513 H 47.7821 -1.42202 -3.80175 0
M  V30 514 H 48.5481 -3.78381 -3.03403 0
M  V30 515 H 44.4271 -2.75282 -3.69785 0
M  V30 516 H 47.9711 -6.17518 -3.24526 0
M  V30 517 H 43.8681 -5.13534 -3.91092 0
M  V30 518 H 44.6361 -7.21083 -3.87275 0
M  V30 519 N 47.2992 1.18797 -1.03562 0
M  V30 520 C 48.5482 1.87978 -0.731235 0
M  V30 521 C 48.8612 1.80911 0.743671 0
M  V30 522 O 50.0672 2.45407 1.16137 0
M  V30 523 C 48.5232 3.3721 -1.25768 0
M  V30 524 C 48.1312 3.52818 -2.76085 0
M  V30 525 C 49.8752 4.11825 -1.0296 0
M  V30 526 C 47.7822 4.9598 -3.22114 0
M  V30 527 H 46.7122 0.704063 -0.269835 0
M  V30 528 H 49.3632 1.34266 -1.25079 0
M  V30 529 H 47.7452 3.90359 -0.666011 0
M  V30 530 H 48.9192 3.09965 -3.40966 0
M  V30 531 H 47.2342 2.91602 -2.97249 0
M  V30 532 H 49.8312 5.17411 -1.34869 0
M  V30 533 H 50.1742 4.16287 0.0333546 0
M  V30 534 H 50.7072 3.64833 -1.58562 0
M  V30 535 H 47.4462 4.96684 -4.27768 0
M  V30 536 H 46.9662 5.39569 -2.61965 0
M  V30 537 H 48.6452 5.6467 -3.15844 0
M  V30 538 N 48.7773 0.814389 1.34928 0
M  V30 539 C 50.0073 0.41054 2.0248 0
M  V30 540 C 50.4153 -0.985625 1.61499 0
M  V30 541 O 49.7583 -1.64781 0.811976 0
M  V30 542 C 49.8203 0.423384 3.56998 0
M  V30 543 C 49.4843 1.77141 4.21272 0
M  V30 544 C 50.4813 2.73093 4.42398 0
M  V30 545 C 48.1663 2.05755 4.58225 0
M  V30 546 C 50.1603 3.95838 4.9959 0
M  V30 547 C 47.8473 3.28762 5.1513 0
M  V30 548 C 48.8453 4.23621 5.35755 0
M  V30 549 O 48.5333 5.44456 5.91458 0
M  V30 550 H 48.2653 0.163997 0.655806 0
M  V30 551 H 50.8193 1.10155 1.73364 0
M  V30 552 H 49.0493 -0.324276 3.85338 0
M  V30 553 H 50.7383 0.0407683 4.0588 0
M  V30 554 H 51.5043 2.5228 4.14222 0
M  V30 555 H 47.3833 1.32727 4.4148 0
M  V30 556 H 50.9273 4.69891 5.15605 0
M  V30 557 H 46.8243 3.49443 5.42734 0
M  V30 558 H 47.5923 5.4586 6.09901 0
M  V30 559 N 50.2554 -1.46986 0.568584 0
M  V30 560 C 51.4834 -2.0683 0.0539956 0
M  V30 561 C 51.8984 -1.41953 -1.24478 0
M  V30 562 O 51.2554 -0.519933 -1.74937 0
M  V30 563 C 51.3064 -3.61254 -0.133362 0
M  V30 564 O 51.0274 -4.237 1.11399 0
M  V30 565 C 52.5284 -4.37992 -0.683927 0
M  V30 566 H 49.7484 -0.669058 0.0510141 0
M  V30 567 H 52.2924 -1.88824 0.785234 0
M  V30 568 H 50.4474 -3.78735 -0.81477 0
M  V30 569 H 50.8614 -5.16388 0.91888 0
M  V30 570 H 52.3354 -5.46684 -0.764263 0
M  V30 571 H 52.8124 -4.05058 -1.69778 0
M  V30 572 H 53.4184 -4.25283 -0.0378494 0
M  V30 573 N 51.7335 -0.305618 -1.54608 0
M  V30 574 C 52.9815 0.301701 -1.99835 0
M  V30 575 C 53.3025 1.54054 -1.19551 0
M  V30 576 O 52.5725 1.93702 -0.292658 0
M  V30 577 H 51.1525 0.114468 -0.738178 0
M  V30 578 H 53.8145 -0.418016 -1.90364 0
M  V30 579 H 52.9105 0.570548 -3.06841 0
M  V30 580 N 53.2116 1.57565 -0.0334293 0
M  V30 581 C 54.1416 2.13511 0.945265 0
M  V30 582 C 55.1226 1.05231 1.33643 0
M  V30 583 O 56.3076 1.33084 1.41429 0
M  V30 584 C 53.4376 2.6657 2.22616 0
M  V30 585 C 52.3916 3.79676 1.97561 0
M  V30 586 C 51.7176 4.1918 3.31952 0
M  V30 587 C 53.0176 5.0557 1.31135 0
M  V30 588 H 54.7116 2.95538 0.479325 0
M  V30 589 H 52.2576 1.42166 0.229115 0
M  V30 590 H 54.2106 3.04344 2.91466 0
M  V30 591 H 52.9346 1.8171 2.71384 0
M  V30 592 H 51.5936 3.42347 1.31127 0
M  V30 593 H 51.2416 3.31296 3.78487 0
M  V30 594 H 50.9416 4.95402 3.15992 0
M  V30 595 H 52.4656 4.59541 4.02063 0
M  V30 596 H 53.8796 5.40903 1.89992 0
M  V30 597 H 52.2766 5.86818 1.25559 0
M  V30 598 H 53.3466 4.84062 0.284894 0
M  V30 599 N 54.6897 -0.239769 1.55765 0
M  V30 600 C 55.9147 -0.988373 1.82335 0
M  V30 601 C 56.3397 -1.77886 0.611421 0
M  V30 602 O 55.6977 -1.75889 -0.439639 0
M  V30 603 C 55.7457 -1.89627 3.06715 0
M  V30 604 O 54.8497 -2.98904 2.84131 0
M  V30 605 H 54.1907 -0.280858 0.601677 0
M  V30 606 H 56.7207 -0.258597 2.02959 0
M  V30 607 H 56.7307 -2.30957 3.36338 0
M  V30 608 H 55.4057 -1.31511 3.9456 0
M  V30 609 H 53.9827 -2.61651 2.65694 0
M  V30 610 N 56.1678 -1.49265 -0.50573 0
M  V30 611 C 57.1148 -1.65585 -1.6078 0
M  V30 612 C 58.0848 -0.497396 -1.58478 0
M  V30 613 O 59.2698 -0.72385 -1.76536 0
M  V30 614 C 56.4098 -1.72408 -2.98948 0
M  V30 615 C 55.5228 -2.99525 -3.11301 0
M  V30 616 C 54.6578 -2.97356 -4.40174 0
M  V30 617 C 53.6968 -4.19074 -4.46143 0
M  V30 618 N 52.8338 -4.14841 -5.66437 0
M  V30 619 H 57.6738 -2.59688 -1.46172 0
M  V30 620 H 55.2108 -1.28761 -0.711261 0
M  V30 621 H 57.1688 -1.74344 -3.79025 0
M  V30 622 H 55.7988 -0.817753 -3.1227 0
M  V30 623 H 54.8508 -3.07222 -2.24318 0
M  V30 624 H 56.1628 -3.89518 -3.11572 0
M  V30 625 H 55.3168 -2.97829 -5.28567 0
M  V30 626 H 54.0558 -2.05133 -4.42461 0
M  V30 627 H 53.0608 -4.1885 -3.56153 0
M  V30 628 H 54.2858 -5.12483 -4.45575 0
M  V30 629 H 52.2318 -3.25453 -5.69575 0
M  V30 630 H 52.1488 -4.98564 -5.68304 0
M  V30 631 H 53.4168 -4.1941 -6.57051 0
M  V30 632 N 57.6459 0.756429 -1.3826 0
M  V30 633 C 58.5959 1.86069 -1.31766 0
M  V30 634 C 59.5799 1.59621 -0.202483 0
M  V30 635 O 60.7719 1.7149 -0.438211 0
M  V30 636 C 57.9009 3.23742 -1.1422 0
M  V30 637 C 56.9869 3.56091 -2.30348 0
M  V30 638 N 57.3779 3.59517 -3.55783 0
M  V30 639 C 55.6759 3.86341 -2.22838 0
M  V30 640 C 56.3769 3.89052 -4.32451 0
M  V30 641 N 55.3529 4.05736 -3.61772 0
M  V30 642 H 59.1549 1.86992 -2.26741 0
M  V30 643 H 56.6689 0.953643 -1.31451 0
M  V30 644 H 58.6659 4.02761 -1.07652 0
M  V30 645 H 57.3259 3.24073 -0.201763 0
M  V30 646 H 58.3369 3.41347 -3.89491 0
M  V30 647 H 55.0139 3.94404 -1.36937 0
M  V30 648 H 56.4039 3.98349 -5.4108 0
M  V30 649 N 59.124 1.23083 0.984299 0
M  V30 650 C 60.37 1.06214 1.72761 0
M  V30 651 C 60.703 -0.400584 1.90024 0
M  V30 652 O 59.978 -1.29672 1.44967 0
M  V30 653 C 60.261 1.78375 3.12817 0
M  V30 654 C 60.114 3.32296 3.03149 0
M  V30 655 C 61.433 1.54309 4.12161 0
M  V30 656 H 58.552 0.387251 0.627061 0
M  V30 657 H 61.194 1.51536 1.14616 0
M  V30 658 H 59.344 1.39848 3.62457 0
M  V30 659 H 61.016 3.8032 2.61064 0
M  V30 660 H 59.259 3.6153 2.39747 0
M  V30 661 H 59.93 3.77972 4.02295 0
M  V30 662 H 62.406 1.87791 3.71314 0
M  V30 663 H 61.282 2.07281 5.08258 0
M  V30 664 H 61.543 0.477572 4.39513 0
M  V30 665 N 60.6021 -1.18246 1.0419 0
M  V30 666 C 61.5121 -2.25574 0.644476 0
M  V30 667 C 62.5281 -1.70845 -0.329826 0
M  V30 668 O 63.7041 -2.00554 -0.184443 0
M  V30 669 C 60.7691 -3.46697 0.014877 0
M  V30 670 C 59.8301 -4.16554 1.03834 0
M  V30 671 C 59.0631 -5.31894 0.438692 0
M  V30 672 O 59.2861 -5.65385 -0.754752 0
M  V30 673 O 58.2201 -5.90459 1.168 0
M  V30 674 H 62.0461 -2.61836 1.53869 0
M  V30 675 H 59.6311 -1.25352 0.812854 0
M  V30 676 H 61.5131 -4.20062 -0.335538 0
M  V30 677 H 60.1881 -3.12255 -0.853138 0
M  V30 678 H 59.0951 -3.45251 1.44057 0
M  V30 679 H 60.4281 -4.54998 1.87716 0
M  V30 680 N 62.0802 -0.821533 -1.34494 0
M  V30 681 C 63.3572 -0.33159 -1.92769 0
M  V30 682 C 63.7372 1.18088 -1.74981 0
M  V30 683 O 63.0852 1.98733 -1.12772 0
M  V30 684 C 63.2952 -0.759398 -3.40638 0
M  V30 685 C 64.6432 -0.757433 -4.1779 0
M  V30 686 O 65.6672 -0.70189 -3.49216 0
M  V30 687 O 64.5262 -0.829361 -5.4017 0
M  V30 688 H 61.6202 -0.0902502 -0.822061 0
M  V30 689 H 64.1662 -0.906231 -1.43477 0
M  V30 690 H 62.9382 -1.8012 -3.47379 0
M  V30 691 H 62.5612 -0.160378 -3.97276 0
M  V30 692 N 63.5583 1.46682 -0.576371 0
M  V30 693 C 64.8043 2.02712 -0.0596221 0
M  V30 694 C 65.1373 1.44765 1.29448 0
M  V30 695 O 64.4123 0.610355 1.84675 0
M  V30 696 C 64.6953 3.60098 0.0129503 0
M  V30 697 C 64.5483 4.28441 -1.3696 0
M  V30 698 C 65.8673 4.34224 0.71678 0
M  V30 699 H 62.9863 0.736637 -0.0231407 0
M  V30 700 H 65.6283 1.74898 -0.742351 0
M  V30 701 H 63.7783 3.83926 0.594378 0
M  V30 702 H 65.4503 4.15896 -1.9957 0
M  V30 703 H 63.6933 3.8805 -1.93907 0
M  V30 704 H 64.3643 5.3716 -1.27135 0
M  V30 705 H 66.8403 4.15503 0.222908 0
M  V30 706 H 65.7163 5.43936 0.73657 0
M  V30 707 H 65.9773 4.04823 1.77682 0
M  V30 708 N 65.0364 0.313813 1.54444 0
M  V30 709 C 66.4474 -0.176243 1.85866 0
M  V30 710 C 66.7984 -1.52405 1.23561 0
M  V30 711 O 65.9234 -2.09605 0.538016 0
M  V30 712 C 66.5184 -0.32657 3.37222 0
M  V30 713 C 65.0774 -0.760846 3.6863 0
M  V30 714 C 64.2244 0.123247 2.77026 0
M  V30 715 H 67.1754 0.534418 1.49431 0
M  V30 716 H 67.1964 -1.15908 3.62416 0
M  V30 717 H 66.7084 0.654531 3.82541 0
M  V30 718 H 64.8094 -1.75204 3.28838 0
M  V30 719 H 64.9224 -0.571353 4.75681 0
M  V30 720 H 63.2864 -0.399597 2.51546 0
M  V30 721 H 64.0694 1.10094 3.25168 0
M  V30 722 N 66.5145 -1.57545 0.0417849 0
M  V30 723 C 67.4775 -2.09885 -0.92093 0
M  V30 724 C 68.4775 -1.01648 -1.24596 0
M  V30 725 O 69.6675 -1.27759 -1.1842 0
M  V30 726 C 66.7995 -2.57527 -2.23367 0
M  V30 727 H 67.9925 -2.96236 -0.467382 0
M  V30 728 H 65.5455 -1.5493 -0.206467 0
M  V30 729 H 66.2805 -1.74542 -2.73323 0
M  V30 730 H 66.0655 -3.36613 -2.01083 0
M  V30 731 H 67.5555 -2.98201 -2.92346 0
M  V30 732 N 67.9926 0.231505 -1.5589 0
M  V30 733 C 69.2396 0.957352 -1.78441 0
M  V30 734 C 69.5676 1.84726 -0.60882 0
M  V30 735 O 68.8226 1.91416 0.40725 0
M  V30 736 C 69.1216 1.83577 -3.0665 0
M  V30 737 C 68.7876 1.09993 -4.37278 0
M  V30 738 C 67.4496 0.896629 -4.72773 0
M  V30 739 C 69.8016 0.579558 -5.17968 0
M  V30 740 C 67.1296 0.160896 -5.86479 0
M  V30 741 C 69.4816 -0.142783 -6.32439 0
M  V30 742 C 68.1456 -0.357427 -6.66542 0
M  V30 743 H 67.4156 0.35032 -0.65296 0
M  V30 744 H 70.0626 0.226259 -1.90159 0
M  V30 745 H 68.3676 2.63441 -2.90011 0
M  V30 746 H 70.0646 2.39934 -3.21298 0
M  V30 747 H 66.6546 1.26835 -4.09403 0
M  V30 748 H 70.8386 0.724125 -4.90989 0
M  V30 749 H 66.0946 -0.0157293 -6.11398 0
M  V30 750 H 70.2686 -0.553559 -6.94196 0
M  V30 751 H 67.8956 -0.929466 -7.54497 0
M  V30 752 N 69.4707 1.49531 0.497807 0
M  V30 753 C 70.4027 1.62559 1.61578 0
M  V30 754 C 71.4157 0.508134 1.54667 0
M  V30 755 O 72.6047 0.780309 1.60541 0
M  V30 756 C 69.7047 1.56925 3.00379 0
M  V30 757 C 68.8777 2.84257 3.3244 0
M  V30 758 C 67.9367 2.71632 4.50669 0
M  V30 759 O 66.9627 3.4557 4.52294 0
M  V30 760 N 68.1647 1.83391 5.5077 0
M  V30 761 H 70.9297 2.58981 1.50828 0
M  V30 762 H 68.4907 1.4666 0.685743 0
M  V30 763 H 70.4827 1.46129 3.77397 0
M  V30 764 H 69.0527 0.683483 3.05037 0
M  V30 765 H 68.2727 3.09381 2.44289 0
M  V30 766 H 69.5607 3.68666 3.5066 0
M  V30 767 H 68.9587 1.22583 5.52259 0
M  V30 768 H 67.5157 1.78515 6.26878 0
M  V30 769 N 70.9488 -0.749086 1.3866 0
M  V30 770 C 71.9118 -1.84457 1.36045 0
M  V30 771 C 72.9118 -1.58682 0.260122 0
M  V30 772 O 74.1018 -1.66343 0.517261 0
M  V30 773 C 71.2338 -3.22008 1.11911 0
M  V30 774 H 72.4268 -1.88182 2.33512 0
M  V30 775 H 69.9798 -0.951266 1.24019 0
M  V30 776 H 70.7148 -3.2395 0.150686 0
M  V30 777 H 70.4998 -3.42111 1.91579 0
M  V30 778 H 71.9898 -4.0208 1.12788 0
M  V30 779 N 72.4269 -1.23603 -0.977757 0
M  V30 780 C 73.3569 -1.04401 -2.0886 0
M  V30 781 C 74.3379 0.0399052 -1.70053 0
M  V30 782 O 75.5229 -0.125246 -1.93796 0
M  V30 783 C 72.6529 -0.637269 -3.41403 0
M  V30 784 C 71.6069 -1.66883 -3.94124 0
M  V30 785 C 70.9329 -1.11745 -5.22893 0
M  V30 786 C 72.2329 -3.06247 -4.23096 0
M  V30 787 H 73.9269 -1.97316 -2.25182 0
M  V30 788 H 71.4729 -0.950096 -1.08209 0
M  V30 789 H 73.4259 -0.48998 -4.18542 0
M  V30 790 H 72.1499 0.327557 -3.24953 0
M  V30 791 H 70.8089 -1.80416 -3.19133 0
M  V30 792 H 70.4569 -0.143527 -5.02795 0
M  V30 793 H 70.1569 -1.80672 -5.59134 0
M  V30 794 H 71.6809 -0.982067 -6.02651 0
M  V30 795 H 73.0949 -2.96001 -4.90975 0
M  V30 796 H 71.4919 -3.72436 -4.70544 0
M  V30 797 H 72.5619 -3.55041 -3.30263 0
M  V30 798 N 73.905 1.17692 -1.04816 0
M  V30 799 C 75.153 1.87488 -0.754497 0
M  V30 800 C 75.474 1.81205 0.720407 0
M  V30 801 O 74.744 1.23544 1.52032 0
M  V30 802 H 73.324 0.694101 -0.276102 0
M  V30 803 H 75.986 1.42793 -1.32651 0
M  V30 804 H 75.082 2.93328 -1.06606 0
M  V30 805 N 75.3831 0.828654 1.34056 0
M  V30 806 C 76.6081 0.431637 2.02859 0
M  V30 807 C 77.0331 -0.956339 1.61975 0
M  V30 808 O 76.3911 -1.62338 0.807228 0
M  V30 809 C 76.4391 0.548323 3.56407 0
M  V30 810 O 75.5431 -0.429556 4.10157 0
M  V30 811 H 74.8841 0.176886 0.640006 0
M  V30 812 H 77.4141 1.12066 1.71179 0
M  V30 813 H 77.4241 0.426196 4.05768 0
M  V30 814 H 76.0991 1.5606 3.8551 0
M  V30 815 H 74.6761 -0.265836 3.71951 0
M  V30 816 N 76.8612 -1.46375 0.584142 0
M  V30 817 C 77.7912 -2.33103 -0.136037 0
M  V30 818 C 78.7722 -1.45431 -0.882255 0
M  V30 819 O 79.9572 -1.74246 -0.857434 0
M  V30 820 C 77.0872 -3.27731 -1.14933 0
M  V30 821 C 76.0412 -4.24855 -0.517862 0
M  V30 822 C 75.3672 -5.09001 -1.63773 0
M  V30 823 C 76.6672 -5.19439 0.545886 0
M  V30 824 H 78.3612 -2.93568 0.588086 0
M  V30 825 H 75.9072 -1.41166 0.284259 0
M  V30 826 H 77.8602 -3.87261 -1.66153 0
M  V30 827 H 76.5842 -2.65377 -1.90375 0
M  V30 828 H 75.2432 -3.6659 -0.0267361 0
M  V30 829 H 74.8912 -4.43031 -2.38185 0
M  V30 830 H 74.5912 -5.74777 -1.22085 0
M  V30 831 H 76.1152 -5.71396 -2.15266 0
M  V30 832 H 77.5292 -5.73177 0.118704 0
M  V30 833 H 75.9262 -5.93566 0.88317 0
M  V30 834 H 76.9962 -4.63285 1.43162 0
M  V30 835 N 78.3393 -0.321999 -1.54275 0
M  V30 836 C 79.2873 0.560206 -2.25753 0
M  V30 837 C 80.2813 1.11984 -1.27106 0
M  V30 838 O 81.4873 1.06806 -1.44888 0
M  V30 839 H 77.8623 0.199304 -0.725108 0
M  V30 840 H 79.8333 -0.0649365 -2.98329 0
M  V30 841 C 78.5823 1.71023 -3.02731 0
M  V30 842 H 77.9053 1.28885 -3.78456 0
M  V30 843 H 79.3453 2.30314 -3.55993 0
M  V30 844 C 77.8043 2.62692 -2.10938 0
M  V30 845 O 78.3343 3.64364 -1.6912 0
M  V30 846 N 76.5403 2.30891 -1.76459 0
M  V30 847 H 76.0873 1.48253 -2.10663 0
M  V30 848 H 76.0453 2.92487 -1.1532 0
M  V30 849 N 79.8174 1.5752 -0.0501392 0
M  V30 850 C 81.0944 1.83996 0.663685 0
M  V30 851 C 81.4744 0.938339 1.89099 0
M  V30 852 O 80.8224 -0.00087759 2.285 0
M  V30 853 C 81.0324 3.33702 1.02196 0
M  V30 854 C 82.3804 4.00691 1.40469 0
M  V30 855 O 83.4044 3.38321 1.11433 0
M  V30 856 O 82.2634 5.10658 1.94654 0
M  V30 857 H 79.3574 0.759385 0.32751 0
M  V30 858 H 81.9034 1.69514 -0.0794238 0
M  V30 859 H 80.6754 3.91015 0.149364 0
M  V30 860 H 80.2984 3.53368 1.82255 0
M  V30 861 N 81.2955 -0.223234 1.56011 0
M  V30 862 C 82.2255 -1.27988 1.95298 0
M  V30 863 C 83.2065 -1.48976 0.820979 0
M  V30 864 O 84.3915 -1.61188 1.08315 0
M  V30 865 C 81.5215 -2.63 2.26822 0
M  V30 866 C 80.4755 -2.56671 3.42497 0
M  V30 867 C 79.8015 -3.95697 3.59622 0
M  V30 868 C 81.1015 -2.11601 4.77517 0
M  V30 869 H 82.7955 -0.953525 2.8381 0
M  V30 870 H 80.3415 -0.457244 1.36548 0
M  V30 871 H 82.2945 -3.37077 2.52898 0
M  V30 872 H 81.0185 -2.9732 1.35161 0
M  V30 873 H 79.6775 -1.85051 3.16467 0
M  V30 874 H 79.3255 -4.27322 2.6534 0
M  V30 875 H 79.0255 -3.92345 4.37424 0
M  V30 876 H 80.5495 -4.71438 3.88044 0
M  V30 877 H 81.9635 -2.7542 5.02809 0
M  V30 878 H 80.3605 -2.19311 5.5859 0
M  V30 879 H 81.4305 -1.06824 4.72987 0
M  V30 880 N 82.7736 -1.49793 -0.48987 0
M  V30 881 C 83.7056 -1.63413 -1.60713 0
M  V30 882 C 84.7186 -0.516329 -1.54395 0
M  V30 883 O 85.9076 -0.788812 -1.60125 0
M  V30 884 C 83.0076 -1.58516 -2.99543 0
M  V30 885 C 82.1806 -2.86016 -3.30928 0
M  V30 886 C 81.2396 -2.74018 -4.49222 0
M  V30 887 O 80.2656 -3.47964 -4.50455 0
M  V30 888 N 81.4676 -1.86309 -5.4979 0
M  V30 889 H 84.2326 -2.59777 -1.49452 0
M  V30 890 H 81.7936 -1.47022 -0.677955 0
M  V30 891 H 83.7856 -1.48128 -3.76617 0
M  V30 892 H 82.3556 -0.69965 -3.0467 0
M  V30 893 H 81.5756 -3.10672 -2.42645 0
M  V30 894 H 82.8636 -3.70521 -3.487 0
M  V30 895 H 82.2616 -1.2551 -5.51601 0
M  V30 896 H 80.8186 -1.81837 -6.25922 0
M  V30 897 N 84.2517 0.741722 -1.39055 0
M  V30 898 C 85.4987 1.50114 -1.35912 0
M  V30 899 C 85.8267 1.94443 0.0470937 0
M  V30 900 O 85.0817 1.66612 1.02659 0
M  V30 901 C 85.3807 2.7592 -2.27163 0
M  V30 902 C 85.0467 2.50493 -3.74919 0
M  V30 903 C 83.7087 2.43267 -4.1518 0
M  V30 904 C 86.0607 2.28585 -4.684 0
M  V30 905 C 83.3887 2.12166 -5.46994 0
M  V30 906 C 85.7407 1.99002 -6.00484 0
M  V30 907 C 84.4047 1.90241 -6.39816 0
M  V30 908 H 83.6747 0.549306 -0.497336 0
M  V30 909 H 86.3217 0.851896 -1.71508 0
M  V30 910 H 84.6267 3.45553 -1.84663 0
M  V30 911 H 86.3237 3.33923 -2.22028 0
M  V30 912 H 82.9137 2.56992 -3.43006 0
M  V30 913 H 87.0977 2.33139 -4.38132 0
M  V30 914 H 82.3537 2.03901 -5.76398 0
M  V30 915 H 86.5277 1.81057 -6.72452 0
M  V30 916 H 84.1547 1.65907 -7.41875 0
M  V30 917 N 85.7298 1.2412 0.971189 0
M  V30 918 C 86.9768 1.07881 1.71371 0
M  V30 919 C 87.3048 -0.382901 1.90694 0
M  V30 920 O 86.5598 -1.29945 1.46331 0
M  V30 921 C 86.8588 1.75983 3.11071 0
M  V30 922 C 86.5248 3.25909 3.11599 0
M  V30 923 C 85.1868 3.66813 3.11451 0
M  V30 924 C 87.5388 4.21771 3.062 0
M  V30 925 C 84.8668 5.02021 3.03631 0
M  V30 926 C 87.2188 5.56982 2.99923 0
M  V30 927 C 85.8828 5.97237 2.98102 0
M  V30 928 H 85.1528 0.394764 0.62709 0
M  V30 929 H 87.7998 1.54176 1.13587 0
M  V30 930 H 86.1048 1.22072 3.72298 0
M  V30 931 H 87.8018 1.60887 3.6731 0
M  V30 932 H 84.3918 2.93353 3.12477 0
M  V30 933 H 88.5758 3.91172 3.05447 0
M  V30 934 H 83.8318 5.32411 3.0058 0
M  V30 935 H 88.0058 6.30969 2.94704 0
M  V30 936 H 85.6328 7.01967 2.91798 0
M  V30 937 N 87.2079 -1.17134 1.05439 0
M  V30 938 C 88.6239 -1.39454 0.776201 0
M  V30 939 C 88.8239 -1.91454 -0.628307 0
M  V30 940 O 87.8799 -2.10777 -1.39031 0
M  V30 941 C 89.1929 -2.38305 1.83388 0
M  V30 942 C 90.7409 -2.52006 1.85639 0
M  V30 943 C 91.2159 -3.54133 2.90437 0
M  V30 944 N 92.7069 -3.61653 2.89415 0
M  V30 945 C 93.4419 -4.4044 3.67152 0
M  V30 946 N 92.9379 -5.22721 4.54681 0
M  V30 947 N 94.7309 -4.35337 3.55581 0
M  V30 948 H 86.8819 -0.817134 1.96053 0
M  V30 949 H 89.1449 -0.421626 0.849079 0
M  V30 950 H 88.8509 -2.07173 2.84204 0
M  V30 951 H 88.7249 -3.37841 1.67761 0
M  V30 952 H 91.1119 -2.82447 0.85486 0
M  V30 953 H 91.1929 -1.52537 2.05344 0
M  V30 954 H 90.8369 -3.24431 3.90777 0
M  V30 955 H 90.7669 -4.53313 2.67983 0
M  V30 956 H 93.2579 -3.02909 2.25952 0
M  V30 957 H 93.5709 -5.80027 5.10674 0
M  V30 958 H 91.9159 -5.22093 4.58741 0
M  V30 959 H 95.1069 -3.70112 2.86592 0
M  V30 960 H 95.2799 -4.96494 4.1641 0
M  V30 961 N 88.686 -0.835752 -1.33615 0
M  V30 962 C 89.916 -0.442701 -2.01801 0
M  V30 963 C 90.324 0.959807 -1.63047 0
M  V30 964 O 89.667 1.63468 -0.838088 0
M  V30 965 C 89.729 -0.480125 -3.56279 0
M  V30 966 C 89.393 -1.8382 -4.18401 0
M  V30 967 C 90.39 -2.80097 -4.37998 0
M  V30 968 C 88.075 -2.13019 -4.54894 0
M  V30 969 C 90.069 -4.03736 -4.9323 0
M  V30 970 C 87.756 -3.36916 -5.09834 0
M  V30 971 C 88.754 -4.32091 -5.28948 0
M  V30 972 O 88.442 -5.53797 -5.82721 0
M  V30 973 H 88.174 -0.17441 -0.653114 0
M  V30 974 H 90.728 -1.129 -1.71589 0
M  V30 975 H 88.958 0.262931 -3.85805 0
M  V30 976 H 90.647 -0.105335 -4.05763 0
M  V30 977 H 91.413 -2.58838 -4.10156 0
M  V30 978 H 87.292 -1.39733 -4.39313 0
M  V30 979 H 90.836 -4.78034 -5.08064 0
M  V30 980 H 86.733 -3.58033 -5.37106 0
M  V30 981 H 87.501 -5.55494 -6.0114 0
M  V30 982 N 90.1641 1.46063 -0.591896 0
M  V30 983 C 91.1121 2.32124 0.148739 0
M  V30 984 C 92.1061 1.45035 0.875286 0
M  V30 985 O 93.3121 1.61609 0.792632 0
M  V30 986 H 89.6871 0.749024 0.066832 0
M  V30 987 H 91.6581 2.92392 -0.595783 0
M  V30 988 C 90.4071 3.28373 1.1431 0
M  V30 989 H 89.7301 3.95371 0.59346 0
M  V30 990 H 91.1701 3.91352 1.63155 0
M  V30 991 C 89.6291 2.54393 2.20875 0
M  V30 992 O 90.1591 2.31373 3.28374 0
M  V30 993 N 88.3651 2.14797 1.95731 0
M  V30 994 H 87.9121 2.33719 1.08319 0
M  V30 995 H 87.8701 1.65619 2.67241 0
M  V30 996 N 91.6422 0.330177 1.54103 0
M  V30 997 C 92.8672 -0.274893 2.0557 0
M  V30 998 C 93.2922 -1.44487 1.20437 0
M  V30 999 O 92.6502 -1.80021 0.214991 0
M  V30 1000 C 92.6982 -0.68079 3.54115 0
M  V30 1001 O 91.8022 -1.7824 3.71893 0
M  V30 1002 H 91.1432 -0.0483849 0.662235 0
M  V30 1003 H 93.6732 0.480508 1.98878 0
M  V30 1004 H 93.6832 -0.961635 3.96505 0
M  V30 1005 H 92.3582 0.174903 4.15532 0
M  V30 1006 H 90.9352 -1.49985 3.41407 0
M  V30 1007 N 93.1203 -1.57491 0.0584922 0
M  V30 1008 C 94.0673 -2.11958 -0.913376 0
M  V30 1009 C 95.0373 -1.02875 -1.30407 0
M  V30 1010 O 96.2223 -1.30464 -1.39226 0
M  V30 1011 C 93.3623 -2.67497 -2.18035 0
M  V30 1012 C 92.4753 -3.90691 -1.84349 0
M  V30 1013 C 91.6103 -4.3452 -3.05559 0
M  V30 1014 C 90.6493 -5.50395 -2.67827 0
M  V30 1015 N 89.7863 -5.89244 -3.81754 0
M  V30 1016 H 94.6263 -2.94704 -0.442017 0
M  V30 1017 H 92.1633 -1.45643 -0.206545 0
M  V30 1018 H 94.1213 -2.978 -2.92183 0
M  V30 1019 H 92.7513 -1.87537 -2.62735 0
M  V30 1020 H 91.8033 -3.66934 -1.00319 0
M  V30 1021 H 93.1153 -4.7489 -1.5258 0
M  V30 1022 H 92.2693 -4.66414 -3.87998 0
M  V30 1023 H 91.0083 -3.49147 -3.40511 0
M  V30 1024 H 90.0133 -5.18165 -1.83806 0
M  V30 1025 H 91.2383 -6.3749 -2.34059 0
M  V30 1026 H 89.1843 -5.06823 -4.16493 0
M  V30 1027 H 89.1013 -6.68151 -3.53708 0
M  V30 1028 H 90.3693 -6.25756 -4.64811 0
M  V30 1029 N 94.5984 0.214957 -1.56127 0
M  V30 1030 C 95.8754 0.963093 -1.70247 0
M  V30 1031 C 96.2554 2.02166 -0.60764 0
M  V30 1032 O 95.6034 2.25244 0.384385 0
M  V30 1033 C 95.8134 1.56756 -3.11815 0
M  V30 1034 C 97.1614 2.0573 -3.7143 0
M  V30 1035 O 98.1854 1.66637 -3.14818 0
M  V30 1036 O 97.0444 2.77603 -4.70743 0
M  V30 1037 H 94.1384 0.450321 -0.693643 0
M  V30 1038 H 96.6844 0.206219 -1.68442 0
M  V30 1039 H 95.4564 0.803533 -3.82961 0
M  V30 1040 H 95.0794 2.3898 -3.17765 0
M  V30 1041 N 96.0765 1.50051 0.48192 0
M  V30 1042 C 97.4925 1.37237 0.814756 0
M  V30 1043 C 97.6925 0.420109 1.97072 0
M  V30 1044 O 96.7485 -0.141246 2.52105 0
M  V30 1045 C 98.0615 2.78375 1.13701 0
M  V30 1046 C 99.6095 2.87213 1.2441 0
M  V30 1047 C 100.084 4.29161 1.59954 0
M  V30 1048 N 101.575 4.32061 1.66967 0
M  V30 1049 C 102.31 5.38879 1.95952 0
M  V30 1050 N 101.806 6.55918 2.23031 0
M  V30 1051 N 103.599 5.26312 1.97363 0
M  V30 1052 H 95.7505 2.10546 -0.28005 0
M  V30 1053 H 98.0135 0.945921 -0.0627454 0
M  V30 1054 H 97.7195 3.49845 0.360787 0
M  V30 1055 H 97.5935 3.14941 2.07586 0
M  V30 1056 H 99.9805 2.15969 2.01101 0
M  V30 1057 H 100.061 2.54204 0.285299 0
M  V30 1058 H 99.7055 5.00938 0.838067 0
M  V30 1059 H 99.6355 4.59648 2.56966 0
M  V30 1060 H 102.126 3.47661 1.48123 0
M  V30 1061 H 102.439 7.33139 2.44391 0
M  V30 1062 H 100.784 6.59112 2.20447 0
M  V30 1063 H 103.975 4.33876 1.75697 0
M  V30 1064 H 104.148 6.09649 2.19618 0
M  V30 1065 N 97.5546 -0.734337 1.39446 0
M  V30 1066 C 98.5016 -1.84835 1.38219 0
M  V30 1067 C 99.4716 -1.64331 0.24179 0
M  V30 1068 O 100.657 -1.85728 0.437002 0
M  V30 1069 C 97.7966 -3.22355 1.23212 0
M  V30 1070 C 96.9096 -3.5456 2.46801 0
M  V30 1071 C 96.0446 -4.81485 2.24377 0
M  V30 1072 C 95.0836 -5.06536 3.43639 0
M  V30 1073 N 94.2206 -6.24665 3.20528 0
M  V30 1074 H 99.0606 -1.85219 2.33448 0
M  V30 1075 H 96.5976 -0.905039 1.15963 0
M  V30 1076 H 98.5556 -4.0174 1.12522 0
M  V30 1077 H 97.1856 -3.21248 0.316121 0
M  V30 1078 H 96.2376 -2.69872 2.68092 0
M  V30 1079 H 97.5496 -3.6899 3.3563 0
M  V30 1080 H 96.7036 -5.68852 2.10933 0
M  V30 1081 H 95.4426 -4.6923 1.32944 0
M  V30 1082 H 94.4476 -4.17632 3.5758 0
M  V30 1083 H 95.6726 -5.20676 4.35974 0
M  V30 1084 H 93.6186 -6.13696 2.3176 0
M  V30 1085 H 93.5356 -6.39685 4.02913 0
M  V30 1086 H 94.8036 -7.14868 3.10779 0
M  V30 1087 N 99.0327 -1.24633 -0.964593 0
M  V30 1088 C 100.258 -1.11596 -1.74818 0
M  V30 1089 C 100.683 0.32723 -1.85232 0
M  V30 1090 O 100.041 1.23695 -1.32549 0
M  V30 1091 C 100.089 -1.76397 -3.1451 0
M  V30 1092 O 99.1927 -1.03685 -3.99153 0
M  V30 1093 H 98.5337 -0.390196 -0.537255 0
M  V30 1094 H 101.064 -1.65002 -1.20977 0
M  V30 1095 H 101.074 -1.8228 -3.65018 0
M  V30 1096 H 99.7487 -2.81401 -3.06246 0
M  V30 1097 H 98.3257 -1.05611 -3.57632 0
M  V30 1098 N 100.511 1.16574 -1.06058 0
M  V30 1099 C 101.443 2.2045 -0.627239 0
M  V30 1100 C 102.456 1.59752 0.313534 0
M  V30 1101 O 103.645 1.78192 0.104896 0
M  V30 1102 C 100.745 3.3875 0.100974 0
M  V30 1103 C 99.9178 4.29008 -0.852687 0
M  V30 1104 C 98.9768 5.25944 -0.164152 0
M  V30 1105 O 98.0028 5.63535 -0.801047 0
M  V30 1106 N 99.2048 5.70075 1.09518 0
M  V30 1107 H 101.97 2.58249 -1.52077 0
M  V30 1108 H 99.5308 1.3156 -0.943594 0
M  V30 1109 H 101.523 4.00638 0.57194 0
M  V30 1110 H 100.093 2.99476 0.89628 0
M  V30 1111 H 99.3128 3.64419 -1.50308 0
M  V30 1112 H 100.601 4.86195 -1.49972 0
M  V30 1113 H 99.9988 5.41624 1.6328 0
M  V30 1114 H 98.5558 6.34067 1.51006 0
M  V30 1115 N 101.989 0.842826 1.3317 0
M  V30 1116 C 103.4 0.496651 1.79973 0
M  V30 1117 C 103.751 -0.984641 1.69703 0
M  V30 1118 O 102.876 -1.76743 1.24863 0
M  V30 1119 C 103.471 0.894727 3.26772 0
M  V30 1120 C 102.03 0.600629 3.71577 0
M  V30 1121 C 101.177 1.10091 2.5451 0
M  V30 1122 H 104.128 1.03116 1.20635 0
M  V30 1123 H 104.149 0.206347 3.7994 0
M  V30 1124 H 103.661 1.97287 3.34215 0
M  V30 1125 H 101.762 -0.467284 3.69658 0
M  V30 1126 H 101.875 1.15863 4.64879 0
M  V30 1127 H 100.239 0.52162 2.49301 0
M  V30 1128 H 101.022 2.18591 2.64713 0
M  V30 1129 N 103.467 -1.45747 0.599634 0
M  V30 1130 C 104.4 -2.27547 -0.172552 0
M  V30 1131 C 105.378 -1.36657 -0.881116 0
M  V30 1132 O 106.562 -1.66081 -0.891595 0
M  V30 1133 C 103.689 -3.14829 -1.24903 0
M  V30 1134 C 102.735 -4.21603 -0.644465 0
M  V30 1135 S 103.568 -5.32754 0.541606 0
M  V30 1136 C 104.724 -6.23604 -0.535656 0
M  V30 1137 H 104.957 -2.92691 0.521468 0
M  V30 1138 H 102.49 -1.49473 0.386947 0
M  V30 1139 H 104.448 -3.65675 -1.86527 0
M  V30 1140 H 103.109 -2.48965 -1.91508 0
M  V30 1141 H 102.302 -4.82566 -1.45417 0
M  V30 1142 H 101.904 -3.73857 -0.103534 0
M  V30 1143 H 104.196 -6.62519 -1.41686 0
M  V30 1144 H 105.139 -7.0809 0.0376246 0
M  V30 1145 H 105.547 -5.58103 -0.84741 0
M  V30 1146 N 104.945 -0.338344 -1.53925 0
M  V30 1147 C 106.193 0.259245 -2.0043 0
M  V30 1148 C 106.514 1.51484 -1.22791 0
M  V30 1149 O 105.784 1.93037 -0.33368 0
M  V30 1150 H 104.364 0.0987845 -0.740439 0
M  V30 1151 H 107.026 -0.458302 -1.89435 0
M  V30 1152 H 106.122 0.505334 -3.07982 0
M  V30 1153 N 106.423 1.57458 -0.0668435 0
M  V30 1154 C 107.353 2.15468 0.899764 0
M  V30 1155 C 108.334 1.08042 1.31381 0
M  V30 1156 O 109.519 1.36054 1.38574 0
M  V30 1157 C 106.649 2.71232 2.16911 0
M  V30 1158 C 105.603 3.83781 1.89463 0
M  V30 1159 C 104.929 4.26127 3.22986 0
M  V30 1160 C 106.229 5.08238 1.20381 0
M  V30 1161 H 107.923 2.96488 0.416529 0
M  V30 1162 H 105.469 1.4262 0.198908 0
M  V30 1163 H 107.422 3.10458 2.84945 0
M  V30 1164 H 106.146 1.87426 2.67468 0
M  V30 1165 H 104.805 3.45051 1.23836 0
M  V30 1166 H 104.453 3.39249 3.71374 0
M  V30 1167 H 104.153 5.01993 3.05413 0
M  V30 1168 H 105.677 4.67966 3.92225 0
M  V30 1169 H 107.091 5.44811 1.78475 0
M  V30 1170 H 105.488 5.89349 1.13083 0
M  V30 1171 H 106.558 4.84558 0.182153 0
M  V30 1172 N 107.901 -0.206675 1.56239 0
M  V30 1173 C 109.147 -0.925733 1.81113 0
M  V30 1174 C 109.502 -1.81368 0.642135 0
M  V30 1175 O 108.795 -1.88126 -0.363211 0
M  V30 1176 C 108.989 -1.78675 3.09532 0
M  V30 1177 C 108.818 -0.98365 4.3881 0
M  V30 1178 C 107.588 -0.672661 5.00803 0
M  V30 1179 C 109.786 -0.341847 5.13163 0
M  V30 1180 N 107.768 0.150283 6.13716 0
M  V30 1181 C 109.139 0.343815 6.19046 0
M  V30 1182 C 111.194 -0.256392 4.97239 0
M  V30 1183 C 109.897 1.10678 7.10734 0
M  V30 1184 C 111.923 0.493142 5.8934 0
M  V30 1185 C 111.285 1.16729 6.94661 0
M  V30 1186 H 107.384 -0.318524 0.714189 0
M  V30 1187 H 109.968 -0.195378 1.93717 0
M  V30 1188 H 108.139 -2.4888 2.98183 0
M  V30 1189 H 109.871 -2.44441 3.22538 0
M  V30 1190 H 106.626 -0.994294 4.63045 0
M  V30 1191 H 107.05 0.551026 6.74754 0
M  V30 1192 H 111.692 -0.763249 4.15854 0
M  V30 1193 H 109.41 1.6251 7.91591 0
M  V30 1194 H 112.996 0.560465 5.79094 0
M  V30 1195 H 111.876 1.738 7.64698 0
M  V30 1196 N 109.379 -1.50304 -0.473955 0
M  V30 1197 C 110.795 -1.37667 -0.807466 0
M  V30 1198 C 110.995 -0.430555 -1.96846 0
M  V30 1199 O 110.051 0.127874 -2.52176 0
M  V30 1200 C 111.364 -2.78974 -1.12223 0
M  V30 1201 C 112.912 -2.87868 -1.22885 0
M  V30 1202 C 113.387 -4.30003 -1.57676 0
M  V30 1203 N 114.878 -4.3294 -1.64673 0
M  V30 1204 C 115.613 -5.3991 -1.93091 0
M  V30 1205 N 115.109 -6.57092 -2.1955 0
M  V30 1206 N 116.902 -5.27351 -1.94569 0
M  V30 1207 H 109.053 -2.10394 0.291212 0
M  V30 1208 H 111.316 -0.945575 0.0677609 0
M  V30 1209 H 111.022 -3.50031 -0.342229 0
M  V30 1210 H 110.896 -3.16038 -2.05913 0
M  V30 1211 H 113.283 -2.17032 -1.99953 0
M  V30 1212 H 113.364 -2.54352 -0.271814 0
M  V30 1213 H 113.008 -5.01375 -0.81149 0
M  V30 1214 H 112.938 -4.61004 -2.54525 0
M  V30 1215 H 115.429 -3.48441 -1.46277 0
M  V30 1216 H 115.742 -7.34425 -2.405 0
M  V30 1217 H 114.087 -6.60272 -2.16948 0
M  V30 1218 H 117.278 -4.34801 -1.73394 0
M  V30 1219 H 117.451 -6.10805 -2.16381 0
M  V30 1220 N 110.857 0.726932 -1.39834 0
M  V30 1221 C 111.789 1.85147 -1.35104 0
M  V30 1222 C 112.802 1.60736 -0.258392 0
M  V30 1223 O 113.991 1.70821 -0.517931 0
M  V30 1224 C 111.091 3.21332 -1.07697 0
M  V30 1225 C 110.264 3.73033 -2.28396 0
M  V30 1226 C 109.323 4.87802 -1.97322 0
M  V30 1227 O 108.349 5.01043 -2.70083 0
M  V30 1228 N 109.551 5.72768 -0.944273 0
M  V30 1229 H 112.316 1.89706 -2.32017 0
M  V30 1230 H 109.877 0.908006 -1.3404 0
M  V30 1231 H 111.869 3.95691 -0.849144 0
M  V30 1232 H 110.439 3.11992 -0.194909 0
M  V30 1233 H 109.659 2.89934 -2.6708 0
M  V30 1234 H 110.947 4.0431 -3.08887 0
M  V30 1235 H 110.345 5.64669 -0.341427 0
M  V30 1236 H 108.902 6.4716 -0.776346 0
M  V30 1237 N 112.336 1.25143 0.95797 0
M  V30 1238 C 113.582 1.09855 1.70469 0
M  V30 1239 C 113.915 -0.360187 1.90831 0
M  V30 1240 O 113.19 -1.26568 1.47685 0
M  V30 1241 C 113.473 1.8497 3.08963 0
M  V30 1242 C 113.326 3.38652 2.96032 0
M  V30 1243 C 114.645 1.63016 4.08795 0
M  V30 1244 H 111.764 0.400465 0.618706 0
M  V30 1245 H 114.406 1.53933 1.11376 0
M  V30 1246 H 112.556 1.47505 3.59409 0
M  V30 1247 H 114.228 3.85772 2.52938 0
M  V30 1248 H 112.471 3.66534 2.32025 0
M  V30 1249 H 113.142 3.8642 3.94187 0
M  V30 1250 H 115.618 1.95625 3.67247 0
M  V30 1251 H 114.494 2.18015 5.03747 0
M  V30 1252 H 114.755 0.570692 4.38401 0
M  V30 1253 N 113.814 -1.1601 1.06675 0
M  V30 1254 C 114.724 -2.24156 0.692179 0
M  V30 1255 C 115.74 -1.71507 -0.293513 0
M  V30 1256 O 116.916 -2.009 -0.141861 0
M  V30 1257 C 113.981 -3.46587 0.0884131 0
M  V30 1258 C 113.042 -4.14257 1.12646 0
M  V30 1259 C 112.275 -5.30844 0.551416 0
M  V30 1260 O 112.498 -5.66858 -0.634656 0
M  V30 1261 O 111.432 -5.87848 1.29298 0
M  V30 1262 H 115.258 -2.58513 1.59388 0
M  V30 1263 H 112.843 -1.23599 0.83926 0
M  V30 1264 H 114.725 -4.20679 -0.246361 0
M  V30 1265 H 113.4 -3.13994 -0.786712 0
M  V30 1266 H 112.307 -3.42118 1.51348 0
M  V30 1267 H 113.64 -4.50914 1.97325 0
M  V30 1268 N 115.292 -0.849877 -1.32721 0
M  V30 1269 C 116.54 -0.450032 -1.97026 0
M  V30 1270 C 116.861 0.996604 -1.67609 0
M  V30 1271 O 116.131 1.6958 -0.980786 0
M  V30 1272 H 114.711 -0.163426 -0.728904 0
M  V30 1273 H 117.373 -1.08526 -1.6189 0
M  V30 1274 H 116.469 -0.591146 -3.0645 0
M  V30 1275 N 116.77 1.45427 -0.607355 0
M  V30 1276 C 117.703 2.27635 0.160482 0
M  V30 1277 C 118.681 1.37122 0.873857 0
M  V30 1278 O 119.865 1.66551 0.882775 0
M  V30 1279 C 116.992 3.15486 1.23231 0
M  V30 1280 C 116.038 4.21939 0.622097 0
M  V30 1281 S 116.871 5.32459 -0.569852 0
M  V30 1282 C 118.027 6.23879 0.502577 0
M  V30 1283 H 118.26 2.9241 -0.536983 0
M  V30 1284 H 115.793 1.49265 -0.394868 0
M  V30 1285 H 117.751 3.66659 1.84585 0
M  V30 1286 H 116.412 2.49977 1.90185 0
M  V30 1287 H 115.605 4.8333 1.42856 0
M  V30 1288 H 115.207 3.73906 0.0837063 0
M  V30 1289 H 117.499 6.63261 1.38171 0
M  V30 1290 H 118.442 7.0806 -0.0751759 0
M  V30 1291 H 118.85 5.58545 0.8178 0
M  V30 1292 N 118.248 0.346503 1.53744 0
M  V30 1293 C 119.158 -0.517293 2.28826 0
M  V30 1294 C 120.174 -1.10935 1.3405 0
M  V30 1295 O 121.35 -1.1244 1.6709 0
M  V30 1296 C 118.415 -1.65098 3.04866 0
M  V30 1297 C 117.476 -1.0884 4.15274 0
M  V30 1298 C 116.709 -2.16806 4.87679 0
M  V30 1299 O 116.932 -3.3758 4.59778 0
M  V30 1300 O 115.866 -1.80934 5.74061 0
M  V30 1301 H 119.692 0.0931396 3.03557 0
M  V30 1302 H 117.277 0.111458 1.48984 0
M  V30 1303 H 119.159 -2.31053 3.5241 0
M  V30 1304 H 117.834 -2.24717 2.32989 0
M  V30 1305 H 116.741 -0.3933 3.72027 0
M  V30 1306 H 118.074 -0.537036 4.89261 0
M  V30 1307 N 119.726 -1.57421 0.075193 0
M  V30 1308 C 121.003 -1.85029 -0.634329 0
M  V30 1309 C 121.383 -0.968305 -1.87582 0
M  V30 1310 O 120.731 -0.0354749 -2.28472 0
M  V30 1311 C 120.941 -3.35286 -0.968742 0
M  V30 1312 C 122.289 -4.02875 -1.34077 0
M  V30 1313 O 123.313 -3.40051 -1.06037 0
M  V30 1314 O 122.172 -5.13691 -1.86506 0
M  V30 1315 H 119.266 -0.7645 -0.315387 0
M  V30 1316 H 121.812 -1.69366 0.106382 0
M  V30 1317 H 120.584 -3.91203 -0.0871376 0
M  V30 1318 H 120.207 -3.56223 -1.7661 0
M  V30 1319 N 121.204 0.198386 -1.56346 0
M  V30 1320 C 122.45 0.916115 -1.81601 0
M  V30 1321 C 122.805 1.81025 -0.651744 0
M  V30 1322 O 122.098 1.88316 0.353229 0
M  V30 1323 C 122.292 1.77031 -3.10475 0
M  V30 1324 C 122.121 0.960365 -4.39326 0
M  V30 1325 C 120.891 0.646093 -5.01152 0
M  V30 1326 C 123.089 0.314628 -5.13337 0
M  V30 1327 N 121.071 -0.182828 -6.13628 0
M  V30 1328 C 122.442 -0.37664 -6.18855 0
M  V30 1329 C 124.497 0.230019 -4.97368 0
M  V30 1330 C 123.2 -1.14445 -7.10137 0
M  V30 1331 C 125.226 -0.524389 -5.89071 0
M  V30 1332 C 124.588 -1.20412 -6.94032 0
M  V30 1333 H 120.687 0.314732 -0.715868 0
M  V30 1334 H 123.271 0.185102 -1.93818 0
M  V30 1335 H 121.442 2.47295 -2.99499 0
M  V30 1336 H 123.174 2.42727 -3.2383 0
M  V30 1337 H 119.929 0.969724 -4.63566 0
M  V30 1338 H 120.353 -0.586802 -6.74452 0
M  V30 1339 H 124.995 0.741184 -4.16253 0
M  V30 1340 H 122.713 -1.66706 -7.90718 0
M  V30 1341 H 126.299 -0.591167 -5.78789 0
M  V30 1342 H 125.179 -1.77853 -7.63766 0
M  V30 1343 N 122.682 1.50554 0.465978 0
M  V30 1344 C 123.629 1.6979 1.56333 0
M  V30 1345 C 124.599 0.539239 1.57103 0
M  V30 1346 O 125.784 0.770401 1.74555 0
M  V30 1347 C 122.924 1.80273 2.94271 0
M  V30 1348 C 122.037 3.07674 3.0325 0
M  V30 1349 C 121.172 3.08922 4.32135 0
M  V30 1350 C 120.211 4.30755 4.34875 0
M  V30 1351 N 119.348 4.29714 5.55239 0
M  V30 1352 H 124.188 2.63472 1.39235 0
M  V30 1353 H 121.725 1.30602 0.676873 0
M  V30 1354 H 123.683 1.84332 3.74269 0
M  V30 1355 H 122.313 0.900258 3.09992 0
M  V30 1356 H 121.365 3.13062 2.16094 0
M  V30 1357 H 122.677 3.97642 3.01135 0
M  V30 1358 H 121.831 3.11738 5.20485 0
M  V30 1359 H 120.57 2.16792 4.36866 0
M  V30 1360 H 119.575 4.28146 3.44922 0
M  V30 1361 H 120.8 5.24117 4.31831 0
M  V30 1362 H 118.746 3.4044 5.60746 0
M  V30 1363 H 118.663 5.13456 5.54886 0
M  V30 1364 H 119.931 4.36683 6.457 0
M  V30 1365 N 124.16 -0.719506 1.40217 0
M  V30 1366 C 125.092 -1.84428 1.36084 0
M  V30 1367 C 126.105 -1.60597 0.266913 0
M  V30 1368 O 127.294 -1.70544 0.526983 0
M  V30 1369 C 124.394 -3.20757 1.094 0
M  V30 1370 C 123.567 -3.71817 2.30372 0
M  V30 1371 C 122.626 -4.86748 1.99907 0
M  V30 1372 O 121.652 -4.99603 2.72737 0
M  V30 1373 N 122.854 -5.7226 0.974635 0
M  V30 1374 H 125.619 -1.88473 2.33019 0
M  V30 1375 H 123.18 -0.900885 1.3452 0
M  V30 1376 H 125.172 -3.95235 0.870116 0
M  V30 1377 H 123.742 -3.11884 0.211452 0
M  V30 1378 H 122.962 -2.88514 2.68614 0
M  V30 1379 H 124.25 -4.02666 3.11026 0
M  V30 1380 H 123.648 -5.6448 0.371368 0
M  V30 1381 H 122.205 -6.46739 0.810656 0
M  V30 1382 N 125.638 -1.25649 -0.95132 0
M  V30 1383 C 126.915 -1.01361 -1.67288 0
M  V30 1384 C 127.295 0.459135 -2.06046 0
M  V30 1385 O 126.643 1.43723 -1.7764 0
M  V30 1386 C 126.853 -1.95256 -2.89268 0
M  V30 1387 C 128.201 -2.23289 -3.61147 0
M  V30 1388 O 129.225 -1.93041 -2.99355 0
M  V30 1389 O 128.084 -2.74741 -4.72419 0
M  V30 1390 H 125.178 -0.38464 -0.732107 0
M  V30 1391 H 127.724 -1.36817 -1.00395 0
M  V30 1392 H 126.496 -2.94685 -2.57442 0
M  V30 1393 H 126.119 -1.60218 -3.6389 0
M  V30 1394 N 127.117 1.15442 -1.07289 0
M  V30 1395 C 128.342 1.90638 -0.816828 0
M  V30 1396 C 128.767 1.77445 0.624083 0
M  V30 1397 O 128.125 1.10671 1.43602 0
M  V30 1398 C 128.173 3.39008 -1.22906 0
M  V30 1399 O 127.277 4.10701 -0.373975 0
M  V30 1400 H 126.618 0.593555 -0.297638 0
M  V30 1401 H 129.148 1.46198 -1.43134 0
M  V30 1402 H 129.158 3.89801 -1.20497 0
M  V30 1403 H 127.833 3.47929 -2.27856 0
M  V30 1404 H 126.41 3.70046 -0.460499 0
M  V30 1405 N 128.595 0.856903 1.32268 0
M  V30 1406 C 129.527 0.260412 2.27716 0
M  V30 1407 C 130.54 -0.569137 1.52528 0
M  V30 1408 O 131.729 -0.39326 1.74114 0
M  V30 1409 C 128.829 -0.650477 3.32599 0
M  V30 1410 C 128.002 0.14372 4.37164 0
M  V30 1411 C 127.061 -0.69328 5.21613 0
M  V30 1412 O 126.087 -0.12599 5.69061 0
M  V30 1413 N 127.289 -2.00761 5.44679 0
M  V30 1414 H 130.054 1.08059 2.79541 0
M  V30 1415 H 127.615 0.717103 1.45152 0
M  V30 1416 H 129.607 -1.21581 3.86005 0
M  V30 1417 H 128.177 -1.37133 2.80915 0
M  V30 1418 H 127.397 0.890486 3.8401 0
M  V30 1419 H 128.685 0.68915 5.04111 0
M  V30 1420 H 128.083 -2.49181 5.07863 0
M  V30 1421 H 126.64 -2.52103 6.01072 0
M  V30 1422 N 130.073 -1.45103 0.615059 0
M  V30 1423 C 131.003 -2.33339 -0.0865619 0
M  V30 1424 C 131.984 -1.4727 -0.851209 0
M  V30 1425 O 133.169 -1.76026 -0.820281 0
M  V30 1426 C 130.299 -3.30095 -1.07956 0
M  V30 1427 C 129.253 -4.25858 -0.427628 0
M  V30 1428 C 128.579 -5.12361 -1.5294 0
M  V30 1429 C 129.879 -5.18165 0.655944 0
M  V30 1430 H 131.573 -2.92254 0.650224 0
M  V30 1431 H 129.119 -1.40532 0.314138 0
M  V30 1432 H 131.072 -3.90698 -1.57901 0
M  V30 1433 H 129.796 -2.69355 -1.84703 0
M  V30 1434 H 128.455 -3.66564 0.0510292 0
M  V30 1435 H 128.103 -4.47984 -2.28734 0
M  V30 1436 H 127.803 -5.77238 -1.09865 0
M  V30 1437 H 129.327 -5.75833 -2.03098 0
M  V30 1438 H 130.741 -5.72796 0.240257 0
M  V30 1439 H 129.138 -5.91559 1.00888 0
M  V30 1440 H 130.208 -4.60144 1.52957 0
M  V30 1441 N 131.551 -0.354651 -1.53558 0
M  V30 1442 C 132.483 0.5315 -2.22952 0
M  V30 1443 C 133.496 1.05503 -1.23988 0
M  V30 1444 O 134.685 0.963279 -1.50277 0
M  V30 1445 C 131.785 1.74538 -2.90499 0
M  V30 1446 C 130.958 1.35524 -4.15875 0
M  V30 1447 C 130.017 2.42999 -4.66731 0
M  V30 1448 O 129.043 2.05844 -5.30676 0
M  V30 1449 N 130.245 3.74423 -4.43608 0
M  V30 1450 H 133.01 -0.0628615 -2.99634 0
M  V30 1451 H 130.571 -0.179302 -1.60904 0
M  V30 1452 H 132.563 2.45892 -3.21433 0
M  V30 1453 H 131.133 2.24686 -2.17336 0
M  V30 1454 H 130.353 0.471998 -3.91364 0
M  V30 1455 H 131.641 1.07071 -4.97406 0
M  V30 1456 H 131.039 4.07391 -3.92491 0
M  V30 1457 H 129.596 4.41913 -4.7912 0
M  V30 1458 N 133.029 1.57378 -0.0835403 0
M  V30 1459 C 133.976 2.13384 0.879539 0
M  V30 1460 C 134.946 1.04936 1.28754 0
M  V30 1461 O 136.131 1.32662 1.37133 0
M  V30 1462 C 133.271 2.70932 2.13752 0
M  V30 1463 C 132.384 3.93575 1.7811 0
M  V30 1464 C 131.519 4.39326 2.98607 0
M  V30 1465 C 130.558 5.54587 2.59037 0
M  V30 1466 N 129.695 5.95243 3.72331 0
M  V30 1467 H 134.535 2.9537 0.395076 0
M  V30 1468 H 132.072 1.45953 0.183349 0
M  V30 1469 H 134.03 3.02411 2.87408 0
M  V30 1470 H 132.66 1.91693 2.59718 0
M  V30 1471 H 131.712 3.68483 0.94469 0
M  V30 1472 H 133.024 4.77258 1.45005 0
M  V30 1473 H 132.178 4.72528 3.80529 0
M  V30 1474 H 130.917 3.5452 3.34913 0
M  V30 1475 H 129.922 5.21024 1.75539 0
M  V30 1476 H 131.147 6.41133 2.23887 0
M  V30 1477 H 129.093 5.13385 4.08378 0
M  V30 1478 H 129.01 6.73694 3.43034 0
M  V30 1479 H 130.278 6.33072 4.54797 0
M  V30 1480 N 134.507 -0.190092 1.56449 0
M  V30 1481 C 135.47 -1.21925 1.9408 0
M  V30 1482 C 136.47 -1.38176 0.822431 0
M  V30 1483 O 137.66 -1.35903 1.08977 0
M  V30 1484 C 134.792 -2.58773 2.21922 0
M  V30 1485 H 135.985 -0.897464 2.86157 0
M  V30 1486 H 133.538 -0.43181 1.50217 0
M  V30 1487 H 134.273 -2.95998 1.32499 0
M  V30 1488 H 134.058 -2.48348 3.03424 0
M  V30 1489 H 135.548 -3.32978 2.52022 0
M  V30 1490 N 135.985 -1.50799 -0.457987 0
M  V30 1491 C 137.401 -1.38515 -0.792819 0
M  V30 1492 C 137.601 -0.451409 -1.96379 0
M  V30 1493 O 136.657 0.10112 -2.52297 0
M  V30 1494 C 137.97 -2.80149 -1.09258 0
M  V30 1495 C 139.518 -2.89156 -1.19825 0
M  V30 1496 C 139.993 -4.31651 -1.53106 0
M  V30 1497 N 141.484 -4.34662 -1.60072 0
M  V30 1498 C 142.219 -5.41928 -1.87354 0
M  V30 1499 N 141.715 -6.59384 -2.12568 0
M  V30 1500 N 143.508 -5.29385 -1.88965 0
M  V30 1501 H 135.659 -2.10073 0.313511 0
M  V30 1502 H 137.922 -0.944803 0.0777862 0
M  V30 1503 H 137.628 -3.50374 -0.305084 0
M  V30 1504 H 137.502 -3.18204 -2.02549 0
M  V30 1505 H 139.889 -2.19141 -1.97639 0
M  V30 1506 H 139.97 -2.54626 -0.244821 0
M  V30 1507 H 139.614 -5.02208 -0.758266 0
M  V30 1508 H 139.544 -4.63678 -2.49621 0
M  V30 1509 H 142.035 -3.49973 -1.42573 0
M  V30 1510 H 142.348 -7.36934 -2.32696 0
M  V30 1511 H 140.693 -6.62535 -2.09933 0
M  V30 1512 H 143.884 -4.36616 -1.68772 0
M  V30 1513 H 144.057 -6.13066 -2.09891 0
M  V30 1514 N 137.463 0.71206 -1.40597 0
M  V30 1515 C 138.373 1.8562 -1.43466 0
M  V30 1516 C 139.389 1.70902 -0.326902 0
M  V30 1517 O 140.565 1.93105 -0.572043 0
M  V30 1518 C 137.63 3.21451 -1.29884 0
M  V30 1519 C 136.691 3.48398 -2.50833 0
M  V30 1520 C 135.924 4.77749 -2.3789 0
M  V30 1521 O 136.147 5.53089 -1.39459 0
M  V30 1522 O 135.081 5.05111 -3.27333 0
M  V30 1523 H 138.907 1.86155 -2.39958 0
M  V30 1524 H 136.492 0.86295 -1.21957 0
M  V30 1525 H 138.374 4.02579 -1.24531 0
M  V30 1526 H 137.049 3.21636 -0.364997 0
M  V30 1527 H 135.956 2.67265 -2.61763 0
M  V30 1528 H 137.289 3.53014 -3.4299 0
M  V30 1529 N 138.941 1.26152 0.944643 0
M  V30 1530 C 140.218 1.02247 1.66748 0
M  V30 1531 C 140.598 -0.448202 2.06287 0
M  V30 1532 O 139.946 -1.42779 1.78399 0
M  V30 1533 C 140.156 1.96788 2.88228 0
M  V30 1534 C 141.504 2.25201 3.59958 0
M  V30 1535 O 142.528 1.94626 2.98327 0
M  V30 1536 O 141.387 2.77242 4.70956 0
M  V30 1537 H 138.481 0.388517 0.730057 0
M  V30 1538 H 141.027 1.37348 0.99668 0
M  V30 1539 H 139.799 2.96047 2.55875 0
M  V30 1540 H 139.422 1.62145 3.63035 0
M  V30 1541 N 140.419 -1.14872 1.07899 0
M  V30 1542 C 141.668 -1.85135 0.800499 0
M  V30 1543 C 141.981 -1.83547 -0.676014 0
M  V30 1544 O 143.187 -2.49548 -1.06948 0
M  V30 1545 C 141.643 -3.3231 1.38197 0
M  V30 1546 C 141.251 -3.42329 2.8899 0
M  V30 1547 C 142.995 -4.0772 1.18174 0
M  V30 1548 C 140.902 -4.83684 3.403 0
M  V30 1549 H 139.832 -0.693563 0.29578 0
M  V30 1550 H 142.483 -1.29532 1.29976 0
M  V30 1551 H 140.865 -3.87618 0.810431 0
M  V30 1552 H 142.039 -2.97097 3.52236 0
M  V30 1553 H 140.354 -2.80369 3.07867 0
M  V30 1554 H 142.951 -5.12049 1.5398 0
M  V30 1555 H 143.294 -4.16124 0.12117 0
M  V30 1556 H 143.827 -3.58696 1.71994 0
M  V30 1557 H 140.566 -4.80465 4.45907 0
M  V30 1558 H 140.086 -5.29474 2.81811 0
M  V30 1559 H 141.765 -5.52558 3.36584 0
M  V30 1560 N 141.898 -0.863906 -1.31812 0
M  V30 1561 C 143.145 -0.471836 -1.96926 0
M  V30 1562 C 143.473 0.974578 -1.68322 0
M  V30 1563 O 142.728 1.7003 -0.968933 0
M  V30 1564 C 143.027 -0.668547 -3.51091 0
M  V30 1565 C 142.693 -2.08683 -3.99703 0
M  V30 1566 C 141.355 -2.47471 -4.12688 0
M  V30 1567 C 143.707 -3.01207 -4.25351 0
M  V30 1568 C 141.035 -3.78037 -4.4867 0
M  V30 1569 C 143.387 -4.31282 -4.62794 0
M  V30 1570 C 142.051 -4.69992 -4.73987 0
M  V30 1571 H 141.321 -0.172657 -0.720604 0
M  V30 1572 H 143.968 -1.09573 -1.57054 0
M  V30 1573 H 142.273 0.0385252 -3.91781 0
M  V30 1574 H 143.97 -0.345102 -3.99512 0
M  V30 1575 H 140.56 -1.77566 -3.90087 0
M  V30 1576 H 144.744 -2.72469 -4.14819 0
M  V30 1577 H 140 -4.078 -4.55532 0
M  V30 1578 H 144.174 -5.03031 -4.81594 0
M  V30 1579 H 141.801 -5.71207 -5.01624 0
M  V30 1580 N 143.376 1.44774 -0.622745 0
M  V30 1581 C 144.309 2.27792 0.136329 0
M  V30 1582 C 145.287 1.38041 0.859264 0
M  V30 1583 O 146.471 1.67478 0.86506 0
M  V30 1584 C 143.598 3.16776 1.19878 0
M  V30 1585 C 142.644 4.22575 0.57731 0
M  V30 1586 S 143.477 5.31825 -0.626294 0
M  V30 1587 C 144.633 6.24377 0.436378 0
M  V30 1588 H 144.866 2.91824 -0.567967 0
M  V30 1589 H 142.399 1.48838 -0.410677 0
M  V30 1590 H 144.357 3.68596 1.80686 0
M  V30 1591 H 143.018 2.5198 1.87523 0
M  V30 1592 H 142.211 4.84818 1.37721 0
M  V30 1593 H 141.813 3.73974 0.0440439 0
M  V30 1594 H 144.105 6.64689 1.31128 0
M  V30 1595 H 145.048 7.07941 -0.150271 0
M  V30 1596 H 145.456 5.59381 0.758513 0
M  V30 1597 N 144.854 0.36279 1.53368 0
M  V30 1598 C 145.764 -0.492994 2.29362 0
M  V30 1599 C 146.78 -1.09507 1.35219 0
M  V30 1600 O 147.956 -1.10662 1.68273 0
M  V30 1601 C 145.021 -1.61855 3.066 0
M  V30 1602 C 144.082 -1.04429 4.16405 0
M  V30 1603 C 143.315 -2.11621 4.89951 0
M  V30 1604 O 143.538 -3.32684 4.63333 0
M  V30 1605 O 142.472 -1.74835 5.75948 0
M  V30 1606 H 146.298 0.125331 3.03441 0
M  V30 1607 H 143.883 0.127253 1.48857 0
M  V30 1608 H 145.765 -2.27302 3.54841 0
M  V30 1609 H 144.44 -2.22233 2.3536 0
M  V30 1610 H 143.347 -0.353819 3.72423 0
M  V30 1611 H 144.68 -0.485113 4.89804 0
M  V30 1612 N 146.332 -1.57332 0.0918853 0
M  V30 1613 C 147.56 -1.98574 -0.581048 0
M  V30 1614 C 147.975 -0.970903 -1.61923 0
M  V30 1615 O 147.332 0.0399054 -1.82456 0
M  V30 1616 C 147.383 -3.39872 -1.23164 0
M  V30 1617 O 147.104 -4.37469 -0.234989 0
M  V30 1618 C 148.605 -3.96099 -1.99049 0
M  V30 1619 H 145.825 -0.65261 -0.156018 0
M  V30 1620 H 148.369 -2.0379 0.170225 0
M  V30 1621 H 146.524 -3.35679 -1.93386 0
M  V30 1622 H 146.938 -5.19751 -0.70418 0
M  V30 1623 H 148.412 -4.97127 -2.39934 0
M  V30 1624 H 148.889 -3.3374 -2.85507 0
M  V30 1625 H 149.495 -4.03755 -1.3365 0
M  V30 1626 N 147.81 0.181792 -1.56548 0
M  V30 1627 C 148.74 1.22765 -1.98623 0
M  V30 1628 C 149.721 1.46747 -0.860189 0
M  V30 1629 O 150.906 1.58259 -1.12551 0
M  V30 1630 C 148.036 2.56894 -2.33715 0
M  V30 1631 C 146.99 2.475 -3.49182 0
M  V30 1632 C 146.316 3.86023 -3.69986 0
M  V30 1633 C 147.616 1.98866 -4.82959 0
M  V30 1634 H 149.31 0.877942 -2.86239 0
M  V30 1635 H 146.856 0.42088 -1.37712 0
M  V30 1636 H 148.809 3.30253 -2.61746 0
M  V30 1637 H 147.533 2.93632 -1.42997 0
M  V30 1638 H 146.192 1.76596 -3.21262 0
M  V30 1639 H 145.84 4.20136 -2.76576 0
M  V30 1640 H 145.54 3.80609 -4.47672 0
M  V30 1641 H 147.064 4.60984 -4.00407 0
M  V30 1642 H 148.478 2.61992 -5.09934 0
M  V30 1643 H 146.875 2.04424 -5.64208 0
M  V30 1644 H 147.945 0.942465 -4.75653 0
M  V30 1645 N 149.288 1.51039 0.449983 0
M  V30 1646 C 150.235 1.71439 1.54523 0
M  V30 1647 C 151.205 0.555871 1.56522 0
M  V30 1648 O 152.39 0.788871 1.73728 0
M  V30 1649 C 149.53 1.83384 2.92343 0
M  V30 1650 C 148.643 3.10873 2.9997 0
M  V30 1651 C 147.778 3.13488 4.28834 0
M  V30 1652 C 146.817 4.35343 4.30282 0
M  V30 1653 N 145.954 4.35579 5.5065 0
M  V30 1654 H 150.794 2.64934 1.36433 0
M  V30 1655 H 148.331 1.31312 0.662982 0
M  V30 1656 H 150.289 1.88291 3.72293 0
M  V30 1657 H 148.919 0.933086 3.0902 0
M  V30 1658 H 147.971 3.15336 2.12761 0
M  V30 1659 H 149.283 4.00814 2.96901 0
M  V30 1660 H 148.437 3.17241 5.17149 0
M  V30 1661 H 147.176 2.21414 4.34543 0
M  V30 1662 H 146.181 4.3178 3.40362 0
M  V30 1663 H 147.406 5.28668 4.26248 0
M  V30 1664 H 145.352 3.46369 5.57104 0
M  V30 1665 H 145.269 5.19313 5.49409 0
M  V30 1666 H 146.537 4.43507 6.41032 0
M  V30 1667 N 150.766 -0.704594 1.40972 0
M  V30 1668 C 152.043 -1.45847 1.30338 0
M  V30 1669 C 152.423 -2.10973 -0.0732344 0
M  V30 1670 O 151.771 -2.00997 -1.08685 0
M  V30 1671 C 151.981 -2.48525 2.45023 0
M  V30 1672 C 153.329 -3.1404 2.8577 0
M  V30 1673 O 154.353 -2.58848 2.44696 0
M  V30 1674 O 153.212 -4.13981 3.56766 0
M  V30 1675 H 150.306 -0.649092 0.512454 0
M  V30 1676 H 152.852 -0.735836 1.52917 0
M  V30 1677 H 151.624 -1.98994 3.36923 0
M  V30 1678 H 151.247 -3.2831 2.24272 0
M  V30 1679 N 152.244 -1.26651 -0.937939 0
M  V30 1680 C 153.493 -1.11775 -1.67897 0
M  V30 1681 C 153.806 0.33794 -1.92659 0
M  V30 1682 O 155.012 0.607434 -2.64618 0
M  V30 1683 C 153.468 -1.9523 -3.02346 0
M  V30 1684 C 153.076 -3.45393 -2.8532 0
M  V30 1685 C 154.82 -1.88972 -3.80118 0
M  V30 1686 C 152.727 -4.21083 -4.15263 0
M  V30 1687 H 151.657 -0.414696 -0.629717 0
M  V30 1688 H 154.308 -1.50988 -1.04283 0
M  V30 1689 H 152.69 -1.48853 -3.66959 0
M  V30 1690 H 153.864 -3.99561 -2.29537 0
M  V30 1691 H 152.179 -3.52921 -2.20988 0
M  V30 1692 H 154.776 -2.42805 -4.76392 0
M  V30 1693 H 155.119 -0.86113 -4.07296 0
M  V30 1694 H 155.652 -2.33189 -3.22285 0
M  V30 1695 H 152.391 -5.24425 -3.93267 0
M  V30 1696 H 151.911 -3.71695 -4.70747 0
M  V30 1697 H 153.59 -4.29706 -4.83696 0
M  V30 1698 N 153.722 1.14298 -1.08507 0
M  V30 1699 C 154.968 1.85633 -0.816581 0
M  V30 1700 C 155.301 1.82784 0.656021 0
M  V30 1701 O 154.576 1.25926 1.48233 0
M  V30 1702 C 154.859 3.34223 -1.34041 0
M  V30 1703 C 154.712 3.45639 -2.87843 0
M  V30 1704 C 156.031 4.29356 -0.9665 0
M  V30 1705 H 153.15 0.67402 -0.298104 0
M  V30 1706 H 155.792 1.34214 -1.34487 0
M  V30 1707 H 153.942 3.78144 -0.89104 0
M  V30 1708 H 155.614 3.10498 -3.41158 0
M  V30 1709 H 153.857 2.86817 -3.25451 0
M  V30 1710 H 154.528 4.50089 -3.19569 0
M  V30 1711 H 157.004 3.93457 -1.35391 0
M  V30 1712 H 155.88 5.3178 -1.3602 0
M  V30 1713 H 156.141 4.41919 0.126362 0
M  V30 1714 N 155.201 0.870884 1.31352 0
M  V30 1715 C 156.111 0.330783 2.32256 0
M  V30 1716 C 157.127 -0.559767 1.6475 0
M  V30 1717 O 158.303 -0.456263 1.96164 0
M  V30 1718 C 155.368 -0.458137 3.4366 0
M  V30 1719 C 154.429 0.460482 4.26823 0
M  V30 1720 C 153.662 -0.290881 5.32907 0
M  V30 1721 O 153.885 -1.51885 5.49806 0
M  V30 1722 O 152.819 0.351732 6.00871 0
M  V30 1723 H 156.645 1.16718 2.80376 0
M  V30 1724 H 154.23 0.634285 1.35267 0
M  V30 1725 H 156.112 -0.905343 4.1156 0
M  V30 1726 H 154.787 -1.27106 2.97701 0
M  V30 1727 H 153.694 0.956207 3.61673 0
M  V30 1728 H 155.027 1.23903 4.7635 0
M  V30 1729 N 156.679 -1.44442 0.630414 0
M  V30 1730 C 157.909 -2.06115 0.141465 0
M  V30 1731 C 158.317 -1.47179 -1.1889 0
M  V30 1732 O 157.66 -0.588873 -1.74006 0
M  V30 1733 C 157.722 -3.59467 -0.0484355 0
M  V30 1734 C 157.386 -4.40864 1.20366 0
M  V30 1735 C 158.383 -4.74391 2.12719 0
M  V30 1736 C 156.068 -4.8125 1.43887 0
M  V30 1737 C 158.062 -5.47186 3.26904 0
M  V30 1738 C 155.749 -5.53795 2.5837 0
M  V30 1739 C 156.747 -5.86682 3.49705 0
M  V30 1740 O 156.435 -6.57749 4.62191 0
M  V30 1741 H 156.167 -0.671648 0.0765792 0
M  V30 1742 H 158.721 -1.86312 0.864695 0
M  V30 1743 H 156.951 -3.77758 -0.826803 0
M  V30 1744 H 158.64 -4.02909 -0.491849 0
M  V30 1745 H 159.406 -4.43728 1.95781 0
M  V30 1746 H 155.285 -4.55073 0.736853 0
M  V30 1747 H 158.829 -5.72773 3.98217 0
M  V30 1748 H 154.726 -5.83872 2.75251 0
M  V30 1749 H 155.494 -6.76217 4.61164 0
M  V30 1750 N 158.157 -0.370918 -1.53173 0
M  V30 1751 C 159.387 0.217389 -2.05453 0
M  V30 1752 C 159.795 1.42568 -1.24382 0
M  V30 1753 O 159.138 1.81571 -0.278839 0
M  V30 1754 C 159.2 0.669827 -3.53205 0
M  V30 1755 C 158.864 -0.4225 -4.55043 0
M  V30 1756 C 159.861 -1.27407 -5.04047 0
M  V30 1757 C 157.546 -0.58427 -4.9889 0
M  V30 1758 C 159.54 -2.27271 -5.95505 0
M  V30 1759 C 157.227 -1.58627 -5.90153 0
M  V30 1760 C 158.225 -2.42892 -6.38351 0
M  V30 1761 O 157.913 -3.41382 -7.27814 0
M  V30 1762 H 157.645 0.0408171 -0.674767 0
M  V30 1763 H 160.199 -0.5292 -1.98466 0
M  V30 1764 H 158.429 1.4681 -3.57748 0
M  V30 1765 H 160.118 1.18173 -3.88317 0
M  V30 1766 H 160.884 -1.16031 -4.70916 0
M  V30 1767 H 156.763 0.061851 -4.60959 0
M  V30 1768 H 160.307 -2.93079 -6.33049 0
M  V30 1769 H 156.204 -1.70048 -6.22699 0
M  V30 1770 H 156.972 -3.37173 -7.45826 0
M  V30 1771 N 159.635 1.57281 -0.100228 0
M  V30 1772 C 160.583 2.15542 0.874328 0
M  V30 1773 C 161.577 1.09962 1.28859 0
M  V30 1774 O 162.783 1.28298 1.26252 0
M  V30 1775 H 159.158 0.689567 0.300003 0
M  V30 1776 H 161.129 2.96241 0.35829 0
M  V30 1777 C 159.878 2.75454 2.1218 0
M  V30 1778 H 159.201 3.56384 1.81193 0
M  V30 1779 H 160.641 3.19781 2.78417 0
M  V30 1780 C 159.1 1.71602 2.89921 0
M  V30 1781 O 159.63 1.15804 3.84646 0
M  V30 1782 N 157.836 1.41975 2.53558 0
M  V30 1783 H 157.383 1.87539 1.76598 0
M  V30 1784 H 157.341 0.727274 3.05873 0
M  V30 1785 N 161.113 -0.173488 1.56642 0
M  V30 1786 C 162.39 -0.917617 1.7274 0
M  V30 1787 C 162.77 -2.00484 0.661027 0
M  V30 1788 O 162.118 -2.26184 -0.32453 0
M  V30 1789 C 162.328 -1.48433 3.15862 0
M  V30 1790 C 163.676 -1.95809 3.76754 0
M  V30 1791 O 164.7 -1.58231 3.19126 0
M  V30 1792 O 163.559 -2.65024 4.77938 0
M  V30 1793 H 160.653 -0.431772 0.705338 0
M  V30 1794 H 163.199 -0.161487 1.6893 0
M  V30 1795 H 161.971 -0.701715 3.84957 0
M  V30 1796 H 161.594 -2.30471 3.23989 0
M  V30 1797 N 162.591 -1.51276 -0.441967 0
M  V30 1798 C 163.816 -1.67799 -1.21895 0
M  V30 1799 C 164.241 -0.372864 -1.84367 0
M  V30 1800 O 163.599 0.666501 -1.68604 0
M  V30 1801 C 163.647 -2.79199 -2.28211 0
M  V30 1802 O 162.751 -2.42479 -3.33583 0
M  V30 1803 H 162.092 -0.559649 -0.357336 0
M  V30 1804 H 164.622 -1.97815 -0.522522 0
M  V30 1805 H 164.632 -3.03146 -2.73069 0
M  V30 1806 H 163.307 -3.73906 -1.82118 0
M  V30 1807 H 161.884 -2.29087 -2.94234 0
M  V30 1808 N 164.069 0.697108 -1.41344 0
M  V30 1809 C 165.017 1.83237 -1.43272 0
M  V30 1810 C 166.011 1.66522 -0.310947 0
M  V30 1811 O 167.217 1.73402 -0.482899 0
M  V30 1812 H 163.592 0.603802 -0.448249 0
M  V30 1813 H 165.563 1.78727 -2.38954 0
M  V30 1814 C 164.312 3.21245 -1.33029 0
M  V30 1815 H 163.635 3.34723 -2.18633 0
M  V30 1816 H 165.075 4.00763 -1.38439 0
M  V30 1817 C 163.534 3.36873 -0.0424635 0
M  V30 1818 O 164.064 3.91177 0.913421 0
M  V30 1819 N 162.27 2.90581 0.0331145 0
M  V30 1820 H 161.817 2.46577 -0.745506 0
M  V30 1821 H 161.775 3.01416 0.894199 0
M  V30 1822 N 165.547 1.27147 0.931209 0
M  V30 1823 C 166.795 1.13055 1.6752 0
M  V30 1824 C 167.116 -0.324791 1.92276 0
M  V30 1825 O 166.386 -1.22775 1.52654 0
M  V30 1826 H 164.966 0.415391 0.620854 0
M  V30 1827 H 167.628 1.59623 1.11833 0
M  V30 1828 H 166.724 1.65694 2.64485 0
M  V30 1829 N 167.025 -1.13721 1.09112 0
M  V30 1830 C 168.25 -1.89314 0.847053 0
M  V30 1831 C 168.675 -1.78416 -0.595774 0
M  V30 1832 O 168.033 -1.12942 -1.41823 0
M  V30 1833 C 168.081 -3.3701 1.28284 0
M  V30 1834 O 167.185 -4.10054 0.439267 0
M  V30 1835 H 166.526 -0.588745 0.307044 0
M  V30 1836 H 169.056 -1.43902 1.45442 0
M  V30 1837 H 169.066 -3.87834 1.26683 0
M  V30 1838 H 167.741 -3.4426 2.33363 0
M  V30 1839 H 166.318 -3.69266 0.519312 0
M  V30 1840 N 168.503 -0.877838 -1.30888 0
M  V30 1841 C 169.453 -0.310872 -2.25871 0
M  V30 1842 C 170.437 0.556596 -1.50966 0
M  V30 1843 O 171.629 0.402187 -1.7237 0
M  V30 1844 C 168.758 0.479821 -3.3993 0
M  V30 1845 C 167.844 -0.401333 -4.22197 0
M  V30 1846 N 168.235 -1.49848 -4.83093 0
M  V30 1847 C 166.533 -0.195167 -4.45573 0
M  V30 1848 C 167.234 -2.0425 -5.44662 0
M  V30 1849 N 166.21 -1.33843 -5.26865 0
M  V30 1850 H 170.012 -1.1493 -2.70496 0
M  V30 1851 H 167.526 -0.726458 -1.45246 0
M  V30 1852 H 169.523 0.902582 -4.07012 0
M  V30 1853 H 168.183 1.31577 -2.96846 0
M  V30 1854 H 169.194 -1.88137 -4.82519 0
M  V30 1855 H 165.871 0.604192 -4.13105 0
M  V30 1856 H 167.261 -2.96345 -6.03017 0
M  V30 1857 N 169.982 1.44106 -0.638065 0
M  V30 1858 C 171.228 2.02277 -0.145546 0
M  V30 1859 C 171.561 1.50125 1.23191 0
M  V30 1860 O 170.836 0.688133 1.8192 0
M  V30 1861 C 171.119 3.59829 -0.139791 0
M  V30 1862 C 170.972 4.22247 -1.55008 0
M  V30 1863 C 172.291 4.36873 0.531966 0
M  V30 1864 H 169.41 0.734992 -0.0543632 0
M  V30 1865 H 172.052 1.71592 -0.815863 0
M  V30 1866 H 170.202 3.86102 0.431007 0
M  V30 1867 H 171.874 4.07057 -2.1703 0
M  V30 1868 H 170.117 3.79476 -2.10191 0
M  V30 1869 H 170.788 5.31284 -1.49804 0
M  V30 1870 H 173.264 4.16074 0.0464781 0
M  V30 1871 H 172.14 5.4657 0.505206 0
M  V30 1872 H 172.401 4.11995 1.60352 0
M  V30 1873 N 171.46 0.379036 1.52974 0
M  V30 1874 C 172.39 -0.452706 2.29069 0
M  V30 1875 C 173.371 -1.07237 1.32039 0
M  V30 1876 O 174.556 -1.08708 1.60923 0
M  V30 1877 C 171.686 -1.5856 3.08992 0
M  V30 1878 C 170.64 -1.0925 4.13822 0
M  V30 1879 C 169.966 -2.31668 4.81907 0
M  V30 1880 C 171.266 -0.167702 5.22031 0
M  V30 1881 H 172.96 0.182181 2.98845 0
M  V30 1882 H 170.506 0.0890592 1.43724 0
M  V30 1883 H 172.459 -2.1742 3.6098 0
M  V30 1884 H 171.183 -2.24792 2.36931 0
M  V30 1885 H 169.842 -0.526494 3.628 0
M  V30 1886 H 169.49 -2.96386 4.06404 0
M  V30 1887 H 169.19 -1.9934 5.52754 0
M  V30 1888 H 170.714 -2.91189 5.36695 0
M  V30 1889 H 172.128 -0.664186 5.6944 0
M  V30 1890 H 170.525 0.0653265 6.00064 0
M  V30 1891 H 171.595 0.786347 4.78482 0
M  V30 1892 N 172.938 -1.57226 0.108567 0
M  V30 1893 C 173.87 -2.11809 -0.875752 0
M  V30 1894 C 174.883 -1.05839 -1.23701 0
M  V30 1895 O 176.072 -1.33245 -1.18778 0
M  V30 1896 C 173.172 -2.59411 -2.18081 0
M  V30 1897 C 172.345 -3.89364 -1.99284 0
M  V30 1898 C 171.404 -4.22672 -3.13424 0
M  V30 1899 O 170.43 -4.91668 -2.86795 0
M  V30 1900 N 171.632 -3.79154 -4.3957 0
M  V30 1901 H 174.397 -2.9689 -0.409477 0
M  V30 1902 H 171.958 -1.61721 -0.076158 0
M  V30 1903 H 173.95 -2.7873 -2.93414 0
M  V30 1904 H 172.52 -1.79268 -2.5609 0
M  V30 1905 H 171.74 -3.79059 -1.08203 0
M  V30 1906 H 173.028 -4.74358 -1.84017 0
M  V30 1907 H 172.426 -3.23486 -4.64083 0
M  V30 1908 H 170.983 -4.03602 -5.11809 0
M  V30 1909 N 174.416 0.165178 -1.56732 0
M  V30 1910 C 175.664 0.879068 -1.8198 0
M  V30 1911 C 175.985 1.82514 -0.686561 0
M  V30 1912 O 175.255 1.93694 0.293146 0
M  V30 1913 H 173.835 0.327608 -0.671329 0
M  V30 1914 H 176.497 0.163526 -1.94213 0
M  V30 1915 H 175.593 1.45228 -2.76252 0
M  V30 1916 N 175.894 1.51508 0.433938 0
M  V30 1917 C 177.31 1.39759 0.770682 0
M  V30 1918 C 177.51 0.482594 1.95636 0
M  V30 1919 O 176.566 -0.0609691 2.52426 0
M  V30 1920 C 177.879 2.81851 1.04787 0
M  V30 1921 C 179.427 2.91025 1.1521 0
M  V30 1922 C 179.902 4.34032 1.46219 0
M  V30 1923 N 181.393 4.37154 1.53136 0
M  V30 1924 C 182.128 5.4484 1.78709 0
M  V30 1925 N 181.624 6.62682 2.02051 0
M  V30 1926 N 183.417 5.32324 1.80519 0
M  V30 1927 H 175.568 2.09548 -0.346892 0
M  V30 1928 H 177.831 0.943446 -0.0928074 0
M  V30 1929 H 177.537 3.50815 0.249304 0
M  V30 1930 H 177.411 3.21386 1.97461 0
M  V30 1931 H 179.798 2.22257 1.94128 0
M  V30 1932 H 179.879 2.54983 0.204281 0
M  V30 1933 H 179.523 5.03351 0.678274 0
M  V30 1934 H 179.453 4.6759 2.42212 0
M  V30 1935 H 181.944 3.52197 1.36987 0
M  V30 1936 H 182.257 7.40543 2.20943 0
M  V30 1937 H 180.602 6.65791 1.99366 0
M  V30 1938 H 183.793 4.39246 1.61805 0
M  V30 1939 H 183.966 6.16328 2.00111 0
M  V30 1940 N 177.372 -0.689602 1.41712 0
M  V30 1941 C 178.619 -1.44966 1.4139 0
M  V30 1942 C 178.947 -1.94484 0.025105 0
M  V30 1943 O 178.202 -1.70307 -0.964048 0
M  V30 1944 C 178.501 -2.67298 2.37247 0
M  V30 1945 C 178.167 -2.36405 3.83958 0
M  V30 1946 C 176.829 -2.27691 4.23923 0
M  V30 1947 C 179.181 -2.11043 4.76561 0
M  V30 1948 C 176.509 -1.91719 5.54492 0
M  V30 1949 C 178.861 -1.76578 6.07456 0
M  V30 1950 C 177.525 -1.66363 6.46436 0
M  V30 1951 H 176.795 -0.53047 0.517381 0
M  V30 1952 H 179.442 -0.787655 1.74552 0
M  V30 1953 H 177.747 -3.38461 1.9736 0
M  V30 1954 H 179.444 -3.25452 2.34269 0
M  V30 1955 H 176.034 -2.44085 3.52308 0
M  V30 1956 H 180.218 -2.16717 4.46483 0
M  V30 1957 H 175.474 -1.82367 5.83568 0
M  V30 1958 H 179.648 -1.55974 6.78708 0
M  V30 1959 H 177.275 -1.38258 7.47522 0
M  V30 1960 N 178.85 -1.27639 -0.924453 0
M  V30 1961 C 180.098 -1.13941 -1.66918 0
M  V30 1962 C 180.419 0.314589 -1.92446 0
M  V30 1963 O 179.689 1.21964 -1.53303 0
M  V30 1964 H 178.269 -0.418678 -0.618642 0
M  V30 1965 H 180.931 -1.60213 -1.10985 0
M  V30 1966 H 180.027 -1.67094 -2.63602 0
M  V30 1967 N 180.328 1.1314 -1.09713 0
M  V30 1968 C 181.568 1.8613 -0.844683 0
M  V30 1969 C 181.932 1.81765 0.618491 0
M  V30 1970 O 183.133 2.50024 0.98699 0
M  V30 1971 C 181.404 3.30151 -1.36877 0
M  V30 1972 S 182.963 4.206 -1.25064 0
M  V30 1973 H 179.781 0.642056 -0.305427 0
M  V30 1974 H 182.383 1.36343 -1.4011 0
M  V30 1975 H 181.087 3.30883 -2.42786 0
M  V30 1976 H 180.618 3.85 -0.808614 0
M  V30 1977 H 182.633 4.95783 -0.203486 0
M  V30 1978 N 181.806 0.884767 1.30421 0
M  V30 1979 C 182.716 0.355398 2.31892 0
M  V30 1980 C 183.732 -0.542261 1.65335 0
M  V30 1981 O 184.908 -0.435432 1.96637 0
M  V30 1982 C 181.973 -0.421661 3.44126 0
M  V30 1983 C 181.034 0.505727 4.26311 0
M  V30 1984 C 180.267 -0.234343 5.33185 0
M  V30 1985 O 180.49 -1.46045 5.51386 0
M  V30 1986 O 179.424 0.415443 6.00465 0
M  V30 1987 H 183.25 1.19685 2.79122 0
M  V30 1988 H 180.835 0.648596 1.34587 0
M  V30 1989 H 182.717 -0.861641 4.12497 0
M  V30 1990 H 181.392 -1.23942 2.99032 0
M  V30 1991 H 180.299 0.994513 3.60639 0
M  V30 1992 H 181.632 1.28948 4.75009 0
M  V30 1993 N 183.284 -1.43765 0.645699 0
M  V30 1994 C 184.533 -2.01116 0.153412 0
M  V30 1995 C 184.846 -1.51493 -1.23731 0
M  V30 1996 O 186.052 -2.01067 -1.8244 0
M  V30 1997 C 184.508 -3.59206 0.223473 0
M  V30 1998 C 184.116 -4.17823 1.61642 0
M  V30 1999 C 185.86 -4.23972 -0.211597 0
M  V30 2000 C 183.767 -5.68183 1.64081 0
M  V30 2001 H 182.697 -0.752093 0.0535891 0
M  V30 2002 H 185.348 -1.6482 0.806633 0
M  V30 2003 H 183.73 -3.92867 -0.497118 0
M  V30 2004 H 184.904 -3.95674 2.36176 0
M  V30 2005 H 183.219 -3.65399 1.99681 0
M  V30 2006 H 185.816 -5.34275 -0.213112 0
M  V30 2007 H 186.159 -3.97352 -1.24165 0
M  V30 2008 H 186.692 -3.95166 0.456988 0
M  V30 2009 H 183.431 -5.99559 2.64971 0
M  V30 2010 H 182.951 -5.9241 0.938611 0
M  V30 2011 H 184.63 -6.32085 1.3812 0
M  V30 2012 N 184.763 -0.387143 -1.52771 0
M  V30 2013 C 185.673 0.456442 -2.30117 0
M  V30 2014 C 186.689 1.07342 -1.36944 0
M  V30 2015 O 187.865 1.07971 -1.70013 0
M  V30 2016 C 184.93 1.56957 -3.09136 0
M  V30 2017 C 183.991 0.977916 -4.18014 0
M  V30 2018 C 183.224 2.038 -4.93256 0
M  V30 2019 O 183.447 3.25271 -4.68567 0
M  V30 2020 O 182.381 1.6565 -5.78657 0
M  V30 2021 H 186.207 -0.17359 -3.03203 0
M  V30 2022 H 183.792 -0.150919 -1.48636 0
M  V30 2023 H 185.674 2.21628 -3.58412 0
M  V30 2024 H 184.349 2.18461 -2.38865 0
M  V30 2025 H 183.256 0.294525 -3.72939 0
M  V30 2026 H 184.589 0.407128 -4.90513 0
M  V30 2027 N 186.241 1.57166 -0.116904 0
M  V30 2028 C 187.189 2.16457 0.851418 0
M  V30 2029 C 188.183 1.11323 1.27686 0
M  V30 2030 O 189.389 1.2963 1.24884 0
M  V30 2031 H 185.764 0.69271 0.292672 0
M  V30 2032 H 187.735 2.96605 0.32685 0
M  V30 2033 C 186.484 2.77689 2.09246 0
M  V30 2034 H 185.807 3.58285 1.77402 0
M  V30 2035 H 187.247 3.22716 2.7501 0
M  V30 2036 C 185.706 1.74667 2.88085 0
M  V30 2037 O 186.236 1.19877 3.83396 0
M  V30 2038 N 184.442 1.44656 2.52038 0
M  V30 2039 H 183.989 1.89402 1.74599 0
M  V30 2040 H 183.947 0.759675 3.05084 0
M  V30 2041 N 187.719 -0.156864 1.56817 0
M  V30 2042 C 188.667 -1.21319 1.98455 0
M  V30 2043 C 189.661 -1.45025 0.875444 0
M  V30 2044 O 190.867 -1.45435 1.0606 0
M  V30 2045 H 187.242 -0.408142 0.631605 0
M  V30 2046 H 189.213 -0.835244 2.86472 0
M  V30 2047 C 187.962 -2.54148 2.37285 0
M  V30 2048 H 187.285 -2.36733 3.22176 0
M  V30 2049 H 188.725 -3.26712 2.70251 0
M  V30 2050 C 187.184 -3.13967 1.22173 0
M  V30 2051 O 187.714 -3.98357 0.517149 0
M  V30 2052 N 185.92 -2.7327 0.988536 0
M  V30 2053 H 185.467 -2.04744 1.56326 0
M  V30 2054 H 185.425 -3.13628 0.220209 0
M  V30 2055 N 189.197 -1.51736 -0.425897 0
M  V30 2056 C 190.613 -1.40166 -0.76326 0
M  V30 2057 C 190.813 -0.492962 -1.95377 0
M  V30 2058 O 189.869 0.0475815 -2.52455 0
M  V30 2059 C 191.182 -2.82403 -1.03291 0
M  V30 2060 C 192.73 -2.91632 -1.13665 0
M  V30 2061 C 193.205 -4.34801 -1.43916 0
M  V30 2062 N 194.696 -4.3796 -1.50816 0
M  V30 2063 C 195.431 -5.4578 -1.75817 0
M  V30 2064 N 194.927 -6.63744 -1.98534 0
M  V30 2065 N 196.72 -5.33274 -1.77694 0
M  V30 2066 H 188.871 -2.09361 0.358 0
M  V30 2067 H 191.134 -0.942941 0.0978094 0
M  V30 2068 H 190.84 -3.50943 -0.230696 0
M  V30 2069 H 190.714 -3.22428 -1.95754 0
M  V30 2070 H 193.101 -2.23284 -1.92947 0
M  V30 2071 H 193.182 -2.55088 -0.190756 0
M  V30 2072 H 192.826 -5.03703 -0.65157 0
M  V30 2073 H 192.756 -4.68868 -2.39729 0
M  V30 2074 H 195.247 -3.52919 -1.35118 0
M  V30 2075 H 195.56 -7.41704 -2.17013 0
M  V30 2076 H 193.905 -6.66839 -1.95832 0
M  V30 2077 H 197.096 -4.40098 -1.59473 0
M  V30 2078 H 197.269 -6.1738 -1.9684 0
M  V30 2079 N 190.675 0.682077 -1.42076 0
M  V30 2080 C 191.9 1.47558 -1.45744 0
M  V30 2081 C 192.325 1.87977 -0.0680981 0
M  V30 2082 O 191.683 1.55522 0.9318 0
M  V30 2083 C 191.731 2.70575 -2.38373 0
M  V30 2084 O 190.835 3.68573 -1.85007 0
M  V30 2085 H 190.176 0.443585 -0.494093 0
M  V30 2086 H 192.706 0.837238 -1.86686 0
M  V30 2087 H 192.716 3.18729 -2.54707 0
M  V30 2088 H 191.391 2.40495 -3.39315 0
M  V30 2089 H 189.968 3.2757 -1.78192 0
M  V30 2090 N 192.153 1.28127 0.917671 0
M  V30 2091 C 193.378 1.18007 1.70555 0
M  V30 2092 C 193.803 -0.258257 1.86319 0
M  V30 2093 O 193.161 -1.1869 1.37049 0
M  V30 2094 C 193.209 1.87948 3.07746 0
M  V30 2095 O 192.313 1.18427 3.9503 0
M  V30 2096 H 191.654 0.409867 0.522403 0
M  V30 2097 H 194.184 1.69379 1.1477 0
M  V30 2098 H 194.194 1.95701 3.58001 0
M  V30 2099 H 192.869 2.92573 2.95591 0
M  V30 2100 H 191.446 1.18811 3.53466 0
M  V30 2101 N 193.631 -1.12557 1.10312 0
M  V30 2102 C 194.879 -1.83675 0.843091 0
M  V30 2103 C 195.2 -1.84435 -0.633131 0
M  V30 2104 O 194.47 -1.30657 -1.45964 0
M  V30 2105 H 193.05 -0.680138 0.308904 0
M  V30 2106 H 195.712 -1.36301 1.39313 0
M  V30 2107 H 194.808 -2.87908 1.2048 0
M  V30 2108 N 195.109 -0.891671 -1.2995 0
M  V30 2109 C 196.072 -0.36828 -2.26222 0
M  V30 2110 C 197.072 0.493014 -1.53056 0
M  V30 2111 O 198.262 0.299213 -1.71611 0
M  V30 2112 C 195.394 0.47442 -3.37583 0
M  V30 2113 H 196.587 -1.21844 -2.74033 0
M  V30 2114 H 194.14 -0.669107 -1.41254 0
M  V30 2115 H 194.875 1.34489 -2.95099 0
M  V30 2116 H 194.66 -0.142615 -3.91841 0
M  V30 2117 H 196.15 0.83218 -4.09224 0
M  V30 2118 N 196.587 1.43421 -0.653314 0
M  V30 2119 C 197.834 2.01812 -0.166745 0
M  V30 2120 C 198.162 1.51535 1.21931 0
M  V30 2121 O 197.417 0.698975 1.82792 0
M  V30 2122 C 197.716 3.57176 -0.126623 0
M  V30 2123 C 197.382 4.26798 -1.45444 0
M  V30 2124 C 196.044 4.45534 -1.81805 0
M  V30 2125 C 198.396 4.66225 -2.32989 0
M  V30 2126 C 195.724 5.00961 -3.05377 0
M  V30 2127 C 198.076 5.23021 -3.55853 0
M  V30 2128 C 196.74 5.39973 -3.9241 0
M  V30 2129 H 196.01 0.738484 -0.0610162 0
M  V30 2130 H 198.657 1.71896 -0.84404 0
M  V30 2131 H 196.962 3.86634 0.634123 0
M  V30 2132 H 198.659 4.00112 0.266723 0
M  V30 2133 H 195.249 4.12561 -1.16153 0
M  V30 2134 H 199.433 4.51443 -2.06187 0
M  V30 2135 H 194.689 5.12271 -3.3375 0
M  V30 2136 H 198.863 5.52518 -4.23907 0
M  V30 2137 H 196.49 5.82687 -4.88242 0
M  V30 2138 N 198.065 0.39524 1.52563 0
M  V30 2139 C 199.311 -0.177763 2.02622 0
M  V30 2140 C 199.666 -1.43974 1.27629 0
M  V30 2141 O 198.959 -1.87995 0.36992 0
M  V30 2142 C 199.153 -0.493444 3.53977 0
M  V30 2143 C 198.982 0.736392 4.4363 0
M  V30 2144 C 197.752 1.25744 4.89404 0
M  V30 2145 C 199.95 1.61046 4.88435 0
M  V30 2146 N 197.932 2.44421 5.63145 0
M  V30 2147 C 199.303 2.64359 5.60816 0
M  V30 2148 C 201.358 1.62985 4.70468 0
M  V30 2149 C 200.061 3.69505 6.17137 0
M  V30 2150 C 202.087 2.67042 5.27677 0
M  V30 2151 C 201.449 3.69077 5.99968 0
M  V30 2152 H 197.548 -0.0269794 0.781534 0
M  V30 2153 H 200.132 0.546466 1.86874 0
M  V30 2154 H 198.303 -1.18672 3.69826 0
M  V30 2155 H 200.035 -1.05412 3.90731 0
M  V30 2156 H 196.79 0.817546 4.6649 0
M  V30 2157 H 197.214 3.04485 6.04663 0
M  V30 2158 H 201.856 0.854442 4.14076 0
M  V30 2159 H 199.574 4.4791 6.72608 0
M  V30 2160 H 203.16 2.69433 5.15652 0
M  V30 2161 H 202.04 4.48273 6.43444 0
M  V30 2162 N 199.544 -1.57102 0.125237 0
M  V30 2163 C 200.491 -2.15641 -0.822655 0
M  V30 2164 C 201.461 -1.08313 -1.25927 0
M  V30 2165 O 202.646 -1.36251 -1.33567 0
M  V30 2166 C 199.786 -2.76504 -2.06494 0
M  V30 2167 C 198.899 -3.98158 -1.67612 0
M  V30 2168 C 198.034 -4.47088 -2.86854 0
M  V30 2169 C 197.073 -5.6126 -2.44242 0
M  V30 2170 N 196.21 -6.04905 -3.56419 0
M  V30 2171 H 201.05 -2.96313 -0.316625 0
M  V30 2172 H 198.587 -1.46388 -0.144588 0
M  V30 2173 H 200.545 -3.09925 -2.79289 0
M  V30 2174 H 199.175 -1.98512 -2.54545 0
M  V30 2175 H 198.227 -3.70858 -0.846661 0
M  V30 2176 H 199.539 -4.80934 -1.32301 0
M  V30 2177 H 198.693 -4.82451 -3.67867 0
M  V30 2178 H 197.432 -3.63275 -3.25396 0
M  V30 2179 H 196.437 -5.25495 -1.61663 0
M  V30 2180 H 197.662 -6.46843 -2.0681 0
M  V30 2181 H 195.608 -5.24032 -3.94623 0
M  V30 2182 H 195.525 -6.82552 -3.25051 0
M  V30 2183 H 196.793 -6.44907 -4.37853 0
M  V30 2184 N 201.022 0.148545 -1.56898 0
M  V30 2185 C 202.252 0.875118 -1.8715 0
M  V30 2186 C 202.66 1.75322 -0.711262 0
M  V30 2187 O 202.003 1.80745 0.328151 0
M  V30 2188 C 202.065 1.7844 -3.12089 0
M  V30 2189 C 201.729 1.08361 -4.43967 0
M  V30 2190 C 202.726 0.438247 -5.1805 0
M  V30 2191 C 200.411 1.07358 -4.90693 0
M  V30 2192 C 202.405 -0.20779 -6.37061 0
M  V30 2193 C 200.092 0.42373 -6.09629 0
M  V30 2194 C 201.09 -0.215829 -6.82659 0
M  V30 2195 O 200.778 -0.855378 -7.99336 0
M  V30 2196 H 200.51 0.258504 -0.624621 0
M  V30 2197 H 203.064 0.14652 -2.04877 0
M  V30 2198 H 201.294 2.55389 -2.90367 0
M  V30 2199 H 202.983 2.38279 -3.286 0
M  V30 2200 H 203.749 0.437817 -4.8302 0
M  V30 2201 H 199.628 1.5608 -4.33774 0
M  V30 2202 H 203.172 -0.70758 -6.94002 0
M  V30 2203 H 199.069 0.421822 -6.4412 0
M  V30 2204 H 199.837 -0.756892 -8.14993 0
M  V30 2205 N 202.5 1.5196 0.417844 0
M  V30 2206 C 203.73 1.69181 1.18581 0
M  V30 2207 C 204.138 0.397104 1.84986 0
M  V30 2208 O 203.481 -0.636011 1.72339 0
M  V30 2209 C 203.543 2.76497 2.29759 0
M  V30 2210 C 203.207 4.18514 1.83563 0
M  V30 2211 C 204.204 5.02648 1.32821 0
M  V30 2212 C 201.889 4.64708 1.90661 0
M  V30 2213 C 203.883 6.31044 0.897894 0
M  V30 2214 C 201.57 5.93096 1.47241 0
M  V30 2215 C 202.568 6.76093 0.968891 0
M  V30 2216 O 202.256 8.02078 0.540924 0
M  V30 2217 H 201.988 0.570457 0.362705 0
M  V30 2218 H 204.542 1.99249 0.498885 0
M  V30 2219 H 202.772 2.41786 3.01789 0
M  V30 2220 H 204.461 2.82403 2.91553 0
M  V30 2221 H 205.227 4.68154 1.26716 0
M  V30 2222 H 201.106 4.00216 2.28797 0
M  V30 2223 H 204.65 6.95776 0.504192 0
M  V30 2224 H 200.547 6.271 1.53022 0
M  V30 2225 H 201.315 8.15794 0.66502 0
M  V30 2226 N 203.978 -0.674533 1.42435 0
M  V30 2227 C 205.208 -1.46071 1.46105 0
M  V30 2228 C 205.616 -1.89067 0.0709605 0
M  V30 2229 O 204.959 -1.58731 -0.924677 0
M  V30 2230 C 205.021 -2.74145 2.32561 0
M  V30 2231 C 204.685 -2.53224 3.8043 0
M  V30 2232 C 205.682 -2.17809 4.72075 0
M  V30 2233 C 203.367 -2.6821 4.24698 0
M  V30 2234 C 205.361 -1.97648 6.05982 0
M  V30 2235 C 203.048 -2.47665 5.58664 0
M  V30 2236 C 204.046 -2.12437 6.49122 0
M  V30 2237 O 203.734 -1.9209 7.80613 0
M  V30 2238 H 203.466 -0.455959 0.499076 0
M  V30 2239 H 206.02 -0.836193 1.87609 0
M  V30 2240 H 204.25 -3.3908 1.85908 0
M  V30 2241 H 205.939 -3.36028 2.27683 0
M  V30 2242 H 206.705 -2.05826 4.39159 0
M  V30 2243 H 202.584 -2.94609 3.54579 0
M  V30 2244 H 206.128 -1.70075 6.7655 0
M  V30 2245 H 202.025 -2.59244 5.91154 0
M  V30 2246 H 202.793 -2.06686 7.91974 0
M  V30 2247 N 205.456 -1.28612 -0.910864 0
M  V30 2248 C 206.733 -1.06632 -1.63979 0
M  V30 2249 C 207.113 0.393351 -2.07403 0
M  V30 2250 O 206.461 1.37999 -1.82122 0
M  V30 2251 C 206.671 -2.0436 -2.8291 0
M  V30 2252 C 208.019 -2.34666 -3.5386 0
M  V30 2253 O 209.043 -2.02467 -2.93062 0
M  V30 2254 O 207.902 -2.89631 -4.63439 0
M  V30 2255 H 204.996 -0.407737 -0.7195 0
M  V30 2256 H 207.542 -1.39942 -0.959914 0
M  V30 2257 H 206.314 -3.02727 -2.47936 0
M  V30 2258 H 205.937 -1.71714 -3.58609 0
M  V30 2259 N 206.934 1.1197 -1.10907 0
M  V30 2260 C 208.182 1.83225 -0.852819 0
M  V30 2261 C 208.503 1.84769 0.623341 0
M  V30 2262 O 207.773 1.3143 1.45269 0
M  V30 2263 H 206.353 0.67849 -0.312507 0
M  V30 2264 H 209.015 1.3556 -1.40033 0
M  V30 2265 H 208.111 2.87265 -1.22005 0
M  V30 2266 N 208.412 0.89855 1.29475 0
M  V30 2267 C 209.359 0.373819 2.27753 0
M  V30 2268 C 210.329 -0.543444 1.56958 0
M  V30 2269 O 211.514 -0.468934 1.84948 0
M  V30 2270 C 208.654 -0.393648 3.42848 0
M  V30 2271 C 207.767 0.554379 4.28428 0
M  V30 2272 C 206.902 -0.230026 5.30702 0
M  V30 2273 C 205.941 0.712599 6.07938 0
M  V30 2274 N 205.078 -0.0373283 7.0209 0
M  V30 2275 H 209.918 1.21699 2.72017 0
M  V30 2276 H 207.455 0.611456 1.33789 0
M  V30 2277 H 209.413 -0.85466 4.08352 0
M  V30 2278 H 208.043 -1.20128 2.99615 0
M  V30 2279 H 207.095 1.13391 3.63107 0
M  V30 2280 H 208.407 1.27597 4.82204 0
M  V30 2281 H 207.561 -0.752288 6.02018 0
M  V30 2282 H 206.3 -0.984758 4.77654 0
M  V30 2283 H 205.305 1.24637 5.35486 0
M  V30 2284 H 206.53 1.46664 6.63074 0
M  V30 2285 H 204.476 -0.774348 6.51414 0
M  V30 2286 H 204.393 0.624374 7.53417 0
M  V30 2287 H 205.661 -0.539891 7.77628 0
M  V30 2288 N 209.89 -1.43072 0.660911 0
M  V30 2289 C 211.167 -1.95307 0.107017 0
M  V30 2290 C 211.547 -1.60192 -1.37484 0
M  V30 2291 O 210.895 -0.890949 -2.10415 0
M  V30 2292 C 211.105 -3.47124 0.361402 0
M  V30 2293 C 212.453 -4.23738 0.270455 0
M  V30 2294 O 213.477 -3.54981 0.294382 0
M  V30 2295 O 212.336 -5.46131 0.200737 0
M  V30 2296 H 209.43 -0.826984 -0.00517729 0
M  V30 2297 H 211.976 -1.52972 0.734681 0
M  V30 2298 H 210.748 -3.65837 1.38848 0
M  V30 2299 H 210.371 -3.96475 -0.298953 0
M  V30 2300 N 211.368 -0.403325 -1.52352 0
M  V30 2301 C 212.598 0.17376 -2.05868 0
M  V30 2302 C 213.006 1.39898 -1.27378 0
M  V30 2303 O 212.349 1.80939 -0.31729 0
M  V30 2304 C 212.411 0.594756 -3.54546 0
M  V30 2305 C 212.075 -0.518926 -4.54044 0
M  V30 2306 C 213.072 -1.3807 -5.01231 0
M  V30 2307 C 210.757 -0.689961 -4.97539 0
M  V30 2308 C 212.751 -2.39852 -5.90551 0
M  V30 2309 C 210.438 -1.71109 -5.86656 0
M  V30 2310 C 211.436 -2.56378 -6.33056 0
M  V30 2311 O 211.124 -3.56743 -7.20409 0
M  V30 2312 H 210.856 0.0264951 -0.675481 0
M  V30 2313 H 213.41 -0.571179 -1.97299 0
M  V30 2314 H 211.64 1.39189 -3.60782 0
M  V30 2315 H 213.329 1.0991 -3.90736 0
M  V30 2316 H 214.095 -1.25994 -4.68349 0
M  V30 2317 H 209.974 -0.035939 -4.60986 0
M  V30 2318 H 213.518 -3.06441 -6.26689 0
M  V30 2319 H 209.415 -1.83218 -6.18952 0
M  V30 2320 H 210.183 -3.52918 -7.38506 0
M  V30 2321 N 212.846 1.57033 -0.133567 0
M  V30 2322 C 214.095 1.94861 0.520768 0
M  V30 2323 C 214.408 1.02012 1.66892 0
M  V30 2324 O 215.614 1.29365 2.38699 0
M  V30 2325 C 214.07 3.46362 0.977809 0
M  V30 2326 C 213.678 4.47773 -0.142674 0
M  V30 2327 C 215.422 3.93083 1.60269 0
M  V30 2328 C 213.329 5.90468 0.331883 0
M  V30 2329 H 212.259 0.727453 0.198315 0
M  V30 2330 H 214.91 1.82227 -0.215759 0
M  V30 2331 H 213.292 3.54282 1.7692 0
M  V30 2332 H 214.466 4.51536 -0.919317 0
M  V30 2333 H 212.781 4.10891 -0.675124 0
M  V30 2334 H 215.378 4.97121 1.96914 0
M  V30 2335 H 215.721 3.33876 2.48662 0
M  V30 2336 H 216.254 3.88025 0.876453 0
M  V30 2337 H 212.993 6.53463 -0.516341 0
M  V30 2338 H 212.513 5.90094 1.07469 0
M  V30 2339 H 214.192 6.42179 0.788332 0
M  V30 2340 N 214.325 -0.140222 1.56975 0
M  V30 2341 C 215.235 -1.19223 2.02047 0
M  V30 2342 C 216.251 -1.46612 0.937062 0
M  V30 2343 O 217.427 -1.58148 1.24704 0
M  V30 2344 C 214.492 -2.50414 2.39778 0
M  V30 2345 C 213.553 -2.30612 3.621 0
M  V30 2346 C 212.786 -3.55547 3.98023 0
M  V30 2347 O 213.009 -4.62004 3.34528 0
M  V30 2348 O 211.943 -3.47808 4.91237 0
M  V30 2349 H 215.769 -0.839559 2.91865 0
M  V30 2350 H 213.354 -0.349453 1.45256 0
M  V30 2351 H 215.236 -3.27747 2.64877 0
M  V30 2352 H 213.911 -2.85198 1.53114 0
M  V30 2353 H 212.818 -1.51207 3.4218 0
M  V30 2354 H 214.151 -2.00741 4.49404 0
M  V30 2355 N 215.803 -1.52179 -0.40978 0
M  V30 2356 C 217.05 -1.66206 -1.15679 0
M  V30 2357 C 217.378 -0.391674 -1.90516 0
M  V30 2358 O 216.633 0.62533 -1.8544 0
M  V30 2359 C 216.932 -2.83428 -2.17723 0
M  V30 2360 C 216.598 -4.21672 -1.59699 0
M  V30 2361 C 215.26 -4.59274 -1.43599 0
M  V30 2362 C 217.612 -5.07825 -1.17317 0
M  V30 2363 C 214.94 -5.80709 -0.836328 0
M  V30 2364 C 217.292 -6.29864 -0.587691 0
M  V30 2365 C 215.956 -6.66216 -0.413818 0
M  V30 2366 H 215.226 -0.608192 -0.423301 0
M  V30 2367 H 217.873 -1.86279 -0.444097 0
M  V30 2368 H 216.178 -2.57687 -2.95135 0
M  V30 2369 H 217.875 -2.91477 -2.75394 0
M  V30 2370 H 214.465 -3.9204 -1.73213 0
M  V30 2371 H 218.649 -4.79359 -1.28565 0
M  V30 2372 H 213.905 -6.07498 -0.689626 0
M  V30 2373 H 218.079 -6.95948 -0.250894 0
M  V30 2374 H 215.706 -7.60182 0.0529471 0
M  V30 2375 N 217.281 0.66697 -1.42791 0
M  V30 2376 C 218.229 1.80157 -1.47127 0
M  V30 2377 C 219.223 1.65825 -0.346199 0
M  V30 2378 O 220.429 1.72338 -0.519572 0
M  V30 2379 H 216.804 0.594158 -0.460956 0
M  V30 2380 H 218.775 1.73619 -2.42692 0
M  V30 2381 C 217.524 3.18351 -1.39813 0
M  V30 2382 H 216.847 3.3001 -2.25684 0
M  V30 2383 H 218.287 3.97736 -1.46908 0
M  V30 2384 C 216.746 3.36707 -0.11391 0
M  V30 2385 O 217.276 3.93027 0.830241 0
M  V30 2386 N 215.482 2.90586 -0.0285295 0
M  V30 2387 H 215.029 2.4494 -0.79764 0
M  V30 2388 H 214.987 3.03245 0.830063 0
M  V30 2389 N 218.759 1.29093 0.90403 0
M  V30 2390 C 219.706 1.13853 2.00764 0
M  V30 2391 C 220.676 0.0330084 1.66067 0
M  V30 2392 O 221.861 0.199733 1.89752 0
M  V30 2393 C 219.001 0.816537 3.35301 0
M  V30 2394 C 218.114 2.00206 3.82807 0
M  V30 2395 C 217.249 1.61983 5.059 0
M  V30 2396 C 216.288 2.77143 5.45764 0
M  V30 2397 N 215.425 2.39346 6.60044 0
M  V30 2398 H 220.265 2.08276 2.13132 0
M  V30 2399 H 217.802 1.03648 1.04381 0
M  V30 2400 H 219.76 0.610557 4.12708 0
M  V30 2401 H 218.39 -0.090779 3.22672 0
M  V30 2402 H 217.442 2.31988 3.01473 0
M  V30 2403 H 218.754 2.86512 4.08304 0
M  V30 2404 H 217.908 1.37649 5.90879 0
M  V30 2405 H 216.647 0.728202 4.82233 0
M  V30 2406 H 215.652 3.02165 4.59322 0
M  V30 2407 H 216.877 3.66964 5.71414 0
M  V30 2408 H 214.823 1.52665 6.37989 0
M  V30 2409 H 214.74 3.19185 6.85315 0
M  V30 2410 H 216.008 2.1832 7.48303 0
M  V30 2411 N 220.237 -1.11381 1.11499 0
M  V30 2412 C 221.147 -2.21019 0.786628 0
M  V30 2413 C 222.163 -1.72597 -0.220507 0
M  V30 2414 O 223.339 -2.01321 -0.0565251 0
M  V30 2415 C 220.404 -3.459 0.235333 0
M  V30 2416 C 219.465 -4.09107 1.30115 0
M  V30 2417 C 218.698 -5.28027 0.776068 0
M  V30 2418 O 218.921 -5.6904 -0.393661 0
M  V30 2419 O 217.855 -5.81835 1.54114 0
M  V30 2420 H 221.681 -2.51521 1.70209 0
M  V30 2421 H 219.266 -1.19928 0.890928 0
M  V30 2422 H 221.148 -4.21346 -0.067715 0
M  V30 2423 H 219.823 -3.17049 -0.652828 0
M  V30 2424 H 218.73 -3.35391 1.65722 0
M  V30 2425 H 220.063 -4.42139 2.16273 0
M  V30 2426 N 221.715 -0.905404 -1.28997 0
M  V30 2427 C 222.964 -0.530191 -1.94607 0
M  V30 2428 C 223.277 0.929185 -1.72121 0
M  V30 2429 O 224.483 1.41218 -2.31883 0
M  V30 2430 C 222.939 -0.897333 -3.48534 0
M  V30 2431 C 222.547 -2.37587 -3.79811 0
M  V30 2432 C 224.291 -0.592304 -4.20347 0
M  V30 2433 C 222.198 -2.68357 -5.27009 0
M  V30 2434 H 221.128 -0.194558 -0.728466 0
M  V30 2435 H 223.779 -1.10318 -1.46636 0
M  V30 2436 H 222.161 -0.253214 -3.9519 0
M  V30 2437 H 223.335 -3.06602 -3.43994 0
M  V30 2438 H 221.65 -2.6505 -3.2115 0
M  V30 2439 H 224.247 -0.798975 -5.28697 0
M  V30 2440 H 224.59 0.469474 -4.13644 0
M  V30 2441 H 225.123 -1.19452 -3.79442 0
M  V30 2442 H 221.862 -3.73355 -5.38782 0
M  V30 2443 H 221.382 -2.03971 -5.64053 0
M  V30 2444 H 223.061 -2.54922 -5.94663 0
M  V30 2445 N 223.193 1.4272 -0.668489 0
M  V30 2446 C 224.604 1.84793 -0.266151 0
M  V30 2447 C 224.955 1.55959 1.19043 0
M  V30 2448 O 224.08 1.01622 1.91055 0
M  V30 2449 C 224.675 3.35436 -0.476271 0
M  V30 2450 C 223.234 3.76182 -0.128113 0
M  V30 2451 C 222.381 2.66344 -0.771777 0
M  V30 2452 H 225.332 1.32656 -0.871098 0
M  V30 2453 H 225.353 3.79515 0.273561 0
M  V30 2454 H 224.865 3.5639 -1.53647 0
M  V30 2455 H 222.966 3.60836 0.928891 0
M  V30 2456 H 223.079 4.75766 -0.564231 0
M  V30 2457 H 221.443 2.53885 -0.203652 0
M  V30 2458 H 222.226 2.90123 -1.83531 0
M  V30 2459 N 224.671 0.411399 1.52136 0
M  V30 2460 C 225.634 -0.401089 2.25663 0
M  V30 2461 C 226.634 -0.971732 1.28117 0
M  V30 2462 O 227.824 -0.850254 1.52041 0
M  V30 2463 C 224.956 -1.56483 3.02863 0
M  V30 2464 H 226.149 0.24295 2.98914 0
M  V30 2465 H 223.702 0.163968 1.55438 0
M  V30 2466 H 224.437 -2.24567 2.33967 0
M  V30 2467 H 224.222 -1.16211 3.74483 0
M  V30 2468 H 225.712 -2.13951 3.58629 0
M  V30 2469 N 226.149 -1.5696 0.141893 0
M  V30 2470 C 227.395 -1.97034 -0.504884 0
M  V30 2471 C 227.75 -1.02518 -1.62812 0
M  V30 2472 O 227.043 -0.0592943 -1.91508 0
M  V30 2473 C 227.237 -3.41242 -1.06249 0
M  V30 2474 C 227.066 -4.497 0.00519653 0
M  V30 2475 C 225.836 -5.03338 0.444873 0
M  V30 2476 C 228.034 -5.08122 0.794767 0
M  V30 2477 N 226.016 -5.95395 1.49593 0
M  V30 2478 C 227.387 -5.96339 1.69645 0
M  V30 2479 C 229.442 -4.9071 0.843122 0
M  V30 2480 C 228.145 -6.69009 2.64233 0
M  V30 2481 C 230.171 -5.64077 1.77681 0
M  V30 2482 C 229.533 -6.51999 2.66603 0
M  V30 2483 H 225.632 -0.766745 -0.153707 0
M  V30 2484 H 228.216 -1.93273 0.235313 0
M  V30 2485 H 226.387 -3.45606 -1.77231 0
M  V30 2486 H 228.119 -3.68389 -1.67546 0
M  V30 2487 H 224.874 -4.73576 0.0480959 0
M  V30 2488 H 225.298 -6.46128 2.02107 0
M  V30 2489 H 229.94 -4.22459 0.169732 0
M  V30 2490 H 227.658 -7.36492 3.32575 0
M  V30 2491 H 231.244 -5.52602 1.81996 0
M  V30 2492 H 230.124 -7.07775 3.37675 0
M  V30 2493 N 227.627 0.131896 -1.57047 0
M  V30 2494 C 228.873 0.843179 -1.84441 0
M  V30 2495 C 229.206 1.80129 -0.725749 0
M  V30 2496 O 228.481 1.92624 0.269469 0
M  V30 2497 C 228.764 1.60442 -3.22382 0
M  V30 2498 C 228.617 0.666782 -4.4483 0
M  V30 2499 C 229.936 2.56354 -3.5773 0
M  V30 2500 H 227.055 0.305081 -0.670891 0
M  V30 2501 H 229.697 0.107839 -1.89694 0
M  V30 2502 H 227.847 2.23128 -3.18035 0
M  V30 2503 H 229.519 0.0497646 -4.61273 0
M  V30 2504 H 227.762 -0.022609 -4.33794 0
M  V30 2505 H 228.433 1.23579 -5.37989 0
M  V30 2506 H 230.909 2.0378 -3.62785 0
M  V30 2507 H 229.785 3.06657 -4.5525 0
M  V30 2508 H 230.046 3.38419 -2.84473 0
M  V30 2509 N 229.106 1.52395 0.401703 0
M  V30 2510 C 230.517 1.58899 0.980202 0
M  V30 2511 C 230.868 0.434032 1.91339 0
M  V30 2512 O 229.993 -0.444619 2.11783 0
M  V30 2513 C 230.588 2.87994 1.78451 0
M  V30 2514 C 229.147 2.96953 2.31292 0
M  V30 2515 C 228.294 2.53903 1.11483 0
M  V30 2516 H 231.245 1.57657 0.18168 0
M  V30 2517 H 231.266 2.73765 2.64259 0
M  V30 2518 H 230.778 3.72035 1.10506 0
M  V30 2519 H 228.879 2.17422 3.02586 0
M  V30 2520 H 228.992 4.01344 2.61649 0
M  V30 2521 H 227.356 2.07925 1.47104 0
M  V30 2522 H 228.139 3.40326 0.450928 0
M  V30 2523 N 230.584 -0.659388 1.43143 0
M  V30 2524 C 231.831 -1.41935 1.44433 0
M  V30 2525 C 232.159 -1.94387 0.0663522 0
M  V30 2526 O 231.414 -1.72314 -0.927706 0
M  V30 2527 C 231.713 -2.62206 2.42864 0
M  V30 2528 C 231.379 -2.28208 3.88886 0
M  V30 2529 C 230.041 -2.18647 4.28657 0
M  V30 2530 C 232.393 -2.00887 4.8093 0
M  V30 2531 C 229.721 -1.79914 5.58433 0
M  V30 2532 C 232.073 -1.63653 6.11065 0
M  V30 2533 C 230.737 -1.52614 6.49819 0
M  V30 2534 H 230.007 -0.519376 0.528517 0
M  V30 2535 H 232.654 -0.750453 1.76183 0
M  V30 2536 H 230.959 -3.34199 2.04495 0
M  V30 2537 H 232.656 -3.2041 2.41119 0
M  V30 2538 H 229.246 -2.36557 3.57406 0
M  V30 2539 H 233.43 -2.07198 4.5098 0
M  V30 2540 H 228.686 -1.69948 5.87305 0
M  V30 2541 H 232.86 -1.41543 6.81864 0
M  V30 2542 H 230.487 -1.22371 7.50286 0
M  V30 2543 N 232.062 -1.29571 -0.897171 0
M  V30 2544 C 233.339 -1.08365 -1.62839 0
M  V30 2545 C 233.719 0.371331 -2.07808 0
M  V30 2546 O 233.067 1.3606 -1.83576 0
M  V30 2547 C 233.277 -2.0735 -2.80726 0
M  V30 2548 C 234.625 -2.38406 -3.51351 0
M  V30 2549 O 235.649 -2.05564 -2.90898 0
M  V30 2550 O 234.508 -2.9453 -4.60341 0
M  V30 2551 H 231.602 -0.415345 -0.715134 0
M  V30 2552 H 234.148 -1.40952 -0.945018 0
M  V30 2553 H 232.92 -3.05339 -2.44711 0
M  V30 2554 H 232.543 -1.75507 -3.56767 0
M  V30 2555 N 233.54 1.10788 -1.12088 0
M  V30 2556 C 234.951 1.64181 -0.88891 0
M  V30 2557 C 235.302 1.87508 0.577498 0
M  V30 2558 O 234.427 1.61434 1.44112 0
M  V30 2559 C 235.022 2.98257 -1.60712 0
M  V30 2560 C 233.581 3.4853 -1.42139 0
M  V30 2561 C 232.728 2.23208 -1.6454 0
M  V30 2562 H 235.679 0.943368 -1.27618 0
M  V30 2563 H 235.7 3.65552 -1.05604 0
M  V30 2564 H 235.212 2.81246 -2.67436 0
M  V30 2565 H 233.313 3.70692 -0.376552 0
M  V30 2566 H 233.426 4.26882 -2.17505 0
M  V30 2567 H 231.79 2.31169 -1.06925 0
M  V30 2568 H 232.573 2.08733 -2.72554 0
M  V30 2569 N 235.018 0.912232 1.28515 0
M  V30 2570 C 235.981 0.404223 2.25607 0
M  V30 2571 C 236.981 -0.468602 1.53821 0
M  V30 2572 O 238.171 -0.271873 1.72065 0
M  V30 2573 C 235.303 -0.420653 3.38295 0
M  V30 2574 H 236.496 1.26188 2.7206 0
M  V30 2575 H 234.049 0.691495 1.40171 0
M  V30 2576 H 234.784 -1.29777 2.97201 0
M  V30 2577 H 234.569 0.204935 3.91564 0
M  V30 2578 H 236.059 -0.766971 4.10496 0
M  V30 2579 N 236.496 -1.42363 0.676048 0
M  V30 2580 C 237.459 -2.29199 0.00766941 0
M  V30 2581 C 238.459 -1.43389 -0.727745 0
M  V30 2582 O 239.649 -1.64764 -0.56556 0
M  V30 2583 C 236.781 -3.2591 -0.999785 0
M  V30 2584 H 237.974 -2.89794 0.771988 0
M  V30 2585 H 235.527 -1.50024 0.438468 0
M  V30 2586 H 236.262 -2.70256 -1.79255 0
M  V30 2587 H 236.047 -3.89202 -0.475829 0
M  V30 2588 H 237.537 -3.91028 -1.46583 0
M  V30 2589 N 237.974 -0.419461 -1.51915 0
M  V30 2590 C 238.906 0.43646 -2.25006 0
M  V30 2591 C 239.919 1.00149 -1.28351 0
M  V30 2592 O 241.108 0.898674 -1.54227 0
M  V30 2593 C 238.208 1.6206 -2.9764 0
M  V30 2594 C 237.381 1.17763 -4.21249 0
M  V30 2595 C 236.44 2.22985 -4.76617 0
M  V30 2596 O 235.466 1.83151 -5.38929 0
M  V30 2597 N 236.668 3.55271 -4.59089 0
M  V30 2598 H 239.433 -0.18989 -2.99098 0
M  V30 2599 H 236.994 -0.247386 -1.59999 0
M  V30 2600 H 238.986 2.32038 -3.31573 0
M  V30 2601 H 237.556 2.15266 -2.2667 0
M  V30 2602 H 236.776 0.305582 -3.93014 0
M  V30 2603 H 238.064 0.858781 -5.015 0
M  V30 2604 H 237.462 3.90377 -4.09417 0
M  V30 2605 H 236.019 4.21195 -4.97432 0
M  V30 2606 N 239.452 1.56882 -0.150215 0
M  V30 2607 C 240.701 1.95403 0.500071 0
M  V30 2608 C 241.014 1.03777 1.658 0
M  V30 2609 O 242.22 1.31889 2.37313 0
M  V30 2610 C 240.676 3.4738 0.941018 0
M  V30 2611 C 240.284 4.47596 -0.190158 0
M  V30 2612 C 242.028 3.9476 1.56091 0
M  V30 2613 C 239.935 5.90787 0.269237 0
M  V30 2614 H 238.865 0.729515 0.190588 0
M  V30 2615 H 241.516 1.81988 -0.235074 0
M  V30 2616 H 239.898 3.56138 1.73152 0
M  V30 2617 H 241.072 4.50536 -0.967157 0
M  V30 2618 H 239.387 4.10151 -0.718666 0
M  V30 2619 H 241.984 4.99181 1.9163 0
M  V30 2620 H 242.327 3.36494 2.45107 0
M  V30 2621 H 242.86 3.88932 0.835249 0
M  V30 2622 H 239.599 6.52879 -0.585621 0
M  V30 2623 H 239.119 5.912 1.01204 0
M  V30 2624 H 240.798 6.42979 0.720176 0
M  V30 2625 N 240.93 -0.123565 1.57115 0
M  V30 2626 C 242.158 -0.846461 1.88793 0
M  V30 2627 C 242.573 -1.73652 0.740976 0
M  V30 2628 O 241.93 -1.80207 -0.288393 0
M  V30 2629 C 241.981 -1.6837 3.19897 0
M  V30 2630 O 241.702 -0.829477 4.30176 0
M  V30 2631 C 243.203 -2.51214 3.65248 0
M  V30 2632 H 240.423 -0.243573 0.625231 0
M  V30 2633 H 242.967 -0.109324 2.04208 0
M  V30 2634 H 241.122 -2.37364 3.06165 0
M  V30 2635 H 241.536 -1.40651 5.0529 0
M  V30 2636 H 243.01 -3.05497 4.59756 0
M  V30 2637 H 243.487 -3.28359 2.9168 0
M  V30 2638 H 244.093 -1.8747 3.81752 0
M  V30 2639 N 242.408 -1.52605 -0.393616 0
M  V30 2640 C 243.355 -1.77055 -1.48054 0
M  V30 2641 C 244.325 -0.61358 -1.54352 0
M  V30 2642 O 245.51 -0.852806 -1.70681 0
M  V30 2643 C 242.65 -1.94108 -2.85335 0
M  V30 2644 C 241.763 -3.21792 -2.88226 0
M  V30 2645 C 240.898 -3.29188 -4.16904 0
M  V30 2646 C 239.937 -4.51013 -4.13828 0
M  V30 2647 N 239.074 -4.55716 -5.34105 0
M  V30 2648 H 243.914 -2.69815 -1.26506 0
M  V30 2649 H 241.451 -1.33683 -0.61379 0
M  V30 2650 H 243.409 -2.01979 -3.65049 0
M  V30 2651 H 242.039 -1.04713 -3.05344 0
M  V30 2652 H 241.091 -3.23015 -2.00911 0
M  V30 2653 H 242.403 -4.11557 -2.8182 0
M  V30 2654 H 241.557 -3.36216 -5.05018 0
M  V30 2655 H 240.296 -2.37389 -4.26026 0
M  V30 2656 H 239.301 -4.44115 -3.24102 0
M  V30 2657 H 240.526 -5.44123 -4.06333 0
M  V30 2658 H 238.472 -3.66807 -5.43865 0
M  V30 2659 H 238.389 -5.39346 -5.29756 0
M  V30 2660 H 239.657 -4.66993 -6.2413 0
M  V30 2661 N 243.887 0.651787 -1.4349 0
M  V30 2662 C 244.819 1.77725 -1.44729 0
M  V30 2663 C 245.832 1.59141 -0.343231 0
M  V30 2664 O 247.021 1.67835 -0.607751 0
M  V30 2665 C 244.121 3.15172 -1.24579 0
M  V30 2666 C 243.294 3.60402 -2.47849 0
M  V30 2667 C 242.353 4.76656 -2.22902 0
M  V30 2668 O 241.379 4.86022 -2.96263 0
M  V30 2669 N 242.581 5.66958 -1.24656 0
M  V30 2670 H 245.346 1.77141 -2.41746 0
M  V30 2671 H 242.907 0.835678 -1.38665 0
M  V30 2672 H 244.899 3.90634 -1.0577 0
M  V30 2673 H 243.469 3.1052 -0.360015 0
M  V30 2674 H 242.689 2.75369 -2.82073 0
M  V30 2675 H 243.977 3.87368 -3.29884 0
M  V30 2676 H 243.375 5.62065 -0.640265 0
M  V30 2677 H 241.932 6.42135 -1.1183 0
M  V30 2678 N 245.365 1.30045 0.890287 0
M  V30 2679 C 246.312 1.15976 1.99545 0
M  V30 2680 C 247.282 0.0506202 1.66023 0
M  V30 2681 O 248.467 0.219847 1.89529 0
M  V30 2682 C 245.607 0.852054 3.34416 0
M  V30 2683 C 244.72 2.04255 3.80662 0
M  V30 2684 C 243.855 1.6734 5.04154 0
M  V30 2685 C 242.894 2.82916 5.42794 0
M  V30 2686 N 242.031 2.46333 6.57468 0
M  V30 2687 H 246.871 2.10524 2.10911 0
M  V30 2688 H 244.408 1.04749 1.03276 0
M  V30 2689 H 246.366 0.654296 4.12037 0
M  V30 2690 H 244.996 -0.0565502 3.2275 0
M  V30 2691 H 244.048 2.35172 2.98995 0
M  V30 2692 H 245.36 2.90826 4.05242 0
M  V30 2693 H 244.514 1.43908 5.89386 0
M  V30 2694 H 243.253 0.779308 4.81433 0
M  V30 2695 H 242.258 3.0702 4.56091 0
M  V30 2696 H 243.483 3.73004 5.6749 0
M  V30 2697 H 241.429 1.59423 6.36334 0
M  V30 2698 H 241.346 3.26436 6.81891 0
M  V30 2699 H 242.614 2.26244 7.45945 0
M  V30 2700 N 246.843 -1.10192 1.12674 0
M  V30 2701 C 248.089 -1.82658 0.894847 0
M  V30 2702 C 248.444 -1.83666 -0.573107 0
M  V30 2703 O 247.737 -1.28816 -1.41835 0
M  V30 2704 C 247.931 -3.28552 1.4067 0
M  V30 2705 C 247.76 -3.41756 2.92289 0
M  V30 2706 C 246.53 -3.54021 3.60551 0
M  V30 2707 C 248.728 -3.34949 3.90274 0
M  V30 2708 N 246.71 -3.55827 5.0026 0
M  V30 2709 C 248.081 -3.43531 5.16127 0
M  V30 2710 C 250.136 -3.18565 3.8265 0
M  V30 2711 C 248.839 -3.37416 6.3525 0
M  V30 2712 C 250.865 -3.13772 5.01299 0
M  V30 2713 C 250.227 -3.22938 6.26012 0
M  V30 2714 H 246.326 -0.683044 0.380756 0
M  V30 2715 H 248.91 -1.31752 1.43351 0
M  V30 2716 H 247.081 -3.77946 0.895055 0
M  V30 2717 H 248.813 -3.88991 1.11661 0
M  V30 2718 H 245.568 -3.57135 3.1105 0
M  V30 2719 H 245.992 -3.60335 5.73138 0
M  V30 2720 H 250.634 -3.10354 2.87124 0
M  V30 2721 H 248.352 -3.44391 7.3104 0
M  V30 2722 H 251.938 -3.02242 4.97133 0
M  V30 2723 H 250.818 -3.19235 7.16281 0
M  V30 2724 N 248.321 -0.919034 -1.28029 0
M  V30 2725 C 249.231 -0.416756 -2.30869 0
M  V30 2726 C 250.247 0.498235 -1.66714 0
M  V30 2727 O 251.423 0.383144 -1.97722 0
M  V30 2728 C 248.488 0.330274 -3.45123 0
M  V30 2729 C 247.549 -0.618578 -4.2482 0
M  V30 2730 C 246.782 0.0928959 -5.33619 0
M  V30 2731 O 247.005 1.31375 -5.55065 0
M  V30 2732 O 245.939 -0.574499 -5.99152 0
M  V30 2733 H 249.765 -1.27043 -2.75851 0
M  V30 2734 H 247.35 -0.684052 -1.3282 0
M  V30 2735 H 249.232 0.751972 -4.14636 0
M  V30 2736 H 247.907 1.1597 -3.02213 0
M  V30 2737 H 246.814 -1.08978 -3.57875 0
M  V30 2738 H 248.147 -1.41497 -4.71423 0
M  V30 2739 N 249.799 1.42003 -0.683588 0
M  V30 2740 C 250.762 2.29191 -0.0198243 0
M  V30 2741 C 251.762 1.43773 0.72013 0
M  V30 2742 O 252.952 1.65061 0.556815 0
M  V30 2743 C 250.084 3.26435 0.982487 0
M  V30 2744 H 251.277 2.8938 -0.787345 0
M  V30 2745 H 248.83 1.49789 -0.446418 0
M  V30 2746 H 249.565 2.71203 1.77819 0
M  V30 2747 H 249.35 3.89449 0.455182 0
M  V30 2748 H 250.84 3.918 1.44508 0
M  V30 2749 N 251.277 0.427512 1.51691 0
M  V30 2750 C 252.187 -0.39527 2.31246 0
M  V30 2751 C 253.203 -1.03674 1.39742 0
M  V30 2752 O 254.379 -1.03425 1.72816 0
M  V30 2753 C 251.444 -1.48706 3.13189 0
M  V30 2754 C 250.505 -0.866743 4.20459 0
M  V30 2755 C 249.738 -1.90651 4.98486 0
M  V30 2756 O 249.961 -3.12733 4.77026 0
M  V30 2757 O 248.895 -1.5025 5.82845 0
M  V30 2758 H 252.721 0.253918 3.02637 0
M  V30 2759 H 250.306 0.190274 1.48183 0
M  V30 2760 H 252.188 -2.12047 3.64162 0
M  V30 2761 H 250.863 -2.12051 2.44573 0
M  V30 2762 H 249.77 -0.195544 3.73589 0
M  V30 2763 H 251.103 -0.276934 4.9142 0
M  V30 2764 N 252.755 -1.56801 0.158532 0
M  V30 2765 C 254.166 -1.83189 -0.360366 0
M  V30 2766 C 254.517 -1.07778 -1.63946 0
M  V30 2767 O 253.642 -0.326718 -2.13919 0
M  V30 2768 C 254.237 -3.32297 -0.660595 0
M  V30 2769 C 252.796 -3.59227 -1.12398 0
M  V30 2770 C 251.943 -2.76877 -0.153097 0
M  V30 2771 H 254.894 -1.54008 0.383031 0
M  V30 2772 H 254.915 -3.4908 -1.51405 0
M  V30 2773 H 254.427 -3.87156 0.270527 0
M  V30 2774 H 252.528 -3.09766 -2.07064 0
M  V30 2775 H 252.641 -4.67632 -1.04197 0
M  V30 2776 H 251.005 -2.46319 -0.647983 0
M  V30 2777 H 251.788 -3.34511 0.77182 0
M  V30 2778 N 254.233 0.115231 -1.57178 0
M  V30 2779 C 255.479 0.82357 -1.85325 0
M  V30 2780 C 255.812 1.79349 -0.744814 0
M  V30 2781 O 255.087 1.92899 0.249024 0
M  V30 2782 C 255.37 1.57014 -3.24066 0
M  V30 2783 C 255.223 0.619565 -4.45513 0
M  V30 2784 C 256.542 2.52545 -3.60429 0
M  V30 2785 H 253.661 0.297948 -0.674089 0
M  V30 2786 H 256.303 0.0877138 -1.89797 0
M  V30 2787 H 254.453 2.19742 -3.20383 0
M  V30 2788 H 256.125 0.000837639 -4.613 0
M  V30 2789 H 254.368 -0.0686174 -4.33746 0
M  V30 2790 H 255.039 1.17866 -5.3927 0
M  V30 2791 H 257.515 1.9992 -3.64926 0
M  V30 2792 H 256.391 3.01811 -4.58477 0
M  V30 2793 H 256.652 3.35383 -2.88047 0
M  V30 2794 N 255.711 1.52812 0.385517 0
M  V30 2795 C 256.941 1.71658 1.14966 0
M  V30 2796 C 257.349 0.436253 1.84102 0
M  V30 2797 O 256.692 -0.599313 1.73649 0
M  V30 2798 C 256.754 2.81309 2.23843 0
M  V30 2799 C 256.418 4.22313 1.74644 0
M  V30 2800 C 257.415 5.05352 1.22129 0
M  V30 2801 C 255.1 4.68648 1.80761 0
M  V30 2802 C 257.094 6.32807 0.763838 0
M  V30 2803 C 254.781 5.96086 1.34627 0
M  V30 2804 C 255.779 6.77996 0.825264 0
M  V30 2805 O 255.467 8.03045 0.370669 0
M  V30 2806 H 255.199 0.578022 0.350523 0
M  V30 2807 H 257.753 2.00263 0.456509 0
M  V30 2808 H 255.983 2.48133 2.96592 0
M  V30 2809 H 257.672 2.88524 2.85497 0
M  V30 2810 H 258.438 4.70736 1.16758 0
M  V30 2811 H 254.317 4.04979 2.20256 0
M  V30 2812 H 257.861 6.96689 0.356494 0
M  V30 2813 H 253.758 6.30205 1.39686 0
M  V30 2814 H 254.526 8.17021 0.491829 0
M  V30 2815 N 257.189 -0.644168 1.43834 0
M  V30 2816 C 258.435 -1.40603 1.46146 0
M  V30 2817 C 258.768 -1.93997 0.0887717 0
M  V30 2818 O 258.043 -1.72854 -0.891724 0
M  V30 2819 C 258.326 -2.58086 2.51124 0
M  V30 2820 C 258.179 -2.10126 3.97702 0
M  V30 2821 C 259.498 -3.60291 2.52742 0
M  V30 2822 H 256.617 -0.509905 0.532134 0
M  V30 2823 H 259.259 -0.729502 1.75437 0
M  V30 2824 H 257.409 -3.15801 2.26278 0
M  V30 2825 H 259.081 -1.57342 4.33637 0
M  V30 2826 H 257.324 -1.41419 4.10101 0
M  V30 2827 H 257.995 -2.94649 4.66783 0
M  V30 2828 H 260.471 -3.12352 2.7491 0
M  V30 2829 H 259.347 -4.40032 3.28121 0
M  V30 2830 H 259.608 -4.1349 1.56455 0
M  V30 2831 N 258.668 -1.30515 -0.883378 0
M  V30 2832 C 259.6 -1.12846 -1.99496 0
M  V30 2833 C 260.613 -0.0712571 -1.62644 0
M  V30 2834 O 261.802 -0.317432 -1.75655 0
M  V30 2835 C 258.902 -0.699123 -3.3161 0
M  V30 2836 C 258.075 -1.83842 -3.96889 0
M  V30 2837 C 257.134 -1.39737 -5.07307 0
M  V30 2838 O 256.16 -2.10485 -5.28852 0
M  V30 2839 N 257.362 -0.277279 -5.79837 0
M  V30 2840 H 260.127 -2.08585 -2.15203 0
M  V30 2841 H 257.688 -1.22672 -1.05656 0
M  V30 2842 H 259.68 -0.387044 -4.02845 0
M  V30 2843 H 258.25 0.166276 -3.12157 0
M  V30 2844 H 257.47 -2.31853 -3.18807 0
M  V30 2845 H 258.758 -2.60187 -4.37241 0
M  V30 2846 H 258.156 0.3122 -5.64838 0
M  V30 2847 H 256.713 -0.0246623 -6.51795 0
M  V30 2848 N 260.146 1.09593 -1.13257 0
M  V30 2849 C 261.562 1.33775 -0.870423 0
M  V30 2850 C 261.762 1.95327 0.494926 0
M  V30 2851 O 260.818 2.19853 1.2418 0
M  V30 2852 C 262.131 2.25106 -1.99369 0
M  V30 2853 C 263.679 2.3862 -2.02558 0
M  V30 2854 C 264.154 3.33285 -3.14142 0
M  V30 2855 N 265.645 3.40857 -3.13641 0
M  V30 2856 C 266.38 4.14101 -3.96621 0
M  V30 2857 N 265.876 4.90157 -4.8961 0
M  V30 2858 N 267.669 4.09808 -3.84726 0
M  V30 2859 H 259.82 0.680136 -2.01216 0
M  V30 2860 H 262.083 0.362133 -0.876107 0
M  V30 2861 H 261.789 1.87103 -2.97801 0
M  V30 2862 H 261.663 3.25481 -1.90635 0
M  V30 2863 H 264.05 2.75887 -1.0474 0
M  V30 2864 H 264.131 1.38028 -2.15364 0
M  V30 2865 H 263.775 2.96741 -4.12198 0
M  V30 2866 H 263.705 4.33776 -2.98574 0
M  V30 2867 H 266.196 2.86624 -2.46282 0
M  V30 2868 H 266.509 5.4347 -5.49418 0
M  V30 2869 H 264.854 4.89251 -4.93617 0
M  V30 2870 H 268.045 3.4949 -3.11408 0
M  V30 2871 H 268.218 4.66629 -4.49623 0
M  V30 2872 N 261.624 0.925811 1.2754 0
M  V30 2873 C 262.587 0.428129 2.25166 0
M  V30 2874 C 263.587 -0.452261 1.54309 0
M  V30 2875 O 264.777 -0.253608 1.72344 0
M  V30 2876 C 261.909 -0.384749 3.38722 0
M  V30 2877 H 263.102 1.29066 2.70706 0
M  V30 2878 H 260.655 0.706323 1.3943 0
M  V30 2879 H 261.39 -1.26618 2.98561 0
M  V30 2880 H 261.175 0.246454 3.91325 0
M  V30 2881 H 262.665 -0.723389 4.11287 0
M  V30 2882 N 263.102 -1.41638 0.69111 0
M  V30 2883 C 264.049 -2.30789 0.0229705 0
M  V30 2884 C 265.019 -1.46863 -0.775911 0
M  V30 2885 O 266.204 -1.75661 -0.74485 0
M  V30 2886 C 263.344 -3.32868 -0.910666 0
M  V30 2887 C 262.457 -4.31875 -0.103874 0
M  V30 2888 C 261.592 -5.21024 -1.03475 0
M  V30 2889 C 260.631 -6.11702 -0.220598 0
M  V30 2890 N 259.768 -6.93349 -1.10504 0
M  V30 2891 H 264.608 -2.87366 0.788978 0
M  V30 2892 H 262.145 -1.41535 0.400794 0
M  V30 2893 H 264.103 -3.90596 -1.46597 0
M  V30 2894 H 262.733 -2.77851 -1.64312 0
M  V30 2895 H 261.785 -3.76131 0.568285 0
M  V30 2896 H 263.097 -4.96003 0.527504 0
M  V30 2897 H 262.251 -5.83565 -1.65943 0
M  V30 2898 H 260.99 -4.57112 -1.69999 0
M  V30 2899 H 259.995 -5.48215 0.417187 0
M  V30 2900 H 261.22 -6.77668 0.440784 0
M  V30 2901 H 259.166 -6.3205 -1.75638 0
M  V30 2902 H 259.083 -7.54146 -0.529125 0
M  V30 2903 H 260.351 -7.60362 -1.71667 0
M  V30 2904 N 264.58 -0.43555 -1.51462 0
M  V30 2905 C 265.543 0.365137 -2.26273 0
M  V30 2906 C 266.543 0.951227 -1.29647 0
M  V30 2907 O 267.733 0.825958 -1.53374 0
M  V30 2908 C 264.865 1.51645 -3.05314 0
M  V30 2909 H 266.058 -0.290474 -2.9849 0
M  V30 2910 H 263.611 -0.188676 -1.55157 0
M  V30 2911 H 264.346 2.20816 -2.3751 0
M  V30 2912 H 264.131 1.10238 -3.76284 0
M  V30 2913 H 265.621 2.08218 -3.61987 0
M  V30 2914 N 266.058 1.56714 -0.166846 0
M  V30 2915 C 267.288 2.00828 0.48494 0
M  V30 2916 C 267.696 1.04612 1.57648 0
M  V30 2917 O 267.039 0.0383201 1.8366 0
M  V30 2918 C 267.101 3.4137 1.12723 0
M  V30 2919 C 266.765 4.56654 0.177886 0
M  V30 2920 C 267.762 5.16402 -0.60207 0
M  V30 2921 C 265.447 5.02244 0.0750139 0
M  V30 2922 C 267.441 6.20167 -1.47215 0
M  V30 2923 C 265.128 6.05859 -0.798649 0
M  V30 2924 C 266.126 6.64691 -1.57082 0
M  V30 2925 O 265.814 7.66297 -2.42989 0
M  V30 2926 H 265.546 0.663587 0.128953 0
M  V30 2927 H 268.1 2.03692 -0.264365 0
M  V30 2928 H 266.33 3.35406 1.92457 0
M  V30 2929 H 268.019 3.69466 1.68076 0
M  V30 2930 H 268.785 4.82065 -0.53274 0
M  V30 2931 H 264.664 4.56167 0.665812 0
M  V30 2932 H 268.208 6.66016 -2.07531 0
M  V30 2933 H 264.105 6.39621 -0.869199 0
M  V30 2934 H 264.873 7.83601 -2.36455 0
M  V30 2935 N 267.536 -0.106894 1.57237 0
M  V30 2936 C 268.466 -1.13148 2.04254 0
M  V30 2937 C 269.447 -1.42476 0.929224 0
M  V30 2938 O 270.632 -1.52709 1.19973 0
M  V30 2939 C 267.762 -2.4545 2.45706 0
M  V30 2940 C 266.716 -2.30558 3.60592 0
M  V30 2941 C 266.042 -3.67931 3.87983 0
M  V30 2942 C 267.342 -1.75597 4.91897 0
M  V30 2943 H 269.036 -0.740374 2.90101 0
M  V30 2944 H 266.582 -0.354696 1.39563 0
M  V30 2945 H 268.535 -3.17389 2.77205 0
M  V30 2946 H 267.259 -2.86475 1.56843 0
M  V30 2947 H 265.918 -1.61067 3.29322 0
M  V30 2948 H 265.566 -4.06462 2.96306 0
M  V30 2949 H 265.266 -3.58817 4.65322 0
M  V30 2950 H 266.79 -4.41356 4.21945 0
M  V30 2951 H 268.204 -2.37364 5.21854 0
M  V30 2952 H 266.601 -1.77272 5.73319 0
M  V30 2953 H 267.671 -0.714451 4.79608 0
M  V30 2954 N 269.014 -1.53014 -0.377408 0
M  V30 2955 C 269.924 -1.81557 -1.48574 0
M  V30 2956 C 270.94 -0.703102 -1.59162 0
M  V30 2957 O 272.116 -0.99192 -1.75279 0
M  V30 2958 C 269.181 -1.9889 -2.83978 0
M  V30 2959 C 268.242 -3.22801 -2.83016 0
M  V30 2960 C 267.475 -3.39298 -4.11962 0
M  V30 2961 O 267.698 -2.60345 -5.0752 0
M  V30 2962 O 266.632 -4.32604 -4.18494 0
M  V30 2963 H 270.458 -2.75695 -1.27382 0
M  V30 2964 H 268.043 -1.38248 -0.566373 0
M  V30 2965 H 269.925 -2.11931 -3.6423 0
M  V30 2966 H 268.6 -1.07942 -3.05172 0
M  V30 2967 H 267.507 -3.15193 -2.01505 0
M  V30 2968 H 268.84 -4.13632 -2.66775 0
M  V30 2969 N 270.492 0.636531 -1.44174 0
M  V30 2970 C 271.402 1.77754 -1.53103 0
M  V30 2971 C 272.418 1.68928 -0.417034 0
M  V30 2972 O 273.594 1.89801 -0.6736 0
M  V30 2973 C 270.659 3.14115 -1.46741 0
M  V30 2974 C 269.72 3.34612 -2.68948 0
M  V30 2975 C 268.953 4.64467 -2.6288 0
M  V30 2976 O 269.176 5.44919 -1.68581 0
M  V30 2977 O 268.11 4.87049 -3.53648 0
M  V30 2978 H 271.936 1.73174 -2.49489 0
M  V30 2979 H 269.521 0.79709 -1.2636 0
M  V30 2980 H 271.403 3.95412 -1.45696 0
M  V30 2981 H 270.078 3.19249 -0.534975 0
M  V30 2982 H 268.985 2.53014 -2.75562 0
M  V30 2983 H 270.318 3.34336 -3.61221 0
M  V30 2984 N 271.97 1.30982 0.876444 0
M  V30 2985 C 272.88 1.2003 2.01569 0
M  V30 2986 C 273.896 0.11838 1.73597 0
M  V30 2987 O 275.072 0.33495 1.98595 0
M  V30 2988 C 272.137 0.901637 3.34771 0
M  V30 2989 C 271.198 2.06979 3.76109 0
M  V30 2990 C 270.431 1.78529 5.02954 0
M  V30 2991 O 270.654 0.717296 5.65872 0
M  V30 2992 O 269.588 2.64019 5.40905 0
M  V30 2993 H 273.414 2.15753 2.13739 0
M  V30 2994 H 270.999 1.10658 1.00375 0
M  V30 2995 H 272.881 0.750645 4.1466 0
M  V30 2996 H 271.556 -0.0256141 3.2369 0
M  V30 2997 H 270.463 2.27616 2.96887 0
M  V30 2998 H 271.796 2.97907 3.91807 0
M  V30 2999 N 273.449 -1.08991 1.13837 0
M  V30 3000 C 274.689 -1.82867 0.913183 0
M  V30 3001 C 275.053 -1.83936 -0.550604 0
M  V30 3002 O 276.254 -2.53515 -0.893515 0
M  V30 3003 C 274.525 -3.24843 1.49036 0
M  V30 3004 S 276.084 -4.15669 1.40588 0
M  V30 3005 H 272.902 -0.630278 0.329046 0
M  V30 3006 H 275.504 -1.31049 1.45073 0
M  V30 3007 H 274.208 -3.21644 2.54899 0
M  V30 3008 H 273.739 -3.81734 0.950947 0
M  V30 3009 H 275.754 -4.94686 0.387353 0
M  V30 3010 N 274.927 -0.932562 -1.27047 0
M  V30 3011 C 276.338 -0.619451 -1.76124 0
M  V30 3012 C 276.689 0.865397 -1.76083 0
M  V30 3013 O 275.814 1.67722 -1.36742 0
M  V30 3014 C 276.409 -1.11771 -3.19832 0
M  V30 3015 C 274.968 -0.855174 -3.66557 0
M  V30 3016 C 274.115 -1.27362 -2.46321 0
M  V30 3017 H 277.066 -1.11181 -1.13245 0
M  V30 3018 H 277.087 -0.46759 -3.77616 0
M  V30 3019 H 276.599 -2.19842 -3.1983 0
M  V30 3020 H 274.7 0.211524 -3.71999 0
M  V30 3021 H 274.813 -1.47613 -4.55793 0
M  V30 3022 H 273.177 -0.692119 -2.45116 0
M  V30 3023 H 273.96 -2.36307 -2.49025 0
M  V30 3024 N 276.405 1.4127 -0.698611 0
M  V30 3025 C 277.368 2.29158 -0.044132 0
M  V30 3026 C 278.368 1.44529 0.704841 0
M  V30 3027 O 279.558 1.65643 0.539276 0
M  V30 3028 C 276.69 3.27459 0.947809 0
M  V30 3029 H 277.883 2.88529 -0.817994 0
M  V30 3030 H 275.436 1.49307 -0.46228 0
M  V30 3031 H 276.171 2.73073 1.74933 0
M  V30 3032 H 275.956 3.8991 0.41385 0
M  V30 3033 H 277.446 3.93311 1.40344 0
M  V30 3034 N 277.883 0.443576 1.51229 0
M  V30 3035 C 279.111 -0.11929 2.06556 0
M  V30 3036 C 279.526 -1.35921 1.31038 0
M  V30 3037 O 278.883 -1.78675 0.371704 0
M  V30 3038 C 278.934 -0.435228 3.5887 0
M  V30 3039 O 278.655 0.755486 4.31537 0
M  V30 3040 C 280.156 -1.04808 4.30732 0
M  V30 3041 H 277.376 -0.0051584 0.67098 0
M  V30 3042 H 279.92 0.624453 1.94733 0
M  V30 3043 H 278.075 -1.12887 3.70588 0
M  V30 3044 H 278.489 0.483491 5.22267 0
M  V30 3045 H 279.963 -1.2191 5.3837 0
M  V30 3046 H 280.44 -2.03081 3.89429 0
M  V30 3047 H 281.046 -0.393637 4.23474 0
M  V30 3048 N 279.361 -1.56624 0.175154 0
M  V30 3049 C 280.291 -2.21155 -0.749195 0
M  V30 3050 C 281.272 -1.16836 -1.23626 0
M  V30 3051 O 282.457 -1.45277 -1.28873 0
M  V30 3052 C 279.587 -2.8553 -1.97711 0
M  V30 3053 C 278.541 -3.95921 -1.62575 0
M  V30 3054 C 277.867 -4.47365 -2.92864 0
M  V30 3055 C 279.167 -5.15323 -0.850838 0
M  V30 3056 H 280.861 -2.98653 -0.211295 0
M  V30 3057 H 278.407 -1.43651 -0.100188 0
M  V30 3058 H 280.36 -3.2935 -2.62881 0
M  V30 3059 H 279.084 -2.05406 -2.53921 0
M  V30 3060 H 277.743 -3.52762 -0.997719 0
M  V30 3061 H 277.391 -3.64027 -3.47122 0
M  V30 3062 H 277.091 -5.21839 -2.70106 0
M  V30 3063 H 278.615 -4.93873 -3.59056 0
M  V30 3064 H 280.029 -5.55812 -1.40521 0
M  V30 3065 H 278.426 -5.95739 -0.722154 0
M  V30 3066 H 279.496 -4.84661 0.152082 0
M  V30 3067 N 280.839 0.0985539 -1.57292 0
M  V30 3068 C 282.255 0.45267 -1.53046 0
M  V30 3069 C 282.455 1.80713 -0.891342 0
M  V30 3070 O 281.511 2.4785 -0.482375 0
M  V30 3071 C 282.824 0.418341 -2.97776 0
M  V30 3072 C 284.372 0.500443 -3.08973 0
M  V30 3073 C 284.847 0.496297 -4.55303 0
M  V30 3074 N 286.338 0.557151 -4.59837 0
M  V30 3075 C 287.073 0.575726 -5.70502 0
M  V30 3076 N 286.569 0.550714 -6.90608 0
M  V30 3077 N 288.362 0.620277 -5.58667 0
M  V30 3078 H 280.513 -0.788673 -1.97215 0
M  V30 3079 H 282.776 -0.293188 -0.901524 0
M  V30 3080 H 282.482 -0.509659 -3.47988 0
M  V30 3081 H 282.356 1.2386 -3.56284 0
M  V30 3082 H 284.743 1.41886 -2.58751 0
M  V30 3083 H 284.824 -0.347894 -2.53423 0
M  V30 3084 H 284.468 -0.418162 -5.06176 0
M  V30 3085 H 284.398 1.3618 -5.08687 0
M  V30 3086 H 286.889 0.581816 -3.73394 0
M  V30 3087 H 287.202 0.568075 -7.70709 0
M  V30 3088 H 285.547 0.517816 -6.93068 0
M  V30 3089 H 288.738 0.637322 -4.63741 0
M  V30 3090 H 288.911 0.631283 -6.44918 0
M  V30 3091 N 282.317 1.53212 0.369288 0
M  V30 3092 C 283.264 1.79388 1.45219 0
M  V30 3093 C 284.234 0.638059 1.53356 0
M  V30 3094 O 285.419 0.879852 1.69302 0
M  V30 3095 C 282.559 1.98623 2.82211 0
M  V30 3096 C 281.672 3.26337 2.8307 0
M  V30 3097 C 280.807 3.35779 4.11614 0
M  V30 3098 C 279.846 4.5754 4.06601 0
M  V30 3099 N 278.983 4.64155 5.26787 0
M  V30 3100 H 283.823 2.71794 1.22198 0
M  V30 3101 H 281.36 1.34642 0.592444 0
M  V30 3102 H 283.318 2.07761 3.61789 0
M  V30 3103 H 281.948 1.09558 3.03639 0
M  V30 3104 H 281 3.26171 1.95747 0
M  V30 3105 H 282.312 4.15988 2.75237 0
M  V30 3106 H 281.466 3.44208 4.99606 0
M  V30 3107 H 280.205 2.44137 4.22195 0
M  V30 3108 H 279.21 4.49215 3.16996 0
M  V30 3109 H 280.435 5.50519 3.97625 0
M  V30 3110 H 278.381 3.75413 5.3796 0
M  V30 3111 H 278.298 5.47706 5.21109 0
M  V30 3112 H 279.566 4.76863 6.16621 0
M  V30 3113 N 283.795 -0.628877 1.44509 0
M  V30 3114 C 285.025 -1.41349 1.50678 0
M  V30 3115 C 285.433 -1.88745 0.131075 0
M  V30 3116 O 284.776 -1.61592 -0.87371 0
M  V30 3117 C 284.838 -2.66608 2.41165 0
M  V30 3118 C 284.502 -2.40993 3.88293 0
M  V30 3119 C 285.499 -2.0268 4.78766 0
M  V30 3120 C 283.184 -2.54563 4.33016 0
M  V30 3121 C 285.178 -1.78269 6.11963 0
M  V30 3122 C 282.865 -2.29766 5.6626 0
M  V30 3123 C 283.863 -1.91678 6.55552 0
M  V30 3124 O 283.551 -1.67158 7.86329 0
M  V30 3125 H 283.283 -0.439851 0.51333 0
M  V30 3126 H 285.837 -0.776084 1.90174 0
M  V30 3127 H 284.067 -3.32994 1.96601 0
M  V30 3128 H 285.756 -3.28615 2.38259 0
M  V30 3129 H 286.522 -1.91751 4.45485 0
M  V30 3130 H 282.401 -2.83179 3.63773 0
M  V30 3131 H 285.945 -1.48465 6.81619 0
M  V30 3132 H 281.842 -2.40306 5.99102 0
M  V30 3133 H 282.61 -1.81386 7.98149 0
M  V30 3134 N 285.273 -1.31445 -0.869486 0
M  V30 3135 C 286.203 -1.21727 -1.99261 0
M  V30 3136 C 287.184 -0.104359 -1.6978 0
M  V30 3137 O 288.369 -0.289038 -1.92037 0
M  V30 3138 C 285.499 -0.924317 -3.34774 0
M  V30 3139 C 284.453 -1.99685 -3.78563 0
M  V30 3140 C 283.779 -1.55658 -5.11541 0
M  V30 3141 C 285.079 -3.41003 -3.95619 0
M  V30 3142 H 286.773 -2.1569 -2.07649 0
M  V30 3143 H 284.319 -1.03839 -0.997675 0
M  V30 3144 H 286.272 -0.842934 -4.12883 0
M  V30 3145 H 284.996 0.0509793 -3.2656 0
M  V30 3146 H 283.655 -2.06813 -3.02694 0
M  V30 3147 H 283.303 -0.569132 -4.9977 0
M  V30 3148 H 283.003 -2.27409 -5.41811 0
M  V30 3149 H 284.527 -1.48928 -5.92159 0
M  V30 3150 H 285.941 -3.36547 -4.64122 0
M  V30 3151 H 284.338 -4.10975 -4.37286 0
M  V30 3152 H 285.408 -3.81754 -2.98985 0
M  V30 3153 N 286.751 1.08385 -1.14413 0
M  V30 3154 C 287.698 2.15311 -0.831265 0
M  V30 3155 C 288.668 1.64751 0.211292 0
M  V30 3156 O 289.853 1.90627 0.0811674 0
M  V30 3157 C 286.993 3.43658 -0.315143 0
M  V30 3158 C 286.106 4.08064 -1.41802 0
M  V30 3159 C 285.241 5.24207 -0.859126 0
M  V30 3160 C 284.28 5.80554 -1.93967 0
M  V30 3161 N 283.417 6.88042 -1.39793 0
M  V30 3162 H 288.257 2.41415 -1.74708 0
M  V30 3163 H 285.794 1.18474 -0.871909 0
M  V30 3164 H 287.752 4.172 0.00230884 0
M  V30 3165 H 286.382 3.17839 0.56378 0
M  V30 3166 H 285.434 3.3228 -1.85187 0
M  V30 3167 H 286.746 4.45962 -2.23427 0
M  V30 3168 H 285.9 6.04689 -0.49359 0
M  V30 3169 H 284.639 4.87699 -0.011932 0
M  V30 3170 H 283.644 4.98725 -2.31415 0
M  V30 3171 H 284.869 6.19121 -2.79046 0
M  V30 3172 H 282.815 6.53493 -0.572919 0
M  V30 3173 H 282.732 7.24767 -2.15054 0
M  V30 3174 H 284 7.72255 -1.0603 0
M  V30 3175 N 288.23 0.939286 1.26551 0
M  V30 3176 C 289.46 0.601663 1.97645 0
M  V30 3177 C 289.868 -0.827206 1.70159 0
M  V30 3178 O 289.211 -1.56291 0.965338 0
M  V30 3179 C 289.273 0.761725 3.51337 0
M  V30 3180 C 288.937 2.16487 4.0247 0
M  V30 3181 C 289.934 3.14016 4.14355 0
M  V30 3182 C 287.619 2.48494 4.36527 0
M  V30 3183 C 289.613 4.41654 4.59587 0
M  V30 3184 C 287.3 3.76364 4.81449 0
M  V30 3185 C 288.298 4.72758 4.92939 0
M  V30 3186 O 287.986 5.98352 5.36871 0
M  V30 3187 H 287.718 0.225758 0.637189 0
M  V30 3188 H 290.272 1.26178 1.62075 0
M  V30 3189 H 288.502 0.0444808 3.86674 0
M  V30 3190 H 290.191 0.427442 4.03643 0
M  V30 3191 H 290.957 2.90613 3.8829 0
M  V30 3192 H 286.836 1.74202 4.26819 0
M  V30 3193 H 290.38 5.16896 4.68471 0
M  V30 3194 H 286.277 3.99582 5.06956 0
M  V30 3195 H 287.045 6.01507 5.55096 0
M  V30 3196 N 289.708 -1.40897 0.706093 0
M  V30 3197 C 290.933 -2.05895 0.249435 0
M  V30 3198 C 291.358 -1.52823 -1.09666 0
M  V30 3199 O 290.716 -0.659589 -1.68876 0
M  V30 3200 C 290.764 -3.59872 0.22904 0
M  V30 3201 O 289.868 -4.04708 -0.792784 0
M  V30 3202 H 289.209 -0.653206 0.119241 0
M  V30 3203 H 291.739 -1.80471 0.96391 0
M  V30 3204 H 291.749 -4.07951 0.0634791 0
M  V30 3205 H 290.424 -3.97866 1.21141 0
M  V30 3206 H 289.001 -3.68111 -0.59572 0
M  V30 3207 N 291.186 -0.45159 -1.50991 0
M  V30 3208 C 292.133 0.352625 -2.2809 0
M  V30 3209 C 293.103 1.0044 -1.32291 0
M  V30 3210 O 294.288 1.02058 -1.6121 0
M  V30 3211 C 291.428 1.43983 -3.13629 0
M  V30 3212 C 290.541 0.804772 -4.24438 0
M  V30 3213 C 289.676 1.86822 -4.97263 0
M  V30 3214 C 288.715 1.21236 -5.99973 0
M  V30 3215 N 287.852 2.2178 -6.66152 0
M  V30 3216 H 292.692 -0.311186 -2.96371 0
M  V30 3217 H 290.229 -0.165308 -1.46168 0
M  V30 3218 H 292.187 2.08161 -3.61559 0
M  V30 3219 H 290.817 2.07307 -2.47434 0
M  V30 3220 H 289.869 0.0509129 -3.80366 0
M  V30 3221 H 291.181 0.286076 -4.97979 0
M  V30 3222 H 290.335 2.58628 -5.48813 0
M  V30 3223 H 289.074 2.42068 -4.23385 0
M  V30 3224 H 288.079 0.479828 -5.47702 0
M  V30 3225 H 289.304 0.667051 -6.75816 0
M  V30 3226 H 287.25 2.76079 -5.95077 0
M  V30 3227 H 287.167 1.74841 -7.35504 0
M  V30 3228 H 288.435 2.93026 -7.22327 0
M  V30 3229 N 292.664 1.56529 -0.183458 0
M  V30 3230 C 293.612 2.19873 0.758845 0
M  V30 3231 C 294.606 1.16638 1.22849 0
M  V30 3232 O 295.812 1.3481 1.19274 0
M  V30 3233 H 292.187 0.7045 0.263029 0
M  V30 3234 H 294.158 2.97724 0.200755 0
M  V30 3235 C 292.907 2.86314 1.9728 0
M  V30 3236 H 292.23 3.65487 1.62047 0
M  V30 3237 H 293.67 3.3409 2.61075 0
M  V30 3238 C 292.129 1.86729 2.80418 0
M  V30 3239 O 292.659 1.36031 3.77966 0
M  V30 3240 N 290.865 1.55216 2.45675 0
M  V30 3241 H 290.412 1.96636 1.66409 0
M  V30 3242 H 290.37 0.888388 3.01588 0
M  V30 3243 N 294.142 -0.090211 1.57342 0
M  V30 3244 C 295.391 -0.791531 1.8552 0
M  V30 3245 C 295.704 -1.79659 0.773441 0
M  V30 3246 O 296.91 -2.54616 0.942497 0
M  V30 3247 C 295.366 -1.45856 3.2902 0
M  V30 3248 C 294.974 -0.493017 4.45279 0
M  V30 3249 C 296.718 -2.14332 3.66418 0
M  V30 3250 C 294.625 -1.16491 5.79814 0
M  V30 3251 H 293.555 -0.299356 0.692027 0
M  V30 3252 H 296.206 -0.0445343 1.83446 0
M  V30 3253 H 294.588 -2.25318 3.2565 0
M  V30 3254 H 295.762 0.270464 4.60006 0
M  V30 3255 H 294.077 0.0863061 4.16311 0
M  V30 3256 H 296.674 -2.65344 4.64216 0
M  V30 3257 H 297.017 -2.93447 2.95287 0
M  V30 3258 H 297.55 -1.41724 3.71698 0
M  V30 3259 H 294.289 -0.41447 6.54188 0
M  V30 3260 H 293.809 -1.8997 5.68921 0
M  V30 3261 H 295.488 -1.69001 6.24538 0
M  V30 3262 N 295.62 -1.53406 -0.361157 0
M  V30 3263 C 296.55 -1.83136 -1.44857 0
M  V30 3264 C 297.531 -0.685174 -1.5569 0
M  V30 3265 O 298.716 -0.93544 -1.70186 0
M  V30 3266 C 295.846 -2.02522 -2.82138 0
M  V30 3267 C 294.8 -3.18302 -2.86126 0
M  V30 3268 C 294.126 -3.22989 -4.26125 0
M  V30 3269 C 295.426 -4.56796 -2.53248 0
M  V30 3270 H 297.12 -2.74201 -1.20226 0
M  V30 3271 H 294.666 -1.31938 -0.576922 0
M  V30 3272 H 296.619 -2.21904 -3.58241 0
M  V30 3273 H 295.343 -1.08172 -3.08166 0
M  V30 3274 H 294.002 -2.98747 -2.12475 0
M  V30 3275 H 293.65 -2.26267 -4.49235 0
M  V30 3276 H 293.35 -4.00781 -4.29708 0
M  V30 3277 H 294.874 -3.44559 -5.04094 0
M  V30 3278 H 296.288 -4.7631 -3.19064 0
M  V30 3279 H 294.685 -5.36862 -2.68141 0
M  V30 3280 H 295.755 -4.61606 -1.48484 0
M  V30 3281 N 297.098 0.621204 -1.44841 0
M  V30 3282 C 298.375 1.38 -1.38619 0
M  V30 3283 C 298.755 2.11041 -0.0498935 0
M  V30 3284 O 298.103 2.06992 0.967816 0
M  V30 3285 C 298.313 2.33817 -2.59096 0
M  V30 3286 C 299.661 2.96844 -3.03593 0
M  V30 3287 O 300.685 2.44141 -2.59371 0
M  V30 3288 O 299.544 3.92476 -3.80296 0
M  V30 3289 H 296.638 0.61811 -0.549426 0
M  V30 3290 H 299.184 0.645429 -1.56947 0
M  V30 3291 H 297.956 1.79012 -3.47952 0
M  V30 3292 H 297.579 3.14676 -2.43032 0
M  V30 3293 N 298.576 1.31904 0.862503 0
M  V30 3294 C 299.992 1.10724 1.14945 0
M  V30 3295 C 300.192 -0.117421 2.01158 0
M  V30 3296 O 299.248 -0.804595 2.39338 0
M  V30 3297 C 300.561 2.38267 1.83437 0
M  V30 3298 C 302.109 2.43949 1.96106 0
M  V30 3299 C 302.584 3.71394 2.68013 0
M  V30 3300 N 304.075 3.72331 2.75543 0
M  V30 3301 C 304.81 4.67641 3.31812 0
M  V30 3302 N 304.306 5.73313 3.88953 0
M  V30 3303 N 306.099 4.5515 3.29841 0
M  V30 3304 H 298.25 2.10436 0.288191 0
M  V30 3305 H 300.513 0.928705 0.190292 0
M  V30 3306 H 300.219 3.27759 1.27542 0
M  V30 3307 H 300.093 2.48633 2.83657 0
M  V30 3308 H 302.48 1.54922 2.51164 0
M  V30 3309 H 302.561 2.37543 0.949059 0
M  V30 3310 H 302.205 4.60791 2.13621 0
M  V30 3311 H 302.135 3.75069 3.69636 0
M  V30 3312 H 304.626 2.95947 2.34997 0
M  V30 3313 H 304.939 6.42107 4.30022 0
M  V30 3314 H 303.284 5.77077 3.87308 0
M  V30 3315 H 306.475 3.71766 2.84443 0
M  V30 3316 H 306.648 5.29604 3.73394 0
M  V30 3317 N 300.054 -1.07777 1.14986 0
M  V30 3318 C 300.986 -2.14769 0.800436 0
M  V30 3319 C 301.999 -1.61739 -0.185595 0
M  V30 3320 O 303.188 -1.78462 0.0370358 0
M  V30 3321 C 300.288 -3.38481 0.168533 0
M  V30 3322 C 299.461 -4.20876 1.1909 0
M  V30 3323 C 298.52 -5.22976 0.581575 0
M  V30 3324 O 297.546 -5.55388 1.24633 0
M  V30 3325 N 298.748 -5.76976 -0.638706 0
M  V30 3326 H 301.513 -2.45348 1.72118 0
M  V30 3327 H 299.074 -1.23645 1.04515 0
M  V30 3328 H 301.066 -4.03916 -0.251764 0
M  V30 3329 H 299.636 -3.05651 -0.655467 0
M  V30 3330 H 298.856 -3.51322 1.78791 0
M  V30 3331 H 300.144 -4.7274 1.88133 0
M  V30 3332 H 299.542 -5.52886 -1.19723 0
M  V30 3333 H 298.099 -6.44061 -1.00142 0
M  V30 3334 N 301.532 -0.945985 -1.26051 0
M  V30 3335 C 302.809 -0.513816 -1.88731 0
M  V30 3336 C 303.189 1.00872 -1.8544 0
M  V30 3337 O 302.537 1.8708 -1.312 0
M  V30 3338 C 302.747 -1.08062 -3.31849 0
M  V30 3339 C 304.095 -1.1522 -4.08668 0
M  V30 3340 O 305.119 -1.03155 -3.40936 0
M  V30 3341 O 303.978 -1.34044 -5.29806 0
M  V30 3342 H 301.072 -0.168193 -0.809716 0
M  V30 3343 H 303.618 -1.03886 -1.34186 0
M  V30 3344 H 302.39 -2.1241 -3.2863 0
M  V30 3345 H 302.013 -0.538307 -3.93939 0
M  V30 3346 N 303.011 1.40521 -0.713556 0
M  V30 3347 C 304.422 1.83853 -0.324807 0
M  V30 3348 C 304.773 1.59667 1.14021 0
M  V30 3349 O 303.898 1.07649 1.87725 0
M  V30 3350 C 304.493 3.33751 -0.582746 0
M  V30 3351 C 303.052 3.75584 -0.247727 0
M  V30 3352 C 302.199 2.63753 -0.856121 0
M  V30 3353 H 305.15 1.29817 -0.91286 0
M  V30 3354 H 305.171 3.80194 0.152682 0
M  V30 3355 H 304.683 3.51322 -1.64908 0
M  V30 3356 H 302.784 3.63608 0.813624 0
M  V30 3357 H 302.897 4.7373 -0.715307 0
M  V30 3358 H 301.261 2.53108 -0.28432 0
M  V30 3359 H 302.044 2.84137 -1.92668 0
M  V30 3360 N 304.489 0.459591 1.5075 0
M  V30 3361 C 305.9 0.00171547 1.867 0
M  V30 3362 C 306.251 -1.39934 1.37525 0
M  V30 3363 O 305.376 -2.03523 0.735349 0
M  V30 3364 C 305.971 -0.00366298 3.388 0
M  V30 3365 C 304.53 -0.406026 3.74204 0
M  V30 3366 C 303.677 0.38673 2.7459 0
M  V30 3367 H 306.628 0.674413 1.43657 0
M  V30 3368 H 306.649 -0.808371 3.71814 0
M  V30 3369 H 306.161 1.01617 3.74561 0
M  V30 3370 H 304.262 -1.43063 3.4404 0
M  V30 3371 H 304.375 -0.115362 4.78961 0
M  V30 3372 H 302.739 -0.158019 2.54209 0
M  V30 3373 H 303.522 1.40585 3.13194 0
M  V30 3374 N 305.967 -1.56429 0.191757 0
M  V30 3375 C 307.192 -2.02309 -0.456706 0
M  V30 3376 C 307.617 -1.07103 -1.5463 0
M  V30 3377 O 306.975 -0.0539677 -1.8122 0
M  V30 3378 C 307.023 -3.46654 -0.993159 0
M  V30 3379 O 306.127 -3.54559 -2.10622 0
M  V30 3380 H 305.468 -0.655303 -0.107114 0
M  V30 3381 H 307.998 -2.02364 0.301653 0
M  V30 3382 H 308.008 -3.86377 -1.31061 0
M  V30 3383 H 306.683 -4.1544 -0.195504 0
M  V30 3384 H 305.26 -3.26708 -1.79767 0
M  V30 3385 N 307.445 0.0818655 -1.57387 0
M  V30 3386 C 308.691 0.784074 -1.8703 0
M  V30 3387 C 309.024 1.77729 -0.782689 0
M  V30 3388 O 308.299 1.93384 0.208051 0
M  V30 3389 C 308.582 1.50105 -3.27323 0
M  V30 3390 C 308.435 0.524925 -4.46727 0
M  V30 3391 C 309.754 2.44843 -3.65705 0
M  V30 3392 H 306.873 0.283582 -0.680257 0
M  V30 3393 H 309.515 0.0474352 -1.89941 0
M  V30 3394 H 307.665 2.12897 -3.24972 0
M  V30 3395 H 309.337 -0.0970111 -4.61198 0
M  V30 3396 H 307.58 -0.160606 -4.33503 0
M  V30 3397 H 308.251 1.064 -5.41648 0
M  V30 3398 H 310.727 1.92135 -3.69085 0
M  V30 3399 H 309.603 2.92018 -4.64776 0
M  V30 3400 H 309.864 3.29197 -2.95096 0
M  V30 3401 N 308.923 1.53595 0.353017 0
M  V30 3402 C 310.169 1.70638 1.09593 0
M  V30 3403 C 310.502 0.463286 1.88593 0
M  V30 3404 O 309.777 -0.539597 1.86865 0
M  V30 3405 C 310.06 2.96406 2.04489 0
M  V30 3406 C 309.913 4.30901 1.29014 0
M  V30 3407 C 311.232 3.17812 3.0444 0
M  V30 3408 H 308.351 0.620913 0.397034 0
M  V30 3409 H 310.993 1.86254 0.375446 0
M  V30 3410 H 309.143 2.83223 2.65927 0
M  V30 3411 H 310.815 4.55917 0.702638 0
M  V30 3412 H 309.058 4.29741 0.592071 0
M  V30 3413 H 309.729 5.1506 1.98537 0
M  V30 3414 H 312.205 3.30263 2.53112 0
M  V30 3415 H 311.081 4.07223 3.6805 0
M  V30 3416 H 311.342 2.33669 3.75301 0
M  V30 3417 N 310.401 -0.613514 1.45168 0
M  V30 3418 C 311.647 -1.37471 1.49096 0
M  V30 3419 C 311.98 -1.93765 0.129901 0
M  V30 3420 O 311.255 -1.74707 -0.854858 0
M  V30 3421 C 311.538 -2.52701 2.56542 0
M  V30 3422 C 311.391 -2.01643 4.0207 0
M  V30 3423 C 312.71 -3.54849 2.60327 0
M  V30 3424 H 309.829 -0.498502 0.54283 0
M  V30 3425 H 312.471 -0.692125 1.76945 0
M  V30 3426 H 310.621 -3.10931 2.32926 0
M  V30 3427 H 312.293 -1.48108 4.36877 0
M  V30 3428 H 310.536 -1.32688 4.13009 0
M  V30 3429 H 311.207 -2.84681 4.72928 0
M  V30 3430 H 313.683 -3.0645 2.81474 0
M  V30 3431 H 312.559 -4.32973 3.37381 0
M  V30 3432 H 312.82 -4.10079 1.6519 0
M  V30 3433 N 311.879 -1.3236 -0.855495 0
M  V30 3434 C 313.107 -1.2587 -1.64208 0
M  V30 3435 C 313.522 0.173457 -1.88002 0
M  V30 3436 O 312.879 1.11027 -1.44842 0
M  V30 3437 C 312.93 -2.01424 -3.00184 0
M  V30 3438 O 312.651 -3.39051 -2.77445 0
M  V30 3439 C 314.152 -2.01948 -3.94629 0
M  V30 3440 H 311.372 -0.434318 -0.511477 0
M  V30 3441 H 313.916 -1.74469 -1.0668 0
M  V30 3442 H 312.071 -1.56549 -3.5436 0
M  V30 3443 H 312.485 -3.77711 -3.63916 0
M  V30 3444 H 313.959 -2.59297 -4.87308 0
M  V30 3445 H 314.436 -1.00554 -4.27534 0
M  V30 3446 H 315.042 -2.46767 -3.4639 0
M  V30 3447 N 313.357 1.07166 -1.15556 0
M  V30 3448 C 314.582 1.84053 -0.955988 0
M  V30 3449 C 315.007 1.81586 0.490739 0
M  V30 3450 O 314.365 1.21018 1.34997 0
M  V30 3451 C 314.413 3.28957 -1.47714 0
M  V30 3452 O 313.517 4.06795 -0.677593 0
M  V30 3453 H 312.858 0.569842 -0.340847 0
M  V30 3454 H 315.388 1.35178 -1.53584 0
M  V30 3455 H 315.398 3.79788 -1.4908 0
M  V30 3456 H 314.073 3.30068 -2.53037 0
M  V30 3457 H 312.65 3.6561 -0.733721 0
M  V30 3458 N 314.835 0.952656 1.25548 0
M  V30 3459 C 315.785 0.442033 2.23674 0
M  V30 3460 C 316.769 -0.467632 1.53955 0
M  V30 3461 O 317.961 -0.301006 1.74422 0
M  V30 3462 C 315.09 -0.280816 3.4215 0
M  V30 3463 C 314.176 0.646803 4.19139 0
M  V30 3464 N 314.567 1.77759 4.73535 0
M  V30 3465 C 312.865 0.454617 4.43677 0
M  V30 3466 C 313.566 2.35658 5.31827 0
M  V30 3467 N 312.542 1.64333 5.18166 0
M  V30 3468 H 316.344 1.30505 2.63336 0
M  V30 3469 H 313.858 0.809904 1.40763 0
M  V30 3470 H 315.855 -0.663747 4.11582 0
M  V30 3471 H 314.515 -1.14046 3.04012 0
M  V30 3472 H 315.526 2.15949 4.7073 0
M  V30 3473 H 312.203 -0.362312 4.15925 0
M  V30 3474 H 313.593 3.30998 5.84713 0
M  V30 3475 N 316.313 -1.40141 0.720998 0
M  V30 3476 C 317.245 -2.29177 0.0324669 0
M  V30 3477 C 318.258 -1.46105 -0.718126 0
M  V30 3478 O 319.447 -1.69335 -0.564608 0
M  V30 3479 C 316.547 -3.24473 -0.978292 0
M  V30 3480 C 315.72 -4.36423 -0.292115 0
M  V30 3481 C 314.779 -5.12122 -1.20901 0
M  V30 3482 O 313.805 -5.64981 -0.691766 0
M  V30 3483 N 315.007 -5.21992 -2.53978 0
M  V30 3484 H 317.772 -2.88909 0.796984 0
M  V30 3485 H 315.333 -1.51569 0.569068 0
M  V30 3486 H 317.325 -3.71987 -1.59398 0
M  V30 3487 H 315.895 -2.65871 -1.64413 0
M  V30 3488 H 315.115 -3.90967 0.503847 0
M  V30 3489 H 316.403 -5.08467 0.183971 0
M  V30 3490 H 315.801 -4.8054 -2.98493 0
M  V30 3491 H 314.358 -5.72995 -3.10677 0
M  V30 3492 N 317.792 -0.46758 -1.50504 0
M  V30 3493 C 318.755 0.317059 -2.26996 0
M  V30 3494 C 319.755 0.923513 -1.31635 0
M  V30 3495 O 320.945 0.793239 -1.55091 0
M  V30 3496 C 318.077 1.45134 -3.08462 0
M  V30 3497 H 319.27 -0.353723 -2.97807 0
M  V30 3498 H 316.823 -0.221545 -1.54722 0
M  V30 3499 H 317.558 2.15728 -2.4214 0
M  V30 3500 H 317.343 1.02232 -3.78538 0
M  V30 3501 H 318.833 2.00493 -3.66323 0
M  V30 3502 N 319.27 1.56325 -0.20005 0
M  V30 3503 C 320.681 1.8408 0.31167 0
M  V30 3504 C 321.032 1.12087 1.61031 0
M  V30 3505 O 320.157 0.38332 2.12978 0
M  V30 3506 C 320.752 3.33932 0.57226 0
M  V30 3507 C 319.311 3.6208 1.02834 0
M  V30 3508 C 318.458 2.77186 0.079634 0
M  V30 3509 H 321.409 1.52939 -0.423729 0
M  V30 3510 H 321.43 3.52971 1.42096 0
M  V30 3511 H 320.942 3.86303 -0.37308 0
M  V30 3512 H 319.043 3.15147 1.98778 0
M  V30 3513 H 319.156 4.7023 0.917624 0
M  V30 3514 H 317.52 2.47951 0.582448 0
M  V30 3515 H 318.303 3.32347 -0.860238 0
M  V30 3516 N 320.748 -0.0735177 1.57428 0
M  V30 3517 C 321.996 -0.771472 1.86796 0
M  V30 3518 C 322.317 -1.78201 0.791804 0
M  V30 3519 O 321.587 -1.95074 -0.179718 0
M  V30 3520 H 320.167 -0.28791 0.689287 0
M  V30 3521 H 322.829 -0.0500161 1.94836 0
M  V30 3522 H 321.925 -1.28874 2.8425 0
M  V30 3523 N 322.226 -1.5378 -0.344866 0
M  V30 3524 C 323.136 -1.84667 -1.4469 0
M  V30 3525 C 324.152 -0.736704 -1.57635 0
M  V30 3526 O 325.328 -1.02888 -1.73136 0
M  V30 3527 C 322.393 -2.04869 -2.79696 0
M  V30 3528 C 321.454 -3.28731 -2.76106 0
M  V30 3529 C 320.687 -3.4796 -4.04673 0
M  V30 3530 O 320.91 -2.71052 -5.01883 0
M  V30 3531 O 319.844 -4.41383 -4.09224 0
M  V30 3532 H 323.67 -2.78334 -1.21506 0
M  V30 3533 H 321.255 -1.39418 -0.536921 0
M  V30 3534 H 323.137 -2.19609 -3.59652 0
M  V30 3535 H 321.812 -1.14391 -3.02814 0
M  V30 3536 H 320.719 -3.19396 -1.94774 0
M  V30 3537 H 322.052 -4.19198 -2.57941 0
M  V30 3538 N 323.704 0.605807 -1.45491 0
M  V30 3539 C 324.651 1.7164 -1.54299 0
M  V30 3540 C 325.621 1.61486 -0.388761 0
M  V30 3541 O 326.806 1.81039 -0.602445 0
M  V30 3542 C 323.946 3.09953 -1.51734 0
M  V30 3543 C 323.059 3.309 -2.77721 0
M  V30 3544 C 322.194 4.59329 -2.66816 0
M  V30 3545 C 321.233 4.7354 -3.87848 0
M  V30 3546 N 320.37 5.9327 -3.75467 0
M  V30 3547 H 325.21 1.63449 -2.49176 0
M  V30 3548 H 322.747 0.796957 -1.23641 0
M  V30 3549 H 324.705 3.89977 -1.48235 0
M  V30 3550 H 323.335 3.17098 -0.604068 0
M  V30 3551 H 322.387 2.44639 -2.913 0
M  V30 3552 H 323.699 3.37274 -3.67488 0
M  V30 3553 H 322.853 5.4755 -2.61292 0
M  V30 3554 H 321.592 4.55355 -1.74651 0
M  V30 3555 H 320.597 3.83741 -3.93729 0
M  V30 3556 H 321.822 4.79309 -4.81082 0
M  V30 3557 H 319.768 5.90338 -2.86072 0
M  V30 3558 H 319.685 6.00811 -4.5887 0
M  V30 3559 H 320.953 6.83984 -3.73879 0
M  V30 3560 N 325.182 1.32811 0.848464 0
M  V30 3561 C 326.129 1.22265 1.95755 0
M  V30 3562 C 327.099 0.103413 1.65778 0
M  V30 3563 O 328.284 0.280033 1.88734 0
M  V30 3564 C 325.424 0.958014 3.31536 0
M  V30 3565 C 324.537 2.16262 3.73971 0
M  V30 3566 C 323.672 1.83295 4.98575 0
M  V30 3567 C 322.711 3.00041 5.33518 0
M  V30 3568 N 321.848 2.67125 6.49299 0
M  V30 3569 H 326.688 2.17128 2.04107 0
M  V30 3570 H 324.225 1.07982 0.998913 0
M  V30 3571 H 326.183 0.785052 4.09747 0
M  V30 3572 H 324.813 0.046159 3.22767 0
M  V30 3573 H 323.865 2.44565 2.91362 0
M  V30 3574 H 325.177 3.03572 3.95785 0
M  V30 3575 H 324.331 1.62586 5.84509 0
M  V30 3576 H 323.07 0.932078 4.7871 0
M  V30 3577 H 322.075 3.21374 4.46093 0
M  V30 3578 H 323.3 3.90869 5.55336 0
M  V30 3579 H 321.246 1.79586 6.3094 0
M  V30 3580 H 321.163 3.47965 6.71161 0
M  V30 3581 H 322.431 2.49861 7.3837 0
M  V30 3582 N 326.66 -1.06551 1.16123 0
M  V30 3583 C 327.607 -2.13961 0.865414 0
M  V30 3584 C 328.577 -1.65066 -0.185055 0
M  V30 3585 O 329.762 -1.90732 -0.05083 0
M  V30 3586 C 326.902 -3.43113 0.369776 0
M  V30 3587 C 326.015 -4.05756 1.48276 0
M  V30 3588 C 325.15 -5.22773 0.942414 0
M  V30 3589 C 324.189 -5.77395 2.03179 0
M  V30 3590 N 323.326 -6.85731 1.50721 0
M  V30 3591 H 328.166 -2.38605 1.78527 0
M  V30 3592 H 325.703 -1.17072 0.890646 0
M  V30 3593 H 327.661 -4.17151 0.0640643 0
M  V30 3594 H 326.291 -3.18695 -0.513143 0
M  V30 3595 H 325.343 -3.29292 1.9045 0
M  V30 3596 H 326.655 -4.42351 2.30493 0
M  V30 3597 H 325.809 -6.03827 0.589729 0
M  V30 3598 H 324.548 -4.87618 0.0895191 0
M  V30 3599 H 323.553 -4.94981 2.3932 0
M  V30 3600 H 324.778 -6.14603 2.8886 0
M  V30 3601 H 322.724 -6.52499 0.676811 0
M  V30 3602 H 322.641 -7.21254 2.26557 0
M  V30 3603 H 323.909 -7.7047 1.18303 0
M  V30 3604 N 328.138 -0.959301 -1.25041 0
M  V30 3605 C 329.068 -0.501388 -2.28053 0
M  V30 3606 C 330.049 0.454673 -1.63911 0
M  V30 3607 O 331.234 0.352618 -1.90972 0
M  V30 3608 C 328.364 0.217224 -3.4662 0
M  V30 3609 C 327.318 -0.654034 -4.22973 0
M  V30 3610 C 326.644 0.195589 -5.34342 0
M  V30 3611 C 327.944 -1.93447 -4.85155 0
M  V30 3612 H 329.638 -1.36238 -2.66608 0
M  V30 3613 H 327.184 -0.656534 -1.28163 0
M  V30 3614 H 329.137 0.548732 -4.17812 0
M  V30 3615 H 327.861 1.1125 -3.07068 0
M  V30 3616 H 326.52 -0.968693 -3.5357 0
M  V30 3617 H 326.168 1.09076 -4.91031 0
M  V30 3618 H 325.868 -0.384091 -5.86343 0
M  V30 3619 H 327.392 0.521958 -6.08365 0
M  V30 3620 H 328.806 -1.66908 -5.48466 0
M  V30 3621 H 327.203 -2.46018 -5.47353 0
M  V30 3622 H 328.273 -2.63466 -4.07079 0
M  V30 3623 N 329.616 1.39756 -0.72842 0
M  V30 3624 C 330.563 2.30647 -0.0841519 0
M  V30 3625 C 331.533 1.48869 0.7367 0
M  V30 3626 O 332.718 1.77574 0.698015 0
M  V30 3627 C 329.858 3.35165 0.822091 0
M  V30 3628 C 328.971 4.31999 -0.0106663 0
M  V30 3629 C 328.106 5.23585 0.896241 0
M  V30 3630 C 327.145 6.12072 0.0583381 0
M  V30 3631 N 326.282 6.96035 0.920818 0
M  V30 3632 H 331.122 2.85173 -0.864891 0
M  V30 3633 H 328.659 1.40422 -0.438179 0
M  V30 3634 H 330.617 3.94345 1.36189 0
M  V30 3635 H 329.247 2.8211 1.56888 0
M  V30 3636 H 328.299 3.74492 -0.66781 0
M  V30 3637 H 329.611 4.9443 -0.658825 0
M  V30 3638 H 328.765 5.87759 1.50412 0
M  V30 3639 H 327.504 4.61459 1.57819 0
M  V30 3640 H 326.509 5.46916 -0.562389 0
M  V30 3641 H 327.734 6.76261 -0.6203 0
M  V30 3642 H 325.68 6.36485 1.58818 0
M  V30 3643 H 325.597 7.55284 0.32899 0
M  V30 3644 H 326.865 7.64646 1.51447 0
M  V30 3645 N 331.094 0.475555 1.50254 0
M  V30 3646 C 332.334 -0.0765802 2.04256 0
M  V30 3647 C 332.698 -1.36587 1.34937 0
M  V30 3648 O 333.899 -2.00066 1.79519 0
M  V30 3649 C 332.17 -0.251668 3.56513 0
M  V30 3650 S 333.729 -0.761716 4.32138 0
M  V30 3651 H 330.547 -0.0138456 0.710865 0
M  V30 3652 H 333.149 0.643714 1.84598 0
M  V30 3653 H 331.853 0.692404 4.04517 0
M  V30 3654 H 331.384 -0.997946 3.80532 0
M  V30 3655 H 333.399 -2.03451 4.52573 0
M  V30 3656 N 332.573 -1.56217 0.208337 0
M  V30 3657 C 333.503 -2.22694 -0.702116 0
M  V30 3658 C 334.484 -1.19432 -1.2112 0
M  V30 3659 O 335.669 -1.47978 -1.25762 0
M  V30 3660 C 332.799 -2.8966 -1.9161 0
M  V30 3661 C 331.753 -3.9928 -1.5414 0
M  V30 3662 C 331.079 -4.53476 -2.83308 0
M  V30 3663 C 332.379 -5.17012 -0.741339 0
M  V30 3664 H 334.073 -2.99034 -0.147898 0
M  V30 3665 H 331.619 -1.43831 -0.0696951 0
M  V30 3666 H 333.572 -3.34852 -2.55836 0
M  V30 3667 H 332.296 -2.10746 -2.49507 0
M  V30 3668 H 330.955 -3.54799 -0.922668 0
M  V30 3669 H 330.603 -3.71308 -3.39322 0
M  V30 3670 H 330.303 -5.27451 -2.58976 0
M  V30 3671 H 331.827 -5.01378 -3.485 0
M  V30 3672 H 333.241 -5.58667 -1.28699 0
M  V30 3673 H 331.638 -5.97137 -0.595627 0
M  V30 3674 H 332.708 -4.8423 0.254851 0
M  V30 3675 N 334.051 0.0651679 -1.57465 0
M  V30 3676 C 335.014 1.06117 -2.03155 0
M  V30 3677 C 336.014 1.31204 -0.929632 0
M  V30 3678 O 337.204 1.26813 -1.19432 0
M  V30 3679 C 334.336 2.4032 -2.41783 0
M  V30 3680 H 335.529 0.667231 -2.92383 0
M  V30 3681 H 333.082 0.311075 -1.53173 0
M  V30 3682 H 333.817 2.84532 -1.55601 0
M  V30 3683 H 333.602 2.23451 -3.22199 0
M  V30 3684 H 335.092 3.11898 -2.77685 0
M  V30 3685 N 335.529 1.53961 0.336706 0
M  V30 3686 C 336.759 1.75229 1.09446 0
M  V30 3687 C 337.167 0.494602 1.82621 0
M  V30 3688 O 336.51 -0.543764 1.75468 0
M  V30 3689 C 336.572 2.88288 2.1478 0
M  V30 3690 C 336.236 4.27656 1.6112 0
M  V30 3691 C 337.233 5.08981 1.0599 0
M  V30 3692 C 334.918 4.74161 1.6576 0
M  V30 3693 C 336.912 6.34916 0.562129 0
M  V30 3694 C 334.599 6.00067 1.15595 0
M  V30 3695 C 335.597 6.80278 0.609147 0
M  V30 3696 O 335.285 8.03818 0.114999 0
M  V30 3697 H 335.017 0.588881 0.331956 0
M  V30 3698 H 337.571 2.01614 0.392566 0
M  V30 3699 H 335.801 2.57443 2.88548 0
M  V30 3700 H 337.49 2.97461 2.76174 0
M  V30 3701 H 338.256 4.74213 1.01722 0
M  V30 3702 H 334.135 4.11781 2.07261 0
M  V30 3703 H 337.679 6.9747 0.134668 0
M  V30 3704 H 333.576 6.3433 1.19566 0
M  V30 3705 H 334.344 8.18172 0.231651 0
M  V30 3706 N 337.007 -0.598083 1.45811 0
M  V30 3707 C 338.284 -1.35777 1.40797 0
M  V30 3708 C 338.664 -2.10935 0.083462 0
M  V30 3709 O 338.012 -2.08505 -0.934763 0
M  V30 3710 C 338.222 -2.29666 2.62783 0
M  V30 3711 C 339.57 -2.91977 3.08277 0
M  V30 3712 O 340.594 -2.39984 2.63223 0
M  V30 3713 O 339.453 -3.86376 3.86491 0
M  V30 3714 H 336.547 -0.609291 0.55919 0
M  V30 3715 H 339.093 -0.620379 1.57954 0
M  V30 3716 H 337.865 -1.73454 3.50756 0
M  V30 3717 H 337.488 -3.1077 2.48008 0
M  V30 3718 N 338.485 -1.33259 -0.841409 0
M  V30 3719 C 339.732 -1.24572 -1.5965 0
M  V30 3720 C 340.06 0.189137 -1.93578 0
M  V30 3721 O 339.315 1.14566 -1.5866 0
M  V30 3722 C 339.614 -2.06381 -2.9179 0
M  V30 3723 C 339.28 -3.556 -2.77235 0
M  V30 3724 C 337.942 -3.96282 -2.72973 0
M  V30 3725 C 340.294 -4.50433 -2.62221 0
M  V30 3726 C 337.622 -5.30017 -2.51592 0
M  V30 3727 C 339.974 -5.84327 -2.42374 0
M  V30 3728 C 338.638 -6.24194 -2.36512 0
M  V30 3729 H 337.908 -0.455842 -0.5842 0
M  V30 3730 H 340.555 -1.6482 -0.975016 0
M  V30 3731 H 338.86 -1.58903 -3.5813 0
M  V30 3732 H 340.557 -1.97019 -3.49263 0
M  V30 3733 H 337.147 -3.23298 -2.81384 0
M  V30 3734 H 341.331 -4.19914 -2.64549 0
M  V30 3735 H 336.587 -5.59947 -2.45499 0
M  V30 3736 H 340.761 -6.57414 -2.29739 0
M  V30 3737 H 338.388 -7.27759 -2.19706 0
M  V30 3738 N 339.963 1.05934 -1.16686 0
M  V30 3739 C 341.193 1.82226 -0.973515 0
M  V30 3740 C 341.601 1.8297 0.481532 0
M  V30 3741 O 340.944 1.25009 1.34604 0
M  V30 3742 C 341.006 3.29897 -1.42858 0
M  V30 3743 C 340.67 3.52849 -2.90425 0
M  V30 3744 C 341.667 3.45595 -3.88407 0
M  V30 3745 C 339.352 3.80053 -3.28428 0
M  V30 3746 C 341.346 3.65217 -5.22394 0
M  V30 3747 C 339.033 3.99325 -4.62583 0
M  V30 3748 C 340.031 3.91905 -5.59374 0
M  V30 3749 O 339.719 4.10647 -6.91104 0
M  V30 3750 H 339.451 0.581314 -0.345036 0
M  V30 3751 H 342.005 1.3453 -1.55212 0
M  V30 3752 H 340.235 3.78472 -0.793477 0
M  V30 3753 H 341.924 3.87692 -1.20207 0
M  V30 3754 H 342.69 3.24564 -3.60393 0
M  V30 3755 H 338.569 3.84936 -2.53664 0
M  V30 3756 H 342.113 3.59341 -5.9793 0
M  V30 3757 H 338.01 4.19846 -4.90306 0
M  V30 3758 H 338.778 4.27915 -6.97733 0
M  V30 3759 N 341.441 0.965919 1.2453 0
M  V30 3760 C 342.852 0.665929 1.7442 0
M  V30 3761 C 343.203 -0.818407 1.78316 0
M  V30 3762 O 342.328 -1.64037 1.41141 0
M  V30 3763 C 342.923 1.20211 3.16757 0
M  V30 3764 C 341.482 0.952059 3.6416 0
M  V30 3765 C 340.629 1.33848 2.42858 0
M  V30 3766 H 343.58 1.14144 1.10258 0
M  V30 3767 H 343.601 0.567544 3.76244 0
M  V30 3768 H 343.113 2.28244 3.13889 0
M  V30 3769 H 341.214 -0.112821 3.72429 0
M  V30 3770 H 341.327 1.59645 4.51719 0
M  V30 3771 H 339.691 0.756864 2.43195 0
M  V30 3772 H 340.474 2.42827 2.42673 0
M  V30 3773 N 342.919 -1.39368 0.735821 0
M  V30 3774 C 344.167 -2.00101 0.283562 0
M  V30 3775 C 344.488 -1.5868 -1.13338 0
M  V30 3776 O 343.758 -0.835423 -1.77193 0
M  V30 3777 H 342.338 -0.740024 0.101851 0
M  V30 3778 H 345 -1.70404 0.945962 0
M  V30 3779 H 344.096 -3.10323 0.332604 0
M  V30 3780 N 344.397 -0.483516 -1.5 0
M  V30 3781 C 345.344 0.304164 -2.28787 0
M  V30 3782 C 346.314 0.976114 -1.34392 0
M  V30 3783 O 347.499 0.986156 -1.63339 0
M  V30 3784 C 344.639 1.37298 -3.16612 0
M  V30 3785 C 343.752 0.714561 -4.26049 0
M  V30 3786 C 342.887 1.76232 -5.01114 0
M  V30 3787 C 341.926 1.08483 -6.0241 0
M  V30 3788 N 341.063 2.076 -6.70706 0
M  V30 3789 H 345.903 -0.373981 -2.95644 0
M  V30 3790 H 343.44 -0.196275 -1.45785 0
M  V30 3791 H 345.398 2.00445 -3.65893 0
M  V30 3792 H 344.028 2.02012 -2.51776 0
M  V30 3793 H 343.08 -0.0297798 -3.80388 0
M  V30 3794 H 344.392 0.180383 -4.98474 0
M  V30 3795 H 343.546 2.46929 -5.54176 0
M  V30 3796 H 342.285 2.33033 -4.28424 0
M  V30 3797 H 341.29 0.363545 -5.48597 0
M  V30 3798 H 342.515 0.523551 -6.77079 0
M  V30 3799 H 340.461 2.63394 -6.00799 0
M  V30 3800 H 340.378 1.59201 -7.39047 0
M  V30 3801 H 341.646 2.77639 -7.2838 0
M  V30 3802 N 345.875 1.56104 -0.216619 0
M  V30 3803 C 347.124 1.97348 0.416744 0
M  V30 3804 C 347.437 1.10715 1.6125 0
M  V30 3805 O 348.643 1.41836 2.31506 0
M  V30 3806 C 347.099 3.51059 0.792835 0
M  V30 3807 C 346.707 4.46387 -0.379828 0
M  V30 3808 C 348.451 4.01026 1.39208 0
M  V30 3809 C 346.358 5.91397 0.0184223 0
M  V30 3810 H 345.288 0.736942 0.159475 0
M  V30 3811 H 347.939 1.80827 -0.31205 0
M  V30 3812 H 346.321 3.63162 1.57891 0
M  V30 3813 H 347.495 4.46029 -1.15737 0
M  V30 3814 H 345.81 4.06734 -0.891979 0
M  V30 3815 H 348.407 5.0686 1.70286 0
M  V30 3816 H 348.75 3.46587 2.30614 0
M  V30 3817 H 349.283 3.92125 0.669537 0
M  V30 3818 H 346.022 6.49807 -0.862002 0
M  V30 3819 H 345.542 5.94961 0.760384 0
M  V30 3820 H 347.221 6.45455 0.446818 0
M  V30 3821 N 347.353 -0.0568162 1.57498 0
M  V30 3822 C 348.63 -0.786954 1.79071 0
M  V30 3823 C 349.01 -1.95028 0.80792 0
M  V30 3824 O 348.358 -2.27968 -0.155858 0
M  V30 3825 C 348.568 -1.24594 3.26002 0
M  V30 3826 C 349.916 -1.67323 3.90241 0
M  V30 3827 O 350.94 -1.34124 3.29984 0
M  V30 3828 O 349.799 -2.28842 4.9628 0
M  V30 3829 H 346.893 -0.378262 0.735423 0
M  V30 3830 H 349.439 -0.035734 1.69662 0
M  V30 3831 H 348.211 -0.41423 3.89101 0
M  V30 3832 H 347.834 -2.05803 3.40192 0
M  V30 3833 N 348.832 -1.54138 -0.328536 0
M  V30 3834 C 350.078 -1.7236 -1.06865 0
M  V30 3835 C 350.411 -0.493231 -1.87832 0
M  V30 3836 O 349.686 0.5098 -1.877 0
M  V30 3837 C 349.969 -2.99621 -1.99747 0
M  V30 3838 C 349.822 -4.32899 -1.22143 0
M  V30 3839 C 351.141 -3.22615 -2.99345 0
M  V30 3840 H 348.26 -0.627151 -0.387105 0
M  V30 3841 H 350.902 -1.86827 -0.345767 0
M  V30 3842 H 349.052 -2.87418 -2.61387 0
M  V30 3843 H 350.724 -4.56978 -0.630017 0
M  V30 3844 H 348.967 -4.30628 -0.523628 0
M  V30 3845 H 349.638 -5.18154 -1.90318 0
M  V30 3846 H 352.114 -3.34248 -2.47826 0
M  V30 3847 H 350.99 -4.13027 -3.61524 0
M  V30 3848 H 351.251 -2.3961 -3.71536 0
M  V30 3849 N 350.31 0.590341 -1.46126 0
M  V30 3850 C 351.26 1.69466 -1.5253 0
M  V30 3851 C 352.244 1.56179 -0.386917 0
M  V30 3852 O 353.436 1.65223 -0.634858 0
M  V30 3853 C 350.565 3.08245 -1.5113 0
M  V30 3854 C 349.651 3.26856 -2.70233 0
M  V30 3855 N 350.042 3.15657 -3.95214 0
M  V30 3856 C 348.34 3.57775 -2.66296 0
M  V30 3857 C 349.041 3.36066 -4.74799 0
M  V30 3858 N 348.017 3.60865 -4.06543 0
M  V30 3859 H 351.819 1.59326 -2.46966 0
M  V30 3860 H 349.333 0.79414 -1.41659 0
M  V30 3861 H 351.33 3.87492 -1.53804 0
M  V30 3862 H 349.99 3.19521 -0.577636 0
M  V30 3863 H 351.001 2.93686 -4.26578 0
M  V30 3864 H 347.678 3.75782 -1.81918 0
M  V30 3865 H 349.068 3.32655 -5.83772 0
M  V30 3866 N 351.788 1.33704 0.83433 0
M  V30 3867 C 353.034 1.26612 1.59188 0
M  V30 3868 C 353.389 -0.165439 1.91687 0
M  V30 3869 O 352.682 -1.10873 1.56262 0
M  V30 3870 C 352.876 2.07926 2.90692 0
M  V30 3871 C 352.705 3.58844 2.71038 0
M  V30 3872 C 351.475 4.28148 2.68361 0
M  V30 3873 C 353.673 4.53082 2.43353 0
M  V30 3874 N 351.655 5.64987 2.40132 0
M  V30 3875 C 353.026 5.77843 2.24716 0
M  V30 3876 C 355.081 4.42119 2.28987 0
M  V30 3877 C 353.784 6.92877 1.9317 0
M  V30 3878 C 355.81 5.56973 1.98835 0
M  V30 3879 C 355.172 6.80745 1.81012 0
M  V30 3880 H 351.271 0.518517 0.585375 0
M  V30 3881 H 353.855 1.68294 0.979044 0
M  V30 3882 H 352.026 1.68558 3.49918 0
M  V30 3883 H 353.758 1.92568 3.55949 0
M  V30 3884 H 350.513 3.80469 2.82029 0
M  V30 3885 H 350.937 6.37133 2.28889 0
M  V30 3886 H 355.579 3.47058 2.41477 0
M  V30 3887 H 353.297 7.87931 1.79418 0
M  V30 3888 H 356.883 5.50428 1.88468 0
M  V30 3889 H 355.763 7.68115 1.58017 0
M  V30 3890 N 353.266 -1.05314 1.17247 0
M  V30 3891 C 354.494 -1.81971 0.984593 0
M  V30 3892 C 354.909 -1.82929 -0.467166 0
M  V30 3893 O 354.266 -1.25564 -1.32438 0
M  V30 3894 C 354.317 -3.28143 1.51672 0
M  V30 3895 O 354.038 -3.27347 2.91163 0
M  V30 3896 C 355.539 -4.21493 1.37326 0
M  V30 3897 H 352.759 -0.573455 0.348411 0
M  V30 3898 H 355.303 -1.32808 1.55506 0
M  V30 3899 H 353.458 -3.74582 0.988302 0
M  V30 3900 H 353.872 -4.18824 3.15732 0
M  V30 3901 H 355.346 -5.22043 1.79375 0
M  V30 3902 H 355.823 -4.38031 0.320169 0
M  V30 3903 H 356.429 -3.80909 1.89178 0
M  V30 3904 N 354.744 -0.972509 -1.24016 0
M  V30 3905 C 356.16 -0.679827 -1.44397 0
M  V30 3906 C 356.36 0.756716 -1.86751 0
M  V30 3907 O 355.416 1.53007 -2.00861 0
M  V30 3908 C 356.729 -1.66803 -2.50195 0
M  V30 3909 C 358.277 -1.68119 -2.64017 0
M  V30 3910 C 358.752 -2.65748 -3.73017 0
M  V30 3911 N 360.243 -2.64219 -3.8045 0
M  V30 3912 C 360.978 -3.36433 -4.64328 0
M  V30 3913 N 360.474 -4.1818 -5.52356 0
M  V30 3914 N 362.267 -3.25235 -4.58453 0
M  V30 3915 H 354.418 -1.90059 -0.948228 0
M  V30 3916 H 356.681 -0.818527 -0.478245 0
M  V30 3917 H 356.387 -2.69498 -2.25973 0
M  V30 3918 H 356.261 -1.4446 -3.48441 0
M  V30 3919 H 358.648 -0.661319 -2.87594 0
M  V30 3920 H 358.729 -1.94525 -1.66113 0
M  V30 3921 H 358.373 -3.67872 -3.50189 0
M  V30 3922 H 358.303 -2.36619 -4.70446 0
M  V30 3923 H 360.794 -2.04887 -3.17537 0
M  V30 3924 H 361.107 -4.70157 -6.13329 0
M  V30 3925 H 359.452 -4.22273 -5.52006 0
M  V30 3926 H 362.643 -2.60829 -3.88698 0
M  V30 3927 H 362.816 -3.81776 -5.23594 0
M  V30 3928 N 356.222 1.38976 -0.743202 0
M  V30 3929 C 357.185 2.28901 -0.117014 0
M  V30 3930 C 358.185 1.46698 0.658503 0
M  V30 3931 O 359.375 1.67274 0.486305 0
M  V30 3932 C 356.507 3.30309 0.84315 0
M  V30 3933 H 357.7 2.8578 -0.909373 0
M  V30 3934 H 355.253 1.47761 -0.509547 0
M  V30 3935 H 355.988 2.785 1.66157 0
M  V30 3936 H 355.773 3.91029 0.289594 0
M  V30 3937 H 357.263 3.97577 1.2776 0
M  V30 3938 N 357.7 0.491464 1.49741 0
M  V30 3939 C 358.948 -0.0563141 2.02022 0
M  V30 3940 C 359.269 -1.38363 1.37407 0
M  V30 3941 O 358.539 -1.88702 0.526166 0
M  V30 3942 H 357.119 -0.0238014 0.746621 0
M  V30 3943 H 359.781 0.646533 1.83864 0
M  V30 3944 H 358.877 -0.192967 3.11503 0
M  V30 3945 N 359.178 -1.55987 0.224894 0
M  V30 3946 C 360.088 -2.24066 -0.69511 0
M  V30 3947 C 361.104 -1.24939 -1.21104 0
M  V30 3948 O 362.28 -1.5776 -1.25195 0
M  V30 3949 C 359.345 -2.90983 -1.88493 0
M  V30 3950 C 358.406 -4.05462 -1.41064 0
M  V30 3951 C 357.639 -4.69179 -2.54375 0
M  V30 3952 O 357.862 -4.31895 -3.72589 0
M  V30 3953 O 356.796 -5.58108 -2.25386 0
M  V30 3954 H 360.622 -3.03353 -0.145149 0
M  V30 3955 H 358.207 -1.49399 -0.00569476 0
M  V30 3956 H 360.089 -3.33209 -2.57972 0
M  V30 3957 H 358.764 -2.14653 -2.42293 0
M  V30 3958 H 357.671 -3.67798 -0.683774 0
M  V30 3959 H 359.004 -4.83545 -0.918985 0
M  V30 3960 N 360.656 0.0484629 -1.57525 0
M  V30 3961 C 361.902 0.744226 -1.88651 0
M  V30 3962 C 362.235 1.76029 -0.820212 0
M  V30 3963 O 361.51 1.93782 0.166985 0
M  V30 3964 C 361.793 1.43128 -3.30434 0
M  V30 3965 C 361.646 0.43005 -4.47739 0
M  V30 3966 C 362.965 2.37031 -3.70816 0
M  V30 3967 H 360.084 0.269089 -0.68612 0
M  V30 3968 H 362.726 0.00713532 -1.89999 0
M  V30 3969 H 360.876 2.05956 -3.29415 0
M  V30 3970 H 362.548 -0.194816 -4.60888 0
M  V30 3971 H 360.791 -0.252522 -4.33064 0
M  V30 3972 H 361.462 0.948874 -5.43783 0
M  V30 3973 H 363.938 1.84263 -3.73077 0
M  V30 3974 H 362.814 2.82094 -4.70865 0
M  V30 3975 H 363.075 3.22864 -3.02012 0
M  V30 3976 N 362.134 1.5431 0.320358 0
M  V30 3977 C 363.066 1.80262 1.41556 0
M  V30 3978 C 364.079 0.684723 1.477 0
M  V30 3979 O 365.268 0.961886 1.50366 0
M  V30 3980 C 362.368 1.90825 2.8007 0
M  V30 3981 C 361.541 3.21023 2.97091 0
M  V30 3982 C 360.6 3.22247 4.15985 0
M  V30 3983 O 359.626 3.95871 4.08992 0
M  V30 3984 N 360.828 2.46258 5.25678 0
M  V30 3985 H 363.593 2.74778 1.19655 0
M  V30 3986 H 361.154 1.53646 0.510358 0
M  V30 3987 H 363.146 1.89067 3.57821 0
M  V30 3988 H 361.716 1.03392 2.95006 0
M  V30 3989 H 360.936 3.35715 2.06614 0
M  V30 3990 H 362.224 4.0698 3.05361 0
M  V30 3991 H 361.622 1.86037 5.34235 0
M  V30 3992 H 360.179 2.50275 6.01835 0
M  V30 3993 N 363.613 -0.582584 1.46437 0
M  V30 3994 C 364.523 -1.71949 1.59595 0
M  V30 3995 C 365.539 -1.67264 0.479443 0
M  V30 3996 O 366.715 -1.87171 0.743579 0
M  V30 3997 C 363.78 -3.08452 1.58298 0
M  V30 3998 C 362.841 -3.244 2.81182 0
M  V30 3999 C 362.074 -4.54391 2.79937 0
M  V30 4000 O 362.297 -5.38287 1.8869 0
M  V30 4001 O 361.231 -4.73588 3.71481 0
M  V30 4002 H 365.057 -1.63795 2.55744 0
M  V30 4003 H 362.642 -0.749643 1.29231 0
M  V30 4004 H 364.524 -3.89732 1.60271 0
M  V30 4005 H 363.199 -3.17043 0.653094 0
M  V30 4006 H 362.106 -2.42613 2.84763 0
M  V30 4007 H 363.439 -3.20699 3.7338 0
M  V30 4008 N 365.091 -1.34144 -0.827227 0
M  V30 4009 C 366.502 -1.23557 -1.39966 0
M  V30 4010 C 366.853 0.140731 -1.95695 0
M  V30 4011 O 365.978 1.04087 -1.89723 0
M  V30 4012 C 366.573 -2.23708 -2.54441 0
M  V30 4013 C 365.132 -2.16924 -3.07605 0
M  V30 4014 C 364.279 -2.10549 -1.80456 0
M  V30 4015 H 367.23 -1.45573 -0.631991 0
M  V30 4016 H 367.251 -1.85157 -3.32411 0
M  V30 4017 H 366.763 -3.23866 -2.13851 0
M  V30 4018 H 364.864 -1.20107 -3.52711 0
M  V30 4019 H 364.977 -3.07988 -3.66988 0
M  V30 4020 H 363.341 -1.56203 -2.01178 0
M  V30 4021 H 364.124 -3.12535 -1.42046 0
M  V30 4022 N 366.569 1.04691 -1.17803 0
M  V30 4023 C 367.479 2.16057 -0.914151 0
M  V30 4024 C 368.495 1.73589 0.119503 0
M  V30 4025 O 369.671 2.01308 -0.0609468 0
M  V30 4026 C 366.736 3.4394 -0.436603 0
M  V30 4027 C 365.797 4.00825 -1.53746 0
M  V30 4028 C 365.03 5.22604 -1.0826 0
M  V30 4029 O 365.253 5.70367 0.0612244 0
M  V30 4030 O 364.187 5.7186 -1.87775 0
M  V30 4031 H 368.013 2.41169 -1.84584 0
M  V30 4032 H 365.598 1.1453 -0.959334 0
M  V30 4033 H 367.48 4.21024 -0.178057 0
M  V30 4034 H 366.155 3.20316 0.466869 0
M  V30 4035 H 365.062 3.25158 -1.84995 0
M  V30 4036 H 366.395 4.28778 -2.41683 0
M  V30 4037 N 368.047 0.979072 1.23499 0
M  V30 4038 C 368.977 0.537606 2.27227 0
M  V30 4039 C 369.958 -0.428539 1.64613 0
M  V30 4040 O 371.143 -0.322191 1.91509 0
M  V30 4041 C 368.273 -0.162052 3.46922 0
M  V30 4042 C 367.227 0.721242 4.21879 0
M  V30 4043 C 366.553 -0.110555 5.34586 0
M  V30 4044 C 367.853 2.01141 4.82016 0
M  V30 4045 H 369.547 1.40462 2.64406 0
M  V30 4046 H 367.093 0.67684 1.27102 0
M  V30 4047 H 369.046 -0.482192 4.18632 0
M  V30 4048 H 367.77 -1.06351 3.08799 0
M  V30 4049 H 366.429 1.02482 3.51984 0
M  V30 4050 H 366.077 -1.0125 4.92704 0
M  V30 4051 H 365.777 0.477325 5.85658 0
M  V30 4052 H 367.301 -0.425107 6.09118 0
M  V30 4053 H 368.715 1.75612 5.45741 0
M  V30 4054 H 367.112 2.54695 5.43369 0
M  V30 4055 H 368.182 2.69909 4.02836 0
M  V30 4056 N 369.525 -1.3858 0.750561 0
M  V30 4057 C 370.941 -1.53759 0.427824 0
M  V30 4058 C 371.141 -1.71401 -1.05943 0
M  V30 4059 O 370.197 -1.72331 -1.84549 0
M  V30 4060 C 371.51 -2.74642 1.22443 0
M  V30 4061 C 373.058 -2.88489 1.2142 0
M  V30 4062 C 373.533 -4.12329 1.9937 0
M  V30 4063 N 375.024 -4.194 1.96616 0
M  V30 4064 C 375.759 -5.14209 2.53727 0
M  V30 4065 N 375.255 -6.14709 3.19539 0
M  V30 4066 N 377.048 -5.06537 2.43673 0
M  V30 4067 H 369.199 -1.25377 1.71447 0
M  V30 4068 H 371.462 -0.608844 0.726645 0
M  V30 4069 H 371.168 -2.68 2.27747 0
M  V30 4070 H 371.042 -3.67745 0.839273 0
M  V30 4071 H 373.429 -2.94614 0.169232 0
M  V30 4072 H 373.51 -1.96406 1.63885 0
M  V30 4073 H 373.154 -4.06966 3.03877 0
M  V30 4074 H 373.084 -5.03486 1.54302 0
M  V30 4075 H 375.575 -3.47421 1.48684 0
M  V30 4076 H 375.888 -6.8354 3.60545 0
M  V30 4077 H 374.233 -6.1505 3.23633 0
M  V30 4078 H 377.424 -4.26962 1.91889 0
M  V30 4079 H 377.597 -5.80245 2.88479 0
M  V30 4080 N 371.003 -0.499398 -1.49478 0
M  V30 4081 C 372.251 0.0455996 -2.02049 0
M  V30 4082 C 372.572 1.37633 -1.38138 0
M  V30 4083 O 371.842 1.8842 -0.536166 0
M  V30 4084 H 370.422 0.0198416 -0.746736 0
M  V30 4085 H 373.084 -0.656274 -1.83519 0
M  V30 4086 H 372.18 0.176445 -3.11601 0
M  V30 4087 N 372.481 1.55866 -0.233164 0
M  V30 4088 C 373.758 1.90471 0.444988 0
M  V30 4089 C 374.138 1.15209 1.7689 0
M  V30 4090 O 373.486 0.265119 2.26957 0
M  V30 4091 C 373.696 3.4333 0.626559 0
M  V30 4092 C 375.044 4.14319 0.92871 0
M  V30 4093 O 376.068 3.48993 0.712926 0
M  V30 4094 O 374.927 5.29846 1.33887 0
M  V30 4095 H 372.021 0.792347 0.236885 0
M  V30 4096 H 374.567 1.67437 -0.276211 0
M  V30 4097 H 373.339 3.90095 -0.306822 0
M  V30 4098 H 372.962 3.72181 1.39881 0
M  V30 4099 N 373.959 -0.0401083 1.57549 0
M  V30 4100 C 375.205 -0.734211 1.89043 0
M  V30 4101 C 375.538 -1.75591 0.829535 0
M  V30 4102 O 374.813 -1.93868 -0.156706 0
M  V30 4103 C 375.096 -1.41374 3.31188 0
M  V30 4104 C 374.949 -0.406299 4.47961 0
M  V30 4105 C 376.268 -2.35061 3.72068 0
M  V30 4106 H 373.387 -0.265447 0.687537 0
M  V30 4107 H 376.029 0.00294087 1.9 0
M  V30 4108 H 374.179 -2.04206 3.30503 0
M  V30 4109 H 375.851 0.219255 4.60779 0
M  V30 4110 H 374.094 0.275485 4.32924 0
M  V30 4111 H 374.765 -0.920022 5.44279 0
M  V30 4112 H 377.241 -1.82282 3.74049 0
M  V30 4113 H 376.117 -2.79593 4.72355 0
M  V30 4114 H 376.378 -3.21258 3.0372 0
M  V30 4115 N 375.437 -1.54477 -0.31217 0
M  V30 4116 C 376.367 -1.87652 -1.38957 0
M  V30 4117 C 377.348 -0.734358 -1.53431 0
M  V30 4118 O 378.533 -0.98911 -1.67123 0
M  V30 4119 C 375.663 -2.11396 -2.75552 0
M  V30 4120 C 374.617 -3.27243 -2.75855 0
M  V30 4121 C 373.943 -3.36382 -4.15633 0
M  V30 4122 C 375.243 -4.64622 -2.38587 0
M  V30 4123 H 376.937 -2.77887 -1.11442 0
M  V30 4124 H 374.483 -1.33707 -0.534655 0
M  V30 4125 H 376.436 -2.33189 -3.51 0
M  V30 4126 H 375.16 -1.17921 -3.04569 0
M  V30 4127 H 373.819 -3.05356 -2.02863 0
M  V30 4128 H 373.467 -2.40445 -4.41809 0
M  V30 4129 H 373.167 -4.14249 -4.1674 0
M  V30 4130 H 374.691 -3.60422 -4.92877 0
M  V30 4131 H 376.105 -4.86219 -3.03749 0
M  V30 4132 H 374.502 -5.45121 -2.50925 0
M  V30 4133 H 375.572 -4.66097 -1.33723 0
M  V30 4134 N 376.915 0.57481 -1.46744 0
M  V30 4135 C 377.865 1.67838 -1.54319 0
M  V30 4136 C 378.849 1.55759 -0.40346 0
M  V30 4137 O 380.041 1.6454 -0.652347 0
M  V30 4138 C 377.17 3.06624 -1.5439 0
M  V30 4139 C 376.256 3.23971 -2.73685 0
M  V30 4140 N 376.647 3.11447 -3.9854 0
M  V30 4141 C 374.945 3.5493 -2.70075 0
M  V30 4142 C 375.646 3.31011 -4.78337 0
M  V30 4143 N 374.622 3.56533 -4.10348 0
M  V30 4144 H 378.424 1.56698 -2.48642 0
M  V30 4145 H 375.938 0.779071 -1.42493 0
M  V30 4146 H 377.935 3.85839 -1.57905 0
M  V30 4147 H 376.595 3.1889 -0.611493 0
M  V30 4148 H 377.606 2.89145 -4.29669 0
M  V30 4149 H 374.283 3.73832 -1.85893 0
M  V30 4150 H 375.673 3.26445 -5.87268 0
M  V30 4151 N 378.394 1.34581 0.820102 0
M  V30 4152 C 379.342 1.26401 1.95258 0
M  V30 4153 C 380.336 0.161553 1.68628 0
M  V30 4154 O 381.542 0.326703 1.7701 0
M  V30 4155 H 377.917 0.392749 0.64129 0
M  V30 4156 H 379.888 2.22105 1.99279 0
M  V30 4157 C 378.637 1.03919 3.31807 0
M  V30 4158 H 377.96 1.87984 3.52848 0
M  V30 4159 H 379.4 1.02232 4.11491 0
M  V30 4160 C 377.859 -0.257433 3.35915 0
M  V30 4161 O 378.389 -1.25784 3.81499 0
M  V30 4162 N 376.595 -0.291524 2.89134 0
M  V30 4163 H 376.142 0.523161 2.52232 0
M  V30 4164 H 376.1 -1.15883 2.92264 0
M  V30 4165 N 379.872 -1.04064 1.18357 0
M  V30 4166 C 381.12 -1.76915 0.977013 0
M  V30 4167 C 381.441 -1.88624 -0.494577 0
M  V30 4168 O 380.711 -1.41125 -1.3587 0
M  V30 4169 H 379.291 -0.65535 0.358504 0
M  V30 4170 H 381.953 -1.25592 1.49039 0
M  V30 4171 H 381.049 -2.78178 1.41504 0
M  V30 4172 N 381.35 -0.985608 -1.22978 0
M  V30 4173 C 382.298 -0.522631 -2.26652 0
M  V30 4174 C 383.292 0.422998 -1.64034 0
M  V30 4175 O 384.498 0.296319 -1.77544 0
M  V30 4176 H 380.873 -0.150597 -0.736766 0
M  V30 4177 H 382.844 -1.40863 -2.63059 0
M  V30 4178 C 381.593 0.154238 -3.47358 0
M  V30 4179 H 380.916 -0.564329 -3.95797 0
M  V30 4180 H 382.356 0.441744 -4.21693 0
M  V30 4181 C 380.815 1.38719 -3.07016 0
M  V30 4182 O 381.345 2.48307 -3.15764 0
M  V30 4183 N 379.551 1.25975 -2.61875 0
M  V30 4184 H 379.098 0.368068 -2.54957 0
M  V30 4185 H 379.056 2.08578 -2.3525 0
M  V30 4186 N 382.828 1.3818 -0.7579 0
M  V30 4187 C 384.076 1.99624 -0.315361 0
M  V30 4188 C 384.397 1.60464 1.10799 0
M  V30 4189 O 383.667 0.863507 1.75842 0
M  V30 4190 H 382.247 0.73831 -0.113611 0
M  V30 4191 H 384.909 1.68878 -0.972952 0
M  V30 4192 H 384.005 3.09754 -0.381931 0
M  V30 4193 N 384.306 0.507319 1.49211 0
M  V30 4194 C 385.534 -0.0315749 2.06876 0
M  V30 4195 C 385.949 -1.30241 1.36685 0
M  V30 4196 O 385.306 -1.76937 0.447152 0
M  V30 4197 C 385.357 -0.282627 3.60393 0
M  V30 4198 O 385.078 0.937835 4.27944 0
M  V30 4199 C 386.579 -0.864453 4.3479 0
M  V30 4200 H 383.799 0.0233048 0.670595 0
M  V30 4201 H 386.343 0.706484 1.91909 0
M  V30 4202 H 384.498 -0.97068 3.75042 0
M  V30 4203 H 384.912 0.704567 5.19746 0
M  V30 4204 H 386.386 -0.989664 5.43056 0
M  V30 4205 H 386.863 -1.86382 3.97692 0
M  V30 4206 H 387.469 -0.213672 4.24763 0
M  V30 4207 N 385.784 -1.5574 0.241426 0
M  V30 4208 C 387.014 -2.02913 -0.38857 0
M  V30 4209 C 387.422 -1.12014 -1.52478 0
M  V30 4210 O 386.765 -0.125903 -1.83268 0
M  V30 4211 C 386.827 -3.4636 -0.963075 0
M  V30 4212 C 386.491 -4.56982 0.0401916 0
M  V30 4213 C 387.488 -5.12941 0.847766 0
M  V30 4214 C 385.173 -5.0203 0.164699 0
M  V30 4215 C 387.167 -6.12437 1.76636 0
M  V30 4216 C 384.854 -6.01358 1.0868 0
M  V30 4217 C 385.852 -6.5644 1.88616 0
M  V30 4218 O 385.54 -7.53831 2.79273 0
M  V30 4219 H 385.272 -0.668983 -0.0971452 0
M  V30 4220 H 387.826 -2.02198 0.361248 0
M  V30 4221 H 386.056 -3.44206 -1.76235 0
M  V30 4222 H 387.745 -3.77065 -1.50257 0
M  V30 4223 H 388.511 -4.78974 0.762133 0
M  V30 4224 H 384.39 -4.58824 -0.447411 0
M  V30 4225 H 387.934 -6.55355 2.39071 0
M  V30 4226 H 383.831 -6.34746 1.17338 0
M  V30 4227 H 384.599 -7.71428 2.73572 0
M  V30 4228 N 387.262 0.0317525 -1.57568 0
M  V30 4229 C 388.194 1.06073 -2.03178 0
M  V30 4230 C 389.207 1.32627 -0.944132 0
M  V30 4231 O 390.396 1.30162 -1.22148 0
M  V30 4232 C 387.496 2.40297 -2.38978 0
M  V30 4233 C 386.669 2.33137 -3.70089 0
M  V30 4234 C 385.728 3.49787 -3.9311 0
M  V30 4235 O 384.754 3.29403 -4.64201 0
M  V30 4236 N 385.956 4.71562 -3.38541 0
M  V30 4237 H 388.721 0.672006 -2.92069 0
M  V30 4238 H 386.282 0.219745 -1.60402 0
M  V30 4239 H 388.274 3.1705 -2.51518 0
M  V30 4240 H 386.844 2.71024 -1.55771 0
M  V30 4241 H 386.064 1.415 -3.67928 0
M  V30 4242 H 387.352 2.25493 -4.56104 0
M  V30 4243 H 386.75 4.91024 -2.80912 0
M  V30 4244 H 385.307 5.45689 -3.56464 0
M  V30 4245 N 388.74 1.54641 0.303973 0
M  V30 4246 C 389.965 1.78092 1.06292 0
M  V30 4247 C 390.39 0.537342 1.80262 0
M  V30 4248 O 389.748 -0.511993 1.7392 0
M  V30 4249 C 389.796 2.98612 2.02147 0
M  V30 4250 O 388.9 2.71528 3.10397 0
M  V30 4251 H 388.241 0.589548 0.305497 0
M  V30 4252 H 390.771 2.01716 0.3423 0
M  V30 4253 H 390.781 3.265 2.44667 0
M  V30 4254 H 389.456 3.88785 1.47714 0
M  V30 4255 H 388.033 2.54648 2.72413 0
M  V30 4256 N 390.218 -0.567019 1.47046 0
M  V30 4257 C 391.464 -1.32434 1.54379 0
M  V30 4258 C 391.819 -1.91365 0.199276 0
M  V30 4259 O 391.112 -1.74378 -0.793915 0
M  V30 4260 C 391.306 -2.4623 2.59047 0
M  V30 4261 C 391.135 -1.98448 4.03545 0
M  V30 4262 C 389.905 -1.82741 4.71098 0
M  V30 4263 C 392.103 -1.53477 4.90866 0
M  V30 4264 N 390.085 -1.29196 6.00151 0
M  V30 4265 C 391.456 -1.1163 6.09868 0
M  V30 4266 C 393.511 -1.41438 4.77388 0
M  V30 4267 C 392.214 -0.589425 7.16881 0
M  V30 4268 C 394.24 -0.901528 5.84488 0
M  V30 4269 C 393.602 -0.492932 7.02673 0
M  V30 4270 H 389.701 -0.477005 0.61967 0
M  V30 4271 H 392.285 -0.643856 1.83746 0
M  V30 4272 H 390.456 -3.11821 2.31564 0
M  V30 4273 H 392.188 -3.13213 2.56281 0
M  V30 4274 H 388.943 -2.05162 4.26855 0
M  V30 4275 H 389.367 -1.0454 6.6888 0
M  V30 4276 H 394.009 -1.71643 3.86392 0
M  V30 4277 H 391.727 -0.274994 8.07632 0
M  V30 4278 H 395.313 -0.812071 5.76105 0
M  V30 4279 H 394.193 -0.102227 7.84133 0
M  V30 4280 N 391.696 -1.35014 -0.812953 0
M  V30 4281 C 392.942 -1.2812 -1.57204 0
M  V30 4282 C 393.275 0.145869 -1.93651 0
M  V30 4283 O 392.55 1.0937 -1.60836 0
M  V30 4284 C 392.833 -2.18162 -2.86492 0
M  V30 4285 C 392.686 -3.69454 -2.56561 0
M  V30 4286 C 394.005 -2.07439 -3.88145 0
M  V30 4287 H 391.124 -0.466746 -0.570366 0
M  V30 4288 H 393.766 -1.65357 -0.935783 0
M  V30 4289 H 391.916 -1.86535 -3.40789 0
M  V30 4290 H 393.588 -4.11493 -2.08497 0
M  V30 4291 H 391.831 -3.9005 -1.89851 0
M  V30 4292 H 392.502 -4.27835 -3.48799 0
M  V30 4293 H 394.978 -2.35228 -3.4323 0
M  V30 4294 H 393.854 -2.7265 -4.76396 0
M  V30 4295 H 394.115 -1.05439 -4.29343 0
M  V30 4296 N 393.175 1.03435 -1.18907 0
M  V30 4297 C 394.421 1.77005 -0.989798 0
M  V30 4298 C 394.754 1.88205 0.478816 0
M  V30 4299 O 394.029 1.39481 1.35556 0
M  V30 4300 C 394.312 3.19925 -1.65287 0
M  V30 4301 C 394.165 3.1663 -3.19477 0
M  V30 4302 C 395.484 4.18189 -1.37134 0
M  V30 4303 H 392.603 0.642538 -0.360991 0
M  V30 4304 H 395.245 1.20784 -1.46667 0
M  V30 4305 H 393.395 3.67929 -1.24741 0
M  V30 4306 H 395.067 2.76567 -3.692 0
M  V30 4307 H 393.31 2.54491 -3.51307 0
M  V30 4308 H 393.981 4.1758 -3.61013 0
M  V30 4309 H 396.457 3.78761 -1.72276 0
M  V30 4310 H 395.333 5.16394 -1.86087 0
M  V30 4311 H 395.594 4.41112 -0.295424 0
M  V30 4312 N 394.653 0.992116 1.22453 0
M  V30 4313 C 395.899 0.668523 1.91464 0
M  V30 4314 C 396.232 -0.797313 1.77078 0
M  V30 4315 O 395.507 -1.5765 1.13916 0
M  V30 4316 C 395.79 1.07424 3.43703 0
M  V30 4317 C 395.643 2.59857 3.67143 0
M  V30 4318 C 396.962 0.626891 4.35612 0
M  V30 4319 H 394.081 0.244341 0.695318 0
M  V30 4320 H 396.723 1.2355 1.44345 0
M  V30 4321 H 394.873 0.591816 3.83966 0
M  V30 4322 H 396.545 3.15764 3.3629 0
M  V30 4323 H 394.788 3.01961 3.11451 0
M  V30 4324 H 395.459 2.83296 4.73759 0
M  V30 4325 H 397.935 1.04125 4.02861 0
M  V30 4326 H 396.811 0.939076 5.40807 0
M  V30 4327 H 397.072 -0.472457 4.39568 0
M  V30 4328 N 396.131 -1.37776 0.765217 0
M  V30 4329 C 397.094 -2.28686 0.153416 0
M  V30 4330 C 398.094 -1.47727 -0.635081 0
M  V30 4331 O 399.284 -1.68027 -0.459632 0
M  V30 4332 C 396.416 -3.31608 -0.790495 0
M  V30 4333 H 397.609 -2.84297 0.954723 0
M  V30 4334 H 395.162 -1.46932 0.53299 0
M  V30 4335 H 395.897 -2.81109 -1.61705 0
M  V30 4336 H 395.682 -3.9144 -0.227348 0
M  V30 4337 H 397.172 -3.99559 -1.21419 0
M  V30 4338 N 397.609 -0.515225 -1.4894 0
M  V30 4339 C 398.855 0.0242508 -2.02785 0
M  V30 4340 C 399.188 1.35323 -1.39289 0
M  V30 4341 O 398.463 1.87041 -0.533469 0
M  V30 4342 C 398.746 0.16184 -3.59736 0
M  V30 4343 C 398.599 -1.19127 -4.33738 0
M  V30 4344 C 399.918 0.895719 -4.30888 0
M  V30 4345 H 397.037 0.00733914 -0.736963 0
M  V30 4346 H 399.679 -0.669395 -1.77818 0
M  V30 4347 H 397.829 0.752624 -3.8114 0
M  V30 4348 H 399.501 -1.82202 -4.23792 0
M  V30 4349 H 397.744 -1.77695 -3.95736 0
M  V30 4350 H 398.415 -1.04815 -5.41957 0
M  V30 4351 H 400.891 0.394528 -4.14225 0
M  V30 4352 H 399.767 0.960859 -5.40425 0
M  V30 4353 H 400.028 1.9427 -3.97129 0
M  V30 4354 N 399.087 1.5561 -0.249682 0
M  V30 4355 C 400.498 1.84979 0.252949 0
M  V30 4356 C 400.849 1.17153 1.57384 0
M  V30 4357 O 399.974 0.450884 2.11651 0
M  V30 4358 C 400.569 3.35584 0.465732 0
M  V30 4359 C 399.128 3.65169 0.912624 0
M  V30 4360 C 398.275 2.77299 -0.00859085 0
M  V30 4361 H 401.226 1.51513 -0.47217 0
M  V30 4362 H 401.247 3.57313 1.30795 0
M  V30 4363 H 400.759 3.8492 -0.49579 0
M  V30 4364 H 398.86 3.21312 1.88652 0
M  V30 4365 H 398.973 4.72912 0.767559 0
M  V30 4366 H 397.337 2.49678 0.50327 0
M  V30 4367 H 398.12 3.29442 -0.965537 0
M  V30 4368 N 400.565 -0.0233959 1.57583 0
M  V30 4369 C 401.976 -0.56927 1.77809 0
M  V30 4370 C 402.327 -1.75284 0.881472 0
M  V30 4371 O 401.452 -2.1626 0.0777805 0
M  V30 4372 C 402.047 -1.03949 3.22459 0
M  V30 4373 C 400.606 -1.53084 3.43864 0
M  V30 4374 C 399.753 -0.471454 2.73263 0
M  V30 4375 H 402.704 0.202825 1.57399 0
M  V30 4376 H 402.725 -1.90661 3.29285 0
M  V30 4377 H 402.237 -0.177865 3.87692 0
M  V30 4378 H 400.338 -2.41414 2.83814 0
M  V30 4379 H 400.451 -1.57443 4.52491 0
M  V30 4380 H 398.815 -0.927788 2.37201 0
M  V30 4381 H 399.598 0.380808 3.41181 0
M  V30 4382 N 402.043 -1.548 -0.295768 0
M  V30 4383 C 402.975 -1.82492 -1.3867 0
M  V30 4384 C 403.988 -0.708134 -1.46592 0
M  V30 4385 O 405.177 -0.985686 -1.48817 0
M  V30 4386 C 402.277 -1.95256 -2.76999 0
M  V30 4387 C 401.45 -3.25709 -2.91946 0
M  V30 4388 C 400.509 -3.28824 -4.10806 0
M  V30 4389 O 399.535 -4.02328 -4.02643 0
M  V30 4390 N 400.737 -2.5459 -5.21694 0
M  V30 4391 H 403.502 -2.76646 -1.15269 0
M  V30 4392 H 401.063 -1.54438 -0.485849 0
M  V30 4393 H 403.055 -1.94736 -3.54768 0
M  V30 4394 H 401.625 -1.08072 -2.93324 0
M  V30 4395 H 400.845 -3.38959 -2.01247 0
M  V30 4396 H 402.133 -4.11786 -2.98847 0
M  V30 4397 H 401.531 -1.94512 -5.31208 0
M  V30 4398 H 400.088 -2.59818 -5.97778 0
M  V30 4399 N 403.521 0.559213 -1.47345 0
M  V30 4400 C 404.798 1.31997 -1.44348 0
M  V30 4401 C 405.178 2.1064 -0.139358 0
M  V30 4402 O 404.526 2.1091 0.879153 0
M  V30 4403 C 404.736 2.22618 -2.68779 0
M  V30 4404 C 406.084 2.83701 -3.1591 0
M  V30 4405 O 407.108 2.32921 -2.69493 0
M  V30 4406 O 405.967 3.75993 -3.966 0
M  V30 4407 H 403.061 0.594251 -0.575147 0
M  V30 4408 H 405.607 0.578282 -1.59543 0
M  V30 4409 H 404.379 1.64093 -3.55231 0
M  V30 4410 H 404.002 3.04085 -2.5616 0
M  V30 4411 N 404.999 1.35443 0.805782 0
M  V30 4412 C 406.227 1.31878 1.59423 0
M  V30 4413 C 406.642 -0.103562 1.88516 0
M  V30 4414 O 405.999 -1.05575 1.48863 0
M  V30 4415 C 406.05 2.12426 2.92502 0
M  V30 4416 O 405.771 3.49115 2.6467 0
M  V30 4417 C 407.272 2.16455 3.86862 0
M  V30 4418 H 404.492 0.453002 0.495005 0
M  V30 4419 H 407.036 1.78309 1.00131 0
M  V30 4420 H 405.191 1.69593 3.48306 0
M  V30 4421 H 405.605 3.90957 3.49647 0
M  V30 4422 H 407.079 2.77204 4.77349 0
M  V30 4423 H 407.556 1.16352 4.23508 0
M  V30 4424 H 408.162 2.59453 3.36993 0
M  V30 4425 N 406.477 -1.02803 1.19454 0
M  V30 4426 C 407.44 -2.09264 0.934955 0
M  V30 4427 C 408.44 -1.60576 -0.0849015 0
M  V30 4428 O 409.63 -1.73554 0.149933 0
M  V30 4429 C 406.762 -3.38482 0.40531 0
M  V30 4430 H 407.955 -2.33726 1.87916 0
M  V30 4431 H 405.508 -1.19426 1.00832 0
M  V30 4432 H 406.243 -3.19689 -0.544899 0
M  V30 4433 H 406.028 -3.75142 1.14065 0
M  V30 4434 H 407.518 -4.16894 0.242806 0
M  V30 4435 N 407.956 -0.998596 -1.21925 0
M  V30 4436 C 409.367 -0.711939 -1.72593 0
M  V30 4437 C 409.718 0.770842 -1.80423 0
M  V30 4438 O 408.843 1.60237 -1.4544 0
M  V30 4439 C 409.438 -1.28567 -3.13458 0
M  V30 4440 C 407.997 -1.04828 -3.61508 0
M  V30 4441 C 407.144 -1.4024 -2.39224 0
M  V30 4442 H 410.095 -1.17027 -1.07193 0
M  V30 4443 H 410.116 -0.667098 -3.74607 0
M  V30 4444 H 409.628 -2.36486 -3.07727 0
M  V30 4445 H 407.729 0.0140383 -3.72597 0
M  V30 4446 H 407.842 -1.71566 -4.47328 0
M  V30 4447 H 406.206 -0.821077 -2.41103 0
M  V30 4448 H 406.989 -2.49176 -2.36149 0
M  V30 4449 N 409.434 1.37368 -0.772513 0
M  V30 4450 C 410.664 2.03647 -0.348082 0
M  V30 4451 C 411.072 1.58392 1.03482 0
M  V30 4452 O 410.415 0.760921 1.672 0
M  V30 4453 C 410.477 3.58131 -0.313404 0
M  V30 4454 C 410.141 4.2652 -1.64102 0
M  V30 4455 C 411.138 4.50587 -2.5936 0
M  V30 4456 C 408.823 4.64335 -1.91567 0
M  V30 4457 C 410.817 5.11526 -3.80289 0
M  V30 4458 C 408.504 5.24996 -3.12766 0
M  V30 4459 C 409.502 5.48529 -4.06946 0
M  V30 4460 O 409.19 6.07921 -5.26011 0
M  V30 4461 H 408.922 0.660538 -0.143753 0
M  V30 4462 H 411.476 1.76669 -1.04772 0
M  V30 4463 H 409.706 3.84159 0.442617 0
M  V30 4464 H 411.395 4.05813 0.0840613 0
M  V30 4465 H 412.161 4.21784 -2.39423 0
M  V30 4466 H 408.04 4.45353 -1.19088 0
M  V30 4467 H 411.584 5.29811 -4.53813 0
M  V30 4468 H 407.481 5.53223 -3.32588 0
M  V30 4469 H 408.249 6.26398 -5.26847 0
M  V30 4470 N 410.912 0.523116 1.48665 0
M  V30 4471 C 412.137 -0.0117284 2.07397 0
M  V30 4472 C 412.562 -1.28031 1.37803 0
M  V30 4473 O 411.92 -1.75836 0.441762 0
M  V30 4474 C 411.968 -0.225786 3.59892 0
M  V30 4475 O 411.072 -1.29592 3.91509 0
M  V30 4476 H 410.413 0.0360673 0.66302 0
M  V30 4477 H 412.943 0.729066 1.9117 0
M  V30 4478 H 412.953 -0.450552 4.05505 0
M  V30 4479 H 411.628 0.700944 4.09951 0
M  V30 4480 H 410.205 -1.05436 3.57684 0
M  V30 4481 N 412.39 -1.55475 0.257931 0
M  V30 4482 C 413.63 -2.01112 -0.365129 0
M  V30 4483 C 413.994 -1.1423 -1.54323 0
M  V30 4484 O 415.195 -1.49371 -2.23477 0
M  V30 4485 C 413.466 -3.49353 -0.754117 0
M  V30 4486 S 415.025 -4.16992 -1.36614 0
M  V30 4487 H 411.843 -0.701737 -0.114397 0
M  V30 4488 H 414.445 -1.91855 0.375747 0
M  V30 4489 H 413.149 -4.10246 0.112441 0
M  V30 4490 H 412.68 -3.6256 -1.52689 0
M  V30 4491 H 414.695 -4.19191 -2.65505 0
M  V30 4492 N 413.868 0.0150385 -1.57593 0
M  V30 4493 C 414.818 1.01943 -2.0394 0
M  V30 4494 C 415.802 1.31209 -0.931286 0
M  V30 4495 O 416.994 1.30559 -1.19513 0
M  V30 4496 C 414.123 2.31621 -2.53391 0
M  V30 4497 C 413.209 2.05384 -3.7105 0
M  V30 4498 N 413.6 1.49253 -4.83278 0
M  V30 4499 C 411.898 2.35601 -3.78693 0
M  V30 4500 C 412.599 1.39143 -5.64813 0
M  V30 4501 N 411.575 1.87187 -5.10355 0
M  V30 4502 H 415.377 0.57969 -2.88126 0
M  V30 4503 H 412.891 0.221056 -1.60888 0
M  V30 4504 H 414.888 3.044 -2.84862 0
M  V30 4505 H 413.548 2.76261 -1.70616 0
M  V30 4506 H 414.559 1.17334 -5.04433 0
M  V30 4507 H 411.236 2.8322 -3.06746 0
M  V30 4508 H 412.626 0.961153 -6.6499 0
M  V30 4509 N 415.346 1.54954 0.287554 0
M  V30 4510 C 416.592 1.75132 1.02257 0
M  V30 4511 C 416.925 0.542858 1.86458 0
M  V30 4512 O 416.2 -0.459856 1.88986 0
M  V30 4513 C 416.483 3.04812 1.91733 0
M  V30 4514 C 416.336 4.35985 1.10622 0
M  V30 4515 C 417.655 3.30438 2.90687 0
M  V30 4516 H 414.774 0.637194 0.370341 0
M  V30 4517 H 417.416 1.87678 0.296111 0
M  V30 4518 H 415.566 2.94247 2.53675 0
M  V30 4519 H 417.238 4.58487 0.508636 0
M  V30 4520 H 415.481 4.31865 0.409271 0
M  V30 4521 H 416.152 5.23017 1.76513 0
M  V30 4522 H 418.628 3.40701 2.38877 0
M  V30 4523 H 417.504 4.22467 3.50447 0
M  V30 4524 H 417.765 2.49377 3.65053 0
M  V30 4525 N 416.824 -0.551391 1.4764 0
M  V30 4526 C 417.756 -1.67333 1.56628 0
M  V30 4527 C 418.769 -1.56398 0.452045 0
M  V30 4528 O 419.958 -1.6325 0.721926 0
M  V30 4529 C 417.058 -3.05841 1.45994 0
M  V30 4530 C 416.231 -3.42472 2.72088 0
M  V30 4531 C 415.29 -4.60168 2.55209 0
M  V30 4532 O 414.316 -4.64458 3.2904 0
M  V30 4533 N 415.518 -5.57024 1.63416 0
M  V30 4534 H 418.283 -1.60066 2.53375 0
M  V30 4535 H 415.844 -0.738169 1.44093 0
M  V30 4536 H 417.836 -3.8242 1.32428 0
M  V30 4537 H 416.406 -3.07302 0.573071 0
M  V30 4538 H 415.626 -2.55284 3.00373 0
M  V30 4539 H 416.914 -3.63723 3.55785 0
M  V30 4540 H 416.312 -5.56319 1.02594 0
M  V30 4541 H 414.869 -6.32906 1.558 0
M  V30 4542 N 418.302 -1.35869 -0.798587 0
M  V30 4543 C 419.252 -1.25982 -1.90033 0
M  V30 4544 C 420.236 -0.153303 -1.60168 0
M  V30 4545 O 421.428 -0.38527 -1.72756 0
M  V30 4546 C 418.557 -1.04211 -3.27101 0
M  V30 4547 C 417.643 -2.19289 -3.63006 0
M  V30 4548 N 418.034 -3.44559 -3.70287 0
M  V30 4549 C 416.332 -2.10852 -3.93011 0
M  V30 4550 C 417.033 -4.20283 -4.02166 0
M  V30 4551 N 416.009 -3.49124 -4.16669 0
M  V30 4552 H 419.811 -2.20883 -1.93876 0
M  V30 4553 H 417.325 -1.28457 -0.993614 0
M  V30 4554 H 419.322 -0.952155 -4.05881 0
M  V30 4555 H 417.982 -0.102013 -3.2454 0
M  V30 4556 H 418.993 -3.7881 -3.53162 0
M  V30 4557 H 415.67 -1.24744 -3.98428 0
M  V30 4558 H 417.06 -5.28575 -4.14799 0
M  V30 4559 N 419.78 1.02168 -1.19998 0
M  V30 4560 C 421.005 1.79833 -1.03319 0
M  V30 4561 C 421.43 1.83504 0.413281 0
M  V30 4562 O 420.788 1.26635 1.29743 0
M  V30 4563 C 420.836 3.22396 -1.61533 0
M  V30 4564 O 419.94 4.03555 -0.849519 0
M  V30 4565 H 419.281 0.554872 -0.364709 0
M  V30 4566 H 421.811 1.28542 -1.59179 0
M  V30 4567 H 421.821 3.73124 -1.65054 0
M  V30 4568 H 420.496 3.19039 -2.66809 0
M  V30 4569 H 419.073 3.62169 -0.888129 0
M  V30 4570 N 421.258 1.00505 1.21394 0
M  V30 4571 C 422.483 0.706367 1.95001 0
M  V30 4572 C 422.908 -0.72463 1.73582 0
M  V30 4573 O 422.266 -1.49702 1.0227 0
M  V30 4574 C 422.314 1.03299 3.45487 0
M  V30 4575 O 421.418 0.138275 4.12168 0
M  V30 4576 H 420.759 0.263175 0.609619 0
M  V30 4577 H 423.289 1.34531 1.54151 0
M  V30 4578 H 423.299 0.979872 3.96059 0
M  V30 4579 H 421.974 2.07567 3.60401 0
M  V30 4580 H 420.551 0.247928 3.72075 0
M  V30 4581 N 422.737 -1.36956 0.779787 0
M  V30 4582 C 423.667 -2.32761 0.185651 0
M  V30 4583 C 424.648 -1.56177 -0.673989 0
M  V30 4584 O 425.833 -1.84378 -0.609797 0
M  V30 4585 C 422.963 -3.40418 -0.687964 0
M  V30 4586 C 421.917 -4.27941 0.0710102 0
M  V30 4587 C 421.243 -5.26681 -0.922573 0
M  V30 4588 C 422.543 -5.07006 1.25467 0
M  V30 4589 H 424.237 -2.82698 0.986008 0
M  V30 4590 H 421.783 -1.3592 0.475592 0
M  V30 4591 H 423.736 -4.06423 -1.11348 0
M  V30 4592 H 422.46 -2.89025 -1.52093 0
M  V30 4593 H 421.119 -3.63478 0.47739 0
M  V30 4594 H 420.767 -4.71565 -1.7503 0
M  V30 4595 H 420.467 -5.86103 -0.419237 0
M  V30 4596 H 421.991 -5.9556 -1.34686 0
M  V30 4597 H 423.405 -5.66105 0.905401 0
M  V30 4598 H 421.802 -5.75793 1.69063 0
M  V30 4599 H 422.872 -4.3921 2.05481 0
M  V30 4600 N 424.215 -0.530993 -1.48385 0
M  V30 4601 C 425.178 0.220497 -2.28137 0
M  V30 4602 C 426.178 0.866851 -1.35434 0
M  V30 4603 O 427.368 0.726746 -1.58316 0
M  V30 4604 C 424.5 1.31921 -3.1434 0
M  V30 4605 H 425.693 -0.479714 -2.96038 0
M  V30 4606 H 423.246 -0.286968 -1.53643 0
M  V30 4607 H 423.981 2.05264 -2.51072 0
M  V30 4608 H 423.766 0.86085 -3.82533 0
M  V30 4609 H 425.256 1.84776 -3.74497 0
M  V30 4610 N 425.693 1.55336 -0.266172 0
M  V30 4611 C 426.625 2.19544 0.658247 0
M  V30 4612 C 427.638 1.17746 1.12427 0
M  V30 4613 O 428.827 1.44517 1.04772 0
M  V30 4614 C 425.927 2.80032 1.9088 0
M  V30 4615 C 425.1 4.07436 1.59106 0
M  V30 4616 C 424.159 4.52056 2.69317 0
M  V30 4617 O 423.185 5.18023 2.35883 0
M  V30 4618 N 424.387 4.21448 3.99201 0
M  V30 4619 H 427.152 2.99503 0.108754 0
M  V30 4620 H 424.713 1.61667 -0.0869059 0
M  V30 4621 H 426.705 3.06831 2.63888 0
M  V30 4622 H 425.275 2.04119 2.36758 0
M  V30 4623 H 424.495 3.88021 0.695243 0
M  V30 4624 H 425.783 4.90462 1.35367 0
M  V30 4625 H 425.181 3.68528 4.29189 0
M  V30 4626 H 423.738 4.53039 4.68614 0
M  V30 4627 N 427.171 -0.0066808 1.57599 0
M  V30 4628 C 428.582 -0.550379 1.78403 0
M  V30 4629 C 428.933 -1.74339 0.900014 0
M  V30 4630 O 428.058 -2.16166 0.100713 0
M  V30 4631 C 428.653 -1.00523 3.23544 0
M  V30 4632 C 427.212 -1.49428 3.45468 0
M  V30 4633 C 426.359 -0.442444 2.73748 0
M  V30 4634 H 429.31 0.219508 1.57175 0
M  V30 4635 H 429.331 -1.87157 3.31289 0
M  V30 4636 H 428.843 -0.136735 3.87859 0
M  V30 4637 H 426.944 -2.3839 2.86358 0
M  V30 4638 H 427.057 -1.52635 4.54136 0
M  V30 4639 H 425.421 -0.902578 2.38171 0
M  V30 4640 H 426.204 0.416973 3.40758 0
M  V30 4641 N 428.649 -1.55105 -0.279332 0
M  V30 4642 C 429.579 -1.90557 -1.34945 0
M  V30 4643 C 430.56 -0.766738 -1.51839 0
M  V30 4644 O 431.745 -1.02434 -1.64988 0
M  V30 4645 C 428.875 -2.17193 -2.71006 0
M  V30 4646 C 427.829 -3.33021 -2.68851 0
M  V30 4647 C 427.155 -3.45123 -4.08405 0
M  V30 4648 C 428.455 -4.69578 -2.28678 0
M  V30 4649 H 430.149 -2.80188 -1.05522 0
M  V30 4650 H 427.695 -1.34811 -0.506173 0
M  V30 4651 H 429.648 -2.40581 -3.45975 0
M  V30 4652 H 428.372 -1.24355 -3.01999 0
M  V30 4653 H 427.031 -3.0959 -1.9634 0
M  V30 4654 H 426.679 -2.49762 -4.3661 0
M  V30 4655 H 426.379 -4.22995 -4.07859 0
M  V30 4656 H 427.903 -3.70796 -4.85121 0
M  V30 4657 H 429.317 -4.92553 -2.93368 0
M  V30 4658 H 427.714 -5.5032 -2.39306 0
M  V30 4659 H 428.784 -4.68828 -1.23807 0
M  V30 4660 N 430.127 0.543554 -1.4793 0
M  V30 4661 C 431.373 1.30201 -1.55485 0
M  V30 4662 C 431.706 1.92925 -0.222201 0
M  V30 4663 O 430.981 1.78586 0.77053 0
M  V30 4664 C 431.264 2.40174 -2.68307 0
M  V30 4665 C 431.117 1.8223 -4.11233 0
M  V30 4666 C 432.436 3.42024 -2.76961 0
M  V30 4667 H 429.555 0.472036 -0.565996 0
M  V30 4668 H 432.197 0.606914 -1.80046 0
M  V30 4669 H 430.347 2.99463 -2.47495 0
M  V30 4670 H 432.019 1.27096 -4.43446 0
M  V30 4671 H 430.262 1.12832 -4.18869 0
M  V30 4672 H 430.933 2.61793 -4.85972 0
M  V30 4673 H 433.409 2.92672 -2.95774 0
M  V30 4674 H 432.285 4.16383 -3.57654 0
M  V30 4675 H 432.546 4.0173 -1.84568 0
M  V30 4676 N 431.605 1.3629 0.791371 0
M  V30 4677 C 432.851 1.30605 1.55146 0
M  V30 4678 C 433.184 -0.115042 1.93859 0
M  V30 4679 O 432.459 -1.06798 1.62556 0
M  V30 4680 C 432.742 2.22692 2.82985 0
M  V30 4681 C 432.595 3.73489 2.50651 0
M  V30 4682 C 433.914 2.13588 3.84796 0
M  V30 4683 H 431.033 0.475761 0.562868 0
M  V30 4684 H 433.675 1.66825 0.909358 0
M  V30 4685 H 431.825 1.91933 3.37778 0
M  V30 4686 H 433.497 4.14758 2.01924 0
M  V30 4687 H 431.74 3.93021 1.83622 0
M  V30 4688 H 432.411 4.3333 3.41949 0
M  V30 4689 H 434.887 2.40659 3.39445 0
M  V30 4690 H 433.763 2.80195 4.71998 0
M  V30 4691 H 434.024 1.12256 4.27611 0
M  V30 4692 N 433.083 -1.0153 1.20538 0
M  V30 4693 C 434.494 -1.56598 1.01657 0
M  V30 4694 C 434.845 -1.91505 -0.426668 0
M  V30 4695 O 433.97 -1.72375 -1.30827 0
M  V30 4696 C 434.565 -2.84542 1.83905 0
M  V30 4697 C 433.124 -3.36133 1.69386 0
M  V30 4698 C 432.271 -2.09427 1.81757 0
M  V30 4699 H 435.222 -0.838974 1.34711 0
M  V30 4700 H 435.243 -3.56004 1.34319 0
M  V30 4701 H 434.755 -2.59105 2.8894 0
M  V30 4702 H 432.856 -3.66528 0.669933 0
M  V30 4703 H 432.969 -4.08248 2.50739 0
M  V30 4704 H 431.333 -2.21941 1.24957 0
M  V30 4705 H 432.116 -1.86414 2.88279 0
M  V30 4706 N 434.561 -1.01147 -1.20859 0
M  V30 4707 C 435.807 -0.708598 -1.90658 0
M  V30 4708 C 436.162 0.753069 -1.7705 0
M  V30 4709 O 435.455 1.53952 -1.14059 0
M  V30 4710 C 435.649 -1.0727 -3.40922 0
M  V30 4711 C 435.478 -2.56821 -3.69152 0
M  V30 4712 C 434.248 -3.23524 -3.8815 0
M  V30 4713 C 436.446 -3.54997 -3.72131 0
M  V30 4714 N 434.428 -4.62359 -4.03853 0
M  V30 4715 C 435.799 -4.79371 -3.93196 0
M  V30 4716 C 437.854 -3.49042 -3.55069 0
M  V30 4717 C 436.557 -5.98512 -3.98969 0
M  V30 4718 C 438.583 -4.67579 -3.6211 0
M  V30 4719 C 437.945 -5.9076 -3.83643 0
M  V30 4720 H 434.044 -0.31088 -0.71755 0
M  V30 4721 H 436.628 -1.29526 -1.45366 0
M  V30 4722 H 434.799 -0.51443 -3.84978 0
M  V30 4723 H 436.531 -0.723891 -3.98173 0
M  V30 4724 H 433.286 -2.73958 -3.86321 0
M  V30 4725 H 433.71 -5.34427 -4.15592 0
M  V30 4726 H 438.352 -2.54808 -3.37391 0
M  V30 4727 H 436.07 -6.93132 -4.15444 0
M  V30 4728 H 439.656 -4.64581 -3.50222 0
M  V30 4729 H 438.536 -6.8095 -3.88944 0
M  V30 4730 N 436.039 1.36541 -0.78704 0
M  V30 4731 C 436.949 2.3387 -0.184896 0
M  V30 4732 C 437.965 1.60927 0.661697 0
M  V30 4733 O 439.141 1.92927 0.57804 0
M  V30 4734 C 436.206 3.40122 0.672145 0
M  V30 4735 C 435.267 4.28867 -0.19267 0
M  V30 4736 C 434.5 5.30045 0.623561 0
M  V30 4737 O 434.723 5.39232 1.8597 0
M  V30 4738 O 433.657 6.01895 0.0247068 0
M  V30 4739 H 437.483 2.87126 -0.989562 0
M  V30 4740 H 435.068 1.38969 -0.548455 0
M  V30 4741 H 436.95 4.05093 1.16094 0
M  V30 4742 H 435.625 2.89169 1.45474 0
M  V30 4743 H 434.532 3.66945 -0.728166 0
M  V30 4744 H 435.865 4.83165 -0.938722 0
M  V30 4745 N 437.518 0.538854 1.48102 0
M  V30 4746 C 438.481 -0.208395 2.28251 0
M  V30 4747 C 439.481 -0.859656 1.35892 0
M  V30 4748 O 440.671 -0.71834 1.58699 0
M  V30 4749 C 437.803 -1.30252 3.15035 0
M  V30 4750 H 438.996 0.495407 2.9578 0
M  V30 4751 H 436.549 0.295112 1.53489 0
M  V30 4752 H 437.284 -2.0393 2.52157 0
M  V30 4753 H 437.069 -0.840551 3.82985 0
M  V30 4754 H 438.559 -1.82787 3.75471 0
M  V30 4755 N 438.996 -1.55193 0.274407 0
M  V30 4756 C 440.221 -2.04446 -0.348824 0
M  V30 4757 C 440.646 -1.15149 -1.48735 0
M  V30 4758 O 440.004 -0.149952 -1.80679 0
M  V30 4759 C 440.052 -3.51431 -0.808009 0
M  V30 4760 O 439.156 -3.65225 -1.91531 0
M  V30 4761 H 438.497 -0.66006 -0.0722276 0
M  V30 4762 H 441.027 -2.00481 0.408498 0
M  V30 4763 H 441.037 -3.92781 -1.10395 0
M  V30 4764 H 439.712 -4.15892 0.0249865 0
M  V30 4765 H 438.289 -3.35778 -1.62196 0
M  V30 4766 O 440.513 -0.140013 -1.60892 0
M  V30 4767 H 441.204 0.455152 -1.88277 0
M  V30 END ATOM
M  V30 BEGIN BOND
M  V30 END BOND
M  V30 END CTAB
M  END
$$$$
