drugbank_target|P01709 Ig lambda chain V-II region MGC (DB03088)
 OpenBabel12092120263D

  0  0  0     0  0            999 V3000
M  V30 BEGIN CTAB
M  V30 COUNTS 1583 1600 0 0 0
M  V30 BEGIN ATOM
M  V30 1 H -0.908 1.98254 -0.117106 0
M  V30 2 N 0 1.576 0 0
M  V30 3 C 0.932 2.05273 1.01958 0
M  V30 4 C 1.945 0.970662 1.30698 0
M  V30 5 O 3.134 1.24746 1.27674 0
M  V30 6 C 0.234 2.43771 2.35433 0
M  V30 7 C -0.593 3.74711 2.25633 0
M  V30 8 C -1.534 4.00077 3.41796 0
M  V30 9 O -2.508 4.70743 3.19984 0
M  V30 10 N -1.306 3.47973 4.64645 0
M  V30 11 H 1.459 2.93363 0.613025 0
M  V30 12 H -0.98 1.60812 0.187383 0
M  V30 13 H 1.012 2.57855 3.11918 0
M  V30 14 H -0.418 1.612 2.67831 0
M  V30 15 H -1.198 3.70705 1.34059 0
M  V30 16 H 0.09 4.60554 2.16258 0
M  V30 17 H -0.512 2.90748 4.85265 0
M  V30 18 H -1.955 3.67386 5.38396 0
M  V30 19 N 1.4781 -0.272755 1.55222 0
M  V30 20 C 2.7031 -1.02683 1.80197 0
M  V30 21 C 3.1281 -1.79142 0.573551 0
M  V30 22 O 2.4861 -1.74917 -0.476849 0
M  V30 23 C 2.5341 -1.9609 3.02624 0
M  V30 24 O 1.6381 -3.04863 2.77727 0
M  V30 25 H 0.9791 -0.293557 0.595584 0
M  V30 26 H 3.5091 -0.30159 2.02365 0
M  V30 27 H 3.5191 -2.38039 3.31363 0
M  V30 28 H 2.1941 -1.39851 3.91682 0
M  V30 29 H 0.7711 -2.67228 2.60084 0
M  V30 30 N 2.9562 -1.48159 -0.537278 0
M  V30 31 C 3.9192 -1.61665 -1.62472 0
M  V30 32 C 4.9192 -0.490395 -1.5314 0
M  V30 33 O 6.1092 -0.755998 -1.5694 0
M  V30 34 C 3.2412 -1.57997 -3.02076 0
M  V30 35 H 4.4342 -2.58621 -1.51839 0
M  V30 36 H 1.9872 -1.36647 -0.758771 0
M  V30 37 H 2.7222 -0.624913 -3.18222 0
M  V30 38 H 2.5072 -2.39755 -3.10258 0
M  V30 39 H 3.9972 -1.70627 -3.81151 0
M  V30 40 N 4.4343 0.785586 -1.36625 0
M  V30 41 C 5.3643 1.91259 -1.33949 0
M  V30 42 C 6.3453 1.68795 -0.210325 0
M  V30 43 O 7.5303 1.89854 -0.408561 0
M  V30 44 C 4.6603 3.28339 -1.13186 0
M  V30 45 C 3.6143 3.65335 -2.22967 0
M  V30 46 C 2.9403 5.00806 -1.87342 0
M  V30 47 C 4.2403 3.7352 -3.65075 0
M  V30 48 H 5.9343 1.93755 -2.28253 0
M  V30 49 H 3.4803 0.930788 -1.09874 0
M  V30 50 H 5.4333 4.06804 -1.09948 0
M  V30 51 H 4.1573 3.2624 -0.153332 0
M  V30 52 H 2.8163 2.89169 -2.25337 0
M  V30 53 H 2.4643 4.95233 -0.880545 0
M  V30 54 H 2.1643 5.26529 -2.60846 0
M  V30 55 H 3.6883 5.81687 -1.85667 0
M  V30 56 H 5.1023 4.42168 -3.64911 0
M  V30 57 H 3.4993 4.10731 -4.37516 0
M  V30 58 H 4.5693 2.74527 -3.99703 0
M  V30 59 N 5.9124 1.20967 1.01018 0
M  V30 60 C 7.1404 1.04956 1.78303 0
M  V30 61 C 7.5554 -0.400915 1.84494 0
M  V30 62 O 6.9124 -1.27826 1.30257 0
M  V30 63 C 6.9634 1.63403 3.22462 0
M  V30 64 O 6.6844 3.02775 3.16637 0
M  V30 65 C 8.1854 1.52432 4.16268 0
M  V30 66 H 5.4054 0.368858 0.560522 0
M  V30 67 H 7.9494 1.60193 1.27116 0
M  V30 68 H 6.1044 1.1227 3.70775 0
M  V30 69 H 6.5184 3.30626 4.07169 0
M  V30 70 H 7.9924 1.98078 5.15237 0
M  V30 71 H 8.4694 0.477875 4.36592 0
M  V30 72 H 9.0754 2.02787 3.73841 0
M  V30 73 N 7.3905 -1.2043 1.01659 0
M  V30 74 C 8.3225 -2.22626 0.544988 0
M  V30 75 C 9.3355 -1.58479 -0.372609 0
M  V30 76 O 10.5245 -1.77679 -0.170958 0
M  V30 77 C 7.6245 -3.38141 -0.22663 0
M  V30 78 C 6.7975 -4.31877 0.692876 0
M  V30 79 C 5.8565 -5.26191 -0.0311616 0
M  V30 80 O 4.8825 -5.6612 0.591343 0
M  V30 81 N 6.0845 -5.65618 -1.30601 0
M  V30 82 H 8.8495 -2.63716 1.42388 0
M  V30 83 H 6.4105 -1.34971 0.894116 0
M  V30 84 H 8.4025 -3.98239 -0.72024 0
M  V30 85 H 6.9725 -2.95943 -1.00681 0
M  V30 86 H 6.1925 -3.69746 1.36679 0
M  V30 87 H 7.4805 -4.91426 1.31824 0
M  V30 88 H 6.8785 -5.3519 -1.83269 0
M  V30 89 H 5.4355 -6.28025 -1.74435 0
M  V30 90 N 8.8686 -0.792821 -1.36206 0
M  V30 91 C 10.2796 -0.429513 -1.81692 0
M  V30 92 C 10.6306 1.04695 -1.65932 0
M  V30 93 O 9.7556 1.81256 -1.18218 0
M  V30 94 C 10.3506 -0.772831 -3.29868 0
M  V30 95 C 8.9096 -0.462307 -3.7355 0
M  V30 96 C 8.0566 -1.00569 -2.5842 0
M  V30 97 H 11.0076 -0.985672 -1.24379 0
M  V30 98 H 11.0286 -0.0651928 -3.80444 0
M  V30 99 H 10.5406 -1.84747 -3.41307 0
M  V30 100 H 8.6416 0.604158 -3.67669 0
M  V30 101 H 8.7546 -0.985299 -4.68859 0
M  V30 102 H 7.1186 -0.428734 -2.51066 0
M  V30 103 H 7.9016 -2.08616 -2.72643 0
M  V30 104 N 10.3467 1.47872 -0.545128 0
M  V30 105 C 11.7577 1.86384 -0.108581 0
M  V30 106 C 12.1087 1.45309 1.31832 0
M  V30 107 O 11.2337 0.850641 1.9898 0
M  V30 108 C 11.8287 3.38265 -0.190274 0
M  V30 109 C 10.3877 3.75914 0.191164 0
M  V30 110 C 9.5347 2.71926 -0.543273 0
M  V30 111 H 12.4857 1.39561 -0.755537 0
M  V30 112 H 12.5067 3.75831 0.594217 0
M  V30 113 H 12.0187 3.6813 -1.2289 0
M  V30 114 H 10.1197 3.51665 1.23136 0
M  V30 115 H 10.2327 4.78836 -0.158987 0
M  V30 116 H 8.5967 2.54697 0.0122495 0
M  V30 117 H 9.3797 3.04634 -1.58282 0
M  V30 118 N 11.8248 0.280983 1.55075 0
M  V30 119 C 13.0498 -0.340154 2.04592 0
M  V30 120 C 13.4748 -1.48246 1.15779 0
M  V30 121 O 12.8328 -1.80614 0.15761 0
M  V30 122 C 12.8808 -0.793104 3.5177 0
M  V30 123 O 11.9848 -1.89981 3.66034 0
M  V30 124 H 11.3258 -0.0694289 0.66036 0
M  V30 125 H 13.8558 0.416993 2.00306 0
M  V30 126 H 13.8658 -1.08729 3.93245 0
M  V30 127 H 12.5408 0.0426163 4.15878 0
M  V30 128 H 11.1178 -1.60771 3.36463 0
M  V30 129 N 13.3029 -1.57598 0.00835791 0
M  V30 130 C 14.2659 -2.07884 -0.965242 0
M  V30 131 C 15.2659 -0.989825 -1.26725 0
M  V30 132 O 16.4559 -1.25218 -1.21104 0
M  V30 133 C 13.5879 -2.52731 -2.28779 0
M  V30 134 H 14.7809 -2.95178 -0.530112 0
M  V30 135 H 12.3339 -1.54458 -0.239283 0
M  V30 136 H 13.0689 -1.68705 -2.76964 0
M  V30 137 H 12.8539 -3.32272 -2.08177 0
M  V30 138 H 14.3439 -2.91933 -2.98605 0
M  V30 139 N 14.781 0.264519 -1.55364 0
M  V30 140 C 16.006 1.01726 -1.80739 0
M  V30 141 C 16.431 1.78836 -0.583044 0
M  V30 142 O 15.789 1.75167 0.467566 0
M  V30 143 C 15.837 1.94482 -3.03659 0
M  V30 144 O 14.941 3.03386 -2.7934 0
M  V30 145 H 14.282 0.290395 -0.597132 0
M  V30 146 H 16.812 0.290854 -2.02522 0
M  V30 147 H 16.822 2.36278 -3.32621 0
M  V30 148 H 15.497 1.37772 -3.92418 0
M  V30 149 H 14.074 2.65844 -2.61498 0
M  V30 150 N 16.2591 1.48442 0.529413 0
M  V30 151 C 17.5071 1.56179 1.28267 0
M  V30 152 C 17.8281 0.237721 1.93546 0
M  V30 153 O 17.0981 -0.740779 1.81354 0
M  V30 154 H 15.6781 0.575367 0.476405 0
M  V30 155 H 18.3401 1.84909 0.61602 0
M  V30 156 H 17.4361 2.34312 2.06165 0
M  V30 157 N 17.7372 -0.778329 1.37039 0
M  V30 158 C 18.9622 -1.57248 1.35233 0
M  V30 159 C 19.3872 -1.87999 -0.0615568 0
M  V30 160 O 18.7452 -1.48734 -1.03672 0
M  V30 161 C 18.7932 -2.86353 2.19167 0
M  V30 162 O 17.8972 -3.80442 1.59178 0
M  V30 163 H 17.2382 -0.476569 0.462362 0
M  V30 164 H 19.7682 -0.963853 1.80474 0
M  V30 165 H 19.7782 -3.35519 2.32145 0
M  V30 166 H 18.4532 -2.63299 3.21942 0
M  V30 167 H 17.0302 -3.39067 1.55203 0
M  V30 168 N 19.2153 -1.21501 -1.00376 0
M  V30 169 C 20.1453 -0.999478 -2.11028 0
M  V30 170 C 21.1263 0.0759671 -1.6993 0
M  V30 171 O 22.3113 -0.0841106 -1.94018 0
M  V30 172 C 19.4413 -0.564709 -3.42678 0
M  V30 173 C 18.3953 -1.58486 -3.97576 0
M  V30 174 C 17.7213 -1.00628 -5.25146 0
M  V30 175 C 19.0213 -2.97204 -4.29496 0
M  V30 176 H 20.7153 -1.92495 -2.29317 0
M  V30 177 H 18.2613 -0.92693 -1.102 0
M  V30 178 H 20.2143 -0.401091 -4.19487 0
M  V30 179 H 18.9383 0.396411 -3.24185 0
M  V30 180 H 17.5973 -1.73606 -3.22888 0
M  V30 181 H 17.2453 -0.0368439 -5.02987 0
M  V30 182 H 16.9453 -1.68771 -5.62841 0
M  V30 183 H 18.4693 -0.854015 -6.04598 0
M  V30 184 H 19.8833 -2.8552 -4.97143 0
M  V30 185 H 18.2803 -3.62372 -4.78338 0
M  V30 186 H 19.3503 -3.47956 -3.3772 0
M  V30 187 N 20.6934 1.19889 -1.02296 0
M  V30 188 C 21.9414 1.89046 -0.714558 0
M  V30 189 C 22.2624 1.79636 0.758681 0
M  V30 190 O 21.5324 1.20292 1.54618 0
M  V30 191 H 20.1124 0.699802 -0.261317 0
M  V30 192 H 22.7744 1.45574 -1.29592 0
M  V30 193 H 21.8704 2.95524 -1.0036 0
M  V30 194 N 22.1715 0.800033 1.35784 0
M  V30 195 C 23.1035 0.163596 2.28615 0
M  V30 196 C 24.1165 -0.633317 1.49976 0
M  V30 197 O 25.3055 -0.466754 1.72289 0
M  V30 198 C 22.4055 -0.790958 3.29541 0
M  V30 199 C 21.5785 -0.0418255 4.3738 0
M  V30 200 C 20.6375 -0.91389 5.18203 0
M  V30 201 O 19.6635 -0.367234 5.68014 0
M  V30 202 N 20.8655 -2.23682 5.35674 0
M  V30 203 H 23.6305 0.96105 2.83873 0
M  V30 204 H 21.1915 0.654894 1.48063 0
M  V30 205 H 23.1835 -1.37844 3.80501 0
M  V30 206 H 21.7535 -1.48925 2.74846 0
M  V30 207 H 20.9735 0.726813 3.87442 0
M  V30 208 H 22.2615 0.474719 5.06581 0
M  V30 209 H 21.6595 -2.70497 4.96838 0
M  V30 210 H 20.2165 -2.77369 5.89839 0
M  V30 211 N 23.6496 -1.47581 0.552962 0
M  V30 212 C 24.8746 -2.07378 0.0300593 0
M  V30 213 C 25.2996 -1.40355 -1.25229 0
M  V30 214 O 24.6576 -0.477099 -1.7491 0
M  V30 215 C 24.7056 -3.60274 -0.153231 0
M  V30 216 O 23.8096 -3.94041 -1.21678 0
M  V30 217 H 23.1506 -0.662158 0.0494182 0
M  V30 218 H 25.6806 -1.89662 0.767434 0
M  V30 219 H 25.6906 -4.0633 -0.368761 0
M  V30 220 H 24.3656 -4.08455 0.783397 0
M  V30 221 H 22.9426 -3.59735 -0.982079 0
M  V30 222 N 25.1277 -0.289203 -1.54924 0
M  V30 223 C 26.3737 0.323998 -2.00195 0
M  V30 224 C 26.7067 1.54441 -1.17735 0
M  V30 225 O 25.9817 1.92875 -0.250878 0
M  V30 226 C 26.2647 0.692276 -3.53383 0
M  V30 227 C 26.1177 -0.536457 -4.46589 0
M  V30 228 C 27.4367 1.52335 -4.12895 0
M  V30 229 H 24.5557 0.116289 -0.727768 0
M  V30 230 H 27.1977 -0.398954 -1.85764 0
M  V30 231 H 25.3477 1.30822 -3.65811 0
M  V30 232 H 27.0197 -1.17499 -4.46085 0
M  V30 233 H 25.2627 -1.17192 -4.1767 0
M  V30 234 H 25.9337 -0.234806 -5.515 0
M  V30 235 H 28.4097 1.00302 -4.0383 0
M  V30 236 H 27.2857 1.74982 -5.20262 0
M  V30 237 H 27.5467 2.50886 -3.64018 0
M  V30 238 N 26.6058 1.57591 -0.0167156 0
M  V30 239 C 27.8338 1.95575 0.675128 0
M  V30 240 C 28.2488 0.892542 1.6637 0
M  V30 241 O 27.6058 -0.126912 1.82058 0
M  V30 242 C 27.6568 3.33608 1.39239 0
M  V30 243 O 27.3778 4.3585 0.443444 0
M  V30 244 C 28.8788 3.86151 2.17721 0
M  V30 245 H 26.0988 0.644423 0.186978 0
M  V30 246 H 28.6428 2.0437 -0.0728 0
M  V30 247 H 26.7978 3.2607 2.09182 0
M  V30 248 H 27.2118 5.158 0.951358 0
M  V30 249 H 28.6858 4.85114 2.63379 0
M  V30 250 H 29.1628 3.19738 3.01105 0
M  V30 251 H 29.7688 3.96918 1.52761 0
M  V30 252 N 28.0839 -0.256276 1.55502 0
M  V30 253 C 29.3329 -0.983486 1.76098 0
M  V30 254 C 29.6459 -1.86837 0.578896 0
M  V30 255 O 30.8519 -2.63163 0.667648 0
M  V30 256 C 29.3079 -1.79868 3.1173 0
M  V30 257 C 28.9159 -0.961648 4.37557 0
M  V30 258 C 30.6599 -2.51919 3.41668 0
M  V30 259 C 28.5669 -1.77219 5.64223 0
M  V30 260 H 27.4969 -0.370936 0.656447 0
M  V30 261 H 30.1479 -0.238492 1.81944 0
M  V30 262 H 28.5299 -2.58527 2.99966 0
M  V30 263 H 29.7039 -0.218048 4.60284 0
M  V30 264 H 28.0189 -0.354913 4.14885 0
M  V30 265 H 30.6159 -3.12998 4.33516 0
M  V30 266 H 30.9589 -3.23059 2.62562 0
M  V30 267 H 31.4919 -1.80278 3.54605 0
M  V30 268 H 28.2309 -1.10471 6.46124 0
M  V30 269 H 27.7509 -2.49132 5.45613 0
M  V30 270 H 29.4299 -2.34169 6.03137 0
M  V30 271 N 29.562 -1.4872 -0.521534 0
M  V30 272 C 30.787 -1.61101 -1.30618 0
M  V30 273 C 31.212 -0.274611 -1.86085 0
M  V30 274 O 30.57 0.754937 -1.64834 0
M  V30 275 C 30.618 -2.66709 -2.4269 0
M  V30 276 O 29.722 -2.24456 -3.45967 0
M  V30 277 H 29.063 -0.539921 -0.386499 0
M  V30 278 H 31.593 -1.94767 -0.626645 0
M  V30 279 H 31.603 -2.88245 -2.88754 0
M  V30 280 H 30.278 -3.63727 -2.01682 0
M  V30 281 H 28.855 -2.13168 -3.05964 0
M  V30 282 N 31.0401 0.771051 -1.3745 0
M  V30 283 C 32.2801 1.54264 -1.34096 0
M  V30 284 C 32.6441 1.91858 0.0737639 0
M  V30 285 O 33.8451 2.67797 0.23203 0
M  V30 286 C 32.1161 2.77326 -2.25445 0
M  V30 287 S 33.6751 3.67383 -2.39948 0
M  V30 288 H 30.4931 0.528122 -0.476034 0
M  V30 289 H 33.0951 0.906633 -1.73206 0
M  V30 290 H 31.7991 2.47788 -3.27153 0
M  V30 291 H 31.3301 3.45886 -1.87421 0
M  V30 292 H 33.3451 4.69334 -1.61059 0
M  V30 293 N 32.5182 1.22032 0.997298 0
M  V30 294 C 33.7462 1.06841 1.7718 0
M  V30 295 C 34.1612 -0.381325 1.84909 0
M  V30 296 O 33.5182 -1.26437 1.31605 0
M  V30 297 C 33.5692 1.66814 3.20711 0
M  V30 298 O 33.2902 3.06116 3.13408 0
M  V30 299 C 34.7912 1.56838 4.14628 0
M  V30 300 H 32.0112 0.374782 0.556578 0
M  V30 301 H 34.5552 1.61532 1.2541 0
M  V30 302 H 32.7102 1.16196 3.69564 0
M  V30 303 H 33.1242 3.34926 4.0364 0
M  V30 304 H 34.5982 2.03532 5.13107 0
M  V30 305 H 35.0752 0.524155 4.36061 0
M  V30 306 H 35.6812 2.06741 3.7167 0
M  V30 307 N 33.9963 -1.19345 1.0293 0
M  V30 308 C 35.2443 -1.88665 0.724574 0
M  V30 309 C 35.5653 -1.80036 -0.749144 0
M  V30 310 O 34.8353 -1.2111 -1.53978 0
M  V30 311 H 33.4153 -0.698406 0.265025 0
M  V30 312 H 36.0773 -1.44885 1.30362 0
M  V30 313 H 35.1733 -2.94987 1.01926 0
M  V30 314 N 35.4744 -0.807222 -1.35358 0
M  V30 315 C 36.7024 -0.400377 -2.02989 0
M  V30 316 C 37.1174 0.988859 -1.60832 0
M  V30 317 O 36.4744 1.63729 -0.806175 0
M  V30 318 C 36.5254 -0.474867 -3.58368 0
M  V30 319 O 36.2464 -1.80933 -3.98992 0
M  V30 320 C 37.7474 -0.0609112 -4.43258 0
M  V30 321 H 34.9674 -0.162587 -0.651004 0
M  V30 322 H 37.5114 -1.09102 -1.72965 0
M  V30 323 H 35.6664 0.167534 -3.87038 0
M  V30 324 H 36.0804 -1.77256 -4.9364 0
M  V30 325 H 37.5544 -0.164145 -5.51756 0
M  V30 326 H 38.0314 0.993831 -4.27808 0
M  V30 327 H 38.6374 -0.676492 -4.19885 0
M  V30 328 N 36.9525 1.47285 -0.560781 0
M  V30 329 C 38.1775 2.07359 -0.0410566 0
M  V30 330 C 38.6025 1.41017 1.24483 0
M  V30 331 O 37.9605 0.486368 1.74654 0
M  V30 332 C 38.0085 3.6035 0.134123 0
M  V30 333 O 37.1125 3.94681 1.19587 0
M  V30 334 H 36.4535 0.661887 -0.0529291 0
M  V30 335 H 38.9835 1.89252 -0.777482 0
M  V30 336 H 38.9935 4.0652 0.347207 0
M  V30 337 H 37.6685 4.08034 -0.805047 0
M  V30 338 H 36.2455 3.60251 0.962987 0
M  V30 339 N 38.4306 0.297415 1.54768 0
M  V30 340 C 39.6556 -0.318435 2.04941 0
M  V30 341 C 40.0806 -1.4701 1.17345 0
M  V30 342 O 39.4386 -1.80436 0.176758 0
M  V30 343 C 39.4866 -0.755749 3.52592 0
M  V30 344 O 38.5906 -1.86088 3.68028 0
M  V30 345 H 37.9316 -0.062421 0.661059 0
M  V30 346 H 40.4616 0.438215 1.99852 0
M  V30 347 H 40.4716 -1.04552 3.94376 0
M  V30 348 H 39.1466 0.0867233 4.1581 0
M  V30 349 H 37.7236 -1.57193 3.38149 0
M  V30 350 N 39.9087 -1.5758 0.0250728 0
M  V30 351 C 41.1857 -1.82917 -0.692873 0
M  V30 352 C 41.5657 -0.908137 -1.90568 0
M  V30 353 O 40.9137 0.0372298 -2.2847 0
M  V30 354 C 41.1237 -3.32034 -1.07492 0
M  V30 355 C 42.4717 -3.98406 -1.46826 0
M  V30 356 O 43.4957 -3.36505 -1.16801 0
M  V30 357 O 42.3547 -5.07497 -2.02754 0
M  V30 358 H 39.4487 -0.754079 -0.33955 0
M  V30 359 H 41.9947 -1.69619 0.0524456 0
M  V30 360 H 40.7667 -3.90728 -0.211552 0
M  V30 361 H 40.3897 -3.50424 -1.87854 0
M  V30 362 N 41.3868 0.248026 -1.55636 0
M  V30 363 C 42.6328 0.97767 -1.77678 0
M  V30 364 C 42.9658 1.85016 -0.590135 0
M  V30 365 O 42.2408 1.90095 0.411611 0
M  V30 366 C 42.5238 1.83914 -3.09593 0
M  V30 367 C 42.3768 0.99491 -4.38659 0
M  V30 368 C 43.6958 2.82183 -3.37729 0
M  V30 369 H 40.8148 0.354005 -0.646413 0
M  V30 370 H 43.4568 0.248253 -1.88371 0
M  V30 371 H 41.6068 2.46104 -3.00608 0
M  V30 372 H 43.2788 0.391789 -4.59633 0
M  V30 373 H 41.5218 0.299231 -4.32767 0
M  V30 374 H 42.1928 1.63145 -5.2734 0
M  V30 375 H 44.6688 2.30129 -3.4667 0
M  V30 376 H 43.5448 3.39582 -4.31249 0
M  V30 377 H 43.8058 3.58588 -2.58586 0
M  V30 378 N 42.8649 1.48995 0.513639 0
M  V30 379 C 44.1129 1.57531 1.26604 0
M  V30 380 C 44.4339 0.258236 1.93283 0
M  V30 381 O 43.7039 -0.721502 1.8213 0
M  V30 382 H 42.2839 0.580387 0.470276 0
M  V30 383 H 44.9459 1.85552 0.596373 0
M  V30 384 H 44.0419 2.36486 2.03669 0
M  V30 385 N 44.343 -0.763751 1.37857 0
M  V30 386 C 45.591 -1.51957 1.33243 0
M  V30 387 C 45.912 -1.94835 -0.0801709 0
M  V30 388 O 45.182 -1.66894 -1.02582 0
M  V30 389 H 43.762 -0.563626 0.49024 0
M  V30 390 H 46.424 -0.908504 1.7243 0
M  V30 391 H 45.52 -2.41523 1.97669 0
M  V30 392 N 45.8211 -1.22559 -0.990812 0
M  V30 393 C 47.0511 -1.07623 -1.76355 0
M  V30 394 C 47.4591 0.37601 -1.85426 0
M  V30 395 O 46.8021 1.27228 -1.32509 0
M  V30 396 C 46.8641 -1.61507 -3.21179 0
M  V30 397 C 46.5281 -3.10146 -3.35646 0
M  V30 398 C 47.5251 -4.07553 -3.22796 0
M  V30 399 C 45.2101 -3.49644 -3.60631 0
M  V30 400 C 47.2041 -5.42442 -3.34716 0
M  V30 401 C 44.8911 -4.84682 -3.72192 0
M  V30 402 C 45.8891 -5.8089 -3.59243 0
M  V30 403 O 45.5771 -7.13476 -3.70415 0
M  V30 404 H 45.3091 -0.377745 -0.560611 0
M  V30 405 H 47.8631 -1.62658 -1.25425 0
M  V30 406 H 46.0931 -1.00881 -3.73309 0
M  V30 407 H 47.7821 -1.42202 -3.80175 0
M  V30 408 H 48.5481 -3.78381 -3.03403 0
M  V30 409 H 44.4271 -2.75282 -3.69785 0
M  V30 410 H 47.9711 -6.17518 -3.24526 0
M  V30 411 H 43.8681 -5.13534 -3.91092 0
M  V30 412 H 44.6361 -7.21083 -3.87275 0
M  V30 413 N 47.2992 1.18797 -1.03562 0
M  V30 414 C 48.2472 2.24297 -0.615905 0
M  V30 415 C 49.2412 1.65643 0.354808 0
M  V30 416 O 50.4472 1.78618 0.22265 0
M  V30 417 H 46.8222 0.729909 -0.180934 0
M  V30 418 H 48.7932 2.5701 -1.5162 0
M  V30 419 C 47.5422 3.47698 0.0104735 0
M  V30 420 H 46.8652 3.93125 -0.727509 0
M  V30 421 H 48.3052 4.23159 0.266995 0
M  V30 422 C 46.7642 3.12489 1.25905 0
M  V30 423 O 47.2942 3.25761 2.35038 0
M  V30 424 N 45.5002 2.6686 1.15039 0
M  V30 425 H 45.0472 2.56261 0.262328 0
M  V30 426 H 45.0052 2.43674 1.98672 0
M  V30 427 N 48.7773 0.814389 1.34928 0
M  V30 428 C 50.0073 0.41054 2.0248 0
M  V30 429 C 50.4153 -0.985625 1.61499 0
M  V30 430 O 49.7583 -1.64781 0.811976 0
M  V30 431 C 49.8203 0.423384 3.56998 0
M  V30 432 C 49.4843 1.77141 4.21272 0
M  V30 433 C 50.4813 2.73093 4.42398 0
M  V30 434 C 48.1663 2.05755 4.58225 0
M  V30 435 C 50.1603 3.95838 4.9959 0
M  V30 436 C 47.8473 3.28762 5.1513 0
M  V30 437 C 48.8453 4.23621 5.35755 0
M  V30 438 O 48.5333 5.44456 5.91458 0
M  V30 439 H 48.2653 0.163997 0.655806 0
M  V30 440 H 50.8193 1.10155 1.73364 0
M  V30 441 H 49.0493 -0.324276 3.85338 0
M  V30 442 H 50.7383 0.0407683 4.0588 0
M  V30 443 H 51.5043 2.5228 4.14222 0
M  V30 444 H 47.3833 1.32727 4.4148 0
M  V30 445 H 50.9273 4.69891 5.15605 0
M  V30 446 H 46.8243 3.49443 5.42734 0
M  V30 447 H 47.5923 5.4586 6.09901 0
M  V30 448 N 50.2554 -1.46986 0.568584 0
M  V30 449 C 51.5014 -2.02741 0.0488709 0
M  V30 450 C 51.8344 -1.44077 -1.30214 0
M  V30 451 O 51.1094 -0.600552 -1.84996 0
M  V30 452 C 51.3924 -3.60086 -0.032047 0
M  V30 453 C 51.2454 -4.29162 1.34686 0
M  V30 454 C 52.5644 -4.33838 -0.739798 0
M  V30 455 H 49.6834 -0.736749 0.0192338 0
M  V30 456 H 52.3254 -1.75289 0.733065 0
M  V30 457 H 50.4754 -3.83606 -0.61473 0
M  V30 458 H 52.1474 -4.16948 1.97362 0
M  V30 459 H 50.3904 -3.89073 1.91846 0
M  V30 460 H 51.0614 -5.37826 1.24285 0
M  V30 461 H 53.5374 -4.15378 -0.244939 0
M  V30 462 H 52.4134 -5.43537 -0.765406 0
M  V30 463 H 52.6744 -4.03875 -1.79827 0
M  V30 464 N 51.7335 -0.305618 -1.54608 0
M  V30 465 C 52.9585 0.307562 -2.05107 0
M  V30 466 C 53.3835 1.46385 -1.18123 0
M  V30 467 O 52.7415 1.8034 -0.186324 0
M  V30 468 C 52.7895 0.73704 -3.52987 0
M  V30 469 O 51.8935 1.84134 -3.6901 0
M  V30 470 H 51.2345 0.0589143 -0.661381 0
M  V30 471 H 53.7645 -0.448807 -1.99617 0
M  V30 472 H 53.7745 1.02459 -3.94925 0
M  V30 473 H 52.4495 -0.108773 -4.15758 0
M  V30 474 H 51.0265 1.55398 -3.38978 0
M  V30 475 N 53.2116 1.57565 -0.0334293 0
M  V30 476 C 54.4576 1.93088 0.639417 0
M  V30 477 C 54.8126 0.910589 1.69488 0
M  V30 478 O 54.1056 -0.0727725 1.91462 0
M  V30 479 C 54.2996 3.33112 1.29504 0
M  V30 480 C 54.1286 4.48667 0.304604 0
M  V30 481 C 52.8986 5.05207 -0.0970777 0
M  V30 482 C 55.0966 5.1239 -0.442845 0
M  V30 483 N 53.0786 6.04286 -1.08223 0
M  V30 484 C 54.4496 6.06609 -1.28161 0
M  V30 485 C 56.5046 4.95352 -0.50308 0
M  V30 486 C 55.2076 6.85622 -2.17519 0
M  V30 487 C 57.2336 5.74978 -1.38401 0
M  V30 488 C 56.5956 6.68816 -2.21054 0
M  V30 489 H 52.6946 0.754335 0.206161 0
M  V30 490 H 55.2786 1.94435 -0.101613 0
M  V30 491 H 53.4496 3.32576 2.00618 0
M  V30 492 H 55.1816 3.55972 1.92525 0
M  V30 493 H 51.9366 4.72782 0.278255 0
M  V30 494 H 52.3606 6.58516 -1.57117 0
M  V30 495 H 57.0026 4.22625 0.121694 0
M  V30 496 H 54.7206 7.57652 -2.81049 0
M  V30 497 H 58.3066 5.63826 -1.43496 0
M  V30 498 H 57.1866 7.29355 -2.88116 0
M  V30 499 N 54.6897 -0.239769 1.55765 0
M  V30 500 C 55.9197 -0.982743 1.8173 0
M  V30 501 C 56.3277 -1.7917 0.607835 0
M  V30 502 O 55.6707 -1.78525 -0.432973 0
M  V30 503 C 55.7327 -1.96332 3.01155 0
M  V30 504 C 55.3967 -1.34062 4.36894 0
M  V30 505 C 56.3937 -0.739539 5.14613 0
M  V30 506 C 54.0787 -1.35784 4.83599 0
M  V30 507 C 56.0727 -0.163989 6.37189 0
M  V30 508 C 53.7597 -0.778441 6.06122 0
M  V30 509 C 54.7577 -0.182548 6.82756 0
M  V30 510 O 54.4457 0.387887 8.02964 0
M  V30 511 H 54.1777 -0.294481 0.608487 0
M  V30 512 H 56.7317 -0.26572 2.03674 0
M  V30 513 H 54.9617 -2.71884 2.74984 0
M  V30 514 H 56.6507 -2.57032 3.14149 0
M  V30 515 H 57.4167 -0.718687 4.79646 0
M  V30 516 H 53.2957 -1.81105 4.23936 0
M  V30 517 H 56.8397 0.301753 6.96947 0
M  V30 518 H 52.7367 -0.796645 6.40565 0
M  V30 519 H 53.5047 0.28044 8.18019 0
M  V30 520 N 56.1678 -1.49265 -0.50573 0
M  V30 521 C 57.0998 -1.617 -1.62437 0
M  V30 522 C 58.1128 -0.499924 -1.54934 0
M  V30 523 O 59.3018 -0.771785 -1.60953 0
M  V30 524 C 56.4018 -1.5533 -3.01207 0
M  V30 525 C 55.5748 -2.8249 -3.33943 0
M  V30 526 C 54.6338 -2.69238 -4.52103 0
M  V30 527 O 53.6598 -3.43167 -4.5412 0
M  V30 528 N 54.8618 -1.80468 -5.51735 0
M  V30 529 H 57.6268 -2.58177 -1.52199 0
M  V30 530 H 55.1878 -1.46294 -0.693511 0
M  V30 531 H 57.1798 -1.44125 -3.78167 0
M  V30 532 H 55.7498 -0.667297 -3.05395 0
M  V30 533 H 54.9698 -3.08081 -2.45926 0
M  V30 534 H 56.2578 -3.66802 -3.5261 0
M  V30 535 H 55.6558 -1.19653 -5.52901 0
M  V30 536 H 54.2128 -1.75188 -6.27816 0
M  V30 537 N 57.6459 0.756429 -1.3826 0
M  V30 538 C 58.5779 1.87971 -1.31147 0
M  V30 539 C 59.5909 1.61248 -0.224239 0
M  V30 540 O 60.7799 1.71881 -0.481581 0
M  V30 541 C 57.8799 3.23545 -1.00857 0
M  V30 542 C 57.0529 3.77794 -2.20432 0
M  V30 543 C 56.1119 4.91877 -1.86931 0
M  V30 544 O 55.1379 5.06659 -2.59395 0
M  V30 545 N 56.3399 5.74643 -0.822568 0
M  V30 546 H 59.1049 1.94585 -2.2794 0
M  V30 547 H 56.6659 0.936234 -1.32084 0
M  V30 548 H 58.6579 3.97403 -0.765021 0
M  V30 549 H 57.2279 3.12335 -0.128687 0
M  V30 550 H 56.4479 2.95534 -2.6087 0
M  V30 551 H 57.7359 4.10771 -3.00241 0
M  V30 552 H 57.1339 5.65266 -0.221575 0
M  V30 553 H 55.6909 6.48661 -0.638899 0
M  V30 554 N 59.124 1.23083 0.984299 0
M  V30 555 C 60.074 0.975749 2.06066 0
M  V30 556 C 61.058 -0.0768251 1.60716 0
M  V30 557 O 62.25 0.134805 1.76486 0
M  V30 558 C 59.379 0.564673 3.38624 0
M  V30 559 C 58.465 1.65244 3.90583 0
M  V30 560 N 58.856 2.88193 4.15666 0
M  V30 561 C 57.154 1.52612 4.19077 0
M  V30 562 C 57.855 3.58593 4.58024 0
M  V30 563 N 56.831 2.86093 4.62225 0
M  V30 564 H 60.633 1.90957 2.23411 0
M  V30 565 H 58.147 1.12963 1.16675 0
M  V30 566 H 60.144 0.36322 4.15315 0
M  V30 567 H 58.804 -0.362147 3.22674 0
M  V30 568 H 59.815 3.24537 4.03604 0
M  V30 569 H 56.492 0.666121 4.12152 0
M  V30 570 H 57.882 4.63974 4.85982 0
M  V30 571 N 60.6021 -1.18246 1.0419 0
M  V30 572 C 61.5651 -2.20128 0.638452 0
M  V30 573 C 62.5651 -1.57885 -0.304805 0
M  V30 574 O 63.7551 -1.73967 -0.0900369 0
M  V30 575 C 60.8871 -3.4084 -0.0637751 0
M  V30 576 H 62.0801 -2.57336 1.54007 0
M  V30 577 H 59.6331 -1.32152 0.834598 0
M  V30 578 H 60.3681 -3.09166 -0.979136 0
M  V30 579 H 60.1531 -3.8726 0.614198 0
M  V30 580 H 61.6431 -4.16274 -0.332512 0
M  V30 581 N 62.0802 -0.821533 -1.34494 0
M  V30 582 C 63.3282 -0.408139 -1.97936 0
M  V30 583 C 63.6492 1.03193 -1.65457 0
M  V30 584 O 62.9192 1.71622 -0.944595 0
M  V30 585 H 61.4992 -0.147928 -0.732206 0
M  V30 586 H 64.1612 -1.05067 -1.64155 0
M  V30 587 H 63.2572 -0.52601 -3.07635 0
M  V30 588 N 63.5583 1.46682 -0.576371 0
M  V30 589 C 64.5053 2.30241 0.160499 0
M  V30 590 C 65.4753 1.40233 0.890162 0
M  V30 591 O 66.6603 1.69186 0.882084 0
M  V30 592 C 63.8003 3.24578 1.1723 0
M  V30 593 C 62.9133 4.29684 0.446736 0
M  V30 594 C 62.0483 5.11154 1.44551 0
M  V30 595 C 61.0873 6.08015 0.70599 0
M  V30 596 N 60.2243 6.82376 1.65251 0
M  V30 597 H 65.0643 2.92727 -0.558127 0
M  V30 598 H 62.6013 1.44272 -0.287056 0
M  V30 599 H 64.5593 3.77711 1.77172 0
M  V30 600 H 63.1893 2.63916 1.85872 0
M  V30 601 H 62.2413 3.79458 -0.267594 0
M  V30 602 H 63.5533 4.98626 -0.131686 0
M  V30 603 H 62.7073 5.68533 2.11791 0
M  V30 604 H 61.4463 4.42158 2.05786 0
M  V30 605 H 60.4513 5.49796 0.0197725 0
M  V30 606 H 61.6763 6.79028 0.09912 0
M  V30 607 H 59.6223 6.16094 2.25308 0
M  V30 608 H 59.5393 7.47556 1.12673 0
M  V30 609 H 60.8073 7.44316 2.31546 0
M  V30 610 N 65.0364 0.313813 1.54444 0
M  V30 611 C 65.9994 -0.54379 2.22656 0
M  V30 612 C 66.9994 -1.05124 1.21678 0
M  V30 613 O 68.1894 -0.945225 1.46325 0
M  V30 614 C 65.3214 -1.75427 2.92298 0
M  V30 615 H 66.5144 0.0523599 2.99854 0
M  V30 616 H 64.0674 0.0647834 1.56166 0
M  V30 617 H 64.8024 -2.38991 2.19211 0
M  V30 618 H 64.5874 -1.39791 3.66334 0
M  V30 619 H 66.0774 -2.36325 3.44297 0
M  V30 620 N 66.5145 -1.57545 0.0417849 0
M  V30 621 C 67.9255 -1.80011 -0.495259 0
M  V30 622 C 68.2765 -0.953199 -1.71489 0
M  V30 623 O 67.4015 -0.167138 -2.15754 0
M  V30 624 C 67.9965 -3.26482 -0.905265 0
M  V30 625 C 66.5555 -3.499 -1.38734 0
M  V30 626 C 65.7025 -2.74979 -0.358056 0
M  V30 627 H 68.6535 -1.56425 0.267736 0
M  V30 628 H 68.6745 -3.36887 -1.76882 0
M  V30 629 H 68.1865 -3.88096 -0.017401 0
M  V30 630 H 66.2875 -2.93553 -2.29471 0
M  V30 631 H 66.4005 -4.58615 -1.38598 0
M  V30 632 H 64.7645 -2.40834 -0.828912 0
M  V30 633 H 65.5475 -3.39315 0.521561 0
M  V30 634 N 67.9926 0.231505 -1.5589 0
M  V30 635 C 68.9396 1.28682 -1.91598 0
M  V30 636 C 69.9096 1.47071 -0.771974 0
M  V30 637 O 71.0946 1.60802 -1.027 0
M  V30 638 C 68.2346 2.6342 -2.22944 0
M  V30 639 C 67.3476 2.52912 -3.50228 0
M  V30 640 C 66.4826 3.80106 -3.7107 0
M  V30 641 C 65.5216 3.64279 -4.91902 0
M  V30 642 N 64.6586 4.834 -5.09184 0
M  V30 643 H 69.4986 0.975305 -2.81588 0
M  V30 644 H 67.0356 0.470299 -1.39379 0
M  V30 645 H 68.9936 3.41869 -2.39126 0
M  V30 646 H 67.6236 2.92687 -1.36139 0
M  V30 647 H 66.6756 1.6595 -3.42294 0
M  V30 648 H 67.9876 2.37133 -4.38827 0
M  V30 649 H 67.1416 4.66999 -3.87295 0
M  V30 650 H 65.8806 3.98799 -2.80733 0
M  V30 651 H 64.8856 2.7577 -4.75637 0
M  V30 652 H 66.1106 3.47067 -5.83714 0
M  V30 653 H 64.0566 5.02425 -4.21788 0
M  V30 654 H 63.9736 4.70311 -5.91898 0
M  V30 655 H 65.2416 5.71747 -5.29835 0
M  V30 656 N 69.4707 1.49531 0.497807 0
M  V30 657 C 70.7167 1.59415 1.25358 0
M  V30 658 C 71.0497 0.281422 1.9215 0
M  V30 659 O 70.3247 -0.715249 1.80871 0
M  V30 660 C 70.6077 2.75566 2.3181 0
M  V30 661 C 70.4607 4.16642 1.69498 0
M  V30 662 C 71.7797 2.87347 3.33346 0
M  V30 663 H 68.8987 0.580244 0.454408 0
M  V30 664 H 71.5407 1.81827 0.551262 0
M  V30 665 H 69.6907 2.56587 2.91711 0
M  V30 666 H 71.3627 4.47145 1.13399 0
M  V30 667 H 69.6057 4.22141 0.998978 0
M  V30 668 H 70.2767 4.93792 2.46725 0
M  V30 669 H 72.7527 3.04634 2.83438 0
M  V30 670 H 71.6287 3.70289 4.05188 0
M  V30 671 H 71.8897 1.96834 3.95865 0
M  V30 672 N 70.9488 -0.749086 1.3866 0
M  V30 673 C 72.1978 -1.50371 1.3443 0
M  V30 674 C 72.5108 -1.95503 -0.0616397 0
M  V30 675 O 73.7168 -2.70554 -0.226489 0
M  V30 676 C 72.1728 -2.71644 2.36088 0
M  V30 677 C 71.7808 -2.3352 3.82325 0
M  V30 678 C 73.5248 -3.49518 2.40909 0
M  V30 679 C 71.4318 -3.51431 4.75658 0
M  V30 680 H 70.3618 -0.564628 0.499712 0
M  V30 681 H 73.0128 -0.818449 1.64237 0
M  V30 682 H 71.3948 -3.42175 1.9933 0
M  V30 683 H 72.5688 -1.70627 4.28046 0
M  V30 684 H 70.8838 -1.6877 3.80665 0
M  V30 685 H 73.4808 -4.37197 3.07836 0
M  V30 686 H 73.8238 -3.90992 1.42937 0
M  V30 687 H 74.3568 -2.86005 2.76489 0
M  V30 688 H 71.0958 -3.15019 5.74842 0
M  V30 689 H 70.6158 -4.13352 4.34627 0
M  V30 690 H 72.2948 -4.17953 4.93887 0
M  V30 691 N 72.4269 -1.23603 -0.977757 0
M  V30 692 C 73.6759 -1.06377 -1.71368 0
M  V30 693 C 73.9889 0.399062 -1.91486 0
M  V30 694 O 75.1949 0.691312 -2.62551 0
M  V30 695 C 73.6509 -1.85512 -3.08404 0
M  V30 696 C 73.2589 -3.36141 -2.96164 0
M  V30 697 C 75.0029 -1.76783 -3.85938 0
M  V30 698 C 72.9099 -4.07659 -4.28449 0
M  V30 699 H 71.8399 -0.394452 -0.642591 0
M  V30 700 H 74.4909 -1.47594 -1.09034 0
M  V30 701 H 72.8729 -1.37103 -3.71509 0
M  V30 702 H 74.0469 -3.92056 -2.42133 0
M  V30 703 H 72.3619 -3.45712 -2.32104 0
M  V30 704 H 74.9589 -2.27526 -4.83876 0
M  V30 705 H 75.3019 -0.731116 -4.0983 0
M  V30 706 H 75.8349 -2.22818 -3.2954 0
M  V30 707 H 72.5739 -5.11648 -4.09752 0
M  V30 708 H 72.0939 -3.5653 -4.82334 0
M  V30 709 H 73.7729 -4.141 -4.97122 0
M  V30 710 N 73.905 1.17692 -1.04816 0
M  V30 711 C 75.135 1.91508 -0.775128 0
M  V30 712 C 75.543 1.76844 0.67253 0
M  V30 713 O 74.886 1.10057 1.47082 0
M  V30 714 C 74.948 3.43167 -1.0713 0
M  V30 715 C 74.612 3.81612 -2.51438 0
M  V30 716 C 75.609 3.84772 -3.49638 0
M  V30 717 C 73.294 4.12687 -2.86348 0
M  V30 718 C 75.288 4.18469 -4.80794 0
M  V30 719 C 72.975 4.46053 -4.17708 0
M  V30 720 C 73.973 4.48921 -5.14741 0
M  V30 721 O 73.661 4.81504 -6.43746 0
M  V30 722 H 73.393 0.614575 -0.281555 0
M  V30 723 H 75.947 1.50206 -1.40098 0
M  V30 724 H 74.177 3.84745 -0.388342 0
M  V30 725 H 75.866 3.98239 -0.784883 0
M  V30 726 H 76.632 3.60893 -3.24008 0
M  V30 727 H 72.511 4.09627 -2.11486 0
M  V30 728 H 76.055 4.20623 -5.56527 0
M  V30 729 H 71.952 4.69393 -4.43103 0
M  V30 730 H 72.72 4.99377 -6.4851 0
M  V30 731 N 75.3831 0.828654 1.34056 0
M  V30 732 C 76.2931 0.256725 2.33191 0
M  V30 733 C 77.3091 -0.611898 1.62886 0
M  V30 734 O 78.4851 -0.51844 1.94613 0
M  V30 735 C 75.5501 -0.567238 3.42028 0
M  V30 736 C 74.6111 0.324458 4.28072 0
M  V30 737 C 73.8441 -0.460274 5.31712 0
M  V30 738 O 74.0671 -1.693 5.44696 0
M  V30 739 O 73.0011 0.160391 6.01686 0
M  V30 740 H 76.8271 1.07739 2.83947 0
M  V30 741 H 74.4121 0.59093 1.37217 0
M  V30 742 H 76.2941 -1.03582 4.08471 0
M  V30 743 H 74.9691 -1.36513 2.93506 0
M  V30 744 H 73.8761 0.840659 3.64532 0
M  V30 745 H 75.2091 1.08685 4.8005 0
M  V30 746 N 76.8612 -1.46375 0.584142 0
M  V30 747 C 78.1072 -2.02678 0.0703716 0
M  V30 748 C 78.4402 -1.4545 -1.28678 0
M  V30 749 O 77.7152 -0.62014 -1.84349 0
M  V30 750 C 77.9982 -3.60099 0.00614674 0
M  V30 751 C 77.8512 -4.27709 1.3923 0
M  V30 752 C 79.1702 -4.34598 -0.693742 0
M  V30 753 H 76.2892 -0.736504 0.027047 0
M  V30 754 H 78.9312 -1.74501 0.751615 0
M  V30 755 H 77.0812 -3.84236 -0.574009 0
M  V30 756 H 78.7532 -4.14832 2.01773 0
M  V30 757 H 76.9962 -3.87016 1.95962 0
M  V30 758 H 77.6672 -5.36478 1.29982 0
M  V30 759 H 80.1432 -4.15615 -0.200869 0
M  V30 760 H 79.0192 -5.44318 -0.707714 0
M  V30 761 H 79.2802 -4.05759 -1.75533 0
M  V30 762 N 78.3393 -0.321999 -1.54275 0
M  V30 763 C 79.2873 0.560206 -2.25753 0
M  V30 764 C 80.2813 1.11984 -1.27106 0
M  V30 765 O 81.4873 1.06806 -1.44888 0
M  V30 766 H 77.8623 0.199304 -0.725108 0
M  V30 767 H 79.8333 -0.0649365 -2.98329 0
M  V30 768 C 78.5823 1.71023 -3.02731 0
M  V30 769 H 77.9053 1.28885 -3.78456 0
M  V30 770 H 79.3453 2.30314 -3.55993 0
M  V30 771 C 77.8043 2.62692 -2.10938 0
M  V30 772 O 78.3343 3.64364 -1.6912 0
M  V30 773 N 76.5403 2.30891 -1.76459 0
M  V30 774 H 76.0873 1.48253 -2.10663 0
M  V30 775 H 76.0453 2.92487 -1.1532 0
M  V30 776 N 79.8174 1.5752 -0.0501392 0
M  V30 777 C 80.7644 2.1147 0.924603 0
M  V30 778 C 81.7344 1.02182 1.30951 0
M  V30 779 O 82.9194 1.29723 1.39916 0
M  V30 780 C 80.0594 2.66337 2.19451 0
M  V30 781 C 79.1724 3.89708 1.86418 0
M  V30 782 C 78.3074 4.32893 3.07859 0
M  V30 783 C 77.3464 5.48967 2.70742 0
M  V30 784 N 76.4834 5.87211 3.84874 0
M  V30 785 H 81.3234 2.94465 0.457639 0
M  V30 786 H 78.8604 1.45531 0.214266 0
M  V30 787 H 80.8184 2.96247 2.93758 0
M  V30 788 H 79.4484 1.86141 2.63726 0
M  V30 789 H 78.5004 3.66396 1.02264 0
M  V30 790 H 79.8124 4.74074 1.55096 0
M  V30 791 H 78.9664 4.6435 3.90466 0
M  V30 792 H 77.7054 3.47336 3.42358 0
M  V30 793 H 76.7104 5.17183 1.86551 0
M  V30 794 H 77.9354 6.3624 2.37436 0
M  V30 795 H 75.8814 5.04607 4.19175 0
M  V30 796 H 75.7984 6.66266 3.57247 0
M  V30 797 H 77.0664 6.23282 4.68123 0
M  V30 798 N 81.2955 -0.223234 1.56011 0
M  V30 799 C 82.7115 -0.572856 1.48965 0
M  V30 800 C 82.9115 -1.87225 0.74492 0
M  V30 801 O 81.9675 -2.50899 0.283896 0
M  V30 802 C 83.2805 -0.653646 2.9351 0
M  V30 803 C 84.8285 -0.744386 3.0402 0
M  V30 804 C 85.3035 -0.856535 4.49919 0
M  V30 805 N 86.7945 -0.9208 4.53955 0
M  V30 806 C 87.5295 -1.02726 5.64123 0
M  V30 807 N 87.0255 -1.09777 6.84047 0
M  V30 808 N 88.8185 -1.06226 5.51971 0
M  V30 809 H 80.9695 0.629462 2.02858 0
M  V30 810 H 83.2325 0.220621 0.921971 0
M  V30 811 H 82.9385 0.231518 3.50937 0
M  V30 812 H 82.8125 -1.51781 3.45315 0
M  V30 813 H 85.1995 -1.61999 2.46658 0
M  V30 814 H 85.2805 0.14541 2.55386 0
M  V30 815 H 84.9245 0.0146069 5.07898 0
M  V30 816 H 84.8545 -1.76172 4.96257 0
M  V30 817 H 87.3455 -0.876694 3.6759 0
M  V30 818 H 87.6585 -1.17872 7.63758 0
M  V30 819 H 86.0035 -1.06693 6.86762 0
M  V30 820 H 89.1945 -1.00382 4.5721 0
M  V30 821 H 89.3675 -1.14177 6.37862 0
M  V30 822 N 82.7736 -1.49793 -0.48987 0
M  V30 823 C 84.1846 -1.52914 -1.07118 0
M  V30 824 C 84.5356 -0.321738 -1.93544 0
M  V30 825 O 83.6606 0.567338 -2.08831 0
M  V30 826 C 84.2556 -2.771 -1.94938 0
M  V30 827 C 82.8146 -2.82963 -2.48212 0
M  V30 828 C 81.9616 -2.46972 -1.26096 0
M  V30 829 H 84.9126 -1.56329 -0.273289 0
M  V30 830 H 84.9336 -2.57892 -2.79771 0
M  V30 831 H 84.4456 -3.64959 -1.32009 0
M  V30 832 H 82.5466 -1.99411 -3.14748 0
M  V30 833 H 82.6596 -3.85406 -2.84603 0
M  V30 834 H 81.0236 -1.98994 -1.58976 0
M  V30 835 H 81.8066 -3.37118 -0.648581 0
M  V30 836 N 84.2517 0.741722 -1.39055 0
M  V30 837 C 85.4767 1.53607 -1.39354 0
M  V30 838 C 85.9017 1.88096 0.0116905 0
M  V30 839 O 85.2597 1.5143 0.996924 0
M  V30 840 C 85.3077 2.80441 -2.26682 0
M  V30 841 O 84.4117 3.76088 -1.69208 0
M  V30 842 H 83.7527 0.464142 -0.474835 0
M  V30 843 H 86.2827 0.915665 -1.82967 0
M  V30 844 H 86.2927 3.29246 -2.40959 0
M  V30 845 H 84.9677 2.5467 -3.2881 0
M  V30 846 H 83.5447 3.34833 -1.64138 0
M  V30 847 N 85.7298 1.2412 0.971189 0
M  V30 848 C 86.9778 1.07668 1.71032 0
M  V30 849 C 87.2988 -0.385797 1.91146 0
M  V30 850 O 86.5688 -1.27569 1.4867 0
M  V30 851 H 85.1488 0.395429 0.633755 0
M  V30 852 H 87.8108 1.55984 1.16855 0
M  V30 853 H 86.9068 1.57195 2.69622 0
M  V30 854 N 87.2079 -1.17134 1.05439 0
M  V30 855 C 88.4539 -1.87733 0.767077 0
M  V30 856 C 88.7869 -1.8098 -0.704253 0
M  V30 857 O 88.0619 -1.21951 -1.5152 0
M  V30 858 C 88.3449 -3.37659 1.25133 0
M  V30 859 C 88.1979 -3.53149 2.78578 0
M  V30 860 C 89.5169 -4.31768 0.852324 0
M  V30 861 H 86.6359 -0.681687 0.280129 0
M  V30 862 H 89.2779 -1.37732 1.30881 0
M  V30 863 H 87.4279 -3.80373 0.790469 0
M  V30 864 H 89.0999 -3.19434 3.32806 0
M  V30 865 H 87.3429 -2.95345 3.17732 0
M  V30 866 H 88.0139 -4.58403 3.07523 0
M  V30 867 H 90.4899 -3.96909 1.24911 0
M  V30 868 H 89.3659 -5.35199 1.21873 0
M  V30 869 H 89.6269 -4.41429 -0.243485 0
M  V30 870 N 88.686 -0.835752 -1.33615 0
M  V30 871 C 90.097 -0.487099 -1.80234 0
M  V30 872 C 90.448 0.993627 -1.69179 0
M  V30 873 O 89.573 1.77403 -1.23924 0
M  V30 874 C 90.168 -0.877385 -3.27242 0
M  V30 875 C 88.727 -0.580915 -3.7189 0
M  V30 876 C 87.874 -1.0874 -2.5509 0
M  V30 877 H 90.825 -1.02474 -1.2118 0
M  V30 878 H 90.846 -0.186195 -3.80044 0
M  V30 879 H 90.358 -1.95512 -3.35256 0
M  V30 880 H 88.459 0.486881 -3.69405 0
M  V30 881 H 88.572 -1.13396 -4.65487 0
M  V30 882 H 86.936 -0.508392 -2.49575 0
M  V30 883 H 87.719 -2.17184 -2.65868 0
M  V30 884 N 90.1641 1.46063 -0.591896 0
M  V30 885 C 91.4411 1.95595 -0.0137119 0
M  V30 886 C 91.8211 1.5345 1.4497 0
M  V30 887 O 91.1691 0.789543 2.14426 0
M  V30 888 C 91.3791 3.48453 -0.195373 0
M  V30 889 C 92.7271 4.24546 -0.0679765 0
M  V30 890 O 93.7511 3.55982 -0.124681 0
M  V30 891 O 92.6101 5.46467 0.0600579 0
M  V30 892 H 89.7041 0.825795 0.0446279 0
M  V30 893 H 92.2501 1.56303 -0.660859 0
M  V30 894 H 91.0221 3.72045 -1.21235 0
M  V30 895 H 90.6451 3.94597 0.487775 0
M  V30 896 N 91.6422 0.330177 1.54103 0
M  V30 897 C 93.0582 -0.0222371 1.59585 0
M  V30 898 C 93.2582 -1.49902 1.34654 0
M  V30 899 O 92.3142 -2.25592 1.13421 0
M  V30 900 C 93.6272 0.401932 2.98002 0
M  V30 901 C 95.1752 0.353145 3.11001 0
M  V30 902 C 95.6502 0.752576 4.51775 0
M  V30 903 N 97.1412 0.706239 4.57784 0
M  V30 904 C 97.8762 0.987417 5.64834 0
M  V30 905 N 97.3722 1.33607 6.79795 0
M  V30 906 N 99.1652 0.91254 5.54643 0
M  V30 907 H 91.3162 1.29228 1.68564 0
M  V30 908 H 93.5792 0.525906 0.78875 0
M  V30 909 H 93.2852 1.4311 3.21267 0
M  V30 910 H 93.1592 -0.229699 3.765 0
M  V30 911 H 95.5462 -0.666822 2.87467 0
M  V30 912 H 95.6272 1.0198 2.34593 0
M  V30 913 H 95.2712 1.77049 4.76042 0
M  V30 914 H 95.2012 0.0635409 5.26562 0
M  V30 915 H 97.6922 0.44889 3.75224 0
M  V30 916 H 98.0052 1.53582 7.57385 0
M  V30 917 H 96.3502 1.37439 6.81275 0
M  V30 918 H 99.5412 0.639601 4.6371 0
M  V30 919 H 99.7142 1.13503 6.37982 0
M  V30 920 N 93.1203 -1.57491 0.0584922 0
M  V30 921 C 94.3673 -1.92978 -0.613648 0
M  V30 922 C 94.6953 -0.937461 -1.70417 0
M  V30 923 O 93.9503 0.049078 -1.95638 0
M  V30 924 C 94.2493 -3.3513 -1.24188 0
M  V30 925 C 93.9153 -4.50037 -0.278826 0
M  V30 926 C 92.5773 -4.81198 -0.0138447 0
M  V30 927 C 94.9293 -5.19807 0.380777 0
M  V30 928 C 92.2573 -5.79473 0.918052 0
M  V30 929 C 94.6093 -6.19079 1.30091 0
M  V30 930 C 93.2733 -6.48665 1.57449 0
M  V30 931 H 92.5433 -0.706157 -0.22455 0
M  V30 932 H 95.1903 -1.91082 0.126533 0
M  V30 933 H 93.4953 -3.33429 -2.05749 0
M  V30 934 H 95.1923 -3.59871 -1.769 0
M  V30 935 H 91.7823 -4.25726 -0.495539 0
M  V30 936 H 95.9663 -4.95939 0.189158 0
M  V30 937 H 91.2223 -6.00727 1.1374 0
M  V30 938 H 95.3963 -6.7225 1.81804 0
M  V30 939 H 93.0233 -7.24628 2.29822 0
M  V30 940 N 94.5984 0.214957 -1.56127 0
M  V30 941 C 95.8234 0.95924 -1.83884 0
M  V30 942 C 96.2484 1.7689 -0.639644 0
M  V30 943 O 95.6064 1.76566 0.411601 0
M  V30 944 C 95.6544 1.84723 -3.09693 0
M  V30 945 O 94.7584 2.94346 -2.8885 0
M  V30 946 H 94.0994 0.27125 -0.606069 0
M  V30 947 H 96.6294 0.226276 -2.03345 0
M  V30 948 H 96.6394 2.25576 -3.39969 0
M  V30 949 H 95.3144 1.25218 -3.96602 0
M  V30 950 H 93.8914 2.57391 -2.69823 0
M  V30 951 N 96.0765 1.50051 0.48192 0
M  V30 952 C 97.3245 1.60181 1.23234 0
M  V30 953 C 97.6455 0.299176 1.92691 0
M  V30 954 O 96.9155 -0.682708 1.83619 0
M  V30 955 H 95.4955 0.590232 0.457859 0
M  V30 956 H 98.1575 1.86775 0.556881 0
M  V30 957 H 97.2535 2.40753 1.98607 0
M  V30 958 N 97.5546 -0.734337 1.39446 0
M  V30 959 C 98.7796 -1.52866 1.40167 0
M  V30 960 C 99.2046 -1.881 -0.00171513 0
M  V30 961 O 98.5626 -1.51957 -0.988879 0
M  V30 962 C 98.6106 -2.79235 2.28167 0
M  V30 963 O 97.7146 -3.75185 1.71201 0
M  V30 964 H 97.0556 -0.461618 0.477289 0
M  V30 965 H 99.5856 -0.905949 1.8345 0
M  V30 966 H 99.5956 -3.27963 2.42702 0
M  V30 967 H 98.2706 -2.52923 3.30156 0
M  V30 968 H 96.8476 -3.33958 1.65912 0
M  V30 969 N 99.0327 -1.24633 -0.964593 0
M  V30 970 C 99.9797 -1.04144 -2.05968 0
M  V30 971 C 100.95 0.046262 -1.66036 0
M  V30 972 O 102.135 -0.108972 -1.90489 0
M  V30 973 C 99.2747 -0.65563 -3.38815 0
M  V30 974 C 98.3877 -1.81714 -3.91923 0
M  V30 975 C 97.5227 -1.37662 -5.13052 0
M  V30 976 C 96.5617 -2.50788 -5.58365 0
M  V30 977 N 95.6987 -2.07582 -6.70712 0
M  V30 978 H 100.539 -1.9787 -2.22827 0
M  V30 979 H 98.0757 -0.9855 -1.09208 0
M  V30 980 H 100.034 -0.412954 -4.15151 0
M  V30 981 H 98.6637 0.244627 -3.21872 0
M  V30 982 H 97.7157 -2.1734 -3.12198 0
M  V30 983 H 99.0277 -2.66705 -4.21509 0
M  V30 984 H 98.1817 -1.093 -5.96773 0
M  V30 985 H 96.9207 -0.497293 -4.85158 0
M  V30 986 H 95.9257 -2.79906 -4.73215 0
M  V30 987 H 97.1507 -3.39283 -5.88272 0
M  V30 988 H 95.0967 -1.22051 -6.44546 0
M  V30 989 H 95.0137 -2.86125 -6.99763 0
M  V30 990 H 96.2817 -1.82369 -7.57867 0
M  V30 991 N 100.511 1.16574 -1.06058 0
M  V30 992 C 101.736 1.91493 -0.796562 0
M  V30 993 C 102.161 1.76773 0.642868 0
M  V30 994 O 101.519 1.09142 1.44768 0
M  V30 995 C 101.567 3.40293 -1.19303 0
M  V30 996 O 100.671 4.11074 -0.330394 0
M  V30 997 H 100.012 0.596678 -0.291326 0
M  V30 998 H 102.542 1.47708 -1.41575 0
M  V30 999 H 102.552 3.91057 -1.16356 0
M  V30 1000 H 101.227 3.50326 -2.24153 0
M  V30 1001 H 99.8038 3.70513 -0.421225 0
M  V30 1002 N 101.989 0.842826 1.3317 0
M  V30 1003 C 103.237 0.439577 1.97262 0
M  V30 1004 C 103.558 -1.00548 1.67078 0
M  V30 1005 O 102.828 -1.70098 0.971779 0
M  V30 1006 H 101.408 0.159558 0.72976 0
M  V30 1007 H 104.07 1.07665 1.62463 0
M  V30 1008 H 103.166 0.574886 3.0676 0
M  V30 1009 N 103.467 -1.45747 0.599634 0
M  V30 1010 C 104.415 -2.322 -0.136426 0
M  V30 1011 C 105.409 -1.45497 -0.867583 0
M  V30 1012 O 106.615 -1.62027 -0.78405 0
M  V30 1013 H 102.99 -0.749368 -0.0628588 0
M  V30 1014 H 104.961 -2.92072 0.611281 0
M  V30 1015 C 103.71 -3.28974 -1.12567 0
M  V30 1016 H 103.033 -3.9568 -0.572484 0
M  V30 1017 H 104.473 -3.92212 -1.61077 0
M  V30 1018 C 102.932 -2.55561 -2.19523 0
M  V30 1019 O 103.462 -2.33111 -3.27143 0
M  V30 1020 N 101.668 -2.15832 -1.94589 0
M  V30 1021 H 101.215 -2.3429 -1.07078 0
M  V30 1022 H 101.173 -1.67034 -2.66359 0
M  V30 1023 N 104.945 -0.338344 -1.53925 0
M  V30 1024 C 106.173 0.261298 -2.05243 0
M  V30 1025 C 106.588 1.44625 -1.21363 0
M  V30 1026 O 105.945 1.80811 -0.247736 0
M  V30 1027 C 105.996 0.681412 -3.5502 0
M  V30 1028 O 105.717 -0.456414 -4.35716 0
M  V30 1029 C 107.218 1.34232 -4.22489 0
M  V30 1030 H 104.438 0.0513685 -0.669031 0
M  V30 1031 H 106.982 -0.488822 -1.98572 0
M  V30 1032 H 105.137 1.38148 -3.61931 0
M  V30 1033 H 105.551 -0.122564 -5.24357 0
M  V30 1034 H 107.025 1.58708 -5.28693 0
M  V30 1035 H 107.502 2.29426 -3.74514 0
M  V30 1036 H 108.108 0.684424 -4.19757 0
M  V30 1037 N 106.423 1.57458 -0.0668435 0
M  V30 1038 C 107.386 2.11323 0.887422 0
M  V30 1039 C 108.386 1.03618 1.22964 0
M  V30 1040 O 109.576 1.29626 1.16373 0
M  V30 1041 C 106.708 2.61048 2.19242 0
M  V30 1042 H 107.901 2.96942 0.420194 0
M  V30 1043 H 105.454 1.55239 0.181793 0
M  V30 1044 H 106.189 1.78868 2.70512 0
M  V30 1045 H 105.974 3.39769 1.95702 0
M  V30 1046 H 107.464 3.02814 2.87565 0
M  V30 1047 N 107.901 -0.206675 1.56239 0
M  V30 1048 C 109.126 -0.949474 1.8439 0
M  V30 1049 C 109.551 -1.76549 0.649016 0
M  V30 1050 O 108.909 -1.76782 -0.402231 0
M  V30 1051 C 108.957 -1.83078 3.10668 0
M  V30 1052 O 108.061 -2.9281 2.90407 0
M  V30 1053 H 107.402 -0.268033 0.607499 0
M  V30 1054 H 109.932 -0.215488 2.03462 0
M  V30 1055 H 109.942 -2.2377 3.41161 0
M  V30 1056 H 108.617 -1.23112 3.97261 0
M  V30 1057 H 107.194 -2.55956 2.71184 0
M  V30 1058 N 109.379 -1.50304 -0.473955 0
M  V30 1059 C 110.309 -1.71886 -1.58042 0
M  V30 1060 C 111.29 -0.567799 -1.60344 0
M  V30 1061 O 112.475 -0.806623 -1.76656 0
M  V30 1062 C 109.605 -1.81036 -2.96384 0
M  V30 1063 C 108.559 -2.962 -3.08949 0
M  V30 1064 C 107.885 -2.9049 -4.48909 0
M  V30 1065 C 109.185 -4.36752 -2.86434 0
M  V30 1066 H 110.879 -2.64527 -1.40234 0
M  V30 1067 H 108.425 -1.27295 -0.673201 0
M  V30 1068 H 110.378 -1.94719 -3.73714 0
M  V30 1069 H 109.102 -0.850147 -3.15341 0
M  V30 1070 H 107.761 -2.82164 -2.3405 0
M  V30 1071 H 107.409 -1.92321 -4.64781 0
M  V30 1072 H 107.109 -3.67802 -4.58253 0
M  V30 1073 H 108.633 -3.06218 -5.28264 0
M  V30 1074 H 110.047 -4.5133 -3.53517 0
M  V30 1075 H 108.444 -5.15493 -3.07225 0
M  V30 1076 H 109.514 -4.49321 -1.82316 0
M  V30 1077 N 110.857 0.726932 -1.39834 0
M  V30 1078 C 112.085 1.51613 -1.40787 0
M  V30 1079 C 112.5 1.88799 -0.00451505 0
M  V30 1080 O 111.857 1.54662 0.968809 0
M  V30 1081 C 111.908 2.79863 -2.28821 0
M  V30 1082 O 111.629 2.44253 -3.63692 0
M  V30 1083 C 113.13 3.73837 -2.38245 0
M  V30 1084 H 110.35 0.468264 -0.480593 0
M  V30 1085 H 112.894 0.897607 -1.83748 0
M  V30 1086 H 111.049 3.38027 -1.89252 0
M  V30 1087 H 111.463 3.26695 -4.1033 0
M  V30 1088 H 112.937 4.60699 -3.04073 0
M  V30 1089 H 113.414 4.16153 -1.40403 0
M  V30 1090 H 114.02 3.21589 -2.78317 0
M  V30 1091 N 112.336 1.25143 0.95797 0
M  V30 1092 C 113.582 1.09855 1.70469 0
M  V30 1093 C 113.915 -0.360187 1.90831 0
M  V30 1094 O 113.19 -1.26568 1.47685 0
M  V30 1095 C 113.473 1.8497 3.08963 0
M  V30 1096 C 113.326 3.38652 2.96032 0
M  V30 1097 C 114.645 1.63016 4.08795 0
M  V30 1098 H 111.764 0.400465 0.618706 0
M  V30 1099 H 114.406 1.53933 1.11376 0
M  V30 1100 H 112.556 1.47505 3.59409 0
M  V30 1101 H 114.228 3.85772 2.52938 0
M  V30 1102 H 112.471 3.66534 2.32025 0
M  V30 1103 H 113.142 3.8642 3.94187 0
M  V30 1104 H 115.618 1.95625 3.67247 0
M  V30 1105 H 114.494 2.18015 5.03747 0
M  V30 1106 H 114.755 0.570692 4.38401 0
M  V30 1107 N 113.814 -1.1601 1.06675 0
M  V30 1108 C 115.039 -1.91068 0.806706 0
M  V30 1109 C 115.464 -1.77112 -0.633485 0
M  V30 1110 O 114.822 -1.09908 -1.44187 0
M  V30 1111 C 114.87 -3.39655 1.21106 0
M  V30 1112 O 113.974 -4.10893 0.352189 0
M  V30 1113 H 113.315 -0.595125 0.294486 0
M  V30 1114 H 115.845 -1.46955 1.42356 0
M  V30 1115 H 115.855 -3.90434 1.18428 0
M  V30 1116 H 114.53 -3.49132 2.26008 0
M  V30 1117 H 113.107 -3.70285 0.440868 0
M  V30 1118 N 115.292 -0.849877 -1.32721 0
M  V30 1119 C 116.54 -0.450032 -1.97026 0
M  V30 1120 C 116.861 0.996604 -1.67609 0
M  V30 1121 O 116.131 1.6958 -0.980786 0
M  V30 1122 H 114.711 -0.163426 -0.728904 0
M  V30 1123 H 117.373 -1.08526 -1.6189 0
M  V30 1124 H 116.469 -0.591146 -3.0645 0
M  V30 1125 N 116.77 1.45427 -0.607355 0
M  V30 1126 C 117.7 2.3329 0.0989352 0
M  V30 1127 C 118.681 1.46816 0.859007 0
M  V30 1128 O 119.866 1.75588 0.829604 0
M  V30 1129 C 116.996 3.29518 1.09705 0
M  V30 1130 C 115.95 4.25626 0.450206 0
M  V30 1131 C 115.276 5.11542 1.55655 0
M  V30 1132 C 116.576 5.18505 -0.628455 0
M  V30 1133 H 118.27 2.92595 -0.634716 0
M  V30 1134 H 115.816 1.40696 -0.306681 0
M  V30 1135 H 117.769 3.89855 1.59971 0
M  V30 1136 H 116.493 2.68372 1.86129 0
M  V30 1137 H 115.152 3.66586 -0.0315886 0
M  V30 1138 H 114.8 4.46765 2.31107 0
M  V30 1139 H 114.5 5.76647 1.12925 0
M  V30 1140 H 116.024 5.74748 2.06148 0
M  V30 1141 H 117.438 5.72916 -0.209877 0
M  V30 1142 H 115.835 5.92085 -0.977489 0
M  V30 1143 H 116.905 4.60948 -1.50514 0
M  V30 1144 N 118.248 0.346503 1.53744 0
M  V30 1145 C 119.18 -0.543316 2.22667 0
M  V30 1146 C 120.193 -1.06159 1.23427 0
M  V30 1147 O 121.382 -0.971235 1.49764 0
M  V30 1148 C 118.482 -1.76076 2.89569 0
M  V30 1149 C 117.655 -1.37727 4.15151 0
M  V30 1150 C 116.714 -2.45471 4.65436 0
M  V30 1151 O 115.74 -2.08655 5.29577 0
M  V30 1152 N 116.942 -3.7677 4.41616 0
M  V30 1153 H 119.707 0.0469703 2.99663 0
M  V30 1154 H 117.268 0.170766 1.60997 0
M  V30 1155 H 119.26 -2.47593 3.20125 0
M  V30 1156 H 117.83 -2.25835 2.16142 0
M  V30 1157 H 117.05 -0.492746 3.91108 0
M  V30 1158 H 118.338 -1.09708 4.96832 0
M  V30 1159 H 117.736 -4.09467 3.90325 0
M  V30 1160 H 116.293 -4.44448 4.7677 0
M  V30 1161 N 119.726 -1.57421 0.075193 0
M  V30 1162 C 120.689 -2.11791 -0.876203 0
M  V30 1163 C 121.689 -1.04268 -1.22412 0
M  V30 1164 O 122.879 -1.30242 -1.15684 0
M  V30 1165 C 120.011 -2.62207 -2.17854 0
M  V30 1166 H 121.204 -2.9716 -0.40444 0
M  V30 1167 H 118.757 -1.55333 -0.173557 0
M  V30 1168 H 119.492 -1.803 -2.6956 0
M  V30 1169 H 119.277 -3.40802 -1.93897 0
M  V30 1170 H 120.767 -3.04335 -2.85955 0
M  V30 1171 N 121.204 0.198386 -1.56346 0
M  V30 1172 C 122.114 1.2664 -1.97483 0
M  V30 1173 C 123.13 1.49989 -0.882002 0
M  V30 1174 O 124.306 1.62668 -1.18748 0
M  V30 1175 C 121.371 2.59141 -2.30319 0
M  V30 1176 C 120.432 2.43892 -3.53292 0
M  V30 1177 C 119.665 3.70074 -3.84553 0
M  V30 1178 O 119.888 4.74101 -3.1715 0
M  V30 1179 O 118.822 3.658 -4.7799 0
M  V30 1180 H 122.648 0.947304 -2.88548 0
M  V30 1181 H 120.233 0.403123 -1.43859 0
M  V30 1182 H 122.115 3.37352 -2.5253 0
M  V30 1183 H 120.79 2.90684 -1.42423 0
M  V30 1184 H 119.697 1.63803 -3.36332 0
M  V30 1185 H 121.03 2.17282 -4.41644 0
M  V30 1186 N 122.682 1.50554 0.465978 0
M  V30 1187 C 123.959 1.5232 1.22712 0
M  V30 1188 C 124.339 0.270807 2.09356 0
M  V30 1189 O 123.687 -0.745541 2.15995 0
M  V30 1190 C 123.897 2.82175 2.05374 0
M  V30 1191 C 125.245 3.33033 2.6339 0
M  V30 1192 O 126.269 2.83531 2.15612 0
M  V30 1193 O 125.128 4.19336 3.50456 0
M  V30 1194 H 122.222 0.611183 0.557122 0
M  V30 1195 H 124.768 1.62847 0.477381 0
M  V30 1196 H 123.54 3.64797 1.41558 0
M  V30 1197 H 123.163 2.74675 2.87471 0
M  V30 1198 N 124.16 -0.719506 1.40217 0
M  V30 1199 C 125.07 -1.86378 1.42479 0
M  V30 1200 C 126.086 -1.71073 0.317834 0
M  V30 1201 O 127.262 -1.93406 0.561794 0
M  V30 1202 C 124.327 -3.22136 1.28178 0
M  V30 1203 C 123.388 -3.49723 2.48982 0
M  V30 1204 C 122.621 -4.79004 2.35353 0
M  V30 1205 O 122.844 -5.53821 1.36524 0
M  V30 1206 O 121.778 -5.06839 3.2465 0
M  V30 1207 H 125.604 -1.87425 2.38968 0
M  V30 1208 H 123.189 -0.869405 1.21498 0
M  V30 1209 H 125.071 -4.03234 1.22395 0
M  V30 1210 H 123.746 -3.21825 0.347934 0
M  V30 1211 H 122.653 -2.6865 2.60342 0
M  V30 1212 H 123.986 -3.54828 3.41113 0
M  V30 1213 N 125.638 -1.25649 -0.95132 0
M  V30 1214 C 126.601 -1.06399 -2.03007 0
M  V30 1215 C 127.601 -0.0156794 -1.60792 0
M  V30 1216 O 128.791 -0.25817 -1.72276 0
M  V30 1217 C 125.923 -0.616184 -3.35285 0
M  V30 1218 H 127.116 -2.02164 -2.21517 0
M  V30 1219 H 124.669 -1.08103 -1.12887 0
M  V30 1220 H 125.404 0.343917 -3.22471 0
M  V30 1221 H 125.189 -1.37301 -3.67275 0
M  V30 1222 H 126.679 -0.503032 -4.14559 0
M  V30 1223 N 127.117 1.15442 -1.07289 0
M  V30 1224 C 128.394 1.82306 -0.708792 0
M  V30 1225 C 128.774 1.94991 0.808807 0
M  V30 1226 O 128.122 1.50085 1.72298 0
M  V30 1227 C 128.332 3.18695 -1.42247 0
M  V30 1228 C 129.68 3.94341 -1.57417 0
M  V30 1229 O 130.704 3.28247 -1.38319 0
M  V30 1230 O 129.563 5.12839 -1.88834 0
M  V30 1231 H 126.657 0.787628 -0.252132 0
M  V30 1232 H 129.203 1.22559 -1.17377 0
M  V30 1233 H 127.975 3.04557 -2.45684 0
M  V30 1234 H 127.598 3.86128 -0.948223 0
M  V30 1235 N 128.595 0.856903 1.32268 0
M  V30 1236 C 129.825 0.47475 2.01071 0
M  V30 1237 C 130.233 -0.933746 1.64553 0
M  V30 1238 O 129.576 -1.62114 0.863989 0
M  V30 1239 C 129.638 0.536746 3.55471 0
M  V30 1240 C 129.302 1.90453 4.15423 0
M  V30 1241 C 130.299 2.87029 4.33486 0
M  V30 1242 C 127.984 2.20229 4.51447 0
M  V30 1243 C 129.978 4.11532 4.86744 0
M  V30 1244 C 127.665 3.44984 5.0441 0
M  V30 1245 C 128.663 4.40452 5.22007 0
M  V30 1246 O 128.351 5.62998 5.73837 0
M  V30 1247 H 128.083 0.184778 0.650256 0
M  V30 1248 H 130.637 1.15615 1.69771 0
M  V30 1249 H 128.867 -0.20152 3.86175 0
M  V30 1250 H 130.556 0.169875 4.05544 0
M  V30 1251 H 131.322 2.6533 4.05986 0
M  V30 1252 H 127.201 1.46705 4.37034 0
M  V30 1253 H 130.745 4.86056 5.00395 0
M  V30 1254 H 126.642 3.66532 5.31342 0
M  V30 1255 H 127.41 5.64987 5.92226 0
M  V30 1256 N 130.073 -1.45103 0.615059 0
M  V30 1257 C 131.303 -2.06254 0.119596 0
M  V30 1258 C 131.711 -1.4591 -1.20445 0
M  V30 1259 O 131.054 -0.570384 -1.7462 0
M  V30 1260 C 131.116 -3.59396 -0.0865591 0
M  V30 1261 C 130.78 -4.42116 1.15683 0
M  V30 1262 C 131.777 -4.7662 2.07676 0
M  V30 1263 C 129.462 -4.82749 1.38775 0
M  V30 1264 C 131.456 -5.50622 3.21082 0
M  V30 1265 C 129.143 -5.56504 2.52481 0
M  V30 1266 C 130.141 -5.90358 3.43463 0
M  V30 1267 O 129.829 -6.62615 4.55189 0
M  V30 1268 H 129.561 -0.672423 0.0694512 0
M  V30 1269 H 132.115 -1.87219 0.844885 0
M  V30 1270 H 130.345 -3.76859 -0.866823 0
M  V30 1271 H 132.034 -4.02365 -0.534555 0
M  V30 1272 H 132.8 -4.4578 1.91063 0
M  V30 1273 H 128.679 -4.55829 0.688545 0
M  V30 1274 H 132.223 -5.76965 3.92119 0
M  V30 1275 H 128.12 -5.86759 2.69043 0
M  V30 1276 H 128.888 -6.81071 4.53966 0
M  V30 1277 N 131.551 -0.354651 -1.53558 0
M  V30 1278 C 132.791 0.238651 -2.03002 0
M  V30 1279 C 133.155 1.46878 -1.23656 0
M  V30 1280 O 134.356 2.13699 -1.63053 0
M  V30 1281 C 132.627 0.534175 -3.53386 0
M  V30 1282 S 134.186 1.10271 -4.24719 0
M  V30 1283 H 131.004 0.0702908 -0.707517 0
M  V30 1284 H 133.606 -0.494987 -1.8913 0
M  V30 1285 H 132.31 -0.368765 -4.0874 0
M  V30 1286 H 131.841 1.29718 -3.71398 0
M  V30 1287 H 133.856 2.38772 -4.34974 0
M  V30 1288 N 133.029 1.57378 -0.0835403 0
M  V30 1289 C 134.254 1.98682 0.594987 0
M  V30 1290 C 134.679 0.961969 1.61641 0
M  V30 1291 O 134.037 -0.0709989 1.81161 0
M  V30 1292 C 134.085 3.38988 1.2296 0
M  V30 1293 O 133.189 3.39208 2.34546 0
M  V30 1294 H 132.53 0.646368 0.152002 0
M  V30 1295 H 135.06 2.03961 -0.161533 0
M  V30 1296 H 135.07 3.76431 1.57366 0
M  V30 1297 H 133.745 4.13107 0.481228 0
M  V30 1298 H 132.322 3.13548 2.01846 0
M  V30 1299 N 134.507 -0.190092 1.56449 0
M  V30 1300 C 135.732 -0.929864 1.85387 0
M  V30 1301 C 136.157 -1.7585 0.667704 0
M  V30 1302 O 135.515 -1.77198 -0.383459 0
M  V30 1303 C 135.563 -1.79773 3.12593 0
M  V30 1304 O 134.667 -2.89713 2.93496 0
M  V30 1305 H 134.008 -0.261574 0.610307 0
M  V30 1306 H 136.538 -0.193896 2.03679 0
M  V30 1307 H 136.548 -2.20139 3.43515 0
M  V30 1308 H 135.223 -1.18892 3.98544 0
M  V30 1309 H 133.8 -2.53065 2.73884 0
M  V30 1310 N 135.985 -1.50799 -0.457987 0
M  V30 1311 C 137.215 -1.65977 -1.23025 0
M  V30 1312 C 137.623 -0.347918 -1.85974 0
M  V30 1313 O 136.966 0.68148 -1.70592 0
M  V30 1314 C 137.028 -2.70309 -2.3701 0
M  V30 1315 C 136.692 -4.135 -1.94594 0
M  V30 1316 C 137.689 -4.98949 -1.46101 0
M  V30 1317 C 135.374 -4.5949 -2.02915 0
M  V30 1318 C 137.368 -6.28442 -1.06489 0
M  V30 1319 C 135.055 -5.88984 -1.62914 0
M  V30 1320 C 136.053 -6.73286 -1.1478 0
M  V30 1321 O 135.741 -8.00362 -0.75339 0
M  V30 1322 H 135.473 -0.56064 -0.377702 0
M  V30 1323 H 138.027 -1.97857 -0.551537 0
M  V30 1324 H 136.257 -2.337 -3.08093 0
M  V30 1325 H 137.946 -2.74574 -2.98938 0
M  V30 1326 H 138.712 -4.6463 -1.39084 0
M  V30 1327 H 134.591 -3.94009 -2.39328 0
M  V30 1328 H 138.135 -6.94194 -0.688488 0
M  V30 1329 H 134.032 -6.22822 -1.69595 0
M  V30 1330 H 134.8 -8.13744 -0.88108 0
M  V30 1331 N 137.463 0.71206 -1.40597 0
M  V30 1332 C 138.373 1.8562 -1.43466 0
M  V30 1333 C 139.389 1.70902 -0.326902 0
M  V30 1334 O 140.565 1.93105 -0.572043 0
M  V30 1335 C 137.63 3.21451 -1.29884 0
M  V30 1336 C 136.691 3.48398 -2.50833 0
M  V30 1337 C 135.924 4.77749 -2.3789 0
M  V30 1338 O 136.147 5.53089 -1.39459 0
M  V30 1339 O 135.081 5.05111 -3.27333 0
M  V30 1340 H 138.907 1.86155 -2.39958 0
M  V30 1341 H 136.492 0.86295 -1.21957 0
M  V30 1342 H 138.374 4.02579 -1.24531 0
M  V30 1343 H 137.049 3.21636 -0.364997 0
M  V30 1344 H 135.956 2.67265 -2.61763 0
M  V30 1345 H 137.289 3.53014 -3.4299 0
M  V30 1346 N 138.941 1.26152 0.944643 0
M  V30 1347 C 140.189 1.11271 1.6871 0
M  V30 1348 C 140.51 -0.345166 1.91921 0
M  V30 1349 O 139.78 -1.24387 1.51343 0
M  V30 1350 H 138.36 0.408783 0.625224 0
M  V30 1351 H 141.022 1.58427 1.1352 0
M  V30 1352 H 140.118 1.62879 2.66227 0
M  V30 1353 N 140.419 -1.14872 1.07899 0
M  V30 1354 C 141.644 -1.90202 0.826926 0
M  V30 1355 C 142.069 -1.77774 -0.614664 0
M  V30 1356 O 141.427 -1.11431 -1.43013 0
M  V30 1357 C 141.475 -3.38352 1.24702 0
M  V30 1358 O 140.579 -4.10497 0.39575 0
M  V30 1359 H 139.92 -0.591968 0.300782 0
M  V30 1360 H 142.45 -1.45437 1.43907 0
M  V30 1361 H 142.46 -3.89156 1.22563 0
M  V30 1362 H 141.135 -3.46715 2.29698 0
M  V30 1363 H 139.712 -3.69796 0.480117 0
M  V30 1364 N 141.898 -0.863906 -1.31812 0
M  V30 1365 C 143.175 -0.39275 -1.91616 0
M  V30 1366 C 143.555 1.12461 -1.7865 0
M  V30 1367 O 142.903 1.95045 -1.19037 0
M  V30 1368 C 143.113 -0.867385 -3.38049 0
M  V30 1369 C 144.461 -0.889966 -4.15168 0
M  V30 1370 O 145.485 -0.812635 -3.46806 0
M  V30 1371 O 144.344 -1.00079 -5.37258 0
M  V30 1372 H 141.438 -0.116358 -0.818773 0
M  V30 1373 H 143.984 -0.951418 -1.40521 0
M  V30 1374 H 142.756 -1.91081 -3.41473 0
M  V30 1375 H 142.379 -0.286687 -3.96565 0
M  V30 1376 N 143.376 1.44774 -0.622745 0
M  V30 1377 C 144.324 2.32387 0.0994683 0
M  V30 1378 C 145.318 1.46859 0.844326 0
M  V30 1379 O 146.524 1.63254 0.758174 0
M  V30 1380 H 142.899 0.750273 0.0509291 0
M  V30 1381 H 144.87 2.91062 -0.65767 0
M  V30 1382 C 143.619 3.30723 1.07319 0
M  V30 1383 H 142.942 3.96541 0.509462 0
M  V30 1384 H 144.382 3.94725 1.54817 0
M  V30 1385 C 142.841 2.59021 2.15429 0
M  V30 1386 O 143.371 2.38286 3.23393 0
M  V30 1387 N 141.577 2.189 1.91131 0
M  V30 1388 H 141.124 2.35964 1.03337 0
M  V30 1389 H 141.082 1.71251 2.63668 0
M  V30 1390 N 144.854 0.36279 1.53368 0
M  V30 1391 C 146.101 -0.227776 2.01215 0
M  V30 1392 C 146.429 -1.49003 1.25014 0
M  V30 1393 O 145.684 -1.92876 0.331236 0
M  V30 1394 C 145.983 -0.568417 3.52851 0
M  V30 1395 C 145.649 0.59918 4.46901 0
M  V30 1396 C 144.311 0.919559 4.72332 0
M  V30 1397 C 146.663 1.38156 5.02556 0
M  V30 1398 C 143.991 2.02434 5.5067 0
M  V30 1399 C 146.343 2.47674 5.821 0
M  V30 1400 C 145.007 2.8025 6.05819 0
M  V30 1401 H 144.277 -0.083349 0.736297 0
M  V30 1402 H 146.924 0.494677 1.85001 0
M  V30 1403 H 145.229 -1.37185 3.66998 0
M  V30 1404 H 146.926 -1.03756 3.87344 0
M  V30 1405 H 143.516 0.339437 4.27254 0
M  V30 1406 H 147.7 1.14729 4.82857 0
M  V30 1407 H 142.956 2.28075 5.67267 0
M  V30 1408 H 147.13 3.08716 6.24234 0
M  V30 1409 H 144.757 3.65979 6.66306 0
M  V30 1410 N 146.332 -1.57332 0.0918853 0
M  V30 1411 C 147.578 -1.94524 -0.573425 0
M  V30 1412 C 147.911 -0.973578 -1.68033 0
M  V30 1413 O 147.186 -0.00609226 -1.94499 0
M  V30 1414 C 147.469 -3.41858 -1.13161 0
M  V30 1415 C 147.322 -4.4979 -0.0299747 0
M  V30 1416 C 148.641 -3.90435 -2.03098 0
M  V30 1417 H 145.76 -0.70734 -0.206975 0
M  V30 1418 H 148.402 -1.89309 0.161942 0
M  V30 1419 H 146.552 -3.46433 -1.7583 0
M  V30 1420 H 148.224 -4.57327 0.604112 0
M  V30 1421 H 146.467 -4.291 0.636833 0
M  V30 1422 H 147.138 -5.50069 -0.461287 0
M  V30 1423 H 149.614 -3.87992 -1.50338 0
M  V30 1424 H 148.49 -4.94097 -2.39081 0
M  V30 1425 H 148.751 -3.29541 -2.94712 0
M  V30 1426 N 147.81 0.181792 -1.56548 0
M  V30 1427 C 149.057 0.900097 -1.81396 0
M  V30 1428 C 149.385 1.82695 -0.667281 0
M  V30 1429 O 148.64 1.92614 0.346146 0
M  V30 1430 C 148.939 1.73728 -3.12335 0
M  V30 1431 C 148.605 0.960255 -4.40556 0
M  V30 1432 C 147.267 0.745766 -4.75386 0
M  V30 1433 C 149.619 0.414477 -5.19549 0
M  V30 1434 C 146.947 -0.0257694 -5.86694 0
M  V30 1435 C 149.299 -0.343916 -6.31664 0
M  V30 1436 C 147.963 -0.569301 -6.65068 0
M  V30 1437 H 147.233 0.329369 -0.663775 0
M  V30 1438 H 149.88 0.165647 -1.90782 0
M  V30 1439 H 148.185 2.54081 -2.98245 0
M  V30 1440 H 149.882 2.29591 -3.28769 0
M  V30 1441 H 146.472 1.13746 -4.13231 0
M  V30 1442 H 150.656 0.567554 -4.93044 0
M  V30 1443 H 145.912 -0.210233 -6.11038 0
M  V30 1444 H 150.086 -0.774133 -6.92084 0
M  V30 1445 H 147.713 -1.16903 -7.51158 0
M  V30 1446 N 149.288 1.51039 0.449983 0
M  V30 1447 C 150.536 1.62759 1.19808 0
M  V30 1448 C 150.857 0.339981 1.92013 0
M  V30 1449 O 150.127 -0.643606 1.85026 0
M  V30 1450 H 148.707 0.599811 0.445237 0
M  V30 1451 H 151.369 1.87914 0.517138 0
M  V30 1452 H 150.465 2.44911 1.93455 0
M  V30 1453 N 150.766 -0.704594 1.40972 0
M  V30 1454 C 151.994 -1.49354 1.43182 0
M  V30 1455 C 152.409 -1.88768 0.0345508 0
M  V30 1456 O 151.766 -1.56184 -0.944081 0
M  V30 1457 C 151.817 -2.76187 2.33244 0
M  V30 1458 O 151.538 -2.38436 3.67532 0
M  V30 1459 C 153.039 -3.7 2.44162 0
M  V30 1460 H 150.259 -0.460559 0.487982 0
M  V30 1461 H 152.803 -0.868261 1.85153 0
M  V30 1462 H 150.958 -3.34974 1.94606 0
M  V30 1463 H 151.372 -3.20126 4.15475 0
M  V30 1464 H 152.846 -4.55803 3.11364 0
M  V30 1465 H 153.323 -4.13867 1.47006 0
M  V30 1466 H 153.929 -3.17121 2.83398 0
M  V30 1467 N 152.244 -1.26651 -0.937939 0
M  V30 1468 C 153.492 -1.12165 -1.68118 0
M  V30 1469 C 153.813 0.334983 -1.92101 0
M  V30 1470 O 153.083 1.23583 -1.52 0
M  V30 1471 H 151.663 -0.412093 -0.623048 0
M  V30 1472 H 154.325 -1.59027 -1.12678 0
M  V30 1473 H 153.421 -1.64289 -2.6536 0
M  V30 1474 N 153.722 1.14298 -1.08507 0
M  V30 1475 C 154.95 1.89219 -0.836876 0
M  V30 1476 C 155.365 1.78638 0.611054 0
M  V30 1477 O 154.722 1.14643 1.41998 0
M  V30 1478 C 154.773 3.39158 -1.25116 0
M  V30 1479 O 154.494 3.49449 -2.64229 0
M  V30 1480 C 155.995 4.31073 -1.03398 0
M  V30 1481 H 153.215 0.599328 -0.301739 0
M  V30 1482 H 155.759 1.44746 -1.44461 0
M  V30 1483 H 153.914 3.81251 -0.687514 0
M  V30 1484 H 154.328 4.42589 -2.81452 0
M  V30 1485 H 155.802 5.34646 -1.37323 0
M  V30 1486 H 156.279 4.3919 0.0289259 0
M  V30 1487 H 156.885 3.94738 -1.58311 0
M  V30 1488 N 155.201 0.870884 1.31352 0
M  V30 1489 C 156.148 0.325425 2.28494 0
M  V30 1490 C 157.118 -0.576615 1.5577 0
M  V30 1491 O 158.303 -0.508059 1.83911 0
M  V30 1492 C 155.443 -0.466283 3.41935 0
M  V30 1493 C 154.556 0.463378 4.29508 0
M  V30 1494 C 153.691 -0.342544 5.30094 0
M  V30 1495 C 152.73 0.583486 6.09313 0
M  V30 1496 N 151.867 -0.186244 7.01853 0
M  V30 1497 H 156.707 1.15901 2.74538 0
M  V30 1498 H 154.244 0.58294 1.35056 0
M  V30 1499 H 156.202 -0.941085 4.06447 0
M  V30 1500 H 154.832 -1.26456 2.97 0
M  V30 1501 H 153.884 1.05663 3.65431 0
M  V30 1502 H 155.196 1.1734 4.84802 0
M  V30 1503 H 154.35 -0.879816 6.00287 0
M  V30 1504 H 153.089 -1.08585 4.75458 0
M  V30 1505 H 152.094 1.13251 5.3801 0
M  V30 1506 H 153.319 1.32566 6.66035 0
M  V30 1507 H 151.265 -0.912348 6.49625 0
M  V30 1508 H 151.182 0.464422 7.54572 0
M  V30 1509 H 152.45 -0.704716 7.76308 0
M  V30 1510 N 156.679 -1.44442 0.630414 0
M  V30 1511 C 157.925 -2.02351 0.134816 0
M  V30 1512 C 158.258 -1.4947 -1.23986 0
M  V30 1513 O 157.533 -0.678475 -1.82283 0
M  V30 1514 C 157.816 -3.59898 0.120707 0
M  V30 1515 C 157.669 -4.23063 1.52767 0
M  V30 1516 C 158.988 -4.36585 -0.555127 0
M  V30 1517 H 156.107 -0.73527 0.0504646 0
M  V30 1518 H 158.749 -1.72022 0.806751 0
M  V30 1519 H 156.899 -3.85868 -0.451477 0
M  V30 1520 H 158.571 -4.08202 2.14869 0
M  V30 1521 H 156.814 -3.80586 2.08175 0
M  V30 1522 H 157.485 -5.32071 1.46984 0
M  V30 1523 H 159.961 -4.16044 -0.0685429 0
M  V30 1524 H 158.837 -5.46294 -0.534185 0
M  V30 1525 H 159.098 -4.11138 -1.62535 0
M  V30 1526 N 158.157 -0.370918 -1.53173 0
M  V30 1527 C 159.385 0.217704 -2.05751 0
M  V30 1528 C 159.8 1.42018 -1.24404 0
M  V30 1529 O 159.157 1.80245 -0.286033 0
M  V30 1530 C 159.208 0.605954 -3.56385 0
M  V30 1531 O 158.929 -0.548734 -4.3465 0
M  V30 1532 C 160.43 1.2524 -4.25241 0
M  V30 1533 H 157.65 0.0371659 -0.66997 0
M  V30 1534 H 160.194 -0.530832 -1.9749 0
M  V30 1535 H 158.349 1.3044 -3.6478 0
M  V30 1536 H 158.763 -0.23376 -5.23979 0
M  V30 1537 H 160.237 1.47458 -5.3194 0
M  V30 1538 H 160.714 2.2143 -3.79296 0
M  V30 1539 H 161.32 0.595233 -4.21114 0
M  V30 1540 N 159.635 1.57281 -0.100228 0
M  V30 1541 C 160.881 1.94826 0.563101 0
M  V30 1542 C 161.214 0.982475 1.67514 0
M  V30 1543 O 160.489 0.0164069 1.94493 0
M  V30 1544 C 160.772 3.42453 1.11346 0
M  V30 1545 C 160.625 4.498 0.00612081 0
M  V30 1546 C 161.944 3.91506 2.01024 0
M  V30 1547 H 159.063 0.708428 0.203221 0
M  V30 1548 H 161.705 1.8922 -0.171979 0
M  V30 1549 H 159.855 3.47361 1.7399 0
M  V30 1550 H 161.527 4.57 -0.628357 0
M  V30 1551 H 159.77 4.28756 -0.659581 0
M  V30 1552 H 160.441 5.50306 0.432109 0
M  V30 1553 H 162.917 3.88784 1.48278 0
M  V30 1554 H 161.793 4.95358 2.36457 0
M  V30 1555 H 162.054 3.31099 2.92961 0
M  V30 1556 N 161.113 -0.173488 1.56642 0
M  V30 1557 C 162.043 -1.2171 1.99271 0
M  V30 1558 C 163.024 -1.46289 0.867959 0
M  V30 1559 O 164.209 -1.5766 1.13388 0
M  V30 1560 C 161.339 -2.55651 2.35074 0
M  V30 1561 C 160.293 -2.45645 3.50489 0
M  V30 1562 C 159.619 -3.84056 3.72028 0
M  V30 1563 C 160.919 -1.96302 4.84007 0
M  V30 1564 H 162.613 -0.86275 2.867 0
M  V30 1565 H 160.159 -0.413571 1.37933 0
M  V30 1566 H 162.112 -3.2886 2.63494 0
M  V30 1567 H 160.836 -2.92869 1.44552 0
M  V30 1568 H 159.495 -1.7489 3.22194 0
M  V30 1569 H 159.143 -4.18664 2.788 0
M  V30 1570 H 158.843 -3.7823 4.49684 0
M  V30 1571 H 160.367 -4.58854 4.02846 0
M  V30 1572 H 161.781 -2.59284 5.11317 0
M  V30 1573 H 160.178 -2.01429 5.65284 0
M  V30 1574 H 161.248 -0.917226 4.76146 0
M  V30 1575 N 162.591 -1.51276 -0.441967 0
M  V30 1576 C 163.839 -1.63392 -1.18943 0
M  V30 1577 C 164.16 -0.350159 -1.9183 0
M  V30 1578 O 163.43 0.633784 -1.85364 0
M  V30 1579 H 162.01 -0.602164 -0.442049 0
M  V30 1580 H 164.672 -1.88186 -0.507165 0
M  V30 1581 H 163.768 -2.45934 -1.92154 0
M  V30 1582 O 164.108 0.587699 -1.50427 0
M  V30 1583 H 164.799 1.24259 -1.48592 0
M  V30 END ATOM
M  V30 BEGIN BOND
M  V30 END BOND
M  V30 END CTAB
M  END
$$$$
